drugbank_target|P35610 Sterol O-acyltransferase 1 (DB00973; DB01094)
 OpenBabel12092119243D

  0  0  0     0  0            999 V3000
M  V30 BEGIN CTAB
M  V30 COUNTS 9145 9299 0 0 0
M  V30 BEGIN ATOM
M  V30 1 H -0.908 1.98254 -0.117106 0
M  V30 2 N 0 1.576 0 0
M  V30 3 C 0.933 2.03868 1.02534 0
M  V30 4 C 1.911 0.928543 1.3348 0
M  V30 5 O 3.095 1.19667 1.45644 0
M  V30 6 C 0.222 2.43627 2.35294 0
M  V30 7 C -0.732 3.65373 2.2001 0
M  V30 8 S 0.101 5.13292 1.52614 0
M  V30 9 C 1.257 5.56322 2.86805 0
M  V30 10 H 1.49 2.90518 0.631377 0
M  V30 11 H -0.977 1.52953 0.210867 0
M  V30 12 H 0.981 2.67203 3.11629 0
M  V30 13 H -0.358 1.57376 2.7183 0
M  V30 14 H -1.165 3.90944 3.18086 0
M  V30 15 H -1.563 3.418 1.51819 0
M  V30 16 H 0.729 5.58782 3.83104 0
M  V30 17 H 1.672 6.56266 2.65933 0
M  V30 18 H 2.08 4.83886 2.90714 0
M  V30 19 N 1.4781 -0.272755 1.55222 0
M  V30 20 C 2.7241 -1.00581 1.761 0
M  V30 21 C 3.0571 -1.85932 0.560625 0
M  V30 22 O 2.3321 -1.89416 -0.441801 0
M  V30 23 C 2.6151 -1.88816 3.06628 0
M  V30 24 C 2.4681 -1.06457 4.37021 0
M  V30 25 C 3.7871 -2.8752 3.33197 0
M  V30 26 H 0.9061 -0.364244 0.640699 0
M  V30 27 H 3.5481 -0.278189 1.87952 0
M  V30 28 H 1.6981 -2.50856 2.96654 0
M  V30 29 H 3.3701 -0.464863 4.58952 0
M  V30 30 H 1.6131 -0.368043 4.32236 0
M  V30 31 H 2.2841 -1.71514 5.24678 0
M  V30 32 H 4.7601 -2.35615 3.42965 0
M  V30 33 H 3.6361 -3.46399 4.25792 0
M  V30 34 H 3.8971 -3.62657 2.52849 0
M  V30 35 N 2.9562 -1.48159 -0.537278 0
M  V30 36 C 4.2042 -1.55497 -1.29094 0
M  V30 37 C 4.5252 -0.227454 -1.93669 0
M  V30 38 O 3.7952 0.750386 -1.80959 0
M  V30 39 H 2.3752 -0.572832 -0.47945 0
M  V30 40 H 5.0372 -1.84579 -0.625818 0
M  V30 41 H 4.1332 -2.33216 -2.07405 0
M  V30 42 N 4.4343 0.785586 -1.36625 0
M  V30 43 C 5.3443 1.92964 -1.33425 0
M  V30 44 C 6.3603 1.72394 -0.235851 0
M  V30 45 O 7.5363 1.95866 -0.468878 0
M  V30 46 C 4.6013 3.27884 -1.12662 0
M  V30 47 C 3.6623 3.61204 -2.32013 0
M  V30 48 C 2.8953 4.89687 -2.12231 0
M  V30 49 O 3.1183 5.59704 -1.09945 0
M  V30 50 O 2.0523 5.21752 -3.00098 0
M  V30 51 H 5.8783 1.98613 -2.29753 0
M  V30 52 H 3.4633 0.926384 -1.17211 0
M  V30 53 H 5.3453 4.08614 -1.03016 0
M  V30 54 H 4.0203 3.23118 -0.193991 0
M  V30 55 H 2.9273 2.80765 -2.47228 0
M  V30 56 H 4.2603 3.70698 -3.23796 0
M  V30 57 N 5.9124 1.20967 1.01018 0
M  V30 58 C 6.8224 0.980157 2.13143 0
M  V30 59 C 7.8384 -0.0660665 1.73875 0
M  V30 60 O 9.0144 0.122821 2.01025 0
M  V30 61 C 6.0794 0.54216 3.42435 0
M  V30 62 C 5.1404 1.65999 3.95908 0
M  V30 63 C 4.3734 1.2428 5.19028 0
M  V30 64 O 4.5964 0.114196 5.70286 0
M  V30 65 O 3.5304 2.05271 5.65816 0
M  V30 66 H 7.3564 1.91913 2.35379 0
M  V30 67 H 4.9414 0.994099 1.11526 0
M  V30 68 H 6.8234 0.30744 4.20277 0
M  V30 69 H 5.4984 -0.36815 3.216 0
M  V30 70 H 4.4054 1.94906 3.19316 0
M  V30 71 H 5.7384 2.54753 4.21143 0
M  V30 72 N 7.3905 -1.2043 1.01659 0
M  V30 73 C 8.3375 -2.23215 0.586822 0
M  V30 74 C 9.3075 -1.61382 -0.393085 0
M  V30 75 O 10.4925 -1.88544 -0.292525 0
M  V30 76 C 7.6325 -3.45032 -0.0687464 0
M  V30 77 C 6.7455 -4.21296 0.955724 0
M  V30 78 C 5.8805 -5.30507 0.271208 0
M  V30 79 C 4.9195 -5.98515 1.28244 0
M  V30 80 N 4.0565 -6.99316 0.62459 0
M  V30 81 H 8.8965 -2.59336 1.46796 0
M  V30 82 H 6.4335 -1.27431 0.734836 0
M  V30 83 H 8.3915 -4.1459 -0.465965 0
M  V30 84 H 7.0215 -3.09604 -0.913529 0
M  V30 85 H 6.0735 -3.50803 1.4711 0
M  V30 86 H 7.3855 -4.6803 1.72479 0
M  V30 87 H 6.5395 -6.06428 -0.18151 0
M  V30 88 H 5.2785 -4.8481 -0.530163 0
M  V30 89 H 4.2835 -5.21355 1.74554 0
M  V30 90 H 5.5085 -6.46298 2.08509 0
M  V30 91 H 3.4545 -6.55812 -0.156914 0
M  V30 92 H 3.3715 -7.44178 1.33172 0
M  V30 93 H 4.6395 -7.79255 0.195462 0
M  V30 94 N 8.8686 -0.792821 -1.36206 0
M  V30 95 C 9.8016 -0.139422 -2.27774 0
M  V30 96 C 10.7796 0.68649 -1.47398 0
M  V30 97 O 11.9636 0.656738 -1.7669 0
M  V30 98 C 9.0906 0.807947 -3.28922 0
M  V30 99 C 8.1366 0.0633999 -4.26453 0
M  V30 100 S 8.9696 -1.26319 -5.20388 0
M  V30 101 C 10.1256 -0.31991 -6.25082 0
M  V30 102 H 10.3586 -0.915809 -2.82843 0
M  V30 103 H 7.8916 -0.587203 -1.42798 0
M  V30 104 H 9.8496 1.34908 -3.87699 0
M  V30 105 H 8.5106 1.55761 -2.72759 0
M  V30 106 H 7.7036 0.782386 -4.9789 0
M  V30 107 H 7.3056 -0.407352 -3.71775 0
M  V30 108 H 9.5976 0.499985 -6.75653 0
M  V30 109 H 10.5406 -1.00307 -7.00959 0
M  V30 110 H 10.9486 0.0782694 -5.64446 0
M  V30 111 N 10.3467 1.47872 -0.545128 0
M  V30 112 C 11.5717 2.07391 -0.0190611 0
M  V30 113 C 11.9967 1.39688 1.25971 0
M  V30 114 O 11.3547 0.467816 1.7516 0
M  V30 115 C 11.4027 3.60188 0.172335 0
M  V30 116 O 10.5067 3.9339 1.23766 0
M  V30 117 H 9.8477 0.662411 -0.0459059 0
M  V30 118 H 12.3777 1.90066 -0.757365 0
M  V30 119 H 12.3877 4.06129 0.390305 0
M  V30 120 H 11.0627 4.08865 -0.761725 0
M  V30 121 H 9.6397 3.5921 1.00114 0
M  V30 122 N 11.8248 0.280983 1.55075 0
M  V30 123 C 12.7548 -0.597469 2.25727 0
M  V30 124 C 13.7358 -1.15417 1.24952 0
M  V30 125 O 14.9208 -1.18722 1.53684 0
M  V30 126 C 12.0508 -1.7789 2.98283 0
M  V30 127 C 11.0048 -1.35347 4.06036 0
M  V30 128 C 10.3308 -2.61846 4.66198 0
M  V30 129 C 11.6308 -0.499354 5.19907 0
M  V30 130 H 13.3248 -0.00824265 2.99399 0
M  V30 131 H 10.8708 -0.0025244 1.44 0
M  V30 132 H 12.8238 -2.39937 3.46422 0
M  V30 133 H 11.5478 -2.39405 2.22155 0
M  V30 134 H 10.2068 -0.756156 3.58717 0
M  V30 135 H 9.8548 -3.21632 3.86732 0
M  V30 136 H 9.5548 -2.3409 5.38958 0
M  V30 137 H 11.0788 -3.24732 5.1709 0
M  V30 138 H 12.4928 -1.02498 5.64063 0
M  V30 139 H 10.8898 -0.316424 5.99265 0
M  V30 140 H 11.9598 0.480459 4.82514 0
M  V30 141 N 13.3029 -1.57598 0.00835791 0
M  V30 142 C 14.7189 -1.55764 -0.347822 0
M  V30 143 C 14.9189 -1.01186 -1.74252 0
M  V30 144 O 13.9749 -0.649371 -2.44007 0
M  V30 145 C 15.2879 -2.99927 -0.215407 0
M  V30 146 C 16.8359 -3.11656 -0.289725 0
M  V30 147 C 17.3109 -4.57621 -0.18634 0
M  V30 148 N 18.8019 -4.62557 -0.243978 0
M  V30 149 C 19.5369 -5.73094 -0.18745 0
M  V30 150 N 19.0329 -6.92753 -0.0810331 0
M  V30 151 N 20.8259 -5.61588 -0.239925 0
M  V30 152 H 12.9769 -1.91411 0.92062 0
M  V30 153 H 15.2399 -0.879562 0.353659 0
M  V30 154 H 14.9459 -3.43729 0.744512 0
M  V30 155 H 14.8199 -3.63865 -0.994097 0
M  V30 156 H 17.2069 -2.67779 -1.24009 0
M  V30 157 H 17.2879 -2.5048 0.51898 0
M  V30 158 H 16.9319 -5.02174 0.760519 0
M  V30 159 H 16.8619 -5.16752 -1.01364 0
M  V30 160 H 19.3529 -3.76481 -0.327217 0
M  V30 161 H 19.6659 -7.72787 -0.0440241 0
M  V30 162 H 18.0109 -6.94984 -0.0465419 0
M  V30 163 H 21.2019 -4.66996 -0.321317 0
M  V30 164 H 21.3749 -6.47714 -0.192407 0
M  V30 165 N 14.781 0.264519 -1.55364 0
M  V30 166 C 15.729 1.34702 -1.89626 0
M  V30 167 C 16.723 1.50712 -0.773459 0
M  V30 168 O 17.929 1.52395 -0.957897 0
M  V30 169 H 14.304 0.450682 -0.601988 0
M  V30 170 H 16.275 1.0306 -2.80038 0
M  V30 171 C 15.024 2.6989 -2.19214 0
M  V30 172 H 14.347 2.58365 -3.05103 0
M  V30 173 H 15.787 3.44553 -2.47102 0
M  V30 174 C 14.246 3.21637 -1.00254 0
M  V30 175 O 14.776 4.00973 -0.241501 0
M  V30 176 N 12.982 2.7943 -0.797938 0
M  V30 177 H 12.529 2.15026 -1.4185 0
M  V30 178 H 12.487 3.144 -0.00363422 0
M  V30 179 N 16.2591 1.48442 0.529413 0
M  V30 180 C 17.6751 1.34575 0.858004 0
M  V30 181 C 17.8751 0.3572 1.98309 0
M  V30 182 O 16.9311 -0.221379 2.51528 0
M  V30 183 C 18.2441 2.74617 1.22499 0
M  V30 184 C 19.7921 2.83109 1.33484 0
M  V30 185 C 20.2671 4.23854 1.73526 0
M  V30 186 N 21.7581 4.2653 1.80628 0
M  V30 187 C 22.4931 5.32372 2.12997 0
M  V30 188 N 21.9891 6.48491 2.43786 0
M  V30 189 N 23.7821 5.19766 2.14008 0
M  V30 190 H 15.9331 2.1133 -0.212925 0
M  V30 191 H 18.1961 0.947439 -0.0326199 0
M  V30 192 H 17.9021 3.4852 0.471905 0
M  V30 193 H 17.7761 3.08177 2.17501 0
M  V30 194 H 20.1631 2.09462 2.0787 0
M  V30 195 H 20.2441 2.53168 0.366027 0
M  V30 196 H 19.8881 4.98018 0.997013 0
M  V30 197 H 19.8181 4.5124 2.71459 0
M  V30 198 H 22.3091 3.42772 1.59108 0
M  V30 199 H 22.6221 7.24993 2.67592 0
M  V30 200 H 20.9671 6.51765 2.41304 0
M  V30 201 H 24.1581 4.28066 1.89412 0
M  V30 202 H 24.3311 6.02354 2.38902 0
M  V30 203 N 17.7372 -0.778329 1.37039 0
M  V30 204 C 18.6672 -1.90546 1.34962 0
M  V30 205 C 19.6482 -1.68681 0.219274 0
M  V30 206 O 20.8332 -1.89634 0.418624 0
M  V30 207 C 17.9632 -3.27734 1.14925 0
M  V30 208 C 16.9172 -3.64147 2.24902 0
M  V30 209 C 16.2432 -4.99806 1.89996 0
M  V30 210 C 17.5432 -3.71579 3.67051 0
M  V30 211 H 19.2372 -1.92541 2.29277 0
M  V30 212 H 16.7832 -0.924948 1.10366 0
M  V30 213 H 18.7362 -4.06215 1.12104 0
M  V30 214 H 17.4602 -3.26154 0.170631 0
M  V30 215 H 16.1192 -2.8797 2.26868 0
M  V30 216 H 15.7672 -4.94759 0.906796 0
M  V30 217 H 15.4672 -5.25139 2.63634 0
M  V30 218 H 16.9912 -5.80694 1.88749 0
M  V30 219 H 18.4052 -4.40227 3.67251 0
M  V30 220 H 16.8022 -4.08405 4.39688 0
M  V30 221 H 17.8722 -2.72404 4.01154 0
M  V30 222 N 19.2153 -1.21501 -1.00376 0
M  V30 223 C 20.4403 -1.05977 -1.78279 0
M  V30 224 C 20.8653 0.385994 -1.84097 0
M  V30 225 O 20.2233 1.27849 -1.28547 0
M  V30 226 C 20.2713 -1.66302 -3.19963 0
M  V30 227 O 19.3753 -0.909333 -4.0225 0
M  V30 228 H 18.7163 -0.372906 -0.549397 0
M  V30 229 H 21.2463 -1.6107 -1.26165 0
M  V30 230 H 21.2563 -1.70574 -3.70632 0
M  V30 231 H 19.9313 -2.71515 -3.15043 0
M  V30 232 H 18.5083 -0.941795 -3.60811 0
M  V30 233 N 20.6934 1.19889 -1.02296 0
M  V30 234 C 21.6404 2.22901 -0.598651 0
M  V30 235 C 22.6104 1.61588 0.384521 0
M  V30 236 O 23.7954 1.88697 0.282522 0
M  V30 237 C 20.9354 3.45063 0.0504476 0
M  V30 238 C 20.0484 4.20783 -0.978053 0
M  V30 239 C 19.1834 5.30356 -0.299338 0
M  V30 240 C 18.2224 5.97826 -1.31416 0
M  V30 241 N 17.3594 6.98975 -0.661667 0
M  V30 242 H 22.1994 2.58554 -1.48169 0
M  V30 243 H 19.7364 1.27039 -0.741584 0
M  V30 244 H 21.6944 4.14831 0.443971 0
M  V30 245 H 20.3244 3.10084 0.897097 0
M  V30 246 H 19.3764 3.50018 -1.48969 0
M  V30 247 H 20.6884 4.67109 -1.74958 0
M  V30 248 H 19.8424 6.06516 0.149347 0
M  V30 249 H 18.5814 4.85084 0.504445 0
M  V30 250 H 17.5864 5.20422 -1.77317 0
M  V30 251 H 18.8114 6.45183 -2.11933 0
M  V30 252 H 16.7574 6.55886 0.122132 0
M  V30 253 H 16.6744 7.43461 -1.37117 0
M  V30 254 H 17.9424 7.7914 -0.236785 0
M  V30 255 N 22.1715 0.800033 1.35784 0
M  V30 256 C 23.3965 0.388511 2.03729 0
M  V30 257 C 23.8215 -0.990481 1.5991 0
M  V30 258 O 23.1795 -1.64013 0.772612 0
M  V30 259 C 23.2275 0.4726 3.5749 0
M  V30 260 O 22.3315 -0.51646 4.09153 0
M  V30 261 H 21.6725 0.163271 0.643614 0
M  V30 262 H 24.2025 1.0841 1.73518 0
M  V30 263 H 24.2125 0.34003 4.06581 0
M  V30 264 H 22.8875 1.47848 3.88734 0
M  V30 265 H 21.4645 -0.344673 3.71304 0
M  V30 266 N 23.6496 -1.47581 0.552962 0
M  V30 267 C 25.0656 -1.5818 0.212424 0
M  V30 268 C 25.2656 -1.55213 -1.28496 0
M  V30 269 O 24.3216 -1.45329 -2.06484 0
M  V30 270 C 25.6346 -2.88865 0.835318 0
M  V30 271 C 27.1826 -3.0244 0.806156 0
M  V30 272 C 27.6576 -4.35819 1.40804 0
M  V30 273 N 29.1486 -4.42444 1.37103 0
M  V30 274 C 29.8836 -5.44202 1.80641 0
M  V30 275 N 29.3796 -6.52795 2.32015 0
M  V30 276 N 31.1726 -5.35222 1.71738 0
M  V30 277 H 23.3236 -1.47753 1.52587 0
M  V30 278 H 25.5866 -0.702941 0.636064 0
M  V30 279 H 25.2926 -2.9676 1.88749 0
M  V30 280 H 25.1666 -3.7579 0.325848 0
M  V30 281 H 27.5536 -2.94144 -0.237317 0
M  V30 282 H 27.6346 -2.17068 1.35334 0
M  V30 283 H 27.2786 -4.44871 2.45056 0
M  V30 284 H 27.2086 -5.19916 0.836338 0
M  V30 285 H 29.6996 -3.6456 0.995202 0
M  V30 286 H 30.0126 -7.26609 2.63171 0
M  V30 287 H 28.3576 -6.53696 2.36023 0
M  V30 288 H 31.5486 -4.49284 1.31382 0
M  V30 289 H 31.7216 -6.14389 2.05987 0
M  V30 290 N 25.1277 -0.289203 -1.54924 0
M  V30 291 C 26.0377 0.601863 -2.26748 0
M  V30 292 C 27.0537 1.15834 -1.2984 0
M  V30 293 O 28.2297 1.18564 -1.62802 0
M  V30 294 C 25.2947 1.76299 -2.98529 0
M  V30 295 C 24.3557 1.24178 -4.10948 0
M  V30 296 C 23.5887 2.34757 -4.79296 0
M  V30 297 O 23.8117 3.54411 -4.46933 0
M  V30 298 O 22.7457 2.02115 -5.66951 0
M  V30 299 H 26.5717 0.0195879 -3.03694 0
M  V30 300 H 24.1567 -0.0560868 -1.49295 0
M  V30 301 H 26.0387 2.43973 -3.43592 0
M  V30 302 H 24.7137 2.33209 -2.24488 0
M  V30 303 H 23.6207 0.531104 -3.70311 0
M  V30 304 H 24.9537 0.718252 -4.86931 0
M  V30 305 N 26.6058 1.57591 -0.0167156 0
M  V30 306 C 27.5538 2.10604 0.987353 0
M  V30 307 C 28.5478 1.02977 1.34507 0
M  V30 308 O 29.7538 1.21425 1.32875 0
M  V30 309 H 26.1288 0.672695 0.336134 0
M  V30 310 H 28.0998 2.93925 0.514817 0
M  V30 311 C 26.8488 2.6382 2.26483 0
M  V30 312 H 26.1718 3.46278 1.99829 0
M  V30 313 H 27.6118 3.04573 2.94977 0
M  V30 314 C 26.0708 1.55992 2.9861 0
M  V30 315 O 26.6008 0.952521 3.90243 0
M  V30 316 N 24.8068 1.28335 2.60727 0
M  V30 317 H 24.3538 1.77914 1.86291 0
M  V30 318 H 24.3118 0.564115 3.09298 0
M  V30 319 N 28.0839 -0.256276 1.55502 0
M  V30 320 C 29.4949 -0.826068 1.67431 0
M  V30 321 C 29.8459 -1.86396 0.612446 0
M  V30 322 O 28.9709 -2.15031 -0.243025 0
M  V30 323 C 29.5659 -1.50512 3.03532 0
M  V30 324 C 28.1249 -2.02273 3.17431 0
M  V30 325 C 27.2719 -0.870548 2.63281 0
M  V30 326 H 30.2229 -0.0322728 1.58667 0
M  V30 327 H 30.2439 -2.37279 2.97454 0
M  V30 328 H 29.7559 -0.749484 3.80794 0
M  V30 329 H 27.8569 -2.80746 2.44974 0
M  V30 330 H 27.9699 -2.22655 4.24219 0
M  V30 331 H 26.3339 -1.26851 2.20864 0
M  V30 332 H 27.1169 -0.128149 3.43061 0
M  V30 333 N 29.562 -1.4872 -0.521534 0
M  V30 334 C 30.472 -1.66569 -1.65203 0
M  V30 335 C 31.488 -0.548197 -1.65139 0
M  V30 336 O 32.664 -0.820339 -1.83936 0
M  V30 337 C 29.729 -1.70917 -3.01642 0
M  V30 338 C 28.79 -2.94356 -3.12495 0
M  V30 339 C 28.023 -2.98487 -4.42426 0
M  V30 340 O 28.246 -2.10786 -5.30024 0
M  V30 341 O 27.18 -3.90746 -4.57822 0
M  V30 342 H 31.006 -2.62298 -1.5308 0
M  V30 343 H 28.591 -1.3222 -0.695565 0
M  V30 344 H 30.473 -1.7625 -3.82771 0
M  V30 345 H 29.148 -0.783633 -3.14071 0
M  V30 346 H 28.055 -2.94552 -2.3063 0
M  V30 347 H 29.388 -3.86322 -3.04986 0
M  V30 348 N 31.0401 0.771051 -1.3745 0
M  V30 349 C 31.9501 1.91538 -1.35464 0
M  V30 350 C 32.9661 1.72134 -0.254123 0
M  V30 351 O 34.1421 1.95358 -0.489626 0
M  V30 352 C 31.2071 3.26671 -1.16134 0
M  V30 353 C 30.2681 3.58723 -2.35831 0
M  V30 354 C 29.5011 4.87409 -2.17413 0
M  V30 355 O 29.7241 5.58506 -1.15876 0
M  V30 356 O 28.6581 5.18539 -3.05615 0
M  V30 357 H 32.4841 1.96165 -2.31847 0
M  V30 358 H 30.0691 0.9139 -1.18187 0
M  V30 359 H 31.9511 4.07499 -1.07345 0
M  V30 360 H 30.6261 3.22894 -0.228251 0
M  V30 361 H 29.5331 2.78127 -2.50192 0
M  V30 362 H 30.8661 3.67243 -3.27709 0
M  V30 363 N 32.5182 1.22032 0.997298 0
M  V30 364 C 33.7952 0.950823 1.70935 0
M  V30 365 C 34.1752 -0.535292 2.042 0
M  V30 366 O 33.5232 -1.50217 1.72183 0
M  V30 367 C 33.7332 1.84386 2.96315 0
M  V30 368 C 35.0812 2.09732 3.69185 0
M  V30 369 O 36.1052 1.81798 3.06314 0
M  V30 370 O 34.9642 2.57018 4.82291 0
M  V30 371 H 32.0582 0.357204 0.745878 0
M  V30 372 H 34.6042 1.32997 1.05404 0
M  V30 373 H 33.3762 2.84928 2.68201 0
M  V30 374 H 32.9992 1.46602 3.69586 0
M  V30 375 N 33.9963 -1.19345 1.0293 0
M  V30 376 C 34.9063 -2.26245 0.620515 0
M  V30 377 C 35.9223 -1.70486 -0.347928 0
M  V30 378 O 37.0983 -2.00347 -0.205704 0
M  V30 379 C 34.1633 -3.46693 -0.0218957 0
M  V30 380 C 33.2243 -4.17632 0.994102 0
M  V30 381 C 32.4573 -5.32329 0.382253 0
M  V30 382 O 32.6803 -5.64552 -0.814676 0
M  V30 383 O 31.6143 -5.91664 1.10531 0
M  V30 384 H 35.4403 -2.63453 1.51083 0
M  V30 385 H 33.0253 -1.26207 0.799513 0
M  V30 386 H 34.9073 -4.19683 -0.380072 0
M  V30 387 H 33.5823 -3.11333 -0.886209 0
M  V30 388 H 32.4893 -3.4676 1.40387 0
M  V30 389 H 33.8223 -4.56964 1.8288 0
M  V30 390 N 35.4744 -0.807222 -1.35358 0
M  V30 391 C 36.7514 -0.311126 -1.9311 0
M  V30 392 C 37.1314 1.19937 -1.73719 0
M  V30 393 O 36.4794 1.99918 -1.10657 0
M  V30 394 C 36.6894 -0.723226 -3.41424 0
M  V30 395 C 38.0374 -0.713078 -4.18569 0
M  V30 396 O 39.0614 -0.664811 -3.49941 0
M  V30 397 O 37.9204 -0.772022 -5.41019 0
M  V30 398 H 35.0144 -0.081526 -0.822972 0
M  V30 399 H 37.5604 -0.890962 -1.4443 0
M  V30 400 H 36.3324 -1.76426 -3.4927 0
M  V30 401 H 35.9554 -0.118232 -3.97424 0
M  V30 402 N 36.9525 1.47285 -0.560781 0
M  V30 403 C 37.8845 2.28118 0.222438 0
M  V30 404 C 38.8975 1.37219 0.876056 0
M  V30 405 O 40.0865 1.62011 0.749307 0
M  V30 406 C 37.1865 3.1159 1.33285 0
M  V30 407 C 36.3595 4.30473 0.77534 0
M  V30 408 C 35.4185 4.95513 1.77069 0
M  V30 409 O 34.4445 5.53792 1.31539 0
M  V30 410 N 35.6465 4.90531 3.10418 0
M  V30 411 H 38.4115 2.95976 -0.470958 0
M  V30 412 H 35.9725 1.56955 -0.39709 0
M  V30 413 H 37.9645 3.51967 1.99752 0
M  V30 414 H 36.5345 2.45951 1.92943 0
M  V30 415 H 35.7545 3.94144 -0.0662113 0
M  V30 416 H 37.0425 5.07362 0.382272 0
M  V30 417 H 36.4405 4.44389 3.5005 0
M  V30 418 H 34.9975 5.34917 3.72434 0
M  V30 419 N 38.4306 0.297415 1.54768 0
M  V30 420 C 39.8466 -0.0560823 1.59501 0
M  V30 421 C 40.0466 -1.52725 1.31444 0
M  V30 422 O 39.1026 -2.27947 1.08611 0
M  V30 423 C 40.4156 0.338631 2.98787 0
M  V30 424 C 41.9636 0.287097 3.11681 0
M  V30 425 C 42.4386 0.656579 4.53269 0
M  V30 426 N 43.9296 0.608977 4.59179 0
M  V30 427 C 44.6646 0.867385 5.66802 0
M  V30 428 N 44.1606 1.19157 6.82476 0
M  V30 429 N 45.9536 0.794687 5.56454 0
M  V30 430 H 38.1046 1.25624 1.71267 0
M  V30 431 H 40.3676 0.509057 0.799728 0
M  V30 432 H 40.0736 1.36263 3.2423 0
M  V30 433 H 39.9476 -0.309508 3.75928 0
M  V30 434 H 42.3346 -0.727649 2.85988 0
M  V30 435 H 42.4156 0.969809 2.36703 0
M  V30 436 H 42.0596 1.66912 4.7969 0
M  V30 437 H 41.9896 -0.0481649 5.26578 0
M  V30 438 H 44.4806 0.369198 3.76092 0
M  V30 439 H 44.7936 1.37482 7.60473 0
M  V30 440 H 43.1386 1.22958 6.84037 0
M  V30 441 H 46.3296 0.541098 4.64962 0
M  V30 442 H 46.5026 0.999445 6.40246 0
M  V30 443 N 39.9087 -1.5758 0.0250728 0
M  V30 444 C 40.8567 -2.11125 -0.97617 0
M  V30 445 C 41.8507 -1.03689 -1.33959 0
M  V30 446 O 43.0567 -1.22128 -1.3223 0
M  V30 447 H 39.4317 -0.674468 -0.332561 0
M  V30 448 H 41.4027 -2.94194 -0.499223 0
M  V30 449 C 40.1517 -2.65017 -2.2508 0
M  V30 450 H 39.4747 -3.47333 -1.9799 0
M  V30 451 H 40.9147 -3.06133 -2.93357 0
M  V30 452 C 39.3737 -1.57574 -2.97779 0
M  V30 453 O 39.9037 -0.973203 -3.89733 0
M  V30 454 N 38.1097 -1.29716 -2.60043 0
M  V30 455 H 37.6567 -1.789 -1.85345 0
M  V30 456 H 37.6147 -0.58051 -3.08994 0
M  V30 457 N 41.3868 0.248026 -1.55636 0
M  V30 458 C 42.7978 0.817177 -1.67866 0
M  V30 459 C 43.1488 1.86069 -0.622322 0
M  V30 460 O 42.2738 2.15157 0.231618 0
M  V30 461 C 42.8688 1.489 -3.04326 0
M  V30 462 C 41.4278 2.00587 -3.185 0
M  V30 463 C 40.5748 0.856573 -2.63739 0
M  V30 464 H 43.5258 0.0238579 -1.58682 0
M  V30 465 H 43.5468 2.35698 -2.98708 0
M  V30 466 H 43.0588 0.729279 -3.81186 0
M  V30 467 H 41.1598 2.79443 -2.4646 0
M  V30 468 H 41.2728 2.20402 -4.25393 0
M  V30 469 H 39.6368 1.25678 -2.21534 0
M  V30 470 H 40.4198 0.109953 -3.43124 0
M  V30 471 N 42.8649 1.48995 0.513639 0
M  V30 472 C 43.8279 1.64229 1.59879 0
M  V30 473 C 44.8279 0.514696 1.5234 0
M  V30 474 O 46.0179 0.78087 1.55718 0
M  V30 475 C 43.1499 1.62783 2.99524 0
M  V30 476 H 44.3429 2.61004 1.47705 0
M  V30 477 H 41.8959 1.37837 0.736936 0
M  V30 478 H 42.6309 0.675461 3.17188 0
M  V30 479 H 42.4159 2.4466 3.06404 0
M  V30 480 H 43.9059 1.76669 3.78388 0
M  V30 481 N 44.343 -0.763751 1.37857 0
M  V30 482 C 45.29 -1.87726 1.34267 0
M  V30 483 C 46.26 -1.64807 0.206879 0
M  V30 484 O 47.445 -1.86613 0.397508 0
M  V30 485 C 44.585 -3.24896 1.16346 0
M  V30 486 C 43.698 -3.59716 2.39225 0
M  V30 487 C 42.833 -4.86137 2.14114 0
M  V30 488 C 41.872 -5.13711 3.32817 0
M  V30 489 N 41.009 -6.31323 3.07206 0
M  V30 490 H 45.849 -1.90129 2.29466 0
M  V30 491 H 43.386 -0.929433 1.14017 0
M  V30 492 H 45.344 -4.04036 1.03975 0
M  V30 493 H 43.974 -3.21847 0.247909 0
M  V30 494 H 43.026 -2.75498 2.62307 0
M  V30 495 H 44.338 -3.76027 3.27728 0
M  V30 496 H 43.492 -5.73198 1.9882 0
M  V30 497 H 42.231 -4.71945 1.22961 0
M  V30 498 H 41.236 -4.25123 3.48641 0
M  V30 499 H 42.461 -5.29807 4.24832 0
M  V30 500 H 40.407 -6.18474 2.1869 0
M  V30 501 H 40.324 -6.48087 3.89254 0
M  V30 502 H 41.592 -7.213 2.95546 0
M  V30 503 N 45.8211 -1.22559 -0.990812 0
M  V30 504 C 46.7311 -1.01394 -2.11557 0
M  V30 505 C 47.7471 0.0383962 -1.73958 0
M  V30 506 O 48.9231 -0.154787 -2.00804 0
M  V30 507 C 45.9881 -0.596569 -3.41529 0
M  V30 508 C 45.0491 -1.72276 -3.93217 0
M  V30 509 C 44.2821 -1.32521 -5.16985 0
M  V30 510 O 44.5051 -0.204909 -5.70032 0
M  V30 511 O 43.4391 -2.14247 -5.62478 0
M  V30 512 H 47.2651 -1.95633 -2.32296 0
M  V30 513 H 44.8501 -1.01172 -1.0993 0
M  V30 514 H 46.7321 -0.374263 -4.19735 0
M  V30 515 H 45.4071 0.316939 -3.22145 0
M  V30 516 H 44.3141 -1.99961 -3.16174 0
M  V30 517 H 45.6471 -2.61421 -4.17037 0
M  V30 518 N 47.2992 1.18797 -1.03562 0
M  V30 519 C 48.5242 1.9314 -0.755764 0
M  V30 520 C 48.9492 1.7537 0.68022 0
M  V30 521 O 48.3072 1.06046 1.47051 0
M  V30 522 C 48.3552 3.42747 -1.12058 0
M  V30 523 O 47.4592 4.11683 -0.243124 0
M  V30 524 H 46.8002 0.602724 -0.278604 0
M  V30 525 H 49.3302 1.50678 -1.3841 0
M  V30 526 H 49.3402 3.93437 -1.08035 0
M  V30 527 H 48.0152 3.55002 -2.16672 0
M  V30 528 H 46.5922 3.71323 -0.342539 0
M  V30 529 N 48.7773 0.814389 1.34928 0
M  V30 530 C 49.7073 0.244827 2.32213 0
M  V30 531 C 50.6883 -0.634024 1.57842 0
M  V30 532 O 51.8733 -0.562676 1.8587 0
M  V30 533 C 49.0033 -0.601106 3.42058 0
M  V30 534 C 47.9573 0.179896 4.27622 0
M  V30 535 C 47.2833 -0.788237 5.28858 0
M  V30 536 C 48.5833 1.38329 5.03649 0
M  V30 537 H 50.2773 1.05763 2.80097 0
M  V30 538 H 47.8233 0.510029 1.34665 0
M  V30 539 H 49.7763 -1.00968 4.09125 0
M  V30 540 H 48.5003 -1.44688 2.92802 0
M  V30 541 H 47.1593 0.569739 3.62146 0
M  V30 542 H 46.8073 -1.62973 4.75866 0
M  V30 543 H 46.5073 -0.269942 5.8698 0
M  V30 544 H 48.0313 -1.19485 5.98795 0
M  V30 545 H 49.4453 1.04918 5.63618 0
M  V30 546 H 47.8423 1.83662 5.71304 0
M  V30 547 H 48.9123 2.16592 4.33839 0
M  V30 548 N 50.2554 -1.46986 0.568584 0
M  V30 549 C 51.1654 -2.33942 -0.17555 0
M  V30 550 C 52.1814 -1.48891 -0.90041 0
M  V30 551 O 53.3574 -1.81794 -0.86676 0
M  V30 552 C 50.4224 -3.25811 -1.18524 0
M  V30 553 C 49.4834 -4.26757 -0.466582 0
M  V30 554 C 48.7164 -5.14236 -1.42817 0
M  V30 555 O 48.9394 -5.04379 -2.66379 0
M  V30 556 O 47.8734 -5.94412 -0.946453 0
M  V30 557 H 51.6994 -2.98896 0.538036 0
M  V30 558 H 49.2844 -1.4573 0.329097 0
M  V30 559 H 51.1664 -3.82527 -1.76779 0
M  V30 560 H 49.8414 -2.63471 -1.88055 0
M  V30 561 H 48.7484 -3.73769 0.157451 0
M  V30 562 H 50.0814 -4.91843 0.187485 0
M  V30 563 N 51.7335 -0.305618 -1.54608 0
M  V30 564 C 52.9615 0.304775 -2.04643 0
M  V30 565 C 53.3765 1.47167 -1.18268 0
M  V30 566 O 52.7335 1.81296 -0.209328 0
M  V30 567 C 52.7845 0.756564 -3.53495 0
M  V30 568 O 52.5055 -0.36389 -4.36586 0
M  V30 569 C 54.0065 1.43163 -4.19546 0
M  V30 570 H 51.2265 0.0655481 -0.667791 0
M  V30 571 H 53.7705 -0.446592 -1.99564 0
M  V30 572 H 51.9255 1.45794 -3.58919 0
M  V30 573 H 52.3395 -0.0113121 -5.24499 0
M  V30 574 H 53.8135 1.69886 -5.25207 0
M  V30 575 H 54.2905 2.37318 -3.69563 0
M  V30 576 H 54.8965 0.773307 -4.18211 0
M  V30 577 N 53.2116 1.57565 -0.0334293 0
M  V30 578 C 54.6226 1.79746 0.504798 0
M  V30 579 C 54.9736 0.944091 1.71992 0
M  V30 580 O 54.0986 0.155694 2.15839 0
M  V30 581 C 54.6936 3.25997 0.922567 0
M  V30 582 C 53.2526 3.49159 1.40588 0
M  V30 583 C 52.3996 2.74785 0.372633 0
M  V30 584 H 55.3506 1.56565 -0.259436 0
M  V30 585 H 55.3716 3.35945 1.78666 0
M  V30 586 H 54.8836 3.88081 0.0379825 0
M  V30 587 H 52.9846 2.92332 2.31025 0
M  V30 588 H 53.0976 4.57873 1.41028 0
M  V30 589 H 51.4616 2.40391 0.841672 0
M  V30 590 H 52.2446 3.39587 -0.503559 0
M  V30 591 N 54.6897 -0.239769 1.55765 0
M  V30 592 C 55.9147 -0.988373 1.82335 0
M  V30 593 C 56.3397 -1.77886 0.611421 0
M  V30 594 O 55.6977 -1.75889 -0.439639 0
M  V30 595 C 55.7457 -1.89627 3.06715 0
M  V30 596 O 54.8497 -2.98904 2.84131 0
M  V30 597 H 54.1907 -0.280858 0.601677 0
M  V30 598 H 56.7207 -0.258597 2.02959 0
M  V30 599 H 56.7307 -2.30957 3.36338 0
M  V30 600 H 55.4057 -1.31511 3.9456 0
M  V30 601 H 53.9827 -2.61651 2.65694 0
M  V30 602 N 56.1678 -1.49265 -0.50573 0
M  V30 603 C 57.1158 -1.66065 -1.62866 0
M  V30 604 C 58.1098 -0.526636 -1.61006 0
M  V30 605 O 59.3158 -0.706126 -1.65571 0
M  V30 606 H 55.6908 -0.52356 -0.539805 0
M  V30 607 H 57.6618 -2.60329 -1.45848 0
M  V30 608 C 56.4108 -1.74008 -3.01026 0
M  V30 609 H 55.7338 -2.6064 -3.03161 0
M  V30 610 H 57.1738 -1.89798 -3.79147 0
M  V30 611 C 55.6328 -0.483868 -3.33407 0
M  V30 612 O 56.1628 0.392548 -3.99777 0
M  V30 613 N 54.3688 -0.348236 -2.88506 0
M  V30 614 H 53.9158 -1.06242 -2.34671 0
M  V30 615 H 53.8738 0.491204 -3.10539 0
M  V30 616 N 57.6459 0.756429 -1.3826 0
M  V30 617 C 58.8939 1.51248 -1.34047 0
M  V30 618 C 59.2149 1.94875 0.0698372 0
M  V30 619 O 58.4849 1.67436 1.01696 0
M  V30 620 H 57.0649 0.561018 -0.493222 0
M  V30 621 H 59.7269 0.899347 -1.7291 0
M  V30 622 H 58.8229 2.40472 -1.98947 0
M  V30 623 N 59.124 1.23083 0.984299 0
M  V30 624 C 60.54 0.992637 1.24975 0
M  V30 625 C 60.74 -0.308618 1.99123 0
M  V30 626 O 59.796 -1.02905 2.30579 0
M  V30 627 C 61.109 2.19698 2.05312 0
M  V30 628 C 62.657 2.24147 2.18465 0
M  V30 629 C 63.132 3.44157 3.02192 0
M  V30 630 N 64.623 3.44372 3.09777 0
M  V30 631 C 65.358 4.33886 3.74874 0
M  V30 632 N 64.854 5.3363 4.41827 0
M  V30 633 N 66.647 4.21639 3.71721 0
M  V30 634 H 58.798 2.06731 0.487453 0
M  V30 635 H 61.061 0.906339 0.277944 0
M  V30 636 H 60.767 3.1411 1.58201 0
M  V30 637 H 60.641 2.20465 3.06064 0
M  V30 638 H 63.028 1.30277 2.64786 0
M  V30 639 H 63.109 2.27415 1.17115 0
M  V30 640 H 62.753 4.38332 2.56568 0
M  V30 641 H 62.683 3.3813 4.03702 0
M  V30 642 H 65.174 2.72201 2.62135 0
M  V30 643 H 65.487 5.98196 4.89266 0
M  V30 644 H 63.832 5.37534 4.40548 0
M  V30 645 H 67.023 3.42962 3.18582 0
M  V30 646 H 67.196 4.91604 4.22173 0
M  V30 647 N 60.6021 -1.18246 1.0419 0
M  V30 648 C 61.8511 -1.87588 0.741194 0
M  V30 649 C 62.1641 -1.81303 -0.734066 0
M  V30 650 O 63.3701 -2.46019 -1.14834 0
M  V30 651 C 61.8261 -3.36538 1.27555 0
M  V30 652 C 61.4341 -3.51349 2.77953 0
M  V30 653 C 63.1781 -4.11273 1.05143 0
M  V30 654 C 61.0851 -4.94265 3.2474 0
M  V30 655 H 60.0151 -0.702622 0.273565 0
M  V30 656 H 62.6661 -1.33601 1.25789 0
M  V30 657 H 61.0481 -3.9 0.686703 0
M  V30 658 H 62.2221 -3.08153 3.42605 0
M  V30 659 H 60.5371 -2.90022 2.98791 0
M  V30 660 H 63.1341 -5.16689 1.37611 0
M  V30 661 H 63.4771 -4.16298 -0.0112774 0
M  V30 662 H 64.0101 -3.63987 1.60495 0
M  V30 663 H 60.7491 -4.94408 4.30396 0
M  V30 664 H 60.2691 -5.38172 2.64823 0
M  V30 665 H 61.9481 -5.62987 3.18834 0
M  V30 666 N 62.0802 -0.821533 -1.34494 0
M  V30 667 C 63.3572 -0.33159 -1.92769 0
M  V30 668 C 63.7372 1.18088 -1.74981 0
M  V30 669 O 63.0852 1.98733 -1.12772 0
M  V30 670 C 63.2952 -0.759398 -3.40638 0
M  V30 671 C 64.6432 -0.757433 -4.1779 0
M  V30 672 O 65.6672 -0.70189 -3.49216 0
M  V30 673 O 64.5262 -0.829361 -5.4017 0
M  V30 674 H 61.6202 -0.0902502 -0.822061 0
M  V30 675 H 64.1662 -0.906231 -1.43477 0
M  V30 676 H 62.9382 -1.8012 -3.47379 0
M  V30 677 H 62.5612 -0.160378 -3.97276 0
M  V30 678 N 63.5583 1.46682 -0.576371 0
M  V30 679 C 64.8073 2.01619 -0.0572825 0
M  V30 680 C 65.1203 1.45417 1.30818 0
M  V30 681 O 66.3263 1.92133 1.91825 0
M  V30 682 C 64.7823 3.59863 -0.0518371 0
M  V30 683 C 64.3903 4.25059 -1.41523 0
M  V30 684 C 66.1343 4.2248 0.413639 0
M  V30 685 C 64.0413 5.75364 -1.36785 0
M  V30 686 H 62.9713 0.753794 -0.0176448 0
M  V30 687 H 65.6223 1.68481 -0.727076 0
M  V30 688 H 64.0043 3.90048 0.683994 0
M  V30 689 H 65.1783 4.06491 -2.17029 0
M  V30 690 H 63.4933 3.7451 -1.8202 0
M  V30 691 H 66.0903 5.3265 0.467779 0
M  V30 692 H 66.4333 3.90976 1.42982 0
M  V30 693 H 66.9663 3.96897 -0.267929 0
M  V30 694 H 63.7053 6.11518 -2.36063 0
M  V30 695 H 63.2253 5.96214 -0.654895 0
M  V30 696 H 64.9043 6.37955 -1.07805 0
M  V30 697 N 65.0364 0.313813 1.54444 0
M  V30 698 C 65.9834 -0.55655 2.23989 0
M  V30 699 C 66.9534 -1.11943 1.22711 0
M  V30 700 O 68.1384 -1.16158 1.51367 0
M  V30 701 C 65.2784 -1.71635 2.99392 0
M  V30 702 C 64.3914 -1.18364 4.15468 0
M  V30 703 C 63.5264 -2.30834 4.78424 0
M  V30 704 C 62.5654 -1.74762 5.86622 0
M  V30 705 N 61.7024 -2.80855 6.43479 0
M  V30 706 H 66.5424 0.0430893 2.97969 0
M  V30 707 H 64.0794 0.0330359 1.47063 0
M  V30 708 H 66.0374 -2.39868 3.41349 0
M  V30 709 H 64.6674 -2.28742 2.27765 0
M  V30 710 H 63.7194 -0.393163 3.78363 0
M  V30 711 H 65.0314 -0.733262 4.93381 0
M  V30 712 H 64.1854 -3.0699 5.23299 0
M  V30 713 H 62.9244 -2.79204 3.99871 0
M  V30 714 H 61.9294 -0.970995 5.41158 0
M  V30 715 H 63.1544 -1.2728 6.67066 0
M  V30 716 H 61.1004 -3.28535 5.67804 0
M  V30 717 H 61.0174 -2.40351 7.16776 0
M  V30 718 H 62.2854 -3.5687 6.93011 0
M  V30 719 N 66.5145 -1.57545 0.0417849 0
M  V30 720 C 67.4465 -2.07904 -0.964799 0
M  V30 721 C 68.4595 -1.00497 -1.28079 0
M  V30 722 O 69.6485 -1.28087 -1.24322 0
M  V30 723 C 66.7485 -2.49928 -2.28887 0
M  V30 724 C 65.9215 -3.80562 -2.15619 0
M  V30 725 C 64.9805 -4.08999 -3.31069 0
M  V30 726 O 64.0065 -4.79061 -3.0739 0
M  V30 727 N 65.2085 -3.6017 -4.55256 0
M  V30 728 H 67.9735 -2.94886 -0.535029 0
M  V30 729 H 65.5345 -1.61252 -0.144681 0
M  V30 730 H 67.5265 -2.66034 -3.04972 0
M  V30 731 H 66.0965 -1.68245 -2.63463 0
M  V30 732 H 65.3165 -3.74129 -1.24183 0
M  V30 733 H 66.6045 -4.66126 -2.03971 0
M  V30 734 H 66.0025 -3.03512 -4.77386 0
M  V30 735 H 64.5595 -3.81532 -5.28466 0
M  V30 736 N 67.9926 0.231505 -1.5589 0
M  V30 737 C 68.9226 1.29022 -1.94617 0
M  V30 738 C 69.9036 1.4941 -0.813067 0
M  V30 739 O 71.0886 1.6176 -1.07459 0
M  V30 740 C 68.2186 2.64199 -2.25424 0
M  V30 741 C 67.1726 2.58484 -3.41131 0
M  V30 742 C 66.4986 3.97599 -3.57518 0
M  V30 743 C 67.7986 2.1413 -4.76388 0
M  V30 744 H 69.4926 0.968563 -2.83301 0
M  V30 745 H 67.0386 0.464479 -1.36303 0
M  V30 746 H 68.9916 3.38413 -2.51107 0
M  V30 747 H 67.7156 2.98032 -1.33583 0
M  V30 748 H 66.3746 1.86727 -3.15481 0
M  V30 749 H 66.0226 4.28723 -2.6307 0
M  V30 750 H 65.7226 3.94659 -4.35337 0
M  V30 751 H 67.2466 4.7349 -3.85538 0
M  V30 752 H 68.6606 2.78083 -5.01341 0
M  V30 753 H 67.0576 2.2227 -5.57419 0
M  V30 754 H 68.1276 1.09331 -4.72414 0
M  V30 755 N 69.4707 1.49531 0.497807 0
M  V30 756 C 70.7197 1.58426 1.24837 0
M  V30 757 C 71.0327 0.277643 1.93619 0
M  V30 758 O 72.2387 0.24517 2.70391 0
M  V30 759 C 70.6947 2.79538 2.26686 0
M  V30 760 C 70.3027 4.16971 1.63828 0
M  V30 761 C 72.0467 2.97764 3.0255 0
M  V30 762 C 69.9537 5.29301 2.63807 0
M  V30 763 H 68.8837 0.58989 0.469623 0
M  V30 764 H 71.5347 1.75923 0.521857 0
M  V30 765 H 69.9167 2.55542 3.02514 0
M  V30 766 H 71.0907 4.51116 0.939711 0
M  V30 767 H 69.4057 4.04129 1.00342 0
M  V30 768 H 72.0027 3.78856 3.77323 0
M  V30 769 H 72.3457 2.08448 3.60354 0
M  V30 770 H 72.8787 3.21815 2.33838 0
M  V30 771 H 69.6177 6.20687 2.10779 0
M  V30 772 H 69.1377 4.99606 3.31894 0
M  V30 773 H 70.8167 5.58768 3.2617 0
M  V30 774 N 70.9488 -0.749086 1.3866 0
M  V30 775 C 71.9118 -1.84457 1.36045 0
M  V30 776 C 72.9118 -1.58682 0.260122 0
M  V30 777 O 74.1018 -1.66343 0.517261 0
M  V30 778 C 71.2338 -3.22008 1.11911 0
M  V30 779 H 72.4268 -1.88182 2.33512 0
M  V30 780 H 69.9798 -0.951266 1.24019 0
M  V30 781 H 70.7148 -3.2395 0.150686 0
M  V30 782 H 70.4998 -3.42111 1.91579 0
M  V30 783 H 71.9898 -4.0208 1.12788 0
M  V30 784 N 72.4269 -1.23603 -0.977757 0
M  V30 785 C 73.3739 -1.01954 -2.07061 0
M  V30 786 C 74.3439 0.0638697 -1.65977 0
M  V30 787 O 75.5289 -0.0887624 -1.90593 0
M  V30 788 C 72.6689 -0.619658 -3.39491 0
M  V30 789 C 71.7819 -1.77547 -3.93829 0
M  V30 790 C 70.9169 -1.32212 -5.14484 0
M  V30 791 C 69.9559 -2.44852 -5.60994 0
M  V30 792 N 69.0929 -2.00456 -6.72876 0
M  V30 793 H 73.9329 -1.95495 -2.24913 0
M  V30 794 H 71.4699 -0.973861 -1.10247 0
M  V30 795 H 73.4279 -0.368898 -4.15566 0
M  V30 796 H 72.0579 0.278752 -3.21594 0
M  V30 797 H 71.1099 -2.14016 -3.14486 0
M  V30 798 H 72.4219 -2.62219 -4.24314 0
M  V30 799 H 71.5759 -1.02965 -5.97899 0
M  V30 800 H 70.3149 -0.445808 -4.85658 0
M  V30 801 H 69.3199 -2.74871 -4.76157 0
M  V30 802 H 70.5449 -3.33024 -5.91837 0
M  V30 803 H 68.4909 -1.15208 -6.45804 0
M  V30 804 H 68.4079 -2.78687 -7.02759 0
M  V30 805 H 69.6759 -1.7432 -7.59758 0
M  V30 806 N 73.905 1.17692 -1.04816 0
M  V30 807 C 74.852 2.21581 -0.645797 0
M  V30 808 C 75.822 1.62367 0.350159 0
M  V30 809 O 77.007 1.89254 0.242433 0
M  V30 810 C 74.147 3.45092 -0.0227568 0
M  V30 811 C 73.26 4.18613 -1.06709 0
M  V30 812 C 72.395 5.29602 -0.411767 0
M  V30 813 C 71.434 5.94904 -1.44067 0
M  V30 814 N 70.571 6.97414 -0.809781 0
M  V30 815 H 75.411 2.55353 -1.5362 0
M  V30 816 H 72.948 1.25438 -0.768364 0
M  V30 817 H 74.906 4.15679 0.35588 0
M  V30 818 H 73.536 3.11917 0.831122 0
M  V30 819 H 72.588 3.46779 -1.5636 0
M  V30 820 H 73.9 4.63293 -1.84827 0
M  V30 821 H 73.054 6.06696 0.0206623 0
M  V30 822 H 71.793 4.86045 0.401438 0
M  V30 823 H 70.798 5.16544 -1.88316 0
M  V30 824 H 72.023 6.40542 -2.25571 0
M  V30 825 H 69.969 6.55998 -0.0170186 0
M  V30 826 H 69.886 7.40386 -1.52856 0
M  V30 827 H 71.154 7.78463 -0.401999 0
M  V30 828 N 75.3831 0.828654 1.34056 0
M  V30 829 C 76.6321 0.415828 1.97367 0
M  V30 830 C 76.9451 -1.02796 1.6641 0
M  V30 831 O 78.1511 -1.54497 2.23255 0
M  V30 832 C 76.6071 0.692601 3.53173 0
M  V30 833 C 76.2151 2.15038 3.93017 0
M  V30 834 C 77.9591 0.346222 4.23086 0
M  V30 835 C 75.8661 2.37174 5.41758 0
M  V30 836 H 74.7961 0.151755 0.738571 0
M  V30 837 H 77.4471 1.01581 1.52819 0
M  V30 838 H 75.8291 0.0223764 3.95994 0
M  V30 839 H 77.0031 2.86024 3.61285 0
M  V30 840 H 75.3181 2.45875 3.36057 0
M  V30 841 H 77.9151 0.48937 5.32456 0
M  V30 842 H 78.2581 -0.709842 4.10204 0
M  V30 843 H 78.7911 0.971258 3.85761 0
M  V30 844 H 75.5301 3.41308 5.59633 0
M  V30 845 H 75.0501 1.70738 5.74986 0
M  V30 846 H 76.7291 2.19818 6.08514 0
M  V30 847 N 76.8612 -1.46375 0.584142 0
M  V30 848 C 77.8082 -2.30323 -0.148286 0
M  V30 849 C 78.7782 -1.40703 -0.882713 0
M  V30 850 O 79.9632 -1.69651 -0.873099 0
M  V30 851 C 77.1032 -3.25196 -1.15507 0
M  V30 852 C 76.2162 -4.29915 -0.423943 0
M  V30 853 C 75.3512 -5.11914 -1.41838 0
M  V30 854 C 74.3902 -6.08381 -0.673736 0
M  V30 855 N 73.5272 -6.83242 -1.6163 0
M  V30 856 H 78.3672 -2.92427 0.573644 0
M  V30 857 H 75.9042 -1.44118 0.294703 0
M  V30 858 H 77.8622 -3.78646 -1.75166 0
M  V30 859 H 76.4922 -2.64898 -1.8447 0
M  V30 860 H 75.5442 -3.7931 0.287714 0
M  V30 861 H 76.8562 -4.98549 0.158128 0
M  V30 862 H 76.0102 -5.69648 -2.08773 0
M  V30 863 H 74.7492 -4.43243 -2.03438 0
M  V30 864 H 73.7542 -5.49799 0.00938483 0
M  V30 865 H 74.9792 -6.79071 -0.0631082 0
M  V30 866 H 72.9252 -6.1728 -2.22038 0
M  V30 867 H 72.8422 -7.48144 -1.08707 0
M  V30 868 H 74.1102 -7.45534 -2.27596 0
M  V30 869 N 78.3393 -0.321999 -1.54275 0
M  V30 870 C 79.2693 0.537411 -2.27231 0
M  V30 871 C 80.2503 1.12064 -1.27968 0
M  V30 872 O 81.4353 1.14606 -1.56777 0
M  V30 873 C 78.5653 1.69919 -3.02894 0
M  V30 874 C 77.5193 1.24534 -4.09482 0
M  V30 875 C 76.8453 2.49394 -4.72977 0
M  V30 876 C 78.1453 0.361335 -5.21049 0
M  V30 877 H 79.8393 -0.0711406 -2.99315 0
M  V30 878 H 77.3853 -0.0356555 -1.43956 0
M  V30 879 H 79.3383 2.30668 -3.52662 0
M  V30 880 H 78.0623 2.33431 -2.28424 0
M  V30 881 H 76.7213 0.660782 -3.60596 0
M  V30 882 H 76.3693 3.11265 -3.95124 0
M  V30 883 H 76.0693 2.19718 -5.44975 0
M  V30 884 H 77.5933 3.10908 -5.25517 0
M  V30 885 H 79.0073 0.875072 -5.66582 0
M  V30 886 H 77.4043 0.157428 -5.99893 0
M  V30 887 H 78.4743 -0.60822 -4.8107 0
M  V30 888 N 79.8174 1.5752 -0.0501392 0
M  V30 889 C 81.0454 1.96963 0.633492 0
M  V30 890 C 81.4604 0.927631 1.6444 0
M  V30 891 O 80.8174 -0.0882665 1.82286 0
M  V30 892 C 80.8684 3.36487 1.32132 0
M  V30 893 O 80.5894 4.36693 0.350894 0
M  V30 894 C 82.0904 3.90682 2.09481 0
M  V30 895 H 79.3104 0.648244 0.173266 0
M  V30 896 H 81.8544 2.0417 -0.116134 0
M  V30 897 H 80.0094 3.30434 2.02218 0
M  V30 898 H 80.4234 5.17702 0.841735 0
M  V30 899 H 81.8974 4.90591 2.5303 0
M  V30 900 H 82.3744 3.26053 2.94255 0
M  V30 901 H 82.9804 4.00069 1.44307 0
M  V30 902 N 81.2955 -0.223234 1.56011 0
M  V30 903 C 82.2585 -1.26014 1.9145 0
M  V30 904 C 83.2585 -1.3989 0.792937 0
M  V30 905 O 84.4485 -1.38184 1.0607 0
M  V30 906 C 81.5805 -2.63422 2.16383 0
M  V30 907 H 82.7735 -0.95796 2.84189 0
M  V30 908 H 80.3265 -0.463576 1.49267 0
M  V30 909 H 81.0615 -2.98741 1.2619 0
M  V30 910 H 80.8465 -2.54728 2.98088 0
M  V30 911 H 82.3365 -3.38249 2.44903 0
M  V30 912 N 82.7736 -1.49793 -0.48987 0
M  V30 913 C 83.6836 -1.70036 -1.61632 0
M  V30 914 C 84.6996 -0.583102 -1.63939 0
M  V30 915 O 85.8756 -0.859169 -1.82154 0
M  V30 916 C 82.9406 -1.77277 -2.97949 0
M  V30 917 C 82.0016 -3.00918 -3.06181 0
M  V30 918 C 81.2346 -3.07804 -4.35996 0
M  V30 919 O 81.4576 -2.21982 -5.25433 0
M  V30 920 O 80.3916 -4.00369 -4.49431 0
M  V30 921 H 84.2176 -2.65486 -1.47482 0
M  V30 922 H 81.8026 -1.33666 -0.667362 0
M  V30 923 H 83.6846 -1.84329 -3.78947 0
M  V30 924 H 82.3596 -0.850076 -3.12339 0
M  V30 925 H 81.2666 -2.99377 -2.2433 0
M  V30 926 H 82.5996 -3.92704 -2.96723 0
M  V30 927 N 84.2517 0.741722 -1.39055 0
M  V30 928 C 85.2147 1.83733 -1.37021 0
M  V30 929 C 86.2147 1.58542 -0.268534 0
M  V30 930 O 87.4047 1.66067 -0.526076 0
M  V30 931 C 84.5367 3.2141 -1.13617 0
M  V30 932 H 85.7297 1.86941 -2.34506 0
M  V30 933 H 83.2827 0.944676 -1.24521 0
M  V30 934 H 84.0177 3.23865 -0.167863 0
M  V30 935 H 83.8027 3.4109 -1.93391 0
M  V30 936 H 85.2927 4.01477 -1.14918 0
M  V30 937 N 85.7298 1.2412 0.971189 0
M  V30 938 C 86.6398 1.04747 2.09917 0
M  V30 939 C 87.6558 -0.0107162 1.73997 0
M  V30 940 O 88.8318 0.186714 2.00533 0
M  V30 941 C 85.8968 0.650828 3.40537 0
M  V30 942 C 84.9578 1.7851 3.90426 0
M  V30 943 C 84.1908 1.40729 5.14812 0
M  V30 944 O 84.4138 0.29557 5.69634 0
M  V30 945 O 83.3478 2.23168 5.58999 0
M  V30 946 H 87.1738 1.99304 2.29154 0
M  V30 947 H 84.7588 1.02908 1.08307 0
M  V30 948 H 86.6408 0.440992 4.19086 0
M  V30 949 H 85.3158 -0.265649 3.22608 0
M  V30 950 H 84.2228 2.04966 3.12953 0
M  V30 951 H 85.5558 2.68023 4.12825 0
M  V30 952 N 87.2079 -1.17134 1.05439 0
M  V30 953 C 88.1179 -2.24878 0.668365 0
M  V30 954 C 89.1339 -1.71186 -0.311687 0
M  V30 955 O 90.3099 -2.00738 -0.163161 0
M  V30 956 C 87.3749 -3.46662 0.051648 0
M  V30 957 C 86.4359 -4.15429 1.08246 0
M  V30 958 C 85.6689 -5.31399 0.495082 0
M  V30 959 O 85.8919 -5.66153 -0.694743 0
M  V30 960 O 84.8259 -5.89187 1.23056 0
M  V30 961 H 88.6519 -2.60189 1.56637 0
M  V30 962 H 86.2369 -1.24482 0.826104 0
M  V30 963 H 88.1189 -4.20394 -0.290966 0
M  V30 964 H 86.7939 -3.13142 -0.819971 0
M  V30 965 H 85.7009 -3.43704 1.47711 0
M  V30 966 H 87.0339 -4.52982 1.92532 0
M  V30 967 N 88.686 -0.835752 -1.33615 0
M  V30 968 C 89.616 -0.281739 -2.31794 0
M  V30 969 C 90.597 0.608833 -1.58831 0
M  V30 970 O 91.782 0.533035 -1.86741 0
M  V30 971 C 88.912 0.546612 -3.42971 0
M  V30 972 C 87.866 -0.247904 -4.27281 0
M  V30 973 C 87.192 0.704001 -5.30045 0
M  V30 974 C 88.492 -1.46324 -5.01385 0
M  V30 975 H 90.186 -1.10206 -2.78379 0
M  V30 976 H 87.732 -0.531388 -1.33837 0
M  V30 977 H 89.685 0.944467 -4.1068 0
M  V30 978 H 88.409 1.40011 -2.95067 0
M  V30 979 H 87.068 -0.627281 -3.61194 0
M  V30 980 H 86.716 1.55381 -4.78399 0
M  V30 981 H 86.416 0.176524 -5.87335 0
M  V30 982 H 87.94 1.09944 -6.0062 0
M  V30 983 H 89.354 -1.13871 -5.61877 0
M  V30 984 H 87.751 -1.92728 -5.6831 0
M  V30 985 H 88.821 -2.23467 -4.30338 0
M  V30 986 N 90.1641 1.46063 -0.591896 0
M  V30 987 C 91.1111 2.30399 0.136069 0
M  V30 988 C 92.0811 1.41169 0.875238 0
M  V30 989 O 93.2661 1.70112 0.86409 0
M  V30 990 C 90.4061 3.25804 1.13781 0
M  V30 991 C 89.5191 4.30134 0.401137 0
M  V30 992 C 88.6541 5.12659 1.39121 0
M  V30 993 C 87.6931 6.0873 0.641462 0
M  V30 994 N 86.8301 6.8409 1.58004 0
M  V30 995 H 91.6701 2.92118 -0.589144 0
M  V30 996 H 89.2071 1.43959 -0.302342 0
M  V30 997 H 91.1651 3.79569 1.73156 0
M  V30 998 H 89.7951 2.65872 1.83062 0
M  V30 999 H 88.8471 3.79152 -0.307826 0
M  V30 1000 H 90.1591 4.98458 -0.184565 0
M  V30 1001 H 89.3131 5.70747 2.05749 0
M  V30 1002 H 88.0521 4.44316 2.01084 0
M  V30 1003 H 87.0571 5.49786 -0.0385419 0
M  V30 1004 H 88.2821 6.79095 0.0270945 0
M  V30 1005 H 86.2281 6.18449 2.18761 0
M  V30 1006 H 86.1451 7.48709 1.04738 0
M  V30 1007 H 87.4131 7.4673 2.23639 0
M  V30 1008 N 91.6422 0.330177 1.54103 0
M  V30 1009 C 93.0532 -0.15652 1.86043 0
M  V30 1010 C 93.4042 -1.51086 1.2517 0
M  V30 1011 O 92.5292 -2.09023 0.560217 0
M  V30 1012 C 93.1242 -0.290784 3.3755 0
M  V30 1013 C 91.6832 -0.721705 3.69416 0
M  V30 1014 C 90.8302 0.152622 2.7688 0
M  V30 1015 H 93.7812 0.550237 1.48856 0
M  V30 1016 H 93.8022 -1.12058 3.63625 0
M  V30 1017 H 93.3142 0.695068 3.81825 0
M  V30 1018 H 91.4152 -1.71706 3.30678 0
M  V30 1019 H 91.5282 -0.520869 4.7626 0
M  V30 1020 H 89.8922 -0.372894 2.51956 0
M  V30 1021 H 90.6752 1.13536 3.23982 0
M  V30 1022 N 93.1203 -1.57491 0.0584922 0
M  V30 1023 C 94.3673 -1.92978 -0.613648 0
M  V30 1024 C 94.6953 -0.937461 -1.70417 0
M  V30 1025 O 93.9503 0.049078 -1.95638 0
M  V30 1026 C 94.2493 -3.3513 -1.24188 0
M  V30 1027 C 93.9153 -4.50037 -0.278826 0
M  V30 1028 C 92.5773 -4.81198 -0.0138447 0
M  V30 1029 C 94.9293 -5.19807 0.380777 0
M  V30 1030 C 92.2573 -5.79473 0.918052 0
M  V30 1031 C 94.6093 -6.19079 1.30091 0
M  V30 1032 C 93.2733 -6.48665 1.57449 0
M  V30 1033 H 92.5433 -0.706157 -0.22455 0
M  V30 1034 H 95.1903 -1.91082 0.126533 0
M  V30 1035 H 93.4953 -3.33429 -2.05749 0
M  V30 1036 H 95.1923 -3.59871 -1.769 0
M  V30 1037 H 91.7823 -4.25726 -0.495539 0
M  V30 1038 H 95.9663 -4.95939 0.189158 0
M  V30 1039 H 91.2223 -6.00727 1.1374 0
M  V30 1040 H 95.3963 -6.7225 1.81804 0
M  V30 1041 H 93.0233 -7.24628 2.29822 0
M  V30 1042 N 94.5984 0.214957 -1.56127 0
M  V30 1043 C 95.8454 0.938372 -1.79446 0
M  V30 1044 C 96.1734 1.8407 -0.628378 0
M  V30 1045 O 95.4284 1.91837 0.386925 0
M  V30 1046 C 95.7274 1.80314 -3.0858 0
M  V30 1047 C 95.3934 1.05349 -4.3842 0
M  V30 1048 C 94.0554 0.846435 -4.73697 0
M  V30 1049 C 96.4074 0.524588 -5.18553 0
M  V30 1050 C 93.7354 0.098683 -5.86617 0
M  V30 1051 C 96.0874 -0.209853 -6.32252 0
M  V30 1052 C 94.7514 -0.428102 -6.66126 0
M  V30 1053 H 94.0214 0.343375 -0.656639 0
M  V30 1054 H 96.6684 0.206077 -1.90388 0
M  V30 1055 H 94.9734 2.6035 -2.92789 0
M  V30 1056 H 96.6704 2.36513 -3.23825 0
M  V30 1057 H 93.2604 1.22486 -4.10725 0
M  V30 1058 H 97.4444 0.672008 -4.91729 0
M  V30 1059 H 92.7004 -0.0805753 -6.11347 0
M  V30 1060 H 96.8744 -0.627157 -6.9357 0
M  V30 1061 H 94.5014 -1.00944 -7.53468 0
M  V30 1062 N 96.0765 1.50051 0.48192 0
M  V30 1063 C 97.0095 1.62749 1.59963 0
M  V30 1064 C 97.9875 0.475903 1.5548 0
M  V30 1065 O 99.1715 0.693986 1.7526 0
M  V30 1066 C 96.2985 1.60008 2.98522 0
M  V30 1067 C 95.3445 2.80596 3.21198 0
M  V30 1068 S 96.1775 4.42038 3.02262 0
M  V30 1069 C 97.3335 4.41973 4.43182 0
M  V30 1070 H 97.5665 2.57296 1.4895 0
M  V30 1071 H 95.0995 1.39179 0.668477 0
M  V30 1072 H 97.0575 1.59112 3.78409 0
M  V30 1073 H 95.7185 0.667153 3.06933 0
M  V30 1074 H 94.9115 2.74952 4.22395 0
M  V30 1075 H 94.5135 2.79003 2.49065 0
M  V30 1076 H 96.8055 4.14868 5.35622 0
M  V30 1077 H 97.7485 5.43512 4.53873 0
M  V30 1078 H 98.1565 3.71812 4.24755 0
M  V30 1079 N 97.5546 -0.734337 1.39446 0
M  V30 1080 C 98.5016 -1.84835 1.38219 0
M  V30 1081 C 99.4716 -1.64331 0.24179 0
M  V30 1082 O 100.657 -1.85728 0.437002 0
M  V30 1083 C 97.7966 -3.22355 1.23212 0
M  V30 1084 C 96.9096 -3.5456 2.46801 0
M  V30 1085 C 96.0446 -4.81485 2.24377 0
M  V30 1086 C 95.0836 -5.06536 3.43639 0
M  V30 1087 N 94.2206 -6.24665 3.20528 0
M  V30 1088 H 99.0606 -1.85219 2.33448 0
M  V30 1089 H 96.5976 -0.905039 1.15963 0
M  V30 1090 H 98.5556 -4.0174 1.12522 0
M  V30 1091 H 97.1856 -3.21248 0.316121 0
M  V30 1092 H 96.2376 -2.69872 2.68092 0
M  V30 1093 H 97.5496 -3.6899 3.3563 0
M  V30 1094 H 96.7036 -5.68852 2.10933 0
M  V30 1095 H 95.4426 -4.6923 1.32944 0
M  V30 1096 H 94.4476 -4.17632 3.5758 0
M  V30 1097 H 95.6726 -5.20676 4.35974 0
M  V30 1098 H 93.6186 -6.13696 2.3176 0
M  V30 1099 H 93.5356 -6.39685 4.02913 0
M  V30 1100 H 94.8036 -7.14868 3.10779 0
M  V30 1101 N 99.0327 -1.24633 -0.964593 0
M  V30 1102 C 99.9427 -1.05859 -2.09359 0
M  V30 1103 C 100.959 0.00148855 -1.74 0
M  V30 1104 O 102.135 -0.197346 -2.00431 0
M  V30 1105 C 99.1997 -0.668879 -3.40187 0
M  V30 1106 C 98.2607 -1.80578 -3.89474 0
M  V30 1107 C 97.4937 -1.43457 -5.14058 0
M  V30 1108 O 97.7167 -0.325775 -5.69469 0
M  V30 1109 O 96.6507 -2.2613 -5.57807 0
M  V30 1110 H 100.477 -2.00516 -2.28094 0
M  V30 1111 H 98.0617 -1.03481 -1.0776 0
M  V30 1112 H 99.9437 -0.463211 -4.18846 0
M  V30 1113 H 98.6187 0.248536 -3.22744 0
M  V30 1114 H 97.5257 -2.06623 -3.11862 0
M  V30 1115 H 98.8587 -2.70208 -4.11398 0
M  V30 1116 N 100.511 1.16574 -1.06058 0
M  V30 1117 C 101.757 1.87324 -0.777022 0
M  V30 1118 C 102.09 1.81351 0.694645 0
M  V30 1119 O 101.365 1.22753 1.50871 0
M  V30 1120 C 101.648 3.36991 -1.26922 0
M  V30 1121 C 101.501 3.51667 -2.80447 0
M  V30 1122 C 102.82 4.3131 -0.87521 0
M  V30 1123 H 99.9388 0.680191 -0.28374 0
M  V30 1124 H 102.581 1.37036 -1.3161 0
M  V30 1125 H 100.731 3.79949 -0.81063 0
M  V30 1126 H 102.403 3.17664 -3.34495 0
M  V30 1127 H 100.646 2.93656 -3.19294 0
M  V30 1128 H 101.317 4.56766 -3.0995 0
M  V30 1129 H 103.793 3.9624 -1.27014 0
M  V30 1130 H 102.669 5.34545 -1.2471 0
M  V30 1131 H 102.93 4.41552 0.220071 0
M  V30 1132 N 101.989 0.842826 1.3317 0
M  V30 1133 C 103.237 0.439577 1.97262 0
M  V30 1134 C 103.558 -1.00548 1.67078 0
M  V30 1135 O 102.828 -1.70098 0.971779 0
M  V30 1136 H 101.408 0.159558 0.72976 0
M  V30 1137 H 104.07 1.07665 1.62463 0
M  V30 1138 H 103.166 0.574886 3.0676 0
M  V30 1139 N 103.467 -1.45747 0.599634 0
M  V30 1140 C 104.692 -2.07178 0.0960198 0
M  V30 1141 C 105.117 -1.44268 -1.207 0
M  V30 1142 O 104.475 -0.532503 -1.73303 0
M  V30 1143 C 104.523 -3.60579 -0.0385348 0
M  V30 1144 O 103.627 -3.97713 -1.0908 0
M  V30 1145 H 102.968 -0.660251 0.0704593 0
M  V30 1146 H 105.498 -1.87124 0.827385 0
M  V30 1147 H 105.508 -4.07298 -0.239304 0
M  V30 1148 H 104.183 -4.05756 0.912947 0
M  V30 1149 H 102.76 -3.62678 -0.867135 0
M  V30 1150 N 104.945 -0.338344 -1.53925 0
M  V30 1151 C 105.895 0.536712 -2.21593 0
M  V30 1152 C 106.879 1.07015 -1.20153 0
M  V30 1153 O 108.071 1.00471 -1.45721 0
M  V30 1154 C 105.2 1.68977 -2.98834 0
M  V30 1155 C 104.286 1.17052 -4.07627 0
M  V30 1156 N 104.677 0.372085 -5.0443 0
M  V30 1157 C 102.975 1.44789 -4.21844 0
M  V30 1158 C 103.676 0.0909171 -5.81629 0
M  V30 1159 N 102.652 0.681131 -5.39316 0
M  V30 1160 H 106.454 -0.0804298 -2.9379 0
M  V30 1161 H 103.968 -0.144943 -1.61752 0
M  V30 1162 H 105.965 2.32857 -3.45808 0
M  V30 1163 H 104.625 2.31024 -2.28162 0
M  V30 1164 H 105.636 0.0136217 -5.17898 0
M  V30 1165 H 102.313 2.07313 -3.62391 0
M  V30 1166 H 103.703 -0.552817 -6.69622 0
M  V30 1167 N 106.423 1.57458 -0.0668435 0
M  V30 1168 C 107.67 1.93301 0.603406 0
M  V30 1169 C 107.998 0.946486 1.69917 0
M  V30 1170 O 107.253 -0.0387021 1.95662 0
M  V30 1171 C 107.552 3.35784 1.22409 0
M  V30 1172 C 107.218 4.50179 0.254955 0
M  V30 1173 C 105.88 4.81199 -0.0116746 0
M  V30 1174 C 108.232 5.19598 -0.408338 0
M  V30 1175 C 105.56 5.78978 -0.94877 0
M  V30 1176 C 107.912 6.18381 -1.33372 0
M  V30 1177 C 106.576 6.47821 -1.60887 0
M  V30 1178 H 105.846 0.707338 0.220802 0
M  V30 1179 H 108.493 1.91012 -0.136665 0
M  V30 1180 H 106.798 3.34515 2.03978 0
M  V30 1181 H 108.495 3.60804 1.74989 0
M  V30 1182 H 105.085 4.25983 0.472954 0
M  V30 1183 H 109.269 4.95832 -0.215456 0
M  V30 1184 H 104.525 6.00115 -1.16925 0
M  V30 1185 H 108.699 6.71277 -1.85367 0
M  V30 1186 H 106.326 7.23399 -2.33661 0
M  V30 1187 N 107.901 -0.206675 1.56239 0
M  V30 1188 C 109.178 -0.954051 1.70755 0
M  V30 1189 C 109.558 -2.01841 0.618353 0
M  V30 1190 O 108.906 -2.25444 -0.372434 0
M  V30 1191 C 109.116 -1.551 3.12642 0
M  V30 1192 C 110.464 -2.03757 3.72516 0
M  V30 1193 O 111.488 -1.64965 3.15698 0
M  V30 1194 O 110.347 -2.75103 4.72208 0
M  V30 1195 H 107.441 -0.446636 0.696021 0
M  V30 1196 H 109.987 -0.197283 1.68549 0
M  V30 1197 H 108.759 -0.783212 3.83382 0
M  V30 1198 H 108.382 -2.37291 3.19028 0
M  V30 1199 N 109.379 -1.50304 -0.473955 0
M  V30 1200 C 110.656 -1.51667 -1.23518 0
M  V30 1201 C 111.036 -0.259701 -2.09496 0
M  V30 1202 O 110.384 0.756986 -2.15597 0
M  V30 1203 C 110.594 -2.81082 -2.06868 0
M  V30 1204 C 111.942 -3.31631 -2.65153 0
M  V30 1205 O 112.966 -2.82384 -2.17113 0
M  V30 1206 O 111.825 -4.17471 -3.52675 0
M  V30 1207 H 108.919 -0.60822 -0.560355 0
M  V30 1208 H 111.465 -1.62592 -0.486011 0
M  V30 1209 H 110.237 -3.64041 -1.4349 0
M  V30 1210 H 109.86 -2.73146 -2.88924 0
M  V30 1211 N 110.857 0.726932 -1.39834 0
M  V30 1212 C 112.104 1.48664 -1.37496 0
M  V30 1213 C 112.432 1.94482 0.0264678 0
M  V30 1214 O 111.687 1.67692 1.00886 0
M  V30 1215 C 111.986 2.73495 -2.30077 0
M  V30 1216 C 111.652 2.46502 -3.77555 0
M  V30 1217 C 110.314 2.3885 -4.17737 0
M  V30 1218 C 112.666 2.23604 -4.70798 0
M  V30 1219 C 109.994 2.06352 -5.49214 0
M  V30 1220 C 112.346 1.92622 -6.02561 0
M  V30 1221 C 111.01 1.83444 -6.41798 0
M  V30 1222 H 110.28 0.544001 -0.503135 0
M  V30 1223 H 112.927 0.833657 -1.72402 0
M  V30 1224 H 111.232 3.43575 -1.88317 0
M  V30 1225 H 112.929 3.31549 -2.25558 0
M  V30 1226 H 109.519 2.5334 -3.45712 0
M  V30 1227 H 113.703 2.28479 -4.40581 0
M  V30 1228 H 108.959 1.97776 -5.78528 0
M  V30 1229 H 113.133 1.73914 -6.74334 0
M  V30 1230 H 110.76 1.58029 -7.43593 0
M  V30 1231 N 112.336 1.25143 0.95797 0
M  V30 1232 C 113.582 1.09855 1.70469 0
M  V30 1233 C 113.915 -0.360187 1.90831 0
M  V30 1234 O 113.19 -1.26568 1.47685 0
M  V30 1235 C 113.473 1.8497 3.08963 0
M  V30 1236 C 113.326 3.38652 2.96032 0
M  V30 1237 C 114.645 1.63016 4.08795 0
M  V30 1238 H 111.764 0.400465 0.618706 0
M  V30 1239 H 114.406 1.53933 1.11376 0
M  V30 1240 H 112.556 1.47505 3.59409 0
M  V30 1241 H 114.228 3.85772 2.52938 0
M  V30 1242 H 112.471 3.66534 2.32025 0
M  V30 1243 H 113.142 3.8642 3.94187 0
M  V30 1244 H 115.618 1.95625 3.67247 0
M  V30 1245 H 114.494 2.18015 5.03747 0
M  V30 1246 H 114.755 0.570692 4.38401 0
M  V30 1247 N 113.814 -1.1601 1.06675 0
M  V30 1248 C 115.042 -1.90527 0.806667 0
M  V30 1249 C 115.457 -1.77643 -0.639396 0
M  V30 1250 O 114.814 -1.12369 -1.43803 0
M  V30 1251 C 114.865 -3.41106 1.19705 0
M  V30 1252 O 114.586 -3.53608 2.58636 0
M  V30 1253 C 116.087 -4.32663 0.965266 0
M  V30 1254 H 113.307 -0.604053 0.292166 0
M  V30 1255 H 115.851 -1.47026 1.4214 0
M  V30 1256 H 114.006 -3.82296 0.626774 0
M  V30 1257 H 114.42 -4.47011 2.74375 0
M  V30 1258 H 115.894 -5.36763 1.288 0
M  V30 1259 H 116.371 -4.39089 -0.0987936 0
M  V30 1260 H 116.977 -3.97206 1.52011 0
M  V30 1261 N 115.292 -0.849877 -1.32721 0
M  V30 1262 C 116.24 -0.279745 -2.30912 0
M  V30 1263 C 117.234 0.594278 -1.58634 0
M  V30 1264 O 118.44 0.482613 -1.73409 0
M  V30 1265 H 114.815 -0.0717521 -0.748569 0
M  V30 1266 H 116.786 -1.12222 -2.76494 0
M  V30 1267 C 115.535 0.521108 -3.43773 0
M  V30 1268 H 114.858 -0.142141 -3.99547 0
M  V30 1269 H 116.298 0.885693 -4.14646 0
M  V30 1270 C 114.757 1.70442 -2.90605 0
M  V30 1271 O 115.287 2.8034 -2.87702 0
M  V30 1272 N 113.493 1.52991 -2.47067 0
M  V30 1273 H 113.04 0.635914 -2.49628 0
M  V30 1274 H 112.998 2.32311 -2.11847 0
M  V30 1275 N 116.77 1.45427 -0.607355 0
M  V30 1276 C 117.7 2.3329 0.0989352 0
M  V30 1277 C 118.681 1.46816 0.859007 0
M  V30 1278 O 119.866 1.75588 0.829604 0
M  V30 1279 C 116.996 3.29518 1.09705 0
M  V30 1280 C 115.95 4.25626 0.450206 0
M  V30 1281 C 115.276 5.11542 1.55655 0
M  V30 1282 C 116.576 5.18505 -0.628455 0
M  V30 1283 H 118.27 2.92595 -0.634716 0
M  V30 1284 H 115.816 1.40696 -0.306681 0
M  V30 1285 H 117.769 3.89855 1.59971 0
M  V30 1286 H 116.493 2.68372 1.86129 0
M  V30 1287 H 115.152 3.66586 -0.0315886 0
M  V30 1288 H 114.8 4.46765 2.31107 0
M  V30 1289 H 114.5 5.76647 1.12925 0
M  V30 1290 H 116.024 5.74748 2.06148 0
M  V30 1291 H 117.438 5.72916 -0.209877 0
M  V30 1292 H 115.835 5.92085 -0.977489 0
M  V30 1293 H 116.905 4.60948 -1.50514 0
M  V30 1294 N 118.248 0.346503 1.53744 0
M  V30 1295 C 119.497 -0.250122 2.00143 0
M  V30 1296 C 119.81 -1.51418 1.23822 0
M  V30 1297 O 121.016 -2.18823 1.60713 0
M  V30 1298 C 119.472 -0.496252 3.56462 0
M  V30 1299 C 119.08 0.752077 4.41642 0
M  V30 1300 C 120.824 -1.05157 4.11269 0
M  V30 1301 C 118.731 0.476583 5.89477 0
M  V30 1302 H 117.661 -0.0972409 0.747703 0
M  V30 1303 H 120.312 0.46229 1.77581 0
M  V30 1304 H 118.694 -1.26944 3.75102 0
M  V30 1305 H 119.868 1.5266 4.34778 0
M  V30 1306 H 118.183 1.22925 3.97842 0
M  V30 1307 H 120.78 -1.27269 5.19333 0
M  V30 1308 H 121.123 -2.00799 3.64672 0
M  V30 1309 H 121.656 -0.339019 3.96353 0
M  V30 1310 H 118.395 1.4028 6.40314 0
M  V30 1311 H 117.915 -0.259794 5.99237 0
M  V30 1312 H 119.594 0.0949315 6.4693 0
M  V30 1313 N 119.726 -1.57421 0.075193 0
M  V30 1314 C 120.636 -2.1642 -0.905511 0
M  V30 1315 C 121.652 -1.12828 -1.32461 0
M  V30 1316 O 122.828 -1.45109 -1.39661 0
M  V30 1317 C 119.893 -2.71693 -2.15369 0
M  V30 1318 C 118.954 -3.90171 -1.79068 0
M  V30 1319 C 118.187 -4.42798 -2.97936 0
M  V30 1320 O 118.41 -3.94416 -4.12058 0
M  V30 1321 O 117.344 -5.34085 -2.77555 0
M  V30 1322 H 121.17 -3.00588 -0.433626 0
M  V30 1323 H 118.755 -1.48664 -0.148067 0
M  V30 1324 H 120.637 -3.07104 -2.88557 0
M  V30 1325 H 119.312 -1.90582 -2.61649 0
M  V30 1326 H 118.219 -3.59606 -1.03122 0
M  V30 1327 H 119.552 -4.72584 -1.37569 0
M  V30 1328 N 121.204 0.198386 -1.56346 0
M  V30 1329 C 122.151 1.24589 -1.94284 0
M  V30 1330 C 123.121 1.454 -0.802997 0
M  V30 1331 O 124.306 1.58588 -1.06087 0
M  V30 1332 C 121.446 2.58631 -2.28482 0
M  V30 1333 C 120.559 2.45426 -3.55514 0
M  V30 1334 C 119.694 3.7215 -3.79049 0
M  V30 1335 C 118.733 3.53763 -4.99518 0
M  V30 1336 N 117.87 4.72491 -5.19323 0
M  V30 1337 H 122.71 0.915356 -2.83593 0
M  V30 1338 H 120.247 0.440629 -1.40346 0
M  V30 1339 H 122.205 3.3672 -2.46324 0
M  V30 1340 H 120.835 2.89734 -1.42317 0
M  V30 1341 H 119.887 1.58652 -3.45737 0
M  V30 1342 H 121.199 2.27772 -4.43758 0
M  V30 1343 H 120.353 4.58679 -3.97113 0
M  V30 1344 H 119.092 3.92754 -2.89129 0
M  V30 1345 H 118.097 2.65619 -4.8138 0
M  V30 1346 H 119.322 3.34607 -5.90944 0
M  V30 1347 H 117.268 4.93365 -4.3235 0
M  V30 1348 H 117.185 4.5765 -6.01741 0
M  V30 1349 H 118.453 5.6038 -5.41843 0
M  V30 1350 N 122.682 1.50554 0.465978 0
M  V30 1351 C 123.907 1.65838 1.24549 0
M  V30 1352 C 124.332 0.343486 1.84937 0
M  V30 1353 O 123.69 -0.69324 1.67523 0
M  V30 1354 C 123.738 2.75533 2.32624 0
M  V30 1355 O 122.842 2.37142 3.37398 0
M  V30 1356 H 122.183 0.553893 0.366194 0
M  V30 1357 H 124.713 1.96959 0.553927 0
M  V30 1358 H 124.723 2.98763 2.77857 0
M  V30 1359 H 123.398 3.70962 1.88043 0
M  V30 1360 H 121.975 2.24377 2.97841 0
M  V30 1361 N 124.16 -0.719506 1.40217 0
M  V30 1362 C 125.123 -1.8153 1.39927 0
M  V30 1363 C 126.123 -1.58095 0.293723 0
M  V30 1364 O 127.313 -1.65209 0.552429 0
M  V30 1365 C 124.445 -3.19561 1.18716 0
M  V30 1366 H 125.638 -1.83186 2.37451 0
M  V30 1367 H 123.191 -0.924746 1.26008 0
M  V30 1368 H 123.926 -3.23557 0.219366 0
M  V30 1369 H 123.711 -3.3797 1.98793 0
M  V30 1370 H 125.201 -3.99598 1.21291 0
M  V30 1371 N 125.638 -1.25649 -0.95132 0
M  V30 1372 C 126.863 -1.13443 -1.73624 0
M  V30 1373 C 127.288 0.307565 -1.85568 0
M  V30 1374 O 126.646 1.22282 -1.33854 0
M  V30 1375 C 126.694 -1.79723 -3.12621 0
M  V30 1376 O 125.798 -1.07912 -3.98031 0
M  V30 1377 H 125.139 -0.395872 -0.533086 0
M  V30 1378 H 127.669 -1.66276 -1.1922 0
M  V30 1379 H 127.679 -1.86141 -3.63064 0
M  V30 1380 H 126.354 -2.84633 -3.03244 0
M  V30 1381 H 124.931 -1.09398 -3.56492 0
M  V30 1382 N 127.117 1.15442 -1.07289 0
M  V30 1383 C 128.047 2.22312 -0.714107 0
M  V30 1384 C 129.028 1.67467 0.298155 0
M  V30 1385 O 130.213 1.93445 0.171048 0
M  V30 1386 C 127.343 3.47124 -0.110448 0
M  V30 1387 C 126.297 4.14926 -1.04979 0
M  V30 1388 C 125.623 5.33807 -0.308924 0
M  V30 1389 C 126.923 4.64762 -2.38314 0
M  V30 1390 H 128.617 2.5258 -1.6076 0
M  V30 1391 H 126.163 1.21404 -0.77441 0
M  V30 1392 H 128.116 4.21124 0.152482 0
M  V30 1393 H 126.84 3.16187 0.81812 0
M  V30 1394 H 125.499 3.42866 -1.29764 0
M  V30 1395 H 125.147 4.99126 0.623084 0
M  V30 1396 H 124.847 5.80113 -0.935036 0
M  V30 1397 H 126.371 6.10576 -0.0537771 0
M  V30 1398 H 127.785 5.30292 -2.1786 0
M  V30 1399 H 126.182 5.21728 -2.96514 0
M  V30 1400 H 127.252 3.80434 -3.00663 0
M  V30 1401 N 128.595 0.856903 1.32268 0
M  V30 1402 C 129.872 0.382583 1.91822 0
M  V30 1403 C 130.252 -1.13407 1.78051 0
M  V30 1404 O 129.6 -1.95673 1.18001 0
M  V30 1405 C 129.81 0.849446 3.38505 0
M  V30 1406 C 131.158 0.867936 4.15634 0
M  V30 1407 O 132.182 0.794232 3.47232 0
M  V30 1408 O 131.041 0.972286 5.37781 0
M  V30 1409 H 128.135 0.112014 0.819379 0
M  V30 1410 H 130.681 0.943952 1.41024 0
M  V30 1411 H 129.453 1.89267 3.42482 0
M  V30 1412 H 129.076 0.265652 3.96712 0
M  V30 1413 N 130.073 -1.45103 0.615059 0
M  V30 1414 C 131.021 -2.32331 -0.111791 0
M  V30 1415 C 132.015 -1.46409 -0.852102 0
M  V30 1416 O 133.221 -1.62849 -0.766821 0
M  V30 1417 H 129.596 -0.749993 -0.0549072 0
M  V30 1418 H 131.567 -2.91407 0.642225 0
M  V30 1419 C 130.316 -3.3015 -1.09071 0
M  V30 1420 H 129.639 -3.96265 -0.530485 0
M  V30 1421 H 131.079 -3.93898 -1.56908 0
M  V30 1422 C 129.538 -2.57875 -2.168 0
M  V30 1423 O 130.068 -2.36567 -3.24652 0
M  V30 1424 N 128.274 -2.17884 -1.92289 0
M  V30 1425 H 127.821 -2.35413 -1.04587 0
M  V30 1426 H 127.779 -1.6985 -2.64572 0
M  V30 1427 N 131.551 -0.354651 -1.53558 0
M  V30 1428 C 132.799 0.237972 -2.00694 0
M  V30 1429 C 133.12 1.50173 -1.24391 0
M  V30 1430 O 132.39 1.92673 -0.354135 0
M  V30 1431 H 130.97 0.0909256 -0.741446 0
M  V30 1432 H 133.632 -0.478368 -1.88938 0
M  V30 1433 H 132.728 0.47264 -3.085 0
M  V30 1434 N 133.029 1.57378 -0.0835403 0
M  V30 1435 C 134.277 1.93547 0.581718 0
M  V30 1436 C 134.598 0.96524 1.69435 0
M  V30 1437 O 133.868 0.0153369 1.95894 0
M  V30 1438 H 132.448 0.714521 0.217874 0
M  V30 1439 H 135.11 1.94366 -0.144158 0
M  V30 1440 H 134.206 2.95665 0.999423 0
M  V30 1441 N 134.507 -0.190092 1.56449 0
M  V30 1442 C 135.747 -0.916414 1.82705 0
M  V30 1443 C 136.111 -1.80235 0.661763 0
M  V30 1444 O 137.312 -2.56484 0.80433 0
M  V30 1445 C 135.583 -1.70691 3.14005 0
M  V30 1446 S 137.142 -2.48457 3.61683 0
M  V30 1447 H 133.96 -0.307281 0.64117 0
M  V30 1448 H 136.562 -0.179433 1.94675 0
M  V30 1449 H 135.266 -1.04677 3.96826 0
M  V30 1450 H 134.797 -2.48562 3.04927 0
M  V30 1451 H 136.812 -3.72756 3.27517 0
M  V30 1452 N 135.985 -1.50799 -0.457987 0
M  V30 1453 C 136.948 -1.7005 -1.53674 0
M  V30 1454 C 137.948 -0.570881 -1.50325 0
M  V30 1455 O 139.138 -0.838126 -1.52712 0
M  V30 1456 C 136.27 -1.73788 -2.93276 0
M  V30 1457 H 137.463 -2.66306 -1.37917 0
M  V30 1458 H 135.016 -1.40477 -0.685271 0
M  V30 1459 H 135.751 -0.792717 -3.14462 0
M  V30 1460 H 135.536 -2.55864 -2.97113 0
M  V30 1461 H 137.026 -1.90591 -3.71571 0
M  V30 1462 N 137.463 0.71206 -1.40597 0
M  V30 1463 C 138.393 1.83889 -1.43899 0
M  V30 1464 C 139.374 1.67442 -0.299504 0
M  V30 1465 O 140.559 1.87421 -0.508624 0
M  V30 1466 C 137.689 3.21877 -1.30431 0
M  V30 1467 C 136.643 3.53002 -2.42019 0
M  V30 1468 C 135.969 4.90172 -2.13626 0
M  V30 1469 C 137.269 3.53643 -3.84362 0
M  V30 1470 H 138.963 1.81383 -2.38203 0
M  V30 1471 H 136.509 0.871237 -1.14654 0
M  V30 1472 H 138.462 4.00404 -1.31357 0
M  V30 1473 H 137.186 3.24968 -0.326049 0
M  V30 1474 H 135.845 2.76818 -2.40349 0
M  V30 1475 H 135.493 4.89869 -1.14182 0
M  V30 1476 H 135.193 5.11962 -2.88389 0
M  V30 1477 H 136.717 5.71028 -2.1624 0
M  V30 1478 H 138.131 4.22203 -3.87837 0
M  V30 1479 H 136.528 3.86961 -4.58673 0
M  V30 1480 H 137.598 2.52954 -4.13693 0
M  V30 1481 N 138.941 1.26152 0.944643 0
M  V30 1482 C 140.169 1.14259 1.72489 0
M  V30 1483 C 140.584 -0.302555 1.8636 0
M  V30 1484 O 139.941 -1.20741 1.36849 0
M  V30 1485 C 139.992 1.80266 3.13347 0
M  V30 1486 O 139.713 3.19133 3.00143 0
M  V30 1487 C 141.214 1.74283 4.07603 0
M  V30 1488 H 138.434 0.398051 0.540181 0
M  V30 1489 H 140.978 1.66706 1.18446 0
M  V30 1490 H 139.133 1.31766 3.64303 0
M  V30 1491 H 139.547 3.51744 3.89071 0
M  V30 1492 H 141.021 2.25111 5.04013 0
M  V30 1493 H 141.498 0.708631 4.33446 0
M  V30 1494 H 142.104 2.22319 3.62567 0
M  V30 1495 N 140.419 -1.14872 1.07899 0
M  V30 1496 C 141.647 -1.89661 0.82683 0
M  V30 1497 C 142.062 -1.78312 -0.620519 0
M  V30 1498 O 141.419 -1.13888 -1.42604 0
M  V30 1499 C 141.47 -3.39817 1.23316 0
M  V30 1500 O 141.191 -3.50845 2.62372 0
M  V30 1501 C 142.692 -4.31615 1.0111 0
M  V30 1502 H 139.912 -0.60092 0.298557 0
M  V30 1503 H 142.456 -1.4551 1.43691 0
M  V30 1504 H 140.611 -3.8161 0.667286 0
M  V30 1505 H 141.025 -4.44076 2.79101 0
M  V30 1506 H 142.499 -5.35367 1.34486 0
M  V30 1507 H 142.976 -4.39169 -0.0522168 0
M  V30 1508 H 143.582 -3.95572 1.56215 0
M  V30 1509 N 141.898 -0.863906 -1.31812 0
M  V30 1510 C 143.145 -0.471836 -1.96926 0
M  V30 1511 C 143.473 0.974578 -1.68322 0
M  V30 1512 O 142.728 1.7003 -0.968933 0
M  V30 1513 C 143.027 -0.668547 -3.51091 0
M  V30 1514 C 142.693 -2.08683 -3.99703 0
M  V30 1515 C 141.355 -2.47471 -4.12688 0
M  V30 1516 C 143.707 -3.01207 -4.25351 0
M  V30 1517 C 141.035 -3.78037 -4.4867 0
M  V30 1518 C 143.387 -4.31282 -4.62794 0
M  V30 1519 C 142.051 -4.69992 -4.73987 0
M  V30 1520 H 141.321 -0.172657 -0.720604 0
M  V30 1521 H 143.968 -1.09573 -1.57054 0
M  V30 1522 H 142.273 0.0385252 -3.91781 0
M  V30 1523 H 143.97 -0.345102 -3.99512 0
M  V30 1524 H 140.56 -1.77566 -3.90087 0
M  V30 1525 H 144.744 -2.72469 -4.14819 0
M  V30 1526 H 140 -4.078 -4.55532 0
M  V30 1527 H 144.174 -5.03031 -4.81594 0
M  V30 1528 H 141.801 -5.71207 -5.01624 0
M  V30 1529 N 143.376 1.44774 -0.622745 0
M  V30 1530 C 144.601 2.06999 -0.128968 0
M  V30 1531 C 145.026 1.4617 1.1839 0
M  V30 1532 O 144.384 0.560007 1.72434 0
M  V30 1533 C 144.432 3.60595 -0.0188351 0
M  V30 1534 O 143.536 3.99398 1.02739 0
M  V30 1535 H 142.877 0.659047 -0.0809544 0
M  V30 1536 H 145.407 1.85784 -0.85705 0
M  V30 1537 H 145.417 4.07627 0.174476 0
M  V30 1538 H 144.092 4.04252 -0.977384 0
M  V30 1539 H 142.669 3.64011 0.809326 0
M  V30 1540 N 144.854 0.36279 1.53368 0
M  V30 1541 C 146.1 -0.228113 2.01513 0
M  V30 1542 C 146.433 -1.48648 1.2497 0
M  V30 1543 O 145.708 -1.91459 0.342616 0
M  V30 1544 C 145.991 -0.522884 3.56284 0
M  V30 1545 C 145.844 0.74892 4.43521 0
M  V30 1546 C 147.163 -1.32461 4.19693 0
M  V30 1547 H 144.282 -0.0814343 0.732487 0
M  V30 1548 H 146.924 0.48713 1.83649 0
M  V30 1549 H 145.074 -1.1322 3.71636 0
M  V30 1550 H 146.746 1.38648 4.39971 0
M  V30 1551 H 144.989 1.36986 4.11603 0
M  V30 1552 H 145.66 0.497667 5.49752 0
M  V30 1553 H 148.136 -0.809203 4.08156 0
M  V30 1554 H 147.012 -1.49961 5.28018 0
M  V30 1555 H 147.273 -2.33232 3.75573 0
M  V30 1556 N 146.332 -1.57332 0.0918853 0
M  V30 1557 C 147.262 -2.16872 -0.865371 0
M  V30 1558 C 148.243 -1.10118 -1.29646 0
M  V30 1559 O 149.428 -1.38242 -1.36392 0
M  V30 1560 C 146.558 -2.74649 -2.12569 0
M  V30 1561 C 145.512 -3.86747 -1.83333 0
M  V30 1562 C 144.838 -4.31212 -3.16166 0
M  V30 1563 C 146.138 -5.10089 -1.1228 0
M  V30 1564 H 147.832 -2.97114 -0.369307 0
M  V30 1565 H 145.378 -1.42918 -0.176194 0
M  V30 1566 H 147.331 -3.14952 -2.7997 0
M  V30 1567 H 146.055 -1.91657 -2.64452 0
M  V30 1568 H 144.714 -3.46978 -1.18331 0
M  V30 1569 H 144.362 -3.45115 -3.6593 0
M  V30 1570 H 144.062 -5.06788 -2.97388 0
M  V30 1571 H 145.586 -4.74146 -3.84731 0
M  V30 1572 H 147 -5.47582 -1.69785 0
M  V30 1573 H 145.397 -5.91073 -1.03693 0
M  V30 1574 H 146.467 -4.84786 -0.105041 0
M  V30 1575 N 147.81 0.181792 -1.56548 0
M  V30 1576 C 148.72 1.24538 -1.98815 0
M  V30 1577 C 149.736 1.49045 -0.897861 0
M  V30 1578 O 150.912 1.61399 -1.20467 0
M  V30 1579 C 147.977 2.56683 -2.33055 0
M  V30 1580 C 147.038 2.40131 -3.55859 0
M  V30 1581 C 146.271 3.65975 -3.88456 0
M  V30 1582 O 146.494 4.70711 -3.22161 0
M  V30 1583 O 145.428 3.6071 -4.81842 0
M  V30 1584 H 149.254 0.916647 -2.89536 0
M  V30 1585 H 146.839 0.387842 -1.44278 0
M  V30 1586 H 148.721 3.34655 -2.56094 0
M  V30 1587 H 147.396 2.89157 -1.45498 0
M  V30 1588 H 146.303 1.60226 -3.38051 0
M  V30 1589 H 147.636 2.12585 -4.43924 0
M  V30 1590 N 149.288 1.51039 0.449983 0
M  V30 1591 C 150.536 1.62759 1.19808 0
M  V30 1592 C 150.857 0.339981 1.92013 0
M  V30 1593 O 150.127 -0.643606 1.85026 0
M  V30 1594 H 148.707 0.599811 0.445237 0
M  V30 1595 H 151.369 1.87914 0.517138 0
M  V30 1596 H 150.465 2.44911 1.93455 0
M  V30 1597 N 150.766 -0.704594 1.40972 0
M  V30 1598 C 151.676 -1.84856 1.44448 0
M  V30 1599 C 152.692 -1.70726 0.335961 0
M  V30 1600 O 153.868 -1.92799 0.582276 0
M  V30 1601 C 150.933 -3.20758 1.31587 0
M  V30 1602 C 149.994 -3.47063 2.52677 0
M  V30 1603 C 149.227 -4.76481 2.4042 0
M  V30 1604 O 149.45 -5.52341 1.42391 0
M  V30 1605 O 148.384 -5.03367 3.30007 0
M  V30 1606 H 152.21 -1.8488 2.40942 0
M  V30 1607 H 149.795 -0.85647 1.22413 0
M  V30 1608 H 151.677 -4.01913 1.26665 0
M  V30 1609 H 150.352 -3.21438 0.382049 0
M  V30 1610 H 149.259 -2.65873 2.63177 0
M  V30 1611 H 150.592 -3.5119 3.44858 0
M  V30 1612 N 152.244 -1.26651 -0.937939 0
M  V30 1613 C 153.191 -1.0849 -2.03712 0
M  V30 1614 C 154.161 0.011033 -1.66096 0
M  V30 1615 O 155.346 -0.149353 -1.90215 0
M  V30 1616 C 152.486 -0.72735 -3.37348 0
M  V30 1617 C 151.599 -1.89986 -3.87981 0
M  V30 1618 C 150.734 -1.48513 -5.10017 0
M  V30 1619 C 149.773 -2.62575 -5.5292 0
M  V30 1620 N 148.91 -2.21762 -6.66158 0
M  V30 1621 H 153.75 -2.02551 -2.18579 0
M  V30 1622 H 151.287 -1.00844 -1.07093 0
M  V30 1623 H 153.245 -0.50092 -4.14182 0
M  V30 1624 H 151.875 0.176298 -3.22318 0
M  V30 1625 H 150.927 -2.23913 -3.07518 0
M  V30 1626 H 152.239 -2.75586 -4.15757 0
M  V30 1627 H 151.393 -1.21934 -5.94321 0
M  V30 1628 H 150.132 -0.60009 -4.83994 0
M  V30 1629 H 149.137 -2.8988 -4.67172 0
M  V30 1630 H 150.362 -3.51685 -5.80943 0
M  V30 1631 H 148.308 -1.35696 -6.41812 0
M  V30 1632 H 148.225 -3.00903 -6.93537 0
M  V30 1633 H 149.493 -1.98403 -7.53828 0
M  V30 1634 N 153.722 1.14298 -1.08507 0
M  V30 1635 C 154.67 2.21483 -0.710483 0
M  V30 1636 C 155.664 1.66998 0.284234 0
M  V30 1637 O 156.87 1.79401 0.146692 0
M  V30 1638 H 153.245 0.721578 -0.211729 0
M  V30 1639 H 155.216 2.50348 -1.62384 0
M  V30 1640 C 153.965 3.4743 -0.137007 0
M  V30 1641 H 153.288 3.89686 -0.893592 0
M  V30 1642 H 154.728 4.2391 0.0872789 0
M  V30 1643 C 153.187 3.17548 1.12538 0
M  V30 1644 O 153.717 3.35437 2.21009 0
M  V30 1645 N 151.923 2.71499 1.03617 0
M  V30 1646 H 151.47 2.57143 0.153403 0
M  V30 1647 H 151.428 2.51881 1.88158 0
M  V30 1648 N 155.201 0.870884 1.31352 0
M  V30 1649 C 156.149 0.316445 2.30437 0
M  V30 1650 C 157.143 -0.568965 1.59559 0
M  V30 1651 O 158.349 -0.454964 1.74155 0
M  V30 1652 H 154.724 0.0836521 0.747333 0
M  V30 1653 H 156.695 1.16606 2.74673 0
M  V30 1654 C 155.444 -0.46635 3.44558 0
M  V30 1655 H 154.767 0.205687 3.99271 0
M  V30 1656 H 156.207 -0.819614 4.16003 0
M  V30 1657 C 154.666 -1.65797 2.9328 0
M  V30 1658 O 155.196 -2.75728 2.92125 0
M  V30 1659 N 153.402 -1.49041 2.4947 0
M  V30 1660 H 152.949 -0.59612 2.50608 0
M  V30 1661 H 152.907 -2.28911 2.15516 0
M  V30 1662 N 156.679 -1.44442 0.630414 0
M  V30 1663 C 157.629 -2.27794 -0.0968103 0
M  V30 1664 C 158.613 -1.38624 -0.816834 0
M  V30 1665 O 159.805 -1.62438 -0.70306 0
M  V30 1666 C 156.934 -3.25929 -1.07819 0
M  V30 1667 C 156.02 -4.22588 -0.357826 0
M  V30 1668 N 156.411 -5.0207 0.613169 0
M  V30 1669 C 154.709 -4.41914 -0.602365 0
M  V30 1670 C 155.41 -5.72351 1.03871 0
M  V30 1671 N 154.386 -5.42287 0.377642 0
M  V30 1672 H 158.188 -2.86653 0.648621 0
M  V30 1673 H 155.702 -1.55871 0.455862 0
M  V30 1674 H 157.699 -3.84399 -1.61378 0
M  V30 1675 H 156.359 -2.68631 -1.82393 0
M  V30 1676 H 157.37 -5.08331 0.990947 0
M  V30 1677 H 154.047 -3.95714 -1.33103 0
M  V30 1678 H 155.437 -6.4619 1.84086 0
M  V30 1679 N 158.157 -0.370918 -1.53173 0
M  V30 1680 C 159.573 -0.0200818 -1.59587 0
M  V30 1681 C 159.773 1.46279 -1.38581 0
M  V30 1682 O 158.829 2.22506 -1.19363 0
M  V30 1683 C 160.142 -0.4808 -2.96831 0
M  V30 1684 C 161.69 -0.435477 -3.09956 0
M  V30 1685 C 162.165 -0.872092 -4.4962 0
M  V30 1686 N 163.656 -0.827364 -4.55751 0
M  V30 1687 C 164.391 -1.13683 -5.62018 0
M  V30 1688 N 163.887 -1.51584 -6.76014 0
M  V30 1689 N 165.68 -1.05927 -5.52029 0
M  V30 1690 H 157.831 -1.33652 -1.65079 0
M  V30 1691 H 160.094 -0.546634 -0.774529 0
M  V30 1692 H 159.8 -1.51577 -3.1736 0
M  V30 1693 H 159.674 0.129796 -3.76977 0
M  V30 1694 H 162.061 0.590371 -2.89134 0
M  V30 1695 H 162.142 -1.08164 -2.31806 0
M  V30 1696 H 161.786 -1.89608 -4.71181 0
M  V30 1697 H 161.716 -0.203127 -5.26208 0
M  V30 1698 H 164.207 -0.548216 -3.73902 0
M  V30 1699 H 164.52 -1.73609 -7.53047 0
M  V30 1700 H 162.865 -1.55454 -6.77391 0
M  V30 1701 H 166.056 -0.762321 -4.61851 0
M  V30 1702 H 166.229 -1.30378 -6.34749 0
M  V30 1703 N 159.635 1.57281 -0.100228 0
M  V30 1704 C 160.598 2.13158 0.842398 0
M  V30 1705 C 161.598 1.06202 1.20738 0
M  V30 1706 O 162.788 1.32066 1.13597 0
M  V30 1707 C 159.92 2.65639 2.13655 0
M  V30 1708 H 161.113 2.97766 0.357114 0
M  V30 1709 H 158.666 1.5559 0.148823 0
M  V30 1710 H 159.401 1.84566 2.66657 0
M  V30 1711 H 159.186 3.43844 1.88451 0
M  V30 1712 H 160.676 3.08846 2.81077 0
M  V30 1713 N 161.113 -0.173488 1.56642 0
M  V30 1714 C 162.06 -1.21482 1.96242 0
M  V30 1715 C 163.03 -1.44104 0.826027 0
M  V30 1716 O 164.215 -1.5688 1.08597 0
M  V30 1717 C 161.355 -2.54964 2.32567 0
M  V30 1718 C 160.468 -2.39739 3.59373 0
M  V30 1719 C 159.603 -3.66072 3.84921 0
M  V30 1720 C 158.642 -3.45771 5.05083 0
M  V30 1721 N 157.779 -4.64169 5.26775 0
M  V30 1722 H 162.619 -0.870123 2.85014 0
M  V30 1723 H 160.156 -0.418245 1.41029 0
M  V30 1724 H 162.114 -3.32758 2.5165 0
M  V30 1725 H 160.744 -2.87433 1.46908 0
M  V30 1726 H 159.796 -1.53131 3.48217 0
M  V30 1727 H 161.108 -2.20683 4.47326 0
M  V30 1728 H 160.262 -4.52303 4.0436 0
M  V30 1729 H 159.001 -3.88105 2.9534 0
M  V30 1730 H 158.006 -2.57927 4.85545 0
M  V30 1731 H 159.231 -3.25163 5.96193 0
M  V30 1732 H 157.177 -4.86425 4.40144 0
M  V30 1733 H 157.094 -4.48019 6.08946 0
M  V30 1734 H 158.362 -5.51689 5.5069 0
M  V30 1735 N 162.591 -1.51276 -0.441967 0
M  V30 1736 C 163.868 -1.54252 -1.20273 0
M  V30 1737 C 164.248 -0.30408 -2.08898 0
M  V30 1738 O 163.596 0.711084 -2.17154 0
M  V30 1739 C 163.806 -2.85406 -2.00859 0
M  V30 1740 C 165.154 -3.37181 -2.58059 0
M  V30 1741 O 166.178 -2.86925 -2.11074 0
M  V30 1742 O 165.037 -4.24858 -3.43741 0
M  V30 1743 H 162.131 -0.619969 -0.547328 0
M  V30 1744 H 164.677 -1.63586 -0.451413 0
M  V30 1745 H 163.449 -3.67003 -1.35736 0
M  V30 1746 H 163.072 -2.79213 -2.83065 0
M  V30 1747 N 164.069 0.697108 -1.41344 0
M  V30 1748 C 164.999 1.82353 -1.45841 0
M  V30 1749 C 165.98 1.67115 -0.317247 0
M  V30 1750 O 167.165 1.86871 -0.528474 0
M  V30 1751 C 164.295 3.20476 -1.33838 0
M  V30 1752 C 163.249 3.50415 -2.4575 0
M  V30 1753 C 162.575 4.87878 -2.18813 0
M  V30 1754 C 163.875 3.49546 -3.88091 0
M  V30 1755 H 165.569 1.78846 -2.40113 0
M  V30 1756 H 163.115 0.859028 -1.15571 0
M  V30 1757 H 165.068 3.98988 -1.35596 0
M  V30 1758 H 163.792 3.24604 -0.360498 0
M  V30 1759 H 162.451 2.74253 -2.43271 0
M  V30 1760 H 162.099 4.8863 -1.19371 0
M  V30 1761 H 161.799 5.08875 -2.93803 0
M  V30 1762 H 163.323 5.68702 -2.22284 0
M  V30 1763 H 164.737 4.18066 -3.92293 0
M  V30 1764 H 163.134 3.82075 -4.62751 0
M  V30 1765 H 164.204 2.48552 -4.16353 0
M  V30 1766 N 165.547 1.27147 0.931209 0
M  V30 1767 C 166.963 1.04475 1.20653 0
M  V30 1768 C 167.163 -0.223885 2.00252 0
M  V30 1769 O 166.219 -0.930332 2.34736 0
M  V30 1770 C 167.532 2.28209 1.95809 0
M  V30 1771 C 169.08 2.33211 2.08762 0
M  V30 1772 C 169.555 3.56665 2.87323 0
M  V30 1773 N 171.046 3.57201 2.94892 0
M  V30 1774 C 171.781 4.49395 3.56134 0
M  V30 1775 N 171.277 5.51889 4.18796 0
M  V30 1776 N 173.07 4.37026 3.53504 0
M  V30 1777 H 165.221 2.08612 0.399333 0
M  V30 1778 H 167.484 0.917312 0.239253 0
M  V30 1779 H 167.19 3.20538 1.44736 0
M  V30 1780 H 167.064 2.33247 2.96438 0
M  V30 1781 H 169.451 1.41391 2.59023 0
M  V30 1782 H 169.532 2.32178 1.07364 0
M  V30 1783 H 169.176 4.4882 2.37746 0
M  V30 1784 H 169.106 3.54948 3.88998 0
M  V30 1785 H 171.597 2.83074 2.50354 0
M  V30 1786 H 171.91 6.18409 4.63454 0
M  V30 1787 H 170.255 5.55735 4.17353 0
M  V30 1788 H 173.446 3.56166 3.03749 0
M  V30 1789 H 173.619 5.09067 4.00942 0
M  V30 1790 N 167.025 -1.13721 1.09112 0
M  V30 1791 C 167.988 -2.17222 0.731241 0
M  V30 1792 C 168.988 -1.59035 -0.237566 0
M  V30 1793 O 170.178 -1.74192 -0.0161704 0
M  V30 1794 C 167.31 -3.40804 0.0808443 0
M  V30 1795 H 168.503 -2.50573 1.64783 0
M  V30 1796 H 166.056 -1.28493 0.889897 0
M  V30 1797 H 166.791 -3.1304 -0.847127 0
M  V30 1798 H 166.576 -3.84306 0.777896 0
M  V30 1799 H 168.066 -4.1731 -0.155657 0
M  V30 1800 N 168.503 -0.877838 -1.30888 0
M  V30 1801 C 169.914 -0.544193 -1.78593 0
M  V30 1802 C 170.265 0.939301 -1.72254 0
M  V30 1803 O 169.39 1.7337 -1.29505 0
M  V30 1804 C 169.985 -0.98105 -3.24285 0
M  V30 1805 C 168.544 -0.698935 -3.69854 0
M  V30 1806 C 167.691 -1.168 -2.51502 0
M  V30 1807 H 170.642 -1.06278 -1.17859 0
M  V30 1808 H 170.663 -0.307009 -3.79259 0
M  V30 1809 H 170.175 -2.06079 -3.28866 0
M  V30 1810 H 168.276 0.369112 -3.70767 0
M  V30 1811 H 168.389 -1.28148 -4.61644 0
M  V30 1812 H 166.753 -0.587535 -2.47831 0
M  V30 1813 H 167.536 -2.25533 -2.58824 0
M  V30 1814 N 169.982 1.44106 -0.638065 0
M  V30 1815 C 171.393 1.85316 -0.226894 0
M  V30 1816 C 171.744 1.53399 1.22324 0
M  V30 1817 O 170.869 0.975463 1.93167 0
M  V30 1818 C 171.464 3.3637 -0.405013 0
M  V30 1819 C 170.023 3.76369 -0.0482902 0
M  V30 1820 C 169.17 2.67921 -0.715108 0
M  V30 1821 H 172.121 1.34474 -0.842764 0
M  V30 1822 H 172.142 3.7885 0.354 0
M  V30 1823 H 171.654 3.59569 -1.46053 0
M  V30 1824 H 169.755 3.58784 1.00522 0
M  V30 1825 H 169.868 4.76856 -0.463187 0
M  V30 1826 H 168.232 2.54259 -0.149753 0
M  V30 1827 H 169.015 2.93951 -1.77335 0
M  V30 1828 N 171.46 0.379036 1.52974 0
M  V30 1829 C 172.37 -0.468639 2.29872 0
M  V30 1830 C 173.386 -1.08067 1.36373 0
M  V30 1831 O 174.562 -1.08871 1.69438 0
M  V30 1832 C 171.627 -1.58594 3.083 0
M  V30 1833 C 170.688 -1.00007 4.17489 0
M  V30 1834 C 169.921 -2.06413 4.92168 0
M  V30 1835 O 170.144 -3.27751 4.66835 0
M  V30 1836 O 169.078 -1.68717 5.7777 0
M  V30 1837 H 172.904 0.157508 3.03291 0
M  V30 1838 H 170.489 0.143035 1.48714 0
M  V30 1839 H 172.371 -2.23525 3.57232 0
M  V30 1840 H 171.046 -2.19724 2.37703 0
M  V30 1841 H 169.953 -0.314299 3.72777 0
M  V30 1842 H 171.286 -0.433135 4.90291 0
M  V30 1843 N 172.938 -1.57226 0.108567 0
M  V30 1844 C 173.87 -2.11809 -0.875752 0
M  V30 1845 C 174.883 -1.05839 -1.23701 0
M  V30 1846 O 176.072 -1.33245 -1.18778 0
M  V30 1847 C 173.172 -2.59411 -2.18081 0
M  V30 1848 C 172.345 -3.89364 -1.99284 0
M  V30 1849 C 171.404 -4.22672 -3.13424 0
M  V30 1850 O 170.43 -4.91668 -2.86795 0
M  V30 1851 N 171.632 -3.79154 -4.3957 0
M  V30 1852 H 174.397 -2.9689 -0.409477 0
M  V30 1853 H 171.958 -1.61721 -0.076158 0
M  V30 1854 H 173.95 -2.7873 -2.93414 0
M  V30 1855 H 172.52 -1.79268 -2.5609 0
M  V30 1856 H 171.74 -3.79059 -1.08203 0
M  V30 1857 H 173.028 -4.74358 -1.84017 0
M  V30 1858 H 172.426 -3.23486 -4.64083 0
M  V30 1859 H 170.983 -4.03602 -5.11809 0
M  V30 1860 N 174.416 0.165178 -1.56732 0
M  V30 1861 C 175.664 0.879068 -1.8198 0
M  V30 1862 C 175.985 1.82514 -0.686561 0
M  V30 1863 O 175.255 1.93694 0.293146 0
M  V30 1864 H 173.835 0.327608 -0.671329 0
M  V30 1865 H 176.497 0.163526 -1.94213 0
M  V30 1866 H 175.593 1.45228 -2.76252 0
M  V30 1867 N 175.894 1.51508 0.433938 0
M  V30 1868 C 176.841 1.73068 1.52696 0
M  V30 1869 C 177.811 0.572441 1.55924 0
M  V30 1870 O 178.996 0.807253 1.72882 0
M  V30 1871 C 176.136 1.86474 2.90381 0
M  V30 1872 C 175.249 3.14037 2.96656 0
M  V30 1873 C 174.384 3.18019 4.25485 0
M  V30 1874 C 173.423 4.39882 4.2564 0
M  V30 1875 N 172.56 4.41394 5.45999 0
M  V30 1876 H 177.4 2.66366 1.33615 0
M  V30 1877 H 174.937 1.32008 0.649018 0
M  V30 1878 H 176.895 1.92229 3.70275 0
M  V30 1879 H 175.525 0.965809 3.08013 0
M  V30 1880 H 174.577 3.17575 2.09404 0
M  V30 1881 H 175.889 4.0394 2.92633 0
M  V30 1882 H 175.043 3.22708 5.13755 0
M  V30 1883 H 173.782 2.2601 4.3217 0
M  V30 1884 H 172.787 4.35366 3.35763 0
M  V30 1885 H 174.012 5.33159 4.20617 0
M  V30 1886 H 171.958 3.52258 5.53399 0
M  V30 1887 H 171.875 5.25111 5.4387 0
M  V30 1888 H 173.143 4.50281 6.36292 0
M  V30 1889 N 177.372 -0.689602 1.41712 0
M  V30 1890 C 178.621 -1.44534 1.40686 0
M  V30 1891 C 178.934 -1.95588 0.0213352 0
M  V30 1892 O 180.14 -2.71271 -0.111534 0
M  V30 1893 C 178.596 -2.61387 2.47396 0
M  V30 1894 C 178.204 -2.17094 3.91885 0
M  V30 1895 C 179.948 -3.38986 2.55517 0
M  V30 1896 C 177.855 -3.3094 4.90135 0
M  V30 1897 H 176.785 -0.542925 0.52321 0
M  V30 1898 H 179.436 -0.748054 1.6756 0
M  V30 1899 H 177.818 -3.33412 2.13664 0
M  V30 1900 H 178.992 -1.52318 4.34897 0
M  V30 1901 H 177.307 -1.52473 3.8748 0
M  V30 1902 H 179.904 -4.23747 3.26102 0
M  V30 1903 H 180.247 -3.84578 1.59391 0
M  V30 1904 H 180.78 -2.74021 2.8837 0
M  V30 1905 H 177.519 -2.90355 5.87685 0
M  V30 1906 H 177.039 -3.94546 4.51767 0
M  V30 1907 H 178.718 -3.9663 5.11169 0
M  V30 1908 N 178.85 -1.27639 -0.924453 0
M  V30 1909 C 180.097 -1.14167 -1.67249 0
M  V30 1910 C 180.425 0.311863 -1.91984 0
M  V30 1911 O 179.68 1.24425 -1.51053 0
M  V30 1912 C 179.979 -1.87407 -3.04325 0
M  V30 1913 C 179.645 -3.37249 -2.99289 0
M  V30 1914 C 178.307 -3.7812 -2.97622 0
M  V30 1915 C 180.659 -4.32845 -2.90336 0
M  V30 1916 C 177.987 -5.12944 -2.8479 0
M  V30 1917 C 180.339 -5.6773 -2.79045 0
M  V30 1918 C 179.003 -6.07889 -2.7573 0
M  V30 1919 H 178.273 -0.417766 -0.612007 0
M  V30 1920 H 180.92 -1.58286 -1.07786 0
M  V30 1921 H 179.225 -1.35805 -3.67511 0
M  V30 1922 H 180.922 -1.74408 -3.61086 0
M  V30 1923 H 177.512 -3.04748 -3.01374 0
M  V30 1924 H 181.696 -4.02239 -2.90719 0
M  V30 1925 H 176.952 -5.432 -2.80612 0
M  V30 1926 H 181.126 -6.41472 -2.71083 0
M  V30 1927 H 178.753 -7.12314 -2.65544 0
M  V30 1928 N 180.328 1.1314 -1.09713 0
M  V30 1929 C 181.577 1.83838 -0.829851 0
M  V30 1930 C 181.89 1.84599 0.646728 0
M  V30 1931 O 183.096 2.51218 1.02965 0
M  V30 1932 C 181.552 3.30069 -1.43466 0
M  V30 1933 C 181.16 3.37688 -2.94399 0
M  V30 1934 C 182.904 4.05788 -1.24645 0
M  V30 1935 C 180.811 4.78209 -3.47952 0
M  V30 1936 H 179.741 0.68877 -0.306777 0
M  V30 1937 H 182.392 1.27448 -1.3202 0
M  V30 1938 H 180.774 3.8628 -0.871996 0
M  V30 1939 H 181.948 2.91456 -3.56918 0
M  V30 1940 H 180.263 2.75436 -3.12289 0
M  V30 1941 H 182.86 5.09535 -1.62107 0
M  V30 1942 H 183.203 4.15878 -0.187357 0
M  V30 1943 H 183.736 3.55915 -1.77678 0
M  V30 1944 H 180.475 4.73311 -4.53495 0
M  V30 1945 H 179.995 5.24924 -2.90198 0
M  V30 1946 H 181.674 5.47133 -3.45332 0
M  V30 1947 N 181.806 0.884767 1.30421 0
M  V30 1948 C 182.769 0.356277 2.26414 0
M  V30 1949 C 183.769 -0.501124 1.52792 0
M  V30 1950 O 184.959 -0.30831 1.7145 0
M  V30 1951 C 182.091 -0.492316 3.37326 0
M  V30 1952 H 183.284 1.20389 2.74675 0
M  V30 1953 H 180.837 0.661607 1.41607 0
M  V30 1954 H 181.572 -1.36052 2.94381 0
M  V30 1955 H 181.357 0.121832 3.91911 0
M  V30 1956 H 182.847 -0.853871 4.08777 0
M  V30 1957 N 183.284 -1.43765 0.645699 0
M  V30 1958 C 184.7 -1.56509 0.312591 0
M  V30 1959 C 184.9 -1.6307 -1.18365 0
M  V30 1960 O 183.956 -1.58167 -1.96824 0
M  V30 1961 C 185.269 -2.82968 1.01733 0
M  V30 1962 C 186.817 -2.96701 0.996865 0
M  V30 1963 C 187.292 -4.25982 1.68236 0
M  V30 1964 N 188.783 -4.32829 1.64964 0
M  V30 1965 C 189.518 -5.31613 2.14885 0
M  V30 1966 N 189.014 -6.36718 2.73061 0
M  V30 1967 N 190.807 -5.23217 2.05428 0
M  V30 1968 H 182.958 -1.3775 1.61675 0
M  V30 1969 H 185.221 -0.661067 0.679481 0
M  V30 1970 H 184.927 -2.84156 2.0724 0
M  V30 1971 H 184.801 -3.72957 0.564177 0
M  V30 1972 H 187.188 -2.95058 -0.0497719 0
M  V30 1973 H 187.269 -2.08022 1.48865 0
M  V30 1974 H 186.913 -4.28386 2.72852 0
M  V30 1975 H 186.843 -5.13545 1.16529 0
M  V30 1976 H 189.334 -3.57493 1.22503 0
M  V30 1977 H 189.647 -7.08401 3.08848 0
M  V30 1978 H 187.992 -6.37362 2.77118 0
M  V30 1979 H 191.183 -4.40019 1.59689 0
M  V30 1980 H 191.356 -6.00045 2.44643 0
M  V30 1981 N 184.763 -0.387143 -1.52771 0
M  V30 1982 C 186.179 -0.037007 -1.59557 0
M  V30 1983 C 186.379 1.44801 -1.40124 0
M  V30 1984 O 185.435 2.21227 -1.21716 0
M  V30 1985 C 186.748 -0.512256 -2.96305 0
M  V30 1986 C 188.296 -0.468328 -3.09476 0
M  V30 1987 C 188.771 -0.919731 -4.4867 0
M  V30 1988 N 190.262 -0.875656 -4.54848 0
M  V30 1989 C 190.997 -1.19637 -5.6078 0
M  V30 1990 N 190.493 -1.58745 -6.74368 0
M  V30 1991 N 192.286 -1.11776 -5.50874 0
M  V30 1992 H 184.437 -1.35395 -1.63652 0
M  V30 1993 H 186.7 -0.554818 -0.768688 0
M  V30 1994 H 186.406 -1.54935 -3.15734 0
M  V30 1995 H 186.28 0.089805 -3.77093 0
M  V30 1996 H 188.667 0.559671 -2.89744 0
M  V30 1997 H 188.748 -1.10616 -2.30646 0
M  V30 1998 H 188.392 -1.94595 -4.69143 0
M  V30 1999 H 188.322 -0.258927 -5.25963 0
M  V30 2000 H 190.813 -0.587843 -3.733 0
M  V30 2001 H 191.126 -1.81586 -7.51163 0
M  V30 2002 H 189.471 -1.6263 -6.75705 0
M  V30 2003 H 192.662 -0.811264 -4.61016 0
M  V30 2004 H 192.835 -1.37103 -6.3333 0
M  V30 2005 N 186.241 1.57166 -0.116904 0
M  V30 2006 C 187.466 1.999 0.55271 0
M  V30 2007 C 187.891 0.996039 1.59564 0
M  V30 2008 O 187.249 -0.032556 1.81271 0
M  V30 2009 C 187.297 3.4152 1.15742 0
M  V30 2010 O 186.401 3.44106 2.27299 0
M  V30 2011 H 185.742 0.649447 0.138258 0
M  V30 2012 H 188.272 2.03573 -0.204759 0
M  V30 2013 H 188.282 3.79684 1.49346 0
M  V30 2014 H 186.957 4.14034 0.393493 0
M  V30 2015 H 185.534 3.17759 1.9515 0
M  V30 2016 N 187.719 -0.156864 1.56817 0
M  V30 2017 C 188.649 -1.19589 2.00551 0
M  V30 2018 C 189.63 -1.4536 0.883426 0
M  V30 2019 O 190.815 -1.56449 1.15054 0
M  V30 2020 C 187.945 -2.53143 2.37773 0
M  V30 2021 C 186.899 -2.41913 3.53075 0
M  V30 2022 C 186.225 -3.80088 3.76081 0
M  V30 2023 C 187.525 -1.91157 4.86062 0
M  V30 2024 H 189.219 -0.832293 2.87599 0
M  V30 2025 H 186.765 -0.398918 1.38364 0
M  V30 2026 H 188.718 -3.26047 2.66967 0
M  V30 2027 H 187.442 -2.91319 1.4765 0
M  V30 2028 H 186.101 -1.71462 3.24031 0
M  V30 2029 H 185.749 -4.15683 2.83225 0
M  V30 2030 H 185.449 -3.73439 4.53671 0
M  V30 2031 H 186.973 -4.54556 4.0769 0
M  V30 2032 H 188.387 -2.53846 5.14038 0
M  V30 2033 H 186.784 -1.95422 5.67389 0
M  V30 2034 H 187.854 -0.866673 4.77092 0
M  V30 2035 N 189.197 -1.51736 -0.425897 0
M  V30 2036 C 190.127 -1.76827 -1.52494 0
M  V30 2037 C 191.108 -0.618524 -1.58456 0
M  V30 2038 O 192.293 -0.862416 -1.74 0
M  V30 2039 C 189.423 -1.90374 -2.90474 0
M  V30 2040 C 188.377 -3.0588 -2.99369 0
M  V30 2041 C 187.703 -3.04625 -4.3944 0
M  V30 2042 C 189.003 -4.45644 -2.72394 0
M  V30 2043 H 190.697 -2.68855 -1.31748 0
M  V30 2044 H 188.243 -1.29372 -0.632362 0
M  V30 2045 H 190.196 -2.0651 -3.6733 0
M  V30 2046 H 188.92 -0.95004 -3.12477 0
M  V30 2047 H 187.579 -2.89467 -2.24954 0
M  V30 2048 H 187.227 -2.0701 -4.58428 0
M  V30 2049 H 186.927 -3.82195 -4.46319 0
M  V30 2050 H 188.451 -3.22869 -5.18255 0
M  V30 2051 H 189.865 -4.62348 -3.38979 0
M  V30 2052 H 188.262 -5.25006 -2.9067 0
M  V30 2053 H 189.332 -4.54893 -1.67929 0
M  V30 2054 N 190.675 0.682077 -1.42076 0
M  V30 2055 C 191.952 1.43755 -1.32642 0
M  V30 2056 C 192.332 2.11063 0.0396611 0
M  V30 2057 O 191.68 2.02701 1.05474 0
M  V30 2058 C 191.89 2.44596 -2.48946 0
M  V30 2059 C 193.238 3.09454 -2.9073 0
M  V30 2060 O 194.262 2.54922 -2.48783 0
M  V30 2061 O 193.121 4.08253 -3.63307 0
M  V30 2062 H 190.215 0.640857 -0.522715 0
M  V30 2063 H 192.761 0.711415 -1.54068 0
M  V30 2064 H 191.533 1.93609 -3.40046 0
M  V30 2065 H 191.156 3.24701 -2.29467 0
M  V30 2066 N 192.153 1.28127 0.917671 0
M  V30 2067 C 193.063 1.13556 2.05286 0
M  V30 2068 C 194.079 0.0630914 1.73886 0
M  V30 2069 O 195.255 0.271598 1.9956 0
M  V30 2070 C 192.32 0.794676 3.3747 0
M  V30 2071 C 191.381 1.94909 3.82504 0
M  V30 2072 C 190.614 1.62437 5.0838 0
M  V30 2073 O 190.837 0.536905 5.67867 0
M  V30 2074 O 189.771 2.46677 5.4903 0
M  V30 2075 H 193.597 2.08844 2.20495 0
M  V30 2076 H 191.182 1.07409 1.03845 0
M  V30 2077 H 193.064 0.618344 4.16839 0
M  V30 2078 H 191.739 -0.128581 3.23445 0
M  V30 2079 H 190.646 2.18055 3.03978 0
M  V30 2080 H 191.979 2.85291 4.01086 0
M  V30 2081 N 193.631 -1.12557 1.10312 0
M  V30 2082 C 194.561 -2.20341 0.772798 0
M  V30 2083 C 195.542 -1.68198 -0.25365 0
M  V30 2084 O 196.727 -1.93831 -0.119699 0
M  V30 2085 C 193.857 -3.46709 0.202443 0
M  V30 2086 C 192.811 -4.11996 1.15943 0
M  V30 2087 C 192.137 -5.328 0.450345 0
M  V30 2088 C 193.437 -4.5828 2.50552 0
M  V30 2089 H 195.131 -2.48229 1.674 0
M  V30 2090 H 192.677 -1.19308 0.806326 0
M  V30 2091 H 194.63 -4.2138 -0.0407752 0
M  V30 2092 H 193.354 -3.18245 -0.734001 0
M  V30 2093 H 192.013 -3.39305 1.38808 0
M  V30 2094 H 191.661 -5.00602 -0.490531 0
M  V30 2095 H 191.361 -5.7743 1.08851 0
M  V30 2096 H 192.885 -6.10219 0.215642 0
M  V30 2097 H 194.299 -5.2433 2.31843 0
M  V30 2098 H 192.696 -5.13683 3.10242 0
M  V30 2099 H 193.766 -3.72329 3.10643 0
M  V30 2100 N 195.109 -0.891671 -1.2995 0
M  V30 2101 C 196.039 -0.379797 -2.30391 0
M  V30 2102 C 197.02 0.540919 -1.6127 0
M  V30 2103 O 198.205 0.453352 -1.88834 0
M  V30 2104 C 195.335 0.400654 -3.44981 0
M  V30 2105 C 194.289 -0.428905 -4.25846 0
M  V30 2106 C 193.615 0.478557 -5.32554 0
M  V30 2107 C 194.915 -1.67458 -4.94727 0
M  V30 2108 H 196.609 -1.21914 -2.73454 0
M  V30 2109 H 194.155 -0.587675 -1.31462 0
M  V30 2110 H 196.108 0.769434 -4.14316 0
M  V30 2111 H 194.832 1.27371 -3.0074 0
M  V30 2112 H 193.491 -0.779911 -3.58208 0
M  V30 2113 H 193.139 1.34951 -4.84559 0
M  V30 2114 H 192.839 -0.0727433 -5.87555 0
M  V30 2115 H 194.363 0.843705 -6.04743 0
M  V30 2116 H 195.777 -1.376 -5.56542 0
M  V30 2117 H 194.174 -2.16659 -5.59624 0
M  V30 2118 H 195.244 -2.41518 -4.20473 0
M  V30 2119 N 196.587 1.43421 -0.653314 0
M  V30 2120 C 197.497 2.34568 0.0388565 0
M  V30 2121 C 198.513 1.53888 0.81207 0
M  V30 2122 O 199.689 1.86539 0.759294 0
M  V30 2123 C 196.754 3.32167 0.993269 0
M  V30 2124 C 195.815 4.28751 0.216977 0
M  V30 2125 C 195.048 5.21688 1.12593 0
M  V30 2126 O 195.271 5.19052 2.36519 0
M  V30 2127 O 194.205 5.98919 0.598284 0
M  V30 2128 H 198.031 2.95251 -0.711386 0
M  V30 2129 H 195.616 1.43564 -0.413502 0
M  V30 2130 H 197.498 3.92183 1.54176 0
M  V30 2131 H 196.173 2.73987 1.72374 0
M  V30 2132 H 195.08 3.72215 -0.375101 0
M  V30 2133 H 196.413 4.89913 -0.473924 0
M  V30 2134 N 198.065 0.39524 1.52563 0
M  V30 2135 C 199.311 -0.185318 2.01952 0
M  V30 2136 C 199.644 -1.45964 1.28095 0
M  V30 2137 O 198.919 -1.90689 0.38315 0
M  V30 2138 C 199.202 -0.447193 3.57312 0
M  V30 2139 C 199.055 0.842828 4.41833 0
M  V30 2140 C 200.374 -1.23529 4.22408 0
M  V30 2141 H 197.493 -0.0658788 0.73405 0
M  V30 2142 H 200.135 0.525975 1.82575 0
M  V30 2143 H 198.285 -1.05312 3.73954 0
M  V30 2144 H 199.957 1.4795 4.36931 0
M  V30 2145 H 198.2 1.45686 4.08605 0
M  V30 2146 H 198.871 0.614165 5.48573 0
M  V30 2147 H 201.347 -0.722445 4.0978 0
M  V30 2148 H 200.223 -1.38727 5.3108 0
M  V30 2149 H 200.484 -2.25213 3.80436 0
M  V30 2150 N 199.544 -1.57102 0.125237 0
M  V30 2151 C 200.821 -1.86953 -0.575142 0
M  V30 2152 C 201.201 -1.02749 -1.84407 0
M  V30 2153 O 200.549 -0.108144 -2.28244 0
M  V30 2154 C 200.759 -3.38198 -0.861583 0
M  V30 2155 C 202.107 -4.06937 -1.21192 0
M  V30 2156 O 203.131 -3.43252 -0.951645 0
M  V30 2157 O 201.99 -5.19364 -1.70068 0
M  V30 2158 H 199.084 -0.774147 -0.290906 0
M  V30 2159 H 201.63 -1.68942 0.160211 0
M  V30 2160 H 200.402 -3.91282 0.0373647 0
M  V30 2161 H 200.025 -3.61661 -1.65188 0
M  V30 2162 N 201.022 0.148545 -1.56898 0
M  V30 2163 C 201.972 1.1886 -1.94567 0
M  V30 2164 C 202.956 1.3863 -0.816735 0
M  V30 2165 O 204.148 1.40218 -1.08018 0
M  V30 2166 C 201.277 2.52262 -2.32849 0
M  V30 2167 C 200.363 2.36092 -3.52309 0
M  V30 2168 N 200.754 1.89674 -4.6889 0
M  V30 2169 C 199.052 2.66848 -3.57363 0
M  V30 2170 C 199.753 1.86511 -5.50989 0
M  V30 2171 N 198.729 2.29766 -4.92655 0
M  V30 2172 H 202.531 0.821793 -2.82177 0
M  V30 2173 H 200.045 0.356615 -1.58436 0
M  V30 2174 H 202.042 3.27447 -2.58039 0
M  V30 2175 H 200.702 2.89727 -1.46589 0
M  V30 2176 H 201.713 1.59663 -4.92674 0
M  V30 2177 H 198.39 3.08198 -2.81639 0
M  V30 2178 H 199.78 1.52128 -6.54452 0
M  V30 2179 N 202.5 1.5196 0.417844 0
M  V30 2180 C 203.749 1.6482 1.16264 0
M  V30 2181 C 204.062 0.379886 1.91876 0
M  V30 2182 O 205.268 0.388154 2.68711 0
M  V30 2183 C 203.724 2.91161 2.1155 0
M  V30 2184 C 203.332 4.25068 1.41495 0
M  V30 2185 C 205.076 3.13383 2.86341 0
M  V30 2186 C 202.983 5.42541 2.35379 0
M  V30 2187 H 201.913 0.613954 0.437694 0
M  V30 2188 H 204.564 1.78442 0.427871 0
M  V30 2189 H 202.946 2.71218 2.88543 0
M  V30 2190 H 204.12 4.55463 0.699263 0
M  V30 2191 H 202.435 4.0888 0.787792 0
M  V30 2192 H 205.032 3.98324 3.5671 0
M  V30 2193 H 205.375 2.27256 3.48798 0
M  V30 2194 H 205.908 3.33757 2.1645 0
M  V30 2195 H 202.647 6.30987 1.77582 0
M  V30 2196 H 202.167 5.16497 3.04945 0
M  V30 2197 H 203.846 5.75272 2.96093 0
M  V30 2198 N 203.978 -0.674533 1.42435 0
M  V30 2199 C 205.394 -0.98769 1.25367 0
M  V30 2200 C 205.594 -2.00879 0.158044 0
M  V30 2201 O 204.65 -2.48075 -0.470633 0
M  V30 2202 C 205.963 -1.49224 2.6106 0
M  V30 2203 C 207.511 -1.61 2.68417 0
M  V30 2204 C 207.986 -2.14852 4.04478 0
M  V30 2205 N 209.477 -2.22185 4.06434 0
M  V30 2206 C 210.212 -2.64928 5.08528 0
M  V30 2207 N 209.708 -3.07121 6.21006 0
M  V30 2208 N 211.501 -2.64679 4.95885 0
M  V30 2209 H 203.652 0.00152503 2.124 0
M  V30 2210 H 205.915 -0.0618434 0.945981 0
M  V30 2211 H 205.621 -0.816453 3.42092 0
M  V30 2212 H 205.495 -2.47094 2.84999 0
M  V30 2213 H 207.882 -2.27686 1.87732 0
M  V30 2214 H 207.963 -0.616195 2.48267 0
M  V30 2215 H 207.607 -1.48775 4.85622 0
M  V30 2216 H 207.537 -3.15024 4.2198 0
M  V30 2217 H 210.028 -1.92435 3.25234 0
M  V30 2218 H 210.341 -3.38423 6.94759 0
M  V30 2219 H 208.686 -3.04978 6.24511 0
M  V30 2220 H 211.877 -2.31078 4.07088 0
M  V30 2221 H 212.05 -2.9767 5.75584 0
M  V30 2222 N 205.456 -1.28612 -0.910864 0
M  V30 2223 C 206.684 -1.18792 -1.69399 0
M  V30 2224 C 207.099 0.253039 -1.87097 0
M  V30 2225 O 206.456 1.17071 -1.40003 0
M  V30 2226 C 206.507 -1.88511 -3.08457 0
M  V30 2227 O 206.228 -3.26979 -2.91576 0
M  V30 2228 C 207.729 -1.85029 -4.02839 0
M  V30 2229 H 204.949 -0.412233 -0.529438 0
M  V30 2230 H 207.493 -1.69788 -1.13984 0
M  V30 2231 H 205.648 -1.41379 -3.60681 0
M  V30 2232 H 206.062 -3.61936 -3.79608 0
M  V30 2233 H 207.536 -2.38395 -4.97867 0
M  V30 2234 H 208.013 -0.823303 -4.31414 0
M  V30 2235 H 208.619 -2.31853 -3.56545 0
M  V30 2236 N 206.934 1.1197 -1.10907 0
M  V30 2237 C 208.183 1.82947 -0.849302 0
M  V30 2238 C 208.496 1.85275 0.627112 0
M  V30 2239 O 209.702 2.52296 1.00295 0
M  V30 2240 C 208.158 3.28529 -1.46959 0
M  V30 2241 C 207.766 3.34546 -2.97965 0
M  V30 2242 C 209.51 4.04443 -1.28942 0
M  V30 2243 C 207.417 4.74491 -3.53004 0
M  V30 2244 H 206.347 0.685477 -0.314065 0
M  V30 2245 H 208.998 1.2604 -1.33365 0
M  V30 2246 H 207.38 3.85333 -0.912917 0
M  V30 2247 H 208.554 2.87654 -3.59989 0
M  V30 2248 H 206.869 2.72108 -3.15192 0
M  V30 2249 H 209.466 5.07787 -1.67502 0
M  V30 2250 H 209.809 4.15656 -0.231456 0
M  V30 2251 H 210.342 3.5401 -1.81443 0
M  V30 2252 H 207.081 4.68474 -4.58489 0
M  V30 2253 H 206.601 5.21816 -2.9575 0
M  V30 2254 H 208.28 5.4344 -3.51115 0
M  V30 2255 N 208.412 0.89855 1.29475 0
M  V30 2256 C 209.642 0.538479 1.99459 0
M  V30 2257 C 210.05 -0.880922 1.67441 0
M  V30 2258 O 209.393 -1.59283 0.915127 0
M  V30 2259 C 209.455 0.649564 3.53583 0
M  V30 2260 C 209.119 2.03573 4.09154 0
M  V30 2261 C 210.116 3.00675 4.24135 0
M  V30 2262 C 207.801 2.3448 4.44212 0
M  V30 2263 C 209.795 4.26809 4.73405 0
M  V30 2264 C 207.482 3.60857 4.93179 0
M  V30 2265 C 208.48 4.56836 5.0773 0
M  V30 2266 O 208.168 5.80969 5.55635 0
M  V30 2267 H 207.9 0.205372 0.644048 0
M  V30 2268 H 210.454 1.20958 1.66007 0
M  V30 2269 H 208.684 -0.0785592 3.8662 0
M  V30 2270 H 210.373 0.29881 4.04799 0
M  V30 2271 H 211.139 2.78112 3.97339 0
M  V30 2272 H 207.018 1.60534 4.32145 0
M  V30 2273 H 210.562 5.0173 4.84678 0
M  V30 2274 H 206.459 3.83251 5.19412 0
M  V30 2275 H 207.227 5.83542 5.73952 0
M  V30 2276 N 209.89 -1.43072 0.660911 0
M  V30 2277 C 210.84 -2.27948 -0.04847 0
M  V30 2278 C 211.824 -1.40325 -0.787246 0
M  V30 2279 O 213.016 -1.63893 -0.668446 0
M  V30 2280 C 210.145 -3.28143 -1.00881 0
M  V30 2281 C 209.231 -4.23252 -0.268108 0
M  V30 2282 N 209.622 -5.00656 0.719528 0
M  V30 2283 C 207.92 -4.43092 -0.508493 0
M  V30 2284 C 208.621 -5.70019 1.15988 0
M  V30 2285 N 207.597 -5.41364 0.492584 0
M  V30 2286 H 211.399 -2.85213 0.709279 0
M  V30 2287 H 208.913 -1.54869 0.488822 0
M  V30 2288 H 210.91 -3.87736 -1.53188 0
M  V30 2289 H 209.57 -2.7244 -1.76654 0
M  V30 2290 H 210.581 -5.06115 1.09855 0
M  V30 2291 H 207.258 -3.98449 -1.24679 0
M  V30 2292 H 208.648 -6.4214 1.97751 0
M  V30 2293 N 211.368 -0.403325 -1.52352 0
M  V30 2294 C 212.301 0.469463 -2.23319 0
M  V30 2295 C 213.279 1.05272 -1.23922 0
M  V30 2296 O 214.463 1.10169 -1.52954 0
M  V30 2297 C 211.59 1.6511 -2.9573 0
M  V30 2298 C 210.636 1.19178 -4.0951 0
M  V30 2299 S 211.469 0.161718 -5.35256 0
M  V30 2300 C 212.625 1.34882 -6.11194 0
M  V30 2301 H 212.858 -0.133134 -2.97002 0
M  V30 2302 H 210.391 -0.187588 -1.53256 0
M  V30 2303 H 212.349 2.3287 -3.38056 0
M  V30 2304 H 211.01 2.22503 -2.21701 0
M  V30 2305 H 210.203 2.07444 -4.59329 0
M  V30 2306 H 209.805 0.592911 -3.6927 0
M  V30 2307 H 212.097 2.27345 -6.38217 0
M  V30 2308 H 213.04 0.89128 -7.02468 0
M  V30 2309 H 213.448 1.57198 -5.42171 0
M  V30 2310 N 212.846 1.57033 -0.133567 0
M  V30 2311 C 214.093 1.95686 0.520877 0
M  V30 2312 C 214.421 1.0177 1.6575 0
M  V30 2313 O 213.676 0.0443195 1.9565 0
M  V30 2314 C 213.975 3.40674 1.08057 0
M  V30 2315 C 213.641 4.50855 0.0637899 0
M  V30 2316 C 212.303 4.80716 -0.215757 0
M  V30 2317 C 214.655 5.17398 -0.62835 0
M  V30 2318 C 211.983 5.74433 -1.19348 0
M  V30 2319 C 214.335 6.12167 -1.5948 0
M  V30 2320 C 212.999 6.40414 -1.88218 0
M  V30 2321 H 212.269 0.716067 0.190602 0
M  V30 2322 H 214.916 1.9026 -0.217556 0
M  V30 2323 H 213.221 3.42865 1.89606 0
M  V30 2324 H 214.918 3.67902 1.59529 0
M  V30 2325 H 211.508 4.27605 0.291855 0
M  V30 2326 H 215.692 4.94472 -0.425562 0
M  V30 2327 H 210.948 5.94616 -1.42272 0
M  V30 2328 H 215.122 6.6281 -2.13671 0
M  V30 2329 H 212.749 7.12838 -2.64133 0
M  V30 2330 N 214.325 -0.140222 1.56975 0
M  V30 2331 C 215.574 -0.850152 1.82908 0
M  V30 2332 C 215.887 -1.82028 0.715892 0
M  V30 2333 O 217.093 -2.57485 0.861016 0
M  V30 2334 C 215.549 -1.5625 3.24213 0
M  V30 2335 C 215.157 -0.63443 4.43485 0
M  V30 2336 C 216.901 -2.25881 3.59413 0
M  V30 2337 C 214.808 -1.34879 5.75814 0
M  V30 2338 H 213.738 -0.321221 0.682153 0
M  V30 2339 H 216.389 -0.102874 1.83211 0
M  V30 2340 H 214.771 -2.35565 3.18316 0
M  V30 2341 H 215.945 0.12398 4.60633 0
M  V30 2342 H 214.26 -0.0461836 4.16374 0
M  V30 2343 H 216.857 -2.79978 4.5554 0
M  V30 2344 H 217.2 -3.02693 2.85802 0
M  V30 2345 H 217.733 -1.53477 3.67001 0
M  V30 2346 H 214.472 -0.622385 6.52539 0
M  V30 2347 H 213.992 -2.07974 5.6259 0
M  V30 2348 H 215.671 -1.88784 6.18845 0
M  V30 2349 N 215.803 -1.52179 -0.40978 0
M  V30 2350 C 216.766 -1.74853 -1.48186 0
M  V30 2351 C 217.766 -0.618417 -1.48433 0
M  V30 2352 O 218.956 -0.886286 -1.49969 0
M  V30 2353 C 216.088 -1.8303 -2.87598 0
M  V30 2354 H 217.281 -2.70559 -1.29374 0
M  V30 2355 H 214.834 -1.42586 -0.640233 0
M  V30 2356 H 215.569 -0.89236 -3.11781 0
M  V30 2357 H 215.354 -2.65187 -2.88822 0
M  V30 2358 H 216.844 -2.02316 -3.65319 0
M  V30 2359 N 217.281 0.66697 -1.42791 0
M  V30 2360 C 218.211 1.79218 -1.49677 0
M  V30 2361 C 219.192 1.66405 -0.352623 0
M  V30 2362 O 220.377 1.85708 -0.567993 0
M  V30 2363 C 217.507 3.17565 -1.40605 0
M  V30 2364 C 216.461 3.45124 -2.53127 0
M  V30 2365 C 215.787 4.83127 -2.29112 0
M  V30 2366 C 217.087 3.41236 -3.95418 0
M  V30 2367 H 218.781 1.73713 -2.43853 0
M  V30 2368 H 216.327 0.83432 -1.17367 0
M  V30 2369 H 218.28 3.96022 -1.44029 0
M  V30 2370 H 217.004 3.23767 -0.429271 0
M  V30 2371 H 215.663 2.69031 -2.49034 0
M  V30 2372 H 215.311 4.85988 -1.29709 0
M  V30 2373 H 215.011 5.02528 -3.04531 0
M  V30 2374 H 216.535 5.63859 -2.34297 0
M  V30 2375 H 217.949 4.09651 -4.01073 0
M  V30 2376 H 216.346 3.72173 -4.70752 0
M  V30 2377 H 217.416 2.39665 -4.21532 0
M  V30 2378 N 218.759 1.29093 0.90403 0
M  V30 2379 C 219.689 1.16401 2.02418 0
M  V30 2380 C 220.67 0.0593085 1.69997 0
M  V30 2381 O 221.855 0.238021 1.92736 0
M  V30 2382 C 218.985 0.835233 3.37107 0
M  V30 2383 C 217.939 1.89578 3.83724 0
M  V30 2384 C 217.265 1.42041 5.15489 0
M  V30 2385 C 218.565 3.30394 4.04521 0
M  V30 2386 H 220.259 2.10109 2.13295 0
M  V30 2387 H 217.805 1.01157 1.02486 0
M  V30 2388 H 219.758 0.733169 4.14973 0
M  V30 2389 H 218.482 -0.137543 3.2631 0
M  V30 2390 H 217.141 1.98715 3.08071 0
M  V30 2391 H 216.789 0.436426 5.01103 0
M  V30 2392 H 216.489 2.12964 5.4765 0
M  V30 2393 H 218.013 1.33176 5.959 0
M  V30 2394 H 219.427 3.24123 4.72882 0
M  V30 2395 H 217.824 3.99237 4.48029 0
M  V30 2396 H 218.894 3.73692 3.09002 0
M  V30 2397 N 220.237 -1.11381 1.11499 0
M  V30 2398 C 221.486 -1.82494 0.858993 0
M  V30 2399 C 221.799 -1.85605 -0.617278 0
M  V30 2400 O 223.005 -2.52824 -0.989552 0
M  V30 2401 C 221.461 -3.27745 1.48699 0
M  V30 2402 C 221.069 -3.32961 2.99735 0
M  V30 2403 C 222.813 -4.03754 1.31085 0
M  V30 2404 C 220.72 -4.72612 3.55516 0
M  V30 2405 H 219.65 -0.683802 0.317696 0
M  V30 2406 H 222.301 -1.25331 1.34031 0
M  V30 2407 H 220.683 -3.84844 0.933339 0
M  V30 2408 H 221.857 -2.85741 3.61509 0
M  V30 2409 H 220.172 -2.70433 3.16631 0
M  V30 2410 H 222.769 -5.06891 1.70192 0
M  V30 2411 H 223.112 -4.15527 0.253496 0
M  V30 2412 H 223.645 -3.53043 1.83318 0
M  V30 2413 H 220.384 -4.66036 4.60967 0
M  V30 2414 H 219.904 -5.2024 2.98513 0
M  V30 2415 H 221.583 -5.4157 3.53992 0
M  V30 2416 N 221.715 -0.905404 -1.28997 0
M  V30 2417 C 222.645 -0.404212 -2.29975 0
M  V30 2418 C 223.626 0.523784 -1.61835 0
M  V30 2419 O 224.811 0.433298 -1.89304 0
M  V30 2420 C 221.941 0.364042 -3.45387 0
M  V30 2421 C 220.895 -0.474048 -4.25367 0
M  V30 2422 C 220.221 0.422045 -5.33032 0
M  V30 2423 C 221.521 -1.72696 -4.92923 0
M  V30 2424 H 223.215 -1.24807 -2.72146 0
M  V30 2425 H 220.761 -0.601585 -1.30832 0
M  V30 2426 H 222.714 0.725447 -4.15109 0
M  V30 2427 H 221.438 1.24174 -3.02074 0
M  V30 2428 H 220.097 -0.81786 -3.57361 0
M  V30 2429 H 219.745 1.29804 -4.85963 0
M  V30 2430 H 219.445 -0.135057 -5.87445 0
M  V30 2431 H 220.969 0.779517 -6.05604 0
M  V30 2432 H 222.383 -1.43495 -5.55051 0
M  V30 2433 H 220.78 -2.22582 -5.57295 0
M  V30 2434 H 221.85 -2.45964 -4.17887 0
M  V30 2435 N 223.193 1.4272 -0.668489 0
M  V30 2436 C 224.44 2.01624 -0.18814 0
M  V30 2437 C 224.768 1.5282 1.20317 0
M  V30 2438 O 224.023 0.718323 1.8204 0
M  V30 2439 C 224.322 3.57021 -0.164499 0
M  V30 2440 C 223.988 4.25232 -1.49962 0
M  V30 2441 C 222.65 4.4358 -1.8652 0
M  V30 2442 C 225.002 4.63727 -2.37921 0
M  V30 2443 C 222.33 4.97694 -3.10674 0
M  V30 2444 C 224.682 5.19218 -3.6138 0
M  V30 2445 C 223.346 5.3578 -3.98115 0
M  V30 2446 H 222.616 0.737795 -0.0688454 0
M  V30 2447 H 225.263 1.70991 -0.862225 0
M  V30 2448 H 223.568 3.87285 0.593079 0
M  V30 2449 H 225.265 4.00372 0.224271 0
M  V30 2450 H 221.855 4.11306 -1.20522 0
M  V30 2451 H 226.039 4.4923 -2.10964 0
M  V30 2452 H 221.295 5.08702 -3.39164 0
M  V30 2453 H 225.469 5.4799 -4.29743 0
M  V30 2454 H 223.096 5.77475 -4.94395 0
M  V30 2455 N 224.671 0.411399 1.52136 0
M  V30 2456 C 225.92 -0.165009 2.01024 0
M  V30 2457 C 226.233 -1.4603 1.30133 0
M  V30 2458 O 227.439 -2.1181 1.69849 0
M  V30 2459 C 225.895 -0.344618 3.58246 0
M  V30 2460 C 225.503 0.938716 4.38055 0
M  V30 2461 C 227.247 -0.876195 4.15359 0
M  V30 2462 C 225.154 0.726172 5.86925 0
M  V30 2463 H 224.084 -0.0654407 0.751155 0
M  V30 2464 H 226.735 0.537192 1.75461 0
M  V30 2465 H 225.117 -1.10921 3.80148 0
M  V30 2466 H 226.291 1.70963 4.27912 0
M  V30 2467 H 224.606 1.39688 3.92271 0
M  V30 2468 H 227.203 -1.05128 5.24263 0
M  V30 2469 H 227.546 -1.85152 3.7286 0
M  V30 2470 H 228.079 -0.170607 3.97434 0
M  V30 2471 H 224.818 1.67312 6.33788 0
M  V30 2472 H 224.338 -0.00540283 5.998 0
M  V30 2473 H 226.017 0.369231 6.45946 0
M  V30 2474 N 226.149 -1.5696 0.141893 0
M  V30 2475 C 227.079 -2.19516 -0.795936 0
M  V30 2476 C 228.06 -1.14187 -1.26077 0
M  V30 2477 O 229.245 -1.42511 -1.31925 0
M  V30 2478 C 226.375 -2.81272 -2.03723 0
M  V30 2479 C 225.329 -3.92384 -1.70936 0
M  V30 2480 C 224.655 -4.41052 -3.02287 0
M  V30 2481 C 225.955 -5.13403 -0.959954 0
M  V30 2482 H 227.649 -2.98138 -0.274596 0
M  V30 2483 H 225.195 -1.43406 -0.130636 0
M  V30 2484 H 227.148 -3.237 -2.69808 0
M  V30 2485 H 225.872 -1.99973 -2.58221 0
M  V30 2486 H 224.531 -3.50566 -1.07232 0
M  V30 2487 H 224.179 -3.56582 -3.54765 0
M  V30 2488 H 223.879 -5.15993 -2.81114 0
M  V30 2489 H 225.403 -4.86146 -3.69451 0
M  V30 2490 H 226.817 -5.52706 -1.52279 0
M  V30 2491 H 225.214 -5.94073 -0.848357 0
M  V30 2492 H 226.284 -4.84875 0.0492434 0
M  V30 2493 N 227.627 0.131896 -1.57047 0
M  V30 2494 C 228.852 0.860418 -1.8871 0
M  V30 2495 C 229.277 1.73251 -0.73251 0
M  V30 2496 O 228.635 1.785 0.317429 0
M  V30 2497 C 228.683 1.68047 -3.19049 0
M  V30 2498 O 227.787 2.7862 -3.04047 0
M  V30 2499 H 227.128 0.238743 -0.619595 0
M  V30 2500 H 229.658 0.118169 -2.04258 0
M  V30 2501 H 229.668 2.07238 -3.51449 0
M  V30 2502 H 228.343 1.04018 -4.02682 0
M  V30 2503 H 226.92 2.42726 -2.83088 0
M  V30 2504 N 229.106 1.52395 0.401703 0
M  V30 2505 C 230.334 1.70676 1.16949 0
M  V30 2506 C 230.749 0.419503 1.8408 0
M  V30 2507 O 230.106 -0.605061 1.72178 0
M  V30 2508 C 230.157 2.84753 2.22706 0
M  V30 2509 O 229.878 4.08495 1.58314 0
M  V30 2510 C 231.379 3.14608 3.12309 0
M  V30 2511 H 228.599 0.571787 0.351142 0
M  V30 2512 H 231.143 1.98987 0.471652 0
M  V30 2513 H 229.298 2.58941 2.88147 0
M  V30 2514 H 229.712 4.72117 2.28485 0
M  V30 2515 H 231.186 3.97923 3.82572 0
M  V30 2516 H 231.663 2.28464 3.75101 0
M  V30 2517 H 232.269 3.42212 2.52529 0
M  V30 2518 N 230.584 -0.659388 1.43143 0
M  V30 2519 C 231.514 -1.78422 1.50625 0
M  V30 2520 C 232.495 -1.66216 0.361443 0
M  V30 2521 O 233.68 -1.85404 0.577834 0
M  V30 2522 C 230.81 -3.16815 1.42287 0
M  V30 2523 C 229.764 -3.43777 2.54954 0
M  V30 2524 C 229.09 -4.81905 2.31671 0
M  V30 2525 C 230.39 -3.39134 3.97222 0
M  V30 2526 H 232.084 -1.72417 2.44771 0
M  V30 2527 H 229.63 -0.828084 1.17808 0
M  V30 2528 H 231.583 -3.95253 1.46127 0
M  V30 2529 H 230.307 -3.23534 0.446435 0
M  V30 2530 H 228.966 -2.67707 2.50457 0
M  V30 2531 H 228.614 -4.85294 1.32284 0
M  V30 2532 H 228.314 -5.00906 3.07192 0
M  V30 2533 H 229.838 -5.62609 2.37284 0
M  V30 2534 H 231.252 -4.07518 4.03239 0
M  V30 2535 H 229.649 -3.69671 4.72719 0
M  V30 2536 H 230.719 -2.37426 4.22797 0
M  V30 2537 N 232.062 -1.29571 -0.897171 0
M  V30 2538 C 233.308 -1.17863 -1.65034 0
M  V30 2539 C 233.641 0.268729 -1.92332 0
M  V30 2540 O 232.916 1.19378 -1.53555 0
M  V30 2541 C 233.199 -1.995 -2.99786 0
M  V30 2542 C 233.052 -3.5239 -2.79538 0
M  V30 2543 C 234.371 -1.82335 -4.00552 0
M  V30 2544 H 231.49 -0.429528 -0.598895 0
M  V30 2545 H 234.132 -1.59072 -1.03905 0
M  V30 2546 H 232.282 -1.64485 -3.51962 0
M  V30 2547 H 233.954 -3.97401 -2.34244 0
M  V30 2548 H 232.197 -3.77187 -2.14273 0
M  V30 2549 H 232.868 -4.04787 -3.75302 0
M  V30 2550 H 235.344 -2.12924 -3.57495 0
M  V30 2551 H 234.22 -2.41801 -4.92771 0
M  V30 2552 H 234.481 -0.779209 -4.35179 0
M  V30 2553 N 233.54 1.10788 -1.12088 0
M  V30 2554 C 234.786 1.82942 -0.875226 0
M  V30 2555 C 235.119 1.84779 0.597538 0
M  V30 2556 O 234.394 1.30578 1.44152 0
M  V30 2557 C 234.677 3.29789 -1.44606 0
M  V30 2558 C 234.53 3.36307 -2.98693 0
M  V30 2559 C 235.849 4.26064 -1.10261 0
M  V30 2560 H 232.968 0.664195 -0.319397 0
M  V30 2561 H 235.61 1.29867 -1.38689 0
M  V30 2562 H 233.76 3.75118 -1.01089 0
M  V30 2563 H 235.432 2.99487 -3.50864 0
M  V30 2564 H 233.675 2.76318 -3.34411 0
M  V30 2565 H 234.346 4.39694 -3.33726 0
M  V30 2566 H 236.822 3.88951 -1.4784 0
M  V30 2567 H 235.698 5.27183 -1.52869 0
M  V30 2568 H 235.959 4.42098 -0.0142953 0
M  V30 2569 N 235.018 0.912232 1.28515 0
M  V30 2570 C 236.295 0.463597 1.90027 0
M  V30 2571 C 236.675 -1.05753 1.82701 0
M  V30 2572 O 236.023 -1.90492 1.26194 0
M  V30 2573 C 236.233 0.992253 3.34597 0
M  V30 2574 C 237.581 1.04344 4.11579 0
M  V30 2575 O 238.605 0.94079 3.43551 0
M  V30 2576 O 237.464 1.1995 5.33174 0
M  V30 2577 H 234.558 0.146666 0.813891 0
M  V30 2578 H 237.104 1.00292 1.36893 0
M  V30 2579 H 235.876 2.03623 3.34146 0
M  V30 2580 H 235.499 0.433672 3.95228 0
M  V30 2581 N 236.496 -1.42363 0.676048 0
M  V30 2582 C 237.726 -2.05561 0.206967 0
M  V30 2583 C 238.134 -1.50887 -1.14148 0
M  V30 2584 O 237.477 -0.643933 -1.72044 0
M  V30 2585 C 237.539 -3.5944 0.0659508 0
M  V30 2586 C 237.203 -4.36812 1.34331 0
M  V30 2587 C 238.2 -4.67383 2.27704 0
M  V30 2588 C 235.885 -4.76429 1.59125 0
M  V30 2589 C 237.879 -5.36509 3.44147 0
M  V30 2590 C 235.566 -5.45294 2.75857 0
M  V30 2591 C 236.564 -5.75259 3.68193 0
M  V30 2592 O 236.252 -6.42712 4.82883 0
M  V30 2593 H 235.984 -0.668872 0.0979084 0
M  V30 2594 H 238.538 -1.83467 0.923531 0
M  V30 2595 H 236.768 -3.80197 -0.706204 0
M  V30 2596 H 238.457 -4.0427 -0.363418 0
M  V30 2597 H 239.223 -4.37275 2.09799 0
M  V30 2598 H 235.102 -4.52498 0.881258 0
M  V30 2599 H 238.646 -5.59814 4.16238 0
M  V30 2600 H 234.543 -5.7482 2.93688 0
M  V30 2601 H 235.311 -6.61204 4.82444 0
M  V30 2602 N 237.974 -0.419461 -1.51915 0
M  V30 2603 C 239.223 0.154346 -2.01109 0
M  V30 2604 C 239.536 1.45338 -1.30905 0
M  V30 2605 O 240.742 2.10906 -1.7097 0
M  V30 2606 C 239.198 0.325615 -3.58424 0
M  V30 2607 C 238.806 -0.961934 -4.37551 0
M  V30 2608 C 240.55 0.854155 -4.15818 0
M  V30 2609 C 238.457 -0.757287 -5.86531 0
M  V30 2610 H 237.387 0.0614563 -0.751491 0
M  V30 2611 H 240.038 -0.54649 -1.75173 0
M  V30 2612 H 238.42 1.08903 -3.80731 0
M  V30 2613 H 239.594 -1.7323 -4.26999 0
M  V30 2614 H 237.909 -1.41766 -3.91524 0
M  V30 2615 H 240.506 1.02346 -5.24814 0
M  V30 2616 H 240.849 1.83172 -3.73837 0
M  V30 2617 H 241.382 0.149528 -3.97519 0
M  V30 2618 H 238.121 -1.70671 -6.32892 0
M  V30 2619 H 237.641 -0.0264061 -5.99794 0
M  V30 2620 H 239.32 -0.403482 -6.45741 0
M  V30 2621 N 239.452 1.56882 -0.150215 0
M  V30 2622 C 240.729 1.87844 0.545327 0
M  V30 2623 C 241.109 1.0567 1.82749 0
M  V30 2624 O 240.457 0.144442 2.28043 0
M  V30 2625 C 240.667 3.39526 0.80767 0
M  V30 2626 C 242.015 4.08814 1.14703 0
M  V30 2627 O 243.039 3.44723 0.896917 0
M  V30 2628 O 241.898 5.22004 1.61784 0
M  V30 2629 H 238.992 0.778677 0.278553 0
M  V30 2630 H 241.538 1.68666 -0.187068 0
M  V30 2631 H 240.31 3.91173 -0.0996096 0
M  V30 2632 H 239.933 3.64243 1.59413 0
M  V30 2633 N 240.93 -0.123565 1.57115 0
M  V30 2634 C 241.84 -1.17074 2.033 0
M  V30 2635 C 242.856 -1.4561 0.952559 0
M  V30 2636 O 244.032 -1.56817 1.26374 0
M  V30 2637 C 241.097 -2.47857 2.42421 0
M  V30 2638 C 240.158 -2.26758 3.64526 0
M  V30 2639 C 239.391 -3.51305 4.01771 0
M  V30 2640 O 239.614 -4.5843 3.39409 0
M  V30 2641 O 238.548 -3.42578 4.94898 0
M  V30 2642 H 242.374 -0.808555 2.92739 0
M  V30 2643 H 239.959 -0.334027 1.45618 0
M  V30 2644 H 241.841 -3.2492 2.68338 0
M  V30 2645 H 240.516 -2.83558 1.5613 0
M  V30 2646 H 239.423 -1.47569 3.43765 0
M  V30 2647 H 240.756 -1.95963 4.51508 0
M  V30 2648 N 242.408 -1.52605 -0.393616 0
M  V30 2649 C 243.656 -1.67093 -1.13685 0
M  V30 2650 C 243.977 -0.411011 -1.90619 0
M  V30 2651 O 243.247 0.574491 -1.87287 0
M  V30 2652 H 241.827 -0.615923 -0.422668 0
M  V30 2653 H 244.489 -1.89704 -0.447039 0
M  V30 2654 H 243.585 -2.51922 -1.84232 0
M  V30 2655 N 243.887 0.651787 -1.4349 0
M  V30 2656 C 245.303 0.96762 -1.26922 0
M  V30 2657 C 245.503 2.00602 -0.189982 0
M  V30 2658 O 244.559 2.48793 0.431107 0
M  V30 2659 C 245.872 1.45052 -2.63401 0
M  V30 2660 C 247.42 1.5671 -2.70945 0
M  V30 2661 C 247.895 2.0839 -4.07845 0
M  V30 2662 N 249.386 2.1569 -4.09917 0
M  V30 2663 C 250.121 2.56804 -5.12679 0
M  V30 2664 N 249.617 2.97203 -6.25813 0
M  V30 2665 N 251.41 2.56756 -5.00033 0
M  V30 2666 H 243.561 -0.0353158 -2.12371 0
M  V30 2667 H 245.824 0.0467858 -0.946845 0
M  V30 2668 H 245.53 0.761926 -3.43348 0
M  V30 2669 H 245.404 2.42529 -2.88894 0
M  V30 2670 H 247.791 2.2467 -1.9133 0
M  V30 2671 H 247.872 0.57662 -2.49216 0
M  V30 2672 H 247.516 1.41031 -4.87927 0
M  V30 2673 H 247.446 3.08271 -4.26938 0
M  V30 2674 H 249.937 1.87237 -3.28254 0
M  V30 2675 H 250.25 3.27328 -7.00055 0
M  V30 2676 H 248.595 2.95004 -6.29283 0
M  V30 2677 H 251.786 2.24572 -4.10713 0
M  V30 2678 H 251.959 2.88475 -5.80247 0
M  V30 2679 N 245.365 1.30045 0.890287 0
M  V30 2680 C 246.295 1.18541 2.01172 0
M  V30 2681 C 247.276 0.0773356 1.69924 0
M  V30 2682 O 248.461 0.25845 1.92473 0
M  V30 2683 C 245.591 0.870941 3.36202 0
M  V30 2684 C 244.545 1.93637 3.81692 0
M  V30 2685 C 243.871 1.475 5.13953 0
M  V30 2686 C 245.171 3.34666 4.00994 0
M  V30 2687 H 246.865 2.12359 2.11054 0
M  V30 2688 H 244.411 1.02238 1.01407 0
M  V30 2689 H 246.364 0.777141 4.14172 0
M  V30 2690 H 245.088 -0.102926 3.26438 0
M  V30 2691 H 243.747 2.01972 3.05946 0
M  V30 2692 H 243.395 0.489551 5.00612 0
M  V30 2693 H 243.095 2.1876 5.4536 0
M  V30 2694 H 244.619 1.39489 5.94454 0
M  V30 2695 H 246.033 3.2912 4.69417 0
M  V30 2696 H 244.43 4.03966 4.43769 0
M  V30 2697 H 245.5 3.76949 3.05021 0
M  V30 2698 N 246.843 -1.10192 1.12674 0
M  V30 2699 C 248.089 -1.82475 0.884915 0
M  V30 2700 C 248.422 -1.85093 -0.58773 0
M  V30 2701 O 247.697 -1.3134 -1.43457 0
M  V30 2702 C 247.98 -3.29018 1.46353 0
M  V30 2703 C 247.833 -3.34718 3.00473 0
M  V30 2704 C 249.152 -4.25473 1.12519 0
M  V30 2705 H 246.271 -0.662492 0.322915 0
M  V30 2706 H 248.913 -1.2913 1.39375 0
M  V30 2707 H 247.063 -3.74576 1.03077 0
M  V30 2708 H 248.735 -2.97622 3.52447 0
M  V30 2709 H 246.978 -2.74541 3.35872 0
M  V30 2710 H 247.649 -4.37918 3.36053 0
M  V30 2711 H 250.125 -3.88161 1.499 0
M  V30 2712 H 249.001 -5.26365 1.55663 0
M  V30 2713 H 249.262 -4.42084 0.0377407 0
M  V30 2714 N 248.321 -0.919034 -1.28029 0
M  V30 2715 C 249.251 -0.428581 -2.29533 0
M  V30 2716 C 250.232 0.50659 -1.62381 0
M  V30 2717 O 251.417 0.413195 -1.89753 0
M  V30 2718 C 248.547 0.327388 -3.45753 0
M  V30 2719 C 247.501 -0.519137 -4.2484 0
M  V30 2720 C 246.827 0.365486 -5.33449 0
M  V30 2721 C 248.127 -1.77914 -4.91064 0
M  V30 2722 H 249.821 -1.27687 -2.70807 0
M  V30 2723 H 247.367 -0.615428 -1.30186 0
M  V30 2724 H 249.32 0.681378 -4.15855 0
M  V30 2725 H 248.044 1.20963 -3.03374 0
M  V30 2726 H 246.703 -0.855717 -3.56473 0
M  V30 2727 H 246.351 1.24642 -4.87312 0
M  V30 2728 H 246.051 -0.197356 -5.87268 0
M  V30 2729 H 247.575 0.715241 -6.06396 0
M  V30 2730 H 248.989 -1.49374 -5.53498 0
M  V30 2731 H 247.386 -2.2848 -5.54903 0
M  V30 2732 H 248.456 -2.50382 -4.15255 0
M  V30 2733 N 249.799 1.42003 -0.683588 0
M  V30 2734 C 250.709 2.34597 -0.0109075 0
M  V30 2735 C 251.725 1.55576 0.779245 0
M  V30 2736 O 252.901 1.88107 0.719555 0
M  V30 2737 C 249.966 3.34199 0.922588 0
M  V30 2738 C 249.027 4.29115 0.125984 0
M  V30 2739 C 248.26 5.23959 1.01502 0
M  V30 2740 O 248.483 5.23952 2.25456 0
M  V30 2741 O 247.417 6.00053 0.47111 0
M  V30 2742 H 251.243 2.93675 -0.773853 0
M  V30 2743 H 248.828 1.42654 -0.443861 0
M  V30 2744 H 250.71 3.95365 1.45823 0
M  V30 2745 H 249.385 2.77582 1.66523 0
M  V30 2746 H 248.292 3.71335 -0.453969 0
M  V30 2747 H 249.625 4.88798 -0.577736 0
M  V30 2748 N 251.277 0.427512 1.51691 0
M  V30 2749 C 252.524 -0.142229 2.02 0
M  V30 2750 C 252.852 -1.43566 1.31221 0
M  V30 2751 O 252.107 -1.91298 0.412744 0
M  V30 2752 C 252.406 -0.418249 3.54944 0
M  V30 2753 C 252.072 0.788187 4.43958 0
M  V30 2754 C 250.734 1.11906 4.68007 0
M  V30 2755 C 253.086 1.59347 4.96244 0
M  V30 2756 C 250.414 2.25608 5.41588 0
M  V30 2757 C 252.766 2.7214 5.71072 0
M  V30 2758 C 251.43 3.05692 5.93387 0
M  V30 2759 H 250.7 -0.0520451 0.73917 0
M  V30 2760 H 253.347 0.572697 1.82736 0
M  V30 2761 H 251.652 -1.21496 3.72486 0
M  V30 2762 H 253.349 -0.872339 3.91397 0
M  V30 2763 H 249.939 0.520344 4.2543 0
M  V30 2764 H 254.123 1.35106 4.77556 0
M  V30 2765 H 249.379 2.51929 5.57083 0
M  V30 2766 H 253.553 3.34914 6.10578 0
M  V30 2767 H 251.18 3.9391 6.50184 0
M  V30 2768 N 252.755 -1.56801 0.158532 0
M  V30 2769 C 253.98 -2.01295 -0.499516 0
M  V30 2770 C 254.405 -1.03799 -1.56867 0
M  V30 2771 O 253.763 -0.0155162 -1.81293 0
M  V30 2772 C 253.811 -3.44469 -1.06647 0
M  V30 2773 O 252.915 -3.50012 -2.18095 0
M  V30 2774 H 252.256 -0.652884 -0.12099 0
M  V30 2775 H 254.786 -2.02958 0.258661 0
M  V30 2776 H 254.796 -3.8351 -1.39227 0
M  V30 2777 H 253.471 -4.14932 -0.283581 0
M  V30 2778 H 252.048 -3.22822 -1.86656 0
M  V30 2779 N 254.233 0.115231 -1.57178 0
M  V30 2780 C 255.163 1.1423 -2.03651 0
M  V30 2781 C 256.144 1.42967 -0.921655 0
M  V30 2782 O 257.329 1.53343 -1.19162 0
M  V30 2783 C 254.459 2.4675 -2.44401 0
M  V30 2784 C 253.413 2.32467 -3.59365 0
M  V30 2785 C 252.739 3.69984 -3.86026 0
M  V30 2786 C 254.039 1.78203 -4.90959 0
M  V30 2787 H 255.733 0.755749 -2.89705 0
M  V30 2788 H 253.279 0.362093 -1.39373 0
M  V30 2789 H 255.232 3.18854 -2.75517 0
M  V30 2790 H 253.956 2.87302 -1.55322 0
M  V30 2791 H 252.615 1.62811 -3.28463 0
M  V30 2792 H 252.263 4.08028 -2.94147 0
M  V30 2793 H 251.963 3.61279 -4.63412 0
M  V30 2794 H 253.487 4.43587 -4.19599 0
M  V30 2795 H 254.901 2.40128 -5.20587 0
M  V30 2796 H 253.298 1.8031 -5.72371 0
M  V30 2797 H 254.368 0.739876 -4.79222 0
M  V30 2798 N 255.711 1.52812 0.385517 0
M  V30 2799 C 256.641 1.80808 1.47752 0
M  V30 2800 C 257.622 0.660318 1.5676 0
M  V30 2801 O 258.807 0.908246 1.71652 0
M  V30 2802 C 255.937 1.98008 2.85324 0
M  V30 2803 C 254.891 3.13709 2.91154 0
M  V30 2804 C 254.217 3.16169 4.31209 0
M  V30 2805 C 255.517 4.52709 2.60483 0
M  V30 2806 H 257.211 2.72253 1.24573 0
M  V30 2807 H 254.757 1.31003 0.597839 0
M  V30 2808 H 256.71 2.16176 3.61726 0
M  V30 2809 H 255.434 1.03255 3.09848 0
M  V30 2810 H 254.093 2.95329 2.17201 0
M  V30 2811 H 253.741 2.19092 4.52778 0
M  V30 2812 H 253.441 3.93894 4.36029 0
M  V30 2813 H 254.965 3.36496 5.09512 0
M  V30 2814 H 256.379 4.71173 3.26602 0
M  V30 2815 H 254.776 5.32528 2.76648 0
M  V30 2816 H 255.846 4.59186 1.55809 0
M  V30 2817 N 257.189 -0.644168 1.43834 0
M  V30 2818 C 258.414 -1.43642 1.49605 0
M  V30 2819 C 258.839 -1.8773 0.117913 0
M  V30 2820 O 258.197 -1.57938 -0.890239 0
M  V30 2821 C 258.245 -2.6416 2.45463 0
M  V30 2822 O 257.349 -3.63538 1.94714 0
M  V30 2823 H 256.69 -0.430329 0.50568 0
M  V30 2824 H 259.22 -0.787448 1.8884 0
M  V30 2825 H 259.23 -3.11864 2.63068 0
M  V30 2826 H 257.905 -2.31414 3.45572 0
M  V30 2827 H 256.482 -3.2273 1.86814 0
M  V30 2828 N 258.668 -1.30515 -0.883378 0
M  V30 2829 C 259.898 -1.22182 -1.66599 0
M  V30 2830 C 260.306 0.217507 -1.87946 0
M  V30 2831 O 259.649 1.1554 -1.42815 0
M  V30 2832 C 259.711 -1.88146 -3.06335 0
M  V30 2833 C 259.375 -3.37476 -3.08154 0
M  V30 2834 C 260.372 -4.33443 -2.87094 0
M  V30 2835 C 258.057 -3.7895 -3.29701 0
M  V30 2836 C 260.051 -5.68858 -2.8754 0
M  V30 2837 C 257.738 -5.14482 -3.29776 0
M  V30 2838 C 258.736 -6.09246 -3.0872 0
M  V30 2839 O 258.424 -7.42302 -3.08615 0
M  V30 2840 H 258.156 -0.423898 -0.52658 0
M  V30 2841 H 260.71 -1.72703 -1.11188 0
M  V30 2842 H 258.94 -1.32157 -3.63416 0
M  V30 2843 H 260.629 -1.7391 -3.66756 0
M  V30 2844 H 261.395 -4.02733 -2.70243 0
M  V30 2845 H 257.274 -3.05631 -3.45124 0
M  V30 2846 H 260.818 -6.428 -2.71024 0
M  V30 2847 H 256.715 -5.44832 -3.46163 0
M  V30 2848 H 257.483 -7.5131 -3.24769 0
M  V30 2849 N 260.146 1.09593 -1.13257 0
M  V30 2850 C 261.109 2.14359 -0.811358 0
M  V30 2851 C 262.109 1.59808 0.178377 0
M  V30 2852 O 263.299 1.74132 -0.0484911 0
M  V30 2853 C 260.431 3.40269 -0.207276 0
M  V30 2854 H 261.624 2.44284 -1.73969 0
M  V30 2855 H 259.177 1.25102 -0.936973 0
M  V30 2856 H 259.912 3.15969 0.73036 0
M  V30 2857 H 259.697 3.81154 -0.919992 0
M  V30 2858 H 261.187 4.176 0.000667944 0
M  V30 2859 N 261.624 0.925811 1.2754 0
M  V30 2860 C 262.871 0.565255 1.94451 0
M  V30 2861 C 263.199 -0.89316 1.7278 0
M  V30 2862 O 262.454 -1.65213 1.04895 0
M  V30 2863 C 262.753 0.835296 3.47502 0
M  V30 2864 C 262.419 2.27515 3.89291 0
M  V30 2865 C 261.081 2.66879 4.00411 0
M  V30 2866 C 263.433 3.21158 4.10496 0
M  V30 2867 C 260.761 3.99014 4.30122 0
M  V30 2868 C 263.113 4.52871 4.4169 0
M  V30 2869 C 261.777 4.92072 4.51023 0
M  V30 2870 H 261.047 0.206841 0.711546 0
M  V30 2871 H 263.694 1.16942 1.51647 0
M  V30 2872 H 261.999 0.148442 3.91519 0
M  V30 2873 H 263.696 0.535322 3.97411 0
M  V30 2874 H 260.286 1.95976 3.81171 0
M  V30 2875 H 264.47 2.9195 4.01346 0
M  V30 2876 H 259.726 4.2907 4.35556 0
M  V30 2877 H 263.9 5.25436 4.57045 0
M  V30 2878 H 261.527 5.9449 4.738 0
M  V30 2879 N 263.102 -1.41638 0.69111 0
M  V30 2880 C 264.35 -2.00902 0.219758 0
M  V30 2881 C 264.671 -1.54994 -1.18329 0
M  V30 2882 O 263.941 -0.778628 -1.79762 0
M  V30 2883 H 262.521 -0.74289 0.0782558 0
M  V30 2884 H 265.183 -1.73327 0.891271 0
M  V30 2885 H 264.279 -3.11224 0.233708 0
M  V30 2886 N 264.58 -0.43555 -1.51462 0
M  V30 2887 C 265.527 0.376797 -2.27703 0
M  V30 2888 C 266.497 1.01838 -1.31219 0
M  V30 2889 O 267.682 1.03762 -1.60119 0
M  V30 2890 C 264.822 1.47301 -3.12084 0
M  V30 2891 C 263.935 0.849744 -4.2356 0
M  V30 2892 C 263.07 1.92086 -4.95254 0
M  V30 2893 C 262.109 1.27593 -5.98654 0
M  V30 2894 N 261.246 2.28833 -6.63762 0
M  V30 2895 H 266.086 -0.279734 -2.96684 0
M  V30 2896 H 263.623 -0.149795 -1.46335 0
M  V30 2897 H 265.581 2.11984 -3.59331 0
M  V30 2898 H 264.211 2.0992 -2.45221 0
M  V30 2899 H 263.263 0.0912529 -3.80291 0
M  V30 2900 H 264.575 0.338878 -4.97648 0
M  V30 2901 H 263.729 2.64435 -5.46039 0
M  V30 2902 H 262.468 2.46545 -4.20793 0
M  V30 2903 H 261.473 0.537893 -5.47162 0
M  V30 2904 H 262.698 0.738693 -6.7507 0
M  V30 2905 H 260.644 2.82375 -5.92115 0
M  V30 2906 H 260.561 1.82632 -7.33608 0
M  V30 2907 H 261.829 3.00671 -7.19178 0
M  V30 2908 N 266.058 1.56714 -0.166846 0
M  V30 2909 C 267.305 1.96747 0.479252 0
M  V30 2910 C 267.633 1.05263 1.63554 0
M  V30 2911 O 266.888 0.0858098 1.95512 0
M  V30 2912 C 267.187 3.42889 1.00806 0
M  V30 2913 C 266.853 4.50889 -0.0318574 0
M  V30 2914 C 265.515 4.8015 -0.317675 0
M  V30 2915 C 267.867 5.15949 -0.737956 0
M  V30 2916 C 265.195 5.71772 -1.31506 0
M  V30 2917 C 267.547 6.08647 -1.72429 0
M  V30 2918 C 266.211 6.36277 -2.0176 0
M  V30 2919 H 265.481 0.719949 0.175371 0
M  V30 2920 H 268.128 1.89756 -0.257864 0
M  V30 2921 H 266.433 3.4681 1.82291 0
M  V30 2922 H 268.13 3.71203 1.51689 0
M  V30 2923 H 264.72 4.28128 0.201088 0
M  V30 2924 H 268.904 4.93458 -0.530351 0
M  V30 2925 H 264.16 5.91465 -1.54853 0
M  V30 2926 H 268.334 6.58129 -2.27682 0
M  V30 2927 H 265.961 7.07075 -2.79194 0
M  V30 2928 N 267.536 -0.106894 1.57237 0
M  V30 2929 C 268.947 -0.662723 1.74542 0
M  V30 2930 C 269.298 -1.7971 0.787319 0
M  V30 2931 O 268.423 -2.16368 -0.0369636 0
M  V30 2932 C 269.018 -1.20896 3.16496 0
M  V30 2933 C 267.577 -1.71096 3.35266 0
M  V30 2934 C 266.724 -0.615642 2.7038 0
M  V30 2935 H 269.675 0.119106 1.58252 0
M  V30 2936 H 269.696 -2.07847 3.18716 0
M  V30 2937 H 269.208 -0.383122 3.86204 0
M  V30 2938 H 267.309 -2.56119 2.70618 0
M  V30 2939 H 267.422 -1.81208 4.43509 0
M  V30 2940 H 265.786 -1.05222 2.31949 0
M  V30 2941 H 266.569 0.199419 3.4272 0
M  V30 2942 N 269.014 -1.53014 -0.377408 0
M  V30 2943 C 270.242 -1.72515 -1.14219 0
M  V30 2944 C 270.657 -0.448735 -1.8339 0
M  V30 2945 O 270.014 0.577592 -1.73119 0
M  V30 2946 C 270.065 -2.8826 -2.18148 0
M  V30 2947 O 269.786 -4.10962 -1.51795 0
M  V30 2948 C 271.287 -3.19536 -3.07264 0
M  V30 2949 H 268.507 -0.577301 -0.342001 0
M  V30 2950 H 271.051 -1.99712 -0.439935 0
M  V30 2951 H 269.206 -2.63492 -2.83991 0
M  V30 2952 H 269.62 -4.75693 -2.20945 0
M  V30 2953 H 271.094 -4.03959 -3.76193 0
M  V30 2954 H 271.571 -2.34403 -3.71419 0
M  V30 2955 H 272.177 -3.46186 -2.47053 0
M  V30 2956 N 270.492 0.636531 -1.44174 0
M  V30 2957 C 271.738 1.39826 -1.4689 0
M  V30 2958 C 272.071 1.93947 -0.0990585 0
M  V30 2959 O 271.346 1.73325 0.882544 0
M  V30 2960 C 271.629 2.56751 -2.5249 0
M  V30 2961 C 271.482 2.08014 -3.98811 0
M  V30 2962 C 272.801 3.58946 -2.54649 0
M  V30 2963 H 269.92 0.507075 -0.53483 0
M  V30 2964 H 272.562 0.720188 -1.75822 0
M  V30 2965 H 270.712 3.14597 -2.2795 0
M  V30 2966 H 272.384 1.5504 -4.34466 0
M  V30 2967 H 270.627 1.39242 -4.10846 0
M  V30 2968 H 271.298 2.92169 -4.68339 0
M  V30 2969 H 273.774 3.1089 -2.76563 0
M  V30 2970 H 272.65 4.38286 -3.3045 0
M  V30 2971 H 272.911 4.12655 -1.58646 0
M  V30 2972 N 271.97 1.30982 0.876444 0
M  V30 2973 C 273.216 1.20474 1.63138 0
M  V30 2974 C 273.549 -0.238096 1.92735 0
M  V30 2975 O 272.824 -1.1692 1.55435 0
M  V30 2976 C 273.107 2.04244 2.96574 0
M  V30 2977 C 272.96 3.56793 2.73896 0
M  V30 2978 C 274.279 1.88684 3.97601 0
M  V30 2979 H 271.398 0.439001 0.591985 0
M  V30 2980 H 274.04 1.60704 1.01361 0
M  V30 2981 H 272.19 1.70063 3.493 0
M  V30 2982 H 273.862 4.01077 2.27892 0
M  V30 2983 H 272.105 3.80548 2.08245 0
M  V30 2984 H 272.776 4.10706 3.68815 0
M  V30 2985 H 275.252 2.18584 3.54062 0
M  V30 2986 H 274.128 2.4961 4.88862 0
M  V30 2987 H 274.389 0.848343 4.33884 0
M  V30 2988 N 273.449 -1.08991 1.13837 0
M  V30 2989 C 274.695 -1.81699 0.91417 0
M  V30 2990 C 275.05 -1.84264 -0.553594 0
M  V30 2991 O 274.343 -1.30313 -1.4046 0
M  V30 2992 C 274.537 -3.27042 1.44147 0
M  V30 2993 C 274.366 -3.38637 2.95897 0
M  V30 2994 C 273.136 -3.50177 3.64286 0
M  V30 2995 C 275.334 -3.30791 3.93804 0
M  V30 2996 N 273.316 -3.50501 5.04006 0
M  V30 2997 C 274.687 -3.38037 5.19741 0
M  V30 2998 C 276.742 -3.14488 3.86007 0
M  V30 2999 C 275.445 -3.30659 6.38793 0
M  V30 3000 C 277.471 -3.08438 5.04599 0
M  V30 3001 C 276.833 -3.1628 6.29402 0
M  V30 3002 H 272.932 -0.678967 0.387979 0
M  V30 3003 H 275.516 -1.30224 1.4474 0
M  V30 3004 H 273.687 -3.76976 0.935091 0
M  V30 3005 H 275.419 -3.87785 1.1578 0
M  V30 3006 H 272.174 -3.53815 3.1482 0
M  V30 3007 H 272.598 -3.54236 5.76928 0
M  V30 3008 H 277.24 -3.07291 2.90399 0
M  V30 3009 H 274.958 -3.36618 7.34652 0
M  V30 3010 H 278.544 -2.96952 5.0031 0
M  V30 3011 H 277.424 -3.1162 7.19627 0
M  V30 3012 N 274.927 -0.932562 -1.27047 0
M  V30 3013 C 276.155 -0.592031 -1.98249 0
M  V30 3014 C 276.57 0.831062 -1.69525 0
M  V30 3015 O 275.927 1.55299 -0.958561 0
M  V30 3016 C 275.978 -0.814279 -3.5221 0
M  V30 3017 O 275.699 -2.18139 -3.7993 0
M  V30 3018 C 277.2 -0.483121 -4.4066 0
M  V30 3019 H 274.42 -0.223896 -0.632544 0
M  V30 3020 H 276.964 -1.25091 -1.61779 0
M  V30 3021 H 275.119 -0.20213 -3.86872 0
M  V30 3022 H 275.533 -2.235 -4.74498 0
M  V30 3023 H 277.007 -0.689298 -5.47679 0
M  V30 3024 H 277.484 0.581546 -4.35333 0
M  V30 3025 H 278.09 -1.07362 -4.11526 0
M  V30 3026 N 276.405 1.4127 -0.698611 0
M  V30 3027 C 277.651 2.01979 -0.239972 0
M  V30 3028 C 278.006 1.54353 1.14861 0
M  V30 3029 O 277.299 0.746218 1.76471 0
M  V30 3030 C 277.493 3.56592 -0.240192 0
M  V30 3031 C 277.322 4.19226 -1.62726 0
M  V30 3032 C 276.092 4.53389 -2.23084 0
M  V30 3033 C 278.29 4.45228 -2.57443 0
M  V30 3034 N 276.272 5.01327 -3.54323 0
M  V30 3035 C 277.643 4.94973 -3.73365 0
M  V30 3036 C 279.698 4.27243 -2.55671 0
M  V30 3037 C 278.401 5.28624 -4.878 0
M  V30 3038 C 280.427 4.61985 -3.69221 0
M  V30 3039 C 279.789 5.11904 -4.83873 0
M  V30 3040 H 275.888 0.770561 -0.133269 0
M  V30 3041 H 278.472 1.71767 -0.916748 0
M  V30 3042 H 276.643 3.86271 0.406082 0
M  V30 3043 H 278.375 4.04025 0.23356 0
M  V30 3044 H 275.13 4.39946 -1.75341 0
M  V30 3045 H 275.554 5.29697 -4.21604 0
M  V30 3046 H 280.196 3.87884 -1.68243 0
M  V30 3047 H 277.914 5.66905 -5.75885 0
M  V30 3048 H 281.5 4.49725 -3.69105 0
M  V30 3049 H 280.38 5.38282 -5.70282 0
M  V30 3050 N 277.883 0.443576 1.51229 0
M  V30 3051 C 279.129 -0.11321 2.03085 0
M  V30 3052 C 279.484 -1.39841 1.32145 0
M  V30 3053 O 278.777 -1.86723 0.429542 0
M  V30 3054 C 278.971 -0.380579 3.55368 0
M  V30 3055 C 278.8 0.877157 4.41062 0
M  V30 3056 C 277.57 1.4125 4.85156 0
M  V30 3057 C 279.768 1.76503 4.83064 0
M  V30 3058 N 277.75 2.62213 5.55083 0
M  V30 3059 C 279.121 2.82067 5.52122 0
M  V30 3060 C 281.176 1.7787 4.65045 0
M  V30 3061 C 279.879 3.88952 6.05069 0
M  V30 3062 C 281.905 2.83694 5.18914 0
M  V30 3063 C 281.267 3.87978 5.87922 0
M  V30 3064 H 277.366 -0.00210178 0.781997 0
M  V30 3065 H 279.95 0.605641 1.85041 0
M  V30 3066 H 278.121 -1.06847 3.73414 0
M  V30 3067 H 279.853 -0.929274 3.93887 0
M  V30 3068 H 276.608 0.965542 4.63653 0
M  V30 3069 H 277.032 3.23568 5.9467 0
M  V30 3070 H 281.674 0.985744 4.11148 0
M  V30 3071 H 279.392 4.69082 6.58018 0
M  V30 3072 H 282.978 2.85702 5.06819 0
M  V30 3073 H 281.858 4.68517 6.28857 0
M  V30 3074 N 279.361 -1.56624 0.175154 0
M  V30 3075 C 280.61 -1.96173 -0.468921 0
M  V30 3076 C 280.923 -1.06401 -1.64128 0
M  V30 3077 O 282.129 -1.35648 -2.35185 0
M  V30 3078 C 280.585 -3.48833 -0.885633 0
M  V30 3079 C 280.193 -4.47237 0.261343 0
M  V30 3080 C 281.937 -3.97194 -1.49791 0
M  V30 3081 C 279.844 -5.9114 -0.175214 0
M  V30 3082 H 278.774 -0.732455 -0.178958 0
M  V30 3083 H 281.425 -1.81591 0.263997 0
M  V30 3084 H 279.807 -3.58848 -1.67464 0
M  V30 3085 H 280.981 -4.4894 1.03871 0
M  V30 3086 H 279.296 -4.08956 0.783827 0
M  V30 3087 H 281.893 -5.02167 -1.83665 0
M  V30 3088 H 282.236 -3.40351 -2.39722 0
M  V30 3089 H 282.769 -3.90212 -0.773267 0
M  V30 3090 H 279.508 -6.51865 0.689414 0
M  V30 3091 H 279.028 -5.92735 -0.91786 0
M  V30 3092 H 280.707 -6.44044 -0.617792 0
M  V30 3093 N 280.839 0.0985539 -1.57292 0
M  V30 3094 C 281.772 1.15082 -1.97057 0
M  V30 3095 C 282.75 1.39025 -0.843255 0
M  V30 3096 O 283.934 1.52842 -1.10325 0
M  V30 3097 C 281.061 2.50069 -2.28437 0
M  V30 3098 C 280.107 2.42428 -3.509 0
M  V30 3099 S 280.94 1.84414 -5.02744 0
M  V30 3100 C 282.096 3.21032 -5.37298 0
M  V30 3101 H 282.329 0.811815 -2.86002 0
M  V30 3102 H 279.862 0.306102 -1.51335 0
M  V30 3103 H 281.82 3.27729 -2.47192 0
M  V30 3104 H 280.481 2.8114 -1.40069 0
M  V30 3105 H 279.674 3.41911 -3.70288 0
M  V30 3106 H 279.276 1.72896 -3.31637 0
M  V30 3107 H 281.568 4.17297 -5.33731 0
M  V30 3108 H 282.511 3.06452 -6.38352 0
M  V30 3109 H 282.919 3.20404 -4.64759 0
M  V30 3110 N 282.317 1.53212 0.369288 0
M  V30 3111 C 283.564 1.69215 1.11232 0
M  V30 3112 C 283.892 0.442048 1.8941 0
M  V30 3113 O 283.147 -0.575944 1.87033 0
M  V30 3114 C 283.446 2.89101 2.10132 0
M  V30 3115 C 283.112 4.25758 1.48463 0
M  V30 3116 C 281.774 4.6292 1.31372 0
M  V30 3117 C 284.126 5.10757 1.03811 0
M  V30 3118 C 281.454 5.82722 0.68207 0
M  V30 3119 C 283.806 6.31201 0.420487 0
M  V30 3120 C 282.47 6.67079 0.237038 0
M  V30 3121 H 281.74 0.619201 0.407027 0
M  V30 3122 H 284.387 1.87391 0.394552 0
M  V30 3123 H 282.692 2.65421 2.88199 0
M  V30 3124 H 284.389 2.98676 2.6757 0
M  V30 3125 H 280.979 3.96494 1.62758 0
M  V30 3126 H 285.163 4.82599 1.1581 0
M  V30 3127 H 280.419 6.09113 0.528316 0
M  V30 3128 H 284.593 6.96368 0.0662874 0
M  V30 3129 H 282.22 7.59774 -0.254477 0
M  V30 3130 N 283.795 -0.628877 1.44509 0
M  V30 3131 C 284.725 -1.75187 1.54376 0
M  V30 3132 C 285.706 -1.65411 0.396618 0
M  V30 3133 O 286.891 -1.84137 0.617031 0
M  V30 3134 C 284.021 -3.13725 1.48976 0
M  V30 3135 C 282.975 -3.38291 2.62189 0
M  V30 3136 C 282.301 -4.76883 2.41841 0
M  V30 3137 C 283.601 -3.30632 4.04326 0
M  V30 3138 H 285.295 -1.67187 2.48373 0
M  V30 3139 H 282.841 -0.802909 1.19538 0
M  V30 3140 H 284.794 -3.92064 1.54478 0
M  V30 3141 H 283.518 -3.22515 0.514961 0
M  V30 3142 H 282.177 -2.62334 2.56079 0
M  V30 3143 H 281.825 -4.82378 1.42548 0
M  V30 3144 H 281.525 -4.94278 3.17747 0
M  V30 3145 H 283.049 -5.57449 2.49165 0
M  V30 3146 H 284.463 -3.98873 4.11793 0
M  V30 3147 H 282.86 -3.59561 4.80454 0
M  V30 3148 H 283.93 -2.28404 4.27738 0
M  V30 3149 N 285.273 -1.31445 -0.869486 0
M  V30 3150 C 286.498 -1.24256 -1.66058 0
M  V30 3151 C 286.923 0.188928 -1.87149 0
M  V30 3152 O 286.281 1.13522 -1.4136 0
M  V30 3153 C 286.329 -1.9924 -3.00559 0
M  V30 3154 O 285.433 -1.33007 -3.90362 0
M  V30 3155 H 284.774 -0.428973 -0.506831 0
M  V30 3156 H 287.304 -1.73521 -1.08404 0
M  V30 3157 H 287.314 -2.08854 -3.50491 0
M  V30 3158 H 285.989 -3.03342 -2.84528 0
M  V30 3159 H 284.566 -1.31848 -3.48813 0
M  V30 3160 N 286.751 1.08385 -1.14413 0
M  V30 3161 C 287.979 1.84517 -0.936001 0
M  V30 3162 C 288.394 1.81626 0.515503 0
M  V30 3163 O 287.751 1.22008 1.35721 0
M  V30 3164 C 287.802 3.32049 -1.42918 0
M  V30 3165 O 287.523 3.34951 -2.82381 0
M  V30 3166 C 289.024 4.24986 -1.26103 0
M  V30 3167 H 286.244 0.582491 -0.333084 0
M  V30 3168 H 288.788 1.36885 -1.5193 0
M  V30 3169 H 286.943 3.7707 -0.888641 0
M  V30 3170 H 287.357 4.27048 -3.04517 0
M  V30 3171 H 288.831 5.26615 -1.6547 0
M  V30 3172 H 289.308 4.38726 -0.20392 0
M  V30 3173 H 289.914 3.85791 -1.79012 0
M  V30 3174 N 288.23 0.939286 1.26551 0
M  V30 3175 C 289.477 0.585847 1.9384 0
M  V30 3176 C 289.805 -0.874784 1.73718 0
M  V30 3177 O 289.06 -1.64092 1.06642 0
M  V30 3178 C 289.359 0.872106 3.46596 0
M  V30 3179 C 289.025 2.31632 3.86856 0
M  V30 3180 C 287.687 2.71111 3.97558 0
M  V30 3181 C 290.039 3.25494 4.07066 0
M  V30 3182 C 287.367 4.03553 4.25866 0
M  V30 3183 C 289.719 4.57531 4.36862 0
M  V30 3184 C 288.383 4.96828 4.45778 0
M  V30 3185 H 287.653 0.214377 0.709312 0
M  V30 3186 H 290.3 1.18544 1.50398 0
M  V30 3187 H 288.605 0.18996 3.91339 0
M  V30 3188 H 290.302 0.577442 3.96821 0
M  V30 3189 H 286.892 2.00008 3.79071 0
M  V30 3190 H 291.076 2.9619 3.98227 0
M  V30 3191 H 286.332 4.33665 4.30981 0
M  V30 3192 H 290.506 5.30254 4.51446 0
M  V30 3193 H 288.133 5.99482 4.67468 0
M  V30 3194 N 289.708 -1.40897 0.706093 0
M  V30 3195 C 290.933 -2.05895 0.249435 0
M  V30 3196 C 291.358 -1.52823 -1.09666 0
M  V30 3197 O 290.716 -0.659589 -1.68876 0
M  V30 3198 C 290.764 -3.59872 0.22904 0
M  V30 3199 O 289.868 -4.04708 -0.792784 0
M  V30 3200 H 289.209 -0.653206 0.119241 0
M  V30 3201 H 291.739 -1.80471 0.96391 0
M  V30 3202 H 291.749 -4.07951 0.0634791 0
M  V30 3203 H 290.424 -3.97866 1.21141 0
M  V30 3204 H 289.001 -3.68111 -0.59572 0
M  V30 3205 N 291.186 -0.45159 -1.50991 0
M  V30 3206 C 292.432 0.110237 -2.025 0
M  V30 3207 C 292.765 1.41109 -1.33424 0
M  V30 3208 O 292.04 1.89135 -0.453659 0
M  V30 3209 C 292.323 0.314271 -3.58726 0
M  V30 3210 C 292.176 -1.00623 -4.38401 0
M  V30 3211 C 293.495 1.07767 -4.26702 0
M  V30 3212 H 290.614 0.0385897 -0.735989 0
M  V30 3213 H 293.256 -0.593374 -1.80497 0
M  V30 3214 H 291.406 0.913601 -3.77605 0
M  V30 3215 H 293.078 -1.64064 -4.31139 0
M  V30 3216 H 291.321 -1.6075 -4.02917 0
M  V30 3217 H 291.992 -0.817341 -5.45915 0
M  V30 3218 H 294.468 0.56986 -4.12179 0
M  V30 3219 H 293.344 1.18921 -5.35863 0
M  V30 3220 H 293.605 2.10939 -3.88532 0
M  V30 3221 N 292.664 1.56529 -0.183458 0
M  V30 3222 C 294.075 1.83739 0.331177 0
M  V30 3223 C 294.426 1.10373 1.62211 0
M  V30 3224 O 293.551 0.36071 2.13373 0
M  V30 3225 C 294.146 3.33306 0.607646 0
M  V30 3226 C 292.705 3.60969 1.06668 0
M  V30 3227 C 291.852 2.77086 0.109029 0
M  V30 3228 H 294.803 1.53379 -0.407484 0
M  V30 3229 H 294.824 3.51444 1.45832 0
M  V30 3230 H 294.336 3.86677 -0.332086 0
M  V30 3231 H 292.437 3.13021 2.0211 0
M  V30 3232 H 292.55 4.69231 0.967447 0
M  V30 3233 H 290.914 2.47319 0.608714 0
M  V30 3234 H 291.697 3.33241 -0.82494 0
M  V30 3235 N 294.142 -0.090211 1.57342 0
M  V30 3236 C 295.372 -0.805055 1.90269 0
M  V30 3237 C 295.78 -1.72561 0.775842 0
M  V30 3238 O 295.123 -1.81839 -0.260843 0
M  V30 3239 C 295.185 -1.66734 3.18497 0
M  V30 3240 C 294.849 -0.918092 4.47683 0
M  V30 3241 C 295.846 -0.245674 5.19319 0
M  V30 3242 C 293.531 -0.890724 4.94339 0
M  V30 3243 C 295.525 0.444088 6.35851 0
M  V30 3244 C 293.212 -0.197179 6.10782 0
M  V30 3245 C 294.21 0.469044 6.81388 0
M  V30 3246 O 293.898 1.15146 7.95611 0
M  V30 3247 H 293.63 -0.235143 0.633785 0
M  V30 3248 H 296.184 -0.0703805 2.05279 0
M  V30 3249 H 294.414 -2.44437 2.99646 0
M  V30 3250 H 296.103 -2.25919 3.37217 0
M  V30 3251 H 296.869 -0.258246 4.84312 0
M  V30 3252 H 292.748 -1.39873 4.39268 0
M  V30 3253 H 296.292 0.964667 6.90898 0
M  V30 3254 H 292.189 -0.18247 6.45242 0
M  V30 3255 H 292.957 1.05885 8.11622 0
M  V30 3256 N 295.62 -1.53406 -0.361157 0
M  V30 3257 C 296.867 -1.69802 -1.10333 0
M  V30 3258 C 297.195 -0.452087 -1.89173 0
M  V30 3259 O 296.45 0.566017 -1.87336 0
M  V30 3260 C 296.749 -2.90211 -2.08596 0
M  V30 3261 C 296.415 -4.26539 -1.46203 0
M  V30 3262 C 295.077 -4.6361 -1.28915 0
M  V30 3263 C 297.429 -5.113 -1.01101 0
M  V30 3264 C 294.757 -5.83075 -0.651157 0
M  V30 3265 C 297.109 -6.31415 -0.387007 0
M  V30 3266 C 295.773 -6.67195 -0.201657 0
M  V30 3267 H 295.043 -0.621351 -0.403737 0
M  V30 3268 H 297.69 -1.87598 -0.384609 0
M  V30 3269 H 295.995 -2.66946 -2.86788 0
M  V30 3270 H 297.692 -3.00091 -2.65982 0
M  V30 3271 H 294.282 -3.97352 -1.60653 0
M  V30 3272 H 298.466 -4.83206 -1.13249 0
M  V30 3273 H 293.722 -6.09385 -0.496006 0
M  V30 3274 H 297.896 -6.96394 -0.0293563 0
M  V30 3275 H 295.523 -7.59628 0.294766 0
M  V30 3276 N 297.098 0.621204 -1.44841 0
M  V30 3277 C 298.028 1.74366 -1.55303 0
M  V30 3278 C 299.009 1.65199 -0.405385 0
M  V30 3279 O 300.194 1.83807 -0.626787 0
M  V30 3280 C 297.324 3.12931 -1.50637 0
M  V30 3281 C 296.278 3.36896 -2.63979 0
M  V30 3282 C 295.604 4.75594 -2.44366 0
M  V30 3283 C 296.904 3.28483 -4.06074 0
M  V30 3284 H 298.598 1.65867 -2.49256 0
M  V30 3285 H 296.144 0.796558 -1.19962 0
M  V30 3286 H 298.097 3.9124 -1.56555 0
M  V30 3287 H 296.821 3.22237 -0.532057 0
M  V30 3288 H 295.48 2.60972 -2.57467 0
M  V30 3289 H 295.128 4.81616 -1.45105 0
M  V30 3290 H 294.828 4.92586 -3.20364 0
M  V30 3291 H 296.352 5.5612 -2.52117 0
M  V30 3292 H 297.766 3.96684 -4.13902 0
M  V30 3293 H 296.163 3.57008 -4.82354 0
M  V30 3294 H 297.233 2.26133 -4.28943 0
M  V30 3295 N 298.576 1.31904 0.862503 0
M  V30 3296 C 299.823 1.22017 1.61611 0
M  V30 3297 C 300.151 -0.21991 1.93253 0
M  V30 3298 O 299.406 -1.17076 1.56817 0
M  V30 3299 C 299.705 2.01713 2.95037 0
M  V30 3300 C 299.371 3.51145 2.82857 0
M  V30 3301 C 298.033 3.91889 2.79243 0
M  V30 3302 C 300.385 4.46204 2.69353 0
M  V30 3303 C 297.713 5.25947 2.59993 0
M  V30 3304 C 300.065 5.80397 2.5164 0
M  V30 3305 C 298.729 6.20352 2.46413 0
M  V30 3306 H 297.999 0.44649 0.591378 0
M  V30 3307 H 300.646 1.63248 1.00111 0
M  V30 3308 H 298.951 1.53185 3.60613 0
M  V30 3309 H 300.648 1.91437 3.52353 0
M  V30 3310 H 297.238 3.1878 2.86491 0
M  V30 3311 H 301.422 4.15652 2.71196 0
M  V30 3312 H 296.678 5.5597 2.54376 0
M  V30 3313 H 300.852 6.53676 2.40169 0
M  V30 3314 H 298.479 7.24172 2.31256 0
M  V30 3315 N 300.054 -1.07777 1.14986 0
M  V30 3316 C 300.986 -2.14769 0.800436 0
M  V30 3317 C 301.999 -1.61739 -0.185595 0
M  V30 3318 O 303.188 -1.78462 0.0370358 0
M  V30 3319 C 300.288 -3.38481 0.168533 0
M  V30 3320 C 299.461 -4.20876 1.1909 0
M  V30 3321 C 298.52 -5.22976 0.581575 0
M  V30 3322 O 297.546 -5.55388 1.24633 0
M  V30 3323 N 298.748 -5.76976 -0.638706 0
M  V30 3324 H 301.513 -2.45348 1.72118 0
M  V30 3325 H 299.074 -1.23645 1.04515 0
M  V30 3326 H 301.066 -4.03916 -0.251764 0
M  V30 3327 H 299.636 -3.05651 -0.655467 0
M  V30 3328 H 298.856 -3.51322 1.78791 0
M  V30 3329 H 300.144 -4.7274 1.88133 0
M  V30 3330 H 299.542 -5.52886 -1.19723 0
M  V30 3331 H 298.099 -6.44061 -1.00142 0
M  V30 3332 N 301.532 -0.945985 -1.26051 0
M  V30 3333 C 302.482 -0.430164 -2.23905 0
M  V30 3334 C 303.466 0.47579 -1.53704 0
M  V30 3335 O 304.658 0.310252 -1.7426 0
M  V30 3336 C 301.787 0.298957 -3.41996 0
M  V30 3337 C 300.873 -0.624566 -4.19476 0
M  V30 3338 N 301.264 -1.75245 -4.74471 0
M  V30 3339 C 299.562 -0.431082 -4.43912 0
M  V30 3340 C 300.263 -2.32834 -5.3307 0
M  V30 3341 N 299.239 -1.61583 -5.1903 0
M  V30 3342 H 303.041 -1.29107 -2.64024 0
M  V30 3343 H 300.555 -0.802428 -1.41191 0
M  V30 3344 H 302.552 0.685565 -4.11225 0
M  V30 3345 H 301.212 1.15657 -3.03403 0
M  V30 3346 H 302.223 -2.13449 -4.71868 0
M  V30 3347 H 298.9 0.384364 -4.15727 0
M  V30 3348 H 300.29 -3.27893 -5.86461 0
M  V30 3349 N 303.011 1.40521 -0.713556 0
M  V30 3350 C 304.257 2.01714 -0.261382 0
M  V30 3351 C 304.612 1.55562 1.13217 0
M  V30 3352 O 303.905 0.764893 1.7567 0
M  V30 3353 C 304.099 3.56317 -0.278 0
M  V30 3354 C 303.928 4.17476 -1.67163 0
M  V30 3355 C 302.698 4.50998 -2.2788 0
M  V30 3356 C 304.896 4.42472 -2.6215 0
M  V30 3357 N 302.878 4.9754 -3.5962 0
M  V30 3358 C 304.249 4.90985 -3.78594 0
M  V30 3359 C 306.304 4.24508 -2.60188 0
M  V30 3360 C 305.007 5.2342 -4.9338 0
M  V30 3361 C 307.033 4.58043 -3.741 0
M  V30 3362 C 306.395 5.06743 -4.89276 0
M  V30 3363 H 302.494 0.769104 -0.141434 0
M  V30 3364 H 305.078 1.70785 -0.934915 0
M  V30 3365 H 303.249 3.8668 0.36509 0
M  V30 3366 H 304.981 4.0425 0.190695 0
M  V30 3367 H 301.736 4.38062 -1.79997 0
M  V30 3368 H 302.16 5.25196 -4.27198 0
M  V30 3369 H 306.802 3.86078 -1.72348 0
M  V30 3370 H 304.52 5.60765 -5.81866 0
M  V30 3371 H 308.106 4.45785 -3.73854 0
M  V30 3372 H 306.986 5.32204 -5.75959 0
M  V30 3373 N 304.489 0.459591 1.5075 0
M  V30 3374 C 305.452 -0.329093 2.26825 0
M  V30 3375 C 306.452 -0.930481 1.31144 0
M  V30 3376 O 307.642 -0.801453 1.54669 0
M  V30 3377 C 304.774 -1.46768 3.07688 0
M  V30 3378 H 305.967 0.337924 2.9799 0
M  V30 3379 H 303.52 0.213336 1.54837 0
M  V30 3380 H 304.255 -2.17009 2.40993 0
M  V30 3381 H 304.04 -1.04238 3.77991 0
M  V30 3382 H 305.53 -2.02433 3.65254 0
M  V30 3383 N 305.967 -1.56429 0.191757 0
M  V30 3384 C 307.195 -2.01867 -0.453586 0
M  V30 3385 C 307.61 -1.07191 -1.5542 0
M  V30 3386 O 306.967 -0.0762108 -1.82341 0
M  V30 3387 C 307.018 -3.47017 -1.013 0
M  V30 3388 O 306.739 -4.38078 0.0437005 0
M  V30 3389 C 308.24 -4.07956 -1.73456 0
M  V30 3390 H 305.46 -0.661211 -0.114199 0
M  V30 3391 H 308.004 -2.02295 0.299483 0
M  V30 3392 H 306.159 -3.47298 -1.71647 0
M  V30 3393 H 306.573 -5.23178 -0.372212 0
M  V30 3394 H 308.047 -5.1138 -2.07833 0
M  V30 3395 H 308.524 -3.51222 -2.63704 0
M  V30 3396 H 309.13 -4.11437 -1.07702 0
M  V30 3397 N 307.445 0.0818655 -1.57387 0
M  V30 3398 C 308.693 0.781368 -1.86384 0
M  V30 3399 C 309.014 1.78618 -0.782342 0
M  V30 3400 O 308.284 1.94976 0.190061 0
M  V30 3401 H 306.864 0.291562 -0.687751 0
M  V30 3402 H 309.526 0.060348 -1.94807 0
M  V30 3403 H 308.622 1.3038 -2.83562 0
M  V30 3404 N 308.923 1.53595 0.353017 0
M  V30 3405 C 310.153 1.74058 1.11299 0
M  V30 3406 C 310.561 0.475205 1.83135 0
M  V30 3407 O 309.904 -0.562344 1.74881 0
M  V30 3408 C 309.966 2.85994 2.17825 0
M  V30 3409 C 309.63 4.25923 1.65647 0
M  V30 3410 C 310.627 5.07829 1.11383 0
M  V30 3411 C 308.312 4.72377 1.7078 0
M  V30 3412 C 310.306 6.34285 0.629439 0
M  V30 3413 C 307.993 5.98808 1.21953 0
M  V30 3414 C 308.991 6.79594 0.681265 0
M  V30 3415 O 308.679 8.03651 0.200248 0
M  V30 3416 H 308.411 0.585327 0.338183 0
M  V30 3417 H 310.965 2.01186 0.413927 0
M  V30 3418 H 309.195 2.54368 2.91262 0
M  V30 3419 H 310.884 2.94515 2.79313 0
M  V30 3420 H 311.65 4.73107 1.06746 0
M  V30 3421 H 307.529 4.0956 2.11617 0
M  V30 3422 H 311.073 6.97288 0.208636 0
M  V30 3423 H 306.97 6.33026 1.26287 0
M  V30 3424 H 307.738 8.1788 0.318416 0
M  V30 3425 N 310.401 -0.613514 1.45168 0
M  V30 3426 C 311.626 -1.40437 1.52618 0
M  V30 3427 C 312.051 -1.87438 0.157707 0
M  V30 3428 O 311.409 -1.59791 -0.856537 0
M  V30 3429 C 311.457 -2.58894 2.51011 0
M  V30 3430 O 310.561 -3.59326 2.02382 0
M  V30 3431 H 309.902 -0.419506 0.514695 0
M  V30 3432 H 312.432 -0.747215 1.90467 0
M  V30 3433 H 312.442 -3.06214 2.69624 0
M  V30 3434 H 311.117 -2.24032 3.50403 0
M  V30 3435 H 309.694 -3.18695 1.93618 0
M  V30 3436 N 311.879 -1.3236 -0.855495 0
M  V30 3437 C 312.826 -1.21225 -1.964 0
M  V30 3438 C 313.796 -0.0946204 -1.6583 0
M  V30 3439 O 314.981 -0.27002 -1.8888 0
M  V30 3440 C 312.121 -0.940419 -3.32039 0
M  V30 3441 C 311.234 -2.14276 -3.75113 0
M  V30 3442 C 310.369 -1.80648 -4.9954 0
M  V30 3443 C 309.408 -2.97208 -5.35102 0
M  V30 3444 N 308.545 -2.63678 -6.50706 0
M  V30 3445 H 313.385 -2.16042 -2.05255 0
M  V30 3446 H 310.922 -1.07451 -1.00463 0
M  V30 3447 H 312.88 -0.763311 -4.10158 0
M  V30 3448 H 311.51 -0.0290413 -3.22787 0
M  V30 3449 H 310.562 -2.43017 -2.92655 0
M  V30 3450 H 311.874 -3.01468 -3.97389 0
M  V30 3451 H 311.028 -1.59484 -5.85363 0
M  V30 3452 H 309.767 -0.906678 -4.79198 0
M  V30 3453 H 308.772 -3.19004 -4.47791 0
M  V30 3454 H 309.997 -3.87918 -5.57401 0
M  V30 3455 H 307.943 -1.76238 -6.31883 0
M  V30 3456 H 307.86 -3.444 -6.72997 0
M  V30 3457 H 309.128 -2.45942 -7.39684 0
M  V30 3458 N 313.357 1.07166 -1.15556 0
M  V30 3459 C 314.582 1.84053 -0.955988 0
M  V30 3460 C 315.007 1.81586 0.490739 0
M  V30 3461 O 314.365 1.21018 1.34997 0
M  V30 3462 C 314.413 3.28957 -1.47714 0
M  V30 3463 O 313.517 4.06795 -0.677593 0
M  V30 3464 H 312.858 0.569842 -0.340847 0
M  V30 3465 H 315.388 1.35178 -1.53584 0
M  V30 3466 H 315.398 3.79788 -1.4908 0
M  V30 3467 H 314.073 3.30068 -2.53037 0
M  V30 3468 H 312.65 3.6561 -0.733721 0
M  V30 3469 N 314.835 0.952656 1.25548 0
M  V30 3470 C 316.06 0.623025 1.97821 0
M  V30 3471 C 316.485 -0.7976 1.70352 0
M  V30 3472 O 315.843 -1.53905 0.958283 0
M  V30 3473 C 315.891 0.885532 3.49558 0
M  V30 3474 O 314.995 -0.0366641 4.12384 0
M  V30 3475 H 314.336 0.237082 0.620232 0
M  V30 3476 H 316.866 1.27871 1.59719 0
M  V30 3477 H 316.876 0.811009 3.99858 0
M  V30 3478 H 315.551 1.92094 3.6888 0
M  V30 3479 H 314.128 0.0898954 3.72792 0
M  V30 3480 N 316.313 -1.40141 0.720998 0
M  V30 3481 C 317.263 -2.27949 0.0482544 0
M  V30 3482 C 318.247 -1.43538 -0.727021 0
M  V30 3483 O 319.439 -1.6658 -0.598332 0
M  V30 3484 C 316.568 -3.32126 -0.868729 0
M  V30 3485 C 315.654 -4.24008 -0.0883515 0
M  V30 3486 N 316.045 -4.97154 0.931226 0
M  V30 3487 C 314.343 -4.4485 -0.320105 0
M  V30 3488 C 315.044 -5.64587 1.4006 0
M  V30 3489 N 314.02 -5.38787 0.721752 0
M  V30 3490 H 317.822 -2.81948 0.829609 0
M  V30 3491 H 315.336 -1.52656 0.554067 0
M  V30 3492 H 317.333 -3.93884 -1.36605 0
M  V30 3493 H 315.993 -2.79687 -1.6494 0
M  V30 3494 H 317.004 -5.01 1.31222 0
M  V30 3495 H 313.681 -4.03378 -1.07668 0
M  V30 3496 H 315.071 -6.33175 2.24808 0
M  V30 3497 N 317.792 -0.46758 -1.50504 0
M  V30 3498 C 319.203 -0.0116166 -1.86696 0
M  V30 3499 C 319.554 1.39202 -1.38265 0
M  V30 3500 O 318.679 2.0313 -0.746132 0
M  V30 3501 C 319.274 -0.0143044 -3.38797 0
M  V30 3502 C 317.833 0.386175 -3.74414 0
M  V30 3503 C 316.98 -0.401287 -2.74381 0
M  V30 3504 H 319.931 -0.682022 -1.43297 0
M  V30 3505 H 319.952 0.788641 -3.72237 0
M  V30 3506 H 319.464 -1.03602 -3.74016 0
M  V30 3507 H 317.565 1.41237 -3.44794 0
M  V30 3508 H 317.678 0.0899596 -4.79016 0
M  V30 3509 H 316.042 0.144536 -2.5429 0
M  V30 3510 H 316.825 -1.42244 -3.12444 0
M  V30 3511 N 319.27 1.56325 -0.20005 0
M  V30 3512 C 320.2 2.22318 0.713916 0
M  V30 3513 C 321.181 1.18788 1.21752 0
M  V30 3514 O 322.366 1.47309 1.26545 0
M  V30 3515 C 319.496 2.88639 1.93144 0
M  V30 3516 C 318.45 3.98457 1.56255 0
M  V30 3517 C 317.776 4.51967 2.85709 0
M  V30 3518 C 319.076 5.16612 0.768747 0
M  V30 3519 H 320.77 2.98952 0.163755 0
M  V30 3520 H 318.316 1.43792 0.0773219 0
M  V30 3521 H 320.269 3.33491 2.57608 0
M  V30 3522 H 318.993 2.09419 2.50621 0
M  V30 3523 H 317.652 3.54305 0.941471 0
M  V30 3524 H 317.3 3.69503 3.41287 0
M  V30 3525 H 317 5.26071 2.6177 0
M  V30 3526 H 318.524 4.99523 3.51154 0
M  V30 3527 H 319.938 5.57977 1.3166 0
M  V30 3528 H 318.335 5.96812 0.627286 0
M  V30 3529 H 319.405 4.84358 -0.229168 0
M  V30 3530 N 320.748 -0.0735177 1.57428 0
M  V30 3531 C 321.997 -0.771809 1.86349 0
M  V30 3532 C 322.31 -1.78828 0.792452 0
M  V30 3533 O 323.516 -2.53602 0.96945 0
M  V30 3534 C 321.972 -1.42358 3.30548 0
M  V30 3535 C 321.58 -0.445761 4.45777 0
M  V30 3536 C 323.324 -2.10434 3.6867 0
M  V30 3537 C 321.231 -1.10335 5.81016 0
M  V30 3538 H 320.161 -0.291999 0.695164 0
M  V30 3539 H 322.812 -0.0250749 1.83483 0
M  V30 3540 H 321.194 -2.21852 3.28021 0
M  V30 3541 H 322.368 0.319239 4.59693 0
M  V30 3542 H 320.683 0.130457 4.16196 0
M  V30 3543 H 323.28 -2.60405 4.67004 0
M  V30 3544 H 323.623 -2.90298 2.98383 0
M  V30 3545 H 324.156 -1.37773 3.7318 0
M  V30 3546 H 320.895 -0.345061 6.54591 0
M  V30 3547 H 320.415 -1.83925 5.70904 0
M  V30 3548 H 322.094 -1.62367 6.26295 0
M  V30 3549 N 322.226 -1.5378 -0.344866 0
M  V30 3550 C 323.642 -1.44015 -0.687888 0
M  V30 3551 C 323.842 -0.595834 -1.92489 0
M  V30 3552 O 322.898 -0.0863064 -2.52352 0
M  V30 3553 C 324.211 -2.87481 -0.881758 0
M  V30 3554 C 325.759 -2.97247 -0.980459 0
M  V30 3555 C 326.234 -4.41819 -1.20665 0
M  V30 3556 N 327.725 -4.45339 -1.27389 0
M  V30 3557 C 328.46 -5.54333 -1.46639 0
M  V30 3558 N 327.956 -6.73335 -1.63071 0
M  V30 3559 N 329.749 -5.41944 -1.49176 0
M  V30 3560 H 321.9 -2.07169 0.468475 0
M  V30 3561 H 324.163 -0.93643 0.147655 0
M  V30 3562 H 323.869 -3.51672 -0.0443444 0
M  V30 3563 H 323.743 -3.32352 -1.78388 0
M  V30 3564 H 326.13 -2.33197 -1.8084 0
M  V30 3565 H 326.211 -2.5574 -0.0552713 0
M  V30 3566 H 325.855 -5.06449 -0.383652 0
M  V30 3567 H 325.785 -4.80917 -2.14539 0
M  V30 3568 H 328.276 -3.59585 -1.1622 0
M  V30 3569 H 328.589 -7.52165 -1.77391 0
M  V30 3570 H 326.934 -6.76282 -1.60209 0
M  V30 3571 H 330.125 -4.47932 -1.3592 0
M  V30 3572 H 330.298 -6.26946 -1.63837 0
M  V30 3573 N 323.704 0.605807 -1.45491 0
M  V30 3574 C 324.929 1.39625 -1.53361 0
M  V30 3575 C 325.354 1.87351 -0.167645 0
M  V30 3576 O 324.712 1.60243 0.848051 0
M  V30 3577 C 324.76 2.57559 -2.5238 0
M  V30 3578 O 323.864 3.58248 -2.04285 0
M  V30 3579 H 323.205 0.416771 -0.516912 0
M  V30 3580 H 325.735 0.737103 -1.90861 0
M  V30 3581 H 325.745 3.0478 -2.71244 0
M  V30 3582 H 324.42 2.22171 -3.51586 0
M  V30 3583 H 322.997 3.17664 -1.95305 0
M  V30 3584 N 325.182 1.32811 0.848464 0
M  V30 3585 C 326.112 1.24882 1.97299 0
M  V30 3586 C 327.093 0.131357 1.69592 0
M  V30 3587 O 328.278 0.319553 1.91553 0
M  V30 3588 C 325.408 0.97746 3.33261 0
M  V30 3589 C 324.362 2.05682 3.75338 0
M  V30 3590 C 323.688 1.63777 5.09 0
M  V30 3591 C 324.988 3.47254 3.90144 0
M  V30 3592 H 326.682 2.18966 2.04191 0
M  V30 3593 H 324.228 1.05413 0.981029 0
M  V30 3594 H 326.181 0.908513 4.1149 0
M  V30 3595 H 324.905 0.000980011 3.266 0
M  V30 3596 H 323.564 2.11603 2.99366 0
M  V30 3597 H 323.212 0.648569 4.98801 0
M  V30 3598 H 322.912 2.36 5.38124 0
M  V30 3599 H 324.436 1.5833 5.89715 0
M  V30 3600 H 325.85 3.43888 4.58709 0
M  V30 3601 H 324.247 4.1788 4.30693 0
M  V30 3602 H 325.317 3.86462 2.92874 0
M  V30 3603 N 326.66 -1.06551 1.16123 0
M  V30 3604 C 327.907 -1.79302 0.941126 0
M  V30 3605 C 328.235 -1.87105 -0.531235 0
M  V30 3606 O 327.49 -1.35692 -1.41018 0
M  V30 3607 C 327.789 -3.23911 1.51052 0
M  V30 3608 C 327.455 -3.36193 3.00475 0
M  V30 3609 C 326.117 -3.39252 3.41265 0
M  V30 3610 C 328.469 -3.38326 3.96465 0
M  V30 3611 C 325.797 -3.42057 4.76669 0
M  V30 3612 C 328.149 -3.4267 5.31752 0
M  V30 3613 C 326.813 -3.4401 5.72026 0
M  V30 3614 H 326.083 -0.656111 0.344382 0
M  V30 3615 H 328.73 -1.25325 1.44796 0
M  V30 3616 H 327.035 -3.80723 0.925063 0
M  V30 3617 H 328.732 -3.78793 1.31593 0
M  V30 3618 H 325.322 -3.34516 2.6795 0
M  V30 3619 H 329.506 -3.35176 3.6602 0
M  V30 3620 H 324.762 -3.41398 5.07206 0
M  V30 3621 H 328.936 -3.43268 6.05921 0
M  V30 3622 H 326.563 -3.45937 6.76928 0
M  V30 3623 N 328.138 -0.959301 -1.25041 0
M  V30 3624 C 329.088 -0.453888 -2.23436 0
M  V30 3625 C 330.072 0.459461 -1.542 0
M  V30 3626 O 331.264 0.291752 -1.74579 0
M  V30 3627 C 328.393 0.262667 -3.42294 0
M  V30 3628 C 327.479 -0.669022 -4.1879 0
M  V30 3629 N 327.87 -1.80267 -4.72586 0
M  V30 3630 C 326.168 -0.47814 -4.4343 0
M  V30 3631 C 326.869 -2.38475 -5.3057 0
M  V30 3632 N 325.845 -1.67078 -5.17287 0
M  V30 3633 H 329.647 -1.319 -2.6264 0
M  V30 3634 H 327.161 -0.817358 -1.40332 0
M  V30 3635 H 329.158 0.641911 -4.11929 0
M  V30 3636 H 327.818 1.12432 -3.04613 0
M  V30 3637 H 328.829 -2.18442 -4.69578 0
M  V30 3638 H 325.506 0.340249 -4.16111 0
M  V30 3639 H 326.896 -3.34094 -5.8295 0
M  V30 3640 N 329.616 1.39756 -0.72842 0
M  V30 3641 C 330.864 2.00248 -0.272946 0
M  V30 3642 C 331.185 1.58077 1.14178 0
M  V30 3643 O 330.455 0.826014 1.77634 0
M  V30 3644 H 329.035 0.740554 -0.0979247 0
M  V30 3645 H 331.697 1.70903 -0.936912 0
M  V30 3646 H 330.793 3.10495 -0.316142 0
M  V30 3647 N 331.094 0.475555 1.50254 0
M  V30 3648 C 332.341 -0.0778919 2.0235 0
M  V30 3649 C 332.669 -1.39319 1.35722 0
M  V30 3650 O 331.924 -1.89888 0.473395 0
M  V30 3651 C 332.223 -0.305114 3.56095 0
M  V30 3652 C 331.889 0.92903 4.41225 0
M  V30 3653 C 330.551 1.26739 4.6421 0
M  V30 3654 C 332.903 1.75054 4.90923 0
M  V30 3655 C 330.231 2.42724 5.34137 0
M  V30 3656 C 332.583 2.9017 5.62125 0
M  V30 3657 C 331.247 3.24416 5.83362 0
M  V30 3658 H 330.517 -0.0285027 0.740452 0
M  V30 3659 H 333.164 0.630543 1.80821 0
M  V30 3660 H 331.469 -1.09584 3.76163 0
M  V30 3661 H 333.166 -0.747377 3.93974 0
M  V30 3662 H 329.756 0.655428 4.23559 0
M  V30 3663 H 333.94 1.50231 4.73016 0
M  V30 3664 H 329.196 2.69525 5.48786 0
M  V30 3665 H 333.37 3.54169 5.99614 0
M  V30 3666 H 330.997 4.14396 6.37323 0
M  V30 3667 N 332.573 -1.56217 0.208337 0
M  V30 3668 C 333.503 -2.22694 -0.702116 0
M  V30 3669 C 334.484 -1.19432 -1.2112 0
M  V30 3670 O 335.669 -1.47978 -1.25762 0
M  V30 3671 C 332.799 -2.8966 -1.9161 0
M  V30 3672 C 331.753 -3.9928 -1.5414 0
M  V30 3673 C 331.079 -4.53476 -2.83308 0
M  V30 3674 C 332.379 -5.17012 -0.741339 0
M  V30 3675 H 334.073 -2.99034 -0.147898 0
M  V30 3676 H 331.619 -1.43831 -0.0696951 0
M  V30 3677 H 333.572 -3.34852 -2.55836 0
M  V30 3678 H 332.296 -2.10746 -2.49507 0
M  V30 3679 H 330.955 -3.54799 -0.922668 0
M  V30 3680 H 330.603 -3.71308 -3.39322 0
M  V30 3681 H 330.303 -5.27451 -2.58976 0
M  V30 3682 H 331.827 -5.01378 -3.485 0
M  V30 3683 H 333.241 -5.58667 -1.28699 0
M  V30 3684 H 331.638 -5.97137 -0.595627 0
M  V30 3685 H 332.708 -4.8423 0.254851 0
M  V30 3686 N 334.051 0.0651679 -1.57465 0
M  V30 3687 C 335.298 0.763063 -1.87573 0
M  V30 3688 C 335.626 1.77242 -0.800961 0
M  V30 3689 O 334.881 1.94651 0.202316 0
M  V30 3690 C 335.18 1.50081 -3.24362 0
M  V30 3691 C 334.846 0.630816 -4.46466 0
M  V30 3692 C 333.508 0.391082 -4.79608 0
M  V30 3693 C 335.86 0.0279465 -5.21193 0
M  V30 3694 C 333.188 -0.460894 -5.84887 0
M  V30 3695 C 335.54 -0.811522 -6.27373 0
M  V30 3696 C 334.204 -1.06106 -6.59013 0
M  V30 3697 H 333.474 0.279224 -0.686378 0
M  V30 3698 H 336.121 0.0236726 -1.91485 0
M  V30 3699 H 334.426 2.31258 -3.16271 0
M  V30 3700 H 336.123 2.04571 -3.44894 0
M  V30 3701 H 332.713 0.8278 -4.2053 0
M  V30 3702 H 336.897 0.200262 -4.95896 0
M  V30 3703 H 332.153 -0.662907 -6.07796 0
M  V30 3704 H 336.327 -1.28537 -6.84435 0
M  V30 3705 H 333.954 -1.723 -7.40417 0
M  V30 3706 N 335.529 1.53961 0.336706 0
M  V30 3707 C 336.462 1.77255 1.43722 0
M  V30 3708 C 337.44 0.62193 1.50236 0
M  V30 3709 O 338.624 0.857874 1.67847 0
M  V30 3710 C 335.751 1.87733 2.81912 0
M  V30 3711 C 334.797 3.09933 2.92991 0
M  V30 3712 S 335.63 4.68836 2.58753 0
M  V30 3713 C 336.786 4.82202 3.99039 0
M  V30 3714 H 337.019 2.70322 1.23748 0
M  V30 3715 H 334.552 1.44917 0.532777 0
M  V30 3716 H 336.51 1.94455 3.61521 0
M  V30 3717 H 335.171 0.956666 2.99177 0
M  V30 3718 H 334.364 3.1396 3.94265 0
M  V30 3719 H 333.966 3.01472 2.21338 0
M  V30 3720 H 336.258 4.64032 4.9364 0
M  V30 3721 H 337.201 5.84298 4.00002 0
M  V30 3722 H 337.609 4.10604 3.87382 0
M  V30 3723 N 337.007 -0.598083 1.45811 0
M  V30 3724 C 338.256 -1.35295 1.49594 0
M  V30 3725 C 338.569 -1.95057 0.145679 0
M  V30 3726 O 339.775 -2.71431 0.0612099 0
M  V30 3727 C 338.231 -2.45124 2.63519 0
M  V30 3728 C 337.839 -1.91732 4.04899 0
M  V30 3729 C 339.583 -3.2205 2.76558 0
M  V30 3730 C 337.49 -2.991 5.1019 0
M  V30 3731 H 336.42 -0.508552 0.556679 0
M  V30 3732 H 339.071 -0.639977 1.71978 0
M  V30 3733 H 337.453 -3.19149 2.34435 0
M  V30 3734 H 338.627 -1.24352 4.43704 0
M  V30 3735 H 336.942 -1.27522 3.96393 0
M  V30 3736 H 339.539 -4.0215 3.52391 0
M  V30 3737 H 339.882 -3.73663 1.83526 0
M  V30 3738 H 340.415 -2.55127 3.05213 0
M  V30 3739 H 337.154 -2.52393 6.04961 0
M  V30 3740 H 336.674 -3.65017 4.75944 0
M  V30 3741 H 338.353 -3.63318 5.35359 0
M  V30 3742 N 338.485 -1.33259 -0.841409 0
M  V30 3743 C 339.732 -1.24572 -1.5965 0
M  V30 3744 C 340.06 0.189137 -1.93578 0
M  V30 3745 O 339.315 1.14566 -1.5866 0
M  V30 3746 C 339.614 -2.06381 -2.9179 0
M  V30 3747 C 339.28 -3.556 -2.77235 0
M  V30 3748 C 337.942 -3.96282 -2.72973 0
M  V30 3749 C 340.294 -4.50433 -2.62221 0
M  V30 3750 C 337.622 -5.30017 -2.51592 0
M  V30 3751 C 339.974 -5.84327 -2.42374 0
M  V30 3752 C 338.638 -6.24194 -2.36512 0
M  V30 3753 H 337.908 -0.455842 -0.5842 0
M  V30 3754 H 340.555 -1.6482 -0.975016 0
M  V30 3755 H 338.86 -1.58903 -3.5813 0
M  V30 3756 H 340.557 -1.97019 -3.49263 0
M  V30 3757 H 337.147 -3.23298 -2.81384 0
M  V30 3758 H 341.331 -4.19914 -2.64549 0
M  V30 3759 H 336.587 -5.59947 -2.45499 0
M  V30 3760 H 340.761 -6.57414 -2.29739 0
M  V30 3761 H 338.388 -7.27759 -2.19706 0
M  V30 3762 N 339.963 1.05934 -1.16686 0
M  V30 3763 C 340.895 2.13468 -0.834503 0
M  V30 3764 C 341.908 1.62013 0.15984 0
M  V30 3765 O 343.097 1.7838 -0.0654228 0
M  V30 3766 C 340.197 3.3817 -0.222361 0
M  V30 3767 C 339.37 4.18928 -1.25771 0
M  V30 3768 C 338.429 5.21985 -0.664703 0
M  V30 3769 O 337.455 5.53334 -1.33453 0
M  V30 3770 N 338.657 5.77919 0.546834 0
M  V30 3771 H 341.422 2.42578 -1.75999 0
M  V30 3772 H 338.983 1.21967 -1.06469 0
M  V30 3773 H 340.975 4.04266 0.187472 0
M  V30 3774 H 339.545 3.06655 0.606758 0
M  V30 3775 H 338.765 3.48433 -1.84358 0
M  V30 3776 H 340.053 4.69687 -1.95631 0
M  V30 3777 H 339.451 5.54721 1.10912 0
M  V30 3778 H 338.008 6.45573 0.898829 0
M  V30 3779 N 341.441 0.965919 1.2453 0
M  V30 3780 C 342.69 0.622437 1.91856 0
M  V30 3781 C 343.003 -0.846006 1.76358 0
M  V30 3782 O 344.209 -1.29993 2.38357 0
M  V30 3783 C 342.665 1.0626 3.43856 0
M  V30 3784 C 342.273 2.55437 3.68043 0
M  V30 3785 C 344.017 0.792183 4.17043 0
M  V30 3786 C 341.924 2.93196 5.13605 0
M  V30 3787 H 340.854 0.229092 0.718354 0
M  V30 3788 H 343.505 1.17189 1.41206 0
M  V30 3789 H 341.887 0.441476 3.93531 0
M  V30 3790 H 343.061 3.22665 3.28974 0
M  V30 3791 H 341.376 2.8007 3.08139 0
M  V30 3792 H 343.973 1.05031 5.24283 0
M  V30 3793 H 344.316 -0.271584 4.15413 0
M  V30 3794 H 344.849 1.37419 3.73311 0
M  V30 3795 H 341.588 3.98636 5.20355 0
M  V30 3796 H 341.108 2.30651 5.53679 0
M  V30 3797 H 342.787 2.83004 5.81823 0
M  V30 3798 N 342.919 -1.39368 0.735821 0
M  V30 3799 C 344.167 -2.00101 0.283562 0
M  V30 3800 C 344.488 -1.5868 -1.13338 0
M  V30 3801 O 343.758 -0.835423 -1.77193 0
M  V30 3802 H 342.338 -0.740024 0.101851 0
M  V30 3803 H 345 -1.70404 0.945962 0
M  V30 3804 H 344.096 -3.10323 0.332604 0
M  V30 3805 N 344.397 -0.483516 -1.5 0
M  V30 3806 C 345.643 0.0672592 -2.02688 0
M  V30 3807 C 345.976 1.38247 -1.36387 0
M  V30 3808 O 345.251 1.88131 -0.493675 0
M  V30 3809 C 345.534 0.238109 -3.59312 0
M  V30 3810 C 345.387 -1.099 -4.36168 0
M  V30 3811 C 346.706 0.986916 -4.28892 0
M  V30 3812 H 343.825 0.0229696 -0.736642 0
M  V30 3813 H 346.467 -0.631527 -1.79197 0
M  V30 3814 H 344.617 0.8333 -3.79458 0
M  V30 3815 H 346.289 -1.73172 -4.27562 0
M  V30 3816 H 344.532 -1.69261 -3.99416 0
M  V30 3817 H 345.203 -0.932954 -5.44059 0
M  V30 3818 H 347.679 0.482302 -4.13295 0
M  V30 3819 H 346.555 1.07527 -5.38265 0
M  V30 3820 H 346.816 2.0265 -3.92919 0
M  V30 3821 N 345.875 1.56104 -0.216619 0
M  V30 3822 C 346.805 2.23063 0.690296 0
M  V30 3823 C 347.786 1.20072 1.20485 0
M  V30 3824 O 348.971 1.48643 1.24976 0
M  V30 3825 C 346.101 2.90672 1.90072 0
M  V30 3826 C 345.055 4.00092 1.5202 0
M  V30 3827 C 344.381 4.54972 2.80899 0
M  V30 3828 C 345.681 5.17398 0.71391 0
M  V30 3829 H 347.375 2.99109 0.132038 0
M  V30 3830 H 344.921 1.43866 0.0620664 0
M  V30 3831 H 346.874 3.36204 2.54057 0
M  V30 3832 H 345.598 2.12066 2.48386 0
M  V30 3833 H 344.257 3.55283 0.903839 0
M  V30 3834 H 343.905 3.73102 3.37348 0
M  V30 3835 H 343.605 5.28817 2.56176 0
M  V30 3836 H 345.129 5.0322 3.45836 0
M  V30 3837 H 346.543 5.59342 1.25735 0
M  V30 3838 H 344.94 5.97444 0.563951 0
M  V30 3839 H 346.01 4.84088 -0.280527 0
M  V30 3840 N 347.353 -0.0568162 1.57498 0
M  V30 3841 C 348.601 -0.751617 1.87604 0
M  V30 3842 C 348.922 -1.77351 0.81066 0
M  V30 3843 O 348.192 -1.95254 -0.159018 0
M  V30 3844 H 346.772 -0.280583 0.692302 0
M  V30 3845 H 349.434 -0.0293483 1.94878 0
M  V30 3846 H 348.53 -1.25852 2.856 0
M  V30 3847 N 348.832 -1.54138 -0.328536 0
M  V30 3848 C 350.079 -1.72105 -1.06706 0
M  V30 3849 C 350.407 -0.492111 -1.88171 0
M  V30 3850 O 349.662 0.526153 -1.88494 0
M  V30 3851 C 349.961 -2.9457 -2.02393 0
M  V30 3852 C 349.627 -4.29544 -1.37122 0
M  V30 3853 C 348.289 -4.6624 -1.19052 0
M  V30 3854 C 350.641 -5.1333 -0.902331 0
M  V30 3855 C 347.969 -5.84325 -0.527331 0
M  V30 3856 C 350.321 -6.32094 -0.252988 0
M  V30 3857 C 348.985 -6.67473 -0.0600901 0
M  V30 3858 H 348.255 -0.629775 -0.390466 0
M  V30 3859 H 350.902 -1.88372 -0.34473 0
M  V30 3860 H 349.207 -2.72969 -2.81061 0
M  V30 3861 H 350.904 -3.05665 -2.59557 0
M  V30 3862 H 347.494 -4.0067 -1.52188 0
M  V30 3863 H 351.678 -4.855 -1.02974 0
M  V30 3864 H 346.934 -6.103 -0.366634 0
M  V30 3865 H 351.108 -6.96299 0.118366 0
M  V30 3866 H 348.735 -7.58832 0.455828 0
M  V30 3867 N 350.31 0.590341 -1.46126 0
M  V30 3868 C 351.558 1.34616 -1.50742 0
M  V30 3869 C 351.879 1.94363 -0.157486 0
M  V30 3870 O 351.149 1.78136 0.815136 0
M  V30 3871 H 349.729 0.499789 -0.555175 0
M  V30 3872 H 352.391 0.691953 -1.82203 0
M  V30 3873 H 351.487 2.15678 -2.25587 0
M  V30 3874 N 351.788 1.33704 0.83433 0
M  V30 3875 C 353.199 1.22813 1.4062 0
M  V30 3876 C 353.55 -0.151107 1.95617 0
M  V30 3877 O 352.675 -1.05092 1.89168 0
M  V30 3878 C 353.27 2.22355 2.55624 0
M  V30 3879 C 351.829 2.1529 3.08751 0
M  V30 3880 C 350.976 2.09589 1.8157 0
M  V30 3881 H 353.927 1.45236 0.639702 0
M  V30 3882 H 353.948 1.83391 3.33389 0
M  V30 3883 H 353.46 3.22728 2.15566 0
M  V30 3884 H 351.561 1.18235 3.53343 0
M  V30 3885 H 351.674 3.06038 3.68616 0
M  V30 3886 H 350.038 1.55134 2.02004 0
M  V30 3887 H 350.821 3.11777 1.43701 0
M  V30 3888 N 353.266 -1.05314 1.17247 0
M  V30 3889 C 354.494 -1.81971 0.984593 0
M  V30 3890 C 354.909 -1.82929 -0.467166 0
M  V30 3891 O 354.266 -1.25564 -1.32438 0
M  V30 3892 C 354.317 -3.28143 1.51672 0
M  V30 3893 O 354.038 -3.27347 2.91163 0
M  V30 3894 C 355.539 -4.21493 1.37326 0
M  V30 3895 H 352.759 -0.573455 0.348411 0
M  V30 3896 H 355.303 -1.32808 1.55506 0
M  V30 3897 H 353.458 -3.74582 0.988302 0
M  V30 3898 H 353.872 -4.18824 3.15732 0
M  V30 3899 H 355.346 -5.22043 1.79375 0
M  V30 3900 H 355.823 -4.38031 0.320169 0
M  V30 3901 H 356.429 -3.80909 1.89178 0
M  V30 3902 N 354.744 -0.972509 -1.24016 0
M  V30 3903 C 355.974 -0.653853 -1.9598 0
M  V30 3904 C 356.382 0.781801 -1.72292 0
M  V30 3905 O 355.725 1.53677 -1.00644 0
M  V30 3906 C 355.787 -0.854608 -3.49194 0
M  V30 3907 C 355.451 -2.27082 -3.96589 0
M  V30 3908 C 356.448 -3.24892 -4.05883 0
M  V30 3909 C 354.133 -2.5998 -4.29786 0
M  V30 3910 C 356.127 -4.53684 -4.47716 0
M  V30 3911 C 353.814 -3.88997 -4.71301 0
M  V30 3912 C 354.812 -4.85661 -4.80232 0
M  V30 3913 O 354.5 -6.12376 -5.20818 0
M  V30 3914 H 354.232 -0.242572 -0.630979 0
M  V30 3915 H 356.786 -1.30431 -1.58673 0
M  V30 3916 H 355.016 -0.146985 -3.86421 0
M  V30 3917 H 356.705 -0.534311 -4.02368 0
M  V30 3918 H 357.471 -3.00805 -3.80449 0
M  V30 3919 H 353.35 -1.85457 -4.22051 0
M  V30 3920 H 356.894 -5.29135 -4.54601 0
M  V30 3921 H 352.791 -4.12882 -4.96184 0
M  V30 3922 H 353.559 -6.16013 -5.38953 0
M  V30 3923 N 356.222 1.38976 -0.743202 0
M  V30 3924 C 357.468 2.0064 -0.295189 0
M  V30 3925 C 357.801 1.5885 1.11716 0
M  V30 3926 O 357.076 0.821181 1.76315 0
M  V30 3927 C 357.359 3.578 -0.406318 0
M  V30 3928 C 357.212 4.09586 -1.85903 0
M  V30 3929 C 358.531 4.39616 0.206439 0
M  V30 3930 H 355.65 0.728935 -0.108733 0
M  V30 3931 H 358.292 1.65067 -0.940897 0
M  V30 3932 H 356.442 3.88235 0.143419 0
M  V30 3933 H 358.114 3.89837 -2.46627 0
M  V30 3934 H 356.357 3.6284 -2.3776 0
M  V30 3935 H 357.028 5.18708 -1.888 0
M  V30 3936 H 359.504 4.15273 -0.262283 0
M  V30 3937 H 358.38 5.48812 0.0983819 0
M  V30 3938 H 358.641 4.22754 1.2935 0
M  V30 3939 N 357.7 0.491464 1.49741 0
M  V30 3940 C 358.946 -0.0565092 2.02721 0
M  V30 3941 C 359.279 -1.37522 1.37118 0
M  V30 3942 O 358.554 -1.87866 0.503645 0
M  V30 3943 C 358.837 -0.219051 3.59433 0
M  V30 3944 C 358.69 1.12211 4.35579 0
M  V30 3945 C 360.009 -0.964157 4.29409 0
M  V30 3946 H 357.128 -0.0190627 0.736753 0
M  V30 3947 H 359.77 0.641021 1.7886 0
M  V30 3948 H 357.92 -0.813165 3.79895 0
M  V30 3949 H 359.592 1.75437 4.26637 0
M  V30 3950 H 357.835 1.71377 3.98513 0
M  V30 3951 H 358.506 0.961794 5.43556 0
M  V30 3952 H 360.982 -0.460378 4.13545 0
M  V30 3953 H 359.858 -1.04671 5.38828 0
M  V30 3954 H 360.119 -2.00563 3.93988 0
M  V30 3955 N 359.178 -1.55987 0.224894 0
M  V30 3956 C 360.108 -2.23426 -0.678457 0
M  V30 3957 C 361.089 -1.20709 -1.19847 0
M  V30 3958 O 362.274 -1.49304 -1.24186 0
M  V30 3959 C 359.404 -2.91676 -1.88527 0
M  V30 3960 C 358.358 -4.00893 -1.49896 0
M  V30 3961 C 357.684 -4.56455 -2.78483 0
M  V30 3962 C 358.984 -5.17769 -0.686461 0
M  V30 3963 H 360.678 -2.99175 -0.116173 0
M  V30 3964 H 358.224 -1.43897 -0.054436 0
M  V30 3965 H 360.177 -3.37547 -2.5227 0
M  V30 3966 H 358.901 -2.1338 -2.47258 0
M  V30 3967 H 357.56 -3.55758 -0.884985 0
M  V30 3968 H 357.208 -3.74886 -3.35365 0
M  V30 3969 H 356.908 -5.30169 -2.53368 0
M  V30 3970 H 358.432 -5.05047 -3.43162 0
M  V30 3971 H 359.846 -5.60001 -1.22767 0
M  V30 3972 H 358.243 -5.97735 -0.532259 0
M  V30 3973 H 359.313 -4.83932 0.306196 0
M  V30 3974 N 360.656 0.0484629 -1.57525 0
M  V30 3975 C 361.619 1.03956 -2.04269 0
M  V30 3976 C 362.619 1.30211 -0.943496 0
M  V30 3977 O 363.809 1.25539 -1.20771 0
M  V30 3978 C 360.941 2.37742 -2.44319 0
M  V30 3979 H 362.134 0.636182 -2.93075 0
M  V30 3980 H 359.687 0.294811 -1.53494 0
M  V30 3981 H 360.422 2.82866 -1.5861 0
M  V30 3982 H 360.207 2.20021 -3.24551 0
M  V30 3983 H 361.697 3.08936 -2.80978 0
M  V30 3984 N 362.134 1.5431 0.320358 0
M  V30 3985 C 363.364 1.7638 1.07582 0
M  V30 3986 C 363.772 0.513944 1.82086 0
M  V30 3987 O 363.115 -0.525123 1.76035 0
M  V30 3988 C 363.177 2.9055 2.1171 0
M  V30 3989 C 362.841 4.2934 1.56575 0
M  V30 3990 C 363.838 5.10077 1.00586 0
M  V30 3991 C 361.523 4.75893 1.60722 0
M  V30 3992 C 363.517 6.35477 0.494756 0
M  V30 3993 C 361.204 6.0126 1.09224 0
M  V30 3994 C 362.202 6.80886 0.53696 0
M  V30 3995 O 361.89 8.03894 0.0297371 0
M  V30 3996 H 361.622 0.592369 0.325692 0
M  V30 3997 H 364.176 2.02019 0.37116 0
M  V30 3998 H 362.406 2.60489 2.85801 0
M  V30 3999 H 364.095 3.00373 2.73003 0
M  V30 4000 H 364.861 4.75265 0.966869 0
M  V30 4001 H 360.74 4.13957 2.02882 0
M  V30 4002 H 364.284 6.97574 0.0606842 0
M  V30 4003 H 360.181 6.35562 1.12831 0
M  V30 4004 H 360.949 8.18372 0.14486 0
M  V30 4005 N 363.613 -0.582584 1.46437 0
M  V30 4006 C 364.841 -1.36682 1.55324 0
M  V30 4007 C 365.256 -1.87796 0.194409 0
M  V30 4008 O 364.613 -1.63623 -0.808318 0
M  V30 4009 C 364.664 -2.55426 2.55812 0
M  V30 4010 O 364.385 -2.0643 3.86417 0
M  V30 4011 C 365.886 -3.47976 2.74641 0
M  V30 4012 H 363.106 -0.417545 0.525259 0
M  V30 4013 H 365.65 -0.708219 1.91845 0
M  V30 4014 H 363.805 -3.17275 2.22295 0
M  V30 4015 H 364.219 -2.83762 4.41111 0
M  V30 4016 H 365.693 -4.27775 3.48874 0
M  V30 4017 H 366.17 -3.99919 1.81553 0
M  V30 4018 H 366.776 -2.91962 3.09255 0
M  V30 4019 N 365.091 -1.34144 -0.827227 0
M  V30 4020 C 366.021 -1.28005 -1.95287 0
M  V30 4021 C 367.002 -0.158321 -1.69362 0
M  V30 4022 O 368.187 -0.349987 -1.9102 0
M  V30 4023 C 365.317 -1.03036 -3.31664 0
M  V30 4024 C 364.271 -2.11628 -3.72019 0
M  V30 4025 C 363.597 -1.71854 -5.0633 0
M  V30 4026 C 364.897 -3.53417 -3.8457 0
M  V30 4027 H 366.591 -2.22187 -2.00682 0
M  V30 4028 H 364.137 -1.0696 -0.964135 0
M  V30 4029 H 366.09 -0.973863 -4.09993 0
M  V30 4030 H 364.814 -0.0529391 -3.26557 0
M  V30 4031 H 363.473 -2.16339 -2.95961 0
M  V30 4032 H 363.121 -0.727841 -4.97706 0
M  V30 4033 H 362.821 -2.44531 -5.34302 0
M  V30 4034 H 364.345 -1.67692 -5.87122 0
M  V30 4035 H 365.759 -3.51142 -4.5318 0
M  V30 4036 H 364.156 -4.24679 -4.2399 0
M  V30 4037 H 365.226 -3.91072 -2.86689 0
M  V30 4038 N 366.569 1.04691 -1.17803 0
M  V30 4039 C 367.98 1.59238 -0.974689 0
M  V30 4040 C 368.331 1.90306 0.477292 0
M  V30 4041 O 367.456 1.68846 1.35352 0
M  V30 4042 C 368.051 2.89318 -1.76296 0
M  V30 4043 C 366.61 3.40506 -1.60414 0
M  V30 4044 C 365.757 2.14172 -1.76141 0
M  V30 4045 H 368.708 0.874395 -1.32439 0
M  V30 4046 H 368.729 3.5944 -1.24833 0
M  V30 4047 H 368.241 2.66675 -2.81968 0
M  V30 4048 H 366.342 3.68175 -0.572519 0
M  V30 4049 H 366.455 4.14753 -2.39827 0
M  V30 4050 H 364.819 2.25176 -1.19028 0
M  V30 4051 H 365.602 1.93992 -2.83235 0
M  V30 4052 N 368.047 0.979072 1.23499 0
M  V30 4053 C 369.458 0.684391 1.73704 0
M  V30 4054 C 369.809 -0.799448 1.79174 0
M  V30 4055 O 368.934 -1.62531 1.42873 0
M  V30 4056 C 369.529 1.23564 3.15464 0
M  V30 4057 C 368.088 0.99063 3.6313 0
M  V30 4058 C 367.235 1.36416 2.41425 0
M  V30 4059 H 370.186 1.15307 1.09041 0
M  V30 4060 H 370.207 0.607417 3.7562 0
M  V30 4061 H 369.719 2.31561 3.1145 0
M  V30 4062 H 367.82 -0.0733136 3.72528 0
M  V30 4063 H 367.933 1.64427 4.5 0
M  V30 4064 H 366.297 0.782616 2.42378 0
M  V30 4065 H 367.08 2.45387 2.40083 0
M  V30 4066 N 369.525 -1.3858 0.750561 0
M  V30 4067 C 370.488 -2.28836 0.129152 0
M  V30 4068 C 371.488 -1.47045 -0.650714 0
M  V30 4069 O 372.678 -1.6753 -0.477428 0
M  V30 4070 C 369.81 -3.30751 -0.825622 0
M  V30 4071 H 371.003 -2.85294 0.924516 0
M  V30 4072 H 368.556 -1.47489 0.517376 0
M  V30 4073 H 369.291 -2.79378 -1.64677 0
M  V30 4074 H 369.076 -3.91177 -0.268852 0
M  V30 4075 H 370.566 -3.98249 -1.2565 0
M  V30 4076 N 371.003 -0.499398 -1.49478 0
M  V30 4077 C 372.228 0.044722 -2.07352 0
M  V30 4078 C 372.653 1.30207 -1.35749 0
M  V30 4079 O 372.011 1.76516 -0.413732 0
M  V30 4080 C 372.059 0.283013 -3.59488 0
M  V30 4081 O 371.163 1.35804 -3.89398 0
M  V30 4082 H 370.504 -0.0255147 -0.66351 0
M  V30 4083 H 373.034 -0.698561 -1.92305 0
M  V30 4084 H 373.044 0.515007 -4.04737 0
M  V30 4085 H 371.719 -0.635636 -4.11014 0
M  V30 4086 H 370.296 1.11113 -3.55961 0
M  V30 4087 N 372.481 1.55866 -0.233164 0
M  V30 4088 C 373.897 1.59133 0.121988 0
M  V30 4089 C 374.097 1.25016 1.58029 0
M  V30 4090 O 373.153 0.990922 2.32243 0
M  V30 4091 C 374.466 2.99932 -0.214792 0
M  V30 4092 C 376.014 3.12601 -0.157971 0
M  V30 4093 C 376.489 4.55597 -0.46859 0
M  V30 4094 N 377.98 4.61305 -0.418585 0
M  V30 4095 C 378.715 5.69903 -0.63227 0
M  V30 4096 N 378.211 6.86819 -0.90835 0
M  V30 4097 N 380.004 5.59264 -0.563913 0
M  V30 4098 H 372.155 1.76315 -1.18434 0
M  V30 4099 H 374.418 0.820093 -0.475553 0
M  V30 4100 H 374.124 3.29588 -1.22739 0
M  V30 4101 H 373.998 3.74327 0.464691 0
M  V30 4102 H 376.385 2.82735 0.845283 0
M  V30 4103 H 376.466 2.40511 -0.871102 0
M  V30 4104 H 376.11 4.86182 -1.46934 0
M  V30 4105 H 376.04 5.25928 0.265865 0
M  V30 4106 H 378.531 3.77297 -0.213368 0
M  V30 4107 H 378.844 7.65507 -1.05919 0
M  V30 4108 H 377.189 6.88536 -0.945673 0
M  V30 4109 H 380.38 4.66802 -0.348372 0
M  V30 4110 H 380.553 6.43831 -0.733847 0
M  V30 4111 N 373.959 -0.0401083 1.57549 0
M  V30 4112 C 375.206 -0.733125 1.88763 0
M  V30 4113 C 375.534 -1.75946 0.829058 0
M  V30 4114 O 374.789 -1.94949 -0.171323 0
M  V30 4115 C 375.088 -1.44902 3.26708 0
M  V30 4116 C 374.754 -0.559707 4.47413 0
M  V30 4117 C 373.416 -0.314731 4.8017 0
M  V30 4118 C 375.768 0.0549743 5.21171 0
M  V30 4119 C 373.096 0.553886 5.8408 0
M  V30 4120 C 375.448 0.911229 6.26003 0
M  V30 4121 C 374.112 1.16577 6.57241 0
M  V30 4122 H 373.382 -0.268269 0.690733 0
M  V30 4123 H 376.029 0.00679408 1.91499 0
M  V30 4124 H 374.334 -2.26197 3.1991 0
M  V30 4125 H 376.031 -1.99058 3.48105 0
M  V30 4126 H 372.621 -0.760793 4.21794 0
M  V30 4127 H 376.805 -0.121344 4.96152 0
M  V30 4128 H 372.061 0.759518 6.06664 0
M  V30 4129 H 376.235 1.3941 6.82303 0
M  V30 4130 H 373.862 1.84058 7.37582 0
M  V30 4131 N 375.437 -1.54477 -0.31217 0
M  V30 4132 C 376.686 -1.72438 -1.04633 0
M  V30 4133 C 376.999 -0.511163 -1.88803 0
M  V30 4134 O 378.205 -0.572341 -2.65399 0
M  V30 4135 C 376.661 -3.05043 -1.9099 0
M  V30 4136 C 376.269 -4.33806 -1.11877 0
M  V30 4137 C 378.013 -3.32364 -2.64073 0
M  V30 4138 C 375.92 -5.57467 -1.97445 0
M  V30 4139 H 374.85 -0.642647 -0.394361 0
M  V30 4140 H 377.501 -1.80966 -0.303929 0
M  V30 4141 H 375.883 -2.90451 -2.69173 0
M  V30 4142 H 377.057 -4.59199 -0.383843 0
M  V30 4143 H 375.372 -4.13336 -0.504252 0
M  V30 4144 H 377.969 -4.21951 -3.28423 0
M  V30 4145 H 378.312 -2.50745 -3.32314 0
M  V30 4146 H 378.845 -3.47875 -1.92944 0
M  V30 4147 H 375.584 -6.41722 -1.33692 0
M  V30 4148 H 375.104 -5.36277 -2.6864 0
M  V30 4149 H 376.783 -5.94303 -2.5576 0
M  V30 4150 N 376.915 0.57481 -1.46744 0
M  V30 4151 C 378.164 1.32898 -1.51727 0
M  V30 4152 C 378.477 1.948 -0.176692 0
M  V30 4153 O 379.683 2.71299 -0.104385 0
M  V30 4154 C 378.139 2.40901 -2.67385 0
M  V30 4155 C 377.747 1.85266 -4.07898 0
M  V30 4156 C 379.491 3.17609 -2.81646 0
M  V30 4157 C 377.398 2.90945 -5.14883 0
M  V30 4158 H 376.328 0.499631 -0.564699 0
M  V30 4159 H 378.979 0.612536 -1.72975 0
M  V30 4160 H 377.361 3.15379 -2.39483 0
M  V30 4161 H 378.535 1.17278 -4.45626 0
M  V30 4162 H 376.85 1.21199 -3.98371 0
M  V30 4163 H 379.447 3.96493 -3.58744 0
M  V30 4164 H 379.79 3.70696 -1.89448 0
M  V30 4165 H 380.323 2.50239 -3.09233 0
M  V30 4166 H 377.062 2.42736 -6.089 0
M  V30 4167 H 376.582 3.57398 -4.81691 0
M  V30 4168 H 378.261 3.54755 -5.41071 0
M  V30 4169 N 378.394 1.34581 0.820102 0
M  V30 4170 C 379.643 1.26437 1.57151 0
M  V30 4171 C 379.956 -0.163111 1.94919 0
M  V30 4172 O 381.162 -0.366722 2.69012 0
M  V30 4173 C 379.618 2.21658 2.83541 0
M  V30 4174 C 379.226 3.69679 2.53065 0
M  V30 4175 C 380.97 2.22428 3.61561 0
M  V30 4176 C 378.877 4.56761 3.75664 0
M  V30 4177 H 377.807 0.469707 0.589823 0
M  V30 4178 H 380.458 1.59763 0.902656 0
M  V30 4179 H 378.84 1.81287 3.52067 0
M  V30 4180 H 380.014 4.18605 1.92631 0
M  V30 4181 H 378.329 3.71384 1.88316 0
M  V30 4182 H 380.926 2.8471 4.52597 0
M  V30 4183 H 381.269 1.22434 3.97889 0
M  V30 4184 H 381.802 2.61259 2.99981 0
M  V30 4185 H 378.541 5.57702 3.44454 0
M  V30 4186 H 378.061 4.12568 4.35371 0
M  V30 4187 H 379.74 4.71509 4.43044 0
M  V30 4188 N 379.872 -1.04064 1.18357 0
M  V30 4189 C 381.119 -1.77265 0.978947 0
M  V30 4190 C 381.447 -1.88189 -0.491428 0
M  V30 4191 O 380.702 -1.38653 -1.38108 0
M  V30 4192 C 381.001 -3.20634 1.57888 0
M  V30 4193 C 380.667 -3.29743 3.07539 0
M  V30 4194 C 379.329 -3.31937 3.48384 0
M  V30 4195 C 381.681 -3.29841 4.03552 0
M  V30 4196 C 379.009 -3.3187 4.83818 0
M  V30 4197 C 381.361 -3.31313 5.38901 0
M  V30 4198 C 380.025 -3.31799 5.79194 0
M  V30 4199 H 379.295 -0.648659 0.358222 0
M  V30 4200 H 381.942 -1.22225 1.47422 0
M  V30 4201 H 380.247 -3.78675 1.00561 0
M  V30 4202 H 381.944 -3.75917 1.39598 0
M  V30 4203 H 378.534 -3.28757 2.74986 0
M  V30 4204 H 382.718 -3.27337 3.73047 0
M  V30 4205 H 377.974 -3.30562 5.14333 0
M  V30 4206 H 382.148 -3.30338 6.13066 0
M  V30 4207 H 379.775 -3.315 6.84114 0
M  V30 4208 N 381.35 -0.985608 -1.22978 0
M  V30 4209 C 382.26 -0.538548 -2.28335 0
M  V30 4210 C 383.276 0.409163 -1.69121 0
M  V30 4211 O 384.452 0.277797 -1.99475 0
M  V30 4212 C 381.517 0.146867 -3.46389 0
M  V30 4213 C 380.578 -0.842896 -4.20944 0
M  V30 4214 C 379.811 -0.190095 -5.33361 0
M  V30 4215 O 380.034 1.01767 -5.61248 0
M  V30 4216 O 378.968 -0.891289 -5.95264 0
M  V30 4217 H 382.794 -1.41487 -2.68729 0
M  V30 4218 H 380.379 -0.753495 -1.29007 0
M  V30 4219 H 382.261 0.531125 -4.1804 0
M  V30 4220 H 380.936 0.997871 -3.07935 0
M  V30 4221 H 379.843 -1.27795 -3.51595 0
M  V30 4222 H 381.176 -1.66287 -4.6326 0
M  V30 4223 N 382.828 1.3818 -0.7579 0
M  V30 4224 C 383.76 2.2901 -0.0932177 0
M  V30 4225 C 384.773 1.47958 0.679136 0
M  V30 4226 O 385.962 1.70773 0.519514 0
M  V30 4227 C 383.062 3.26953 0.89192 0
M  V30 4228 C 382.235 4.37045 0.176303 0
M  V30 4229 C 381.294 5.15148 1.07281 0
M  V30 4230 O 380.32 5.66616 0.541728 0
M  V30 4231 N 381.522 5.28542 2.40049 0
M  V30 4232 H 384.287 2.86694 -0.873303 0
M  V30 4233 H 381.848 1.50007 -0.609054 0
M  V30 4234 H 383.84 3.76083 1.49479 0
M  V30 4235 H 382.41 2.70136 1.57306 0
M  V30 4236 H 381.63 3.89493 -0.607328 0
M  V30 4237 H 382.918 5.07801 -0.318718 0
M  V30 4238 H 382.316 4.88285 2.85647 0
M  V30 4239 H 380.873 5.8103 2.95376 0
M  V30 4240 N 384.306 0.507319 1.49211 0
M  V30 4241 C 385.555 -0.0368315 2.01666 0
M  V30 4242 C 385.868 -1.37459 1.39156 0
M  V30 4243 O 387.074 -2.00579 1.82976 0
M  V30 4244 C 385.53 -0.116089 3.59713 0
M  V30 4245 C 385.138 1.2154 4.31198 0
M  V30 4246 C 386.882 -0.610268 4.2009 0
M  V30 4247 C 384.789 1.09796 5.81119 0
M  V30 4248 H 383.719 -0.0175376 0.753796 0
M  V30 4249 H 386.37 0.647691 1.71689 0
M  V30 4250 H 384.752 -0.8652 3.86433 0
M  V30 4251 H 385.926 1.9783 4.16173 0
M  V30 4252 H 384.241 1.64352 3.82593 0
M  V30 4253 H 386.838 -0.715742 5.29888 0
M  V30 4254 H 387.181 -1.61064 3.8388 0
M  V30 4255 H 387.714 0.0824916 3.97714 0
M  V30 4256 H 384.453 2.0728 6.21864 0
M  V30 4257 H 383.973 0.376058 5.9862 0
M  V30 4258 H 385.652 0.779281 6.4229 0
M  V30 4259 N 385.784 -1.5574 0.241426 0
M  V30 4260 C 387.2 -1.59196 -0.113548 0
M  V30 4261 C 387.4 -1.25852 -1.57364 0
M  V30 4262 O 386.456 -1.00322 -2.31715 0
M  V30 4263 C 387.769 -2.99814 0.230695 0
M  V30 4264 C 389.317 -3.12513 0.174547 0
M  V30 4265 C 389.792 -4.55342 0.492744 0
M  V30 4266 N 391.283 -4.61076 0.443043 0
M  V30 4267 C 392.018 -5.6956 0.662484 0
M  V30 4268 N 391.514 -6.86328 0.944761 0
M  V30 4269 N 393.307 -5.58957 0.593564 0
M  V30 4270 H 385.458 -1.75685 1.19368 0
M  V30 4271 H 387.721 -0.81756 0.479896 0
M  V30 4272 H 387.427 -3.28932 1.24485 0
M  V30 4273 H 387.301 -3.74568 -0.444833 0
M  V30 4274 H 389.688 -2.83179 -0.830277 0
M  V30 4275 H 389.769 -2.40045 0.883845 0
M  V30 4276 H 389.413 -4.85396 1.4951 0
M  V30 4277 H 389.343 -5.26062 -0.23797 0
M  V30 4278 H 391.834 -3.77179 0.233374 0
M  V30 4279 H 392.147 -7.64935 1.09977 0
M  V30 4280 H 390.492 -6.88025 0.982175 0
M  V30 4281 H 393.683 -4.66611 0.373123 0
M  V30 4282 H 393.856 -6.43433 0.767981 0
M  V30 4283 N 387.262 0.0317525 -1.57568 0
M  V30 4284 C 388.509 0.723104 -1.89149 0
M  V30 4285 C 388.837 1.75504 -0.838377 0
M  V30 4286 O 388.092 1.95037 0.160982 0
M  V30 4287 C 388.391 1.43167 -3.27472 0
M  V30 4288 C 388.057 0.535972 -4.47703 0
M  V30 4289 C 386.719 0.289262 -4.8033 0
M  V30 4290 C 389.071 -0.0826125 -5.21135 0
M  V30 4291 C 386.399 -0.584853 -5.83778 0
M  V30 4292 C 388.751 -0.944414 -6.25511 0
M  V30 4293 C 387.415 -1.20061 -6.56614 0
M  V30 4294 H 386.685 0.264602 -0.692146 0
M  V30 4295 H 389.332 -0.0169496 -1.91492 0
M  V30 4296 H 387.637 2.24497 -3.21105 0
M  V30 4297 H 389.334 1.97209 -3.49155 0
M  V30 4298 H 385.924 0.738414 -4.22191 0
M  V30 4299 H 390.108 0.0950302 -4.96209 0
M  V30 4300 H 385.364 -0.79168 -6.06253 0
M  V30 4301 H 389.538 -1.43026 -6.81554 0
M  V30 4302 H 387.165 -1.87967 -7.36595 0
M  V30 4303 N 388.74 1.54641 0.303973 0
M  V30 4304 C 389.986 1.74038 1.04109 0
M  V30 4305 C 390.319 0.523051 1.87024 0
M  V30 4306 O 389.594 -0.479874 1.88487 0
M  V30 4307 C 389.877 3.02761 1.94955 0
M  V30 4308 C 389.73 4.34787 1.1524 0
M  V30 4309 C 391.049 3.27336 2.94175 0
M  V30 4310 H 388.168 0.63323 0.377079 0
M  V30 4311 H 390.81 1.87354 0.316001 0
M  V30 4312 H 388.96 2.9154 2.56782 0
M  V30 4313 H 390.632 4.57922 0.557236 0
M  V30 4314 H 388.875 4.31407 0.455053 0
M  V30 4315 H 389.546 5.21116 1.8205 0
M  V30 4316 H 392.022 3.38148 2.42477 0
M  V30 4317 H 390.898 4.18726 3.54908 0
M  V30 4318 H 391.159 2.45491 3.67677 0
M  V30 4319 N 390.218 -0.567019 1.47046 0
M  V30 4320 C 391.151 -1.69016 1.53326 0
M  V30 4321 C 392.129 -1.57949 0.386126 0
M  V30 4322 O 393.313 -1.78945 0.592529 0
M  V30 4323 C 390.44 -3.07191 1.42658 0
M  V30 4324 C 389.486 -3.36733 2.6175 0
M  V30 4325 S 390.319 -3.27069 4.24012 0
M  V30 4326 C 391.475 -4.67755 4.1588 0
M  V30 4327 H 391.708 -1.63434 2.48348 0
M  V30 4328 H 389.241 -0.747048 1.35124 0
M  V30 4329 H 391.199 -3.86897 1.37191 0
M  V30 4330 H 389.86 -3.10249 0.490369 0
M  V30 4331 H 389.053 -4.37441 2.50323 0
M  V30 4332 H 388.655 -2.64627 2.64289 0
M  V30 4333 H 390.947 -5.58491 3.83529 0
M  V30 4334 H 391.89 -4.84239 5.16641 0
M  V30 4335 H 392.298 -4.45341 3.46889 0
M  V30 4336 N 391.696 -1.35014 -0.812953 0
M  V30 4337 C 392.643 -1.27412 -1.92444 0
M  V30 4338 C 393.613 -0.14733 -1.65445 0
M  V30 4339 O 394.798 -0.329974 -1.87925 0
M  V30 4340 C 391.938 -1.04558 -3.28879 0
M  V30 4341 C 391.051 -2.26101 -3.68106 0
M  V30 4342 C 390.186 -1.96449 -4.9354 0
M  V30 4343 C 389.225 -3.14081 -5.25376 0
M  V30 4344 N 388.362 -2.84246 -6.41988 0
M  V30 4345 H 393.202 -2.22463 -1.98278 0
M  V30 4346 H 390.739 -1.10593 -0.969933 0
M  V30 4347 H 392.697 -0.893413 -4.07522 0
M  V30 4348 H 391.327 -0.131719 -3.22531 0
M  V30 4349 H 390.379 -2.52204 -2.84775 0
M  V30 4350 H 391.691 -3.13959 -3.87597 0
M  V30 4351 H 390.845 -1.78026 -5.79993 0
M  V30 4352 H 389.584 -1.05867 -4.76071 0
M  V30 4353 H 388.589 -3.33089 -4.37415 0
M  V30 4354 H 389.814 -4.05455 -5.44778 0
M  V30 4355 H 387.76 -1.96252 -6.25956 0
M  V30 4356 H 387.677 -3.65637 -6.61699 0
M  V30 4357 H 388.945 -2.6935 -7.31485 0
M  V30 4358 N 393.175 1.03435 -1.18907 0
M  V30 4359 C 394.138 2.09756 -0.923844 0
M  V30 4360 C 395.138 1.60528 0.093416 0
M  V30 4361 O 396.328 1.73631 -0.140727 0
M  V30 4362 C 393.46 3.38692 -0.387354 0
M  V30 4363 H 394.653 2.34719 -1.86674 0
M  V30 4364 H 392.206 1.19959 -1.00197 0
M  V30 4365 H 392.941 3.19396 0.561845 0
M  V30 4366 H 392.726 3.75742 -1.12074 0
M  V30 4367 H 394.216 4.17016 -0.220694 0
M  V30 4368 N 394.653 0.992116 1.22453 0
M  V30 4369 C 395.603 0.512969 2.22155 0
M  V30 4370 C 396.587 -0.418416 1.55364 0
M  V30 4371 O 397.779 -0.245363 1.75291 0
M  V30 4372 C 394.908 -0.171822 3.4287 0
M  V30 4373 C 393.994 0.779822 4.16869 0
M  V30 4374 N 394.385 1.92734 4.6764 0
M  V30 4375 C 392.683 0.59554 4.42006 0
M  V30 4376 C 393.384 2.52458 5.24061 0
M  V30 4377 N 392.36 1.80735 5.12675 0
M  V30 4378 H 396.162 1.38817 2.5905 0
M  V30 4379 H 393.676 0.854277 1.38115 0
M  V30 4380 H 395.673 -0.532469 4.13486 0
M  V30 4381 H 394.333 -1.04317 3.07487 0
M  V30 4382 H 395.344 2.30816 4.63621 0
M  V30 4383 H 392.021 -0.229805 4.16867 0
M  V30 4384 H 393.411 3.49433 5.73887 0
M  V30 4385 N 396.131 -1.37776 0.765217 0
M  V30 4386 C 397.356 -2.04651 0.336537 0
M  V30 4387 C 397.781 -1.57337 -1.03086 0
M  V30 4388 O 397.139 -0.730621 -1.65927 0
M  V30 4389 C 397.187 -3.58577 0.381468 0
M  V30 4390 O 396.291 -4.07706 -0.62042 0
M  V30 4391 H 395.632 -0.64756 0.146838 0
M  V30 4392 H 398.162 -1.76221 1.03959 0
M  V30 4393 H 398.172 -4.07314 0.236448 0
M  V30 4394 H 396.847 -3.9237 1.37907 0
M  V30 4395 H 395.424 -3.70306 -0.439056 0
M  V30 4396 N 397.609 -0.515225 -1.4894 0
M  V30 4397 C 398.856 0.024215 -2.02486 0
M  V30 4398 C 399.184 1.35671 -1.39368 0
M  V30 4399 O 398.439 1.88566 -0.523574 0
M  V30 4400 C 398.738 0.210595 -3.56779 0
M  V30 4401 C 398.404 -1.04569 -4.38607 0
M  V30 4402 C 397.066 -1.39002 -4.60686 0
M  V30 4403 C 399.418 -1.88008 -4.86109 0
M  V30 4404 C 396.746 -2.568 -5.27514 0
M  V30 4405 C 399.098 -3.04972 -5.54234 0
M  V30 4406 C 397.762 -3.39768 -5.74555 0
M  V30 4407 H 397.032 0.00886088 -0.740947 0
M  V30 4408 H 399.679 -0.678263 -1.79086 0
M  V30 4409 H 397.984 0.99572 -3.78936 0
M  V30 4410 H 399.681 0.642659 -3.95817 0
M  V30 4411 H 396.271 -0.767497 -4.21672 0
M  V30 4412 H 400.455 -1.62719 -4.68867 0
M  V30 4413 H 395.711 -2.8398 -5.41447 0
M  V30 4414 H 399.885 -3.69943 -5.90013 0
M  V30 4415 H 397.512 -4.31148 -6.26112 0
M  V30 4416 N 399.087 1.5561 -0.249682 0
M  V30 4417 C 400.333 1.99306 0.374841 0
M  V30 4418 C 400.666 1.13767 1.57387 0
M  V30 4419 O 399.941 0.201711 1.93451 0
M  V30 4420 C 400.224 3.51507 0.781986 0
M  V30 4421 C 400.077 4.4781 -0.422629 0
M  V30 4422 C 401.396 4.08884 1.62793 0
M  V30 4423 H 398.515 0.724572 0.134773 0
M  V30 4424 H 401.157 1.86719 -0.351549 0
M  V30 4425 H 399.307 3.62363 1.4009 0
M  V30 4426 H 400.979 4.48931 -1.06108 0
M  V30 4427 H 399.222 4.20518 -1.06524 0
M  V30 4428 H 399.893 5.51919 -0.0943766 0
M  V30 4429 H 402.369 4.01147 1.10547 0
M  V30 4430 H 401.245 5.1564 1.88166 0
M  V30 4431 H 401.506 3.57515 2.60068 0
M  V30 4432 N 400.565 -0.0233959 1.57583 0
M  V30 4433 C 401.981 -0.379134 1.55031 0
M  V30 4434 C 402.181 -1.76255 0.976548 0
M  V30 4435 O 401.237 -2.45266 0.600078 0
M  V30 4436 C 402.55 -0.275792 2.99433 0
M  V30 4437 C 404.098 -0.352458 3.11009 0
M  V30 4438 C 404.573 -0.278501 4.57152 0
M  V30 4439 N 406.064 -0.337123 4.61972 0
M  V30 4440 C 406.799 -0.302876 5.726 0
M  V30 4441 N 406.295 -0.220589 6.92449 0
M  V30 4442 N 408.088 -0.353023 5.6099 0
M  V30 4443 H 400.239 0.881869 1.93227 0
M  V30 4444 H 402.502 0.335867 0.886509 0
M  V30 4445 H 402.208 0.675108 3.4516 0
M  V30 4446 H 402.082 -1.06721 3.61788 0
M  V30 4447 H 404.469 -1.29379 2.65226 0
M  V30 4448 H 404.55 0.468409 2.51475 0
M  V30 4449 H 404.194 0.659189 5.03604 0
M  V30 4450 H 404.124 -1.11755 5.14605 0
M  V30 4451 H 406.615 -0.403002 3.75745 0
M  V30 4452 H 406.928 -0.199713 7.72542 0
M  V30 4453 H 405.273 -0.186555 6.9475 0
M  V30 4454 H 408.464 -0.415339 4.66254 0
M  V30 4455 H 408.637 -0.322866 6.47195 0
M  V30 4456 N 402.043 -1.548 -0.295768 0
M  V30 4457 C 402.953 -1.89177 -1.38742 0
M  V30 4458 C 403.969 -0.786481 -1.55211 0
M  V30 4459 O 405.145 -1.08344 -1.69775 0
M  V30 4460 C 402.21 -2.13663 -2.73036 0
M  V30 4461 C 401.271 -3.37349 -2.65508 0
M  V30 4462 C 400.504 -3.60658 -3.93398 0
M  V30 4463 O 400.727 -2.86882 -4.93006 0
M  V30 4464 O 399.661 -4.54179 -3.94975 0
M  V30 4465 H 403.487 -2.82059 -1.12589 0
M  V30 4466 H 401.072 -1.41056 -0.492295 0
M  V30 4467 H 402.954 -2.3094 -3.52484 0
M  V30 4468 H 401.629 -1.23967 -2.99022 0
M  V30 4469 H 400.536 -3.25431 -1.84514 0
M  V30 4470 H 401.869 -4.27192 -2.44474 0
M  V30 4471 N 403.521 0.559213 -1.47345 0
M  V30 4472 C 404.469 1.68747 -1.60085 0
M  V30 4473 C 405.463 1.628 -0.46825 0
M  V30 4474 O 406.669 1.68009 -0.645977 0
M  V30 4475 H 403.044 0.558329 -0.503759 0
M  V30 4476 H 405.015 1.55138 -2.54902 0
M  V30 4477 C 403.764 3.07103 -1.63042 0
M  V30 4478 H 403.087 3.12361 -2.49541 0
M  V30 4479 H 404.527 3.85743 -1.76006 0
M  V30 4480 C 402.986 3.34935 -0.363357 0
M  V30 4481 O 403.516 3.98102 0.536416 0
M  V30 4482 N 401.722 2.89574 -0.244 0
M  V30 4483 H 401.269 2.38348 -0.977133 0
M  V30 4484 H 401.227 3.08566 0.602836 0
M  V30 4485 N 404.999 1.35443 0.805782 0
M  V30 4486 C 406.245 1.28952 1.56522 0
M  V30 4487 C 406.578 -0.135597 1.93726 0
M  V30 4488 O 405.853 -1.08516 1.61414 0
M  V30 4489 C 406.136 2.19678 2.85331 0
M  V30 4490 C 405.989 3.7081 2.54598 0
M  V30 4491 C 407.308 2.09495 3.8704 0
M  V30 4492 H 404.427 0.469764 0.567883 0
M  V30 4493 H 407.069 1.65851 0.927001 0
M  V30 4494 H 405.219 1.8834 3.39795 0
M  V30 4495 H 406.891 4.12593 2.06312 0
M  V30 4496 H 405.134 3.91051 1.8778 0
M  V30 4497 H 405.805 4.29679 3.46525 0
M  V30 4498 H 408.281 2.37045 3.41978 0
M  V30 4499 H 407.157 2.75173 4.74943 0
M  V30 4500 H 407.418 1.07714 4.28777 0
M  V30 4501 N 406.477 -1.02803 1.19454 0
M  V30 4502 C 407.888 -1.57667 0.999899 0
M  V30 4503 C 408.239 -1.91041 -0.446956 0
M  V30 4504 O 407.364 -1.70978 -1.32648 0
M  V30 4505 C 407.959 -2.86477 1.80877 0
M  V30 4506 C 406.518 -3.37911 1.65811 0
M  V30 4507 C 405.665 -2.11343 1.79526 0
M  V30 4508 H 408.616 -0.853214 1.33813 0
M  V30 4509 H 408.637 -3.57408 1.30536 0
M  V30 4510 H 408.149 -2.62155 2.86175 0
M  V30 4511 H 406.25 -3.67218 0.63102 0
M  V30 4512 H 406.363 -4.10885 2.46395 0
M  V30 4513 H 404.727 -2.23254 1.22596 0
M  V30 4514 H 405.51 -1.89461 2.86285 0
M  V30 4515 N 407.956 -0.998596 -1.21925 0
M  V30 4516 C 409.372 -0.710303 -1.42923 0
M  V30 4517 C 409.572 0.716933 -1.88314 0
M  V30 4518 O 408.628 1.48712 -2.04062 0
M  V30 4519 C 409.941 -1.72072 -2.466 0
M  V30 4520 C 411.489 -1.73681 -2.60392 0
M  V30 4521 C 411.964 -2.73601 -3.67296 0
M  V30 4522 N 413.455 -2.7223 -3.7476 0
M  V30 4523 C 414.19 -3.46206 -4.57087 0
M  V30 4524 N 413.686 -4.29802 -5.43362 0
M  V30 4525 N 415.479 -3.34886 -4.51451 0
M  V30 4526 H 407.63 -1.92028 -0.9077 0
M  V30 4527 H 409.893 -0.828487 -0.460775 0
M  V30 4528 H 409.599 -2.74231 -2.20206 0
M  V30 4529 H 409.473 -1.51818 -3.45299 0
M  V30 4530 H 411.86 -0.722173 -2.86127 0
M  V30 4531 H 411.941 -1.98005 -1.61949 0
M  V30 4532 H 411.585 -3.75217 -3.42307 0
M  V30 4533 H 411.515 -2.46545 -4.65321 0
M  V30 4534 H 414.006 -2.11576 -3.1312 0
M  V30 4535 H 414.319 -4.83061 -6.03218 0
M  V30 4536 H 412.664 -4.33887 -5.42925 0
M  V30 4537 H 415.855 -2.69015 -3.83078 0
M  V30 4538 H 416.028 -3.92796 -5.15379 0
M  V30 4539 N 409.434 1.37368 -0.772513 0
M  V30 4540 C 410.68 1.99969 -0.337681 0
M  V30 4541 C 411.013 1.61184 1.08321 0
M  V30 4542 O 410.288 0.858395 1.74533 0
M  V30 4543 C 410.571 3.56858 -0.482121 0
M  V30 4544 C 410.424 4.0555 -1.94549 0
M  V30 4545 C 411.743 4.39955 0.113143 0
M  V30 4546 H 408.862 0.726464 -0.124171 0
M  V30 4547 H 411.504 1.63034 -0.975699 0
M  V30 4548 H 409.654 3.88452 0.0610361 0
M  V30 4549 H 411.326 3.84518 -2.54841 0
M  V30 4550 H 409.569 3.57715 -2.45403 0
M  V30 4551 H 410.24 5.14587 -1.9976 0
M  V30 4552 H 412.716 4.14623 -0.35031 0
M  V30 4553 H 411.592 5.48897 -0.0180514 0
M  V30 4554 H 411.853 4.25403 1.20354 0
M  V30 4555 N 410.912 0.523116 1.48665 0
M  V30 4556 C 411.842 -0.23231 2.32342 0
M  V30 4557 C 412.823 -0.941637 1.41659 0
M  V30 4558 O 414.008 -0.928751 1.70552 0
M  V30 4559 C 411.138 -1.28387 3.22698 0
M  V30 4560 C 410.092 -0.693098 4.22351 0
M  V30 4561 C 409.418 -1.8468 5.01794 0
M  V30 4562 C 410.718 0.33063 5.21252 0
M  V30 4563 H 412.412 0.466192 2.95748 0
M  V30 4564 H 409.958 0.225643 1.42221 0
M  V30 4565 H 411.911 -1.82024 3.80059 0
M  V30 4566 H 410.635 -2.01186 2.57278 0
M  V30 4567 H 409.294 -0.178299 3.66166 0
M  V30 4568 H 408.942 -2.56301 4.32804 0
M  V30 4569 H 408.642 -1.45747 5.69238 0
M  V30 4570 H 410.166 -2.38709 5.62006 0
M  V30 4571 H 411.58 -0.118407 5.73178 0
M  V30 4572 H 409.977 0.636974 5.9671 0
M  V30 4573 H 411.047 1.23883 4.68808 0
M  V30 4574 N 412.39 -1.55475 0.257931 0
M  V30 4575 C 413.338 -2.23244 -0.653076 0
M  V30 4576 C 414.332 -1.22366 -1.17144 0
M  V30 4577 O 415.538 -1.40347 -1.12706 0
M  V30 4578 H 411.913 -0.716247 -0.229117 0
M  V30 4579 H 413.884 -2.98343 -0.0584788 0
M  V30 4580 C 412.633 -2.95401 -1.83395 0
M  V30 4581 H 411.956 -3.72802 -1.44424 0
M  V30 4582 H 413.396 -3.46165 -2.44838 0
M  V30 4583 C 411.855 -1.99895 -2.71189 0
M  V30 4584 O 412.385 -1.53909 -3.71046 0
M  V30 4585 N 410.591 -1.6676 -2.3799 0
M  V30 4586 H 410.138 -2.04352 -1.56837 0
M  V30 4587 H 410.096 -1.03127 -2.97005 0
M  V30 4588 N 413.868 0.0150385 -1.57593 0
M  V30 4589 C 415.093 0.718067 -1.94573 0
M  V30 4590 C 415.518 1.6734 -0.859005 0
M  V30 4591 O 414.876 1.80362 0.184147 0
M  V30 4592 C 414.924 1.43918 -3.30636 0
M  V30 4593 O 414.028 2.55299 -3.23876 0
M  V30 4594 H 413.369 0.192125 -0.635597 0
M  V30 4595 H 415.899 -0.0336708 -2.04572 0
M  V30 4596 H 415.909 1.80598 -3.65853 0
M  V30 4597 H 414.584 0.738619 -4.09289 0
M  V30 4598 H 413.161 2.21058 -3.00312 0
M  V30 4599 N 415.346 1.54954 0.287554 0
M  V30 4600 C 416.309 1.86076 1.33823 0
M  V30 4601 C 417.309 0.734414 1.43049 0
M  V30 4602 O 418.499 1.00266 1.42452 0
M  V30 4603 C 415.631 2.05305 2.72144 0
M  V30 4604 H 416.824 2.79984 1.07465 0
M  V30 4605 H 414.377 1.47223 0.524902 0
M  V30 4606 H 415.112 1.1373 3.03704 0
M  V30 4607 H 414.897 2.873 2.66836 0
M  V30 4608 H 416.387 2.30706 3.48087 0
M  V30 4609 N 416.824 -0.551391 1.4764 0
M  V30 4610 C 417.771 -1.65796 1.60563 0
M  V30 4611 C 418.741 -1.59932 0.448428 0
M  V30 4612 O 419.926 -1.78679 0.669222 0
M  V30 4613 C 417.066 -3.04108 1.63133 0
M  V30 4614 C 416.179 -3.20365 2.89811 0
M  V30 4615 C 415.314 -4.49109 2.8368 0
M  V30 4616 C 414.353 -4.58819 4.05156 0
M  V30 4617 N 413.49 -5.78926 3.97227 0
M  V30 4618 H 418.33 -1.54088 2.5507 0
M  V30 4619 H 415.867 -0.75052 1.26513 0
M  V30 4620 H 417.825 -3.84207 1.62606 0
M  V30 4621 H 416.455 -3.14637 0.721341 0
M  V30 4622 H 415.507 -2.33659 3.00179 0
M  V30 4623 H 416.819 -3.23402 3.79753 0
M  V30 4624 H 415.973 -5.37475 2.81434 0
M  V30 4625 H 414.712 -4.4856 1.91431 0
M  V30 4626 H 413.717 -3.68864 4.077 0
M  V30 4627 H 414.942 -4.61124 4.98539 0
M  V30 4628 H 412.888 -5.79314 3.07785 0
M  V30 4629 H 412.805 -5.83367 4.80853 0
M  V30 4630 H 414.073 -6.69637 3.99007 0
M  V30 4631 N 418.302 -1.35869 -0.798587 0
M  V30 4632 C 419.212 -1.31578 -1.94228 0
M  V30 4633 C 420.228 -0.21939 -1.72611 0
M  V30 4634 O 421.404 -0.450167 -1.96305 0
M  V30 4635 C 418.469 -1.09528 -3.28944 0
M  V30 4636 C 417.53 -2.28556 -3.63402 0
M  V30 4637 C 416.763 -2.07549 -4.9169 0
M  V30 4638 O 416.986 -1.046 -5.60727 0
M  V30 4639 O 415.92 -2.95106 -5.24591 0
M  V30 4640 H 419.746 -2.27847 -2.00796 0
M  V30 4641 H 417.331 -1.16322 -0.937526 0
M  V30 4642 H 419.213 -0.991127 -4.09579 0
M  V30 4643 H 417.888 -0.16315 -3.23289 0
M  V30 4644 H 416.795 -2.44538 -2.83112 0
M  V30 4645 H 418.128 -3.20244 -3.73771 0
M  V30 4646 N 419.78 1.02168 -1.19998 0
M  V30 4647 C 420.727 2.10601 -0.944228 0
M  V30 4648 C 421.697 1.65639 0.123664 0
M  V30 4649 O 422.882 1.9079 -0.0199941 0
M  V30 4650 C 420.022 3.41504 -0.496865 0
M  V30 4651 C 419.135 3.99973 -1.63234 0
M  V30 4652 C 418.27 5.18915 -1.13579 0
M  V30 4653 C 417.309 5.69456 -2.24468 0
M  V30 4654 N 416.446 6.79665 -1.76068 0
M  V30 4655 H 421.286 2.31814 -1.8726 0
M  V30 4656 H 418.823 1.13686 -0.933483 0
M  V30 4657 H 420.781 4.16626 -0.218843 0
M  V30 4658 H 419.411 3.2038 0.394508 0
M  V30 4659 H 418.463 3.21997 -2.0254 0
M  V30 4660 H 419.775 4.33492 -2.46752 0
M  V30 4661 H 418.929 6.01222 -0.813429 0
M  V30 4662 H 417.668 4.8695 -0.270434 0
M  V30 4663 H 416.673 4.85757 -2.57526 0
M  V30 4664 H 417.898 6.03459 -3.11472 0
M  V30 4665 H 415.844 6.49538 -0.918516 0
M  V30 4666 H 415.761 7.12349 -2.5317 0
M  V30 4667 H 417.029 7.65549 -1.46817 0
M  V30 4668 N 421.258 1.00505 1.21394 0
M  V30 4669 C 422.483 0.706367 1.95001 0
M  V30 4670 C 422.908 -0.72463 1.73582 0
M  V30 4671 O 422.266 -1.49702 1.0227 0
M  V30 4672 C 422.314 1.03299 3.45487 0
M  V30 4673 O 421.418 0.138275 4.12168 0
M  V30 4674 H 420.759 0.263175 0.609619 0
M  V30 4675 H 423.289 1.34531 1.54151 0
M  V30 4676 H 423.299 0.979872 3.96059 0
M  V30 4677 H 421.974 2.07567 3.60401 0
M  V30 4678 H 420.551 0.247928 3.72075 0
M  V30 4679 N 422.737 -1.36956 0.779787 0
M  V30 4680 C 423.962 -2.04283 0.358224 0
M  V30 4681 C 424.387 -1.58422 -1.01411 0
M  V30 4682 O 423.745 -0.748179 -1.65142 0
M  V30 4683 C 423.793 -3.58152 0.419479 0
M  V30 4684 O 422.897 -4.08342 -0.577142 0
M  V30 4685 H 422.238 -0.645967 0.153698 0
M  V30 4686 H 424.768 -1.75108 1.05822 0
M  V30 4687 H 424.778 -4.07041 0.279636 0
M  V30 4688 H 423.453 -3.90886 1.42061 0
M  V30 4689 H 422.03 -3.70751 -0.399755 0
M  V30 4690 N 424.215 -0.530993 -1.48385 0
M  V30 4691 C 425.443 -0.00134122 -2.069 0
M  V30 4692 C 425.858 1.2805 -1.3874 0
M  V30 4693 O 425.215 1.76204 -0.475244 0
M  V30 4694 C 425.266 0.225256 -3.60798 0
M  V30 4695 O 424.987 -1.0058 -4.26398 0
M  V30 4696 C 426.488 0.795172 -4.3611 0
M  V30 4697 H 423.708 -0.0339704 -0.67014 0
M  V30 4698 H 426.252 -0.736926 -1.90761 0
M  V30 4699 H 424.407 0.910891 -3.76539 0
M  V30 4700 H 424.821 -0.787165 -5.1856 0
M  V30 4701 H 426.295 0.903143 -5.44562 0
M  V30 4702 H 426.772 1.80031 -4.00606 0
M  V30 4703 H 427.378 0.146069 -4.25049 0
M  V30 4704 N 425.693 1.55336 -0.266172 0
M  V30 4705 C 426.939 1.99692 0.353681 0
M  V30 4706 C 427.272 1.1543 1.56172 0
M  V30 4707 O 426.547 0.222218 1.93226 0
M  V30 4708 C 426.83 3.52316 0.74466 0
M  V30 4709 C 426.683 4.47337 -0.470101 0
M  V30 4710 C 428.002 4.10588 1.58447 0
M  V30 4711 H 425.121 0.725961 0.12708 0
M  V30 4712 H 427.763 1.86336 -0.371333 0
M  V30 4713 H 425.913 3.63829 1.36239 0
M  V30 4714 H 427.585 4.4778 -1.10864 0
M  V30 4715 H 425.828 4.19364 -1.10978 0
M  V30 4716 H 426.499 5.51788 -0.15291 0
M  V30 4717 H 428.975 4.02297 1.06286 0
M  V30 4718 H 427.851 5.17607 1.82686 0
M  V30 4719 H 428.112 3.60253 2.56262 0
M  V30 4720 N 427.171 -0.0066808 1.57599 0
M  V30 4721 C 428.582 -0.550379 1.78403 0
M  V30 4722 C 428.933 -1.74339 0.900014 0
M  V30 4723 O 428.058 -2.16166 0.100713 0
M  V30 4724 C 428.653 -1.00523 3.23544 0
M  V30 4725 C 427.212 -1.49428 3.45468 0
M  V30 4726 C 426.359 -0.442444 2.73748 0
M  V30 4727 H 429.31 0.219508 1.57175 0
M  V30 4728 H 429.331 -1.87157 3.31289 0
M  V30 4729 H 428.843 -0.136735 3.87859 0
M  V30 4730 H 426.944 -2.3839 2.86358 0
M  V30 4731 H 427.057 -1.52635 4.54136 0
M  V30 4732 H 425.421 -0.902578 2.38171 0
M  V30 4733 H 426.204 0.416973 3.40758 0
M  V30 4734 N 428.649 -1.55105 -0.279332 0
M  V30 4735 C 429.898 -1.74618 -1.00952 0
M  V30 4736 C 430.211 -0.551096 -1.87676 0
M  V30 4737 O 431.417 -0.628507 -2.64125 0
M  V30 4738 C 429.873 -3.09025 -1.84476 0
M  V30 4739 C 429.481 -4.36081 -1.0265 0
M  V30 4740 C 431.225 -3.37891 -2.56963 0
M  V30 4741 C 429.132 -5.6153 -1.85576 0
M  V30 4742 H 428.062 -0.650868 -0.38064 0
M  V30 4743 H 430.713 -1.81569 -0.265475 0
M  V30 4744 H 429.095 -2.96095 -2.62952 0
M  V30 4745 H 430.269 -4.59909 -0.286354 0
M  V30 4746 H 428.584 -4.14312 -0.416464 0
M  V30 4747 H 431.181 -4.28822 -3.19399 0
M  V30 4748 H 431.524 -2.57737 -3.26921 0
M  V30 4749 H 432.057 -3.5189 -1.85522 0
M  V30 4750 H 428.796 -6.44413 -1.2005 0
M  V30 4751 H 428.316 -5.41854 -2.57204 0
M  V30 4752 H 429.995 -5.99594 -2.43096 0
M  V30 4753 N 430.127 0.543554 -1.4793 0
M  V30 4754 C 431.538 1.12561 -1.48953 0
M  V30 4755 C 431.889 1.94578 -0.251754 0
M  V30 4756 O 431.014 2.0665 0.642255 0
M  V30 4757 C 431.609 2.04801 -2.69892 0
M  V30 4758 C 430.168 2.58251 -2.73831 0
M  V30 4759 C 429.315 1.34918 -2.42265 0
M  V30 4760 H 432.266 0.32947 -1.55242 0
M  V30 4761 H 432.287 2.88886 -2.47639 0
M  V30 4762 H 431.799 1.4508 -3.59963 0
M  V30 4763 H 429.9 3.21732 -1.87934 0
M  V30 4764 H 430.013 2.98312 -3.74895 0
M  V30 4765 H 428.377 1.66046 -1.93134 0
M  V30 4766 H 429.16 0.769693 -3.3456 0
M  V30 4767 N 431.605 1.3629 0.791371 0
M  V30 4768 C 432.833 1.33562 1.58016 0
M  V30 4769 C 433.248 -0.0835616 1.88615 0
M  V30 4770 O 432.605 -1.0399 1.49974 0
M  V30 4771 C 432.656 2.15517 2.90232 0
M  V30 4772 O 432.377 3.51902 2.60953 0
M  V30 4773 C 433.878 2.20546 3.84544 0
M  V30 4774 H 431.098 0.458226 0.490173 0
M  V30 4775 H 433.642 1.79361 0.982345 0
M  V30 4776 H 431.797 1.73278 3.46487 0
M  V30 4777 H 432.211 3.94644 3.4548 0
M  V30 4778 H 433.685 2.82252 4.74382 0
M  V30 4779 H 434.162 1.20838 4.2225 0
M  V30 4780 H 434.768 2.63013 3.34222 0
M  V30 4781 N 433.083 -1.0153 1.20538 0
M  V30 4782 C 434.329 -1.75408 1.01783 0
M  V30 4783 C 434.662 -1.88943 -0.448814 0
M  V30 4784 O 433.937 -1.4162 -1.33319 0
M  V30 4785 C 434.22 -3.17255 1.70356 0
M  V30 4786 C 434.073 -3.11508 3.24473 0
M  V30 4787 C 435.392 -4.15955 1.43769 0
M  V30 4788 H 432.511 -0.636713 0.371167 0
M  V30 4789 H 435.153 -1.18436 1.4857 0
M  V30 4790 H 433.303 -3.65898 1.30578 0
M  V30 4791 H 434.975 -2.70658 3.73553 0
M  V30 4792 H 433.218 -2.4887 3.55311 0
M  V30 4793 H 433.889 -4.11784 3.67611 0
M  V30 4794 H 436.365 -3.75973 1.7828 0
M  V30 4795 H 435.241 -5.13368 1.94279 0
M  V30 4796 H 435.502 -4.40586 0.365564 0
M  V30 4797 N 434.561 -1.01147 -1.20859 0
M  V30 4798 C 435.509 -0.57059 -2.25493 0
M  V30 4799 C 436.503 0.388109 -1.64894 0
M  V30 4800 O 437.709 0.258592 -1.78133 0
M  V30 4801 H 434.084 -0.166191 -0.733406 0
M  V30 4802 H 436.055 -1.46411 -2.60012 0
M  V30 4803 C 434.804 0.0805241 -3.47607 0
M  V30 4804 H 434.127 -0.648156 -3.94511 0
M  V30 4805 H 435.567 0.352197 -4.22535 0
M  V30 4806 C 434.026 1.32175 -3.09889 0
M  V30 4807 O 434.556 2.41553 -3.20959 0
M  V30 4808 N 432.762 1.20392 -2.64488 0
M  V30 4809 H 432.309 0.313905 -2.5568 0
M  V30 4810 H 432.267 2.03541 -2.39621 0
M  V30 4811 N 436.039 1.36541 -0.78704 0
M  V30 4812 C 436.971 2.28761 -0.141773 0
M  V30 4813 C 437.984 1.49365 0.647599 0
M  V30 4814 O 439.173 1.71836 0.483173 0
M  V30 4815 C 436.273 3.28771 0.822368 0
M  V30 4816 C 435.446 4.3732 0.0835594 0
M  V30 4817 C 434.505 5.17307 0.963296 0
M  V30 4818 O 433.531 5.67638 0.421419 0
M  V30 4819 N 434.733 5.33515 2.28784 0
M  V30 4820 H 437.498 2.84777 -0.933919 0
M  V30 4821 H 435.059 1.48682 -0.640735 0
M  V30 4822 H 437.051 3.79169 1.41468 0
M  V30 4823 H 435.621 2.73412 1.5154 0
M  V30 4824 H 434.841 3.88118 -0.689809 0
M  V30 4825 H 436.129 5.0701 -0.426358 0
M  V30 4826 H 435.527 4.94234 2.75226 0
M  V30 4827 H 434.084 5.87165 2.82985 0
M  V30 4828 N 437.518 0.538854 1.48102 0
M  V30 4829 C 438.748 0.0122958 2.06596 0
M  V30 4830 C 439.156 -1.27861 1.39457 0
M  V30 4831 O 438.499 -1.77348 0.478907 0
M  V30 4832 C 438.561 -0.273131 3.58461 0
M  V30 4833 C 438.225 0.92561 4.47528 0
M  V30 4834 C 439.222 1.82637 4.86765 0
M  V30 4835 C 436.907 1.13511 4.89306 0
M  V30 4836 C 438.901 2.92047 5.66558 0
M  V30 4837 C 436.588 2.23233 5.68868 0
M  V30 4838 C 437.586 3.12333 6.07402 0
M  V30 4839 O 437.274 4.20155 6.85365 0
M  V30 4840 H 437.006 0.0344283 0.675123 0
M  V30 4841 H 439.56 0.746494 1.91355 0
M  V30 4842 H 437.79 -1.06141 3.71848 0
M  V30 4843 H 439.479 -0.742842 3.99045 0
M  V30 4844 H 440.245 1.67649 4.55103 0
M  V30 4845 H 436.124 0.450835 4.5879 0
M  V30 4846 H 439.668 3.6162 5.96554 0
M  V30 4847 H 435.565 2.38201 5.99942 0
M  V30 4848 H 436.333 4.17975 7.03732 0
M  V30 4849 N 438.996 -1.55193 0.274407 0
M  V30 4850 C 439.926 -2.25471 -0.607032 0
M  V30 4851 C 440.907 -1.24461 -1.15946 0
M  V30 4852 O 442.092 -1.53179 -1.19373 0
M  V30 4853 C 439.222 -2.97526 -1.79153 0
M  V30 4854 C 438.176 -4.05459 -1.37067 0
M  V30 4855 C 437.502 -4.65084 -2.6382 0
M  V30 4856 C 438.802 -5.19691 -0.521389 0
M  V30 4857 H 440.496 -2.99393 -0.0209343 0
M  V30 4858 H 438.042 -1.43997 -0.00862866 0
M  V30 4859 H 439.995 -3.45402 -2.41404 0
M  V30 4860 H 438.719 -2.21138 -2.40344 0
M  V30 4861 H 437.378 -3.58393 -0.771355 0
M  V30 4862 H 437.026 -3.85365 -3.23268 0
M  V30 4863 H 436.726 -5.37961 -2.36372 0
M  V30 4864 H 438.25 -5.15708 -3.26921 0
M  V30 4865 H 439.664 -5.63623 -1.04889 0
M  V30 4866 H 438.061 -5.99126 -0.341825 0
M  V30 4867 H 439.131 -4.82713 0.46 0
M  V30 4868 N 440.474 -0.00167713 -1.576 0
M  V30 4869 C 441.704 0.692754 -1.94639 0
M  V30 4870 C 442.112 1.67744 -0.87513 0
M  V30 4871 O 441.455 1.8305 0.154382 0
M  V30 4872 C 441.517 1.47881 -3.27676 0
M  V30 4873 C 441.181 0.655518 -4.52274 0
M  V30 4874 C 442.178 -0.0575214 -5.19868 0
M  V30 4875 C 439.863 0.600994 -4.98692 0
M  V30 4876 C 441.857 -0.814052 -6.3218 0
M  V30 4877 C 439.544 -0.15926 -6.10892 0
M  V30 4878 C 440.542 -0.865515 -6.77494 0
M  V30 4879 O 440.23 -1.61336 -7.87544 0
M  V30 4880 H 439.962 0.197792 -0.646417 0
M  V30 4881 H 442.516 -0.049423 -2.05341 0
M  V30 4882 H 440.746 2.2655 -3.13388 0
M  V30 4883 H 442.435 2.05874 -3.49816 0
M  V30 4884 H 443.201 -0.0245611 -4.84994 0
M  V30 4885 H 439.08 1.14025 -4.46676 0
M  V30 4886 H 442.624 -1.36584 -6.84098 0
M  V30 4887 H 438.521 -0.194035 -6.45208 0
M  V30 4888 H 439.289 -1.53025 -8.04068 0
M  V30 4889 N 441.952 1.55251 0.271103 0
M  V30 4890 C 443.199 1.75946 1.00245 0
M  V30 4891 C 443.527 0.561611 1.86215 0
M  V30 4892 O 442.782 -0.455832 1.90317 0
M  V30 4893 C 443.081 3.01879 1.91321 0
M  V30 4894 C 442.747 4.34337 1.21086 0
M  V30 4895 C 441.409 4.70338 1.01666 0
M  V30 4896 C 443.761 5.16325 0.71119 0
M  V30 4897 C 441.089 5.8588 0.310099 0
M  V30 4898 C 443.441 6.32597 0.0182157 0
M  V30 4899 C 442.105 6.67236 -0.18768 0
M  V30 4900 H 441.375 0.643833 0.366824 0
M  V30 4901 H 444.022 1.89521 0.27458 0
M  V30 4902 H 442.327 2.83212 2.70736 0
M  V30 4903 H 444.024 3.15088 2.48033 0
M  V30 4904 H 440.614 4.06043 1.37213 0
M  V30 4905 H 444.798 4.88987 0.848844 0
M  V30 4906 H 440.054 6.1124 0.139873 0
M  V30 4907 H 444.228 6.9538 -0.376711 0
M  V30 4908 H 441.855 7.56618 -0.73715 0
M  V30 4909 N 443.43 -0.535701 1.48216 0
M  V30 4910 C 444.36 -1.65014 1.65204 0
M  V30 4911 C 445.341 -1.62554 0.501011 0
M  V30 4912 O 446.526 -1.7984 0.732886 0
M  V30 4913 C 443.656 -3.03616 1.68626 0
M  V30 4914 C 442.61 -3.20932 2.83172 0
M  V30 4915 C 441.936 -4.60537 2.71679 0
M  V30 4916 C 443.236 -3.04249 4.24535 0
M  V30 4917 H 444.93 -1.51053 2.58502 0
M  V30 4918 H 442.476 -0.725262 1.24402 0
M  V30 4919 H 444.429 -3.81446 1.79099 0
M  V30 4920 H 443.153 -3.18587 0.719026 0
M  V30 4921 H 441.812 -2.45517 2.72244 0
M  V30 4922 H 441.46 -4.72336 1.72937 0
M  V30 4923 H 441.16 -4.73069 3.48538 0
M  V30 4924 H 442.684 -5.40475 2.84112 0
M  V30 4925 H 444.098 -3.71877 4.36326 0
M  V30 4926 H 442.495 -3.28278 5.02348 0
M  V30 4927 H 443.565 -2.00739 4.41397 0
M  V30 4928 N 444.908 -1.36708 -0.784132 0
M  V30 4929 C 446.155 -1.31231 -1.54222 0
M  V30 4930 C 446.483 0.106864 -1.94206 0
M  V30 4931 O 445.738 1.07734 -1.63376 0
M  V30 4932 C 446.037 -2.18571 -2.82774 0
M  V30 4933 C 445.703 -3.67039 -2.61903 0
M  V30 4934 C 444.365 -4.07503 -2.55919 0
M  V30 4935 C 446.717 -4.61149 -2.4288 0
M  V30 4936 C 444.045 -5.40211 -2.28886 0
M  V30 4937 C 446.397 -5.94081 -2.17373 0
M  V30 4938 C 445.061 -6.33664 -2.09825 0
M  V30 4939 H 444.331 -0.48021 -0.56434 0
M  V30 4940 H 446.978 -1.68807 -0.904233 0
M  V30 4941 H 445.283 -1.73949 -3.51068 0
M  V30 4942 H 446.98 -2.11655 -3.40592 0
M  V30 4943 H 443.57 -3.34941 -2.67418 0
M  V30 4944 H 447.754 -4.30756 -2.46501 0
M  V30 4945 H 443.01 -5.69855 -2.21529 0
M  V30 4946 H 447.184 -6.66566 -2.01649 0
M  V30 4947 H 444.811 -7.36423 -1.88641 0
M  V30 4948 N 446.386 1.0089 -1.21074 0
M  V30 4949 C 447.349 2.0775 -0.968129 0
M  V30 4950 C 448.349 1.6069 0.0593445 0
M  V30 4951 O 449.539 1.73293 -0.177525 0
M  V30 4952 C 446.671 3.37794 -0.459108 0
M  V30 4953 H 447.864 2.30707 -1.9161 0
M  V30 4954 H 445.417 1.17807 -1.02719 0
M  V30 4955 H 446.152 3.20516 0.49397 0
M  V30 4956 H 445.937 3.7328 -1.20019 0
M  V30 4957 H 447.427 4.16454 -0.309099 0
M  V30 4958 N 447.864 1.01787 1.20321 0
M  V30 4959 C 449.275 0.739307 1.71438 0
M  V30 4960 C 449.626 -0.742041 1.81627 0
M  V30 4961 O 448.751 -1.57903 1.47971 0
M  V30 4962 C 449.346 1.33538 3.11373 0
M  V30 4963 C 447.905 1.10566 3.59795 0
M  V30 4964 C 447.052 1.44028 2.36962 0
M  V30 4965 H 450.003 1.18718 1.05317 0
M  V30 4966 H 450.024 0.726611 3.73498 0
M  V30 4967 H 449.536 2.41352 3.03926 0
M  V30 4968 H 447.637 0.0452405 3.72573 0
M  V30 4969 H 447.75 1.78661 4.44542 0
M  V30 4970 H 446.114 0.85933 2.39766 0
M  V30 4971 H 446.897 2.52901 2.32155 0
M  V30 4972 N 449.342 -1.36122 0.79427 0
M  V30 4973 C 450.57 -2.03362 0.380989 0
M  V30 4974 C 450.985 -1.59881 -1.00416 0
M  V30 4975 O 450.342 -0.790515 -1.6449 0
M  V30 4976 C 450.393 -3.58804 0.440649 0
M  V30 4977 O 450.114 -4.007 1.77118 0
M  V30 4978 C 451.615 -4.43296 0.0186117 0
M  V30 4979 H 448.835 -0.652526 0.156367 0
M  V30 4980 H 451.379 -1.73998 1.07447 0
M  V30 4981 H 449.534 -3.8686 -0.204458 0
M  V30 4982 H 449.948 -4.95309 1.72538 0
M  V30 4983 H 451.422 -5.51887 0.111488 0
M  V30 4984 H 451.899 -4.2684 -1.03461 0
M  V30 4985 H 452.505 -4.20512 0.636395 0
M  V30 4986 N 450.82 -0.546701 -1.47814 0
M  V30 4987 C 451.75 0.195317 -2.32682 0
M  V30 4988 C 452.731 0.918981 -1.43139 0
M  V30 4989 O 453.916 0.901501 -1.72008 0
M  V30 4990 C 451.046 1.23237 -3.247 0
M  V30 4991 C 450 0.625818 -4.234 0
M  V30 4992 C 449.326 1.76674 -5.04669 0
M  V30 4993 C 450.626 -0.413515 -5.2066 0
M  V30 4994 H 452.32 -0.513184 -2.94969 0
M  V30 4995 H 449.866 -0.248241 -1.41844 0
M  V30 4996 H 451.819 1.75955 -3.82907 0
M  V30 4997 H 450.543 1.97067 -2.60446 0
M  V30 4998 H 449.202 0.120023 -3.66403 0
M  V30 4999 H 448.85 2.49383 -4.36826 0
M  V30 5000 H 448.55 1.36673 -5.71484 0
M  V30 5001 H 450.074 2.29738 -5.65732 0
M  V30 5002 H 451.488 0.0272042 -5.73294 0
M  V30 5003 H 449.885 -0.731825 -5.95621 0
M  V30 5004 H 450.955 -1.31325 -4.66778 0
M  V30 5005 N 452.299 1.55045 -0.282633 0
M  V30 5006 C 453.548 1.98938 0.332667 0
M  V30 5007 C 453.861 1.17455 1.56409 0
M  V30 5008 O 455.067 1.51527 2.25282 0
M  V30 5009 C 453.523 3.54105 0.643226 0
M  V30 5010 C 453.131 4.44374 -0.568814 0
M  V30 5011 C 454.875 4.06569 1.22074 0
M  V30 5012 C 452.782 5.90943 -0.232426 0
M  V30 5013 H 451.712 0.743043 0.128075 0
M  V30 5014 H 454.363 1.79341 -0.388464 0
M  V30 5015 H 452.745 3.69532 1.42346 0
M  V30 5016 H 453.919 4.40718 -1.34551 0
M  V30 5017 H 452.234 4.02585 -1.06369 0
M  V30 5018 H 454.831 5.13626 1.48635 0
M  V30 5019 H 455.174 3.56057 2.15707 0
M  V30 5020 H 455.707 3.94612 0.502621 0
M  V30 5021 H 452.446 6.45567 -1.13683 0
M  V30 5022 H 451.966 5.9765 0.507357 0
M  V30 5023 H 453.645 6.4677 0.172657 0
M  V30 5024 N 453.777 0.010035 1.57597 0
M  V30 5025 C 455.007 -0.682422 1.95004 0
M  V30 5026 C 455.415 -1.67278 0.884014 0
M  V30 5027 O 454.758 -1.83129 -0.144672 0
M  V30 5028 C 454.82 -1.46141 3.28456 0
M  V30 5029 C 454.484 -0.631523 4.52615 0
M  V30 5030 C 455.481 0.0850905 5.1983 0
M  V30 5031 C 453.166 -0.574539 4.99003 0
M  V30 5032 C 455.16 0.847566 6.3174 0
M  V30 5033 C 452.847 0.191655 6.10799 0
M  V30 5034 C 453.845 0.901432 6.77025 0
M  V30 5035 O 453.533 1.65511 7.86677 0
M  V30 5036 H 453.265 -0.194361 0.647456 0
M  V30 5037 H 455.819 0.060312 2.05311 0
M  V30 5038 H 454.049 -2.24885 3.14585 0
M  V30 5039 H 455.738 -2.04016 3.50902 0
M  V30 5040 H 456.504 0.0502812 4.84974 0
M  V30 5041 H 452.383 -1.11654 4.47274 0
M  V30 5042 H 455.927 1.4021 6.83364 0
M  V30 5043 H 451.824 0.228249 6.45096 0
M  V30 5044 H 452.592 1.57287 8.03245 0
M  V30 5045 N 455.255 -1.55392 -0.262866 0
M  V30 5046 C 456.671 -1.47459 -0.610582 0
M  V30 5047 C 456.871 -0.697031 -1.8906 0
M  V30 5048 O 455.927 -0.219952 -2.5154 0
M  V30 5049 C 457.24 -2.91751 -0.728131 0
M  V30 5050 C 458.788 -3.02027 -0.821517 0
M  V30 5051 C 459.263 -4.47594 -0.97076 0
M  V30 5052 N 460.754 -4.51465 -1.03603 0
M  V30 5053 C 461.489 -5.61326 -1.17049 0
M  V30 5054 N 460.985 -6.81032 -1.2715 0
M  V30 5055 N 462.778 -5.49089 -1.20239 0
M  V30 5056 H 454.929 -2.04395 0.577632 0
M  V30 5057 H 457.192 -0.927287 0.197086 0
M  V30 5058 H 456.898 -3.51413 0.142132 0
M  V30 5059 H 456.772 -3.4134 -1.6052 0
M  V30 5060 H 459.159 -2.42456 -1.68224 0
M  V30 5061 H 459.24 -2.55674 0.0803688 0
M  V30 5062 H 458.884 -5.07771 -0.114655 0
M  V30 5063 H 458.814 -4.91613 -1.88745 0
M  V30 5064 H 461.305 -3.6524 -0.96996 0
M  V30 5065 H 461.618 -7.60511 -1.37271 0
M  V30 5066 H 459.963 -6.83824 -1.24136 0
M  V30 5067 H 463.154 -4.54507 -1.11985 0
M  V30 5068 H 463.327 -6.34749 -1.30373 0
M  V30 5069 N 456.733 0.527833 -1.48498 0
M  V30 5070 C 458.01 1.28905 -1.47115 0
M  V30 5071 C 458.39 2.10297 -0.184007 0
M  V30 5072 O 457.738 2.12728 0.834218 0
M  V30 5073 C 457.948 2.16866 -2.73441 0
M  V30 5074 C 459.296 2.76936 -3.21857 0
M  V30 5075 O 460.32 2.27152 -2.74373 0
M  V30 5076 O 459.179 3.67496 -4.04486 0
M  V30 5077 H 456.273 0.581918 -0.587623 0
M  V30 5078 H 458.819 0.544311 -1.60734 0
M  V30 5079 H 457.591 1.56521 -3.58632 0
M  V30 5080 H 457.214 2.98583 -2.62553 0
M  V30 5081 N 458.211 1.37122 0.776871 0
M  V30 5082 C 459.436 1.354 1.57104 0
M  V30 5083 C 459.861 -0.0595562 1.88006 0
M  V30 5084 O 459.219 -1.03514 1.48844 0
M  V30 5085 C 459.267 2.19472 2.8612 0
M  V30 5086 O 458.371 1.59582 3.80273 0
M  V30 5087 H 457.712 0.462869 0.476076 0
M  V30 5088 H 460.242 1.80577 0.961932 0
M  V30 5089 H 460.252 2.32502 3.35271 0
M  V30 5090 H 458.927 3.22222 2.62956 0
M  V30 5091 H 457.504 1.55564 3.38902 0
M  V30 5092 N 459.689 -1.00246 1.21608 0
M  V30 5093 C 460.919 -1.77373 1.05935 0
M  V30 5094 C 461.327 -1.85059 -0.393686 0
M  V30 5095 O 460.67 -1.31289 -1.28487 0
M  V30 5096 C 460.732 -3.22705 1.58435 0
M  V30 5097 C 460.396 -3.38591 3.06929 0
M  V30 5098 C 461.393 -3.2667 4.04454 0
M  V30 5099 C 459.078 -3.6395 3.46187 0
M  V30 5100 C 461.072 -3.39877 5.39224 0
M  V30 5101 C 458.759 -3.768 4.81108 0
M  V30 5102 C 459.757 -3.6477 5.77436 0
M  V30 5103 O 459.445 -3.77206 7.09909 0
M  V30 5104 H 459.177 -0.56419 0.372378 0
M  V30 5105 H 461.731 -1.26971 1.61454 0
M  V30 5106 H 459.961 -3.74255 0.973147 0
M  V30 5107 H 461.65 -3.81515 1.38568 0
M  V30 5108 H 462.416 -3.06999 3.75468 0
M  V30 5109 H 458.295 -3.72395 2.71741 0
M  V30 5110 H 461.839 -3.30404 6.14393 0
M  V30 5111 H 457.736 -3.95975 5.09779 0
M  V30 5112 H 458.504 -3.94138 7.17355 0
M  V30 5113 N 461.167 -1.02423 -1.1978 0
M  V30 5114 C 462.578 -0.748389 -1.71044 0
M  V30 5115 C 462.929 0.732398 -1.82017 0
M  V30 5116 O 462.054 1.57116 -1.48807 0
M  V30 5117 C 462.649 -1.35187 -3.1066 0
M  V30 5118 C 461.208 -1.12472 -3.59203 0
M  V30 5119 C 460.355 -1.45283 -2.36195 0
M  V30 5120 H 463.306 -1.19275 -1.04686 0
M  V30 5121 H 463.327 -0.746408 -3.73107 0
M  V30 5122 H 462.839 -2.4296 -3.02642 0
M  V30 5123 H 460.94 -0.0649983 -3.72543 0
M  V30 5124 H 461.053 -1.81016 -4.43588 0
M  V30 5125 H 459.417 -0.872034 -2.39307 0
M  V30 5126 H 460.2 -2.54129 -2.30811 0
M  V30 5127 N 462.645 1.35699 -0.801477 0
M  V30 5128 C 464.061 1.52065 -0.484596 0
M  V30 5129 C 464.261 1.75215 0.995084 0
M  V30 5130 O 463.317 1.79061 1.78026 0
M  V30 5131 C 464.63 2.69908 -1.32552 0
M  V30 5132 C 466.178 2.83784 -1.32044 0
M  V30 5133 C 466.653 4.04646 -2.14536 0
M  V30 5134 N 468.144 4.11814 -2.12046 0
M  V30 5135 C 468.879 5.04437 -2.72636 0
M  V30 5136 N 468.375 6.02426 -3.42133 0
M  V30 5137 N 470.168 4.97144 -2.62305 0
M  V30 5138 H 462.319 1.18928 -1.75983 0
M  V30 5139 H 464.582 0.581455 -0.748741 0
M  V30 5140 H 464.288 2.59363 -2.37537 0
M  V30 5141 H 464.162 3.64376 -0.975181 0
M  V30 5142 H 466.549 2.93783 -0.27846 0
M  V30 5143 H 466.63 1.90188 -1.71062 0
M  V30 5144 H 466.274 3.95407 -3.18772 0
M  V30 5145 H 466.204 4.97413 -1.72882 0
M  V30 5146 H 468.695 3.41664 -1.61476 0
M  V30 5147 H 469.008 6.69688 -3.85666 0
M  V30 5148 H 467.353 6.02615 -3.46237 0
M  V30 5149 H 470.544 4.19546 -2.07603 0
M  V30 5150 H 470.717 5.69138 -3.09815 0
M  V30 5151 N 464.123 0.554532 1.47522 0
M  V30 5152 C 465.071 -0.207765 2.3167 0
M  V30 5153 C 466.065 -0.911914 1.4276 0
M  V30 5154 O 467.271 -0.833504 1.59539 0
M  V30 5155 H 463.646 -0.0858726 0.747081 0
M  V30 5156 H 465.617 0.521178 2.93813 0
M  V30 5157 C 464.366 -1.2263 3.25357 0
M  V30 5158 H 463.689 -0.693887 3.93732 0
M  V30 5159 H 465.129 -1.73062 3.87073 0
M  V30 5160 C 463.588 -2.27278 2.4869 0
M  V30 5161 O 464.118 -3.34156 2.22941 0
M  V30 5162 N 462.324 -2.01134 2.09746 0
M  V30 5163 H 461.871 -1.14232 2.30887 0
M  V30 5164 H 461.829 -2.71369 1.58765 0
M  V30 5165 N 465.601 -1.54893 0.290851 0
M  V30 5166 C 467.012 -1.85584 -0.203816 0
M  V30 5167 C 467.363 -1.21285 -1.54222 0
M  V30 5168 O 466.488 -0.506841 -2.10381 0
M  V30 5169 C 467.083 -3.367 -0.376595 0
M  V30 5170 C 465.642 -3.6746 -0.815485 0
M  V30 5171 C 464.789 -2.77178 0.0821087 0
M  V30 5172 H 467.74 -1.50208 0.512175 0
M  V30 5173 H 467.761 -3.60656 -1.21275 0
M  V30 5174 H 467.273 -3.8347 0.59767 0
M  V30 5175 H 465.374 -3.26201 -1.80066 0
M  V30 5176 H 465.487 -4.7478 -0.641905 0
M  V30 5177 H 463.851 -2.50925 -0.436895 0
M  V30 5178 H 464.634 -3.26767 1.05254 0
M  V30 5179 N 467.08 -0.0183926 -1.57589 0
M  V30 5180 C 468.308 0.673046 -1.95647 0
M  V30 5181 C 468.723 1.66275 -0.894312 0
M  V30 5182 O 468.08 1.82072 0.124975 0
M  V30 5183 C 468.131 1.38884 -3.33756 0
M  V30 5184 O 467.852 0.438806 -4.35897 0
M  V30 5185 C 469.353 2.1731 -3.86383 0
M  V30 5186 H 466.573 0.186292 -0.644621 0
M  V30 5187 H 469.117 -0.0749748 -2.04363 0
M  V30 5188 H 467.272 2.08835 -3.26293 0
M  V30 5189 H 467.686 0.945869 -5.15901 0
M  V30 5190 H 469.16 2.62863 -4.85394 0
M  V30 5191 H 469.637 3.00764 -3.20059 0
M  V30 5192 H 470.243 1.52339 -3.97081 0
M  V30 5193 N 468.558 1.5553 0.254621 0
M  V30 5194 C 469.804 1.77262 0.985193 0
M  V30 5195 C 470.137 0.582286 1.85265 0
M  V30 5196 O 469.412 -0.419666 1.89919 0
M  V30 5197 C 469.695 3.0881 1.85225 0
M  V30 5198 C 469.548 4.38233 1.0135 0
M  V30 5199 C 470.867 3.3653 2.83612 0
M  V30 5200 H 467.986 0.644906 0.356742 0
M  V30 5201 H 470.628 1.88264 0.256236 0
M  V30 5202 H 468.778 2.99562 2.47376 0
M  V30 5203 H 470.45 4.59463 0.411269 0
M  V30 5204 H 468.693 4.32636 0.317574 0
M  V30 5205 H 469.364 5.26644 1.65379 0
M  V30 5206 H 471.84 3.45691 2.31596 0
M  V30 5207 H 470.716 4.29805 3.41407 0
M  V30 5208 H 470.977 2.57064 3.59681 0
M  V30 5209 N 470.036 -0.519951 1.48776 0
M  V30 5210 C 471.452 -0.849418 1.35119 0
M  V30 5211 C 471.652 -1.98077 0.36982 0
M  V30 5212 O 470.708 -2.51664 -0.205359 0
M  V30 5213 C 472.021 -1.20748 2.75391 0
M  V30 5214 C 473.569 -1.31679 2.83954 0
M  V30 5215 C 474.044 -1.70824 4.24951 0
M  V30 5216 N 475.535 -1.77908 4.27672 0
M  V30 5217 C 476.27 -2.09603 5.33717 0
M  V30 5218 N 475.766 -2.39652 6.5003 0
M  V30 5219 N 477.559 -2.10694 5.21119 0
M  V30 5220 H 469.71 0.226377 2.1119 0
M  V30 5221 H 471.973 0.0386519 0.947212 0
M  V30 5222 H 471.679 -0.449703 3.48813 0
M  V30 5223 H 471.553 -2.15534 3.09556 0
M  V30 5224 H 473.94 -2.06532 2.10781 0
M  V30 5225 H 474.021 -0.3499 2.53396 0
M  V30 5226 H 473.665 -0.965282 4.98643 0
M  V30 5227 H 473.595 -2.6858 4.52959 0
M  V30 5228 H 476.086 -1.56923 3.43779 0
M  V30 5229 H 476.399 -2.6297 7.26682 0
M  V30 5230 H 474.744 -2.37149 6.53288 0
M  V30 5231 H 477.935 -1.86682 4.29264 0
M  V30 5232 H 478.108 -2.35062 6.03863 0
M  V30 5233 N 471.514 -1.37532 -0.769588 0
M  V30 5234 C 472.76 -1.34063 -1.52966 0
M  V30 5235 C 473.115 0.0737942 -1.92258 0
M  V30 5236 O 472.408 1.03291 -1.61374 0
M  V30 5237 C 472.602 -2.21558 -2.8044 0
M  V30 5238 C 472.431 -3.71367 -2.53608 0
M  V30 5239 C 471.201 -4.40464 -2.47628 0
M  V30 5240 C 473.399 -4.64177 -2.21459 0
M  V30 5241 N 471.381 -5.758 -2.12902 0
M  V30 5242 C 472.752 -5.87907 -1.9689 0
M  V30 5243 C 474.807 -4.52541 -2.07633 0
M  V30 5244 C 473.51 -7.01304 -1.59892 0
M  V30 5245 C 475.536 -5.65825 -1.72034 0
M  V30 5246 C 474.898 -6.88606 -1.48327 0
M  V30 5247 H 470.997 -0.545856 -0.559969 0
M  V30 5248 H 473.581 -1.72773 -0.897634 0
M  V30 5249 H 471.752 -1.85061 -3.41478 0
M  V30 5250 H 473.484 -2.09332 -3.46356 0
M  V30 5251 H 470.239 -3.93491 -2.63556 0
M  V30 5252 H 470.663 -6.47328 -1.9823 0
M  V30 5253 H 475.305 -3.58183 -2.24643 0
M  V30 5254 H 473.023 -7.95594 -1.4162 0
M  V30 5255 H 476.609 -5.58793 -1.61991 0
M  V30 5256 H 475.489 -7.74779 -1.21189 0
M  V30 5257 N 472.992 0.995999 -1.22138 0
M  V30 5258 C 474.24 1.73167 -1.042 0
M  V30 5259 C 474.561 1.90329 0.42423 0
M  V30 5260 O 473.831 1.4607 1.30539 0
M  V30 5261 H 472.411 0.641593 -0.38258 0
M  V30 5262 H 475.073 1.19974 -1.53598 0
M  V30 5263 H 474.169 2.72734 -1.51731 0
M  V30 5264 N 474.47 1.03057 1.19235 0
M  V30 5265 C 475.7 0.746613 1.92638 0
M  V30 5266 C 476.108 -0.698708 1.75826 0
M  V30 5267 O 475.451 -1.487 1.07861 0
M  V30 5268 C 475.513 1.02024 3.44719 0
M  V30 5269 C 475.177 2.45745 3.85303 0
M  V30 5270 C 476.174 3.43887 3.8992 0
M  V30 5271 C 473.859 2.8019 4.16892 0
M  V30 5272 C 475.853 4.74529 4.2556 0
M  V30 5273 C 473.54 4.1104 4.52205 0
M  V30 5274 C 474.538 5.0802 4.56513 0
M  V30 5275 O 474.226 6.36527 4.91008 0
M  V30 5276 H 473.958 0.272401 0.618687 0
M  V30 5277 H 476.512 1.37853 1.52269 0
M  V30 5278 H 474.742 0.331184 3.85279 0
M  V30 5279 H 476.431 0.725677 3.9936 0
M  V30 5280 H 477.197 3.18614 3.65664 0
M  V30 5281 H 473.076 2.05382 4.12722 0
M  V30 5282 H 476.62 5.50222 4.28838 0
M  V30 5283 H 472.517 4.36086 4.7592 0
M  V30 5284 H 473.285 6.41025 5.08949 0
M  V30 5285 N 475.948 -1.35272 0.808662 0
M  V30 5286 C 477.194 -1.99003 0.390581 0
M  V30 5287 C 477.527 -1.63999 -1.0401 0
M  V30 5288 O 476.802 -0.904368 -1.72196 0
M  V30 5289 C 477.085 -3.55454 0.576566 0
M  V30 5290 C 476.938 -4.00249 2.05233 0
M  V30 5291 C 478.257 -4.401 0.00354277 0
M  V30 5292 H 475.376 -0.722917 0.143388 0
M  V30 5293 H 478.018 -1.6039 1.01858 0
M  V30 5294 H 476.168 -3.88477 0.0419766 0
M  V30 5295 H 477.84 -3.77626 2.64946 0
M  V30 5296 H 476.083 -3.51082 2.54801 0
M  V30 5297 H 476.754 -5.0911 2.13333 0
M  V30 5298 H 479.23 -4.13548 0.460117 0
M  V30 5299 H 478.106 -5.48656 0.163575 0
M  V30 5300 H 478.367 -4.28444 -1.09032 0
M  V30 5301 N 477.426 -0.562348 -1.47226 0
M  V30 5302 C 478.389 0.172056 -2.28553 0
M  V30 5303 C 479.389 0.837928 -1.37242 0
M  V30 5304 O 480.579 0.693001 -1.59822 0
M  V30 5305 C 477.711 1.25223 -3.17068 0
M  V30 5306 H 478.904 -0.542401 -2.94954 0
M  V30 5307 H 476.457 -0.319493 -1.53 0
M  V30 5308 H 477.192 1.99892 -2.55369 0
M  V30 5309 H 476.977 0.779515 -3.84273 0
M  V30 5310 H 478.467 1.76791 -3.78332 0
M  V30 5311 N 478.904 1.54736 -0.299062 0
M  V30 5312 C 479.837 2.1962 0.619851 0
M  V30 5313 C 480.815 1.16496 1.13434 0
M  V30 5314 O 481.999 1.4513 1.2029 0
M  V30 5315 C 479.126 2.8385 1.84788 0
M  V30 5316 C 478.172 4.00484 1.46679 0
M  V30 5317 S 479.005 5.32926 0.524389 0
M  V30 5318 C 480.161 6.00638 1.76026 0
M  V30 5319 H 480.394 2.97221 0.0686177 0
M  V30 5320 H 477.927 1.54176 -0.0832085 0
M  V30 5321 H 479.885 3.21483 2.55263 0
M  V30 5322 H 478.546 2.06099 2.37028 0
M  V30 5323 H 477.739 4.44201 2.38121 0
M  V30 5324 H 477.341 3.64398 0.842008 0
M  V30 5325 H 479.633 6.21327 2.70109 0
M  V30 5326 H 480.576 6.94805 1.36569 0
M  V30 5327 H 480.984 5.3026 1.93609 0
M  V30 5328 N 480.382 0.0267497 1.57577 0
M  V30 5329 C 481.329 -0.955894 2.10075 0
M  V30 5330 C 482.299 -1.32453 1.00226 0
M  V30 5331 O 483.484 -1.41826 1.27632 0
M  V30 5332 C 480.624 -2.2338 2.6305 0
M  V30 5333 C 479.737 -1.92183 3.86898 0
M  V30 5334 C 478.872 -3.14251 4.28275 0
M  V30 5335 C 477.911 -2.78862 5.44888 0
M  V30 5336 N 477.048 -3.93548 5.81433 0
M  V30 5337 H 481.888 -0.501303 2.93753 0
M  V30 5338 H 479.425 -0.235847 1.45197 0
M  V30 5339 H 481.383 -2.98124 2.91853 0
M  V30 5340 H 480.013 -2.6646 1.82205 0
M  V30 5341 H 479.065 -1.07692 3.64838 0
M  V30 5342 H 480.377 -1.62117 4.7172 0
M  V30 5343 H 479.531 -3.97317 4.58502 0
M  V30 5344 H 478.27 -3.47476 3.42215 0
M  V30 5345 H 477.275 -1.94208 5.14357 0
M  V30 5346 H 478.5 -2.46855 6.32645 0
M  V30 5347 H 476.446 -4.2662 4.98328 0
M  V30 5348 H 476.363 -3.67098 6.6089 0
M  V30 5349 H 477.631 -4.77325 6.16264 0
M  V30 5350 N 481.861 -1.55662 -0.24637 0
M  V30 5351 C 483.108 -1.77519 -0.974335 0
M  V30 5352 C 483.436 -0.591165 -1.85298 0
M  V30 5353 O 482.691 0.425497 -1.91018 0
M  V30 5354 C 482.99 -3.04885 -1.86494 0
M  V30 5355 C 482.656 -4.36209 -1.14161 0
M  V30 5356 C 481.318 -4.71896 -0.941701 0
M  V30 5357 C 483.67 -5.17391 -0.628957 0
M  V30 5358 C 480.998 -5.86299 -0.216852 0
M  V30 5359 C 483.35 -6.32546 0.0824273 0
M  V30 5360 C 482.014 -6.66853 0.293807 0
M  V30 5361 H 481.284 -0.649588 -0.356535 0
M  V30 5362 H 483.931 -1.89934 -0.244394 0
M  V30 5363 H 482.236 -2.87484 -2.66196 0
M  V30 5364 H 483.933 -3.18994 -2.42989 0
M  V30 5365 H 480.523 -4.08174 -1.30736 0
M  V30 5366 H 484.707 -4.90276 -0.770943 0
M  V30 5367 H 479.963 -6.11385 -0.0426124 0
M  V30 5368 H 484.137 -6.94693 0.487292 0
M  V30 5369 H 481.764 -7.55349 0.857428 0
M  V30 5370 N 483.339 0.512053 -1.4905 0
M  V30 5371 C 484.302 1.59704 -1.64399 0
M  V30 5372 C 485.302 1.52285 -0.516317 0
M  V30 5373 O 486.492 1.55635 -0.782527 0
M  V30 5374 C 483.624 2.9935 -1.63102 0
M  V30 5375 H 484.817 1.47428 -2.61161 0
M  V30 5376 H 482.37 0.735469 -1.37915 0
M  V30 5377 H 483.105 3.17116 -0.678836 0
M  V30 5378 H 482.89 3.06144 -2.44986 0
M  V30 5379 H 484.38 3.782 -1.77072 0
M  V30 5380 N 484.817 1.37938 0.762283 0
M  V30 5381 C 485.749 1.30349 1.88525 0
M  V30 5382 C 486.762 0.217402 1.61342 0
M  V30 5383 O 487.951 0.474291 1.72084 0
M  V30 5384 C 485.051 0.994844 3.23969 0
M  V30 5385 C 484.224 2.18829 3.78725 0
M  V30 5386 C 483.283 1.84844 4.92665 0
M  V30 5387 O 482.309 2.57244 5.07754 0
M  V30 5388 N 483.511 0.798201 5.74986 0
M  V30 5389 H 486.276 2.27114 1.95549 0
M  V30 5390 H 483.837 1.31686 0.941825 0
M  V30 5391 H 485.829 0.748168 3.97724 0
M  V30 5392 H 484.399 0.115446 3.12387 0
M  V30 5393 H 483.619 2.59615 2.96637 0
M  V30 5394 H 484.907 2.98497 4.1204 0
M  V30 5395 H 484.305 0.197611 5.65355 0
M  V30 5396 H 482.862 0.611396 6.48926 0
M  V30 5397 N 486.295 -0.989507 1.22664 0
M  V30 5398 C 487.541 -1.7321 1.05481 0
M  V30 5399 C 487.874 -1.89852 -0.408635 0
M  V30 5400 O 487.149 -1.44416 -1.30285 0
M  V30 5401 C 487.432 -3.1357 1.77047 0
M  V30 5402 C 487.285 -3.04555 3.31008 0
M  V30 5403 C 488.604 -4.12812 1.5256 0
M  V30 5404 H 485.723 -0.628697 0.384589 0
M  V30 5405 H 488.365 -1.15258 1.51049 0
M  V30 5406 H 486.515 -3.63046 1.3831 0
M  V30 5407 H 488.187 -2.62674 3.7921 0
M  V30 5408 H 486.43 -2.41278 3.6051 0
M  V30 5409 H 487.101 -4.03894 3.76263 0
M  V30 5410 H 489.577 -3.72106 1.86215 0
M  V30 5411 H 488.453 -5.09132 2.05124 0
M  V30 5412 H 488.714 -4.39711 0.458936 0
M  V30 5413 N 487.773 -1.03688 -1.18687 0
M  V30 5414 C 489.02 -0.73803 -1.88572 0
M  V30 5415 C 489.348 0.733973 -1.8012 0
M  V30 5416 O 488.603 1.55098 -1.19344 0
M  V30 5417 C 488.902 -1.14477 -3.3857 0
M  V30 5418 C 488.568 -2.61641 -3.67226 0
M  V30 5419 C 487.23 -3.01846 -3.74757 0
M  V30 5420 C 489.582 -3.56812 -3.79914 0
M  V30 5421 C 486.91 -4.36118 -3.92451 0
M  V30 5422 C 489.262 -4.90799 -3.99123 0
M  V30 5423 C 487.926 -5.3068 -4.04888 0
M  V30 5424 H 487.196 -0.270064 -0.690034 0
M  V30 5425 H 489.843 -1.3012 -1.40503 0
M  V30 5426 H 488.148 -0.500337 -3.88592 0
M  V30 5427 H 489.845 -0.89095 -3.90977 0
M  V30 5428 H 486.435 -2.29498 -3.61979 0
M  V30 5429 H 490.619 -3.26899 -3.73431 0
M  V30 5430 H 485.875 -4.66542 -3.95157 0
M  V30 5431 H 490.049 -5.64451 -4.07882 0
M  V30 5432 H 487.676 -6.34733 -4.18351 0
M  V30 5433 N 489.251 1.34841 -0.815825 0
M  V30 5434 C 490.499 1.98107 -0.399744 0
M  V30 5435 C 490.82 1.65019 1.03894 0
M  V30 5436 O 490.09 0.937311 1.72021 0
M  V30 5437 H 488.67 0.732827 -0.144823 0
M  V30 5438 H 491.332 1.64599 -1.0437 0
M  V30 5439 H 490.428 3.07856 -0.512965 0
M  V30 5440 N 490.729 0.570148 1.46925 0
M  V30 5441 C 491.969 0.0534743 2.0433 0
M  V30 5442 C 492.333 -1.27729 1.4335 0
M  V30 5443 O 493.534 -1.88244 1.91879 0
M  V30 5444 C 491.805 -0.0244296 3.57392 0
M  V30 5445 S 493.364 -0.485351 4.36108 0
M  V30 5446 H 490.182 0.0313908 0.710307 0
M  V30 5447 H 492.784 0.759808 1.80131 0
M  V30 5448 H 491.488 0.948261 3.99295 0
M  V30 5449 H 491.019 -0.753922 3.86108 0
M  V30 5450 H 493.034 -1.74258 4.64595 0
M  V30 5451 N 492.207 -1.54576 0.307264 0
M  V30 5452 C 493.454 -2.00263 -0.300167 0
M  V30 5453 C 493.782 -1.19561 -1.53413 0
M  V30 5454 O 493.037 -0.261487 -1.93945 0
M  V30 5455 C 493.336 -3.50572 -0.695253 0
M  V30 5456 C 493.002 -4.48771 0.437679 0
M  V30 5457 C 491.664 -4.7534 0.748681 0
M  V30 5458 C 494.016 -5.0721 1.19949 0
M  V30 5459 C 491.344 -5.5761 1.8245 0
M  V30 5460 C 493.696 -5.90651 2.26527 0
M  V30 5461 C 492.36 -6.15528 2.58227 0
M  V30 5462 H 491.63 -0.732814 -0.109839 0
M  V30 5463 H 494.277 -1.86664 0.427661 0
M  V30 5464 H 492.582 -3.61814 -1.50326 0
M  V30 5465 H 494.279 -3.83352 -1.17653 0
M  V30 5466 H 490.869 -4.282 0.185187 0
M  V30 5467 H 495.053 -4.86679 0.972474 0
M  V30 5468 H 490.309 -5.75121 2.07476 0
M  V30 5469 H 494.483 -6.34957 2.86011 0
M  V30 5470 H 492.11 -6.79066 3.4172 0
M  V30 5471 N 493.685 -0.035106 -1.57561 0
M  V30 5472 C 494.932 0.642229 -1.92046 0
M  V30 5473 C 495.26 1.7179 -0.91206 0
M  V30 5474 O 494.515 1.95544 0.0781153 0
M  V30 5475 C 494.814 1.29149 -3.3325 0
M  V30 5476 C 494.48 0.345604 -4.49574 0
M  V30 5477 C 493.142 0.0852775 -4.81124 0
M  V30 5478 C 495.494 -0.303569 -5.20315 0
M  V30 5479 C 492.822 -0.831927 -5.80772 0
M  V30 5480 C 495.174 -1.20886 -6.20942 0
M  V30 5481 C 493.838 -1.47802 -6.50931 0
M  V30 5482 H 493.108 0.235008 -0.702746 0
M  V30 5483 H 495.755 -0.0981529 -1.91248 0
M  V30 5484 H 494.06 2.10676 -3.30337 0
M  V30 5485 H 495.757 1.82223 -3.57205 0
M  V30 5486 H 492.347 0.558683 -4.24943 0
M  V30 5487 H 496.531 -0.115515 -4.96166 0
M  V30 5488 H 491.787 -1.0481 -6.02349 0
M  V30 5489 H 495.961 -1.71804 -6.74875 0
M  V30 5490 H 493.588 -2.19039 -7.2796 0
M  V30 5491 N 495.163 1.55791 0.238111 0
M  V30 5492 C 496.393 1.81834 0.980809 0
M  V30 5493 C 496.801 0.609741 1.79106 0
M  V30 5494 O 496.144 -0.431073 1.78571 0
M  V30 5495 C 496.206 3.01363 1.96011 0
M  V30 5496 C 495.87 4.37037 1.33597 0
M  V30 5497 C 496.867 5.14692 0.734063 0
M  V30 5498 C 494.552 4.83743 1.3527 0
M  V30 5499 C 496.546 6.37206 0.157208 0
M  V30 5500 C 494.233 6.06204 0.77199 0
M  V30 5501 C 495.231 6.82775 0.175282 0
M  V30 5502 O 494.919 8.02922 -0.396432 0
M  V30 5503 H 494.651 0.6088 0.293834 0
M  V30 5504 H 497.205 2.03702 0.263552 0
M  V30 5505 H 495.435 2.75273 2.71591 0
M  V30 5506 H 497.124 3.14422 2.56697 0
M  V30 5507 H 497.89 4.79722 0.713582 0
M  V30 5508 H 493.769 4.24129 1.80653 0
M  V30 5509 H 497.313 6.96915 -0.30917 0
M  V30 5510 H 493.21 6.4065 0.789828 0
M  V30 5511 H 493.978 8.17989 -0.289145 0
M  V30 5512 N 496.642 -0.504142 1.49319 0
M  V30 5513 C 497.888 -1.26033 1.58882 0
M  V30 5514 C 498.221 -1.92268 0.273274 0
M  V30 5515 O 497.496 -1.80567 -0.72291 0
M  V30 5516 C 497.779 -2.32976 2.7458 0
M  V30 5517 C 497.632 -1.71263 4.1592 0
M  V30 5518 C 498.951 -3.34561 2.85932 0
M  V30 5519 H 496.07 -0.456863 0.578312 0
M  V30 5520 H 498.712 -0.558965 1.81592 0
M  V30 5521 H 496.862 -2.92796 2.55348 0
M  V30 5522 H 498.534 -1.15294 4.4666 0
M  V30 5523 H 496.777 -1.01686 4.21714 0
M  V30 5524 H 497.448 -2.48816 4.92742 0
M  V30 5525 H 499.924 -2.84727 3.0343 0
M  V30 5526 H 498.8 -4.06754 3.68568 0
M  V30 5527 H 499.061 -3.96695 1.95154 0
M  V30 5528 N 498.12 -1.38341 -0.754957 0
M  V30 5529 C 499.35 -1.37504 -1.54195 0
M  V30 5530 C 499.758 0.0373787 -1.89163 0
M  V30 5531 O 499.101 1.01402 -1.53178 0
M  V30 5532 C 499.163 -2.16488 -2.87008 0
M  V30 5533 C 498.827 -3.65311 -2.74585 0
M  V30 5534 C 499.824 -4.58834 -2.44474 0
M  V30 5535 C 497.509 -4.08649 -2.9208 0
M  V30 5536 C 499.503 -5.93675 -2.32011 0
M  V30 5537 C 497.19 -5.43571 -2.79237 0
M  V30 5538 C 498.188 -6.35898 -2.49245 0
M  V30 5539 O 497.876 -7.68338 -2.36458 0
M  V30 5540 H 497.608 -0.472159 -0.483779 0
M  V30 5541 H 500.162 -1.82515 -0.94221 0
M  V30 5542 H 498.392 -1.66194 -3.49166 0
M  V30 5543 H 500.081 -2.08076 -3.4851 0
M  V30 5544 H 500.847 -4.26657 -2.30627 0
M  V30 5545 H 496.726 -3.37134 -3.14422 0
M  V30 5546 H 500.27 -6.65706 -2.08522 0
M  V30 5547 H 496.167 -5.75345 -2.92657 0
M  V30 5548 H 496.935 -7.78845 -2.5168 0
M  V30 5549 N 499.598 0.982988 -1.23187 0
M  V30 5550 C 500.828 1.75666 -1.08743 0
M  V30 5551 C 501.236 1.85662 0.364195 0
M  V30 5552 O 500.579 1.33317 1.26382 0
M  V30 5553 C 500.641 3.20144 -1.63549 0
M  V30 5554 C 500.305 3.33665 -3.12277 0
M  V30 5555 C 501.302 3.20194 -4.096 0
M  V30 5556 C 498.987 3.58397 -3.51933 0
M  V30 5557 C 500.981 3.31256 -5.44563 0
M  V30 5558 C 498.668 3.69098 -4.87042 0
M  V30 5559 C 499.666 3.55537 -5.83166 0
M  V30 5560 O 499.354 3.65864 -7.1582 0
M  V30 5561 H 499.086 0.558194 -0.381307 0
M  V30 5562 H 501.64 1.24387 -1.63454 0
M  V30 5563 H 499.87 3.72659 -1.03256 0
M  V30 5564 H 501.559 3.79262 -1.4462 0
M  V30 5565 H 502.325 3.00987 -3.80305 0
M  V30 5566 H 498.204 3.68025 -2.77631 0
M  V30 5567 H 501.748 3.20588 -6.19572 0
M  V30 5568 H 497.645 3.87814 -5.16014 0
M  V30 5569 H 498.413 3.82675 -7.23534 0
M  V30 5570 N 501.076 1.04316 1.18135 0
M  V30 5571 C 502.325 0.74319 1.87509 0
M  V30 5572 C 502.638 -0.732136 1.81381 0
M  V30 5573 O 503.844 -1.14572 2.46141 0
M  V30 5574 C 502.3 1.27913 3.36402 0
M  V30 5575 C 501.908 2.78326 3.51053 0
M  V30 5576 C 503.652 1.0558 4.11161 0
M  V30 5577 C 501.559 3.25266 4.93919 0
M  V30 5578 H 500.489 0.274313 0.702331 0
M  V30 5579 H 503.14 1.25931 1.33467 0
M  V30 5580 H 501.522 0.690853 3.89927 0
M  V30 5581 H 502.696 3.42933 3.07788 0
M  V30 5582 H 501.011 2.991 2.89704 0
M  V30 5583 H 503.608 1.38161 5.16542 0
M  V30 5584 H 503.951 -0.00684729 4.16299 0
M  V30 5585 H 504.484 1.60882 3.63816 0
M  V30 5586 H 501.223 4.30922 4.9395 0
M  V30 5587 H 500.743 2.65396 5.3789 0
M  V30 5588 H 502.422 3.19433 5.62647 0
M  V30 5589 N 502.554 -1.34406 0.822964 0
M  V30 5590 C 503.801 -1.98284 0.411057 0
M  V30 5591 C 504.129 -1.65245 -1.02588 0
M  V30 5592 O 503.384 -0.91619 -1.72929 0
M  V30 5593 C 503.683 -3.52981 0.560268 0
M  V30 5594 C 503.349 -4.05931 1.96293 0
M  V30 5595 C 502.011 -4.20103 2.34664 0
M  V30 5596 C 504.363 -4.34412 2.87985 0
M  V30 5597 C 501.691 -4.60082 3.64062 0
M  V30 5598 C 504.043 -4.75838 4.16847 0
M  V30 5599 C 502.707 -4.88215 4.55195 0
M  V30 5600 H 501.977 -0.725573 0.150416 0
M  V30 5601 H 504.624 -1.60349 1.04692 0
M  V30 5602 H 502.929 -3.91477 -0.158982 0
M  V30 5603 H 504.626 -4.00385 0.222087 0
M  V30 5604 H 501.216 -3.95363 1.65487 0
M  V30 5605 H 505.4 -4.23001 2.59584 0
M  V30 5606 H 500.656 -4.67856 3.93599 0
M  V30 5607 H 504.83 -4.96834 4.87984 0
M  V30 5608 H 502.457 -5.18952 5.55512 0
M  V30 5609 N 504.032 -0.577932 -1.46621 0
M  V30 5610 C 504.942 0.160651 -2.34049 0
M  V30 5611 C 505.958 0.890911 -1.49462 0
M  V30 5612 O 507.134 0.855166 -1.82343 0
M  V30 5613 C 504.199 1.16447 -3.26559 0
M  V30 5614 C 503.26 0.4394 -4.27045 0
M  V30 5615 C 502.493 1.3954 -5.15135 0
M  V30 5616 O 502.716 2.63162 -5.06065 0
M  V30 5617 O 501.65 0.908585 -5.95003 0
M  V30 5618 H 505.476 -0.557057 -2.98547 0
M  V30 5619 H 503.061 -0.338369 -1.45518 0
M  V30 5620 H 504.943 1.7434 -3.83645 0
M  V30 5621 H 503.618 1.86373 -2.64663 0
M  V30 5622 H 502.525 -0.181247 -3.73661 0
M  V30 5623 H 503.858 -0.218799 -4.91713 0
M  V30 5624 N 505.51 1.54411 -0.315457 0
M  V30 5625 C 506.926 1.59556 0.037464 0
M  V30 5626 C 507.126 1.33217 1.5118 0
M  V30 5627 O 506.182 1.11264 2.26664 0
M  V30 5628 C 507.495 2.98372 -0.373477 0
M  V30 5629 C 509.043 3.11324 -0.323452 0
M  V30 5630 C 509.518 4.52472 -0.709433 0
M  V30 5631 N 511.009 4.58437 -0.662524 0
M  V30 5632 C 511.744 5.65751 -0.933474 0
M  V30 5633 N 511.24 6.81039 -1.27114 0
M  V30 5634 N 513.033 5.55489 -0.859573 0
M  V30 5635 H 505.184 1.6979 -1.27614 0
M  V30 5636 H 507.447 0.793732 -0.518356 0
M  V30 5637 H 507.153 3.22618 -1.40037 0
M  V30 5638 H 507.027 3.76264 0.265615 0
M  V30 5639 H 509.414 2.86818 0.694223 0
M  V30 5640 H 509.495 2.35555 -0.997367 0
M  V30 5641 H 509.139 4.7771 -1.72498 0
M  V30 5642 H 509.069 5.26598 -0.0132923 0
M  V30 5643 H 511.56 3.75636 -0.413065 0
M  V30 5644 H 511.873 7.58816 -1.46348 0
M  V30 5645 H 510.218 6.82555 -1.30932 0
M  V30 5646 H 513.409 4.64299 -0.595324 0
M  V30 5647 H 513.582 6.39036 -1.0741 0
M  V30 5648 N 506.988 0.0434614 1.5754 0
M  V30 5649 C 507.918 -0.931651 2.14109 0
M  V30 5650 C 508.899 -1.32971 1.06079 0
M  V30 5651 O 510.084 -1.40579 1.33982 0
M  V30 5652 C 507.214 -2.20914 2.67982 0
M  V30 5653 C 506.168 -1.95139 3.80926 0
M  V30 5654 C 505.494 -3.29276 4.21285 0
M  V30 5655 C 506.794 -1.27913 5.06395 0
M  V30 5656 H 508.488 -0.460497 2.95837 0
M  V30 5657 H 506.034 -0.220058 1.42309 0
M  V30 5658 H 507.987 -2.89522 3.06194 0
M  V30 5659 H 506.711 -2.70221 1.83434 0
M  V30 5660 H 505.37 -1.28945 3.43175 0
M  V30 5661 H 505.018 -3.76369 3.33699 0
M  V30 5662 H 504.718 -3.12831 4.97404 0
M  V30 5663 H 506.242 -3.99129 4.62091 0
M  V30 5664 H 507.656 -1.86544 5.42102 0
M  V30 5665 H 506.053 -1.2182 5.87605 0
M  V30 5666 H 507.123 -0.254066 4.84234 0
M  V30 5667 N 508.466 -1.55915 -0.229846 0
M  V30 5668 C 509.706 -1.80314 -0.962614 0
M  V30 5669 C 510.07 -0.61568 -1.81861 0
M  V30 5670 O 511.271 -0.738795 -2.58448 0
M  V30 5671 C 509.542 -3.0956 -1.78627 0
M  V30 5672 S 511.101 -3.55243 -2.57581 0
M  V30 5673 H 507.919 -0.633142 -0.323499 0
M  V30 5674 H 510.521 -1.94155 -0.228919 0
M  V30 5675 H 509.225 -3.94033 -1.14742 0
M  V30 5676 H 508.756 -2.98503 -2.56241 0
M  V30 5677 H 510.771 -3.17924 -3.80971 0
M  V30 5678 N 509.944 0.496216 -1.49584 0
M  V30 5679 C 510.907 1.57952 -1.66084 0
M  V30 5680 C 511.907 1.51729 -0.53244 0
M  V30 5681 O 513.097 1.54796 -0.79899 0
M  V30 5682 C 510.229 2.97604 -1.66268 0
M  V30 5683 H 511.422 1.44649 -2.6271 0
M  V30 5684 H 508.975 0.7208 -1.38687 0
M  V30 5685 H 509.71 3.16378 -0.712432 0
M  V30 5686 H 509.495 3.03528 -2.4822 0
M  V30 5687 H 510.985 3.76301 -1.81073 0
M  V30 5688 N 511.423 1.38739 0.74761 0
M  V30 5689 C 512.834 1.31507 1.32524 0
M  V30 5690 C 513.185 -0.0263963 1.96182 0
M  V30 5691 O 512.31 -0.92849 1.95469 0
M  V30 5692 C 512.905 2.38162 2.40966 0
M  V30 5693 C 511.464 2.34489 2.94434 0
M  V30 5694 C 510.611 2.20712 1.67873 0
M  V30 5695 H 513.562 1.4901 0.546043 0
M  V30 5696 H 513.583 2.04222 3.21051 0
M  V30 5697 H 513.095 3.35783 1.94605 0
M  V30 5698 H 511.196 1.40467 3.45108 0
M  V30 5699 H 511.309 3.28861 3.48407 0
M  V30 5700 H 509.673 1.67667 1.91729 0
M  V30 5701 H 510.456 3.20285 1.23582 0
M  V30 5702 N 512.901 -0.976442 1.23707 0
M  V30 5703 C 513.831 -2.08749 1.04624 0
M  V30 5704 C 514.812 -1.70057 -0.0380956 0
M  V30 5705 O 515.997 -1.93782 0.127308 0
M  V30 5706 C 513.127 -3.41335 0.640902 0
M  V30 5707 C 512.081 -3.93947 1.67302 0
M  V30 5708 C 511.407 -5.22774 1.12301 0
M  V30 5709 C 512.707 -4.22769 3.06697 0
M  V30 5710 H 514.401 -2.24972 1.97555 0
M  V30 5711 H 511.947 -1.08108 0.951247 0
M  V30 5712 H 513.9 -4.18489 0.494434 0
M  V30 5713 H 512.624 -3.24988 -0.324099 0
M  V30 5714 H 511.283 -3.18941 1.80755 0
M  V30 5715 H 510.931 -5.0278 0.148877 0
M  V30 5716 H 510.631 -5.58942 1.81267 0
M  V30 5717 H 512.155 -6.02546 0.988479 0
M  V30 5718 H 513.569 -4.90659 2.96524 0
M  V30 5719 H 511.966 -4.70147 3.72937 0
M  V30 5720 H 513.036 -3.29885 3.55392 0
M  V30 5721 N 514.379 -1.04941 -1.1758 0
M  V30 5722 C 515.626 -0.757989 -1.87779 0
M  V30 5723 C 515.954 0.714827 -1.80888 0
M  V30 5724 O 515.209 1.53824 -1.20982 0
M  V30 5725 C 515.508 -1.18062 -3.37337 0
M  V30 5726 C 515.174 -2.65521 -3.6443 0
M  V30 5727 C 513.836 -3.05804 -3.71534 0
M  V30 5728 C 516.188 -3.60822 -3.76108 0
M  V30 5729 C 513.516 -4.40256 -3.87803 0
M  V30 5730 C 515.868 -4.95005 -3.93895 0
M  V30 5731 C 514.532 -5.34945 -3.99237 0
M  V30 5732 H 513.802 -0.277368 -0.68713 0
M  V30 5733 H 516.449 -1.31603 -1.39115 0
M  V30 5734 H 514.754 -0.541525 -3.8804 0
M  V30 5735 H 516.451 -0.932368 -3.9001 0
M  V30 5736 H 513.041 -2.33324 -3.59524 0
M  V30 5737 H 517.225 -3.30841 -3.69943 0
M  V30 5738 H 512.481 -4.70707 -3.90186 0
M  V30 5739 H 516.655 -5.68746 -4.01872 0
M  V30 5740 H 514.282 -6.39135 -4.11596 0
M  V30 5741 N 515.857 1.33968 -0.830081 0
M  V30 5742 C 517.273 1.51003 -0.516742 0
M  V30 5743 C 517.473 1.77286 0.957694 0
M  V30 5744 O 516.529 1.82797 1.74188 0
M  V30 5745 C 517.842 2.67036 -1.38247 0
M  V30 5746 C 519.39 2.80919 -1.38034 0
M  V30 5747 C 519.865 4.00004 -2.23071 0
M  V30 5748 N 521.356 4.07224 -2.20733 0
M  V30 5749 C 522.091 4.98541 -2.83275 0
M  V30 5750 N 521.587 5.95033 -3.54835 0
M  V30 5751 N 523.38 4.91469 -2.72791 0
M  V30 5752 H 515.531 1.15168 -1.78466 0
M  V30 5753 H 517.794 0.565443 -0.760906 0
M  V30 5754 H 517.5 2.54266 -2.42985 0
M  V30 5755 H 517.374 3.62226 -1.05225 0
M  V30 5756 H 519.761 2.93127 -0.340713 0
M  V30 5757 H 519.842 1.86517 -1.75057 0
M  V30 5758 H 519.486 3.88557 -3.27087 0
M  V30 5759 H 519.416 4.93634 -1.83394 0
M  V30 5760 H 521.907 3.38162 -1.68687 0
M  V30 5761 H 522.22 6.61357 -3.99784 0
M  V30 5762 H 520.565 5.95135 -3.58942 0
M  V30 5763 H 523.756 4.15048 -2.16456 0
M  V30 5764 H 523.929 5.62439 -3.21818 0
M  V30 5765 N 517.335 0.585699 1.46312 0
M  V30 5766 C 518.283 -0.158577 2.32059 0
M  V30 5767 C 519.277 -0.881427 1.44662 0
M  V30 5768 O 520.483 -0.799476 1.61271 0
M  V30 5769 H 516.858 -0.0700066 0.748734 0
M  V30 5770 H 518.829 0.583383 2.92642 0
M  V30 5771 C 517.578 -1.15701 3.27885 0
M  V30 5772 H 516.901 -0.610215 3.95116 0
M  V30 5773 H 518.341 -1.64812 3.90657 0
M  V30 5774 C 516.8 -2.21951 2.53455 0
M  V30 5775 O 517.33 -3.29352 2.29978 0
M  V30 5776 N 515.536 -1.9664 2.13965 0
M  V30 5777 H 515.083 -1.09309 2.33258 0
M  V30 5778 H 515.041 -2.6794 1.64485 0
M  V30 5779 N 518.813 -1.54241 0.323641 0
M  V30 5780 C 520.062 -1.9975 -0.279806 0
M  V30 5781 C 520.375 -1.2156 -1.5324 0
M  V30 5782 O 521.581 -1.57447 -2.21185 0
M  V30 5783 C 520.037 -3.55686 -0.549115 0
M  V30 5784 C 519.645 -4.4271 0.686432 0
M  V30 5785 C 521.389 -4.09663 -1.11251 0
M  V30 5786 C 519.296 -5.90119 0.389022 0
M  V30 5787 H 518.226 -0.746177 -0.10833 0
M  V30 5788 H 520.877 -1.78248 0.435877 0
M  V30 5789 H 519.259 -3.73176 -1.32499 0
M  V30 5790 H 520.433 -4.36996 1.46188 0
M  V30 5791 H 518.748 -3.99623 1.17005 0
M  V30 5792 H 521.345 -5.17386 -1.34965 0
M  V30 5793 H 521.688 -3.61651 -2.06191 0
M  V30 5794 H 522.221 -3.95806 -0.39782 0
M  V30 5795 H 518.96 -6.42326 1.30759 0
M  V30 5796 H 518.48 -5.98785 -0.348722 0
M  V30 5797 H 520.159 -6.47 -0.0011164 0
M  V30 5798 N 520.291 -0.0518155 -1.57515 0
M  V30 5799 C 521.238 0.922352 -2.11569 0
M  V30 5800 C 522.208 1.30842 -1.02321 0
M  V30 5801 O 523.393 1.39778 -1.29872 0
M  V30 5802 C 520.533 2.19167 -2.6657 0
M  V30 5803 C 519.646 1.86003 -3.89906 0
M  V30 5804 C 518.781 3.07398 -4.33221 0
M  V30 5805 C 517.82 2.70158 -5.49255 0
M  V30 5806 N 516.957 3.84248 -5.8762 0
M  V30 5807 H 521.797 0.454506 -2.94514 0
M  V30 5808 H 519.334 0.212718 -1.45554 0
M  V30 5809 H 521.292 2.93443 -2.96559 0
M  V30 5810 H 519.922 2.63528 -1.86421 0
M  V30 5811 H 518.974 1.01874 -3.66505 0
M  V30 5812 H 520.286 1.54592 -4.74239 0
M  V30 5813 H 519.44 3.89972 -4.64765 0
M  V30 5814 H 518.179 3.41988 -3.477 0
M  V30 5815 H 517.184 1.86001 -5.17382 0
M  V30 5816 H 518.409 2.36759 -6.36492 0
M  V30 5817 H 516.355 4.18638 -5.05053 0
M  V30 5818 H 516.272 3.56538 -6.66646 0
M  V30 5819 H 517.54 4.6746 -6.2378 0
M  V30 5820 N 521.769 1.56035 0.221574 0
M  V30 5821 C 522.701 1.889 1.29805 0
M  V30 5822 C 523.714 0.777269 1.43047 0
M  V30 5823 O 524.903 1.05557 1.43945 0
M  V30 5824 C 522.003 2.0825 2.67367 0
M  V30 5825 C 521.176 3.39267 2.76073 0
M  V30 5826 C 520.235 3.48049 3.94649 0
M  V30 5827 O 519.261 4.2108 3.82988 0
M  V30 5828 N 520.463 2.79191 5.08953 0
M  V30 5829 H 523.228 2.81831 1.01938 0
M  V30 5830 H 520.789 1.5658 0.411612 0
M  V30 5831 H 522.781 2.11441 3.45072 0
M  V30 5832 H 521.351 1.21944 2.87834 0
M  V30 5833 H 520.571 3.48175 1.84846 0
M  V30 5834 H 521.859 4.25575 2.7886 0
M  V30 5835 H 521.257 2.19635 5.21322 0
M  V30 5836 H 519.814 2.88043 5.84701 0
M  V30 5837 N 523.247 -0.488276 1.49845 0
M  V30 5838 C 524.157 -1.61451 1.70207 0
M  V30 5839 C 525.173 -1.63877 0.584846 0
M  V30 5840 O 526.349 -1.82063 0.861107 0
M  V30 5841 C 523.414 -2.9776 1.77594 0
M  V30 5842 C 522.475 -3.05861 3.01243 0
M  V30 5843 C 521.708 -4.35668 3.08268 0
M  V30 5844 O 521.931 -5.25197 2.22541 0
M  V30 5845 O 520.865 -4.49005 4.00847 0
M  V30 5846 H 524.691 -1.47199 2.65643 0
M  V30 5847 H 522.276 -0.665939 1.33737 0
M  V30 5848 H 524.158 -3.7875 1.84732 0
M  V30 5849 H 522.833 -3.12248 0.8534 0
M  V30 5850 H 521.74 -2.24012 2.99616 0
M  V30 5851 H 523.073 -2.96304 3.9302 0
M  V30 5852 N 524.725 -1.39134 -0.740242 0
M  V30 5853 C 526.136 -1.32208 -1.31825 0
M  V30 5854 C 526.487 0.0159919 -1.96193 0
M  V30 5855 O 525.612 0.918111 -1.95958 0
M  V30 5856 C 526.207 -2.39436 -2.39699 0
M  V30 5857 C 524.766 -2.36048 -2.93187 0
M  V30 5858 C 523.913 -2.21599 -1.66701 0
M  V30 5859 H 526.864 -1.49298 -0.538133 0
M  V30 5860 H 526.885 -2.05922 -3.19963 0
M  V30 5861 H 526.397 -3.36811 -1.92821 0
M  V30 5862 H 524.498 -1.42295 -3.44359 0
M  V30 5863 H 524.611 -3.30704 -3.46658 0
M  V30 5864 H 522.975 -1.68681 -1.90837 0
M  V30 5865 H 523.758 -3.20936 -1.21882 0
M  V30 5866 N 526.204 0.969867 -1.24223 0
M  V30 5867 C 527.451 1.71256 -1.08063 0
M  V30 5868 C 527.779 1.90734 0.380872 0
M  V30 5869 O 527.034 1.46469 1.29789 0
M  V30 5870 C 527.333 3.10883 -1.76314 0
M  V30 5871 C 526.999 3.11252 -3.26241 0
M  V30 5872 C 525.661 3.1106 -3.67144 0
M  V30 5873 C 528.013 3.05751 -4.22097 0
M  V30 5874 C 525.341 3.03097 -5.02344 0
M  V30 5875 C 527.693 2.9933 -5.57301 0
M  V30 5876 C 526.357 2.97466 -5.97554 0
M  V30 5877 H 525.627 0.62667 -0.395431 0
M  V30 5878 H 528.274 1.13422 -1.54297 0
M  V30 5879 H 526.579 3.72168 -1.22468 0
M  V30 5880 H 528.276 3.67138 -1.61277 0
M  V30 5881 H 524.866 3.12165 -2.93685 0
M  V30 5882 H 529.05 3.05031 -3.91497 0
M  V30 5883 H 524.306 3.00013 -5.32731 0
M  V30 5884 H 528.48 2.94033 -6.31283 0
M  V30 5885 H 526.107 2.91051 -7.02277 0
M  V30 5886 N 527.682 1.05563 1.17022 0
M  V30 5887 C 528.907 0.788437 1.91829 0
M  V30 5888 C 529.332 -0.650356 1.76499 0
M  V30 5889 O 528.69 -1.45229 1.08527 0
M  V30 5890 C 528.738 1.1786 3.40795 0
M  V30 5891 O 527.842 0.312965 4.11211 0
M  V30 5892 H 527.183 0.288794 0.597908 0
M  V30 5893 H 529.713 1.40948 1.48307 0
M  V30 5894 H 529.723 1.14697 3.91546 0
M  V30 5895 H 528.398 2.22666 3.51273 0
M  V30 5896 H 526.975 0.405515 3.70689 0
M  V30 5897 N 529.16 -1.33526 0.837174 0
M  V30 5898 C 530.123 -2.27551 0.274421 0
M  V30 5899 C 531.123 -1.50886 -0.555881 0
M  V30 5900 O 532.313 -1.70227 -0.369918 0
M  V30 5901 C 529.445 -3.35332 -0.613605 0
M  V30 5902 H 530.638 -2.78837 1.10408 0
M  V30 5903 H 528.191 -1.439 0.610126 0
M  V30 5904 H 528.926 -2.89285 -1.46577 0
M  V30 5905 H 528.711 -3.92095 -0.0195341 0
M  V30 5906 H 530.201 -4.05433 -1.00068 0
M  V30 5907 N 530.638 -0.59345 -1.46 0
M  V30 5908 C 532.054 -0.255965 -1.57534 0
M  V30 5909 C 532.254 1.24167 -1.58697 0
M  V30 5910 O 531.31 2.02398 -1.50968 0
M  V30 5911 C 532.623 -0.91466 -2.86451 0
M  V30 5912 C 534.171 -0.889253 -3.00102 0
M  V30 5913 C 534.646 -1.52769 -4.3177 0
M  V30 5914 N 536.137 -1.49253 -4.38495 0
M  V30 5915 C 536.872 -1.9558 -5.39014 0
M  V30 5916 N 536.368 -2.49929 -6.46148 0
M  V30 5917 N 538.161 -1.86432 -5.30282 0
M  V30 5918 H 530.312 -1.56604 -1.43489 0
M  V30 5919 H 532.575 -0.655207 -0.685133 0
M  V30 5920 H 532.281 -1.96861 -2.91442 0
M  V30 5921 H 532.155 -0.429356 -3.74748 0
M  V30 5922 H 534.542 0.156111 -2.94687 0
M  V30 5923 H 534.623 -1.41268 -2.13253 0
M  V30 5924 H 534.267 -2.57231 -4.37944 0
M  V30 5925 H 534.197 -0.979398 -5.17412 0
M  V30 5926 H 536.688 -1.09536 -3.61677 0
M  V30 5927 H 537.001 -2.83109 -7.19075 0
M  V30 5928 H 535.346 -2.53961 -6.46938 0
M  V30 5929 H 538.537 -1.43722 -4.4549 0
M  V30 5930 H 538.71 -2.22852 -6.08474 0
M  V30 5931 N 532.116 1.54067 -0.331816 0
M  V30 5932 C 533.362 2.01012 0.268667 0
M  V30 5933 C 533.695 1.2195 1.51136 0
M  V30 5934 O 532.97 0.303972 1.9211 0
M  V30 5935 C 533.253 3.55158 0.59456 0
M  V30 5936 C 533.106 4.4494 -0.659409 0
M  V30 5937 C 534.425 4.16939 1.4089 0
M  V30 5938 H 531.544 0.730698 0.0961756 0
M  V30 5939 H 534.186 1.84593 -0.450031 0
M  V30 5940 H 532.336 3.6928 1.20685 0
M  V30 5941 H 534.008 4.42675 -1.29756 0
M  V30 5942 H 532.251 4.1428 -1.28665 0
M  V30 5943 H 532.922 5.50643 -0.386804 0
M  V30 5944 H 535.398 4.06443 0.891272 0
M  V30 5945 H 534.274 5.24889 1.60569 0
M  V30 5946 H 534.535 3.70798 2.40752 0
M  V30 5947 N 533.594 0.0601682 1.57485 0
M  V30 5948 C 534.524 -0.90889 2.15085 0
M  V30 5949 C 535.505 -1.31838 1.07484 0
M  V30 5950 O 536.69 -1.3915 1.35466 0
M  V30 5951 C 533.82 -2.18059 2.7031 0
M  V30 5952 C 532.774 -1.91088 3.82974 0
M  V30 5953 C 532.1 -3.24789 4.24754 0
M  V30 5954 C 533.4 -1.22535 5.07723 0
M  V30 5955 H 535.094 -0.429093 2.96309 0
M  V30 5956 H 532.64 -0.204952 1.42534 0
M  V30 5957 H 534.593 -2.86258 3.09248 0
M  V30 5958 H 533.317 -2.6826 1.8629 0
M  V30 5959 H 531.976 -1.25297 3.44523 0
M  V30 5960 H 531.624 -3.72809 3.37672 0
M  V30 5961 H 531.324 -3.07538 5.00694 0
M  V30 5962 H 532.848 -3.94205 4.66299 0
M  V30 5963 H 534.262 -1.80783 5.4405 0
M  V30 5964 H 532.659 -1.1558 5.88864 0
M  V30 5965 H 533.729 -0.202692 4.84476 0
M  V30 5966 N 535.072 -1.5615 -0.213296 0
M  V30 5967 C 536.318 -1.79812 -0.937849 0
M  V30 5968 C 536.651 -0.631201 -1.83656 0
M  V30 5969 O 535.926 0.369165 -1.90964 0
M  V30 5970 C 536.209 -3.13613 -1.76972 0
M  V30 5971 C 536.062 -4.40766 -0.89695 0
M  V30 5972 C 537.381 -3.43931 -2.7459 0
M  V30 5973 H 534.5 -0.654138 -0.339518 0
M  V30 5974 H 537.142 -1.88877 -0.20623 0
M  V30 5975 H 535.292 -3.06015 -2.39347 0
M  V30 5976 H 536.964 -4.60392 -0.289306 0
M  V30 5977 H 535.207 -4.33326 -0.202756 0
M  V30 5978 H 535.878 -5.30843 -1.51358 0
M  V30 5979 H 538.354 -3.5171 -2.22349 0
M  V30 5980 H 537.23 -4.38706 -3.29891 0
M  V30 5981 H 537.491 -2.6651 -3.52739 0
M  V30 5982 N 536.55 0.480323 -1.50102 0
M  V30 5983 C 537.48 1.58769 -1.71215 0
M  V30 5984 C 538.461 1.60583 -0.560997 0
M  V30 5985 O 539.646 1.76996 -0.799127 0
M  V30 5986 C 536.776 2.97148 -1.79778 0
M  V30 5987 C 535.73 3.10201 -2.94888 0
M  V30 5988 C 535.056 4.50137 -2.88584 0
M  V30 5989 C 536.356 2.88283 -4.35534 0
M  V30 5990 H 538.05 1.41354 -2.6393 0
M  V30 5991 H 535.596 0.678591 -1.27008 0
M  V30 5992 H 537.549 3.74536 -1.93133 0
M  V30 5993 H 536.273 3.15699 -0.836772 0
M  V30 5994 H 534.932 2.35244 -2.81169 0
M  V30 5995 H 534.58 4.65593 -1.90349 0
M  V30 5996 H 534.28 4.59808 -3.65856 0
M  V30 5997 H 535.804 5.29558 -3.03976 0
M  V30 5998 H 537.218 3.55427 -4.49827 0
M  V30 5999 H 535.615 3.09408 -5.14186 0
M  V30 6000 H 536.685 1.84219 -4.48544 0
M  V30 6001 N 538.028 1.39524 0.732853 0
M  V30 6002 C 539.268 1.383 1.50508 0
M  V30 6003 C 539.632 -0.0208271 1.91989 0
M  V30 6004 O 540.833 -0.158091 2.68335 0
M  V30 6005 C 539.104 2.33007 2.71003 0
M  V30 6006 S 540.663 2.49989 3.60626 0
M  V30 6007 H 537.481 0.490417 0.514794 0
M  V30 6008 H 540.083 1.75641 0.858524 0
M  V30 6009 H 538.787 3.33862 2.38672 0
M  V30 6010 H 538.318 1.96889 3.40585 0
M  V30 6011 H 540.333 1.7394 4.64714 0
M  V30 6012 N 539.506 -0.963266 1.24736 0
M  V30 6013 C 540.752 -1.70933 1.09131 0
M  V30 6014 C 541.085 -1.90676 -0.368273 0
M  V30 6015 O 540.36 -1.47147 -1.27193 0
M  V30 6016 C 540.643 -3.09744 1.83658 0
M  V30 6017 C 540.496 -2.97465 3.37394 0
M  V30 6018 C 541.815 -4.09483 1.61282 0
M  V30 6019 H 538.934 -0.620398 0.397838 0
M  V30 6020 H 541.576 -1.12028 1.53459 0
M  V30 6021 H 539.726 -3.60031 1.4598 0
M  V30 6022 H 541.398 -2.54571 3.84696 0
M  V30 6023 H 539.641 -2.33576 3.65547 0
M  V30 6024 H 540.312 -3.95822 3.84745 0
M  V30 6025 H 542.788 -3.68073 1.94066 0
M  V30 6026 H 541.664 -5.04666 2.15878 0
M  V30 6027 H 541.925 -4.38639 0.552102 0
M  V30 6028 N 540.985 -1.06182 -1.16461 0
M  V30 6029 C 542.232 -0.777863 -1.86964 0
M  V30 6030 C 542.56 0.695602 -1.81636 0
M  V30 6031 O 541.815 1.52532 -1.22607 0
M  V30 6032 C 542.114 -1.21633 -3.36066 0
M  V30 6033 C 541.78 -2.69371 -3.61594 0
M  V30 6034 C 540.442 -3.09727 -3.6827 0
M  V30 6035 C 542.794 -3.64791 -3.7226 0
M  V30 6036 C 540.122 -4.44345 -3.83112 0
M  V30 6037 C 542.474 -4.99155 -3.88623 0
M  V30 6038 C 541.138 -5.39149 -3.93541 0
M  V30 6039 H 540.408 -0.28464 -0.68415 0
M  V30 6040 H 543.055 -1.33071 -1.37711 0
M  V30 6041 H 541.36 -0.582651 -3.87443 0
M  V30 6042 H 543.057 -0.973682 -3.88999 0
M  V30 6043 H 539.647 -2.37124 -3.57029 0
M  V30 6044 H 543.831 -3.34746 -3.66413 0
M  V30 6045 H 539.087 -4.74819 -3.85172 0
M  V30 6046 H 543.261 -5.72976 -3.95817 0
M  V30 6047 H 540.888 -6.43464 -4.04794 0
M  V30 6048 N 542.463 1.3308 -0.844243 0
M  V30 6049 C 543.411 2.31028 -0.269954 0
M  V30 6050 C 544.405 1.58381 0.600997 0
M  V30 6051 O 545.611 1.73203 0.48996 0
M  V30 6052 H 541.986 0.748866 -0.0685782 0
M  V30 6053 H 543.957 2.76967 -1.11049 0
M  V30 6054 C 542.706 3.43549 0.535676 0
M  V30 6055 H 542.029 3.99604 -0.125202 0
M  V30 6056 H 543.469 4.14267 0.903262 0
M  V30 6057 C 541.928 2.8988 1.71672 0
M  V30 6058 O 542.458 2.86511 2.81557 0
M  V30 6059 N 540.664 2.46416 1.54037 0
M  V30 6060 H 540.211 2.49356 0.64649 0
M  V30 6061 H 540.169 2.1086 2.33207 0
M  V30 6062 N 543.941 0.601185 1.45683 0
M  V30 6063 C 545.166 0.0982245 2.07167 0
M  V30 6064 C 545.591 -1.20546 1.44396 0
M  V30 6065 O 544.949 -1.73247 0.534347 0
M  V30 6066 C 544.997 -0.0346976 3.60583 0
M  V30 6067 O 544.101 -1.08657 3.97828 0
M  V30 6068 H 543.442 0.0711618 0.660176 0
M  V30 6069 H 545.972 0.829376 1.87036 0
M  V30 6070 H 545.982 -0.234969 4.07323 0
M  V30 6071 H 544.657 0.917265 4.05659 0
M  V30 6072 H 543.234 -0.863275 3.6277 0
M  V30 6073 N 545.419 -1.53889 0.339982 0
M  V30 6074 C 546.668 -2.00035 -0.258604 0
M  V30 6075 C 546.981 -1.23179 -1.51942 0
M  V30 6076 O 548.187 -1.59784 -2.19503 0
M  V30 6077 C 546.643 -3.56249 -0.511359 0
M  V30 6078 C 546.251 -4.41957 0.733349 0
M  V30 6079 C 547.995 -4.1082 -1.069 0
M  V30 6080 C 545.902 -5.89673 0.451591 0
M  V30 6081 H 544.832 -0.747284 -0.10041 0
M  V30 6082 H 547.483 -1.77776 0.454758 0
M  V30 6083 H 545.865 -3.7456 -1.28533 0
M  V30 6084 H 547.039 -4.35421 1.50815 0
M  V30 6085 H 545.354 -3.9836 1.21237 0
M  V30 6086 H 547.951 -5.18789 -1.2947 0
M  V30 6087 H 548.294 -3.63817 -2.02343 0
M  V30 6088 H 548.827 -3.96205 -0.355817 0
M  V30 6089 H 545.566 -6.40903 1.37565 0
M  V30 6090 H 545.086 -5.99122 -0.285193 0
M  V30 6091 H 546.765 -6.46965 0.0675067 0
M  V30 6092 N 546.897 -0.0685191 -1.57451 0
M  V30 6093 C 547.827 0.89747 -2.15564 0
M  V30 6094 C 548.808 1.31266 -1.08181 0
M  V30 6095 O 549.993 1.38429 -1.36202 0
M  V30 6096 C 547.123 2.16623 -2.71463 0
M  V30 6097 C 546.077 1.89054 -3.83982 0
M  V30 6098 C 545.403 3.22532 -4.26471 0
M  V30 6099 C 546.703 1.1984 -5.08366 0
M  V30 6100 H 548.397 0.413373 -2.96533 0
M  V30 6101 H 545.943 0.197391 -1.42641 0
M  V30 6102 H 547.896 2.84614 -3.10761 0
M  V30 6103 H 546.62 2.67269 -1.8771 0
M  V30 6104 H 545.279 1.23469 -3.45183 0
M  V30 6105 H 544.927 3.71013 -3.39644 0
M  V30 6106 H 544.627 3.04879 -5.02317 0
M  V30 6107 H 546.151 3.91727 -4.68383 0
M  V30 6108 H 547.565 1.77896 -5.45001 0
M  V30 6109 H 545.962 1.12456 -5.89469 0
M  V30 6110 H 547.032 0.176996 -4.84577 0
M  V30 6111 N 548.375 1.56261 0.205012 0
M  V30 6112 C 549.786 1.70056 0.770574 0
M  V30 6113 C 550.137 0.673398 1.84282 0
M  V30 6114 O 549.262 -0.172196 2.15714 0
M  V30 6115 C 549.857 3.08316 1.40451 0
M  V30 6116 C 548.416 3.2391 1.91727 0
M  V30 6117 C 547.563 2.66001 0.783516 0
M  V30 6118 H 550.514 1.58688 -0.019911 0
M  V30 6119 H 550.535 3.05094 2.27371 0
M  V30 6120 H 550.047 3.83053 0.623882 0
M  V30 6121 H 548.148 2.54072 2.7254 0
M  V30 6122 H 548.261 4.3131 2.08588 0
M  V30 6123 H 546.625 2.24915 1.19521 0
M  V30 6124 H 547.408 3.43297 0.0152883 0
M  V30 6125 N 549.853 -0.472356 1.50355 0
M  V30 6126 C 551.101 -1.22211 1.60962 0
M  V30 6127 C 551.422 -1.92497 0.311439 0
M  V30 6128 O 550.692 -1.8405 -0.671002 0
M  V30 6129 H 549.272 -0.454092 0.593135 0
M  V30 6130 H 551.934 -0.544977 1.87126 0
M  V30 6131 H 551.03 -1.9707 2.42012 0
M  V30 6132 N 551.331 -1.39911 -0.725443 0
M  V30 6133 C 552.577 -1.37858 -1.48738 0
M  V30 6134 C 552.91 0.0224187 -1.94187 0
M  V30 6135 O 552.185 0.989204 -1.67466 0
M  V30 6136 C 552.468 -2.3594 -2.72038 0
M  V30 6137 C 552.321 -3.85023 -2.32546 0
M  V30 6138 C 553.64 -2.31704 -3.74167 0
M  V30 6139 H 550.759 -0.502074 -0.539528 0
M  V30 6140 H 553.401 -1.70974 -0.828728 0
M  V30 6141 H 551.551 -2.0783 -3.28236 0
M  V30 6142 H 553.223 -4.2392 -1.81905 0
M  V30 6143 H 551.466 -4.01334 -1.64661 0
M  V30 6144 H 552.137 -4.49152 -3.20884 0
M  V30 6145 H 554.613 -2.5658 -3.27576 0
M  V30 6146 H 553.489 -3.02395 -4.58092 0
M  V30 6147 H 553.75 -1.3253 -4.21768 0
M  V30 6148 N 552.809 0.956637 -1.25245 0
M  V30 6149 C 553.739 2.07058 -1.07931 0
M  V30 6150 C 554.72 1.70096 0.0110361 0
M  V30 6151 O 555.905 1.93555 -0.158121 0
M  V30 6152 C 553.035 3.40272 -0.695124 0
M  V30 6153 C 551.989 3.91235 -1.73549 0
M  V30 6154 C 551.315 5.20921 -1.20604 0
M  V30 6155 C 552.615 4.17837 -3.13385 0
M  V30 6156 H 554.309 2.218 -2.01109 0
M  V30 6157 H 551.855 1.06581 -0.968326 0
M  V30 6158 H 553.808 4.1765 -0.560949 0
M  V30 6159 H 552.532 3.25462 0.272355 0
M  V30 6160 H 551.191 3.16025 -1.85807 0
M  V30 6161 H 550.839 5.02479 -0.228846 0
M  V30 6162 H 550.539 5.55987 -1.90136 0
M  V30 6163 H 552.063 6.00897 -1.08421 0
M  V30 6164 H 553.477 4.8588 -3.04292 0
M  V30 6165 H 551.874 4.64154 -3.80369 0
M  V30 6166 H 552.944 3.2419 -3.60595 0
M  V30 6167 N 554.287 1.06798 1.15896 0
M  V30 6168 C 555.536 0.782796 1.8589 0
M  V30 6169 C 555.849 -0.693498 1.82893 0
M  V30 6170 O 557.055 -1.09325 2.48516 0
M  V30 6171 C 555.511 1.3502 3.33613 0
M  V30 6172 C 555.119 2.8571 3.45071 0
M  V30 6173 C 556.863 1.14278 4.08829 0
M  V30 6174 C 554.77 3.35669 4.86909 0
M  V30 6175 H 553.7 0.289149 0.696354 0
M  V30 6176 H 556.351 1.28734 1.30766 0
M  V30 6177 H 554.733 0.773407 3.88374 0
M  V30 6178 H 555.907 3.49385 3.00445 0
M  V30 6179 H 554.222 3.05178 2.83294 0
M  V30 6180 H 556.819 1.49087 5.13495 0
M  V30 6181 H 557.162 0.0814575 4.1622 0
M  V30 6182 H 557.695 1.68563 3.60321 0
M  V30 6183 H 554.434 4.41302 4.84698 0
M  V30 6184 H 553.954 2.76745 5.32139 0
M  V30 6185 H 555.633 3.31296 5.55745 0
M  V30 6186 N 555.766 -1.3263 0.851289 0
M  V30 6187 C 556.696 -2.31449 0.308771 0
M  V30 6188 C 557.677 -1.59531 -0.590255 0
M  V30 6189 O 558.862 -1.87351 -0.511205 0
M  V30 6190 C 555.992 -3.43586 -0.506548 0
M  V30 6191 C 554.946 -4.26963 0.297753 0
M  V30 6192 C 554.272 -5.30831 -0.642094 0
M  V30 6193 C 555.572 -4.99643 1.52166 0
M  V30 6194 H 557.266 -2.77074 1.13447 0
M  V30 6195 H 554.812 -1.33207 0.546971 0
M  V30 6196 H 556.765 -4.11754 -0.896474 0
M  V30 6197 H 555.489 -2.96681 -1.36558 0
M  V30 6198 H 554.148 -3.60437 0.669391 0
M  V30 6199 H 553.796 -4.8018 -1.49788 0
M  V30 6200 H 553.496 -5.87501 -0.107968 0
M  V30 6201 H 555.02 -6.01862 -1.02927 0
M  V30 6202 H 556.434 -5.6051 1.20421 0
M  V30 6203 H 554.831 -5.66022 1.99347 0
M  V30 6204 H 555.901 -4.27701 2.28474 0
M  V30 6205 N 557.244 -0.608902 -1.45362 0
M  V30 6206 C 558.491 -0.104607 -2.0223 0
M  V30 6207 C 558.819 1.26534 -1.47714 0
M  V30 6208 O 558.074 1.84855 -0.642435 0
M  V30 6209 C 558.373 -0.0167296 -3.57396 0
M  V30 6210 C 558.039 -1.32251 -4.31069 0
M  V30 6211 C 556.701 -1.68019 -4.50914 0
M  V30 6212 C 559.053 -2.18542 -4.73169 0
M  V30 6213 C 556.381 -2.89828 -5.10114 0
M  V30 6214 C 558.733 -3.39602 -5.33717 0
M  V30 6215 C 557.397 -3.7562 -5.51784 0
M  V30 6216 H 556.667 -0.0382785 -0.740011 0
M  V30 6217 H 559.314 -0.790782 -1.7441 0
M  V30 6218 H 557.619 0.752715 -3.84502 0
M  V30 6219 H 559.316 0.389634 -3.99103 0
M  V30 6220 H 555.906 -1.03411 -4.15938 0
M  V30 6221 H 560.09 -1.92208 -4.5757 0
M  V30 6222 H 555.346 -3.17839 -5.22291 0
M  V30 6223 H 559.52 -4.06716 -5.65292 0
M  V30 6224 H 557.147 -4.70093 -5.97425 0
M  V30 6225 N 558.722 1.53707 -0.348139 0
M  V30 6226 C 559.652 2.28111 0.498766 0
M  V30 6227 C 560.633 1.29851 1.09876 0
M  V30 6228 O 561.818 1.587 1.11928 0
M  V30 6229 C 558.948 3.05735 1.64753 0
M  V30 6230 C 557.902 4.11537 1.17565 0
M  V30 6231 C 557.228 4.77142 2.4133 0
M  V30 6232 C 558.528 5.21587 0.272844 0
M  V30 6233 H 560.222 2.99152 -0.121934 0
M  V30 6234 H 557.768 1.43875 -0.0600842 0
M  V30 6235 H 559.721 3.56526 2.24649 0
M  V30 6236 H 558.445 2.32354 2.2952 0
M  V30 6237 H 557.104 3.61665 0.599483 0
M  V30 6238 H 556.752 4.0035 3.04514 0
M  V30 6239 H 556.452 5.48626 2.10436 0
M  V30 6240 H 557.976 5.30719 3.01943 0
M  V30 6241 H 559.39 5.67986 0.778779 0
M  V30 6242 H 557.787 6.00074 0.0555849 0
M  V30 6243 H 558.857 4.79969 -0.689785 0
M  V30 6244 N 560.2 0.0768682 1.57412 0
M  V30 6245 C 561.428 -0.59997 1.9801 0
M  V30 6246 C 561.843 -1.62842 0.955408 0
M  V30 6247 O 561.2 -1.8241 -0.057314 0
M  V30 6248 C 561.251 -1.26401 3.38681 0
M  V30 6249 O 560.972 -0.276723 4.37225 0
M  V30 6250 C 562.473 -2.0282 3.94182 0
M  V30 6251 H 559.693 -0.162239 0.651091 0
M  V30 6252 H 562.237 0.150771 2.03943 0
M  V30 6253 H 560.392 -1.96581 3.33819 0
M  V30 6254 H 560.806 -0.753744 5.19056 0
M  V30 6255 H 562.28 -2.44667 4.94815 0
M  V30 6256 H 562.757 -2.88678 3.31001 0
M  V30 6257 H 563.363 -1.37496 4.02461 0
M  V30 6258 N 561.678 -1.56367 -0.196722 0
M  V30 6259 C 562.925 -1.80529 -0.917366 0
M  V30 6260 C 563.253 -0.649817 -1.83324 0
M  V30 6261 O 562.508 0.36451 -1.92275 0
M  V30 6262 C 562.807 -3.10663 -1.767 0
M  V30 6263 C 562.473 -4.3962 -1.00225 0
M  V30 6264 C 561.135 -4.74653 -0.791095 0
M  V30 6265 C 563.487 -5.1913 -0.464035 0
M  V30 6266 C 560.815 -5.86692 -0.0302155 0
M  V30 6267 C 563.167 -6.31964 0.283625 0
M  V30 6268 C 561.831 -6.65581 0.505813 0
M  V30 6269 H 561.101 -0.660602 -0.335688 0
M  V30 6270 H 563.748 -1.90615 -0.183844 0
M  V30 6271 H 562.053 -2.95807 -2.56915 0
M  V30 6272 H 563.75 -3.26563 -2.32718 0
M  V30 6273 H 560.34 -4.12127 -1.17684 0
M  V30 6274 H 564.524 -4.9248 -0.614575 0
M  V30 6275 H 559.78 -6.11211 0.151917 0
M  V30 6276 H 563.954 -6.92791 0.708057 0
M  V30 6277 H 561.581 -7.52239 1.0973 0
M  V30 6278 N 563.156 0.464375 -1.50603 0
M  V30 6279 C 564.403 1.21596 -1.61928 0
M  V30 6280 C 564.731 1.91804 -0.322737 0
M  V30 6281 O 563.986 1.83065 0.691776 0
M  V30 6282 C 564.285 2.278 -2.75394 0
M  V30 6283 C 563.951 1.74797 -4.1564 0
M  V30 6284 C 562.613 1.60063 -4.53799 0
M  V30 6285 C 564.965 1.35548 -5.03266 0
M  V30 6286 C 562.293 1.04514 -5.77316 0
M  V30 6287 C 564.645 0.814381 -6.27336 0
M  V30 6288 C 563.309 0.653726 -6.64291 0
M  V30 6289 H 562.579 0.444951 -0.592536 0
M  V30 6290 H 565.226 0.510964 -1.84557 0
M  V30 6291 H 563.531 3.04233 -2.46879 0
M  V30 6292 H 565.228 2.85723 -2.81359 0
M  V30 6293 H 561.818 1.87234 -3.8554 0
M  V30 6294 H 566.002 1.45763 -4.74412 0
M  V30 6295 H 561.258 0.908186 -6.04617 0
M  V30 6296 H 565.432 0.501626 -6.94591 0
M  V30 6297 H 563.059 0.22114 -7.59878 0
M  V30 6298 N 564.634 1.40294 0.718013 0
M  V30 6299 C 565.597 1.4012 1.81381 0
M  V30 6300 C 566.597 0.295405 1.58063 0
M  V30 6301 O 567.787 0.554187 1.6515 0
M  V30 6302 C 564.919 1.19056 3.19435 0
M  V30 6303 H 566.112 2.37645 1.82933 0
M  V30 6304 H 563.665 1.26107 0.923405 0
M  V30 6305 H 564.4 0.222809 3.23534 0
M  V30 6306 H 564.185 1.99152 3.37758 0
M  V30 6307 H 565.675 1.21716 3.99468 0
M  V30 6308 N 566.112 -0.949982 1.2575 0
M  V30 6309 C 567.359 -1.69515 1.10774 0
M  V30 6310 C 567.687 -1.91316 -0.350479 0
M  V30 6311 O 566.942 -1.48515 -1.27443 0
M  V30 6312 C 567.241 -3.08039 1.81237 0
M  V30 6313 C 566.907 -3.06023 3.31151 0
M  V30 6314 C 565.569 -3.0518 3.72047 0
M  V30 6315 C 567.921 -2.98998 4.26907 0
M  V30 6316 C 565.249 -2.95067 5.07102 0
M  V30 6317 C 567.601 -2.90426 5.61992 0
M  V30 6318 C 566.265 -2.87922 6.0221 0
M  V30 6319 H 565.535 -0.6203 0.405351 0
M  V30 6320 H 568.182 -1.10953 1.56082 0
M  V30 6321 H 566.487 -3.70172 1.28373 0
M  V30 6322 H 568.184 -3.64526 1.67098 0
M  V30 6323 H 564.774 -3.07453 2.98614 0
M  V30 6324 H 568.958 -2.98764 3.963 0
M  V30 6325 H 564.214 -2.915 5.37436 0
M  V30 6326 H 568.388 -2.83952 6.35881 0
M  V30 6327 H 566.015 -2.79841 7.06819 0
M  V30 6328 N 567.59 -1.07411 -1.15328 0
M  V30 6329 C 568.52 -0.716472 -2.22236 0
M  V30 6330 C 569.501 0.296373 -1.67498 0
M  V30 6331 O 570.686 0.168989 -1.93463 0
M  V30 6332 C 567.816 -0.114142 -3.47112 0
M  V30 6333 C 566.77 -1.05421 -4.14814 0
M  V30 6334 C 566.096 -0.314604 -5.33774 0
M  V30 6335 C 567.396 -2.38808 -4.64508 0
M  V30 6336 H 569.09 -1.61029 -2.52408 0
M  V30 6337 H 566.636 -0.775702 -1.21321 0
M  V30 6338 H 568.589 0.148001 -4.2114 0
M  V30 6339 H 567.313 0.814755 -3.16274 0
M  V30 6340 H 565.972 -1.30128 -3.42728 0
M  V30 6341 H 565.62 0.617772 -4.99192 0
M  V30 6342 H 565.32 -0.941209 -5.80013 0
M  V30 6343 H 566.844 -0.0602747 -6.1057 0
M  V30 6344 H 568.258 -2.18424 -5.3006 0
M  V30 6345 H 566.655 -2.97069 -5.21412 0
M  V30 6346 H 567.725 -3.01067 -3.80114 0
M  V30 6347 N 569.068 1.32177 -0.85831 0
M  V30 6348 C 570.018 2.26307 -0.277307 0
M  V30 6349 C 571.002 1.50123 0.578946 0
M  V30 6350 O 572.194 1.71754 0.427731 0
M  V30 6351 C 569.323 3.39181 0.530232 0
M  V30 6352 C 568.409 4.22746 -0.338613 0
M  V30 6353 N 568.8 4.85265 -1.4266 0
M  V30 6354 C 567.098 4.45813 -0.129 0
M  V30 6355 C 567.799 5.47634 -1.96142 0
M  V30 6356 N 566.775 5.28794 -1.26007 0
M  V30 6357 H 570.577 2.72173 -1.10902 0
M  V30 6358 H 568.091 1.46308 -0.704816 0
M  V30 6359 H 570.088 4.05628 0.962904 0
M  V30 6360 H 568.748 2.9486 1.35969 0
M  V30 6361 H 569.759 4.85259 -1.80953 0
M  V30 6362 H 566.436 4.12163 0.665451 0
M  V30 6363 H 567.826 6.0735 -2.8736 0
M  V30 6364 N 570.547 0.616602 1.45037 0
M  V30 6365 C 571.787 0.118453 2.04056 0
M  V30 6366 C 572.151 -1.23104 1.47341 0
M  V30 6367 O 573.352 -1.82044 1.97771 0
M  V30 6368 C 571.623 0.0892842 3.57288 0
M  V30 6369 S 573.182 -0.346361 4.37431 0
M  V30 6370 H 570 0.0539728 0.708948 0
M  V30 6371 H 572.602 0.816731 1.77623 0
M  V30 6372 H 571.306 1.07481 3.96076 0
M  V30 6373 H 570.837 -0.630703 3.88311 0
M  V30 6374 H 572.852 -1.59389 4.69904 0
M  V30 6375 N 572.025 -1.5352 0.356285 0
M  V30 6376 C 573.271 -2.02104 -0.229271 0
M  V30 6377 C 573.626 -1.23923 -1.47176 0
M  V30 6378 O 572.919 -0.321957 -1.88876 0
M  V30 6379 C 573.113 -3.52607 -0.583369 0
M  V30 6380 C 572.942 -4.4536 0.623253 0
M  V30 6381 C 571.712 -4.92446 1.13248 0
M  V30 6382 C 573.91 -4.92375 1.48563 0
M  V30 6383 N 571.892 -5.69183 2.3001 0
M  V30 6384 C 573.263 -5.67362 2.50001 0
M  V30 6385 C 575.318 -4.74464 1.50959 0
M  V30 6386 C 574.021 -6.26341 3.5368 0
M  V30 6387 C 576.047 -5.34302 2.53526 0
M  V30 6388 C 575.409 -6.09166 3.53688 0
M  V30 6389 H 571.508 -0.780595 -0.0468602 0
M  V30 6390 H 574.092 -1.88204 0.49873 0
M  V30 6391 H 572.263 -3.66686 -1.28046 0
M  V30 6392 H 573.995 -3.87922 -1.15321 0
M  V30 6393 H 570.75 -4.6842 0.698562 0
M  V30 6394 H 571.174 -6.12216 2.88998 0
M  V30 6395 H 575.816 -4.16117 0.748785 0
M  V30 6396 H 573.534 -6.8379 4.30648 0
M  V30 6397 H 577.12 -5.22342 2.56223 0
M  V30 6398 H 576 -6.54644 4.31753 0
M  V30 6399 N 573.503 -0.0852151 -1.57369 0
M  V30 6400 C 574.433 0.874556 -2.16503 0
M  V30 6401 C 575.414 1.30111 -1.09568 0
M  V30 6402 O 576.599 1.36977 -1.37662 0
M  V30 6403 C 573.729 2.13731 -2.73745 0
M  V30 6404 C 572.683 1.84971 -3.85966 0
M  V30 6405 C 572.009 3.17991 -4.29867 0
M  V30 6406 C 573.309 1.14442 -5.09608 0
M  V30 6407 H 575.003 0.381899 -2.96954 0
M  V30 6408 H 572.549 0.18225 -1.42842 0
M  V30 6409 H 574.502 2.81302 -3.13763 0
M  V30 6410 H 573.226 2.65263 -1.90534 0
M  V30 6411 H 571.885 1.19801 -3.46473 0
M  V30 6412 H 571.533 3.6739 -3.4356 0
M  V30 6413 H 571.233 2.99534 -5.05523 0
M  V30 6414 H 572.757 3.86737 -4.72511 0
M  V30 6415 H 574.171 1.72105 -5.46857 0
M  V30 6416 H 572.568 1.06197 -5.90629 0
M  V30 6417 H 573.638 0.12559 -4.84737 0
M  V30 6418 N 574.981 1.5647 0.188427 0
M  V30 6419 C 575.929 1.95971 1.25293 0
M  V30 6420 C 576.923 0.846047 1.4676 0
M  V30 6421 O 578.129 1.03109 1.47542 0
M  V30 6422 H 574.504 0.623253 0.420784 0
M  V30 6423 H 576.475 2.84731 0.892792 0
M  V30 6424 C 575.224 2.32116 2.58877 0
M  V30 6425 H 574.547 3.17341 2.43176 0
M  V30 6426 H 575.987 2.63613 3.3209 0
M  V30 6427 C 574.446 1.15823 3.16365 0
M  V30 6428 O 574.976 0.436785 3.99318 0
M  V30 6429 N 573.182 0.933278 2.75206 0
M  V30 6430 H 572.729 1.52169 2.07852 0
M  V30 6431 H 572.687 0.156976 3.14008 0
M  V30 6432 N 576.459 -0.456382 1.50847 0
M  V30 6433 C 577.422 -1.53493 1.70213 0
M  V30 6434 C 578.422 -1.50264 0.572481 0
M  V30 6435 O 579.612 -1.52623 0.839751 0
M  V30 6436 C 576.744 -2.93091 1.741 0
M  V30 6437 H 577.937 -1.37633 2.66453 0
M  V30 6438 H 575.49 -0.683776 1.4055 0
M  V30 6439 H 576.225 -3.14378 0.796063 0
M  V30 6440 H 576.01 -2.9684 2.5618 0
M  V30 6441 H 577.5 -3.71368 1.90987 0
M  V30 6442 N 577.937 -1.40673 -0.710563 0
M  V30 6443 C 579.184 -1.39222 -1.47049 0
M  V30 6444 C 579.512 0.0037691 -1.945 0
M  V30 6445 O 578.767 0.989224 -1.68857 0
M  V30 6446 C 579.066 -2.33253 -2.70791 0
M  V30 6447 C 578.732 -3.80406 -2.42079 0
M  V30 6448 C 577.394 -4.20496 -2.33959 0
M  V30 6449 C 579.746 -4.73375 -2.18094 0
M  V30 6450 C 577.074 -5.51584 -1.99929 0
M  V30 6451 C 579.426 -6.04768 -1.85576 0
M  V30 6452 C 578.09 -6.43895 -1.75941 0
M  V30 6453 H 577.36 -0.509449 -0.538092 0
M  V30 6454 H 580.007 -1.73363 -0.81348 0
M  V30 6455 H 578.312 -1.92314 -3.41354 0
M  V30 6456 H 580.009 -2.29412 -3.28894 0
M  V30 6457 H 576.599 -3.48645 -2.49288 0
M  V30 6458 H 580.783 -4.43217 -2.23321 0
M  V30 6459 H 576.039 -5.80797 -1.91011 0
M  V30 6460 H 580.213 -6.76318 -1.66033 0
M  V30 6461 H 577.84 -7.45387 -1.4934 0
M  V30 6462 N 579.415 0.9433 -1.26252 0
M  V30 6463 C 580.378 2.02326 -1.07689 0
M  V30 6464 C 581.378 1.60779 -0.0259174 0
M  V30 6465 O 582.568 1.72108 -0.269134 0
M  V30 6466 C 579.7 3.34886 -0.63752 0
M  V30 6467 H 580.893 2.20225 -2.0357 0
M  V30 6468 H 578.446 1.12197 -1.08819 0
M  V30 6469 H 579.181 3.22684 0.323377 0
M  V30 6470 H 578.966 3.66393 -1.39637 0
M  V30 6471 H 580.456 4.14231 -0.529418 0
M  V30 6472 N 580.893 1.08022 1.14757 0
M  V30 6473 C 581.803 0.718292 2.23333 0
M  V30 6474 C 582.819 -0.273477 1.71837 0
M  V30 6475 O 583.995 -0.118406 2.01052 0
M  V30 6476 C 581.06 0.128855 3.4646 0
M  V30 6477 C 580.121 1.17473 4.12915 0
M  V30 6478 C 579.354 0.61333 5.30164 0
M  V30 6479 O 579.577 -0.568458 5.6756 0
M  V30 6480 O 578.511 1.3615 5.86299 0
M  V30 6481 H 582.337 1.62394 2.56636 0
M  V30 6482 H 579.922 0.853628 1.22611 0
M  V30 6483 H 581.804 -0.197249 4.20938 0
M  V30 6484 H 580.479 -0.750014 3.14891 0
M  V30 6485 H 579.386 1.5533 3.40328 0
M  V30 6486 H 580.719 2.02574 4.48581 0
M  V30 6487 N 582.371 -1.3172 0.865308 0
M  V30 6488 C 583.304 -2.26687 0.262376 0
M  V30 6489 C 584.282 -1.50894 -0.605787 0
M  V30 6490 O 585.466 -1.79982 -0.56024 0
M  V30 6491 C 582.593 -3.3281 -0.628915 0
M  V30 6492 C 581.639 -4.26172 0.167278 0
M  V30 6493 S 582.472 -5.12797 1.54272 0
M  V30 6494 C 583.628 -6.22438 0.657427 0
M  V30 6495 H 583.861 -2.77478 1.0674 0
M  V30 6496 H 581.394 -1.39414 0.663555 0
M  V30 6497 H 583.352 -3.94426 -1.13747 0
M  V30 6498 H 582.013 -2.80782 -1.40785 0
M  V30 6499 H 581.206 -5.01392 -0.51203 0
M  V30 6500 H 580.808 -3.69029 0.607777 0
M  V30 6501 H 583.1 -6.77368 -0.133925 0
M  V30 6502 H 584.043 -6.9451 1.38061 0
M  V30 6503 H 584.451 -5.64043 0.227044 0
M  V30 6504 N 583.85 -0.624285 -1.44708 0
M  V30 6505 C 584.779 0.0717025 -2.3339 0
M  V30 6506 C 585.76 0.841814 -1.47809 0
M  V30 6507 O 586.946 0.809056 -1.76544 0
M  V30 6508 C 584.076 1.05852 -3.30776 0
M  V30 6509 C 583.029 0.400503 -4.26122 0
M  V30 6510 C 582.356 1.49674 -5.13324 0
M  V30 6511 C 583.656 -0.688924 -5.17737 0
M  V30 6512 H 585.35 -0.668819 -2.91834 0
M  V30 6513 H 582.896 -0.32308 -1.40329 0
M  V30 6514 H 584.849 1.5541 -3.91696 0
M  V30 6515 H 583.572 1.82984 -2.70526 0
M  V30 6516 H 582.231 -0.0743687 -3.66525 0
M  V30 6517 H 581.88 2.25877 -4.49431 0
M  V30 6518 H 581.58 1.06188 -5.77926 0
M  V30 6519 H 583.104 1.99427 -5.77115 0
M  V30 6520 H 584.518 -0.276724 -5.72632 0
M  V30 6521 H 582.915 -1.04652 -5.90904 0
M  V30 6522 H 583.985 -1.55884 -4.5916 0
M  V30 6523 N 585.328 1.53329 -0.364422 0
M  V30 6524 C 586.744 1.59594 -0.0133165 0
M  V30 6525 C 586.944 1.37959 1.46865 0
M  V30 6526 O 586 1.18418 2.2301 0
M  V30 6527 C 587.313 2.97032 -0.468213 0
M  V30 6528 C 588.861 3.10138 -0.422334 0
M  V30 6529 C 589.336 4.49986 -0.853024 0
M  V30 6530 N 590.827 4.56098 -0.808037 0
M  V30 6531 C 591.562 5.62495 -1.11299 0
M  V30 6532 N 591.058 6.7665 -1.48717 0
M  V30 6533 N 592.851 5.52473 -1.03586 0
M  V30 6534 H 585.002 1.65644 -1.32951 0
M  V30 6535 H 587.265 0.77684 -0.543345 0
M  V30 6536 H 586.971 3.18 -1.5023 0
M  V30 6537 H 586.845 3.76918 0.145775 0
M  V30 6538 H 589.232 2.88881 0.602622 0
M  V30 6539 H 589.313 2.32263 -1.0718 0
M  V30 6540 H 588.957 4.7198 -1.87609 0
M  V30 6541 H 588.887 5.26289 -0.180819 0
M  V30 6542 H 591.378 3.74131 -0.532361 0
M  V30 6543 H 591.691 7.53776 -1.70415 0
M  V30 6544 H 590.036 6.78044 -1.52581 0
M  V30 6545 H 593.227 4.6217 -0.742736 0
M  V30 6546 H 593.4 6.35295 -1.27686 0
M  V30 6547 N 586.806 0.0935595 1.57322 0
M  V30 6548 C 588.053 -0.570509 1.94297 0
M  V30 6549 C 588.381 -1.68286 0.97519 0
M  V30 6550 O 587.636 -1.95699 -0.00548655 0
M  V30 6551 C 587.935 -1.16692 3.37813 0
M  V30 6552 C 587.601 -0.178509 4.50547 0
M  V30 6553 C 586.263 0.0933475 4.81109 0
M  V30 6554 C 588.615 0.496472 5.1883 0
M  V30 6555 C 585.943 1.0469 5.77284 0
M  V30 6556 C 588.295 1.43849 6.16028 0
M  V30 6557 C 586.959 1.71859 6.44997 0
M  V30 6558 H 586.229 -0.208764 0.710984 0
M  V30 6559 H 588.876 0.169066 1.90752 0
M  V30 6560 H 587.181 -1.98271 3.37929 0
M  V30 6561 H 588.878 -1.6884 3.63722 0
M  V30 6562 H 585.468 -0.400584 4.26724 0
M  V30 6563 H 589.652 0.299584 4.95395 0
M  V30 6564 H 584.908 1.27094 5.98044 0
M  V30 6565 H 589.082 1.96734 6.68034 0
M  V30 6566 H 586.709 2.45906 7.19329 0
M  V30 6567 N 588.284 -1.56567 -0.180126 0
M  V30 6568 C 589.532 -1.81133 -0.896392 0
M  V30 6569 C 589.853 -0.669114 -1.83161 0
M  V30 6570 O 589.123 0.311616 -1.93406 0
M  V30 6571 H 587.703 -0.668172 -0.333999 0
M  V30 6572 H 590.365 -1.94048 -0.182051 0
M  V30 6573 H 589.461 -2.74854 -1.47857 0
M  V30 6574 N 589.762 0.448376 -1.51087 0
M  V30 6575 C 591.039 1.20926 -1.53741 0
M  V30 6576 C 591.419 2.09025 -0.295222 0
M  V30 6577 O 590.767 2.16851 0.720283 0
M  V30 6578 C 590.977 2.02067 -2.84552 0
M  V30 6579 C 592.325 2.59486 -3.36084 0
M  V30 6580 O 593.349 2.12289 -2.86028 0
M  V30 6581 O 592.208 3.45539 -4.23397 0
M  V30 6582 H 589.302 0.549951 -0.617643 0
M  V30 6583 H 591.848 0.458344 -1.63393 0
M  V30 6584 H 590.62 1.37291 -3.66425 0
M  V30 6585 H 590.243 2.84246 -2.78011 0
M  V30 6586 N 591.24 1.41047 0.703093 0
M  V30 6587 C 592.656 1.23351 1.01275 0
M  V30 6588 C 592.856 0.11754 2.01157 0
M  V30 6589 O 591.912 -0.520518 2.47077 0
M  V30 6590 C 593.225 2.58001 1.54454 0
M  V30 6591 C 594.773 2.65119 1.66376 0
M  V30 6592 C 595.248 4.00067 2.22958 0
M  V30 6593 N 596.739 4.01875 2.30328 0
M  V30 6594 C 597.474 5.03087 2.75119 0
M  V30 6595 N 596.97 6.14692 3.19571 0
M  V30 6596 N 598.763 4.90451 2.74616 0
M  V30 6597 H 590.914 2.1236 0.0412686 0
M  V30 6598 H 593.177 0.944543 0.08089 0
M  V30 6599 H 592.883 3.40378 0.88521 0
M  V30 6600 H 592.757 2.79962 2.52786 0
M  V30 6601 H 595.144 1.83106 2.31422 0
M  V30 6602 H 595.225 2.46975 0.666089 0
M  V30 6603 H 594.869 4.82526 1.58529 0
M  V30 6604 H 594.799 4.15547 3.23462 0
M  V30 6605 H 597.29 3.21291 1.98949 0
M  V30 6606 H 597.603 6.87799 3.52352 0
M  V30 6607 H 595.948 6.18239 3.17498 0
M  V30 6608 H 599.139 4.0235 2.39233 0
M  V30 6609 H 599.312 5.6947 3.09206 0
M  V30 6610 N 592.718 -0.936591 1.26751 0
M  V30 6611 C 593.651 -2.03619 1.03027 0
M  V30 6612 C 594.629 -1.62534 -0.0464619 0
M  V30 6613 O 595.813 -1.88251 0.0968873 0
M  V30 6614 C 592.94 -3.3402 0.561072 0
M  V30 6615 C 591.986 -3.9408 1.63105 0
M  V30 6616 S 592.819 -4.27782 3.22122 0
M  V30 6617 C 593.975 -5.61277 2.76982 0
M  V30 6618 H 594.208 -2.23429 1.96129 0
M  V30 6619 H 591.741 -1.07857 1.10482 0
M  V30 6620 H 593.699 -4.09424 0.297031 0
M  V30 6621 H 592.36 -3.12147 -0.349741 0
M  V30 6622 H 591.553 -4.88154 1.25386 0
M  V30 6623 H 591.155 -3.25227 1.84671 0
M  V30 6624 H 593.447 -6.40189 2.21731 0
M  V30 6625 H 594.39 -6.03887 3.69766 0
M  V30 6626 H 594.798 -5.21374 2.16402 0
M  V30 6627 N 594.196 -1.08629 -1.14182 0
M  V30 6628 C 595.443 -0.817345 -1.85272 0
M  V30 6629 C 595.771 0.656917 -1.83071 0
M  V30 6630 O 595.026 1.49897 -1.25815 0
M  V30 6631 C 595.325 -1.28734 -3.3341 0
M  V30 6632 C 594.991 -2.76981 -3.55798 0
M  V30 6633 C 593.653 -3.17469 -3.61617 0
M  V30 6634 C 596.005 -3.72605 -3.64438 0
M  V30 6635 C 593.333 -4.52371 -3.736 0
M  V30 6636 C 595.685 -5.07286 -3.77947 0
M  V30 6637 C 594.349 -5.47376 -3.82016 0
M  V30 6638 H 593.619 -0.299088 -0.677958 0
M  V30 6639 H 596.266 -1.35962 -1.34857 0
M  V30 6640 H 594.571 -0.664702 -3.8612 0
M  V30 6641 H 596.268 -1.05598 -3.86846 0
M  V30 6642 H 592.858 -2.44644 -3.51919 0
M  V30 6643 H 597.042 -3.42443 -3.5923 0
M  V30 6644 H 592.298 -4.82882 -3.75013 0
M  V30 6645 H 596.472 -5.81243 -3.83575 0
M  V30 6646 H 594.099 -6.51906 -3.91054 0
M  V30 6647 N 595.674 1.31259 -0.872281 0
M  V30 6648 C 596.904 2.00504 -0.498183 0
M  V30 6649 C 597.312 1.65632 0.914479 0
M  V30 6650 O 596.655 0.882849 1.61095 0
M  V30 6651 C 596.717 3.5482 -0.578194 0
M  V30 6652 C 596.381 4.13172 -1.95289 0
M  V30 6653 C 597.378 4.30107 -2.92069 0
M  V30 6654 C 595.063 4.48846 -2.25483 0
M  V30 6655 C 597.057 4.81908 -4.17185 0
M  V30 6656 C 594.744 5.00349 -3.50847 0
M  V30 6657 C 595.742 5.16831 -4.46514 0
M  V30 6658 O 595.43 5.67228 -5.69656 0
M  V30 6659 H 595.162 0.648055 -0.192354 0
M  V30 6660 H 597.716 1.6841 -1.17589 0
M  V30 6661 H 595.946 3.86383 0.156438 0
M  V30 6662 H 597.635 4.05318 -0.217192 0
M  V30 6663 H 598.401 4.02862 -2.7005 0
M  V30 6664 H 594.28 4.35292 -1.51795 0
M  V30 6665 H 597.824 4.94688 -4.91863 0
M  V30 6666 H 593.721 5.27028 -3.72708 0
M  V30 6667 H 594.489 5.85592 -5.7186 0
M  V30 6668 N 597.152 0.631951 1.44375 0
M  V30 6669 C 598.099 -0.0724807 2.30686 0
M  V30 6670 C 599.069 -0.835975 1.43529 0
M  V30 6671 O 600.254 -0.816849 1.7243 0
M  V30 6672 C 597.394 -1.04753 3.28817 0
M  V30 6673 C 596.507 -0.282367 4.31076 0
M  V30 6674 C 595.642 -1.2493 5.163 0
M  V30 6675 C 594.681 -0.473349 6.10267 0
M  V30 6676 N 593.818 -1.39079 6.88187 0
M  V30 6677 H 598.658 0.669477 2.90383 0
M  V30 6678 H 596.195 0.341927 1.43071 0
M  V30 6679 H 598.153 -1.62623 3.842 0
M  V30 6680 H 596.783 -1.75661 2.70819 0
M  V30 6681 H 595.835 0.412268 3.78159 0
M  V30 6682 H 597.147 0.321955 4.9776 0
M  V30 6683 H 596.301 -1.89931 5.76204 0
M  V30 6684 H 595.04 -1.88755 4.49692 0
M  V30 6685 H 594.045 0.190142 5.49471 0
M  V30 6686 H 595.27 0.16019 6.78911 0
M  V30 6687 H 593.216 -2.01623 6.24247 0
M  V30 6688 H 593.133 -0.840513 7.51313 0
M  V30 6689 H 594.401 -2.02961 7.52613 0
M  V30 6690 N 598.631 -1.53133 0.372548 0
M  V30 6691 C 599.908 -1.93704 -0.271693 0
M  V30 6692 C 600.288 -1.30667 -1.65799 0
M  V30 6693 O 599.636 -0.46838 -2.23648 0
M  V30 6694 C 599.846 -3.47576 -0.314903 0
M  V30 6695 C 601.194 -4.20998 -0.551912 0
M  V30 6696 O 602.218 -3.53994 -0.39582 0
M  V30 6697 O 601.077 -5.39748 -0.85639 0
M  V30 6698 H 598.171 -0.810457 -0.164586 0
M  V30 6699 H 600.717 -1.6427 0.425838 0
M  V30 6700 H 599.489 -3.85749 0.656792 0
M  V30 6701 H 599.112 -3.83264 -1.05804 0
M  V30 6702 N 600.109 -0.101901 -1.5727 0
M  V30 6703 C 601.355 0.554864 -1.95686 0
M  V30 6704 C 601.71 1.65368 -0.983415 0
M  V30 6705 O 601.003 1.91597 -0.0105374 0
M  V30 6706 C 601.197 1.14898 -3.38427 0
M  V30 6707 C 601.026 0.109251 -4.49567 0
M  V30 6708 C 599.796 -0.316633 -5.04307 0
M  V30 6709 C 601.994 -0.665196 -5.0998 0
M  V30 6710 N 599.976 -1.34393 -5.99009 0
M  V30 6711 C 601.347 -1.54413 -6.00464 0
M  V30 6712 C 603.402 -0.717966 -4.92696 0
M  V30 6713 C 602.105 -2.47122 -6.75517 0
M  V30 6714 C 604.131 -1.63268 -5.68417 0
M  V30 6715 C 603.493 -2.49923 -6.58572 0
M  V30 6716 H 599.592 0.17317 -0.762585 0
M  V30 6717 H 602.176 -0.18605 -1.93809 0
M  V30 6718 H 600.347 1.85969 -3.40984 0
M  V30 6719 H 602.079 1.76867 -3.64006 0
M  V30 6720 H 598.834 0.0724419 -4.73545 0
M  V30 6721 H 599.258 -1.85598 -6.51062 0
M  V30 6722 H 603.9 -0.0621637 -4.22754 0
M  V30 6723 H 601.618 -3.13724 -7.44717 0
M  V30 6724 H 605.204 -1.67874 -5.57054 0
M  V30 6725 H 604.084 -3.19553 -7.16139 0
M  V30 6726 N 601.587 1.56661 0.17182 0
M  V30 6727 C 602.833 1.8313 0.88516 0
M  V30 6728 C 603.188 0.682376 1.79893 0
M  V30 6729 O 602.481 -0.321215 1.88888 0
M  V30 6730 C 602.675 3.13435 1.71736 0
M  V30 6731 C 602.504 4.40892 0.885659 0
M  V30 6732 C 601.274 5.02177 0.560939 0
M  V30 6733 C 603.472 5.13797 0.227454 0
M  V30 6734 N 601.454 6.13229 -0.286953 0
M  V30 6735 C 602.825 6.18127 -0.481625 0
M  V30 6736 C 604.88 4.97687 0.145567 0
M  V30 6737 C 603.583 7.08092 -1.26482 0
M  V30 6738 C 605.609 5.88096 -0.624298 0
M  V30 6739 C 604.971 6.91888 -1.32174 0
M  V30 6740 H 601.07 0.721107 0.302536 0
M  V30 6741 H 603.654 1.94104 0.152178 0
M  V30 6742 H 601.825 3.03653 2.42176 0
M  V30 6743 H 603.557 3.27903 2.37196 0
M  V30 6744 H 600.312 4.65145 0.890902 0
M  V30 6745 H 600.736 6.73359 -0.701193 0
M  V30 6746 H 605.378 4.17451 0.670426 0
M  V30 6747 H 603.096 7.87774 -1.80103 0
M  V30 6748 H 606.682 5.77702 -0.689321 0
M  V30 6749 H 605.562 7.60637 -1.90791 0
M  V30 6750 N 603.065 -0.440357 1.51323 0
M  V30 6751 C 604.013 -1.55492 1.72988 0
M  V30 6752 C 605.007 -1.58564 0.596138 0
M  V30 6753 O 606.213 -1.62345 0.777443 0
M  V30 6754 H 602.588 -0.516532 0.546533 0
M  V30 6755 H 604.559 -1.34392 2.66423 0
M  V30 6756 C 603.308 -2.93176 1.86931 0
M  V30 6757 H 602.631 -2.91543 2.73574 0
M  V30 6758 H 604.071 -3.70537 2.06103 0
M  V30 6759 C 602.53 -3.30988 0.628365 0
M  V30 6760 O 603.06 -4.01106 -0.218367 0
M  V30 6761 N 601.266 -2.86719 0.473339 0
M  V30 6762 H 600.813 -2.2983 1.16345 0
M  V30 6763 H 600.771 -3.12381 -0.355727 0
M  V30 6764 N 604.543 -1.41418 -0.695603 0
M  V30 6765 C 605.768 -1.44329 -1.48942 0
M  V30 6766 C 606.193 -0.0501579 -1.88033 0
M  V30 6767 O 605.551 0.946598 -1.54626 0
M  V30 6768 C 605.599 -2.3578 -2.72837 0
M  V30 6769 O 604.703 -1.81482 -3.70322 0
M  V30 6770 H 604.044 -0.489838 -0.44828 0
M  V30 6771 H 606.574 -1.85878 -0.855014 0
M  V30 6772 H 606.584 -2.51654 -3.21145 0
M  V30 6773 H 605.259 -3.37005 -2.43722 0
M  V30 6774 H 603.836 -1.75058 -3.29255 0
M  V30 6775 N 606.021 0.929856 -1.27246 0
M  V30 6776 C 607.249 1.71144 -1.16265 0
M  V30 6777 C 607.664 1.867 0.280786 0
M  V30 6778 O 607.021 1.38249 1.19136 0
M  V30 6779 C 607.072 3.11222 -1.83911 0
M  V30 6780 O 606.793 2.96398 -3.22614 0
M  V30 6781 C 608.294 4.05541 -1.79028 0
M  V30 6782 H 605.514 0.535499 -0.404328 0
M  V30 6783 H 608.058 1.16492 -1.68077 0
M  V30 6784 H 606.213 3.6274 -1.36009 0
M  V30 6785 H 606.627 3.8494 -3.56261 0
M  V30 6786 H 608.101 5.01351 -2.30978 0
M  V30 6787 H 608.578 4.32589 -0.759168 0
M  V30 6788 H 609.184 3.59947 -2.26535 0
M  V30 6789 N 607.499 1.09233 1.13605 0
M  V30 6790 C 608.724 0.849067 1.89224 0
M  V30 6791 C 609.149 -0.593875 1.78479 0
M  V30 6792 O 608.507 -1.41703 1.13092 0
M  V30 6793 C 608.555 1.28642 3.36873 0
M  V30 6794 O 607.659 0.44363 4.10007 0
M  V30 6795 H 607 0.30767 0.588417 0
M  V30 6796 H 609.53 1.45595 1.43748 0
M  V30 6797 H 609.54 1.27096 3.87699 0
M  V30 6798 H 608.215 2.33729 3.44011 0
M  V30 6799 H 606.792 0.523241 3.69211 0
M  V30 6800 N 608.977 -1.30795 0.87923 0
M  V30 6801 C 610.207 -2.00237 0.50881 0
M  V30 6802 C 610.615 -1.66115 -0.905682 0
M  V30 6803 O 609.958 -0.89138 -1.60624 0
M  V30 6804 C 610.02 -3.54508 0.597003 0
M  V30 6805 C 609.684 -4.12131 1.97477 0
M  V30 6806 C 610.681 -4.28552 2.94346 0
M  V30 6807 C 608.366 -4.47644 2.2786 0
M  V30 6808 C 610.36 -4.79689 4.19735 0
M  V30 6809 C 608.047 -4.98481 3.53496 0
M  V30 6810 C 609.045 -5.14456 4.49248 0
M  V30 6811 O 608.733 -5.64199 5.72656 0
M  V30 6812 H 608.465 -0.647026 0.195788 0
M  V30 6813 H 611.019 -1.67785 1.1848 0
M  V30 6814 H 609.249 -3.86461 -0.135945 0
M  V30 6815 H 610.938 -4.05198 0.238684 0
M  V30 6816 H 611.704 -4.01424 2.72183 0
M  V30 6817 H 607.583 -4.34481 1.54102 0
M  V30 6818 H 611.127 -4.92073 4.9448 0
M  V30 6819 H 607.024 -5.25044 3.75498 0
M  V30 6820 H 607.792 -5.82551 5.74957 0
M  V30 6821 N 610.455 -0.639598 -1.44038 0
M  V30 6822 C 611.68 -0.153117 -2.06834 0
M  V30 6823 C 612.105 1.16676 -1.47541 0
M  V30 6824 O 611.463 1.71769 -0.580093 0
M  V30 6825 C 611.511 -0.0609169 -3.60549 0
M  V30 6826 O 610.615 0.98071 -4.00569 0
M  V30 6827 H 609.956 -0.0886402 -0.658057 0
M  V30 6828 H 612.486 -0.878674 -1.84771 0
M  V30 6829 H 612.496 0.126892 -4.07803 0
M  V30 6830 H 611.171 -1.0245 -4.03084 0
M  V30 6831 H 609.748 0.766789 -3.64931 0
M  V30 6832 N 611.933 1.52934 -0.380664 0
M  V30 6833 C 612.881 2.27727 0.47361 0
M  V30 6834 C 613.875 1.31288 1.0705 0
M  V30 6835 O 615.081 1.4886 1.01197 0
M  V30 6836 H 611.456 0.732189 0.171475 0
M  V30 6837 H 613.427 2.97864 -0.178785 0
M  V30 6838 C 612.176 3.0904 1.59341 0
M  V30 6839 H 611.499 3.831 1.14343 0
M  V30 6840 H 612.939 3.64527 2.16555 0
M  V30 6841 C 611.398 2.20813 2.54447 0
M  V30 6842 O 611.928 1.82907 3.57642 0
M  V30 6843 N 610.134 1.85145 2.23986 0
M  V30 6844 H 609.681 2.16169 1.40103 0
M  V30 6845 H 609.639 1.26402 2.87871 0
M  V30 6846 N 613.412 0.11024 1.57214 0
M  V30 6847 C 614.642 -0.557025 1.98949 0
M  V30 6848 C 615.05 -1.61317 0.988606 0
M  V30 6849 O 614.393 -1.83679 -0.0279159 0
M  V30 6850 C 614.455 -1.24956 3.37085 0
M  V30 6851 C 614.119 -0.342398 4.55716 0
M  V30 6852 C 615.116 0.415511 5.18237 0
M  V30 6853 C 612.801 -0.256029 5.01647 0
M  V30 6854 C 614.795 1.24761 6.25071 0
M  V30 6855 C 612.482 0.579713 6.08344 0
M  V30 6856 C 613.48 1.33017 6.69922 0
M  V30 6857 O 613.168 2.15205 7.74559 0
M  V30 6858 H 612.9 -0.152792 0.658506 0
M  V30 6859 H 615.454 0.19076 2.04512 0
M  V30 6860 H 613.684 -2.04424 3.2825 0
M  V30 6861 H 615.373 -1.81286 3.63167 0
M  V30 6862 H 616.139 0.358605 4.83672 0
M  V30 6863 H 612.018 -0.829831 4.5347 0
M  V30 6864 H 615.562 1.83386 6.73064 0
M  V30 6865 H 611.459 0.638044 6.42339 0
M  V30 6866 H 612.227 2.08052 7.91617 0
M  V30 6867 N 614.89 -1.56749 -0.16351 0
M  V30 6868 C 616.12 -1.86307 -0.892936 0
M  V30 6869 C 616.528 -0.6945 -1.75992 0
M  V30 6870 O 615.871 0.345384 -1.80424 0
M  V30 6871 C 615.933 -3.10372 -1.81409 0
M  V30 6872 C 615.597 -4.42913 -1.12593 0
M  V30 6873 C 616.594 -5.17608 -0.487661 0
M  V30 6874 C 614.279 -4.89646 -1.12035 0
M  V30 6875 C 616.273 -6.3723 0.14699 0
M  V30 6876 C 613.96 -6.09197 -0.481883 0
M  V30 6877 C 614.958 -6.82834 0.150678 0
M  V30 6878 O 614.646 -8.00116 0.779065 0
M  V30 6879 H 614.378 -0.622126 -0.264452 0
M  V30 6880 H 616.932 -2.04728 -0.166063 0
M  V30 6881 H 615.162 -2.87917 -2.58148 0
M  V30 6882 H 616.851 -3.26312 -2.41403 0
M  V30 6883 H 617.617 -4.8258 -0.483888 0
M  V30 6884 H 613.496 -4.32265 -1.60212 0
M  V30 6885 H 617.04 -6.94646 0.641325 0
M  V30 6886 H 612.937 -6.43688 -0.483266 0
M  V30 6887 H 613.705 -8.15678 0.679089 0
M  V30 6888 N 616.368 0.432326 -1.51554 0
M  V30 6889 C 617.784 0.769195 -1.39841 0
M  V30 6890 C 617.984 1.95584 -0.484675 0
M  V30 6891 O 617.04 2.52433 0.0582829 0
M  V30 6892 C 618.353 1.04487 -2.81963 0
M  V30 6893 C 619.901 1.149 -2.91148 0
M  V30 6894 C 620.376 1.45758 -4.34187 0
M  V30 6895 N 621.867 1.52671 -4.37317 0
M  V30 6896 C 622.602 1.78129 -5.4503 0
M  V30 6897 N 622.098 2.01345 -6.62897 0
M  V30 6898 N 623.891 1.79953 -5.32516 0
M  V30 6899 H 616.042 -0.349122 -2.09511 0
M  V30 6900 H 618.305 -0.0938113 -0.943347 0
M  V30 6901 H 618.011 0.24557 -3.50842 0
M  V30 6902 H 617.885 1.97119 -3.21596 0
M  V30 6903 H 620.272 1.93891 -2.22464 0
M  V30 6904 H 620.353 0.201568 -2.55005 0
M  V30 6905 H 619.997 0.672917 -5.03423 0
M  V30 6906 H 619.927 2.41715 -4.67848 0
M  V30 6907 H 622.418 1.36612 -3.52343 0
M  V30 6908 H 622.731 2.20155 -7.40778 0
M  V30 6909 H 621.076 1.98657 -6.66003 0
M  V30 6910 H 624.267 1.61337 -4.39418 0
M  V30 6911 H 624.44 1.99455 -6.1654 0
M  V30 6912 N 617.846 1.41785 0.688094 0
M  V30 6913 C 619.074 1.44915 1.47673 0
M  V30 6914 C 619.489 0.0565786 1.88715 0
M  V30 6915 O 618.846 -0.92579 1.57275 0
M  V30 6916 C 618.897 2.36452 2.73446 0
M  V30 6917 O 618.618 3.7029 2.34131 0
M  V30 6918 C 620.119 2.48463 3.67125 0
M  V30 6919 H 617.339 0.493324 0.454832 0
M  V30 6920 H 619.883 1.86153 0.846594 0
M  V30 6921 H 618.038 1.98502 3.3268 0
M  V30 6922 H 618.452 4.19183 3.15255 0
M  V30 6923 H 619.926 3.16662 4.52138 0
M  V30 6924 H 620.403 1.51826 4.12123 0
M  V30 6925 H 621.009 2.8708 3.13792 0
M  V30 6926 N 619.324 -0.923095 1.27737 0
M  V30 6927 C 620.57 -1.67409 1.15524 0
M  V30 6928 C 620.925 -1.90124 -0.295072 0
M  V30 6929 O 620.218 -1.48382 -1.21216 0
M  V30 6930 C 620.412 -3.04125 1.8773 0
M  V30 6931 C 620.241 -2.94752 3.39634 0
M  V30 6932 C 619.011 -2.96783 4.0896 0
M  V30 6933 C 621.209 -2.73524 4.35533 0
M  V30 6934 N 619.191 -2.779 5.47398 0
M  V30 6935 C 620.562 -2.63391 5.61271 0
M  V30 6936 C 622.617 -2.58447 4.2557 0
M  V30 6937 C 621.32 -2.3972 6.78179 0
M  V30 6938 C 623.346 -2.36154 5.42204 0
M  V30 6939 C 622.708 -2.26768 6.669 0
M  V30 6940 H 618.807 -0.619196 0.477619 0
M  V30 6941 H 621.391 -1.09094 1.61266 0
M  V30 6942 H 619.562 -3.60545 1.44436 0
M  V30 6943 H 621.294 -3.6819 1.67982 0
M  V30 6944 H 618.049 -3.07186 3.60463 0
M  V30 6945 H 618.473 -2.71576 6.20141 0
M  V30 6946 H 623.115 -2.6446 3.2988 0
M  V30 6947 H 620.833 -2.32447 7.73947 0
M  V30 6948 H 624.419 -2.25367 5.36378 0
M  V30 6949 H 623.299 -2.09751 7.55628 0
M  V30 6950 N 620.802 -1.09834 -1.13024 0
M  V30 6951 C 621.75 -0.736283 -2.20639 0
M  V30 6952 C 622.744 0.264725 -1.67319 0
M  V30 6953 O 623.95 0.125745 -1.7956 0
M  V30 6954 H 620.325 -0.220136 -0.719058 0
M  V30 6955 H 622.296 -1.65295 -2.48436 0
M  V30 6956 C 621.045 -0.177544 -3.47246 0
M  V30 6957 H 620.368 -0.939009 -3.88616 0
M  V30 6958 H 621.808 0.0378007 -4.23983 0
M  V30 6959 C 620.267 1.08824 -3.1884 0
M  V30 6960 O 620.797 2.1708 -3.37993 0
M  V30 6961 N 619.003 1.00442 -2.7269 0
M  V30 6962 H 618.55 0.123383 -2.57304 0
M  V30 6963 H 618.508 1.85206 -2.5406 0
M  V30 6964 N 622.28 1.30327 -0.886154 0
M  V30 6965 C 623.526 1.96388 -0.505941 0
M  V30 6966 C 623.859 1.69784 0.942712 0
M  V30 6967 O 623.134 1.00322 1.6663 0
M  V30 6968 C 623.417 3.51488 -0.782826 0
M  V30 6969 C 623.27 3.87603 -2.28219 0
M  V30 6970 C 624.589 4.39331 -0.260128 0
M  V30 6971 H 621.708 0.713327 -0.185292 0
M  V30 6972 H 624.35 1.54178 -1.11036 0
M  V30 6973 H 622.5 3.87572 -0.268399 0
M  V30 6974 H 624.172 3.61537 -2.86512 0
M  V30 6975 H 622.415 3.3563 -2.74837 0
M  V30 6976 H 623.086 4.95806 -2.42653 0
M  V30 6977 H 625.562 4.10162 -0.700444 0
M  V30 6978 H 624.438 5.46769 -0.483179 0
M  V30 6979 H 624.699 4.34072 0.838674 0
M  V30 6980 N 623.758 0.647228 1.43697 0
M  V30 6981 C 625.004 0.158422 2.0218 0
M  V30 6982 C 625.337 -1.22233 1.50907 0
M  V30 6983 O 624.612 -1.81478 0.699702 0
M  V30 6984 C 624.895 0.1627 3.59732 0
M  V30 6985 C 624.748 1.57694 4.21251 0
M  V30 6986 C 626.067 -0.504138 4.37203 0
M  V30 6987 H 623.186 0.059042 0.734631 0
M  V30 6988 H 625.828 0.826772 1.71069 0
M  V30 6989 H 623.978 -0.406414 3.86368 0
M  V30 6990 H 625.65 2.19618 4.05667 0
M  V30 6991 H 623.893 2.12603 3.7813 0
M  V30 6992 H 624.564 1.53183 5.3032 0
M  V30 6993 H 627.04 -0.0199841 4.16095 0
M  V30 6994 H 625.916 -0.470394 5.46881 0
M  V30 6995 H 626.177 -1.57726 4.13007 0
M  V30 6996 N 625.236 -1.5273 0.388769 0
M  V30 6997 C 626.482 -2.01871 -0.193877 0
M  V30 6998 C 626.815 -1.27475 -1.46505 0
M  V30 6999 O 626.09 -0.375063 -1.90849 0
M  V30 7000 C 626.373 -3.5712 -0.462336 0
M  V30 7001 C 626.226 -4.42186 0.824091 0
M  V30 7002 C 627.545 -4.21881 -1.25319 0
M  V30 7003 H 624.664 -0.733764 -0.0689899 0
M  V30 7004 H 627.306 -1.82796 0.518231 0
M  V30 7005 H 625.456 -3.73504 -1.06896 0
M  V30 7006 H 627.128 -4.37554 1.46096 0
M  V30 7007 H 625.371 -4.09219 1.43952 0
M  V30 7008 H 626.042 -5.48828 0.590905 0
M  V30 7009 H 628.518 -4.0947 -0.73981 0
M  V30 7010 H 627.394 -5.30487 -1.40977 0
M  V30 7011 H 627.655 -3.79478 -2.26824 0
M  V30 7012 N 626.714 -0.118576 -1.57153 0
M  V30 7013 C 627.664 0.842924 -2.11846 0
M  V30 7014 C 628.648 1.22845 -1.03914 0
M  V30 7015 O 629.84 1.19961 -1.30148 0
M  V30 7016 C 626.969 2.09312 -2.72109 0
M  V30 7017 C 626.055 1.73198 -3.87122 0
M  V30 7018 N 626.446 1.07758 -4.94188 0
M  V30 7019 C 624.744 2.02659 -3.97298 0
M  V30 7020 C 625.445 0.907741 -5.74574 0
M  V30 7021 N 624.421 1.4326 -5.24383 0
M  V30 7022 H 628.223 0.333416 -2.92003 0
M  V30 7023 H 625.737 0.0839073 -1.62183 0
M  V30 7024 H 627.734 2.79162 -3.09635 0
M  V30 7025 H 626.394 2.60807 -1.93416 0
M  V30 7026 H 627.405 0.741613 -5.12563 0
M  V30 7027 H 624.082 2.56204 -3.29645 0
M  V30 7028 H 625.472 0.394112 -6.70743 0
M  V30 7029 N 628.193 1.56834 0.155195 0
M  V30 7030 C 629.47 1.73799 0.897395 0
M  V30 7031 C 629.85 0.684379 1.99698 0
M  V30 7032 O 629.198 -0.298111 2.26547 0
M  V30 7033 C 629.408 3.17572 1.44737 0
M  V30 7034 C 630.756 3.79014 1.91399 0
M  V30 7035 O 631.78 3.20951 1.54496 0
M  V30 7036 O 630.639 4.80998 2.59429 0
M  V30 7037 H 627.733 0.710329 0.423511 0
M  V30 7038 H 630.279 1.69107 0.141761 0
M  V30 7039 H 629.051 3.85749 0.656741 0
M  V30 7040 H 628.674 3.26657 2.26674 0
M  V30 7041 N 629.671 -0.424282 1.51781 0
M  V30 7042 C 630.917 -1.17117 1.66298 0
M  V30 7043 C 631.272 -1.88595 0.380767 0
M  V30 7044 O 630.565 -1.81151 -0.624094 0
M  V30 7045 C 630.759 -2.20418 2.81337 0
M  V30 7046 C 630.588 -1.59081 4.20622 0
M  V30 7047 C 629.358 -1.37007 4.86371 0
M  V30 7048 C 631.556 -1.05992 5.0326 0
M  V30 7049 N 629.538 -0.714049 6.09733 0
M  V30 7050 C 630.909 -0.529933 6.17731 0
M  V30 7051 C 632.964 -0.952927 4.88696 0
M  V30 7052 C 631.667 0.0965457 7.19235 0
M  V30 7053 C 633.693 -0.340325 5.9042 0
M  V30 7054 C 633.055 0.179057 7.04172 0
M  V30 7055 H 629.154 -0.41577 0.662314 0
M  V30 7056 H 631.738 -0.46579 1.89046 0
M  V30 7057 H 629.909 -2.8833 2.60231 0
M  V30 7058 H 631.641 -2.8736 2.84968 0
M  V30 7059 H 628.396 -1.63543 4.44467 0
M  V30 7060 H 628.82 -0.403101 6.75799 0
M  V30 7061 H 633.462 -1.34033 4.00993 0
M  V30 7062 H 631.18 0.496044 8.06576 0
M  V30 7063 H 634.766 -0.259266 5.81222 0
M  V30 7064 H 633.646 0.645626 7.81538 0
M  V30 7065 N 631.149 -1.42148 -0.680565 0
M  V30 7066 C 632.079 -1.4796 -1.80638 0
M  V30 7067 C 633.06 -0.336728 -1.66734 0
M  V30 7068 O 634.245 -0.550247 -1.86242 0
M  V30 7069 C 631.375 -1.37569 -3.18892 0
M  V30 7070 C 630.329 -2.49823 -3.47524 0
M  V30 7071 C 629.655 -2.24491 -4.85291 0
M  V30 7072 C 630.955 -3.92144 -3.44994 0
M  V30 7073 H 632.649 -2.42184 -1.76032 0
M  V30 7074 H 630.195 -1.16566 -0.845481 0
M  V30 7075 H 632.148 -1.40243 -3.97379 0
M  V30 7076 H 630.872 -0.398357 -3.24162 0
M  V30 7077 H 629.531 -2.46455 -2.71395 0
M  V30 7078 H 629.179 -1.25066 -4.87204 0
M  V30 7079 H 628.879 -2.99722 -5.05411 0
M  V30 7080 H 630.403 -2.28906 -5.66069 0
M  V30 7081 H 631.817 -3.97145 -4.13459 0
M  V30 7082 H 630.214 -4.67179 -3.76648 0
M  V30 7083 H 631.284 -4.19225 -2.43676 0
M  V30 7084 N 632.627 0.916307 -1.28225 0
M  V30 7085 C 633.857 1.69654 -1.17902 0
M  V30 7086 C 634.265 1.87331 0.265268 0
M  V30 7087 O 633.608 1.39828 1.19137 0
M  V30 7088 C 633.67 3.11024 -1.80289 0
M  V30 7089 C 633.334 3.16643 -3.29525 0
M  V30 7090 C 634.331 2.98032 -4.25997 0
M  V30 7091 C 632.016 3.39238 -3.70436 0
M  V30 7092 C 634.01 3.01924 -5.61356 0
M  V30 7093 C 631.697 3.42762 -5.05922 0
M  V30 7094 C 632.695 3.24125 -6.01192 0
M  V30 7095 O 632.383 3.27406 -7.34208 0
M  V30 7096 H 632.115 0.537197 -0.41036 0
M  V30 7097 H 634.669 1.15547 -1.69817 0
M  V30 7098 H 632.899 3.66662 -1.22865 0
M  V30 7099 H 634.588 3.71063 -1.6452 0
M  V30 7100 H 635.354 2.80405 -3.95725 0
M  V30 7101 H 631.233 3.52791 -2.96749 0
M  V30 7102 H 634.777 2.87295 -6.35694 0
M  V30 7103 H 630.674 3.59916 -5.35846 0
M  V30 7104 H 631.442 3.43784 -7.42802 0
M  V30 7105 N 634.105 1.10431 1.1244 0
M  V30 7106 C 635.335 0.867612 1.87499 0
M  V30 7107 C 635.743 -0.585475 1.79913 0
M  V30 7108 O 635.086 -1.41539 1.171 0
M  V30 7109 C 635.148 1.2374 3.37533 0
M  V30 7110 C 634.812 2.69751 3.68895 0
M  V30 7111 C 635.809 3.67988 3.67261 0
M  V30 7112 C 633.494 3.06135 3.98229 0
M  V30 7113 C 635.488 5.00632 3.9452 0
M  V30 7114 C 633.175 4.38967 4.25149 0
M  V30 7115 C 634.173 5.36025 4.23281 0
M  V30 7116 O 633.861 6.66465 4.49533 0
M  V30 7117 H 633.593 0.311196 0.600111 0
M  V30 7118 H 636.147 1.47257 1.43194 0
M  V30 7119 H 634.377 0.575537 3.82393 0
M  V30 7120 H 636.066 0.978187 3.93937 0
M  V30 7121 H 636.832 3.41224 3.44661 0
M  V30 7122 H 632.711 2.31214 3.98825 0
M  V30 7123 H 636.255 5.7638 3.92978 0
M  V30 7124 H 632.152 4.6547 4.47223 0
M  V30 7125 H 632.92 6.72095 4.67152 0
M  V30 7126 N 635.583 -1.29855 0.893053 0
M  V30 7127 C 636.813 -1.99686 0.530019 0
M  V30 7128 C 637.221 -1.67066 -0.888012 0
M  V30 7129 O 636.564 -0.908366 -1.5967 0
M  V30 7130 C 636.626 -3.53855 0.63457 0
M  V30 7131 C 636.29 -4.10013 2.01837 0
M  V30 7132 C 637.287 -4.25406 2.98874 0
M  V30 7133 C 634.972 -4.45202 2.32595 0
M  V30 7134 C 636.966 -4.7521 4.24799 0
M  V30 7135 C 634.653 -4.94704 3.58763 0
M  V30 7136 C 635.651 -5.09662 4.5468 0
M  V30 7137 O 635.339 -5.58093 5.78608 0
M  V30 7138 H 635.071 -0.644913 0.20264 0
M  V30 7139 H 637.625 -1.66518 1.20253 0
M  V30 7140 H 635.855 -3.86583 -0.0949477 0
M  V30 7141 H 637.544 -4.04922 0.281648 0
M  V30 7142 H 638.31 -3.98515 2.76425 0
M  V30 7143 H 634.189 -4.32822 1.58701 0
M  V30 7144 H 637.733 -4.86801 4.99671 0
M  V30 7145 H 633.63 -5.21032 3.81046 0
M  V30 7146 H 634.398 -5.7642 5.81104 0
M  V30 7147 N 637.061 -0.65484 -1.43351 0
M  V30 7148 C 638.024 0.0263562 -2.29185 0
M  V30 7149 C 639.024 0.748951 -1.42293 0
M  V30 7150 O 640.214 0.589957 -1.63906 0
M  V30 7151 C 637.346 1.04806 -3.2439 0
M  V30 7152 H 638.539 -0.728883 -2.90908 0
M  V30 7153 H 636.092 -0.416149 -1.50658 0
M  V30 7154 H 636.827 1.83247 -2.67565 0
M  V30 7155 H 636.612 0.533554 -3.88453 0
M  V30 7156 H 638.102 1.52372 -3.88809 0
M  V30 7157 N 638.539 1.52521 -0.396863 0
M  V30 7158 C 639.769 2.05792 0.182485 0
M  V30 7159 C 640.177 1.26784 1.40436 0
M  V30 7160 O 639.52 0.309617 1.81072 0
M  V30 7161 C 639.582 3.54291 0.609781 0
M  V30 7162 C 639.246 4.5426 -0.499674 0
M  V30 7163 C 640.243 5.01812 -1.35944 0
M  V30 7164 C 637.928 4.97827 -0.668864 0
M  V30 7165 C 639.922 5.91562 -2.37346 0
M  V30 7166 C 637.609 5.87376 -1.68621 0
M  V30 7167 C 638.607 6.34137 -2.53692 0
M  V30 7168 O 638.295 7.21915 -3.53686 0
M  V30 7169 H 638.027 0.675362 0.0293583 0
M  V30 7170 H 640.581 1.97539 -0.56281 0
M  V30 7171 H 638.811 3.60188 1.40717 0
M  V30 7172 H 640.5 3.90267 1.11565 0
M  V30 7173 H 641.266 4.68879 -1.24008 0
M  V30 7174 H 637.145 4.60997 -0.0163971 0
M  V30 7175 H 640.689 6.27983 -3.03782 0
M  V30 7176 H 636.586 6.19723 -1.80593 0
M  V30 7177 H 637.354 7.39996 -3.49784 0
M  V30 7178 N 640.017 0.126909 1.57088 0
M  V30 7179 C 640.964 -0.82036 2.15728 0
M  V30 7180 C 641.934 -1.25811 1.08447 0
M  V30 7181 O 643.119 -1.33422 1.36393 0
M  V30 7182 C 640.259 -2.06199 2.76724 0
M  V30 7183 C 639.372 -1.67188 3.98337 0
M  V30 7184 C 638.507 -2.86378 4.47393 0
M  V30 7185 C 637.546 -2.43644 5.61519 0
M  V30 7186 N 636.683 -3.55775 6.05284 0
M  V30 7187 H 641.523 -0.313472 2.96347 0
M  V30 7188 H 639.06 -0.14303 1.46403 0
M  V30 7189 H 641.018 -2.78959 3.10222 0
M  V30 7190 H 639.648 -2.54333 1.98782 0
M  V30 7191 H 638.7 -0.842714 3.70948 0
M  V30 7192 H 640.012 -1.31789 4.81075 0
M  V30 7193 H 639.166 -3.67353 4.82842 0
M  V30 7194 H 637.905 -3.25009 3.63621 0
M  V30 7195 H 636.91 -1.61104 5.25667 0
M  V30 7196 H 638.135 -2.06122 6.47063 0
M  V30 7197 H 636.081 -3.94065 5.24451 0
M  V30 7198 H 635.998 -3.24325 6.82898 0
M  V30 7199 H 637.266 -4.37166 6.45373 0
M  V30 7200 N 641.495 -1.56914 -0.146875 0
M  V30 7201 C 642.772 -1.74273 -0.888165 0
M  V30 7202 C 643.152 -0.69496 -1.99333 0
M  V30 7203 O 642.5 0.286093 -2.26702 0
M  V30 7204 C 642.71 -3.18336 -1.43051 0
M  V30 7205 C 644.058 -3.80024 -1.89387 0
M  V30 7206 O 645.082 -3.21765 -1.52792 0
M  V30 7207 O 643.941 -4.82367 -2.56874 0
M  V30 7208 H 641.035 -0.712565 -0.419738 0
M  V30 7209 H 643.581 -1.6918 -0.132791 0
M  V30 7210 H 642.353 -3.86092 -0.636274 0
M  V30 7211 H 641.976 -3.27854 -2.24938 0
M  V30 7212 N 642.974 0.416227 -1.52004 0
M  V30 7213 C 644.221 1.16383 -1.65714 0
M  V30 7214 C 644.549 1.9068 -0.383594 0
M  V30 7215 O 643.804 1.85174 0.633185 0
M  V30 7216 C 644.103 2.18923 -2.82502 0
M  V30 7217 C 643.769 1.61485 -4.20991 0
M  V30 7218 C 642.431 1.45545 -4.58661 0
M  V30 7219 C 644.783 1.19468 -5.07323 0
M  V30 7220 C 642.111 0.860937 -5.80349 0
M  V30 7221 C 644.463 0.614386 -6.29609 0
M  V30 7222 C 643.127 0.442056 -6.66035 0
M  V30 7223 H 642.397 0.425875 -0.606392 0
M  V30 7224 H 645.044 0.45199 -1.8609 0
M  V30 7225 H 643.349 2.96225 -2.56433 0
M  V30 7226 H 645.046 2.76628 -2.90307 0
M  V30 7227 H 641.636 1.74873 -3.91302 0
M  V30 7228 H 645.82 1.30596 -4.78809 0
M  V30 7229 H 641.076 0.715372 -6.072 0
M  V30 7230 H 645.25 0.280393 -6.95835 0
M  V30 7231 H 642.877 -0.0207218 -7.60197 0
M  V30 7232 N 644.452 1.42507 0.673017 0
M  V30 7233 C 645.382 1.48916 1.79851 0
M  V30 7234 C 646.363 0.345566 1.66553 0
M  V30 7235 O 647.548 0.560116 1.85947 0
M  V30 7236 C 644.678 1.39258 3.18158 0
M  V30 7237 C 643.632 2.51662 3.46194 0
M  V30 7238 C 642.958 2.27062 4.84094 0
M  V30 7239 C 644.258 3.93968 3.42909 0
M  V30 7240 H 645.952 2.43114 1.74745 0
M  V30 7241 H 643.498 1.17013 0.839288 0
M  V30 7242 H 645.451 1.42349 3.96629 0
M  V30 7243 H 644.175 0.415542 3.23946 0
M  V30 7244 H 642.834 2.47891 2.70084 0
M  V30 7245 H 642.482 1.27648 4.86534 0
M  V30 7246 H 642.182 3.02398 5.03815 0
M  V30 7247 H 643.706 2.31905 5.64847 0
M  V30 7248 H 645.12 3.99332 4.11347 0
M  V30 7249 H 643.517 4.6917 3.74165 0
M  V30 7250 H 644.587 4.20512 2.41449 0
M  V30 7251 N 645.93 -0.909495 1.28709 0
M  V30 7252 C 647.176 -1.66175 1.17293 0
M  V30 7253 C 647.531 -1.90426 -0.274891 0
M  V30 7254 O 646.824 -1.49659 -1.19635 0
M  V30 7255 C 647.018 -3.02117 1.90945 0
M  V30 7256 C 646.847 -2.91134 3.42741 0
M  V30 7257 C 645.617 -2.92429 4.12085 0
M  V30 7258 C 647.815 -2.68889 4.3841 0
M  V30 7259 N 645.797 -2.72078 5.50315 0
M  V30 7260 C 647.168 -2.57423 5.64033 0
M  V30 7261 C 649.223 -2.53919 4.28287 0
M  V30 7262 C 647.926 -2.32513 6.80683 0
M  V30 7263 C 649.952 -2.3039 5.44678 0
M  V30 7264 C 649.314 -2.19682 6.69268 0
M  V30 7265 H 645.413 -0.614095 0.48416 0
M  V30 7266 H 647.997 -1.07377 1.62414 0
M  V30 7267 H 646.168 -3.58993 1.48252 0
M  V30 7268 H 647.9 -3.66388 1.71878 0
M  V30 7269 H 644.655 -3.03345 3.63701 0
M  V30 7270 H 645.079 -2.64983 6.22987 0
M  V30 7271 H 649.721 -2.60946 3.32666 0
M  V30 7272 H 647.439 -2.24225 7.76369 0
M  V30 7273 H 651.025 -2.19665 5.38738 0
M  V30 7274 H 649.905 -2.01725 7.5781 0
M  V30 7275 N 647.408 -1.11026 -1.11852 0
M  V30 7276 C 648.655 -0.85646 -1.83497 0
M  V30 7277 C 648.983 0.617938 -1.84423 0
M  V30 7278 O 648.238 1.47194 -1.28966 0
M  V30 7279 C 648.537 -1.35777 -3.30604 0
M  V30 7280 C 648.203 -2.84465 -3.49843 0
M  V30 7281 C 646.865 -3.25068 -3.54802 0
M  V30 7282 C 649.217 -3.80251 -3.56453 0
M  V30 7283 C 646.545 -4.60194 -3.63921 0
M  V30 7284 C 648.897 -5.15188 -3.67102 0
M  V30 7285 C 647.561 -5.55356 -3.70319 0
M  V30 7286 H 646.831 -0.313401 -0.671462 0
M  V30 7287 H 649.478 -1.38792 -1.31943 0
M  V30 7288 H 647.783 -0.746455 -3.84624 0
M  V30 7289 H 649.48 -1.13779 -3.8452 0
M  V30 7290 H 646.07 -2.52054 -3.46651 0
M  V30 7291 H 650.254 -3.49986 -3.51886 0
M  V30 7292 H 645.51 -4.90728 -3.64686 0
M  V30 7293 H 649.684 -5.89248 -3.71159 0
M  V30 7294 H 647.311 -6.60054 -3.77138 0
M  V30 7295 N 648.886 1.2938 -0.899927 0
M  V30 7296 C 650.133 1.9555 -0.525963 0
M  V30 7297 C 650.461 1.70945 0.927789 0
M  V30 7298 O 649.716 1.01545 1.67293 0
M  V30 7299 C 650.015 3.49114 -0.765113 0
M  V30 7300 C 649.681 3.93796 -2.19626 0
M  V30 7301 C 648.343 4.05707 -2.58758 0
M  V30 7302 C 650.695 4.16883 -3.12823 0
M  V30 7303 C 648.023 4.38074 -3.90267 0
M  V30 7304 C 650.375 4.50725 -4.4388 0
M  V30 7305 C 649.039 4.60845 -4.82885 0
M  V30 7306 H 648.309 0.715569 -0.192463 0
M  V30 7307 H 650.956 1.53972 -1.13863 0
M  V30 7308 H 649.261 3.91738 -0.069531 0
M  V30 7309 H 650.958 3.98409 -0.455144 0
M  V30 7310 H 647.548 3.85042 -1.88256 0
M  V30 7311 H 651.732 4.07147 -2.83804 0
M  V30 7312 H 646.988 4.44112 -4.20207 0
M  V30 7313 H 651.162 4.67538 -5.16121 0
M  V30 7314 H 648.789 4.85681 -5.84823 0
M  V30 7315 N 650.364 0.662433 1.43002 0
M  V30 7316 C 651.589 0.186003 2.06564 0
M  V30 7317 C 652.014 -1.14314 1.49379 0
M  V30 7318 O 651.372 -1.70824 0.607346 0
M  V30 7319 C 651.42 0.118269 3.60406 0
M  V30 7320 O 650.524 -0.916859 4.02079 0
M  V30 7321 H 649.865 0.0990981 0.656563 0
M  V30 7322 H 652.395 0.907958 1.8335 0
M  V30 7323 H 652.405 -0.0619981 4.07953 0
M  V30 7324 H 651.08 1.08849 4.01403 0
M  V30 7325 H 649.657 -0.708635 3.66105 0
M  V30 7326 N 651.842 -1.52309 0.404946 0
M  V30 7327 C 652.789 -2.26898 -0.422597 0
M  V30 7328 C 653.759 -1.2914 -1.04461 0
M  V30 7329 O 654.944 -1.57996 -1.06967 0
M  V30 7330 C 652.084 -3.09053 -1.53559 0
M  V30 7331 C 651.197 -4.21762 -0.934908 0
M  V30 7332 C 650.332 -4.91283 -2.02025 0
M  V30 7333 C 649.371 -5.95962 -1.39628 0
M  V30 7334 N 648.508 -6.59017 -2.42159 0
M  V30 7335 H 653.348 -2.97188 0.219903 0
M  V30 7336 H 650.885 -1.46607 0.120282 0
M  V30 7337 H 652.843 -3.54987 -2.19181 0
M  V30 7338 H 651.473 -2.40942 -2.14818 0
M  V30 7339 H 650.525 -3.80029 -0.167854 0
M  V30 7340 H 651.837 -4.96864 -0.439073 0
M  V30 7341 H 650.991 -5.40601 -2.75383 0
M  V30 7342 H 649.73 -4.15741 -2.54973 0
M  V30 7343 H 648.735 -5.45968 -0.648023 0
M  V30 7344 H 649.96 -6.73445 -0.874553 0
M  V30 7345 H 647.906 -5.86306 -2.94247 0
M  V30 7346 H 647.823 -7.2978 -1.97376 0
M  V30 7347 H 649.091 -7.12974 -3.15099 0
M  V30 7348 N 653.32 -0.135238 -1.57019 0
M  V30 7349 C 654.736 0.221262 -1.58059 0
M  V30 7350 C 654.936 1.65538 -1.14889 0
M  V30 7351 O 653.992 2.37985 -0.843751 0
M  V30 7352 C 655.305 -0.0268114 -3.00688 0
M  V30 7353 C 656.853 0.0378206 -3.12977 0
M  V30 7354 C 657.328 -0.182769 -4.57635 0
M  V30 7355 N 658.819 -0.129292 -4.6302 0
M  V30 7356 C 659.554 -0.274648 -5.72742 0
M  V30 7357 N 659.05 -0.477075 -6.91155 0
M  V30 7358 N 660.843 -0.213077 -5.61696 0
M  V30 7359 H 652.994 -1.07177 -1.83376 0
M  V30 7360 H 655.257 -0.423338 -0.848227 0
M  V30 7361 H 654.963 -1.01889 -3.36618 0
M  V30 7362 H 654.837 0.697863 -3.70688 0
M  V30 7363 H 657.224 1.02043 -2.76896 0
M  V30 7364 H 657.305 -0.718996 -2.45487 0
M  V30 7365 H 656.949 -1.16243 -4.94419 0
M  V30 7366 H 656.879 0.59423 -5.23237 0
M  V30 7367 H 659.37 0.0229896 -3.77893 0
M  V30 7368 H 659.683 -0.578413 -7.70632 0
M  V30 7369 H 658.028 -0.513252 -6.93102 0
M  V30 7370 H 661.219 -0.0557796 -4.68067 0
M  V30 7371 H 661.392 -0.329796 -6.4716 0
M  V30 7372 N 654.798 1.5699 0.138552 0
M  V30 7373 C 656.045 1.83809 0.849732 0
M  V30 7374 C 656.373 0.717409 1.80786 0
M  V30 7375 O 655.628 -0.292897 1.93496 0
M  V30 7376 C 655.927 3.17007 1.65049 0
M  V30 7377 C 655.593 4.43037 0.838398 0
M  V30 7378 C 654.255 4.77262 0.614385 0
M  V30 7379 C 656.607 5.20495 0.271044 0
M  V30 7380 C 653.935 5.864 -0.187552 0
M  V30 7381 C 656.287 6.30476 -0.517979 0
M  V30 7382 C 654.951 6.63245 -0.75249 0
M  V30 7383 H 654.221 0.672605 0.310939 0
M  V30 7384 H 656.868 1.91166 0.112971 0
M  V30 7385 H 655.173 3.05138 2.4576 0
M  V30 7386 H 656.87 3.34975 2.20437 0
M  V30 7387 H 653.46 4.16211 1.02307 0
M  V30 7388 H 657.644 4.94422 0.431371 0
M  V30 7389 H 652.9 6.10226 -0.378659 0
M  V30 7390 H 657.074 6.89686 -0.964694 0
M  V30 7391 H 654.701 7.47648 -1.37573 0
M  V30 7392 N 656.276 -0.40816 1.52223 0
M  V30 7393 C 657.223 -1.49737 1.75635 0
M  V30 7394 C 658.193 -1.5493 0.598824 0
M  V30 7395 O 659.378 -1.71487 0.83648 0
M  V30 7396 C 656.518 -2.87174 1.91376 0
M  V30 7397 C 655.631 -2.91283 3.19027 0
M  V30 7398 C 654.766 -4.20026 3.25195 0
M  V30 7399 C 653.805 -4.18113 4.47044 0
M  V30 7400 N 652.942 -5.38429 4.50598 0
M  V30 7401 H 657.782 -1.29075 2.68596 0
M  V30 7402 H 655.319 -0.626518 1.33091 0
M  V30 7403 H 657.277 -3.66959 1.98486 0
M  V30 7404 H 655.907 -3.06329 1.01795 0
M  V30 7405 H 654.959 -2.03984 3.21084 0
M  V30 7406 H 656.271 -2.85734 4.08849 0
M  V30 7407 H 655.425 -5.08204 3.31382 0
M  V30 7408 H 654.164 -4.28271 2.33313 0
M  V30 7409 H 653.169 -3.28325 4.41002 0
M  V30 7410 H 654.394 -4.11507 5.40221 0
M  V30 7411 H 652.34 -5.4734 3.616 0
M  V30 7412 H 652.257 -5.34879 5.34266 0
M  V30 7413 H 653.525 -6.28557 4.61016 0
M  V30 7414 N 657.755 -1.42862 -0.66545 0
M  V30 7415 C 658.98 -1.47456 -1.45848 0
M  V30 7416 C 659.405 -0.0900312 -1.87884 0
M  V30 7417 O 658.763 0.913587 -1.56599 0
M  V30 7418 C 658.811 -2.41514 -2.67774 0
M  V30 7419 O 657.915 -1.89296 -3.66389 0
M  V30 7420 H 657.256 -0.499236 -0.437789 0
M  V30 7421 H 659.786 -1.8765 -0.815394 0
M  V30 7422 H 659.796 -2.58409 -3.15735 0
M  V30 7423 H 658.471 -3.42099 -2.36519 0
M  V30 7424 H 657.048 -1.82003 -3.25468 0
M  V30 7425 N 659.233 0.902656 -1.29189 0
M  V30 7426 C 660.196 1.98797 -1.14071 0
M  V30 7427 C 661.196 1.60615 -0.0770549 0
M  V30 7428 O 662.386 1.71165 -0.323753 0
M  V30 7429 C 659.518 3.32688 -0.743739 0
M  V30 7430 H 660.711 2.13637 -2.10473 0
M  V30 7431 H 658.264 1.08678 -1.12334 0
M  V30 7432 H 658.999 3.23549 0.220554 0
M  V30 7433 H 658.784 3.61765 -1.51223 0
M  V30 7434 H 660.274 4.12337 -0.660935 0
M  V30 7435 N 660.711 1.11618 1.11262 0
M  V30 7436 C 661.674 0.779447 2.15539 0
M  V30 7437 C 662.674 -0.202081 1.59525 0
M  V30 7438 O 663.864 0.0226356 1.74185 0
M  V30 7439 C 660.996 0.15674 3.40539 0
M  V30 7440 H 662.189 1.70324 2.4684 0
M  V30 7441 H 659.742 0.918298 1.26479 0
M  V30 7442 H 660.477 -0.777186 3.1485 0
M  V30 7443 H 660.262 0.863308 3.82478 0
M  V30 7444 H 661.752 -0.062661 4.17553 0
M  V30 7445 N 662.189 -1.289 0.906776 0
M  V30 7446 C 663.122 -2.25737 0.334362 0
M  V30 7447 C 664.1 -1.52745 -0.557474 0
M  V30 7448 O 665.284 -1.81673 -0.502697 0
M  V30 7449 C 662.411 -3.34642 -0.522716 0
M  V30 7450 C 661.457 -4.25424 0.302777 0
M  V30 7451 S 662.29 -5.07629 1.70508 0
M  V30 7452 C 663.446 -6.20031 0.855118 0
M  V30 7453 H 663.679 -2.73941 1.15514 0
M  V30 7454 H 661.212 -1.37233 0.707573 0
M  V30 7455 H 663.17 -3.97845 -1.01141 0
M  V30 7456 H 661.831 -2.85119 -1.31781 0
M  V30 7457 H 661.024 -5.02767 -0.352257 0
M  V30 7458 H 660.626 -3.66908 0.724873 0
M  V30 7459 H 662.918 -6.77451 0.0816418 0
M  V30 7460 H 663.861 -6.89767 1.60087 0
M  V30 7461 H 664.269 -5.63035 0.406375 0
M  V30 7462 N 663.667 -0.670007 -1.42649 0
M  V30 7463 C 664.597 -0.00258501 -2.335 0
M  V30 7464 C 665.578 0.794364 -1.50412 0
M  V30 7465 O 666.763 0.75248 -1.79029 0
M  V30 7466 C 663.893 0.952748 -3.33976 0
M  V30 7467 C 662.847 0.264733 -4.2718 0
M  V30 7468 C 662.173 1.33267 -5.17826 0
M  V30 7469 C 663.473 -0.853289 -5.15283 0
M  V30 7470 H 665.167 -0.761326 -2.89559 0
M  V30 7471 H 662.713 -0.367561 -1.3923 0
M  V30 7472 H 664.666 1.4287 -3.96442 0
M  V30 7473 H 663.39 1.74285 -2.7621 0
M  V30 7474 H 662.049 -0.190938 -3.66102 0
M  V30 7475 H 661.697 2.11464 -4.5639 0
M  V30 7476 H 661.397 0.877476 -5.81011 0
M  V30 7477 H 662.921 1.80965 -5.83167 0
M  V30 7478 H 664.335 -0.458763 -5.71462 0
M  V30 7479 H 662.732 -1.23398 -5.87276 0
M  V30 7480 H 663.802 -1.70412 -4.53969 0
M  V30 7481 N 665.145 1.52092 -0.413018 0
M  V30 7482 C 666.108 2.25706 0.398687 0
M  V30 7483 C 667.108 1.28221 0.970368 0
M  V30 7484 O 668.298 1.52131 0.848635 0
M  V30 7485 C 665.43 3.03029 1.5616 0
M  V30 7486 H 666.623 2.98888 -0.246131 0
M  V30 7487 H 664.176 1.5542 -0.165622 0
M  V30 7488 H 664.911 2.34205 2.24317 0
M  V30 7489 H 664.696 3.74606 1.15812 0
M  V30 7490 H 666.186 3.58857 2.13569 0
M  V30 7491 N 666.623 0.143563 1.56945 0
M  V30 7492 C 667.869 -0.50916 1.96304 0
M  V30 7493 C 668.202 -1.64741 1.0283 0
M  V30 7494 O 667.477 -1.94374 0.0700361 0
M  V30 7495 C 667.76 -1.0186 3.45393 0
M  V30 7496 C 667.613 0.117923 4.49645 0
M  V30 7497 C 668.932 -1.90151 3.96901 0
M  V30 7498 H 666.051 -0.183608 0.713763 0
M  V30 7499 H 668.693 0.224095 1.88674 0
M  V30 7500 H 666.843 -1.64345 3.52027 0
M  V30 7501 H 668.515 0.754145 4.55094 0
M  V30 7502 H 666.758 0.777568 4.26774 0
M  V30 7503 H 667.429 -0.280187 5.51288 0
M  V30 7504 H 669.905 -1.375 3.92725 0
M  V30 7505 H 668.781 -2.22707 5.0169 0
M  V30 7506 H 669.042 -2.83718 3.39052 0
M  V30 7507 N 668.101 -1.57061 -0.130224 0
M  V30 7508 C 669.348 -1.84257 -0.839972 0
M  V30 7509 C 669.676 -0.726986 -1.80403 0
M  V30 7510 O 668.931 0.282632 -1.93648 0
M  V30 7511 C 669.23 -3.17878 -1.63365 0
M  V30 7512 C 668.896 -4.43475 -0.814891 0
M  V30 7513 C 667.558 -4.77581 -0.589066 0
M  V30 7514 C 669.91 -5.20631 -0.243437 0
M  V30 7515 C 667.238 -5.86292 0.218648 0
M  V30 7516 C 669.59 -6.30192 0.551408 0
M  V30 7517 C 668.254 -6.62837 0.787653 0
M  V30 7518 H 667.524 -0.674245 -0.307367 0
M  V30 7519 H 670.171 -1.91224 -0.102832 0
M  V30 7520 H 668.476 -3.06437 -2.44138 0
M  V30 7521 H 670.173 -3.3614 -2.18658 0
M  V30 7522 H 666.763 -4.16747 -1.00098 0
M  V30 7523 H 670.947 -4.94644 -0.405145 0
M  V30 7524 H 666.203 -6.10017 0.411016 0
M  V30 7525 H 670.377 -6.89165 1.00126 0
M  V30 7526 H 668.004 -7.46908 1.41537 0
M  V30 7527 N 669.579 0.400081 -1.52437 0
M  V30 7528 C 670.542 1.4707 -1.75793 0
M  V30 7529 C 671.542 1.48036 -0.627856 0
M  V30 7530 O 672.732 1.49401 -0.895817 0
M  V30 7531 C 669.864 2.86427 -1.84858 0
M  V30 7532 H 671.057 1.27649 -2.71377 0
M  V30 7533 H 668.61 0.631141 -1.42991 0
M  V30 7534 H 669.345 3.11207 -0.912194 0
M  V30 7535 H 669.13 2.87128 -2.6702 0
M  V30 7536 H 670.62 3.64023 -2.04638 0
M  V30 7537 N 671.057 1.43213 0.657864 0
M  V30 7538 C 672.303 1.44798 1.41991 0
M  V30 7539 C 672.636 0.070256 1.94073 0
M  V30 7540 O 671.911 -0.908177 1.71995 0
M  V30 7541 C 672.194 2.4865 2.60471 0
M  V30 7542 C 672.047 3.95679 2.13911 0
M  V30 7543 C 673.366 2.49292 3.62686 0
M  V30 7544 H 670.485 0.527244 0.514959 0
M  V30 7545 H 673.127 1.74733 0.74621 0
M  V30 7546 H 671.277 2.23254 3.17946 0
M  V30 7547 H 672.949 4.32116 1.61472 0
M  V30 7548 H 671.192 4.08733 1.45325 0
M  V30 7549 H 671.863 4.6395 2.99089 0
M  V30 7550 H 674.339 2.71917 3.14961 0
M  V30 7551 H 673.215 3.23907 4.43143 0
M  V30 7552 H 673.476 1.52502 4.14964 0
M  V30 7553 N 672.536 -0.895792 1.29666 0
M  V30 7554 C 673.761 -1.68528 1.20885 0
M  V30 7555 C 674.186 -1.8673 -0.226595 0
M  V30 7556 O 673.544 -1.39044 -1.16347 0
M  V30 7557 C 673.592 -3.04512 1.93144 0
M  V30 7558 O 672.696 -3.92963 1.25115 0
M  V30 7559 H 672.037 -0.515371 0.418675 0
M  V30 7560 H 674.567 -1.11878 1.71302 0
M  V30 7561 H 674.577 -3.54628 2.0175 0
M  V30 7562 H 673.252 -2.90582 2.97548 0
M  V30 7563 H 671.829 -3.51399 1.24794 0
M  V30 7564 N 674.014 -1.12206 -1.10668 0
M  V30 7565 C 674.977 -0.790867 -2.15123 0
M  V30 7566 C 675.977 0.193618 -1.5963 0
M  V30 7567 O 677.167 -0.0318728 -1.74171 0
M  V30 7568 C 674.299 -0.174797 -3.40452 0
M  V30 7569 H 675.492 -1.7163 -2.45933 0
M  V30 7570 H 673.045 -0.924993 -1.2599 0
M  V30 7571 H 673.78 0.760478 -3.15257 0
M  V30 7572 H 673.565 -0.88358 -3.82015 0
M  V30 7573 H 675.055 0.0405162 -4.1758 0
M  V30 7574 N 675.492 1.28418 -0.913599 0
M  V30 7575 C 676.738 1.9527 -0.547484 0
M  V30 7576 C 677.071 1.71745 0.906486 0
M  V30 7577 O 676.346 1.03834 1.64465 0
M  V30 7578 C 676.629 3.49748 -0.857205 0
M  V30 7579 C 676.482 3.82675 -2.3639 0
M  V30 7580 C 677.801 4.3868 -0.353258 0
M  V30 7581 H 674.92 0.709236 -0.200381 0
M  V30 7582 H 677.562 1.51789 -1.14281 0
M  V30 7583 H 675.712 3.86915 -0.350548 0
M  V30 7584 H 677.384 3.55378 -2.94116 0
M  V30 7585 H 675.627 3.29724 -2.81894 0
M  V30 7586 H 676.298 4.90547 -2.53115 0
M  V30 7587 H 678.774 4.08584 -0.787288 0
M  V30 7588 H 677.65 5.45621 -0.599049 0
M  V30 7589 H 677.911 4.35753 0.746413 0
M  V30 7590 N 676.97 0.677563 1.42291 0
M  V30 7591 C 678.216 0.201272 2.01799 0
M  V30 7592 C 678.549 -1.19004 1.53465 0
M  V30 7593 O 677.824 -1.79953 0.738039 0
M  V30 7594 C 678.107 0.238968 3.59306 0
M  V30 7595 C 677.96 1.66594 4.17812 0
M  V30 7596 C 679.279 -0.411287 4.38174 0
M  V30 7597 H 676.398 0.0746114 0.733214 0
M  V30 7598 H 679.04 0.862872 1.69276 0
M  V30 7599 H 677.19 -0.324368 3.87144 0
M  V30 7600 H 678.862 2.28173 4.00917 0
M  V30 7601 H 677.105 2.20576 3.73536 0
M  V30 7602 H 677.776 1.64398 5.26951 0
M  V30 7603 H 680.252 0.0682804 4.16044 0
M  V30 7604 H 679.128 -0.354286 5.47755 0
M  V30 7605 H 679.389 -1.4893 4.1626 0
M  V30 7606 N 678.448 -1.51871 0.421078 0
M  V30 7607 C 679.398 -2.24171 -0.416111 0
M  V30 7608 C 680.382 -1.25763 -1.00362 0
M  V30 7609 O 681.574 -1.5094 -0.924452 0
M  V30 7610 C 678.703 -3.07533 -1.52571 0
M  V30 7611 C 677.789 -4.1336 -0.948399 0
M  V30 7612 N 678.18 -5.05704 -0.0987933 0
M  V30 7613 C 676.478 -4.29055 -1.21768 0
M  V30 7614 C 677.179 -5.8127 0.223705 0
M  V30 7615 N 676.155 -5.4221 -0.388524 0
M  V30 7616 H 679.957 -2.92925 0.239166 0
M  V30 7617 H 677.471 -1.60732 0.232191 0
M  V30 7618 H 679.468 -3.57893 -2.13819 0
M  V30 7619 H 678.128 -2.4032 -2.18349 0
M  V30 7620 H 679.139 -5.17214 0.266428 0
M  V30 7621 H 675.816 -3.73071 -1.87416 0
M  V30 7622 H 677.206 -6.65653 0.914076 0
M  V30 7623 N 679.926 -0.151884 -1.56866 0
M  V30 7624 C 680.836 0.798876 -2.20579 0
M  V30 7625 C 681.852 1.268 -1.19154 0
M  V30 7626 O 683.028 1.32418 -1.51748 0
M  V30 7627 C 680.093 2.01861 -2.81874 0
M  V30 7628 C 679.154 1.59825 -3.9844 0
M  V30 7629 C 678.387 2.75984 -4.56802 0
M  V30 7630 O 678.61 3.92331 -4.14044 0
M  V30 7631 O 677.544 2.51175 -5.46987 0
M  V30 7632 H 681.37 0.2865 -3.02346 0
M  V30 7633 H 678.955 0.0753806 -1.4921 0
M  V30 7634 H 680.837 2.73235 -3.20813 0
M  V30 7635 H 679.512 2.52042 -2.03117 0
M  V30 7636 H 678.419 0.854601 -3.64208 0
M  V30 7637 H 679.752 1.14355 -4.78731 0
M  V30 7638 N 681.404 1.57128 0.121893 0
M  V30 7639 C 682.634 1.88609 0.843227 0
M  V30 7640 C 683.042 0.740917 1.74089 0
M  V30 7641 O 682.385 -0.297426 1.81276 0
M  V30 7642 C 682.447 3.15073 1.73117 0
M  V30 7643 C 682.111 4.45742 1.0081 0
M  V30 7644 C 683.108 5.18719 0.350255 0
M  V30 7645 C 680.793 4.92444 0.99014 0
M  V30 7646 C 682.787 6.36617 -0.315889 0
M  V30 7647 C 680.474 6.10261 0.320196 0
M  V30 7648 C 681.472 6.82194 -0.331666 0
M  V30 7649 O 681.16 7.97769 -0.990927 0
M  V30 7650 H 680.892 0.628919 0.247865 0
M  V30 7651 H 683.446 2.05096 0.111725 0
M  V30 7652 H 681.676 2.9466 2.50424 0
M  V30 7653 H 683.365 3.32597 2.32667 0
M  V30 7654 H 684.131 4.83693 0.35577 0
M  V30 7655 H 680.01 4.36361 1.48695 0
M  V30 7656 H 683.554 6.92701 -0.825272 0
M  V30 7657 H 679.451 6.44743 0.312433 0
M  V30 7658 H 680.219 8.13591 -0.895113 0
M  V30 7659 N 682.882 -0.391992 1.52647 0
M  V30 7660 C 683.845 -1.46135 1.7657 0
M  V30 7661 C 684.845 -1.47701 0.635698 0
M  V30 7662 O 686.035 -1.48924 0.903728 0
M  V30 7663 C 683.167 -2.85443 1.86374 0
M  V30 7664 H 684.36 -1.26208 2.72051 0
M  V30 7665 H 681.913 -0.623549 1.43323 0
M  V30 7666 H 682.648 -3.10718 0.928685 0
M  V30 7667 H 682.433 -2.85708 2.68539 0
M  V30 7668 H 683.923 -3.62933 2.06566 0
M  V30 7669 N 684.36 -1.4356 -0.65026 0
M  V30 7670 C 685.29 -1.51758 -1.77459 0
M  V30 7671 C 686.271 -0.372019 -1.65982 0
M  V30 7672 O 687.456 -0.589627 -1.85033 0
M  V30 7673 C 684.586 -1.44302 -3.15902 0
M  V30 7674 C 683.54 -2.57138 -3.42146 0
M  V30 7675 C 682.866 -2.34735 -4.8042 0
M  V30 7676 C 684.166 -3.99373 -3.36598 0
M  V30 7677 H 685.86 -2.45863 -1.70855 0
M  V30 7678 H 683.406 -1.18333 -0.820566 0
M  V30 7679 H 685.359 -1.48641 -3.94314 0
M  V30 7680 H 684.083 -0.467026 -3.23244 0
M  V30 7681 H 682.742 -2.52157 -2.66106 0
M  V30 7682 H 682.39 -1.35372 -4.84441 0
M  V30 7683 H 682.09 -3.10375 -4.9894 0
M  V30 7684 H 683.614 -2.40862 -5.61086 0
M  V30 7685 H 685.028 -4.05826 -4.04942 0
M  V30 7686 H 683.425 -4.75063 -3.66654 0
M  V30 7687 H 684.495 -4.243 -2.34729 0
M  V30 7688 N 685.838 0.888903 -1.30139 0
M  V30 7689 C 686.801 1.97576 -1.16174 0
M  V30 7690 C 687.801 1.60525 -0.094086 0
M  V30 7691 O 688.991 1.70812 -0.341889 0
M  V30 7692 C 686.123 3.3188 -0.778983 0
M  V30 7693 H 687.316 2.11393 -2.12728 0
M  V30 7694 H 684.869 1.0748 -1.1348 0
M  V30 7695 H 685.604 3.23765 0.186225 0
M  V30 7696 H 685.389 3.60141 -1.55051 0
M  V30 7697 H 686.879 4.11612 -0.704631 0
M  V30 7698 N 687.317 1.12792 1.10072 0
M  V30 7699 C 688.563 0.886857 1.82381 0
M  V30 7700 C 688.896 -0.58576 1.85155 0
M  V30 7701 O 688.171 -1.43317 1.31493 0
M  V30 7702 C 688.454 1.46703 3.28862 0
M  V30 7703 C 688.307 3.00829 3.34398 0
M  V30 7704 C 689.626 1.12971 4.25353 0
M  V30 7705 H 686.745 0.32362 0.662148 0
M  V30 7706 H 689.387 1.39513 1.28982 0
M  V30 7707 H 687.537 1.03476 3.74466 0
M  V30 7708 H 689.209 3.52764 2.97247 0
M  V30 7709 H 687.452 3.36164 2.74183 0
M  V30 7710 H 688.123 3.36519 4.3756 0
M  V30 7711 H 690.599 1.50313 3.88001 0
M  V30 7712 H 689.475 1.56223 5.26199 0
M  V30 7713 H 689.736 0.0424452 4.4208 0
M  V30 7714 N 688.795 -1.27931 0.920396 0
M  V30 7715 C 690.035 -1.96459 0.564198 0
M  V30 7716 C 690.399 -1.70802 -0.876967 0
M  V30 7717 O 691.6 -2.32956 -1.34107 0
M  V30 7718 C 689.871 -3.46583 0.872641 0
M  V30 7719 S 691.43 -4.34343 0.623859 0
M  V30 7720 H 688.248 -0.679735 0.208523 0
M  V30 7721 H 690.85 -1.55319 1.18727 0
M  V30 7722 H 689.554 -3.62753 1.91933 0
M  V30 7723 H 689.085 -3.92677 0.238479 0
M  V30 7724 H 691.1 -4.93449 -0.521744 0
M  V30 7725 N 690.273 -0.685099 -1.4193 0
M  V30 7726 C 691.203 -0.0273506 -2.33484 0
M  V30 7727 C 692.184 0.778366 -1.51246 0
M  V30 7728 O 693.369 0.733449 -1.79817 0
M  V30 7729 C 690.499 0.917272 -3.34968 0
M  V30 7730 C 689.453 0.21941 -4.27437 0
M  V30 7731 C 688.779 1.27768 -5.1921 0
M  V30 7732 C 690.079 -0.907894 -5.14349 0
M  V30 7733 H 691.773 -0.791994 -2.88735 0
M  V30 7734 H 689.319 -0.382308 -1.38832 0
M  V30 7735 H 691.272 1.38657 -3.97935 0
M  V30 7736 H 689.996 1.71346 -2.78043 0
M  V30 7737 H 688.655 -0.229757 -3.65879 0
M  V30 7738 H 688.303 2.06612 -4.58607 0
M  V30 7739 H 688.003 0.815803 -5.81909 0
M  V30 7740 H 689.527 1.7477 -5.85054 0
M  V30 7741 H 690.941 -0.519348 -5.70943 0
M  V30 7742 H 689.338 -1.2962 -5.85934 0
M  V30 7743 H 690.408 -1.75218 -4.52136 0
M  V30 7744 N 691.751 1.51645 -0.429126 0
M  V30 7745 C 692.976 2.06917 0.141399 0
M  V30 7746 C 693.401 1.29527 1.36398 0
M  V30 7747 O 692.759 0.33094 1.78254 0
M  V30 7748 C 692.807 3.57776 0.4504 0
M  V30 7749 O 691.911 3.82639 1.53821 0
M  V30 7750 H 691.252 0.663978 0.0054647 0
M  V30 7751 H 693.782 1.95355 -0.608093 0
M  V30 7752 H 693.792 4.01894 0.703249 0
M  V30 7753 H 692.467 4.13532 -0.443213 0
M  V30 7754 H 691.044 3.5039 1.27597 0
M  V30 7755 N 693.229 0.160201 1.56784 0
M  V30 7756 C 694.476 -0.487588 1.96542 0
M  V30 7757 C 694.804 -1.63999 1.04569 0
M  V30 7758 O 694.059 -1.95546 0.0775211 0
M  V30 7759 C 694.358 -1.02259 3.42459 0
M  V30 7760 C 694.024 0.0127436 4.50898 0
M  V30 7761 C 692.686 0.297318 4.80281 0
M  V30 7762 C 695.038 0.716078 5.16257 0
M  V30 7763 C 692.366 1.29081 5.72324 0
M  V30 7764 C 694.718 1.69847 6.09372 0
M  V30 7765 C 693.382 1.99061 6.37127 0
M  V30 7766 H 692.652 -0.178421 0.719199 0
M  V30 7767 H 695.299 0.249818 1.89864 0
M  V30 7768 H 693.604 -1.8376 3.46034 0
M  V30 7769 H 695.301 -1.53261 3.70556 0
M  V30 7770 H 691.891 -0.219235 4.28039 0
M  V30 7771 H 696.075 0.509428 4.93679 0
M  V30 7772 H 691.331 1.52344 5.92116 0
M  V30 7773 H 695.505 2.2489 6.59088 0
M  V30 7774 H 693.132 2.76194 7.08252 0
M  V30 7775 N 694.707 -1.5719 -0.113559 0
M  V30 7776 C 695.954 -1.85138 -0.820382 0
M  V30 7777 C 696.282 -0.74608 -1.79622 0
M  V30 7778 O 695.537 0.262077 -1.93937 0
M  V30 7779 C 695.836 -3.19593 -1.59984 0
M  V30 7780 C 695.502 -4.44315 -0.767809 0
M  V30 7781 C 694.164 -4.78179 -0.538379 0
M  V30 7782 C 696.516 -5.2086 -0.188203 0
M  V30 7783 C 693.844 -5.86028 0.28082 0
M  V30 7784 C 696.196 -6.29572 0.618217 0
M  V30 7785 C 694.86 -6.61964 0.857912 0
M  V30 7786 H 694.13 -0.677467 -0.300199 0
M  V30 7787 H 696.777 -1.91322 -0.0825443 0
M  V30 7788 H 695.082 -3.0901 -2.40874 0
M  V30 7789 H 696.779 -3.3844 -2.1508 0
M  V30 7790 H 693.369 -4.17786 -0.956724 0
M  V30 7791 H 697.553 -4.95045 -0.352658 0
M  V30 7792 H 692.809 -6.09547 0.475693 0
M  V30 7793 H 696.983 -6.88064 1.0743 0
M  V30 7794 H 694.61 -7.45365 1.49451 0
M  V30 7795 N 696.185 0.383891 -1.52853 0
M  V30 7796 C 697.415 1.14783 -1.7178 0
M  V30 7797 C 697.823 1.84055 -0.438211 0
M  V30 7798 O 697.166 1.73713 0.597465 0
M  V30 7799 C 697.228 2.23543 -2.81547 0
M  V30 7800 C 696.892 1.74195 -4.22499 0
M  V30 7801 C 697.889 1.21591 -5.05481 0
M  V30 7802 C 695.574 1.80262 -4.6884 0
M  V30 7803 C 697.568 0.757104 -6.32888 0
M  V30 7804 C 695.255 1.33993 -5.96229 0
M  V30 7805 C 696.253 0.818049 -6.78083 0
M  V30 7806 O 695.941 0.362123 -8.03084 0
M  V30 7807 H 695.673 0.349908 -0.578395 0
M  V30 7808 H 698.227 0.454377 -2.00311 0
M  V30 7809 H 696.457 2.96328 -2.48449 0
M  V30 7810 H 698.146 2.8519 -2.88828 0
M  V30 7811 H 698.912 1.16257 -4.7086 0
M  V30 7812 H 694.791 2.19825 -4.05213 0
M  V30 7813 H 698.335 0.34908 -6.96726 0
M  V30 7814 H 694.232 1.39015 -6.30353 0
M  V30 7815 H 695 0.483134 -8.17073 0
M  V30 7816 N 697.663 1.43903 0.642637 0
M  V30 7817 C 699.074 1.40975 1.22404 0
M  V30 7818 C 699.425 0.1192 1.95838 0
M  V30 7819 O 698.55 -0.780939 2.01818 0
M  V30 7820 C 699.145 2.5538 2.22636 0
M  V30 7821 C 697.704 2.55684 2.76229 0
M  V30 7822 C 696.851 2.32556 1.51039 0
M  V30 7823 H 699.802 1.5265 0.434006 0
M  V30 7824 H 699.823 2.27474 3.05017 0
M  V30 7825 H 699.335 3.49294 1.69161 0
M  V30 7826 H 697.436 1.65679 3.33738 0
M  V30 7827 H 697.549 3.53799 3.23053 0
M  V30 7828 H 695.913 1.81427 1.78764 0
M  V30 7829 H 696.696 3.28569 0.99484 0
M  V30 7830 N 699.141 -0.881989 1.30609 0
M  V30 7831 C 700.387 -1.63647 1.19781 0
M  V30 7832 C 700.72 -1.92632 -0.246265 0
M  V30 7833 O 699.995 -1.54938 -1.17577 0
M  V30 7834 C 700.278 -2.97437 2.02985 0
M  V30 7835 C 700.131 -2.75406 3.55628 0
M  V30 7836 C 701.45 -3.98397 1.86997 0
M  V30 7837 H 698.569 -0.593841 0.436488 0
M  V30 7838 H 701.211 -1.02041 1.60273 0
M  V30 7839 H 699.361 -3.50018 1.68581 0
M  V30 7840 H 701.033 -2.2959 4.00107 0
M  V30 7841 H 699.276 -2.09856 3.79662 0
M  V30 7842 H 699.947 -3.70552 4.09139 0
M  V30 7843 H 702.423 -3.54986 2.17081 0
M  V30 7844 H 701.299 -4.89916 2.47536 0
M  V30 7845 H 701.56 -4.3424 0.829943 0
M  V30 7846 N 700.619 -1.13374 -1.09472 0
M  V30 7847 C 701.549 -0.833268 -2.18126 0
M  V30 7848 C 702.53 0.207169 -1.68834 0
M  V30 7849 O 703.715 0.0662012 -1.94087 0
M  V30 7850 C 700.845 -0.297979 -3.46019 0
M  V30 7851 C 699.799 -1.27261 -4.08642 0
M  V30 7852 C 699.125 -0.597104 -5.31356 0
M  V30 7853 C 700.425 -2.63095 -4.51197 0
M  V30 7854 H 702.119 -1.74182 -2.43518 0
M  V30 7855 H 699.665 -0.838921 -1.17039 0
M  V30 7856 H 701.618 -0.0754444 -4.21332 0
M  V30 7857 H 700.342 0.645959 -3.20148 0
M  V30 7858 H 699.001 -1.48113 -3.35348 0
M  V30 7859 H 698.649 0.352293 -5.01765 0
M  V30 7860 H 698.349 -1.24734 -5.74208 0
M  V30 7861 H 699.873 -0.38384 -6.09392 0
M  V30 7862 H 701.287 -2.46214 -5.17737 0
M  V30 7863 H 699.684 -3.2429 -5.04932 0
M  V30 7864 H 700.754 -3.20793 -3.6362 0
M  V30 7865 N 702.098 1.27442 -0.927168 0
M  V30 7866 C 703.345 1.94391 -0.567324 0
M  V30 7867 C 703.673 1.72875 0.891321 0
M  V30 7868 O 702.928 1.05071 1.65102 0
M  V30 7869 C 703.227 3.47413 -0.838994 0
M  V30 7870 C 702.893 3.89049 -2.2793 0
M  V30 7871 C 701.555 4.00127 -2.67305 0
M  V30 7872 C 703.907 4.10154 -3.21595 0
M  V30 7873 C 701.235 4.29697 -3.99471 0
M  V30 7874 C 703.587 4.41208 -4.53341 0
M  V30 7875 C 702.251 4.50499 -4.92551 0
M  V30 7876 H 701.521 0.711325 -0.207598 0
M  V30 7877 H 704.168 1.51523 -1.17103 0
M  V30 7878 H 702.473 3.91503 -0.152609 0
M  V30 7879 H 704.17 3.97354 -0.53955 0
M  V30 7880 H 700.76 3.80962 -1.96381 0
M  V30 7881 H 704.944 4.01036 -2.92377 0
M  V30 7882 H 700.2 4.35099 -4.29533 0
M  V30 7883 H 704.374 4.56486 -5.25922 0
M  V30 7884 H 702.001 4.73167 -5.94994 0
M  V30 7885 N 703.576 0.692616 1.41565 0
M  V30 7886 C 704.822 0.222664 2.01574 0
M  V30 7887 C 705.155 -1.1737 1.54719 0
M  V30 7888 O 704.43 -1.79161 0.757084 0
M  V30 7889 C 704.713 0.277064 3.59033 0
M  V30 7890 C 704.566 1.71016 4.16021 0
M  V30 7891 C 705.885 -0.36479 4.38586 0
M  V30 7892 H 703.004 0.0823839 0.732381 0
M  V30 7893 H 705.646 0.880778 1.68352 0
M  V30 7894 H 703.796 -0.283288 3.87466 0
M  V30 7895 H 705.468 2.32413 3.98475 0
M  V30 7896 H 703.711 2.24525 3.71175 0
M  V30 7897 H 704.382 1.69978 5.25178 0
M  V30 7898 H 706.858 0.112404 4.15948 0
M  V30 7899 H 705.734 -0.296169 5.481 0
M  V30 7900 H 705.995 -1.44506 4.17816 0
M  V30 7901 N 705.054 -1.51416 0.437162 0
M  V30 7902 C 705.984 -2.30631 -0.364922 0
M  V30 7903 C 706.965 -1.36037 -1.02118 0
M  V30 7904 O 708.15 -1.64956 -1.02485 0
M  V30 7905 C 705.28 -3.1482 -1.46648 0
M  V30 7906 C 704.234 -4.17691 -0.933717 0
M  V30 7907 C 703.56 -4.904 -2.13101 0
M  V30 7908 C 704.86 -5.2229 0.0317201 0
M  V30 7909 H 706.554 -2.97932 0.29614 0
M  V30 7910 H 704.1 -1.4328 0.143865 0
M  V30 7911 H 706.053 -3.69017 -2.03481 0
M  V30 7912 H 704.777 -2.4534 -2.15583 0
M  V30 7913 H 703.436 -3.64545 -0.387602 0
M  V30 7914 H 703.084 -4.17423 -2.80654 0
M  V30 7915 H 702.784 -5.59962 -1.78092 0
M  V30 7916 H 704.308 -5.4742 -2.70487 0
M  V30 7917 H 705.722 -5.7156 -0.446302 0
M  V30 7918 H 704.119 -5.99378 0.29437 0
M  V30 7919 H 705.189 -4.75131 0.968447 0
M  V30 7920 N 706.532 -0.168513 -1.56696 0
M  V30 7921 C 707.779 0.477158 -1.96798 0
M  V30 7922 C 708.107 1.63442 -1.05437 0
M  V30 7923 O 707.362 1.95503 -0.0878903 0
M  V30 7924 C 707.661 1.00441 -3.42996 0
M  V30 7925 C 707.327 -0.0366556 -4.50885 0
M  V30 7926 C 705.989 -0.322785 -4.80116 0
M  V30 7927 C 708.341 -0.743447 -5.1587 0
M  V30 7928 C 705.669 -1.32114 -5.71632 0
M  V30 7929 C 708.021 -1.73077 -6.08463 0
M  V30 7930 C 706.685 -2.02437 -6.36062 0
M  V30 7931 H 705.955 0.174604 -0.720135 0
M  V30 7932 H 708.602 -0.259884 -1.89728 0
M  V30 7933 H 706.907 1.81922 -3.47004 0
M  V30 7934 H 708.604 1.51294 -3.71364 0
M  V30 7935 H 705.194 0.196532 -4.28149 0
M  V30 7936 H 709.378 -0.535602 -4.93401 0
M  V30 7937 H 704.634 -1.55482 -5.913 0
M  V30 7938 H 708.808 -2.28382 -6.57886 0
M  V30 7939 H 706.435 -2.79946 -7.06777 0
M  V30 7940 N 708.01 1.57248 0.105221 0
M  V30 7941 C 708.943 1.96567 1.15916 0
M  V30 7942 C 709.921 0.837355 1.39381 0
M  V30 7943 O 711.105 1.09676 1.53308 0
M  V30 7944 C 708.232 2.27375 2.51035 0
M  V30 7945 C 707.278 3.49869 2.43913 0
M  V30 7946 S 708.111 5.01958 1.86543 0
M  V30 7947 C 709.267 5.35932 3.23307 0
M  V30 7948 H 709.5 2.85655 0.823931 0
M  V30 7949 H 707.033 1.51204 0.312515 0
M  V30 7950 H 708.991 2.45801 3.28774 0
M  V30 7951 H 707.652 1.38876 2.81731 0
M  V30 7952 H 706.845 3.68835 3.43477 0
M  V30 7953 H 706.447 3.30901 1.743 0
M  V30 7954 H 708.739 5.31958 4.19556 0
M  V30 7955 H 709.682 6.37047 3.09155 0
M  V30 7956 H 710.09 4.63397 3.22372 0
M  V30 7957 N 709.488 -0.375779 1.53054 0
M  V30 7958 C 710.735 -1.11948 1.68742 0
M  V30 7959 C 711.063 -1.89596 0.434015 0
M  V30 7960 O 710.318 -1.86787 -0.583867 0
M  V30 7961 C 710.617 -2.11356 2.88207 0
M  V30 7962 C 710.283 -1.50266 4.25124 0
M  V30 7963 C 708.945 -1.33333 4.62359 0
M  V30 7964 C 711.297 -1.05976 5.10312 0
M  V30 7965 C 708.625 -0.706765 5.82427 0
M  V30 7966 C 710.977 -0.447241 6.31017 0
M  V30 7967 C 709.641 -0.265314 6.66973 0
M  V30 7968 H 708.911 -0.409648 0.61747 0
M  V30 7969 H 711.558 -0.402492 1.87222 0
M  V30 7970 H 709.863 -2.89322 2.64197 0
M  V30 7971 H 711.56 -2.68833 2.97539 0
M  V30 7972 H 708.15 -1.64437 3.95801 0
M  V30 7973 H 712.334 -1.17855 4.82104 0
M  V30 7974 H 707.59 -0.554132 6.08884 0
M  V30 7975 H 711.764 -0.0958064 6.96334 0
M  V30 7976 H 709.391 0.222267 7.59875 0
M  V30 7977 N 710.966 -1.44241 -0.634997 0
M  V30 7978 C 712.213 -1.46821 -1.39463 0
M  V30 7979 C 712.541 -0.0993362 -1.94246 0
M  V30 7980 O 711.796 0.898325 -1.73864 0
M  V30 7981 C 712.095 -2.47279 -2.58046 0
M  V30 7982 C 711.761 -3.92703 -2.21574 0
M  V30 7983 C 710.423 -4.32306 -2.1134 0
M  V30 7984 C 712.775 -4.84271 -1.92695 0
M  V30 7985 C 710.103 -5.61407 -1.70409 0
M  V30 7986 C 712.455 -6.13755 -1.53258 0
M  V30 7987 C 711.119 -6.52316 -1.41562 0
M  V30 7988 H 710.389 -0.537256 -0.51033 0
M  V30 7989 H 713.036 -1.77431 -0.720441 0
M  V30 7990 H 711.341 -2.10138 -3.3068 0
M  V30 7991 H 713.038 -2.46523 -3.16271 0
M  V30 7992 H 709.628 -3.61369 -2.30456 0
M  V30 7993 H 713.812 -4.54432 -1.99513 0
M  V30 7994 H 709.068 -5.90105 -1.59955 0
M  V30 7995 H 713.242 -6.84168 -1.29949 0
M  V30 7996 H 710.869 -7.52255 -1.09619 0
M  V30 7997 N 712.444 0.87505 -1.31075 0
M  V30 7998 C 713.692 1.62447 -1.20231 0
M  V30 7999 C 714.013 1.93506 0.240888 0
M  V30 8000 O 713.283 1.57847 1.16022 0
M  V30 8001 H 711.863 0.602207 -0.441991 0
M  V30 8002 H 714.525 1.04788 -1.64334 0
M  V30 8003 H 713.621 2.57031 -1.77036 0
M  V30 8004 N 713.922 1.13953 1.08869 0
M  V30 8005 C 714.855 0.765765 2.14968 0
M  V30 8006 C 715.833 -0.250689 1.60656 0
M  V30 8007 O 717.017 -0.140852 1.87973 0
M  V30 8008 C 714.144 0.136146 3.38426 0
M  V30 8009 C 713.19 1.12201 4.11477 0
M  V30 8010 S 714.023 2.65711 4.64928 0
M  V30 8011 C 715.179 2.04125 5.91679 0
M  V30 8012 H 715.412 1.66444 2.46341 0
M  V30 8013 H 712.945 0.960263 1.20906 0
M  V30 8014 H 714.903 -0.220712 4.09906 0
M  V30 8015 H 713.564 -0.739887 3.05261 0
M  V30 8016 H 712.757 0.629398 5.00055 0
M  V30 8017 H 712.359 1.42262 3.45886 0
M  V30 8018 H 714.651 1.39381 6.63008 0
M  V30 8019 H 715.594 2.90808 6.45629 0
M  V30 8020 H 716.002 1.4905 5.44467 0
M  V30 8021 N 715.4 -1.26948 0.933913 0
M  V30 8022 C 716.363 -2.24889 0.442457 0
M  V30 8023 C 717.363 -1.54594 -0.442426 0
M  V30 8024 O 718.553 -1.72502 -0.242629 0
M  V30 8025 C 715.685 -3.3896 -0.363173 0
M  V30 8026 H 716.878 -2.69879 1.30787 0
M  V30 8027 H 714.431 -1.38978 0.715187 0
M  V30 8028 H 715.166 -2.99361 -1.24714 0
M  V30 8029 H 714.951 -3.9116 0.271366 0
M  V30 8030 H 716.441 -4.11739 -0.697186 0
M  V30 8031 N 716.879 -0.700114 -1.41195 0
M  V30 8032 C 718.126 -0.233006 -2.01155 0
M  V30 8033 C 718.454 1.16883 -1.55462 0
M  V30 8034 O 717.709 1.80395 -0.758695 0
M  V30 8035 C 718.008 -0.243986 -3.56566 0
M  V30 8036 C 717.674 -1.59397 -4.21786 0
M  V30 8037 C 716.336 -1.96355 -4.39316 0
M  V30 8038 C 718.688 -2.48192 -4.58312 0
M  V30 8039 C 716.016 -3.21683 -4.9065 0
M  V30 8040 C 718.368 -3.72857 -5.11039 0
M  V30 8041 C 717.032 -4.09951 -5.26779 0
M  V30 8042 H 716.302 -0.085263 -0.736078 0
M  V30 8043 H 718.949 -0.9001 -1.69028 0
M  V30 8044 H 717.254 0.506663 -3.8851 0
M  V30 8045 H 718.951 0.135031 -4.00773 0
M  V30 8046 H 715.541 -1.29654 -4.08519 0
M  V30 8047 H 719.725 -2.20918 -4.4442 0
M  V30 8048 H 714.981 -3.50412 -5.01021 0
M  V30 8049 H 719.155 -4.41844 -5.38282 0
M  V30 8050 H 716.782 -5.07136 -5.66319 0
M  V30 8051 N 718.357 1.51182 -0.445186 0
M  V30 8052 C 719.305 2.29531 0.376597 0
M  V30 8053 C 720.299 1.35711 1.01385 0
M  V30 8054 O 721.505 1.53018 0.947922 0
M  V30 8055 H 717.88 0.738803 0.140267 0
M  V30 8056 H 719.851 2.96838 -0.304958 0
M  V30 8057 C 718.6 3.1552 1.4609 0
M  V30 8058 H 717.923 3.87605 0.979912 0
M  V30 8059 H 719.363 3.73384 2.009 0
M  V30 8060 C 717.822 2.31406 2.44852 0
M  V30 8061 O 718.352 1.97912 3.49562 0
M  V30 8062 N 716.558 1.94478 2.15932 0
M  V30 8063 H 716.105 2.21917 1.30808 0
M  V30 8064 H 716.063 1.38498 2.82251 0
M  V30 8065 N 719.835 0.176821 1.56605 0
M  V30 8066 C 721.082 -0.466715 1.97048 0
M  V30 8067 C 721.41 -1.6288 1.06302 0
M  V30 8068 O 720.665 -1.95453 0.0982571 0
M  V30 8069 C 720.964 -0.986208 3.43524 0
M  V30 8070 C 720.63 0.0605667 4.50859 0
M  V30 8071 C 719.292 0.348242 4.79938 0
M  V30 8072 C 721.644 0.770794 5.15469 0
M  V30 8073 C 718.972 1.35144 5.70923 0
M  V30 8074 C 721.324 1.76301 6.07537 0
M  V30 8075 C 719.988 2.05808 6.3498 0
M  V30 8076 H 719.258 -0.170783 0.721051 0
M  V30 8077 H 721.905 0.269942 1.89588 0
M  V30 8078 H 720.21 -1.80079 3.47964 0
M  V30 8079 H 721.907 -1.49323 3.72161 0
M  V30 8080 H 718.497 -0.173823 4.28247 0
M  V30 8081 H 722.681 0.56176 4.9311 0
M  V30 8082 H 717.937 1.58616 5.90467 0
M  V30 8083 H 722.111 2.31868 6.56666 0
M  V30 8084 H 719.738 2.8369 7.05283 0
M  V30 8085 N 721.313 -1.57302 -0.09688 0
M  V30 8086 C 722.562 -1.85183 -0.799388 0
M  V30 8087 C 722.875 -0.765818 -1.79985 0
M  V30 8088 O 724.081 -0.931696 -2.55013 0
M  V30 8089 C 722.537 -3.28399 -1.47249 0
M  V30 8090 C 722.145 -4.45066 -0.511888 0
M  V30 8091 C 723.889 -3.65506 -2.15883 0
M  V30 8092 C 721.796 -5.79315 -1.18948 0
M  V30 8093 H 720.726 -0.690752 -0.302287 0
M  V30 8094 H 723.377 -1.83425 -0.0523104 0
M  V30 8095 H 721.759 -3.24692 -2.26697 0
M  V30 8096 H 722.933 -4.60116 0.250962 0
M  V30 8097 H 721.248 -4.16343 0.0686576 0
M  V30 8098 H 723.845 -4.63087 -2.67309 0
M  V30 8099 H 724.188 -2.94041 -2.94696 0
M  V30 8100 H 724.721 -3.71094 -1.43298 0
M  V30 8101 H 721.46 -6.54007 -0.442198 0
M  V30 8102 H 720.98 -5.68111 -1.9238 0
M  V30 8103 H 722.659 -6.23816 -1.71646 0
M  V30 8104 N 722.791 0.367657 -1.53252 0
M  V30 8105 C 724.037 1.11216 -1.69584 0
M  V30 8106 C 724.37 1.89026 -0.445269 0
M  V30 8107 O 723.645 1.86342 0.557404 0
M  V30 8108 C 723.928 2.07308 -2.94441 0
M  V30 8109 C 723.781 1.3312 -4.2965 0
M  V30 8110 C 725.1 3.07459 -3.14892 0
M  V30 8111 H 722.219 0.40294 -0.617096 0
M  V30 8112 H 724.861 0.393201 -1.85887 0
M  V30 8113 H 723.011 2.68617 -2.80673 0
M  V30 8114 H 724.683 0.746111 -4.55226 0
M  V30 8115 H 722.926 0.633051 -4.29156 0
M  V30 8116 H 723.597 2.03443 -5.13142 0
M  V30 8117 H 726.073 2.56252 -3.27832 0
M  V30 8118 H 724.949 3.71919 -4.03693 0
M  V30 8119 H 725.21 3.77514 -2.30077 0
M  V30 8120 N 724.269 1.44576 0.627338 0
M  V30 8121 C 725.217 1.52039 1.76031 0
M  V30 8122 C 726.211 0.391796 1.64807 0
M  V30 8123 O 727.417 0.5669 1.7084 0
M  V30 8124 H 723.792 0.477165 0.581221 0
M  V30 8125 H 725.763 2.47387 1.6686 0
M  V30 8126 C 724.512 1.48539 3.14375 0
M  V30 8127 H 723.835 2.34699 3.23661 0
M  V30 8128 H 725.275 1.57821 3.93534 0
M  V30 8129 C 723.734 0.20672 3.36265 0
M  V30 8130 O 724.264 -0.72154 3.95167 0
M  V30 8131 N 722.47 0.108654 2.90397 0
M  V30 8132 H 722.017 0.864884 2.42647 0
M  V30 8133 H 721.975 -0.746121 3.05418 0
M  V30 8134 N 725.747 -0.868086 1.31537 0
M  V30 8135 C 727.024 -1.60384 1.11965 0
M  V30 8136 C 727.404 -2.08584 -0.324949 0
M  V30 8137 O 726.752 -1.86561 -1.31937 0
M  V30 8138 C 726.962 -2.76038 2.13551 0
M  V30 8139 C 728.31 -3.45954 2.46173 0
M  V30 8140 O 729.334 -2.86247 2.11993 0
M  V30 8141 O 728.193 -4.53666 3.04711 0
M  V30 8142 H 725.287 -0.705705 0.431172 0
M  V30 8143 H 727.833 -0.913385 1.43022 0
M  V30 8144 H 726.605 -2.37849 3.10714 0
M  V30 8145 H 726.228 -3.52769 1.83411 0
M  V30 8146 N 727.225 -1.14528 -1.08264 0
M  V30 8147 C 728.45 -0.938381 -1.84957 0
M  V30 8148 C 728.875 0.508044 -1.81109 0
M  V30 8149 O 728.233 1.36146 -1.19724 0
M  V30 8150 C 728.281 -1.44568 -3.30352 0
M  V30 8151 O 727.385 -0.638745 -4.07423 0
M  V30 8152 H 726.726 -0.335394 -0.573068 0
M  V30 8153 H 729.256 -1.52287 -1.36637 0
M  V30 8154 H 729.266 -1.45449 -3.81194 0
M  V30 8155 H 727.941 -2.49876 -3.32468 0
M  V30 8156 H 726.518 -0.698801 -3.66294 0
M  V30 8157 N 728.703 1.26451 -0.940633 0
M  V30 8158 C 730.119 1.4608 -0.642859 0
M  V30 8159 C 730.319 1.84765 0.803998 0
M  V30 8160 O 729.375 1.96902 1.58069 0
M  V30 8161 C 730.688 2.54359 -1.60381 0
M  V30 8162 C 732.236 2.6821 -1.61345 0
M  V30 8163 C 732.711 3.79659 -2.56169 0
M  V30 8164 N 734.202 3.87051 -2.54452 0
M  V30 8165 C 734.937 4.72739 -3.24507 0
M  V30 8166 N 734.433 5.6282 -4.03987 0
M  V30 8167 N 736.226 4.66581 -3.13462 0
M  V30 8168 H 728.377 0.996289 -1.87584 0
M  V30 8169 H 730.64 0.498921 -0.80609 0
M  V30 8170 H 730.346 2.32758 -2.6366 0
M  V30 8171 H 730.22 3.52005 -1.35545 0
M  V30 8172 H 732.607 2.89184 -0.587913 0
M  V30 8173 H 732.688 1.7101 -1.90235 0
M  V30 8174 H 732.332 3.59438 -3.58841 0
M  V30 8175 H 732.262 4.76315 -2.2457 0
M  V30 8176 H 734.753 3.22649 -1.96739 0
M  V30 8177 H 735.066 6.25095 -4.54396 0
M  V30 8178 H 733.411 5.62574 -4.08088 0
M  V30 8179 H 736.602 3.9521 -2.50852 0
M  V30 8180 H 736.775 5.33141 -3.68327 0
M  V30 8181 N 730.181 0.707592 1.40822 0
M  V30 8182 C 731.128 0.0499029 2.30746 0
M  V30 8183 C 732.098 -0.758718 1.47759 0
M  V30 8184 O 733.283 -0.724299 1.76518 0
M  V30 8185 C 730.423 -0.871756 3.33908 0
M  V30 8186 C 729.536 -0.0534655 4.31967 0
M  V30 8187 C 728.671 -0.973869 5.22197 0
M  V30 8188 C 727.71 -0.149194 6.11918 0
M  V30 8189 N 726.847 -1.02404 6.94592 0
M  V30 8190 H 731.687 0.822461 2.86426 0
M  V30 8191 H 729.224 0.417285 1.41057 0
M  V30 8192 H 731.182 -1.42028 3.9228 0
M  V30 8193 H 729.812 -1.61058 2.7975 0
M  V30 8194 H 728.864 0.612142 3.75442 0
M  V30 8195 H 730.176 0.585354 4.95353 0
M  V30 8196 H 729.33 -1.59121 5.85462 0
M  V30 8197 H 728.069 -1.64652 4.59065 0
M  V30 8198 H 727.074 0.481137 5.47691 0
M  V30 8199 H 728.299 0.519841 6.77107 0
M  V30 8200 H 726.245 -1.6825 6.34057 0
M  V30 8201 H 726.162 -0.441076 7.54712 0
M  V30 8202 H 727.43 -1.62782 7.62314 0
M  V30 8203 N 731.66 -1.50943 0.453197 0
M  V30 8204 C 732.607 -2.28128 -0.350197 0
M  V30 8205 C 733.577 -1.32398 -1.00299 0
M  V30 8206 O 734.762 -1.61319 -1.01887 0
M  V30 8207 C 731.902 -3.13782 -1.43649 0
M  V30 8208 C 731.015 -4.24523 -0.800255 0
M  V30 8209 C 730.15 -4.97462 -1.86293 0
M  V30 8210 C 729.189 -6.00102 -1.20598 0
M  V30 8211 N 728.326 -6.66387 -2.21071 0
M  V30 8212 H 733.166 -2.96337 0.31434 0
M  V30 8213 H 730.703 -1.46151 0.166863 0
M  V30 8214 H 732.661 -3.6178 -2.07776 0
M  V30 8215 H 731.291 -2.47655 -2.07044 0
M  V30 8216 H 730.343 -3.80371 -0.0468651 0
M  V30 8217 H 731.655 -4.98009 -0.280777 0
M  V30 8218 H 730.809 -5.49088 -2.58044 0
M  V30 8219 H 729.548 -4.23642 -2.41617 0
M  V30 8220 H 728.553 -5.47753 -0.474 0
M  V30 8221 H 729.778 -6.75887 -0.659859 0
M  V30 8222 H 727.724 -5.9537 -2.75446 0
M  V30 8223 H 727.641 -7.3569 -1.74058 0
M  V30 8224 H 728.909 -7.22638 -2.92257 0
M  V30 8225 N 733.138 -0.185124 -1.56509 0
M  V30 8226 C 734.549 0.329221 -1.83774 0
M  V30 8227 C 734.9 1.62093 -1.10545 0
M  V30 8228 O 734.025 2.13334 -0.36298 0
M  V30 8229 C 734.62 0.604099 -3.33371 0
M  V30 8230 C 733.179 1.06284 -3.61083 0
M  V30 8231 C 732.326 0.10608 -2.77097 0
M  V30 8232 H 735.277 -0.409116 -1.53336 0
M  V30 8233 H 735.298 1.45458 -3.51599 0
M  V30 8234 H 734.81 -0.336201 -3.86641 0
M  V30 8235 H 732.911 2.01777 -3.13236 0
M  V30 8236 H 733.024 0.962453 -4.69333 0
M  V30 8237 H 731.388 0.606082 -2.47384 0
M  V30 8238 H 732.171 -0.828486 -3.33153 0
M  V30 8239 N 734.616 1.57351 0.0885366 0
M  V30 8240 C 735.865 1.85604 0.789556 0
M  V30 8241 C 736.178 0.775352 1.79576 0
M  V30 8242 O 737.384 0.945206 2.54515 0
M  V30 8243 C 735.84 3.29175 1.45506 0
M  V30 8244 C 735.448 4.45331 0.488278 0
M  V30 8245 C 737.192 3.66646 2.13942 0
M  V30 8246 C 735.099 5.79937 1.15874 0
M  V30 8247 H 734.029 0.692346 0.298619 0
M  V30 8248 H 736.68 1.83451 0.0425821 0
M  V30 8249 H 735.062 3.25889 2.24972 0
M  V30 8250 H 736.236 4.59977 -0.275359 0
M  V30 8251 H 734.551 4.16301 -0.0907363 0
M  V30 8252 H 737.148 4.64498 2.6485 0
M  V30 8253 H 737.491 2.956 2.93132 0
M  V30 8254 H 738.024 3.71848 1.41328 0
M  V30 8255 H 734.763 6.54232 0.407508 0
M  V30 8256 H 734.283 5.69123 1.89364 0
M  V30 8257 H 735.962 6.24718 1.68336 0
M  V30 8258 N 736.094 -0.359525 1.53444 0
M  V30 8259 C 737.34 -1.09958 1.71116 0
M  V30 8260 C 737.695 -1.8681 0.460414 0
M  V30 8261 O 736.988 -1.83635 -0.5467 0
M  V30 8262 C 737.182 -2.08287 2.90433 0
M  V30 8263 C 737.011 -1.41098 4.26991 0
M  V30 8264 C 735.781 -1.16255 4.91745 0
M  V30 8265 C 737.979 -0.845517 5.07302 0
M  V30 8266 N 735.961 -0.454798 6.12213 0
M  V30 8267 C 737.332 -0.267455 6.19423 0
M  V30 8268 C 739.387 -0.744797 4.92298 0
M  V30 8269 C 738.09 0.401511 7.18179 0
M  V30 8270 C 740.116 -0.0896013 5.91332 0
M  V30 8271 C 739.478 0.47756 7.02779 0
M  V30 8272 H 735.577 -0.387305 0.679352 0
M  V30 8273 H 738.161 -0.38519 1.90852 0
M  V30 8274 H 736.332 -2.77034 2.72226 0
M  V30 8275 H 738.064 -2.75015 2.96899 0
M  V30 8276 H 734.819 -1.44544 4.51003 0
M  V30 8277 H 735.243 -0.116108 6.769 0
M  V30 8278 H 739.885 -1.16905 4.06317 0
M  V30 8279 H 737.603 0.837694 8.03746 0
M  V30 8280 H 741.189 -0.0125162 5.81799 0
M  V30 8281 H 740.069 0.976522 7.78096 0
M  V30 8282 N 737.572 -1.44907 -0.619662 0
M  V30 8283 C 738.52 -1.52971 -1.75222 0
M  V30 8284 C 739.514 -0.400531 -1.64597 0
M  V30 8285 O 740.72 -0.575952 -1.70537 0
M  V30 8286 H 737.095 -0.480241 -0.578682 0
M  V30 8287 H 739.066 -2.48269 -1.65545 0
M  V30 8288 C 737.815 -1.50204 -3.13583 0
M  V30 8289 H 737.138 -2.36412 -3.22412 0
M  V30 8290 H 738.578 -1.59905 -3.92691 0
M  V30 8291 C 737.037 -0.22455 -3.36151 0
M  V30 8292 O 737.567 0.700574 -3.95544 0
M  V30 8293 N 735.773 -0.124052 -2.90335 0
M  V30 8294 H 735.32 -0.87774 -2.42185 0
M  V30 8295 H 735.278 0.729914 -3.0581 0
M  V30 8296 N 739.05 0.861098 -1.31996 0
M  V30 8297 C 740.296 1.61721 -1.22369 0
M  V30 8298 C 740.629 1.93 0.215587 0
M  V30 8299 O 739.904 1.56789 1.15098 0
M  V30 8300 C 740.187 2.9417 -2.07691 0
M  V30 8301 C 740.04 2.69714 -3.59965 0
M  V30 8302 C 741.359 3.95372 -1.93312 0
M  V30 8303 H 738.478 0.586822 -0.44588 0
M  V30 8304 H 741.12 0.994788 -1.61876 0
M  V30 8305 H 739.27 3.47292 -1.74128 0
M  V30 8306 H 740.942 2.23196 -4.03709 0
M  V30 8307 H 739.185 2.03789 -3.82952 0
M  V30 8308 H 739.856 3.63996 -4.14983 0
M  V30 8309 H 742.332 3.51487 -2.22701 0
M  V30 8310 H 741.208 4.85916 -2.55298 0
M  V30 8311 H 741.469 4.32865 -0.898922 0
M  V30 8312 N 740.528 1.15101 1.07655 0
M  V30 8313 C 741.458 0.867864 2.16773 0
M  V30 8314 C 742.439 -0.180283 1.69142 0
M  V30 8315 O 743.624 -0.0353152 1.94168 0
M  V30 8316 C 740.754 0.35299 3.45501 0
M  V30 8317 C 739.708 1.33746 4.06566 0
M  V30 8318 C 739.034 0.681562 5.30338 0
M  V30 8319 C 740.334 2.7024 4.46954 0
M  V30 8320 H 742.028 1.78034 2.40716 0
M  V30 8321 H 739.574 0.857435 1.15689 0
M  V30 8322 H 741.527 0.142465 4.21159 0
M  V30 8323 H 740.251 -0.594945 3.21135 0
M  V30 8324 H 738.91 1.53429 3.32949 0
M  V30 8325 H 738.558 -0.272422 5.02262 0
M  V30 8326 H 738.258 1.33853 5.72151 0
M  V30 8327 H 739.782 0.48074 6.08705 0
M  V30 8328 H 741.196 2.5442 5.13754 0
M  V30 8329 H 739.593 3.32282 4.99709 0
M  V30 8330 H 740.663 3.26537 3.58471 0
M  V30 8331 N 742.006 -1.2595 0.947325 0
M  V30 8332 C 742.939 -2.24559 0.406009 0
M  V30 8333 C 743.917 -1.54441 -0.508598 0
M  V30 8334 O 745.101 -1.83181 -0.444644 0
M  V30 8335 C 742.228 -3.36136 -0.415987 0
M  V30 8336 C 741.274 -4.24245 0.437969 0
M  V30 8337 S 742.107 -5.01948 1.86572 0
M  V30 8338 C 743.263 -6.16997 1.05194 0
M  V30 8339 H 743.496 -2.70128 1.24171 0
M  V30 8340 H 741.029 -1.34912 0.750874 0
M  V30 8341 H 742.987 -4.00861 -0.88433 0
M  V30 8342 H 741.648 -2.89167 -1.22643 0
M  V30 8343 H 740.841 -5.03634 -0.192127 0
M  V30 8344 H 740.443 -3.64416 0.841235 0
M  V30 8345 H 742.735 -6.76848 0.297126 0
M  V30 8346 H 743.678 -6.84324 1.8195 0
M  V30 8347 H 744.086 -5.61458 0.585294 0
M  V30 8348 N 743.484 -0.715051 -1.40445 0
M  V30 8349 C 744.73 -0.263528 -2.01686 0
M  V30 8350 C 745.085 1.13052 -1.55683 0
M  V30 8351 O 744.378 1.75588 -0.766762 0
M  V30 8352 C 744.572 -0.281791 -3.56287 0
M  V30 8353 C 744.401 -1.67607 -4.17298 0
M  V30 8354 C 743.171 -2.2836 -4.50755 0
M  V30 8355 C 745.369 -2.62621 -4.42193 0
M  V30 8356 N 743.351 -3.6015 -4.97157 0
M  V30 8357 C 744.722 -3.79116 -4.90582 0
M  V30 8358 C 746.777 -2.60639 -4.24231 0
M  V30 8359 C 745.48 -4.93937 -5.22895 0
M  V30 8360 C 747.506 -3.74587 -4.57644 0
M  V30 8361 C 746.868 -4.89815 -5.06222 0
M  V30 8362 H 742.967 -0.142252 -0.768953 0
M  V30 8363 H 745.551 -0.936732 -1.70685 0
M  V30 8364 H 743.722 0.360975 -3.86719 0
M  V30 8365 H 745.454 0.186393 -4.04271 0
M  V30 8366 H 742.209 -1.80463 -4.3787 0
M  V30 8367 H 742.633 -4.27757 -5.24741 0
M  V30 8368 H 747.275 -1.72759 -3.85894 0
M  V30 8369 H 744.993 -5.82462 -5.60146 0
M  V30 8370 H 748.579 -3.74328 -4.45387 0
M  V30 8371 H 747.459 -5.76525 -5.3159 0
M  V30 8372 N 744.962 1.50701 -0.461195 0
M  V30 8373 C 746.19 2.06681 0.0951756 0
M  V30 8374 C 746.605 1.32615 1.34382 0
M  V30 8375 O 745.962 0.392531 1.78229 0
M  V30 8376 C 746.013 3.59354 0.393316 0
M  V30 8377 O 745.734 4.30626 -0.805797 0
M  V30 8378 C 747.235 4.31926 0.997744 0
M  V30 8379 H 744.455 0.670995 -0.00267259 0
M  V30 8380 H 746.999 1.93991 -0.647137 0
M  V30 8381 H 745.154 3.7188 1.08555 0
M  V30 8382 H 745.568 5.21667 -0.544409 0
M  V30 8383 H 747.042 5.39756 1.15619 0
M  V30 8384 H 747.519 3.91772 1.98523 0
M  V30 8385 H 748.125 4.23905 0.344188 0
M  V30 8386 N 746.441 0.193421 1.56409 0
M  V30 8387 C 747.666 -0.454552 2.02358 0
M  V30 8388 C 748.091 -1.54516 1.07268 0
M  V30 8389 O 747.449 -1.81214 0.0558962 0
M  V30 8390 C 747.497 -0.989469 3.46759 0
M  V30 8391 O 746.601 -2.10244 3.54783 0
M  V30 8392 H 745.942 -0.106417 0.655417 0
M  V30 8393 H 748.472 0.303807 2.02332 0
M  V30 8394 H 748.482 -1.30649 3.86516 0
M  V30 8395 H 747.157 -0.191083 4.15461 0
M  V30 8396 H 745.734 -1.79419 3.26899 0
M  V30 8397 N 747.919 -1.57396 -0.0801906 0
M  V30 8398 C 748.849 -2.06145 -1.09665 0
M  V30 8399 C 749.83 -0.953273 -1.40878 0
M  V30 8400 O 751.015 -1.22548 -1.50651 0
M  V30 8401 C 748.145 -2.49836 -2.41245 0
M  V30 8402 C 747.099 -3.64454 -2.24405 0
M  V30 8403 C 746.425 -3.94172 -3.61293 0
M  V30 8404 C 747.725 -4.94807 -1.67223 0
M  V30 8405 H 749.419 -2.91316 -0.691028 0
M  V30 8406 H 746.965 -1.40145 -0.330957 0
M  V30 8407 H 748.918 -2.82552 -3.12638 0
M  V30 8408 H 747.642 -1.61683 -2.83771 0
M  V30 8409 H 746.301 -3.32008 -1.55454 0
M  V30 8410 H 745.949 -3.03163 -4.01374 0
M  V30 8411 H 745.649 -4.71345 -3.50867 0
M  V30 8412 H 747.173 -4.29376 -4.3413 0
M  V30 8413 H 748.587 -5.25807 -2.28472 0
M  V30 8414 H 746.984 -5.76245 -1.67515 0
M  V30 8415 H 748.054 -4.80751 -0.632944 0
M  V30 8416 N 749.397 0.351382 -1.53633 0
M  V30 8417 C 750.644 1.0925 -1.70502 0
M  V30 8418 C 750.972 1.88881 -0.464123 0
M  V30 8419 O 750.227 1.87693 0.554077 0
M  V30 8420 C 750.526 2.06744 -2.91533 0
M  V30 8421 C 750.192 1.43484 -4.27461 0
M  V30 8422 C 748.854 1.2596 -4.64422 0
M  V30 8423 C 751.206 0.978436 -5.11934 0
M  V30 8424 C 748.534 0.614017 -5.83478 0
M  V30 8425 C 750.886 0.346795 -6.31649 0
M  V30 8426 C 749.55 0.15917 -6.6731 0
M  V30 8427 H 748.82 0.399773 -0.623909 0
M  V30 8428 H 751.467 0.372656 -1.87839 0
M  V30 8429 H 749.772 2.85082 -2.68767 0
M  V30 8430 H 751.469 2.64066 -3.01778 0
M  V30 8431 H 748.059 1.5812 -3.98367 0
M  V30 8432 H 752.243 1.1017 -4.83918 0
M  V30 8433 H 747.499 0.457194 -6.09688 0
M  V30 8434 H 751.673 -0.0149864 -6.96398 0
M  V30 8435 H 749.3 -0.343129 -7.59425 0
M  V30 8436 N 750.875 1.45233 0.611969 0
M  V30 8437 C 751.805 1.5641 1.73373 0
M  V30 8438 C 752.786 0.415896 1.64937 0
M  V30 8439 O 753.971 0.638478 1.83404 0
M  V30 8440 C 751.101 1.52627 3.11965 0
M  V30 8441 C 750.055 2.66119 3.35208 0
M  V30 8442 C 749.381 2.4739 4.74028 0
M  V30 8443 C 750.681 4.08157 3.25891 0
M  V30 8444 H 752.375 2.50307 1.64277 0
M  V30 8445 H 749.921 1.20467 0.788904 0
M  V30 8446 H 751.874 1.59043 3.90235 0
M  V30 8447 H 750.598 0.552564 3.21892 0
M  V30 8448 H 749.257 2.59123 2.59327 0
M  V30 8449 H 748.905 1.48168 4.80682 0
M  V30 8450 H 748.605 3.23494 4.90536 0
M  V30 8451 H 750.129 2.55653 5.54503 0
M  V30 8452 H 751.543 4.1642 3.9404 0
M  V30 8453 H 749.94 4.84617 3.5393 0
M  V30 8454 H 751.01 4.30374 2.23397 0
M  V30 8455 N 752.353 -0.854086 1.3245 0
M  V30 8456 C 753.601 -1.60513 1.228 0
M  V30 8457 C 753.922 -1.93865 -0.210073 0
M  V30 8458 O 753.192 -1.59673 -1.13496 0
M  V30 8459 H 751.772 -0.595099 0.451516 0
M  V30 8460 H 754.434 -1.0216 1.6598 0
M  V30 8461 H 753.53 -2.54182 1.81102 0
M  V30 8462 N 753.831 -1.1567 -1.07043 0
M  V30 8463 C 754.779 -0.852204 -2.16426 0
M  V30 8464 C 755.773 0.175661 -1.68487 0
M  V30 8465 O 756.979 0.0303874 -1.79974 0
M  V30 8466 H 753.354 -0.257942 -0.706378 0
M  V30 8467 H 755.325 -1.78231 -2.39324 0
M  V30 8468 C 754.074 -0.361362 -3.45817 0
M  V30 8469 H 753.397 -1.14369 -3.83092 0
M  V30 8470 H 754.837 -0.186997 -4.23587 0
M  V30 8471 C 753.296 0.917703 -3.2416 0
M  V30 8472 O 753.826 1.98858 -3.49025 0
M  V30 8473 N 752.032 0.858456 -2.77631 0
M  V30 8474 H 751.579 -0.0131821 -2.57597 0
M  V30 8475 H 751.537 1.71478 -2.6352 0
M  V30 8476 N 755.309 1.25446 -0.953992 0
M  V30 8477 C 756.557 1.92762 -0.607227 0
M  V30 8478 C 756.878 1.7509 0.858399 0
M  V30 8479 O 756.148 1.11416 1.61132 0
M  V30 8480 H 754.728 0.713377 -0.221591 0
M  V30 8481 H 757.39 1.52625 -1.21209 0
M  V30 8482 H 756.486 3.00695 -0.835998 0
M  V30 8483 N 756.787 0.722489 1.40064 0
M  V30 8484 C 758.033 0.265371 2.01056 0
M  V30 8485 C 758.366 -1.14062 1.57174 0
M  V30 8486 O 757.641 -1.77514 0.794916 0
M  V30 8487 C 757.924 0.353157 3.58364 0
M  V30 8488 C 757.777 1.79802 4.123 0
M  V30 8489 C 759.096 -0.271677 4.39261 0
M  V30 8490 H 756.215 0.0979002 0.730469 0
M  V30 8491 H 758.857 0.916289 1.66446 0
M  V30 8492 H 757.007 -0.201037 3.87979 0
M  V30 8493 H 758.679 2.40813 3.93455 0
M  V30 8494 H 756.922 2.32348 3.66329 0
M  V30 8495 H 757.593 1.81079 5.21454 0
M  V30 8496 H 760.069 0.200607 4.15616 0
M  V30 8497 H 758.945 -0.179843 5.48605 0
M  V30 8498 H 759.206 -1.35611 4.20787 0
M  V30 8499 N 758.265 -1.50454 0.469181 0
M  V30 8500 C 759.195 -2.31353 -0.31592 0
M  V30 8501 C 760.176 -1.38172 -0.992094 0
M  V30 8502 O 761.361 -1.67093 -0.989633 0
M  V30 8503 C 758.491 -3.1786 -1.39937 0
M  V30 8504 C 757.445 -4.19578 -0.844909 0
M  V30 8505 C 756.771 -4.9481 -2.0265 0
M  V30 8506 C 758.071 -5.22106 0.142499 0
M  V30 8507 H 759.765 -2.97237 0.359269 0
M  V30 8508 H 757.311 -1.42942 0.174224 0
M  V30 8509 H 759.264 -3.7325 -1.95607 0
M  V30 8510 H 757.988 -2.49858 -2.1033 0
M  V30 8511 H 756.647 -3.65285 -0.310189 0
M  V30 8512 H 756.295 -4.23282 -2.71737 0
M  V30 8513 H 755.995 -5.63613 -1.66174 0
M  V30 8514 H 757.519 -5.53035 -2.58815 0
M  V30 8515 H 758.933 -5.72378 -0.324966 0
M  V30 8516 H 757.33 -5.98618 0.421441 0
M  V30 8517 H 758.4 -4.7297 1.06901 0
M  V30 8518 N 759.743 -0.201713 -1.56304 0
M  V30 8519 C 760.673 0.71155 -2.22394 0
M  V30 8520 C 761.654 1.21625 -1.18917 0
M  V30 8521 O 762.839 1.26388 -1.47444 0
M  V30 8522 C 759.969 1.92837 -2.88845 0
M  V30 8523 C 758.923 1.55831 -3.98623 0
M  V30 8524 C 758.249 2.85228 -4.52271 0
M  V30 8525 C 759.549 0.763249 -5.16693 0
M  V30 8526 H 761.243 0.160573 -2.98969 0
M  V30 8527 H 758.789 0.0757916 -1.438 0
M  V30 8528 H 760.742 2.57253 -3.33764 0
M  V30 8529 H 759.466 2.50398 -2.09686 0
M  V30 8530 H 758.125 0.9377 -3.54405 0
M  V30 8531 H 757.773 3.40893 -3.69866 0
M  V30 8532 H 757.473 2.6121 -5.26349 0
M  V30 8533 H 758.997 3.50622 -4.99897 0
M  V30 8534 H 760.411 1.31066 -5.58117 0
M  V30 8535 H 758.808 0.620935 -5.96879 0
M  V30 8536 H 759.878 -0.234322 -4.84334 0
M  V30 8537 N 761.222 1.57436 0.0718424 0
M  V30 8538 C 762.462 1.89082 0.776351 0
M  V30 8539 C 762.826 0.795494 1.74745 0
M  V30 8540 O 764.027 0.995025 2.49705 0
M  V30 8541 C 762.298 3.25958 1.46582 0
M  V30 8542 S 763.857 3.79352 2.2054 0
M  V30 8543 H 760.675 0.662472 0.25817 0
M  V30 8544 H 763.277 1.95473 0.0324536 0
M  V30 8545 H 761.981 4.03577 0.745237 0
M  V30 8546 H 761.512 3.22764 2.24915 0
M  V30 8547 H 763.527 3.54634 3.47058 0
M  V30 8548 N 762.7 -0.34323 1.53817 0
M  V30 8549 C 763.947 -1.08344 1.71079 0
M  V30 8550 C 764.275 -1.88633 0.474133 0
M  V30 8551 O 763.53 -1.87984 -0.544116 0
M  V30 8552 C 763.829 -2.05195 2.92626 0
M  V30 8553 C 763.495 -1.41215 4.28216 0
M  V30 8554 C 762.157 -1.23495 4.65083 0
M  V30 8555 C 764.509 -0.951273 5.12445 0
M  V30 8556 C 761.837 -0.583065 5.83796 0
M  V30 8557 C 764.189 -0.313292 6.31824 0
M  V30 8558 C 762.853 -0.123779 6.67385 0
M  V30 8559 H 762.123 -0.396458 0.626021 0
M  V30 8560 H 764.77 -0.362689 1.88034 0
M  V30 8561 H 763.075 -2.83653 2.70275 0
M  V30 8562 H 764.772 -2.62462 3.03175 0
M  V30 8563 H 761.362 -1.56005 3.992 0
M  V30 8564 H 765.546 -1.07602 4.84495 0
M  V30 8565 H 760.802 -0.424854 6.09922 0
M  V30 8566 H 764.976 0.0519179 6.96381 0
M  V30 8567 H 762.603 0.383398 7.59233 0
M  V30 8568 N 764.178 -1.45556 -0.604258 0
M  V30 8569 C 765.408 -1.53056 -1.38771 0
M  V30 8570 C 765.816 -0.163092 -1.88496 0
M  V30 8571 O 765.159 0.846157 -1.63052 0
M  V30 8572 C 765.221 -2.45656 -2.62476 0
M  V30 8573 C 764.885 -3.92328 -2.34367 0
M  V30 8574 C 765.882 -4.82137 -1.94525 0
M  V30 8575 C 763.567 -4.37275 -2.47177 0
M  V30 8576 C 765.561 -6.14901 -1.67856 0
M  V30 8577 C 763.248 -5.70079 -2.20122 0
M  V30 8578 C 764.246 -6.58711 -1.80524 0
M  V30 8579 O 763.934 -7.89053 -1.53788 0
M  V30 8580 H 763.666 -0.520721 -0.431075 0
M  V30 8581 H 766.22 -1.91464 -0.743693 0
M  V30 8582 H 764.45 -2.02225 -3.29609 0
M  V30 8583 H 766.139 -2.43802 -3.24523 0
M  V30 8584 H 766.905 -4.48675 -1.84162 0
M  V30 8585 H 762.784 -3.68527 -2.76964 0
M  V30 8586 H 766.328 -6.8404 -1.36874 0
M  V30 8587 H 762.225 -6.03095 -2.30102 0
M  V30 8588 H 762.993 -8.01113 -1.67812 0
M  V30 8589 N 765.656 0.84705 -1.32902 0
M  V30 8590 C 766.881 1.63925 -1.27056 0
M  V30 8591 C 767.306 1.87443 0.157136 0
M  V30 8592 O 766.664 1.43266 1.11106 0
M  V30 8593 C 766.712 2.97134 -2.04313 0
M  V30 8594 O 765.816 3.88049 -1.39614 0
M  V30 8595 H 765.157 0.499477 -0.437514 0
M  V30 8596 H 767.687 1.05443 -1.75336 0
M  V30 8597 H 767.697 3.46896 -2.14772 0
M  V30 8598 H 766.372 2.79339 -3.08128 0
M  V30 8599 H 764.949 3.46525 -1.3775 0
M  V30 8600 N 767.134 1.16236 1.06428 0
M  V30 8601 C 768.066 0.825446 2.1382 0
M  V30 8602 C 769.079 -0.166707 1.61944 0
M  V30 8603 O 770.268 0.0578606 1.78406 0
M  V30 8604 C 767.368 0.208023 3.38261 0
M  V30 8605 C 766.541 1.23994 4.19457 0
M  V30 8606 C 765.6 0.642569 5.22262 0
M  V30 8607 O 764.626 1.31106 5.53895 0
M  V30 8608 N 765.828 -0.571327 5.77682 0
M  V30 8609 H 768.593 1.7497 2.43322 0
M  V30 8610 H 766.154 1.05951 1.22417 0
M  V30 8611 H 768.146 -0.204608 4.04182 0
M  V30 8612 H 766.716 -0.619752 3.06395 0
M  V30 8613 H 765.936 1.82879 3.49212 0
M  V30 8614 H 767.224 1.93638 4.70512 0
M  V30 8615 H 766.622 -1.13263 5.54245 0
M  V30 8616 H 765.179 -0.926187 6.45186 0
M  V30 8617 N 768.612 -1.24939 0.960631 0
M  V30 8618 C 769.522 -2.29374 0.492435 0
M  V30 8619 C 770.538 -1.68262 -0.443154 0
M  V30 8620 O 771.714 -1.98875 -0.31793 0
M  V30 8621 C 768.779 -3.46023 -0.216626 0
M  V30 8622 C 767.84 -4.22557 0.757915 0
M  V30 8623 C 767.073 -5.33636 0.0825969 0
M  V30 8624 O 767.296 -5.59084 -1.13054 0
M  V30 8625 O 766.23 -5.96939 0.771177 0
M  V30 8626 H 770.056 -2.71525 1.36044 0
M  V30 8627 H 767.641 -1.30499 0.72735 0
M  V30 8628 H 769.523 -4.16885 -0.615241 0
M  V30 8629 H 768.198 -3.05862 -1.05971 0
M  V30 8630 H 767.105 -3.54099 1.20685 0
M  V30 8631 H 768.438 -4.66516 1.5692 0
M  V30 8632 N 770.09 -0.729906 -1.39679 0
M  V30 8633 C 771.336 -0.284905 -2.01395 0
M  V30 8634 C 771.691 1.11394 -1.56873 0
M  V30 8635 O 770.984 1.74765 -0.785342 0
M  V30 8636 C 771.178 -0.319564 -3.55968 0
M  V30 8637 C 771.007 -1.72024 -4.15497 0
M  V30 8638 C 769.777 -2.33128 -4.48307 0
M  V30 8639 C 771.975 -2.67296 -4.39383 0
M  V30 8640 N 769.957 -3.65403 -4.93309 0
M  V30 8641 C 771.328 -3.84298 -4.86534 0
M  V30 8642 C 773.383 -2.65124 -4.21442 0
M  V30 8643 C 772.086 -4.99455 -5.17627 0
M  V30 8644 C 774.112 -3.7942 -4.53646 0
M  V30 8645 C 773.474 -4.95156 -5.00999 0
M  V30 8646 H 769.573 -0.1504 -0.767401 0
M  V30 8647 H 772.157 -0.954783 -1.69682 0
M  V30 8648 H 770.328 0.319938 -3.8708 0
M  V30 8649 H 772.06 0.143504 -4.04445 0
M  V30 8650 H 768.815 -1.85097 -4.35931 0
M  V30 8651 H 769.239 -4.33298 -5.20175 0
M  V30 8652 H 773.881 -1.76842 -3.8404 0
M  V30 8653 H 771.599 -5.88371 -5.53937 0
M  V30 8654 H 775.185 -3.79031 -4.41392 0
M  V30 8655 H 774.065 -5.82131 -5.25446 0
M  V30 8656 N 771.568 1.50203 -0.477153 0
M  V30 8657 C 772.798 2.0647 0.0731427 0
M  V30 8658 C 773.206 1.3405 1.33518 0
M  V30 8659 O 772.549 0.405164 1.79176 0
M  V30 8660 C 772.611 3.57025 0.421121 0
M  V30 8661 C 772.275 4.50973 -0.739765 0
M  V30 8662 C 773.272 4.939 -1.62353 0
M  V30 8663 C 770.957 4.93581 -0.93181 0
M  V30 8664 C 772.951 5.78149 -2.6837 0
M  V30 8665 C 770.638 5.77612 -1.99519 0
M  V30 8666 C 771.636 6.19798 -2.86949 0
M  V30 8667 O 771.324 7.02152 -3.91456 0
M  V30 8668 H 771.056 0.675969 -0.00648243 0
M  V30 8669 H 773.61 1.94278 -0.66673 0
M  V30 8670 H 771.84 3.67141 1.21426 0
M  V30 8671 H 773.529 3.95632 0.907213 0
M  V30 8672 H 774.295 4.61646 -1.48687 0
M  V30 8673 H 770.174 4.60262 -0.260739 0
M  V30 8674 H 773.718 6.10997 -3.36643 0
M  V30 8675 H 769.615 6.09279 -2.13189 0
M  V30 8676 H 770.383 7.20414 -3.88518 0
M  V30 8677 N 773.046 0.209999 1.56195 0
M  V30 8678 C 774.009 -0.691232 2.18528 0
M  V30 8679 C 775.009 -1.13013 1.14388 0
M  V30 8680 O 776.199 -1.04081 1.39688 0
M  V30 8681 C 773.331 -1.94551 2.79934 0
M  V30 8682 H 774.524 -0.147953 2.99535 0
M  V30 8683 H 772.077 -0.0396243 1.5625 0
M  V30 8684 H 772.812 -2.53094 2.02766 0
M  V30 8685 H 772.597 -1.63938 3.56184 0
M  V30 8686 H 774.087 -2.58785 3.2775 0
M  V30 8687 N 774.524 -1.57472 -0.0634922 0
M  V30 8688 C 775.94 -1.54016 -0.418466 0
M  V30 8689 C 776.14 -0.931376 -1.78683 0
M  V30 8690 O 775.196 -0.537465 -2.46714 0
M  V30 8691 C 776.509 -2.98634 -0.351906 0
M  V30 8692 C 778.057 -3.10012 -0.431494 0
M  V30 8693 C 778.532 -4.56296 -0.394754 0
M  V30 8694 N 780.023 -4.60964 -0.454583 0
M  V30 8695 C 780.758 -5.71643 -0.448501 0
M  V30 8696 N 780.254 -6.91663 -0.396742 0
M  V30 8697 N 782.047 -5.5991 -0.495677 0
M  V30 8698 H 774.198 -1.95409 0.832408 0
M  V30 8699 H 776.461 -0.894769 0.313197 0
M  V30 8700 H 776.167 -3.46766 0.587048 0
M  V30 8701 H 776.041 -3.58955 -1.15893 0
M  V30 8702 H 778.428 -2.61848 -1.36087 0
M  V30 8703 H 778.509 -2.52585 0.404258 0
M  V30 8704 H 778.153 -5.05119 0.530811 0
M  V30 8705 H 778.083 -5.11594 -1.24815 0
M  V30 8706 H 780.574 -3.74598 -0.498496 0
M  V30 8707 H 780.887 -7.71783 -0.396256 0
M  V30 8708 H 779.232 -6.9405 -0.363304 0
M  V30 8709 H 782.423 -4.65046 -0.533864 0
M  V30 8710 H 782.596 -6.46164 -0.487469 0
M  V30 8711 N 776.003 0.335068 -1.53997 0
M  V30 8712 C 776.935 1.4327 -1.78903 0
M  V30 8713 C 777.948 1.48347 -0.670598 0
M  V30 8714 O 779.137 1.51277 -0.947494 0
M  V30 8715 C 776.237 2.81878 -1.88144 0
M  V30 8716 C 775.41 3.00141 -3.18174 0
M  V30 8717 C 774.469 4.19041 -3.18263 0
M  V30 8718 O 773.495 4.12751 -3.9195 0
M  V30 8719 N 774.697 5.28004 -2.41231 0
M  V30 8720 H 777.462 1.22272 -2.73623 0
M  V30 8721 H 775.023 0.524996 -1.53152 0
M  V30 8722 H 777.015 3.59609 -1.85644 0
M  V30 8723 H 775.585 2.9598 -1.00572 0
M  V30 8724 H 774.805 2.09808 -3.33728 0
M  V30 8725 H 776.093 3.0923 -4.04047 0
M  V30 8726 H 775.491 5.35986 -1.8093 0
M  V30 8727 H 774.048 6.04196 -2.44521 0
M  V30 8728 N 777.481 1.45874 0.596531 0
M  V30 8729 C 778.431 1.5181 1.70111 0
M  V30 8730 C 779.415 0.380293 1.56341 0
M  V30 8731 O 780.607 0.627849 1.6549 0
M  V30 8732 C 777.736 1.49822 3.08883 0
M  V30 8733 C 776.822 2.68845 3.27998 0
M  V30 8734 N 777.213 3.93873 3.17329 0
M  V30 8735 C 775.511 2.64777 3.589 0
M  V30 8736 C 776.212 4.73371 3.38076 0
M  V30 8737 N 775.188 4.0501 3.62585 0
M  V30 8738 H 778.99 2.46289 1.60372 0
M  V30 8739 H 776.504 1.41321 0.800138 0
M  V30 8740 H 778.501 1.5216 3.8814 0
M  V30 8741 H 777.161 0.564086 3.19763 0
M  V30 8742 H 778.172 4.25329 2.95492 0
M  V30 8743 H 774.849 1.80323 3.7655 0
M  V30 8744 H 776.239 5.82357 3.35127 0
M  V30 8745 N 778.959 -0.83999 1.33349 0
M  V30 8746 C 780.199 -1.60888 1.26073 0
M  V30 8747 C 780.563 -1.91234 -0.17129 0
M  V30 8748 O 781.764 -2.66269 -0.36799 0
M  V30 8749 C 780.035 -2.88438 2.11042 0
M  V30 8750 S 781.594 -3.79116 2.20944 0
M  V30 8751 H 778.412 -0.55166 0.448545 0
M  V30 8752 H 781.014 -0.99359 1.68369 0
M  V30 8753 H 779.718 -2.64113 3.14121 0
M  V30 8754 H 779.249 -3.54974 1.69579 0
M  V30 8755 H 781.264 -4.76921 1.36969 0
M  V30 8756 N 780.437 -1.16799 -1.0581 0
M  V30 8757 C 781.848 -0.95945 -1.60161 0
M  V30 8758 C 782.199 0.49543 -1.89842 0
M  V30 8759 O 781.324 1.36957 -1.67546 0
M  V30 8760 C 781.919 -1.73527 -2.90987 0
M  V30 8761 C 780.478 -1.57158 -3.42021 0
M  V30 8762 C 779.625 -1.74089 -2.15843 0
M  V30 8763 H 782.576 -1.31598 -0.886992 0
M  V30 8764 H 782.597 -1.21397 -3.60615 0
M  V30 8765 H 782.109 -2.79411 -2.69353 0
M  V30 8766 H 780.21 -0.537361 -3.68705 0
M  V30 8767 H 780.323 -2.35858 -4.17022 0
M  V30 8768 H 778.687 -1.16874 -2.26302 0
M  V30 8769 H 779.47 -2.81371 -1.96686 0
M  V30 8770 N 781.915 1.24427 -0.967243 0
M  V30 8771 C 782.845 2.2773 -0.515899 0
M  V30 8772 C 783.826 1.64197 0.444227 0
M  V30 8773 O 785.011 1.91193 0.340451 0
M  V30 8774 C 782.141 3.46751 0.195149 0
M  V30 8775 C 781.095 4.22548 -0.680953 0
M  V30 8776 C 780.421 5.34456 0.161561 0
M  V30 8777 C 781.721 4.83914 -1.96532 0
M  V30 8778 H 783.415 2.65735 -1.37933 0
M  V30 8779 H 780.961 1.27742 -0.664681 0
M  V30 8780 H 782.914 4.18153 0.522117 0
M  V30 8781 H 781.638 3.07771 1.09292 0
M  V30 8782 H 780.297 3.52946 -0.991186 0
M  V30 8783 H 779.945 4.91716 1.05947 0
M  V30 8784 H 779.645 5.86087 -0.421418 0
M  V30 8785 H 781.169 6.08685 0.483211 0
M  V30 8786 H 782.583 5.47392 -1.70396 0
M  V30 8787 H 780.98 5.45775 -2.49499 0
M  V30 8788 H 782.05 4.05393 -2.66053 0
M  V30 8789 N 783.393 0.737304 1.3929 0
M  V30 8790 C 784.34 0.0988364 2.30588 0
M  V30 8791 C 785.31 -0.727206 1.49335 0
M  V30 8792 O 786.495 -0.686694 1.78014 0
M  V30 8793 C 783.635 -0.800734 3.35682 0
M  V30 8794 C 782.748 0.0381731 4.31983 0
M  V30 8795 C 781.883 -0.862884 5.24145 0
M  V30 8796 C 780.922 -0.0193639 6.12097 0
M  V30 8797 N 780.059 -0.87648 6.96608 0
M  V30 8798 H 784.899 0.883031 2.84617 0
M  V30 8799 H 782.436 0.447111 1.4014 0
M  V30 8800 H 784.394 -1.33676 3.95205 0
M  V30 8801 H 783.024 -1.55088 2.83103 0
M  V30 8802 H 782.076 0.691641 3.74059 0
M  V30 8803 H 783.388 0.690294 4.94 0
M  V30 8804 H 782.542 -1.46667 5.88705 0
M  V30 8805 H 781.281 -1.54878 4.62454 0
M  V30 8806 H 780.286 0.597202 5.46547 0
M  V30 8807 H 781.511 0.663348 6.75852 0
M  V30 8808 H 779.457 -1.54762 6.37483 0
M  V30 8809 H 779.374 -0.280892 7.55478 0
M  V30 8810 H 780.642 -1.46575 7.65595 0
M  V30 8811 N 784.871 -1.49948 0.485112 0
M  V30 8812 C 785.819 -2.30449 -0.315609 0
M  V30 8813 C 786.813 -1.38351 -0.977516 0
M  V30 8814 O 788.019 -1.55477 -0.907019 0
M  V30 8815 H 784.394 -0.742262 -0.120629 0
M  V30 8816 H 786.365 -2.95925 0.383552 0
M  V30 8817 C 785.114 -3.19283 -1.37673 0
M  V30 8818 H 784.437 -3.90067 -0.876801 0
M  V30 8819 H 785.877 -3.78579 -1.90929 0
M  V30 8820 C 784.336 -2.37817 -2.38631 0
M  V30 8821 O 784.866 -2.0711 -3.44192 0
M  V30 8822 N 783.072 -2.00135 -2.107 0
M  V30 8823 H 782.619 -2.25307 -1.24878 0
M  V30 8824 H 782.577 -1.45933 -2.7848 0
M  V30 8825 N 786.349 -0.21828 -1.56081 0
M  V30 8826 C 787.76 0.290166 -1.84431 0
M  V30 8827 C 788.111 1.59712 -1.13958 0
M  V30 8828 O 787.236 2.12516 -0.40815 0
M  V30 8829 C 787.831 0.53325 -3.34577 0
M  V30 8830 C 786.39 0.986011 -3.63256 0
M  V30 8831 C 785.537 0.0472798 -2.7726 0
M  V30 8832 H 788.488 -0.441548 -1.52434 0
M  V30 8833 H 788.509 1.37967 -3.54606 0
M  V30 8834 H 788.021 -0.418137 -3.85841 0
M  V30 8835 H 786.122 1.95087 -3.17446 0
M  V30 8836 H 786.235 0.862684 -4.71269 0
M  V30 8837 H 784.599 0.553471 -2.48614 0
M  V30 8838 H 785.382 -0.898966 -3.31321 0
M  V30 8839 N 787.827 1.57504 0.0551401 0
M  V30 8840 C 789.055 1.92294 0.76358 0
M  V30 8841 C 789.47 0.815774 1.70266 0
M  V30 8842 O 788.827 -0.209772 1.8129 0
M  V30 8843 C 788.878 3.26914 1.54302 0
M  V30 8844 O 788.599 4.33375 0.641666 0
M  V30 8845 C 790.1 3.75825 2.35097 0
M  V30 8846 H 787.32 0.635229 0.216159 0
M  V30 8847 H 789.864 2.0449 0.0204385 0
M  V30 8848 H 788.019 3.16196 2.23828 0
M  V30 8849 H 788.433 5.10927 1.1855 0
M  V30 8850 H 789.907 4.72603 2.8522 0
M  V30 8851 H 790.384 3.0568 3.15367 0
M  V30 8852 H 790.99 3.89542 1.70696 0
M  V30 8853 N 789.305 -0.326896 1.54172 0
M  V30 8854 C 790.552 -1.06523 1.72218 0
M  V30 8855 C 790.88 -1.88119 0.494114 0
M  V30 8856 O 790.135 -1.8855 -0.524147 0
M  V30 8857 C 790.434 -2.0208 2.94785 0
M  V30 8858 C 790.1 -1.36665 4.2969 0
M  V30 8859 C 788.762 -1.18556 4.66367 0
M  V30 8860 C 791.114 -0.896868 5.13425 0
M  V30 8861 C 788.442 -0.521113 5.84381 0
M  V30 8862 C 790.794 -0.246261 6.3212 0
M  V30 8863 C 789.458 -0.052987 6.67479 0
M  V30 8864 H 788.728 -0.389796 0.63019 0
M  V30 8865 H 791.375 -0.342725 1.88408 0
M  V30 8866 H 789.68 -2.8077 2.73268 0
M  V30 8867 H 791.377 -2.59231 3.05941 0
M  V30 8868 H 787.967 -1.51762 4.00832 0
M  V30 8869 H 792.151 -1.02458 4.85609 0
M  V30 8870 H 787.407 -0.36014 6.10338 0
M  V30 8871 H 791.581 0.125775 6.96286 0
M  V30 8872 H 789.208 0.463903 7.58783 0
M  V30 8873 N 790.784 -1.46188 -0.588786 0
M  V30 8874 C 791.714 -1.59148 -1.70863 0
M  V30 8875 C 792.695 -0.442083 -1.64255 0
M  V30 8876 O 793.88 -0.667575 -1.82365 0
M  V30 8877 C 791.01 -1.5757 -3.09498 0
M  V30 8878 C 789.964 -2.71418 -3.30932 0
M  V30 8879 C 789.29 -2.549 -4.70032 0
M  V30 8880 C 790.59 -4.1329 -3.19356 0
M  V30 8881 H 792.284 -2.52889 -1.60274 0
M  V30 8882 H 789.83 -1.21707 -0.769638 0
M  V30 8883 H 791.783 -1.65231 -3.87655 0
M  V30 8884 H 790.507 -0.603705 -3.20972 0
M  V30 8885 H 789.166 -2.63216 -2.55172 0
M  V30 8886 H 788.814 -1.55797 -4.78264 0
M  V30 8887 H 788.514 -3.31257 -4.85327 0
M  V30 8888 H 790.038 -2.64443 -5.50366 0
M  V30 8889 H 791.452 -4.22636 -3.87365 0
M  V30 8890 H 789.849 -4.90187 -3.46175 0
M  V30 8891 H 790.919 -4.33874 -2.16522 0
M  V30 8892 N 792.262 0.832906 -1.33792 0
M  V30 8893 C 793.539 1.57359 -1.16178 0
M  V30 8894 C 793.919 2.09372 0.269532 0
M  V30 8895 O 793.267 1.89993 1.26944 0
M  V30 8896 C 793.477 2.70279 -2.20795 0
M  V30 8897 C 794.825 3.39305 -2.55259 0
M  V30 8898 O 795.849 2.80526 -2.19508 0
M  V30 8899 O 794.708 4.45428 -3.16632 0
M  V30 8900 H 791.802 0.694025 -0.449731 0
M  V30 8901 H 794.348 0.875144 -1.45394 0
M  V30 8902 H 793.12 2.29527 -3.16911 0
M  V30 8903 H 792.743 3.47782 -1.927 0
M  V30 8904 N 793.74 1.17359 1.05189 0
M  V30 8905 C 794.97 0.985099 1.81602 0
M  V30 8906 C 795.378 -0.469872 1.83273 0
M  V30 8907 O 794.721 -1.33806 1.25864 0
M  V30 8908 C 794.783 1.44956 3.2898 0
M  V30 8909 C 794.447 2.92666 3.50993 0
M  V30 8910 C 795.444 3.906 3.43115 0
M  V30 8911 C 793.129 3.30841 3.77954 0
M  V30 8912 C 795.123 5.24709 3.61883 0
M  V30 8913 C 792.81 4.65116 3.96371 0
M  V30 8914 C 793.808 5.61859 3.88335 0
M  V30 8915 O 793.496 6.93704 4.06238 0
M  V30 8916 H 793.228 0.348731 0.579105 0
M  V30 8917 H 795.782 1.56066 1.33539 0
M  V30 8918 H 794.012 0.817559 3.77959 0
M  V30 8919 H 795.701 1.22674 3.86919 0
M  V30 8920 H 796.467 3.62453 3.22262 0
M  V30 8921 H 792.346 2.5611 3.83313 0
M  V30 8922 H 795.89 6.00205 3.55527 0
M  V30 8923 H 791.787 4.92969 4.16715 0
M  V30 8924 H 792.555 7.00443 4.23463 0
M  V30 8925 N 795.218 -1.23913 0.973828 0
M  V30 8926 C 796.464 -1.92436 0.640026 0
M  V30 8927 C 796.797 -1.75875 -0.823512 0
M  V30 8928 O 796.072 -1.11563 -1.59323 0
M  V30 8929 C 796.355 -3.4526 1.0231 0
M  V30 8930 C 796.208 -3.70961 2.54378 0
M  V30 8931 C 797.527 -4.36495 0.562155 0
M  V30 8932 H 794.646 -0.698868 0.233992 0
M  V30 8933 H 797.288 -1.46163 1.21393 0
M  V30 8934 H 795.438 -3.84802 0.534751 0
M  V30 8935 H 797.11 -3.40941 3.10737 0
M  V30 8936 H 795.353 -3.15899 2.97305 0
M  V30 8937 H 796.024 -4.77912 2.76232 0
M  V30 8938 H 798.5 -4.04363 0.981333 0
M  V30 8939 H 797.376 -5.42142 0.858689 0
M  V30 8940 H 797.637 -4.38818 -0.537659 0
M  V30 8941 N 796.696 -0.74468 -1.38897 0
M  V30 8942 C 798.112 -0.421302 -1.53939 0
M  V30 8943 C 798.312 1.06668 -1.70951 0
M  V30 8944 O 797.368 1.85278 -1.71547 0
M  V30 8945 C 798.681 -1.21278 -2.75159 0
M  V30 8946 C 800.229 -1.20196 -2.89001 0
M  V30 8947 C 800.704 -1.97621 -4.13171 0
M  V30 8948 N 802.195 -1.94836 -4.2023 0
M  V30 8949 C 802.93 -2.51545 -5.15279 0
M  V30 8950 N 802.426 -3.1693 -6.16058 0
M  V30 8951 N 804.219 -2.41524 -5.07565 0
M  V30 8952 H 796.37 -1.70914 -1.26103 0
M  V30 8953 H 798.633 -0.724058 -0.611919 0
M  V30 8954 H 798.339 -2.26609 -2.68963 0
M  V30 8955 H 798.213 -0.823677 -3.68097 0
M  V30 8956 H 800.6 -0.156742 -2.94683 0
M  V30 8957 H 800.681 -1.63051 -1.97099 0
M  V30 8958 H 800.325 -3.02149 -4.0825 0
M  V30 8959 H 800.255 -1.52166 -5.04136 0
M  V30 8960 H 802.746 -1.4721 -3.48048 0
M  V30 8961 H 803.059 -3.57644 -6.85062 0
M  V30 8962 H 801.404 -3.21023 -6.16417 0
M  V30 8963 H 804.595 -1.90077 -4.27771 0
M  V30 8964 H 804.768 -2.86016 -5.81462 0
M  V30 8965 N 798.174 1.49689 -0.493057 0
M  V30 8966 C 799.585 1.8665 -0.0433032 0
M  V30 8967 C 799.936 1.40607 1.36836 0
M  V30 8968 O 799.061 0.780503 2.01834 0
M  V30 8969 C 799.656 3.38724 -0.0718069 0
M  V30 8970 C 798.215 3.75015 0.32257 0
M  V30 8971 C 797.362 2.7366 -0.4478 0
M  V30 8972 H 800.313 1.42119 -0.706246 0
M  V30 8973 H 800.334 3.73522 0.725347 0
M  V30 8974 H 799.846 3.72204 -1.09935 0
M  V30 8975 H 797.947 3.47142 1.35364 0
M  V30 8976 H 798.06 4.79099 0.00864259 0
M  V30 8977 H 796.424 2.54498 0.101354 0
M  V30 8978 H 797.207 3.09985 -1.47527 0
M  V30 8979 N 799.652 0.226554 1.55963 0
M  V30 8980 C 801.068 -0.128733 1.5908 0
M  V30 8981 C 801.268 -1.58558 1.24345 0
M  V30 8982 O 800.324 -2.32661 0.981069 0
M  V30 8983 C 801.637 0.202076 3.0002 0
M  V30 8984 C 803.185 0.144718 3.12665 0
M  V30 8985 C 803.66 0.449272 4.55791 0
M  V30 8986 N 805.151 0.399026 4.61478 0
M  V30 8987 C 805.886 0.608106 5.70166 0
M  V30 8988 N 805.382 0.879227 6.87198 0
M  V30 8989 N 807.175 0.5402 5.59498 0
M  V30 8990 H 799.326 1.17686 1.76816 0
M  V30 8991 H 801.589 0.472072 0.822102 0
M  V30 8992 H 801.295 1.21341 3.30105 0
M  V30 8993 H 801.169 -0.480554 3.74126 0
M  V30 8994 H 803.556 -0.857261 2.82374 0
M  V30 8995 H 803.637 0.860899 2.40878 0
M  V30 8996 H 803.281 1.44871 4.86801 0
M  V30 8997 H 803.211 -0.288157 5.25811 0
M  V30 8998 H 805.702 0.197372 3.77384 0
M  V30 8999 H 806.015 1.02673 7.65949 0
M  V30 9000 H 804.36 0.916477 6.88931 0
M  V30 9001 H 807.551 0.328581 4.66945 0
M  V30 9002 H 807.724 0.706548 6.44137 0
M  V30 9003 N 801.13 -1.57531 -0.0467866 0
M  V30 9004 C 802.355 -1.93087 -0.757123 0
M  V30 9005 C 802.78 -0.825116 -1.69037 0
M  V30 9006 O 802.138 0.220449 -1.79955 0
M  V30 9007 C 802.186 -3.27669 -1.5055 0
M  V30 9008 O 801.29 -3.18667 -2.61773 0
M  V30 9009 H 800.631 -0.631597 -0.204892 0
M  V30 9010 H 803.161 -2.04599 -0.00755232 0
M  V30 9011 H 803.171 -3.6214 -1.87932 0
M  V30 9012 H 801.846 -4.07717 -0.820931 0
M  V30 9013 H 800.423 -2.95798 -2.27064 0
M  V30 9014 N 802.608 0.318715 -1.54344 0
M  V30 9015 C 803.854 1.05383 -1.73971 0
M  V30 9016 C 804.209 1.85524 -0.509781 0
M  V30 9017 O 803.502 1.8502 0.49782 0
M  V30 9018 C 803.696 2.00514 -2.95853 0
M  V30 9019 C 803.525 1.29728 -4.30582 0
M  V30 9020 C 802.295 1.03177 -4.94654 0
M  V30 9021 C 804.493 0.710718 -5.09366 0
M  V30 9022 N 802.475 0.29232 -6.13204 0
M  V30 9023 C 803.846 0.103132 -6.19914 0
M  V30 9024 C 805.901 0.614011 -4.94099 0
M  V30 9025 C 804.604 -0.591782 -7.16862 0
M  V30 9026 C 806.63 -0.0672115 -5.91362 0
M  V30 9027 C 805.992 -0.663721 -7.01266 0
M  V30 9028 H 802.091 0.369157 -0.689382 0
M  V30 9029 H 804.675 0.334453 -1.91806 0
M  V30 9030 H 802.846 2.69719 -2.79475 0
M  V30 9031 H 804.578 2.67046 -3.04086 0
M  V30 9032 H 801.333 1.32536 -4.54677 0
M  V30 9033 H 801.757 -0.0634005 -6.7697 0
M  V30 9034 H 806.399 1.06091 -4.09273 0
M  V30 9035 H 804.117 -1.0505 -8.01243 0
M  V30 9036 H 807.703 -0.141742 -5.81627 0
M  V30 9037 H 806.583 -1.18248 -7.75234 0
M  V30 9038 N 804.086 1.46499 0.581025 0
M  V30 9039 C 805.314 1.5547 1.36517 0
M  V30 9040 C 805.729 0.196407 1.87776 0
M  V30 9041 O 805.086 -0.806577 1.63709 0
M  V30 9042 C 805.137 2.56084 2.55154 0
M  V30 9043 O 804.858 3.86637 2.06018 0
M  V30 9044 C 806.359 2.75011 3.47683 0
M  V30 9045 H 803.579 0.525703 0.416986 0
M  V30 9046 H 806.123 1.9192 0.706177 0
M  V30 9047 H 804.278 2.22633 3.17039 0
M  V30 9048 H 804.692 4.41413 2.83292 0
M  V30 9049 H 806.166 3.49329 4.27403 0
M  V30 9050 H 806.643 1.81978 3.99726 0
M  V30 9051 H 807.249 3.09565 2.91632 0
M  V30 9052 N 805.565 -0.825799 1.34232 0
M  V30 9053 C 806.805 -1.59541 1.27773 0
M  V30 9054 C 807.169 -1.91405 -0.150998 0
M  V30 9055 O 808.37 -2.66644 -0.339728 0
M  V30 9056 C 806.641 -2.86183 2.14089 0
M  V30 9057 S 808.2 -3.76751 2.24953 0
M  V30 9058 H 805.018 -0.546871 0.454371 0
M  V30 9059 H 807.62 -0.975677 1.69413 0
M  V30 9060 H 806.324 -2.60767 3.16905 0
M  V30 9061 H 805.855 -3.53155 1.73335 0
M  V30 9062 H 807.87 -4.75442 1.4202 0
M  V30 9063 N 807.043 -1.17915 -1.04565 0
M  V30 9064 C 808.459 -0.927761 -1.29864 0
M  V30 9065 C 808.659 0.409536 -1.97294 0
M  V30 9066 O 807.715 1.14505 -2.25044 0
M  V30 9067 C 809.028 -2.08967 -2.16225 0
M  V30 9068 C 810.576 -2.12741 -2.29587 0
M  V30 9069 C 811.051 -3.28335 -3.19312 0
M  V30 9070 N 812.542 -3.28164 -3.26898 0
M  V30 9071 C 813.277 -4.14249 -3.96466 0
M  V30 9072 N 812.773 -5.10457 -4.68407 0
M  V30 9073 N 814.566 -4.02179 -3.92694 0
M  V30 9074 H 806.717 -2.03983 -0.592011 0
M  V30 9075 H 808.98 -0.891023 -0.323701 0
M  V30 9076 H 808.686 -3.05654 -1.73979 0
M  V30 9077 H 808.56 -2.04606 -3.16885 0
M  V30 9078 H 810.947 -1.16636 -2.71072 0
M  V30 9079 H 811.028 -2.21162 -1.28535 0
M  V30 9080 H 810.672 -4.2471 -2.78539 0
M  V30 9081 H 810.602 -3.17151 -4.20384 0
M  V30 9082 H 813.093 -2.58511 -2.75646 0
M  V30 9083 H 813.406 -5.72526 -5.1907 0
M  V30 9084 H 811.751 -5.14422 -4.67328 0
M  V30 9085 H 814.942 -3.26308 -3.3562 0
M  V30 9086 H 815.115 -4.69486 -4.4664 0
M  V30 9087 N 808.521 1.23394 -0.980386 0
M  V30 9088 C 809.751 1.9556 -0.666319 0
M  V30 9089 C 810.159 1.72786 0.770815 0
M  V30 9090 O 809.502 1.0162 1.53033 0
M  V30 9091 C 809.564 3.48643 -0.876825 0
M  V30 9092 C 809.228 3.95135 -2.29602 0
M  V30 9093 C 810.225 4.03806 -3.2747 0
M  V30 9094 C 807.91 4.28122 -2.62711 0
M  V30 9095 C 809.904 4.44818 -4.56526 0
M  V30 9096 C 807.591 4.68814 -3.9199 0
M  V30 9097 C 808.589 4.77129 -4.88709 0
M  V30 9098 O 808.277 5.16908 -6.15679 0
M  V30 9099 H 808.009 0.629422 -0.246585 0
M  V30 9100 H 810.563 1.57839 -1.31438 0
M  V30 9101 H 808.793 3.86319 -0.171587 0
M  V30 9102 H 810.482 4.0202 -0.55992 0
M  V30 9103 H 811.248 3.78526 -3.03222 0
M  V30 9104 H 807.127 4.20861 -1.8814 0
M  V30 9105 H 810.671 4.51223 -5.32018 0
M  V30 9106 H 806.568 4.93545 -4.16033 0
M  V30 9107 H 807.336 5.3502 -6.19432 0
M  V30 9108 N 809.999 0.752036 1.385 0
M  V30 9109 C 811.245 0.307958 2.00448 0
M  V30 9110 C 811.578 -1.10702 1.59558 0
M  V30 9111 O 810.853 -1.75788 0.832391 0
M  V30 9112 C 811.136 0.429092 3.57534 0
M  V30 9113 C 810.989 1.88507 4.08393 0
M  V30 9114 C 812.308 -0.178442 4.39738 0
M  V30 9115 H 809.427 0.113373 0.728228 0
M  V30 9116 H 812.069 0.951389 1.64465 0
M  V30 9117 H 810.219 -0.118695 3.88319 0
M  V30 9118 H 811.891 2.49104 3.88259 0
M  V30 9119 H 810.134 2.40066 3.61318 0
M  V30 9120 H 810.805 1.92099 5.17496 0
M  V30 9121 H 813.281 0.28872 4.15097 0
M  V30 9122 H 812.157 -0.0634349 5.48863 0
M  V30 9123 H 812.418 -1.26655 4.23569 0
M  V30 9124 N 811.477 -1.49425 0.500989 0
M  V30 9125 C 812.724 -2.02453 -0.0435355 0
M  V30 9126 C 813.052 -1.38067 -1.36995 0
M  V30 9127 O 812.307 -0.505557 -1.89057 0
M  V30 9128 C 812.606 -3.56562 -0.24463 0
M  V30 9129 C 812.272 -4.39585 1.00379 0
M  V30 9130 C 810.934 -4.61992 1.346 0
M  V30 9131 C 813.286 -4.87881 1.83361 0
M  V30 9132 C 810.614 -5.2994 2.51755 0
M  V30 9133 C 812.966 -5.57119 2.99669 0
M  V30 9134 C 811.63 -5.77771 3.3427 0
M  V30 9135 H 810.9 -0.740829 -0.0159308 0
M  V30 9136 H 813.547 -1.79725 0.661143 0
M  V30 9137 H 811.852 -3.77969 -1.03183 0
M  V30 9138 H 813.549 -3.95185 -0.6804 0
M  V30 9139 H 810.139 -4.22385 0.727225 0
M  V30 9140 H 814.323 -4.70398 1.58237 0
M  V30 9141 H 809.579 -5.44133 2.788 0
M  V30 9142 H 813.753 -5.93516 3.64296 0
M  V30 9143 H 811.38 -6.30197 4.25154 0
M  V30 9144 O 812.994 -0.376506 -1.5705 0
M  V30 9145 H 813.685 0.171595 -1.92938 0
M  V30 END ATOM
M  V30 BEGIN BOND
M  V30 END BOND
M  V30 END CTAB
M  END
$$$$
