drugbank_target|P35625 Metalloproteinase inhibitor 3 (DB05383)
 OpenBabel12092120303D

  0  0  0     0  0            999 V3000
M  V30 BEGIN CTAB
M  V30 COUNTS 3363 3413 0 0 0
M  V30 BEGIN ATOM
M  V30 1 H -0.908 1.98254 -0.117106 0
M  V30 2 N 0 1.576 0 0
M  V30 3 C 0.933 2.03868 1.02534 0
M  V30 4 C 1.911 0.928543 1.3348 0
M  V30 5 O 3.095 1.19667 1.45644 0
M  V30 6 C 0.222 2.43627 2.35294 0
M  V30 7 C -0.732 3.65373 2.2001 0
M  V30 8 S 0.101 5.13292 1.52614 0
M  V30 9 C 1.257 5.56322 2.86805 0
M  V30 10 H 1.49 2.90518 0.631377 0
M  V30 11 H -0.977 1.52953 0.210867 0
M  V30 12 H 0.981 2.67203 3.11629 0
M  V30 13 H -0.358 1.57376 2.7183 0
M  V30 14 H -1.165 3.90944 3.18086 0
M  V30 15 H -1.563 3.418 1.51819 0
M  V30 16 H 0.729 5.58782 3.83104 0
M  V30 17 H 1.672 6.56266 2.65933 0
M  V30 18 H 2.08 4.83886 2.90714 0
M  V30 19 N 1.4781 -0.272755 1.55222 0
M  V30 20 C 2.7061 -1.02255 1.79865 0
M  V30 21 C 3.1211 -1.79924 0.572088 0
M  V30 22 O 2.4781 -1.76638 -0.458842 0
M  V30 23 C 2.5291 -1.98094 3.02392 0
M  V30 24 O 2.2501 -1.23572 4.20311 0
M  V30 25 C 3.7511 -2.84884 3.39641 0
M  V30 26 H 0.9711 -0.302057 0.599168 0
M  V30 27 H 3.5151 -0.303465 2.02236 0
M  V30 28 H 1.6701 -2.65465 2.82147 0
M  V30 29 H 2.0841 -1.88172 4.89583 0
M  V30 30 H 3.5581 -3.47927 4.28545 0
M  V30 31 H 4.0351 -3.54665 2.59055 0
M  V30 32 H 4.6411 -2.23003 3.62146 0
M  V30 33 N 2.9562 -1.48159 -0.537278 0
M  V30 34 C 4.3672 -1.49429 -1.11928 0
M  V30 35 C 4.7182 -0.26 -1.9447 0
M  V30 36 O 3.8432 0.633489 -2.0692 0
M  V30 37 C 4.4382 -2.70758 -2.03656 0
M  V30 38 C 2.9972 -2.74923 -2.57088 0
M  V30 39 C 2.1442 -2.42835 -1.3389 0
M  V30 40 H 5.0952 -1.55381 -0.322886 0
M  V30 41 H 5.1162 -2.48861 -2.87834 0
M  V30 42 H 4.6282 -3.60575 -1.43553 0
M  V30 43 H 2.7292 -1.89296 -3.20933 0
M  V30 44 H 2.8422 -3.76157 -2.9672 0
M  V30 45 H 1.2062 -1.93836 -1.65226 0
M  V30 46 H 1.9892 -3.34884 -0.755504 0
M  V30 47 N 4.4343 0.785586 -1.36625 0
M  V30 48 C 5.6803 1.5452 -1.32269 0
M  V30 49 C 6.0353 1.92159 0.0962266 0
M  V30 50 O 5.3283 1.60158 1.05167 0
M  V30 51 C 5.5223 2.83007 -2.1827 0
M  V30 52 C 5.3513 2.57925 -3.68382 0
M  V30 53 C 4.1213 2.52752 -4.37544 0
M  V30 54 C 6.3193 2.26861 -4.61561 0
M  V30 55 N 4.3013 2.19608 -5.73276 0
M  V30 56 C 5.6723 2.03738 -5.85569 0
M  V30 57 C 7.7273 2.129 -4.50087 0
M  V30 58 C 6.4303 1.68065 -6.9939 0
M  V30 59 C 8.4563 1.78626 -5.63779 0
M  V30 60 C 7.8183 1.56353 -6.86828 0
M  V30 61 H 3.9173 0.566301 -0.539283 0
M  V30 62 H 6.5013 0.917736 -1.71714 0
M  V30 63 H 4.6723 3.43614 -1.81063 0
M  V30 64 H 6.4043 3.48775 -2.05275 0
M  V30 65 H 3.1593 2.6813 -3.90389 0
M  V30 66 H 3.5833 2.05771 -6.44971 0
M  V30 67 H 8.2253 2.28808 -3.55537 0
M  V30 68 H 5.9433 1.50895 -7.93887 0
M  V30 69 H 9.5293 1.68502 -5.56865 0
M  V30 70 H 8.4093 1.30223 -7.73312 0
M  V30 71 N 5.9124 1.20967 1.01018 0
M  V30 72 C 6.8424 0.988272 2.11555 0
M  V30 73 C 7.8234 -0.0849778 1.69888 0
M  V30 74 O 9.0084 0.0738202 1.9406 0
M  V30 75 C 6.1384 0.546528 3.42973 0
M  V30 76 C 5.0924 1.56375 3.9841 0
M  V30 77 C 4.4184 0.97842 5.25672 0
M  V30 78 C 5.7184 2.94922 4.31066 0
M  V30 79 H 7.4124 1.91276 2.30334 0
M  V30 80 H 4.9584 0.921073 1.1069 0
M  V30 81 H 6.9114 0.378839 4.19694 0
M  V30 82 H 5.6354 -0.413598 3.23971 0
M  V30 83 H 4.2944 1.71891 3.23804 0
M  V30 84 H 3.9424 0.0101688 5.02999 0
M  V30 85 H 3.6424 1.65784 5.63728 0
M  V30 86 H 5.1664 0.821939 6.05043 0
M  V30 87 H 6.5804 2.8288 4.9865 0
M  V30 88 H 4.9774 3.5983 4.80253 0
M  V30 89 H 6.0474 3.4616 3.39561 0
M  V30 90 N 7.3905 -1.2043 1.01659 0
M  V30 91 C 8.6385 -1.89423 0.704522 0
M  V30 92 C 8.9595 -1.79231 -0.768197 0
M  V30 93 O 8.2295 -1.1947 -1.55254 0
M  V30 94 H 6.8095 -0.701178 0.257602 0
M  V30 95 H 9.4715 -1.4626 1.28818 0
M  V30 96 H 8.5675 -2.96052 0.987916 0
M  V30 97 N 8.8686 -0.792821 -1.36206 0
M  V30 98 C 9.7986 -0.207853 -2.32573 0
M  V30 99 C 10.7796 0.659055 -1.56813 0
M  V30 100 O 11.9646 0.592176 -1.84951 0
M  V30 101 C 9.0946 0.655449 -3.41059 0
M  V30 102 C 8.0486 -0.111842 -4.27854 0
M  V30 103 C 7.3746 0.872274 -5.27537 0
M  V30 104 C 8.6746 -1.30299 -5.05786 0
M  V30 105 H 10.3686 -1.01294 -2.81744 0
M  V30 106 H 7.9146 -0.48854 -1.3546 0
M  V30 107 H 9.8676 1.07464 -4.07467 0
M  V30 108 H 8.5916 1.49328 -2.90463 0
M  V30 109 H 7.2506 -0.512053 -3.63006 0
M  V30 110 H 6.8986 1.70523 -4.73214 0
M  V30 111 H 6.5986 0.363291 -5.86476 0
M  V30 112 H 8.1226 1.28996 -5.96818 0
M  V30 113 H 9.5366 -0.959379 -5.65216 0
M  V30 114 H 7.9336 -1.7455 -5.74154 0
M  V30 115 H 9.0036 -2.09663 -4.37229 0
M  V30 116 N 10.3467 1.47872 -0.545128 0
M  V30 117 C 11.5957 2.01695 -0.0145033 0
M  V30 118 C 11.9087 1.42609 1.33873 0
M  V30 119 O 13.1147 1.88021 1.95858 0
M  V30 120 C 11.5707 3.59892 0.0245068 0
M  V30 121 C 11.1787 4.27966 -1.32475 0
M  V30 122 C 12.9227 4.21507 0.50316 0
M  V30 123 C 10.8297 5.78136 -1.2455 0
M  V30 124 H 9.7597 0.753998 -0.00165172 0
M  V30 125 H 12.4107 1.69985 -0.691175 0
M  V30 126 H 10.7927 3.88509 0.766575 0
M  V30 127 H 11.9667 4.11003 -2.08357 0
M  V30 128 H 10.2817 3.78286 -1.74036 0
M  V30 129 H 12.8787 5.31538 0.580656 0
M  V30 130 H 13.2217 3.87855 1.51243 0
M  V30 131 H 13.7547 3.97376 -0.183681 0
M  V30 132 H 10.4937 6.16388 -2.23039 0
M  V30 133 H 10.0137 5.97469 -0.528282 0
M  V30 134 H 11.6927 6.40099 -0.942488 0
M  V30 135 N 11.8248 0.280983 1.55075 0
M  V30 136 C 13.0708 -0.33461 2.00021 0
M  V30 137 C 13.4038 -1.55063 1.16915 0
M  V30 138 O 12.6788 -1.93006 0.240646 0
M  V30 139 C 12.9618 -0.711007 3.53011 0
M  V30 140 C 12.8148 0.512766 4.46868 0
M  V30 141 C 14.1338 -1.54522 4.12081 0
M  V30 142 H 11.2528 -0.120147 0.727141 0
M  V30 143 H 13.8948 0.389097 1.85973 0
M  V30 144 H 12.0448 -1.32761 3.65112 0
M  V30 145 H 13.7168 1.15131 4.46702 0
M  V30 146 H 11.9598 1.14975 4.18286 0
M  V30 147 H 12.6308 0.205556 5.51617 0
M  V30 148 H 15.1068 -1.02442 4.03293 0
M  V30 149 H 13.9828 -1.77739 5.19327 0
M  V30 150 H 14.2438 -2.52813 3.62682 0
M  V30 151 N 13.3029 -1.57598 0.00835791 0
M  V30 152 C 14.2329 -2.1198 -0.979113 0
M  V30 153 C 15.2139 -1.03091 -1.35301 0
M  V30 154 O 16.3989 -1.30818 -1.43528 0
M  V30 155 C 13.5289 -2.62995 -2.26828 0
M  V30 156 C 12.4829 -3.76485 -2.03576 0
M  V30 157 C 11.8089 -4.13846 -3.38579 0
M  V30 158 C 13.1089 -5.0342 -1.39161 0
M  V30 159 H 14.8029 -2.94738 -0.526281 0
M  V30 160 H 12.3489 -1.41783 -0.251704 0
M  V30 161 H 14.3019 -2.99669 -2.96271 0
M  V30 162 H 13.0259 -1.7737 -2.7424 0
M  V30 163 H 11.6849 -3.40217 -1.36557 0
M  V30 164 H 11.3329 -3.25232 -3.83709 0
M  V30 165 H 11.0329 -4.90312 -3.23834 0
M  V30 166 H 12.5569 -4.53086 -4.09323 0
M  V30 167 H 13.9709 -5.37812 -1.98573 0
M  V30 168 H 12.3679 -5.84746 -1.34878 0
M  V30 169 H 13.4379 -4.83548 -0.361868 0
M  V30 170 N 14.781 0.264519 -1.55364 0
M  V30 171 C 15.711 1.33121 -1.91836 0
M  V30 172 C 16.692 1.51101 -0.781192 0
M  V30 173 O 17.877 1.64003 -1.04003 0
M  V30 174 C 15.007 2.68921 -2.19769 0
M  V30 175 C 13.961 2.65661 -3.35571 0
M  V30 176 C 13.287 4.05093 -3.49004 0
M  V30 177 C 14.587 2.24187 -4.71739 0
M  V30 178 H 16.281 1.02844 -2.81182 0
M  V30 179 H 13.827 0.493286 -1.35287 0
M  V30 180 H 15.78 3.43663 -2.43872 0
M  V30 181 H 14.504 3.00799 -1.27231 0
M  V30 182 H 13.163 1.93377 -3.1145 0
M  V30 183 H 12.811 4.34206 -2.53917 0
M  V30 184 H 12.511 4.03804 -4.26868 0
M  V30 185 H 14.035 4.81561 -3.75408 0
M  V30 186 H 15.449 2.88654 -4.9533 0
M  V30 187 H 13.846 2.34044 -5.52579 0
M  V30 188 H 14.916 1.19327 -4.69988 0
M  V30 189 N 16.2591 1.48442 0.529413 0
M  V30 190 C 17.5071 1.56179 1.28267 0
M  V30 191 C 17.8281 0.237721 1.93546 0
M  V30 192 O 17.0981 -0.740779 1.81354 0
M  V30 193 H 15.6781 0.575367 0.476405 0
M  V30 194 H 18.3401 1.84909 0.61602 0
M  V30 195 H 17.4361 2.34312 2.06165 0
M  V30 196 N 17.7372 -0.778329 1.37039 0
M  V30 197 C 18.9622 -1.57248 1.35233 0
M  V30 198 C 19.3872 -1.87999 -0.0615568 0
M  V30 199 O 18.7452 -1.48734 -1.03672 0
M  V30 200 C 18.7932 -2.86353 2.19167 0
M  V30 201 O 17.8972 -3.80442 1.59178 0
M  V30 202 H 17.2382 -0.476569 0.462362 0
M  V30 203 H 19.7682 -0.963853 1.80474 0
M  V30 204 H 19.7782 -3.35519 2.32145 0
M  V30 205 H 18.4532 -2.63299 3.21942 0
M  V30 206 H 17.0302 -3.39067 1.55203 0
M  V30 207 N 19.2153 -1.21501 -1.00376 0
M  V30 208 C 20.4613 -1.04457 -1.74529 0
M  V30 209 C 20.8163 0.417386 -1.87818 0
M  V30 210 O 20.1093 1.30556 -1.40234 0
M  V30 211 C 20.3033 -1.67673 -3.15627 0
M  V30 212 C 20.1323 -3.19865 -3.16096 0
M  V30 213 C 18.9023 -3.88915 -3.22604 0
M  V30 214 C 21.1003 -4.16936 -3.01112 0
M  V30 215 N 19.0823 -5.28284 -3.12712 0
M  V30 216 C 20.4533 -5.43066 -2.99131 0
M  V30 217 C 22.5083 -4.07968 -2.85423 0
M  V30 218 C 21.2113 -6.6126 -2.83068 0
M  V30 219 C 23.2373 -5.258 -2.70718 0
M  V30 220 C 22.5993 -6.50842 -2.69414 0
M  V30 221 H 18.6983 -0.436584 -0.648782 0
M  V30 222 H 21.2823 -1.53875 -1.19293 0
M  V30 223 H 19.4533 -1.20822 -3.6913 0
M  V30 224 H 21.1853 -1.43824 -3.78281 0
M  V30 225 H 17.9403 -3.39847 -3.2985 0
M  V30 226 H 18.3643 -6.01284 -3.11105 0
M  V30 227 H 23.0063 -3.1209 -2.85236 0
M  V30 228 H 20.7243 -7.57298 -2.82002 0
M  V30 229 H 24.3103 -5.20683 -2.59577 0
M  V30 230 H 23.1903 -7.40485 -2.5817 0
M  V30 231 N 20.6934 1.19889 -1.02296 0
M  V30 232 C 21.9184 1.9393 -0.735237 0
M  V30 233 C 22.3434 1.74639 0.698782 0
M  V30 234 O 21.7014 1.04481 1.48167 0
M  V30 235 C 21.7494 3.43916 -1.08417 0
M  V30 236 O 20.8534 4.11917 -0.199446 0
M  V30 237 H 20.1944 0.605645 -0.272196 0
M  V30 238 H 22.7244 1.52137 -1.36804 0
M  V30 239 H 22.7344 3.9456 -1.03856 0
M  V30 240 H 21.4094 3.5728 -2.12894 0
M  V30 241 H 19.9864 3.71666 -0.303136 0
M  V30 242 N 22.1715 0.800033 1.35784 0
M  V30 243 C 23.1015 0.220184 2.3246 0
M  V30 244 C 24.0825 -0.65073 1.57161 0
M  V30 245 O 25.2675 -0.582359 1.85263 0
M  V30 246 C 22.3975 -0.637353 3.41402 0
M  V30 247 C 21.3515 0.134531 4.27789 0
M  V30 248 C 20.6775 -0.844285 5.27992 0
M  V30 249 C 21.9775 1.32979 5.05088 0
M  V30 250 H 23.6715 1.02787 2.81203 0
M  V30 251 H 21.2175 0.495717 1.35199 0
M  V30 252 H 23.1705 -1.05302 4.08031 0
M  V30 253 H 21.8945 -1.47785 2.91251 0
M  V30 254 H 20.5535 0.531296 3.6273 0
M  V30 255 H 20.2015 -1.68011 4.74111 0
M  V30 256 H 19.9015 -0.332184 5.8666 0
M  V30 257 H 21.4255 -1.2583 5.97494 0
M  V30 258 H 22.8395 0.98934 5.64699 0
M  V30 259 H 21.2365 1.77593 5.7322 0
M  V30 260 H 22.3065 2.11978 4.36111 0
M  V30 261 N 23.6496 -1.47581 0.552962 0
M  V30 262 C 24.8976 -2.02082 0.0272703 0
M  V30 263 C 25.2186 -1.4301 -1.32563 0
M  V30 264 O 24.4886 -0.603745 -1.86365 0
M  V30 265 H 23.0686 -0.746966 0.00709182 0
M  V30 266 H 25.7306 -1.81033 0.722008 0
M  V30 267 H 24.8266 -3.12034 -0.0639951 0
M  V30 268 N 25.1277 -0.289203 -1.54924 0
M  V30 269 C 26.4047 0.376032 -1.91951 0
M  V30 270 C 26.7847 1.72622 -1.21511 0
M  V30 271 O 26.1327 2.25853 -0.346767 0
M  V30 272 C 26.3427 0.502378 -3.45365 0
M  V30 273 C 27.6907 0.778741 -4.17398 0
M  V30 274 O 28.7147 0.586647 -3.51336 0
M  V30 275 O 27.5737 1.14698 -5.34328 0
M  V30 276 H 24.6677 0.208167 -0.800372 0
M  V30 277 H 27.2137 -0.336394 -1.66332 0
M  V30 278 H 25.9857 -0.447255 -3.88736 0
M  V30 279 H 25.6087 1.26373 -3.76982 0
M  V30 280 N 26.6058 1.57591 -0.0167156 0
M  V30 281 C 27.8518 1.92399 0.659861 0
M  V30 282 C 28.2068 0.892561 1.70444 0
M  V30 283 O 27.4998 -0.0930755 1.91374 0
M  V30 284 C 27.6938 3.3172 1.33029 0
M  V30 285 C 27.5228 4.48319 0.352174 0
M  V30 286 C 26.2928 5.05281 -0.0434883 0
M  V30 287 C 28.4908 5.12831 -0.388474 0
M  V30 288 N 26.4728 6.05399 -1.01807 0
M  V30 289 C 27.8438 6.07934 -1.2172 0
M  V30 290 C 29.8988 4.95858 -0.450513 0
M  V30 291 C 28.6018 6.87891 -2.10235 0
M  V30 292 C 30.6278 5.76413 -1.32295 0
M  V30 293 C 29.9898 6.71123 -2.13948 0
M  V30 294 H 26.0888 0.752106 0.21415 0
M  V30 295 H 28.6728 1.94532 -0.0809846 0
M  V30 296 H 26.8438 3.3043 2.04134 0
M  V30 297 H 28.5758 3.5391 1.9629 0
M  V30 298 H 25.3308 4.7246 0.328384 0
M  V30 299 H 25.7548 6.60145 -1.50123 0
M  V30 300 H 30.3968 4.22472 0.166512 0
M  V30 301 H 28.1148 7.60591 -2.72997 0
M  V30 302 H 31.7008 5.65317 -1.37508 0
M  V30 303 H 30.5808 7.3237 -2.80364 0
M  V30 304 N 28.0839 -0.256276 1.55502 0
M  V30 305 C 29.3319 -0.983672 1.76545 0
M  V30 306 C 29.6529 -1.86206 0.578982 0
M  V30 307 O 28.9229 -1.91656 -0.405577 0
M  V30 308 H 27.5029 -0.366191 0.651086 0
M  V30 309 H 30.1649 -0.276479 1.92929 0
M  V30 310 H 29.2609 -1.61087 2.67315 0
M  V30 311 N 29.562 -1.4872 -0.521534 0
M  V30 312 C 30.525 -1.63379 -1.60748 0
M  V30 313 C 31.525 -0.50661 -1.52611 0
M  V30 314 O 32.715 -0.772601 -1.5613 0
M  V30 315 C 29.847 -1.61192 -3.00383 0
M  V30 316 H 31.04 -2.60217 -1.49087 0
M  V30 317 H 28.593 -1.37444 -0.744235 0
M  V30 318 H 29.328 -0.65863 -3.17541 0
M  V30 319 H 29.113 -2.43032 -3.07698 0
M  V30 320 H 30.603 -1.7466 -3.7932 0
M  V30 321 N 31.0401 0.771051 -1.3745 0
M  V30 322 C 31.9501 1.91538 -1.35464 0
M  V30 323 C 32.9661 1.72134 -0.254123 0
M  V30 324 O 34.1421 1.95358 -0.489626 0
M  V30 325 C 31.2071 3.26671 -1.16134 0
M  V30 326 C 30.2681 3.58723 -2.35831 0
M  V30 327 C 29.5011 4.87409 -2.17413 0
M  V30 328 O 29.7241 5.58506 -1.15876 0
M  V30 329 O 28.6581 5.18539 -3.05615 0
M  V30 330 H 32.4841 1.96165 -2.31847 0
M  V30 331 H 30.0691 0.9139 -1.18187 0
M  V30 332 H 31.9511 4.07499 -1.07345 0
M  V30 333 H 30.6261 3.22894 -0.228251 0
M  V30 334 H 29.5331 2.78127 -2.50192 0
M  V30 335 H 30.8661 3.67243 -3.27709 0
M  V30 336 N 32.5182 1.22032 0.997298 0
M  V30 337 C 33.4812 0.987909 2.06816 0
M  V30 338 C 34.4812 -0.0440084 1.6074 0
M  V30 339 O 35.6712 0.194053 1.73116 0
M  V30 340 C 32.8032 0.49132 3.37341 0
M  V30 341 H 33.9962 1.93803 2.28868 0
M  V30 342 H 31.5492 1.03838 1.16822 0
M  V30 343 H 32.2842 -0.463364 3.20973 0
M  V30 344 H 32.0692 1.23575 3.72118 0
M  V30 345 H 33.5592 0.348824 4.16141 0
M  V30 346 N 33.9963 -1.19345 1.0293 0
M  V30 347 C 35.2363 -1.90738 0.734727 0
M  V30 348 C 35.6003 -1.7785 -0.723414 0
M  V30 349 O 36.8013 -2.43844 -1.13108 0
M  V30 350 C 35.0723 -3.37569 1.17396 0
M  V30 351 S 36.6313 -4.27176 1.00329 0
M  V30 352 H 33.4493 -0.658771 0.267474 0
M  V30 353 H 36.0513 -1.4428 1.31922 0
M  V30 354 H 34.7553 -3.44475 2.23081 0
M  V30 355 H 34.2863 -3.8906 0.582772 0
M  V30 356 H 36.3013 -4.96126 -0.0859152 0
M  V30 357 N 35.4744 -0.807222 -1.35358 0
M  V30 358 C 36.7024 -0.400377 -2.02989 0
M  V30 359 C 37.1174 0.988859 -1.60832 0
M  V30 360 O 36.4744 1.63729 -0.806175 0
M  V30 361 C 36.5254 -0.474867 -3.58368 0
M  V30 362 O 36.2464 -1.80933 -3.98992 0
M  V30 363 C 37.7474 -0.0609112 -4.43258 0
M  V30 364 H 34.9674 -0.162587 -0.651004 0
M  V30 365 H 37.5114 -1.09102 -1.72965 0
M  V30 366 H 35.6664 0.167534 -3.87038 0
M  V30 367 H 36.0804 -1.77256 -4.9364 0
M  V30 368 H 37.5544 -0.164145 -5.51756 0
M  V30 369 H 38.0314 0.993831 -4.27808 0
M  V30 370 H 38.6374 -0.676492 -4.19885 0
M  V30 371 N 36.9525 1.47285 -0.560781 0
M  V30 372 C 38.1925 2.0436 -0.0404627 0
M  V30 373 C 38.5565 1.42534 1.28639 0
M  V30 374 O 39.7575 1.90677 1.89462 0
M  V30 375 C 38.0285 3.57369 0.0471856 0
M  V30 376 S 39.5875 4.3579 0.513109 0
M  V30 377 H 36.4055 0.710492 -0.0268674 0
M  V30 378 H 39.0075 1.80611 -0.748323 0
M  V30 379 H 37.7115 3.9989 -0.922817 0
M  V30 380 H 37.2425 3.8562 0.778491 0
M  V30 381 H 39.2575 4.63476 1.77212 0
M  V30 382 N 38.4306 0.297415 1.54768 0
M  V30 383 C 39.6556 -0.318435 2.04941 0
M  V30 384 C 40.0806 -1.4701 1.17345 0
M  V30 385 O 39.4386 -1.80436 0.176758 0
M  V30 386 C 39.4866 -0.755749 3.52592 0
M  V30 387 O 38.5906 -1.86088 3.68028 0
M  V30 388 H 37.9316 -0.062421 0.661059 0
M  V30 389 H 40.4616 0.438215 1.99852 0
M  V30 390 H 40.4716 -1.04552 3.94376 0
M  V30 391 H 39.1466 0.0867233 4.1581 0
M  V30 392 H 37.7236 -1.57193 3.38149 0
M  V30 393 N 39.9087 -1.5758 0.0250728 0
M  V30 394 C 41.3197 -1.79476 -0.514323 0
M  V30 395 C 41.6707 -0.934956 -1.72491 0
M  V30 396 O 40.7957 -0.144245 -2.15919 0
M  V30 397 C 41.3907 -3.25503 -0.939842 0
M  V30 398 C 39.9497 -3.48408 -1.42438 0
M  V30 399 C 39.0967 -2.74583 -0.387201 0
M  V30 400 H 42.0477 -1.567 0.25113 0
M  V30 401 H 42.0687 -3.34992 -1.80445 0
M  V30 402 H 41.5807 -3.88056 -0.0585628 0
M  V30 403 H 39.6817 -2.91103 -2.32572 0
M  V30 404 H 39.7947 -4.57119 -1.43455 0
M  V30 405 H 38.1587 -2.39942 -0.854409 0
M  V30 406 H 38.9417 -3.39849 0.485543 0
M  V30 407 N 41.3868 0.248026 -1.55636 0
M  V30 408 C 42.6118 0.998028 -1.81808 0
M  V30 409 C 43.0368 1.78207 -0.601979 0
M  V30 410 O 42.3948 1.75653 0.448961 0
M  V30 411 C 42.4428 1.9125 -3.05705 0
M  V30 412 O 41.5468 3.00406 -2.82542 0
M  V30 413 H 40.8878 0.284045 -0.600179 0
M  V30 414 H 43.4178 0.269357 -2.02819 0
M  V30 415 H 43.4278 2.32737 -3.35108 0
M  V30 416 H 42.1028 1.33602 -3.93857 0
M  V30 417 H 40.6798 2.63056 -2.64303 0
M  V30 418 N 42.8649 1.48995 0.513639 0
M  V30 419 C 43.8149 1.61127 1.61314 0
M  V30 420 C 44.7989 0.467521 1.53958 0
M  V30 421 O 45.9909 0.719826 1.61702 0
M  V30 422 C 43.1199 1.66937 2.99978 0
M  V30 423 C 42.2059 2.86847 3.12377 0
M  V30 424 N 42.5969 4.11078 2.94701 0
M  V30 425 C 40.8949 2.84521 3.43459 0
M  V30 426 C 41.5959 4.91615 3.10949 0
M  V30 427 N 40.5719 4.24739 3.3926 0
M  V30 428 H 44.3739 2.54909 1.46282 0
M  V30 429 H 41.8879 1.45593 0.719483 0
M  V30 430 H 43.8849 1.73725 3.78979 0
M  V30 431 H 42.5449 0.742831 3.16089 0
M  V30 432 H 43.5559 4.41258 2.71131 0
M  V30 433 H 40.2329 2.01192 3.65825 0
M  V30 434 H 41.6229 6.00264 3.01882 0
M  V30 435 N 44.343 -0.763751 1.37857 0
M  V30 436 C 45.754 -1.3405 1.29952 0
M  V30 437 C 46.105 -1.96138 -0.0492898 0
M  V30 438 O 45.23 -1.94372 -0.951239 0
M  V30 439 C 45.825 -2.43729 2.35333 0
M  V30 440 C 44.384 -2.97151 2.31037 0
M  V30 441 C 43.531 -1.70438 2.18738 0
M  V30 442 H 46.482 -0.563396 1.48363 0
M  V30 443 H 46.503 -3.23412 2.00462 0
M  V30 444 H 46.015 -1.9851 3.33489 0
M  V30 445 H 44.116 -3.46724 1.3643 0
M  V30 446 H 44.229 -3.52221 3.24772 0
M  V30 447 H 42.593 -1.93673 1.65418 0
M  V30 448 H 43.376 -1.27312 3.18821 0
M  V30 449 N 45.8211 -1.22559 -0.990812 0
M  V30 450 C 46.7531 -0.955325 -2.08342 0
M  V30 451 C 47.7661 0.0668408 -1.62663 0
M  V30 452 O 48.9551 -0.167421 -1.77713 0
M  V30 453 C 46.0551 -0.415566 -3.36342 0
M  V30 454 C 45.2281 -1.49544 -4.11042 0
M  V30 455 C 44.2871 -0.962399 -5.17324 0
M  V30 456 O 43.3131 -1.64907 -5.44788 0
M  V30 457 N 44.5151 0.215134 -5.80101 0
M  V30 458 H 47.2801 -1.89596 -2.32106 0
M  V30 459 H 44.8411 -1.13276 -1.15673 0
M  V30 460 H 46.8331 -0.0442386 -4.04676 0
M  V30 461 H 45.4031 0.430232 -3.09625 0
M  V30 462 H 44.6231 -2.04 -3.37309 0
M  V30 463 H 45.9111 -2.22195 -4.57719 0
M  V30 464 H 45.3091 0.789779 -5.6016 0
M  V30 465 H 43.8661 0.527826 -6.49659 0
M  V30 466 N 47.2992 1.18797 -1.03562 0
M  V30 467 C 48.5762 1.84469 -0.650434 0
M  V30 468 C 48.9562 1.92319 0.870433 0
M  V30 469 O 48.3042 1.44528 1.76986 0
M  V30 470 C 48.5142 3.2306 -1.32036 0
M  V30 471 C 49.8622 3.9915 -1.44792 0
M  V30 472 O 50.8862 3.32481 -1.27806 0
M  V30 473 O 49.7452 5.18587 -1.72423 0
M  V30 474 H 46.8392 0.795251 -0.226946 0
M  V30 475 H 49.3852 1.26231 -1.13419 0
M  V30 476 H 48.1572 3.1222 -2.3587 0
M  V30 477 H 47.7802 3.88949 -0.8249 0
M  V30 478 N 48.7773 0.814389 1.34928 0
M  V30 479 C 49.7403 0.235759 2.27984 0
M  V30 480 C 50.7403 -0.581412 1.49921 0
M  V30 481 O 51.9303 -0.398758 1.69575 0
M  V30 482 C 49.0623 -0.670433 3.34242 0
M  V30 483 H 50.2553 1.05659 2.80671 0
M  V30 484 H 47.8083 0.585614 1.44915 0
M  V30 485 H 48.5433 -1.51466 2.86755 0
M  V30 486 H 48.3283 -0.0860822 3.92005 0
M  V30 487 H 49.8183 -1.06935 4.03676 0
M  V30 488 N 50.2554 -1.46986 0.568584 0
M  V30 489 C 51.5024 -2.02441 0.0487986 0
M  V30 490 C 51.8304 -1.44169 -1.30559 0
M  V30 491 O 51.0854 -0.591213 -1.86556 0
M  V30 492 C 51.3844 -3.57306 -0.081836 0
M  V30 493 C 51.0504 -4.34552 1.20313 0
M  V30 494 C 49.7124 -4.55376 1.5552 0
M  V30 495 C 52.0644 -4.79016 2.05411 0
M  V30 496 C 49.3924 -5.17913 2.7565 0
M  V30 497 C 51.7444 -5.42879 3.24754 0
M  V30 498 C 50.4084 -5.61933 3.60261 0
M  V30 499 H 49.6784 -0.740785 0.0178567 0
M  V30 500 H 52.3254 -1.76525 0.742384 0
M  V30 501 H 50.6304 -3.8228 -0.858463 0
M  V30 502 H 52.3274 -3.97876 -0.499546 0
M  V30 503 H 48.9174 -4.18631 0.919014 0
M  V30 504 H 53.1014 -4.62696 1.79516 0
M  V30 505 H 48.3574 -5.30858 3.03315 0
M  V30 506 H 52.5314 -5.76293 3.90973 0
M  V30 507 H 50.1584 -6.10161 4.53439 0
M  V30 508 N 51.7335 -0.305618 -1.54608 0
M  V30 509 C 52.9735 0.303114 -2.0214 0
M  V30 510 C 53.3375 1.50737 -1.18921 0
M  V30 511 O 54.5385 2.18778 -1.56172 0
M  V30 512 C 52.8095 0.646332 -3.51507 0
M  V30 513 S 54.3685 1.23727 -4.20995 0
M  V30 514 H 51.1865 0.0927643 -0.704923 0
M  V30 515 H 53.7885 -0.434566 -1.90609 0
M  V30 516 H 52.4925 -0.238541 -4.09706 0
M  V30 517 H 52.0235 1.41468 -3.67084 0
M  V30 518 H 54.0385 2.52489 -4.27158 0
M  V30 519 N 53.2116 1.57565 -0.0334293 0
M  V30 520 C 54.1596 2.1164 0.96496 0
M  V30 521 C 55.1536 1.04398 1.33407 0
M  V30 522 O 56.3596 1.22828 1.3158 0
M  V30 523 H 52.7346 0.676222 0.32898 0
M  V30 524 H 54.7056 2.94455 0.483614 0
M  V30 525 C 53.4546 2.66207 2.23672 0
M  V30 526 H 52.7776 3.48378 1.96145 0
M  V30 527 H 54.2176 3.07685 2.9173 0
M  V30 528 C 52.6766 1.59151 2.96939 0
M  V30 529 O 53.2066 0.993858 3.89211 0
M  V30 530 N 51.4126 1.31093 2.59351 0
M  V30 531 H 50.9596 1.7988 1.84393 0
M  V30 532 H 50.9176 0.596889 3.08682 0
M  V30 533 N 54.6897 -0.239769 1.55765 0
M  V30 534 C 55.9147 -0.988373 1.82335 0
M  V30 535 C 56.3397 -1.77886 0.611421 0
M  V30 536 O 55.6977 -1.75889 -0.439639 0
M  V30 537 C 55.7457 -1.89627 3.06715 0
M  V30 538 O 54.8497 -2.98904 2.84131 0
M  V30 539 H 54.1907 -0.280858 0.601677 0
M  V30 540 H 56.7207 -0.258597 2.02959 0
M  V30 541 H 56.7307 -2.30957 3.36338 0
M  V30 542 H 55.4057 -1.31511 3.9456 0
M  V30 543 H 53.9827 -2.61651 2.65694 0
M  V30 544 N 56.1678 -1.49265 -0.50573 0
M  V30 545 C 57.4448 -1.49012 -1.26707 0
M  V30 546 C 57.8248 -0.215205 -2.1 0
M  V30 547 O 57.1728 0.802547 -2.13943 0
M  V30 548 C 57.3828 -2.7663 -2.12783 0
M  V30 549 C 58.7308 -3.25932 -2.72127 0
M  V30 550 O 59.7548 -2.77715 -2.23054 0
M  V30 551 O 58.6138 -4.09897 -3.61451 0
M  V30 552 H 55.7078 -0.596197 -0.57313 0
M  V30 553 H 58.2538 -1.61524 -0.52039 0
M  V30 554 H 57.0258 -3.60916 -1.5118 0
M  V30 555 H 56.6488 -2.66956 -2.94653 0
M  V30 556 N 57.6459 0.756429 -1.3826 0
M  V30 557 C 58.8949 1.51082 -1.3363 0
M  V30 558 C 59.2079 1.95467 0.0720068 0
M  V30 559 O 60.4139 2.7043 0.240834 0
M  V30 560 C 58.8699 2.72893 -2.34644 0
M  V30 561 C 58.4779 2.35544 -3.81081 0
M  V30 562 C 60.2219 3.50791 -2.39052 0
M  V30 563 C 58.1289 3.53948 -4.73787 0
M  V30 564 H 57.0589 0.56727 -0.49671 0
M  V30 565 H 59.7099 0.827147 -1.638 0
M  V30 566 H 58.0919 3.43227 -1.97513 0
M  V30 567 H 59.2659 1.72894 -4.27135 0
M  V30 568 H 57.5809 1.70786 -3.79764 0
M  V30 569 H 60.1779 4.38823 -3.05513 0
M  V30 570 H 60.5209 3.91745 -1.40861 0
M  V30 571 H 61.0539 2.87467 -2.74968 0
M  V30 572 H 57.7929 3.18064 -5.73163 0
M  V30 573 H 57.3129 4.15651 -4.32428 0
M  V30 574 H 58.9919 4.20566 -4.91663 0
M  V30 575 N 59.124 1.23083 0.984299 0
M  V30 576 C 60.37 1.06214 1.72761 0
M  V30 577 C 60.703 -0.400584 1.90024 0
M  V30 578 O 59.978 -1.29672 1.44967 0
M  V30 579 C 60.261 1.78375 3.12817 0
M  V30 580 C 60.114 3.32296 3.03149 0
M  V30 581 C 61.433 1.54309 4.12161 0
M  V30 582 H 58.552 0.387251 0.627061 0
M  V30 583 H 61.194 1.51536 1.14616 0
M  V30 584 H 59.344 1.39848 3.62457 0
M  V30 585 H 61.016 3.8032 2.61064 0
M  V30 586 H 59.259 3.6153 2.39747 0
M  V30 587 H 59.93 3.77972 4.02295 0
M  V30 588 H 62.406 1.87791 3.71314 0
M  V30 589 H 61.282 2.07281 5.08258 0
M  V30 590 H 61.543 0.477572 4.39513 0
M  V30 591 N 60.6021 -1.18246 1.0419 0
M  V30 592 C 61.8511 -1.87588 0.741194 0
M  V30 593 C 62.1641 -1.81303 -0.734066 0
M  V30 594 O 63.3701 -2.46019 -1.14834 0
M  V30 595 C 61.8261 -3.36538 1.27555 0
M  V30 596 C 61.4341 -3.51349 2.77953 0
M  V30 597 C 63.1781 -4.11273 1.05143 0
M  V30 598 C 61.0851 -4.94265 3.2474 0
M  V30 599 H 60.0151 -0.702622 0.273565 0
M  V30 600 H 62.6661 -1.33601 1.25789 0
M  V30 601 H 61.0481 -3.9 0.686703 0
M  V30 602 H 62.2221 -3.08153 3.42605 0
M  V30 603 H 60.5371 -2.90022 2.98791 0
M  V30 604 H 63.1341 -5.16689 1.37611 0
M  V30 605 H 63.4771 -4.16298 -0.0112774 0
M  V30 606 H 64.0101 -3.63987 1.60495 0
M  V30 607 H 60.7491 -4.94408 4.30396 0
M  V30 608 H 60.2691 -5.38172 2.64823 0
M  V30 609 H 61.9481 -5.62987 3.18834 0
M  V30 610 N 62.0802 -0.821533 -1.34494 0
M  V30 611 C 63.4962 -0.507117 -1.51329 0
M  V30 612 C 63.6962 0.968964 -1.76673 0
M  V30 613 O 62.7522 1.75348 -1.81685 0
M  V30 614 C 64.0652 -1.36544 -2.67911 0
M  V30 615 C 65.6132 -1.36242 -2.81793 0
M  V30 616 C 66.0882 -2.2052 -4.01416 0
M  V30 617 N 67.5792 -2.18136 -4.08621 0
M  V30 618 C 68.3142 -2.80095 -5.00334 0
M  V30 619 N 67.8102 -3.51039 -5.9728 0
M  V30 620 N 69.6032 -2.69656 -4.93196 0
M  V30 621 H 61.7542 -1.77729 -1.16302 0
M  V30 622 H 64.0172 -0.757291 -0.570276 0
M  V30 623 H 63.7232 -2.41361 -2.55808 0
M  V30 624 H 63.5972 -1.02917 -3.62888 0
M  V30 625 H 65.9842 -0.322041 -2.93338 0
M  V30 626 H 66.0652 -1.73866 -1.87628 0
M  V30 627 H 65.7092 -3.24607 -3.90631 0
M  V30 628 H 65.6392 -1.80247 -4.94791 0
M  V30 629 H 68.1302 -1.6653 -3.39229 0
M  V30 630 H 68.4432 -3.95565 -6.63889 0
M  V30 631 H 66.7882 -3.55145 -5.97409 0
M  V30 632 H 69.9792 -2.13808 -4.16418 0
M  V30 633 H 70.1522 -3.1823 -5.64476 0
M  V30 634 N 63.5583 1.46682 -0.576371 0
M  V30 635 C 64.5213 2.28707 0.150239 0
M  V30 636 C 65.5213 1.38035 0.824794 0
M  V30 637 O 66.7113 1.60476 0.677719 0
M  V30 638 C 63.8433 3.18248 1.22192 0
M  V30 639 H 65.0363 2.94423 -0.570521 0
M  V30 640 H 62.5893 1.52688 -0.334078 0
M  V30 641 H 63.3243 2.57265 1.97447 0
M  V30 642 H 63.1093 3.85 0.742812 0
M  V30 643 H 64.5993 3.80001 1.73172 0
M  V30 644 N 65.0364 0.313813 1.54444 0
M  V30 645 C 65.9834 -0.55655 2.23989 0
M  V30 646 C 66.9534 -1.11943 1.22711 0
M  V30 647 O 68.1384 -1.16158 1.51367 0
M  V30 648 C 65.2784 -1.71635 2.99392 0
M  V30 649 C 64.3914 -1.18364 4.15468 0
M  V30 650 C 63.5264 -2.30834 4.78424 0
M  V30 651 C 62.5654 -1.74762 5.86622 0
M  V30 652 N 61.7024 -2.80855 6.43479 0
M  V30 653 H 66.5424 0.0430893 2.97969 0
M  V30 654 H 64.0794 0.0330359 1.47063 0
M  V30 655 H 66.0374 -2.39868 3.41349 0
M  V30 656 H 64.6674 -2.28742 2.27765 0
M  V30 657 H 63.7194 -0.393163 3.78363 0
M  V30 658 H 65.0314 -0.733262 4.93381 0
M  V30 659 H 64.1854 -3.0699 5.23299 0
M  V30 660 H 62.9244 -2.79204 3.99871 0
M  V30 661 H 61.9294 -0.970995 5.41158 0
M  V30 662 H 63.1544 -1.2728 6.67066 0
M  V30 663 H 61.1004 -3.28535 5.67804 0
M  V30 664 H 61.0174 -2.40351 7.16776 0
M  V30 665 H 62.2854 -3.5687 6.93011 0
M  V30 666 N 66.5145 -1.57545 0.0417849 0
M  V30 667 C 67.7605 -1.92601 -0.635021 0
M  V30 668 C 68.0935 -0.919627 -1.71045 0
M  V30 669 O 67.3685 0.0557892 -1.9442 0
M  V30 670 C 67.6515 -3.38085 -1.23979 0
M  V30 671 C 67.5045 -4.49467 -0.173057 0
M  V30 672 C 68.8235 -3.83776 -2.15416 0
M  V30 673 H 65.9425 -0.700397 -0.229374 0
M  V30 674 H 68.5845 -1.89728 0.101633 0
M  V30 675 H 66.7345 -3.40664 -1.86762 0
M  V30 676 H 68.4065 -4.59018 0.458312 0
M  V30 677 H 66.6495 -4.30909 0.499996 0
M  V30 678 H 67.3205 -5.48323 -0.636054 0
M  V30 679 H 69.7965 -3.83013 -1.62605 0
M  V30 680 H 68.6725 -4.8624 -2.54679 0
M  V30 681 H 68.9335 -3.19998 -3.05047 0
M  V30 682 N 67.9926 0.231505 -1.5589 0
M  V30 683 C 69.2386 0.95877 -1.78705 0
M  V30 684 C 69.5716 1.8438 -0.609725 0
M  V30 685 O 68.8466 1.90521 0.391426 0
M  V30 686 C 69.1296 1.8062 -3.11526 0
M  V30 687 C 68.9826 0.948328 -4.39689 0
M  V30 688 C 70.3016 2.78585 -3.40703 0
M  V30 689 H 67.4206 0.347129 -0.650131 0
M  V30 690 H 70.0626 0.228259 -1.88624 0
M  V30 691 H 68.2126 2.42902 -3.03201 0
M  V30 692 H 69.8846 0.343016 -4.60023 0
M  V30 693 H 68.1276 0.253314 -4.3306 0
M  V30 694 H 68.7986 1.57543 -5.29041 0
M  V30 695 H 71.2746 2.26439 -3.49091 0
M  V30 696 H 70.1506 3.34988 -4.34826 0
M  V30 697 H 70.4116 3.55825 -2.62375 0
M  V30 698 N 69.4707 1.49531 0.497807 0
M  V30 699 C 70.7187 1.58865 1.24926 0
M  V30 700 C 71.0397 0.278721 1.92998 0
M  V30 701 O 70.3097 -0.702144 1.82885 0
M  V30 702 H 68.8897 0.585343 0.464094 0
M  V30 703 H 71.5517 1.86174 0.57666 0
M  V30 704 H 70.6477 2.38633 2.01149 0
M  V30 705 N 70.9488 -0.749086 1.3866 0
M  V30 706 C 71.8958 -1.86291 1.36251 0
M  V30 707 C 72.8658 -1.64578 0.224347 0
M  V30 708 O 74.0508 -1.86181 0.417279 0
M  V30 709 C 71.1908 -3.23644 1.19786 0
M  V30 710 C 70.3038 -3.57158 2.43027 0
M  V30 711 C 69.4388 -4.83838 2.19258 0
M  V30 712 C 68.4778 -5.10152 3.38247 0
M  V30 713 N 67.6148 -6.28029 3.13884 0
M  V30 714 H 72.4548 -1.87685 2.3147 0
M  V30 715 H 69.9918 -0.917287 1.14997 0
M  V30 716 H 71.9498 -4.0291 1.08254 0
M  V30 717 H 70.5798 -3.21566 0.282031 0
M  V30 718 H 69.6318 -2.72701 2.65214 0
M  V30 719 H 70.9438 -3.7253 3.31697 0
M  V30 720 H 70.0978 -5.71057 2.04888 0
M  V30 721 H 68.8368 -4.70614 1.2796 0
M  V30 722 H 67.8418 -4.21401 3.53131 0
M  V30 723 H 69.0668 -5.25271 4.30427 0
M  V30 724 H 67.0128 -6.1612 2.25238 0
M  V30 725 H 66.9298 -6.43922 3.96106 0
M  V30 726 H 68.1978 -7.18124 3.03179 0
M  V30 727 N 72.4269 -1.23603 -0.977757 0
M  V30 728 C 73.3739 -1.01954 -2.07061 0
M  V30 729 C 74.3439 0.0638697 -1.65977 0
M  V30 730 O 75.5289 -0.0887624 -1.90593 0
M  V30 731 C 72.6689 -0.619658 -3.39491 0
M  V30 732 C 71.7819 -1.77547 -3.93829 0
M  V30 733 C 70.9169 -1.32212 -5.14484 0
M  V30 734 C 69.9559 -2.44852 -5.60994 0
M  V30 735 N 69.0929 -2.00456 -6.72876 0
M  V30 736 H 73.9329 -1.95495 -2.24913 0
M  V30 737 H 71.4699 -0.973861 -1.10247 0
M  V30 738 H 73.4279 -0.368898 -4.15566 0
M  V30 739 H 72.0579 0.278752 -3.21594 0
M  V30 740 H 71.1099 -2.14016 -3.14486 0
M  V30 741 H 72.4219 -2.62219 -4.24314 0
M  V30 742 H 71.5759 -1.02965 -5.97899 0
M  V30 743 H 70.3149 -0.445808 -4.85658 0
M  V30 744 H 69.3199 -2.74871 -4.76157 0
M  V30 745 H 70.5449 -3.33024 -5.91837 0
M  V30 746 H 68.4909 -1.15208 -6.45804 0
M  V30 747 H 68.4079 -2.78687 -7.02759 0
M  V30 748 H 69.6759 -1.7432 -7.59758 0
M  V30 749 N 73.905 1.17692 -1.04816 0
M  V30 750 C 74.835 2.23777 -0.666791 0
M  V30 751 C 75.816 1.66796 0.33361 0
M  V30 752 O 77.001 1.93039 0.212042 0
M  V30 753 C 74.131 3.47281 -0.0367933 0
M  V30 754 C 73.085 4.17059 -0.961546 0
M  V30 755 C 72.411 5.34342 -0.195626 0
M  V30 756 C 73.711 4.69713 -2.28402 0
M  V30 757 H 75.405 2.55933 -1.55367 0
M  V30 758 H 72.951 1.23019 -0.748484 0
M  V30 759 H 74.904 4.20706 0.241775 0
M  V30 760 H 73.628 3.14381 0.885004 0
M  V30 761 H 72.287 3.45541 -1.22462 0
M  V30 762 H 71.935 4.97692 0.728816 0
M  V30 763 H 71.635 5.81966 -0.811775 0
M  V30 764 H 73.159 6.10553 0.0757473 0
M  V30 765 H 74.573 5.34794 -2.06563 0
M  V30 766 H 72.97 5.279 -2.8538 0
M  V30 767 H 74.04 3.86726 -2.92525 0
M  V30 768 N 75.3831 0.828654 1.34056 0
M  V30 769 C 76.6291 0.42008 1.98402 0
M  V30 770 C 76.9621 -1.01564 1.65525 0
M  V30 771 O 76.2371 -1.70834 0.929831 0
M  V30 772 C 76.5201 0.62927 3.54559 0
M  V30 773 C 76.3731 2.11152 3.97159 0
M  V30 774 C 77.6921 0.0688756 4.40046 0
M  V30 775 H 74.8111 0.154104 0.720709 0
M  V30 776 H 77.4531 1.04228 1.5886 0
M  V30 777 H 75.6031 0.0996418 3.88372 0
M  V30 778 H 77.2751 2.70522 3.73651 0
M  V30 779 H 75.5181 2.59985 3.47261 0
M  V30 780 H 76.1891 2.20868 5.05887 0
M  V30 781 H 78.6651 0.521458 4.1282 0
M  V30 782 H 77.5411 0.245006 5.48353 0
M  V30 783 H 77.8021 -1.0266 4.30015 0
M  V30 784 N 76.8612 -1.46375 0.584142 0
M  V30 785 C 77.8082 -2.30323 -0.148286 0
M  V30 786 C 78.7782 -1.40703 -0.882713 0
M  V30 787 O 79.9632 -1.69651 -0.873099 0
M  V30 788 C 77.1032 -3.25196 -1.15507 0
M  V30 789 C 76.2162 -4.29915 -0.423943 0
M  V30 790 C 75.3512 -5.11914 -1.41838 0
M  V30 791 C 74.3902 -6.08381 -0.673736 0
M  V30 792 N 73.5272 -6.83242 -1.6163 0
M  V30 793 H 78.3672 -2.92427 0.573644 0
M  V30 794 H 75.9042 -1.44118 0.294703 0
M  V30 795 H 77.8622 -3.78646 -1.75166 0
M  V30 796 H 76.4922 -2.64898 -1.8447 0
M  V30 797 H 75.5442 -3.7931 0.287714 0
M  V30 798 H 76.8562 -4.98549 0.158128 0
M  V30 799 H 76.0102 -5.69648 -2.08773 0
M  V30 800 H 74.7492 -4.43243 -2.03438 0
M  V30 801 H 73.7542 -5.49799 0.00938483 0
M  V30 802 H 74.9792 -6.79071 -0.0631082 0
M  V30 803 H 72.9252 -6.1728 -2.22038 0
M  V30 804 H 72.8422 -7.48144 -1.08707 0
M  V30 805 H 74.1102 -7.45534 -2.27596 0
M  V30 806 N 78.3393 -0.321999 -1.54275 0
M  V30 807 C 79.2493 0.553631 -2.27974 0
M  V30 808 C 80.2653 1.13054 -1.32268 0
M  V30 809 O 81.4413 1.15084 -1.6528 0
M  V30 810 C 78.5063 1.69927 -3.02201 0
M  V30 811 C 77.5673 1.15433 -4.1349 0
M  V30 812 C 76.8003 2.24537 -4.84168 0
M  V30 813 O 77.0233 3.44852 -4.5435 0
M  V30 814 O 75.9573 1.90044 -5.7111 0
M  V30 815 H 79.7833 -0.0448345 -3.03667 0
M  V30 816 H 77.3683 -0.0877418 -1.49142 0
M  V30 817 H 79.2503 2.3663 -3.48689 0
M  V30 818 H 77.9253 2.28395 -2.29385 0
M  V30 819 H 76.8323 0.452436 -3.71354 0
M  V30 820 H 78.1653 0.614805 -4.88345 0
M  V30 821 N 79.8174 1.5752 -0.0501392 0
M  V30 822 C 81.0654 1.9227 0.622642 0
M  V30 823 C 81.3864 0.929083 1.71444 0
M  V30 824 O 80.6564 -0.0262186 1.95882 0
M  V30 825 H 79.2364 0.709739 0.232981 0
M  V30 826 H 81.8984 1.94628 -0.102898 0
M  V30 827 H 80.9944 2.93479 1.06191 0
M  V30 828 N 81.2955 -0.223234 1.56011 0
M  V30 829 C 82.7065 -0.790368 1.69145 0
M  V30 830 C 83.0575 -1.85055 0.651845 0
M  V30 831 O 82.1825 -2.15498 -0.197359 0
M  V30 832 C 82.7775 -1.4404 3.06656 0
M  V30 833 C 81.3365 -1.95494 3.2165 0
M  V30 834 C 80.4835 -0.814506 2.65068 0
M  V30 835 H 83.4345 0.00139011 1.587 0
M  V30 836 H 83.4555 -2.30916 3.0242 0
M  V30 837 H 82.9675 -0.668543 3.82298 0
M  V30 838 H 81.0685 -2.75487 2.50874 0
M  V30 839 H 81.1815 -2.13607 4.28846 0
M  V30 840 H 79.5455 -1.22137 2.23505 0
M  V30 841 H 80.3285 -0.0553515 3.43255 0
M  V30 842 N 82.7736 -1.49793 -0.48987 0
M  V30 843 C 84.0206 -1.59841 -1.24327 0
M  V30 844 C 84.3486 -0.290135 -1.92324 0
M  V30 845 O 83.6036 0.722749 -1.81865 0
M  V30 846 C 83.9026 -2.71488 -2.32441 0
M  V30 847 C 83.5686 -4.12614 -1.81826 0
M  V30 848 C 82.2306 -4.51017 -1.67742 0
M  V30 849 C 84.5826 -5.00892 -1.4407 0
M  V30 850 C 81.9106 -5.75459 -1.14297 0
M  V30 851 C 84.2626 -6.25863 -0.920742 0
M  V30 852 C 82.9266 -6.63086 -0.766383 0
M  V30 853 H 82.1966 -0.584899 -0.454944 0
M  V30 854 H 84.8436 -1.83663 -0.542215 0
M  V30 855 H 83.1486 -2.4168 -3.0838 0
M  V30 856 H 84.8456 -2.76469 -2.90458 0
M  V30 857 H 81.4356 -3.82307 -1.93751 0
M  V30 858 H 85.6196 -4.7187 -1.53794 0
M  V30 859 H 80.8756 -6.02989 -1.01068 0
M  V30 860 H 85.0496 -6.9364 -0.619448 0
M  V30 861 H 82.6766 -7.59393 -0.350083 0
M  V30 862 N 84.2517 0.741722 -1.39055 0
M  V30 863 C 85.4997 1.49818 -1.35643 0
M  V30 864 C 85.8207 1.94938 0.0491642 0
M  V30 865 O 85.0907 1.68505 0.999141 0
M  V30 866 H 83.6707 0.555755 -0.499144 0
M  V30 867 H 86.3327 0.880957 -1.73854 0
M  V30 868 H 85.4287 2.38348 -2.01486 0
M  V30 869 N 85.7298 1.2412 0.971189 0
M  V30 870 C 86.9578 1.10575 1.74874 0
M  V30 871 C 87.3728 -0.342017 1.85676 0
M  V30 872 O 86.7298 -1.23617 1.34258 0
M  V30 873 C 86.7808 1.73579 3.171 0
M  V30 874 O 86.5018 3.12695 3.06844 0
M  V30 875 C 88.0028 1.65598 4.11208 0
M  V30 876 H 85.2228 0.386504 0.548503 0
M  V30 877 H 87.7668 1.64156 1.21955 0
M  V30 878 H 85.9218 1.24009 3.67016 0
M  V30 879 H 86.3358 3.43412 3.96445 0
M  V30 880 H 87.8098 2.1437 5.08674 0
M  V30 881 H 88.2868 0.616532 4.34851 0
M  V30 882 H 88.8928 2.14578 3.67201 0
M  V30 883 N 87.2079 -1.17134 1.05439 0
M  V30 884 C 88.1379 -2.2342 0.678649 0
M  V30 885 C 89.1189 -1.66971 -0.32476 0
M  V30 886 O 90.3039 -1.93149 -0.201802 0
M  V30 887 C 87.4339 -3.47256 0.0552099 0
M  V30 888 C 86.3879 -4.16543 0.98365 0
M  V30 889 C 85.7139 -5.34231 0.223961 0
M  V30 890 C 87.0139 -4.68495 2.3089 0
M  V30 891 H 88.7079 -2.55105 1.56722 0
M  V30 892 H 86.2539 -1.2262 0.754998 0
M  V30 893 H 88.2069 -4.20828 -0.21946 0
M  V30 894 H 86.9309 -3.14846 -0.868319 0
M  V30 895 H 85.5899 -3.44887 1.24293 0
M  V30 896 H 85.2379 -4.98071 -0.702412 0
M  V30 897 H 84.9379 -5.81527 0.842627 0
M  V30 898 H 86.4619 -6.10585 -0.0433671 0
M  V30 899 H 87.8759 -5.33691 2.09396 0
M  V30 900 H 86.2729 -5.26379 2.88176 0
M  V30 901 H 87.3429 -3.85169 2.94572 0
M  V30 902 N 88.686 -0.835752 -1.33615 0
M  V30 903 C 89.932 -0.430596 -1.98176 0
M  V30 904 C 90.265 1.00684 -1.66061 0
M  V30 905 O 89.54 1.70339 -0.938877 0
M  V30 906 C 89.823 -0.648065 -3.5422 0
M  V30 907 C 89.676 -2.13255 -3.96033 0
M  V30 908 C 90.995 -0.0922113 -4.40003 0
M  V30 909 H 88.114 -0.157924 -0.719881 0
M  V30 910 H 90.756 -1.05069 -1.58305 0
M  V30 911 H 88.906 -0.120237 -3.88314 0
M  V30 912 H 90.578 -2.725 -3.72211 0
M  V30 913 H 88.821 -2.61823 -3.45878 0
M  V30 914 H 89.492 -2.23547 -5.04708 0
M  V30 915 H 91.968 -0.543343 -4.12537 0
M  V30 916 H 90.844 -0.274083 -5.48215 0
M  V30 917 H 91.105 1.00378 -4.30554 0
M  V30 918 N 90.1641 1.46063 -0.591896 0
M  V30 919 C 91.3941 2.06418 -0.0867676 0
M  V30 920 C 91.8021 1.43975 1.22751 0
M  V30 921 O 91.1451 0.542531 1.75506 0
M  V30 922 C 91.2071 3.59213 0.143725 0
M  V30 923 C 90.8711 4.439 -1.08635 0
M  V30 924 C 91.8681 4.79864 -2.00067 0
M  V30 925 C 89.5531 4.84896 -1.31077 0
M  V30 926 C 91.5471 5.55661 -3.12282 0
M  V30 927 C 89.2341 5.6045 -2.43596 0
M  V30 928 C 90.2321 5.95747 -3.34027 0
M  V30 929 O 89.9201 6.69772 -4.4459 0
M  V30 930 H 89.6521 0.673443 -0.0587447 0
M  V30 931 H 92.2061 1.88539 -0.814994 0
M  V30 932 H 90.4361 3.75433 0.926668 0
M  V30 933 H 92.1251 4.01463 0.5985 0
M  V30 934 H 92.8911 4.48763 -1.83947 0
M  V30 935 H 88.7701 4.56867 -0.61594 0
M  V30 936 H 92.3141 5.8313 -3.82891 0
M  V30 937 H 88.2111 5.90965 -2.59674 0
M  V30 938 H 88.9791 6.88207 -4.43073 0
M  V30 939 N 91.6422 0.330177 1.54103 0
M  V30 940 C 92.8702 -0.272179 2.05102 0
M  V30 941 C 93.2852 -1.45267 1.20595 0
M  V30 942 O 92.6422 -1.8094 0.238144 0
M  V30 943 C 92.6932 -0.70023 3.54653 0
M  V30 944 O 92.4142 0.433301 4.35952 0
M  V30 945 C 93.9152 -1.3647 4.21771 0
M  V30 946 H 91.1352 -0.0549159 0.668749 0
M  V30 947 H 93.6792 0.478285 1.98828 0
M  V30 948 H 91.8342 -1.40066 3.61193 0
M  V30 949 H 92.2482 0.0947539 5.24414 0
M  V30 950 H 93.7222 -1.61509 5.27843 0
M  V30 951 H 94.1992 -2.31409 3.73292 0
M  V30 952 H 94.8052 -0.706675 4.19388 0
M  V30 953 N 93.1203 -1.57491 0.0584922 0
M  V30 954 C 94.3693 -1.92155 -0.613146 0
M  V30 955 C 94.6823 -0.939334 -1.71569 0
M  V30 956 O 95.8883 -1.17829 -2.44599 0
M  V30 957 C 94.3443 -3.41303 -1.14195 0
M  V30 958 C 93.9523 -4.47944 -0.0711265 0
M  V30 959 C 95.6963 -3.84988 -1.78841 0
M  V30 960 C 93.6033 -5.88212 -0.613225 0
M  V30 961 H 92.5333 -0.717162 -0.232796 0
M  V30 962 H 95.1843 -1.83049 0.12857 0
M  V30 963 H 93.5663 -3.45437 -1.93621 0
M  V30 964 H 94.7403 -4.55408 0.702836 0
M  V30 965 H 93.0553 -4.13644 0.478313 0
M  V30 966 H 95.6523 -4.87159 -2.20408 0
M  V30 967 H 95.9953 -3.21632 -2.64308 0
M  V30 968 H 96.5283 -3.83401 -1.06059 0
M  V30 969 H 93.2673 -6.55183 0.203978 0
M  V30 970 H 92.7873 -5.84294 -1.35501 0
M  V30 971 H 94.4663 -6.37687 -1.09383 0
M  V30 972 N 94.5984 0.214957 -1.56127 0
M  V30 973 C 95.5454 1.26642 -1.92952 0
M  V30 974 C 96.5154 1.46244 -0.78753 0
M  V30 975 O 97.7004 1.59704 -1.04399 0
M  V30 976 C 94.8404 2.6104 -2.25726 0
M  V30 977 C 93.9534 2.49183 -3.52891 0
M  V30 978 C 93.0884 3.76149 -3.7508 0
M  V30 979 C 92.1274 3.59041 -4.95738 0
M  V30 980 N 91.2644 4.77972 -5.14283 0
M  V30 981 H 96.1044 0.945384 -2.82607 0
M  V30 982 H 93.6414 0.455489 -1.3987 0
M  V30 983 H 95.5994 3.39313 -2.42739 0
M  V30 984 H 94.2294 2.91227 -1.39236 0
M  V30 985 H 93.2814 1.6231 -3.44034 0
M  V30 986 H 94.5934 2.32466 -4.41318 0
M  V30 987 H 93.7474 4.62865 -3.92226 0
M  V30 988 H 92.4864 3.95799 -2.84947 0
M  V30 989 H 91.4914 2.7071 -4.78535 0
M  V30 990 H 92.7164 3.40856 -5.87362 0
M  V30 991 H 90.6624 4.97923 -4.27093 0
M  V30 992 H 90.5794 4.64006 -5.96853 0
M  V30 993 H 91.8474 5.66096 -5.35869 0
M  V30 994 N 96.0765 1.50051 0.48192 0
M  V30 995 C 97.0085 1.64263 1.59844 0
M  V30 996 C 98.0215 0.52451 1.54119 0
M  V30 997 O 99.2105 0.797293 1.59704 0
M  V30 998 C 96.3105 1.60102 2.98698 0
M  V30 999 C 95.4835 2.87767 3.29407 0
M  V30 1000 C 94.5425 2.76397 4.47762 0
M  V30 1001 O 93.5685 3.50348 4.48603 0
M  V30 1002 N 94.7705 1.89222 5.48794 0
M  V30 1003 H 97.5355 2.60566 1.48073 0
M  V30 1004 H 95.0965 1.47379 0.670149 0
M  V30 1005 H 97.0885 1.50123 3.75826 0
M  V30 1006 H 95.6585 0.715798 3.04294 0
M  V30 1007 H 94.8785 3.11954 2.40994 0
M  V30 1008 H 96.1665 3.72365 3.4673 0
M  V30 1009 H 95.5645 1.28434 5.50928 0
M  V30 1010 H 94.1215 1.85154 6.24949 0
M  V30 1011 N 97.5546 -0.734337 1.39446 0
M  V30 1012 C 98.4876 -1.85715 1.32609 0
M  V30 1013 C 99.4656 -1.6137 0.199636 0
M  V30 1014 O 100.65 -1.84626 0.380195 0
M  V30 1015 C 97.7766 -3.21709 1.05929 0
M  V30 1016 C 96.8226 -3.64913 2.20773 0
M  V30 1017 S 97.6556 -3.74203 3.83056 0
M  V30 1018 C 98.8116 -5.12986 3.58603 0
M  V30 1019 H 99.0446 -1.91232 2.27635 0
M  V30 1020 H 96.5776 -0.899263 1.25509 0
M  V30 1021 H 98.5356 -4.00236 0.912203 0
M  V30 1022 H 97.1966 -3.13848 0.125883 0
M  V30 1023 H 96.3896 -4.63606 1.97699 0
M  V30 1024 H 95.9916 -2.93593 2.31688 0
M  V30 1025 H 98.2836 -5.99339 3.15909 0
M  V30 1026 H 99.2266 -5.41088 4.5676 0
M  V30 1027 H 99.6346 -4.82694 2.9269 0
M  V30 1028 N 99.0327 -1.24633 -0.964593 0
M  V30 1029 C 99.9797 -1.04144 -2.05968 0
M  V30 1030 C 100.95 0.046262 -1.66036 0
M  V30 1031 O 102.135 -0.108972 -1.90489 0
M  V30 1032 C 99.2747 -0.65563 -3.38815 0
M  V30 1033 C 98.3877 -1.81714 -3.91923 0
M  V30 1034 C 97.5227 -1.37662 -5.13052 0
M  V30 1035 C 96.5617 -2.50788 -5.58365 0
M  V30 1036 N 95.6987 -2.07582 -6.70712 0
M  V30 1037 H 100.539 -1.9787 -2.22827 0
M  V30 1038 H 98.0757 -0.9855 -1.09208 0
M  V30 1039 H 100.034 -0.412954 -4.15151 0
M  V30 1040 H 98.6637 0.244627 -3.21872 0
M  V30 1041 H 97.7157 -2.1734 -3.12198 0
M  V30 1042 H 99.0277 -2.66705 -4.21509 0
M  V30 1043 H 98.1817 -1.093 -5.96773 0
M  V30 1044 H 96.9207 -0.497293 -4.85158 0
M  V30 1045 H 95.9257 -2.79906 -4.73215 0
M  V30 1046 H 97.1507 -3.39283 -5.88272 0
M  V30 1047 H 95.0967 -1.22051 -6.44546 0
M  V30 1048 H 95.0137 -2.86125 -6.99763 0
M  V30 1049 H 96.2817 -1.82369 -7.57867 0
M  V30 1050 N 100.511 1.16574 -1.06058 0
M  V30 1051 C 101.444 2.19798 -0.61352 0
M  V30 1052 C 102.422 1.58509 0.362453 0
M  V30 1053 O 103.606 1.86527 0.271994 0
M  V30 1054 C 100.733 3.3855 0.100915 0
M  V30 1055 C 99.7788 4.18317 -0.831438 0
M  V30 1056 S 100.612 4.82375 -2.32539 0
M  V30 1057 C 101.768 6.04508 -1.62238 0
M  V30 1058 H 102.001 2.5738 -1.48805 0
M  V30 1059 H 99.5338 1.27327 -0.873338 0
M  V30 1060 H 101.492 4.07358 0.506898 0
M  V30 1061 H 100.153 2.99338 0.951604 0
M  V30 1062 H 99.3458 5.03232 -0.278071 0
M  V30 1063 H 98.9478 3.5499 -1.17719 0
M  V30 1064 H 101.24 6.71133 -0.926622 0
M  V30 1065 H 102.183 6.64389 -2.44934 0
M  V30 1066 H 102.591 5.53559 -1.106 0
M  V30 1067 N 101.989 0.842826 1.3317 0
M  V30 1068 C 103.219 0.453397 2.01564 0
M  V30 1069 C 103.627 -0.951147 1.63554 0
M  V30 1070 O 102.97 -1.63021 0.846746 0
M  V30 1071 C 103.032 0.499013 3.5602 0
M  V30 1072 C 102.696 1.86037 4.1742 0
M  V30 1073 C 103.693 2.82416 4.36506 0
M  V30 1074 C 101.378 2.15428 4.53757 0
M  V30 1075 C 103.372 4.06346 4.91082 0
M  V30 1076 C 101.059 3.39615 5.0804 0
M  V30 1077 C 102.057 4.3489 5.26649 0
M  V30 1078 O 101.745 5.5688 5.79776 0
M  V30 1079 H 101.477 0.177871 0.652179 0
M  V30 1080 H 104.031 1.13808 1.70988 0
M  V30 1081 H 102.261 -0.242467 3.85939 0
M  V30 1082 H 103.95 0.126852 4.05702 0
M  V30 1083 H 104.716 2.6101 4.08777 0
M  V30 1084 H 100.595 1.42061 4.38565 0
M  V30 1085 H 104.139 4.80722 5.05522 0
M  V30 1086 H 100.036 3.60876 5.352 0
M  V30 1087 H 100.804 5.58674 5.98185 0
M  V30 1088 N 103.467 -1.45747 0.599634 0
M  V30 1089 C 104.883 -1.57424 0.26264 0
M  V30 1090 C 105.083 -1.59222 -1.23493 0
M  V30 1091 O 104.139 -1.51825 -2.01756 0
M  V30 1092 C 105.452 -2.86061 0.926795 0
M  V30 1093 C 107 -2.99722 0.901967 0
M  V30 1094 C 107.475 -4.31119 1.54598 0
M  V30 1095 N 108.966 -4.37858 1.5111 0
M  V30 1096 C 109.701 -5.3818 1.97863 0
M  V30 1097 N 109.197 -6.45083 2.52666 0
M  V30 1098 N 110.99 -5.29487 1.88679 0
M  V30 1099 H 103.141 -1.42823 1.57211 0
M  V30 1100 H 105.404 -0.68235 0.658105 0
M  V30 1101 H 105.11 -2.90605 1.98095 0
M  V30 1102 H 104.984 -3.74563 0.445238 0
M  V30 1103 H 107.371 -2.9475 -0.143617 0
M  V30 1104 H 107.452 -2.12652 1.42171 0
M  V30 1105 H 107.096 -4.36849 2.59085 0
M  V30 1106 H 107.026 -5.16992 1.00132 0
M  V30 1107 H 109.517 -3.61209 1.11068 0
M  V30 1108 H 109.83 -7.17869 2.86155 0
M  V30 1109 H 108.175 -6.45856 2.56701 0
M  V30 1110 H 111.366 -4.44877 1.4561 0
M  V30 1111 H 111.539 -6.07524 2.25429 0
M  V30 1112 N 104.945 -0.338344 -1.53925 0
M  V30 1113 C 106.193 0.259245 -2.0043 0
M  V30 1114 C 106.514 1.51484 -1.22791 0
M  V30 1115 O 105.784 1.93037 -0.33368 0
M  V30 1116 H 104.364 0.0987845 -0.740439 0
M  V30 1117 H 107.026 -0.458302 -1.89435 0
M  V30 1118 H 106.122 0.505334 -3.07982 0
M  V30 1119 N 106.423 1.57458 -0.0668435 0
M  V30 1120 C 107.67 1.93301 0.603406 0
M  V30 1121 C 107.998 0.946486 1.69917 0
M  V30 1122 O 107.253 -0.0387021 1.95662 0
M  V30 1123 C 107.552 3.35784 1.22409 0
M  V30 1124 C 107.218 4.50179 0.254955 0
M  V30 1125 C 105.88 4.81199 -0.0116746 0
M  V30 1126 C 108.232 5.19598 -0.408338 0
M  V30 1127 C 105.56 5.78978 -0.94877 0
M  V30 1128 C 107.912 6.18381 -1.33372 0
M  V30 1129 C 106.576 6.47821 -1.60887 0
M  V30 1130 H 105.846 0.707338 0.220802 0
M  V30 1131 H 108.493 1.91012 -0.136665 0
M  V30 1132 H 106.798 3.34515 2.03978 0
M  V30 1133 H 108.495 3.60804 1.74989 0
M  V30 1134 H 105.085 4.25983 0.472954 0
M  V30 1135 H 109.269 4.95832 -0.215456 0
M  V30 1136 H 104.525 6.00115 -1.16925 0
M  V30 1137 H 108.699 6.71277 -1.85367 0
M  V30 1138 H 106.326 7.23399 -2.33661 0
M  V30 1139 N 107.901 -0.206675 1.56239 0
M  V30 1140 C 109.129 -0.945345 1.8404 0
M  V30 1141 C 109.544 -1.77336 0.647885 0
M  V30 1142 O 108.901 -1.78425 -0.383511 0
M  V30 1143 C 108.952 -1.8509 3.10522 0
M  V30 1144 O 108.673 -1.05634 4.25174 0
M  V30 1145 C 110.174 -2.70222 3.51418 0
M  V30 1146 H 107.394 -0.276372 0.61144 0
M  V30 1147 H 109.938 -0.217417 2.03341 0
M  V30 1148 H 108.093 -2.53259 2.93153 0
M  V30 1149 H 108.507 -1.67238 4.97124 0
M  V30 1150 H 109.981 -3.29438 4.42916 0
M  V30 1151 H 110.458 -3.43358 2.73864 0
M  V30 1152 H 111.064 -2.07443 3.71278 0
M  V30 1153 N 109.379 -1.50304 -0.473955 0
M  V30 1154 C 110.326 -1.68959 -1.57231 0
M  V30 1155 C 111.296 -0.530899 -1.57387 0
M  V30 1156 O 112.481 -0.761133 -1.74961 0
M  V30 1157 C 109.621 -1.7871 -2.95223 0
M  V30 1158 C 108.734 -3.06061 -3.04878 0
M  V30 1159 C 107.869 -3.06626 -4.33767 0
M  V30 1160 C 106.908 -4.28443 -4.37154 0
M  V30 1161 N 106.045 -4.26763 -5.5751 0
M  V30 1162 H 110.885 -2.6273 -1.40631 0
M  V30 1163 H 108.422 -1.30241 -0.683789 0
M  V30 1164 H 110.38 -1.82344 -3.75242 0
M  V30 1165 H 109.01 -0.883806 -3.10465 0
M  V30 1166 H 108.062 -3.11911 -2.17751 0
M  V30 1167 H 109.374 -3.96039 -3.0324 0
M  V30 1168 H 108.528 -3.08973 -5.22131 0
M  V30 1169 H 107.267 -2.14473 -4.3801 0
M  V30 1170 H 106.272 -4.2631 -3.47188 0
M  V30 1171 H 107.497 -5.2182 -4.34605 0
M  V30 1172 H 105.443 -3.37462 -5.62544 0
M  V30 1173 H 105.36 -5.10507 -5.57601 0
M  V30 1174 H 106.628 -4.33253 -6.48006 0
M  V30 1175 N 110.857 0.726932 -1.39834 0
M  V30 1176 C 111.79 1.8501 -1.33592 0
M  V30 1177 C 112.768 1.61262 -0.208191 0
M  V30 1178 O 113.952 1.84422 -0.389981 0
M  V30 1179 C 111.079 3.21143 -1.07633 0
M  V30 1180 C 110.125 3.63737 -2.22705 0
M  V30 1181 S 110.958 3.72167 -3.85035 0
M  V30 1182 C 112.114 5.11077 -3.61318 0
M  V30 1183 H 112.347 1.90022 -2.28646 0
M  V30 1184 H 109.88 0.892595 -1.25985 0
M  V30 1185 H 111.838 3.99747 -0.933415 0
M  V30 1186 H 110.499 3.13776 -0.142526 0
M  V30 1187 H 109.692 4.62551 -2.00155 0
M  V30 1188 H 109.294 2.9236 -2.33242 0
M  V30 1189 H 111.586 5.97656 -3.19083 0
M  V30 1190 H 112.529 5.38658 -4.59623 0
M  V30 1191 H 112.937 4.81135 -2.95245 0
M  V30 1192 N 112.336 1.25143 0.95797 0
M  V30 1193 C 113.747 1.08851 1.51685 0
M  V30 1194 C 114.098 -0.33687 1.93286 0
M  V30 1195 O 113.223 -1.22644 1.7829 0
M  V30 1196 C 113.818 1.96978 2.75654 0
M  V30 1197 C 112.377 1.84881 3.27866 0
M  V30 1198 C 111.524 1.91329 2.0072 0
M  V30 1199 H 114.475 1.38478 0.77522 0
M  V30 1200 H 114.496 1.5078 3.4935 0
M  V30 1201 H 114.008 3.00712 2.45345 0
M  V30 1202 H 112.109 0.840182 3.63004 0
M  V30 1203 H 112.222 2.6951 3.96107 0
M  V30 1204 H 110.586 1.35174 2.15871 0
M  V30 1205 H 111.369 2.96661 1.72764 0
M  V30 1206 N 113.814 -1.1601 1.06675 0
M  V30 1207 C 114.764 -2.18512 0.650888 0
M  V30 1208 C 115.748 -1.57677 -0.320441 0
M  V30 1209 O 116.94 -1.76482 -0.135266 0
M  V30 1210 C 114.069 -3.43273 0.0429255 0
M  V30 1211 C 113.155 -4.11176 1.03898 0
M  V30 1212 N 113.546 -4.54672 2.216 0
M  V30 1213 C 111.844 -4.37417 0.870779 0
M  V30 1214 C 112.545 -5.07248 2.84736 0
M  V30 1215 N 111.521 -5.0037 2.12441 0
M  V30 1216 H 115.323 -2.49863 1.54745 0
M  V30 1217 H 112.837 -1.32503 0.938975 0
M  V30 1218 H 114.834 -4.16006 -0.272857 0
M  V30 1219 H 113.494 -3.13408 -0.84884 0
M  V30 1220 H 114.505 -4.4828 2.59356 0
M  V30 1221 H 111.182 -4.17488 0.0313293 0
M  V30 1222 H 112.572 -5.50912 3.84636 0
M  V30 1223 N 115.292 -0.849877 -1.32721 0
M  V30 1224 C 116.538 -0.451591 -1.97708 0
M  V30 1225 C 116.871 0.989175 -1.6712 0
M  V30 1226 O 116.146 1.69334 -0.956891 0
M  V30 1227 C 116.429 -0.685598 -3.53513 0
M  V30 1228 C 116.282 -2.17444 -3.93749 0
M  V30 1229 C 117.601 -0.138874 -4.39881 0
M  V30 1230 H 114.72 -0.16555 -0.718166 0
M  V30 1231 H 117.362 -1.06742 -1.57182 0
M  V30 1232 H 115.512 -0.161416 -3.88165 0
M  V30 1233 H 117.184 -2.76433 -3.693 0
M  V30 1234 H 115.427 -2.65476 -3.43081 0
M  V30 1235 H 116.098 -2.28888 -5.02309 0
M  V30 1236 H 118.574 -0.587068 -4.11938 0
M  V30 1237 H 117.45 -0.332213 -5.47894 0
M  V30 1238 H 117.711 0.95806 -4.31594 0
M  V30 1239 N 116.77 1.45427 -0.607355 0
M  V30 1240 C 117.702 2.2871 0.149752 0
M  V30 1241 C 118.715 1.39937 0.831958 0
M  V30 1242 O 119.904 1.64313 0.697385 0
M  V30 1243 C 117.004 3.15673 1.23304 0
M  V30 1244 C 116.177 4.32722 0.637996 0
M  V30 1245 C 115.236 5.00895 1.61215 0
M  V30 1246 O 114.262 5.57697 1.13854 0
M  V30 1247 N 115.464 5.00159 2.94655 0
M  V30 1248 H 118.229 2.94328 -0.564882 0
M  V30 1249 H 115.79 1.55612 -0.446823 0
M  V30 1250 H 117.782 3.58144 1.88454 0
M  V30 1251 H 116.352 2.51965 1.8502 0
M  V30 1252 H 115.572 3.93734 -0.191572 0
M  V30 1253 H 116.86 5.08321 0.220665 0
M  V30 1254 H 116.258 4.553 3.35735 0
M  V30 1255 H 114.815 5.46495 3.55228 0
M  V30 1256 N 118.248 0.346503 1.53744 0
M  V30 1257 C 119.478 -0.250047 2.05081 0
M  V30 1258 C 119.886 -1.44529 1.22098 0
M  V30 1259 O 119.229 -1.81992 0.249917 0
M  V30 1260 C 119.291 -0.725934 3.52094 0
M  V30 1261 C 118.955 0.350053 4.55657 0
M  V30 1262 C 119.952 1.19372 5.0601 0
M  V30 1263 C 117.637 0.504827 4.99757 0
M  V30 1264 C 119.631 2.17768 5.99046 0
M  V30 1265 C 117.318 1.49218 5.92602 0
M  V30 1266 C 118.316 2.32706 6.42135 0
M  V30 1267 O 118.004 3.2976 7.33153 0
M  V30 1268 H 117.736 -0.0515469 0.674032 0
M  V30 1269 H 120.29 0.497559 1.99282 0
M  V30 1270 H 118.52 -1.52483 3.55367 0
M  V30 1271 H 120.209 -1.24336 3.86388 0
M  V30 1272 H 120.975 1.08525 4.72702 0
M  V30 1273 H 116.854 -0.135178 4.60802 0
M  V30 1274 H 120.398 2.82971 6.37631 0
M  V30 1275 H 116.295 1.6012 6.25325 0
M  V30 1276 H 117.063 3.25265 7.51096 0
M  V30 1277 N 119.726 -1.57421 0.075193 0
M  V30 1278 C 120.975 -1.92794 -0.592731 0
M  V30 1279 C 121.288 -0.957478 -1.70563 0
M  V30 1280 O 122.494 -1.20417 -2.43335 0
M  V30 1281 C 120.95 -3.42495 -1.10569 0
M  V30 1282 C 120.558 -4.47994 -0.0236121 0
M  V30 1283 C 122.302 -3.86864 -1.74748 0
M  V30 1284 C 120.209 -5.88829 -0.550803 0
M  V30 1285 H 119.139 -0.719591 -0.225177 0
M  V30 1286 H 121.79 -1.82902 0.147978 0
M  V30 1287 H 120.172 -3.47471 -1.89947 0
M  V30 1288 H 121.346 -4.54637 0.751099 0
M  V30 1289 H 119.661 -4.13113 0.522159 0
M  V30 1290 H 122.258 -4.8947 -2.15229 0
M  V30 1291 H 122.601 -3.24417 -2.60882 0
M  V30 1292 H 123.134 -3.84504 -1.01986 0
M  V30 1293 H 119.873 -6.54929 0.273457 0
M  V30 1294 H 119.393 -5.85698 -1.29296 0
M  V30 1295 H 121.072 -6.38811 -1.02613 0
M  V30 1296 N 121.204 0.198386 -1.56346 0
M  V30 1297 C 122.154 1.2499 -1.90687 0
M  V30 1298 C 123.138 1.41158 -0.772217 0
M  V30 1299 O 124.33 1.43584 -1.03502 0
M  V30 1300 C 121.459 2.59542 -2.24706 0
M  V30 1301 C 120.545 2.47181 -3.44619 0
M  V30 1302 N 120.936 2.04495 -4.62618 0
M  V30 1303 C 119.234 2.78082 -3.48692 0
M  V30 1304 C 119.935 2.03945 -5.44776 0
M  V30 1305 N 118.911 2.45323 -4.85095 0
M  V30 1306 H 122.713 0.911149 -2.7942 0
M  V30 1307 H 120.227 0.40684 -1.57221 0
M  V30 1308 H 122.224 3.3549 -2.47491 0
M  V30 1309 H 120.884 2.94244 -1.37298 0
M  V30 1310 H 121.895 1.75256 -4.87345 0
M  V30 1311 H 118.572 3.17002 -2.71691 0
M  V30 1312 H 119.962 1.72872 -6.4928 0
M  V30 1313 N 122.682 1.50554 0.465978 0
M  V30 1314 C 123.91 1.65563 1.24083 0
M  V30 1315 C 124.325 0.341051 1.85694 0
M  V30 1316 O 123.682 -0.677543 1.69457 0
M  V30 1317 C 123.733 2.75051 2.34583 0
M  V30 1318 O 123.454 4.01413 1.75497 0
M  V30 1319 C 124.955 3.01078 3.25372 0
M  V30 1320 H 122.175 0.55638 0.375077 0
M  V30 1321 H 124.719 1.96807 0.555624 0
M  V30 1322 H 122.874 2.46486 2.9887 0
M  V30 1323 H 123.288 4.62002 2.48303 0
M  V30 1324 H 124.762 3.81339 3.99105 0
M  V30 1325 H 125.239 2.12349 3.84453 0
M  V30 1326 H 125.845 3.31194 2.66816 0
M  V30 1327 N 124.16 -0.719506 1.40217 0
M  V30 1328 C 125.07 -1.86378 1.42479 0
M  V30 1329 C 126.086 -1.71073 0.317834 0
M  V30 1330 O 127.262 -1.93406 0.561794 0
M  V30 1331 C 124.327 -3.22136 1.28178 0
M  V30 1332 C 123.388 -3.49723 2.48982 0
M  V30 1333 C 122.621 -4.79004 2.35353 0
M  V30 1334 O 122.844 -5.53821 1.36524 0
M  V30 1335 O 121.778 -5.06839 3.2465 0
M  V30 1336 H 125.604 -1.87425 2.38968 0
M  V30 1337 H 123.189 -0.869405 1.21498 0
M  V30 1338 H 125.071 -4.03234 1.22395 0
M  V30 1339 H 123.746 -3.21825 0.347934 0
M  V30 1340 H 122.653 -2.6865 2.60342 0
M  V30 1341 H 123.986 -3.54828 3.41113 0
M  V30 1342 N 125.638 -1.25649 -0.95132 0
M  V30 1343 C 126.601 -1.06399 -2.03007 0
M  V30 1344 C 127.601 -0.0156794 -1.60792 0
M  V30 1345 O 128.791 -0.25817 -1.72276 0
M  V30 1346 C 125.923 -0.616184 -3.35285 0
M  V30 1347 H 127.116 -2.02164 -2.21517 0
M  V30 1348 H 124.669 -1.08103 -1.12887 0
M  V30 1349 H 125.404 0.343917 -3.22471 0
M  V30 1350 H 125.189 -1.37301 -3.67275 0
M  V30 1351 H 126.679 -0.503032 -4.14559 0
M  V30 1352 N 127.117 1.15442 -1.07289 0
M  V30 1353 C 128.342 1.90638 -0.816828 0
M  V30 1354 C 128.767 1.77445 0.624083 0
M  V30 1355 O 128.125 1.10671 1.43602 0
M  V30 1356 C 128.173 3.39008 -1.22906 0
M  V30 1357 O 127.277 4.10701 -0.373975 0
M  V30 1358 H 126.618 0.593555 -0.297638 0
M  V30 1359 H 129.148 1.46198 -1.43134 0
M  V30 1360 H 129.158 3.89801 -1.20497 0
M  V30 1361 H 127.833 3.47929 -2.27856 0
M  V30 1362 H 126.41 3.70046 -0.460499 0
M  V30 1363 N 128.595 0.856903 1.32268 0
M  V30 1364 C 129.505 0.306131 2.32594 0
M  V30 1365 C 130.521 -0.577209 1.64147 0
M  V30 1366 O 131.697 -0.477043 1.95669 0
M  V30 1367 C 128.762 -0.494561 3.43154 0
M  V30 1368 C 127.823 0.415186 4.27288 0
M  V30 1369 C 127.056 -0.347387 5.32568 0
M  V30 1370 O 127.279 -1.57708 5.48165 0
M  V30 1371 O 126.213 0.287982 6.01211 0
M  V30 1372 H 130.039 1.13737 2.81598 0
M  V30 1373 H 127.624 0.619902 1.35932 0
M  V30 1374 H 129.506 -0.948944 4.10576 0
M  V30 1375 H 128.181 -1.30257 2.96336 0
M  V30 1376 H 127.088 0.917793 3.62667 0
M  V30 1377 H 128.421 1.18844 4.77637 0
M  V30 1378 N 130.073 -1.45103 0.615059 0
M  V30 1379 C 131.298 -2.07064 0.117988 0
M  V30 1380 C 131.723 -1.4554 -1.19163 0
M  V30 1381 O 131.081 -0.550855 -1.72729 0
M  V30 1382 C 131.129 -3.606 -0.000288387 0
M  V30 1383 O 130.233 -3.98847 -1.04856 0
M  V30 1384 H 129.574 -0.659467 0.0774581 0
M  V30 1385 H 132.104 -1.86236 0.847186 0
M  V30 1386 H 132.114 -4.07529 -0.196091 0
M  V30 1387 H 130.789 -4.04765 0.955932 0
M  V30 1388 H 129.366 -3.63577 -0.828619 0
M  V30 1389 N 131.551 -0.354651 -1.53558 0
M  V30 1390 C 132.481 0.489091 -2.2832 0
M  V30 1391 C 133.462 1.09324 -1.30316 0
M  V30 1392 O 134.647 1.11255 -1.59173 0
M  V30 1393 C 131.777 1.63456 -3.0643 0
M  V30 1394 C 130.731 1.1582 -4.12031 0
M  V30 1395 C 130.057 2.39305 -4.7816 0
M  V30 1396 C 131.357 0.250731 -5.21698 0
M  V30 1397 H 133.051 -0.134614 -2.99097 0
M  V30 1398 H 130.597 -0.0661826 -1.43848 0
M  V30 1399 H 132.55 2.23136 -3.57475 0
M  V30 1400 H 131.274 2.28533 -2.33325 0
M  V30 1401 H 129.933 0.584146 -3.61916 0
M  V30 1402 H 129.581 3.02814 -4.01637 0
M  V30 1403 H 129.281 2.08109 -5.49513 0
M  V30 1404 H 130.805 2.99691 -5.31994 0
M  V30 1405 H 132.219 0.754695 -5.68311 0
M  V30 1406 H 130.616 0.0301468 -6.00092 0
M  V30 1407 H 131.686 -0.710125 -4.79672 0
M  V30 1408 N 133.029 1.57378 -0.0835403 0
M  V30 1409 C 134.269 1.95808 0.586381 0
M  V30 1410 C 134.633 0.963706 1.66062 0
M  V30 1411 O 135.834 1.23608 2.38693 0
M  V30 1412 C 134.105 3.38808 1.13771 0
M  V30 1413 S 135.664 3.99225 1.82112 0
M  V30 1414 H 132.482 0.684675 0.191679 0
M  V30 1415 H 135.084 1.94843 -0.160194 0
M  V30 1416 H 133.788 4.08954 0.344197 0
M  V30 1417 H 133.319 3.43344 1.92038 0
M  V30 1418 H 135.334 3.87087 3.10449 0
M  V30 1419 N 134.507 -0.190092 1.56449 0
M  V30 1420 C 135.755 -0.907908 1.80559 0
M  V30 1421 C 136.076 -1.83583 0.657438 0
M  V30 1422 O 135.346 -1.93203 -0.323924 0
M  V30 1423 H 133.926 -0.338247 0.666032 0
M  V30 1424 H 136.588 -0.194403 1.93928 0
M  V30 1425 H 135.684 -1.49604 2.73907 0
M  V30 1426 N 135.985 -1.50799 -0.457987 0
M  V30 1427 C 136.915 -1.73553 -1.5621 0
M  V30 1428 C 137.896 -0.584774 -1.59732 0
M  V30 1429 O 139.081 -0.825314 -1.7579 0
M  V30 1430 C 136.211 -1.84169 -2.94447 0
M  V30 1431 C 135.165 -2.99461 -3.0579 0
M  V30 1432 C 134.491 -2.95235 -4.45803 0
M  V30 1433 C 135.791 -4.39766 -2.81786 0
M  V30 1434 H 137.485 -2.66 -1.37421 0
M  V30 1435 H 135.031 -1.28002 -0.659662 0
M  V30 1436 H 136.984 -1.98672 -3.71628 0
M  V30 1437 H 135.708 -0.883545 -3.14422 0
M  V30 1438 H 134.367 -2.8463 -2.31044 0
M  V30 1439 H 134.015 -1.97239 -4.62715 0
M  V30 1440 H 133.715 -3.72642 -4.54326 0
M  V30 1441 H 135.239 -3.11803 -5.24987 0
M  V30 1442 H 136.653 -4.55054 -3.4871 0
M  V30 1443 H 135.05 -5.18722 -3.0174 0
M  V30 1444 H 136.12 -4.51229 -1.7754 0
M  V30 1445 N 137.463 0.71206 -1.40597 0
M  V30 1446 C 138.41 1.82613 -1.41142 0
M  V30 1447 C 139.38 1.63925 -0.267903 0
M  V30 1448 O 140.565 1.85009 -0.466495 0
M  V30 1449 C 137.705 3.20354 -1.28324 0
M  V30 1450 C 136.818 3.50589 -2.52411 0
M  V30 1451 C 135.953 4.77855 -2.32009 0
M  V30 1452 C 134.992 5.01005 -3.51654 0
M  V30 1453 N 134.129 6.19487 -3.30425 0
M  V30 1454 H 138.969 1.81482 -2.36365 0
M  V30 1455 H 136.506 0.886475 -1.17388 0
M  V30 1456 H 138.464 3.99899 -1.18899 0
M  V30 1457 H 137.094 3.20705 -0.367189 0
M  V30 1458 H 136.146 2.65573 -2.72351 0
M  V30 1459 H 137.458 3.63604 -3.41458 0
M  V30 1460 H 136.612 5.65424 -2.19956 0
M  V30 1461 H 135.351 4.67056 -1.40392 0
M  V30 1462 H 134.356 4.1189 -3.64179 0
M  V30 1463 H 135.581 5.13674 -4.44202 0
M  V30 1464 H 133.527 6.09932 -2.41494 0
M  V30 1465 H 133.444 6.33194 -4.13039 0
M  V30 1466 H 134.712 7.09834 -3.22113 0
M  V30 1467 N 138.941 1.26152 0.944643 0
M  V30 1468 C 139.871 1.09902 2.06019 0
M  V30 1469 C 140.852 0.00519538 1.70099 0
M  V30 1470 O 142.037 0.176583 1.93396 0
M  V30 1471 C 139.167 0.727562 3.39594 0
M  V30 1472 C 138.121 1.77274 3.89561 0
M  V30 1473 C 137.447 1.25569 5.19747 0
M  V30 1474 C 138.747 3.17357 4.14827 0
M  V30 1475 H 140.441 2.03217 2.19871 0
M  V30 1476 H 137.987 0.978452 1.05652 0
M  V30 1477 H 139.94 0.600777 4.17095 0
M  V30 1478 H 138.664 -0.241287 3.25707 0
M  V30 1479 H 137.323 1.88814 3.14237 0
M  V30 1480 H 136.971 0.276783 5.02238 0
M  V30 1481 H 136.671 1.95433 5.54148 0
M  V30 1482 H 138.195 1.1415 5.99835 0
M  V30 1483 H 139.609 3.08914 4.82954 0
M  V30 1484 H 138.006 3.84781 4.60504 0
M  V30 1485 H 139.076 3.63673 3.20734 0
M  V30 1486 N 140.419 -1.14872 1.07899 0
M  V30 1487 C 141.329 -2.2341 0.715915 0
M  V30 1488 C 142.345 -1.71808 -0.275306 0
M  V30 1489 O 143.521 -2.01039 -0.120545 0
M  V30 1490 C 140.586 -3.46474 0.125168 0
M  V30 1491 C 139.647 -4.13039 1.17034 0
M  V30 1492 C 138.88 -5.30229 0.607688 0
M  V30 1493 O 139.103 -5.675 -0.574497 0
M  V30 1494 O 138.037 -5.86444 1.35526 0
M  V30 1495 H 141.863 -2.56808 1.62121 0
M  V30 1496 H 139.448 -1.22702 0.852322 0
M  V30 1497 H 141.33 -4.20917 -0.201729 0
M  V30 1498 H 140.005 -3.14811 -0.753364 0
M  V30 1499 H 138.912 -3.40493 1.54968 0
M  V30 1500 H 140.245 -4.48796 2.02097 0
M  V30 1501 N 141.898 -0.863906 -1.31812 0
M  V30 1502 C 143.144 -0.472535 -1.97218 0
M  V30 1503 C 143.477 0.971394 -1.68159 0
M  V30 1504 O 142.752 1.68309 -0.974798 0
M  V30 1505 C 143.035 -0.723054 -3.52766 0
M  V30 1506 C 142.888 -2.21608 -3.91421 0
M  V30 1507 C 144.207 -0.185522 -4.39709 0
M  V30 1508 H 141.326 -0.173158 -0.71637 0
M  V30 1509 H 143.968 -1.08403 -1.56041 0
M  V30 1510 H 142.118 -0.202577 -3.87971 0
M  V30 1511 H 143.79 -2.80334 -3.66347 0
M  V30 1512 H 142.033 -2.691 -3.40246 0
M  V30 1513 H 142.704 -2.34203 -4.99853 0
M  V30 1514 H 145.18 -0.630726 -4.11292 0
M  V30 1515 H 144.056 -0.390306 -5.47511 0
M  V30 1516 H 144.317 0.912229 -4.32586 0
M  V30 1517 N 143.376 1.44774 -0.622745 0
M  V30 1518 C 144.324 2.32387 0.0994683 0
M  V30 1519 C 145.318 1.46859 0.844326 0
M  V30 1520 O 146.524 1.63254 0.758174 0
M  V30 1521 H 142.899 0.750273 0.0509291 0
M  V30 1522 H 144.87 2.91062 -0.65767 0
M  V30 1523 C 143.619 3.30723 1.07319 0
M  V30 1524 H 142.942 3.96541 0.509462 0
M  V30 1525 H 144.382 3.94725 1.54817 0
M  V30 1526 C 142.841 2.59021 2.15429 0
M  V30 1527 O 143.371 2.38286 3.23393 0
M  V30 1528 N 141.577 2.189 1.91131 0
M  V30 1529 H 141.124 2.35964 1.03337 0
M  V30 1530 H 141.082 1.71251 2.63668 0
M  V30 1531 N 144.854 0.36279 1.53368 0
M  V30 1532 C 145.801 -0.485008 2.25646 0
M  V30 1533 C 146.771 -1.07982 1.2621 0
M  V30 1534 O 147.956 -1.11284 1.54986 0
M  V30 1535 C 145.096 -1.62023 3.04701 0
M  V30 1536 C 144.209 -1.05086 4.19024 0
M  V30 1537 C 143.344 -2.15496 4.85525 0
M  V30 1538 C 142.383 -1.5601 5.91884 0
M  V30 1539 N 141.52 -2.60241 6.52088 0
M  V30 1540 H 146.36 0.137864 2.97681 0
M  V30 1541 H 143.897 0.0798061 1.46883 0
M  V30 1542 H 145.855 -2.28887 3.48807 0
M  V30 1543 H 144.485 -2.2138 2.34927 0
M  V30 1544 H 143.537 -0.27259 3.79422 0
M  V30 1545 H 144.849 -0.575926 4.95464 0
M  V30 1546 H 144.003 -2.90186 5.32801 0
M  V30 1547 H 142.742 -2.66341 4.08551 0
M  V30 1548 H 141.747 -0.798338 5.43973 0
M  V30 1549 H 142.972 -1.05994 6.70777 0
M  V30 1550 H 140.918 -3.10304 5.77968 0
M  V30 1551 H 140.835 -2.17426 7.24059 0
M  V30 1552 H 142.103 -3.34641 7.04014 0
M  V30 1553 N 146.332 -1.57332 0.0918853 0
M  V30 1554 C 147.562 -1.98286 -0.580205 0
M  V30 1555 C 147.97 -0.969713 -1.6246 0
M  V30 1556 O 147.313 0.0493501 -1.83634 0
M  V30 1557 C 147.375 -3.35603 -1.28882 0
M  V30 1558 C 147.039 -4.55285 -0.395559 0
M  V30 1559 C 148.036 -5.18687 0.355002 0
M  V30 1560 C 145.721 -5.01314 -0.314556 0
M  V30 1561 C 147.715 -6.26484 1.17458 0
M  V30 1562 C 145.402 -6.08979 0.508677 0
M  V30 1563 C 146.4 -6.71429 1.2519 0
M  V30 1564 O 146.088 -7.77018 2.06151 0
M  V30 1565 H 145.82 -0.656678 -0.160466 0
M  V30 1566 H 148.374 -2.04721 0.16688 0
M  V30 1567 H 146.604 -3.25842 -2.08241 0
M  V30 1568 H 148.293 -3.61026 -1.85512 0
M  V30 1569 H 149.059 -4.84058 0.302134 0
M  V30 1570 H 144.938 -4.5247 -0.882697 0
M  V30 1571 H 148.482 -6.75159 1.75518 0
M  V30 1572 H 144.379 -6.4304 0.563037 0
M  V30 1573 H 145.147 -7.93991 1.98799 0
M  V30 1574 N 147.81 0.181792 -1.56548 0
M  V30 1575 C 148.742 1.24956 -1.92142 0
M  V30 1576 C 149.755 1.41022 -0.813422 0
M  V30 1577 O 150.944 1.41212 -1.09186 0
M  V30 1578 C 148.044 2.61981 -2.14987 0
M  V30 1579 C 147.217 2.6735 -3.46183 0
M  V30 1580 C 146.276 3.85664 -3.5798 0
M  V30 1581 O 145.302 3.72148 -4.30691 0
M  V30 1582 N 146.504 5.01683 -2.92053 0
M  V30 1583 H 149.269 0.947329 -2.84334 0
M  V30 1584 H 146.83 0.371629 -1.57577 0
M  V30 1585 H 148.822 3.3958 -2.20154 0
M  V30 1586 H 147.392 2.84637 -1.2923 0
M  V30 1587 H 146.612 1.75925 -3.52766 0
M  V30 1588 H 147.9 2.67939 -4.32534 0
M  V30 1589 H 147.298 5.15564 -2.32832 0
M  V30 1590 H 145.855 5.77181 -3.0283 0
M  V30 1591 N 149.288 1.51039 0.449983 0
M  V30 1592 C 150.518 1.66627 1.22143 0
M  V30 1593 C 150.926 0.357776 1.85786 0
M  V30 1594 O 150.269 -0.672424 1.70951 0
M  V30 1595 C 150.331 2.71562 2.35573 0
M  V30 1596 C 149.995 4.14526 1.92399 0
M  V30 1597 C 150.992 4.99717 1.43453 0
M  V30 1598 C 148.677 4.60559 2.00475 0
M  V30 1599 C 150.671 6.28998 1.03155 0
M  V30 1600 C 148.358 5.8984 1.59788 0
M  V30 1601 C 149.356 6.73886 1.11208 0
M  V30 1602 O 149.044 8.0075 0.710935 0
M  V30 1603 H 148.776 0.562635 0.374724 0
M  V30 1604 H 151.33 1.98146 0.541036 0
M  V30 1605 H 149.56 2.3533 3.06849 0
M  V30 1606 H 151.249 2.76156 2.97478 0
M  V30 1607 H 152.015 4.65361 1.36618 0
M  V30 1608 H 147.894 3.95273 2.37235 0
M  V30 1609 H 151.438 6.9455 0.651663 0
M  V30 1610 H 147.335 6.23713 1.66289 0
M  V30 1611 H 148.103 8.142 0.837913 0
M  V30 1612 N 150.766 -0.704594 1.40972 0
M  V30 1613 C 151.696 -1.83124 1.44872 0
M  V30 1614 C 152.677 -1.67281 0.30838 0
M  V30 1615 O 153.862 -1.87149 0.518556 0
M  V30 1616 C 150.992 -3.21181 1.32136 0
M  V30 1617 C 149.946 -3.51714 2.43888 0
M  V30 1618 C 149.272 -4.89032 2.16222 0
M  V30 1619 C 150.572 -3.516 3.86232 0
M  V30 1620 H 152.266 -1.80117 2.39161 0
M  V30 1621 H 149.812 -0.865145 1.15114 0
M  V30 1622 H 151.765 -3.99702 1.33479 0
M  V30 1623 H 150.489 -3.24791 0.343279 0
M  V30 1624 H 149.148 -2.75539 2.41813 0
M  V30 1625 H 148.796 -4.89256 1.16778 0
M  V30 1626 H 148.496 -5.10426 2.911 0
M  V30 1627 H 150.02 -5.69873 2.19265 0
M  V30 1628 H 151.434 -4.2014 3.9007 0
M  V30 1629 H 149.831 -3.84523 4.60719 0
M  V30 1630 H 150.901 -2.50757 4.15029 0
M  V30 1631 N 152.244 -1.26651 -0.937939 0
M  V30 1632 C 153.174 -1.10993 -2.05433 0
M  V30 1633 C 154.155 -0.0142161 -1.70094 0
M  V30 1634 O 155.34 -0.186837 -1.93299 0
M  V30 1635 C 152.47 -0.745561 -3.39203 0
M  V30 1636 C 151.424 -1.79337 -3.88616 0
M  V30 1637 C 150.75 -1.28324 -5.19073 0
M  V30 1638 C 152.05 -3.19553 -4.13138 0
M  V30 1639 H 153.744 -2.0438 -2.1879 0
M  V30 1640 H 151.29 -0.984041 -1.05131 0
M  V30 1641 H 153.243 -0.622888 -4.16771 0
M  V30 1642 H 151.967 0.22401 -3.25831 0
M  V30 1643 H 150.626 -1.90477 -3.13231 0
M  V30 1644 H 150.274 -0.303414 -5.02084 0
M  V30 1645 H 149.974 -1.98369 -5.53103 0
M  V30 1646 H 151.498 -1.1733 -5.99221 0
M  V30 1647 H 152.912 -3.11471 -4.81309 0
M  V30 1648 H 151.309 -3.87218 -4.58457 0
M  V30 1649 H 152.379 -3.65368 -3.18801 0
M  V30 1650 N 153.722 1.14298 -1.08507 0
M  V30 1651 C 154.95 1.89219 -0.836876 0
M  V30 1652 C 155.365 1.78638 0.611054 0
M  V30 1653 O 154.722 1.14643 1.41998 0
M  V30 1654 C 154.773 3.39158 -1.25116 0
M  V30 1655 O 154.494 3.49449 -2.64229 0
M  V30 1656 C 155.995 4.31073 -1.03398 0
M  V30 1657 H 153.215 0.599328 -0.301739 0
M  V30 1658 H 155.759 1.44746 -1.44461 0
M  V30 1659 H 153.914 3.81251 -0.687514 0
M  V30 1660 H 154.328 4.42589 -2.81452 0
M  V30 1661 H 155.802 5.34646 -1.37323 0
M  V30 1662 H 156.279 4.3919 0.0289259 0
M  V30 1663 H 156.885 3.94738 -1.58311 0
M  V30 1664 N 155.201 0.870884 1.31352 0
M  V30 1665 C 156.449 0.48132 1.96285 0
M  V30 1666 C 156.77 -0.969813 1.69173 0
M  V30 1667 O 156.04 -1.67998 1.00764 0
M  V30 1668 H 154.62 0.175002 0.726212 0
M  V30 1669 H 157.282 1.11087 1.60143 0
M  V30 1670 H 156.378 0.639825 3.05471 0
M  V30 1671 N 156.679 -1.44442 0.630414 0
M  V30 1672 C 158.095 -1.56832 0.295973 0
M  V30 1673 C 158.295 -1.61806 -1.20088 0
M  V30 1674 O 157.351 -1.5607 -1.9849 0
M  V30 1675 C 158.664 -2.84031 0.987264 0
M  V30 1676 C 160.212 -2.97742 0.96534 0
M  V30 1677 C 160.687 -4.27743 1.63708 0
M  V30 1678 N 162.178 -4.34555 1.60364 0
M  V30 1679 C 162.913 -5.33862 2.09234 0
M  V30 1680 N 162.409 -6.39578 2.66292 0
M  V30 1681 N 164.202 -5.25366 1.99867 0
M  V30 1682 H 156.353 -1.39457 1.60205 0
M  V30 1683 H 158.616 -0.668237 0.672431 0
M  V30 1684 H 158.322 -2.86338 2.04215 0
M  V30 1685 H 158.196 -3.73534 0.524588 0
M  V30 1686 H 160.583 -2.94989 -0.0810639 0
M  V30 1687 H 160.664 -2.09589 1.4665 0
M  V30 1688 H 160.308 -4.31255 2.68293 0
M  V30 1689 H 160.238 -5.14752 1.11076 0
M  V30 1690 H 162.729 -3.58772 1.18705 0
M  V30 1691 H 163.042 -7.11637 3.01317 0
M  V30 1692 H 161.387 -6.40265 2.70343 0
M  V30 1693 H 164.578 -4.41688 1.55013 0
M  V30 1694 H 164.751 -6.02606 2.38265 0
M  V30 1695 N 158.157 -0.370918 -1.53173 0
M  V30 1696 C 159.403 0.217423 -2.01631 0
M  V30 1697 C 159.736 1.47983 -1.25756 0
M  V30 1698 O 159.011 1.91274 -0.352764 0
M  V30 1699 C 159.294 0.503982 -3.56556 0
M  V30 1700 C 159.147 -0.77243 -4.43118 0
M  V30 1701 C 160.466 1.30234 -4.20389 0
M  V30 1702 H 157.585 0.0775486 -0.732909 0
M  V30 1703 H 160.227 -0.496863 -1.83388 0
M  V30 1704 H 158.377 1.11248 -3.72231 0
M  V30 1705 H 160.049 -1.4098 -4.39229 0
M  V30 1706 H 158.292 -1.39167 -4.10871 0
M  V30 1707 H 158.963 -0.526815 -5.4948 0
M  V30 1708 H 161.439 0.787546 -4.08579 0
M  V30 1709 H 160.315 1.47158 -5.28806 0
M  V30 1710 H 160.576 2.31237 -3.76805 0
M  V30 1711 N 159.635 1.57281 -0.100228 0
M  V30 1712 C 160.865 1.98591 0.569681 0
M  V30 1713 C 161.273 0.978315 1.61943 0
M  V30 1714 O 160.616 -0.0396108 1.83657 0
M  V30 1715 C 160.678 3.36282 1.271 0
M  V30 1716 C 160.342 4.55488 0.371409 0
M  V30 1717 C 161.339 5.18491 -0.382504 0
M  V30 1718 C 159.024 5.01474 0.287965 0
M  V30 1719 C 161.018 6.25852 -1.20779 0
M  V30 1720 C 158.705 6.08701 -0.540965 0
M  V30 1721 C 159.703 6.70755 -1.28749 0
M  V30 1722 O 159.391 7.75914 -2.10269 0
M  V30 1723 H 159.123 0.65752 0.156982 0
M  V30 1724 H 161.677 2.0463 -0.177734 0
M  V30 1725 H 159.907 3.26941 2.0651 0
M  V30 1726 H 161.596 3.62005 1.83595 0
M  V30 1727 H 162.362 4.83891 -0.3278 0
M  V30 1728 H 158.241 4.52932 0.858689 0
M  V30 1729 H 161.785 6.74218 -1.79096 0
M  V30 1730 H 157.682 6.42732 -0.597131 0
M  V30 1731 H 158.45 7.92925 -2.03007 0
M  V30 1732 N 161.113 -0.173488 1.56642 0
M  V30 1733 C 162.39 -0.917617 1.7274 0
M  V30 1734 C 162.77 -2.00484 0.661027 0
M  V30 1735 O 162.118 -2.26184 -0.32453 0
M  V30 1736 C 162.328 -1.48433 3.15862 0
M  V30 1737 C 163.676 -1.95809 3.76754 0
M  V30 1738 O 164.7 -1.58231 3.19126 0
M  V30 1739 O 163.559 -2.65024 4.77938 0
M  V30 1740 H 160.653 -0.431772 0.705338 0
M  V30 1741 H 163.199 -0.161487 1.6893 0
M  V30 1742 H 161.971 -0.701715 3.84957 0
M  V30 1743 H 161.594 -2.30471 3.23989 0
M  V30 1744 N 162.591 -1.51276 -0.441967 0
M  V30 1745 C 163.839 -1.63392 -1.18943 0
M  V30 1746 C 164.16 -0.350159 -1.9183 0
M  V30 1747 O 163.43 0.633784 -1.85364 0
M  V30 1748 H 162.01 -0.602164 -0.442049 0
M  V30 1749 H 164.672 -1.88186 -0.507165 0
M  V30 1750 H 163.768 -2.45934 -1.92154 0
M  V30 1751 N 164.069 0.697108 -1.41344 0
M  V30 1752 C 165.016 1.81106 -1.43071 0
M  V30 1753 C 165.986 1.63632 -0.285275 0
M  V30 1754 O 167.171 1.84504 -0.486091 0
M  V30 1755 C 164.311 3.18975 -1.31715 0
M  V30 1756 C 163.424 3.47892 -2.56115 0
M  V30 1757 C 162.559 4.75367 -2.37064 0
M  V30 1758 C 161.598 4.97247 -3.56948 0
M  V30 1759 N 160.735 6.15947 -3.36977 0
M  V30 1760 H 165.575 1.78965 -2.38276 0
M  V30 1761 H 163.112 0.873975 -1.18322 0
M  V30 1762 H 165.07 3.98615 -1.23133 0
M  V30 1763 H 163.7 3.20297 -0.401183 0
M  V30 1764 H 162.752 2.62669 -2.75153 0
M  V30 1765 H 164.064 3.59962 -3.45295 0
M  V30 1766 H 163.218 5.63059 -2.25941 0
M  V30 1767 H 161.957 4.65541 -1.45338 0
M  V30 1768 H 160.962 4.08004 -3.68527 0
M  V30 1769 H 162.187 5.08934 -4.49626 0
M  V30 1770 H 160.133 6.07336 -2.47949 0
M  V30 1771 H 160.05 6.28777 -4.19732 0
M  V30 1772 H 161.318 7.06377 -3.29623 0
M  V30 1773 N 165.547 1.27147 0.931209 0
M  V30 1774 C 166.48 1.0389 2.0318 0
M  V30 1775 C 167.458 -0.0395716 1.62552 0
M  V30 1776 O 168.642 0.104867 1.88208 0
M  V30 1777 C 165.769 0.575227 3.3378 0
M  V30 1778 C 164.815 1.64774 3.93385 0
M  V30 1779 S 165.648 3.23933 4.26413 0
M  V30 1780 C 166.804 2.79358 5.60098 0
M  V30 1781 H 167.037 1.97075 2.22596 0
M  V30 1782 H 164.57 1.10938 1.07387 0
M  V30 1783 H 166.528 0.314385 4.09294 0
M  V30 1784 H 165.189 -0.336505 3.12292 0
M  V30 1785 H 164.382 1.27454 4.87618 0
M  V30 1786 H 163.984 1.86048 3.24441 0
M  V30 1787 H 166.276 2.24443 6.39243 0
M  V30 1788 H 167.219 3.72322 6.02314 0
M  V30 1789 H 167.627 2.1861 5.20452 0
M  V30 1790 N 167.025 -1.13721 1.09112 0
M  V30 1791 C 168.255 -1.88499 0.845671 0
M  V30 1792 C 168.663 -1.79218 -0.606432 0
M  V30 1793 O 168.006 -1.1544 -1.42896 0
M  V30 1794 C 168.068 -3.38954 1.19793 0
M  V30 1795 C 167.732 -3.72018 2.65428 0
M  V30 1796 C 168.729 -3.7153 3.63677 0
M  V30 1797 C 166.414 -4.01775 3.01467 0
M  V30 1798 C 168.408 -4.00336 4.95994 0
M  V30 1799 C 166.095 -4.30243 4.33975 0
M  V30 1800 C 167.093 -4.29508 5.31048 0
M  V30 1801 O 166.781 -4.5728 6.61173 0
M  V30 1802 H 166.513 -0.603702 0.304171 0
M  V30 1803 H 169.067 -1.44903 1.45576 0
M  V30 1804 H 167.297 -3.83039 0.530871 0
M  V30 1805 H 168.986 -3.95052 0.932146 0
M  V30 1806 H 169.752 -3.4862 3.37179 0
M  V30 1807 H 165.631 -4.01496 2.26544 0
M  V30 1808 H 169.175 -3.99678 5.71755 0
M  V30 1809 H 165.072 -4.52625 4.60219 0
M  V30 1810 H 165.84 -4.74964 6.66597 0
M  V30 1811 N 168.503 -0.877838 -1.30888 0
M  V30 1812 C 169.731 -0.507414 -2.00581 0
M  V30 1813 C 170.146 0.902216 -1.65848 0
M  V30 1814 O 169.503 1.59225 -0.891831 0
M  V30 1815 C 169.554 -0.664162 -3.55347 0
M  V30 1816 O 169.275 -2.01829 -3.8884 0
M  V30 1817 C 170.776 -0.295787 -4.42312 0
M  V30 1818 H 167.996 -0.196866 -0.641471 0
M  V30 1819 H 170.54 -1.18117 -1.66939 0
M  V30 1820 H 168.695 -0.0378619 -3.87381 0
M  V30 1821 H 169.109 -2.03174 -4.8355 0
M  V30 1822 H 170.583 -0.456388 -5.5011 0
M  V30 1823 H 171.06 0.765663 -4.32475 0
M  V30 1824 H 171.666 -0.898113 -4.15709 0
M  V30 1825 N 169.982 1.44106 -0.638065 0
M  V30 1826 C 171.23 2.01579 -0.145043 0
M  V30 1827 C 171.551 1.50496 1.24 0
M  V30 1828 O 170.821 0.711374 1.82527 0
M  V30 1829 H 169.401 0.745282 -0.05063 0
M  V30 1830 H 172.063 1.76516 -0.826327 0
M  V30 1831 H 171.159 3.11877 -0.118039 0
M  V30 1832 N 171.46 0.379036 1.52974 0
M  V30 1833 C 172.39 -0.452706 2.29069 0
M  V30 1834 C 173.371 -1.07237 1.32039 0
M  V30 1835 O 174.556 -1.08708 1.60923 0
M  V30 1836 C 171.686 -1.5856 3.08992 0
M  V30 1837 C 170.64 -1.0925 4.13822 0
M  V30 1838 C 169.966 -2.31668 4.81907 0
M  V30 1839 C 171.266 -0.167702 5.22031 0
M  V30 1840 H 172.96 0.182181 2.98845 0
M  V30 1841 H 170.506 0.0890592 1.43724 0
M  V30 1842 H 172.459 -2.1742 3.6098 0
M  V30 1843 H 171.183 -2.24792 2.36931 0
M  V30 1844 H 169.842 -0.526494 3.628 0
M  V30 1845 H 169.49 -2.96386 4.06404 0
M  V30 1846 H 169.19 -1.9934 5.52754 0
M  V30 1847 H 170.714 -2.91189 5.36695 0
M  V30 1848 H 172.128 -0.664186 5.6944 0
M  V30 1849 H 170.525 0.0653265 6.00064 0
M  V30 1850 H 171.595 0.786347 4.78482 0
M  V30 1851 N 172.938 -1.57226 0.108567 0
M  V30 1852 C 174.178 -1.96717 -0.555155 0
M  V30 1853 C 174.542 -0.990003 -1.64508 0
M  V30 1854 O 175.743 -1.2739 -2.36696 0
M  V30 1855 C 174.014 -3.40575 -1.08367 0
M  V30 1856 S 175.573 -4.02072 -1.75737 0
M  V30 1857 H 172.391 -0.687638 -0.180762 0
M  V30 1858 H 174.993 -1.94563 0.191172 0
M  V30 1859 H 173.697 -4.0945 -0.279092 0
M  V30 1860 H 173.228 -3.46356 -1.86551 0
M  V30 1861 H 175.243 -3.91977 -3.04251 0
M  V30 1862 N 174.416 0.165178 -1.56732 0
M  V30 1863 C 175.364 1.22369 -1.97809 0
M  V30 1864 C 176.358 1.45488 -0.867741 0
M  V30 1865 O 177.564 1.45995 -1.05288 0
M  V30 1866 H 173.939 0.411486 -0.629431 0
M  V30 1867 H 175.91 0.850425 -2.86025 0
M  V30 1868 C 174.659 2.55403 -2.35934 0
M  V30 1869 H 173.982 2.38438 -3.20916 0
M  V30 1870 H 175.422 3.2814 -2.68514 0
M  V30 1871 C 173.881 3.14611 -1.20506 0
M  V30 1872 O 174.411 3.98626 -0.496016 0
M  V30 1873 N 172.617 2.7379 -0.97403 0
M  V30 1874 H 172.164 2.0557 -1.55238 0
M  V30 1875 H 172.122 3.1374 -0.203573 0
M  V30 1876 N 175.894 1.51508 0.433938 0
M  V30 1877 C 177.141 1.64345 1.18309 0
M  V30 1878 C 177.469 0.361315 1.91115 0
M  V30 1879 O 176.724 -0.654753 1.84422 0
M  V30 1880 C 177.023 2.79928 2.22205 0
M  V30 1881 C 176.689 4.19078 1.66387 0
M  V30 1882 C 175.351 4.56932 1.50887 0
M  V30 1883 C 177.703 5.05894 1.25381 0
M  V30 1884 C 175.031 5.79305 0.928608 0
M  V30 1885 C 177.383 6.2885 0.687823 0
M  V30 1886 C 176.047 6.65473 0.519755 0
M  V30 1887 H 175.317 0.601381 0.432923 0
M  V30 1888 H 177.964 1.85549 0.473676 0
M  V30 1889 H 176.269 2.52959 2.99197 0
M  V30 1890 H 177.966 2.87059 2.79997 0
M  V30 1891 H 174.556 3.89234 1.79428 0
M  V30 1892 H 178.74 4.77253 1.36175 0
M  V30 1893 H 173.996 6.06324 0.786186 0
M  V30 1894 H 178.17 6.95461 0.361581 0
M  V30 1895 H 175.797 7.6017 0.0679979 0
M  V30 1896 N 177.372 -0.689602 1.41712 0
M  V30 1897 C 178.618 -1.45181 1.41599 0
M  V30 1898 C 178.951 -1.94181 0.0270081 0
M  V30 1899 O 178.226 -1.6993 -0.946265 0
M  V30 1900 C 178.509 -2.65945 2.42787 0
M  V30 1901 C 178.362 -2.22672 3.90816 0
M  V30 1902 C 179.681 -3.68149 2.41151 0
M  V30 1903 H 176.8 -0.526576 0.515642 0
M  V30 1904 H 179.442 -0.784947 1.73028 0
M  V30 1905 H 177.592 -3.2284 2.16116 0
M  V30 1906 H 179.264 -1.71058 4.28412 0
M  V30 1907 H 177.507 -1.54394 4.05395 0
M  V30 1908 H 178.178 -3.0935 4.57172 0
M  V30 1909 H 180.654 -3.2094 2.64834 0
M  V30 1910 H 179.53 -4.50248 3.13955 0
M  V30 1911 H 179.791 -4.18259 1.43221 0
M  V30 1912 N 178.85 -1.27639 -0.924453 0
M  V30 1913 C 179.76 -1.12466 -2.05885 0
M  V30 1914 C 180.776 -0.053869 -1.73917 0
M  V30 1915 O 181.952 -0.261012 -1.99702 0
M  V30 1916 C 179.017 -0.776768 -3.37886 0
M  V30 1917 C 178.078 -1.92878 -3.83532 0
M  V30 1918 C 177.311 -1.59739 -5.09234 0
M  V30 1919 O 177.534 -0.506782 -5.68144 0
M  V30 1920 O 176.468 -2.43761 -5.50331 0
M  V30 1921 H 180.294 -2.07671 -2.21599 0
M  V30 1922 H 177.879 -1.06857 -1.04413 0
M  V30 1923 H 179.761 -0.596229 -4.17161 0
M  V30 1924 H 178.436 0.145732 -3.23372 0
M  V30 1925 H 177.343 -2.1644 -3.0513 0
M  V30 1926 H 178.676 -2.8316 -4.02593 0
M  V30 1927 N 180.328 1.1314 -1.09713 0
M  V30 1928 C 181.744 1.36477 -0.827423 0
M  V30 1929 C 181.944 1.93654 0.556817 0
M  V30 1930 O 181 2.15791 1.31112 0
M  V30 1931 C 182.313 2.31334 -1.92106 0
M  V30 1932 C 183.861 2.44943 -1.94864 0
M  V30 1933 C 184.336 3.4311 -3.0338 0
M  V30 1934 N 185.827 3.50662 -3.02639 0
M  V30 1935 C 186.562 4.2651 -3.83246 0
M  V30 1936 N 186.058 5.05485 -4.73768 0
M  V30 1937 N 187.851 4.2184 -3.71493 0
M  V30 1938 H 180.002 0.743807 -1.9895 0
M  V30 1939 H 182.265 0.389823 -0.864143 0
M  V30 1940 H 181.971 1.96483 -2.91698 0
M  V30 1941 H 181.845 3.31381 -1.80184 0
M  V30 1942 H 184.232 2.79079 -0.959099 0
M  V30 1943 H 184.313 1.4481 -2.10864 0
M  V30 1944 H 183.957 3.09704 -4.02549 0
M  V30 1945 H 183.887 4.43055 -2.84622 0
M  V30 1946 H 186.378 2.94315 -2.37039 0
M  V30 1947 H 186.691 5.60675 -5.3185 0
M  V30 1948 H 185.036 5.04708 -4.77802 0
M  V30 1949 H 188.227 3.5922 -3.00131 0
M  V30 1950 H 188.4 4.80697 -4.3455 0
M  V30 1951 N 181.806 0.884767 1.30421 0
M  V30 1952 C 183.052 0.513218 1.96819 0
M  V30 1953 C 183.407 -0.927347 1.68577 0
M  V30 1954 O 182.7 -1.64644 0.979941 0
M  V30 1955 C 182.894 0.724318 3.49983 0
M  V30 1956 C 182.723 2.18385 3.93113 0
M  V30 1957 C 181.493 2.82839 4.18725 0
M  V30 1958 C 183.691 3.15763 4.05953 0
M  V30 1959 N 181.673 4.1939 4.48314 0
M  V30 1960 C 183.044 4.37387 4.39423 0
M  V30 1961 C 185.099 3.11555 3.88379 0
M  V30 1962 C 183.802 5.55343 4.5715 0
M  V30 1963 C 185.828 4.28782 4.07308 0
M  V30 1964 C 185.19 5.49172 4.41123 0
M  V30 1965 H 181.289 0.237123 0.745182 0
M  V30 1966 H 183.873 1.14246 1.57658 0
M  V30 1967 H 182.044 0.124565 3.882 0
M  V30 1968 H 183.776 0.31969 4.03435 0
M  V30 1969 H 180.531 2.33708 4.11919 0
M  V30 1970 H 180.955 4.89911 4.67243 0
M  V30 1971 H 185.597 2.19576 3.61312 0
M  V30 1972 H 183.315 6.47826 4.8306 0
M  V30 1973 H 186.901 4.26995 3.95179 0
M  V30 1974 H 185.781 6.38371 4.55469 0
M  V30 1975 N 183.284 -1.43765 0.645699 0
M  V30 1976 C 184.561 -1.9541 0.0862963 0
M  V30 1977 C 184.941 -1.58725 -1.39175 0
M  V30 1978 O 184.289 -0.868581 -2.11348 0
M  V30 1979 C 184.499 -3.47488 0.324565 0
M  V30 1980 C 185.847 -4.24001 0.225497 0
M  V30 1981 O 186.871 -3.55274 0.256715 0
M  V30 1982 O 185.73 -5.46313 0.142801 0
M  V30 1983 H 182.824 -0.826882 -0.0139483 0
M  V30 1984 H 185.37 -1.53743 0.718415 0
M  V30 1985 H 184.142 -3.67289 1.3496 0
M  V30 1986 H 183.765 -3.96135 -0.340987 0
M  V30 1987 N 184.763 -0.387143 -1.52771 0
M  V30 1988 C 185.695 0.484089 -2.2403 0
M  V30 1989 C 186.708 1.02849 -1.26198 0
M  V30 1990 O 187.897 0.931186 -1.52286 0
M  V30 1991 C 184.997 1.68337 -2.94136 0
M  V30 1992 C 184.17 1.26672 -4.18656 0
M  V30 1993 C 183.229 2.33045 -4.7178 0
M  V30 1994 O 182.255 1.94541 -5.34923 0
M  V30 1995 N 183.457 3.64929 -4.5145 0
M  V30 1996 H 186.222 -0.126404 -2.99433 0
M  V30 1997 H 183.783 -0.213392 -1.60488 0
M  V30 1998 H 185.775 2.39019 -3.26577 0
M  V30 1999 H 184.345 2.20025 -2.22053 0
M  V30 2000 H 183.565 0.388878 -3.92277 0
M  V30 2001 H 184.853 0.964964 -4.99566 0
M  V30 2002 H 184.251 3.98974 -4.01044 0
M  V30 2003 H 182.808 4.31651 -4.88386 0
M  V30 2004 N 186.241 1.57166 -0.116904 0
M  V30 2005 C 187.171 2.18222 0.830759 0
M  V30 2006 C 188.152 1.12167 1.27877 0
M  V30 2007 O 189.337 1.40394 1.34176 0
M  V30 2008 C 186.467 2.77996 2.08172 0
M  V30 2009 C 185.421 3.89614 1.77157 0
M  V30 2010 C 184.747 4.36187 3.09265 0
M  V30 2011 C 186.047 5.1181 1.04151 0
M  V30 2012 H 187.741 2.97664 0.321992 0
M  V30 2013 H 185.287 1.4318 0.153434 0
M  V30 2014 H 187.24 3.19366 2.74924 0
M  V30 2015 H 185.964 1.9584 2.6137 0
M  V30 2016 H 184.623 3.48816 1.12796 0
M  V30 2017 H 184.271 3.50893 3.60393 0
M  V30 2018 H 183.971 5.11455 2.89288 0
M  V30 2019 H 185.495 4.80207 3.77139 0
M  V30 2020 H 186.909 5.50214 1.61052 0
M  V30 2021 H 185.306 5.92648 0.942762 0
M  V30 2022 H 186.376 4.84892 0.0279022 0
M  V30 2023 N 187.719 -0.156864 1.56817 0
M  V30 2024 C 188.947 -0.886316 1.86955 0
M  V30 2025 C 189.362 -1.75185 0.703975 0
M  V30 2026 O 188.719 -1.79555 -0.326552 0
M  V30 2027 C 188.77 -1.75117 3.16253 0
M  V30 2028 O 188.491 -0.920537 4.2832 0
M  V30 2029 C 189.992 -2.58905 3.59837 0
M  V30 2030 H 187.212 -0.25678 0.619923 0
M  V30 2031 H 189.756 -0.152615 2.0393 0
M  V30 2032 H 187.911 -2.43805 3.01062 0
M  V30 2033 H 188.325 -1.51337 5.02192 0
M  V30 2034 H 189.799 -3.1518 4.53172 0
M  V30 2035 H 190.276 -3.34472 2.84649 0
M  V30 2036 H 190.882 -1.95526 3.7769 0
M  V30 2037 N 189.197 -1.51736 -0.425897 0
M  V30 2038 C 190.127 -1.76827 -1.52494 0
M  V30 2039 C 191.108 -0.618524 -1.58456 0
M  V30 2040 O 192.293 -0.862416 -1.74 0
M  V30 2041 C 189.423 -1.90374 -2.90474 0
M  V30 2042 C 188.377 -3.0588 -2.99369 0
M  V30 2043 C 187.703 -3.04625 -4.3944 0
M  V30 2044 C 189.003 -4.45644 -2.72394 0
M  V30 2045 H 190.697 -2.68855 -1.31748 0
M  V30 2046 H 188.243 -1.29372 -0.632362 0
M  V30 2047 H 190.196 -2.0651 -3.6733 0
M  V30 2048 H 188.92 -0.95004 -3.12477 0
M  V30 2049 H 187.579 -2.89467 -2.24954 0
M  V30 2050 H 187.227 -2.0701 -4.58428 0
M  V30 2051 H 186.927 -3.82195 -4.46319 0
M  V30 2052 H 188.451 -3.22869 -5.18255 0
M  V30 2053 H 189.865 -4.62348 -3.38979 0
M  V30 2054 H 188.262 -5.25006 -2.9067 0
M  V30 2055 H 189.332 -4.54893 -1.67929 0
M  V30 2056 N 190.675 0.682077 -1.42076 0
M  V30 2057 C 191.9 1.47558 -1.45744 0
M  V30 2058 C 192.325 1.87977 -0.0680981 0
M  V30 2059 O 191.683 1.55522 0.9318 0
M  V30 2060 C 191.731 2.70575 -2.38373 0
M  V30 2061 O 190.835 3.68573 -1.85007 0
M  V30 2062 H 190.176 0.443585 -0.494093 0
M  V30 2063 H 192.706 0.837238 -1.86686 0
M  V30 2064 H 192.716 3.18729 -2.54707 0
M  V30 2065 H 191.391 2.40495 -3.39315 0
M  V30 2066 H 189.968 3.2757 -1.78192 0
M  V30 2067 N 192.153 1.28127 0.917671 0
M  V30 2068 C 193.085 1.07517 2.02417 0
M  V30 2069 C 194.098 0.0281099 1.62776 0
M  V30 2070 O 195.287 0.270748 1.76435 0
M  V30 2071 C 192.387 0.610957 3.33347 0
M  V30 2072 C 191.56 1.73255 4.01624 0
M  V30 2073 C 190.619 1.26238 5.10833 0
M  V30 2074 O 189.645 1.96389 5.34247 0
M  V30 2075 N 190.847 0.123448 5.80369 0
M  V30 2076 H 193.612 2.02806 2.20658 0
M  V30 2077 H 191.173 1.19827 1.08871 0
M  V30 2078 H 193.165 0.280101 4.0373 0
M  V30 2079 H 191.735 -0.24898 3.11607 0
M  V30 2080 H 190.955 2.23319 3.24842 0
M  V30 2081 H 192.243 2.48503 4.43986 0
M  V30 2082 H 191.641 -0.461847 5.63812 0
M  V30 2083 H 190.198 -0.148158 6.51632 0
M  V30 2084 N 193.631 -1.12557 1.10312 0
M  V30 2085 C 195.047 -1.36036 0.834649 0
M  V30 2086 C 195.247 -1.93946 -0.546539 0
M  V30 2087 O 194.303 -2.16484 -1.29966 0
M  V30 2088 C 195.616 -2.30312 1.9333 0
M  V30 2089 C 197.164 -2.43906 1.9616 0
M  V30 2090 C 197.639 -3.41496 3.05195 0
M  V30 2091 N 199.13 -3.49053 3.04494 0
M  V30 2092 C 199.865 -4.24471 3.85502 0
M  V30 2093 N 199.361 -5.02966 4.76442 0
M  V30 2094 N 201.154 -4.19864 3.73725 0
M  V30 2095 H 193.305 -0.733246 1.99342 0
M  V30 2096 H 195.568 -0.385234 0.866198 0
M  V30 2097 H 195.274 -1.94933 2.92735 0
M  V30 2098 H 195.148 -3.30421 1.81939 0
M  V30 2099 H 197.535 -2.78567 0.973886 0
M  V30 2100 H 197.616 -1.4369 2.11629 0
M  V30 2101 H 197.26 -3.07565 4.04186 0
M  V30 2102 H 197.19 -4.41539 2.86968 0
M  V30 2103 H 199.681 -2.93053 2.38596 0
M  V30 2104 H 199.994 -5.57846 5.34815 0
M  V30 2105 H 198.339 -5.02167 4.80472 0
M  V30 2106 H 201.53 -3.57623 3.02032 0
M  V30 2107 H 201.703 -4.78386 4.37093 0
M  V30 2108 N 195.109 -0.891671 -1.2995 0
M  V30 2109 C 196.056 -0.361736 -2.27948 0
M  V30 2110 C 197.026 0.551761 -1.56668 0
M  V30 2111 O 198.211 0.478736 -1.84696 0
M  V30 2112 C 195.351 0.411825 -3.42634 0
M  V30 2113 C 194.464 -0.531651 -4.28716 0
M  V30 2114 C 193.599 0.258167 -5.30572 0
M  V30 2115 C 192.638 -0.680349 -6.08307 0
M  V30 2116 N 191.775 0.0745613 -7.0206 0
M  V30 2117 H 196.615 -1.20254 -2.72659 0
M  V30 2118 H 194.152 -0.604352 -1.34112 0
M  V30 2119 H 196.11 0.876304 -4.07893 0
M  V30 2120 H 194.74 1.21715 -2.98974 0
M  V30 2121 H 193.792 -1.11463 -3.63703 0
M  V30 2122 H 195.104 -1.25038 -4.82874 0
M  V30 2123 H 194.258 0.784204 -6.0161 0
M  V30 2124 H 192.997 1.01008 -4.77126 0
M  V30 2125 H 192.002 -1.21796 -5.3614 0
M  V30 2126 H 193.227 -1.43145 -6.63842 0
M  V30 2127 H 191.173 0.808883 -6.50994 0
M  V30 2128 H 191.09 -0.584409 -7.53738 0
M  V30 2129 H 192.358 0.581123 -7.77331 0
M  V30 2130 N 196.587 1.43421 -0.653314 0
M  V30 2131 C 197.835 2.01414 -0.166415 0
M  V30 2132 C 198.156 1.51803 1.22397 0
M  V30 2133 O 197.426 0.730693 1.81763 0
M  V30 2134 H 196.006 0.744703 -0.0585319 0
M  V30 2135 H 198.668 1.75629 -0.845003 0
M  V30 2136 H 197.764 3.11734 -0.151111 0
M  V30 2137 N 198.065 0.39524 1.52563 0
M  V30 2138 C 198.995 -0.428384 2.29537 0
M  V30 2139 C 199.976 -1.05831 1.33169 0
M  V30 2140 O 201.161 -1.06995 1.62067 0
M  V30 2141 C 198.291 -1.55274 3.10656 0
M  V30 2142 C 197.245 -1.04855 4.14957 0
M  V30 2143 C 196.571 -2.26543 4.84337 0
M  V30 2144 C 197.871 -0.112324 5.22179 0
M  V30 2145 H 199.565 0.213867 2.98635 0
M  V30 2146 H 197.111 0.104298 1.43622 0
M  V30 2147 H 199.064 -2.1358 3.63265 0
M  V30 2148 H 197.788 -2.22266 2.39302 0
M  V30 2149 H 196.447 -0.487985 3.63338 0
M  V30 2150 H 196.095 -2.92059 4.09525 0
M  V30 2151 H 195.795 -1.93466 5.54837 0
M  V30 2152 H 197.319 -2.85481 5.39753 0
M  V30 2153 H 198.733 -0.603752 5.70112 0
M  V30 2154 H 197.13 0.128968 5.99961 0
M  V30 2155 H 198.2 0.837052 4.77621 0
M  V30 2156 N 199.544 -1.57102 0.125237 0
M  V30 2157 C 200.492 -2.16905 -0.839927 0
M  V30 2158 C 201.486 -1.11998 -1.27094 0
M  V30 2159 O 202.692 -1.3029 -1.24195 0
M  V30 2160 H 199.067 -0.694252 -0.288995 0
M  V30 2161 H 201.038 -2.96774 -0.311115 0
M  V30 2162 C 199.787 -2.78795 -2.07771 0
M  V30 2163 H 199.11 -3.59221 -1.755 0
M  V30 2164 H 200.55 -3.2417 -2.73295 0
M  V30 2165 C 199.009 -1.76193 -2.87155 0
M  V30 2166 O 199.539 -1.21909 -3.82755 0
M  V30 2167 N 197.745 -1.45991 -2.51267 0
M  V30 2168 H 197.292 -1.90325 -1.73592 0
M  V30 2169 H 197.25 -0.775844 -3.04677 0
M  V30 2170 N 201.022 0.148545 -1.56898 0
M  V30 2171 C 202.252 0.875118 -1.8715 0
M  V30 2172 C 202.66 1.75322 -0.711262 0
M  V30 2173 O 202.003 1.80745 0.328151 0
M  V30 2174 C 202.065 1.7844 -3.12089 0
M  V30 2175 C 201.729 1.08361 -4.43967 0
M  V30 2176 C 202.726 0.438247 -5.1805 0
M  V30 2177 C 200.411 1.07358 -4.90693 0
M  V30 2178 C 202.405 -0.20779 -6.37061 0
M  V30 2179 C 200.092 0.42373 -6.09629 0
M  V30 2180 C 201.09 -0.215829 -6.82659 0
M  V30 2181 O 200.778 -0.855378 -7.99336 0
M  V30 2182 H 200.51 0.258504 -0.624621 0
M  V30 2183 H 203.064 0.14652 -2.04877 0
M  V30 2184 H 201.294 2.55389 -2.90367 0
M  V30 2185 H 202.983 2.38279 -3.286 0
M  V30 2186 H 203.749 0.437817 -4.8302 0
M  V30 2187 H 199.628 1.5608 -4.33774 0
M  V30 2188 H 203.172 -0.70758 -6.94002 0
M  V30 2189 H 199.069 0.421822 -6.4412 0
M  V30 2190 H 199.837 -0.756892 -8.14993 0
M  V30 2191 N 202.5 1.5196 0.417844 0
M  V30 2192 C 203.916 1.40569 0.755816 0
M  V30 2193 C 204.116 0.503316 1.95113 0
M  V30 2194 O 203.172 -0.0341925 2.52477 0
M  V30 2195 C 204.485 2.82947 1.01791 0
M  V30 2196 C 206.033 2.92231 1.12116 0
M  V30 2197 C 206.508 4.35559 1.41608 0
M  V30 2198 N 207.999 4.38753 1.48491 0
M  V30 2199 C 208.734 5.46705 1.7292 0
M  V30 2200 N 208.23 6.64788 1.95011 0
M  V30 2201 N 210.023 5.34209 1.74863 0
M  V30 2202 H 202.174 2.09168 -0.369098 0
M  V30 2203 H 204.437 0.942409 -0.102809 0
M  V30 2204 H 204.143 3.5106 0.212081 0
M  V30 2205 H 204.017 3.23462 1.94042 0
M  V30 2206 H 206.404 2.24304 1.9176 0
M  V30 2207 H 206.485 2.55185 0.177225 0
M  V30 2208 H 206.129 5.04042 0.624848 0
M  V30 2209 H 206.059 4.70133 2.37239 0
M  V30 2210 H 208.55 3.5363 1.33244 0
M  V30 2211 H 208.863 7.42845 2.13076 0
M  V30 2212 H 207.208 6.67869 1.92293 0
M  V30 2213 H 210.399 4.40937 1.57137 0
M  V30 2214 H 210.572 6.18415 1.93563 0
M  V30 2215 N 203.978 -0.674533 1.42435 0
M  V30 2216 C 205.208 -1.46071 1.46105 0
M  V30 2217 C 205.616 -1.89067 0.0709605 0
M  V30 2218 O 204.959 -1.58731 -0.924677 0
M  V30 2219 C 205.021 -2.74145 2.32561 0
M  V30 2220 C 204.685 -2.53224 3.8043 0
M  V30 2221 C 205.682 -2.17809 4.72075 0
M  V30 2222 C 203.367 -2.6821 4.24698 0
M  V30 2223 C 205.361 -1.97648 6.05982 0
M  V30 2224 C 203.048 -2.47665 5.58664 0
M  V30 2225 C 204.046 -2.12437 6.49122 0
M  V30 2226 O 203.734 -1.9209 7.80613 0
M  V30 2227 H 203.466 -0.455959 0.499076 0
M  V30 2228 H 206.02 -0.836193 1.87609 0
M  V30 2229 H 204.25 -3.3908 1.85908 0
M  V30 2230 H 205.939 -3.36028 2.27683 0
M  V30 2231 H 206.705 -2.05826 4.39159 0
M  V30 2232 H 202.584 -2.94609 3.54579 0
M  V30 2233 H 206.128 -1.70075 6.7655 0
M  V30 2234 H 202.025 -2.59244 5.91154 0
M  V30 2235 H 202.793 -2.06686 7.91974 0
M  V30 2236 N 205.456 -1.28612 -0.910864 0
M  V30 2237 C 206.406 -1.09423 -2.00026 0
M  V30 2238 C 207.39 -0.0170079 -1.60891 0
M  V30 2239 O 208.582 -0.237472 -1.754 0
M  V30 2240 C 205.711 -0.76114 -3.34756 0
M  V30 2241 C 204.797 -1.87735 -3.80285 0
M  V30 2242 N 205.188 -3.11938 -3.98156 0
M  V30 2243 C 203.486 -1.76786 -4.09467 0
M  V30 2244 C 204.187 -3.84687 -4.36338 0
M  V30 2245 N 203.163 -3.12555 -4.44759 0
M  V30 2246 H 206.965 -2.03658 -2.11898 0
M  V30 2247 H 204.479 -1.19573 -1.09891 0
M  V30 2248 H 206.476 -0.604743 -4.12491 0
M  V30 2249 H 205.136 0.173403 -3.24237 0
M  V30 2250 H 206.147 -3.47516 -3.83996 0
M  V30 2251 H 202.824 -0.905284 -4.07567 0
M  V30 2252 H 204.214 -4.91518 -4.58104 0
M  V30 2253 N 206.934 1.1197 -1.10907 0
M  V30 2254 C 207.864 2.19928 -0.784473 0
M  V30 2255 C 208.845 1.6833 0.244726 0
M  V30 2256 O 210.03 1.93892 0.109418 0
M  V30 2257 C 207.16 3.46597 -0.220827 0
M  V30 2258 C 206.114 4.11376 -1.18127 0
M  V30 2259 C 205.44 5.32554 -0.478594 0
M  V30 2260 C 206.74 4.56945 -2.52979 0
M  V30 2261 H 208.434 2.47337 -1.68715 0
M  V30 2262 H 205.98 1.18879 -0.812642 0
M  V30 2263 H 207.933 4.21396 0.0184278 0
M  V30 2264 H 206.657 3.1863 0.717113 0
M  V30 2265 H 205.316 3.38564 -1.40606 0
M  V30 2266 H 204.964 5.00856 0.463976 0
M  V30 2267 H 204.664 5.76844 -1.11912 0
M  V30 2268 H 206.188 6.10096 -0.248 0
M  V30 2269 H 207.602 5.23093 -2.3462 0
M  V30 2270 H 205.999 5.1203 -3.12962 0
M  V30 2271 H 207.069 3.70676 -3.12614 0
M  V30 2272 N 208.412 0.89855 1.29475 0
M  V30 2273 C 209.66 0.522847 1.9522 0
M  V30 2274 C 209.981 -0.93371 1.71192 0
M  V30 2275 O 209.251 -1.65823 1.04305 0
M  V30 2276 H 207.831 0.190366 0.722336 0
M  V30 2277 H 210.493 1.14459 1.5775 0
M  V30 2278 H 209.589 0.704476 3.04045 0
M  V30 2279 N 209.89 -1.43072 0.660911 0
M  V30 2280 C 211.13 -2.03596 0.181146 0
M  V30 2281 C 211.494 -1.51057 -1.18515 0
M  V30 2282 O 212.695 -2.03275 -1.75877 0
M  V30 2283 C 210.966 -3.56845 0.19911 0
M  V30 2284 S 212.525 -4.38289 -0.211684 0
M  V30 2285 H 209.343 -0.706954 0.0757479 0
M  V30 2286 H 211.945 -1.75027 0.870965 0
M  V30 2287 H 210.649 -3.92583 1.1961 0
M  V30 2288 H 210.18 -3.90067 -0.510996 0
M  V30 2289 H 212.195 -4.74583 -1.44863 0
M  V30 2290 N 211.368 -0.403325 -1.52352 0
M  V30 2291 C 212.316 0.439752 -2.28405 0
M  V30 2292 C 213.31 1.05089 -1.32863 0
M  V30 2293 O 214.516 0.989759 -1.50345 0
M  V30 2294 H 210.891 0.160587 -0.734653 0
M  V30 2295 H 212.862 -0.222983 -2.97566 0
M  V30 2296 C 211.611 1.54736 -3.11371 0
M  V30 2297 H 210.934 1.08643 -3.84755 0
M  V30 2298 H 212.374 2.1112 -3.67701 0
M  V30 2299 C 210.833 2.51141 -2.24566 0
M  V30 2300 O 211.363 3.54887 -1.88196 0
M  V30 2301 N 209.569 2.21213 -1.8845 0
M  V30 2302 H 209.116 1.36878 -2.18225 0
M  V30 2303 H 209.074 2.85963 -1.30662 0
M  V30 2304 N 212.846 1.57033 -0.133567 0
M  V30 2305 C 214.086 1.97575 0.523789 0
M  V30 2306 C 214.45 1.01605 1.62912 0
M  V30 2307 O 215.651 1.3114 2.3464 0
M  V30 2308 C 213.922 3.42256 1.02935 0
M  V30 2309 S 215.481 4.04817 1.69319 0
M  V30 2310 H 212.299 0.690427 0.169799 0
M  V30 2311 H 214.901 1.94234 -0.222101 0
M  V30 2312 H 213.605 4.09842 0.213917 0
M  V30 2313 H 213.136 3.4928 1.81017 0
M  V30 2314 H 215.151 3.96767 2.97977 0
M  V30 2315 N 214.325 -0.140222 1.56975 0
M  V30 2316 C 215.272 -1.17292 1.98774 0
M  V30 2317 C 216.242 -1.4232 0.856408 0
M  V30 2318 O 217.427 -1.54541 1.119 0
M  V30 2319 C 214.567 -2.49973 2.37923 0
M  V30 2320 C 213.68 -2.32062 3.64378 0
M  V30 2321 C 212.815 -3.57825 3.926 0
M  V30 2322 C 211.854 -3.3498 5.12303 0
M  V30 2323 N 210.991 -4.52891 5.36502 0
M  V30 2324 H 215.831 -0.809472 2.86795 0
M  V30 2325 H 213.368 -0.388237 1.41884 0
M  V30 2326 H 215.326 -3.27346 2.58652 0
M  V30 2327 H 213.956 -2.84252 1.52972 0
M  V30 2328 H 213.008 -1.45711 3.51387 0
M  V30 2329 H 214.32 -2.11145 4.51906 0
M  V30 2330 H 213.474 -4.43624 4.13863 0
M  V30 2331 H 212.213 -3.81753 3.03506 0
M  V30 2332 H 211.218 -2.4757 4.90906 0
M  V30 2333 H 212.443 -3.12444 6.02956 0
M  V30 2334 H 210.389 -4.76979 4.50363 0
M  V30 2335 H 210.306 -4.35001 6.18312 0
M  V30 2336 H 211.574 -5.39884 5.62268 0
M  V30 2337 N 215.803 -1.52179 -0.40978 0
M  V30 2338 C 217.052 -1.65434 -1.15388 0
M  V30 2339 C 217.365 -0.390056 -1.91671 0
M  V30 2340 O 218.571 -0.402399 -2.68501 0
M  V30 2341 C 217.027 -2.92279 -2.10003 0
M  V30 2342 C 216.635 -4.25813 -1.39239 0
M  V30 2343 C 218.379 -3.14897 -2.84675 0
M  V30 2344 C 216.286 -5.43782 -2.32498 0
M  V30 2345 H 215.216 -0.616267 -0.434432 0
M  V30 2346 H 217.867 -1.78666 -0.418401 0
M  V30 2347 H 216.249 -2.72744 -2.871 0
M  V30 2348 H 217.423 -4.55828 -0.675099 0
M  V30 2349 H 215.738 -4.09292 -0.766097 0
M  V30 2350 H 218.335 -4.0021 -3.54593 0
M  V30 2351 H 218.678 -2.29103 -3.47588 0
M  V30 2352 H 219.211 -3.34901 -2.14677 0
M  V30 2353 H 215.95 -6.3192 -1.74233 0
M  V30 2354 H 215.47 -5.18106 -3.02201 0
M  V30 2355 H 217.149 -5.76834 -2.93038 0
M  V30 2356 N 217.281 0.66697 -1.42791 0
M  V30 2357 C 218.228 1.7803 -1.4688 0
M  V30 2358 C 219.198 1.6299 -0.319919 0
M  V30 2359 O 220.383 1.83432 -0.525118 0
M  V30 2360 C 217.523 3.1611 -1.38451 0
M  V30 2361 C 216.636 3.42381 -2.63437 0
M  V30 2362 C 215.771 4.70232 -2.47094 0
M  V30 2363 C 214.81 4.89564 -3.67415 0
M  V30 2364 N 213.947 6.08661 -3.49966 0
M  V30 2365 H 218.787 1.7387 -2.42019 0
M  V30 2366 H 216.324 0.84868 -1.20149 0
M  V30 2367 H 218.282 3.95914 -1.31561 0
M  V30 2368 H 216.912 3.19374 -0.469033 0
M  V30 2369 H 215.964 2.56774 -2.80662 0
M  V30 2370 H 217.276 3.52557 -3.52853 0
M  V30 2371 H 216.43 5.5814 -2.37834 0
M  V30 2372 H 215.169 4.62353 -1.5518 0
M  V30 2373 H 214.174 4.00096 -3.77099 0
M  V30 2374 H 215.399 4.99282 -4.6032 0
M  V30 2375 H 213.345 6.0194 -2.60776 0
M  V30 2376 H 213.262 6.19733 -4.32975 0
M  V30 2377 H 214.53 6.99226 -3.44532 0
M  V30 2378 N 218.759 1.29093 0.90403 0
M  V30 2379 C 219.984 1.19809 1.69294 0
M  V30 2380 C 220.409 -0.238481 1.86582 0
M  V30 2381 O 219.767 -1.1723 1.383 0
M  V30 2382 C 219.815 1.91202 3.05736 0
M  V30 2383 O 218.919 1.22611 3.93752 0
M  V30 2384 H 218.26 0.415385 0.518027 0
M  V30 2385 H 220.79 1.70586 1.12967 0
M  V30 2386 H 220.8 1.99487 3.55906 0
M  V30 2387 H 219.475 2.95692 2.92471 0
M  V30 2388 H 218.052 1.22554 3.52186 0
M  V30 2389 N 220.237 -1.11381 1.11499 0
M  V30 2390 C 221.477 -1.84763 0.874188 0
M  V30 2391 C 221.841 -1.82726 -0.589496 0
M  V30 2392 O 223.042 -2.51562 -0.947089 0
M  V30 2393 C 221.313 -3.27931 1.42112 0
M  V30 2394 S 222.872 -4.18557 1.31739 0
M  V30 2395 H 219.69 -0.637115 0.315603 0
M  V30 2396 H 222.292 -1.34097 1.42261 0
M  V30 2397 H 220.996 -3.26978 2.48019 0
M  V30 2398 H 220.527 -3.83665 0.869761 0
M  V30 2399 H 222.542 -4.95396 0.282335 0
M  V30 2400 N 221.715 -0.905404 -1.28997 0
M  V30 2401 C 222.945 -0.549049 -1.99171 0
M  V30 2402 C 223.353 0.87203 -1.67906 0
M  V30 2403 O 222.696 1.58796 -0.923561 0
M  V30 2404 C 222.758 -0.668306 -3.53234 0
M  V30 2405 C 222.422 -2.0574 -4.08069 0
M  V30 2406 C 223.419 -3.0292 -4.22534 0
M  V30 2407 C 221.104 -2.36833 -4.42962 0
M  V30 2408 C 223.098 -4.29314 -4.71135 0
M  V30 2409 C 220.785 -3.63467 -4.91258 0
M  V30 2410 C 221.783 -4.59522 -5.053 0
M  V30 2411 O 221.471 -5.83907 -5.52546 0
M  V30 2412 H 221.203 -0.208784 -0.64295 0
M  V30 2413 H 223.757 -1.21836 -1.65363 0
M  V30 2414 H 221.987 0.0580547 -3.86656 0
M  V30 2415 H 223.676 -0.320273 -4.04634 0
M  V30 2416 H 224.442 -2.80216 -3.95859 0
M  V30 2417 H 220.321 -1.62824 -4.31288 0
M  V30 2418 H 223.865 -5.04293 -4.8201 0
M  V30 2419 H 219.762 -3.86 -5.17372 0
M  V30 2420 H 220.53 -5.86578 -5.70849 0
M  V30 2421 N 223.193 1.4272 -0.668489 0
M  V30 2422 C 224.423 2.05668 -0.196063 0
M  V30 2423 C 224.831 1.5028 1.14946 0
M  V30 2424 O 224.174 0.6348 1.72383 0
M  V30 2425 C 224.236 3.59469 -0.0468879 0
M  V30 2426 C 223.9 4.37518 -1.32012 0
M  V30 2427 C 224.897 4.68584 -2.25222 0
M  V30 2428 C 222.582 4.77266 -1.56596 0
M  V30 2429 C 224.576 5.38326 -3.41297 0
M  V30 2430 C 222.263 5.4675 -2.72962 0
M  V30 2431 C 223.261 5.77204 -3.65137 0
M  V30 2432 O 222.949 6.45264 -4.79468 0
M  V30 2433 H 222.681 0.669382 -0.0943599 0
M  V30 2434 H 225.235 1.83954 -0.913788 0
M  V30 2435 H 223.465 3.79817 0.726357 0
M  V30 2436 H 225.154 4.04071 0.384852 0
M  V30 2437 H 225.92 4.38382 -2.07477 0
M  V30 2438 H 221.799 4.52959 -0.857249 0
M  V30 2439 H 225.343 5.62014 -4.13263 0
M  V30 2440 H 221.24 5.76369 -2.90635 0
M  V30 2441 H 222.008 6.63753 -4.78931 0
M  V30 2442 N 224.671 0.411399 1.52136 0
M  V30 2443 C 225.601 -0.404015 2.29978 0
M  V30 2444 C 226.582 -1.04412 1.34284 0
M  V30 2445 O 227.767 -1.0527 1.63192 0
M  V30 2446 C 224.897 -1.5197 3.12286 0
M  V30 2447 C 223.851 -1.00448 4.16046 0
M  V30 2448 C 223.177 -2.21393 4.86712 0
M  V30 2449 C 224.477 -0.0569336 5.22269 0
M  V30 2450 H 226.171 0.245529 2.98392 0
M  V30 2451 H 223.717 0.119525 1.43503 0
M  V30 2452 H 225.67 -2.09715 3.6551 0
M  V30 2453 H 224.394 -2.19716 2.41646 0
M  V30 2454 H 223.053 -0.449421 3.63835 0
M  V30 2455 H 222.701 -2.87699 4.12599 0
M  V30 2456 H 222.401 -1.87571 5.56858 0
M  V30 2457 H 223.925 -2.7974 5.4275 0
M  V30 2458 H 225.339 -0.54325 5.7072 0
M  V30 2459 H 223.736 0.192594 5.99791 0
M  V30 2460 H 224.806 0.887663 4.76706 0
M  V30 2461 N 226.149 -1.5696 0.141893 0
M  V30 2462 C 227.56 -1.82797 -0.379776 0
M  V30 2463 C 227.911 -1.06033 -1.6508 0
M  V30 2464 O 227.036 -0.304011 -2.14254 0
M  V30 2465 C 227.631 -3.31578 -0.695802 0
M  V30 2466 C 226.19 -3.58014 -1.16201 0
M  V30 2467 C 225.337 -2.76699 -0.182455 0
M  V30 2468 H 228.288 -1.54406 0.366675 0
M  V30 2469 H 228.309 -3.47454 -1.55099 0
M  V30 2470 H 227.821 -3.87421 0.229449 0
M  V30 2471 H 225.922 -3.07553 -2.10338 0
M  V30 2472 H 226.035 -4.66501 -1.09151 0
M  V30 2473 H 224.399 -2.45618 -0.674072 0
M  V30 2474 H 225.182 -3.35311 0.736297 0
M  V30 2475 N 227.627 0.131896 -1.57047 0
M  V30 2476 C 228.867 0.847972 -1.85981 0
M  V30 2477 C 229.231 1.77655 -0.7282 0
M  V30 2478 O 230.432 2.53322 -0.898968 0
M  V30 2479 C 228.703 1.58919 -3.20124 0
M  V30 2480 S 230.262 2.34862 -3.70655 0
M  V30 2481 H 227.08 0.283273 -0.652133 0
M  V30 2482 H 229.682 0.107057 -1.95207 0
M  V30 2483 H 228.386 0.898771 -4.00438 0
M  V30 2484 H 227.917 2.37073 -3.13942 0
M  V30 2485 H 229.932 3.60344 -3.41126 0
M  V30 2486 N 229.106 1.52395 0.401703 0
M  V30 2487 C 230.353 1.66817 1.14796 0
M  V30 2488 C 230.681 0.401772 1.90305 0
M  V30 2489 O 229.936 -0.615487 1.85769 0
M  V30 2490 C 230.235 2.84578 2.16217 0
M  V30 2491 C 229.901 4.22513 1.5746 0
M  V30 2492 C 228.563 4.60029 1.41161 0
M  V30 2493 C 230.915 5.0844 1.14622 0
M  V30 2494 C 228.243 5.81144 0.80552 0
M  V30 2495 C 230.595 6.30167 0.55428 0
M  V30 2496 C 229.259 6.66426 0.378482 0
M  V30 2497 H 228.529 0.610428 0.420069 0
M  V30 2498 H 231.176 1.86512 0.434212 0
M  V30 2499 H 229.481 2.59248 2.93764 0
M  V30 2500 H 231.178 2.92933 2.73845 0
M  V30 2501 H 227.768 3.92953 1.71132 0
M  V30 2502 H 231.952 4.80034 1.26021 0
M  V30 2503 H 227.208 6.07855 0.657399 0
M  V30 2504 H 231.382 6.96071 0.213983 0
M  V30 2505 H 229.009 7.60143 -0.0932606 0
M  V30 2506 N 230.584 -0.659388 1.43143 0
M  V30 2507 C 231.83 -1.42145 1.44647 0
M  V30 2508 C 232.163 -1.9408 0.0681907 0
M  V30 2509 O 231.438 -1.71899 -0.910007 0
M  V30 2510 C 231.721 -2.60735 2.48373 0
M  V30 2511 C 231.574 -2.14332 3.95451 0
M  V30 2512 C 232.893 -3.62951 2.48906 0
M  V30 2513 H 230.012 -0.51552 0.526696 0
M  V30 2514 H 232.654 -0.748069 1.74654 0
M  V30 2515 H 230.804 -3.18184 2.22916 0
M  V30 2516 H 232.476 -1.61932 4.31944 0
M  V30 2517 H 230.719 -1.4576 4.08578 0
M  V30 2518 H 231.39 -2.99583 4.63631 0
M  V30 2519 H 233.866 -3.1525 2.71582 0
M  V30 2520 H 232.742 -4.43487 3.23435 0
M  V30 2521 H 233.003 -4.15126 1.52061 0
M  V30 2522 N 232.062 -1.29571 -0.897171 0
M  V30 2523 C 233.29 -1.20583 -1.68129 0
M  V30 2524 C 233.705 0.233181 -1.87354 0
M  V30 2525 O 233.062 1.15579 -1.41236 0
M  V30 2526 C 233.113 -1.91772 -3.06441 0
M  V30 2527 O 232.834 -3.30053 -2.88091 0
M  V30 2528 C 234.335 -1.89291 -4.00854 0
M  V30 2529 H 231.555 -0.417826 -0.525036 0
M  V30 2530 H 234.099 -1.70987 -1.12177 0
M  V30 2531 H 232.254 -1.45196 -3.59161 0
M  V30 2532 H 232.668 -3.65942 -3.75748 0
M  V30 2533 H 234.142 -2.43662 -4.95311 0
M  V30 2534 H 234.619 -0.869014 -4.30517 0
M  V30 2535 H 235.225 -2.35622 -3.54066 0
M  V30 2536 N 233.54 1.10788 -1.12088 0
M  V30 2537 C 234.765 1.87002 -0.896949 0
M  V30 2538 C 235.19 1.79933 0.548261 0
M  V30 2539 O 234.548 1.16662 1.38779 0
M  V30 2540 C 234.596 3.3349 -1.37174 0
M  V30 2541 O 233.7 4.08745 -0.547831 0
M  V30 2542 H 233.041 0.580397 -0.322545 0
M  V30 2543 H 235.571 1.39996 -1.49206 0
M  V30 2544 H 235.581 3.84339 -1.36922 0
M  V30 2545 H 234.256 3.37951 -2.42408 0
M  V30 2546 H 232.833 3.6776 -0.617034 0
M  V30 2547 N 235.018 0.912232 1.28515 0
M  V30 2548 C 235.965 0.397954 2.27343 0
M  V30 2549 C 236.935 -0.526766 1.57526 0
M  V30 2550 O 238.12 -0.449292 1.85435 0
M  V30 2551 C 235.26 -0.357263 3.43246 0
M  V30 2552 C 234.373 0.599788 4.27816 0
M  V30 2553 C 233.508 -0.173725 5.30916 0
M  V30 2554 C 232.547 0.777039 6.07148 0
M  V30 2555 N 231.684 0.0371398 7.0209 0
M  V30 2556 H 236.524 1.24577 2.70711 0
M  V30 2557 H 234.061 0.625612 1.33133 0
M  V30 2558 H 236.019 -0.8113 4.09236 0
M  V30 2559 H 234.649 -1.16943 3.00872 0
M  V30 2560 H 233.701 1.17235 3.61884 0
M  V30 2561 H 235.013 1.32704 4.80823 0
M  V30 2562 H 234.167 -0.688394 6.02782 0
M  V30 2563 H 232.906 -0.934041 4.78672 0
M  V30 2564 H 231.911 1.3031 5.34134 0
M  V30 2565 H 233.136 1.53689 6.61481 0
M  V30 2566 H 231.082 -0.705213 6.52198 0
M  V30 2567 H 230.999 0.704249 7.52713 0
M  V30 2568 H 232.267 -0.457383 7.78157 0
M  V30 2569 N 236.496 -1.42363 0.676048 0
M  V30 2570 C 237.444 -2.32596 -0.0131507 0
M  V30 2571 C 238.438 -1.49891 -0.789238 0
M  V30 2572 O 239.644 -1.65955 -0.697061 0
M  V30 2573 H 236.019 -0.751647 -0.0230481 0
M  V30 2574 H 237.99 -2.88421 0.765243 0
M  V30 2575 C 236.739 -3.34479 -0.949702 0
M  V30 2576 H 236.062 -3.98158 -0.361938 0
M  V30 2577 H 237.502 -4.00199 -1.4006 0
M  V30 2578 C 235.961 -2.66838 -2.05667 0
M  V30 2579 O 236.491 -2.50124 -3.14326 0
M  V30 2580 N 234.697 -2.25843 -1.82875 0
M  V30 2581 H 234.244 -2.39637 -0.945085 0
M  V30 2582 H 234.202 -1.80918 -2.5713 0
M  V30 2583 N 237.974 -0.419461 -1.51915 0
M  V30 2584 C 238.884 0.407528 -2.31033 0
M  V30 2585 C 239.9 1.04413 -1.3919 0
M  V30 2586 O 241.076 1.0434 -1.72265 0
M  V30 2587 C 238.141 1.50365 -3.12396 0
M  V30 2588 C 237.202 0.889029 -4.19994 0
M  V30 2589 C 236.435 1.93291 -4.97468 0
M  V30 2590 O 236.658 3.15259 -4.75361 0
M  V30 2591 O 235.592 1.53339 -5.8204 0
M  V30 2592 H 239.418 -0.237865 -3.02767 0
M  V30 2593 H 237.003 -0.182413 -1.48282 0
M  V30 2594 H 238.885 2.13975 -3.63032 0
M  V30 2595 H 237.56 2.13345 -2.43445 0
M  V30 2596 H 236.467 0.215353 -3.7348 0
M  V30 2597 H 237.8 0.302991 -4.91267 0
M  V30 2598 N 239.452 1.56882 -0.150215 0
M  V30 2599 C 240.692 1.98119 0.502804 0
M  V30 2600 C 241.056 1.03327 1.61826 0
M  V30 2601 O 242.257 1.33621 2.33236 0
M  V30 2602 C 240.528 3.43329 0.992988 0
M  V30 2603 S 242.087 4.0659 1.65015 0
M  V30 2604 H 238.905 0.692189 0.162467 0
M  V30 2605 H 241.507 1.93988 -0.242689 0
M  V30 2606 H 240.211 4.10046 0.170436 0
M  V30 2607 H 239.742 3.5118 1.77303 0
M  V30 2608 H 241.757 3.99906 2.93752 0
M  V30 2609 N 240.93 -0.123565 1.57115 0
M  V30 2610 C 241.86 -1.15309 2.03042 0
M  V30 2611 C 242.841 -1.43454 0.914061 0
M  V30 2612 O 244.026 -1.53973 1.18347 0
M  V30 2613 C 241.156 -2.48043 2.43089 0
M  V30 2614 C 240.11 -2.3437 3.58127 0
M  V30 2615 C 239.436 -3.72026 3.84059 0
M  V30 2616 C 240.736 -1.80804 4.90007 0
M  V30 2617 H 242.43 -0.771102 2.893 0
M  V30 2618 H 239.976 -0.369479 1.39179 0
M  V30 2619 H 241.929 -3.20311 2.73823 0
M  V30 2620 H 240.653 -2.88122 1.53796 0
M  V30 2621 H 239.312 -1.64551 3.27595 0
M  V30 2622 H 238.96 -4.09582 2.91979 0
M  V30 2623 H 238.66 -3.63732 4.6149 0
M  V30 2624 H 240.184 -4.45806 4.1724 0
M  V30 2625 H 241.598 -2.42886 5.19307 0
M  V30 2626 H 239.995 -1.83343 5.71407 0
M  V30 2627 H 241.065 -0.76528 4.78823 0
M  V30 2628 N 242.408 -1.52605 -0.393616 0
M  V30 2629 C 243.654 -1.68624 -1.13743 0
M  V30 2630 C 244.009 -0.418687 -1.87789 0
M  V30 2631 O 243.302 0.58747 -1.82371 0
M  V30 2632 C 243.496 -2.85721 -2.14705 0
M  V30 2633 C 243.325 -4.23742 -1.50575 0
M  V30 2634 C 242.095 -4.89033 -1.2718 0
M  V30 2635 C 244.293 -5.05293 -0.958311 0
M  V30 2636 N 242.275 -6.11048 -0.591058 0
M  V30 2637 C 243.646 -6.18673 -0.405367 0
M  V30 2638 C 245.701 -4.90517 -0.854274 0
M  V30 2639 C 244.404 -7.18895 0.241434 0
M  V30 2640 C 246.43 -5.90986 -0.221301 0
M  V30 2641 C 245.792 -7.03669 0.320894 0
M  V30 2642 H 241.891 -0.670556 -0.402342 0
M  V30 2643 H 244.475 -1.89946 -0.427607 0
M  V30 2644 H 242.646 -2.65987 -2.83029 0
M  V30 2645 H 244.378 -2.90699 -2.8156 0
M  V30 2646 H 241.133 -4.47672 -1.54554 0
M  V30 2647 H 241.557 -6.76474 -0.266862 0
M  V30 2648 H 246.199 -4.03612 -1.25926 0
M  V30 2649 H 243.917 -8.05413 0.658448 0
M  V30 2650 H 247.503 -5.81626 -0.142111 0
M  V30 2651 H 246.383 -7.80078 0.802956 0
M  V30 2652 N 243.887 0.651787 -1.4349 0
M  V30 2653 C 245.115 1.43937 -1.48626 0
M  V30 2654 C 245.53 1.8851 -0.104587 0
M  V30 2655 O 244.887 1.5958 0.885464 0
M  V30 2656 C 244.938 2.6734 -2.43334 0
M  V30 2657 O 244.659 2.24631 -3.76128 0
M  V30 2658 C 246.16 3.60683 -2.57726 0
M  V30 2659 H 243.38 0.44213 -0.504739 0
M  V30 2660 H 245.924 0.798944 -1.88248 0
M  V30 2661 H 244.079 3.2752 -2.06904 0
M  V30 2662 H 244.493 3.04485 -4.2707 0
M  V30 2663 H 245.967 4.43933 -3.28067 0
M  V30 2664 H 246.444 4.08126 -1.62265 0
M  V30 2665 H 247.05 3.06384 -2.94973 0
M  V30 2666 N 245.365 1.30045 0.890287 0
M  V30 2667 C 246.642 1.09227 1.62262 0
M  V30 2668 C 247.022 -0.360305 2.08002 0
M  V30 2669 O 246.37 -1.35084 1.84295 0
M  V30 2670 C 246.58 2.08835 2.79623 0
M  V30 2671 C 247.928 2.40266 3.50082 0
M  V30 2672 O 248.952 2.07104 2.89804 0
M  V30 2673 O 247.811 2.96967 4.58773 0
M  V30 2674 H 244.905 0.419132 0.712922 0
M  V30 2675 H 247.451 1.41451 0.937529 0
M  V30 2676 H 246.223 3.06633 2.43089 0
M  V30 2677 H 245.846 1.77397 3.55832 0
M  V30 2678 N 246.843 -1.10192 1.12674 0
M  V30 2679 C 247.776 -2.15847 0.740625 0
M  V30 2680 C 248.754 -1.60352 -0.269421 0
M  V30 2681 O 249.938 -1.87796 -0.16278 0
M  V30 2682 C 247.065 -3.38562 0.096641 0
M  V30 2683 C 246.111 -4.12758 1.07391 0
M  V30 2684 S 246.944 -4.67997 2.60267 0
M  V30 2685 C 248.1 -5.94021 1.97206 0
M  V30 2686 H 248.333 -2.48266 1.63558 0
M  V30 2687 H 245.866 -1.22019 0.946087 0
M  V30 2688 H 247.824 -4.09621 -0.268535 0
M  V30 2689 H 246.485 -3.04377 -0.775462 0
M  V30 2690 H 245.678 -5.00755 0.570997 0
M  V30 2691 H 245.28 -3.47523 1.38216 0
M  V30 2692 H 247.572 -6.64589 1.31634 0
M  V30 2693 H 248.515 -6.48979 2.83253 0
M  V30 2694 H 248.923 -5.46169 1.42686 0
M  V30 2695 N 248.321 -0.919034 -1.28029 0
M  V30 2696 C 249.251 -0.428581 -2.29533 0
M  V30 2697 C 250.232 0.50659 -1.62381 0
M  V30 2698 O 251.417 0.413195 -1.89753 0
M  V30 2699 C 248.547 0.327388 -3.45753 0
M  V30 2700 C 247.501 -0.519137 -4.2484 0
M  V30 2701 C 246.827 0.365486 -5.33449 0
M  V30 2702 C 248.127 -1.77914 -4.91064 0
M  V30 2703 H 249.821 -1.27687 -2.70807 0
M  V30 2704 H 247.367 -0.615428 -1.30186 0
M  V30 2705 H 249.32 0.681378 -4.15855 0
M  V30 2706 H 248.044 1.20963 -3.03374 0
M  V30 2707 H 246.703 -0.855717 -3.56473 0
M  V30 2708 H 246.351 1.24642 -4.87312 0
M  V30 2709 H 246.051 -0.197356 -5.87268 0
M  V30 2710 H 247.575 0.715241 -6.06396 0
M  V30 2711 H 248.989 -1.49374 -5.53498 0
M  V30 2712 H 247.386 -2.2848 -5.54903 0
M  V30 2713 H 248.456 -2.50382 -4.15255 0
M  V30 2714 N 249.799 1.42003 -0.683588 0
M  V30 2715 C 251.024 2.06265 -0.216647 0
M  V30 2716 C 251.449 1.51059 1.12083 0
M  V30 2717 O 250.807 0.632638 1.69904 0
M  V30 2718 C 250.855 3.60191 -0.171759 0
M  V30 2719 O 249.959 4.03396 0.857069 0
M  V30 2720 H 249.3 0.65502 -0.108834 0
M  V30 2721 H 251.83 1.81982 -0.935077 0
M  V30 2722 H 251.84 4.08 0.0014303 0
M  V30 2723 H 250.515 3.99743 -1.14796 0
M  V30 2724 H 249.092 3.67117 0.654208 0
M  V30 2725 N 251.277 0.427512 1.51691 0
M  V30 2726 C 252.225 -0.403359 2.29076 0
M  V30 2727 C 253.219 -1.02962 1.34518 0
M  V30 2728 O 254.425 -0.965715 1.51901 0
M  V30 2729 H 250.8 -0.148879 0.737115 0
M  V30 2730 H 252.771 0.270295 2.97173 0
M  V30 2731 C 251.52 -1.49763 3.13794 0
M  V30 2732 H 250.843 -1.02508 3.86435 0
M  V30 2733 H 252.283 -2.05244 3.71014 0
M  V30 2734 C 250.742 -2.47536 2.28533 0
M  V30 2735 O 251.272 -3.51848 1.93819 0
M  V30 2736 N 249.478 -2.18187 1.91945 0
M  V30 2737 H 249.025 -1.33389 2.20375 0
M  V30 2738 H 248.983 -2.83848 1.35195 0
M  V30 2739 N 252.755 -1.56801 0.158532 0
M  V30 2740 C 254.002 -1.9649 -0.489679 0
M  V30 2741 C 254.33 -1.04394 -1.6411 0
M  V30 2742 O 253.585 -0.0754401 -1.95555 0
M  V30 2743 C 253.884 -3.4235 -1.02623 0
M  V30 2744 C 253.55 -4.50899 0.00794526 0
M  V30 2745 C 252.212 -4.80312 0.292207 0
M  V30 2746 C 254.564 -5.16333 0.710584 0
M  V30 2747 C 251.892 -5.72461 1.28472 0
M  V30 2748 C 254.244 -6.09553 1.69199 0
M  V30 2749 C 252.908 -6.37339 1.98383 0
M  V30 2750 H 252.178 -0.719009 -0.179186 0
M  V30 2751 H 254.825 -1.8989 0.247798 0
M  V30 2752 H 253.13 -3.45838 -1.84128 0
M  V30 2753 H 254.827 -3.70393 -1.53656 0
M  V30 2754 H 251.417 -4.28015 -0.22379 0
M  V30 2755 H 255.601 -4.93732 0.504174 0
M  V30 2756 H 250.857 -5.92278 1.51714 0
M  V30 2757 H 255.031 -6.59327 2.24189 0
M  V30 2758 H 252.658 -7.08546 2.7544 0
M  V30 2759 N 254.233 0.115231 -1.57178 0
M  V30 2760 C 255.481 0.820727 -1.84685 0
M  V30 2761 C 255.802 1.80237 -0.744279 0
M  V30 2762 O 255.072 1.94529 0.231375 0
M  V30 2763 H 253.652 0.306084 -0.681411 0
M  V30 2764 H 256.314 0.101656 -1.94635 0
M  V30 2765 H 255.41 1.36366 -2.80733 0
M  V30 2766 N 255.711 1.52812 0.385517 0
M  V30 2767 C 256.941 1.71658 1.14966 0
M  V30 2768 C 257.349 0.436253 1.84102 0
M  V30 2769 O 256.692 -0.599313 1.73649 0
M  V30 2770 C 256.754 2.81309 2.23843 0
M  V30 2771 C 256.418 4.22313 1.74644 0
M  V30 2772 C 257.415 5.05352 1.22129 0
M  V30 2773 C 255.1 4.68648 1.80761 0
M  V30 2774 C 257.094 6.32807 0.763838 0
M  V30 2775 C 254.781 5.96086 1.34627 0
M  V30 2776 C 255.779 6.77996 0.825264 0
M  V30 2777 O 255.467 8.03045 0.370669 0
M  V30 2778 H 255.199 0.578022 0.350523 0
M  V30 2779 H 257.753 2.00263 0.456509 0
M  V30 2780 H 255.983 2.48133 2.96592 0
M  V30 2781 H 257.672 2.88524 2.85497 0
M  V30 2782 H 258.438 4.70736 1.16758 0
M  V30 2783 H 254.317 4.04979 2.20256 0
M  V30 2784 H 257.861 6.96689 0.356494 0
M  V30 2785 H 253.758 6.30205 1.39686 0
M  V30 2786 H 254.526 8.17021 0.491829 0
M  V30 2787 N 257.189 -0.644168 1.43834 0
M  V30 2788 C 258.6 -1.22554 1.40845 0
M  V30 2789 C 258.951 -1.9585 0.117115 0
M  V30 2790 O 258.076 -2.01734 -0.783086 0
M  V30 2791 C 258.671 -2.22907 2.55143 0
M  V30 2792 C 257.23 -2.76501 2.5539 0
M  V30 2793 C 256.377 -1.51287 2.32396 0
M  V30 2794 H 259.328 -0.43563 1.52604 0
M  V30 2795 H 259.349 -3.05259 2.2715 0
M  V30 2796 H 258.861 -1.69533 3.49114 0
M  V30 2797 H 256.962 -3.33914 1.65324 0
M  V30 2798 H 257.075 -3.23429 3.53455 0
M  V30 2799 H 255.439 -1.78957 1.81236 0
M  V30 2800 H 256.222 -0.998336 3.28463 0
M  V30 2801 N 258.668 -1.30515 -0.883378 0
M  V30 2802 C 259.916 -1.19194 -1.63209 0
M  V30 2803 C 260.237 0.253205 -1.93349 0
M  V30 2804 O 259.507 1.17025 -1.57105 0
M  V30 2805 H 258.087 -0.438148 -0.605009 0
M  V30 2806 H 260.749 -1.63663 -1.05832 0
M  V30 2807 H 259.845 -1.75396 -2.58153 0
M  V30 2808 N 260.146 1.09593 -1.13257 0
M  V30 2809 C 261.376 1.85231 -0.915049 0
M  V30 2810 C 261.784 1.81345 0.539498 0
M  V30 2811 O 261.127 1.20664 1.38513 0
M  V30 2812 C 261.189 3.34275 -1.3229 0
M  V30 2813 C 260.853 3.6191 -2.79052 0
M  V30 2814 C 261.85 3.57777 -3.77216 0
M  V30 2815 C 259.535 3.90309 -3.16171 0
M  V30 2816 C 261.529 3.81652 -5.1051 0
M  V30 2817 C 259.216 4.13839 -4.49644 0
M  V30 2818 C 260.214 4.09502 -5.46623 0
M  V30 2819 O 259.902 4.32426 -6.77689 0
M  V30 2820 H 259.634 0.591997 -0.326367 0
M  V30 2821 H 262.188 1.394 -1.50854 0
M  V30 2822 H 260.418 3.80805 -0.672667 0
M  V30 2823 H 262.107 3.9132 -1.07812 0
M  V30 2824 H 262.873 3.35865 -3.49885 0
M  V30 2825 H 258.752 3.92811 -2.41289 0
M  V30 2826 H 262.296 3.78182 -5.86195 0
M  V30 2827 H 258.193 4.35232 -4.767 0
M  V30 2828 H 258.961 4.49896 -6.83766 0
M  V30 2829 N 261.624 0.925811 1.2754 0
M  V30 2830 C 262.556 0.380753 2.26015 0
M  V30 2831 C 263.569 -0.487485 1.5533 0
M  V30 2832 O 264.758 -0.300413 1.75954 0
M  V30 2833 C 261.858 -0.473259 3.35579 0
M  V30 2834 C 261.031 0.375249 4.35787 0
M  V30 2835 C 260.09 -0.415809 5.24555 0
M  V30 2836 O 259.116 0.175834 5.68928 0
M  V30 2837 N 260.318 -1.71607 5.54555 0
M  V30 2838 H 263.083 1.22725 2.73421 0
M  V30 2839 H 260.644 0.793037 1.41147 0
M  V30 2840 H 262.636 -1.00949 3.91907 0
M  V30 2841 H 261.206 -1.2205 2.87789 0
M  V30 2842 H 260.426 1.09279 3.7875 0
M  V30 2843 H 261.714 0.955399 4.99749 0
M  V30 2844 H 261.112 -2.2191 5.20358 0
M  V30 2845 H 259.669 -2.19887 6.1359 0
M  V30 2846 N 263.102 -1.41638 0.69111 0
M  V30 2847 C 264.327 -2.06148 0.227583 0
M  V30 2848 C 264.752 -1.51652 -1.11281 0
M  V30 2849 O 264.11 -0.64164 -1.69566 0
M  V30 2850 C 264.158 -3.60095 0.190858 0
M  V30 2851 O 263.262 -4.03845 -0.835664 0
M  V30 2852 H 262.603 -0.654434 0.112306 0
M  V30 2853 H 265.133 -1.81484 0.944714 0
M  V30 2854 H 265.143 -4.07995 0.020207 0
M  V30 2855 H 263.818 -3.99129 1.16915 0
M  V30 2856 H 262.395 -3.67458 -0.63473 0
M  V30 2857 N 264.58 -0.43555 -1.51462 0
M  V30 2858 C 265.527 0.376797 -2.27703 0
M  V30 2859 C 266.497 1.01838 -1.31219 0
M  V30 2860 O 267.682 1.03762 -1.60119 0
M  V30 2861 C 264.822 1.47301 -3.12084 0
M  V30 2862 C 263.935 0.849744 -4.2356 0
M  V30 2863 C 263.07 1.92086 -4.95254 0
M  V30 2864 C 262.109 1.27593 -5.98654 0
M  V30 2865 N 261.246 2.28833 -6.63762 0
M  V30 2866 H 266.086 -0.279734 -2.96684 0
M  V30 2867 H 263.623 -0.149795 -1.46335 0
M  V30 2868 H 265.581 2.11984 -3.59331 0
M  V30 2869 H 264.211 2.0992 -2.45221 0
M  V30 2870 H 263.263 0.0912529 -3.80291 0
M  V30 2871 H 264.575 0.338878 -4.97648 0
M  V30 2872 H 263.729 2.64435 -5.46039 0
M  V30 2873 H 262.468 2.46545 -4.20793 0
M  V30 2874 H 261.473 0.537893 -5.47162 0
M  V30 2875 H 262.698 0.738693 -6.7507 0
M  V30 2876 H 260.644 2.82375 -5.92115 0
M  V30 2877 H 260.561 1.82632 -7.33608 0
M  V30 2878 H 261.829 3.00671 -7.19178 0
M  V30 2879 N 266.058 1.56714 -0.166846 0
M  V30 2880 C 267.008 2.14338 0.777382 0
M  V30 2881 C 267.992 1.07642 1.19591 0
M  V30 2882 O 269.184 1.33775 1.15902 0
M  V30 2883 C 266.313 2.78417 2.00846 0
M  V30 2884 C 265.399 3.92264 1.61212 0
M  V30 2885 N 265.79 4.97268 0.925104 0
M  V30 2886 C 264.088 4.03342 1.90346 0
M  V30 2887 C 264.789 5.77093 0.730627 0
M  V30 2888 N 263.765 5.2854 1.27067 0
M  V30 2889 H 267.567 2.9289 0.243466 0
M  V30 2890 H 265.081 1.62364 0.0339954 0
M  V30 2891 H 267.078 3.18073 2.69509 0
M  V30 2892 H 265.738 2.01344 2.54736 0
M  V30 2893 H 266.749 5.14601 0.583646 0
M  V30 2894 H 263.426 3.37368 2.45946 0
M  V30 2895 H 264.816 6.71638 0.187668 0
M  V30 2896 N 267.536 -0.106894 1.57237 0
M  V30 2897 C 268.766 -0.825191 1.89405 0
M  V30 2898 C 269.174 -1.73374 0.757496 0
M  V30 2899 O 268.517 -1.81552 -0.280115 0
M  V30 2900 C 268.579 -1.70102 3.1671 0
M  V30 2901 C 268.243 -0.965523 4.46684 0
M  V30 2902 C 269.24 -0.300741 5.19029 0
M  V30 2903 C 266.925 -0.943105 4.93367 0
M  V30 2904 C 268.919 0.376622 6.36286 0
M  V30 2905 C 266.606 -0.261949 6.10538 0
M  V30 2906 C 267.604 0.396748 6.81847 0
M  V30 2907 O 267.292 1.06701 7.96787 0
M  V30 2908 H 267.024 -0.241852 0.631255 0
M  V30 2909 H 269.578 -0.0921491 2.05193 0
M  V30 2910 H 267.808 -2.47601 2.97036 0
M  V30 2911 H 269.497 -2.29483 3.34802 0
M  V30 2912 H 270.263 -0.309599 4.84011 0
M  V30 2913 H 266.142 -1.44524 4.3776 0
M  V30 2914 H 269.686 0.891334 6.91882 0
M  V30 2915 H 265.583 -0.250896 6.45012 0
M  V30 2916 H 266.351 0.972707 8.127 0
M  V30 2917 N 269.014 -1.53014 -0.377408 0
M  V30 2918 C 269.977 -1.77957 -1.44444 0
M  V30 2919 C 270.977 -0.649763 -1.47087 0
M  V30 2920 O 272.167 -0.917897 -1.48055 0
M  V30 2921 C 269.299 -1.89089 -2.83651 0
M  V30 2922 H 270.492 -2.73243 -1.23606 0
M  V30 2923 H 268.045 -1.43912 -0.609844 0
M  V30 2924 H 268.78 -0.958293 -3.09818 0
M  V30 2925 H 268.565 -2.71254 -2.83132 0
M  V30 2926 H 270.055 -2.1002 -3.60945 0
M  V30 2927 N 270.492 0.636531 -1.44174 0
M  V30 2928 C 271.732 1.40781 -1.48189 0
M  V30 2929 C 272.096 1.91688 -0.10944 0
M  V30 2930 O 273.297 2.68789 -0.0242741 0
M  V30 2931 C 271.568 2.54575 -2.50851 0
M  V30 2932 S 273.127 3.4284 -2.73873 0
M  V30 2933 H 269.945 0.480345 -0.524204 0
M  V30 2934 H 272.547 0.737416 -1.81059 0
M  V30 2935 H 271.251 2.15478 -3.49281 0
M  V30 2936 H 270.782 3.26447 -2.19536 0
M  V30 2937 H 272.797 4.51846 -2.05059 0
M  V30 2938 N 271.97 1.30982 0.876444 0
M  V30 2939 C 273.219 1.19658 1.62373 0
M  V30 2940 C 273.532 -0.245636 1.94052 0
M  V30 2941 O 274.738 -0.48049 2.67214 0
M  V30 2942 C 273.194 2.09433 2.92687 0
M  V30 2943 C 272.802 3.58613 2.68516 0
M  V30 2944 C 274.546 2.06893 3.70669 0
M  V30 2945 C 272.453 4.40416 3.94699 0
M  V30 2946 H 271.383 0.444268 0.609214 0
M  V30 2947 H 274.034 1.55791 0.969605 0
M  V30 2948 H 272.416 1.66191 3.59439 0
M  V30 2949 H 273.59 4.10058 2.10212 0
M  V30 2950 H 271.905 3.63063 2.03898 0
M  V30 2951 H 274.502 2.65258 4.64265 0
M  V30 2952 H 274.845 1.05448 4.02724 0
M  V30 2953 H 275.378 2.48301 3.10792 0
M  V30 2954 H 272.117 5.42591 3.67798 0
M  V30 2955 H 271.637 3.93731 4.52477 0
M  V30 2956 H 273.316 4.52294 4.62644 0
M  V30 2957 N 273.449 -1.08991 1.13837 0
M  V30 2958 C 274.865 -1.33312 0.877506 0
M  V30 2959 C 275.065 -1.95587 -0.48456 0
M  V30 2960 O 274.121 -2.20509 -1.23013 0
M  V30 2961 C 275.434 -2.24045 2.0056 0
M  V30 2962 C 276.982 -2.37542 2.03821 0
M  V30 2963 C 277.457 -3.31614 3.15905 0
M  V30 2964 N 278.948 -3.39189 3.15445 0
M  V30 2965 C 279.683 -4.11992 3.98811 0
M  V30 2966 N 279.179 -4.87553 4.92203 0
M  V30 2967 N 280.972 -4.07762 3.86894 0
M  V30 2968 H 273.123 -0.669456 2.01574 0
M  V30 2969 H 275.386 -0.357482 0.878015 0
M  V30 2970 H 275.092 -1.85521 2.98789 0
M  V30 2971 H 274.966 -3.24466 1.92359 0
M  V30 2972 H 277.353 -2.75327 1.06202 0
M  V30 2973 H 277.434 -1.36884 2.16093 0
M  V30 2974 H 277.078 -2.94551 4.13766 0
M  V30 2975 H 277.008 -4.32186 3.0087 0
M  V30 2976 H 279.499 -2.85314 2.47799 0
M  V30 2977 H 279.812 -5.40549 5.52292 0
M  V30 2978 H 278.157 -4.86627 4.96205 0
M  V30 2979 H 281.348 -3.47833 3.13257 0
M  V30 2980 H 281.521 -4.64238 4.52092 0
M  V30 2981 N 274.927 -0.932562 -1.27047 0
M  V30 2982 C 275.859 -0.392734 -2.2581 0
M  V30 2983 C 276.872 0.479241 -1.55586 0
M  V30 2984 O 278.061 0.291078 -1.76111 0
M  V30 2985 C 275.161 0.455456 -3.35826 0
M  V30 2986 C 274.334 -0.398355 -4.35582 0
M  V30 2987 C 273.393 0.387985 -5.24768 0
M  V30 2988 O 272.419 -0.206003 -5.68827 0
M  V30 2989 N 273.621 1.68664 -5.55457 0
M  V30 2990 H 276.386 -1.24173 -2.72766 0
M  V30 2991 H 273.947 -0.800511 -1.40725 0
M  V30 2992 H 275.939 0.988692 -3.92437 0
M  V30 2993 H 274.509 1.20522 -2.88432 0
M  V30 2994 H 273.729 -1.11286 -3.78165 0
M  V30 2995 H 275.017 -0.981889 -4.99236 0
M  V30 2996 H 274.415 2.19147 -5.21528 0
M  V30 2997 H 272.972 2.1663 -6.14748 0
M  V30 2998 N 276.405 1.4127 -0.698611 0
M  V30 2999 C 277.352 2.30773 -0.0352094 0
M  V30 3000 C 278.322 1.47273 0.768111 0
M  V30 3001 O 279.507 1.76053 0.735524 0
M  V30 3002 C 276.647 3.33346 0.893 0
M  V30 3003 C 275.76 4.31924 0.0809695 0
M  V30 3004 C 274.895 5.21566 1.0071 0
M  V30 3005 C 273.934 6.11811 0.188155 0
M  V30 3006 N 273.071 6.93926 1.06825 0
M  V30 3007 H 277.911 2.86943 -0.804207 0
M  V30 3008 H 275.448 1.4132 -0.408294 0
M  V30 3009 H 277.406 3.91368 1.44523 0
M  V30 3010 H 276.036 2.78719 1.62836 0
M  V30 3011 H 275.088 3.75825 -0.588224 0
M  V30 3012 H 276.4 4.95716 -0.553801 0
M  V30 3013 H 275.554 5.84437 1.62845 0
M  V30 3014 H 274.293 4.58008 1.67572 0
M  V30 3015 H 273.298 5.47986 -0.446254 0
M  V30 3016 H 274.523 6.77425 -0.476716 0
M  V30 3017 H 272.469 6.32973 1.72283 0
M  V30 3018 H 272.386 7.54416 0.489123 0
M  V30 3019 H 273.654 7.61262 1.67632 0
M  V30 3020 N 277.883 0.443576 1.51229 0
M  V30 3021 C 279.131 -0.120557 2.0174 0
M  V30 3022 C 279.452 -1.42665 1.32935 0
M  V30 3023 O 278.722 -1.9028 0.465866 0
M  V30 3024 H 277.302 -0.0475426 0.745486 0
M  V30 3025 H 279.964 0.587711 1.85828 0
M  V30 3026 H 279.06 -0.291972 3.10731 0
M  V30 3027 N 279.361 -1.56624 0.175154 0
M  V30 3028 C 280.609 -1.96609 -0.467885 0
M  V30 3029 C 280.93 -1.06238 -1.63519 0
M  V30 3030 O 280.2 -0.129523 -1.95471 0
M  V30 3031 H 278.78 -0.726008 -0.175845 0
M  V30 3032 H 281.442 -1.93195 0.257234 0
M  V30 3033 H 280.538 -3.00989 -0.825342 0
M  V30 3034 N 280.839 0.0985539 -1.57292 0
M  V30 3035 C 282.069 0.815135 -1.8984 0
M  V30 3036 C 282.477 1.7297 -0.766679 0
M  V30 3037 O 281.82 1.81698 0.270483 0
M  V30 3038 C 281.882 1.6842 -3.17608 0
M  V30 3039 C 281.546 0.94182 -4.4719 0
M  V30 3040 C 282.543 0.273212 -5.19182 0
M  V30 3041 C 280.228 0.916927 -4.9386 0
M  V30 3042 C 282.222 -0.410361 -6.36078 0
M  V30 3043 C 279.909 0.229567 -6.10669 0
M  V30 3044 C 280.907 -0.432902 -6.81627 0
M  V30 3045 O 280.595 -1.10925 -7.9621 0
M  V30 3046 H 280.327 0.238501 -0.632529 0
M  V30 3047 H 282.881 0.0812659 -2.05239 0
M  V30 3048 H 281.111 2.46022 -2.98345 0
M  V30 3049 H 282.8 2.27704 -3.36015 0
M  V30 3050 H 283.566 0.283927 -4.84168 0
M  V30 3051 H 279.445 1.42201 -4.3852 0
M  V30 3052 H 282.989 -0.928013 -6.914 0
M  V30 3053 H 278.886 0.216686 -6.45136 0
M  V30 3054 H 279.654 -1.01579 -8.12172 0
M  V30 3055 N 282.317 1.53212 0.369288 0
M  V30 3056 C 283.557 1.70915 1.12105 0
M  V30 3057 C 283.921 0.449444 1.86665 0
M  V30 3058 O 285.122 0.503105 2.6405 0
M  V30 3059 C 283.393 2.9222 2.05772 0
M  V30 3060 S 284.952 3.30609 2.88519 0
M  V30 3061 H 281.77 0.601445 0.379189 0
M  V30 3062 H 284.372 1.91306 0.402794 0
M  V30 3063 H 283.076 3.82103 1.49752 0
M  V30 3064 H 282.607 2.7422 2.82076 0
M  V30 3065 H 284.622 2.82333 4.08047 0
M  V30 3066 N 283.795 -0.628877 1.44509 0
M  V30 3067 C 285.02 -1.42048 1.5112 0
M  V30 3068 C 285.445 -1.87594 0.137818 0
M  V30 3069 O 284.803 -1.58873 -0.873437 0
M  V30 3070 C 284.851 -2.61541 2.48251 0
M  V30 3071 O 283.955 -3.61453 1.98559 0
M  V30 3072 H 283.296 -0.424942 0.510216 0
M  V30 3073 H 285.826 -0.767374 1.89664 0
M  V30 3074 H 285.836 -3.09057 2.66361 0
M  V30 3075 H 284.511 -2.27736 3.48007 0
M  V30 3076 H 283.088 -3.20731 1.90227 0
M  V30 3077 N 285.273 -1.31445 -0.869486 0
M  V30 3078 C 286.519 -1.22347 -1.62489 0
M  V30 3079 C 286.874 0.216204 -1.91181 0
M  V30 3080 O 286.167 1.14977 -1.53268 0
M  V30 3081 C 286.361 -2.00145 -2.96102 0
M  V30 3082 C 286.19 -3.51531 -2.80456 0
M  V30 3083 C 284.96 -4.20882 -2.79618 0
M  V30 3084 C 287.158 -4.46471 -2.5528 0
M  V30 3085 N 285.14 -5.58421 -2.55027 0
M  V30 3086 C 286.511 -5.71682 -2.39957 0
M  V30 3087 C 288.566 -4.35892 -2.40629 0
M  V30 3088 C 287.269 -6.87511 -2.11472 0
M  V30 3089 C 289.295 -5.51505 -2.13532 0
M  V30 3090 C 288.657 -6.75707 -1.98998 0
M  V30 3091 H 284.756 -0.502815 -0.598917 0
M  V30 3092 H 287.34 -1.65639 -1.02332 0
M  V30 3093 H 285.511 -1.59221 -3.54264 0
M  V30 3094 H 287.243 -1.83063 -3.60929 0
M  V30 3095 H 283.998 -3.72857 -2.92018 0
M  V30 3096 H 284.422 -6.30841 -2.45701 0
M  V30 3097 H 289.064 -3.40533 -2.50593 0
M  V30 3098 H 286.782 -7.82897 -2.00245 0
M  V30 3099 H 290.368 -5.45238 -2.02995 0
M  V30 3100 H 289.248 -7.63655 -1.78326 0
M  V30 3101 N 286.751 1.08385 -1.14413 0
M  V30 3102 C 287.981 1.8425 -0.934644 0
M  V30 3103 C 288.389 1.81907 0.520234 0
M  V30 3104 O 287.732 1.22126 1.37226 0
M  V30 3105 C 287.794 3.32853 -1.35828 0
M  V30 3106 C 287.458 3.5893 -2.82875 0
M  V30 3107 C 288.455 3.53756 -3.80989 0
M  V30 3108 C 286.14 3.86934 -3.20293 0
M  V30 3109 C 288.134 3.76216 -5.14529 0
M  V30 3110 C 285.821 4.09047 -4.54008 0
M  V30 3111 C 286.819 4.03682 -5.50936 0
M  V30 3112 O 286.507 4.25214 -6.82238 0
M  V30 3113 H 286.239 0.588502 -0.332628 0
M  V30 3114 H 288.793 1.37792 -1.52324 0
M  V30 3115 H 287.023 3.8007 -0.713019 0
M  V30 3116 H 288.712 3.90154 -1.11957 0
M  V30 3117 H 289.478 3.32135 -3.53428 0
M  V30 3118 H 285.357 3.9023 -2.45442 0
M  V30 3119 H 288.901 3.71943 -5.90173 0
M  V30 3120 H 284.798 4.30151 -4.8129 0
M  V30 3121 H 285.566 4.42619 -6.88499 0
M  V30 3122 N 288.23 0.939286 1.26551 0
M  V30 3123 C 289.646 0.641304 1.46149 0
M  V30 3124 C 289.846 -0.805964 1.84679 0
M  V30 3125 O 288.902 -1.58278 1.96734 0
M  V30 3126 C 290.215 1.6011 2.54529 0
M  V30 3127 C 291.763 1.6106 2.68382 0
M  V30 3128 C 292.238 2.55765 3.79932 0
M  V30 3129 N 293.729 2.5404 3.87322 0
M  V30 3130 C 294.464 3.24004 4.73085 0
M  V30 3131 N 293.96 4.03388 5.63249 0
M  V30 3132 N 295.753 3.12965 4.66914 0
M  V30 3133 H 287.904 1.87478 0.998285 0
M  V30 3134 H 290.167 0.805559 0.499779 0
M  V30 3135 H 289.873 2.63412 2.33039 0
M  V30 3136 H 289.747 1.35171 3.52149 0
M  V30 3137 H 292.134 0.584835 2.89247 0
M  V30 3138 H 292.215 1.90053 1.71212 0
M  V30 3139 H 291.859 3.58458 3.5982 0
M  V30 3140 H 291.789 2.24063 4.76554 0
M  V30 3141 H 294.28 1.96396 3.22858 0
M  V30 3142 H 294.593 4.5373 6.25579 0
M  V30 3143 H 292.938 4.07489 5.63008 0
M  V30 3144 H 296.129 2.50432 3.95476 0
M  V30 3145 H 296.302 3.67759 5.33533 0
M  V30 3146 N 289.708 -1.40897 0.706093 0
M  V30 3147 C 290.956 -2.00657 0.241054 0
M  V30 3148 C 291.277 -1.56241 -1.16678 0
M  V30 3149 O 290.547 -0.79765 -1.78926 0
M  V30 3150 H 289.127 -0.742018 0.0861308 0
M  V30 3151 H 291.789 -1.72372 0.909604 0
M  V30 3152 H 290.885 -3.10958 0.266705 0
M  V30 3153 N 291.186 -0.45159 -1.50991 0
M  V30 3154 C 292.432 0.102439 -2.03142 0
M  V30 3155 C 292.787 1.39138 -1.32884 0
M  V30 3156 O 292.08 1.86493 -0.439438 0
M  V30 3157 C 292.274 0.361728 -3.55565 0
M  V30 3158 C 292.103 -0.900535 -4.40591 0
M  V30 3159 C 290.873 -1.43821 -4.844 0
M  V30 3160 C 293.071 -1.79063 -4.82121 0
M  V30 3161 N 291.053 -2.65153 -5.53685 0
M  V30 3162 C 292.424 -2.84991 -5.50618 0
M  V30 3163 C 294.479 -1.80334 -4.64095 0
M  V30 3164 C 293.182 -3.92155 -6.02998 0
M  V30 3165 C 295.208 -2.86442 -5.17402 0
M  V30 3166 C 294.57 -3.9109 -5.85857 0
M  V30 3167 H 290.669 -0.00204537 -0.781997 0
M  V30 3168 H 293.253 -0.615446 -1.84717 0
M  V30 3169 H 291.424 1.04865 -3.73976 0
M  V30 3170 H 293.156 0.908372 -3.94374 0
M  V30 3171 H 289.911 -0.990117 -4.63135 0
M  V30 3172 H 290.335 -3.26717 -5.92946 0
M  V30 3173 H 294.977 -1.00753 -4.1062 0
M  V30 3174 H 292.695 -4.72565 -6.55521 0
M  V30 3175 H 296.281 -2.88386 -5.05297 0
M  V30 3176 H 295.161 -4.71845 -6.26364 0
M  V30 3177 N 292.664 1.56529 -0.183458 0
M  V30 3178 C 293.627 2.17324 0.728223 0
M  V30 3179 C 294.627 1.12453 1.14939 0
M  V30 3180 O 295.817 1.37902 1.06437 0
M  V30 3181 C 292.949 2.76591 1.99274 0
M  V30 3182 H 294.142 2.99241 0.198772 0
M  V30 3183 H 291.695 1.5616 0.0661391 0
M  V30 3184 H 292.43 1.98441 2.56499 0
M  V30 3185 H 292.215 3.5335 1.69959 0
M  V30 3186 H 293.705 3.23311 2.6431 0
M  V30 3187 N 294.142 -0.090211 1.57342 0
M  V30 3188 C 295.553 -0.644173 1.75235 0
M  V30 3189 C 295.904 -1.78865 0.806335 0
M  V30 3190 O 295.029 -2.16395 -0.0140128 0
M  V30 3191 C 295.624 -1.17532 3.1776 0
M  V30 3192 C 294.183 -1.67531 3.37061 0
M  V30 3193 C 293.33 -0.58693 2.71017 0
M  V30 3194 H 296.281 0.135884 1.58117 0
M  V30 3195 H 296.302 -2.04455 3.20902 0
M  V30 3196 H 295.814 -0.342138 3.86589 0
M  V30 3197 H 293.915 -2.53234 2.73319 0
M  V30 3198 H 294.028 -1.76493 4.45406 0
M  V30 3199 H 292.392 -1.02756 2.33052 0
M  V30 3200 H 293.175 0.235758 3.4249 0
M  V30 3201 N 295.62 -1.53406 -0.361157 0
M  V30 3202 C 297.031 -1.61442 -0.937728 0
M  V30 3203 C 297.382 -0.48461 -1.90121 0
M  V30 3204 O 296.507 0.388312 -2.12888 0
M  V30 3205 C 297.102 -2.92624 -1.70753 0
M  V30 3206 C 295.661 -3.02981 -2.23337 0
M  V30 3207 C 294.808 -2.5677 -1.04712 0
M  V30 3208 H 297.759 -1.58083 -0.139816 0
M  V30 3209 H 297.78 -2.80675 -2.56908 0
M  V30 3210 H 297.292 -3.74834 -1.00604 0
M  V30 3211 H 295.393 -2.25368 -2.96715 0
M  V30 3212 H 295.506 -4.0814 -2.50916 0
M  V30 3213 H 293.87 -2.11752 -1.41539 0
M  V30 3214 H 294.653 -3.41402 -0.360539 0
M  V30 3215 N 297.098 0.621204 -1.44841 0
M  V30 3216 C 298.375 1.38 -1.38619 0
M  V30 3217 C 298.755 2.11041 -0.0498935 0
M  V30 3218 O 298.103 2.06992 0.967816 0
M  V30 3219 C 298.313 2.33817 -2.59096 0
M  V30 3220 C 299.661 2.96844 -3.03593 0
M  V30 3221 O 300.685 2.44141 -2.59371 0
M  V30 3222 O 299.544 3.92476 -3.80296 0
M  V30 3223 H 296.638 0.61811 -0.549426 0
M  V30 3224 H 299.184 0.645429 -1.56947 0
M  V30 3225 H 297.956 1.79012 -3.47952 0
M  V30 3226 H 297.579 3.14676 -2.43032 0
M  V30 3227 N 298.576 1.31904 0.862503 0
M  V30 3228 C 299.523 1.20182 1.9704 0
M  V30 3229 C 300.493 0.0858247 1.65878 0
M  V30 3230 O 301.678 0.26 1.8902 0
M  V30 3231 C 298.818 0.922797 3.32533 0
M  V30 3232 C 297.931 2.12284 3.76244 0
M  V30 3233 C 297.066 1.77996 5.00491 0
M  V30 3234 C 296.105 2.94366 5.36671 0
M  V30 3235 N 295.242 2.60223 6.52095 0
M  V30 3236 H 300.082 2.14951 2.06398 0
M  V30 3237 H 297.619 1.06917 1.01031 0
M  V30 3238 H 299.577 0.741548 4.10557 0
M  V30 3239 H 298.207 0.0119227 3.22798 0
M  V30 3240 H 297.259 2.41461 2.9394 0
M  V30 3241 H 298.571 2.99357 3.98982 0
M  V30 3242 H 297.725 1.56377 5.862 0
M  V30 3243 H 296.464 0.881252 4.79672 0
M  V30 3244 H 295.469 3.16625 4.49476 0
M  V30 3245 H 296.694 3.84957 5.59451 0
M  V30 3246 H 294.64 1.72884 6.32809 0
M  V30 3247 H 294.557 3.40827 6.74814 0
M  V30 3248 H 295.825 2.42016 7.40978 0
M  V30 3249 N 300.054 -1.07777 1.14986 0
M  V30 3250 C 301.279 -1.84558 0.946213 0
M  V30 3251 C 301.704 -1.81323 -0.500362 0
M  V30 3252 O 301.062 -1.20301 -1.35637 0
M  V30 3253 C 301.11 -3.29736 1.45968 0
M  V30 3254 O 300.214 -4.07149 0.65601 0
M  V30 3255 H 299.555 -0.571641 0.33782 0
M  V30 3256 H 302.085 -1.35991 1.52865 0
M  V30 3257 H 302.095 -3.80574 1.47063 0
M  V30 3258 H 300.77 -3.31406 2.51283 0
M  V30 3259 H 299.347 -3.65994 0.714322 0
M  V30 3260 N 301.532 -0.945985 -1.26051 0
M  V30 3261 C 302.781 -0.591836 -1.92822 0
M  V30 3262 C 303.094 0.873956 -1.7499 0
M  V30 3263 O 304.3 1.33769 -2.36259 0
M  V30 3264 C 302.756 -1.00776 -3.45503 0
M  V30 3265 C 302.364 -2.4955 -3.7206 0
M  V30 3266 C 304.108 -0.725735 -4.1825 0
M  V30 3267 C 302.015 -2.84988 -5.18205 0
M  V30 3268 H 300.945 -0.217635 -0.721908 0
M  V30 3269 H 303.596 -1.14927 -1.43052 0
M  V30 3270 H 301.978 -0.378812 -3.94184 0
M  V30 3271 H 303.152 -3.1739 -3.34066 0
M  V30 3272 H 301.467 -2.75133 -3.12555 0
M  V30 3273 H 304.064 -0.966771 -5.25887 0
M  V30 3274 H 304.407 0.337639 -4.14929 0
M  V30 3275 H 304.94 -1.31463 -3.7545 0
M  V30 3276 H 301.679 -3.90307 -5.26631 0
M  V30 3277 H 301.199 -2.21813 -5.57278 0
M  V30 3278 H 302.878 -2.73712 -5.86252 0
M  V30 3279 N 303.011 1.40521 -0.713556 0
M  V30 3280 C 304.26 2.00155 -0.249192 0
M  V30 3281 C 304.573 1.57224 1.16362 0
M  V30 3282 O 305.779 2.09542 1.72639 0
M  V30 3283 C 304.235 3.5773 -0.3946 0
M  V30 3284 C 303.843 4.09635 -1.81392 0
M  V30 3285 C 305.587 4.24499 0.00907364 0
M  V30 3286 C 303.494 5.59707 -1.91003 0
M  V30 3287 H 302.424 0.74868 -0.0894114 0
M  V30 3288 H 305.075 1.60784 -0.884352 0
M  V30 3289 H 303.457 3.94792 0.30911 0
M  V30 3290 H 304.631 3.83955 -2.54785 0
M  V30 3291 H 302.946 3.55456 -2.16888 0
M  V30 3292 H 305.543 5.34683 -0.0420404 0
M  V30 3293 H 305.886 4.02824 1.05065 0
M  V30 3294 H 306.419 3.92536 -0.645007 0
M  V30 3295 H 303.158 5.86234 -2.93275 0
M  V30 3296 H 302.678 5.87258 -1.22019 0
M  V30 3297 H 304.357 6.24776 -1.6812 0
M  V30 3298 N 304.489 0.459591 1.5075 0
M  V30 3299 C 305.437 -0.354678 2.2988 0
M  V30 3300 C 306.431 -1.00086 1.36672 0
M  V30 3301 O 307.637 -0.933277 1.53915 0
M  V30 3302 H 304.012 -0.13321 0.740107 0
M  V30 3303 H 305.983 0.333269 2.96533 0
M  V30 3304 C 304.732 -1.43073 3.169 0
M  V30 3305 H 304.055 -0.942882 3.88523 0
M  V30 3306 H 305.495 -1.97328 3.75284 0
M  V30 3307 C 303.954 -2.42633 2.33732 0
M  V30 3308 O 304.484 -3.47658 2.01238 0
M  V30 3309 N 302.69 -2.14066 1.9653 0
M  V30 3310 H 302.237 -1.28685 2.23155 0
M  V30 3311 H 302.195 -2.80917 1.41185 0
M  V30 3312 N 305.967 -1.56429 0.191757 0
M  V30 3313 C 306.93 -2.17707 -0.716688 0
M  V30 3314 C 307.93 -1.13061 -1.14341 0
M  V30 3315 O 309.12 -1.38464 -1.05704 0
M  V30 3316 C 306.252 -2.77644 -1.97804 0
M  V30 3317 H 307.445 -2.99342 -0.1829 0
M  V30 3318 H 304.998 -1.56193 -0.0578566 0
M  V30 3319 H 305.733 -1.99799 -2.55443 0
M  V30 3320 H 305.518 -3.54246 -1.68083 0
M  V30 3321 H 307.008 -3.24708 -2.62592 0
M  V30 3322 N 307.445 0.0818655 -1.57387 0
M  V30 3323 C 308.673 0.796108 -1.9097 0
M  V30 3324 C 309.088 1.71626 -0.786757 0
M  V30 3325 O 308.445 1.80908 0.240513 0
M  V30 3326 C 308.496 1.59829 -3.24248 0
M  V30 3327 O 308.217 0.715131 -4.32224 0
M  V30 3328 C 309.718 2.41442 -3.7178 0
M  V30 3329 H 306.938 0.22691 -0.631469 0
M  V30 3330 H 309.482 0.0551439 -2.04426 0
M  V30 3331 H 307.637 2.29163 -3.12351 0
M  V30 3332 H 308.051 1.27205 -5.08841 0
M  V30 3333 H 309.525 2.932 -4.67694 0
M  V30 3334 H 310.002 3.2051 -3.00283 0
M  V30 3335 H 310.608 1.77283 -3.86589 0
M  V30 3336 N 308.923 1.53595 0.353017 0
M  V30 3337 C 310.2 1.61002 1.11075 0
M  V30 3338 C 310.58 0.425356 2.0677 0
M  V30 3339 O 309.928 -0.583267 2.2093 0
M  V30 3340 C 310.138 2.96631 1.83877 0
M  V30 3341 C 311.486 3.51653 2.37961 0
M  V30 3342 O 312.51 2.98743 1.93987 0
M  V30 3343 O 311.369 4.44177 3.18386 0
M  V30 3344 H 308.463 0.650825 0.510251 0
M  V30 3345 H 311.009 1.6594 0.35527 0
M  V30 3346 H 309.781 3.74293 1.14108 0
M  V30 3347 H 309.404 2.95242 2.66304 0
M  V30 3348 N 310.401 -0.613514 1.45168 0
M  V30 3349 C 311.812 -1.19539 1.43413 0
M  V30 3350 C 312.163 -1.95558 0.158632 0
M  V30 3351 O 311.288 -2.0335 -0.740119 0
M  V30 3352 C 311.883 -2.17445 2.59813 0
M  V30 3353 C 310.442 -2.71022 2.61197 0
M  V30 3354 C 309.589 -1.46323 2.35552 0
M  V30 3355 H 312.54 -0.403163 1.53494 0
M  V30 3356 H 312.561 -3.00373 2.33574 0
M  V30 3357 H 312.073 -1.62089 3.52631 0
M  V30 3358 H 310.174 -3.30332 1.7237 0
M  V30 3359 H 310.287 -3.15859 3.60236 0
M  V30 3360 H 308.651 -1.75072 1.84992 0
M  V30 3361 H 309.434 -0.92844 3.30507 0
M  V30 3362 O 311.918 -1.42644 -0.757294 0
M  V30 3363 H 312.609 -1.33267 -1.40569 0
M  V30 END ATOM
M  V30 BEGIN BOND
M  V30 END BOND
M  V30 END CTAB
M  END
$$$$
