drugbank_target|P35749 Myosin-11 (DB04444)
 OpenBabel12092120543D

  0  0  0     0  0            999 V3000
M  V30 BEGIN CTAB
M  V30 COUNTS 32000 32162 0 0 0
M  V30 BEGIN ATOM
M  V30 1 H -0.908 1.98254 -0.117106 0
M  V30 2 N 0 1.576 0 0
M  V30 3 C 0.933 2.03868 1.02534 0
M  V30 4 C 1.911 0.928543 1.3348 0
M  V30 5 O 3.095 1.19667 1.45644 0
M  V30 6 C 0.222 2.43627 2.35294 0
M  V30 7 C -0.732 3.65373 2.2001 0
M  V30 8 S 0.101 5.13292 1.52614 0
M  V30 9 C 1.257 5.56322 2.86805 0
M  V30 10 H 1.49 2.90518 0.631377 0
M  V30 11 H -0.977 1.52953 0.210867 0
M  V30 12 H 0.981 2.67203 3.11629 0
M  V30 13 H -0.358 1.57376 2.7183 0
M  V30 14 H -1.165 3.90944 3.18086 0
M  V30 15 H -1.563 3.418 1.51819 0
M  V30 16 H 0.729 5.58782 3.83104 0
M  V30 17 H 1.672 6.56266 2.65933 0
M  V30 18 H 2.08 4.83886 2.90714 0
M  V30 19 N 1.4781 -0.272755 1.55222 0
M  V30 20 C 2.4411 -1.32041 1.87344 0
M  V30 21 C 3.4411 -1.42342 0.74803 0
M  V30 22 O 4.6311 -1.41488 1.0162 0
M  V30 23 C 1.7631 -2.70173 2.07893 0
M  V30 24 H 2.9561 -1.04789 2.80997 0
M  V30 25 H 0.5091 -0.51083 1.47717 0
M  V30 26 H 1.2441 -3.02605 1.16622 0
M  V30 27 H 1.0291 -2.64082 2.89833 0
M  V30 28 H 2.5191 -3.45869 2.34017 0
M  V30 29 N 2.9562 -1.48159 -0.537278 0
M  V30 30 C 3.8882 -1.58218 -1.65831 0
M  V30 31 C 4.9012 -0.466948 -1.5596 0
M  V30 32 O 6.0902 -0.73747 -1.62553 0
M  V30 33 C 3.1902 -1.48906 -3.04434 0
M  V30 34 C 2.3632 -2.75343 -3.3986 0
M  V30 35 C 1.4222 -2.59588 -4.57712 0
M  V30 36 O 0.4482 -3.33457 -4.61297 0
M  V30 37 N 1.6502 -1.68724 -5.55439 0
M  V30 38 H 4.4152 -2.54891 -1.57641 0
M  V30 39 H 1.9762 -1.4479 -0.724386 0
M  V30 40 H 3.9682 -1.36072 -3.81139 0
M  V30 41 H 2.5382 -0.602368 -3.06741 0
M  V30 42 H 1.7582 -3.02795 -2.52406 0
M  V30 43 H 3.0462 -3.5924 -3.60311 0
M  V30 44 H 2.4442 -1.07898 -5.55315 0
M  V30 45 H 1.0012 -1.61832 -6.3139 0
M  V30 46 N 4.4343 0.785586 -1.36625 0
M  V30 47 C 5.3813 1.89838 -1.31264 0
M  V30 48 C 6.3513 1.65115 -0.180633 0
M  V30 49 O 7.5363 1.87222 -0.36777 0
M  V30 50 C 4.6763 3.26706 -1.11163 0
M  V30 51 C 3.7893 3.63476 -2.33472 0
M  V30 52 C 2.9243 4.89481 -2.06353 0
M  V30 53 C 1.9633 5.18941 -3.24602 0
M  V30 54 N 1.1003 6.36131 -2.97123 0
M  V30 55 H 5.9403 1.93756 -2.26413 0
M  V30 56 H 3.4773 0.947454 -1.12524 0
M  V30 57 H 5.4353 4.05639 -0.975337 0
M  V30 58 H 4.0653 3.222 -0.196674 0
M  V30 59 H 3.1173 2.79636 -2.57891 0
M  V30 60 H 4.4293 3.81193 -3.21704 0
M  V30 61 H 3.5833 5.76288 -1.89675 0
M  V30 62 H 2.3223 4.73841 -1.15437 0
M  V30 63 H 1.3273 4.30615 -3.41834 0
M  V30 64 H 2.5523 5.36498 -4.16349 0
M  V30 65 H 0.4983 6.21875 -2.08823 0
M  V30 66 H 0.4153 6.54198 -3.78894 0
M  V30 67 H 1.6833 7.2591 -2.84033 0
M  V30 68 N 5.9124 1.20967 1.01018 0
M  V30 69 C 7.1604 1.02172 1.74371 0
M  V30 70 C 7.4814 -0.446414 1.89821 0
M  V30 71 O 6.7514 -1.32234 1.44537 0
M  V30 72 H 5.3314 0.375066 0.646014 0
M  V30 73 H 7.9934 1.52187 1.21758 0
M  V30 74 H 7.0894 1.48538 2.74487 0
M  V30 75 N 7.3905 -1.2043 1.01659 0
M  V30 76 C 8.3225 -2.22626 0.544988 0
M  V30 77 C 9.3355 -1.58479 -0.372609 0
M  V30 78 O 10.5245 -1.77679 -0.170958 0
M  V30 79 C 7.6245 -3.38141 -0.22663 0
M  V30 80 C 6.7975 -4.31877 0.692876 0
M  V30 81 C 5.8565 -5.26191 -0.0311616 0
M  V30 82 O 4.8825 -5.6612 0.591343 0
M  V30 83 N 6.0845 -5.65618 -1.30601 0
M  V30 84 H 8.8495 -2.63716 1.42388 0
M  V30 85 H 6.4105 -1.34971 0.894116 0
M  V30 86 H 8.4025 -3.98239 -0.72024 0
M  V30 87 H 6.9725 -2.95943 -1.00681 0
M  V30 88 H 6.1925 -3.69746 1.36679 0
M  V30 89 H 7.4805 -4.91426 1.31824 0
M  V30 90 H 6.8785 -5.3519 -1.83269 0
M  V30 91 H 5.4355 -6.28025 -1.74435 0
M  V30 92 N 8.8686 -0.792821 -1.36206 0
M  V30 93 C 9.7986 -0.207853 -2.32573 0
M  V30 94 C 10.7796 0.659055 -1.56813 0
M  V30 95 O 11.9646 0.592176 -1.84951 0
M  V30 96 C 9.0946 0.655449 -3.41059 0
M  V30 97 C 8.0486 -0.111842 -4.27854 0
M  V30 98 C 7.3746 0.872274 -5.27537 0
M  V30 99 C 8.6746 -1.30299 -5.05786 0
M  V30 100 H 10.3686 -1.01294 -2.81744 0
M  V30 101 H 7.9146 -0.48854 -1.3546 0
M  V30 102 H 9.8676 1.07464 -4.07467 0
M  V30 103 H 8.5916 1.49328 -2.90463 0
M  V30 104 H 7.2506 -0.512053 -3.63006 0
M  V30 105 H 6.8986 1.70523 -4.73214 0
M  V30 106 H 6.5986 0.363291 -5.86476 0
M  V30 107 H 8.1226 1.28996 -5.96818 0
M  V30 108 H 9.5366 -0.959379 -5.65216 0
M  V30 109 H 7.9336 -1.7455 -5.74154 0
M  V30 110 H 9.0036 -2.09663 -4.37229 0
M  V30 111 N 10.3467 1.47872 -0.545128 0
M  V30 112 C 11.5717 2.07391 -0.0190611 0
M  V30 113 C 11.9967 1.39688 1.25971 0
M  V30 114 O 11.3547 0.467816 1.7516 0
M  V30 115 C 11.4027 3.60188 0.172335 0
M  V30 116 O 10.5067 3.9339 1.23766 0
M  V30 117 H 9.8477 0.662411 -0.0459059 0
M  V30 118 H 12.3777 1.90066 -0.757365 0
M  V30 119 H 12.3877 4.06129 0.390305 0
M  V30 120 H 11.0627 4.08865 -0.761725 0
M  V30 121 H 9.6397 3.5921 1.00114 0
M  V30 122 N 11.8248 0.280983 1.55075 0
M  V30 123 C 13.1018 -0.386207 1.91749 0
M  V30 124 C 13.4818 -1.73264 1.20594 0
M  V30 125 O 12.8298 -2.26034 0.334784 0
M  V30 126 C 13.0398 -0.520687 3.45094 0
M  V30 127 C 14.3878 -0.800865 4.16979 0
M  V30 128 O 15.4118 -0.605271 3.5102 0
M  V30 129 O 14.2708 -1.1753 5.33712 0
M  V30 130 H 11.3648 -0.212408 0.799257 0
M  V30 131 H 13.9108 0.327568 1.66509 0
M  V30 132 H 12.6828 0.426633 3.88967 0
M  V30 133 H 12.3058 -1.2837 3.76307 0
M  V30 134 N 13.3029 -1.57598 0.00835791 0
M  V30 135 C 14.5799 -1.82172 -0.712235 0
M  V30 136 C 14.9599 -0.887873 -1.9152 0
M  V30 137 O 14.3079 0.06146 -2.28417 0
M  V30 138 C 14.5179 -3.30875 -1.11008 0
M  V30 139 C 15.8659 -3.96826 -1.51044 0
M  V30 140 O 16.8899 -3.35248 -1.20364 0
M  V30 141 O 15.7489 -5.05318 -2.08125 0
M  V30 142 H 12.8429 -0.750435 -0.347529 0
M  V30 143 H 15.3889 -1.69665 0.0344523 0
M  V30 144 H 14.1609 -3.90481 -0.252982 0
M  V30 145 H 13.7839 -3.48412 -1.9156 0
M  V30 146 N 14.781 0.264519 -1.55364 0
M  V30 147 C 15.691 1.34902 -1.91934 0
M  V30 148 C 16.707 1.53595 -0.817593 0
M  V30 149 O 17.883 1.67558 -1.11742 0
M  V30 150 C 14.948 2.68676 -2.19121 0
M  V30 151 C 14.009 2.58657 -3.4263 0
M  V30 152 C 13.242 3.86051 -3.68511 0
M  V30 153 O 13.465 4.87126 -2.96757 0
M  V30 154 O 12.399 3.85744 -4.62045 0
M  V30 155 H 16.225 1.06883 -2.8427 0
M  V30 156 H 13.81 0.463775 -1.42019 0
M  V30 157 H 15.692 3.47759 -2.37995 0
M  V30 158 H 14.367 2.96463 -1.29966 0
M  V30 159 H 13.274 1.7792 -3.29082 0
M  V30 160 H 14.607 2.35818 -4.32031 0
M  V30 161 N 16.2591 1.48442 0.529413 0
M  V30 162 C 17.2061 1.63007 1.63394 0
M  V30 163 C 18.1761 0.47212 1.59249 0
M  V30 164 O 19.3611 0.695673 1.77666 0
M  V30 165 C 16.5011 1.6763 3.01653 0
M  V30 166 C 15.6141 2.94535 3.16027 0
M  V30 167 C 14.7491 2.90316 4.44849 0
M  V30 168 C 13.7881 4.11923 4.52754 0
M  V30 169 N 12.9251 4.05777 5.72965 0
M  V30 170 H 17.7651 2.5733 1.50285 0
M  V30 171 H 15.3021 1.27613 0.731656 0
M  V30 172 H 17.2601 1.68292 3.81751 0
M  V30 173 H 15.8901 0.76797 3.13532 0
M  V30 174 H 14.9421 3.03615 2.29177 0
M  V30 175 H 16.2541 3.84512 3.17729 0
M  V30 176 H 15.4081 2.89382 5.33238 0
M  V30 177 H 14.1471 1.98068 4.45668 0
M  V30 178 H 13.1521 4.13131 3.62771 0
M  V30 179 H 14.3771 5.0533 4.53672 0
M  V30 180 H 12.3231 3.16351 5.74681 0
M  V30 181 H 12.2401 4.8946 5.76164 0
M  V30 182 H 13.5081 4.08904 6.6364 0
M  V30 183 N 17.7372 -0.778329 1.37039 0
M  V30 184 C 18.9842 -1.53665 1.31884 0
M  V30 185 C 19.3122 -1.9425 -0.0986303 0
M  V30 186 O 18.5672 -1.63832 -1.07041 0
M  V30 187 C 18.8662 -2.81845 2.19768 0
M  V30 188 C 18.5322 -2.60345 3.68146 0
M  V30 189 C 17.1942 -2.5419 4.08584 0
M  V30 190 C 19.5462 -2.40923 4.62175 0
M  V30 191 C 16.8742 -2.26594 5.41177 0
M  V30 192 C 19.2262 -2.14852 5.94997 0
M  V30 193 C 17.8902 -2.07137 6.34547 0
M  V30 194 H 17.1602 -0.562299 0.482598 0
M  V30 195 H 19.8072 -0.897069 1.69189 0
M  V30 196 H 18.1122 -3.50328 1.75436 0
M  V30 197 H 19.8092 -3.39692 2.13097 0
M  V30 198 H 16.3992 -2.65996 3.36072 0
M  V30 199 H 20.5832 -2.44673 4.31797 0
M  V30 200 H 15.8392 -2.19111 5.70789 0
M  V30 201 H 20.0132 -1.98822 6.67415 0
M  V30 202 H 17.6402 -1.85518 7.37216 0
M  V30 203 N 19.2153 -1.21501 -1.00376 0
M  V30 204 C 20.1453 -0.999478 -2.11028 0
M  V30 205 C 21.1263 0.0759671 -1.6993 0
M  V30 206 O 22.3113 -0.0841106 -1.94018 0
M  V30 207 C 19.4413 -0.564709 -3.42678 0
M  V30 208 C 18.3953 -1.58486 -3.97576 0
M  V30 209 C 17.7213 -1.00628 -5.25146 0
M  V30 210 C 19.0213 -2.97204 -4.29496 0
M  V30 211 H 20.7153 -1.92495 -2.29317 0
M  V30 212 H 18.2613 -0.92693 -1.102 0
M  V30 213 H 20.2143 -0.401091 -4.19487 0
M  V30 214 H 18.9383 0.396411 -3.24185 0
M  V30 215 H 17.5973 -1.73606 -3.22888 0
M  V30 216 H 17.2453 -0.0368439 -5.02987 0
M  V30 217 H 16.9453 -1.68771 -5.62841 0
M  V30 218 H 18.4693 -0.854015 -6.04598 0
M  V30 219 H 19.8833 -2.8552 -4.97143 0
M  V30 220 H 18.2803 -3.62372 -4.78338 0
M  V30 221 H 19.3503 -3.47956 -3.3772 0
M  V30 222 N 20.6934 1.19889 -1.02296 0
M  V30 223 C 21.9404 1.8942 -0.715972 0
M  V30 224 C 22.2684 1.79251 0.754944 0
M  V30 225 O 21.5234 1.17526 1.56481 0
M  V30 226 C 21.8224 3.39883 -1.10518 0
M  V30 227 C 21.4884 3.70254 -2.57337 0
M  V30 228 C 20.1504 3.78254 -2.97452 0
M  V30 229 C 22.5024 3.84052 -3.52354 0
M  V30 230 C 19.8304 3.97514 -4.31509 0
M  V30 231 C 22.1824 4.04824 -4.86108 0
M  V30 232 C 20.8464 4.11054 -5.25919 0
M  V30 233 H 20.1164 0.693138 -0.261993 0
M  V30 234 H 22.7634 1.42012 -1.28472 0
M  V30 235 H 21.0684 3.8915 -0.454953 0
M  V30 236 H 22.7654 3.9199 -0.845261 0
M  V30 237 H 19.3554 3.64632 -2.25258 0
M  V30 238 H 23.5394 3.77221 -3.22518 0
M  V30 239 H 18.7954 4.00574 -4.61898 0
M  V30 240 H 22.9694 4.14442 -5.59653 0
M  V30 241 H 20.5964 4.2573 -6.29808 0
M  V30 242 N 22.1715 0.800033 1.35784 0
M  V30 243 C 23.4175 0.377901 1.99248 0
M  V30 244 C 23.7505 -1.05052 1.63333 0
M  V30 245 O 23.0255 -1.72768 0.893385 0
M  V30 246 C 23.3085 0.553922 3.55814 0
M  V30 247 C 23.1615 2.0268 4.01548 0
M  V30 248 C 24.4805 -0.0244802 4.40093 0
M  V30 249 H 21.5995 0.138782 0.723815 0
M  V30 250 H 24.2415 1.00835 1.61035 0
M  V30 251 H 22.3915 0.0172398 3.88496 0
M  V30 252 H 24.0635 2.62536 3.79305 0
M  V30 253 H 22.3065 2.5256 3.52698 0
M  V30 254 H 22.9775 2.10087 5.10458 0
M  V30 255 H 25.4535 0.433775 4.13833 0
M  V30 256 H 24.3295 0.128637 5.48749 0
M  V30 257 H 24.5905 -1.11758 4.27741 0
M  V30 258 N 23.6496 -1.47581 0.552962 0
M  V30 259 C 24.9266 -1.95563 -0.0381515 0
M  V30 260 C 25.3066 -1.49552 -1.48988 0
M  V30 261 O 24.6546 -0.732414 -2.16444 0
M  V30 262 C 24.8646 -3.48848 0.102919 0
M  V30 263 C 26.2126 -4.24577 -0.0446082 0
M  V30 264 O 27.2366 -3.56187 0.0302548 0
M  V30 265 O 26.0956 -5.46116 -0.204923 0
M  V30 266 H 23.1896 -0.824321 -0.0665067 0
M  V30 267 H 25.7356 -1.58001 0.619186 0
M  V30 268 H 24.5076 -3.75129 1.11328 0
M  V30 269 H 24.1306 -3.93165 -0.592224 0
M  V30 270 N 25.1277 -0.289203 -1.54924 0
M  V30 271 C 26.0747 0.592115 -2.23075 0
M  V30 272 C 27.0447 1.13881 -1.20915 0
M  V30 273 O 28.2297 1.18551 -1.495 0
M  V30 274 C 25.3697 1.76376 -2.96623 0
M  V30 275 C 24.4827 1.24959 -4.13533 0
M  V30 276 C 23.6177 2.38416 -4.74691 0
M  V30 277 C 22.6567 1.84072 -5.83767 0
M  V30 278 N 21.7937 2.91057 -6.38929 0
M  V30 279 H 26.6337 0.00432038 -2.98 0
M  V30 280 H 24.1707 -0.00963529 -1.47097 0
M  V30 281 H 26.1287 2.45268 -3.3749 0
M  V30 282 H 24.7587 2.32337 -2.24097 0
M  V30 283 H 23.8107 0.453307 -3.77689 0
M  V30 284 H 25.1227 0.811662 -4.92152 0
M  V30 285 H 24.2767 3.15276 -5.18349 0
M  V30 286 H 23.0157 2.8553 -3.95378 0
M  V30 287 H 22.0207 1.05697 -5.39545 0
M  V30 288 H 23.2457 1.37877 -6.64956 0
M  V30 289 H 21.1917 3.37526 -5.62505 0
M  V30 290 H 21.1087 2.51724 -7.12861 0
M  V30 291 H 22.3767 3.6785 -6.87246 0
M  V30 292 N 26.6058 1.57591 -0.0167156 0
M  V30 293 C 27.5538 2.10604 0.987353 0
M  V30 294 C 28.5478 1.02977 1.34507 0
M  V30 295 O 29.7538 1.21425 1.32875 0
M  V30 296 H 26.1288 0.672695 0.336134 0
M  V30 297 H 28.0998 2.93925 0.514817 0
M  V30 298 C 26.8488 2.6382 2.26483 0
M  V30 299 H 26.1718 3.46278 1.99829 0
M  V30 300 H 27.6118 3.04573 2.94977 0
M  V30 301 C 26.0708 1.55992 2.9861 0
M  V30 302 O 26.6008 0.952521 3.90243 0
M  V30 303 N 24.8068 1.28335 2.60727 0
M  V30 304 H 24.3538 1.77914 1.86291 0
M  V30 305 H 24.3118 0.564115 3.09298 0
M  V30 306 N 28.0839 -0.256276 1.55502 0
M  V30 307 C 29.3309 -0.985619 1.76895 0
M  V30 308 C 29.6589 -1.85671 0.579355 0
M  V30 309 O 28.9139 -1.90744 -0.437651 0
M  V30 310 C 29.2129 -1.88432 3.03691 0
M  V30 311 C 28.8789 -1.16936 4.35473 0
M  V30 312 C 27.5409 -0.97173 4.71286 0
M  V30 313 C 29.8929 -0.661889 5.1698 0
M  V30 314 C 27.2209 -0.254179 5.86149 0
M  V30 315 C 29.5729 0.042149 6.32586 0
M  V30 316 C 28.2369 0.25134 6.67027 0
M  V30 317 H 27.5069 -0.360663 0.647304 0
M  V30 318 H 30.1539 -0.256483 1.89775 0
M  V30 319 H 28.4589 -2.68021 2.85783 0
M  V30 320 H 30.1559 -2.45015 3.1744 0
M  V30 321 H 26.7459 -1.33332 4.07333 0
M  V30 322 H 30.9299 -0.802145 4.89775 0
M  V30 323 H 26.1859 -0.0815408 6.11346 0
M  V30 324 H 30.3599 0.443049 6.94989 0
M  V30 325 H 27.9869 0.809314 7.5588 0
M  V30 326 N 29.562 -1.4872 -0.521534 0
M  V30 327 C 30.811 -1.56419 -1.27341 0
M  V30 328 C 31.124 -0.246805 -1.94037 0
M  V30 329 O 32.33 -0.202122 -2.70747 0
M  V30 330 C 30.786 -2.75896 -2.31105 0
M  V30 331 C 30.394 -4.14311 -1.70441 0
M  V30 332 C 32.138 -2.92913 -3.07249 0
M  V30 333 C 30.045 -5.25038 -2.72194 0
M  V30 334 H 28.975 -0.582344 -0.478949 0
M  V30 335 H 31.626 -1.75071 -0.549779 0
M  V30 336 H 30.008 -2.50697 -3.06541 0
M  V30 337 H 31.182 -4.49564 -1.01136 0
M  V30 338 H 29.497 -4.02482 -1.06759 0
M  V30 339 H 32.094 -3.72805 -3.83302 0
M  V30 340 H 32.437 -2.02689 -3.63625 0
M  V30 341 H 32.97 -3.18054 -2.38928 0
M  V30 342 H 29.709 -6.17255 -2.20627 0
M  V30 343 H 29.229 -4.94263 -3.39801 0
M  V30 344 H 30.908 -5.53508 -3.35019 0
M  V30 345 N 31.0401 0.771051 -1.3745 0
M  V30 346 C 31.9881 1.90574 -1.33358 0
M  V30 347 C 32.9821 1.67936 -0.22224 0
M  V30 348 O 34.1881 1.75717 -0.390304 0
M  V30 349 H 30.5631 0.626714 -0.415612 0
M  V30 350 H 32.5341 1.91142 -2.29144 0
M  V30 351 C 31.2831 3.27845 -1.15813 0
M  V30 352 H 30.6061 3.45842 -2.00583 0
M  V30 353 H 32.0461 4.07538 -1.17 0
M  V30 354 C 30.5051 3.36625 0.136165 0
M  V30 355 O 31.0351 3.85785 1.11949 0
M  V30 356 N 29.2411 2.89997 0.187099 0
M  V30 357 H 28.7881 2.50182 -0.613753 0
M  V30 358 H 28.7461 2.96252 1.05272 0
M  V30 359 N 32.5182 1.22032 0.997298 0
M  V30 360 C 33.7432 1.06921 1.77715 0
M  V30 361 C 34.1682 -0.376226 1.84299 0
M  V30 362 O 33.5262 -1.27165 1.29223 0
M  V30 363 C 33.5742 1.67996 3.19076 0
M  V30 364 O 32.6782 0.930653 4.01762 0
M  V30 365 H 32.0192 0.375814 0.547412 0
M  V30 366 H 34.5492 1.61737 1.25309 0
M  V30 367 H 34.5592 1.72538 3.69723 0
M  V30 368 H 33.2342 2.73182 3.13599 0
M  V30 369 H 31.8112 0.960917 3.60307 0
M  V30 370 N 33.9963 -1.19345 1.0293 0
M  V30 371 C 35.4073 -1.70725 0.755633 0
M  V30 372 C 35.7583 -1.82326 -0.724676 0
M  V30 373 O 34.8833 -1.49471 -1.56484 0
M  V30 374 C 35.4783 -3.10084 1.36503 0
M  V30 375 C 34.0373 -3.58723 1.13994 0
M  V30 376 C 33.1843 -2.35577 1.46283 0
M  V30 377 H 36.1353 -1.0418 1.19718 0
M  V30 378 H 36.1563 -3.72787 0.762217 0
M  V30 379 H 35.6683 -3.01609 2.44241 0
M  V30 380 H 33.7693 -3.72512 0.0807901 0
M  V30 381 H 33.8823 -4.42816 1.82894 0
M  V30 382 H 32.2463 -2.38935 0.88217 0
M  V30 383 H 33.0293 -2.29731 2.55105 0
M  V30 384 N 35.4744 -0.807222 -1.35358 0
M  V30 385 C 36.7204 -0.388463 -1.99045 0
M  V30 386 C 37.0534 1.04184 -1.63888 0
M  V30 387 O 36.3284 1.72292 -0.902535 0
M  V30 388 C 36.6114 -0.572783 -3.55515 0
M  V30 389 C 36.4644 -2.04807 -4.00468 0
M  V30 390 C 37.7834 0.00114064 -4.401 0
M  V30 391 H 34.9024 -0.142619 -0.723069 0
M  V30 392 H 37.5444 -1.01687 -1.60498 0
M  V30 393 H 35.6944 -0.0378425 -3.88482 0
M  V30 394 H 37.3664 -2.64544 -3.77908 0
M  V30 395 H 35.6094 -2.54427 -3.51353 0
M  V30 396 H 36.2804 -2.12792 -5.09337 0
M  V30 397 H 38.7564 -0.455716 -4.13597 0
M  V30 398 H 37.6324 -0.157737 -5.48673 0
M  V30 399 H 37.8934 1.09488 -4.28328 0
M  V30 400 N 36.9525 1.47285 -0.560781 0
M  V30 401 C 37.9155 2.28535 0.174488 0
M  V30 402 C 38.9155 1.37153 0.839388 0
M  V30 403 O 40.1055 1.59748 0.694702 0
M  V30 404 C 37.2375 3.16934 1.25561 0
M  V30 405 H 38.4305 2.95012 -0.539262 0
M  V30 406 H 35.9835 1.53034 -0.317865 0
M  V30 407 H 36.7185 2.55157 2.00164 0
M  V30 408 H 36.5035 3.8419 0.783604 0
M  V30 409 H 37.9935 3.78143 1.77193 0
M  V30 410 N 38.4306 0.297415 1.54768 0
M  V30 411 C 39.3626 -0.613881 2.20826 0
M  V30 412 C 40.3756 -1.10032 1.19987 0
M  V30 413 O 41.5646 -1.01839 1.46598 0
M  V30 414 C 38.6646 -1.852 2.83821 0
M  V30 415 C 37.8376 -1.50865 4.10559 0
M  V30 416 C 36.8966 -2.60154 4.57391 0
M  V30 417 O 35.9226 -2.25398 5.2267 0
M  V30 418 N 37.1246 -3.90629 4.29406 0
M  V30 419 H 39.8896 -0.048389 2.99661 0
M  V30 420 H 37.4506 0.11946 1.61459 0
M  V30 421 H 39.4426 -2.57652 3.12086 0
M  V30 422 H 38.0126 -2.32597 2.08847 0
M  V30 423 H 37.2326 -0.616925 3.89343 0
M  V30 424 H 38.5206 -1.25458 4.9309 0
M  V30 425 H 37.9186 -4.21677 3.77101 0
M  V30 426 H 36.4756 -4.59391 4.62388 0
M  V30 427 N 39.9087 -1.5758 0.0250728 0
M  V30 428 C 40.8717 -2.08896 -0.943139 0
M  V30 429 C 41.8717 -1.00321 -1.25668 0
M  V30 430 O 43.0617 -1.26495 -1.19769 0
M  V30 431 C 40.1937 -2.55143 -2.26086 0
M  V30 432 H 41.3867 -2.95723 -0.498775 0
M  V30 433 H 38.9397 -1.54703 -0.222888 0
M  V30 434 H 39.6747 -1.71633 -2.75159 0
M  V30 435 H 39.4597 -3.34461 -2.04641 0
M  V30 436 H 40.9497 -2.95083 -2.95492 0
M  V30 437 N 41.3868 0.248026 -1.55636 0
M  V30 438 C 42.6638 0.998988 -1.68165 0
M  V30 439 C 43.0438 2.03409 -0.564621 0
M  V30 440 O 42.3918 2.24378 0.432076 0
M  V30 441 C 42.6018 1.63334 -3.0842 0
M  V30 442 C 43.9498 2.13562 -3.66983 0
M  V30 443 O 44.9738 1.73277 -3.11213 0
M  V30 444 O 43.8328 2.87526 -4.64749 0
M  V30 445 H 40.9268 0.464933 -0.683935 0
M  V30 446 H 43.4728 0.241902 -1.67967 0
M  V30 447 H 42.2448 0.884583 -3.8117 0
M  V30 448 H 41.8678 2.45666 -3.12624 0
M  V30 449 N 42.8649 1.48995 0.513639 0
M  V30 450 C 44.1109 1.59053 1.26783 0
M  V30 451 C 44.4659 0.268136 1.90522 0
M  V30 452 O 43.7589 -0.730534 1.77126 0
M  V30 453 C 43.9529 2.67756 2.36731 0
M  V30 454 C 43.7819 4.10437 1.83771 0
M  V30 455 C 42.5519 4.7738 1.65639 0
M  V30 456 C 44.7499 4.9608 1.35681 0
M  V30 457 N 42.7319 6.04419 1.07476 0
M  V30 458 C 44.1029 6.13496 0.895715 0
M  V30 459 C 46.1579 4.82177 1.24136 0
M  V30 460 C 44.8609 7.1854 0.3306 0
M  V30 461 C 46.8869 5.87358 0.690229 0
M  V30 462 C 46.2489 7.03993 0.239292 0
M  V30 463 H 42.3479 0.636463 0.454355 0
M  V30 464 H 44.9319 1.85948 0.577196 0
M  V30 465 H 43.1029 2.42655 3.03271 0
M  V30 466 H 44.8349 2.67406 3.0377 0
M  V30 467 H 41.5899 4.33974 1.8964 0
M  V30 468 H 42.0139 6.72214 0.803579 0
M  V30 469 H 46.6559 3.92329 1.57601 0
M  V30 470 H 44.3739 8.08098 -0.0163435 0
M  V30 471 H 47.9599 5.78658 0.603852 0
M  V30 472 H 46.8399 7.83992 -0.180526 0
M  V30 473 N 44.343 -0.763751 1.37857 0
M  V30 474 C 45.306 -1.85889 1.34081 0
M  V30 475 C 46.306 -1.58949 0.243277 0
M  V30 476 O 47.496 -1.66882 0.499589 0
M  V30 477 C 44.628 -3.23176 1.08489 0
M  V30 478 H 45.821 -1.90648 2.31502 0
M  V30 479 H 43.374 -0.964367 1.23003 0
M  V30 480 H 44.109 -3.24091 0.116318 0
M  V30 481 H 43.894 -3.44124 1.8794 0
M  V30 482 H 45.384 -4.03254 1.08517 0
M  V30 483 N 45.8211 -1.22559 -0.990812 0
M  V30 484 C 46.7841 -0.998863 -2.0629 0
M  V30 485 C 47.7841 0.0354834 -1.60761 0
M  V30 486 O 48.9741 -0.203231 -1.7301 0
M  V30 487 C 46.1061 -0.509203 -3.37076 0
M  V30 488 H 47.2991 -1.95014 -2.27837 0
M  V30 489 H 44.8521 -1.04456 -1.16269 0
M  V30 490 H 45.5871 0.446335 -3.21214 0
M  V30 491 H 45.3721 -1.25547 -3.71457 0
M  V30 492 H 46.8621 -0.370888 -4.1595 0
M  V30 493 N 47.2992 1.18797 -1.03562 0
M  V30 494 C 48.2462 2.22253 -0.622259 0
M  V30 495 C 49.2162 1.61987 0.36736 0
M  V30 496 O 50.4012 1.88986 0.262492 0
M  V30 497 C 47.5412 3.45097 0.0138462 0
M  V30 498 C 46.6542 4.19722 -1.02263 0
M  V30 499 C 45.7892 5.30009 -0.355573 0
M  V30 500 C 44.8282 5.96399 -1.37749 0
M  V30 501 N 43.9652 6.98234 -0.735766 0
M  V30 502 H 48.8052 2.56968 -1.50903 0
M  V30 503 H 46.3422 1.26245 -0.755017 0
M  V30 504 H 48.3002 4.15279 0.399948 0
M  V30 505 H 46.9302 3.11018 0.864158 0
M  V30 506 H 45.9822 3.48418 -1.52673 0
M  V30 507 H 47.2942 4.65227 -1.79903 0
M  V30 508 H 46.4482 6.0664 0.0850095 0
M  V30 509 H 45.1872 4.85592 0.452967 0
M  V30 510 H 44.1922 5.18512 -1.82826 0
M  V30 511 H 45.4172 6.42899 -2.18764 0
M  V30 512 H 43.3632 6.55979 0.0525597 0
M  V30 513 H 43.2802 7.41965 -1.44995 0
M  V30 514 H 44.5482 7.78845 -0.31941 0
M  V30 515 N 48.7773 0.814389 1.34928 0
M  V30 516 C 50.1933 0.499084 1.51596 0
M  V30 517 C 50.3933 -0.978319 1.76157 0
M  V30 518 O 49.4493 -1.76309 1.80752 0
M  V30 519 C 50.7623 1.35121 2.68631 0
M  V30 520 C 52.3103 1.34746 2.82511 0
M  V30 521 C 52.7853 2.18388 4.0258 0
M  V30 522 N 54.2763 2.15966 4.09772 0
M  V30 523 C 55.0113 2.77437 5.01813 0
M  V30 524 N 54.5073 3.47866 5.99134 0
M  V30 525 N 56.3003 2.67037 4.94619 0
M  V30 526 H 48.4513 1.7711 1.17243 0
M  V30 527 H 50.7143 0.754256 0.574284 0
M  V30 528 H 50.4203 2.40001 2.57085 0
M  V30 529 H 50.2943 1.00991 3.63429 0
M  V30 530 H 52.6813 0.30648 2.93504 0
M  V30 531 H 52.7623 1.72869 1.88547 0
M  V30 532 H 52.4063 3.2253 3.92347 0
M  V30 533 H 52.3363 1.77621 4.9574 0
M  V30 534 H 54.8273 1.64729 3.40107 0
M  V30 535 H 55.1403 3.92038 6.65977 0
M  V30 536 H 53.4853 3.51972 5.99284 0
M  V30 537 H 56.6763 2.11597 4.17546 0
M  V30 538 H 56.8493 3.15232 5.66156 0
M  V30 539 N 50.2554 -1.46986 0.568584 0
M  V30 540 C 51.1854 -2.32946 -0.160753 0
M  V30 541 C 52.1664 -1.44487 -0.897631 0
M  V30 542 O 53.3514 -1.73327 -0.875867 0
M  V30 543 C 50.4814 -3.26494 -1.18403 0
M  V30 544 C 49.4354 -4.24282 -0.562895 0
M  V30 545 C 48.7614 -5.07236 -1.69163 0
M  V30 546 C 50.0614 -5.19989 0.490761 0
M  V30 547 H 51.7554 -2.94175 0.556916 0
M  V30 548 H 49.3014 -1.4146 0.26927 0
M  V30 549 H 51.2544 -3.85477 -1.70251 0
M  V30 550 H 49.9784 -2.63343 -1.93179 0
M  V30 551 H 48.6374 -3.66541 -0.0656164 0
M  V30 552 H 48.2854 -4.4048 -2.42871 0
M  V30 553 H 47.9854 -5.7345 -1.28174 0
M  V30 554 H 49.5094 -5.6908 -2.21314 0
M  V30 555 H 50.9234 -5.73271 0.0579047 0
M  V30 556 H 49.3204 -5.94469 0.820165 0
M  V30 557 H 50.3904 -4.64777 1.3824 0
M  V30 558 N 51.7335 -0.305618 -1.54608 0
M  V30 559 C 52.9795 0.302746 -2.00528 0
M  V30 560 C 53.3125 1.53184 -1.19367 0
M  V30 561 O 52.5875 1.92598 -0.271321 0
M  V30 562 C 52.8705 0.654756 -3.54097 0
M  V30 563 C 52.7235 -0.583793 -4.45995 0
M  V30 564 C 54.0425 1.47947 -4.14487 0
M  V30 565 H 51.1615 0.108564 -0.72896 0
M  V30 566 H 53.8035 -0.418634 -1.85331 0
M  V30 567 H 51.9535 1.26935 -3.67178 0
M  V30 568 H 53.6255 -1.22224 -4.44814 0
M  V30 569 H 51.8685 -1.21615 -4.16404 0
M  V30 570 H 52.5395 -0.293287 -5.5122 0
M  V30 571 H 55.0155 0.96013 -4.04871 0
M  V30 572 H 53.8915 1.69454 -5.22088 0
M  V30 573 H 54.1525 2.47011 -3.66658 0
M  V30 574 N 53.2116 1.57565 -0.0334293 0
M  V30 575 C 54.4576 1.93088 0.639417 0
M  V30 576 C 54.8126 0.910589 1.69488 0
M  V30 577 O 54.1056 -0.0727725 1.91462 0
M  V30 578 C 54.2996 3.33112 1.29504 0
M  V30 579 C 54.1286 4.48667 0.304604 0
M  V30 580 C 52.8986 5.05207 -0.0970777 0
M  V30 581 C 55.0966 5.1239 -0.442845 0
M  V30 582 N 53.0786 6.04286 -1.08223 0
M  V30 583 C 54.4496 6.06609 -1.28161 0
M  V30 584 C 56.5046 4.95352 -0.50308 0
M  V30 585 C 55.2076 6.85622 -2.17519 0
M  V30 586 C 57.2336 5.74978 -1.38401 0
M  V30 587 C 56.5956 6.68816 -2.21054 0
M  V30 588 H 52.6946 0.754335 0.206161 0
M  V30 589 H 55.2786 1.94435 -0.101613 0
M  V30 590 H 53.4496 3.32576 2.00618 0
M  V30 591 H 55.1816 3.55972 1.92525 0
M  V30 592 H 51.9366 4.72782 0.278255 0
M  V30 593 H 52.3606 6.58516 -1.57117 0
M  V30 594 H 57.0026 4.22625 0.121694 0
M  V30 595 H 54.7206 7.57652 -2.81049 0
M  V30 596 H 58.3066 5.63826 -1.43496 0
M  V30 597 H 57.1866 7.29355 -2.88116 0
M  V30 598 N 54.6897 -0.239769 1.55765 0
M  V30 599 C 55.9357 -0.968234 1.78194 0
M  V30 600 C 56.2687 -1.84701 0.599938 0
M  V30 601 O 55.5437 -1.9031 -0.401524 0
M  V30 602 C 55.8267 -1.8227 3.10564 0
M  V30 603 C 55.6797 -0.971633 4.3918 0
M  V30 604 C 56.9987 -2.80388 3.39221 0
M  V30 605 H 54.1177 -0.350572 0.648281 0
M  V30 606 H 56.7597 -0.238259 1.885 0
M  V30 607 H 54.9097 -2.44507 3.01908 0
M  V30 608 H 56.5817 -0.367408 4.59835 0
M  V30 609 H 54.8247 -0.276276 4.32919 0
M  V30 610 H 55.4957 -1.60346 5.28198 0
M  V30 611 H 57.9717 -2.28287 3.47885 0
M  V30 612 H 56.8477 -3.3729 4.33044 0
M  V30 613 H 57.1087 -3.57212 2.60484 0
M  V30 614 N 56.1678 -1.49265 -0.50573 0
M  V30 615 C 57.5788 -1.51769 -1.08734 0
M  V30 616 C 57.9298 -0.301192 -1.93874 0
M  V30 617 O 57.0548 0.589456 -2.08217 0
M  V30 618 C 57.6498 -2.75017 -1.97867 0
M  V30 619 C 56.2088 -2.80314 -2.51199 0
M  V30 620 C 55.3558 -2.4562 -1.28709 0
M  V30 621 H 58.3068 -1.56031 -0.289855 0
M  V30 622 H 58.3278 -2.5491 -2.82491 0
M  V30 623 H 57.8398 -3.63539 -1.35873 0
M  V30 624 H 55.9408 -1.96061 -3.16845 0
M  V30 625 H 56.0538 -3.82366 -2.88675 0
M  V30 626 H 54.4178 -1.97297 -1.61078 0
M  V30 627 H 55.2008 -3.36411 -0.6843 0
M  V30 628 N 57.6459 0.756429 -1.3826 0
M  V30 629 C 58.8709 1.55077 -1.37717 0
M  V30 630 C 59.2959 1.88073 0.03164 0
M  V30 631 O 58.6539 1.50364 1.01293 0
M  V30 632 C 58.7019 2.8283 -2.23695 0
M  V30 633 O 57.8059 3.77862 -1.6521 0
M  V30 634 H 57.1469 0.469152 -0.469885 0
M  V30 635 H 59.6769 0.935019 -1.81985 0
M  V30 636 H 59.6869 3.31783 -2.37453 0
M  V30 637 H 58.3619 2.58144 -3.2609 0
M  V30 638 H 56.9389 3.36555 -1.60578 0
M  V30 639 N 59.124 1.23083 0.984299 0
M  V30 640 C 60.034 1.02515 2.11016 0
M  V30 641 C 61.05 -0.0291702 1.73976 0
M  V30 642 O 62.226 0.165434 2.00719 0
M  V30 643 C 59.291 0.614673 3.41208 0
M  V30 644 C 58.352 1.74359 3.92297 0
M  V30 645 C 57.585 1.35261 5.16275 0
M  V30 646 O 57.808 0.235136 5.69915 0
M  V30 647 O 56.742 2.17227 5.61334 0
M  V30 648 H 60.568 1.96862 2.31255 0
M  V30 649 H 58.153 1.01753 1.09392 0
M  V30 650 H 60.035 0.396518 4.1953 0
M  V30 651 H 58.71 -0.299851 3.22308 0
M  V30 652 H 57.617 2.01635 3.1511 0
M  V30 653 H 58.95 2.63629 4.15645 0
M  V30 654 N 60.6021 -1.18246 1.0419 0
M  V30 655 C 61.5491 -2.2192 0.634037 0
M  V30 656 C 62.5191 -1.62179 -0.358765 0
M  V30 657 O 63.7041 -1.89122 -0.252466 0
M  V30 658 C 60.8441 -3.451 0.00445535 0
M  V30 659 C 59.9571 -4.19174 1.04487 0
M  V30 660 C 59.0921 -5.29813 0.383676 0
M  V30 661 C 58.1311 -5.9566 1.4091 0
M  V30 662 N 57.2681 -6.97834 0.772784 0
M  V30 663 H 62.1081 -2.56164 1.52263 0
M  V30 664 H 59.6451 -1.25843 0.761701 0
M  V30 665 H 61.6031 -4.15485 -0.377919 0
M  V30 666 H 60.2331 -3.11472 -0.847652 0
M  V30 667 H 59.2851 -3.47604 1.54518 0
M  V30 668 H 60.5971 -4.64267 1.82368 0
M  V30 669 H 59.7511 -6.06677 -0.0528366 0
M  V30 670 H 58.4901 -4.85825 -0.427208 0
M  V30 671 H 57.4951 -5.17535 1.85574 0
M  V30 672 H 58.7201 -6.4173 2.22171 0
M  V30 673 H 56.6661 -6.55998 -0.0177708 0
M  V30 674 H 56.5831 -7.41186 1.48928 0
M  V30 675 H 57.8511 -7.78665 0.36071 0
M  V30 676 N 62.0802 -0.821533 -1.34494 0
M  V30 677 C 63.0122 -0.199946 -2.28326 0
M  V30 678 C 64.0252 0.609377 -1.50965 0
M  V30 679 O 65.2142 0.439285 -1.7301 0
M  V30 680 C 62.3142 0.738431 -3.30757 0
M  V30 681 C 61.4872 -0.0277632 -4.37391 0
M  V30 682 C 60.5462 0.831332 -5.19591 0
M  V30 683 O 59.5722 0.276822 -5.68526 0
M  V30 684 N 60.7742 2.15132 -5.39165 0
M  V30 685 H 63.5392 -1.00609 -2.82308 0
M  V30 686 H 61.1002 -0.678366 -1.47003 0
M  V30 687 H 63.0922 1.31773 -3.82646 0
M  V30 688 H 61.6622 1.44533 -2.7718 0
M  V30 689 H 60.8822 -0.788359 -3.86236 0
M  V30 690 H 62.1702 -0.555251 -5.05761 0
M  V30 691 H 61.5682 2.62559 -5.01078 0
M  V30 692 H 60.1252 2.6795 -5.94177 0
M  V30 693 N 63.5583 1.46682 -0.576371 0
M  V30 694 C 64.8063 2.02013 -0.0594163 0
M  V30 695 C 65.1273 1.45101 1.30271 0
M  V30 696 O 64.3973 0.633317 1.8538 0
M  V30 697 H 62.9773 0.746759 -0.0189745 0
M  V30 698 H 65.6393 1.79862 -0.750717 0
M  V30 699 H 64.7353 3.12097 0.014345 0
M  V30 700 N 65.0364 0.313813 1.54444 0
M  V30 701 C 66.2834 -0.291675 2.00388 0
M  V30 702 C 66.6114 -1.52904 1.2021 0
M  V30 703 O 65.8664 -1.93833 0.269707 0
M  V30 704 C 66.1654 -0.680386 3.50864 0
M  V30 705 C 65.8314 0.456699 4.48581 0
M  V30 706 C 64.4934 0.768824 4.75018 0
M  V30 707 C 66.8454 1.22098 5.06697 0
M  V30 708 C 64.1734 1.84812 5.56831 0
M  V30 709 C 66.5254 2.29029 5.89685 0
M  V30 710 C 65.1894 2.60834 6.14428 0
M  V30 711 H 64.4594 -0.106732 0.733273 0
M  V30 712 H 67.1064 0.43557 1.86481 0
M  V30 713 H 65.4114 -1.48791 3.62448 0
M  V30 714 H 67.1084 -1.16026 3.83847 0
M  V30 715 H 63.6984 0.203337 4.28117 0
M  V30 716 H 67.8824 0.993096 4.86263 0
M  V30 717 H 63.1384 2.09912 5.74236 0
M  V30 718 H 67.3124 2.887 6.33739 0
M  V30 719 H 64.9394 3.44596 6.77612 0
M  V30 720 N 66.5145 -1.57545 0.0417849 0
M  V30 721 C 67.4245 -2.14451 -0.951213 0
M  V30 722 C 68.4405 -1.09992 -1.34825 0
M  V30 723 O 69.6165 -1.42114 -1.42708 0
M  V30 724 C 66.6815 -2.67063 -2.21084 0
M  V30 725 C 65.7425 -3.86284 -1.87304 0
M  V30 726 C 64.9755 -4.36378 -3.07261 0
M  V30 727 O 65.1985 -3.85587 -4.20332 0
M  V30 728 O 64.1325 -5.28077 -2.88822 0
M  V30 729 H 67.9585 -2.99601 -0.497287 0
M  V30 730 H 65.5435 -1.48317 -0.179567 0
M  V30 731 H 67.4255 -3.00914 -2.95006 0
M  V30 732 H 66.1005 -1.84989 -2.65633 0
M  V30 733 H 65.0075 -3.57338 -1.10727 0
M  V30 734 H 66.3405 -4.6956 -1.47562 0
M  V30 735 N 67.9926 0.231505 -1.5589 0
M  V30 736 C 68.9556 1.27028 -1.90779 0
M  V30 737 C 69.9556 1.40308 -0.785507 0
M  V30 738 O 71.1456 1.38744 -1.05336 0
M  V30 739 C 68.2776 2.64566 -2.14983 0
M  V30 740 H 69.4706 0.973017 -2.83677 0
M  V30 741 H 67.0236 0.471486 -1.49019 0
M  V30 742 H 67.7586 2.99406 -1.24604 0
M  V30 743 H 67.5436 2.56305 -2.96732 0
M  V30 744 H 69.0336 3.39543 -2.43105 0
M  V30 745 N 69.4707 1.49531 0.497807 0
M  V30 746 C 70.4337 1.65916 1.58128 0
M  V30 747 C 71.4337 0.530825 1.51786 0
M  V30 748 O 72.6237 0.797342 1.54881 0
M  V30 749 C 69.7557 1.65951 2.9778 0
M  V30 750 H 70.9487 2.62556 1.44929 0
M  V30 751 H 68.5017 1.38611 0.722275 0
M  V30 752 H 69.2367 0.709065 3.16453 0
M  V30 753 H 69.0217 2.47897 3.03792 0
M  V30 754 H 70.5117 1.80673 3.76493 0
M  V30 755 N 70.9488 -0.749086 1.3866 0
M  V30 756 C 72.1738 -1.54344 1.38538 0
M  V30 757 C 72.5988 -1.88088 -0.0216655 0
M  V30 758 O 71.9568 -1.50899 -1.00494 0
M  V30 759 C 72.0048 -2.8164 2.25192 0
M  V30 760 O 71.1088 -3.7698 1.67212 0
M  V30 761 H 70.4498 -0.466654 0.472367 0
M  V30 762 H 72.9798 -0.925355 1.82478 0
M  V30 763 H 72.9898 -3.30519 2.3921 0
M  V30 764 H 71.6648 -2.56411 3.27454 0
M  V30 765 H 70.2418 -3.35699 1.6236 0
M  V30 766 N 72.4269 -1.23603 -0.977757 0
M  V30 767 C 73.6759 -1.06377 -1.71368 0
M  V30 768 C 73.9889 0.399062 -1.91486 0
M  V30 769 O 75.1949 0.691312 -2.62551 0
M  V30 770 C 73.6509 -1.85512 -3.08404 0
M  V30 771 C 73.2589 -3.36141 -2.96164 0
M  V30 772 C 75.0029 -1.76783 -3.85938 0
M  V30 773 C 72.9099 -4.07659 -4.28449 0
M  V30 774 H 71.8399 -0.394452 -0.642591 0
M  V30 775 H 74.4909 -1.47594 -1.09034 0
M  V30 776 H 72.8729 -1.37103 -3.71509 0
M  V30 777 H 74.0469 -3.92056 -2.42133 0
M  V30 778 H 72.3619 -3.45712 -2.32104 0
M  V30 779 H 74.9589 -2.27526 -4.83876 0
M  V30 780 H 75.3019 -0.731116 -4.0983 0
M  V30 781 H 75.8349 -2.22818 -3.2954 0
M  V30 782 H 72.5739 -5.11648 -4.09752 0
M  V30 783 H 72.0939 -3.5653 -4.82334 0
M  V30 784 H 73.7729 -4.141 -4.97122 0
M  V30 785 N 73.905 1.17692 -1.04816 0
M  V30 786 C 74.852 2.21581 -0.645797 0
M  V30 787 C 75.822 1.62367 0.350159 0
M  V30 788 O 77.007 1.89254 0.242433 0
M  V30 789 C 74.147 3.45092 -0.0227568 0
M  V30 790 C 73.26 4.18613 -1.06709 0
M  V30 791 C 72.395 5.29602 -0.411767 0
M  V30 792 C 71.434 5.94904 -1.44067 0
M  V30 793 N 70.571 6.97414 -0.809781 0
M  V30 794 H 75.411 2.55353 -1.5362 0
M  V30 795 H 72.948 1.25438 -0.768364 0
M  V30 796 H 74.906 4.15679 0.35588 0
M  V30 797 H 73.536 3.11917 0.831122 0
M  V30 798 H 72.588 3.46779 -1.5636 0
M  V30 799 H 73.9 4.63293 -1.84827 0
M  V30 800 H 73.054 6.06696 0.0206623 0
M  V30 801 H 71.793 4.86045 0.401438 0
M  V30 802 H 70.798 5.16544 -1.88316 0
M  V30 803 H 72.023 6.40542 -2.25571 0
M  V30 804 H 69.969 6.55998 -0.0170186 0
M  V30 805 H 69.886 7.40386 -1.52856 0
M  V30 806 H 71.154 7.78463 -0.401999 0
M  V30 807 N 75.3831 0.828654 1.34056 0
M  V30 808 C 76.2931 0.256725 2.33191 0
M  V30 809 C 77.3091 -0.611898 1.62886 0
M  V30 810 O 78.4851 -0.51844 1.94613 0
M  V30 811 C 75.5501 -0.567238 3.42028 0
M  V30 812 C 74.6111 0.324458 4.28072 0
M  V30 813 C 73.8441 -0.460274 5.31712 0
M  V30 814 O 74.0671 -1.693 5.44696 0
M  V30 815 O 73.0011 0.160391 6.01686 0
M  V30 816 H 76.8271 1.07739 2.83947 0
M  V30 817 H 74.4121 0.59093 1.37217 0
M  V30 818 H 76.2941 -1.03582 4.08471 0
M  V30 819 H 74.9691 -1.36513 2.93506 0
M  V30 820 H 73.8761 0.840659 3.64532 0
M  V30 821 H 75.2091 1.08685 4.8005 0
M  V30 822 N 76.8612 -1.46375 0.584142 0
M  V30 823 C 77.7712 -2.34115 -0.150728 0
M  V30 824 C 78.7872 -1.49838 -0.884567 0
M  V30 825 O 79.9632 -1.82704 -0.847429 0
M  V30 826 C 77.0282 -3.2705 -1.15062 0
M  V30 827 C 76.0892 -4.27228 -0.421293 0
M  V30 828 C 75.3222 -5.15722 -1.37355 0
M  V30 829 O 75.5452 -5.07176 -2.61014 0
M  V30 830 O 74.4792 -5.95383 -0.883355 0
M  V30 831 H 78.3052 -2.98309 0.569708 0
M  V30 832 H 75.8902 -1.45373 0.344535 0
M  V30 833 H 77.7722 -3.84381 -1.72712 0
M  V30 834 H 76.4472 -2.65451 -1.8525 0
M  V30 835 H 75.3542 -3.7358 0.197085 0
M  V30 836 H 76.6872 -4.91616 0.239641 0
M  V30 837 N 78.3393 -0.321999 -1.54275 0
M  V30 838 C 79.2863 0.544664 -2.24281 0
M  V30 839 C 80.2563 1.1129 -1.23303 0
M  V30 840 O 81.4413 1.15354 -1.51981 0
M  V30 841 C 78.5813 1.70045 -3.00298 0
M  V30 842 C 77.6943 1.16159 -4.1609 0
M  V30 843 C 76.8293 2.28293 -4.79641 0
M  V30 844 C 75.8683 1.71648 -5.8754 0
M  V30 845 N 75.0053 2.77438 -6.44959 0
M  V30 846 H 79.8453 -0.0588907 -2.97942 0
M  V30 847 H 77.3823 -0.0408345 -1.47043 0
M  V30 848 H 79.3403 2.38054 -3.42616 0
M  V30 849 H 77.9703 2.27531 -2.28975 0
M  V30 850 H 77.0223 0.373092 -3.78566 0
M  V30 851 H 78.3343 0.707087 -4.93763 0
M  V30 852 H 77.4883 3.0421 -5.2492 0
M  V30 853 H 76.2273 2.77079 -4.01346 0
M  V30 854 H 75.2323 0.942282 -5.41665 0
M  V30 855 H 76.4573 1.23741 -6.67731 0
M  V30 856 H 74.4033 3.25519 -5.69538 0
M  V30 857 H 74.3203 2.36547 -7.1804 0
M  V30 858 H 75.5883 3.53189 -6.94894 0
M  V30 859 N 79.8174 1.5752 -0.0501392 0
M  V30 860 C 81.0654 1.9227 0.622642 0
M  V30 861 C 81.3864 0.929083 1.71444 0
M  V30 862 O 80.6564 -0.0262186 1.95882 0
M  V30 863 H 79.2364 0.709739 0.232981 0
M  V30 864 H 81.8984 1.94628 -0.102898 0
M  V30 865 H 80.9944 2.93479 1.06191 0
M  V30 866 N 81.2955 -0.223234 1.56011 0
M  V30 867 C 82.5725 -0.972108 1.69733 0
M  V30 868 C 82.9525 -2.02485 0.59691 0
M  V30 869 O 82.3005 -2.25037 -0.396324 0
M  V30 870 C 82.5105 -1.58407 3.10979 0
M  V30 871 C 83.8585 -2.07696 3.70334 0
M  V30 872 O 84.8825 -1.68304 3.1393 0
M  V30 873 O 83.7415 -2.80096 4.69264 0
M  V30 874 H 80.8355 -0.453993 0.691245 0
M  V30 875 H 83.3815 -0.215149 1.68331 0
M  V30 876 H 82.1535 -0.823831 3.82529 0
M  V30 877 H 81.7765 -2.40661 3.16493 0
M  V30 878 N 82.7736 -1.49793 -0.48987 0
M  V30 879 C 83.6836 -1.70036 -1.61632 0
M  V30 880 C 84.6996 -0.583102 -1.63939 0
M  V30 881 O 85.8756 -0.859169 -1.82154 0
M  V30 882 C 82.9406 -1.77277 -2.97949 0
M  V30 883 C 82.0016 -3.00918 -3.06181 0
M  V30 884 C 81.2346 -3.07804 -4.35996 0
M  V30 885 O 81.4576 -2.21982 -5.25433 0
M  V30 886 O 80.3916 -4.00369 -4.49431 0
M  V30 887 H 84.2176 -2.65486 -1.47482 0
M  V30 888 H 81.8026 -1.33666 -0.667362 0
M  V30 889 H 83.6846 -1.84329 -3.78947 0
M  V30 890 H 82.3596 -0.850076 -3.12339 0
M  V30 891 H 81.2666 -2.99377 -2.2433 0
M  V30 892 H 82.5996 -3.92704 -2.96723 0
M  V30 893 N 84.2517 0.741722 -1.39055 0
M  V30 894 C 85.4977 1.50336 -1.36113 0
M  V30 895 C 85.8307 1.94148 0.0450796 0
M  V30 896 O 85.1057 1.66301 1.00868 0
M  V30 897 C 85.3887 2.74773 -2.32749 0
M  V30 898 C 85.2417 2.37023 -3.82283 0
M  V30 899 C 86.5607 3.76846 -2.27322 0
M  V30 900 H 83.6797 0.545351 -0.495743 0
M  V30 901 H 86.3217 0.848624 -1.69995 0
M  V30 902 H 84.4717 3.30639 -2.03986 0
M  V30 903 H 86.1437 1.8684 -4.21768 0
M  V30 904 H 84.3867 1.69334 -3.99385 0
M  V30 905 H 85.0577 3.26104 -4.45376 0
M  V30 906 H 87.5337 3.30548 -2.5274 0
M  V30 907 H 86.4097 4.6159 -2.97028 0
M  V30 908 H 86.6707 4.23286 -1.27599 0
M  V30 909 N 85.7298 1.2412 0.971189 0
M  V30 910 C 86.9758 1.08041 1.71625 0
M  V30 911 C 87.3088 -0.380407 1.90438 0
M  V30 912 O 86.5838 -1.28127 1.46334 0
M  V30 913 C 86.8668 1.81682 3.10908 0
M  V30 914 C 86.7198 3.35493 2.99608 0
M  V30 915 C 88.0388 1.58671 4.10501 0
M  V30 916 H 85.1578 0.39388 0.622919 0
M  V30 917 H 87.7998 1.52743 1.13003 0
M  V30 918 H 85.9498 1.43684 3.60953 0
M  V30 919 H 87.6218 3.83068 2.57015 0
M  V30 920 H 85.8648 3.64052 2.35899 0
M  V30 921 H 86.5358 3.82217 3.98264 0
M  V30 922 H 89.0118 1.91719 3.69301 0
M  V30 923 H 87.8878 2.1266 5.06031 0
M  V30 924 H 88.1488 0.524161 4.38982 0
M  V30 925 N 87.2079 -1.17134 1.05439 0
M  V30 926 C 88.4539 -1.87733 0.767077 0
M  V30 927 C 88.7869 -1.8098 -0.704253 0
M  V30 928 O 88.0619 -1.21951 -1.5152 0
M  V30 929 C 88.3449 -3.37659 1.25133 0
M  V30 930 C 88.1979 -3.53149 2.78578 0
M  V30 931 C 89.5169 -4.31768 0.852324 0
M  V30 932 H 86.6359 -0.681687 0.280129 0
M  V30 933 H 89.2779 -1.37732 1.30881 0
M  V30 934 H 87.4279 -3.80373 0.790469 0
M  V30 935 H 89.0999 -3.19434 3.32806 0
M  V30 936 H 87.3429 -2.95345 3.17732 0
M  V30 937 H 88.0139 -4.58403 3.07523 0
M  V30 938 H 90.4899 -3.96909 1.24911 0
M  V30 939 H 89.3659 -5.35199 1.21873 0
M  V30 940 H 89.6269 -4.41429 -0.243485 0
M  V30 941 N 88.686 -0.835752 -1.33615 0
M  V30 942 C 89.596 -0.269088 -2.33052 0
M  V30 943 C 90.612 0.603251 -1.63208 0
M  V30 944 O 91.788 0.508112 -1.94885 0
M  V30 945 C 88.853 0.549091 -3.42324 0
M  V30 946 C 87.914 -0.347156 -4.27894 0
M  V30 947 C 87.147 0.43207 -5.31948 0
M  V30 948 O 87.37 1.66409 -5.45586 0
M  V30 949 O 86.304 -0.192298 -6.01593 0
M  V30 950 H 90.13 -1.09243 -2.83372 0
M  V30 951 H 87.715 -0.598198 -1.36901 0
M  V30 952 H 89.597 1.01414 -4.09015 0
M  V30 953 H 88.272 1.34955 -2.94226 0
M  V30 954 H 87.179 -0.859979 -3.64081 0
M  V30 955 H 88.512 -1.1123 -4.79467 0
M  V30 956 N 90.1641 1.46063 -0.591896 0
M  V30 957 C 91.0941 2.33172 0.123673 0
M  V30 958 C 92.0751 1.45897 0.87453 0
M  V30 959 O 93.2601 1.74698 0.848181 0
M  V30 960 C 90.3901 3.28336 1.13194 0
M  V30 961 C 89.3441 4.25124 0.495324 0
M  V30 962 C 88.6701 5.09863 1.61071 0
M  V30 963 C 89.9701 5.19143 -0.573425 0
M  V30 964 H 91.6641 2.93252 -0.603646 0
M  V30 965 H 89.2101 1.41014 -0.291741 0
M  V30 966 H 91.1631 3.88137 1.64097 0
M  V30 967 H 89.8871 2.66383 1.88965 0
M  V30 968 H 88.5461 3.66599 0.00729452 0
M  V30 969 H 88.1941 4.44288 2.35832 0
M  V30 970 H 87.8941 5.75417 1.19035 0
M  V30 971 H 89.4181 5.72529 2.12233 0
M  V30 972 H 90.8321 5.73106 -0.1491 0
M  V30 973 H 89.2291 5.93089 -0.914636 0
M  V30 974 H 90.2991 4.62519 -1.45617 0
M  V30 975 N 91.6422 0.330177 1.54103 0
M  V30 976 C 92.8882 -0.270806 2.00984 0
M  V30 977 C 93.2212 -1.51265 1.21789 0
M  V30 978 O 92.4962 -1.92142 0.301927 0
M  V30 979 C 92.7792 -0.598339 3.55094 0
M  V30 980 C 92.6322 0.654674 4.4501 0
M  V30 981 C 93.9512 -1.41334 4.16789 0
M  V30 982 H 91.0702 -0.0969531 0.730595 0
M  V30 983 H 93.7122 0.448066 1.84641 0
M  V30 984 H 91.8622 -1.21078 3.69151 0
M  V30 985 H 93.5342 1.29285 4.42813 0
M  V30 986 H 91.7772 1.28224 4.14416 0
M  V30 987 H 92.4482 0.380944 5.50684 0
M  V30 988 H 94.9242 -0.895597 4.06347 0
M  V30 989 H 93.8002 -1.61127 5.24718 0
M  V30 990 H 94.0612 -2.41146 3.70541 0
M  V30 991 N 93.1203 -1.57491 0.0584922 0
M  V30 992 C 94.0303 -2.15448 -0.928414 0
M  V30 993 C 95.0463 -1.11416 -1.3365 0
M  V30 994 O 96.2223 -1.4362 -1.41193 0
M  V30 995 C 93.2873 -2.69393 -2.18239 0
M  V30 996 C 92.3483 -3.88249 -1.83196 0
M  V30 997 C 91.5813 -4.39613 -3.02616 0
M  V30 998 O 91.8043 -3.90023 -4.16219 0
M  V30 999 O 90.7383 -5.31111 -2.83204 0
M  V30 1000 H 94.5643 -3.00112 -0.465483 0
M  V30 1001 H 92.1493 -1.48499 -0.163826 0
M  V30 1002 H 94.0313 -3.04026 -2.91798 0
M  V30 1003 H 92.7063 -1.87796 -2.63656 0
M  V30 1004 H 91.6133 -3.58492 -1.06931 0
M  V30 1005 H 92.9463 -4.71098 -1.42573 0
M  V30 1006 N 94.5984 0.214957 -1.56127 0
M  V30 1007 C 95.5464 1.28601 -1.93816 0
M  V30 1008 C 96.5404 1.48175 -0.821016 0
M  V30 1009 O 97.7464 1.49271 -1.0059 0
M  V30 1010 H 94.1214 0.431302 -0.616022 0
M  V30 1011 H 96.0924 0.940991 -2.83175 0
M  V30 1012 C 94.8414 2.62779 -2.27689 0
M  V30 1013 H 94.1644 2.48527 -3.13168 0
M  V30 1014 H 95.6044 3.36517 -2.57939 0
M  V30 1015 C 94.0634 3.18285 -1.10436 0
M  V30 1016 O 94.5934 4.00002 -0.368945 0
M  V30 1017 N 92.7994 2.7675 -0.886433 0
M  V30 1018 H 92.3464 2.10404 -1.48619 0
M  V30 1019 H 92.3044 3.14229 -0.103656 0
M  V30 1020 N 96.0765 1.50051 0.48192 0
M  V30 1021 C 97.3245 1.60181 1.23234 0
M  V30 1022 C 97.6455 0.299176 1.92691 0
M  V30 1023 O 96.9155 -0.682708 1.83619 0
M  V30 1024 H 95.4955 0.590232 0.457859 0
M  V30 1025 H 98.1575 1.86775 0.556881 0
M  V30 1026 H 97.2535 2.40753 1.98607 0
M  V30 1027 N 97.5546 -0.734337 1.39446 0
M  V30 1028 C 98.5016 -1.84835 1.38219 0
M  V30 1029 C 99.4716 -1.64331 0.24179 0
M  V30 1030 O 100.657 -1.85728 0.437002 0
M  V30 1031 C 97.7966 -3.22355 1.23212 0
M  V30 1032 C 96.9096 -3.5456 2.46801 0
M  V30 1033 C 96.0446 -4.81485 2.24377 0
M  V30 1034 C 95.0836 -5.06536 3.43639 0
M  V30 1035 N 94.2206 -6.24665 3.20528 0
M  V30 1036 H 99.0606 -1.85219 2.33448 0
M  V30 1037 H 96.5976 -0.905039 1.15963 0
M  V30 1038 H 98.5556 -4.0174 1.12522 0
M  V30 1039 H 97.1856 -3.21248 0.316121 0
M  V30 1040 H 96.2376 -2.69872 2.68092 0
M  V30 1041 H 97.5496 -3.6899 3.3563 0
M  V30 1042 H 96.7036 -5.68852 2.10933 0
M  V30 1043 H 95.4426 -4.6923 1.32944 0
M  V30 1044 H 94.4476 -4.17632 3.5758 0
M  V30 1045 H 95.6726 -5.20676 4.35974 0
M  V30 1046 H 93.6186 -6.13696 2.3176 0
M  V30 1047 H 93.5356 -6.39685 4.02913 0
M  V30 1048 H 94.8036 -7.14868 3.10779 0
M  V30 1049 N 99.0327 -1.24633 -0.964593 0
M  V30 1050 C 99.9797 -1.04144 -2.05968 0
M  V30 1051 C 100.95 0.046262 -1.66036 0
M  V30 1052 O 102.135 -0.108972 -1.90489 0
M  V30 1053 C 99.2747 -0.65563 -3.38815 0
M  V30 1054 C 98.3877 -1.81714 -3.91923 0
M  V30 1055 C 97.5227 -1.37662 -5.13052 0
M  V30 1056 C 96.5617 -2.50788 -5.58365 0
M  V30 1057 N 95.6987 -2.07582 -6.70712 0
M  V30 1058 H 100.539 -1.9787 -2.22827 0
M  V30 1059 H 98.0757 -0.9855 -1.09208 0
M  V30 1060 H 100.034 -0.412954 -4.15151 0
M  V30 1061 H 98.6637 0.244627 -3.21872 0
M  V30 1062 H 97.7157 -2.1734 -3.12198 0
M  V30 1063 H 99.0277 -2.66705 -4.21509 0
M  V30 1064 H 98.1817 -1.093 -5.96773 0
M  V30 1065 H 96.9207 -0.497293 -4.85158 0
M  V30 1066 H 95.9257 -2.79906 -4.73215 0
M  V30 1067 H 97.1507 -3.39283 -5.88272 0
M  V30 1068 H 95.0967 -1.22051 -6.44546 0
M  V30 1069 H 95.0137 -2.86125 -6.99763 0
M  V30 1070 H 96.2817 -1.82369 -7.57867 0
M  V30 1071 N 100.511 1.16574 -1.06058 0
M  V30 1072 C 101.757 1.87324 -0.777022 0
M  V30 1073 C 102.09 1.81351 0.694645 0
M  V30 1074 O 101.365 1.22753 1.50871 0
M  V30 1075 C 101.648 3.36991 -1.26922 0
M  V30 1076 C 101.501 3.51667 -2.80447 0
M  V30 1077 C 102.82 4.3131 -0.87521 0
M  V30 1078 H 99.9388 0.680191 -0.28374 0
M  V30 1079 H 102.581 1.37036 -1.3161 0
M  V30 1080 H 100.731 3.79949 -0.81063 0
M  V30 1081 H 102.403 3.17664 -3.34495 0
M  V30 1082 H 100.646 2.93656 -3.19294 0
M  V30 1083 H 101.317 4.56766 -3.0995 0
M  V30 1084 H 103.793 3.9624 -1.27014 0
M  V30 1085 H 102.669 5.34545 -1.2471 0
M  V30 1086 H 102.93 4.41552 0.220071 0
M  V30 1087 N 101.989 0.842826 1.3317 0
M  V30 1088 C 103.217 0.454055 2.01856 0
M  V30 1089 C 103.632 -0.94587 1.63397 0
M  V30 1090 O 102.989 -1.61534 0.849302 0
M  V30 1091 C 103.04 0.569715 3.56982 0
M  V30 1092 O 102.761 1.91448 3.94055 0
M  V30 1093 C 104.262 0.178412 4.42941 0
M  V30 1094 H 101.482 0.17979 0.646465 0
M  V30 1095 H 104.026 1.1365 1.70012 0
M  V30 1096 H 102.181 -0.0648587 3.87346 0
M  V30 1097 H 102.595 1.90282 4.88767 0
M  V30 1098 H 104.069 0.310376 5.51127 0
M  V30 1099 H 104.546 -0.880056 4.30293 0
M  V30 1100 H 105.152 0.787579 4.17944 0
M  V30 1101 N 103.467 -1.45747 0.599634 0
M  V30 1102 C 104.713 -2.02592 0.0918643 0
M  V30 1103 C 105.046 -1.46806 -1.27128 0
M  V30 1104 O 104.321 -0.639658 -1.83681 0
M  V30 1105 C 104.604 -3.60073 0.0443398 0
M  V30 1106 C 104.457 -4.26208 1.43759 0
M  V30 1107 C 105.776 -4.35309 -0.647608 0
M  V30 1108 H 102.895 -0.736175 0.034857 0
M  V30 1109 H 105.537 -1.73694 0.770081 0
M  V30 1110 H 103.687 -3.84823 -0.533224 0
M  V30 1111 H 105.359 -4.12668 2.06162 0
M  V30 1112 H 103.602 -3.84916 2.00056 0
M  V30 1113 H 104.273 -5.35069 1.35665 0
M  V30 1114 H 106.749 -4.15805 -0.156776 0
M  V30 1115 H 105.625 -5.45038 -0.649942 0
M  V30 1116 H 105.886 -4.07598 -1.71219 0
M  V30 1117 N 104.945 -0.338344 -1.53925 0
M  V30 1118 C 106.193 0.259245 -2.0043 0
M  V30 1119 C 106.514 1.51484 -1.22791 0
M  V30 1120 O 105.784 1.93037 -0.33368 0
M  V30 1121 H 104.364 0.0987845 -0.740439 0
M  V30 1122 H 107.026 -0.458302 -1.89435 0
M  V30 1123 H 106.122 0.505334 -3.07982 0
M  V30 1124 N 106.423 1.57458 -0.0668435 0
M  V30 1125 C 107.37 2.12439 0.902122 0
M  V30 1126 C 108.34 1.03565 1.2986 0
M  V30 1127 O 109.525 1.312 1.38532 0
M  V30 1128 C 106.665 2.6865 2.16614 0
M  V30 1129 C 105.778 3.91663 1.82274 0
M  V30 1130 C 104.913 4.36134 3.0325 0
M  V30 1131 C 103.952 5.51808 2.64904 0
M  V30 1132 N 103.089 5.9126 3.78624 0
M  V30 1133 H 107.929 2.94934 0.426382 0
M  V30 1134 H 105.466 1.4575 0.198819 0
M  V30 1135 H 107.424 2.99346 2.90599 0
M  V30 1136 H 106.054 1.88928 2.61737 0
M  V30 1137 H 105.106 3.6746 0.983719 0
M  V30 1138 H 106.418 4.75693 1.50059 0
M  V30 1139 H 105.572 4.68465 3.85519 0
M  V30 1140 H 104.311 3.50948 3.38655 0
M  V30 1141 H 103.316 5.19133 1.81055 0
M  V30 1142 H 104.541 6.38722 2.30675 0
M  V30 1143 H 102.487 5.09024 4.138 0
M  V30 1144 H 102.404 6.70018 3.5016 0
M  V30 1145 H 103.672 6.28212 4.61486 0
M  V30 1146 N 107.901 -0.206675 1.56239 0
M  V30 1147 C 109.178 -0.954051 1.70755 0
M  V30 1148 C 109.558 -2.01841 0.618353 0
M  V30 1149 O 108.906 -2.25444 -0.372434 0
M  V30 1150 C 109.116 -1.551 3.12642 0
M  V30 1151 C 110.464 -2.03757 3.72516 0
M  V30 1152 O 111.488 -1.64965 3.15698 0
M  V30 1153 O 110.347 -2.75103 4.72208 0
M  V30 1154 H 107.441 -0.446636 0.696021 0
M  V30 1155 H 109.987 -0.197283 1.68549 0
M  V30 1156 H 108.759 -0.783212 3.83382 0
M  V30 1157 H 108.382 -2.37291 3.19028 0
M  V30 1158 N 109.379 -1.50304 -0.473955 0
M  V30 1159 C 110.656 -1.51667 -1.23518 0
M  V30 1160 C 111.036 -0.259701 -2.09496 0
M  V30 1161 O 110.384 0.756986 -2.15597 0
M  V30 1162 C 110.594 -2.81082 -2.06868 0
M  V30 1163 C 111.942 -3.31631 -2.65153 0
M  V30 1164 O 112.966 -2.82384 -2.17113 0
M  V30 1165 O 111.825 -4.17471 -3.52675 0
M  V30 1166 H 108.919 -0.60822 -0.560355 0
M  V30 1167 H 111.465 -1.62592 -0.486011 0
M  V30 1168 H 110.237 -3.64041 -1.4349 0
M  V30 1169 H 109.86 -2.73146 -2.88924 0
M  V30 1170 N 110.857 0.726932 -1.39834 0
M  V30 1171 C 112.106 1.48214 -1.36805 0
M  V30 1172 C 112.419 1.95576 0.0305291 0
M  V30 1173 O 113.625 2.7088 0.183417 0
M  V30 1174 C 112.081 2.67854 -2.40379 0
M  V30 1175 C 111.689 2.27408 -3.85992 0
M  V30 1176 C 113.433 3.45641 -2.46439 0
M  V30 1177 C 111.34 3.43819 -4.81189 0
M  V30 1178 H 110.27 0.556606 -0.508631 0
M  V30 1179 H 112.921 0.792216 -1.65518 0
M  V30 1180 H 111.303 3.3896 -2.04749 0
M  V30 1181 H 112.477 1.63795 -4.30706 0
M  V30 1182 H 110.792 1.62692 -3.83302 0
M  V30 1183 H 113.389 4.32244 -3.14753 0
M  V30 1184 H 113.732 3.88669 -1.49139 0
M  V30 1185 H 114.265 2.8157 -2.81004 0
M  V30 1186 H 111.004 3.05834 -5.79781 0
M  V30 1187 H 110.524 4.06385 -4.41148 0
M  V30 1188 H 112.203 4.10043 -5.00474 0
M  V30 1189 N 112.336 1.25143 0.95797 0
M  V30 1190 C 113.268 1.01023 2.05735 0
M  V30 1191 C 114.281 -0.0236902 1.62783 0
M  V30 1192 O 115.47 0.21448 1.77207 0
M  V30 1193 C 112.57 0.504595 3.35122 0
M  V30 1194 C 111.743 1.6039 4.06932 0
M  V30 1195 C 110.802 1.09922 5.14591 0
M  V30 1196 O 109.828 1.79293 5.40225 0
M  V30 1197 N 111.03 -0.0612545 5.80468 0
M  V30 1198 H 113.795 1.95683 2.26998 0
M  V30 1199 H 111.356 1.16303 1.12629 0
M  V30 1200 H 113.348 0.151516 4.04416 0
M  V30 1201 H 111.918 -0.347989 3.10657 0
M  V30 1202 H 111.138 2.12872 3.31782 0
M  V30 1203 H 112.426 2.34252 4.51667 0
M  V30 1204 H 111.824 -0.640985 5.62057 0
M  V30 1205 H 110.381 -0.355395 6.5083 0
M  V30 1206 N 113.814 -1.1601 1.06675 0
M  V30 1207 C 114.761 -2.20525 0.680967 0
M  V30 1208 C 115.731 -1.62904 -0.324283 0
M  V30 1209 O 116.916 -1.89615 -0.212294 0
M  V30 1210 C 114.056 -3.45013 0.0776551 0
M  V30 1211 C 113.169 -4.16863 1.13355 0
M  V30 1212 C 112.304 -5.2888 0.49597 0
M  V30 1213 C 111.343 -5.92537 1.53513 0
M  V30 1214 N 110.48 -6.96038 0.920631 0
M  V30 1215 H 115.32 -2.52876 1.57663 0
M  V30 1216 H 112.857 -1.24199 0.788223 0
M  V30 1217 H 114.815 -4.16193 -0.289704 0
M  V30 1218 H 113.445 -3.132 -0.781393 0
M  V30 1219 H 112.497 -3.44248 1.61857 0
M  V30 1220 H 113.809 -4.60294 1.92174 0
M  V30 1221 H 112.963 -6.06653 0.0758604 0
M  V30 1222 H 111.702 -4.86622 -0.324062 0
M  V30 1223 H 110.707 -5.13482 1.9651 0
M  V30 1224 H 111.932 -6.36873 2.35733 0
M  V30 1225 H 109.878 -6.55888 0.12138 0
M  V30 1226 H 109.795 -7.3786 1.64616 0
M  V30 1227 H 111.063 -7.77725 0.525795 0
M  V30 1228 N 115.292 -0.849877 -1.32721 0
M  V30 1229 C 116.225 -0.235903 -2.26977 0
M  V30 1230 C 117.203 0.623355 -1.50177 0
M  V30 1231 O 118.387 0.581207 -1.79316 0
M  V30 1232 C 115.514 0.667712 -3.32053 0
M  V30 1233 C 114.56 -0.11753 -4.26338 0
M  V30 1234 S 115.393 -1.48277 -5.14562 0
M  V30 1235 C 116.549 -0.584741 -6.23163 0
M  V30 1236 H 116.782 -1.03495 -2.78704 0
M  V30 1237 H 114.315 -0.64724 -1.40179 0
M  V30 1238 H 116.273 1.18343 -3.93072 0
M  V30 1239 H 114.934 1.44052 -2.7912 0
M  V30 1240 H 114.127 0.57051 -5.00761 0
M  V30 1241 H 113.729 -0.564668 -3.69713 0
M  V30 1242 H 116.021 0.212968 -6.77165 0
M  V30 1243 H 116.964 -1.29947 -6.96074 0
M  V30 1244 H 117.372 -0.161202 -5.6427 0
M  V30 1245 N 116.77 1.45427 -0.607355 0
M  V30 1246 C 117.718 2.32269 0.12411 0
M  V30 1247 C 118.712 1.45955 0.859854 0
M  V30 1248 O 119.918 1.6244 0.775447 0
M  V30 1249 H 116.293 0.749691 0.0588839 0
M  V30 1250 H 118.264 2.91743 -0.626762 0
M  V30 1251 C 117.013 3.29567 1.1082 0
M  V30 1252 H 116.336 3.95978 0.551492 0
M  V30 1253 H 117.776 3.93061 1.58995 0
M  V30 1254 C 116.235 2.56722 2.18164 0
M  V30 1255 O 116.765 2.34842 3.25902 0
M  V30 1256 N 114.971 2.16861 1.93442 0
M  V30 1257 H 114.518 2.34855 1.05834 0
M  V30 1258 H 114.476 1.68444 2.65469 0
M  V30 1259 N 118.248 0.346503 1.53744 0
M  V30 1260 C 119.659 -0.136779 1.86198 0
M  V30 1261 C 120.01 -1.49749 1.26766 0
M  V30 1262 O 119.135 -2.08417 0.582355 0
M  V30 1263 C 119.73 -0.254966 3.37839 0
M  V30 1264 C 118.289 -0.682482 3.70161 0
M  V30 1265 C 117.436 0.181981 2.76702 0
M  V30 1266 H 120.387 0.565994 1.48264 0
M  V30 1267 H 120.408 -1.08195 3.64793 0
M  V30 1268 H 119.92 0.735526 3.81066 0
M  V30 1269 H 118.021 -1.68189 3.3248 0
M  V30 1270 H 118.134 -0.470326 4.76786 0
M  V30 1271 H 116.498 -0.34615 2.52337 0
M  V30 1272 H 117.281 1.16966 3.2276 0
M  V30 1273 N 119.726 -1.57421 0.075193 0
M  V30 1274 C 121.137 -1.81021 -0.456964 0
M  V30 1275 C 121.488 -0.98936 -1.69429 0
M  V30 1276 O 120.613 -0.212865 -2.15351 0
M  V30 1277 C 121.208 -3.28329 -0.83581 0
M  V30 1278 C 119.767 -3.52764 -1.31281 0
M  V30 1279 C 118.914 -2.75676 -0.299648 0
M  V30 1280 H 121.865 -1.55822 0.300856 0
M  V30 1281 H 121.886 -3.40564 -1.69696 0
M  V30 1282 H 121.398 -3.88046 0.0649238 0
M  V30 1283 H 119.499 -2.98355 -2.23193 0
M  V30 1284 H 119.612 -4.61451 -1.28839 0
M  V30 1285 H 117.976 -2.42538 -0.777641 0
M  V30 1286 H 118.759 -3.38132 0.593417 0
M  V30 1287 N 121.204 0.198386 -1.56346 0
M  V30 1288 C 122.151 1.24589 -1.94284 0
M  V30 1289 C 123.121 1.454 -0.802997 0
M  V30 1290 O 124.306 1.58588 -1.06087 0
M  V30 1291 C 121.446 2.58631 -2.28482 0
M  V30 1292 C 120.559 2.45426 -3.55514 0
M  V30 1293 C 119.694 3.7215 -3.79049 0
M  V30 1294 C 118.733 3.53763 -4.99518 0
M  V30 1295 N 117.87 4.72491 -5.19323 0
M  V30 1296 H 122.71 0.915356 -2.83593 0
M  V30 1297 H 120.247 0.440629 -1.40346 0
M  V30 1298 H 122.205 3.3672 -2.46324 0
M  V30 1299 H 120.835 2.89734 -1.42317 0
M  V30 1300 H 119.887 1.58652 -3.45737 0
M  V30 1301 H 121.199 2.27772 -4.43758 0
M  V30 1302 H 120.353 4.58679 -3.97113 0
M  V30 1303 H 119.092 3.92754 -2.89129 0
M  V30 1304 H 118.097 2.65619 -4.8138 0
M  V30 1305 H 119.322 3.34607 -5.90944 0
M  V30 1306 H 117.268 4.93365 -4.3235 0
M  V30 1307 H 117.185 4.5765 -6.01741 0
M  V30 1308 H 118.453 5.6038 -5.41843 0
M  V30 1309 N 122.682 1.50554 0.465978 0
M  V30 1310 C 123.929 1.61798 1.21768 0
M  V30 1311 C 124.257 0.320696 1.91838 0
M  V30 1312 O 123.512 -0.693724 1.82992 0
M  V30 1313 C 123.811 2.75152 2.28093 0
M  V30 1314 C 123.477 4.15454 1.75239 0
M  V30 1315 C 122.139 4.53628 1.60546 0
M  V30 1316 C 124.491 5.03121 1.36083 0
M  V30 1317 C 121.819 5.77204 1.05128 0
M  V30 1318 C 124.171 6.27249 0.821056 0
M  V30 1319 C 122.835 6.64221 0.660795 0
M  V30 1320 H 122.105 0.592063 0.445582 0
M  V30 1321 H 124.752 1.84503 0.512927 0
M  V30 1322 H 123.057 2.46556 3.04496 0
M  V30 1323 H 124.754 2.81055 2.86023 0
M  V30 1324 H 121.344 3.85341 1.87644 0
M  V30 1325 H 125.528 4.74257 1.46267 0
M  V30 1326 H 120.784 6.0452 0.91462 0
M  V30 1327 H 124.958 6.94537 0.509018 0
M  V30 1328 H 122.585 7.59854 0.229226 0
M  V30 1329 N 124.16 -0.719506 1.40217 0
M  V30 1330 C 125.385 -1.51371 1.4178 0
M  V30 1331 C 125.81 -1.88091 0.0182355 0
M  V30 1332 O 125.168 -1.52997 -0.972707 0
M  V30 1333 C 125.216 -2.768 2.31115 0
M  V30 1334 O 124.32 -3.73349 1.7517 0
M  V30 1335 H 123.661 -0.456529 0.482159 0
M  V30 1336 H 126.191 -0.88644 1.844 0
M  V30 1337 H 126.201 -3.25371 2.46167 0
M  V30 1338 H 124.876 -2.49407 3.3282 0
M  V30 1339 H 123.453 -3.32179 1.69444 0
M  V30 1340 N 125.638 -1.25649 -0.95132 0
M  V30 1341 C 126.585 -1.06323 -2.04851 0
M  V30 1342 C 127.555 0.0286491 -1.66075 0
M  V30 1343 O 128.74 -0.12917 -1.90362 0
M  V30 1344 C 125.88 -0.691529 -3.381 0
M  V30 1345 C 124.993 -1.85861 -3.89974 0
M  V30 1346 C 124.128 -1.43096 -5.11563 0
M  V30 1347 C 123.167 -2.56696 -5.55674 0
M  V30 1348 N 122.304 -2.14684 -6.68472 0
M  V30 1349 H 127.144 -2.00222 -2.20715 0
M  V30 1350 H 124.681 -0.997027 -1.08156 0
M  V30 1351 H 126.639 -0.456963 -4.1469 0
M  V30 1352 H 125.269 0.210474 -3.22113 0
M  V30 1353 H 124.321 -2.20639 -3.09875 0
M  V30 1354 H 125.633 -2.71161 -4.18657 0
M  V30 1355 H 124.787 -1.15624 -5.9558 0
M  V30 1356 H 123.526 -0.548722 -4.84603 0
M  V30 1357 H 122.531 -2.84909 -4.7022 0
M  V30 1358 H 123.756 -3.45503 -5.8464 0
M  V30 1359 H 121.702 -1.28881 -6.43215 0
M  V30 1360 H 121.619 -2.9353 -6.96689 0
M  V30 1361 H 122.887 -1.90397 -7.5589 0
M  V30 1362 N 127.117 1.15442 -1.07289 0
M  V30 1363 C 128.363 1.86489 -0.796846 0
M  V30 1364 C 128.696 1.82078 0.675371 0
M  V30 1365 O 127.971 1.24346 1.4956 0
M  V30 1366 C 128.254 3.35626 -1.30489 0
M  V30 1367 C 128.107 3.48673 -2.84161 0
M  V30 1368 C 129.426 4.30357 -0.920907 0
M  V30 1369 H 126.545 0.677144 -0.290939 0
M  V30 1370 H 129.187 1.35633 -1.33056 0
M  V30 1371 H 127.337 3.79068 -0.850883 0
M  V30 1372 H 129.009 3.14099 -3.37846 0
M  V30 1373 H 127.252 2.90253 -3.22391 0
M  V30 1374 H 127.923 4.53453 -3.14777 0
M  V30 1375 H 130.399 3.94871 -1.3121 0
M  V30 1376 H 129.275 5.33193 -1.30372 0
M  V30 1377 H 129.536 4.4176 0.173226 0
M  V30 1378 N 128.595 0.856903 1.32268 0
M  V30 1379 C 129.505 0.306131 2.32594 0
M  V30 1380 C 130.521 -0.577209 1.64147 0
M  V30 1381 O 131.697 -0.477043 1.95669 0
M  V30 1382 C 128.762 -0.494561 3.43154 0
M  V30 1383 C 127.823 0.415186 4.27288 0
M  V30 1384 C 127.056 -0.347387 5.32568 0
M  V30 1385 O 127.279 -1.57708 5.48165 0
M  V30 1386 O 126.213 0.287982 6.01211 0
M  V30 1387 H 130.039 1.13737 2.81598 0
M  V30 1388 H 127.624 0.619902 1.35932 0
M  V30 1389 H 129.506 -0.948944 4.10576 0
M  V30 1390 H 128.181 -1.30257 2.96336 0
M  V30 1391 H 127.088 0.917793 3.62667 0
M  V30 1392 H 128.421 1.18844 4.77637 0
M  V30 1393 N 130.073 -1.45103 0.615059 0
M  V30 1394 C 131.35 -1.95549 0.0448276 0
M  V30 1395 C 131.73 -1.55737 -1.4251 0
M  V30 1396 O 131.078 -0.823556 -2.13143 0
M  V30 1397 C 131.288 -3.48098 0.250785 0
M  V30 1398 C 132.636 -4.24384 0.135509 0
M  V30 1399 O 133.66 -3.55738 0.181299 0
M  V30 1400 O 132.519 -5.46493 0.0268878 0
M  V30 1401 H 129.613 -0.8264 -0.0314845 0
M  V30 1402 H 132.159 -1.55232 0.685642 0
M  V30 1403 H 130.931 -3.7007 1.27139 0
M  V30 1404 H 130.554 -3.95323 -0.424937 0
M  V30 1405 N 131.551 -0.354651 -1.53558 0
M  V30 1406 C 132.484 0.540273 -2.21712 0
M  V30 1407 C 133.462 1.09161 -1.2051 0
M  V30 1408 O 134.646 1.14979 -1.49372 0
M  V30 1409 C 131.773 1.74435 -2.90328 0
M  V30 1410 C 130.819 1.32146 -4.05512 0
M  V30 1411 S 131.652 0.331924 -5.3447 0
M  V30 1412 C 132.808 1.54258 -6.06593 0
M  V30 1413 H 133.041 -0.0385776 -2.97275 0
M  V30 1414 H 130.574 -0.138736 -1.53775 0
M  V30 1415 H 132.532 2.43507 -3.30476 0
M  V30 1416 H 131.193 2.29444 -2.1451 0
M  V30 1417 H 130.386 2.21952 -4.52497 0
M  V30 1418 H 129.988 0.710091 -3.67197 0
M  V30 1419 H 132.28 2.47534 -6.30661 0
M  V30 1420 H 133.223 1.11431 -6.99277 0
M  V30 1421 H 133.631 1.74367 -5.36895 0
M  V30 1422 N 133.029 1.57378 -0.0835403 0
M  V30 1423 C 133.992 2.12252 0.864959 0
M  V30 1424 C 134.992 1.04916 1.21858 0
M  V30 1425 O 136.182 1.30853 1.14991 0
M  V30 1426 C 133.314 2.63358 2.16461 0
M  V30 1427 H 134.507 2.97371 0.388676 0
M  V30 1428 H 132.06 1.55423 0.165317 0
M  V30 1429 H 132.795 1.81727 2.686 0
M  V30 1430 H 132.58 3.41826 1.92087 0
M  V30 1431 H 134.07 3.05847 2.84337 0
M  V30 1432 N 134.507 -0.190092 1.56449 0
M  V30 1433 C 135.417 -1.25591 1.98152 0
M  V30 1434 C 136.433 -1.49519 0.889944 0
M  V30 1435 O 137.609 -1.62036 1.19609 0
M  V30 1436 C 134.674 -2.57916 2.3169 0
M  V30 1437 C 133.735 -2.42015 3.5458 0
M  V30 1438 C 132.968 -3.6803 3.8651 0
M  V30 1439 O 133.191 -4.72413 3.1966 0
M  V30 1440 O 132.125 -3.6326 4.79923 0
M  V30 1441 H 135.951 -0.931988 2.89046 0
M  V30 1442 H 133.536 -0.395488 1.4407 0
M  V30 1443 H 135.418 -3.36008 2.54316 0
M  V30 1444 H 134.093 -2.89925 1.43963 0
M  V30 1445 H 133 -1.62017 3.37196 0
M  V30 1446 H 134.333 -2.14937 4.4279 0
M  V30 1447 N 135.985 -1.50799 -0.457987 0
M  V30 1448 C 136.915 -1.73553 -1.5621 0
M  V30 1449 C 137.896 -0.584774 -1.59732 0
M  V30 1450 O 139.081 -0.825314 -1.7579 0
M  V30 1451 C 136.211 -1.84169 -2.94447 0
M  V30 1452 C 135.165 -2.99461 -3.0579 0
M  V30 1453 C 134.491 -2.95235 -4.45803 0
M  V30 1454 C 135.791 -4.39766 -2.81786 0
M  V30 1455 H 137.485 -2.66 -1.37421 0
M  V30 1456 H 135.031 -1.28002 -0.659662 0
M  V30 1457 H 136.984 -1.98672 -3.71628 0
M  V30 1458 H 135.708 -0.883545 -3.14422 0
M  V30 1459 H 134.367 -2.8463 -2.31044 0
M  V30 1460 H 134.015 -1.97239 -4.62715 0
M  V30 1461 H 133.715 -3.72642 -4.54326 0
M  V30 1462 H 135.239 -3.11803 -5.24987 0
M  V30 1463 H 136.653 -4.55054 -3.4871 0
M  V30 1464 H 135.05 -5.18722 -3.0174 0
M  V30 1465 H 136.12 -4.51229 -1.7754 0
M  V30 1466 N 137.463 0.71206 -1.40597 0
M  V30 1467 C 138.691 1.50111 -1.42388 0
M  V30 1468 C 139.106 1.88784 -0.0245395 0
M  V30 1469 O 138.463 1.55681 0.952351 0
M  V30 1470 C 138.514 2.7742 -2.31776 0
M  V30 1471 O 138.235 2.40382 -3.66262 0
M  V30 1472 C 139.736 3.7129 -2.42196 0
M  V30 1473 H 136.956 0.46314 -0.485533 0
M  V30 1474 H 139.5 0.878068 -1.8469 0
M  V30 1475 H 137.655 3.36001 -1.92827 0
M  V30 1476 H 138.069 3.22324 -4.13772 0
M  V30 1477 H 139.543 4.57448 -3.08943 0
M  V30 1478 H 140.02 4.14641 -1.44809 0
M  V30 1479 H 140.626 3.18619 -2.81712 0
M  V30 1480 N 138.941 1.26152 0.944643 0
M  V30 1481 C 140.181 1.12708 1.70517 0
M  V30 1482 C 140.545 -0.324727 1.89234 0
M  V30 1483 O 141.746 -0.581211 2.62441 0
M  V30 1484 C 140.017 1.8713 3.04495 0
M  V30 1485 S 141.576 1.89698 3.95677 0
M  V30 1486 H 138.394 0.402665 0.585988 0
M  V30 1487 H 140.996 1.59821 1.12594 0
M  V30 1488 H 139.7 2.91833 2.88551 0
M  V30 1489 H 139.231 1.40444 3.67477 0
M  V30 1490 H 141.246 0.981198 4.86402 0
M  V30 1491 N 140.419 -1.14872 1.07899 0
M  V30 1492 C 141.349 -2.2193 0.725887 0
M  V30 1493 C 142.33 -1.67622 -0.28927 0
M  V30 1494 O 143.515 -1.93533 -0.160787 0
M  V30 1495 C 140.645 -3.47061 0.128856 0
M  V30 1496 C 139.599 -4.14363 1.07178 0
M  V30 1497 C 138.925 -5.33636 0.337229 0
M  V30 1498 C 140.225 -4.63492 2.40775 0
M  V30 1499 H 141.919 -2.51724 1.62097 0
M  V30 1500 H 139.465 -1.20991 0.780838 0
M  V30 1501 H 141.418 -4.21199 -0.130147 0
M  V30 1502 H 140.142 -3.16617 -0.80134 0
M  V30 1503 H 138.801 -3.42173 1.3158 0
M  V30 1504 H 138.449 -4.99449 -0.596606 0
M  V30 1505 H 138.149 -5.79609 0.965788 0
M  V30 1506 H 139.673 -6.10539 0.0861567 0
M  V30 1507 H 141.087 -5.2913 2.20669 0
M  V30 1508 H 139.484 -5.20148 2.99276 0
M  V30 1509 H 140.554 -3.78834 3.02676 0
M  V30 1510 N 141.898 -0.863906 -1.31812 0
M  V30 1511 C 142.846 -0.30422 -2.30602 0
M  V30 1512 C 143.84 0.577419 -1.59255 0
M  V30 1513 O 145.046 0.464194 -1.73912 0
M  V30 1514 H 141.421 -0.0796877 -0.747766 0
M  V30 1515 H 143.392 -1.15148 -2.75288 0
M  V30 1516 C 142.141 0.484617 -3.44306 0
M  V30 1517 H 141.464 -0.18451 -3.99374 0
M  V30 1518 H 142.904 0.841664 -4.15562 0
M  V30 1519 C 141.363 1.6735 -2.92396 0
M  V30 1520 O 141.893 2.77273 -2.90659 0
M  V30 1521 N 140.099 1.50362 -2.48676 0
M  V30 1522 H 139.646 0.609402 -2.50288 0
M  V30 1523 H 139.604 2.30051 -2.14299 0
M  V30 1524 N 143.376 1.44774 -0.622745 0
M  V30 1525 C 144.286 2.34433 0.0886031 0
M  V30 1526 C 145.302 1.52131 0.844529 0
M  V30 1527 O 146.478 1.84886 0.798691 0
M  V30 1528 C 143.543 3.29986 1.0635 0
M  V30 1529 C 142.604 4.28195 0.307873 0
M  V30 1530 C 141.837 5.19183 1.23633 0
M  V30 1531 O 142.06 5.13918 2.47476 0
M  V30 1532 O 140.994 5.97515 0.725189 0
M  V30 1533 H 144.82 2.96693 -0.648599 0
M  V30 1534 H 142.405 1.44408 -0.382957 0
M  V30 1535 H 144.287 3.88825 1.6246 0
M  V30 1536 H 142.962 2.70269 1.78146 0
M  V30 1537 H 141.869 3.72927 -0.296064 0
M  V30 1538 H 143.202 4.90808 -0.3699 0
M  V30 1539 N 144.854 0.36279 1.53368 0
M  V30 1540 C 145.817 -0.472679 2.24273 0
M  V30 1541 C 146.817 -1.012 1.24961 0
M  V30 1542 O 148.007 -0.898194 1.49259 0
M  V30 1543 C 145.139 -1.66039 2.97731 0
M  V30 1544 H 146.332 0.14773 2.99536 0
M  V30 1545 H 143.885 0.114434 1.55881 0
M  V30 1546 H 144.62 -2.31896 2.26704 0
M  V30 1547 H 144.405 -1.28066 3.70596 0
M  V30 1548 H 145.895 -2.25252 3.51641 0
M  V30 1549 N 146.332 -1.57332 0.0918853 0
M  V30 1550 C 147.557 -1.98995 -0.584442 0
M  V30 1551 C 147.982 -0.970528 -1.61128 0
M  V30 1552 O 147.34 0.0613904 -1.81196 0
M  V30 1553 C 147.388 -3.39636 -1.21161 0
M  V30 1554 O 146.492 -3.40447 -2.32744 0
M  V30 1555 H 145.833 -0.647165 -0.148572 0
M  V30 1556 H 148.363 -2.03873 0.172347 0
M  V30 1557 H 148.373 -3.7726 -1.55367 0
M  V30 1558 H 147.048 -4.13356 -0.459313 0
M  V30 1559 H 145.625 -3.14614 -2.0018 0
M  V30 1560 N 147.81 0.181792 -1.56548 0
M  V30 1561 C 149.056 0.901431 -1.81665 0
M  V30 1562 C 149.389 1.82347 -0.668075 0
M  V30 1563 O 148.664 1.91669 0.330615 0
M  V30 1564 C 148.947 1.70618 -3.17115 0
M  V30 1565 C 148.8 0.807964 -4.42484 0
M  V30 1566 C 150.119 2.67605 -3.49393 0
M  V30 1567 H 147.238 0.32627 -0.660846 0
M  V30 1568 H 149.88 0.168134 -1.89255 0
M  V30 1569 H 148.03 2.33133 -3.10775 0
M  V30 1570 H 149.702 0.19649 -4.60881 0
M  V30 1571 H 147.945 0.115411 -4.33646 0
M  V30 1572 H 148.616 1.40632 -5.33785 0
M  V30 1573 H 151.092 2.15218 -3.56118 0
M  V30 1574 H 149.968 3.20985 -4.45264 0
M  V30 1575 H 150.229 3.47298 -2.73563 0
M  V30 1576 N 149.288 1.51039 0.449983 0
M  V30 1577 C 150.218 1.74379 1.55288 0
M  V30 1578 C 151.199 0.593236 1.5942 0
M  V30 1579 O 152.384 0.834625 1.7535 0
M  V30 1580 C 149.514 1.85728 2.93466 0
M  V30 1581 C 148.468 3.01078 3.04197 0
M  V30 1582 C 147.794 2.97595 4.44231 0
M  V30 1583 C 149.094 4.41254 2.7945 0
M  V30 1584 H 150.788 2.66725 1.36008 0
M  V30 1585 H 148.334 1.2835 0.652864 0
M  V30 1586 H 150.287 2.0064 3.70569 0
M  V30 1587 H 149.011 0.900207 3.13949 0
M  V30 1588 H 147.67 2.85851 2.29531 0
M  V30 1589 H 147.318 1.99691 4.61663 0
M  V30 1590 H 147.018 3.75046 4.52343 0
M  V30 1591 H 148.542 3.14583 5.23326 0
M  V30 1592 H 149.956 4.56897 3.46292 0
M  V30 1593 H 148.353 5.20315 2.98985 0
M  V30 1594 H 149.423 4.52164 1.75144 0
M  V30 1595 N 150.766 -0.704594 1.40972 0
M  V30 1596 C 151.716 -1.81051 1.38581 0
M  V30 1597 C 152.7 -1.58759 0.261585 0
M  V30 1598 O 153.892 -1.69745 0.501556 0
M  V30 1599 C 151.021 -3.19279 1.26157 0
M  V30 1600 C 150.107 -3.47296 2.43405 0
M  V30 1601 N 150.498 -3.46064 3.68881 0
M  V30 1602 C 148.796 -3.77804 2.37023 0
M  V30 1603 C 149.497 -3.72733 4.46592 0
M  V30 1604 N 148.473 -3.9203 3.76581 0
M  V30 1605 H 152.275 -1.78448 2.33525 0
M  V30 1606 H 149.789 -0.904198 1.349 0
M  V30 1607 H 151.786 -3.98488 1.22526 0
M  V30 1608 H 150.446 -3.231 0.321902 0
M  V30 1609 H 151.457 -3.26656 4.01891 0
M  V30 1610 H 148.134 -3.8905 1.51481 0
M  V30 1611 H 149.524 -3.77993 5.55492 0
M  V30 1612 N 152.244 -1.26651 -0.937939 0
M  V30 1613 C 153.192 -1.08308 -2.05845 0
M  V30 1614 C 154.186 -0.0090757 -1.69398 0
M  V30 1615 O 155.392 -0.166007 -1.79233 0
M  V30 1616 H 151.767 -0.333416 -0.674046 0
M  V30 1617 H 153.738 -2.03261 -2.18467 0
M  V30 1618 C 152.487 -0.736229 -3.39816 0
M  V30 1619 H 151.81 -1.55453 -3.6834 0
M  V30 1620 H 153.25 -0.64769 -4.19024 0
M  V30 1621 C 151.709 0.558824 -3.32233 0
M  V30 1622 O 152.239 1.59621 -3.68624 0
M  V30 1623 N 150.445 0.550657 -2.85335 0
M  V30 1624 H 149.992 -0.293943 -2.55917 0
M  V30 1625 H 149.95 1.41726 -2.80644 0
M  V30 1626 N 153.722 1.14298 -1.08507 0
M  V30 1627 C 154.652 2.21542 -0.737646 0
M  V30 1628 C 155.633 1.67773 0.280377 0
M  V30 1629 O 156.818 1.93616 0.150521 0
M  V30 1630 C 153.948 3.46988 -0.147259 0
M  V30 1631 C 152.902 4.13789 -1.09374 0
M  V30 1632 C 152.228 5.33449 -0.365524 0
M  V30 1633 C 153.528 4.62208 -2.4323 0
M  V30 1634 H 155.222 2.5086 -1.6343 0
M  V30 1635 H 152.768 1.20576 -0.787243 0
M  V30 1636 H 154.721 4.21262 0.107808 0
M  V30 1637 H 153.445 3.17037 0.784538 0
M  V30 1638 H 152.104 3.4147 -1.33393 0
M  V30 1639 H 151.752 4.99759 0.57011 0
M  V30 1640 H 151.452 5.79088 -0.996512 0
M  V30 1641 H 152.976 6.10485 -0.118534 0
M  V30 1642 H 154.39 5.27952 -2.23472 0
M  V30 1643 H 152.787 5.18553 -3.02031 0
M  V30 1644 H 153.857 3.77224 -3.04681 0
M  V30 1645 N 155.201 0.870884 1.31352 0
M  V30 1646 C 156.617 0.562932 1.49343 0
M  V30 1647 C 156.817 -0.902725 1.80148 0
M  V30 1648 O 155.873 -1.68484 1.88067 0
M  V30 1649 C 157.186 1.46393 2.62659 0
M  V30 1650 C 158.734 1.46607 2.76542 0
M  V30 1651 C 159.209 2.35266 3.92955 0
M  V30 1652 N 160.7 2.33151 4.00243 0
M  V30 1653 C 161.435 2.98471 4.89594 0
M  V30 1654 N 160.931 3.72964 5.8384 0
M  V30 1655 N 162.724 2.87775 4.82848 0
M  V30 1656 H 154.875 1.81923 1.09626 0
M  V30 1657 H 157.138 0.777934 0.541777 0
M  V30 1658 H 156.844 2.50689 2.46674 0
M  V30 1659 H 156.718 1.16314 3.58819 0
M  V30 1660 H 159.105 0.43069 2.9194 0
M  V30 1661 H 159.186 1.8071 1.81046 0
M  V30 1662 H 158.83 3.38881 3.78315 0
M  V30 1663 H 158.76 1.98487 4.87761 0
M  V30 1664 H 161.251 1.79006 3.32814 0
M  V30 1665 H 161.564 4.19932 6.4875 0
M  V30 1666 H 159.909 3.77073 5.83816 0
M  V30 1667 H 163.1 2.29116 4.08195 0
M  V30 1668 H 163.273 3.38961 5.52277 0
M  V30 1669 N 156.679 -1.44442 0.630414 0
M  V30 1670 C 157.589 -2.34476 -0.0761693 0
M  V30 1671 C 158.605 -1.52576 -0.836449 0
M  V30 1672 O 159.781 -1.85307 -0.788874 0
M  V30 1673 C 156.846 -3.30545 -1.04599 0
M  V30 1674 C 155.907 -4.28352 -0.28516 0
M  V30 1675 C 155.14 -5.19831 -1.20878 0
M  V30 1676 O 155.363 -5.15223 -2.44747 0
M  V30 1677 O 154.297 -5.97892 -0.693491 0
M  V30 1678 H 158.123 -2.96345 0.664324 0
M  V30 1679 H 155.708 -1.44203 0.39061 0
M  V30 1680 H 157.59 -3.89681 -1.60396 0
M  V30 1681 H 156.265 -2.7121 -1.76711 0
M  V30 1682 H 155.172 -3.72764 0.315837 0
M  V30 1683 H 156.505 -4.90605 0.395924 0
M  V30 1684 N 158.157 -0.370918 -1.53173 0
M  V30 1685 C 159.573 -0.0200818 -1.59587 0
M  V30 1686 C 159.773 1.46279 -1.38581 0
M  V30 1687 O 158.829 2.22506 -1.19363 0
M  V30 1688 C 160.142 -0.4808 -2.96831 0
M  V30 1689 C 161.69 -0.435477 -3.09956 0
M  V30 1690 C 162.165 -0.872092 -4.4962 0
M  V30 1691 N 163.656 -0.827364 -4.55751 0
M  V30 1692 C 164.391 -1.13683 -5.62018 0
M  V30 1693 N 163.887 -1.51584 -6.76014 0
M  V30 1694 N 165.68 -1.05927 -5.52029 0
M  V30 1695 H 157.831 -1.33652 -1.65079 0
M  V30 1696 H 160.094 -0.546634 -0.774529 0
M  V30 1697 H 159.8 -1.51577 -3.1736 0
M  V30 1698 H 159.674 0.129796 -3.76977 0
M  V30 1699 H 162.061 0.590371 -2.89134 0
M  V30 1700 H 162.142 -1.08164 -2.31806 0
M  V30 1701 H 161.786 -1.89608 -4.71181 0
M  V30 1702 H 161.716 -0.203127 -5.26208 0
M  V30 1703 H 164.207 -0.548216 -3.73902 0
M  V30 1704 H 164.52 -1.73609 -7.53047 0
M  V30 1705 H 162.865 -1.55454 -6.77391 0
M  V30 1706 H 166.056 -0.762321 -4.61851 0
M  V30 1707 H 166.229 -1.30378 -6.34749 0
M  V30 1708 N 159.635 1.57281 -0.100228 0
M  V30 1709 C 160.865 1.98591 0.569681 0
M  V30 1710 C 161.273 0.978315 1.61943 0
M  V30 1711 O 160.616 -0.0396108 1.83657 0
M  V30 1712 C 160.678 3.36282 1.271 0
M  V30 1713 C 160.342 4.55488 0.371409 0
M  V30 1714 C 161.339 5.18491 -0.382504 0
M  V30 1715 C 159.024 5.01474 0.287965 0
M  V30 1716 C 161.018 6.25852 -1.20779 0
M  V30 1717 C 158.705 6.08701 -0.540965 0
M  V30 1718 C 159.703 6.70755 -1.28749 0
M  V30 1719 O 159.391 7.75914 -2.10269 0
M  V30 1720 H 159.123 0.65752 0.156982 0
M  V30 1721 H 161.677 2.0463 -0.177734 0
M  V30 1722 H 159.907 3.26941 2.0651 0
M  V30 1723 H 161.596 3.62005 1.83595 0
M  V30 1724 H 162.362 4.83891 -0.3278 0
M  V30 1725 H 158.241 4.52932 0.858689 0
M  V30 1726 H 161.785 6.74218 -1.79096 0
M  V30 1727 H 157.682 6.42732 -0.597131 0
M  V30 1728 H 158.45 7.92925 -2.03007 0
M  V30 1729 N 161.113 -0.173488 1.56642 0
M  V30 1730 C 162.36 -0.890465 1.81871 0
M  V30 1731 C 162.688 -1.82339 0.67696 0
M  V30 1732 O 161.943 -1.92795 -0.335926 0
M  V30 1733 C 162.242 -1.72069 3.13252 0
M  V30 1734 C 161.908 -0.936878 4.41059 0
M  V30 1735 C 160.57 -0.720545 4.75775 0
M  V30 1736 C 162.922 -0.386919 5.19762 0
M  V30 1737 C 160.25 0.0568829 5.86672 0
M  V30 1738 C 162.602 0.37741 6.31473 0
M  V30 1739 C 161.266 0.604563 6.64757 0
M  V30 1740 H 160.536 -0.325844 0.665512 0
M  V30 1741 H 163.183 -0.155527 1.90867 0
M  V30 1742 H 161.488 -2.52496 2.99588 0
M  V30 1743 H 163.185 -2.27844 3.29982 0
M  V30 1744 H 159.775 -1.11553 4.13828 0
M  V30 1745 H 163.959 -0.541398 4.93338 0
M  V30 1746 H 159.215 0.242635 6.10918 0
M  V30 1747 H 163.389 0.810825 6.91664 0
M  V30 1748 H 161.016 1.20885 7.50527 0
M  V30 1749 N 162.591 -1.51276 -0.441967 0
M  V30 1750 C 163.816 -1.67799 -1.21895 0
M  V30 1751 C 164.241 -0.372864 -1.84367 0
M  V30 1752 O 163.599 0.666501 -1.68604 0
M  V30 1753 C 163.647 -2.79199 -2.28211 0
M  V30 1754 O 162.751 -2.42479 -3.33583 0
M  V30 1755 H 162.092 -0.559649 -0.357336 0
M  V30 1756 H 164.622 -1.97815 -0.522522 0
M  V30 1757 H 164.632 -3.03146 -2.73069 0
M  V30 1758 H 163.307 -3.73906 -1.82118 0
M  V30 1759 H 161.884 -2.29087 -2.94234 0
M  V30 1760 N 164.069 0.697108 -1.41344 0
M  V30 1761 C 165.317 1.45426 -1.40341 0
M  V30 1762 C 165.638 1.94996 -0.0128787 0
M  V30 1763 O 164.908 1.71599 0.945027 0
M  V30 1764 H 163.488 0.539594 -0.516573 0
M  V30 1765 H 166.15 0.825201 -1.76569 0
M  V30 1766 H 165.246 2.31817 -2.08967 0
M  V30 1767 N 165.547 1.27147 0.931209 0
M  V30 1768 C 166.477 1.12081 2.04842 0
M  V30 1769 C 167.458 0.0232364 1.70084 0
M  V30 1770 O 168.643 0.197085 1.93197 0
M  V30 1771 C 165.773 0.76354 3.38803 0
M  V30 1772 C 164.727 1.81396 3.87659 0
M  V30 1773 C 164.053 1.31075 5.18385 0
M  V30 1774 C 165.353 3.21739 4.11438 0
M  V30 1775 H 167.047 2.05537 2.17703 0
M  V30 1776 H 164.593 0.989603 1.04608 0
M  V30 1777 H 166.546 0.644982 4.16435 0
M  V30 1778 H 165.27 -0.206727 3.25945 0
M  V30 1779 H 163.929 1.92136 3.12217 0
M  V30 1780 H 163.577 0.330037 5.01916 0
M  V30 1781 H 163.277 2.013 5.52044 0
M  V30 1782 H 164.801 1.20506 5.98591 0
M  V30 1783 H 166.215 3.14019 4.79651 0
M  V30 1784 H 164.612 3.89644 4.56397 0
M  V30 1785 H 165.682 3.67054 3.16859 0
M  V30 1786 N 167.025 -1.13721 1.09112 0
M  V30 1787 C 168.274 -1.84275 0.82009 0
M  V30 1788 C 168.587 -1.84253 -0.656509 0
M  V30 1789 O 169.793 -2.50668 -1.04296 0
M  V30 1790 C 168.249 -3.30825 1.41714 0
M  V30 1791 C 167.857 -3.39244 2.92605 0
M  V30 1792 C 169.601 -4.06443 1.22492 0
M  V30 1793 C 167.508 -4.80047 3.45411 0
M  V30 1794 H 166.438 -0.690387 0.30312 0
M  V30 1795 H 169.089 -1.28146 1.31343 0
M  V30 1796 H 167.471 -3.86737 0.851498 0
M  V30 1797 H 168.645 -2.93344 3.55367 0
M  V30 1798 H 166.96 -2.77088 3.10823 0
M  V30 1799 H 169.557 -5.10387 1.59402 0
M  V30 1800 H 169.9 -4.15972 0.165299 0
M  V30 1801 H 170.433 -3.56852 1.75788 0
M  V30 1802 H 167.172 -4.75709 4.50978 0
M  V30 1803 H 166.692 -5.26455 2.87411 0
M  V30 1804 H 168.371 -5.48957 3.42425 0
M  V30 1805 N 168.503 -0.877838 -1.30888 0
M  V30 1806 C 169.733 -0.506678 -2.00291 0
M  V30 1807 C 170.141 0.907449 -1.66018 0
M  V30 1808 O 169.484 1.60719 -0.88967 0
M  V30 1809 C 169.546 -0.59323 -3.54572 0
M  V30 1810 C 169.21 -1.97038 -4.12341 0
M  V30 1811 C 170.207 -2.93889 -4.28865 0
M  V30 1812 C 167.892 -2.27383 -4.47886 0
M  V30 1813 C 169.886 -4.19224 -4.80136 0
M  V30 1814 C 167.573 -3.52965 -4.98857 0
M  V30 1815 C 168.571 -4.48701 -5.14934 0
M  V30 1816 O 168.259 -5.72056 -5.64808 0
M  V30 1817 H 167.991 -0.1951 -0.647234 0
M  V30 1818 H 170.545 -1.18301 -1.6791 0
M  V30 1819 H 168.775 0.140057 -3.86446 0
M  V30 1820 H 170.464 -0.234372 -4.05223 0
M  V30 1821 H 171.23 -2.71756 -4.01714 0
M  V30 1822 H 167.109 -1.53639 -4.34645 0
M  V30 1823 H 170.653 -4.93956 -4.92599 0
M  V30 1824 H 166.55 -3.74939 -5.25443 0
M  V30 1825 H 167.318 -5.74337 -5.83163 0
M  V30 1826 N 169.982 1.44106 -0.638065 0
M  V30 1827 C 171.21 2.06336 -0.152615 0
M  V30 1828 C 171.625 1.47731 1.17563 0
M  V30 1829 O 170.982 0.602806 1.72257 0
M  V30 1830 C 171.033 3.61479 -0.0391491 0
M  V30 1831 O 170.754 4.17903 -1.31487 0
M  V30 1832 C 172.255 4.40757 0.474176 0
M  V30 1833 H 169.475 0.665862 -0.0828776 0
M  V30 1834 H 172.019 1.84862 -0.87443 0
M  V30 1835 H 170.174 3.82191 0.633142 0
M  V30 1836 H 170.588 5.11416 -1.16421 0
M  V30 1837 H 172.062 5.49707 0.502562 0
M  V30 1838 H 172.539 4.12697 1.50258 0
M  V30 1839 H 173.145 4.24979 -0.165102 0
M  V30 1840 N 171.46 0.379036 1.52974 0
M  V30 1841 C 172.69 -0.20649 2.05566 0
M  V30 1842 C 173.098 -1.41906 1.25137 0
M  V30 1843 O 172.441 -1.81421 0.288464 0
M  V30 1844 C 172.503 -0.651086 3.53555 0
M  V30 1845 C 172.167 0.446626 4.54812 0
M  V30 1846 C 173.164 1.30079 5.03364 0
M  V30 1847 C 170.849 0.610719 4.98573 0
M  V30 1848 C 172.843 2.30426 5.94292 0
M  V30 1849 C 170.53 1.61754 5.89304 0
M  V30 1850 C 171.528 2.46274 6.37054 0
M  V30 1851 O 171.216 3.45237 7.25994 0
M  V30 1852 H 170.948 -0.0372381 0.674974 0
M  V30 1853 H 173.502 0.539718 1.98182 0
M  V30 1854 H 171.732 -1.44911 3.58522 0
M  V30 1855 H 173.421 -1.16112 3.88938 0
M  V30 1856 H 174.187 1.18527 4.70294 0
M  V30 1857 H 170.066 -0.0374044 4.60985 0
M  V30 1858 H 173.61 2.96432 6.31485 0
M  V30 1859 H 169.507 1.73348 6.21788 0
M  V30 1860 H 170.275 3.41124 7.44027 0
M  V30 1861 N 172.938 -1.57226 0.108567 0
M  V30 1862 C 174.163 -1.99604 -0.563303 0
M  V30 1863 C 174.588 -0.987563 -1.6009 0
M  V30 1864 O 173.946 0.0421687 -1.81251 0
M  V30 1865 C 173.994 -3.40902 -1.17552 0
M  V30 1866 O 173.098 -3.42896 -2.2912 0
M  V30 1867 H 172.439 -0.648704 -0.1417 0
M  V30 1868 H 174.969 -2.03679 0.193961 0
M  V30 1869 H 174.979 -3.78886 -1.51357 0
M  V30 1870 H 173.654 -4.1382 -0.415445 0
M  V30 1871 H 172.231 -3.1672 -1.96832 0
M  V30 1872 N 174.416 0.165178 -1.56732 0
M  V30 1873 C 175.664 0.879068 -1.8198 0
M  V30 1874 C 175.985 1.82514 -0.686561 0
M  V30 1875 O 175.255 1.93694 0.293146 0
M  V30 1876 H 173.835 0.327608 -0.671329 0
M  V30 1877 H 176.497 0.163526 -1.94213 0
M  V30 1878 H 175.593 1.45228 -2.76252 0
M  V30 1879 N 175.894 1.51508 0.433938 0
M  V30 1880 C 176.824 1.76016 1.53429 0
M  V30 1881 C 177.805 0.610112 1.58782 0
M  V30 1882 O 178.99 0.853177 1.74455 0
M  V30 1883 C 176.12 1.88831 2.9148 0
M  V30 1884 C 175.074 3.04288 3.00987 0
M  V30 1885 C 174.4 3.0229 4.4105 0
M  V30 1886 C 175.7 4.44193 2.74754 0
M  V30 1887 H 177.394 2.68152 1.33171 0
M  V30 1888 H 174.94 1.29035 0.639214 0
M  V30 1889 H 176.893 2.04559 3.6842 0
M  V30 1890 H 175.617 0.933455 3.12976 0
M  V30 1891 H 174.276 2.8827 2.26486 0
M  V30 1892 H 173.924 2.04576 4.59519 0
M  V30 1893 H 173.624 3.79822 4.4834 0
M  V30 1894 H 175.148 3.20116 5.1996 0
M  V30 1895 H 176.562 4.60544 3.41426 0
M  V30 1896 H 174.959 5.23457 2.9345 0
M  V30 1897 H 176.029 4.53996 1.70339 0
M  V30 1898 N 177.372 -0.689602 1.41712 0
M  V30 1899 C 178.619 -1.44966 1.4139 0
M  V30 1900 C 178.947 -1.94484 0.025105 0
M  V30 1901 O 178.202 -1.70307 -0.964048 0
M  V30 1902 C 178.501 -2.67298 2.37247 0
M  V30 1903 C 178.167 -2.36405 3.83958 0
M  V30 1904 C 176.829 -2.27691 4.23923 0
M  V30 1905 C 179.181 -2.11043 4.76561 0
M  V30 1906 C 176.509 -1.91719 5.54492 0
M  V30 1907 C 178.861 -1.76578 6.07456 0
M  V30 1908 C 177.525 -1.66363 6.46436 0
M  V30 1909 H 176.795 -0.53047 0.517381 0
M  V30 1910 H 179.442 -0.787655 1.74552 0
M  V30 1911 H 177.747 -3.38461 1.9736 0
M  V30 1912 H 179.444 -3.25452 2.34269 0
M  V30 1913 H 176.034 -2.44085 3.52308 0
M  V30 1914 H 180.218 -2.16717 4.46483 0
M  V30 1915 H 175.474 -1.82367 5.83568 0
M  V30 1916 H 179.648 -1.55974 6.78708 0
M  V30 1917 H 177.275 -1.38258 7.47522 0
M  V30 1918 N 178.85 -1.27639 -0.924453 0
M  V30 1919 C 180.09 -1.15407 -1.68703 0
M  V30 1920 C 180.454 0.294581 -1.89727 0
M  V30 1921 O 181.655 0.539385 -2.63333 0
M  V30 1922 C 179.926 -1.9195 -3.0148 0
M  V30 1923 S 181.485 -1.95969 -3.92609 0
M  V30 1924 H 178.303 -0.411937 -0.579507 0
M  V30 1925 H 180.905 -1.61592 -1.10038 0
M  V30 1926 H 179.609 -2.96387 -2.83871 0
M  V30 1927 H 179.14 -1.46272 -3.65196 0
M  V30 1928 H 181.155 -1.05846 -4.84779 0
M  V30 1929 N 180.328 1.1314 -1.09713 0
M  V30 1930 C 181.574 1.84757 -0.836224 0
M  V30 1931 C 181.907 1.8347 0.636598 0
M  V30 1932 O 181.182 1.27491 1.46889 0
M  V30 1933 C 181.465 3.32782 -1.37578 0
M  V30 1934 C 181.318 3.42567 -2.91493 0
M  V30 1935 C 182.637 4.28307 -1.01198 0
M  V30 1936 H 179.756 0.67082 -0.305236 0
M  V30 1937 H 182.398 1.3278 -1.35903 0
M  V30 1938 H 180.548 3.77177 -0.931097 0
M  V30 1939 H 182.22 3.06862 -3.44432 0
M  V30 1940 H 180.463 2.83349 -3.28475 0
M  V30 1941 H 181.134 4.46674 -3.24324 0
M  V30 1942 H 183.61 3.91999 -1.39556 0
M  V30 1943 H 182.486 5.30307 -1.41653 0
M  V30 1944 H 182.747 4.42029 0.0794833 0
M  V30 1945 N 181.806 0.884767 1.30421 0
M  V30 1946 C 183.052 0.503851 1.96441 0
M  V30 1947 C 183.385 -0.944518 1.69684 0
M  V30 1948 O 182.66 -1.66737 1.00145 0
M  V30 1949 C 182.943 0.779085 3.51571 0
M  V30 1950 C 182.796 2.27807 3.87846 0
M  V30 1951 C 184.115 0.255452 4.39358 0
M  V30 1952 H 181.234 0.184533 0.713524 0
M  V30 1953 H 183.876 1.10872 1.54297 0
M  V30 1954 H 182.026 0.264274 3.876 0
M  V30 1955 H 183.698 2.86127 3.61841 0
M  V30 1956 H 181.941 2.74479 3.35922 0
M  V30 1957 H 182.612 2.42125 4.96064 0
M  V30 1958 H 185.088 0.696079 4.10236 0
M  V30 1959 H 183.964 0.477361 5.4682 0
M  V30 1960 H 184.225 -0.843293 4.33983 0
M  V30 1961 N 183.284 -1.43765 0.645699 0
M  V30 1962 C 184.53 -2.02197 0.156271 0
M  V30 1963 C 184.863 -1.50776 -1.22393 0
M  V30 1964 O 184.138 -0.697771 -1.81553 0
M  V30 1965 C 184.421 -3.59749 0.158872 0
M  V30 1966 C 184.274 -4.21419 1.57245 0
M  V30 1967 C 185.593 -4.37149 -0.50879 0
M  V30 1968 H 182.712 -0.734694 0.0582602 0
M  V30 1969 H 185.354 -1.71157 0.824951 0
M  V30 1970 H 183.504 -3.86325 -0.410525 0
M  V30 1971 H 185.176 -4.059 2.19186 0
M  V30 1972 H 183.419 -3.78356 2.122 0
M  V30 1973 H 184.09 -5.30482 1.52619 0
M  V30 1974 H 186.566 -4.16093 -0.024412 0
M  V30 1975 H 185.442 -5.4683 -0.476213 0
M  V30 1976 H 185.703 -4.12839 -1.58165 0
M  V30 1977 N 184.763 -0.387143 -1.52771 0
M  V30 1978 C 185.711 0.463953 -2.27926 0
M  V30 1979 C 186.705 1.06493 -1.31741 0
M  V30 1980 O 187.911 1.00565 -1.49287 0
M  V30 1981 H 184.286 0.16837 -0.732909 0
M  V30 1982 H 186.257 -0.19141 -2.97785 0
M  V30 1983 C 185.006 1.5803 -3.09713 0
M  V30 1984 H 184.329 1.12718 -3.83581 0
M  V30 1985 H 185.769 2.15008 -3.65442 0
M  V30 1986 C 184.228 2.53509 -2.2189 0
M  V30 1987 O 184.758 3.56863 -1.84422 0
M  V30 1988 N 182.964 2.23199 -1.86093 0
M  V30 1989 H 182.511 1.39185 -2.16761 0
M  V30 1990 H 182.469 2.87333 -1.27621 0
M  V30 1991 N 186.241 1.57166 -0.116904 0
M  V30 1992 C 187.652 1.82169 0.408809 0
M  V30 1993 C 188.003 1.03393 1.66746 0
M  V30 1994 O 187.128 0.269886 2.1471 0
M  V30 1995 C 187.723 3.30429 0.748466 0
M  V30 1996 C 186.282 3.5612 1.21882 0
M  V30 1997 C 185.429 2.76374 0.226452 0
M  V30 1998 H 188.38 1.5497 -0.342063 0
M  V30 1999 H 188.401 3.44943 1.60607 0
M  V30 2000 H 187.913 3.87737 -0.167784 0
M  V30 2001 H 186.014 3.04168 2.15204 0
M  V30 2002 H 186.127 4.64705 1.16559 0
M  V30 2003 H 184.491 2.44515 0.713063 0
M  V30 2004 H 185.274 3.3644 -0.682859 0
M  V30 2005 N 187.719 -0.156864 1.56817 0
M  V30 2006 C 188.949 -0.885031 1.86684 0
M  V30 2007 C 189.357 -1.75696 0.701954 0
M  V30 2008 O 188.7 -1.80569 -0.337732 0
M  V30 2009 C 188.762 -1.80092 3.11138 0
M  V30 2010 C 188.426 -1.10714 4.43386 0
M  V30 2011 C 189.423 -0.465714 5.1781 0
M  V30 2012 C 187.108 -1.09959 4.90117 0
M  V30 2013 C 189.102 0.174002 6.37162 0
M  V30 2014 C 186.789 -0.456055 6.09396 0
M  V30 2015 C 187.787 0.179622 6.82764 0
M  V30 2016 O 187.475 0.812975 7.99779 0
M  V30 2017 H 187.207 -0.261813 0.623242 0
M  V30 2018 H 189.761 -0.157383 2.04796 0
M  V30 2019 H 187.991 -2.56926 2.89009 0
M  V30 2020 H 189.68 -2.40018 3.27332 0
M  V30 2021 H 190.446 -0.463427 4.82781 0
M  V30 2022 H 186.325 -1.58378 4.3294 0
M  V30 2023 H 189.869 0.670765 6.94368 0
M  V30 2024 H 185.766 -0.455975 6.43888 0
M  V30 2025 H 186.534 0.71366 8.15383 0
M  V30 2026 N 189.197 -1.51736 -0.425897 0
M  V30 2027 C 190.144 -1.73875 -1.51776 0
M  V30 2028 C 191.114 -0.580702 -1.55618 0
M  V30 2029 O 192.299 -0.81641 -1.72451 0
M  V30 2030 C 189.439 -1.88012 -2.89388 0
M  V30 2031 C 188.552 -3.15606 -2.94986 0
M  V30 2032 C 187.687 -3.20271 -4.23793 0
M  V30 2033 C 186.726 -4.42134 -4.23302 0
M  V30 2034 N 185.863 -4.44284 -5.43651 0
M  V30 2035 H 190.703 -2.67071 -1.32201 0
M  V30 2036 H 188.24 -1.32351 -0.642008 0
M  V30 2037 H 190.198 -1.9419 -3.69251 0
M  V30 2038 H 188.828 -0.98213 -3.07496 0
M  V30 2039 H 187.88 -3.18681 -2.07717 0
M  V30 2040 H 189.192 -4.05486 -2.90486 0
M  V30 2041 H 188.346 -3.25428 -5.12036 0
M  V30 2042 H 187.085 -2.28299 -4.30965 0
M  V30 2043 H 186.09 -4.3714 -3.3345 0
M  V30 2044 H 187.315 -5.35382 -4.17783 0
M  V30 2045 H 185.261 -3.55188 -5.51523 0
M  V30 2046 H 185.178 -5.27988 -5.41078 0
M  V30 2047 H 186.446 -4.53649 -6.33895 0
M  V30 2048 N 190.675 0.682077 -1.42076 0
M  V30 2049 C 191.625 1.78823 -1.41444 0
M  V30 2050 C 192.609 1.58323 -0.28681 0
M  V30 2051 O 193.801 1.68926 -0.528498 0
M  V30 2052 C 190.93 3.17232 -1.3122 0
M  V30 2053 C 190.016 3.4338 -2.489 0
M  V30 2054 N 190.407 3.40152 -3.7434 0
M  V30 2055 C 188.705 3.73986 -2.43003 0
M  V30 2056 C 189.406 3.65581 -4.52466 0
M  V30 2057 N 188.382 3.85989 -3.8277 0
M  V30 2058 H 192.184 1.7471 -2.36334 0
M  V30 2059 H 189.698 0.882622 -1.36321 0
M  V30 2060 H 191.695 3.96489 -1.2885 0
M  V30 2061 H 190.355 3.22547 -0.373263 0
M  V30 2062 H 191.366 3.20221 -4.07037 0
M  V30 2063 H 188.043 3.86591 -1.57651 0
M  V30 2064 H 189.433 3.69108 -5.61435 0
M  V30 2065 N 192.153 1.28127 0.917671 0
M  V30 2066 C 193.083 1.14248 2.03641 0
M  V30 2067 C 194.064 0.0412748 1.7005 0
M  V30 2068 O 195.249 0.217566 1.92977 0
M  V30 2069 C 192.379 0.799431 3.37974 0
M  V30 2070 C 191.333 1.85497 3.85713 0
M  V30 2071 C 190.659 1.36565 5.16966 0
M  V30 2072 C 191.959 3.26085 4.08002 0
M  V30 2073 H 193.653 2.07835 2.15511 0
M  V30 2074 H 191.199 1.00064 1.03553 0
M  V30 2075 H 193.152 0.689114 4.15727 0
M  V30 2076 H 191.876 -0.172145 3.26146 0
M  V30 2077 H 190.535 1.95437 3.10161 0
M  V30 2078 H 190.183 0.383253 5.01538 0
M  V30 2079 H 189.883 2.07143 5.49878 0
M  V30 2080 H 191.407 1.26848 5.97279 0
M  V30 2081 H 192.821 3.19089 4.76293 0
M  V30 2082 H 191.218 3.94462 4.52238 0
M  V30 2083 H 192.288 3.70394 3.12948 0
M  V30 2084 N 193.631 -1.12557 1.10312 0
M  V30 2085 C 195.042 -1.65574 0.862678 0
M  V30 2086 C 195.393 -1.86566 -0.607256 0
M  V30 2087 O 194.518 -1.59121 -1.46662 0
M  V30 2088 C 195.113 -3.00776 1.55947 0
M  V30 2089 C 193.672 -3.50748 1.36576 0
M  V30 2090 C 192.819 -2.25797 1.60968 0
M  V30 2091 H 195.77 -0.963552 1.26101 0
M  V30 2092 H 195.791 -3.67185 0.997753 0
M  V30 2093 H 195.303 -2.85465 2.62928 0
M  V30 2094 H 193.404 -3.71245 0.317531 0
M  V30 2095 H 193.517 -4.30289 2.10686 0
M  V30 2096 H 191.881 -2.32841 1.03234 0
M  V30 2097 H 192.664 -2.13043 2.69198 0
M  V30 2098 N 195.109 -0.891671 -1.2995 0
M  V30 2099 C 196.358 -0.509521 -1.95158 0
M  V30 2100 C 196.671 0.947388 -1.71125 0
M  V30 2101 O 197.877 1.43669 -2.30372 0
M  V30 2102 C 196.333 -0.860315 -3.49466 0
M  V30 2103 C 195.941 -2.33545 -3.8231 0
M  V30 2104 C 197.685 -0.547687 -4.20952 0
M  V30 2105 C 195.592 -2.62752 -5.29826 0
M  V30 2106 H 194.522 -0.18682 -0.730489 0
M  V30 2107 H 197.173 -1.08756 -1.47798 0
M  V30 2108 H 195.555 -0.211285 -3.95436 0
M  V30 2109 H 196.729 -3.02936 -3.47227 0
M  V30 2110 H 195.044 -2.61629 -3.23944 0
M  V30 2111 H 197.641 -0.742854 -5.29515 0
M  V30 2112 H 197.984 0.51332 -4.13123 0
M  V30 2113 H 198.517 -1.1542 -3.80688 0
M  V30 2114 H 195.256 -3.6762 -5.42712 0
M  V30 2115 H 194.776 -1.97977 -5.66185 0
M  V30 2116 H 196.455 -2.48601 -5.97333 0
M  V30 2117 N 196.587 1.43421 -0.653314 0
M  V30 2118 C 197.817 2.05864 -0.174238 0
M  V30 2119 C 198.225 1.49052 1.16534 0
M  V30 2120 O 197.568 0.616481 1.73047 0
M  V30 2121 C 197.63 3.59499 -0.00875873 0
M  V30 2122 C 197.294 4.38893 -1.27364 0
M  V30 2123 C 198.291 4.70947 -2.20239 0
M  V30 2124 C 195.976 4.789 -1.51525 0
M  V30 2125 C 197.97 5.41916 -3.35568 0
M  V30 2126 C 195.657 5.49614 -2.67147 0
M  V30 2127 C 196.655 5.81044 -3.58994 0
M  V30 2128 O 196.343 6.50313 -4.72597 0
M  V30 2129 H 196.075 0.670345 -0.0872549 0
M  V30 2130 H 198.629 1.84913 -0.894226 0
M  V30 2131 H 196.859 3.79025 0.7666 0
M  V30 2132 H 198.548 4.0364 0.427687 0
M  V30 2133 H 199.314 4.40558 -2.02815 0
M  V30 2134 H 195.193 4.53843 -0.809158 0
M  V30 2135 H 198.737 5.66365 -4.07279 0
M  V30 2136 H 194.634 5.79419 -2.84505 0
M  V30 2137 H 195.402 6.68795 -4.71864 0
M  V30 2138 N 198.065 0.39524 1.52563 0
M  V30 2139 C 199.29 -0.187456 2.06551 0
M  V30 2140 C 199.715 -1.39249 1.26457 0
M  V30 2141 O 199.073 -1.78947 0.291151 0
M  V30 2142 C 199.121 -0.529985 3.56684 0
M  V30 2143 O 198.225 -1.62307 3.79118 0
M  V30 2144 H 197.566 -0.0202537 0.663691 0
M  V30 2145 H 200.096 0.564426 1.96661 0
M  V30 2146 H 200.106 -0.792598 4.00227 0
M  V30 2147 H 198.781 0.350987 4.14416 0
M  V30 2148 H 197.358 -1.3537 3.47461 0
M  V30 2149 N 199.544 -1.57102 0.125237 0
M  V30 2150 C 200.454 -2.19191 -0.8362 0
M  V30 2151 C 201.47 -1.16985 -1.28805 0
M  V30 2152 O 202.646 -1.49479 -1.34974 0
M  V30 2153 C 199.711 -2.78407 -2.06617 0
M  V30 2154 C 198.772 -3.9567 -1.66565 0
M  V30 2155 C 198.005 -4.52052 -2.83698 0
M  V30 2156 O 198.228 -4.07326 -3.99302 0
M  V30 2157 O 197.162 -5.42645 -2.60423 0
M  V30 2158 H 200.988 -3.01816 -0.337776 0
M  V30 2159 H 198.573 -1.4906 -0.100695 0
M  V30 2160 H 200.455 -3.16129 -2.7864 0
M  V30 2161 H 199.13 -1.9881 -2.55453 0
M  V30 2162 H 198.037 -3.62705 -0.916296 0
M  V30 2163 H 199.37 -4.76722 -1.22464 0
M  V30 2164 N 201.022 0.148545 -1.56898 0
M  V30 2165 C 201.969 1.18345 -1.98149 0
M  V30 2166 C 202.939 1.42772 -0.848848 0
M  V30 2167 O 204.124 1.55132 -1.11079 0
M  V30 2168 C 201.264 2.51231 -2.36594 0
M  V30 2169 C 200.377 2.33991 -3.63142 0
M  V30 2170 C 199.512 3.59902 -3.90697 0
M  V30 2171 C 198.551 3.37692 -5.1052 0
M  V30 2172 N 197.688 4.5573 -5.34092 0
M  V30 2173 H 202.528 0.82467 -2.86362 0
M  V30 2174 H 200.065 0.395756 -1.41676 0
M  V30 2175 H 202.023 3.28713 -2.56912 0
M  V30 2176 H 200.653 2.85059 -1.51463 0
M  V30 2177 H 199.705 1.47572 -3.50609 0
M  V30 2178 H 201.017 2.13539 -4.5078 0
M  V30 2179 H 200.171 4.45813 -4.11505 0
M  V30 2180 H 198.91 3.83357 -3.01477 0
M  V30 2181 H 197.915 2.5017 -4.89587 0
M  V30 2182 H 199.14 3.15637 -6.0129 0
M  V30 2183 H 197.086 4.79361 -4.47827 0
M  V30 2184 H 197.003 4.38274 -6.15996 0
M  V30 2185 H 198.271 5.42858 -5.59397 0
M  V30 2186 N 202.5 1.5196 0.417844 0
M  V30 2187 C 203.749 1.6482 1.16264 0
M  V30 2188 C 204.062 0.379886 1.91876 0
M  V30 2189 O 205.268 0.388154 2.68711 0
M  V30 2190 C 203.724 2.91161 2.1155 0
M  V30 2191 C 203.332 4.25068 1.41495 0
M  V30 2192 C 205.076 3.13383 2.86341 0
M  V30 2193 C 202.983 5.42541 2.35379 0
M  V30 2194 H 201.913 0.613954 0.437694 0
M  V30 2195 H 204.564 1.78442 0.427871 0
M  V30 2196 H 202.946 2.71218 2.88543 0
M  V30 2197 H 204.12 4.55463 0.699263 0
M  V30 2198 H 202.435 4.0888 0.787792 0
M  V30 2199 H 205.032 3.98324 3.5671 0
M  V30 2200 H 205.375 2.27256 3.48798 0
M  V30 2201 H 205.908 3.33757 2.1645 0
M  V30 2202 H 202.647 6.30987 1.77582 0
M  V30 2203 H 202.167 5.16497 3.04945 0
M  V30 2204 H 203.846 5.75272 2.96093 0
M  V30 2205 N 203.978 -0.674533 1.42435 0
M  V30 2206 C 205.224 -1.43671 1.43131 0
M  V30 2207 C 205.557 -1.94142 0.0476021 0
M  V30 2208 O 204.832 -1.70924 -0.928188 0
M  V30 2209 C 205.115 -2.63355 2.45594 0
M  V30 2210 C 204.968 -2.18514 3.93156 0
M  V30 2211 C 206.287 -3.65571 2.45043 0
M  V30 2212 H 203.406 -0.521077 0.521198 0
M  V30 2213 H 206.048 -0.766551 1.7385 0
M  V30 2214 H 204.198 -3.2053 2.19528 0
M  V30 2215 H 205.87 -1.66504 4.30202 0
M  V30 2216 H 204.113 -1.50086 4.07009 0
M  V30 2217 H 204.784 -3.04484 4.60428 0
M  V30 2218 H 207.26 -3.18113 2.68223 0
M  V30 2219 H 206.136 -4.46893 3.18713 0
M  V30 2220 H 206.397 -4.16716 1.47649 0
M  V30 2221 N 205.456 -1.28612 -0.910864 0
M  V30 2222 C 206.733 -1.06632 -1.63979 0
M  V30 2223 C 207.113 0.393351 -2.07403 0
M  V30 2224 O 206.461 1.37999 -1.82122 0
M  V30 2225 C 206.671 -2.0436 -2.8291 0
M  V30 2226 C 208.019 -2.34666 -3.5386 0
M  V30 2227 O 209.043 -2.02467 -2.93062 0
M  V30 2228 O 207.902 -2.89631 -4.63439 0
M  V30 2229 H 204.996 -0.407737 -0.7195 0
M  V30 2230 H 207.542 -1.39942 -0.959914 0
M  V30 2231 H 206.314 -3.02727 -2.47936 0
M  V30 2232 H 205.937 -1.71714 -3.58609 0
M  V30 2233 N 206.934 1.1197 -1.10907 0
M  V30 2234 C 207.867 2.16998 -0.706192 0
M  V30 2235 C 208.845 1.59903 0.294897 0
M  V30 2236 O 210.029 1.87513 0.192636 0
M  V30 2237 C 207.156 3.38673 -0.0427664 0
M  V30 2238 C 206.202 4.14414 -1.00811 0
M  V30 2239 S 207.035 4.72079 -2.52789 0
M  V30 2240 C 208.191 5.97083 -1.87731 0
M  V30 2241 H 208.424 2.50837 -1.59587 0
M  V30 2242 H 205.957 1.23508 -0.926555 0
M  V30 2243 H 207.915 4.09142 0.333668 0
M  V30 2244 H 206.576 3.03105 0.823788 0
M  V30 2245 H 205.769 5.016 -0.491259 0
M  V30 2246 H 205.371 3.49678 -1.3267 0
M  V30 2247 H 207.663 6.66599 -1.21044 0
M  V30 2248 H 208.606 6.53403 -2.72892 0
M  V30 2249 H 209.014 5.4837 -1.33979 0
M  V30 2250 N 208.412 0.89855 1.29475 0
M  V30 2251 C 209.642 0.538479 1.99459 0
M  V30 2252 C 210.05 -0.880922 1.67441 0
M  V30 2253 O 209.393 -1.59283 0.915127 0
M  V30 2254 C 209.455 0.649564 3.53583 0
M  V30 2255 C 209.119 2.03573 4.09154 0
M  V30 2256 C 210.116 3.00675 4.24135 0
M  V30 2257 C 207.801 2.3448 4.44212 0
M  V30 2258 C 209.795 4.26809 4.73405 0
M  V30 2259 C 207.482 3.60857 4.93179 0
M  V30 2260 C 208.48 4.56836 5.0773 0
M  V30 2261 O 208.168 5.80969 5.55635 0
M  V30 2262 H 207.9 0.205372 0.644048 0
M  V30 2263 H 210.454 1.20958 1.66007 0
M  V30 2264 H 208.684 -0.0785592 3.8662 0
M  V30 2265 H 210.373 0.29881 4.04799 0
M  V30 2266 H 211.139 2.78112 3.97339 0
M  V30 2267 H 207.018 1.60534 4.32145 0
M  V30 2268 H 210.562 5.0173 4.84678 0
M  V30 2269 H 206.459 3.83251 5.19412 0
M  V30 2270 H 207.227 5.83542 5.73952 0
M  V30 2271 N 209.89 -1.43072 0.660911 0
M  V30 2272 C 210.837 -2.30785 -0.0259884 0
M  V30 2273 C 211.807 -1.45184 -0.806888 0
M  V30 2274 O 212.992 -1.74041 -0.781943 0
M  V30 2275 C 210.132 -3.30861 -0.981067 0
M  V30 2276 C 209.245 -4.31558 -0.195458 0
M  V30 2277 C 208.38 -5.18712 -1.14503 0
M  V30 2278 C 207.419 -6.11097 -0.350299 0
M  V30 2279 N 206.556 -6.90849 -1.25186 0
M  V30 2280 H 211.396 -2.88975 0.727846 0
M  V30 2281 H 208.933 -1.42353 0.370682 0
M  V30 2282 H 210.891 -3.87399 -1.54849 0
M  V30 2283 H 209.521 -2.74304 -1.70169 0
M  V30 2284 H 208.573 -3.77252 0.488374 0
M  V30 2285 H 209.885 -4.9701 0.422176 0
M  V30 2286 H 209.039 -5.79914 -1.78284 0
M  V30 2287 H 207.778 -4.53404 -1.79656 0
M  V30 2288 H 206.783 -5.48976 0.300808 0
M  V30 2289 H 208.008 -6.7845 0.296941 0
M  V30 2290 H 205.954 -6.28182 -1.89005 0
M  V30 2291 H 205.871 -7.52854 -0.688971 0
M  V30 2292 H 207.139 -7.5655 -1.87757 0
M  V30 2293 N 211.368 -0.403325 -1.52352 0
M  V30 2294 C 212.616 0.174003 -2.0135 0
M  V30 2295 C 212.937 1.46139 -1.29106 0
M  V30 2296 O 212.207 1.91448 -0.415253 0
M  V30 2297 H 210.787 0.0672911 -0.743963 0
M  V30 2298 H 213.449 -0.538235 -1.87321 0
M  V30 2299 H 212.545 0.374254 -3.09848 0
M  V30 2300 N 212.846 1.57033 -0.133567 0
M  V30 2301 C 213.793 2.16074 0.811208 0
M  V30 2302 C 214.763 1.08979 1.2535 0
M  V30 2303 O 215.948 1.36958 1.32843 0
M  V30 2304 C 213.088 2.77595 2.05024 0
M  V30 2305 C 212.201 3.99042 1.65498 0
M  V30 2306 C 211.336 4.48603 2.84479 0
M  V30 2307 C 210.375 5.62547 2.41262 0
M  V30 2308 N 209.512 6.06787 3.53206 0
M  V30 2309 H 214.352 2.96477 0.300906 0
M  V30 2310 H 211.889 1.46462 0.136822 0
M  V30 2311 H 213.847 3.11402 2.77642 0
M  V30 2312 H 212.477 1.99859 2.53488 0
M  V30 2313 H 211.529 3.71302 0.826981 0
M  V30 2314 H 212.841 4.81629 1.29748 0
M  V30 2315 H 211.995 4.84395 3.65303 0
M  V30 2316 H 210.734 3.64995 3.23465 0
M  V30 2317 H 209.739 5.26345 1.58874 0
M  V30 2318 H 210.964 6.47931 2.03377 0
M  V30 2319 H 208.91 5.26117 3.91838 0
M  V30 2320 H 208.827 6.84266 3.21427 0
M  V30 2321 H 210.095 6.4722 4.34427 0
M  V30 2322 N 214.325 -0.140222 1.56975 0
M  V30 2323 C 215.272 -1.17292 1.98774 0
M  V30 2324 C 216.242 -1.4232 0.856408 0
M  V30 2325 O 217.427 -1.54541 1.119 0
M  V30 2326 C 214.567 -2.49973 2.37923 0
M  V30 2327 C 213.68 -2.32062 3.64378 0
M  V30 2328 C 212.815 -3.57825 3.926 0
M  V30 2329 C 211.854 -3.3498 5.12303 0
M  V30 2330 N 210.991 -4.52891 5.36502 0
M  V30 2331 H 215.831 -0.809472 2.86795 0
M  V30 2332 H 213.368 -0.388237 1.41884 0
M  V30 2333 H 215.326 -3.27346 2.58652 0
M  V30 2334 H 213.956 -2.84252 1.52972 0
M  V30 2335 H 213.008 -1.45711 3.51387 0
M  V30 2336 H 214.32 -2.11145 4.51906 0
M  V30 2337 H 213.474 -4.43624 4.13863 0
M  V30 2338 H 212.213 -3.81753 3.03506 0
M  V30 2339 H 211.218 -2.4757 4.90906 0
M  V30 2340 H 212.443 -3.12444 6.02956 0
M  V30 2341 H 210.389 -4.76979 4.50363 0
M  V30 2342 H 210.306 -4.35001 6.18312 0
M  V30 2343 H 211.574 -5.39884 5.62268 0
M  V30 2344 N 215.803 -1.52179 -0.40978 0
M  V30 2345 C 217.219 -1.40968 -0.74835 0
M  V30 2346 C 217.419 -0.513657 -1.94843 0
M  V30 2347 O 216.475 0.0208026 -2.52491 0
M  V30 2348 C 217.788 -2.83483 -1.0029 0
M  V30 2349 C 219.336 -2.92821 -1.10565 0
M  V30 2350 C 219.811 -4.36303 -1.39296 0
M  V30 2351 N 221.302 -4.39535 -1.46162 0
M  V30 2352 C 222.037 -5.47614 -1.70018 0
M  V30 2353 N 221.533 -6.65812 -1.91483 0
M  V30 2354 N 223.326 -5.35129 -1.72027 0
M  V30 2355 H 215.477 -2.0897 0.380186 0
M  V30 2356 H 217.74 -0.94185 0.107805 0
M  V30 2357 H 217.446 -3.51168 -0.193461 0
M  V30 2358 H 217.32 -3.24487 -1.92323 0
M  V30 2359 H 219.707 -2.25318 -1.90568 0
M  V30 2360 H 219.788 -2.55276 -0.16369 0
M  V30 2361 H 219.432 -5.04366 -0.598109 0
M  V30 2362 H 219.362 -4.71385 -2.34743 0
M  V30 2363 H 221.853 -3.54332 -1.31367 0
M  V30 2364 H 222.166 -7.43964 -2.09134 0
M  V30 2365 H 220.511 -6.68879 -1.88749 0
M  V30 2366 H 223.702 -4.41764 -1.54796 0
M  V30 2367 H 223.875 -6.19433 -1.9028 0
M  V30 2368 N 217.281 0.66697 -1.42791 0
M  V30 2369 C 218.231 1.77313 -1.43332 0
M  V30 2370 C 219.215 1.5801 -0.303586 0
M  V30 2371 O 220.407 1.68356 -0.546385 0
M  V30 2372 C 217.536 3.15822 -1.34578 0
M  V30 2373 C 216.622 3.40721 -2.52528 0
M  V30 2374 N 217.013 3.36162 -3.77927 0
M  V30 2375 C 215.311 3.71387 -2.46956 0
M  V30 2376 C 216.012 3.60762 -4.56318 0
M  V30 2377 N 214.988 3.81908 -3.86843 0
M  V30 2378 H 218.79 1.72193 -2.38174 0
M  V30 2379 H 216.304 0.868114 -1.3725 0
M  V30 2380 H 218.301 3.951 -1.33048 0
M  V30 2381 H 216.961 3.22133 -0.407453 0
M  V30 2382 H 217.972 3.15885 -4.10411 0
M  V30 2383 H 214.649 3.84897 -1.61743 0
M  V30 2384 H 216.039 3.63132 -5.65318 0
M  V30 2385 N 218.759 1.29093 0.90403 0
M  V30 2386 C 219.669 1.15727 2.0407 0
M  V30 2387 C 220.685 0.0815308 1.73809 0
M  V30 2388 O 221.861 0.292749 1.99261 0
M  V30 2389 C 218.926 0.830424 3.36608 0
M  V30 2390 C 217.987 1.98955 3.80415 0
M  V30 2391 C 217.22 1.6782 5.06628 0
M  V30 2392 O 217.443 0.597105 5.67266 0
M  V30 2393 O 216.377 2.52486 5.46383 0
M  V30 2394 H 220.203 2.11171 2.18267 0
M  V30 2395 H 217.788 1.08504 1.027 0
M  V30 2396 H 219.67 0.662521 4.16159 0
M  V30 2397 H 218.345 -0.0942678 3.23563 0
M  V30 2398 H 217.252 2.21267 3.01648 0
M  V30 2399 H 218.585 2.89529 3.98037 0
M  V30 2400 N 220.237 -1.11381 1.11499 0
M  V30 2401 C 221.17 -2.16621 0.71769 0
M  V30 2402 C 222.148 -1.60058 -0.286413 0
M  V30 2403 O 223.332 -1.87613 -0.182689 0
M  V30 2404 C 220.459 -3.38646 0.0607265 0
M  V30 2405 C 219.505 -4.13874 1.03008 0
M  V30 2406 S 220.338 -4.70731 2.55289 0
M  V30 2407 C 221.494 -5.96079 1.90895 0
M  V30 2408 H 221.727 -2.49987 1.60915 0
M  V30 2409 H 219.26 -1.23015 0.933092 0
M  V30 2410 H 221.218 -4.09313 -0.311965 0
M  V30 2411 H 219.879 -3.03537 -0.807702 0
M  V30 2412 H 219.072 -5.01333 0.517853 0
M  V30 2413 H 218.674 -3.4897 1.34522 0
M  V30 2414 H 220.966 -6.65948 1.24577 0
M  V30 2415 H 221.909 -6.51946 2.76354 0
M  V30 2416 H 222.317 -5.47652 1.36885 0
M  V30 2417 N 221.715 -0.905404 -1.28997 0
M  V30 2418 C 223.126 -0.581953 -1.77398 0
M  V30 2419 C 223.477 0.902552 -1.74208 0
M  V30 2420 O 222.602 1.70584 -1.33154 0
M  V30 2421 C 223.197 -1.04961 -3.22131 0
M  V30 2422 C 221.756 -0.777229 -3.68288 0
M  V30 2423 C 220.903 -1.22109 -2.48967 0
M  V30 2424 H 223.854 -1.08754 -1.15578 0
M  V30 2425 H 223.875 -0.387387 -3.78523 0
M  V30 2426 H 223.387 -2.13008 -3.24421 0
M  V30 2427 H 221.488 0.290383 -3.71467 0
M  V30 2428 H 221.601 -1.37911 -4.58822 0
M  V30 2429 H 219.965 -0.639971 -2.46529 0
M  V30 2430 H 220.748 -2.30972 -2.53982 0
M  V30 2431 N 223.193 1.4272 -0.668489 0
M  V30 2432 C 224.604 1.84793 -0.266151 0
M  V30 2433 C 224.955 1.55959 1.19043 0
M  V30 2434 O 224.08 1.01622 1.91055 0
M  V30 2435 C 224.675 3.35436 -0.476271 0
M  V30 2436 C 223.234 3.76182 -0.128113 0
M  V30 2437 C 222.381 2.66344 -0.771777 0
M  V30 2438 H 225.332 1.32656 -0.871098 0
M  V30 2439 H 225.353 3.79515 0.273561 0
M  V30 2440 H 224.865 3.5639 -1.53647 0
M  V30 2441 H 222.966 3.60836 0.928891 0
M  V30 2442 H 223.079 4.75766 -0.564231 0
M  V30 2443 H 221.443 2.53885 -0.203652 0
M  V30 2444 H 222.226 2.90123 -1.83531 0
M  V30 2445 N 224.671 0.411399 1.52136 0
M  V30 2446 C 225.621 -0.430376 2.23901 0
M  V30 2447 C 226.605 -1.0116 1.25121 0
M  V30 2448 O 227.797 -0.934044 1.50348 0
M  V30 2449 C 224.926 -1.54527 3.06556 0
M  V30 2450 C 224.012 -0.9747 4.12747 0
M  V30 2451 N 224.403 -0.130991 5.0563 0
M  V30 2452 C 222.701 -1.24497 4.28271 0
M  V30 2453 C 223.402 0.186689 5.814 0
M  V30 2454 N 222.378 -0.42304 5.41951 0
M  V30 2455 H 226.18 0.220509 2.93072 0
M  V30 2456 H 223.694 0.221952 1.60876 0
M  V30 2457 H 225.691 -2.16093 3.56524 0
M  V30 2458 H 224.351 -2.19875 2.38925 0
M  V30 2459 H 225.362 0.23349 5.17373 0
M  V30 2460 H 222.039 -1.89787 3.7187 0
M  V30 2461 H 223.429 0.871673 6.66222 0
M  V30 2462 N 226.149 -1.5696 0.141893 0
M  V30 2463 C 227.398 -1.95135 -0.510427 0
M  V30 2464 C 227.711 -1.02896 -1.66348 0
M  V30 2465 O 228.917 -1.30629 -2.38009 0
M  V30 2466 C 227.373 -3.46876 -0.959427 0
M  V30 2467 C 226.981 -4.47691 0.166419 0
M  V30 2468 C 228.725 -3.93927 -1.58183 0
M  V30 2469 C 226.632 -5.90636 -0.300565 0
M  V30 2470 H 225.562 -0.728494 -0.194454 0
M  V30 2471 H 228.213 -1.8211 0.22542 0
M  V30 2472 H 226.595 -3.55215 -1.75038 0
M  V30 2473 H 227.769 -4.51043 0.94325 0
M  V30 2474 H 226.084 -4.10527 0.696905 0
M  V30 2475 H 228.681 -4.98158 -1.94275 0
M  V30 2476 H 229.024 -3.3519 -2.46888 0
M  V30 2477 H 229.557 -3.88484 -0.855863 0
M  V30 2478 H 226.296 -6.5318 0.550989 0
M  V30 2479 H 225.816 -5.90655 -1.04338 0
M  V30 2480 H 227.495 -6.42588 -0.754265 0
M  V30 2481 N 227.627 0.131896 -1.57047 0
M  V30 2482 C 228.857 0.855219 -1.88068 0
M  V30 2483 C 229.265 1.74557 -0.729817 0
M  V30 2484 O 228.608 1.81083 0.308962 0
M  V30 2485 C 228.67 1.75119 -3.13964 0
M  V30 2486 C 228.334 1.03646 -4.45091 0
M  V30 2487 C 229.331 0.383276 -5.18485 0
M  V30 2488 C 227.016 1.02148 -4.91804 0
M  V30 2489 C 229.01 -0.275347 -6.36805 0
M  V30 2490 C 226.697 0.359047 -6.10044 0
M  V30 2491 C 227.695 -0.288222 -6.82392 0
M  V30 2492 O 227.383 -0.94011 -7.98384 0
M  V30 2493 H 227.115 0.251864 -0.627328 0
M  V30 2494 H 229.669 0.124782 -2.05021 0
M  V30 2495 H 227.899 2.52295 -2.9306 0
M  V30 2496 H 229.588 2.3478 -3.31109 0
M  V30 2497 H 230.354 0.386562 -4.83457 0
M  V30 2498 H 226.233 1.5147 -4.35405 0
M  V30 2499 H 229.777 -0.781148 -6.93213 0
M  V30 2500 H 225.674 0.35348 -6.44531 0
M  V30 2501 H 226.442 -0.84329 -8.14144 0
M  V30 2502 N 229.106 1.52395 0.401703 0
M  V30 2503 C 230.069 1.75636 1.47257 0
M  V30 2504 C 231.069 0.62628 1.48103 0
M  V30 2505 O 232.259 0.894227 1.49497 0
M  V30 2506 C 229.391 1.84553 2.86624 0
M  V30 2507 H 230.584 2.71241 1.27938 0
M  V30 2508 H 228.137 1.42923 0.632662 0
M  V30 2509 H 228.872 0.908882 3.11303 0
M  V30 2510 H 228.657 2.66715 2.87412 0
M  V30 2511 H 230.147 2.04251 3.64241 0
M  V30 2512 N 230.584 -0.659388 1.43143 0
M  V30 2513 C 231.833 -1.41518 1.43721 0
M  V30 2514 C 232.146 -1.95499 0.0628176 0
M  V30 2515 O 233.352 -2.71446 -0.0539683 0
M  V30 2516 C 231.808 -2.5608 2.52885 0
M  V30 2517 C 231.416 -2.08733 3.96402 0
M  V30 2518 C 233.16 -3.3349 2.62649 0
M  V30 2519 C 231.067 -3.20469 4.97045 0
M  V30 2520 H 229.997 -0.531705 0.534608 0
M  V30 2521 H 232.648 -0.712343 1.69109 0
M  V30 2522 H 231.03 -3.28805 2.20688 0
M  V30 2523 H 232.204 -1.43059 4.3803 0
M  V30 2524 H 230.519 -1.44219 3.90627 0
M  V30 2525 H 233.116 -4.16734 3.35017 0
M  V30 2526 H 233.459 -3.8111 1.67513 0
M  V30 2527 H 233.992 -2.67842 2.94118 0
M  V30 2528 H 230.731 -2.77824 5.93712 0
M  V30 2529 H 230.251 -3.84874 4.60034 0
M  V30 2530 H 231.93 -3.85698 5.19467 0
M  V30 2531 N 232.062 -1.29571 -0.897171 0
M  V30 2532 C 233.025 -1.14913 -1.98312 0
M  V30 2533 C 234.025 -0.0838629 -1.60581 0
M  V30 2534 O 235.215 -0.331006 -1.71026 0
M  V30 2535 C 232.347 -0.757835 -3.3237 0
M  V30 2536 H 233.54 -2.11377 -2.12743 0
M  V30 2537 H 231.093 -1.12793 -1.08201 0
M  V30 2538 H 231.828 0.206837 -3.2364 0
M  V30 2539 H 231.613 -1.52755 -3.61121 0
M  V30 2540 H 233.103 -0.678408 -4.12053 0
M  V30 2541 N 233.54 1.10788 -1.12088 0
M  V30 2542 C 234.817 1.79136 -0.785476 0
M  V30 2543 C 235.197 1.98246 0.725377 0
M  V30 2544 O 234.545 1.57258 1.65778 0
M  V30 2545 C 234.755 3.12375 -1.55636 0
M  V30 2546 C 236.103 3.8731 -1.74001 0
M  V30 2547 O 237.127 3.22085 -1.52117 0
M  V30 2548 O 235.986 5.04369 -2.10415 0
M  V30 2549 H 233.08 0.776226 -0.285311 0
M  V30 2550 H 235.626 1.1747 -1.2247 0
M  V30 2551 H 234.398 2.93863 -2.5838 0
M  V30 2552 H 234.021 3.81758 -1.11114 0
M  V30 2553 N 235.018 0.912232 1.28515 0
M  V30 2554 C 236.246 0.560416 1.99166 0
M  V30 2555 C 236.661 -0.857927 1.68182 0
M  V30 2556 O 236.018 -1.56805 0.933733 0
M  V30 2557 C 236.069 0.758142 3.53461 0
M  V30 2558 O 235.79 2.12067 3.83352 0
M  V30 2559 C 237.291 0.412954 4.41372 0
M  V30 2560 H 234.511 0.213805 0.636026 0
M  V30 2561 H 237.055 1.22502 1.63749 0
M  V30 2562 H 235.21 0.140556 3.87145 0
M  V30 2563 H 235.624 2.15923 4.77993 0
M  V30 2564 H 237.098 0.60208 5.48707 0
M  V30 2565 H 237.575 -0.65073 4.34353 0
M  V30 2566 H 238.181 1.00802 4.13182 0
M  V30 2567 N 236.496 -1.42363 0.676048 0
M  V30 2568 C 237.459 -2.29199 0.00766941 0
M  V30 2569 C 238.459 -1.43389 -0.727745 0
M  V30 2570 O 239.649 -1.64764 -0.56556 0
M  V30 2571 C 236.781 -3.2591 -0.999785 0
M  V30 2572 H 237.974 -2.89794 0.771988 0
M  V30 2573 H 235.527 -1.50024 0.438468 0
M  V30 2574 H 236.262 -2.70256 -1.79255 0
M  V30 2575 H 236.047 -3.89202 -0.475829 0
M  V30 2576 H 237.537 -3.91028 -1.46583 0
M  V30 2577 N 237.974 -0.419461 -1.51915 0
M  V30 2578 C 239.204 0.151915 -2.06041 0
M  V30 2579 C 239.612 1.38539 -1.28855 0
M  V30 2580 O 238.955 1.80592 -0.336463 0
M  V30 2581 C 239.017 0.557119 -3.55157 0
M  V30 2582 C 238.681 -0.567054 -4.53468 0
M  V30 2583 C 239.678 -1.43379 -4.99738 0
M  V30 2584 C 237.363 -0.742693 -4.96779 0
M  V30 2585 C 239.357 -2.46102 -5.87973 0
M  V30 2586 C 237.044 -1.77322 -5.84808 0
M  V30 2587 C 238.042 -2.63078 -6.30301 0
M  V30 2588 O 237.73 -3.64364 -7.16585 0
M  V30 2589 H 237.462 0.0193293 -0.675724 0
M  V30 2590 H 240.016 -0.592073 -1.96682 0
M  V30 2591 H 238.246 1.35355 -3.62238 0
M  V30 2592 H 239.935 1.05759 -3.9188 0
M  V30 2593 H 240.701 -1.30954 -4.66986 0
M  V30 2594 H 236.58 -0.0848307 -4.60922 0
M  V30 2595 H 240.124 -3.13071 -6.23404 0
M  V30 2596 H 236.021 -1.89773 -6.16974 0
M  V30 2597 H 236.789 -3.60731 -7.34721 0
M  V30 2598 N 239.452 1.56882 -0.150215 0
M  V30 2599 C 240.868 1.58263 0.20617 0
M  V30 2600 C 241.068 1.16464 1.64434 0
M  V30 2601 O 240.124 0.866422 2.3717 0
M  V30 2602 C 241.437 3.00649 -0.0555025 0
M  V30 2603 C 242.985 3.12999 0.00795388 0
M  V30 2604 C 243.46 4.5744 -0.226429 0
M  V30 2605 N 244.951 4.62875 -0.173469 0
M  V30 2606 C 245.686 5.72454 -0.329288 0
M  V30 2607 N 245.182 6.90669 -0.543005 0
M  V30 2608 N 246.975 5.61467 -0.266666 0
M  V30 2609 H 239.126 1.82345 -1.08922 0
M  V30 2610 H 241.389 0.844149 -0.431413 0
M  V30 2611 H 241.095 3.3563 -1.05096 0
M  V30 2612 H 240.969 3.71337 0.66246 0
M  V30 2613 H 243.356 2.77857 0.993966 0
M  V30 2614 H 243.437 2.4479 -0.742388 0
M  V30 2615 H 243.081 4.93287 -1.20956 0
M  V30 2616 H 243.011 5.2378 0.544274 0
M  V30 2617 H 245.502 3.77898 -0.0130709 0
M  V30 2618 H 245.815 7.70045 -0.651922 0
M  V30 2619 H 244.16 6.92581 -0.579366 0
M  V30 2620 H 247.351 4.67992 -0.100441 0
M  V30 2621 H 247.524 6.46816 -0.391535 0
M  V30 2622 N 240.93 -0.123565 1.57115 0
M  V30 2623 C 242.155 -0.850398 1.89164 0
M  V30 2624 C 242.58 -1.7286 0.741688 0
M  V30 2625 O 241.938 -1.78665 -0.307958 0
M  V30 2626 C 241.986 -1.66353 3.19936 0
M  V30 2627 O 241.09 -2.77004 3.0552 0
M  V30 2628 H 240.431 -0.235454 0.620852 0
M  V30 2629 H 242.961 -0.107335 2.04318 0
M  V30 2630 H 242.971 -2.05372 3.52543 0
M  V30 2631 H 241.646 -1.01881 4.03228 0
M  V30 2632 H 240.223 -2.41221 2.84371 0
M  V30 2633 N 242.408 -1.52605 -0.393616 0
M  V30 2634 C 243.341 -1.71798 -1.50202 0
M  V30 2635 C 244.319 -0.565743 -1.52441 0
M  V30 2636 O 245.503 -0.794987 -1.70916 0
M  V30 2637 C 242.63 -1.7714 -2.88685 0
M  V30 2638 C 241.676 -2.98845 -3.04292 0
M  V30 2639 S 242.509 -4.58909 -2.75976 0
M  V30 2640 C 243.665 -4.6706 -4.1666 0
M  V30 2641 H 243.898 -2.65542 -1.33696 0
M  V30 2642 H 241.431 -1.42839 -0.586195 0
M  V30 2643 H 243.389 -1.80903 -3.68489 0
M  V30 2644 H 242.05 -0.844969 -3.02521 0
M  V30 2645 H 241.243 -2.99111 -4.05646 0
M  V30 2646 H 240.845 -2.9305 -2.32374 0
M  V30 2647 H 243.137 -4.45391 -5.10523 0
M  V30 2648 H 244.08 -5.6905 -4.21412 0
M  V30 2649 H 244.488 -3.95944 -4.02354 0
M  V30 2650 N 243.887 0.651787 -1.4349 0
M  V30 2651 C 244.817 1.77621 -1.51569 0
M  V30 2652 C 245.798 1.66022 -0.370253 0
M  V30 2653 O 246.983 1.85095 -0.587658 0
M  V30 2654 C 244.113 3.16056 -1.43966 0
M  V30 2655 C 243.067 3.4242 -2.56774 0
M  V30 2656 C 242.393 4.8067 -2.34223 0
M  V30 2657 C 243.693 3.37023 -3.99015 0
M  V30 2658 H 245.387 1.71117 -2.45681 0
M  V30 2659 H 242.933 0.821825 -1.18246 0
M  V30 2660 H 244.886 3.94472 -1.48221 0
M  V30 2661 H 243.61 3.23293 -0.463586 0
M  V30 2662 H 242.269 2.66375 -2.51873 0
M  V30 2663 H 241.917 4.84585 -1.34856 0
M  V30 2664 H 241.617 4.9927 -3.09844 0
M  V30 2665 H 243.141 5.61342 -2.40265 0
M  V30 2666 H 244.555 4.05374 -4.05395 0
M  V30 2667 H 242.952 3.67159 -4.74673 0
M  V30 2668 H 244.022 2.3518 -4.2405 0
M  V30 2669 N 245.365 1.30045 0.890287 0
M  V30 2670 C 246.297 1.11786 2.00091 0
M  V30 2671 C 247.31 0.0626307 1.62679 0
M  V30 2672 O 248.499 0.308112 1.75821 0
M  V30 2673 C 245.599 0.681527 3.31977 0
M  V30 2674 C 244.772 1.81735 3.97858 0
M  V30 2675 C 243.831 1.37045 5.08041 0
M  V30 2676 O 242.857 2.07677 5.29961 0
M  V30 2677 N 244.059 0.246525 5.79976 0
M  V30 2678 H 246.824 2.07441 2.16306 0
M  V30 2679 H 244.385 1.2211 1.06305 0
M  V30 2680 H 246.377 0.365675 4.03045 0
M  V30 2681 H 244.947 -0.182828 3.12065 0
M  V30 2682 H 244.167 2.30159 3.20032 0
M  V30 2683 H 245.455 2.57865 4.38615 0
M  V30 2684 H 244.853 -0.34215 5.64664 0
M  V30 2685 H 243.41 -0.00990438 6.51799 0
M  V30 2686 N 246.843 -1.10192 1.12674 0
M  V30 2687 C 248.12 -1.78717 0.794965 0
M  V30 2688 C 248.5 -1.98628 -0.714853 0
M  V30 2689 O 247.848 -1.58135 -1.64941 0
M  V30 2690 C 248.058 -3.11546 1.5729 0
M  V30 2691 C 249.406 -3.86382 1.76052 0
M  V30 2692 O 250.43 -3.21274 1.53823 0
M  V30 2693 O 249.289 -5.03246 2.13087 0
M  V30 2694 H 246.383 -0.774702 0.289423 0
M  V30 2695 H 248.929 -1.16819 1.23091 0
M  V30 2696 H 247.701 -2.92489 2.59935 0
M  V30 2697 H 247.324 -3.81164 1.13137 0
M  V30 2698 N 248.321 -0.919034 -1.28029 0
M  V30 2699 C 249.737 -0.617972 -1.4715 0
M  V30 2700 C 249.937 0.835242 -1.83374 0
M  V30 2701 O 248.993 1.61388 -1.94191 0
M  V30 2702 C 250.306 -1.56041 -2.57044 0
M  V30 2703 C 251.854 -1.56769 -2.7091 0
M  V30 2704 C 252.329 -2.49688 -3.83953 0
M  V30 2705 N 253.82 -2.47845 -3.91314 0
M  V30 2706 C 254.555 -3.16437 -4.78179 0
M  V30 2707 N 254.051 -3.94376 -5.69596 0
M  V30 2708 N 255.844 -3.05498 -4.71834 0
M  V30 2709 H 247.995 -1.85866 -1.02798 0
M  V30 2710 H 250.258 -0.797506 -0.512531 0
M  V30 2711 H 249.964 -2.59671 -2.372 0
M  V30 2712 H 249.838 -1.29551 -3.54255 0
M  V30 2713 H 252.225 -0.538745 -2.90141 0
M  V30 2714 H 252.306 -1.87305 -1.74214 0
M  V30 2715 H 251.95 -3.52688 -3.65477 0
M  V30 2716 H 251.88 -2.16453 -4.80058 0
M  V30 2717 H 254.371 -1.91234 -3.25941 0
M  V30 2718 H 254.684 -4.43721 -6.32718 0
M  V30 2719 H 253.029 -3.98481 -5.69419 0
M  V30 2720 H 256.22 -2.44108 -3.99411 0
M  V30 2721 H 256.393 -3.59225 -5.39316 0
M  V30 2722 N 249.799 1.42003 -0.683588 0
M  V30 2723 C 250.709 2.34597 -0.0109075 0
M  V30 2724 C 251.725 1.55576 0.779245 0
M  V30 2725 O 252.901 1.88107 0.719555 0
M  V30 2726 C 249.966 3.34199 0.922588 0
M  V30 2727 C 249.027 4.29115 0.125984 0
M  V30 2728 C 248.26 5.23959 1.01502 0
M  V30 2729 O 248.483 5.23952 2.25456 0
M  V30 2730 O 247.417 6.00053 0.47111 0
M  V30 2731 H 251.243 2.93675 -0.773853 0
M  V30 2732 H 248.828 1.42654 -0.443861 0
M  V30 2733 H 250.71 3.95365 1.45823 0
M  V30 2734 H 249.385 2.77582 1.66523 0
M  V30 2735 H 248.292 3.71335 -0.453969 0
M  V30 2736 H 249.625 4.88798 -0.577736 0
M  V30 2737 N 251.277 0.427512 1.51691 0
M  V30 2738 C 252.554 -0.201684 1.94557 0
M  V30 2739 C 252.934 -1.60981 1.36559 0
M  V30 2740 O 252.282 -2.21814 0.548702 0
M  V30 2741 C 252.492 -0.189394 3.48486 0
M  V30 2742 C 253.84 -0.39978 4.22714 0
M  V30 2743 O 254.864 -0.267945 3.55191 0
M  V30 2744 O 253.723 -0.661249 5.42485 0
M  V30 2745 H 250.817 -0.135261 0.815864 0
M  V30 2746 H 253.363 0.484782 1.62628 0
M  V30 2747 H 252.135 0.795431 3.8313 0
M  V30 2748 H 251.758 -0.919187 3.86829 0
M  V30 2749 N 252.755 -1.56801 0.158532 0
M  V30 2750 C 253.687 -2.14488 -0.807923 0
M  V30 2751 C 254.7 -1.09721 -1.20271 0
M  V30 2752 O 255.889 -1.36956 -1.14478 0
M  V30 2753 C 252.989 -2.66217 -2.09718 0
M  V30 2754 C 252.162 -3.95507 -1.86796 0
M  V30 2755 C 251.221 -4.3243 -2.99818 0
M  V30 2756 O 250.247 -5.00543 -2.71008 0
M  V30 2757 N 251.449 -3.92947 -4.27285 0
M  V30 2758 H 254.214 -2.98042 -0.314816 0
M  V30 2759 H 251.775 -1.61881 -0.0246692 0
M  V30 2760 H 253.767 -2.87924 -2.84398 0
M  V30 2761 H 252.337 -1.87324 -2.50257 0
M  V30 2762 H 251.557 -3.82309 -0.96089 0
M  V30 2763 H 252.845 -4.79972 -1.68833 0
M  V30 2764 H 252.243 -3.38087 -4.53557 0
M  V30 2765 H 250.8 -4.19681 -4.9871 0
M  V30 2766 N 254.233 0.115231 -1.57178 0
M  V30 2767 C 255.458 0.840354 -1.89612 0
M  V30 2768 C 255.883 1.72464 -0.750845 0
M  V30 2769 O 255.241 1.78826 0.298478 0
M  V30 2770 C 255.289 1.64654 -3.20814 0
M  V30 2771 O 254.393 2.7538 -3.06985 0
M  V30 2772 H 253.734 0.232158 -0.622092 0
M  V30 2773 H 256.264 0.0964977 -2.04372 0
M  V30 2774 H 256.274 2.03499 -3.53627 0
M  V30 2775 H 254.949 0.997416 -4.03763 0
M  V30 2776 H 253.526 2.3971 -2.85646 0
M  V30 2777 N 255.711 1.52812 0.385517 0
M  V30 2778 C 256.96 1.67249 1.12741 0
M  V30 2779 C 257.273 0.4205 1.91027 0
M  V30 2780 O 258.479 0.445064 2.67827 0
M  V30 2781 C 256.935 2.95583 2.05326 0
M  V30 2782 C 256.543 4.27974 1.32447 0
M  V30 2783 C 258.287 3.19386 2.7963 0
M  V30 2784 C 256.194 5.47412 2.23818 0
M  V30 2785 H 255.124 0.6231 0.424573 0
M  V30 2786 H 257.775 1.79309 0.389924 0
M  V30 2787 H 256.157 2.77277 2.82725 0
M  V30 2788 H 257.331 4.56844 0.602495 0
M  V30 2789 H 255.646 4.10459 0.700885 0
M  V30 2790 H 258.243 4.05801 3.48181 0
M  V30 2791 H 258.586 2.34604 3.43899 0
M  V30 2792 H 259.119 3.38274 2.09322 0
M  V30 2793 H 255.858 6.34612 1.64157 0
M  V30 2794 H 255.378 5.22849 2.93921 0
M  V30 2795 H 257.057 5.81423 2.83824 0
M  V30 2796 N 257.189 -0.644168 1.43834 0
M  V30 2797 C 258.119 -1.76814 1.52509 0
M  V30 2798 C 259.1 -1.65823 0.379052 0
M  V30 2799 O 260.285 -1.84781 0.597466 0
M  V30 2800 C 257.415 -3.15288 1.4564 0
M  V30 2801 C 256.369 -3.41053 2.58586 0
M  V30 2802 C 255.695 -4.79421 2.36769 0
M  V30 2803 C 256.995 -3.34902 4.00797 0
M  V30 2804 H 258.689 -1.69812 2.46586 0
M  V30 2805 H 256.235 -0.815542 1.1868 0
M  V30 2806 H 258.188 -3.93681 1.50311 0
M  V30 2807 H 256.912 -3.23043 0.480725 0
M  V30 2808 H 255.571 -2.65035 2.53282 0
M  V30 2809 H 255.219 -4.83863 1.37424 0
M  V30 2810 H 254.919 -4.9762 3.12487 0
M  V30 2811 H 256.443 -5.6006 2.43238 0
M  V30 2812 H 257.857 -4.03218 4.07539 0
M  V30 2813 H 256.254 -3.64637 4.76613 0
M  V30 2814 H 257.324 -2.32928 4.25291 0
M  V30 2815 N 258.668 -1.30515 -0.883378 0
M  V30 2816 C 259.908 -1.20716 -1.64946 0
M  V30 2817 C 260.272 0.234072 -1.90568 0
M  V30 2818 O 261.473 0.455335 -2.64915 0
M  V30 2819 C 259.744 -2.01444 -2.9522 0
M  V30 2820 S 261.303 -2.0836 -3.86175 0
M  V30 2821 H 258.121 -0.430165 -0.566109 0
M  V30 2822 H 260.723 -1.65011 -1.04841 0
M  V30 2823 H 259.427 -3.05268 -2.74298 0
M  V30 2824 H 258.958 -1.57817 -3.60357 0
M  V30 2825 H 260.973 -1.21215 -4.81167 0
M  V30 2826 N 260.146 1.09593 -1.13257 0
M  V30 2827 C 261.374 1.855 -0.916378 0
M  V30 2828 C 261.789 1.81069 0.534738 0
M  V30 2829 O 261.146 1.20562 1.37007 0
M  V30 2830 C 261.197 3.33546 -1.39388 0
M  V30 2831 O 260.918 3.37927 -2.78813 0
M  V30 2832 C 262.419 4.26299 -1.21588 0
M  V30 2833 H 259.639 0.585991 -0.326887 0
M  V30 2834 H 262.183 1.38488 -1.5047 0
M  V30 2835 H 260.338 3.77992 -0.848597 0
M  V30 2836 H 260.752 4.30254 -2.9997 0
M  V30 2837 H 262.226 5.28341 -1.59876 0
M  V30 2838 H 262.703 4.38918 -0.157376 0
M  V30 2839 H 263.309 3.87668 -1.7491 0
M  V30 2840 N 261.624 0.925811 1.2754 0
M  V30 2841 C 262.872 0.564138 1.94067 0
M  V30 2842 C 263.193 -0.897188 1.73134 0
M  V30 2843 O 262.463 -1.63573 1.07799 0
M  V30 2844 H 261.043 0.205645 0.718136 0
M  V30 2845 H 263.705 1.1778 1.55287 0
M  V30 2846 H 262.801 0.76881 3.02483 0
M  V30 2847 N 263.102 -1.41638 0.69111 0
M  V30 2848 C 264.012 -2.34588 0.0233487 0
M  V30 2849 C 265.028 -1.55987 -0.770984 0
M  V30 2850 O 266.204 -1.88486 -0.709569 0
M  V30 2851 C 263.269 -3.34684 -0.904851 0
M  V30 2852 C 262.33 -4.29176 -0.103225 0
M  V30 2853 C 261.563 -5.2449 -0.987216 0
M  V30 2854 O 261.786 -5.2514 -2.22674 0
M  V30 2855 O 260.72 -6.00295 -0.439281 0
M  V30 2856 H 264.546 -2.93261 0.789416 0
M  V30 2857 H 262.131 -1.42417 0.45142 0
M  V30 2858 H 264.013 -3.96133 -1.43724 0
M  V30 2859 H 262.688 -2.78461 -1.65049 0
M  V30 2860 H 261.595 -3.71089 0.473655 0
M  V30 2861 H 262.928 -4.88484 0.60365 0
M  V30 2862 N 264.58 -0.43555 -1.51462 0
M  V30 2863 C 265.805 0.132627 -2.06976 0
M  V30 2864 C 266.23 1.35848 -1.30104 0
M  V30 2865 O 265.588 1.78112 -0.338493 0
M  V30 2866 C 265.636 0.43523 -3.57964 0
M  V30 2867 O 264.74 1.52198 -3.83288 0
M  V30 2868 H 264.081 0.00265 -0.663995 0
M  V30 2869 H 266.611 -0.616369 -1.95095 0
M  V30 2870 H 266.621 0.686206 -4.02188 0
M  V30 2871 H 265.296 -0.460739 -4.1334 0
M  V30 2872 H 263.873 1.2611 -3.50928 0
M  V30 2873 N 266.058 1.56714 -0.166846 0
M  V30 2874 C 267.306 1.96358 0.478305 0
M  V30 2875 C 267.627 1.0537 1.6408 0
M  V30 2876 O 266.897 0.119154 1.95537 0
M  V30 2877 H 265.477 0.725065 0.179692 0
M  V30 2878 H 268.139 1.93329 -0.246985 0
M  V30 2879 H 267.235 3.00547 0.841292 0
M  V30 2880 N 267.536 -0.106894 1.57237 0
M  V30 2881 C 268.499 -1.11466 2.0027 0
M  V30 2882 C 269.499 -1.33623 0.894519 0
M  V30 2883 O 270.689 -1.29935 1.16028 0
M  V30 2884 C 267.821 -2.46646 2.35327 0
M  V30 2885 H 269.014 -0.744516 2.90512 0
M  V30 2886 H 266.567 -0.351576 1.52295 0
M  V30 2887 H 267.302 -2.88558 1.48003 0
M  V30 2888 H 267.087 -2.31915 3.16161 0
M  V30 2889 H 268.577 -3.19151 2.69318 0
M  V30 2890 N 269.014 -1.53014 -0.377408 0
M  V30 2891 C 270.262 -1.6829 -1.11906 0
M  V30 2892 C 270.583 -0.431206 -1.90173 0
M  V30 2893 O 269.853 0.554595 -1.87886 0
M  V30 2894 H 268.433 -0.620371 -0.416112 0
M  V30 2895 H 271.095 -1.90167 -0.426893 0
M  V30 2896 H 270.191 -2.53862 -1.8155 0
M  V30 2897 N 270.492 0.636531 -1.44174 0
M  V30 2898 C 271.439 1.74875 -1.50624 0
M  V30 2899 C 272.409 1.62275 -0.35442 0
M  V30 2900 O 273.594 1.82276 -0.563908 0
M  V30 2901 C 270.734 3.13102 -1.45125 0
M  V30 2902 C 269.847 3.36717 -2.7064 0
M  V30 2903 C 268.982 4.64885 -2.57013 0
M  V30 2904 C 268.021 4.8166 -3.77717 0
M  V30 2905 N 267.158 6.01101 -3.62798 0
M  V30 2906 H 271.998 1.68697 -2.45653 0
M  V30 2907 H 269.535 0.823004 -1.21922 0
M  V30 2908 H 271.493 3.93034 -1.39929 0
M  V30 2909 H 270.123 3.18308 -0.536671 0
M  V30 2910 H 269.175 2.50763 -2.86046 0
M  V30 2911 H 270.487 3.44993 -3.60252 0
M  V30 2912 H 269.641 5.52969 -2.49619 0
M  V30 2913 H 268.38 4.58957 -1.64953 0
M  V30 2914 H 267.385 3.92007 -3.85501 0
M  V30 2915 H 268.61 4.89406 -4.70807 0
M  V30 2916 H 266.556 5.96273 -2.73486 0
M  V30 2917 H 266.473 6.10409 -4.46023 0
M  V30 2918 H 267.741 6.91761 -3.59286 0
M  V30 2919 N 271.97 1.30982 0.876444 0
M  V30 2920 C 273.198 1.23242 1.6619 0
M  V30 2921 C 273.613 -0.203345 1.87702 0
M  V30 2922 O 272.97 -1.13317 1.43057 0
M  V30 2923 C 273.021 1.96623 3.03351 0
M  V30 2924 O 272.742 3.34594 2.82804 0
M  V30 2925 C 274.243 1.95644 3.97792 0
M  V30 2926 H 271.463 0.426126 0.518322 0
M  V30 2927 H 274.007 1.7275 1.09442 0
M  V30 2928 H 272.162 1.50892 3.56806 0
M  V30 2929 H 272.576 3.71873 3.69879 0
M  V30 2930 H 274.05 2.51511 4.91372 0
M  V30 2931 H 274.527 0.937395 4.2908 0
M  V30 2932 H 275.133 2.41225 3.50272 0
M  V30 2933 N 273.449 -1.08991 1.13837 0
M  V30 2934 C 274.359 -2.19301 0.833333 0
M  V30 2935 C 275.375 -1.73026 -0.183847 0
M  V30 2936 O 276.551 -2.01395 -0.0138092 0
M  V30 2937 C 273.616 -3.45323 0.308651 0
M  V30 2938 C 272.677 -4.06255 1.38764 0
M  V30 2939 C 271.91 -5.26262 0.887896 0
M  V30 2940 O 272.133 -5.69747 -0.27287 0
M  V30 2941 O 271.067 -5.78435 1.66421 0
M  V30 2942 H 274.893 -2.47854 1.75506 0
M  V30 2943 H 272.478 -1.18012 0.916166 0
M  V30 2944 H 274.36 -4.21394 0.0216739 0
M  V30 2945 H 273.035 -3.18362 -0.585431 0
M  V30 2946 H 271.942 -3.318 1.72799 0
M  V30 2947 H 273.275 -4.37452 2.25602 0
M  V30 2948 N 274.927 -0.932562 -1.27047 0
M  V30 2949 C 275.875 -0.42603 -2.28665 0
M  V30 2950 C 276.869 0.49219 -1.62092 0
M  V30 2951 O 278.075 0.371355 -1.76128 0
M  V30 2952 H 274.45 -0.119213 -0.742491 0
M  V30 2953 H 276.421 -1.29579 -2.68797 0
M  V30 2954 C 275.17 0.301426 -3.46391 0
M  V30 2955 H 274.493 -0.39595 -3.97834 0
M  V30 2956 H 275.933 0.6202 -4.1944 0
M  V30 2957 C 274.392 1.51616 -3.00856 0
M  V30 2958 O 274.922 2.61476 -3.04948 0
M  V30 2959 N 273.128 1.36969 -2.56296 0
M  V30 2960 H 272.675 0.475873 -2.53166 0
M  V30 2961 H 272.633 2.18368 -2.26192 0
M  V30 2962 N 276.405 1.4127 -0.698611 0
M  V30 2963 C 277.633 2.05503 -0.239992 0
M  V30 2964 C 278.048 1.52584 1.11191 0
M  V30 2965 O 277.405 0.675323 1.69545 0
M  V30 2966 C 277.456 3.60987 -0.192429 0
M  V30 2967 O 277.177 4.1195 -1.49094 0
M  V30 2968 C 278.678 4.42371 0.28681 0
M  V30 2969 H 275.898 0.661748 -0.111045 0
M  V30 2970 H 278.442 1.80987 -0.95205 0
M  V30 2971 H 276.597 3.84533 0.470472 0
M  V30 2972 H 277.011 5.06018 -1.38007 0
M  V30 2973 H 278.485 5.51344 0.26896 0
M  V30 2974 H 278.962 4.18699 1.32619 0
M  V30 2975 H 279.568 4.23897 -0.345201 0
M  V30 2976 N 277.883 0.443576 1.51229 0
M  V30 2977 C 278.83 -0.364716 2.279 0
M  V30 2978 C 279.8 -1.0114 1.31757 0
M  V30 2979 O 280.985 -1.02912 1.60667 0
M  V30 2980 C 278.125 -1.45644 3.12861 0
M  V30 2981 C 277.238 -0.827269 4.24005 0
M  V30 2982 C 276.373 -1.89456 4.96266 0
M  V30 2983 C 275.412 -1.24416 5.99322 0
M  V30 2984 N 274.549 -2.25309 6.64966 0
M  V30 2985 H 279.389 0.295464 2.96532 0
M  V30 2986 H 276.926 0.157554 1.46254 0
M  V30 2987 H 278.884 -2.10076 3.6045 0
M  V30 2988 H 277.514 -2.08616 2.46331 0
M  V30 2989 H 276.566 -0.0710839 3.80334 0
M  V30 2990 H 277.878 -0.312481 4.9782 0
M  V30 2991 H 277.032 -2.61535 5.47434 0
M  V30 2992 H 275.771 -2.4431 4.22095 0
M  V30 2993 H 274.776 -0.508868 5.4744 0
M  V30 2994 H 276.001 -0.702882 6.75453 0
M  V30 2995 H 273.947 -2.79231 5.93604 0
M  V30 2996 H 273.864 -1.78739 7.34567 0
M  V30 2997 H 275.132 -2.96853 7.20763 0
M  V30 2998 N 279.361 -1.56624 0.175154 0
M  V30 2999 C 280.308 -2.18149 -0.753634 0
M  V30 3000 C 281.278 -1.12265 -1.22417 0
M  V30 3001 O 282.463 -1.40432 -1.29165 0
M  V30 3002 C 279.603 -2.82933 -1.97592 0
M  V30 3003 C 278.716 -4.03289 -1.5486 0
M  V30 3004 C 277.851 -4.55988 -2.72485 0
M  V30 3005 C 276.89 -5.68746 -2.26262 0
M  V30 3006 N 276.027 -6.15938 -3.36994 0
M  V30 3007 H 280.867 -2.9717 -0.222195 0
M  V30 3008 H 278.404 -1.46774 -0.0979422 0
M  V30 3009 H 280.362 -3.18653 -2.69288 0
M  V30 3010 H 278.992 -2.06509 -2.481 0
M  V30 3011 H 278.044 -3.73364 -0.728246 0
M  V30 3012 H 279.356 -4.849 -1.16933 0
M  V30 3013 H 278.51 -4.9391 -3.52332 0
M  V30 3014 H 277.249 -3.73443 -3.13674 0
M  V30 3015 H 276.254 -5.30372 -1.44863 0
M  V30 3016 H 277.479 -6.53095 -1.86127 0
M  V30 3017 H 275.425 -5.36321 -3.77751 0
M  V30 3018 H 275.342 -6.92548 -3.03172 0
M  V30 3019 H 276.61 -6.58511 -4.17114 0
M  V30 3020 N 280.839 0.0985539 -1.57292 0
M  V30 3021 C 282.085 0.803867 -1.86188 0
M  V30 3022 C 282.418 1.78549 -0.763794 0
M  V30 3023 O 281.693 1.93153 0.22855 0
M  V30 3024 C 281.976 1.53568 -3.25713 0
M  V30 3025 C 281.829 0.572277 -4.46145 0
M  V30 3026 C 283.148 2.48708 -3.63087 0
M  V30 3027 H 280.267 0.290781 -0.677211 0
M  V30 3028 H 282.909 0.0675783 -1.8988 0
M  V30 3029 H 281.059 2.16332 -3.22696 0
M  V30 3030 H 282.731 -0.0480894 -4.61275 0
M  V30 3031 H 280.974 -0.114618 -4.33649 0
M  V30 3032 H 281.645 1.12139 -5.40489 0
M  V30 3033 H 284.121 1.96039 -3.67026 0
M  V30 3034 H 282.997 2.96932 -4.61652 0
M  V30 3035 H 283.258 3.32309 -2.91588 0
M  V30 3036 N 282.317 1.53212 0.369288 0
M  V30 3037 C 283.566 1.68436 1.10961 0
M  V30 3038 C 283.879 0.440738 1.9057 0
M  V30 3039 O 285.085 0.473446 2.6734 0
M  V30 3040 C 283.541 2.97744 2.0218 0
M  V30 3041 C 283.149 4.29355 1.279 0
M  V30 3042 C 284.893 3.22334 2.76226 0
M  V30 3043 C 282.8 5.49755 2.17999 0
M  V30 3044 H 281.73 0.627568 0.41794 0
M  V30 3045 H 284.381 1.79713 0.370884 0
M  V30 3046 H 282.763 2.8026 2.79768 0
M  V30 3047 H 283.937 4.57458 0.554007 0
M  V30 3048 H 282.252 4.11179 0.657311 0
M  V30 3049 H 284.849 4.09471 3.43857 0
M  V30 3050 H 285.192 2.38238 3.41392 0
M  V30 3051 H 285.725 3.40475 2.05723 0
M  V30 3052 H 282.464 6.36318 1.57417 0
M  V30 3053 H 281.984 5.25937 2.88359 0
M  V30 3054 H 283.663 5.84401 2.77641 0
M  V30 3055 N 283.795 -0.628877 1.44509 0
M  V30 3056 C 284.727 -1.754 1.47538 0
M  V30 3057 C 285.74 -1.58575 0.368506 0
M  V30 3058 O 286.929 -1.66847 0.634376 0
M  V30 3059 C 284.029 -3.1315 1.29577 0
M  V30 3060 C 283.202 -3.56413 2.53551 0
M  V30 3061 C 282.261 -4.7305 2.30457 0
M  V30 3062 O 281.287 -4.81247 3.03957 0
M  V30 3063 N 282.489 -5.64903 1.3366 0
M  V30 3064 H 285.254 -1.73272 2.44534 0
M  V30 3065 H 282.815 -0.813512 1.39977 0
M  V30 3066 H 284.807 -3.88902 1.11971 0
M  V30 3067 H 283.377 -3.09908 0.409371 0
M  V30 3068 H 282.597 -2.70847 2.86419 0
M  V30 3069 H 283.885 -3.82071 3.36005 0
M  V30 3070 H 283.283 -5.60975 0.729604 0
M  V30 3071 H 281.84 -6.40275 1.22032 0
M  V30 3072 N 285.273 -1.31445 -0.869486 0
M  V30 3073 C 286.503 -1.23942 -1.65294 0
M  V30 3074 C 286.911 0.197561 -1.88166 0
M  V30 3075 O 286.254 1.14019 -1.44033 0
M  V30 3076 C 286.316 -1.91385 -3.04322 0
M  V30 3077 C 285.98 -3.40726 -3.04557 0
M  V30 3078 C 286.977 -4.36464 -2.82481 0
M  V30 3079 C 284.662 -3.82425 -3.25663 0
M  V30 3080 C 286.656 -5.71876 -2.8149 0
M  V30 3081 C 284.343 -5.1795 -3.243 0
M  V30 3082 C 285.341 -6.12486 -3.02241 0
M  V30 3083 O 285.029 -7.45534 -3.00724 0
M  V30 3084 H 284.761 -0.429459 -0.522054 0
M  V30 3085 H 287.315 -1.73873 -1.0935 0
M  V30 3086 H 285.545 -1.36004 -3.61994 0
M  V30 3087 H 287.234 -1.77791 -3.64891 0
M  V30 3088 H 288 -4.05576 -2.65956 0
M  V30 3089 H 283.879 -3.09274 -3.41863 0
M  V30 3090 H 287.423 -6.45638 -2.64191 0
M  V30 3091 H 283.32 -5.48473 -3.40365 0
M  V30 3092 H 284.088 -7.54713 -3.16782 0
M  V30 3093 N 286.751 1.08385 -1.14413 0
M  V30 3094 C 287.681 2.17321 -0.854044 0
M  V30 3095 C 288.662 1.69024 0.191049 0
M  V30 3096 O 289.847 1.94141 0.0476779 0
M  V30 3097 C 286.977 3.45719 -0.330983 0
M  V30 3098 C 285.931 4.07409 -1.31155 0
M  V30 3099 C 285.257 5.30762 -0.64778 0
M  V30 3100 C 286.557 4.48665 -2.67388 0
M  V30 3101 H 288.251 2.41845 -1.76498 0
M  V30 3102 H 285.797 1.16233 -0.850051 0
M  V30 3103 H 287.75 4.21241 -0.115645 0
M  V30 3104 H 286.474 3.2075 0.615381 0
M  V30 3105 H 285.133 3.33919 -1.51306 0
M  V30 3106 H 284.781 5.02078 0.304398 0
M  V30 3107 H 284.481 5.72992 -1.30207 0
M  V30 3108 H 286.005 6.08998 -0.441972 0
M  V30 3109 H 287.419 5.15364 -2.51143 0
M  V30 3110 H 285.816 5.01814 -3.29093 0
M  V30 3111 H 286.886 3.60543 -3.24248 0
M  V30 3112 N 288.23 0.939286 1.26551 0
M  V30 3113 C 289.193 0.451987 2.24699 0
M  V30 3114 C 290.193 -0.435869 1.5478 0
M  V30 3115 O 291.383 -0.235314 1.72603 0
M  V30 3116 C 288.515 -0.348801 3.39111 0
M  V30 3117 H 289.708 1.3193 2.69322 0
M  V30 3118 H 287.261 0.721072 1.38673 0
M  V30 3119 H 287.996 -1.23444 2.99887 0
M  V30 3120 H 287.781 0.287945 3.91041 0
M  V30 3121 H 289.271 -0.679726 4.12031 0
M  V30 3122 N 289.708 -1.40897 0.706093 0
M  V30 3123 C 290.954 -2.01352 0.241889 0
M  V30 3124 C 291.287 -1.55832 -1.15888 0
M  V30 3125 O 290.562 -0.774145 -1.7843 0
M  V30 3126 C 290.845 -3.58752 0.311311 0
M  V30 3127 C 290.698 -4.1437 1.74978 0
M  V30 3128 C 292.017 -4.38914 -0.322922 0
M  V30 3129 H 289.136 -0.731562 0.0893687 0
M  V30 3130 H 291.778 -1.67504 0.896802 0
M  V30 3131 H 289.928 -3.87718 -0.246302 0
M  V30 3132 H 291.6 -3.96239 2.36205 0
M  V30 3133 H 289.843 -3.69016 2.28057 0
M  V30 3134 H 290.514 -5.23532 1.74981 0
M  V30 3135 H 292.99 -4.15822 0.152089 0
M  V30 3136 H 291.866 -5.48358 -0.243855 0
M  V30 3137 H 292.127 -4.19176 -1.40513 0
M  V30 3138 N 291.186 -0.45159 -1.50991 0
M  V30 3139 C 292.432 0.110237 -2.025 0
M  V30 3140 C 292.765 1.41109 -1.33424 0
M  V30 3141 O 292.04 1.89135 -0.453659 0
M  V30 3142 C 292.323 0.314271 -3.58726 0
M  V30 3143 C 292.176 -1.00623 -4.38401 0
M  V30 3144 C 293.495 1.07767 -4.26702 0
M  V30 3145 H 290.614 0.0385897 -0.735989 0
M  V30 3146 H 293.256 -0.593374 -1.80497 0
M  V30 3147 H 291.406 0.913601 -3.77605 0
M  V30 3148 H 293.078 -1.64064 -4.31139 0
M  V30 3149 H 291.321 -1.6075 -4.02917 0
M  V30 3150 H 291.992 -0.817341 -5.45915 0
M  V30 3151 H 294.468 0.56986 -4.12179 0
M  V30 3152 H 293.344 1.18921 -5.35863 0
M  V30 3153 H 293.605 2.10939 -3.88532 0
M  V30 3154 N 292.664 1.56529 -0.183458 0
M  V30 3155 C 293.627 2.17324 0.728223 0
M  V30 3156 C 294.627 1.12453 1.14939 0
M  V30 3157 O 295.817 1.37902 1.06437 0
M  V30 3158 C 292.949 2.76591 1.99274 0
M  V30 3159 H 294.142 2.99241 0.198772 0
M  V30 3160 H 291.695 1.5616 0.0661391 0
M  V30 3161 H 292.43 1.98441 2.56499 0
M  V30 3162 H 292.215 3.5335 1.69959 0
M  V30 3163 H 293.705 3.23311 2.6431 0
M  V30 3164 N 294.142 -0.090211 1.57342 0
M  V30 3165 C 295.367 -0.810082 1.90925 0
M  V30 3166 C 295.792 -1.71248 0.778187 0
M  V30 3167 O 295.15 -1.79278 -0.269991 0
M  V30 3168 C 295.198 -1.59529 3.23393 0
M  V30 3169 O 294.302 -2.70461 3.11327 0
M  V30 3170 H 293.643 -0.222231 0.625707 0
M  V30 3171 H 296.173 -0.0639716 2.045 0
M  V30 3172 H 296.183 -1.97847 3.5682 0
M  V30 3173 H 294.858 -0.933055 4.05299 0
M  V30 3174 H 293.435 -2.35135 2.89423 0
M  V30 3175 N 295.62 -1.53406 -0.361157 0
M  V30 3176 C 296.845 -1.74024 -1.12829 0
M  V30 3177 C 297.27 -0.470069 -1.82132 0
M  V30 3178 O 296.628 0.57619 -1.719 0
M  V30 3179 C 296.676 -2.90903 -2.13091 0
M  V30 3180 O 295.78 -2.59821 -3.20261 0
M  V30 3181 H 295.121 -0.577804 -0.327168 0
M  V30 3182 H 297.651 -2.00307 -0.41693 0
M  V30 3183 H 297.661 -3.17194 -2.56616 0
M  V30 3184 H 296.336 -3.83034 -1.62042 0
M  V30 3185 H 294.913 -2.44362 -2.81677 0
M  V30 3186 N 297.098 0.621204 -1.44841 0
M  V30 3187 C 298.048 1.72663 -1.48901 0
M  V30 3188 C 299.032 1.56964 -0.353702 0
M  V30 3189 O 300.224 1.66532 -0.599669 0
M  V30 3190 C 297.353 3.11381 -1.44557 0
M  V30 3191 C 296.439 3.32514 -2.6324 0
M  V30 3192 N 296.83 3.23969 -3.8843 0
M  V30 3193 C 295.128 3.63343 -2.58647 0
M  V30 3194 C 295.829 3.46062 -4.67564 0
M  V30 3195 N 294.805 3.69407 -3.98797 0
M  V30 3196 H 298.607 1.64529 -2.43531 0
M  V30 3197 H 296.121 0.82401 -1.39942 0
M  V30 3198 H 298.118 3.90667 -1.4555 0
M  V30 3199 H 296.778 3.20674 -0.509731 0
M  V30 3200 H 297.789 3.02669 -4.20252 0
M  V30 3201 H 294.466 3.79556 -1.73906 0
M  V30 3202 H 295.856 3.44963 -5.76585 0
M  V30 3203 N 298.576 1.31904 0.862503 0
M  V30 3204 C 299.523 1.20182 1.9704 0
M  V30 3205 C 300.493 0.0858247 1.65878 0
M  V30 3206 O 301.678 0.26 1.8902 0
M  V30 3207 C 298.818 0.922797 3.32533 0
M  V30 3208 C 297.931 2.12284 3.76244 0
M  V30 3209 C 297.066 1.77996 5.00491 0
M  V30 3210 C 296.105 2.94366 5.36671 0
M  V30 3211 N 295.242 2.60223 6.52095 0
M  V30 3212 H 300.082 2.14951 2.06398 0
M  V30 3213 H 297.619 1.06917 1.01031 0
M  V30 3214 H 299.577 0.741548 4.10557 0
M  V30 3215 H 298.207 0.0119227 3.22798 0
M  V30 3216 H 297.259 2.41461 2.9394 0
M  V30 3217 H 298.571 2.99357 3.98982 0
M  V30 3218 H 297.725 1.56377 5.862 0
M  V30 3219 H 296.464 0.881252 4.79672 0
M  V30 3220 H 295.469 3.16625 4.49476 0
M  V30 3221 H 296.694 3.84957 5.59451 0
M  V30 3222 H 294.64 1.72884 6.32809 0
M  V30 3223 H 294.557 3.40827 6.74814 0
M  V30 3224 H 295.825 2.42016 7.40978 0
M  V30 3225 N 300.054 -1.07777 1.14986 0
M  V30 3226 C 301.302 -1.79934 0.920235 0
M  V30 3227 C 301.623 -1.86955 -0.554336 0
M  V30 3228 O 300.893 -1.36731 -1.40291 0
M  V30 3229 H 299.473 -0.666424 0.337473 0
M  V30 3230 H 302.135 -1.3027 1.44968 0
M  V30 3231 H 301.231 -2.82539 1.32583 0
M  V30 3232 N 301.532 -0.945985 -1.26051 0
M  V30 3233 C 302.479 -0.45809 -2.26208 0
M  V30 3234 C 303.449 0.484816 -1.58867 0
M  V30 3235 O 304.634 0.399969 -1.86561 0
M  V30 3236 C 301.774 0.266131 -3.44072 0
M  V30 3237 C 300.887 -0.713005 -4.26075 0
M  V30 3238 C 300.022 0.0329013 -5.3119 0
M  V30 3239 C 299.061 -0.93774 -6.04874 0
M  V30 3240 N 298.198 -0.223274 -7.01745 0
M  V30 3241 H 303.038 -1.3171 -2.67313 0
M  V30 3242 H 300.575 -0.66069 -1.31428 0
M  V30 3243 H 302.533 0.702514 -4.11243 0
M  V30 3244 H 301.163 1.08925 -3.03867 0
M  V30 3245 H 300.215 -1.26789 -3.58648 0
M  V30 3246 H 301.527 -1.45406 -4.77136 0
M  V30 3247 H 300.681 0.528335 -6.04395 0
M  V30 3248 H 299.42 0.806801 -4.8098 0
M  V30 3249 H 298.425 -1.44425 -5.30492 0
M  V30 3250 H 299.65 -1.71172 -6.57173 0
M  V30 3251 H 297.596 0.532046 -6.53839 0
M  V30 3252 H 297.513 -0.90357 -7.50581 0
M  V30 3253 H 298.781 0.250907 -7.79096 0
M  V30 3254 N 303.011 1.40521 -0.713556 0
M  V30 3255 C 303.958 2.30723 -0.059684 0
M  V30 3256 C 304.928 1.48079 0.752448 0
M  V30 3257 O 306.113 1.76823 0.71681 0
M  V30 3258 C 303.253 3.34274 0.857594 0
M  V30 3259 C 302.366 4.31986 0.0351536 0
M  V30 3260 C 301.501 5.22605 0.951724 0
M  V30 3261 C 300.54 6.11976 0.123253 0
M  V30 3262 N 299.677 6.9502 0.99459 0
M  V30 3263 H 304.517 2.86074 -0.834596 0
M  V30 3264 H 302.054 1.40879 -0.42326 0
M  V30 3265 H 304.012 3.92879 1.40364 0
M  V30 3266 H 302.642 2.8043 1.59871 0
M  V30 3267 H 301.694 3.7518 -0.628052 0
M  V30 3268 H 303.006 4.95101 -0.606347 0
M  V30 3269 H 302.16 5.86131 1.56638 0
M  V30 3270 H 300.899 4.59759 1.62705 0
M  V30 3271 H 299.904 5.47482 -0.50435 0
M  V30 3272 H 301.129 6.76881 -0.548539 0
M  V30 3273 H 299.075 6.34764 1.6556 0
M  V30 3274 H 298.992 7.54892 0.40908 0
M  V30 3275 H 300.26 7.62997 1.59549 0
M  V30 3276 N 304.489 0.459591 1.5075 0
M  V30 3277 C 305.766 -0.160371 1.94941 0
M  V30 3278 C 306.146 -1.58048 1.39943 0
M  V30 3279 O 305.494 -2.206 0.595629 0
M  V30 3280 C 305.704 -0.115432 3.48809 0
M  V30 3281 C 307.052 -0.310026 4.23467 0
M  V30 3282 O 308.076 -0.192543 3.55679 0
M  V30 3283 O 306.935 -0.546031 5.43765 0
M  V30 3284 H 304.029 -0.117925 0.818549 0
M  V30 3285 H 306.575 0.519169 1.61563 0
M  V30 3286 H 305.347 0.87652 3.81357 0
M  V30 3287 H 304.97 -0.836928 3.88692 0
M  V30 3288 N 305.967 -1.56429 0.191757 0
M  V30 3289 C 307.195 -2.01867 -0.453586 0
M  V30 3290 C 307.61 -1.07191 -1.5542 0
M  V30 3291 O 306.967 -0.0762108 -1.82341 0
M  V30 3292 C 307.018 -3.47017 -1.013 0
M  V30 3293 O 306.739 -4.38078 0.0437005 0
M  V30 3294 C 308.24 -4.07956 -1.73456 0
M  V30 3295 H 305.46 -0.661211 -0.114199 0
M  V30 3296 H 308.004 -2.02295 0.299483 0
M  V30 3297 H 306.159 -3.47298 -1.71647 0
M  V30 3298 H 306.573 -5.23178 -0.372212 0
M  V30 3299 H 308.047 -5.1138 -2.07833 0
M  V30 3300 H 308.524 -3.51222 -2.63704 0
M  V30 3301 H 309.13 -4.11437 -1.07702 0
M  V30 3302 N 307.445 0.0818655 -1.57387 0
M  V30 3303 C 308.67 0.799946 -1.91352 0
M  V30 3304 C 309.095 1.70833 -0.787258 0
M  V30 3305 O 308.453 1.79419 0.26048 0
M  V30 3306 C 308.501 1.57812 -3.24234 0
M  V30 3307 O 307.605 2.68806 -3.12757 0
M  V30 3308 H 306.946 0.21891 -0.626877 0
M  V30 3309 H 309.476 0.0531256 -2.04531 0
M  V30 3310 H 309.486 1.95952 -3.57864 0
M  V30 3311 H 308.161 0.911548 -4.05788 0
M  V30 3312 H 306.738 2.33597 -2.90666 0
M  V30 3313 N 308.923 1.53595 0.353017 0
M  V30 3314 C 310.172 1.69603 1.09168 0
M  V30 3315 C 310.485 0.460925 1.90092 0
M  V30 3316 O 311.691 0.501774 2.66823 0
M  V30 3317 C 310.147 2.99872 1.9901 0
M  V30 3318 C 309.755 4.30687 1.23339 0
M  V30 3319 C 311.499 3.25246 2.72792 0
M  V30 3320 C 309.406 5.52036 2.12156 0
M  V30 3321 H 308.336 0.631966 0.411261 0
M  V30 3322 H 310.987 1.80096 0.351802 0
M  V30 3323 H 309.369 2.83212 2.7678 0
M  V30 3324 H 310.543 4.58019 0.505456 0
M  V30 3325 H 308.858 4.11853 0.613663 0
M  V30 3326 H 311.455 4.13095 3.39495 0
M  V30 3327 H 311.798 2.41846 3.38846 0
M  V30 3328 H 312.331 3.42638 2.021 0
M  V30 3329 H 309.07 6.37951 1.50659 0
M  V30 3330 H 308.59 5.28966 2.82764 0
M  V30 3331 H 310.269 5.87313 2.71427 0
M  V30 3332 N 310.401 -0.613514 1.45168 0
M  V30 3333 C 311.629 -1.39946 1.5239 0
M  V30 3334 C 312.044 -1.88167 0.154531 0
M  V30 3335 O 311.401 -1.61872 -0.842843 0
M  V30 3336 C 311.452 -2.60795 2.50337 0
M  V30 3337 O 311.173 -2.1458 3.81952 0
M  V30 3338 C 312.674 -3.53723 2.67198 0
M  V30 3339 H 309.894 -0.428593 0.516284 0
M  V30 3340 H 312.438 -0.748753 1.903 0
M  V30 3341 H 310.593 -3.21919 2.15515 0
M  V30 3342 H 311.007 -2.93055 4.34993 0
M  V30 3343 H 312.481 -4.35079 3.39721 0
M  V30 3344 H 312.958 -4.0368 1.73029 0
M  V30 3345 H 313.564 -2.98456 3.02992 0
M  V30 3346 N 311.879 -1.3236 -0.855495 0
M  V30 3347 C 313.127 -1.22629 -1.60644 0
M  V30 3348 C 313.448 0.212136 -1.93843 0
M  V30 3349 O 312.718 1.13666 -1.59552 0
M  V30 3350 H 311.298 -0.450882 -0.595579 0
M  V30 3351 H 313.96 -1.65871 -1.02337 0
M  V30 3352 H 313.056 -1.80832 -2.54374 0
M  V30 3353 N 313.357 1.07166 -1.15556 0
M  V30 3354 C 314.267 2.17947 -0.868116 0
M  V30 3355 C 315.283 1.73297 0.156297 0
M  V30 3356 O 316.459 2.01392 -0.0182327 0
M  V30 3357 C 313.524 3.44789 -0.36355 0
M  V30 3358 C 312.585 4.03996 -1.45209 0
M  V30 3359 C 311.818 5.24783 -0.971508 0
M  V30 3360 O 312.041 5.70109 0.182194 0
M  V30 3361 O 310.975 5.75715 -1.75603 0
M  V30 3362 H 314.801 2.4503 -1.79427 0
M  V30 3363 H 312.386 1.16539 -0.934824 0
M  V30 3364 H 314.268 4.21307 -0.0887113 0
M  V30 3365 H 312.943 3.19253 0.534708 0
M  V30 3366 H 311.85 3.29009 -1.78056 0
M  V30 3367 H 313.183 4.33808 -2.32533 0
M  V30 3368 N 314.835 0.952656 1.25548 0
M  V30 3369 C 315.765 0.489287 2.28316 0
M  V30 3370 C 316.746 -0.463359 1.63667 0
M  V30 3371 O 317.931 -0.36274 1.90782 0
M  V30 3372 C 315.061 -0.235603 3.465 0
M  V30 3373 C 314.015 0.631593 4.23314 0
M  V30 3374 C 313.341 -0.223923 5.34231 0
M  V30 3375 C 314.641 1.90871 4.86174 0
M  V30 3376 H 316.335 1.34822 2.67326 0
M  V30 3377 H 313.881 0.649728 1.28509 0
M  V30 3378 H 315.834 -0.570882 4.17515 0
M  V30 3379 H 314.558 -1.12877 3.06474 0
M  V30 3380 H 313.217 0.949929 3.54079 0
M  V30 3381 H 312.865 -1.11678 4.90446 0
M  V30 3382 H 312.565 0.35299 5.86539 0
M  V30 3383 H 314.089 -0.554214 6.0808 0
M  V30 3384 H 315.503 1.63997 5.49343 0
M  V30 3385 H 313.9 2.43112 5.4865 0
M  V30 3386 H 314.97 2.61304 4.08471 0
M  V30 3387 N 316.313 -1.40141 0.720998 0
M  V30 3388 C 317.223 -2.34486 0.0731031 0
M  V30 3389 C 318.239 -1.57587 -0.737723 0
M  V30 3390 O 319.415 -1.89949 -0.669429 0
M  V30 3391 C 316.48 -3.36528 -0.833656 0
M  V30 3392 C 315.541 -4.29298 -0.0121673 0
M  V30 3393 C 314.774 -5.26466 -0.875742 0
M  V30 3394 O 314.997 -5.29745 -2.11485 0
M  V30 3395 O 313.931 -6.01092 -0.31185 0
M  V30 3396 H 317.757 -2.9152 0.851444 0
M  V30 3397 H 315.342 -1.41427 0.481527 0
M  V30 3398 H 317.224 -3.99093 -1.35289 0
M  V30 3399 H 315.899 -2.81899 -1.59105 0
M  V30 3400 H 314.806 -3.70001 0.552262 0
M  V30 3401 H 316.139 -4.87094 0.707129 0
M  V30 3402 N 317.792 -0.46758 -1.50504 0
M  V30 3403 C 318.739 0.328413 -2.28452 0
M  V30 3404 C 319.709 0.990313 -1.33349 0
M  V30 3405 O 320.894 1.00343 -1.62284 0
M  V30 3406 C 318.034 1.40648 -3.15138 0
M  V30 3407 C 317.147 0.759709 -4.25267 0
M  V30 3408 C 316.282 1.81537 -4.99217 0
M  V30 3409 C 315.321 1.14866 -6.01226 0
M  V30 3410 N 314.458 2.14702 -6.68467 0
M  V30 3411 H 319.298 -0.342603 -2.96024 0
M  V30 3412 H 316.835 -0.180801 -1.45985 0
M  V30 3413 H 318.793 2.04315 -3.63746 0
M  V30 3414 H 317.423 2.04671 -2.49619 0
M  V30 3415 H 316.475 0.0105671 -3.80399 0
M  V30 3416 H 317.787 0.233243 -4.98254 0
M  V30 3417 H 316.941 2.52793 -5.51526 0
M  V30 3418 H 315.68 2.37564 -4.25928 0
M  V30 3419 H 314.685 0.42171 -5.4818 0
M  V30 3420 H 315.91 0.595334 -6.76485 0
M  V30 3421 H 313.856 2.69752 -5.97972 0
M  V30 3422 H 313.773 1.6703 -7.37317 0
M  V30 3423 H 315.041 2.85348 -7.25394 0
M  V30 3424 N 319.27 1.56325 -0.20005 0
M  V30 3425 C 320.202 2.16555 0.750771 0
M  V30 3426 C 321.215 1.12871 1.1732 0
M  V30 3427 O 322.404 1.39943 1.10807 0
M  V30 3428 C 319.504 2.71684 2.02586 0
M  V30 3429 C 318.677 4.00321 1.76244 0
M  V30 3430 C 317.736 4.40227 2.88248 0
M  V30 3431 O 316.762 5.07552 2.57642 0
M  V30 3432 N 317.964 4.04138 4.16717 0
M  V30 3433 H 320.729 2.98772 0.235685 0
M  V30 3434 H 318.29 1.6189 -0.0182594 0
M  V30 3435 H 320.282 2.95363 2.76664 0
M  V30 3436 H 318.852 1.93893 2.45202 0
M  V30 3437 H 318.072 3.84723 0.85919 0
M  V30 3438 H 319.36 4.84279 1.56048 0
M  V30 3439 H 318.758 3.49993 4.44434 0
M  V30 3440 H 317.315 4.32756 4.87407 0
M  V30 3441 N 320.748 -0.0735177 1.57428 0
M  V30 3442 C 321.678 -1.0879 2.06608 0
M  V30 3443 C 322.659 -1.40473 0.959237 0
M  V30 3444 O 323.844 -1.5013 1.23185 0
M  V30 3445 C 320.974 -2.40183 2.50857 0
M  V30 3446 C 319.928 -2.22858 3.65402 0
M  V30 3447 C 319.254 -3.59619 3.957 0
M  V30 3448 C 320.554 -1.65123 4.95511 0
M  V30 3449 H 322.248 -0.678673 2.91607 0
M  V30 3450 H 319.794 -0.325013 1.40284 0
M  V30 3451 H 321.747 -3.11437 2.83874 0
M  V30 3452 H 320.471 -2.83083 1.62885 0
M  V30 3453 H 319.13 -1.54045 3.32664 0
M  V30 3454 H 318.778 -4.00086 3.04861 0
M  V30 3455 H 318.478 -3.48866 4.72828 0
M  V30 3456 H 320.002 -4.32306 4.31212 0
M  V30 3457 H 321.416 -2.26241 5.26771 0
M  V30 3458 H 319.813 -1.65071 5.7695 0
M  V30 3459 H 320.883 -0.612559 4.81015 0
M  V30 3460 N 322.226 -1.5378 -0.344866 0
M  V30 3461 C 323.156 -1.84662 -1.42906 0
M  V30 3462 C 324.137 -0.701648 -1.54955 0
M  V30 3463 O 325.322 -0.953438 -1.69184 0
M  V30 3464 C 322.452 -2.05503 -2.79974 0
M  V30 3465 C 321.406 -3.21318 -2.82734 0
M  V30 3466 C 320.732 -3.2749 -4.22675 0
M  V30 3467 C 322.032 -4.59456 -2.48389 0
M  V30 3468 H 323.726 -2.75461 -1.17311 0
M  V30 3469 H 321.272 -1.32542 -0.562896 0
M  V30 3470 H 323.225 -2.25691 -3.55867 0
M  V30 3471 H 321.949 -1.11434 -3.07002 0
M  V30 3472 H 320.608 -3.00984 -2.09294 0
M  V30 3473 H 320.256 -2.31019 -4.4681 0
M  V30 3474 H 319.956 -4.05316 -4.25433 0
M  V30 3475 H 321.48 -3.49887 -5.00412 0
M  V30 3476 H 322.894 -4.79667 -3.13995 0
M  V30 3477 H 321.291 -5.39675 -2.62432 0
M  V30 3478 H 322.361 -4.63155 -1.4358 0
M  V30 3479 N 323.704 0.605807 -1.45491 0
M  V30 3480 C 324.636 1.73031 -1.5031 0
M  V30 3481 C 325.649 1.57968 -0.393687 0
M  V30 3482 O 326.838 1.65817 -0.660839 0
M  V30 3483 C 323.938 3.11049 -1.34543 0
M  V30 3484 C 323.111 3.52334 -2.59189 0
M  V30 3485 C 322.17 4.69323 -2.37954 0
M  V30 3486 O 321.196 4.7635 -3.11575 0
M  V30 3487 N 322.398 5.62705 -1.4263 0
M  V30 3488 H 325.163 1.6936 -2.4726 0
M  V30 3489 H 322.724 0.79114 -1.41254 0
M  V30 3490 H 324.716 3.87071 -1.18144 0
M  V30 3491 H 323.286 3.09217 -0.458623 0
M  V30 3492 H 322.506 2.66256 -2.90691 0
M  V30 3493 H 323.794 3.76677 -3.42041 0
M  V30 3494 H 323.192 5.59744 -0.818758 0
M  V30 3495 H 321.749 6.38252 -1.32202 0
M  V30 3496 N 325.182 1.32811 0.848464 0
M  V30 3497 C 326.145 1.22194 1.9391 0
M  V30 3498 C 327.145 0.143404 1.60159 0
M  V30 3499 O 328.335 0.394253 1.6968 0
M  V30 3500 C 325.467 0.88067 3.29328 0
M  V30 3501 H 326.66 2.19127 2.04752 0
M  V30 3502 H 324.213 1.16731 1.0394 0
M  V30 3503 H 324.948 -0.0865776 3.24184 0
M  V30 3504 H 324.733 1.66052 3.55203 0
M  V30 3505 H 326.223 0.830871 4.09251 0
M  V30 3506 N 326.66 -1.06551 1.16123 0
M  V30 3507 C 327.608 -2.16063 0.861371 0
M  V30 3508 C 328.602 -1.6856 -0.168517 0
M  V30 3509 O 329.808 -1.79986 -0.0227579 0
M  V30 3510 H 326.183 -0.705278 0.260934 0
M  V30 3511 H 328.154 -2.38567 1.79244 0
M  V30 3512 C 326.903 -3.45661 0.376018 0
M  V30 3513 H 326.226 -3.82604 1.15992 0
M  V30 3514 H 327.666 -4.23504 0.204951 0
M  V30 3515 C 326.125 -3.24546 -0.903954 0
M  V30 3516 O 326.655 -3.49865 -1.97377 0
M  V30 3517 N 324.861 -2.77992 -0.846679 0
M  V30 3518 H 324.408 -2.57589 0.0241017 0
M  V30 3519 H 324.366 -2.64244 -1.70359 0
M  V30 3520 N 328.138 -0.959301 -1.25041 0
M  V30 3521 C 329.549 -0.65667 -1.74771 0
M  V30 3522 C 329.9 0.827852 -1.77879 0
M  V30 3523 O 329.025 1.64783 -1.40269 0
M  V30 3524 C 329.62 -1.1853 -3.1739 0
M  V30 3525 C 328.179 -0.932734 -3.6466 0
M  V30 3526 C 327.326 -1.32558 -2.43564 0
M  V30 3527 H 330.277 -1.13558 -1.10862 0
M  V30 3528 H 330.298 -0.547582 -3.76539 0
M  V30 3529 H 329.81 -2.26576 -3.15095 0
M  V30 3530 H 327.911 0.13257 -3.72364 0
M  V30 3531 H 328.024 -1.57248 -4.52559 0
M  V30 3532 H 326.388 -0.743956 -2.43593 0
M  V30 3533 H 327.171 -2.41537 -2.43957 0
M  V30 3534 N 329.616 1.39756 -0.72842 0
M  V30 3535 C 330.865 1.99879 -0.270407 0
M  V30 3536 C 331.178 1.58449 1.14688 0
M  V30 3537 O 332.384 2.11362 1.70407 0
M  V30 3538 C 330.84 3.57292 -0.43252 0
M  V30 3539 C 330.448 4.07688 -1.85727 0
M  V30 3540 C 332.192 4.24485 -0.0359507 0
M  V30 3541 C 330.099 5.5765 -1.96928 0
M  V30 3542 H 329.029 0.747689 -0.0973472 0
M  V30 3543 H 331.68 1.59837 -0.901355 0
M  V30 3544 H 330.062 3.95097 0.267219 0
M  V30 3545 H 331.236 3.81231 -2.58843 0
M  V30 3546 H 329.551 3.53135 -2.20646 0
M  V30 3547 H 332.148 5.34609 -0.0987484 0
M  V30 3548 H 332.491 4.03915 1.00787 0
M  V30 3549 H 333.024 3.9183 -0.686604 0
M  V30 3550 H 329.763 5.8309 -2.99476 0
M  V30 3551 H 329.283 5.8593 -1.28241 0
M  V30 3552 H 330.962 6.22957 -1.74737 0
M  V30 3553 N 331.094 0.475555 1.50254 0
M  V30 3554 C 332.024 -0.30611 2.31485 0
M  V30 3555 C 333.005 -0.986228 1.38591 0
M  V30 3556 O 334.19 -0.982541 1.67511 0
M  V30 3557 C 331.32 -1.38588 3.1845 0
M  V30 3558 C 330.274 -0.827115 4.19932 0
M  V30 3559 C 329.6 -2.00551 4.95665 0
M  V30 3560 C 330.9 0.16463 5.2204 0
M  V30 3561 H 332.594 0.371866 2.97082 0
M  V30 3562 H 330.14 0.180282 1.42867 0
M  V30 3563 H 332.093 -1.94023 3.74076 0
M  V30 3564 H 330.817 -2.09269 2.50747 0
M  V30 3565 H 329.476 -0.294702 3.65414 0
M  V30 3566 H 329.124 -2.6994 4.2443 0
M  V30 3567 H 328.824 -1.63784 5.64313 0
M  V30 3568 H 330.348 -2.56468 5.54127 0
M  V30 3569 H 331.762 -0.300699 5.72511 0
M  V30 3570 H 330.159 0.446813 5.98434 0
M  V30 3571 H 331.229 1.08905 4.72512 0
M  V30 3572 N 332.573 -1.56217 0.208337 0
M  V30 3573 C 333.483 -2.23316 -0.718836 0
M  V30 3574 C 334.499 -1.23648 -1.22422 0
M  V30 3575 O 335.675 -1.56423 -1.26861 0
M  V30 3576 C 332.74 -2.88968 -1.91568 0
M  V30 3577 C 331.801 -4.03943 -1.45357 0
M  V30 3578 C 331.034 -4.66455 -2.59337 0
M  V30 3579 O 331.257 -4.27919 -3.77149 0
M  V30 3580 O 330.191 -5.55686 -2.31293 0
M  V30 3581 H 334.017 -3.03182 -0.177315 0
M  V30 3582 H 331.602 -1.49384 -0.0215402 0
M  V30 3583 H 333.484 -3.30455 -2.61491 0
M  V30 3584 H 332.159 -2.12071 -2.44556 0
M  V30 3585 H 331.066 -3.67052 -0.722746 0
M  V30 3586 H 332.399 -4.82543 -0.970219 0
M  V30 3587 N 334.051 0.0651679 -1.57465 0
M  V30 3588 C 335.014 1.06117 -2.03155 0
M  V30 3589 C 336.014 1.31204 -0.929632 0
M  V30 3590 O 337.204 1.26813 -1.19432 0
M  V30 3591 C 334.336 2.4032 -2.41783 0
M  V30 3592 H 335.529 0.667231 -2.92383 0
M  V30 3593 H 333.082 0.311075 -1.53173 0
M  V30 3594 H 333.817 2.84532 -1.55601 0
M  V30 3595 H 333.602 2.23451 -3.22199 0
M  V30 3596 H 335.092 3.11898 -2.77685 0
M  V30 3597 N 335.529 1.53961 0.336706 0
M  V30 3598 C 336.776 1.71536 1.07618 0
M  V30 3599 C 337.104 0.482125 1.8843 0
M  V30 3600 O 336.359 -0.536142 1.88213 0
M  V30 3601 C 336.658 2.93493 2.03953 0
M  V30 3602 C 336.324 4.28811 1.39399 0
M  V30 3603 C 334.986 4.65602 1.21523 0
M  V30 3604 C 337.338 5.12844 0.929541 0
M  V30 3605 C 334.666 5.84037 0.558312 0
M  V30 3606 C 337.018 6.31951 0.286505 0
M  V30 3607 C 335.682 6.67432 0.0954869 0
M  V30 3608 H 334.952 0.627696 0.393801 0
M  V30 3609 H 337.599 1.88186 0.354715 0
M  V30 3610 H 335.904 2.71475 2.82504 0
M  V30 3611 H 337.601 3.04285 2.61174 0
M  V30 3612 H 334.191 3.99858 1.54311 0
M  V30 3613 H 338.375 4.84947 1.05548 0
M  V30 3614 H 333.631 6.10097 0.398995 0
M  V30 3615 H 337.805 6.96352 -0.0814376 0
M  V30 3616 H 335.432 7.59063 -0.415579 0
M  V30 3617 N 337.007 -0.598083 1.45811 0
M  V30 3618 C 338.255 -1.35413 1.50026 0
M  V30 3619 C 338.576 -1.94444 0.147177 0
M  V30 3620 O 337.846 -1.77701 -0.824571 0
M  V30 3621 H 336.426 -0.502727 0.552517 0
M  V30 3622 H 339.088 -0.701606 1.81834 0
M  V30 3623 H 338.184 -2.16871 2.2444 0
M  V30 3624 N 338.485 -1.33259 -0.841409 0
M  V30 3625 C 339.433 -1.23279 -1.97244 0
M  V30 3626 C 340.427 -0.134706 -1.68864 0
M  V30 3627 O 341.633 -0.298501 -1.77508 0
M  V30 3628 H 338.008 -0.382497 -0.647457 0
M  V30 3629 H 339.979 -2.18906 -2.02787 0
M  V30 3630 C 338.728 -0.986268 -3.33419 0
M  V30 3631 H 338.051 -1.82347 -3.55794 0
M  V30 3632 H 339.491 -0.956728 -4.13065 0
M  V30 3633 C 337.95 0.310842 -3.35463 0
M  V30 3634 O 338.48 1.31838 -3.79449 0
M  V30 3635 N 336.686 0.337485 -2.88634 0
M  V30 3636 H 336.233 -0.482967 -2.53032 0
M  V30 3637 H 336.191 1.20518 -2.90384 0
M  V30 3638 N 339.963 1.05934 -1.16686 0
M  V30 3639 C 340.926 2.11669 -0.879144 0
M  V30 3640 C 341.926 1.60294 0.127445 0
M  V30 3641 O 343.116 1.7389 -0.103865 0
M  V30 3642 C 340.248 3.39438 -0.315425 0
M  V30 3643 H 341.441 2.38626 -1.81653 0
M  V30 3644 H 338.994 1.22058 -0.976299 0
M  V30 3645 H 339.729 3.18132 0.629468 0
M  V30 3646 H 339.514 3.78034 -1.04079 0
M  V30 3647 H 341.004 4.17391 -0.132189 0
M  V30 3648 N 341.441 0.965919 1.2453 0
M  V30 3649 C 342.388 0.49402 2.25451 0
M  V30 3650 C 343.358 -0.45948 1.59618 0
M  V30 3651 O 344.543 -0.370238 1.87173 0
M  V30 3652 C 341.683 -0.211359 3.44452 0
M  V30 3653 C 340.796 0.7807 4.24887 0
M  V30 3654 C 339.931 0.0516105 5.31175 0
M  V30 3655 C 338.97 1.03385 6.03306 0
M  V30 3656 N 338.107 0.334887 7.01301 0
M  V30 3657 H 342.947 1.35946 2.65184 0
M  V30 3658 H 340.484 0.681515 1.3036 0
M  V30 3659 H 342.442 -0.637 4.12308 0
M  V30 3660 H 341.072 -1.04077 3.05562 0
M  V30 3661 H 340.124 1.32479 3.56586 0
M  V30 3662 H 341.436 1.52978 4.74762 0
M  V30 3663 H 340.59 -0.432114 6.05159 0
M  V30 3664 H 339.329 -0.730179 4.82203 0
M  V30 3665 H 338.334 1.52847 5.28127 0
M  V30 3666 H 339.559 1.81606 6.54367 0
M  V30 3667 H 337.505 -0.427959 6.54603 0
M  V30 3668 H 337.422 1.02287 7.49048 0
M  V30 3669 H 338.69 -0.126928 7.79397 0
M  V30 3670 N 342.919 -1.39368 0.735821 0
M  V30 3671 C 344.147 -2.04795 0.294393 0
M  V30 3672 C 344.562 -1.55478 -1.07107 0
M  V30 3673 O 343.919 -0.720038 -1.67695 0
M  V30 3674 C 343.97 -3.6035 0.288071 0
M  V30 3675 O 343.691 -4.07852 1.59963 0
M  V30 3676 C 345.192 -4.42976 -0.169422 0
M  V30 3677 H 342.412 -0.658571 0.128551 0
M  V30 3678 H 344.956 -1.78399 0.999701 0
M  V30 3679 H 343.111 -3.85645 -0.368355 0
M  V30 3680 H 343.525 -5.02181 1.51375 0
M  V30 3681 H 344.999 -5.51864 -0.122687 0
M  V30 3682 H 345.476 -4.22068 -1.21472 0
M  V30 3683 H 346.082 -4.22832 0.457469 0
M  V30 3684 N 344.397 -0.483516 -1.5 0
M  V30 3685 C 345.643 0.0672592 -2.02688 0
M  V30 3686 C 345.976 1.38247 -1.36387 0
M  V30 3687 O 345.251 1.88131 -0.493675 0
M  V30 3688 C 345.534 0.238109 -3.59312 0
M  V30 3689 C 345.387 -1.099 -4.36168 0
M  V30 3690 C 346.706 0.986916 -4.28892 0
M  V30 3691 H 343.825 0.0229696 -0.736642 0
M  V30 3692 H 346.467 -0.631527 -1.79197 0
M  V30 3693 H 344.617 0.8333 -3.79458 0
M  V30 3694 H 346.289 -1.73172 -4.27562 0
M  V30 3695 H 344.532 -1.69261 -3.99416 0
M  V30 3696 H 345.203 -0.932954 -5.44059 0
M  V30 3697 H 347.679 0.482302 -4.13295 0
M  V30 3698 H 346.555 1.07527 -5.38265 0
M  V30 3699 H 346.816 2.0265 -3.92919 0
M  V30 3700 N 345.875 1.56104 -0.216619 0
M  V30 3701 C 346.822 2.2007 0.695531 0
M  V30 3702 C 347.792 1.15471 1.19397 0
M  V30 3703 O 348.977 1.43807 1.25396 0
M  V30 3704 C 346.117 2.88073 1.90021 0
M  V30 3705 C 345.23 4.07253 1.44113 0
M  V30 3706 C 344.365 4.63052 2.603 0
M  V30 3707 C 343.404 5.74545 2.11103 0
M  V30 3708 N 342.541 6.24656 3.20545 0
M  V30 3709 H 347.381 2.97655 0.143327 0
M  V30 3710 H 344.918 1.46982 0.0589934 0
M  V30 3711 H 346.876 3.25681 2.60745 0
M  V30 3712 H 345.506 2.13015 2.42538 0
M  V30 3713 H 344.558 3.75164 0.628999 0
M  V30 3714 H 345.87 4.8783 1.04036 0
M  V30 3715 H 345.024 5.03078 3.39113 0
M  V30 3716 H 343.763 3.81628 3.03663 0
M  V30 3717 H 342.768 5.34027 1.3075 0
M  V30 3718 H 343.993 6.57801 1.68746 0
M  V30 3719 H 341.939 5.46148 3.63399 0
M  V30 3720 H 341.856 7.00343 2.84704 0
M  V30 3721 H 343.124 6.69338 3.99508 0
M  V30 3722 N 347.353 -0.0568162 1.57498 0
M  V30 3723 C 348.301 -1.08452 2.05769 0
M  V30 3724 C 349.295 -1.39164 0.965903 0
M  V30 3725 O 350.501 -1.38395 1.15095 0
M  V30 3726 H 346.876 -0.367148 0.656282 0
M  V30 3727 H 348.847 -0.651368 2.91204 0
M  V30 3728 C 347.596 -2.38543 2.52968 0
M  V30 3729 H 346.919 -2.15765 3.36579 0
M  V30 3730 H 348.359 -3.08863 2.90481 0
M  V30 3731 C 346.818 -3.05562 1.41893 0
M  V30 3732 O 347.348 -3.94262 0.769442 0
M  V30 3733 N 345.554 -2.6643 1.16032 0
M  V30 3734 H 345.101 -1.94387 1.6903 0
M  V30 3735 H 345.059 -3.11593 0.419219 0
M  V30 3736 N 348.832 -1.54138 -0.328536 0
M  V30 3737 C 350.109 -1.62749 -1.08499 0
M  V30 3738 C 350.489 -0.458198 -2.06067 0
M  V30 3739 O 349.837 0.548046 -2.2183 0
M  V30 3740 C 350.047 -2.99519 -1.79135 0
M  V30 3741 C 351.395 -3.55394 -2.32337 0
M  V30 3742 O 352.419 -3.01792 -1.89209 0
M  V30 3743 O 351.278 -4.49186 -3.11279 0
M  V30 3744 H 348.372 -0.65886 -0.499832 0
M  V30 3745 H 350.918 -1.66484 -0.328826 0
M  V30 3746 H 349.69 -3.76061 -1.08139 0
M  V30 3747 H 349.313 -2.99441 -2.61574 0
M  V30 3748 N 350.31 0.590341 -1.46126 0
M  V30 3749 C 351.258 1.72105 -1.5647 0
M  V30 3750 C 352.252 1.63756 -0.433612 0
M  V30 3751 O 353.458 1.69342 -0.610194 0
M  V30 3752 H 349.833 0.568889 -0.491802 0
M  V30 3753 H 351.804 1.6051 -2.51553 0
M  V30 3754 C 350.553 3.10493 -1.56491 0
M  V30 3755 H 349.876 3.17583 -2.4286 0
M  V30 3756 H 351.316 3.8939 -1.67785 0
M  V30 3757 C 349.775 3.3563 -0.292231 0
M  V30 3758 O 350.305 3.96875 0.620739 0
M  V30 3759 N 348.511 2.90026 -0.182523 0
M  V30 3760 H 348.058 2.40367 -0.926356 0
M  V30 3761 H 348.016 3.07218 0.668152 0
M  V30 3762 N 351.788 1.33704 0.83433 0
M  V30 3763 C 353.013 1.28615 1.62705 0
M  V30 3764 C 353.438 -0.139242 1.87584 0
M  V30 3765 O 352.796 -1.09734 1.4432 0
M  V30 3766 C 352.844 2.07139 2.95171 0
M  V30 3767 O 351.948 1.4331 3.86699 0
M  V30 3768 H 351.289 0.44226 0.49528 0
M  V30 3769 H 353.819 1.76335 1.03766 0
M  V30 3770 H 353.829 2.18073 3.44831 0
M  V30 3771 H 352.504 3.10779 2.76386 0
M  V30 3772 H 351.081 1.4105 3.45195 0
M  V30 3773 N 353.266 -1.05314 1.17247 0
M  V30 3774 C 354.491 -1.82509 0.985148 0
M  V30 3775 C 354.916 -1.82343 -0.461788 0
M  V30 3776 O 354.274 -1.23151 -1.33055 0
M  V30 3777 C 354.322 -3.26566 1.52929 0
M  V30 3778 O 353.426 -4.05666 0.742225 0
M  V30 3779 H 352.767 -0.564347 0.349869 0
M  V30 3780 H 355.297 -1.32718 1.55715 0
M  V30 3781 H 355.307 -3.77369 1.55103 0
M  V30 3782 H 353.982 -3.26001 2.58256 0
M  V30 3783 H 352.559 -3.64397 0.791794 0
M  V30 3784 N 354.744 -0.972509 -1.24016 0
M  V30 3785 C 356.16 -0.679827 -1.44397 0
M  V30 3786 C 356.36 0.756716 -1.86751 0
M  V30 3787 O 355.416 1.53007 -2.00861 0
M  V30 3788 C 356.729 -1.66803 -2.50195 0
M  V30 3789 C 358.277 -1.68119 -2.64017 0
M  V30 3790 C 358.752 -2.65748 -3.73017 0
M  V30 3791 N 360.243 -2.64219 -3.8045 0
M  V30 3792 C 360.978 -3.36433 -4.64328 0
M  V30 3793 N 360.474 -4.1818 -5.52356 0
M  V30 3794 N 362.267 -3.25235 -4.58453 0
M  V30 3795 H 354.418 -1.90059 -0.948228 0
M  V30 3796 H 356.681 -0.818527 -0.478245 0
M  V30 3797 H 356.387 -2.69498 -2.25973 0
M  V30 3798 H 356.261 -1.4446 -3.48441 0
M  V30 3799 H 358.648 -0.661319 -2.87594 0
M  V30 3800 H 358.729 -1.94525 -1.66113 0
M  V30 3801 H 358.373 -3.67872 -3.50189 0
M  V30 3802 H 358.303 -2.36619 -4.70446 0
M  V30 3803 H 360.794 -2.04887 -3.17537 0
M  V30 3804 H 361.107 -4.70157 -6.13329 0
M  V30 3805 H 359.452 -4.22273 -5.52006 0
M  V30 3806 H 362.643 -2.60829 -3.88698 0
M  V30 3807 H 362.816 -3.81776 -5.23594 0
M  V30 3808 N 356.222 1.38976 -0.743202 0
M  V30 3809 C 357.469 2.00343 -0.294752 0
M  V30 3810 C 357.797 1.58983 1.12047 0
M  V30 3811 O 357.052 0.813809 1.77977 0
M  V30 3812 C 357.351 3.55647 -0.353517 0
M  V30 3813 C 357.017 4.16685 -1.72292 0
M  V30 3814 C 355.679 4.3307 -2.09771 0
M  V30 3815 C 358.031 4.50464 -2.62168 0
M  V30 3816 C 355.359 4.80526 -3.36618 0
M  V30 3817 C 357.711 4.99332 -3.88395 0
M  V30 3818 C 356.375 5.13924 -4.25956 0
M  V30 3819 H 355.645 0.733108 -0.107857 0
M  V30 3820 H 358.292 1.6618 -0.951651 0
M  V30 3821 H 356.597 3.89884 0.386954 0
M  V30 3822 H 358.294 4.00998 0.0117269 0
M  V30 3823 H 354.884 4.04339 -1.42155 0
M  V30 3824 H 359.068 4.37416 -2.3448 0
M  V30 3825 H 354.324 4.90008 -3.65653 0
M  V30 3826 H 358.498 5.2444 -4.58187 0
M  V30 3827 H 356.125 5.50457 -5.2431 0
M  V30 3828 N 357.7 0.491464 1.49741 0
M  V30 3829 C 358.948 -0.0563141 2.02022 0
M  V30 3830 C 359.269 -1.38363 1.37407 0
M  V30 3831 O 358.539 -1.88702 0.526166 0
M  V30 3832 H 357.119 -0.0238014 0.746621 0
M  V30 3833 H 359.781 0.646533 1.83864 0
M  V30 3834 H 358.877 -0.192967 3.11503 0
M  V30 3835 N 359.178 -1.55987 0.224894 0
M  V30 3836 C 360.125 -2.20436 -0.68385 0
M  V30 3837 C 361.095 -1.16102 -1.18783 0
M  V30 3838 O 362.28 -1.4447 -1.24632 0
M  V30 3839 C 359.42 -2.89076 -1.88491 0
M  V30 3840 C 358.533 -4.08012 -1.41951 0
M  V30 3841 C 357.668 -4.64426 -2.5784 0
M  V30 3842 C 356.707 -5.75656 -2.08053 0
M  V30 3843 N 355.844 -6.26347 -3.17227 0
M  V30 3844 H 360.684 -2.97727 -0.12754 0
M  V30 3845 H 358.221 -1.47011 -0.0511978 0
M  V30 3846 H 360.179 -3.27059 -2.59014 0
M  V30 3847 H 358.809 -2.14298 -2.41405 0
M  V30 3848 H 357.861 -3.75492 -0.609095 0
M  V30 3849 H 359.173 -4.88375 -1.01447 0
M  V30 3850 H 358.327 -5.04869 -3.3644 0
M  V30 3851 H 357.066 -3.83233 -3.01635 0
M  V30 3852 H 356.071 -5.34712 -1.27916 0
M  V30 3853 H 357.296 -6.58686 -1.65255 0
M  V30 3854 H 355.242 -5.48067 -3.60497 0
M  V30 3855 H 355.159 -7.01843 -2.80986 0
M  V30 3856 H 356.427 -6.71447 -3.95953 0
M  V30 3857 N 360.656 0.0484629 -1.57525 0
M  V30 3858 C 361.903 0.743125 -1.88372 0
M  V30 3859 C 362.231 1.76383 -0.819715 0
M  V30 3860 O 361.486 1.94855 0.181659 0
M  V30 3861 C 361.785 1.46632 -3.25935 0
M  V30 3862 C 361.451 0.583427 -4.4711 0
M  V30 3863 C 360.113 0.340191 -4.79996 0
M  V30 3864 C 362.465 -0.0273345 -5.21193 0
M  V30 3865 C 359.793 -0.522903 -5.84365 0
M  V30 3866 C 362.145 -0.878017 -6.26477 0
M  V30 3867 C 360.809 -1.1309 -6.5785 0
M  V30 3868 H 360.079 0.271929 -0.689301 0
M  V30 3869 H 362.726 0.00336166 -1.915 0
M  V30 3870 H 361.031 2.2789 -3.18706 0
M  V30 3871 H 362.728 2.00902 -3.47044 0
M  V30 3872 H 359.318 0.783151 -4.21384 0
M  V30 3873 H 363.502 0.147654 -4.9608 0
M  V30 3874 H 358.758 -0.727335 -6.07058 0
M  V30 3875 H 362.932 -1.35789 -6.83033 0
M  V30 3876 H 360.559 -1.80144 -7.38547 0
M  V30 3877 N 362.134 1.5431 0.320358 0
M  V30 3878 C 363.383 1.7188 1.05546 0
M  V30 3879 C 363.696 0.501143 1.89071 0
M  V30 3880 O 364.902 0.558258 2.65699 0
M  V30 3881 C 363.358 3.04025 1.92605 0
M  V30 3882 C 362.966 4.33207 1.14176 0
M  V30 3883 C 364.71 3.30959 2.65832 0
M  V30 3884 C 362.617 5.56412 2.00399 0
M  V30 3885 H 361.547 0.640547 0.397763 0
M  V30 3886 H 364.198 1.80802 0.313522 0
M  V30 3887 H 362.58 2.89019 2.7071 0
M  V30 3888 H 363.754 4.58989 0.40819 0
M  V30 3889 H 362.069 4.13062 0.526165 0
M  V30 3890 H 364.666 4.20203 3.30656 0
M  V30 3891 H 365.009 2.48979 3.33639 0
M  V30 3892 H 365.542 3.46847 1.94787 0
M  V30 3893 H 362.281 6.41004 1.37094 0
M  V30 3894 H 361.801 5.34844 2.7148 0
M  V30 3895 H 363.48 5.92938 2.58908 0
M  V30 3896 N 363.613 -0.582584 1.46437 0
M  V30 3897 C 365.029 -0.905962 1.31394 0
M  V30 3898 C 365.229 -1.99468 0.285476 0
M  V30 3899 O 364.285 -2.50566 -0.311914 0
M  V30 3900 C 365.598 -1.3232 2.70022 0
M  V30 3901 C 367.146 -1.43604 2.78113 0
M  V30 3902 C 367.621 -1.88694 4.17323 0
M  V30 3903 N 369.112 -1.95887 4.19741 0
M  V30 3904 C 369.847 -2.32051 5.24347 0
M  V30 3905 N 369.343 -2.67006 6.39281 0
M  V30 3906 N 371.136 -2.32606 5.11713 0
M  V30 3907 H 363.287 0.1366 2.1196 0
M  V30 3908 H 365.55 -0.00155736 0.947999 0
M  V30 3909 H 365.256 -0.597242 3.46592 0
M  V30 3910 H 365.13 -2.28469 3.00136 0
M  V30 3911 H 367.517 -2.15286 2.01832 0
M  V30 3912 H 367.598 -0.457059 2.51684 0
M  V30 3913 H 367.242 -1.1759 4.941 0
M  V30 3914 H 367.172 -2.8755 4.4116 0
M  V30 3915 H 369.663 -1.71362 3.36814 0
M  V30 3916 H 369.976 -2.93554 7.14875 0
M  V30 3917 H 368.321 -2.64644 6.42642 0
M  V30 3918 H 371.512 -2.04721 4.2096 0
M  V30 3919 H 371.685 -2.60462 5.93349 0
M  V30 3920 N 365.091 -1.34144 -0.827227 0
M  V30 3921 C 366.34 -1.25602 -1.5782 0
M  V30 3922 C 366.653 0.173445 -1.94829 0
M  V30 3923 O 367.859 0.380984 -2.68814 0
M  V30 3924 C 366.315 -2.20151 -2.84713 0
M  V30 3925 C 365.923 -3.68331 -2.55021 0
M  V30 3926 C 367.667 -2.20508 -3.62735 0
M  V30 3927 C 365.574 -4.54762 -3.78082 0
M  V30 3928 H 364.504 -0.466573 -0.592306 0
M  V30 3929 H 367.155 -1.59283 -0.911116 0
M  V30 3930 H 365.537 -1.79417 -3.53023 0
M  V30 3931 H 366.711 -4.17577 -1.94849 0
M  V30 3932 H 365.026 -3.7038 -1.90283 0
M  V30 3933 H 367.623 -2.82306 -4.54101 0
M  V30 3934 H 367.966 -1.20322 -3.98533 0
M  V30 3935 H 368.499 -2.59664 -3.01362 0
M  V30 3936 H 365.238 -5.55867 -3.47407 0
M  V30 3937 H 364.758 -4.10254 -4.37552 0
M  V30 3938 H 366.437 -4.69153 -4.45538 0
M  V30 3939 N 366.569 1.04691 -1.17803 0
M  V30 3940 C 367.517 2.14665 -0.895635 0
M  V30 3941 C 368.511 1.68806 0.141679 0
M  V30 3942 O 369.717 1.79999 -0.00587914 0
M  V30 3943 H 366.092 0.701038 -0.272121 0
M  V30 3944 H 368.063 2.35685 -1.83017 0
M  V30 3945 C 366.812 3.45019 -0.430962 0
M  V30 3946 H 366.135 3.8071 -1.22064 0
M  V30 3947 H 367.575 4.23125 -0.272301 0
M  V30 3948 C 366.034 3.25943 0.852207 0
M  V30 3949 O 366.564 3.5296 1.91786 0
M  V30 3950 N 364.77 2.79304 0.802346 0
M  V30 3951 H 364.317 2.57518 -0.0650788 0
M  V30 3952 H 364.275 2.66921 1.66134 0
M  V30 3953 N 368.047 0.979072 1.23499 0
M  V30 3954 C 369.294 0.647219 1.91878 0
M  V30 3955 C 369.622 -0.819074 1.76413 0
M  V30 3956 O 368.877 -1.60616 1.11808 0
M  V30 3957 C 369.176 0.981932 3.43646 0
M  V30 3958 C 368.842 2.43822 3.79291 0
M  V30 3959 C 367.504 2.83622 3.88731 0
M  V30 3960 C 369.856 3.3828 3.96505 0
M  V30 3961 C 367.184 4.16897 4.12812 0
M  V30 3962 C 369.536 4.71197 4.22085 0
M  V30 3963 C 368.2 5.10758 4.29747 0
M  V30 3964 H 367.47 0.236834 0.702133 0
M  V30 3965 H 370.117 1.23268 1.46551 0
M  V30 3966 H 368.422 0.314365 3.90537 0
M  V30 3967 H 370.119 0.703395 3.94783 0
M  V30 3968 H 366.709 2.11966 3.72516 0
M  V30 3969 H 370.893 3.0871 3.88603 0
M  V30 3970 H 366.149 4.47157 4.16966 0
M  V30 3971 H 370.323 5.44348 4.34348 0
M  V30 3972 H 367.95 6.1405 4.48159 0
M  V30 3973 N 369.525 -1.3858 0.750561 0
M  V30 3974 C 370.802 -1.94231 0.231009 0
M  V30 3975 C 371.182 -1.68611 -1.27018 0
M  V30 3976 O 370.53 -1.02296 -2.04323 0
M  V30 3977 C 370.74 -3.44123 0.581428 0
M  V30 3978 C 372.088 -4.2116 0.539389 0
M  V30 3979 O 373.112 -3.52391 0.519541 0
M  V30 3980 O 371.971 -5.43749 0.54765 0
M  V30 3981 H 369.065 -0.825639 0.0474263 0
M  V30 3982 H 371.611 -1.4799 0.830478 0
M  V30 3983 H 370.383 -3.56267 1.61833 0
M  V30 3984 H 370.006 -3.97573 -0.0462047 0
M  V30 3985 N 371.003 -0.499398 -1.49478 0
M  V30 3986 C 372.249 0.0457576 -2.02748 0
M  V30 3987 C 372.582 1.36793 -1.37846 0
M  V30 3988 O 371.857 1.87596 -0.513601 0
M  V30 3989 C 372.14 0.199986 -3.59544 0
M  V30 3990 C 371.993 -1.1452 -4.34977 0
M  V30 3991 C 373.312 0.94137 -4.29914 0
M  V30 3992 H 370.431 0.0151552 -0.736844 0
M  V30 3993 H 373.073 -0.650498 -1.78518 0
M  V30 3994 H 371.223 0.793007 -3.8032 0
M  V30 3995 H 372.895 -1.77697 -4.25701 0
M  V30 3996 H 371.138 -1.73488 -3.97598 0
M  V30 3997 H 371.809 -0.990607 -5.43039 0
M  V30 3998 H 374.285 0.43844 -4.13784 0
M  V30 3999 H 373.161 1.01812 -5.39375 0
M  V30 4000 H 373.422 1.98471 -3.95046 0
M  V30 4001 N 372.481 1.55866 -0.233164 0
M  V30 4002 C 373.709 2.02998 0.399905 0
M  V30 4003 C 374.124 1.11274 1.52524 0
M  V30 4004 O 373.481 0.124528 1.82075 0
M  V30 4005 C 373.532 3.4958 0.920639 0
M  V30 4006 O 373.253 4.37808 -0.159834 0
M  V30 4007 C 374.754 4.12411 1.62578 0
M  V30 4008 H 371.974 0.664006 0.0966281 0
M  V30 4009 H 374.518 2.0143 -0.353013 0
M  V30 4010 H 372.673 3.51727 1.62379 0
M  V30 4011 H 373.087 5.23981 0.23337 0
M  V30 4012 H 374.561 5.16711 1.94201 0
M  V30 4013 H 375.038 3.5809 2.54299 0
M  V30 4014 H 375.644 4.14148 0.967553 0
M  V30 4015 N 373.959 -0.0401083 1.57549 0
M  V30 4016 C 375.207 -0.731677 1.8839 0
M  V30 4017 C 375.528 -1.76481 0.829425 0
M  V30 4018 O 374.798 -1.95411 -0.1383 0
M  V30 4019 H 373.378 -0.273225 0.695239 0
M  V30 4020 H 376.04 -0.00867725 1.94898 0
M  V30 4021 H 375.136 -1.22816 2.86919 0
M  V30 4022 N 375.437 -1.54477 -0.31217 0
M  V30 4023 C 376.667 -1.76948 -1.06645 0
M  V30 4024 C 377.075 -0.523593 -1.81811 0
M  V30 4025 O 376.418 0.51578 -1.76311 0
M  V30 4026 C 376.48 -2.91668 -2.10166 0
M  V30 4027 C 376.144 -4.30165 -1.54296 0
M  V30 4028 C 377.141 -5.10603 -0.978793 0
M  V30 4029 C 374.826 -4.76738 -1.58196 0
M  V30 4030 C 376.82 -6.3573 -0.461048 0
M  V30 4031 C 374.507 -6.01831 -1.06034 0
M  V30 4032 C 375.505 -6.81161 -0.500844 0
M  V30 4033 O 375.193 -8.03899 0.0128958 0
M  V30 4034 H 374.925 -0.594088 -0.322546 0
M  V30 4035 H 377.479 -2.02213 -0.360441 0
M  V30 4036 H 375.709 -2.62001 -2.84416 0
M  V30 4037 H 377.398 -3.01817 -2.71406 0
M  V30 4038 H 378.164 -4.75771 -0.941651 0
M  V30 4039 H 374.043 -4.15027 -2.00683 0
M  V30 4040 H 377.587 -6.97596 -0.0236894 0
M  V30 4041 H 373.484 -6.36152 -1.09459 0
M  V30 4042 H 374.252 -8.18437 -0.101457 0
M  V30 4043 N 376.915 0.57481 -1.46744 0
M  V30 4044 C 378.164 1.32898 -1.51727 0
M  V30 4045 C 378.477 1.948 -0.176692 0
M  V30 4046 O 379.683 2.71299 -0.104385 0
M  V30 4047 C 378.139 2.40901 -2.67385 0
M  V30 4048 C 377.747 1.85266 -4.07898 0
M  V30 4049 C 379.491 3.17609 -2.81646 0
M  V30 4050 C 377.398 2.90945 -5.14883 0
M  V30 4051 H 376.328 0.499631 -0.564699 0
M  V30 4052 H 378.979 0.612536 -1.72975 0
M  V30 4053 H 377.361 3.15379 -2.39483 0
M  V30 4054 H 378.535 1.17278 -4.45626 0
M  V30 4055 H 376.85 1.21199 -3.98371 0
M  V30 4056 H 379.447 3.96493 -3.58744 0
M  V30 4057 H 379.79 3.70696 -1.89448 0
M  V30 4058 H 380.323 2.50239 -3.09233 0
M  V30 4059 H 377.062 2.42736 -6.089 0
M  V30 4060 H 376.582 3.57398 -4.81691 0
M  V30 4061 H 378.261 3.54755 -5.41071 0
M  V30 4062 N 378.394 1.34581 0.820102 0
M  V30 4063 C 379.64 1.27285 1.57881 0
M  V30 4064 C 379.973 -0.156137 1.93571 0
M  V30 4065 O 379.248 -1.10222 1.60254 0
M  V30 4066 C 379.531 2.16639 2.87645 0
M  V30 4067 C 379.384 3.68088 2.58517 0
M  V30 4068 C 380.703 2.05378 3.8924 0
M  V30 4069 H 377.822 0.463714 0.572833 0
M  V30 4070 H 380.464 1.64859 0.944539 0
M  V30 4071 H 378.614 1.84725 3.41773 0
M  V30 4072 H 380.286 4.10382 2.10676 0
M  V30 4073 H 378.529 3.89038 1.91917 0
M  V30 4074 H 379.2 4.2598 3.51063 0
M  V30 4075 H 381.676 2.33404 3.44473 0
M  V30 4076 H 380.552 2.7012 4.77835 0
M  V30 4077 H 380.813 1.0316 4.29896 0
M  V30 4078 N 379.872 -1.04064 1.18357 0
M  V30 4079 C 381.12 -1.76915 0.977013 0
M  V30 4080 C 381.441 -1.88624 -0.494577 0
M  V30 4081 O 380.711 -1.41125 -1.3587 0
M  V30 4082 H 379.291 -0.65535 0.358504 0
M  V30 4083 H 381.953 -1.25592 1.49039 0
M  V30 4084 H 381.049 -2.78178 1.41504 0
M  V30 4085 N 381.35 -0.985608 -1.22978 0
M  V30 4086 C 382.313 -0.535071 -2.22867 0
M  V30 4087 C 383.313 0.378123 -1.56291 0
M  V30 4088 O 384.503 0.171092 -1.73358 0
M  V30 4089 C 381.635 0.222702 -3.40172 0
M  V30 4090 H 382.828 -1.41835 -2.6424 0
M  V30 4091 H 380.381 -0.772042 -1.35901 0
M  V30 4092 H 381.116 1.12229 -3.04262 0
M  V30 4093 H 380.901 -0.43288 -3.89703 0
M  V30 4094 H 382.391 0.526335 -4.1427 0
M  V30 4095 N 382.828 1.3818 -0.7579 0
M  V30 4096 C 383.776 2.32277 -0.122482 0
M  V30 4097 C 384.77 1.54238 0.700505 0
M  V30 4098 O 385.976 1.69737 0.599119 0
M  V30 4099 H 382.351 0.751712 -0.0208143 0
M  V30 4100 H 384.322 2.83469 -0.932099 0
M  V30 4101 C 383.071 3.39447 0.753076 0
M  V30 4102 H 382.394 3.99591 0.129184 0
M  V30 4103 H 383.834 4.07684 1.16489 0
M  V30 4104 C 382.293 2.78375 1.8976 0
M  V30 4105 O 382.823 2.68025 2.99208 0
M  V30 4106 N 381.029 2.36121 1.69397 0
M  V30 4107 H 380.576 2.4474 0.803762 0
M  V30 4108 H 380.534 1.95602 2.46145 0
M  V30 4109 N 384.306 0.507319 1.49211 0
M  V30 4110 C 385.555 -0.0368315 2.01666 0
M  V30 4111 C 385.868 -1.37459 1.39156 0
M  V30 4112 O 387.074 -2.00579 1.82976 0
M  V30 4113 C 385.53 -0.116089 3.59713 0
M  V30 4114 C 385.138 1.2154 4.31198 0
M  V30 4115 C 386.882 -0.610268 4.2009 0
M  V30 4116 C 384.789 1.09796 5.81119 0
M  V30 4117 H 383.719 -0.0175376 0.753796 0
M  V30 4118 H 386.37 0.647691 1.71689 0
M  V30 4119 H 384.752 -0.8652 3.86433 0
M  V30 4120 H 385.926 1.9783 4.16173 0
M  V30 4121 H 384.241 1.64352 3.82593 0
M  V30 4122 H 386.838 -0.715742 5.29888 0
M  V30 4123 H 387.181 -1.61064 3.8388 0
M  V30 4124 H 387.714 0.0824916 3.97714 0
M  V30 4125 H 384.453 2.0728 6.21864 0
M  V30 4126 H 383.973 0.376058 5.9862 0
M  V30 4127 H 385.652 0.779281 6.4229 0
M  V30 4128 N 385.784 -1.5574 0.241426 0
M  V30 4129 C 386.694 -2.2479 -0.671305 0
M  V30 4130 C 387.71 -1.26217 -1.19772 0
M  V30 4131 O 388.886 -1.59079 -1.23514 0
M  V30 4132 C 385.951 -2.92966 -1.85396 0
M  V30 4133 C 385.012 -4.06935 -1.36756 0
M  V30 4134 C 384.245 -4.71851 -2.49384 0
M  V30 4135 O 384.468 -4.35823 -3.67987 0
M  V30 4136 O 383.402 -5.60467 -2.19454 0
M  V30 4137 H 387.228 -3.0349 -0.112966 0
M  V30 4138 H 384.813 -1.49397 0.0101513 0
M  V30 4139 H 386.695 -3.35927 -2.54423 0
M  V30 4140 H 385.37 -2.17211 -2.40002 0
M  V30 4141 H 384.277 -3.68503 -0.644726 0
M  V30 4142 H 385.61 -4.84492 -0.867647 0
M  V30 4143 N 387.262 0.0317525 -1.57568 0
M  V30 4144 C 388.49 0.734949 -1.93407 0
M  V30 4145 C 388.905 1.69036 -0.84096 0
M  V30 4146 O 388.262 1.81582 0.182836 0
M  V30 4147 C 388.313 1.49432 -3.29169 0
M  V30 4148 O 388.034 0.577261 -4.3428 0
M  V30 4149 C 389.535 2.29492 -3.79273 0
M  V30 4150 H 386.755 0.206706 -0.638368 0
M  V30 4151 H 389.299 -0.00992046 -2.04498 0
M  V30 4152 H 387.454 2.1911 -3.19483 0
M  V30 4153 H 387.868 1.10952 -5.1263 0
M  V30 4154 H 389.342 2.78172 -4.76785 0
M  V30 4155 H 389.819 3.10794 -3.10328 0
M  V30 4156 H 390.425 1.64894 -3.92033 0
M  V30 4157 N 388.74 1.54641 0.303973 0
M  V30 4158 C 389.97 1.77511 1.05705 0
M  V30 4159 C 390.378 0.533228 1.81531 0
M  V30 4160 O 389.721 -0.506423 1.76582 0
M  V30 4161 C 389.783 2.92779 2.08617 0
M  V30 4162 C 389.447 4.30977 1.52013 0
M  V30 4163 C 390.444 5.11115 0.9517 0
M  V30 4164 C 388.129 4.77571 1.55665 0
M  V30 4165 C 390.123 6.35966 0.427327 0
M  V30 4166 C 387.81 6.02384 1.02841 0
M  V30 4167 C 388.808 6.81417 0.464713 0
M  V30 4168 O 388.496 8.03881 -0.0555283 0
M  V30 4169 H 388.228 0.59579 0.319391 0
M  V30 4170 H 390.782 2.02401 0.349712 0
M  V30 4171 H 389.012 2.63506 2.83022 0
M  V30 4172 H 390.701 3.03252 2.69802 0
M  V30 4173 H 391.467 4.76264 0.916407 0
M  V30 4174 H 387.346 4.16085 1.9848 0
M  V30 4175 H 390.89 6.97599 -0.0133062 0
M  V30 4176 H 386.787 6.36723 1.06084 0
M  V30 4177 H 387.555 8.18479 0.0580522 0
M  V30 4178 N 390.218 -0.567019 1.47046 0
M  V30 4179 C 391.148 -1.68482 1.61667 0
M  V30 4180 C 392.129 -1.6358 0.466418 0
M  V30 4181 O 393.314 -1.81354 0.694574 0
M  V30 4182 C 390.444 -3.07124 1.62148 0
M  V30 4183 C 389.398 -3.26867 2.76301 0
M  V30 4184 C 388.724 -4.66196 2.61849 0
M  V30 4185 C 390.024 -3.13186 4.17986 0
M  V30 4186 H 391.718 -1.56502 2.5524 0
M  V30 4187 H 389.264 -0.751486 1.22836 0
M  V30 4188 H 391.217 -3.8516 1.70968 0
M  V30 4189 H 389.941 -3.2004 0.651287 0
M  V30 4190 H 388.6 -2.51237 2.66975 0
M  V30 4191 H 388.248 -4.75898 1.62879 0
M  V30 4192 H 387.948 -4.80356 3.38425 0
M  V30 4193 H 389.472 -5.46379 2.72584 0
M  V30 4194 H 390.886 -3.81049 4.2834 0
M  V30 4195 H 389.283 -3.3886 4.95272 0
M  V30 4196 H 390.353 -2.10057 4.3704 0
M  V30 4197 N 391.696 -1.35014 -0.812953 0
M  V30 4198 C 392.626 -1.30069 -1.93919 0
M  V30 4199 C 393.607 -0.176275 -1.69184 0
M  V30 4200 O 394.792 -0.370227 -1.90638 0
M  V30 4201 C 391.922 -1.06547 -3.30552 0
M  V30 4202 C 390.876 -2.15561 -3.69753 0
M  V30 4203 C 390.202 -1.77214 -5.04479 0
M  V30 4204 C 391.502 -3.57476 -3.808 0
M  V30 4205 H 393.196 -2.24303 -1.98314 0
M  V30 4206 H 390.742 -1.07977 -0.952736 0
M  V30 4207 H 392.695 -1.01729 -4.08937 0
M  V30 4208 H 391.419 -0.0875719 -3.26483 0
M  V30 4209 H 390.078 -2.19466 -2.9365 0
M  V30 4210 H 389.726 -0.780589 -4.96906 0
M  V30 4211 H 389.426 -2.50184 -5.31678 0
M  V30 4212 H 390.95 -1.7391 -5.8531 0
M  V30 4213 H 392.364 -3.55929 -4.4943 0
M  V30 4214 H 390.761 -4.29152 -4.19462 0
M  V30 4215 H 391.831 -3.94091 -2.82525 0
M  V30 4216 N 393.175 1.03435 -1.18907 0
M  V30 4217 C 394.085 2.15075 -0.937015 0
M  V30 4218 C 395.101 1.73706 0.101085 0
M  V30 4219 O 396.277 2.01232 -0.0822948 0
M  V30 4220 C 393.342 3.43458 -0.473057 0
M  V30 4221 C 392.403 3.99172 -1.57989 0
M  V30 4222 C 391.636 5.21427 -1.13797 0
M  V30 4223 O 391.859 5.704 0.000725941 0
M  V30 4224 O 390.793 5.69837 -1.9383 0
M  V30 4225 H 394.619 2.39198 -1.87131 0
M  V30 4226 H 392.204 1.13506 -0.971427 0
M  V30 4227 H 394.086 4.20811 -0.222702 0
M  V30 4228 H 392.761 3.20793 0.432869 0
M  V30 4229 H 391.668 3.23178 -1.88433 0
M  V30 4230 H 393.001 4.2619 -2.46217 0
M  V30 4231 N 394.653 0.992116 1.22453 0
M  V30 4232 C 395.6 0.541731 2.24352 0
M  V30 4233 C 396.57 -0.425519 1.60557 0
M  V30 4234 O 397.755 -0.330453 1.87917 0
M  V30 4235 C 394.895 -0.138248 3.44823 0
M  V30 4236 C 394.008 0.870649 4.23136 0
M  V30 4237 C 393.143 0.164269 5.30946 0
M  V30 4238 C 392.182 1.16159 6.00977 0
M  V30 4239 N 391.319 0.483568 7.00433 0
M  V30 4240 H 396.159 1.41541 2.62241 0
M  V30 4241 H 393.696 0.709013 1.28885 0
M  V30 4242 H 395.654 -0.5494 4.13567 0
M  V30 4243 H 394.284 -0.975721 3.077 0
M  V30 4244 H 393.336 1.40013 3.53696 0
M  V30 4245 H 394.648 1.63014 4.7141 0
M  V30 4246 H 393.802 -0.303653 6.0594 0
M  V30 4247 H 392.541 -0.627733 4.83643 0
M  V30 4248 H 391.546 1.64015 5.24766 0
M  V30 4249 H 392.771 1.95445 6.50368 0
M  V30 4250 H 390.717 -0.289012 6.55363 0
M  V30 4251 H 390.634 1.18152 7.4671 0
M  V30 4252 H 391.902 0.0384219 7.79491 0
M  V30 4253 N 396.131 -1.37776 0.765217 0
M  V30 4254 C 397.356 -2.04651 0.336537 0
M  V30 4255 C 397.781 -1.57337 -1.03086 0
M  V30 4256 O 397.139 -0.730621 -1.65927 0
M  V30 4257 C 397.187 -3.58577 0.381468 0
M  V30 4258 O 396.291 -4.07706 -0.62042 0
M  V30 4259 H 395.632 -0.64756 0.146838 0
M  V30 4260 H 398.162 -1.76221 1.03959 0
M  V30 4261 H 398.172 -4.07314 0.236448 0
M  V30 4262 H 396.847 -3.9237 1.37907 0
M  V30 4263 H 395.424 -3.70306 -0.439056 0
M  V30 4264 N 397.609 -0.515225 -1.4894 0
M  V30 4265 C 399.025 -0.172099 -1.58669 0
M  V30 4266 C 399.225 1.32405 -1.51892 0
M  V30 4267 O 398.281 2.10116 -1.40027 0
M  V30 4268 C 399.594 -0.761533 -2.90897 0
M  V30 4269 C 401.142 -0.728926 -3.04394 0
M  V30 4270 C 401.617 -1.29667 -4.39261 0
M  V30 4271 N 403.108 -1.25799 -4.4579 0
M  V30 4272 C 403.843 -1.66733 -5.48623 0
M  V30 4273 N 403.339 -2.15327 -6.58488 0
M  V30 4274 N 405.132 -1.58061 -5.39419 0
M  V30 4275 H 397.283 -1.48778 -1.51588 0
M  V30 4276 H 399.546 -0.617968 -0.718901 0
M  V30 4277 H 399.252 -1.81136 -3.01468 0
M  V30 4278 H 399.126 -0.230106 -3.76497 0
M  V30 4279 H 401.513 0.312098 -2.93445 0
M  V30 4280 H 401.594 -1.29766 -2.20442 0
M  V30 4281 H 401.238 -2.33655 -4.50963 0
M  V30 4282 H 401.168 -0.703752 -5.21876 0
M  V30 4283 H 403.659 -0.902102 -3.66975 0
M  V30 4284 H 403.972 -2.44594 -7.33071 0
M  V30 4285 H 402.317 -2.19311 -6.59491 0
M  V30 4286 H 405.508 -1.19906 -4.52482 0
M  V30 4287 H 405.681 -1.90284 -6.19432 0
M  V30 4288 N 399.087 1.5561 -0.249682 0
M  V30 4289 C 400.05 2.20217 0.635394 0
M  V30 4290 C 401.05 1.17227 1.10066 0
M  V30 4291 O 402.24 1.42292 1.00492 0
M  V30 4292 C 399.372 2.84794 1.87363 0
M  V30 4293 H 400.565 2.99814 0.0716752 0
M  V30 4294 H 398.118 1.563 -0.000153234 0
M  V30 4295 H 398.853 2.09142 2.47851 0
M  V30 4296 H 398.638 3.60241 1.5482 0
M  V30 4297 H 400.128 3.3423 2.5036 0
M  V30 4298 N 400.565 -0.0233959 1.57583 0
M  V30 4299 C 401.814 -0.712133 1.8871 0
M  V30 4300 C 402.127 -1.76217 0.848944 0
M  V30 4301 O 403.333 -2.50389 1.04964 0
M  V30 4302 C 401.789 -1.3177 3.3491 0
M  V30 4303 C 401.397 -0.303715 4.46969 0
M  V30 4304 C 403.141 -1.98598 3.75179 0
M  V30 4305 C 401.048 -0.917945 5.84233 0
M  V30 4306 H 399.978 -0.269735 0.704101 0
M  V30 4307 H 402.629 0.0333114 1.8347 0
M  V30 4308 H 401.011 -2.11304 3.34913 0
M  V30 4309 H 402.185 0.465325 4.58445 0
M  V30 4310 H 400.5 0.2628 4.1557 0
M  V30 4311 H 403.097 -2.45416 4.75053 0
M  V30 4312 H 403.44 -2.80659 3.07468 0
M  V30 4313 H 403.973 -1.25831 3.77374 0
M  V30 4314 H 400.712 -0.136633 6.55358 0
M  V30 4315 H 400.232 -1.65669 5.76467 0
M  V30 4316 H 401.911 -1.4236 6.31144 0
M  V30 4317 N 402.043 -1.548 -0.295768 0
M  V30 4318 C 403.459 -1.4613 -0.641722 0
M  V30 4319 C 403.659 -0.656771 -1.90496 0
M  V30 4320 O 402.715 -0.166547 -2.5195 0
M  V30 4321 C 404.028 -2.90141 -0.789852 0
M  V30 4322 C 405.576 -3.00216 -0.885396 0
M  V30 4323 C 406.051 -4.45434 -1.06548 0
M  V30 4324 N 407.542 -4.49166 -1.13156 0
M  V30 4325 C 408.277 -5.58717 -1.28929 0
M  V30 4326 N 407.773 -6.78182 -1.41567 0
M  V30 4327 N 409.566 -5.46415 -1.31859 0
M  V30 4328 H 401.717 -2.05574 0.534147 0
M  V30 4329 H 403.98 -0.931259 0.177372 0
M  V30 4330 H 403.686 -3.51635 0.0675598 0
M  V30 4331 H 403.56 -3.37859 -1.67724 0
M  V30 4332 H 405.947 -2.38833 -1.73329 0
M  V30 4333 H 406.028 -2.55787 0.0261185 0
M  V30 4334 H 405.672 -5.07413 -0.222335 0
M  V30 4335 H 405.602 -4.87499 -1.9913 0
M  V30 4336 H 408.093 -3.631 -1.04721 0
M  V30 4337 H 408.406 -7.57428 -1.53372 0
M  V30 4338 H 406.751 -6.81037 -1.38613 0
M  V30 4339 H 409.942 -4.5203 -1.21601 0
M  V30 4340 H 410.115 -6.31841 -1.43808 0
M  V30 4341 N 403.521 0.559213 -1.47345 0
M  V30 4342 C 404.453 1.68161 -1.55738 0
M  V30 4343 C 405.466 1.56636 -0.443744 0
M  V30 4344 O 406.655 1.6363 -0.713258 0
M  V30 4345 C 403.755 3.06611 -1.4437 0
M  V30 4346 C 402.928 3.4391 -2.70268 0
M  V30 4347 C 401.987 4.61515 -2.52765 0
M  V30 4348 O 401.013 4.66197 -3.26572 0
M  V30 4349 N 402.215 5.57883 -1.6046 0
M  V30 4350 H 404.98 1.61408 -2.52522 0
M  V30 4351 H 402.541 0.7458 -1.43699 0
M  V30 4352 H 404.533 3.83117 -1.30398 0
M  V30 4353 H 403.103 3.07602 -0.556766 0
M  V30 4354 H 402.323 2.56873 -2.99015 0
M  V30 4355 H 403.611 3.65605 -3.53851 0
M  V30 4356 H 403.009 5.56855 -0.996422 0
M  V30 4357 H 401.566 6.33723 -1.52441 0
M  V30 4358 N 404.999 1.35443 0.805782 0
M  V30 4359 C 405.962 1.28301 1.89925 0
M  V30 4360 C 406.962 0.194285 1.59622 0
M  V30 4361 O 408.152 0.448036 1.6834 0
M  V30 4362 C 405.284 0.984997 3.2636 0
M  V30 4363 H 406.477 2.2553 1.97677 0
M  V30 4364 H 404.03 1.19979 1.00173 0
M  V30 4365 H 404.765 0.016603 3.24296 0
M  V30 4366 H 404.55 1.77269 3.4974 0
M  V30 4367 H 406.04 0.960651 4.064 0
M  V30 4368 N 406.477 -1.02803 1.19454 0
M  V30 4369 C 407.893 -1.28473 0.946937 0
M  V30 4370 C 408.093 -1.97881 -0.380202 0
M  V30 4371 O 407.149 -2.26719 -1.11151 0
M  V30 4372 C 408.462 -2.13099 2.12154 0
M  V30 4373 C 410.01 -2.26404 2.16126 0
M  V30 4374 C 410.485 -3.14402 3.33039 0
M  V30 4375 N 411.976 -3.21991 3.32981 0
M  V30 4376 C 412.711 -3.90272 4.20089 0
M  V30 4377 N 412.207 -4.60777 5.17355 0
M  V30 4378 N 414 -3.8668 4.07964 0
M  V30 4379 H 406.151 -0.561665 2.04839 0
M  V30 4380 H 408.414 -0.310438 0.89573 0
M  V30 4381 H 408.12 -1.69422 3.08203 0
M  V30 4382 H 407.994 -3.13813 2.09287 0
M  V30 4383 H 410.381 -2.69311 1.20647 0
M  V30 4384 H 410.462 -1.25237 2.23045 0
M  V30 4385 H 410.106 -2.72204 4.28798 0
M  V30 4386 H 410.036 -4.1563 3.23356 0
M  V30 4387 H 412.527 -2.71778 2.62574 0
M  V30 4388 H 412.84 -5.10513 5.80169 0
M  V30 4389 H 411.185 -4.5964 5.21302 0
M  V30 4390 H 414.376 -3.30739 3.31254 0
M  V30 4391 H 414.549 -4.39621 4.76064 0
M  V30 4392 N 407.956 -0.998596 -1.21925 0
M  V30 4393 C 409.233 -0.593401 -1.86382 0
M  V30 4394 C 409.613 0.92916 -1.89552 0
M  V30 4395 O 408.961 1.81347 -1.39017 0
M  V30 4396 C 409.171 -1.22039 -3.26967 0
M  V30 4397 C 410.519 -1.32449 -4.03413 0
M  V30 4398 O 411.543 -1.17522 -3.36254 0
M  V30 4399 O 410.402 -1.56395 -5.23644 0
M  V30 4400 H 407.496 -0.202385 -0.801854 0
M  V30 4401 H 410.042 -1.09484 -1.29659 0
M  V30 4402 H 408.814 -2.26158 -3.19325 0
M  V30 4403 H 408.437 -0.704906 -3.91301 0
M  V30 4404 N 409.434 1.37368 -0.772513 0
M  V30 4405 C 410.344 2.34053 -0.160081 0
M  V30 4406 C 411.36 1.60216 0.678728 0
M  V30 4407 O 412.536 1.92303 0.59847 0
M  V30 4408 C 409.601 3.3939 0.708182 0
M  V30 4409 C 408.662 4.29048 -0.147172 0
M  V30 4410 C 407.895 5.29354 0.679744 0
M  V30 4411 O 408.118 5.3723 1.91678 0
M  V30 4412 O 407.052 6.01835 0.0885444 0
M  V30 4413 H 410.878 2.88159 -0.959053 0
M  V30 4414 H 408.463 1.39543 -0.533685 0
M  V30 4415 H 410.345 4.03839 1.20384 0
M  V30 4416 H 409.02 2.8761 1.48533 0
M  V30 4417 H 407.927 3.67697 -0.689205 0
M  V30 4418 H 409.26 4.84134 -0.887423 0
M  V30 4419 N 410.912 0.523116 1.48665 0
M  V30 4420 C 412.328 0.180511 1.58576 0
M  V30 4421 C 412.528 -1.31597 1.52592 0
M  V30 4422 O 411.584 -2.0937 1.4114 0
M  V30 4423 C 412.897 0.776949 2.90489 0
M  V30 4424 C 414.445 0.745058 3.04003 0
M  V30 4425 C 414.92 1.31995 4.38567 0
M  V30 4426 N 416.411 1.28162 4.45117 0
M  V30 4427 C 417.146 1.6964 5.47731 0
M  V30 4428 N 416.642 2.18816 6.57337 0
M  V30 4429 N 418.435 1.6092 5.38573 0
M  V30 4430 H 410.586 1.4958 1.50797 0
M  V30 4431 H 412.849 0.621772 0.715614 0
M  V30 4432 H 412.555 1.82732 3.00503 0
M  V30 4433 H 412.429 0.25007 3.7637 0
M  V30 4434 H 414.816 -0.296532 2.93606 0
M  V30 4435 H 414.897 1.30933 2.1975 0
M  V30 4436 H 414.541 2.36043 4.49718 0
M  V30 4437 H 414.471 0.731418 5.21496 0
M  V30 4438 H 416.962 0.92155 3.66491 0
M  V30 4439 H 417.275 2.48478 7.31764 0
M  V30 4440 H 415.62 2.22805 6.58318 0
M  V30 4441 H 418.811 1.22304 4.5184 0
M  V30 4442 H 418.984 1.93567 6.18414 0
M  V30 4443 N 412.39 -1.55475 0.257931 0
M  V30 4444 C 413.618 -2.03609 -0.367559 0
M  V30 4445 C 414.033 -1.13687 -1.50734 0
M  V30 4446 O 413.39 -0.153479 -1.81853 0
M  V30 4447 C 413.441 -3.51001 -0.864908 0
M  V30 4448 O 413.162 -4.37499 0.229465 0
M  V30 4449 C 414.663 -4.14946 -1.55997 0
M  V30 4450 H 411.883 -0.665459 -0.0860521 0
M  V30 4451 H 414.427 -2.00843 0.385014 0
M  V30 4452 H 412.582 -3.54266 -1.56762 0
M  V30 4453 H 412.996 -5.24286 -0.14998 0
M  V30 4454 H 414.47 -5.19735 -1.85956 0
M  V30 4455 H 414.947 -3.6209 -2.4857 0
M  V30 4456 H 415.553 -4.15635 -0.901543 0
M  V30 4457 N 413.868 0.0150385 -1.57593 0
M  V30 4458 C 415.115 0.703001 -1.89906 0
M  V30 4459 C 415.443 1.74604 -0.856944 0
M  V30 4460 O 414.698 1.95197 0.140287 0
M  V30 4461 C 414.997 1.39686 -3.28972 0
M  V30 4462 C 414.663 0.488457 -4.48246 0
M  V30 4463 C 413.325 0.2383 -4.8061 0
M  V30 4464 C 415.677 -0.137881 -5.21018 0
M  V30 4465 C 413.005 -0.646738 -5.83125 0
M  V30 4466 C 415.357 -1.0107 -6.24474 0
M  V30 4467 C 414.021 -1.27019 -6.55303 0
M  V30 4468 H 413.291 0.257246 -0.694914 0
M  V30 4469 H 415.938 -0.037259 -1.91464 0
M  V30 4470 H 414.243 2.21079 -3.23468 0
M  V30 4471 H 415.94 1.93495 -3.51227 0
M  V30 4472 H 412.53 0.693593 -4.22951 0
M  V30 4473 H 416.714 0.0423953 -4.96282 0
M  V30 4474 H 411.97 -0.855937 -6.05379 0
M  V30 4475 H 416.144 -1.50247 -6.79999 0
M  V30 4476 H 413.771 -1.95769 -7.3456 0
M  V30 4477 N 415.346 1.54954 0.287554 0
M  V30 4478 C 416.296 1.8322 1.357 0
M  V30 4479 C 417.28 0.690152 1.45347 0
M  V30 4480 O 418.472 0.951137 1.49273 0
M  V30 4481 C 415.601 2.09481 2.71979 0
M  V30 4482 C 414.687 3.29906 2.66502 0
M  V30 4483 N 415.078 4.50154 2.30641 0
M  V30 4484 C 413.376 3.32203 2.97585 0
M  V30 4485 C 414.077 5.32209 2.34794 0
M  V30 4486 N 413.053 4.70258 2.72688 0
M  V30 4487 H 416.855 2.73746 1.0696 0
M  V30 4488 H 414.369 1.54635 0.496167 0
M  V30 4489 H 416.366 2.27882 3.49107 0
M  V30 4490 H 415.026 1.2023 3.0162 0
M  V30 4491 H 416.037 4.76515 2.02865 0
M  V30 4492 H 412.714 2.53101 3.32034 0
M  V30 4493 H 414.104 6.38321 2.09753 0
M  V30 4494 N 416.824 -0.551391 1.4764 0
M  V30 4495 C 418.073 -1.30467 1.53822 0
M  V30 4496 C 418.386 -1.94495 0.207661 0
M  V30 4497 O 419.592 -2.71099 0.147533 0
M  V30 4498 C 418.048 -2.36616 2.71184 0
M  V30 4499 C 417.656 -1.78754 4.10793 0
M  V30 4500 C 419.4 -3.13088 2.86663 0
M  V30 4501 C 417.307 -2.82717 5.19447 0
M  V30 4502 H 416.237 -0.490584 0.572576 0
M  V30 4503 H 418.888 -0.58494 1.73927 0
M  V30 4504 H 417.27 -3.11529 2.4447 0
M  V30 4505 H 418.444 -1.10173 4.47435 0
M  V30 4506 H 416.759 -1.14846 4.00249 0
M  V30 4507 H 419.356 -3.90736 3.65007 0
M  V30 4508 H 419.699 -3.67635 1.95321 0
M  V30 4509 H 420.232 -2.45288 3.13175 0
M  V30 4510 H 416.971 -2.33018 6.12685 0
M  V30 4511 H 416.491 -3.4969 4.87316 0
M  V30 4512 H 418.17 -3.46102 5.46646 0
M  V30 4513 N 418.302 -1.35869 -0.798587 0
M  V30 4514 C 419.549 -1.29588 -1.55606 0
M  V30 4515 C 419.877 0.127456 -1.94082 0
M  V30 4516 O 419.132 1.09461 -1.62225 0
M  V30 4517 C 419.431 -2.1556 -2.85077 0
M  V30 4518 C 419.097 -3.6424 -2.65781 0
M  V30 4519 C 417.759 -4.04766 -2.60227 0
M  V30 4520 C 420.111 -4.58547 -2.47758 0
M  V30 4521 C 417.439 -5.37753 -2.34603 0
M  V30 4522 C 419.791 -5.91742 -2.23662 0
M  V30 4523 C 418.455 -6.31402 -2.16534 0
M  V30 4524 H 417.725 -0.474197 -0.569402 0
M  V30 4525 H 420.372 -1.67839 -0.922086 0
M  V30 4526 H 418.677 -1.70216 -3.52893 0
M  V30 4527 H 420.374 -2.08031 -3.42818 0
M  V30 4528 H 416.964 -3.32086 -2.70956 0
M  V30 4529 H 421.148 -4.28117 -2.51056 0
M  V30 4530 H 416.404 -5.67474 -2.2756 0
M  V30 4531 H 420.578 -6.6439 -2.08708 0
M  V30 4532 H 418.205 -7.34381 -1.96441 0
M  V30 4533 N 419.78 1.02168 -1.19998 0
M  V30 4534 C 421.01 1.79036 -1.031 0
M  V30 4535 C 421.418 1.84409 0.423078 0
M  V30 4536 O 420.761 1.29228 1.30559 0
M  V30 4537 C 420.823 3.25185 -1.53281 0
M  V30 4538 C 420.487 3.43431 -3.01503 0
M  V30 4539 C 421.484 3.33063 -3.99206 0
M  V30 4540 C 419.169 3.69412 -3.40353 0
M  V30 4541 C 421.163 3.48413 -5.33748 0
M  V30 4542 C 418.85 3.84406 -4.75053 0
M  V30 4543 C 419.848 3.7391 -5.71559 0
M  V30 4544 O 419.536 3.88452 -7.03818 0
M  V30 4545 H 419.268 0.570043 -0.363355 0
M  V30 4546 H 421.822 1.29524 -1.59414 0
M  V30 4547 H 420.052 3.75756 -0.913483 0
M  V30 4548 H 421.741 3.83671 -1.32481 0
M  V30 4549 H 422.507 3.12934 -3.70537 0
M  V30 4550 H 418.386 3.76671 -2.65782 0
M  V30 4551 H 421.93 3.40137 -6.09059 0
M  V30 4552 H 417.827 4.04035 -5.03415 0
M  V30 4553 H 418.595 4.055 -7.10993 0
M  V30 4554 N 421.258 1.00505 1.21394 0
M  V30 4555 C 422.488 0.705584 1.94178 0
M  V30 4556 C 422.896 -0.735846 1.74304 0
M  V30 4557 O 422.239 -1.50954 1.04683 0
M  V30 4558 C 422.301 0.94689 3.46806 0
M  V30 4559 C 421.965 2.37517 3.90429 0
M  V30 4560 C 422.962 3.35539 3.97127 0
M  V30 4561 C 420.647 2.71284 4.22742 0
M  V30 4562 C 422.641 4.65395 4.3553 0
M  V30 4563 C 420.328 4.01356 4.60822 0
M  V30 4564 C 421.326 4.98223 4.67186 0
M  V30 4565 O 421.014 6.25969 5.04399 0
M  V30 4566 H 420.746 0.259216 0.624326 0
M  V30 4567 H 423.3 1.34592 1.55159 0
M  V30 4568 H 421.53 0.249386 3.85895 0
M  V30 4569 H 423.219 0.640804 4.0081 0
M  V30 4570 H 423.985 3.10786 3.7234 0
M  V30 4571 H 419.864 1.96581 4.16985 0
M  V30 4572 H 423.408 5.41002 4.40412 0
M  V30 4573 H 419.305 4.25893 4.85063 0
M  V30 4574 H 420.073 6.30085 5.22431 0
M  V30 4575 N 422.737 -1.36956 0.779787 0
M  V30 4576 C 423.67 -2.27896 0.117681 0
M  V30 4577 C 424.648 -1.46736 -0.700523 0
M  V30 4578 O 425.832 -1.76055 -0.673568 0
M  V30 4579 C 422.959 -3.28136 -0.839296 0
M  V30 4580 C 422.005 -4.26373 -0.10409 0
M  V30 4581 S 422.838 -5.2157 1.21348 0
M  V30 4582 C 423.994 -6.25359 0.260249 0
M  V30 4583 H 424.227 -2.83704 0.888778 0
M  V30 4584 H 421.76 -1.43352 0.57355 0
M  V30 4585 H 423.718 -3.86394 -1.38601 0
M  V30 4586 H 422.379 -2.7126 -1.58356 0
M  V30 4587 H 421.572 -4.97121 -0.82986 0
M  V30 4588 H 421.174 -3.72147 0.371858 0
M  V30 4589 H 423.466 -6.75145 -0.564435 0
M  V30 4590 H 424.409 -7.01885 0.936135 0
M  V30 4591 H 424.817 -5.64345 -0.132127 0
M  V30 4592 N 424.215 -0.530993 -1.48385 0
M  V30 4593 C 425.464 0.00474348 -2.01699 0
M  V30 4594 C 425.777 1.35227 -1.41325 0
M  V30 4595 O 426.983 1.97643 -1.86144 0
M  V30 4596 C 425.439 0.0588473 -3.59852 0
M  V30 4597 C 425.047 -1.28385 -4.2921 0
M  V30 4598 C 426.791 0.543358 -4.21008 0
M  V30 4599 C 424.698 -1.19028 -5.79298 0
M  V30 4600 H 423.628 0.00554317 -0.75398 0
M  V30 4601 H 426.279 -0.674924 -1.70637 0
M  V30 4602 H 424.661 0.803612 -3.8776 0
M  V30 4603 H 425.835 -2.04426 -4.12973 0
M  V30 4604 H 424.15 -1.70418 -3.7993 0
M  V30 4605 H 426.747 0.631351 -5.3096 0
M  V30 4606 H 427.09 1.54937 -3.86394 0
M  V30 4607 H 427.623 -0.145754 -3.97533 0
M  V30 4608 H 424.362 -2.17147 -6.18488 0
M  V30 4609 H 423.882 -0.471246 -5.97946 0
M  V30 4610 H 425.561 -0.881365 -6.40969 0
M  V30 4611 N 425.693 1.55336 -0.266172 0
M  V30 4612 C 426.656 2.20878 0.612001 0
M  V30 4613 C 427.656 1.18388 1.08816 0
M  V30 4614 O 428.846 1.4335 0.989774 0
M  V30 4615 C 425.978 2.86765 1.84332 0
M  V30 4616 H 427.171 2.99873 0.0398718 0
M  V30 4617 H 424.724 1.56291 -0.0167309 0
M  V30 4618 H 425.459 2.11759 2.45619 0
M  V30 4619 H 425.244 3.61862 1.5099 0
M  V30 4620 H 426.734 3.36867 2.46801 0
M  V30 4621 N 427.171 -0.0066808 1.57599 0
M  V30 4622 C 428.419 -0.691552 1.899 0
M  V30 4623 C 428.74 -1.74682 0.866672 0
M  V30 4624 O 428.01 -1.95661 -0.0968189 0
M  V30 4625 H 426.59 -0.258416 0.700878 0
M  V30 4626 H 429.252 0.0326655 1.94873 0
M  V30 4627 H 428.348 -1.16702 2.8946 0
M  V30 4628 N 428.649 -1.55105 -0.279332 0
M  V30 4629 C 429.612 -1.86783 -1.32834 0
M  V30 4630 C 430.612 -0.74199 -1.42657 0
M  V30 4631 O 431.802 -1.0102 -1.41918 0
M  V30 4632 C 428.934 -2.06746 -2.71052 0
M  V30 4633 H 430.127 -2.8055 -1.05979 0
M  V30 4634 H 427.68 -1.47499 -0.517087 0
M  V30 4635 H 428.415 -1.15339 -3.03097 0
M  V30 4636 H 428.2 -2.88711 -2.65309 0
M  V30 4637 H 429.69 -2.32549 -3.46858 0
M  V30 4638 N 430.127 0.543554 -1.4793 0
M  V30 4639 C 431.074 1.64942 -1.6144 0
M  V30 4640 C 432.044 1.59692 -0.456903 0
M  V30 4641 O 433.229 1.78321 -0.678688 0
M  V30 4642 C 430.369 3.03238 -1.64744 0
M  V30 4643 C 429.482 3.18823 -2.91506 0
M  V30 4644 C 428.617 4.47599 -2.86057 0
M  V30 4645 C 427.656 4.56664 -4.07584 0
M  V30 4646 N 426.793 5.76811 -4.00292 0
M  V30 4647 H 431.633 1.52733 -2.55884 0
M  V30 4648 H 429.17 0.7438 -1.2691 0
M  V30 4649 H 431.128 3.83339 -1.64641 0
M  V30 4650 H 429.758 3.1425 -0.738017 0
M  V30 4651 H 428.81 2.32064 -3.01414 0
M  V30 4652 H 430.122 3.21384 -3.81463 0
M  V30 4653 H 429.276 5.35975 -2.84281 0
M  V30 4654 H 428.015 4.47538 -1.93807 0
M  V30 4655 H 427.02 3.66697 -4.09651 0
M  V30 4656 H 428.245 4.58474 -5.00978 0
M  V30 4657 H 426.191 5.77673 -3.10853 0
M  V30 4658 H 426.108 5.80808 -4.8394 0
M  V30 4659 H 427.376 6.67512 -4.02553 0
M  V30 4660 N 431.605 1.3629 0.791371 0
M  V30 4661 C 432.515 1.32606 1.93527 0
M  V30 4662 C 433.531 0.228541 1.72493 0
M  V30 4663 O 434.707 0.460571 1.96063 0
M  V30 4664 C 431.772 1.11271 3.28359 0
M  V30 4665 C 430.833 2.3048 3.62185 0
M  V30 4666 C 430.066 2.10154 4.90583 0
M  V30 4667 O 430.289 1.07572 5.60165 0
M  V30 4668 O 429.223 2.97884 5.23019 0
M  V30 4669 H 433.049 2.28909 1.99585 0
M  V30 4670 H 430.634 1.16818 0.931344 0
M  V30 4671 H 432.516 1.01283 4.09047 0
M  V30 4672 H 431.191 0.180292 3.23198 0
M  V30 4673 H 430.098 2.46036 2.81811 0
M  V30 4674 H 431.431 3.22221 3.72068 0
M  V30 4675 N 433.083 -1.0153 1.20538 0
M  V30 4676 C 434.03 -2.10098 0.955383 0
M  V30 4677 C 435 -1.65702 -0.114878 0
M  V30 4678 O 436.185 -1.90776 0.0301118 0
M  V30 4679 C 433.325 -3.41236 0.514969 0
M  V30 4680 C 432.438 -3.99102 1.65353 0
M  V30 4681 C 431.573 -5.18306 1.16329 0
M  V30 4682 C 430.612 -5.68258 2.27485 0
M  V30 4683 N 429.749 -6.78722 1.7967 0
M  V30 4684 H 434.589 -2.30818 1.88486 0
M  V30 4685 H 432.126 -1.13189 0.939499 0
M  V30 4686 H 434.084 -4.16504 0.240935 0
M  V30 4687 H 432.714 -3.20585 -0.377512 0
M  V30 4688 H 431.766 -3.20918 2.04245 0
M  V30 4689 H 433.078 -4.32177 2.49047 0
M  V30 4690 H 432.232 -6.00782 0.845302 0
M  V30 4691 H 430.971 -4.86799 0.296254 0
M  V30 4692 H 429.976 -4.84385 2.60099 0
M  V30 4693 H 431.201 -6.01798 3.14667 0
M  V30 4694 H 429.147 -6.49042 0.95295 0
M  V30 4695 H 429.064 -7.10996 2.56944 0
M  V30 4696 H 430.332 -7.64759 1.50875 0
M  V30 4697 N 434.561 -1.01147 -1.20859 0
M  V30 4698 C 435.494 -0.522108 -2.22147 0
M  V30 4699 C 436.472 0.427686 -1.56874 0
M  V30 4700 O 437.656 0.34889 -1.85243 0
M  V30 4701 C 434.783 0.240819 -3.37843 0
M  V30 4702 C 433.829 -0.657752 -4.21398 0
M  V30 4703 S 434.662 -2.12393 -4.91578 0
M  V30 4704 C 435.818 -1.37102 -6.10699 0
M  V30 4705 H 436.051 -1.38035 -2.63313 0
M  V30 4706 H 433.584 -0.819941 -1.30829 0
M  V30 4707 H 435.542 0.674908 -4.04914 0
M  V30 4708 H 434.203 1.07457 -2.95147 0
M  V30 4709 H 433.396 -0.0697456 -5.03952 0
M  V30 4710 H 432.998 -1.0294 -3.59555 0
M  V30 4711 H 435.29 -0.648315 -6.74391 0
M  V30 4712 H 436.233 -2.17252 -6.73949 0
M  V30 4713 H 436.641 -0.876154 -5.57659 0
M  V30 4714 N 436.039 1.36541 -0.78704 0
M  V30 4715 C 437.455 1.52571 -0.46844 0
M  V30 4716 C 437.655 1.7415 1.01361 0
M  V30 4717 O 436.711 1.77163 1.79915 0
M  V30 4718 C 438.024 2.71299 -1.29682 0
M  V30 4719 C 439.572 2.85169 -1.29027 0
M  V30 4720 C 440.047 4.06898 -2.10233 0
M  V30 4721 N 441.538 4.1404 -2.07666 0
M  V30 4722 C 442.273 5.07301 -2.67271 0
M  V30 4723 N 441.769 6.06021 -3.35724 0
M  V30 4724 N 443.562 4.99898 -2.57018 0
M  V30 4725 H 435.713 1.20788 -1.74711 0
M  V30 4726 H 437.976 0.589364 -0.742532 0
M  V30 4727 H 437.682 2.61868 -2.34773 0
M  V30 4728 H 437.556 3.6539 -0.936479 0
M  V30 4729 H 439.943 2.94062 -0.247284 0
M  V30 4730 H 440.024 1.91992 -1.69035 0
M  V30 4731 H 439.668 3.98766 -3.1456 0
M  V30 4732 H 439.598 4.99218 -1.67597 0
M  V30 4733 H 442.089 3.43357 -1.57843 0
M  V30 4734 H 442.402 6.73741 -3.78541 0
M  V30 4735 H 440.747 6.06253 -3.39826 0
M  V30 4736 H 443.938 4.21724 -2.03142 0
M  V30 4737 H 444.111 5.72392 -3.03761 0
M  V30 4738 N 437.518 0.538854 1.48102 0
M  V30 4739 C 438.743 0.0102694 2.07397 0
M  V30 4740 C 439.168 -1.26562 1.39153 0
M  V30 4741 O 438.526 -1.75357 0.460387 0
M  V30 4742 C 438.574 -0.187602 3.60112 0
M  V30 4743 O 437.678 -1.25432 3.92862 0
M  V30 4744 H 437.019 0.0430975 0.6626 0
M  V30 4745 H 439.549 0.749301 1.90385 0
M  V30 4746 H 439.559 -0.407517 4.0596 0
M  V30 4747 H 438.234 0.744386 4.09184 0
M  V30 4748 H 436.811 -1.01636 3.58782 0
M  V30 4749 N 438.996 -1.55193 0.274407 0
M  V30 4750 C 440.273 -1.91584 -0.394331 0
M  V30 4751 C 440.653 -1.19858 -1.73774 0
M  V30 4752 O 440.001 -0.3252 -2.26174 0
M  V30 4753 C 440.211 -3.4487 -0.535311 0
M  V30 4754 C 441.559 -4.16636 -0.818534 0
M  V30 4755 O 442.583 -3.5076 -0.620146 0
M  V30 4756 O 441.442 -5.33209 -1.19792 0
M  V30 4757 H 438.536 -0.798349 -0.215794 0
M  V30 4758 H 441.082 -1.66646 0.320507 0
M  V30 4759 H 439.854 -3.89145 0.410141 0
M  V30 4760 H 439.477 -3.75759 -1.29964 0
M  V30 4761 N 440.474 -0.00167713 -1.576 0
M  V30 4762 C 441.404 0.988091 -2.11563 0
M  V30 4763 C 442.385 1.35736 -1.02517 0
M  V30 4764 O 443.57 1.44082 -1.30208 0
M  V30 4765 C 440.7 2.27941 -2.62031 0
M  V30 4766 C 439.654 2.0517 -3.75619 0
M  V30 4767 C 438.98 3.4033 -4.12407 0
M  V30 4768 C 440.28 1.41294 -5.02825 0
M  V30 4769 H 441.974 0.538771 -2.94513 0
M  V30 4770 H 439.52 0.257712 -1.41675 0
M  V30 4771 H 441.473 2.97539 -2.9841 0
M  V30 4772 H 440.197 2.74989 -1.76205 0
M  V30 4773 H 438.856 1.37998 -3.39635 0
M  V30 4774 H 438.504 3.85085 -3.23603 0
M  V30 4775 H 438.204 3.25909 -4.88935 0
M  V30 4776 H 439.728 4.1124 -4.51347 0
M  V30 4777 H 441.142 2.00851 -5.36965 0
M  V30 4778 H 439.539 1.37356 -5.84169 0
M  V30 4779 H 440.609 0.382362 -4.8339 0
M  V30 4780 N 441.952 1.55251 0.271103 0
M  V30 4781 C 442.882 1.9127 1.33933 0
M  V30 4782 C 443.863 0.77478 1.5143 0
M  V30 4783 O 445.048 1.03307 1.64442 0
M  V30 4784 C 442.178 2.18627 2.69851 0
M  V30 4785 C 441.132 3.34442 2.67081 0
M  V30 4786 C 440.458 3.47284 4.06569 0
M  V30 4787 C 441.758 4.70784 2.26185 0
M  V30 4788 H 443.452 2.80744 1.04035 0
M  V30 4789 H 440.998 1.35077 0.499017 0
M  V30 4790 H 442.951 2.42413 3.44694 0
M  V30 4791 H 441.675 1.25955 3.01335 0
M  V30 4792 H 440.334 3.10627 1.94695 0
M  V30 4793 H 439.982 2.52074 4.35279 0
M  V30 4794 H 439.682 4.25152 4.0561 0
M  V30 4795 H 441.206 3.73363 4.83148 0
M  V30 4796 H 442.62 4.94102 2.90751 0
M  V30 4797 H 441.017 5.51582 2.36384 0
M  V30 4798 H 442.087 4.69478 1.21319 0
M  V30 4799 N 443.43 -0.535701 1.48216 0
M  V30 4800 C 444.36 -1.65014 1.65204 0
M  V30 4801 C 445.341 -1.62554 0.501011 0
M  V30 4802 O 446.526 -1.7984 0.732886 0
M  V30 4803 C 443.656 -3.03616 1.68626 0
M  V30 4804 C 442.61 -3.20932 2.83172 0
M  V30 4805 C 441.936 -4.60537 2.71679 0
M  V30 4806 C 443.236 -3.04249 4.24535 0
M  V30 4807 H 444.93 -1.51053 2.58502 0
M  V30 4808 H 442.476 -0.725262 1.24402 0
M  V30 4809 H 444.429 -3.81446 1.79099 0
M  V30 4810 H 443.153 -3.18587 0.719026 0
M  V30 4811 H 441.812 -2.45517 2.72244 0
M  V30 4812 H 441.46 -4.72336 1.72937 0
M  V30 4813 H 441.16 -4.73069 3.48538 0
M  V30 4814 H 442.684 -5.40475 2.84112 0
M  V30 4815 H 444.098 -3.71877 4.36326 0
M  V30 4816 H 442.495 -3.28278 5.02348 0
M  V30 4817 H 443.565 -2.00739 4.41397 0
M  V30 4818 N 444.908 -1.36708 -0.784132 0
M  V30 4819 C 445.818 -1.3363 -1.92822 0
M  V30 4820 C 446.834 -0.237686 -1.72369 0
M  V30 4821 O 448.01 -0.470962 -1.95816 0
M  V30 4822 C 445.075 -1.13011 -3.27764 0
M  V30 4823 C 444.136 -2.32397 -3.60957 0
M  V30 4824 C 443.369 -2.12752 -4.89461 0
M  V30 4825 O 443.592 -1.10541 -5.59586 0
M  V30 4826 O 442.526 -3.00653 -5.21432 0
M  V30 4827 H 446.352 -2.29964 -1.98369 0
M  V30 4828 H 443.937 -1.1731 -0.925136 0
M  V30 4829 H 445.819 -1.03451 -4.08504 0
M  V30 4830 H 444.494 -0.19743 -3.23097 0
M  V30 4831 H 443.401 -2.47527 -2.80502 0
M  V30 4832 H 444.734 -3.2419 -3.70354 0
M  V30 4833 N 446.386 1.0089 -1.21074 0
M  V30 4834 C 447.634 1.74262 -1.02358 0
M  V30 4835 C 447.955 1.89869 0.444393 0
M  V30 4836 O 447.225 1.44677 1.32081 0
M  V30 4837 H 445.805 0.645615 -0.375754 0
M  V30 4838 H 448.467 1.21596 -1.52317 0
M  V30 4839 H 447.563 2.74328 -1.4883 0
M  V30 4840 N 447.864 1.01787 1.20321 0
M  V30 4841 C 449.111 0.707936 1.89722 0
M  V30 4842 C 449.439 -0.762535 1.78929 0
M  V30 4843 O 448.694 -1.56977 1.16861 0
M  V30 4844 C 448.993 1.09076 3.40349 0
M  V30 4845 C 448.659 2.55765 3.71342 0
M  V30 4846 C 447.321 2.95845 3.79511 0
M  V30 4847 C 449.673 3.50723 3.85542 0
M  V30 4848 C 447.001 4.2982 3.99339 0
M  V30 4849 C 449.353 4.84387 4.06881 0
M  V30 4850 C 448.017 5.24172 4.1328 0
M  V30 4851 H 447.287 0.259052 0.694243 0
M  V30 4852 H 449.934 1.27868 1.42555 0
M  V30 4853 H 448.239 0.438453 3.89339 0
M  V30 4854 H 449.936 0.828636 3.92345 0
M  V30 4855 H 446.526 2.2371 3.65584 0
M  V30 4856 H 450.71 3.20916 3.78585 0
M  V30 4857 H 445.966 4.60196 4.02529 0
M  V30 4858 H 450.14 5.57891 4.1681 0
M  V30 4859 H 447.767 6.27997 4.28396 0
M  V30 4860 N 449.342 -1.36122 0.79427 0
M  V30 4861 C 450.29 -2.31871 0.184023 0
M  V30 4862 C 451.284 -1.56041 -0.659365 0
M  V30 4863 O 452.49 -1.71266 -0.553906 0
M  V30 4864 H 448.865 -0.750896 0.0407373 0
M  V30 4865 H 450.836 -2.80898 1.00693 0
M  V30 4866 C 449.585 -3.41324 -0.662813 0
M  V30 4867 H 448.908 -3.99793 -0.0231944 0
M  V30 4868 H 450.348 -4.10629 -1.05639 0
M  V30 4869 C 448.807 -2.83308 -1.82313 0
M  V30 4870 O 449.337 -2.75863 -2.91997 0
M  V30 4871 N 447.543 -2.40529 -1.63077 0
M  V30 4872 H 447.09 -2.46785 -0.738591 0
M  V30 4873 H 447.048 -2.02059 -2.40872 0
M  V30 4874 N 450.82 -0.546701 -1.47814 0
M  V30 4875 C 451.768 0.220048 -2.31557 0
M  V30 4876 C 452.762 0.919472 -1.42275 0
M  V30 4877 O 453.968 0.841953 -1.59095 0
M  V30 4878 H 450.343 0.0898334 -0.746615 0
M  V30 4879 H 452.314 -0.505589 -2.94086 0
M  V30 4880 C 451.063 1.24353 -3.24702 0
M  V30 4881 H 450.386 0.714758 -3.93359 0
M  V30 4882 H 451.826 1.75112 -3.8615 0
M  V30 4883 C 450.285 2.28593 -2.47481 0
M  V30 4884 O 450.815 3.35334 -2.21165 0
M  V30 4885 N 449.021 2.02244 -2.08676 0
M  V30 4886 H 448.568 1.15455 -2.30278 0
M  V30 4887 H 448.526 2.72207 -1.57323 0
M  V30 4888 N 452.299 1.55045 -0.282633 0
M  V30 4889 C 453.529 2.03872 0.334635 0
M  V30 4890 C 453.937 1.16018 1.49454 0
M  V30 4891 O 453.28 0.174449 1.8287 0
M  V30 4892 C 453.342 3.48791 0.870905 0
M  V30 4893 C 453.006 4.56715 -0.161338 0
M  V30 4894 C 454.003 5.10513 -0.983466 0
M  V30 4895 C 451.688 5.01417 -0.297745 0
M  V30 4896 C 453.682 6.07538 -1.92811 0
M  V30 4897 C 451.369 5.98265 -1.24586 0
M  V30 4898 C 452.367 6.51208 -2.05954 0
M  V30 4899 O 452.055 7.46162 -2.99162 0
M  V30 4900 H 451.787 0.671324 0.0793742 0
M  V30 4901 H 454.341 2.01169 -0.41473 0
M  V30 4902 H 452.571 3.48758 1.67047 0
M  V30 4903 H 454.26 3.80916 1.40207 0
M  V30 4904 H 455.026 4.76785 -0.888856 0
M  V30 4905 H 450.905 4.59849 0.325604 0
M  V30 4906 H 454.449 6.48787 -2.56363 0
M  V30 4907 H 450.346 6.31412 -1.34126 0
M  V30 4908 H 451.114 7.63903 -2.93929 0
M  V30 4909 N 453.777 0.010035 1.57597 0
M  V30 4910 C 455.005 -0.683413 1.95287 0
M  V30 4911 C 455.42 -1.66747 0.885481 0
M  V30 4912 O 454.777 -1.82003 -0.134629 0
M  V30 4913 C 454.828 -1.40652 3.33015 0
M  V30 4914 O 454.549 -0.461916 4.35658 0
M  V30 4915 C 456.05 -2.19356 3.85225 0
M  V30 4916 H 453.27 -0.189708 0.643624 0
M  V30 4917 H 455.814 0.0641359 2.04399 0
M  V30 4918 H 453.969 -2.10562 3.2518 0
M  V30 4919 H 454.383 -0.973215 5.15392 0
M  V30 4920 H 455.857 -2.65433 4.83993 0
M  V30 4921 H 456.334 -3.02457 3.18459 0
M  V30 4922 H 456.94 -1.54442 3.96267 0
M  V30 4923 N 455.255 -1.55392 -0.262866 0
M  V30 4924 C 456.502 -1.76476 -0.993109 0
M  V30 4925 C 456.83 -0.571479 -1.85915 0
M  V30 4926 O 456.085 0.445733 -1.90556 0
M  V30 4927 C 456.384 -3.02889 -1.89718 0
M  V30 4928 C 456.05 -4.34974 -1.18781 0
M  V30 4929 C 454.712 -4.7087 -0.991699 0
M  V30 4930 C 457.064 -5.16695 -0.683798 0
M  V30 4931 C 454.392 -5.86036 -0.279024 0
M  V30 4932 C 456.744 -6.32598 0.0153327 0
M  V30 4933 C 455.408 -6.67127 0.223062 0
M  V30 4934 H 454.678 -0.64577 -0.363404 0
M  V30 4935 H 457.325 -1.89664 -0.264525 0
M  V30 4936 H 455.63 -2.84644 -2.6923 0
M  V30 4937 H 457.327 -3.16399 -2.46359 0
M  V30 4938 H 453.917 -4.06765 -1.35058 0
M  V30 4939 H 458.101 -4.8943 -0.8229 0
M  V30 4940 H 453.357 -6.11306 -0.107456 0
M  V30 4941 H 457.531 -6.95171 0.413584 0
M  V30 4942 H 455.158 -7.56216 0.777265 0
M  V30 4943 N 456.733 0.527833 -1.48498 0
M  V30 4944 C 457.663 1.64136 -1.66077 0
M  V30 4945 C 458.644 1.62286 -0.509625 0
M  V30 4946 O 459.829 1.79449 -0.742413 0
M  V30 4947 C 456.959 3.02717 -1.70234 0
M  V30 4948 C 455.913 3.19426 -2.8487 0
M  V30 4949 C 455.239 4.5909 -2.74118 0
M  V30 4950 C 456.539 3.01993 -4.26142 0
M  V30 4951 H 458.233 1.4968 -2.593 0
M  V30 4952 H 455.779 0.718654 -1.24785 0
M  V30 4953 H 457.732 3.80491 -1.8112 0
M  V30 4954 H 456.456 3.18201 -0.735911 0
M  V30 4955 H 455.115 2.4407 -2.73542 0
M  V30 4956 H 454.763 4.71413 -1.7544 0
M  V30 4957 H 454.463 4.71214 -3.51042 0
M  V30 4958 H 455.987 5.3896 -2.86974 0
M  V30 4959 H 457.401 3.69558 -4.38292 0
M  V30 4960 H 455.798 3.2561 -5.04082 0
M  V30 4961 H 456.868 1.98396 -4.42456 0
M  V30 4962 N 458.211 1.37122 0.776871 0
M  V30 4963 C 459.436 1.354 1.57104 0
M  V30 4964 C 459.861 -0.0595562 1.88006 0
M  V30 4965 O 459.219 -1.03514 1.48844 0
M  V30 4966 C 459.267 2.19472 2.8612 0
M  V30 4967 O 458.371 1.59582 3.80273 0
M  V30 4968 H 457.712 0.462869 0.476076 0
M  V30 4969 H 460.242 1.80577 0.961932 0
M  V30 4970 H 460.252 2.32502 3.35271 0
M  V30 4971 H 458.927 3.22222 2.62956 0
M  V30 4972 H 457.504 1.55564 3.38902 0
M  V30 4973 N 459.689 -1.00246 1.21608 0
M  V30 4974 C 460.637 -2.11193 0.97469 0
M  V30 4975 C 461.631 -1.69216 -0.0789303 0
M  V30 4976 O 462.837 -1.79853 0.0726806 0
M  V30 4977 H 459.212 -0.690455 0.297953 0
M  V30 4978 H 461.183 -2.2873 1.91638 0
M  V30 4979 C 459.932 -3.43182 0.558717 0
M  V30 4980 H 459.255 -3.75918 1.3611 0
M  V30 4981 H 460.695 -4.21823 0.429154 0
M  V30 4982 C 459.154 -3.28882 -0.730648 0
M  V30 4983 O 459.684 -3.59835 -1.78554 0
M  V30 4984 N 457.89 -2.8209 -0.698131 0
M  V30 4985 H 457.437 -2.57099 0.16061 0
M  V30 4986 H 457.395 -2.72903 -1.56113 0
M  V30 4987 N 461.167 -1.02423 -1.1978 0
M  V30 4988 C 462.415 -0.716569 -1.8897 0
M  V30 4989 C 462.736 0.756769 -1.79716 0
M  V30 4990 O 462.006 1.5449 -1.20456 0
M  V30 4991 H 460.586 -0.262062 -0.699523 0
M  V30 4992 H 463.248 -1.29747 -1.45436 0
M  V30 4993 H 462.344 -1.00675 -2.95417 0
M  V30 4994 N 462.645 1.35699 -0.801477 0
M  V30 4995 C 463.892 1.98913 -0.379459 0
M  V30 4996 C 464.22 1.63592 1.05204 0
M  V30 4997 O 463.475 0.888563 1.74365 0
M  V30 4998 C 463.774 3.53828 -0.504041 0
M  V30 4999 C 463.44 4.09002 -1.8981 0
M  V30 5000 C 462.102 4.23783 -2.27951 0
M  V30 5001 C 464.454 4.38939 -2.81038 0
M  V30 5002 C 461.782 4.65816 -3.56696 0
M  V30 5003 C 464.134 4.82409 -4.09224 0
M  V30 5004 C 462.798 4.95395 -4.4737 0
M  V30 5005 H 462.068 0.727874 -0.138854 0
M  V30 5006 H 464.715 1.61994 -1.02128 0
M  V30 5007 H 463.02 3.91175 0.221242 0
M  V30 5008 H 464.717 4.00687 -0.158361 0
M  V30 5009 H 461.307 3.97946 -1.59176 0
M  V30 5010 H 465.491 4.27077 -2.52821 0
M  V30 5011 H 460.747 4.74059 -3.86106 0
M  V30 5012 H 464.921 5.04535 -4.80018 0
M  V30 5013 H 462.548 5.27724 -5.47185 0
M  V30 5014 N 464.123 0.554532 1.47522 0
M  V30 5015 C 465.369 0.0295227 2.02779 0
M  V30 5016 C 465.702 -1.31582 1.42828 0
M  V30 5017 O 464.977 -1.85561 0.582872 0
M  V30 5018 C 465.26 -0.0664057 3.60039 0
M  V30 5019 C 465.113 1.30585 4.30427 0
M  V30 5020 C 466.432 -0.781162 4.33112 0
M  V30 5021 H 463.551 0.0122027 0.736899 0
M  V30 5022 H 466.193 0.716305 1.7598 0
M  V30 5023 H 464.343 -0.651307 3.83002 0
M  V30 5024 H 466.015 1.93374 4.18813 0
M  V30 5025 H 464.258 1.88125 3.90886 0
M  V30 5026 H 464.929 1.19147 5.38988 0
M  V30 5027 H 467.405 -0.284565 4.15126 0
M  V30 5028 H 466.281 -0.817237 5.42782 0
M  V30 5029 H 466.542 -1.83672 4.0214 0
M  V30 5030 N 465.601 -1.54893 0.290851 0
M  V30 5031 C 467.012 -1.85584 -0.203816 0
M  V30 5032 C 467.363 -1.21285 -1.54222 0
M  V30 5033 O 466.488 -0.506841 -2.10381 0
M  V30 5034 C 467.083 -3.367 -0.376595 0
M  V30 5035 C 465.642 -3.6746 -0.815485 0
M  V30 5036 C 464.789 -2.77178 0.0821087 0
M  V30 5037 H 467.74 -1.50208 0.512175 0
M  V30 5038 H 467.761 -3.60656 -1.21275 0
M  V30 5039 H 467.273 -3.8347 0.59767 0
M  V30 5040 H 465.374 -3.26201 -1.80066 0
M  V30 5041 H 465.487 -4.7478 -0.641905 0
M  V30 5042 H 463.851 -2.50925 -0.436895 0
M  V30 5043 H 464.634 -3.26767 1.05254 0
M  V30 5044 N 467.08 -0.0183926 -1.57589 0
M  V30 5045 C 468.329 0.66185 -1.90532 0
M  V30 5046 C 468.642 1.73904 -0.895366 0
M  V30 5047 O 469.848 2.47518 -1.11566 0
M  V30 5048 C 468.304 1.22844 -3.38286 0
M  V30 5049 C 467.912 0.185103 -4.47617 0
M  V30 5050 C 469.656 1.88581 -3.80312 0
M  V30 5051 C 467.563 0.762723 -5.86461 0
M  V30 5052 H 466.493 0.250972 -0.711006 0
M  V30 5053 H 469.144 -0.0819435 -1.83317 0
M  V30 5054 H 467.526 2.0235 -3.40398 0
M  V30 5055 H 468.7 -0.58671 -4.5705 0
M  V30 5056 H 467.015 -0.372889 -4.14727 0
M  V30 5057 H 469.612 2.32735 -4.81392 0
M  V30 5058 H 469.955 2.72408 -3.14801 0
M  V30 5059 H 470.488 1.15782 -3.80578 0
M  V30 5060 H 467.227 -0.0371713 -6.55489 0
M  V30 5061 H 466.747 1.50327 -5.80656 0
M  V30 5062 H 468.426 1.25576 -6.34697 0
M  V30 5063 N 468.558 1.5553 0.254621 0
M  V30 5064 C 469.969 1.67518 0.824286 0
M  V30 5065 C 470.32 0.614429 1.86331 0
M  V30 5066 O 469.445 -0.240736 2.15057 0
M  V30 5067 C 470.04 3.03692 1.50189 0
M  V30 5068 C 468.599 3.17646 2.01935 0
M  V30 5069 C 467.746 2.63373 0.867746 0
M  V30 5070 H 470.697 1.58671 0.0305843 0
M  V30 5071 H 470.718 2.97706 2.36962 0
M  V30 5072 H 470.23 3.80874 0.745431 0
M  V30 5073 H 468.331 2.45273 2.80485 0
M  V30 5074 H 468.444 4.24455 2.22204 0
M  V30 5075 H 466.808 2.20999 1.26616 0
M  V30 5076 H 467.591 3.43074 0.124498 0
M  V30 5077 N 470.036 -0.519951 1.48776 0
M  V30 5078 C 470.999 -1.60574 1.6355 0
M  V30 5079 C 471.999 -1.52557 0.508234 0
M  V30 5080 O 473.189 -1.56047 0.774262 0
M  V30 5081 C 470.321 -3.00211 1.61512 0
M  V30 5082 H 471.514 -1.4881 2.60376 0
M  V30 5083 H 469.067 -0.742772 1.37523 0
M  V30 5084 H 469.802 -3.17471 0.662009 0
M  V30 5085 H 469.587 -3.07439 2.43359 0
M  V30 5086 H 471.077 -3.79134 1.75064 0
M  V30 5087 N 471.514 -1.37532 -0.769588 0
M  V30 5088 C 472.477 -1.33292 -1.86456 0
M  V30 5089 C 473.477 -0.236537 -1.59051 0
M  V30 5090 O 474.667 -0.492511 -1.67093 0
M  V30 5091 C 471.799 -1.07118 -3.23633 0
M  V30 5092 H 472.992 -2.30692 -1.91628 0
M  V30 5093 H 470.545 -1.22593 -0.969572 0
M  V30 5094 H 471.28 -0.102578 -3.24138 0
M  V30 5095 H 471.065 -1.86479 -3.44917 0
M  V30 5096 H 472.555 -1.06806 -4.03711 0
M  V30 5097 N 472.992 0.995999 -1.22138 0
M  V30 5098 C 473.924 2.08745 -0.946485 0
M  V30 5099 C 474.937 1.62633 0.0737356 0
M  V30 5100 O 476.126 1.77782 -0.159886 0
M  V30 5101 C 473.226 3.36516 -0.401305 0
M  V30 5102 C 472.399 4.11672 -1.47801 0
M  V30 5103 C 471.458 5.17728 -0.940461 0
M  V30 5104 O 470.484 5.45482 -1.62596 0
M  V30 5105 N 471.686 5.80005 0.239723 0
M  V30 5106 H 474.451 2.32908 -1.88611 0
M  V30 5107 H 472.012 1.16152 -1.12785 0
M  V30 5108 H 474.004 4.04691 -0.0270837 0
M  V30 5109 H 472.574 3.0944 0.443354 0
M  V30 5110 H 471.794 3.38171 -2.02568 0
M  V30 5111 H 473.082 4.58657 -2.20253 0
M  V30 5112 H 472.48 5.5982 0.813518 0
M  V30 5113 H 471.037 6.4943 0.555361 0
M  V30 5114 N 474.47 1.03057 1.19235 0
M  V30 5115 C 475.747 0.642608 1.84743 0
M  V30 5116 C 476.127 -0.878577 1.91948 0
M  V30 5117 O 475.475 -1.77597 1.43776 0
M  V30 5118 C 475.685 1.30665 3.23616 0
M  V30 5119 C 477.033 1.43098 3.9976 0
M  V30 5120 O 478.057 1.26396 3.3302 0
M  V30 5121 O 476.916 1.70223 5.19313 0
M  V30 5122 H 474.01 0.223573 0.796206 0
M  V30 5123 H 476.556 1.12883 1.26711 0
M  V30 5124 H 475.328 2.34544 3.13217 0
M  V30 5125 H 474.951 0.808405 3.89295 0
M  V30 5126 N 475.948 -1.35272 0.808662 0
M  V30 5127 C 477.225 -1.93077 0.313181 0
M  V30 5128 C 477.605 -1.73847 -1.19752 0
M  V30 5129 O 476.953 -1.1087 -1.998 0
M  V30 5130 C 477.163 -3.41347 0.726859 0
M  V30 5131 C 478.511 -4.18493 0.717532 0
M  V30 5132 O 479.535 -3.4987 0.668535 0
M  V30 5133 O 478.394 -5.40937 0.777779 0
M  V30 5134 H 475.488 -0.822885 0.0824018 0
M  V30 5135 H 478.034 -1.44335 0.892499 0
M  V30 5136 H 476.806 -3.49082 1.76797 0
M  V30 5137 H 476.429 -3.97411 0.122461 0
M  V30 5138 N 477.426 -0.562348 -1.47226 0
M  V30 5139 C 478.336 0.185466 -2.33866 0
M  V30 5140 C 479.352 0.906713 -1.48508 0
M  V30 5141 O 480.528 0.874458 -1.81425 0
M  V30 5142 C 477.593 1.19904 -3.25306 0
M  V30 5143 C 476.654 0.484669 -4.26555 0
M  V30 5144 C 475.887 1.44996 -5.13626 0
M  V30 5145 O 476.11 2.68515 -5.03245 0
M  V30 5146 O 475.044 0.971642 -5.94006 0
M  V30 5147 H 478.87 -0.525361 -2.99121 0
M  V30 5148 H 476.455 -0.322916 -1.45868 0
M  V30 5149 H 478.337 1.78399 -3.81774 0
M  V30 5150 H 477.012 1.8917 -2.62672 0
M  V30 5151 H 475.919 -0.141605 -3.73832 0
M  V30 5152 H 477.252 -0.166634 -4.91918 0
M  V30 5153 N 478.904 1.54736 -0.299062 0
M  V30 5154 C 479.837 2.1962 0.619851 0
M  V30 5155 C 480.815 1.16496 1.13434 0
M  V30 5156 O 481.999 1.4513 1.2029 0
M  V30 5157 C 479.126 2.8385 1.84788 0
M  V30 5158 C 478.172 4.00484 1.46679 0
M  V30 5159 S 479.005 5.32926 0.524389 0
M  V30 5160 C 480.161 6.00638 1.76026 0
M  V30 5161 H 480.394 2.97221 0.0686177 0
M  V30 5162 H 477.927 1.54176 -0.0832085 0
M  V30 5163 H 479.885 3.21483 2.55263 0
M  V30 5164 H 478.546 2.06099 2.37028 0
M  V30 5165 H 477.739 4.44201 2.38121 0
M  V30 5166 H 477.341 3.64398 0.842008 0
M  V30 5167 H 479.633 6.21327 2.70109 0
M  V30 5168 H 480.576 6.94805 1.36569 0
M  V30 5169 H 480.984 5.3026 1.93609 0
M  V30 5170 N 480.382 0.0267497 1.57577 0
M  V30 5171 C 481.629 -0.652404 1.91703 0
M  V30 5172 C 481.957 -1.72271 0.902936 0
M  V30 5173 O 481.212 -1.955 -0.0884843 0
M  V30 5174 C 481.511 -1.30914 3.3256 0
M  V30 5175 C 481.177 -0.369441 4.49384 0
M  V30 5176 C 479.839 -0.110791 4.81072 0
M  V30 5177 C 482.191 0.275971 5.20469 0
M  V30 5178 C 479.519 0.801116 5.81205 0
M  V30 5179 C 481.871 1.17592 6.21575 0
M  V30 5180 C 480.535 1.44348 6.51705 0
M  V30 5181 H 479.805 -0.238732 0.70149 0
M  V30 5182 H 482.452 0.0880091 1.91298 0
M  V30 5183 H 480.757 -2.12425 3.29216 0
M  V30 5184 H 482.454 -1.84115 3.56234 0
M  V30 5185 H 479.044 -0.581211 4.24641 0
M  V30 5186 H 483.228 0.0892 4.9622 0
M  V30 5187 H 478.484 1.01614 6.02897 0
M  V30 5188 H 482.658 1.68223 6.75777 0
M  V30 5189 H 480.285 2.15176 7.29111 0
M  V30 5190 N 481.861 -1.55662 -0.24637 0
M  V30 5191 C 482.793 -1.86811 -1.32794 0
M  V30 5192 C 483.806 -0.754413 -1.44265 0
M  V30 5193 O 484.995 -1.03253 -1.45606 0
M  V30 5194 C 482.095 -2.0397 -2.70646 0
M  V30 5195 C 481.268 -3.34832 -2.81436 0
M  V30 5196 C 480.327 -3.41727 -4.00136 0
M  V30 5197 O 479.353 -4.14934 -3.89639 0
M  V30 5198 N 480.555 -2.71058 -5.1333 0
M  V30 5199 H 483.32 -2.80174 -1.06409 0
M  V30 5200 H 480.881 -1.55906 -0.43647 0
M  V30 5201 H 482.873 -2.05924 -3.48393 0
M  V30 5202 H 481.443 -1.1735 -2.89738 0
M  V30 5203 H 480.663 -3.4519 -1.90361 0
M  V30 5204 H 481.951 -4.21085 -2.85595 0
M  V30 5205 H 481.349 -2.11314 -5.2475 0
M  V30 5206 H 479.906 -2.78704 -5.89209 0
M  V30 5207 N 483.339 0.512053 -1.4905 0
M  V30 5208 C 484.249 1.64139 -1.67617 0
M  V30 5209 C 485.265 1.64786 -0.558701 0
M  V30 5210 O 486.441 1.8341 -0.832034 0
M  V30 5211 C 483.506 3.00548 -1.72835 0
M  V30 5212 C 482.567 3.10615 -2.96339 0
M  V30 5213 C 481.8 4.40517 -3.01298 0
M  V30 5214 O 482.023 5.28671 -2.14157 0
M  V30 5215 O 480.957 4.55325 -3.93653 0
M  V30 5216 H 484.783 1.51407 -2.63267 0
M  V30 5217 H 482.368 0.687131 -1.32661 0
M  V30 5218 H 484.25 3.81641 -1.78683 0
M  V30 5219 H 482.925 3.13566 -0.803616 0
M  V30 5220 H 481.832 2.2875 -2.96014 0
M  V30 5221 H 483.165 3.0252 -3.88256 0
M  V30 5222 N 484.817 1.37938 0.762283 0
M  V30 5223 C 486.045 1.36883 1.55147 0
M  V30 5224 C 486.46 -0.0435348 1.8875 0
M  V30 5225 O 485.817 -1.00786 1.52146 0
M  V30 5226 C 485.868 2.21624 2.85596 0
M  V30 5227 O 485.589 3.57358 2.5343 0
M  V30 5228 C 487.09 2.28653 3.7978 0
M  V30 5229 H 484.31 0.468521 0.480343 0
M  V30 5230 H 486.854 1.81404 0.944079 0
M  V30 5231 H 485.009 1.80588 3.42734 0
M  V30 5232 H 485.423 4.01883 3.37032 0
M  V30 5233 H 486.897 2.9225 4.68288 0
M  V30 5234 H 487.374 1.29767 4.19592 0
M  V30 5235 H 487.98 2.70043 3.28568 0
M  V30 5236 N 486.295 -0.989507 1.22664 0
M  V30 5237 C 487.541 -1.7321 1.05481 0
M  V30 5238 C 487.874 -1.89852 -0.408635 0
M  V30 5239 O 487.149 -1.44416 -1.30285 0
M  V30 5240 C 487.432 -3.1357 1.77047 0
M  V30 5241 C 487.285 -3.04555 3.31008 0
M  V30 5242 C 488.604 -4.12812 1.5256 0
M  V30 5243 H 485.723 -0.628697 0.384589 0
M  V30 5244 H 488.365 -1.15258 1.51049 0
M  V30 5245 H 486.515 -3.63046 1.3831 0
M  V30 5246 H 488.187 -2.62674 3.7921 0
M  V30 5247 H 486.43 -2.41278 3.6051 0
M  V30 5248 H 487.101 -4.03894 3.76263 0
M  V30 5249 H 489.577 -3.72106 1.86215 0
M  V30 5250 H 488.453 -5.09132 2.05124 0
M  V30 5251 H 488.714 -4.39711 0.458936 0
M  V30 5252 N 487.773 -1.03688 -1.18687 0
M  V30 5253 C 488.683 -0.634908 -2.25845 0
M  V30 5254 C 489.699 0.337065 -1.70704 0
M  V30 5255 O 490.875 0.192943 -2.00474 0
M  V30 5256 C 487.94 -0.000180054 -3.467 0
M  V30 5257 C 487.001 -1.02067 -4.1699 0
M  V30 5258 C 486.234 -0.41614 -5.32075 0
M  V30 5259 O 486.457 0.778712 -5.65059 0
M  V30 5260 O 485.391 -1.14296 -5.90948 0
M  V30 5261 H 489.217 -1.52757 -2.62486 0
M  V30 5262 H 486.802 -0.807533 -1.25695 0
M  V30 5263 H 488.684 0.353342 -4.19916 0
M  V30 5264 H 487.359 0.866367 -3.11891 0
M  V30 5265 H 486.266 -1.42592 -3.45859 0
M  V30 5266 H 487.599 -1.85786 -4.5579 0
M  V30 5267 N 489.251 1.34841 -0.815825 0
M  V30 5268 C 490.214 2.27959 -0.238185 0
M  V30 5269 C 491.214 1.49983 0.579816 0
M  V30 5270 O 492.404 1.69617 0.396953 0
M  V30 5271 C 489.536 3.34314 0.666876 0
M  V30 5272 H 490.729 2.80558 -1.05958 0
M  V30 5273 H 488.282 1.44852 -0.587156 0
M  V30 5274 H 489.017 2.86916 1.5116 0
M  V30 5275 H 488.802 3.92014 0.0819106 0
M  V30 5276 H 490.292 4.0379 1.06506 0
M  V30 5277 N 490.729 0.570148 1.46925 0
M  V30 5278 C 491.662 -0.218362 2.27153 0
M  V30 5279 C 492.64 -0.90847 1.34854 0
M  V30 5280 O 493.824 -0.924875 1.64251 0
M  V30 5281 C 490.951 -1.3122 3.12248 0
M  V30 5282 C 489.997 -0.729277 4.20219 0
M  V30 5283 S 490.83 0.434159 5.33737 0
M  V30 5284 C 491.986 -0.661188 6.22398 0
M  V30 5285 H 492.219 0.462393 2.93682 0
M  V30 5286 H 489.752 0.356753 1.50222 0
M  V30 5287 H 491.71 -1.93856 3.61842 0
M  V30 5288 H 490.371 -1.96485 2.45056 0
M  V30 5289 H 489.564 -1.5511 4.79538 0
M  V30 5290 H 489.166 -0.178836 3.73572 0
M  V30 5291 H 491.458 -1.55006 6.5953 0
M  V30 5292 H 492.401 -0.105046 7.08022 0
M  V30 5293 H 492.809 -0.959682 5.56283 0
M  V30 5294 N 492.207 -1.54576 0.307264 0
M  V30 5295 C 493.17 -2.22423 -0.553224 0
M  V30 5296 C 494.17 -1.21231 -1.05639 0
M  V30 5297 O 495.36 -1.45923 -0.951419 0
M  V30 5298 C 492.492 -2.91552 -1.76664 0
M  V30 5299 H 493.685 -2.99874 0.0396484 0
M  V30 5300 H 491.238 -1.56192 0.0581629 0
M  V30 5301 H 491.973 -2.18196 -2.39918 0
M  V30 5302 H 491.758 -3.65738 -1.41343 0
M  V30 5303 H 493.248 -3.43292 -2.37783 0
M  V30 5304 N 493.685 -0.035106 -1.57561 0
M  V30 5305 C 494.934 0.641604 -1.91223 0
M  V30 5306 C 495.247 1.72944 -0.913761 0
M  V30 5307 O 496.453 2.46321 -1.14185 0
M  V30 5308 C 494.909 1.19249 -3.3957 0
M  V30 5309 C 494.517 0.137616 -4.47789 0
M  V30 5310 C 496.261 1.84537 -3.82291 0
M  V30 5311 C 494.168 0.700478 -5.87237 0
M  V30 5312 H 493.098 0.243417 -0.713627 0
M  V30 5313 H 495.749 -0.101382 -1.8322 0
M  V30 5314 H 494.131 1.98728 -3.42525 0
M  V30 5315 H 495.305 -0.635153 -4.56402 0
M  V30 5316 H 493.62 -0.416855 -4.14308 0
M  V30 5317 H 496.217 2.27616 -4.83834 0
M  V30 5318 H 496.56 2.69054 -3.17672 0
M  V30 5319 H 497.093 1.11739 -3.81784 0
M  V30 5320 H 493.832 -0.106693 -6.55413 0
M  V30 5321 H 493.352 1.4416 -5.82218 0
M  V30 5322 H 495.031 1.18837 -6.35993 0
M  V30 5323 N 495.163 1.55791 0.238111 0
M  V30 5324 C 496.096 1.86036 1.32158 0
M  V30 5325 C 497.074 0.716216 1.45976 0
M  V30 5326 O 498.258 0.962882 1.62052 0
M  V30 5327 C 495.385 2.05281 2.69402 0
M  V30 5328 C 494.431 3.27939 2.72687 0
M  V30 5329 S 495.264 4.84342 2.28413 0
M  V30 5330 C 496.42 5.06604 3.67565 0
M  V30 5331 H 496.653 2.77644 1.06306 0
M  V30 5332 H 494.186 1.48012 0.439537 0
M  V30 5333 H 496.144 2.17053 3.48423 0
M  V30 5334 H 494.805 1.14499 2.92487 0
M  V30 5335 H 493.998 3.38398 3.73501 0
M  V30 5336 H 493.6 3.14938 2.01717 0
M  V30 5337 H 495.892 4.94486 4.6313 0
M  V30 5338 H 496.835 6.08554 3.62033 0
M  V30 5339 H 497.243 4.34409 3.60485 0
M  V30 5340 N 496.642 -0.504142 1.49319 0
M  V30 5341 C 497.89 -1.25598 1.58334 0
M  V30 5342 C 498.211 -1.93114 0.270538 0
M  V30 5343 O 497.481 -1.82585 -0.709891 0
M  V30 5344 H 496.061 -0.466571 0.58337 0
M  V30 5345 H 498.723 -0.584547 1.85928 0
M  V30 5346 H 497.819 -2.02159 2.37778 0
M  V30 5347 N 498.12 -1.38341 -0.754957 0
M  V30 5348 C 499.367 -1.34473 -1.51404 0
M  V30 5349 C 499.695 0.0656458 -1.94389 0
M  V30 5350 O 498.95 1.04244 -1.65625 0
M  V30 5351 C 499.249 -2.2452 -2.78075 0
M  V30 5352 C 498.915 -3.72512 -2.54059 0
M  V30 5353 C 497.577 -4.1284 -2.47218 0
M  V30 5354 C 499.929 -4.66197 -2.33044 0
M  V30 5355 C 497.257 -5.44945 -2.17376 0
M  V30 5356 C 499.609 -5.98558 -2.04723 0
M  V30 5357 C 498.273 -6.37972 -1.96337 0
M  V30 5358 H 497.543 -0.492072 -0.554027 0
M  V30 5359 H 500.19 -1.70687 -0.868223 0
M  V30 5360 H 498.495 -1.81357 -3.473 0
M  V30 5361 H 500.192 -2.18832 -3.36026 0
M  V30 5362 H 496.782 -3.40538 -2.60253 0
M  V30 5363 H 500.966 -4.35888 -2.37309 0
M  V30 5364 H 496.222 -5.74426 -2.09391 0
M  V30 5365 H 500.396 -6.70693 -1.87465 0
M  V30 5366 H 498.023 -7.40258 -1.72978 0
M  V30 5367 N 499.598 0.982988 -1.23187 0
M  V30 5368 C 500.823 1.76455 -1.08988 0
M  V30 5369 C 501.248 1.84726 0.354691 0
M  V30 5370 O 500.606 1.30699 1.25649 0
M  V30 5371 C 500.654 3.17094 -1.71708 0
M  V30 5372 O 499.758 4.00648 -0.977477 0
M  V30 5373 H 499.099 0.542988 -0.382177 0
M  V30 5374 H 501.629 1.23413 -1.63188 0
M  V30 5375 H 501.639 3.67684 -1.76841 0
M  V30 5376 H 500.314 3.10389 -2.76823 0
M  V30 5377 H 498.891 3.59161 -1.0029 0
M  V30 5378 N 501.076 1.04316 1.18135 0
M  V30 5379 C 501.986 0.646876 2.25505 0
M  V30 5380 C 503.002 -0.328008 1.7088 0
M  V30 5381 O 504.178 -0.182309 2.00573 0
M  V30 5382 C 501.243 0.0185664 3.46695 0
M  V30 5383 C 500.304 1.04277 4.16443 0
M  V30 5384 C 499.537 0.444352 5.31847 0
M  V30 5385 O 499.76 -0.748735 5.65465 0
M  V30 5386 O 498.694 1.17428 5.90334 0
M  V30 5387 H 502.52 1.54147 2.61672 0
M  V30 5388 H 500.105 0.814188 1.25265 0
M  V30 5389 H 501.987 -0.331068 4.20097 0
M  V30 5390 H 500.662 -0.849814 3.12346 0
M  V30 5391 H 499.569 1.44425 3.45098 0
M  V30 5392 H 500.902 1.882 4.54798 0
M  V30 5393 N 502.554 -1.34406 0.822964 0
M  V30 5394 C 503.464 -2.33298 0.246838 0
M  V30 5395 C 504.48 -1.62625 -0.618797 0
M  V30 5396 O 505.656 -1.94391 -0.526685 0
M  V30 5397 C 502.721 -3.41785 -0.581731 0
M  V30 5398 C 501.782 -4.28206 0.306309 0
M  V30 5399 C 501.015 -5.31512 -0.48281 0
M  V30 5400 O 501.238 -5.43973 -1.71607 0
M  V30 5401 O 500.172 -6.01749 0.134884 0
M  V30 5402 H 503.998 -2.84401 1.06534 0
M  V30 5403 H 501.583 -1.37466 0.585108 0
M  V30 5404 H 503.465 -4.08028 -1.05313 0
M  V30 5405 H 502.14 -2.92925 -1.37756 0
M  V30 5406 H 501.047 -3.64885 0.825199 0
M  V30 5407 H 502.38 -4.80507 1.06649 0
M  V30 5408 N 504.032 -0.577932 -1.46621 0
M  V30 5409 C 504.942 0.160651 -2.34049 0
M  V30 5410 C 505.958 0.890911 -1.49462 0
M  V30 5411 O 507.134 0.855166 -1.82343 0
M  V30 5412 C 504.199 1.16447 -3.26559 0
M  V30 5413 C 503.26 0.4394 -4.27045 0
M  V30 5414 C 502.493 1.3954 -5.15135 0
M  V30 5415 O 502.716 2.63162 -5.06065 0
M  V30 5416 O 501.65 0.908585 -5.95003 0
M  V30 5417 H 505.476 -0.557057 -2.98547 0
M  V30 5418 H 503.061 -0.338369 -1.45518 0
M  V30 5419 H 504.943 1.7434 -3.83645 0
M  V30 5420 H 503.618 1.86373 -2.64663 0
M  V30 5421 H 502.525 -0.181247 -3.73661 0
M  V30 5422 H 503.858 -0.218799 -4.91713 0
M  V30 5423 N 505.51 1.54411 -0.315457 0
M  V30 5424 C 506.442 2.21527 0.588067 0
M  V30 5425 C 507.455 1.21263 1.08624 0
M  V30 5426 O 508.644 1.47777 1.00121 0
M  V30 5427 C 505.744 2.85963 1.81875 0
M  V30 5428 C 504.917 4.12291 1.46063 0
M  V30 5429 C 503.976 4.60396 2.54799 0
M  V30 5430 O 503.002 5.25265 2.19283 0
M  V30 5431 N 504.204 4.33935 3.85591 0
M  V30 5432 H 506.969 2.99697 0.013414 0
M  V30 5433 H 504.53 1.61308 -0.138295 0
M  V30 5434 H 506.522 3.15071 2.53993 0
M  V30 5435 H 505.092 2.11548 2.30144 0
M  V30 5436 H 504.312 3.90036 0.571445 0
M  V30 5437 H 505.6 4.9452 1.19695 0
M  V30 5438 H 504.998 3.81996 4.17248 0
M  V30 5439 H 503.555 4.67718 4.53964 0
M  V30 5440 N 506.988 0.0434614 1.5754 0
M  V30 5441 C 507.918 -0.931651 2.14109 0
M  V30 5442 C 508.899 -1.32971 1.06079 0
M  V30 5443 O 510.084 -1.40579 1.33982 0
M  V30 5444 C 507.214 -2.20914 2.67982 0
M  V30 5445 C 506.168 -1.95139 3.80926 0
M  V30 5446 C 505.494 -3.29276 4.21285 0
M  V30 5447 C 506.794 -1.27913 5.06395 0
M  V30 5448 H 508.488 -0.460497 2.95837 0
M  V30 5449 H 506.034 -0.220058 1.42309 0
M  V30 5450 H 507.987 -2.89522 3.06194 0
M  V30 5451 H 506.711 -2.70221 1.83434 0
M  V30 5452 H 505.37 -1.28945 3.43175 0
M  V30 5453 H 505.018 -3.76369 3.33699 0
M  V30 5454 H 504.718 -3.12831 4.97404 0
M  V30 5455 H 506.242 -3.99129 4.62091 0
M  V30 5456 H 507.656 -1.86544 5.42102 0
M  V30 5457 H 506.053 -1.2182 5.87605 0
M  V30 5458 H 507.123 -0.254066 4.84234 0
M  V30 5459 N 508.466 -1.55915 -0.229846 0
M  V30 5460 C 509.691 -1.8296 -0.976743 0
M  V30 5461 C 510.116 -0.622735 -1.77493 0
M  V30 5462 O 509.474 0.428431 -1.76165 0
M  V30 5463 C 509.522 -3.07916 -1.8767 0
M  V30 5464 O 508.626 -2.86028 -2.97088 0
M  V30 5465 H 507.967 -0.603453 -0.277021 0
M  V30 5466 H 510.497 -2.0312 -0.245669 0
M  V30 5467 H 510.507 -3.37802 -2.2881 0
M  V30 5468 H 509.182 -3.95389 -1.28996 0
M  V30 5469 H 507.759 -2.67355 -2.59954 0
M  V30 5470 N 509.944 0.496216 -1.49584 0
M  V30 5471 C 511.193 1.24668 -1.58558 0
M  V30 5472 C 511.506 1.9359 -0.279703 0
M  V30 5473 O 512.712 2.70365 -0.248048 0
M  V30 5474 C 511.168 2.26388 -2.79779 0
M  V30 5475 C 510.776 1.63384 -4.17145 0
M  V30 5476 C 512.52 3.02233 -2.98086 0
M  V30 5477 C 510.427 2.63243 -5.29582 0
M  V30 5478 H 509.357 0.468995 -0.590389 0
M  V30 5479 H 512.008 0.519985 -1.75978 0
M  V30 5480 H 510.39 3.02241 -2.55863 0
M  V30 5481 H 511.564 0.93491 -4.51216 0
M  V30 5482 H 509.879 0.999121 -4.04236 0
M  V30 5483 H 512.476 3.76919 -3.79257 0
M  V30 5484 H 512.819 3.60132 -2.08831 0
M  V30 5485 H 513.352 2.33495 -3.22063 0
M  V30 5486 H 510.091 2.10119 -6.20911 0
M  V30 5487 H 509.611 3.31363 -4.99959 0
M  V30 5488 H 511.29 3.25575 -5.59115 0
M  V30 5489 N 511.423 1.38739 0.74761 0
M  V30 5490 C 512.353 1.39173 1.87492 0
M  V30 5491 C 513.334 0.256794 1.6815 0
M  V30 5492 O 514.519 0.460762 1.88655 0
M  V30 5493 C 511.649 1.22197 3.25093 0
M  V30 5494 C 510.603 2.32957 3.59047 0
M  V30 5495 C 509.929 2.01082 4.95449 0
M  V30 5496 C 511.229 3.75237 3.6331 0
M  V30 5497 H 512.923 2.3351 1.87386 0
M  V30 5498 H 510.469 1.12399 0.900134 0
M  V30 5499 H 512.422 1.21124 4.03617 0
M  V30 5500 H 511.146 0.243241 3.25693 0
M  V30 5501 H 509.805 2.33226 2.82845 0
M  V30 5502 H 509.453 1.01678 4.92616 0
M  V30 5503 H 509.153 2.75267 5.19136 0
M  V30 5504 H 510.677 2.01638 5.76346 0
M  V30 5505 H 512.091 3.76966 4.31937 0
M  V30 5506 H 510.488 4.48677 3.98509 0
M  V30 5507 H 511.558 4.07122 2.634 0
M  V30 5508 N 512.901 -0.976442 1.23707 0
M  V30 5509 C 513.848 -2.06952 1.02174 0
M  V30 5510 C 514.818 -1.65984 -0.0621034 0
M  V30 5511 O 516.003 -1.90584 0.0907906 0
M  V30 5512 C 513.143 -3.39425 0.62327 0
M  V30 5513 C 512.256 -3.9364 1.77966 0
M  V30 5514 C 511.391 -5.14343 1.3276 0
M  V30 5515 C 510.43 -5.60733 2.45449 0
M  V30 5516 N 509.567 -6.72662 2.01172 0
M  V30 5517 H 514.407 -2.24704 1.95734 0
M  V30 5518 H 511.944 -1.10143 0.975034 0
M  V30 5519 H 513.902 -4.15526 0.37332 0
M  V30 5520 H 512.532 -3.21624 -0.275329 0
M  V30 5521 H 511.584 -3.14258 2.14351 0
M  V30 5522 H 512.896 -4.24035 2.62671 0
M  V30 5523 H 512.05 -5.97789 1.03601 0
M  V30 5524 H 510.789 -4.8561 0.450975 0
M  V30 5525 H 509.794 -4.75865 2.75378 0
M  V30 5526 H 511.019 -5.91483 3.33654 0
M  V30 5527 H 508.965 -6.45681 1.15895 0
M  V30 5528 H 508.882 -7.02462 2.79434 0
M  V30 5529 H 510.15 -7.59572 1.75129 0
M  V30 5530 N 514.379 -1.04941 -1.1758 0
M  V30 5531 C 515.625 -0.759112 -1.88057 0
M  V30 5532 C 515.958 0.711918 -1.8068 0
M  V30 5533 O 515.233 1.52035 -1.21308 0
M  V30 5534 C 515.516 -1.237 -3.38187 0
M  V30 5535 C 515.369 -2.77078 -3.54327 0
M  V30 5536 C 516.688 -0.834014 -4.32125 0
M  V30 5537 H 513.807 -0.277237 -0.682868 0
M  V30 5538 H 516.449 -1.30296 -1.38286 0
M  V30 5539 H 514.599 -0.774337 -3.80705 0
M  V30 5540 H 516.271 -3.31449 -3.20842 0
M  V30 5541 H 514.514 -3.16477 -2.96689 0
M  V30 5542 H 515.185 -3.05577 -4.59703 0
M  V30 5543 H 517.661 -1.23228 -3.97434 0
M  V30 5544 H 516.537 -1.19603 -5.35711 0
M  V30 5545 H 516.798 0.262195 -4.41322 0
M  V30 5546 N 515.857 1.33968 -0.830081 0
M  V30 5547 C 517.103 1.98357 -0.422191 0
M  V30 5548 C 517.436 1.65633 1.01387 0
M  V30 5549 O 516.711 0.931648 1.70735 0
M  V30 5550 C 516.994 3.54492 -0.633043 0
M  V30 5551 C 516.847 3.96934 -2.11574 0
M  V30 5552 C 518.166 4.40039 -0.0735584 0
M  V30 5553 H 515.285 0.720544 -0.154871 0
M  V30 5554 H 517.927 1.58749 -1.04397 0
M  V30 5555 H 516.077 3.88361 -0.103775 0
M  V30 5556 H 517.749 3.73363 -2.7092 0
M  V30 5557 H 515.992 3.46984 -2.60354 0
M  V30 5558 H 516.663 5.05651 -2.21406 0
M  V30 5559 H 519.139 4.12764 -0.52585 0
M  V30 5560 H 518.015 5.48327 -0.250841 0
M  V30 5561 H 518.276 4.30124 1.02202 0
M  V30 5562 N 517.335 0.585699 1.46312 0
M  V30 5563 C 518.56 0.0762461 2.0726 0
M  V30 5564 C 518.985 -1.22071 1.43109 0
M  V30 5565 O 518.343 -1.73804 0.515942 0
M  V30 5566 C 518.391 -0.0729404 3.60526 0
M  V30 5567 O 517.495 -1.1287 3.96654 0
M  V30 5568 H 516.836 0.0641558 0.660893 0
M  V30 5569 H 519.366 0.809492 1.87905 0
M  V30 5570 H 519.376 -0.278158 4.07051 0
M  V30 5571 H 518.051 0.874188 4.06609 0
M  V30 5572 H 516.628 -0.901703 3.61834 0
M  V30 5573 N 518.813 -1.54241 0.323641 0
M  V30 5574 C 520.038 -2.05452 -0.283605 0
M  V30 5575 C 520.463 -1.19823 -1.44997 0
M  V30 5576 O 519.821 -0.207358 -1.8011 0
M  V30 5577 C 519.869 -3.53823 -0.695795 0
M  V30 5578 O 518.973 -3.71134 -1.79815 0
M  V30 5579 H 518.314 -0.662024 -0.0511917 0
M  V30 5580 H 520.844 -1.99079 0.472073 0
M  V30 5581 H 520.854 -3.96094 -0.978434 0
M  V30 5582 H 519.529 -4.15602 0.157287 0
M  V30 5583 H 518.106 -3.40768 -1.51431 0
M  V30 5584 N 520.291 -0.0518155 -1.57515 0
M  V30 5585 C 521.537 0.622745 -1.93002 0
M  V30 5586 C 521.87 1.70456 -0.930499 0
M  V30 5587 O 521.145 1.94452 0.0434086 0
M  V30 5588 C 521.428 1.21824 -3.38867 0
M  V30 5589 C 521.281 0.144434 -4.49568 0
M  V30 5590 C 522.6 2.12968 -3.8514 0
M  V30 5591 H 519.719 0.22491 -0.701844 0
M  V30 5592 H 522.361 -0.113711 -1.89659 0
M  V30 5593 H 520.511 1.8459 -3.41846 0
M  V30 5594 H 522.183 -0.48753 -4.58717 0
M  V30 5595 H 520.426 -0.527424 -4.30582 0
M  V30 5596 H 521.097 0.601127 -5.48717 0
M  V30 5597 H 523.573 1.60163 -3.8404 0
M  V30 5598 H 522.449 2.51578 -4.87852 0
M  V30 5599 H 522.71 3.03004 -3.21934 0
M  V30 5600 N 521.769 1.56035 0.221574 0
M  V30 5601 C 522.699 1.95434 1.2778 0
M  V30 5602 C 523.68 0.822564 1.48889 0
M  V30 5603 O 524.865 1.08486 1.61072 0
M  V30 5604 C 521.995 2.27102 2.62759 0
M  V30 5605 C 520.949 3.4277 2.56306 0
M  V30 5606 C 520.275 3.60043 3.95314 0
M  V30 5607 C 521.575 4.77742 2.11093 0
M  V30 5608 H 523.269 2.83912 0.950504 0
M  V30 5609 H 520.815 1.36596 0.455791 0
M  V30 5610 H 522.768 2.53256 3.36807 0
M  V30 5611 H 521.492 1.35478 2.97176 0
M  V30 5612 H 520.151 3.16664 1.84715 0
M  V30 5613 H 519.799 2.65794 4.27039 0
M  V30 5614 H 519.499 4.37841 3.91879 0
M  V30 5615 H 521.023 3.88545 4.71025 0
M  V30 5616 H 522.437 5.03102 2.74885 0
M  V30 5617 H 520.834 5.58823 2.18716 0
M  V30 5618 H 521.904 4.731 1.06321 0
M  V30 5619 N 523.247 -0.488276 1.49845 0
M  V30 5620 C 524.179 -1.60539 1.63584 0
M  V30 5621 C 525.192 -1.5434 0.517972 0
M  V30 5622 O 526.381 -1.60041 0.790516 0
M  V30 5623 C 523.481 -2.99374 1.58835 0
M  V30 5624 C 522.654 -3.30624 2.86368 0
M  V30 5625 C 521.713 -4.4893 2.74496 0
M  V30 5626 O 520.739 -4.50085 3.48443 0
M  V30 5627 N 521.941 -5.49591 1.86894 0
M  V30 5628 H 524.706 -1.49176 2.59936 0
M  V30 5629 H 522.267 -0.67639 1.47094 0
M  V30 5630 H 524.259 -3.76459 1.48529 0
M  V30 5631 H 522.829 -3.04595 0.702892 0
M  V30 5632 H 522.049 -2.42314 3.1093 0
M  V30 5633 H 523.337 -3.48305 3.70892 0
M  V30 5634 H 522.735 -5.51467 1.26097 0
M  V30 5635 H 521.292 -6.25728 1.82503 0
M  V30 5636 N 524.725 -1.39134 -0.740242 0
M  V30 5637 C 525.655 -1.40165 -1.86751 0
M  V30 5638 C 526.636 -0.265708 -1.68012 0
M  V30 5639 O 527.821 -0.47076 -1.88408 0
M  V30 5640 C 524.951 -1.2392 -3.2444 0
M  V30 5641 C 523.905 -2.34858 -3.57807 0
M  V30 5642 C 523.231 -2.03707 -4.94376 0
M  V30 5643 C 524.531 -3.77159 -3.61315 0
M  V30 5644 H 526.225 -2.345 -1.86145 0
M  V30 5645 H 523.771 -1.12875 -0.89416 0
M  V30 5646 H 525.724 -1.23263 -4.02969 0
M  V30 5647 H 524.448 -0.26051 -3.25559 0
M  V30 5648 H 523.107 -2.34723 -2.81604 0
M  V30 5649 H 522.755 -1.04289 -4.9207 0
M  V30 5650 H 522.455 -2.78016 -5.17669 0
M  V30 5651 H 523.979 -2.04691 -5.75268 0
M  V30 5652 H 525.393 -3.79252 -4.29931 0
M  V30 5653 H 523.79 -4.50784 -3.96124 0
M  V30 5654 H 524.86 -4.08513 -2.61238 0
M  V30 5655 N 526.204 0.969867 -1.24223 0
M  V30 5656 C 527.452 1.70918 -1.0785 0
M  V30 5657 C 527.773 1.91186 0.383763 0
M  V30 5658 O 527.043 1.48806 1.27411 0
M  V30 5659 H 525.623 0.633334 -0.396103 0
M  V30 5660 H 528.285 1.16689 -1.56108 0
M  V30 5661 H 527.381 2.69455 -1.57482 0
M  V30 5662 N 527.682 1.05563 1.17022 0
M  V30 5663 C 528.63 0.653887 2.2322 0
M  V30 5664 C 529.624 -0.326642 1.66221 0
M  V30 5665 O 530.83 -0.192301 1.7897 0
M  V30 5666 H 527.205 0.193297 0.726733 0
M  V30 5667 H 529.176 1.5596 2.54399 0
M  V30 5668 C 527.925 0.0485434 3.47666 0
M  V30 5669 H 527.248 0.79413 3.91834 0
M  V30 5670 H 528.688 -0.195133 4.23551 0
M  V30 5671 C 527.147 -1.20583 3.14581 0
M  V30 5672 O 527.677 -2.29475 3.29703 0
M  V30 5673 N 525.883 -1.10493 2.68774 0
M  V30 5674 H 525.43 -0.218795 2.56669 0
M  V30 5675 H 525.388 -1.94507 2.47011 0
M  V30 5676 N 529.16 -1.33526 0.837174 0
M  V30 5677 C 530.409 -1.97098 0.428387 0
M  V30 5678 C 530.722 -1.67062 -1.01734 0
M  V30 5679 O 531.928 -2.24235 -1.53072 0
M  V30 5680 C 530.384 -3.52725 0.715075 0
M  V30 5681 C 529.992 -3.9164 2.17537 0
M  V30 5682 C 531.736 -4.22857 0.373154 0
M  V30 5683 C 529.643 -5.40237 2.40619 0
M  V30 5684 H 528.573 -0.737589 0.156455 0
M  V30 5685 H 531.224 -1.52169 1.02552 0
M  V30 5686 H 529.606 -3.95971 0.0475904 0
M  V30 5687 H 530.78 -3.59456 2.88319 0
M  V30 5688 H 529.095 -3.34485 2.4801 0
M  V30 5689 H 531.692 -5.32133 0.523264 0
M  V30 5690 H 532.035 -4.10647 -0.683708 0
M  V30 5691 H 532.568 -3.85135 0.995801 0
M  V30 5692 H 529.307 -5.57449 3.44864 0
M  V30 5693 H 528.827 -5.73887 1.74396 0
M  V30 5694 H 530.506 -6.07102 2.23688 0
M  V30 5695 N 530.638 -0.59345 -1.46 0
M  V30 5696 C 531.884 -0.0832754 -2.02629 0
M  V30 5697 C 532.217 1.27749 -1.46266 0
M  V30 5698 O 531.492 1.8395 -0.631866 0
M  V30 5699 C 531.775 -0.0290756 -3.60088 0
M  V30 5700 C 531.628 -1.41951 -4.26814 0
M  V30 5701 C 532.947 0.666055 -4.35031 0
M  V30 5702 H 530.066 -0.031736 -0.736316 0
M  V30 5703 H 532.708 -0.762711 -1.74019 0
M  V30 5704 H 530.858 0.549532 -3.84594 0
M  V30 5705 H 532.53 -2.04411 -4.13538 0
M  V30 5706 H 530.773 -1.98422 -3.8576 0
M  V30 5707 H 531.444 -1.33395 -5.3564 0
M  V30 5708 H 533.92 0.174401 -4.15734 0
M  V30 5709 H 532.796 0.673041 -5.44758 0
M  V30 5710 H 533.057 1.72946 -4.06869 0
M  V30 5711 N 532.116 1.54067 -0.331816 0
M  V30 5712 C 533.363 2.00715 0.268269 0
M  V30 5713 C 533.691 1.21986 1.51491 0
M  V30 5714 O 532.946 0.292309 1.93505 0
M  V30 5715 C 533.245 3.51634 0.639392 0
M  V30 5716 C 532.911 4.48018 -0.509019 0
M  V30 5717 C 531.573 4.74089 -0.824209 0
M  V30 5718 C 533.925 5.05237 -1.28003 0
M  V30 5719 C 531.253 5.54637 -1.91298 0
M  V30 5720 C 533.605 5.86972 -2.35895 0
M  V30 5721 C 532.269 6.11342 -2.67987 0
M  V30 5722 H 531.539 0.734469 0.0981667 0
M  V30 5723 H 534.186 1.8596 -0.457304 0
M  V30 5724 H 532.491 3.6416 1.44551 0
M  V30 5725 H 534.188 3.85175 1.11539 0
M  V30 5726 H 530.778 4.27851 -0.253287 0
M  V30 5727 H 534.962 4.8507 -1.04978 0
M  V30 5728 H 530.218 5.71747 -2.16599 0
M  V30 5729 H 534.392 6.30327 -2.96076 0
M  V30 5730 H 532.019 6.73544 -3.5248 0
M  V30 5731 N 533.594 0.0601682 1.57485 0
M  V30 5732 C 534.541 -0.91112 2.12055 0
M  V30 5733 C 535.511 -1.30298 1.03013 0
M  V30 5734 O 536.696 -1.39087 1.30612 0
M  V30 5735 C 533.836 -2.1775 2.67729 0
M  V30 5736 C 532.949 -1.83933 3.90887 0
M  V30 5737 C 532.084 -3.05096 4.34845 0
M  V30 5738 C 531.123 -2.67241 5.5068 0
M  V30 5739 N 530.26 -3.81127 5.8965 0
M  V30 5740 H 535.1 -0.43888 2.9475 0
M  V30 5741 H 532.637 -0.204995 1.45665 0
M  V30 5742 H 534.595 -2.91866 2.98111 0
M  V30 5743 H 533.225 -2.62535 1.87816 0
M  V30 5744 H 532.277 -0.999287 3.6704 0
M  V30 5745 H 533.589 -1.52074 4.75052 0
M  V30 5746 H 532.743 -3.87502 4.66827 0
M  V30 5747 H 531.482 -3.40139 3.49509 0
M  V30 5748 H 530.487 -1.83254 5.18361 0
M  V30 5749 H 531.712 -2.3338 6.37738 0
M  V30 5750 H 529.658 -4.15954 5.07266 0
M  V30 5751 H 529.575 -3.52997 6.68528 0
M  V30 5752 H 530.843 -4.64145 6.2625 0
M  V30 5753 N 535.072 -1.5615 -0.213296 0
M  V30 5754 C 536.019 -1.93086 -1.26437 0
M  V30 5755 C 536.989 -0.789086 -1.4616 0
M  V30 5756 O 538.174 -1.04569 -1.59593 0
M  V30 5757 C 535.314 -2.26003 -2.608 0
M  V30 5758 C 534.427 -3.53156 -2.48807 0
M  V30 5759 C 533.562 -3.7548 -3.7575 0
M  V30 5760 C 532.601 -4.96119 -3.58514 0
M  V30 5761 N 531.738 -5.14791 -4.77425 0
M  V30 5762 H 536.578 -2.82707 -0.942376 0
M  V30 5763 H 534.115 -1.39919 -0.454001 0
M  V30 5764 H 536.073 -2.431 -3.39055 0
M  V30 5765 H 534.703 -1.39546 -2.91079 0
M  V30 5766 H 533.755 -3.44207 -1.61944 0
M  V30 5767 H 535.067 -4.41565 -2.31996 0
M  V30 5768 H 534.221 -3.92718 -4.62447 0
M  V30 5769 H 532.96 -2.85368 -3.95495 0
M  V30 5770 H 531.965 -4.78823 -2.70201 0
M  V30 5771 H 533.19 -5.87724 -3.40231 0
M  V30 5772 H 531.136 -4.27623 -4.97468 0
M  V30 5773 H 531.053 -5.97347 -4.63371 0
M  V30 5774 H 532.321 -5.36471 -5.65525 0
M  V30 5775 N 536.55 0.480323 -1.50102 0
M  V30 5776 C 537.46 1.60547 -1.71061 0
M  V30 5777 C 538.476 1.63564 -0.593529 0
M  V30 5778 O 539.652 1.81604 -0.870751 0
M  V30 5779 C 536.717 2.96814 -1.79171 0
M  V30 5780 C 535.778 3.04259 -3.02861 0
M  V30 5781 C 535.011 4.34027 -3.10574 0
M  V30 5782 O 535.234 5.24009 -2.25323 0
M  V30 5783 O 534.168 4.46873 -4.03223 0
M  V30 5784 H 537.994 1.45788 -2.6642 0
M  V30 5785 H 535.579 0.658838 -1.34088 0
M  V30 5786 H 537.461 3.77765 -1.86738 0
M  V30 5787 H 536.136 3.11791 -0.869947 0
M  V30 5788 H 535.043 2.22419 -3.008 0
M  V30 5789 H 536.376 2.94216 -3.94586 0
M  V30 5790 N 538.028 1.39524 0.732853 0
M  V30 5791 C 539.444 1.21176 1.03868 0
M  V30 5792 C 539.644 0.0748448 2.01361 0
M  V30 5793 O 538.7 -0.57281 2.45917 0
M  V30 5794 C 540.013 2.54667 1.59892 0
M  V30 5795 C 541.561 2.6153 1.71962 0
M  V30 5796 C 542.036 3.95248 2.31394 0
M  V30 5797 N 543.527 3.96899 2.38801 0
M  V30 5798 C 544.262 4.97138 2.85729 0
M  V30 5799 N 543.758 6.07775 3.32537 0
M  V30 5800 N 545.551 4.84516 2.84957 0
M  V30 5801 H 537.702 2.12225 0.086304 0
M  V30 5802 H 539.965 0.942614 0.100907 0
M  V30 5803 H 539.671 3.38423 0.95721 0
M  V30 5804 H 539.545 2.74538 2.58668 0
M  V30 5805 H 541.932 1.78156 2.35254 0
M  V30 5806 H 542.013 2.45507 0.718327 0
M  V30 5807 H 541.657 4.79054 1.68729 0
M  V30 5808 H 541.587 4.08593 3.32204 0
M  V30 5809 H 544.078 3.16998 2.05719 0
M  V30 5810 H 544.391 6.8017 3.66862 0
M  V30 5811 H 542.736 6.11366 3.30541 0
M  V30 5812 H 545.927 3.97185 2.47713 0
M  V30 5813 H 546.1 5.62783 3.21215 0
M  V30 5814 N 539.506 -0.963266 1.24736 0
M  V30 5815 C 540.454 -2.07985 1.04139 0
M  V30 5816 C 541.448 -1.69381 -0.0250556 0
M  V30 5817 O 542.654 -1.79531 0.129863 0
M  V30 5818 H 539.029 -0.680627 0.319768 0
M  V30 5819 H 541 -2.22517 1.98818 0
M  V30 5820 C 539.749 -3.4123 0.667615 0
M  V30 5821 H 539.072 -3.71397 1.48 0
M  V30 5822 H 540.512 -4.20244 0.563136 0
M  V30 5823 C 538.971 -3.3104 -0.625647 0
M  V30 5824 O 539.501 -3.65334 -1.67016 0
M  V30 5825 N 537.707 -2.84168 -0.608033 0
M  V30 5826 H 537.254 -2.56458 0.242323 0
M  V30 5827 H 537.212 -2.77732 -1.47352 0
M  V30 5828 N 540.985 -1.06182 -1.16461 0
M  V30 5829 C 542.213 -0.798583 -1.90867 0
M  V30 5830 C 542.628 0.646921 -1.77371 0
M  V30 5831 O 541.985 1.44279 -1.11758 0
M  V30 5832 C 542.036 -1.18258 -3.4161 0
M  V30 5833 O 541.757 -2.57135 -3.54701 0
M  V30 5834 C 543.258 -0.946917 -4.33069 0
M  V30 5835 H 540.478 -0.289603 -0.605286 0
M  V30 5836 H 543.022 -1.41515 -1.47627 0
M  V30 5837 H 541.177 -0.610562 -3.82558 0
M  V30 5838 H 541.591 -2.72477 -4.4817 0
M  V30 5839 H 543.065 -1.26523 -5.37304 0
M  V30 5840 H 543.542 0.117406 -4.39043 0
M  V30 5841 H 544.148 -1.50326 -3.97847 0
M  V30 5842 N 542.463 1.3308 -0.844243 0
M  V30 5843 C 543.74 1.92178 -0.364261 0
M  V30 5844 C 544.12 1.76961 1.15101 0
M  V30 5845 O 543.468 1.16128 1.9679 0
M  V30 5846 C 543.678 3.393 -0.817106 0
M  V30 5847 C 545.026 4.16444 -0.828236 0
M  V30 5848 O 546.05 3.47975 -0.761062 0
M  V30 5849 O 544.909 5.38685 -0.920926 0
M  V30 5850 H 542.003 0.820411 -0.10419 0
M  V30 5851 H 544.549 1.41918 -0.930453 0
M  V30 5852 H 543.321 3.44272 -1.85991 0
M  V30 5853 H 542.944 3.96947 -0.227785 0
M  V30 5854 N 543.941 0.601185 1.45683 0
M  V30 5855 C 544.873 -0.159446 2.28645 0
M  V30 5856 C 545.886 -0.837882 1.39583 0
M  V30 5857 O 547.075 -0.704344 1.64016 0
M  V30 5858 C 544.175 -1.24641 3.15147 0
M  V30 5859 C 543.348 -0.656334 4.32448 0
M  V30 5860 C 542.407 -1.63337 5.00208 0
M  V30 5861 O 541.433 -1.16217 5.57209 0
M  V30 5862 N 542.635 -2.96773 4.98905 0
M  V30 5863 H 545.4 0.5524 2.94565 0
M  V30 5864 H 542.961 0.440223 1.558 0
M  V30 5865 H 544.953 -1.8997 3.57342 0
M  V30 5866 H 543.523 -1.86087 2.51178 0
M  V30 5867 H 542.743 0.174879 3.93812 0
M  V30 5868 H 544.031 -0.242211 5.08223 0
M  V30 5869 H 543.429 -3.37662 4.53873 0
M  V30 5870 H 541.986 -3.57541 5.44984 0
M  V30 5871 N 545.419 -1.53889 0.339982 0
M  V30 5872 C 546.382 -2.23547 -0.50592 0
M  V30 5873 C 547.382 -1.23445 -1.03044 0
M  V30 5874 O 548.572 -1.47909 -0.920253 0
M  V30 5875 C 545.704 -2.95234 -1.7044 0
M  V30 5876 H 546.897 -2.99722 0.103247 0
M  V30 5877 H 544.45 -1.56033 0.0912804 0
M  V30 5878 H 545.185 -2.23236 -2.35236 0
M  V30 5879 H 544.97 -3.68654 -1.33553 0
M  V30 5880 H 546.46 -3.48258 -2.30447 0
M  V30 5881 N 546.897 -0.0685191 -1.57451 0
M  V30 5882 C 548.122 0.613919 -1.98106 0
M  V30 5883 C 548.547 1.62551 -0.946501 0
M  V30 5884 O 547.905 1.81085 0.0882824 0
M  V30 5885 C 547.953 1.26189 -3.378 0
M  V30 5886 O 547.057 2.37773 -3.36954 0
M  V30 5887 H 546.398 0.158163 -0.644888 0
M  V30 5888 H 548.928 -0.142063 -2.04106 0
M  V30 5889 H 548.938 1.60951 -3.74912 0
M  V30 5890 H 547.613 0.520625 -4.12629 0
M  V30 5891 H 546.19 2.04829 -3.11608 0
M  V30 5892 N 548.375 1.56261 0.205012 0
M  V30 5893 C 549.308 1.88797 1.28183 0
M  V30 5894 C 550.286 0.747018 1.44424 0
M  V30 5895 O 551.47 0.997039 1.59973 0
M  V30 5896 C 548.597 2.10949 2.64987 0
M  V30 5897 C 547.643 3.33649 2.6567 0
M  V30 5898 S 548.476 4.89078 2.18088 0
M  V30 5899 C 549.632 5.14286 3.56736 0
M  V30 5900 H 549.865 2.79837 1.00393 0
M  V30 5901 H 547.398 1.48911 0.408042 0
M  V30 5902 H 549.356 2.24395 3.4374 0
M  V30 5903 H 548.017 1.20678 2.89993 0
M  V30 5904 H 547.21 3.46245 3.66239 0
M  V30 5905 H 546.812 3.19146 1.94992 0
M  V30 5906 H 549.104 5.04198 4.52537 0
M  V30 5907 H 550.047 6.16096 3.49043 0
M  V30 5908 H 550.455 4.41957 3.51189 0
M  V30 5909 N 549.853 -0.472356 1.50355 0
M  V30 5910 C 551.264 -1.05326 1.54154 0
M  V30 5911 C 551.615 -1.93155 0.344303 0
M  V30 5912 O 550.74 -2.09479 -0.542928 0
M  V30 5913 C 551.335 -1.91691 2.79356 0
M  V30 5914 C 549.894 -2.44892 2.8584 0
M  V30 5915 C 549.041 -1.23205 2.48426 0
M  V30 5916 H 551.992 -0.255027 1.56637 0
M  V30 5917 H 552.013 -2.76742 2.6114 0
M  V30 5918 H 551.525 -1.27741 3.66475 0
M  V30 5919 H 549.626 -3.12399 2.0307 0
M  V30 5920 H 549.739 -2.80086 3.88701 0
M  V30 5921 H 548.103 -1.56643 2.00836 0
M  V30 5922 H 548.886 -0.609194 3.37852 0
M  V30 5923 N 551.331 -1.39911 -0.725443 0
M  V30 5924 C 552.608 -1.28158 -1.47766 0
M  V30 5925 C 552.988 0.104545 -2.10841 0
M  V30 5926 O 552.336 1.11657 -1.99361 0
M  V30 5927 C 552.546 -2.41306 -2.52135 0
M  V30 5928 C 553.894 -2.81076 -3.18247 0
M  V30 5929 O 554.918 -2.40827 -2.62452 0
M  V30 5930 O 553.777 -3.50581 -4.19231 0
M  V30 5931 H 550.871 -0.502761 -0.656628 0
M  V30 5932 H 553.417 -1.51808 -0.758456 0
M  V30 5933 H 552.189 -3.33932 -2.03974 0
M  V30 5934 H 551.812 -2.19374 -3.31603 0
M  V30 5935 N 552.809 0.956637 -1.25245 0
M  V30 5936 C 553.757 2.0743 -1.0524 0
M  V30 5937 C 554.751 1.69392 0.0160725 0
M  V30 5938 O 555.957 1.7946 -0.139382 0
M  V30 5939 H 552.332 0.678921 -0.323373 0
M  V30 5940 H 554.303 2.2146 -1.99995 0
M  V30 5941 C 553.052 3.40872 -0.685702 0
M  V30 5942 H 552.375 3.70607 -1.49968 0
M  V30 5943 H 553.815 4.19939 -0.585415 0
M  V30 5944 C 552.274 3.31367 0.608082 0
M  V30 5945 O 552.804 3.66214 1.65076 0
M  V30 5946 N 551.01 2.84486 0.592955 0
M  V30 5947 H 550.557 2.56326 -0.25592 0
M  V30 5948 H 550.515 2.78509 1.45877 0
M  V30 5949 N 554.287 1.06798 1.15896 0
M  V30 5950 C 555.515 0.808694 1.90441 0
M  V30 5951 C 555.93 -0.637506 1.77711 0
M  V30 5952 O 555.287 -1.43684 1.12522 0
M  V30 5953 C 555.338 1.20068 3.40978 0
M  V30 5954 O 555.059 2.59013 3.53333 0
M  V30 5955 C 556.56 0.96987 4.3256 0
M  V30 5956 H 553.78 0.292809 0.603742 0
M  V30 5957 H 556.324 1.42296 1.46874 0
M  V30 5958 H 554.479 0.630842 3.82229 0
M  V30 5959 H 554.893 2.7485 4.46719 0
M  V30 5960 H 556.367 1.29371 5.36626 0
M  V30 5961 H 556.844 -0.0941209 4.39099 0
M  V30 5962 H 557.45 1.52433 3.97044 0
M  V30 5963 N 555.766 -1.3263 0.851289 0
M  V30 5964 C 556.729 -2.27247 0.298541 0
M  V30 5965 C 557.729 -1.51467 -0.539847 0
M  V30 5966 O 558.919 -1.7061 -0.351843 0
M  V30 5967 C 556.051 -3.35964 -0.578004 0
M  V30 5968 H 557.244 -2.7765 1.13359 0
M  V30 5969 H 554.797 -1.43245 0.625354 0
M  V30 5970 H 555.532 -2.90823 -1.435 0
M  V30 5971 H 555.317 -3.92094 0.0220539 0
M  V30 5972 H 556.807 -4.06472 -0.957626 0
M  V30 5973 N 557.244 -0.608902 -1.45362 0
M  V30 5974 C 558.207 0.0992563 -2.28985 0
M  V30 5975 C 559.207 0.793841 -1.39838 0
M  V30 5976 O 560.397 0.641804 -1.61946 0
M  V30 5977 C 557.529 1.15073 -3.20891 0
M  V30 5978 H 558.722 -0.635964 -2.93079 0
M  V30 5979 H 556.275 -0.368007 -1.51906 0
M  V30 5980 H 557.01 1.91667 -2.616 0
M  V30 5981 H 556.795 0.656867 -3.86559 0
M  V30 5982 H 558.285 1.64665 -3.83765 0
M  V30 5983 N 558.722 1.53707 -0.348139 0
M  V30 5984 C 559.654 2.22725 0.540946 0
M  V30 5985 C 560.667 1.2354 1.06027 0
M  V30 5986 O 561.856 1.49867 0.96964 0
M  V30 5987 C 558.956 2.89756 1.75768 0
M  V30 5988 C 558.129 4.15297 1.37285 0
M  V30 5989 C 557.188 4.65697 2.44976 0
M  V30 5990 O 556.214 5.29798 2.08092 0
M  V30 5991 N 557.416 4.42017 3.763 0
M  V30 5992 H 560.181 2.99658 -0.0501592 0
M  V30 5993 H 557.742 1.60979 -0.17248 0
M  V30 5994 H 559.734 3.20388 2.47252 0
M  V30 5995 H 558.304 2.16382 2.25605 0
M  V30 5996 H 557.524 3.9116 0.488584 0
M  V30 5997 H 558.812 4.96948 1.09179 0
M  V30 5998 H 558.21 3.9076 4.09051 0
M  V30 5999 H 556.767 4.77242 4.4394 0
M  V30 6000 N 560.2 0.0768682 1.57412 0
M  V30 6001 C 561.147 -0.888577 2.13009 0
M  V30 6002 C 562.117 -1.29198 1.0439 0
M  V30 6003 O 563.302 -1.37694 1.3208 0
M  V30 6004 C 560.442 -2.14899 2.70023 0
M  V30 6005 C 559.555 -1.79777 3.92816 0
M  V30 6006 C 558.69 -3.00467 4.38056 0
M  V30 6007 C 557.729 -2.61385 5.53484 0
M  V30 6008 N 556.866 -3.74851 5.93659 0
M  V30 6009 H 561.706 -0.407593 2.95199 0
M  V30 6010 H 559.243 -0.189534 1.45874 0
M  V30 6011 H 561.201 -2.88688 3.0119 0
M  V30 6012 H 559.831 -2.60529 1.9059 0
M  V30 6013 H 558.883 -0.960301 3.68079 0
M  V30 6014 H 560.195 -1.47027 4.76639 0
M  V30 6015 H 559.349 -3.82529 4.7091 0
M  V30 6016 H 558.088 -3.36413 3.53097 0
M  V30 6017 H 557.093 -1.77746 5.20275 0
M  V30 6018 H 558.318 -2.26603 6.40178 0
M  V30 6019 H 556.264 -4.1055 5.11649 0
M  V30 6020 H 556.181 -3.45887 6.72234 0
M  V30 6021 H 557.449 -4.57477 6.31138 0
M  V30 6022 N 561.678 -1.56367 -0.196722 0
M  V30 6023 C 562.924 -1.80796 -0.918725 0
M  V30 6024 C 563.257 -0.650645 -1.82976 0
M  V30 6025 O 562.532 0.348889 -1.91345 0
M  V30 6026 C 562.815 -3.15472 -1.73636 0
M  V30 6027 C 562.668 -4.41693 -0.85015 0
M  V30 6028 C 563.987 -3.46824 -2.70927 0
M  V30 6029 H 561.106 -0.657702 -0.332561 0
M  V30 6030 H 563.748 -1.89086 -0.186186 0
M  V30 6031 H 561.898 -3.08536 -2.36088 0
M  V30 6032 H 563.57 -4.60673 -0.240459 0
M  V30 6033 H 561.813 -4.33517 -0.156785 0
M  V30 6034 H 562.484 -5.32419 -1.45719 0
M  V30 6035 H 564.96 -3.54049 -2.18607 0
M  V30 6036 H 563.836 -4.4218 -3.25219 0
M  V30 6037 H 564.097 -2.70236 -3.49893 0
M  V30 6038 N 563.156 0.464375 -1.50603 0
M  V30 6039 C 564.396 1.22573 -1.6357 0
M  V30 6040 C 564.76 1.89111 -0.331834 0
M  V30 6041 O 565.961 2.66679 -0.336999 0
M  V30 6042 C 564.232 2.23643 -2.7878 0
M  V30 6043 S 565.791 3.08628 -3.1192 0
M  V30 6044 H 562.609 0.416058 -0.576556 0
M  V30 6045 H 565.211 0.521637 -1.88412 0
M  V30 6046 H 563.915 1.73354 -3.7199 0
M  V30 6047 H 563.446 2.98672 -2.56044 0
M  V30 6048 H 565.461 4.24904 -2.56264 0
M  V30 6049 N 564.634 1.40294 0.718013 0
M  V30 6050 C 565.584 1.36847 1.82365 0
M  V30 6051 C 566.568 0.246424 1.59002 0
M  V30 6052 O 567.76 0.485336 1.70216 0
M  V30 6053 C 564.889 1.23105 3.20469 0
M  V30 6054 C 563.975 2.4008 3.49603 0
M  V30 6055 N 564.366 3.65562 3.49568 0
M  V30 6056 C 562.664 2.33407 3.80049 0
M  V30 6057 C 563.365 4.43015 3.76978 0
M  V30 6058 N 562.341 3.72823 3.95606 0
M  V30 6059 H 566.143 2.31811 1.80668 0
M  V30 6060 H 563.657 1.34031 0.91703 0
M  V30 6061 H 565.654 1.18718 3.9964 0
M  V30 6062 H 564.314 0.291056 3.23393 0
M  V30 6063 H 565.325 3.98756 3.30476 0
M  V30 6064 H 562.002 1.47762 3.90478 0
M  V30 6065 H 563.392 5.51859 3.83276 0
M  V30 6066 N 566.112 -0.949982 1.2575 0
M  V30 6067 C 567.042 -2.06483 1.09028 0
M  V30 6068 C 568.023 -1.701 -0.00201532 0
M  V30 6069 O 569.208 -1.93469 0.168383 0
M  V30 6070 C 566.338 -3.39899 0.71316 0
M  V30 6071 C 565.292 -3.90309 1.75621 0
M  V30 6072 C 564.618 -5.20274 1.23365 0
M  V30 6073 C 565.918 -4.16169 3.15596 0
M  V30 6074 H 567.612 -2.20731 2.02283 0
M  V30 6075 H 565.158 -1.06066 0.973964 0
M  V30 6076 H 567.111 -4.17346 0.58309 0
M  V30 6077 H 565.835 -3.25602 -0.255091 0
M  V30 6078 H 564.494 -3.15035 1.8748 0
M  V30 6079 H 564.142 -5.02351 0.255491 0
M  V30 6080 H 563.842 -5.54971 1.93082 0
M  V30 6081 H 565.366 -6.00314 1.11607 0
M  V30 6082 H 566.78 -4.84259 3.06864 0
M  V30 6083 H 565.177 -4.62131 3.82825 0
M  V30 6084 H 566.247 -3.22273 3.6231 0
M  V30 6085 N 567.59 -1.07411 -1.15328 0
M  V30 6086 C 568.523 -0.63913 -2.19067 0
M  V30 6087 C 569.501 0.343929 -1.58921 0
M  V30 6088 O 570.685 0.250207 -1.86832 0
M  V30 6089 C 567.812 0.0613977 -3.38644 0
M  V30 6090 C 566.858 -0.880201 -4.17318 0
M  V30 6091 S 567.691 -2.38152 -4.79629 0
M  V30 6092 C 568.847 -1.69281 -6.02573 0
M  V30 6093 H 569.08 -1.51799 -2.55626 0
M  V30 6094 H 566.613 -0.888138 -1.26299 0
M  V30 6095 H 568.571 0.459323 -4.07922 0
M  V30 6096 H 567.232 0.916605 -3.00428 0
M  V30 6097 H 566.425 -0.336781 -5.02874 0
M  V30 6098 H 566.027 -1.21854 -3.53592 0
M  V30 6099 H 568.319 -1.00488 -6.70006 0
M  V30 6100 H 569.262 -2.52671 -6.61485 0
M  V30 6101 H 569.67 -1.17053 -5.52231 0
M  V30 6102 N 569.068 1.32177 -0.85831 0
M  V30 6103 C 570.316 1.96735 -0.462568 0
M  V30 6104 C 570.637 1.6824 0.985911 0
M  V30 6105 O 569.907 0.991564 1.68952 0
M  V30 6106 H 568.487 0.727849 -0.168064 0
M  V30 6107 H 571.149 1.61195 -1.09554 0
M  V30 6108 H 570.245 3.06068 -0.610647 0
M  V30 6109 N 570.547 0.616602 1.45037 0
M  V30 6110 C 571.796 0.112861 2.01384 0
M  V30 6111 C 572.109 -1.26758 1.48969 0
M  V30 6112 O 573.315 -1.86454 1.9735 0
M  V30 6113 C 571.771 0.151057 3.59583 0
M  V30 6114 C 571.379 1.53191 4.20995 0
M  V30 6115 C 573.123 -0.296974 4.2346 0
M  V30 6116 C 571.03 1.526 5.71373 0
M  V30 6117 H 569.96 0.0384254 0.75302 0
M  V30 6118 H 572.611 0.773262 1.66412 0
M  V30 6119 H 570.993 -0.57617 3.91786 0
M  V30 6120 H 572.167 2.28156 4.00352 0
M  V30 6121 H 570.482 1.92279 3.69348 0
M  V30 6122 H 573.079 -0.320712 5.33737 0
M  V30 6123 H 573.422 -1.32145 3.9477 0
M  V30 6124 H 573.955 0.377279 3.96007 0
M  V30 6125 H 570.694 2.52837 6.04776 0
M  V30 6126 H 570.214 0.819064 5.94181 0
M  V30 6127 H 571.893 1.25357 6.3474 0
M  V30 6128 N 572.025 -1.5352 0.356285 0
M  V30 6129 C 572.973 -2.26945 -0.50978 0
M  V30 6130 C 573.967 -1.29569 -1.09125 0
M  V30 6131 O 575.173 -1.47231 -1.03552 0
M  V30 6132 H 571.548 -0.729368 -0.183102 0
M  V30 6133 H 573.519 -2.98111 0.131374 0
M  V30 6134 C 572.268 -3.06466 -1.64237 0
M  V30 6135 H 571.591 -3.81233 -1.20423 0
M  V30 6136 H 573.031 -3.61035 -2.22327 0
M  V30 6137 C 571.49 -2.16737 -2.57928 0
M  V30 6138 O 572.02 -1.77195 -3.60507 0
M  V30 6139 N 570.226 -1.81558 -2.26903 0
M  V30 6140 H 569.773 -2.13913 -1.43524 0
M  V30 6141 H 569.731 -1.21806 -2.89846 0
M  V30 6142 N 573.503 -0.0852151 -1.57369 0
M  V30 6143 C 574.749 0.581666 -1.94279 0
M  V30 6144 C 575.082 1.68444 -0.966446 0
M  V30 6145 O 574.357 1.945 0.00215277 0
M  V30 6146 C 574.64 1.14609 -3.41375 0
M  V30 6147 C 574.493 0.0490414 -4.49773 0
M  V30 6148 C 575.812 2.04751 -3.8957 0
M  V30 6149 H 572.931 0.209972 -0.706456 0
M  V30 6150 H 575.573 -0.153915 -1.89376 0
M  V30 6151 H 573.723 1.77297 -3.45685 0
M  V30 6152 H 575.395 -0.584721 -4.57579 0
M  V30 6153 H 573.638 -0.618638 -4.29366 0
M  V30 6154 H 574.309 0.484601 -5.49869 0
M  V30 6155 H 576.785 1.51981 -3.87351 0
M  V30 6156 H 575.661 2.41173 -4.93079 0
M  V30 6157 H 575.922 2.96107 -3.28288 0
M  V30 6158 N 574.981 1.5647 0.188427 0
M  V30 6159 C 576.209 1.85131 0.923803 0
M  V30 6160 C 576.624 0.668537 1.76567 0
M  V30 6161 O 575.981 -0.362662 1.7886 0
M  V30 6162 C 576.032 3.12661 1.81453 0
M  V30 6163 O 575.753 4.26378 1.00665 0
M  V30 6164 C 577.254 3.54548 2.66103 0
M  V30 6165 H 574.474 0.614624 0.269218 0
M  V30 6166 H 577.018 2.03581 0.193671 0
M  V30 6167 H 575.173 2.96088 2.49821 0
M  V30 6168 H 575.587 4.99041 1.61425 0
M  V30 6169 H 577.061 4.4673 3.24247 0
M  V30 6170 H 577.538 2.77853 3.40139 0
M  V30 6171 H 578.144 3.73674 2.03096 0
M  V30 6172 N 576.459 -0.456382 1.50847 0
M  V30 6173 C 577.736 -1.21739 1.53098 0
M  V30 6174 C 578.116 -2.09179 0.284132 0
M  V30 6175 O 577.464 -2.16466 -0.731773 0
M  V30 6176 C 577.674 -2.03573 2.83477 0
M  V30 6177 C 579.022 -2.61264 3.34703 0
M  V30 6178 O 580.046 -2.13802 2.84898 0
M  V30 6179 O 578.905 -3.47779 4.21559 0
M  V30 6180 H 575.999 -0.553219 0.614718 0
M  V30 6181 H 578.545 -0.467003 1.63148 0
M  V30 6182 H 577.317 -1.39232 3.65691 0
M  V30 6183 H 576.94 -2.85716 2.76499 0
M  V30 6184 N 577.937 -1.40673 -0.710563 0
M  V30 6185 C 579.184 -1.39222 -1.47049 0
M  V30 6186 C 579.512 0.0037691 -1.945 0
M  V30 6187 O 578.767 0.989224 -1.68857 0
M  V30 6188 C 579.066 -2.33253 -2.70791 0
M  V30 6189 C 578.732 -3.80406 -2.42079 0
M  V30 6190 C 577.394 -4.20496 -2.33959 0
M  V30 6191 C 579.746 -4.73375 -2.18094 0
M  V30 6192 C 577.074 -5.51584 -1.99929 0
M  V30 6193 C 579.426 -6.04768 -1.85576 0
M  V30 6194 C 578.09 -6.43895 -1.75941 0
M  V30 6195 H 577.36 -0.509449 -0.538092 0
M  V30 6196 H 580.007 -1.73363 -0.81348 0
M  V30 6197 H 578.312 -1.92314 -3.41354 0
M  V30 6198 H 580.009 -2.29412 -3.28894 0
M  V30 6199 H 576.599 -3.48645 -2.49288 0
M  V30 6200 H 580.783 -4.43217 -2.23321 0
M  V30 6201 H 576.039 -5.80797 -1.91011 0
M  V30 6202 H 580.213 -6.76318 -1.66033 0
M  V30 6203 H 577.84 -7.45387 -1.4934 0
M  V30 6204 N 579.415 0.9433 -1.26252 0
M  V30 6205 C 580.643 1.72367 -1.14443 0
M  V30 6206 C 581.058 1.86392 0.300572 0
M  V30 6207 O 580.415 1.36978 1.20596 0
M  V30 6208 C 580.466 3.13155 -1.806 0
M  V30 6209 O 580.187 2.99803 -3.19452 0
M  V30 6210 C 581.688 4.07417 -1.74717 0
M  V30 6211 H 578.908 0.539758 -0.398626 0
M  V30 6212 H 581.452 1.18268 -1.66832 0
M  V30 6213 H 579.607 3.64162 -1.32154 0
M  V30 6214 H 580.021 3.88697 -3.52158 0
M  V30 6215 H 581.495 5.03773 -2.25647 0
M  V30 6216 H 581.972 4.3337 -0.713244 0
M  V30 6217 H 582.578 3.6233 -2.22704 0
M  V30 6218 N 580.893 1.08022 1.14757 0
M  V30 6219 C 582.309 0.807072 1.3769 0
M  V30 6220 C 582.509 -0.585504 1.92806 0
M  V30 6221 O 581.565 -1.34301 2.13821 0
M  V30 6222 C 582.878 1.88651 2.34161 0
M  V30 6223 C 584.426 1.91206 2.47809 0
M  V30 6224 C 584.901 2.98253 3.47576 0
M  V30 6225 N 586.392 2.974 3.55117 0
M  V30 6226 C 587.127 3.76872 4.32152 0
M  V30 6227 N 586.623 4.66212 5.12463 0
M  V30 6228 N 588.416 3.6519 4.27309 0
M  V30 6229 H 580.567 1.97824 0.77326 0
M  V30 6230 H 582.83 0.85826 0.402608 0
M  V30 6231 H 582.536 2.88749 2.00791 0
M  V30 6232 H 582.41 1.75244 3.3402 0
M  V30 6233 H 584.797 0.917564 2.80472 0
M  V30 6234 H 584.878 2.08691 1.47925 0
M  V30 6235 H 584.522 3.97907 3.15646 0
M  V30 6236 H 584.452 2.78014 4.47231 0
M  V30 6237 H 586.943 2.32643 2.97801 0
M  V30 6238 H 587.256 5.23468 5.68508 0
M  V30 6239 H 585.601 4.70257 5.11745 0
M  V30 6240 H 588.792 2.94765 3.63636 0
M  V30 6241 H 588.965 4.27366 4.87095 0
M  V30 6242 N 582.371 -1.3172 0.865308 0
M  V30 6243 C 583.596 -2.01591 0.487415 0
M  V30 6244 C 584.021 -1.6455 -0.911307 0
M  V30 6245 O 583.379 -0.851689 -1.6005 0
M  V30 6246 C 583.427 -3.54759 0.646401 0
M  V30 6247 O 582.531 -4.11185 -0.316284 0
M  V30 6248 H 581.872 -0.634884 0.194468 0
M  V30 6249 H 584.402 -1.68024 1.16744 0
M  V30 6250 H 584.412 -4.04438 0.537932 0
M  V30 6251 H 583.087 -3.8106 1.66632 0
M  V30 6252 H 581.664 -3.72543 -0.163162 0
M  V30 6253 N 583.85 -0.624285 -1.44708 0
M  V30 6254 C 585.099 -0.123539 -2.01321 0
M  V30 6255 C 585.412 1.25966 -1.49639 0
M  V30 6256 O 586.618 1.85405 -1.98336 0
M  V30 6257 C 585.074 -0.170124 -3.59498 0
M  V30 6258 C 584.682 -1.55421 -4.20176 0
M  V30 6259 C 586.426 0.274513 -4.23611 0
M  V30 6260 C 584.332 -1.55628 -5.70556 0
M  V30 6261 H 583.263 -0.0424183 -0.752806 0
M  V30 6262 H 585.913 -0.782076 -1.65999 0
M  V30 6263 H 584.296 0.555385 -3.92086 0
M  V30 6264 H 585.47 -2.30276 -3.99136 0
M  V30 6265 H 583.784 -1.94235 -3.68323 0
M  V30 6266 H 586.382 0.292402 -5.339 0
M  V30 6267 H 586.725 1.3005 -3.95465 0
M  V30 6268 H 587.258 -0.398275 -3.95801 0
M  V30 6269 H 583.997 -2.56041 -6.03426 0
M  V30 6270 H 583.517 -0.850563 -5.93739 0
M  V30 6271 H 585.196 -1.28721 -6.34066 0
M  V30 6272 N 585.328 1.53329 -0.364422 0
M  V30 6273 C 586.258 2.28627 0.474543 0
M  V30 6274 C 587.239 1.31009 1.08492 0
M  V30 6275 O 588.424 1.59878 1.10239 0
M  V30 6276 C 585.554 3.07465 1.61501 0
M  V30 6277 C 584.508 4.1276 1.13194 0
M  V30 6278 C 583.834 4.79674 2.36255 0
M  V30 6279 C 585.134 5.21847 0.217507 0
M  V30 6280 H 586.828 2.99005 -0.153656 0
M  V30 6281 H 584.374 1.43803 -0.0753406 0
M  V30 6282 H 586.327 3.58889 2.20855 0
M  V30 6283 H 585.051 2.34775 2.27042 0
M  V30 6284 H 583.71 3.62281 0.56109 0
M  V30 6285 H 583.358 4.03557 3.00251 0
M  V30 6286 H 583.058 5.50827 2.04606 0
M  V30 6287 H 584.582 5.33892 2.96297 0
M  V30 6288 H 585.996 5.6878 0.718493 0
M  V30 6289 H 584.393 6.00099 -0.00806408 0
M  V30 6290 H 585.463 4.7921 -0.740653 0
M  V30 6291 N 586.806 0.0935595 1.57322 0
M  V30 6292 C 588.034 -0.578934 1.98635 0
M  V30 6293 C 588.449 -1.61819 0.972626 0
M  V30 6294 O 587.806 -1.82461 -0.0379638 0
M  V30 6295 C 587.857 -1.22802 3.40003 0
M  V30 6296 O 587.578 -0.230334 4.37494 0
M  V30 6297 C 589.079 -1.98627 3.96311 0
M  V30 6298 H 586.299 -0.155324 0.652775 0
M  V30 6299 H 588.843 0.172393 2.03772 0
M  V30 6300 H 586.998 -1.93029 3.35885 0
M  V30 6301 H 587.412 -0.698649 5.19826 0
M  V30 6302 H 588.886 -2.39405 4.97382 0
M  V30 6303 H 589.363 -2.85151 3.34044 0
M  V30 6304 H 589.969 -1.3322 4.03897 0
M  V30 6305 N 588.284 -1.56567 -0.180126 0
M  V30 6306 C 589.695 -1.7126 -0.743422 0
M  V30 6307 C 590.046 -0.70263 -1.83187 0
M  V30 6308 O 589.171 0.137856 -2.1596 0
M  V30 6309 C 589.766 -3.10512 -1.35528 0
M  V30 6310 C 588.325 -3.26919 -1.8655 0
M  V30 6311 C 587.472 -2.67213 -0.741099 0
M  V30 6312 H 590.423 -1.58636 0.0451543 0
M  V30 6313 H 590.444 -3.08673 -2.22489 0
M  V30 6314 H 589.956 -3.83997 -0.562862 0
M  V30 6315 H 588.057 -2.58376 -2.68464 0
M  V30 6316 H 588.17 -4.34574 -2.01699 0
M  V30 6317 H 586.534 -2.26788 -1.15927 0
M  V30 6318 H 587.317 -3.43277 0.0393291 0
M  V30 6319 N 589.762 0.448376 -1.51087 0
M  V30 6320 C 591.178 0.783984 -1.39017 0
M  V30 6321 C 591.378 1.96087 -0.463904 0
M  V30 6322 O 590.434 2.52357 0.0850534 0
M  V30 6323 C 591.747 1.07471 -2.80839 0
M  V30 6324 C 593.295 1.17981 -2.89913 0
M  V30 6325 C 593.77 1.50354 -4.32617 0
M  V30 6326 N 595.261 1.57301 -4.35673 0
M  V30 6327 C 595.996 1.839 -5.4311 0
M  V30 6328 N 595.492 2.08365 -6.60724 0
M  V30 6329 N 597.285 1.8559 -5.30578 0
M  V30 6330 H 589.436 -0.326881 -2.0987 0
M  V30 6331 H 591.699 -0.0838006 -0.944289 0
M  V30 6332 H 591.405 0.282768 -3.50561 0
M  V30 6333 H 591.279 2.00519 -3.19487 0
M  V30 6334 H 593.666 1.9624 -2.20395 0
M  V30 6335 H 593.747 0.228603 -2.54776 0
M  V30 6336 H 593.391 0.726273 -5.0268 0
M  V30 6337 H 593.321 2.46663 -4.65258 0
M  V30 6338 H 595.812 1.40342 -3.50874 0
M  V30 6339 H 596.125 2.27999 -7.38401 0
M  V30 6340 H 594.47 2.0571 -6.63859 0
M  V30 6341 H 597.661 1.65989 -4.37682 0
M  V30 6342 H 597.834 2.05983 -6.1439 0
M  V30 6343 N 591.24 1.41047 0.703093 0
M  V30 6344 C 592.489 1.39301 1.4587 0
M  V30 6345 C 592.802 0.00267077 1.956 0
M  V30 6346 O 594.008 -0.137414 2.71152 0
M  V30 6347 C 592.464 2.44891 2.63735 0
M  V30 6348 C 592.072 3.89796 2.20824 0
M  V30 6349 C 593.816 2.5227 3.41409 0
M  V30 6350 C 591.723 4.86955 3.35602 0
M  V30 6351 H 590.653 0.518005 0.547893 0
M  V30 6352 H 593.304 1.66839 0.764009 0
M  V30 6353 H 591.686 2.10472 3.35436 0
M  V30 6354 H 592.86 4.33424 1.56461 0
M  V30 6355 H 591.175 3.86008 1.56163 0
M  V30 6356 H 593.772 3.22044 4.26839 0
M  V30 6357 H 594.115 1.55714 3.86081 0
M  V30 6358 H 594.648 2.85742 2.7676 0
M  V30 6359 H 591.387 5.84888 2.9595 0
M  V30 6360 H 590.907 4.47982 3.98839 0
M  V30 6361 H 592.586 5.07361 4.01489 0
M  V30 6362 N 592.718 -0.936591 1.26751 0
M  V30 6363 C 593.665 -2.03597 1.08706 0
M  V30 6364 C 594.635 -1.66097 -0.00926542 0
M  V30 6365 O 595.82 -1.90199 0.151377 0
M  V30 6366 C 592.96 -3.3727 0.73094 0
M  V30 6367 C 592.073 -3.87778 1.90399 0
M  V30 6368 C 591.208 -5.09859 1.49056 0
M  V30 6369 C 590.247 -5.5264 2.63164 0
M  V30 6370 N 589.384 -6.65921 2.22471 0
M  V30 6371 H 594.224 -2.18364 2.02784 0
M  V30 6372 H 591.761 -1.06985 1.00958 0
M  V30 6373 H 593.719 -4.14128 0.505328 0
M  V30 6374 H 592.349 -3.22337 -0.172868 0
M  V30 6375 H 591.401 -3.07279 2.2424 0
M  V30 6376 H 592.713 -4.15464 2.76028 0
M  V30 6377 H 591.867 -5.9419 1.22567 0
M  V30 6378 H 590.606 -4.8393 0.60524 0
M  V30 6379 H 589.611 -4.66863 2.90377 0
M  V30 6380 H 590.836 -5.80568 3.52303 0
M  V30 6381 H 588.782 -6.41667 1.36379 0
M  V30 6382 H 588.699 -6.93216 3.01641 0
M  V30 6383 H 589.967 -7.53616 1.99205 0
M  V30 6384 N 594.196 -1.08629 -1.14182 0
M  V30 6385 C 595.442 -0.818556 -1.85546 0
M  V30 6386 C 595.775 0.654076 -1.82854 0
M  V30 6387 O 595.05 1.48099 -1.26083 0
M  V30 6388 C 595.333 -1.34397 -3.3408 0
M  V30 6389 C 595.186 -2.8821 -3.45333 0
M  V30 6390 C 596.505 -0.971069 -4.29253 0
M  V30 6391 H 593.624 -0.298821 -0.673702 0
M  V30 6392 H 596.266 -1.34629 -1.34071 0
M  V30 6393 H 594.416 -0.895064 -3.78049 0
M  V30 6394 H 596.088 -3.41488 -3.10134 0
M  V30 6395 H 594.331 -3.25756 -2.86471 0
M  V30 6396 H 595.002 -3.20047 -4.49749 0
M  V30 6397 H 597.478 -1.35809 -3.93313 0
M  V30 6398 H 596.354 -1.36586 -5.31635 0
M  V30 6399 H 596.615 0.121659 -4.41933 0
M  V30 6400 N 595.674 1.31259 -0.872281 0
M  V30 6401 C 596.922 1.96233 -0.483409 0
M  V30 6402 C 597.243 1.69276 0.968012 0
M  V30 6403 O 596.513 1.00943 1.67891 0
M  V30 6404 H 595.093 0.726025 -0.175774 0
M  V30 6405 H 597.755 1.60024 -1.11258 0
M  V30 6406 H 596.851 3.05403 -0.643075 0
M  V30 6407 N 597.152 0.631951 1.44375 0
M  V30 6408 C 598.568 0.297642 1.568 0
M  V30 6409 C 598.768 -1.19916 1.61934 0
M  V30 6410 O 597.824 -1.98324 1.56281 0
M  V30 6411 C 599.137 0.990286 2.83926 0
M  V30 6412 C 600.685 0.968507 2.97639 0
M  V30 6413 C 601.16 1.64163 4.27568 0
M  V30 6414 N 602.651 1.60826 4.34384 0
M  V30 6415 C 603.386 2.09802 5.33639 0
M  V30 6416 N 602.882 2.66973 6.39294 0
M  V30 6417 N 604.675 2.00426 5.25153 0
M  V30 6418 H 596.826 1.60353 1.39286 0
M  V30 6419 H 599.089 0.673142 0.667521 0
M  V30 6420 H 598.795 2.04519 2.8612 0
M  V30 6421 H 598.669 0.528563 3.73478 0
M  V30 6422 H 601.056 -0.0779247 2.94997 0
M  V30 6423 H 601.137 1.46873 2.09433 0
M  V30 6424 H 600.781 2.68752 4.3097 0
M  V30 6425 H 600.711 1.11624 5.14634 0
M  V30 6426 H 603.202 1.19087 3.58646 0
M  V30 6427 H 603.515 3.02074 7.11316 0
M  V30 6428 H 601.86 2.71024 6.39977 0
M  V30 6429 H 605.051 1.55483 4.41523 0
M  V30 6430 H 605.224 2.38906 6.02352 0
M  V30 6431 N 598.631 -1.53133 0.372548 0
M  V30 6432 C 599.908 -1.93704 -0.271693 0
M  V30 6433 C 600.288 -1.30667 -1.65799 0
M  V30 6434 O 599.636 -0.46838 -2.23648 0
M  V30 6435 C 599.846 -3.47576 -0.314903 0
M  V30 6436 C 601.194 -4.20998 -0.551912 0
M  V30 6437 O 602.218 -3.53994 -0.39582 0
M  V30 6438 O 601.077 -5.39748 -0.85639 0
M  V30 6439 H 598.171 -0.810457 -0.164586 0
M  V30 6440 H 600.717 -1.6427 0.425838 0
M  V30 6441 H 599.489 -3.85749 0.656792 0
M  V30 6442 H 599.112 -3.83264 -1.05804 0
M  V30 6443 N 600.109 -0.101901 -1.5727 0
M  V30 6444 C 601.355 0.561027 -1.94885 0
M  V30 6445 C 601.688 1.6741 -0.984258 0
M  V30 6446 O 600.963 1.94491 -0.0184767 0
M  V30 6447 C 601.246 1.10982 -3.42571 0
M  V30 6448 C 601.099 0.00133418 -4.498 0
M  V30 6449 C 602.418 2.00608 -3.9172 0
M  V30 6450 H 599.537 0.202467 -0.708644 0
M  V30 6451 H 602.179 -0.173992 -1.89202 0
M  V30 6452 H 600.329 1.73621 -3.47546 0
M  V30 6453 H 602.001 -0.63322 -4.56933 0
M  V30 6454 H 600.244 -0.664143 -4.28686 0
M  V30 6455 H 600.915 0.426253 -5.50352 0
M  V30 6456 H 603.391 1.47864 -3.88941 0
M  V30 6457 H 602.267 2.3593 -4.95609 0
M  V30 6458 H 602.528 2.92608 -3.3141 0
M  V30 6459 N 601.587 1.56661 0.17182 0
M  V30 6460 C 602.833 1.82235 0.889845 0
M  V30 6461 C 603.166 0.679673 1.81918 0
M  V30 6462 O 602.441 -0.318404 1.91876 0
M  V30 6463 C 602.724 3.18195 1.68595 0
M  V30 6464 C 602.577 4.42989 0.779773 0
M  V30 6465 C 603.896 3.5109 2.65375 0
M  V30 6466 H 601.015 0.66291 0.322056 0
M  V30 6467 H 603.657 1.89358 0.15608 0
M  V30 6468 H 601.807 3.12253 2.3115 0
M  V30 6469 H 603.479 4.60997 0.16714 0
M  V30 6470 H 601.722 4.33711 0.0877964 0
M  V30 6471 H 602.393 5.3467 1.3723 0
M  V30 6472 H 604.869 3.57482 2.12946 0
M  V30 6473 H 603.745 4.47298 3.18144 0
M  V30 6474 H 604.006 2.75768 3.45549 0
M  V30 6475 N 603.065 -0.440357 1.51323 0
M  V30 6476 C 603.997 -1.55254 1.68609 0
M  V30 6477 C 605.01 -1.52614 0.566812 0
M  V30 6478 O 606.199 -1.57445 0.841032 0
M  V30 6479 C 603.299 -2.94169 1.68279 0
M  V30 6480 C 602.472 -3.21346 2.96742 0
M  V30 6481 C 601.531 -4.3997 2.8864 0
M  V30 6482 O 600.557 -4.38771 3.62586 0
M  V30 6483 N 601.759 -5.43367 2.04285 0
M  V30 6484 H 604.524 -1.40831 2.6455 0
M  V30 6485 H 602.085 -0.629251 1.49171 0
M  V30 6486 H 604.077 -3.71543 1.60431 0
M  V30 6487 H 602.647 -3.02205 0.799441 0
M  V30 6488 H 601.867 -2.32299 3.18482 0
M  V30 6489 H 603.155 -3.3633 3.81785 0
M  V30 6490 H 602.553 -5.47176 1.43578 0
M  V30 6491 H 601.11 -6.19605 2.02318 0
M  V30 6492 N 604.543 -1.41418 -0.695603 0
M  V30 6493 C 605.49 -1.43264 -1.80954 0
M  V30 6494 C 606.46 -0.287016 -1.63601 0
M  V30 6495 O 607.645 -0.488054 -1.84452 0
M  V30 6496 C 604.785 -1.32054 -3.18835 0
M  V30 6497 C 603.898 -2.56485 -3.4762 0
M  V30 6498 C 603.033 -2.3757 -4.75115 0
M  V30 6499 C 602.072 -3.57477 -4.96867 0
M  V30 6500 N 601.209 -3.37632 -6.15588 0
M  V30 6501 H 606.049 -2.38467 -1.78711 0
M  V30 6502 H 603.586 -1.18415 -0.872715 0
M  V30 6503 H 605.544 -1.23558 -3.98484 0
M  V30 6504 H 604.174 -0.404592 -3.20254 0
M  V30 6505 H 603.226 -2.75432 -2.62376 0
M  V30 6506 H 604.538 -3.45678 -3.59594 0
M  V30 6507 H 603.692 -2.2654 -5.62818 0
M  V30 6508 H 602.431 -1.45834 -4.65386 0
M  V30 6509 H 601.436 -3.68961 -4.07612 0
M  V30 6510 H 602.661 -4.50167 -5.08455 0
M  V30 6511 H 600.607 -2.48596 -6.07072 0
M  V30 6512 H 600.524 -4.20401 -6.2833 0
M  V30 6513 H 601.792 -3.30375 -7.06026 0
M  V30 6514 N 606.021 0.929856 -1.27246 0
M  V30 6515 C 606.984 2.01172 -1.09829 0
M  V30 6516 C 607.984 1.60743 -0.0429687 0
M  V30 6517 O 609.174 1.71813 -0.287373 0
M  V30 6518 C 606.306 3.34191 -0.673003 0
M  V30 6519 H 607.499 2.18054 -2.05895 0
M  V30 6520 H 605.052 1.11036 -1.10003 0
M  V30 6521 H 605.787 3.23009 0.289134 0
M  V30 6522 H 605.572 3.64892 -1.43515 0
M  V30 6523 H 607.062 4.13646 -0.573323 0
M  V30 6524 N 607.499 1.09233 1.13605 0
M  V30 6525 C 608.431 0.687794 2.18637 0
M  V30 6526 C 609.444 -0.26936 1.60556 0
M  V30 6527 O 610.633 -0.0557162 1.78413 0
M  V30 6528 C 607.733 -0.00751901 3.38899 0
M  V30 6529 C 606.906 0.97067 4.26494 0
M  V30 6530 C 605.965 0.309129 5.25291 0
M  V30 6531 O 604.991 0.956149 5.61112 0
M  V30 6532 N 606.193 -0.937555 5.72879 0
M  V30 6533 H 608.958 1.59141 2.53957 0
M  V30 6534 H 606.519 0.979515 1.28907 0
M  V30 6535 H 608.511 -0.461238 4.02063 0
M  V30 6536 H 607.081 -0.813353 3.01833 0
M  V30 6537 H 606.301 1.603 3.60135 0
M  V30 6538 H 607.589 1.63323 4.81875 0
M  V30 6539 H 606.987 -1.48281 5.4592 0
M  V30 6540 H 605.544 -1.33463 6.3799 0
M  V30 6541 N 608.977 -1.30795 0.87923 0
M  V30 6542 C 610.205 -2.00527 0.509548 0
M  V30 6543 C 610.62 -1.65944 -0.90045 0
M  V30 6544 O 609.977 -0.893525 -1.5913 0
M  V30 6545 C 610.028 -3.55276 0.667943 0
M  V30 6546 O 609.749 -3.88625 2.02242 0
M  V30 6547 C 611.25 -4.4228 0.300494 0
M  V30 6548 H 608.47 -0.641261 0.197549 0
M  V30 6549 H 611.014 -1.66813 1.18295 0
M  V30 6550 H 609.169 -3.87377 0.0419843 0
M  V30 6551 H 609.583 -4.83334 2.03688 0
M  V30 6552 H 611.057 -5.50061 0.462242 0
M  V30 6553 H 611.534 -4.32556 -0.76106 0
M  V30 6554 H 612.14 -4.15613 0.902536 0
M  V30 6555 N 610.455 -0.639598 -1.44038 0
M  V30 6556 C 611.402 0.0602458 -2.30721 0
M  V30 6557 C 612.372 0.828352 -1.43971 0
M  V30 6558 O 613.557 0.807693 -1.72861 0
M  V30 6559 C 610.697 1.03008 -3.29368 0
M  V30 6560 C 609.81 0.259502 -4.3122 0
M  V30 6561 C 608.945 1.22191 -5.16955 0
M  V30 6562 C 607.984 0.440978 -6.10509 0
M  V30 6563 N 607.121 1.35428 -6.88915 0
M  V30 6564 H 611.961 -0.684867 -2.90023 0
M  V30 6565 H 609.498 -0.349509 -1.42888 0
M  V30 6566 H 611.456 1.60583 -3.85057 0
M  V30 6567 H 610.086 1.74222 -2.71747 0
M  V30 6568 H 609.138 -0.432317 -3.77935 0
M  V30 6569 H 610.45 -0.348347 -4.97582 0
M  V30 6570 H 609.604 1.86873 -5.77203 0
M  V30 6571 H 608.343 1.86367 -4.50687 0
M  V30 6572 H 607.348 -0.219279 -5.49363 0
M  V30 6573 H 608.573 -0.196192 -6.78817 0
M  V30 6574 H 606.519 1.9831 -6.25307 0
M  V30 6575 H 606.436 0.800657 -7.51748 0
M  V30 6576 H 607.704 1.98967 -7.53679 0
M  V30 6577 N 611.933 1.52934 -0.380664 0
M  V30 6578 C 612.843 2.29921 0.466192 0
M  V30 6579 C 613.859 1.36488 1.07922 0
M  V30 6580 O 615.035 1.69553 1.0869 0
M  V30 6581 C 612.1 3.08468 1.58266 0
M  V30 6582 C 611.161 4.17595 0.995627 0
M  V30 6583 C 610.394 4.92387 2.05889 0
M  V30 6584 O 610.617 4.67184 3.27254 0
M  V30 6585 O 609.551 5.77949 1.68102 0
M  V30 6586 H 613.377 3.03274 -0.160735 0
M  V30 6587 H 610.962 1.48698 -0.144617 0
M  V30 6588 H 612.844 3.57469 2.23145 0
M  V30 6589 H 611.519 2.37937 2.19471 0
M  V30 6590 H 610.426 3.72811 0.310332 0
M  V30 6591 H 611.759 4.90336 0.427918 0
M  V30 6592 N 613.412 0.11024 1.57214 0
M  V30 6593 C 614.344 -0.873497 2.11902 0
M  V30 6594 C 615.357 -1.23588 1.05971 0
M  V30 6595 O 616.546 -1.18636 1.33371 0
M  V30 6596 C 613.646 -2.17805 2.59643 0
M  V30 6597 C 612.819 -1.98869 3.89576 0
M  V30 6598 C 611.878 -3.12974 4.23006 0
M  V30 6599 O 610.904 -2.86272 4.91973 0
M  V30 6600 N 612.106 -4.39167 3.79622 0
M  V30 6601 H 614.871 -0.406317 2.96933 0
M  V30 6602 H 612.432 -0.074437 1.61729 0
M  V30 6603 H 614.424 -2.93117 2.79042 0
M  V30 6604 H 612.994 -2.55899 1.7954 0
M  V30 6605 H 612.214 -1.078 3.79174 0
M  V30 6606 H 613.502 -1.83512 4.74553 0
M  V30 6607 H 612.9 -4.63739 3.2398 0
M  V30 6608 H 611.457 -5.11379 4.04147 0
M  V30 6609 N 614.89 -1.56749 -0.16351 0
M  V30 6610 C 615.853 -1.96121 -1.18613 0
M  V30 6611 C 616.853 -0.845765 -1.36761 0
M  V30 6612 O 618.043 -1.11268 -1.34033 0
M  V30 6613 C 615.175 -2.26282 -2.54969 0
M  V30 6614 H 616.368 -2.87639 -0.848764 0
M  V30 6615 H 613.921 -1.50928 -0.406251 0
M  V30 6616 H 614.656 -1.37504 -2.93706 0
M  V30 6617 H 614.441 -3.07595 -2.43162 0
M  V30 6618 H 615.931 -2.57638 -3.28653 0
M  V30 6619 N 616.368 0.432326 -1.51554 0
M  V30 6620 C 617.645 1.19288 -1.55015 0
M  V30 6621 C 618.025 2.08701 -0.317375 0
M  V30 6622 O 617.373 2.17602 0.697243 0
M  V30 6623 C 617.583 1.99037 -2.86679 0
M  V30 6624 C 618.931 2.55907 -3.38817 0
M  V30 6625 O 619.955 2.09243 -2.88263 0
M  V30 6626 O 618.814 3.41029 -4.27038 0
M  V30 6627 H 615.908 0.543369 -0.623441 0
M  V30 6628 H 618.454 0.440988 -1.6387 0
M  V30 6629 H 617.226 1.33397 -3.6786 0
M  V30 6630 H 616.849 2.81281 -2.8101 0
M  V30 6631 N 617.846 1.41785 0.688094 0
M  V30 6632 C 619.093 1.41544 1.44816 0
M  V30 6633 C 619.421 0.0271746 1.94481 0
M  V30 6634 O 618.676 -0.962235 1.7041 0
M  V30 6635 C 618.975 2.37532 2.67046 0
M  V30 6636 C 618.641 3.84209 2.35996 0
M  V30 6637 C 617.303 4.24165 2.27239 0
M  V30 6638 C 619.655 4.76785 2.10536 0
M  V30 6639 C 616.983 5.54695 1.91128 0
M  V30 6640 C 619.335 6.07644 1.75931 0
M  V30 6641 C 617.999 6.46613 1.65675 0
M  V30 6642 H 617.269 0.517945 0.529919 0
M  V30 6643 H 619.916 1.74635 0.785797 0
M  V30 6644 H 618.221 1.9772 3.38251 0
M  V30 6645 H 619.918 2.34615 3.25203 0
M  V30 6646 H 616.508 3.52567 2.4371 0
M  V30 6647 H 620.692 4.46714 2.16242 0
M  V30 6648 H 615.948 5.83762 1.81746 0
M  V30 6649 H 620.122 6.78874 1.55252 0
M  V30 6650 H 617.749 7.47668 1.37463 0
M  V30 6651 N 619.324 -0.923095 1.27737 0
M  V30 6652 C 620.287 -2.00587 1.10894 0
M  V30 6653 C 621.287 -1.60718 0.0514927 0
M  V30 6654 O 622.477 -1.71658 0.296481 0
M  V30 6655 C 619.609 -3.33829 0.690717 0
M  V30 6656 H 620.802 -2.16959 2.07048 0
M  V30 6657 H 618.355 -1.10451 1.1059 0
M  V30 6658 H 619.09 -3.23157 -0.272 0
M  V30 6659 H 618.875 -3.64125 1.45448 0
M  V30 6660 H 620.365 -4.13336 0.595252 0
M  V30 6661 N 620.802 -1.09834 -1.13024 0
M  V30 6662 C 622.048 -0.83819 -1.84668 0
M  V30 6663 C 622.381 0.634645 -1.83537 0
M  V30 6664 O 621.656 1.46753 -1.27647 0
M  V30 6665 C 621.939 -1.37933 -3.32636 0
M  V30 6666 C 621.792 -2.91857 -3.42257 0
M  V30 6667 C 623.111 -1.01654 -4.28199 0
M  V30 6668 H 620.23 -0.30595 -0.670495 0
M  V30 6669 H 622.872 -1.36044 -1.32635 0
M  V30 6670 H 621.022 -0.935111 -3.77078 0
M  V30 6671 H 622.694 -3.44759 -3.06495 0
M  V30 6672 H 620.937 -3.28776 -2.83 0
M  V30 6673 H 621.608 -3.24799 -4.46329 0
M  V30 6674 H 624.084 -1.39973 -3.9185 0
M  V30 6675 H 622.96 -1.42217 -5.30156 0
M  V30 6676 H 623.221 0.0747794 -4.42037 0
M  V30 6677 N 622.28 1.30327 -0.886154 0
M  V30 6678 C 623.19 2.31854 -0.357866 0
M  V30 6679 C 624.206 1.65392 0.540502 0
M  V30 6680 O 625.382 1.96683 0.433339 0
M  V30 6681 C 622.447 3.44171 0.417999 0
M  V30 6682 C 621.508 4.26257 -0.510263 0
M  V30 6683 C 620.741 5.3321 0.228669 0
M  V30 6684 O 620.964 5.51542 1.45458 0
M  V30 6685 O 619.898 6.0042 -0.421832 0
M  V30 6686 H 623.724 2.78995 -1.19982 0
M  V30 6687 H 621.309 1.34518 -0.650028 0
M  V30 6688 H 623.191 4.12588 0.857251 0
M  V30 6689 H 621.866 2.99164 1.23623 0
M  V30 6690 H 620.773 3.60533 -0.99835 0
M  V30 6691 H 622.106 4.74871 -1.29454 0
M  V30 6692 N 623.758 0.647228 1.43697 0
M  V30 6693 C 624.721 -0.0385101 2.29168 0
M  V30 6694 C 625.721 -0.756487 1.41894 0
M  V30 6695 O 626.911 -0.598641 1.63591 0
M  V30 6696 C 624.043 -1.06524 3.23829 0
M  V30 6697 H 625.236 0.713445 2.9129 0
M  V30 6698 H 622.789 0.408153 1.50877 0
M  V30 6699 H 623.524 -1.84664 2.66589 0
M  V30 6700 H 623.309 -0.554147 3.88164 0
M  V30 6701 H 624.799 -1.54432 3.87996 0
M  V30 6702 N 625.236 -1.5273 0.388769 0
M  V30 6703 C 626.166 -2.29353 -0.438111 0
M  V30 6704 C 627.147 -1.32719 -1.06394 0
M  V30 6705 O 628.332 -1.61612 -1.07681 0
M  V30 6706 C 625.462 -3.09995 -1.56589 0
M  V30 6707 C 624.416 -4.14509 -1.06613 0
M  V30 6708 C 623.742 -4.83372 -2.28594 0
M  V30 6709 C 625.042 -5.22127 -0.134459 0
M  V30 6710 H 626.736 -2.98723 0.201206 0
M  V30 6711 H 624.282 -1.43665 0.0982089 0
M  V30 6712 H 626.235 -3.62357 -2.15118 0
M  V30 6713 H 624.959 -2.38357 -2.23279 0
M  V30 6714 H 623.618 -3.63128 -0.503383 0
M  V30 6715 H 623.266 -4.08283 -2.93792 0
M  V30 6716 H 622.966 -5.54012 -1.95817 0
M  V30 6717 H 624.49 -5.38538 -2.87766 0
M  V30 6718 H 625.904 -5.69851 -0.627914 0
M  V30 6719 H 624.301 -6.00011 0.103534 0
M  V30 6720 H 625.371 -4.77971 0.816798 0
M  V30 6721 N 626.714 -0.118576 -1.57153 0
M  V30 6722 C 627.677 0.817464 -2.14127 0
M  V30 6723 C 628.677 1.1949 -1.07604 0
M  V30 6724 O 629.867 1.12048 -1.33382 0
M  V30 6725 C 626.999 2.10541 -2.68115 0
M  V30 6726 H 628.192 0.322339 -2.98163 0
M  V30 6727 H 625.745 0.130655 -1.55753 0
M  V30 6728 H 626.48 2.64485 -1.87665 0
M  V30 6729 H 626.265 1.84425 -3.4602 0
M  V30 6730 H 627.755 2.77453 -3.12105 0
M  V30 6731 N 628.193 1.56834 0.155195 0
M  V30 6732 C 629.14 1.97646 1.19184 0
M  V30 6733 C 630.11 0.842788 1.4313 0
M  V30 6734 O 631.295 1.1042 1.55602 0
M  V30 6735 C 628.435 2.35527 2.52232 0
M  V30 6736 C 627.548 3.62147 2.35529 0
M  V30 6737 C 626.683 3.89167 3.61555 0
M  V30 6738 C 625.722 5.09084 3.39853 0
M  V30 6739 N 624.859 5.32156 4.5799 0
M  V30 6740 H 629.699 2.8601 0.836802 0
M  V30 6741 H 627.236 1.41507 0.401758 0
M  V30 6742 H 629.194 2.55516 3.29799 0
M  V30 6743 H 627.824 1.50253 2.85699 0
M  V30 6744 H 626.876 3.4998 1.49057 0
M  V30 6745 H 628.188 4.49871 2.15448 0
M  V30 6746 H 627.342 4.09611 4.47553 0
M  V30 6747 H 626.081 2.9985 3.84632 0
M  V30 6748 H 625.086 4.88522 2.52243 0
M  V30 6749 H 626.311 5.99947 3.18183 0
M  V30 6750 H 624.257 4.45791 4.81255 0
M  V30 6751 H 624.174 6.14133 4.40882 0
M  V30 6752 H 625.442 5.57091 5.45225 0
M  V30 6753 N 629.671 -0.424282 1.51781 0
M  V30 6754 C 630.634 -1.49848 1.73431 0
M  V30 6755 C 631.634 -1.49016 0.604225 0
M  V30 6756 O 632.824 -1.50808 0.871935 0
M  V30 6757 C 629.956 -2.89332 1.80277 0
M  V30 6758 H 631.149 -1.3195 2.69312 0
M  V30 6759 H 628.702 -0.653809 1.41968 0
M  V30 6760 H 629.437 -3.12618 0.862568 0
M  V30 6761 H 629.222 -2.9134 2.62419 0
M  V30 6762 H 630.712 -3.67233 1.98821 0
M  V30 6763 N 631.149 -1.42148 -0.680565 0
M  V30 6764 C 632.377 -1.45696 -1.46902 0
M  V30 6765 C 632.792 -0.0665858 -1.88683 0
M  V30 6766 O 632.149 0.917436 -1.57764 0
M  V30 6767 C 632.2 -2.37898 -2.72188 0
M  V30 6768 O 631.921 -3.71526 -2.32163 0
M  V30 6769 C 633.422 -2.50407 -3.65802 0
M  V30 6770 H 630.642 -0.495729 -0.45221 0
M  V30 6771 H 633.186 -1.866 -0.836709 0
M  V30 6772 H 631.341 -2.00263 -3.31622 0
M  V30 6773 H 631.755 -4.20849 -3.13027 0
M  V30 6774 H 633.229 -3.19056 -4.50452 0
M  V30 6775 H 633.706 -1.5401 -4.11312 0
M  V30 6776 H 634.312 -2.8874 -3.12265 0
M  V30 6777 N 632.627 0.916307 -1.28225 0
M  V30 6778 C 633.857 1.69654 -1.17902 0
M  V30 6779 C 634.265 1.87331 0.265268 0
M  V30 6780 O 633.608 1.39828 1.19137 0
M  V30 6781 C 633.67 3.11024 -1.80289 0
M  V30 6782 C 633.334 3.16643 -3.29525 0
M  V30 6783 C 634.331 2.98032 -4.25997 0
M  V30 6784 C 632.016 3.39238 -3.70436 0
M  V30 6785 C 634.01 3.01924 -5.61356 0
M  V30 6786 C 631.697 3.42762 -5.05922 0
M  V30 6787 C 632.695 3.24125 -6.01192 0
M  V30 6788 O 632.383 3.27406 -7.34208 0
M  V30 6789 H 632.115 0.537197 -0.41036 0
M  V30 6790 H 634.669 1.15547 -1.69817 0
M  V30 6791 H 632.899 3.66662 -1.22865 0
M  V30 6792 H 634.588 3.71063 -1.6452 0
M  V30 6793 H 635.354 2.80405 -3.95725 0
M  V30 6794 H 631.233 3.52791 -2.96749 0
M  V30 6795 H 634.777 2.87295 -6.35694 0
M  V30 6796 H 630.674 3.59916 -5.35846 0
M  V30 6797 H 631.442 3.43784 -7.42802 0
M  V30 6798 N 634.105 1.10431 1.1244 0
M  V30 6799 C 635.015 0.765502 2.21759 0
M  V30 6800 C 636.031 -0.236966 1.72379 0
M  V30 6801 O 637.207 -0.0757329 2.01258 0
M  V30 6802 C 634.272 0.202316 3.46109 0
M  V30 6803 C 633.333 1.26205 4.1033 0
M  V30 6804 C 632.566 0.725648 5.28744 0
M  V30 6805 O 632.789 -0.447942 5.68638 0
M  V30 6806 O 631.723 1.48555 5.83279 0
M  V30 6807 H 635.549 1.67801 2.53133 0
M  V30 6808 H 633.134 0.879443 1.20773 0
M  V30 6809 H 635.016 -0.107918 4.21262 0
M  V30 6810 H 633.691 -0.683052 3.16411 0
M  V30 6811 H 632.598 1.62514 3.36957 0
M  V30 6812 H 633.931 2.12044 4.44183 0
M  V30 6813 N 635.583 -1.29855 0.893053 0
M  V30 6814 C 636.999 -1.48366 0.588199 0
M  V30 6815 C 637.199 -1.81654 -0.872018 0
M  V30 6816 O 636.255 -1.909 -1.65268 0
M  V30 6817 C 637.568 -2.60136 1.5083 0
M  V30 6818 C 639.116 -2.74014 1.51279 0
M  V30 6819 C 639.591 -3.88905 2.41902 0
M  V30 6820 N 641.082 -3.96228 2.39911 0
M  V30 6821 C 641.817 -4.84458 3.06738 0
M  V30 6822 N 641.313 -5.77426 3.8282 0
M  V30 6823 N 643.106 -4.77894 2.95929 0
M  V30 6824 H 635.257 -1.06522 1.83757 0
M  V30 6825 H 637.52 -0.528495 0.787018 0
M  V30 6826 H 637.226 -2.42383 2.54839 0
M  V30 6827 H 637.1 -3.56793 1.22388 0
M  V30 6828 H 639.487 -2.91167 0.480179 0
M  V30 6829 H 639.568 -1.77952 1.83757 0
M  V30 6830 H 639.212 -3.72508 3.45253 0
M  V30 6831 H 639.142 -4.84322 2.06737 0
M  V30 6832 H 641.633 -3.29728 1.84629 0
M  V30 6833 H 641.946 -6.41529 4.30883 0
M  V30 6834 H 640.291 -5.77332 3.86927 0
M  V30 6835 H 643.482 -4.04248 2.36012 0
M  V30 6836 H 643.655 -5.46444 3.48286 0
M  V30 6837 N 637.061 -0.65484 -1.43351 0
M  V30 6838 C 637.991 0.0221809 -2.33489 0
M  V30 6839 C 638.972 0.810272 -1.49561 0
M  V30 6840 O 640.157 0.771426 -1.78221 0
M  V30 6841 C 637.287 0.988117 -3.32947 0
M  V30 6842 C 636.241 0.310026 -4.26876 0
M  V30 6843 C 635.567 1.38752 -5.16384 0
M  V30 6844 C 636.867 -0.798589 -5.16159 0
M  V30 6845 H 638.561 -0.730571 -2.9035 0
M  V30 6846 H 636.107 -0.352773 -1.39612 0
M  V30 6847 H 638.06 1.47067 -3.94904 0
M  V30 6848 H 636.784 1.77205 -2.74346 0
M  V30 6849 H 635.443 -0.152097 -3.66284 0
M  V30 6850 H 635.091 2.16293 -4.54121 0
M  V30 6851 H 634.791 0.939051 -5.80048 0
M  V30 6852 H 636.315 1.87141 -5.81215 0
M  V30 6853 H 637.729 -0.398126 -5.71916 0
M  V30 6854 H 636.126 -1.17163 -5.88552 0
M  V30 6855 H 637.196 -1.65588 -4.55751 0
M  V30 6856 N 638.539 1.52521 -0.396863 0
M  V30 6857 C 639.786 2.01672 0.182898 0
M  V30 6858 C 640.114 1.28302 1.46181 0
M  V30 6859 O 639.369 0.374118 1.92091 0
M  V30 6860 C 639.668 3.5403 0.489677 0
M  V30 6861 C 639.334 4.45456 -0.698581 0
M  V30 6862 C 637.996 4.70166 -1.02454 0
M  V30 6863 C 640.348 4.99354 -1.49316 0
M  V30 6864 C 637.676 5.46024 -2.1465 0
M  V30 6865 C 640.028 5.76439 -2.60579 0
M  V30 6866 C 638.692 5.99426 -2.93675 0
M  V30 6867 H 637.962 0.737971 0.066927 0
M  V30 6868 H 640.609 1.83853 -0.535764 0
M  V30 6869 H 638.914 3.69963 1.28976 0
M  V30 6870 H 640.611 3.8956 0.951018 0
M  V30 6871 H 637.201 4.26392 -0.434525 0
M  V30 6872 H 641.385 4.80182 -1.25457 0
M  V30 6873 H 636.641 5.62046 -2.40654 0
M  V30 6874 H 640.815 6.17202 -3.22544 0
M  V30 6875 H 638.442 6.57988 -3.80731 0
M  V30 6876 N 640.017 0.126909 1.57088 0
M  V30 6877 C 641.433 -0.229641 1.57939 0
M  V30 6878 C 641.633 -1.66145 1.1401 0
M  V30 6879 O 640.689 -2.3843 0.831119 0
M  V30 6880 C 642.002 0.0108648 3.00698 0
M  V30 6881 C 643.55 -0.054418 3.12953 0
M  V30 6882 C 644.025 0.158497 4.57726 0
M  V30 6883 N 645.516 0.104735 4.63082 0
M  V30 6884 C 646.251 0.24427 5.72879 0
M  V30 6885 N 645.747 0.440415 6.91399 0
M  V30 6886 N 647.54 0.183286 5.61801 0
M  V30 6887 H 639.691 1.06203 1.83942 0
M  V30 6888 H 641.954 0.418834 0.85046 0
M  V30 6889 H 641.66 1.00102 3.37154 0
M  V30 6890 H 641.534 -0.717512 3.70313 0
M  V30 6891 H 643.921 -1.0351 2.7635 0
M  V30 6892 H 644.002 0.705967 2.45865 0
M  V30 6893 H 643.646 1.13619 4.95028 0
M  V30 6894 H 643.576 -0.62197 5.22914 0
M  V30 6895 H 646.067 -0.0430298 3.77876 0
M  V30 6896 H 646.38 0.537536 7.70928 0
M  V30 6897 H 644.725 0.476488 6.93365 0
M  V30 6898 H 647.916 0.0309561 4.6809 0
M  V30 6899 H 648.089 0.295471 6.47326 0
M  V30 6900 N 641.495 -1.56914 -0.146875 0
M  V30 6901 C 642.741 -1.84515 -0.855914 0
M  V30 6902 C 643.096 -0.710909 -1.78784 0
M  V30 6903 O 642.389 0.291123 -1.89375 0
M  V30 6904 C 642.583 -3.16128 -1.66727 0
M  V30 6905 C 642.412 -4.42246 -0.815405 0
M  V30 6906 C 641.182 -5.03006 -0.480976 0
M  V30 6907 C 643.38 -5.14094 -0.145684 0
M  V30 6908 N 641.362 -6.12695 0.384476 0
M  V30 6909 C 642.733 -6.17282 0.579902 0
M  V30 6910 C 644.788 -4.97856 -0.0663705 0
M  V30 6911 C 643.491 -7.0599 1.37731 0
M  V30 6912 C 645.517 -5.87028 0.71778 0
M  V30 6913 C 644.879 -6.89698 1.43165 0
M  V30 6914 H 640.978 -0.725829 -0.291026 0
M  V30 6915 H 643.562 -1.94322 -0.121279 0
M  V30 6916 H 641.733 -3.07468 -2.37315 0
M  V30 6917 H 643.465 -3.31635 -2.31949 0
M  V30 6918 H 640.22 -4.66504 -0.816789 0
M  V30 6919 H 640.644 -6.72158 0.80823 0
M  V30 6920 H 645.286 -4.18465 -0.603929 0
M  V30 6921 H 643.004 -7.84809 1.92613 0
M  V30 6922 H 646.59 -5.76532 0.781141 0
M  V30 6923 H 645.47 -7.57505 2.02868 0
M  V30 6924 N 642.974 0.416227 -1.52004 0
M  V30 6925 C 644.223 1.16088 -1.64944 0
M  V30 6926 C 644.536 1.91835 -0.381928 0
M  V30 6927 O 645.742 2.6867 -0.391013 0
M  V30 6928 C 644.198 2.1124 -2.91386 0
M  V30 6929 C 643.806 1.41042 -4.25219 0
M  V30 6930 C 645.55 2.86008 -3.13688 0
M  V30 6931 C 643.457 2.34801 -5.42791 0
M  V30 6932 H 642.387 0.437041 -0.61442 0
M  V30 6933 H 645.038 0.425971 -1.78487 0
M  V30 6934 H 643.42 2.88254 -2.71525 0
M  V30 6935 H 644.594 0.694416 -4.55538 0
M  V30 6936 H 642.909 0.78344 -4.08964 0
M  V30 6937 H 645.506 3.56286 -3.98703 0
M  V30 6938 H 645.849 3.48556 -2.27628 0
M  V30 6939 H 646.382 2.16095 -3.33988 0
M  V30 6940 H 643.121 1.7691 -6.31176 0
M  V30 6941 H 642.641 3.04395 -5.16821 0
M  V30 6942 H 644.32 2.9548 -5.75587 0
M  V30 6943 N 644.452 1.42507 0.673017 0
M  V30 6944 C 645.382 1.48916 1.79851 0
M  V30 6945 C 646.363 0.345566 1.66553 0
M  V30 6946 O 647.548 0.560116 1.85947 0
M  V30 6947 C 644.678 1.39258 3.18158 0
M  V30 6948 C 643.632 2.51662 3.46194 0
M  V30 6949 C 642.958 2.27062 4.84094 0
M  V30 6950 C 644.258 3.93968 3.42909 0
M  V30 6951 H 645.952 2.43114 1.74745 0
M  V30 6952 H 643.498 1.17013 0.839288 0
M  V30 6953 H 645.451 1.42349 3.96629 0
M  V30 6954 H 644.175 0.415542 3.23946 0
M  V30 6955 H 642.834 2.47891 2.70084 0
M  V30 6956 H 642.482 1.27648 4.86534 0
M  V30 6957 H 642.182 3.02398 5.03815 0
M  V30 6958 H 643.706 2.31905 5.64847 0
M  V30 6959 H 645.12 3.99332 4.11347 0
M  V30 6960 H 643.517 4.6917 3.74165 0
M  V30 6961 H 644.587 4.20512 2.41449 0
M  V30 6962 N 645.93 -0.909495 1.28709 0
M  V30 6963 C 647.158 -1.69272 1.18973 0
M  V30 6964 C 647.573 -1.87123 -0.251048 0
M  V30 6965 O 646.93 -1.40127 -1.16922 0
M  V30 6966 C 646.981 -3.08257 1.88839 0
M  V30 6967 O 646.702 -2.91228 3.27289 0
M  V30 6968 C 648.203 -4.02642 1.85457 0
M  V30 6969 H 645.423 -0.528999 0.412797 0
M  V30 6970 H 647.967 -1.13803 1.69909 0
M  V30 6971 H 646.122 -3.6053 1.41762 0
M  V30 6972 H 646.536 -3.79223 3.6234 0
M  V30 6973 H 648.01 -4.97613 2.38925 0
M  V30 6974 H 648.487 -4.31327 0.827893 0
M  V30 6975 H 649.093 -3.56298 2.32233 0
M  V30 6976 N 647.408 -1.11026 -1.11852 0
M  V30 6977 C 648.824 -0.843294 -1.35502 0
M  V30 6978 C 649.024 0.534179 -1.9429 0
M  V30 6979 O 648.08 1.28585 -2.17307 0
M  V30 6980 C 649.393 -1.94793 -2.29077 0
M  V30 6981 C 650.941 -1.97709 -2.42652 0
M  V30 6982 C 651.416 -3.07364 -3.39546 0
M  V30 6983 N 652.907 -3.0671 -3.47107 0
M  V30 6984 C 653.642 -3.88197 -4.22008 0
M  V30 6985 N 653.138 -4.79635 -4.99922 0
M  V30 6986 N 654.931 -3.76391 -4.17476 0
M  V30 6987 H 647.082 -1.99805 -0.720538 0
M  V30 6988 H 649.345 -0.868633 -0.379711 0
M  V30 6989 H 649.051 -2.93971 -1.93065 0
M  V30 6990 H 648.925 -1.84039 -3.29256 0
M  V30 6991 H 651.312 -0.991604 -2.77941 0
M  V30 6992 H 651.393 -2.1254 -1.4234 0
M  V30 6993 H 651.037 -4.06136 -3.04985 0
M  V30 6994 H 650.967 -2.89774 -4.39703 0
M  V30 6995 H 653.458 -2.40457 -2.91528 0
M  V30 6996 H 653.771 -5.38357 -5.54429 0
M  V30 6997 H 652.116 -4.8366 -4.99097 0
M  V30 6998 H 655.307 -3.04303 -3.55693 0
M  V30 6999 H 655.48 -4.40131 -4.75593 0
M  V30 7000 N 648.886 1.2938 -0.899927 0
M  V30 7001 C 650.132 1.9584 -0.526742 0
M  V30 7002 C 650.465 1.70774 0.924651 0
M  V30 7003 O 649.74 1.02084 1.65557 0
M  V30 7004 C 650.023 3.50638 -0.820062 0
M  V30 7005 C 649.876 3.85161 -2.32317 0
M  V30 7006 C 651.195 4.3903 -0.30671 0
M  V30 7007 H 648.314 0.711322 -0.192848 0
M  V30 7008 H 650.956 1.52992 -1.12665 0
M  V30 7009 H 649.106 3.87265 -0.309491 0
M  V30 7010 H 650.778 3.58477 -2.9033 0
M  V30 7011 H 649.021 3.32696 -2.78381 0
M  V30 7012 H 649.692 4.93204 -2.47898 0
M  V30 7013 H 652.168 4.09396 -0.743908 0
M  V30 7014 H 651.044 5.46226 -0.541144 0
M  V30 7015 H 651.305 4.34937 0.792588 0
M  V30 7016 N 650.364 0.662433 1.43002 0
M  V30 7017 C 651.312 -0.035345 2.32573 0
M  V30 7018 C 652.306 -0.803505 1.49131 0
M  V30 7019 O 653.512 -0.712865 1.65282 0
M  V30 7020 H 649.887 -0.0302194 0.751393 0
M  V30 7021 H 651.858 0.737686 2.89138 0
M  V30 7022 C 650.607 -0.981575 3.33557 0
M  V30 7023 H 649.93 -0.399914 3.97795 0
M  V30 7024 H 651.37 -1.43873 3.98844 0
M  V30 7025 C 649.829 -2.08204 2.64863 0
M  V30 7026 O 650.359 -3.16698 2.47113 0
M  V30 7027 N 648.565 -1.85022 2.24088 0
M  V30 7028 H 648.112 -0.967909 2.38724 0
M  V30 7029 H 648.07 -2.58845 1.78457 0
M  V30 7030 N 651.842 -1.52309 0.404946 0
M  V30 7031 C 652.789 -2.26898 -0.422597 0
M  V30 7032 C 653.759 -1.2914 -1.04461 0
M  V30 7033 O 654.944 -1.57996 -1.06967 0
M  V30 7034 C 652.084 -3.09053 -1.53559 0
M  V30 7035 C 651.197 -4.21762 -0.934908 0
M  V30 7036 C 650.332 -4.91283 -2.02025 0
M  V30 7037 C 649.371 -5.95962 -1.39628 0
M  V30 7038 N 648.508 -6.59017 -2.42159 0
M  V30 7039 H 653.348 -2.97188 0.219903 0
M  V30 7040 H 650.885 -1.46607 0.120282 0
M  V30 7041 H 652.843 -3.54987 -2.19181 0
M  V30 7042 H 651.473 -2.40942 -2.14818 0
M  V30 7043 H 650.525 -3.80029 -0.167854 0
M  V30 7044 H 651.837 -4.96864 -0.439073 0
M  V30 7045 H 650.991 -5.40601 -2.75383 0
M  V30 7046 H 649.73 -4.15741 -2.54973 0
M  V30 7047 H 648.735 -5.45968 -0.648023 0
M  V30 7048 H 649.96 -6.73445 -0.874553 0
M  V30 7049 H 647.906 -5.86306 -2.94247 0
M  V30 7050 H 647.823 -7.2978 -1.97376 0
M  V30 7051 H 649.091 -7.12974 -3.15099 0
M  V30 7052 N 653.32 -0.135238 -1.57019 0
M  V30 7053 C 654.283 0.794707 -2.14981 0
M  V30 7054 C 655.283 1.18342 -1.08866 0
M  V30 7055 O 656.473 1.10627 -1.34563 0
M  V30 7056 C 653.605 2.07685 -2.70333 0
M  V30 7057 H 654.798 0.290696 -2.98488 0
M  V30 7058 H 652.351 0.114128 -1.55883 0
M  V30 7059 H 653.086 2.6248 -1.9046 0
M  V30 7060 H 652.871 1.80745 -3.47957 0
M  V30 7061 H 654.361 2.74127 -3.1503 0
M  V30 7062 N 654.798 1.5699 0.138552 0
M  V30 7063 C 655.728 2.01933 1.17241 0
M  V30 7064 C 656.709 0.90033 1.44319 0
M  V30 7065 O 657.894 1.16872 1.55095 0
M  V30 7066 C 655.024 2.40711 2.50351 0
M  V30 7067 C 653.978 3.55874 2.37776 0
M  V30 7068 C 653.304 3.80491 3.75674 0
M  V30 7069 C 654.604 4.8826 1.85472 0
M  V30 7070 H 656.298 2.88551 0.798672 0
M  V30 7071 H 653.844 1.3882 0.382743 0
M  V30 7072 H 655.797 2.70754 3.22909 0
M  V30 7073 H 654.521 1.5104 2.89576 0
M  V30 7074 H 653.18 3.2601 1.67669 0
M  V30 7075 H 652.828 2.88057 4.12349 0
M  V30 7076 H 652.528 4.57998 3.68119 0
M  V30 7077 H 654.052 4.12967 4.49767 0
M  V30 7078 H 655.466 5.16965 2.4783 0
M  V30 7079 H 653.863 5.69631 1.88787 0
M  V30 7080 H 654.933 4.78071 0.810935 0
M  V30 7081 N 656.276 -0.40816 1.52223 0
M  V30 7082 C 657.553 -1.16807 1.56893 0
M  V30 7083 C 657.933 -2.08169 0.350537 0
M  V30 7084 O 657.281 -2.18684 -0.662536 0
M  V30 7085 C 657.491 -1.94451 2.8981 0
M  V30 7086 C 658.839 -2.50484 3.42845 0
M  V30 7087 O 659.863 -2.0463 2.91556 0
M  V30 7088 O 658.722 -3.34192 4.3241 0
M  V30 7089 H 655.816 -0.533382 0.632007 0
M  V30 7090 H 658.362 -0.414862 1.64551 0
M  V30 7091 H 657.134 -1.27527 3.69936 0
M  V30 7092 H 656.757 -2.76775 2.85449 0
M  V30 7093 N 657.755 -1.42862 -0.66545 0
M  V30 7094 C 658.702 -1.4707 -1.77874 0
M  V30 7095 C 659.672 -0.321654 -1.62956 0
M  V30 7096 O 660.857 -0.52707 -1.83376 0
M  V30 7097 C 657.997 -1.38788 -3.15962 0
M  V30 7098 C 657.11 -2.63801 -3.42101 0
M  V30 7099 C 656.245 -2.47594 -4.69969 0
M  V30 7100 C 655.284 -3.67936 -4.89172 0
M  V30 7101 N 654.421 -3.50614 -6.08288 0
M  V30 7102 H 659.261 -2.42204 -1.73613 0
M  V30 7103 H 656.798 -1.20239 -0.847401 0
M  V30 7104 H 658.756 -1.31982 -3.95773 0
M  V30 7105 H 657.386 -0.472431 -3.19324 0
M  V30 7106 H 656.438 -2.80935 -2.56475 0
M  V30 7107 H 657.75 -3.53228 -3.52181 0
M  V30 7108 H 656.904 -2.38427 -5.57886 0
M  V30 7109 H 655.643 -1.55672 -4.62188 0
M  V30 7110 H 654.648 -3.77525 -3.99694 0
M  V30 7111 H 655.873 -4.60851 -4.98792 0
M  V30 7112 H 653.819 -2.61417 -6.01662 0
M  V30 7113 H 653.736 -4.33634 -6.19272 0
M  V30 7114 H 655.004 -3.45276 -6.98859 0
M  V30 7115 N 659.233 0.902656 -1.29189 0
M  V30 7116 C 660.461 1.68639 -1.19869 0
M  V30 7117 C 660.876 1.87254 0.241121 0
M  V30 7118 O 660.233 1.40745 1.16177 0
M  V30 7119 C 660.284 3.07251 -1.90471 0
M  V30 7120 O 660.005 2.89488 -3.28829 0
M  V30 7121 C 661.506 4.01653 -1.8759 0
M  V30 7122 H 658.726 0.526802 -0.415596 0
M  V30 7123 H 661.27 1.12901 -1.7051 0
M  V30 7124 H 659.425 3.59774 -1.43672 0
M  V30 7125 H 659.839 3.77296 -3.64346 0
M  V30 7126 H 661.313 4.96339 -2.4156 0
M  V30 7127 H 661.79 4.30881 -0.850756 0
M  V30 7128 H 662.396 3.55061 -2.34119 0
M  V30 7129 N 660.711 1.11618 1.11262 0
M  V30 7130 C 661.661 0.745274 2.15475 0
M  V30 7131 C 662.645 -0.251585 1.58921 0
M  V30 7132 O 663.837 -0.0584093 1.76904 0
M  V30 7133 C 660.966 0.192128 3.42762 0
M  V30 7134 C 660.052 1.21676 4.0627 0
M  V30 7135 N 660.443 2.41158 4.44608 0
M  V30 7136 C 658.741 1.06013 4.33217 0
M  V30 7137 C 659.442 3.0652 4.94389 0
M  V30 7138 N 658.418 2.33994 4.9066 0
M  V30 7139 H 662.22 1.65462 2.42898 0
M  V30 7140 H 659.734 0.995695 1.28295 0
M  V30 7141 H 661.731 -0.0917339 4.16799 0
M  V30 7142 H 660.391 -0.711778 3.16802 0
M  V30 7143 H 661.402 2.786 4.3658 0
M  V30 7144 H 658.079 0.212809 4.16957 0
M  V30 7145 H 659.469 4.08225 5.33669 0
M  V30 7146 N 662.189 -1.289 0.906776 0
M  V30 7147 C 663.605 -1.47733 0.603902 0
M  V30 7148 C 663.805 -1.82568 -0.852702 0
M  V30 7149 O 662.861 -1.92642 -1.63234 0
M  V30 7150 C 664.174 -2.58522 1.53581 0
M  V30 7151 C 665.722 -2.72394 1.54177 0
M  V30 7152 C 666.197 -3.86318 2.46013 0
M  V30 7153 N 667.688 -3.93661 2.441 0
M  V30 7154 C 668.423 -4.81177 3.11859 0
M  V30 7155 N 667.919 -5.73333 3.88923 0
M  V30 7156 N 669.712 -4.74728 3.00981 0
M  V30 7157 H 661.863 -1.04567 1.84877 0
M  V30 7158 H 664.126 -0.520118 0.792579 0
M  V30 7159 H 663.832 -2.39667 2.57396 0
M  V30 7160 H 663.706 -3.55475 1.26165 0
M  V30 7161 H 666.093 -2.90641 0.511034 0
M  V30 7162 H 666.174 -1.75993 1.85634 0
M  V30 7163 H 665.818 -3.68826 3.49185 0
M  V30 7164 H 665.748 -4.82102 2.11862 0
M  V30 7165 H 668.239 -3.27751 1.88115 0
M  V30 7166 H 668.552 -6.36923 4.37663 0
M  V30 7167 H 666.897 -5.73196 3.93029 0
M  V30 7168 H 670.088 -4.01722 2.40286 0
M  V30 7169 H 670.261 -5.42719 3.54062 0
M  V30 7170 N 663.667 -0.670007 -1.42649 0
M  V30 7171 C 664.599 0.0501746 -2.29145 0
M  V30 7172 C 665.612 0.770331 -1.43422 0
M  V30 7173 O 666.801 0.625288 -1.6719 0
M  V30 7174 C 663.901 1.09463 -3.20735 0
M  V30 7175 C 663.074 0.44926 -4.35087 0
M  V30 7176 C 662.133 1.39285 -5.07431 0
M  V30 7177 O 661.159 0.894997 -5.6212 0
M  V30 7178 N 662.361 2.72631 -5.12496 0
M  V30 7179 H 665.126 -0.692312 -2.91594 0
M  V30 7180 H 662.687 -0.514056 -1.53522 0
M  V30 7181 H 664.679 1.72705 -3.65999 0
M  V30 7182 H 663.249 1.73891 -2.59771 0
M  V30 7183 H 662.469 -0.362573 -3.92529 0
M  V30 7184 H 663.757 -0.000544776 -5.088 0
M  V30 7185 H 663.155 3.15623 -4.69467 0
M  V30 7186 H 661.712 3.31132 -5.61422 0
M  V30 7187 N 665.145 1.52092 -0.413018 0
M  V30 7188 C 666.393 2.01456 0.161178 0
M  V30 7189 C 666.714 1.30034 1.45314 0
M  V30 7190 O 665.984 0.427435 1.9118 0
M  V30 7191 H 664.564 0.744376 0.0625526 0
M  V30 7192 H 667.226 1.86974 -0.550151 0
M  V30 7193 H 666.322 3.1008 0.354517 0
M  V30 7194 N 666.623 0.143563 1.56945 0
M  V30 7195 C 667.586 -0.783295 2.154 0
M  V30 7196 C 668.586 -1.17763 1.09492 0
M  V30 7197 O 669.776 -1.09912 1.35148 0
M  V30 7198 C 666.908 -2.06248 2.7143 0
M  V30 7199 H 668.101 -0.274863 2.98638 0
M  V30 7200 H 665.654 -0.105859 1.55941 0
M  V30 7201 H 666.389 -2.61466 1.91849 0
M  V30 7202 H 666.174 -1.78897 3.4891 0
M  V30 7203 H 667.664 -2.72453 3.16479 0
M  V30 7204 N 668.101 -1.57061 -0.130224 0
M  V30 7205 C 669.326 -1.88802 -0.858409 0
M  V30 7206 C 669.751 -0.734353 -1.73173 0
M  V30 7207 O 669.109 0.315529 -1.78533 0
M  V30 7208 C 669.157 -3.19228 -1.67708 0
M  V30 7209 O 668.261 -3.04343 -2.78297 0
M  V30 7210 H 667.602 -0.619849 -0.238083 0
M  V30 7211 H 670.132 -2.04271 -0.115995 0
M  V30 7212 H 670.142 -3.51669 -2.06864 0
M  V30 7213 H 668.817 -4.02793 -1.0359 0
M  V30 7214 H 667.394 -2.83346 -2.42425 0
M  V30 7215 N 669.579 0.400081 -1.52437 0
M  V30 7216 C 670.826 1.14619 -1.6694 0
M  V30 7217 C 671.154 1.90262 -0.403797 0
M  V30 7218 O 670.409 1.85835 0.61351 0
M  V30 7219 C 670.708 2.15914 -2.84808 0
M  V30 7220 C 670.374 1.57011 -4.2268 0
M  V30 7221 C 669.036 1.40672 -4.60179 0
M  V30 7222 C 671.388 1.14081 -5.08562 0
M  V30 7223 C 668.716 0.799335 -5.81229 0
M  V30 7224 C 671.068 0.547573 -6.30226 0
M  V30 7225 C 669.732 0.371389 -6.66466 0
M  V30 7226 H 669.002 0.419419 -0.610875 0
M  V30 7227 H 671.649 0.432227 -1.86558 0
M  V30 7228 H 669.954 2.93488 -2.59561 0
M  V30 7229 H 671.651 2.73533 -2.93225 0
M  V30 7230 H 668.241 1.70713 -3.93135 0
M  V30 7231 H 672.425 1.2551 -4.80168 0
M  V30 7232 H 667.681 0.65093 -6.07925 0
M  V30 7233 H 671.855 0.206575 -6.96094 0
M  V30 7234 H 669.482 -0.10135 -7.60132 0
M  V30 7235 N 671.057 1.43213 0.657864 0
M  V30 7236 C 671.987 1.50815 1.78262 0
M  V30 7237 C 672.968 0.363211 1.66177 0
M  V30 7238 O 674.153 0.579806 1.85343 0
M  V30 7239 C 671.283 1.42625 3.16663 0
M  V30 7240 C 670.237 2.5532 3.43505 0
M  V30 7241 C 669.563 2.32184 4.81658 0
M  V30 7242 C 670.863 3.97583 3.38711 0
M  V30 7243 H 672.557 2.44954 1.72157 0
M  V30 7244 H 670.103 1.17896 0.82683 0
M  V30 7245 H 672.056 1.46548 3.95097 0
M  V30 7246 H 670.78 0.449877 3.23487 0
M  V30 7247 H 669.439 2.50742 2.6744 0
M  V30 7248 H 669.087 1.32801 4.85153 0
M  V30 7249 H 668.787 3.07724 5.00579 0
M  V30 7250 H 670.311 2.37883 5.62356 0
M  V30 7251 H 671.725 4.03673 4.07089 0
M  V30 7252 H 670.122 4.73112 3.69168 0
M  V30 7253 H 671.192 4.23049 2.36976 0
M  V30 7254 N 672.536 -0.895792 1.29666 0
M  V30 7255 C 673.784 -1.64339 1.17631 0
M  V30 7256 C 674.105 -1.93099 -0.271643 0
M  V30 7257 O 673.375 -1.55981 -1.18518 0
M  V30 7258 H 671.955 -0.609162 0.432354 0
M  V30 7259 H 674.617 -1.07389 1.62646 0
M  V30 7260 H 673.713 -2.59815 1.72924 0
M  V30 7261 N 674.014 -1.12206 -1.10668 0
M  V30 7262 C 675.263 -0.870595 -1.81944 0
M  V30 7263 C 675.576 0.605447 -1.85994 0
M  V30 7264 O 676.782 0.973433 -2.53449 0
M  V30 7265 C 675.238 -1.50783 -3.26791 0
M  V30 7266 C 674.846 -3.01849 -3.31046 0
M  V30 7267 C 676.59 -1.33653 -4.02911 0
M  V30 7268 C 674.497 -3.58518 -4.70339 0
M  V30 7269 H 673.427 -0.322043 -0.681765 0
M  V30 7270 H 676.078 -1.34827 -1.24475 0
M  V30 7271 H 674.46 -0.957825 -3.84242 0
M  V30 7272 H 675.634 -3.63321 -2.83433 0
M  V30 7273 H 673.949 -3.18346 -2.68411 0
M  V30 7274 H 676.546 -1.73416 -5.05797 0
M  V30 7275 H 676.889 -0.279949 -4.15358 0
M  V30 7276 H 677.422 -1.85562 -3.51868 0
M  V30 7277 H 674.161 -4.63925 -4.63091 0
M  V30 7278 H 673.681 -3.01819 -5.18329 0
M  V30 7279 H 675.36 -3.57434 -5.39305 0
M  V30 7280 N 675.492 1.28418 -0.913599 0
M  V30 7281 C 676.422 2.29713 -0.418847 0
M  V30 7282 C 677.403 1.62165 0.513469 0
M  V30 7283 O 678.588 1.89576 0.421235 0
M  V30 7284 C 675.718 3.45612 0.342042 0
M  V30 7285 C 674.672 4.25056 -0.501123 0
M  V30 7286 C 673.998 5.3329 0.388097 0
M  V30 7287 C 675.298 4.91814 -1.75831 0
M  V30 7288 H 676.992 2.71346 -1.26538 0
M  V30 7289 H 674.538 1.30446 -0.609903 0
M  V30 7290 H 676.491 4.15562 0.699 0
M  V30 7291 H 675.215 3.02858 1.22248 0
M  V30 7292 H 673.874 3.56833 -0.840598 0
M  V30 7293 H 673.522 4.8678 1.26707 0
M  V30 7294 H 673.222 5.87347 -0.172459 0
M  V30 7295 H 674.746 6.06088 0.74094 0
M  V30 7296 H 676.16 5.54126 -1.47026 0
M  V30 7297 H 674.557 5.55866 -2.26126 0
M  V30 7298 H 675.627 4.16313 -2.4862 0
M  V30 7299 N 676.97 0.677563 1.42291 0
M  V30 7300 C 678.247 0.129803 1.95169 0
M  V30 7301 C 678.627 -1.35605 1.61786 0
M  V30 7302 O 677.975 -2.09361 0.915444 0
M  V30 7303 C 678.185 0.401889 3.46678 0
M  V30 7304 C 679.533 0.319889 4.23393 0
M  V30 7305 O 680.557 0.33579 3.54614 0
M  V30 7306 O 679.416 0.264459 5.4586 0
M  V30 7307 H 676.51 0.00447433 0.826988 0
M  V30 7308 H 679.056 0.752483 1.52105 0
M  V30 7309 H 677.828 1.43108 3.64192 0
M  V30 7310 H 677.451 -0.252662 3.96796 0
M  V30 7311 N 678.448 -1.51871 0.421078 0
M  V30 7312 C 679.697 -2.01125 -0.152206 0
M  V30 7313 C 680.01 -1.3106 -1.45199 0
M  V30 7314 O 681.216 -1.71195 -2.10724 0
M  V30 7315 C 679.672 -3.58458 -0.3218 0
M  V30 7316 C 679.28 -4.37448 0.96659 0
M  V30 7317 C 681.024 -4.15908 -0.84973 0
M  V30 7318 C 678.931 -5.86451 0.763529 0
M  V30 7319 H 677.861 -0.751556 -0.0606565 0
M  V30 7320 H 680.512 -1.75115 0.548354 0
M  V30 7321 H 678.894 -3.80847 -1.08498 0
M  V30 7322 H 680.068 -4.26814 1.73684 0
M  V30 7323 H 678.383 -3.91373 1.42183 0
M  V30 7324 H 680.98 -5.24922 -1.01788 0
M  V30 7325 H 681.323 -3.74031 -1.82774 0
M  V30 7326 H 681.856 -3.97535 -0.145297 0
M  V30 7327 H 678.595 -6.3271 1.71344 0
M  V30 7328 H 678.115 -5.99791 0.0327889 0
M  V30 7329 H 679.794 -6.45697 0.410354 0
M  V30 7330 N 679.926 -0.151884 -1.56866 0
M  V30 7331 C 680.889 0.771861 -2.15812 0
M  V30 7332 C 681.889 1.17181 -1.10115 0
M  V30 7333 O 683.079 1.09194 -1.35729 0
M  V30 7334 C 680.211 2.04806 -2.7252 0
M  V30 7335 H 681.404 0.259021 -2.98779 0
M  V30 7336 H 678.957 0.097588 -1.55995 0
M  V30 7337 H 679.692 2.60445 -1.93233 0
M  V30 7338 H 679.477 1.77044 -3.49854 0
M  V30 7339 H 680.967 2.70771 -3.1792 0
M  V30 7340 N 681.404 1.57128 0.121893 0
M  V30 7341 C 682.652 1.84335 0.828548 0
M  V30 7342 C 682.973 0.736632 1.80551 0
M  V30 7343 O 682.243 -0.23962 1.94429 0
M  V30 7344 H 680.823 0.680108 0.30897 0
M  V30 7345 H 683.485 1.9459 0.109906 0
M  V30 7346 H 682.581 2.80152 1.37554 0
M  V30 7347 N 682.882 -0.391992 1.52647 0
M  V30 7348 C 684.129 -1.13732 1.67545 0
M  V30 7349 C 684.457 -1.90045 0.413881 0
M  V30 7350 O 683.712 -1.86157 -0.603646 0
M  V30 7351 C 684.011 -2.14401 2.85949 0
M  V30 7352 C 683.677 -1.54767 4.23507 0
M  V30 7353 C 682.339 -1.38229 4.60919 0
M  V30 7354 C 684.691 -1.11382 5.0916 0
M  V30 7355 C 682.019 -0.7685 5.81645 0
M  V30 7356 C 684.371 -0.514143 6.30507 0
M  V30 7357 C 683.035 -0.33604 6.66654 0
M  V30 7358 H 682.305 -0.416174 0.613091 0
M  V30 7359 H 684.952 -0.422327 1.86785 0
M  V30 7360 H 683.257 -2.92108 2.61114 0
M  V30 7361 H 684.954 -2.71974 2.94671 0
M  V30 7362 H 681.544 -1.68626 3.94035 0
M  V30 7363 H 685.728 -1.22962 4.80826 0
M  V30 7364 H 680.984 -0.618681 6.08262 0
M  V30 7365 H 685.158 -0.169657 6.96193 0
M  V30 7366 H 682.785 0.14166 7.60068 0
M  V30 7367 N 684.36 -1.4356 -0.65026 0
M  V30 7368 C 685.27 -1.514 -1.79207 0
M  V30 7369 C 686.286 -0.400895 -1.69319 0
M  V30 7370 O 687.462 -0.655458 -1.90436 0
M  V30 7371 C 684.527 -1.43737 -3.155 0
M  V30 7372 C 683.588 -2.65743 -3.37163 0
M  V30 7373 C 682.821 -2.58436 -4.66954 0
M  V30 7374 O 683.044 -1.63374 -5.46503 0
M  V30 7375 O 681.978 -3.48984 -4.90402 0
M  V30 7376 H 685.804 -2.47825 -1.75547 0
M  V30 7377 H 683.389 -1.25594 -0.809111 0
M  V30 7378 H 685.271 -1.41916 -3.96784 0
M  V30 7379 H 683.946 -0.504488 -3.19745 0
M  V30 7380 H 682.853 -2.73136 -2.55632 0
M  V30 7381 H 684.186 -3.58014 -3.37768 0
M  V30 7382 N 685.838 0.888903 -1.30139 0
M  V30 7383 C 687.087 1.63507 -1.18103 0
M  V30 7384 C 687.4 1.93808 0.264141 0
M  V30 7385 O 688.606 2.66744 0.505966 0
M  V30 7386 C 687.062 2.94673 -2.0663 0
M  V30 7387 C 686.67 2.71926 -3.56034 0
M  V30 7388 C 688.414 3.72626 -2.03346 0
M  V30 7389 C 686.321 3.98884 -4.3663 0
M  V30 7390 H 685.251 0.613426 -0.438435 0
M  V30 7391 H 687.902 0.984427 -1.54859 0
M  V30 7392 H 686.284 3.61009 -1.62754 0
M  V30 7393 H 687.458 2.14116 -4.08033 0
M  V30 7394 H 685.773 2.07353 -3.61101 0
M  V30 7395 H 688.37 4.66775 -2.60816 0
M  V30 7396 H 688.713 4.03712 -1.016 0
M  V30 7397 H 689.246 3.13147 -2.45324 0
M  V30 7398 H 685.985 3.72959 -5.39056 0
M  V30 7399 H 685.505 4.56214 -3.89396 0
M  V30 7400 H 687.184 4.66938 -4.47859 0
M  V30 7401 N 687.317 1.12792 1.10072 0
M  V30 7402 C 688.564 0.885545 1.82111 0
M  V30 7403 C 688.892 -0.588519 1.85383 0
M  V30 7404 O 688.147 -1.45124 1.31292 0
M  V30 7405 C 688.446 1.4102 3.28403 0
M  V30 7406 C 688.112 2.89995 3.45273 0
M  V30 7407 C 686.774 3.30671 3.49585 0
M  V30 7408 C 689.126 3.85874 3.50358 0
M  V30 7409 C 686.454 4.65925 3.56553 0
M  V30 7410 C 688.806 5.20963 3.58859 0
M  V30 7411 C 687.47 5.61177 3.61437 0
M  V30 7412 H 686.74 0.324044 0.666391 0
M  V30 7413 H 689.387 1.40874 1.29718 0
M  V30 7414 H 687.692 0.807551 3.83387 0
M  V30 7415 H 689.389 1.19882 3.82661 0
M  V30 7416 H 685.979 2.57537 3.42597 0
M  V30 7417 H 690.163 3.5554 3.46273 0
M  V30 7418 H 685.419 4.96468 3.56833 0
M  V30 7419 H 689.593 5.95079 3.61738 0
M  V30 7420 H 687.22 6.6597 3.66589 0
M  V30 7421 N 688.795 -1.27931 0.920396 0
M  V30 7422 C 689.705 -2.30824 0.419212 0
M  V30 7423 C 690.721 -1.66767 -0.496461 0
M  V30 7424 O 691.897 -1.97763 -0.38104 0
M  V30 7425 C 688.962 -3.45158 -0.326601 0
M  V30 7426 C 688.023 -4.24754 0.623098 0
M  V30 7427 C 687.256 -5.33629 -0.0872172 0
M  V30 7428 O 687.479 -5.55204 -1.30784 0
M  V30 7429 O 686.413 -5.99091 0.580875 0
M  V30 7430 H 690.239 -2.75716 1.27337 0
M  V30 7431 H 687.824 -1.32747 0.685465 0
M  V30 7432 H 689.706 -4.14716 -0.747559 0
M  V30 7433 H 688.381 -3.02336 -1.15648 0
M  V30 7434 H 687.288 -3.57759 1.09359 0
M  V30 7435 H 688.621 -4.71272 1.41998 0
M  V30 7436 N 690.273 -0.685099 -1.4193 0
M  V30 7437 C 691.519 -0.211971 -2.01689 0
M  V30 7438 C 691.852 1.18189 -1.54094 0
M  V30 7439 O 691.127 1.79559 -0.747572 0
M  V30 7440 C 691.41 -0.258019 -3.59174 0
M  V30 7441 C 691.263 -1.68807 -4.16922 0
M  V30 7442 C 692.582 0.388044 -4.38386 0
M  V30 7443 H 689.701 -0.0784987 -0.732808 0
M  V30 7444 H 692.343 -0.871837 -1.68816 0
M  V30 7445 H 690.493 0.303832 -3.8731 0
M  V30 7446 H 692.165 -2.30296 -3.99702 0
M  V30 7447 H 690.408 -2.22553 -3.72361 0
M  V30 7448 H 691.079 -1.6719 -5.26072 0
M  V30 7449 H 693.555 -0.0903432 -4.16002 0
M  V30 7450 H 692.431 0.325232 -5.47936 0
M  V30 7451 H 692.692 1.4672 -4.17044 0
M  V30 7452 N 691.751 1.51645 -0.429126 0
M  V30 7453 C 692.699 2.29119 0.400921 0
M  V30 7454 C 693.693 1.34628 1.02819 0
M  V30 7455 O 694.899 1.52004 0.964098 0
M  V30 7456 H 691.274 0.737273 0.148095 0
M  V30 7457 H 693.245 2.97144 -0.273457 0
M  V30 7458 C 691.994 3.13953 1.49429 0
M  V30 7459 H 691.317 3.86544 1.02097 0
M  V30 7460 H 692.757 3.71232 2.04849 0
M  V30 7461 C 691.216 2.28796 2.47293 0
M  V30 7462 O 691.746 1.94193 3.51642 0
M  V30 7463 N 689.952 1.92177 2.17982 0
M  V30 7464 H 689.499 2.20517 1.33154 0
M  V30 7465 H 689.457 1.35497 2.83704 0
M  V30 7466 N 693.229 0.160201 1.56784 0
M  V30 7467 C 694.454 -0.497373 2.01348 0
M  V30 7468 C 694.879 -1.56757 1.03966 0
M  V30 7469 O 694.237 -1.81292 0.0174455 0
M  V30 7470 C 694.285 -1.0628 3.44582 0
M  V30 7471 O 693.389 -2.17723 3.50244 0
M  V30 7472 H 692.73 -0.120295 0.653012 0
M  V30 7473 H 695.26 0.260821 2.02931 0
M  V30 7474 H 695.27 -1.38819 3.83658 0
M  V30 7475 H 693.945 -0.279166 4.14962 0
M  V30 7476 H 692.522 -1.86313 3.2302 0
M  V30 7477 N 694.707 -1.5719 -0.113559 0
M  V30 7478 C 695.954 -1.85138 -0.820382 0
M  V30 7479 C 696.282 -0.74608 -1.79622 0
M  V30 7480 O 695.537 0.262077 -1.93937 0
M  V30 7481 C 695.836 -3.19593 -1.59984 0
M  V30 7482 C 695.502 -4.44315 -0.767809 0
M  V30 7483 C 694.164 -4.78179 -0.538379 0
M  V30 7484 C 696.516 -5.2086 -0.188203 0
M  V30 7485 C 693.844 -5.86028 0.28082 0
M  V30 7486 C 696.196 -6.29572 0.618217 0
M  V30 7487 C 694.86 -6.61964 0.857912 0
M  V30 7488 H 694.13 -0.677467 -0.300199 0
M  V30 7489 H 696.777 -1.91322 -0.0825443 0
M  V30 7490 H 695.082 -3.0901 -2.40874 0
M  V30 7491 H 696.779 -3.3844 -2.1508 0
M  V30 7492 H 693.369 -4.17786 -0.956724 0
M  V30 7493 H 697.553 -4.95045 -0.352658 0
M  V30 7494 H 692.809 -6.09547 0.475693 0
M  V30 7495 H 696.983 -6.88064 1.0743 0
M  V30 7496 H 694.61 -7.45365 1.49451 0
M  V30 7497 N 696.185 0.383891 -1.52853 0
M  V30 7498 C 697.095 1.49343 -1.80925 0
M  V30 7499 C 698.111 1.59458 -0.696348 0
M  V30 7500 O 699.287 1.75698 -0.984481 0
M  V30 7501 C 696.352 2.84819 -1.97684 0
M  V30 7502 C 695.413 2.84382 -3.21598 0
M  V30 7503 C 694.646 4.13397 -3.37548 0
M  V30 7504 O 694.869 5.08619 -2.58192 0
M  V30 7505 O 693.803 4.20325 -4.30826 0
M  V30 7506 H 697.629 1.2855 -2.75152 0
M  V30 7507 H 695.214 0.572229 -1.38007 0
M  V30 7508 H 697.096 3.65125 -2.10385 0
M  V30 7509 H 695.771 3.05627 -1.06647 0
M  V30 7510 H 694.678 2.0284 -3.14336 0
M  V30 7511 H 696.011 2.68526 -4.12498 0
M  V30 7512 N 697.663 1.43903 0.642637 0
M  V30 7513 C 698.595 1.45857 1.768 0
M  V30 7514 C 699.608 0.353358 1.58919 0
M  V30 7515 O 700.797 0.618426 1.67445 0
M  V30 7516 C 697.897 1.26583 3.14372 0
M  V30 7517 C 697.07 2.50139 3.58817 0
M  V30 7518 C 696.129 2.25933 4.75227 0
M  V30 7519 O 695.155 2.99351 4.84125 0
M  V30 7520 N 696.357 1.28263 5.66153 0
M  V30 7521 H 699.122 2.42869 1.75598 0
M  V30 7522 H 696.683 1.39194 0.826832 0
M  V30 7523 H 698.675 1.08255 3.89953 0
M  V30 7524 H 697.245 0.37978 3.10284 0
M  V30 7525 H 696.465 2.83821 2.73568 0
M  V30 7526 H 697.753 3.32344 3.8526 0
M  V30 7527 H 697.151 0.676041 5.61646 0
M  V30 7528 H 695.708 1.15916 6.4141 0
M  V30 7529 N 699.141 -0.881989 1.30609 0
M  V30 7530 C 700.071 -2.00413 1.1982 0
M  V30 7531 C 701.052 -1.69871 0.0881538 0
M  V30 7532 O 702.237 -1.92304 0.2707 0
M  V30 7533 C 699.367 -3.35641 0.89233 0
M  V30 7534 C 698.321 -3.80451 1.96064 0
M  V30 7535 C 697.647 -5.13003 1.5077 0
M  V30 7536 C 698.947 -3.98855 3.37213 0
M  V30 7537 H 700.641 -2.09698 2.13699 0
M  V30 7538 H 698.187 -1.00754 1.02882 0
M  V30 7539 H 700.14 -4.13669 0.803497 0
M  V30 7540 H 698.864 -3.26497 -0.0821381 0
M  V30 7541 H 697.523 -3.04654 2.03916 0
M  V30 7542 H 697.171 -5.0029 0.521417 0
M  V30 7543 H 696.871 -5.43956 2.22229 0
M  V30 7544 H 698.395 -5.93554 1.43271 0
M  V30 7545 H 699.809 -4.67312 3.32103 0
M  V30 7546 H 698.206 -4.41188 4.06784 0
M  V30 7547 H 699.276 -3.02614 3.78883 0
M  V30 7548 N 700.619 -1.13374 -1.09472 0
M  V30 7549 C 701.859 -0.905422 -1.83252 0
M  V30 7550 C 702.223 0.558396 -1.83701 0
M  V30 7551 O 703.424 0.904254 -2.53134 0
M  V30 7552 C 701.695 -1.47658 -3.25472 0
M  V30 7553 S 703.254 -1.38825 -4.16261 0
M  V30 7554 H 700.072 -0.326371 -0.631667 0
M  V30 7555 H 702.674 -1.44517 -1.31663 0
M  V30 7556 H 701.378 -2.53533 -3.22722 0
M  V30 7557 H 700.909 -0.934756 -3.82133 0
M  V30 7558 H 702.924 -0.366379 -4.94846 0
M  V30 7559 N 702.098 1.27442 -0.927168 0
M  V30 7560 C 703.347 1.93679 -0.563146 0
M  V30 7561 C 703.66 1.73673 0.899837 0
M  V30 7562 O 704.866 2.34247 1.37262 0
M  V30 7563 C 703.322 3.46961 -0.95636 0
M  V30 7564 C 702.93 3.75724 -2.43999 0
M  V30 7565 C 704.674 4.19282 -0.663565 0
M  V30 7566 C 702.581 5.22378 -2.77263 0
M  V30 7567 H 701.511 0.725059 -0.206894 0
M  V30 7568 H 704.162 1.44743 -1.12791 0
M  V30 7569 H 702.544 3.94703 -0.320254 0
M  V30 7570 H 703.718 3.38741 -3.12396 0
M  V30 7571 H 702.033 3.16605 -2.70463 0
M  V30 7572 H 704.63 5.27265 -0.888596 0
M  V30 7573 H 704.973 4.14382 0.399198 0
M  V30 7574 H 705.506 3.7736 -1.25875 0
M  V30 7575 H 702.245 5.32367 -3.82446 0
M  V30 7576 H 701.765 5.6051 -2.13516 0
M  V30 7577 H 703.444 5.9025 -2.64979 0
M  V30 7578 N 703.576 0.692616 1.41565 0
M  V30 7579 C 704.524 0.0139952 2.32596 0
M  V30 7580 C 705.518 -0.771691 1.50802 0
M  V30 7581 O 706.724 -0.677646 1.66757 0
M  V30 7582 H 703.099 -0.0142745 0.751865 0
M  V30 7583 H 705.07 0.798851 2.87508 0
M  V30 7584 C 703.819 -0.910602 3.35564 0
M  V30 7585 H 703.142 -0.315446 3.98554 0
M  V30 7586 H 704.582 -1.3538 4.01806 0
M  V30 7587 C 703.041 -2.02539 2.6922 0
M  V30 7588 O 703.571 -3.11386 2.53775 0
M  V30 7589 N 701.777 -1.80227 2.27962 0
M  V30 7590 H 701.324 -0.917054 2.40724 0
M  V30 7591 H 701.282 -2.55001 1.83907 0
M  V30 7592 N 705.054 -1.51416 0.437162 0
M  V30 7593 C 706.284 -2.06204 -0.127859 0
M  V30 7594 C 706.692 -1.30463 -1.37026 0
M  V30 7595 O 706.035 -0.357516 -1.80187 0
M  V30 7596 C 706.097 -3.55783 -0.515632 0
M  V30 7597 C 705.761 -4.52776 0.619937 0
M  V30 7598 C 706.758 -4.98031 1.49201 0
M  V30 7599 C 704.443 -4.95878 0.800618 0
M  V30 7600 C 706.437 -5.85061 2.52947 0
M  V30 7601 C 704.124 -5.82699 1.84135 0
M  V30 7602 C 705.122 -6.27188 2.70416 0
M  V30 7603 O 704.81 -7.12284 3.72702 0
M  V30 7604 H 704.542 -0.675903 -0.011442 0
M  V30 7605 H 707.096 -1.95977 0.614986 0
M  V30 7606 H 705.326 -3.63793 -1.31118 0
M  V30 7607 H 707.015 -3.93087 -1.01179 0
M  V30 7608 H 707.781 -4.65426 1.36395 0
M  V30 7609 H 703.66 -4.60792 0.138617 0
M  V30 7610 H 707.204 -6.19708 3.20325 0
M  V30 7611 H 703.101 -6.14717 1.9696 0
M  V30 7612 H 703.869 -7.30462 3.69281 0
M  V30 7613 N 706.532 -0.168513 -1.56696 0
M  V30 7614 C 707.76 0.483503 -2.01171 0
M  V30 7615 C 708.175 1.56994 -1.04872 0
M  V30 7616 O 707.532 1.82434 -0.0491337 0
M  V30 7617 C 707.583 1.0644 -3.45475 0
M  V30 7618 O 707.304 0.0213375 -4.38095 0
M  V30 7619 C 708.805 1.79493 -4.05336 0
M  V30 7620 H 706.025 0.124002 -0.659443 0
M  V30 7621 H 708.569 -0.269419 -2.02717 0
M  V30 7622 H 706.724 1.76784 -3.44712 0
M  V30 7623 H 707.138 0.449837 -5.22567 0
M  V30 7624 H 708.612 2.15401 -5.08238 0
M  V30 7625 H 709.089 2.68889 -3.47269 0
M  V30 7626 H 709.695 1.13798 -4.09793 0
M  V30 7627 N 708.01 1.57248 0.105221 0
M  V30 7628 C 708.958 2.02337 1.14728 0
M  V30 7629 C 709.952 0.922652 1.42069 0
M  V30 7630 O 711.158 1.10785 1.41869 0
M  V30 7631 H 707.533 0.644682 0.387155 0
M  V30 7632 H 709.504 2.89063 0.740607 0
M  V30 7633 C 708.253 2.45513 2.46209 0
M  V30 7634 H 707.576 3.29785 2.26013 0
M  V30 7635 H 709.016 2.80846 3.1765 0
M  V30 7636 C 707.475 1.3243 3.09781 0
M  V30 7637 O 708.005 0.647841 3.96442 0
M  V30 7638 N 706.211 1.07785 2.69872 0
M  V30 7639 H 705.758 1.62973 1.99493 0
M  V30 7640 H 705.716 0.323204 3.12734 0
M  V30 7641 N 709.488 -0.375779 1.53054 0
M  V30 7642 C 710.398 -1.48381 1.81715 0
M  V30 7643 C 711.414 -1.59087 0.704795 0
M  V30 7644 O 712.59 -1.75174 0.993785 0
M  V30 7645 C 709.655 -2.83767 1.99192 0
M  V30 7646 C 708.716 -2.82673 3.23102 0
M  V30 7647 C 707.949 -4.11601 3.39736 0
M  V30 7648 O 708.172 -5.07243 2.60885 0
M  V30 7649 O 707.106 -4.18034 4.33049 0
M  V30 7650 H 710.932 -1.27089 2.7583 0
M  V30 7651 H 708.517 -0.564902 1.38308 0
M  V30 7652 H 710.399 -3.64004 2.12318 0
M  V30 7653 H 709.074 -3.05057 1.08267 0
M  V30 7654 H 707.981 -2.0117 3.15407 0
M  V30 7655 H 709.314 -2.66335 4.13916 0
M  V30 7656 N 710.966 -1.44241 -0.634997 0
M  V30 7657 C 711.913 -1.5081 -1.74714 0
M  V30 7658 C 712.883 -0.356147 -1.62237 0
M  V30 7659 O 714.068 -0.565848 -1.82216 0
M  V30 7660 C 711.208 -1.45458 -3.12947 0
M  V30 7661 C 710.321 -2.70998 -3.36428 0
M  V30 7662 C 709.456 -2.57507 -4.64611 0
M  V30 7663 C 708.495 -3.78229 -4.81258 0
M  V30 7664 N 707.632 -3.63438 -6.00714 0
M  V30 7665 H 712.472 -2.45832 -1.68436 0
M  V30 7666 H 710.009 -1.2201 -0.821706 0
M  V30 7667 H 711.967 -1.40347 -3.92885 0
M  V30 7668 H 710.597 -0.540058 -3.1825 0
M  V30 7669 H 709.649 -2.86312 -2.50458 0
M  V30 7670 H 710.961 -3.60619 -3.44609 0
M  V30 7671 H 710.115 -2.50207 -5.52703 0
M  V30 7672 H 708.854 -1.65441 -4.58782 0
M  V30 7673 H 707.859 -3.85918 -3.91596 0
M  V30 7674 H 709.084 -4.71327 -4.88904 0
M  V30 7675 H 707.03 -2.7412 -5.95982 0
M  V30 7676 H 706.947 -4.46672 -6.09934 0
M  V30 7677 H 708.215 -3.60022 -6.91378 0
M  V30 7678 N 712.444 0.87505 -1.31075 0
M  V30 7679 C 713.374 1.99775 -1.20881 0
M  V30 7680 C 714.355 1.69822 -0.0971612 0
M  V30 7681 O 715.54 1.92158 -0.280895 0
M  V30 7682 C 712.67 3.35163 -0.910118 0
M  V30 7683 C 711.624 3.79406 -1.98078 0
M  V30 7684 C 710.95 5.12197 -1.53488 0
M  V30 7685 C 712.25 3.97061 -3.39323 0
M  V30 7686 H 713.944 2.08562 -2.14808 0
M  V30 7687 H 711.49 1.00207 -1.03415 0
M  V30 7688 H 713.443 4.13237 -0.825423 0
M  V30 7689 H 712.167 3.26536 0.064822 0
M  V30 7690 H 710.826 3.03568 -2.05528 0
M  V30 7691 H 710.474 5.00007 -0.547941 0
M  V30 7692 H 710.174 5.4277 -2.2511 0
M  V30 7693 H 711.698 5.92785 -1.46417 0
M  V30 7694 H 713.112 4.65545 -3.34576 0
M  V30 7695 H 711.509 4.39025 -4.09118 0
M  V30 7696 H 712.579 3.00601 -3.80483 0
M  V30 7697 N 713.922 1.13953 1.08869 0
M  V30 7698 C 714.854 0.779906 2.15523 0
M  V30 7699 C 715.867 -0.20102 1.61554 0
M  V30 7700 O 717.056 0.0200049 1.78489 0
M  V30 7701 C 714.156 0.136226 3.38626 0
M  V30 7702 C 713.329 1.15069 4.21993 0
M  V30 7703 C 712.388 0.531645 5.23507 0
M  V30 7704 O 711.414 1.19327 5.56552 0
M  V30 7705 N 712.616 -0.693734 5.7634 0
M  V30 7706 H 715.381 1.69769 2.46979 0
M  V30 7707 H 712.942 1.03331 1.24637 0
M  V30 7708 H 714.934 -0.290295 4.03658 0
M  V30 7709 H 713.504 -0.684603 3.05011 0
M  V30 7710 H 712.724 1.75431 3.53012 0
M  V30 7711 H 714.012 1.83614 4.74514 0
M  V30 7712 H 713.41 -1.24994 5.51718 0
M  V30 7713 H 711.967 -1.06283 6.43076 0
M  V30 7714 N 715.4 -1.26948 0.933913 0
M  V30 7715 C 716.332 -2.25768 0.395137 0
M  V30 7716 C 717.345 -1.55637 -0.477585 0
M  V30 7717 O 718.534 -1.76142 -0.289204 0
M  V30 7718 C 715.634 -3.35874 -0.451882 0
M  V30 7719 C 714.807 -4.3554 0.40299 0
M  V30 7720 C 713.866 -5.24809 -0.3824 0
M  V30 7721 O 712.892 -5.68805 0.212057 0
M  V30 7722 N 714.094 -5.55636 -1.68072 0
M  V30 7723 H 716.859 -2.72634 1.24463 0
M  V30 7724 H 714.42 -1.40639 0.802008 0
M  V30 7725 H 716.412 -3.92542 -0.984516 0
M  V30 7726 H 714.982 -2.8856 -1.20215 0
M  V30 7727 H 714.202 -3.78047 1.11688 0
M  V30 7728 H 715.49 -4.99131 0.987201 0
M  V30 7729 H 714.888 -5.2176 -2.18592 0
M  V30 7730 H 713.445 -6.14978 -2.15975 0
M  V30 7731 N 716.879 -0.700114 -1.41195 0
M  V30 7732 C 717.809 -0.0521132 -2.33442 0
M  V30 7733 C 718.79 0.76228 -1.52063 0
M  V30 7734 O 719.975 0.714336 -1.80585 0
M  V30 7735 C 717.105 0.881693 -3.35922 0
M  V30 7736 C 716.059 0.174062 -4.27646 0
M  V30 7737 C 715.385 1.22254 -5.20536 0
M  V30 7738 C 716.685 -0.962396 -5.13357 0
M  V30 7739 H 718.379 -0.822574 -2.87879 0
M  V30 7740 H 715.925 -0.397011 -1.38419 0
M  V30 7741 H 717.878 1.34429 -3.99383 0
M  V30 7742 H 716.602 1.68387 -2.79845 0
M  V30 7743 H 715.261 -0.268551 -3.65615 0
M  V30 7744 H 714.909 2.01736 -4.60773 0
M  V30 7745 H 714.609 0.754038 -5.82742 0
M  V30 7746 H 716.133 1.68555 -5.86874 0
M  V30 7747 H 717.547 -0.579875 -5.7036 0
M  V30 7748 H 715.944 -1.35828 -5.84526 0
M  V30 7749 H 717.014 -1.80003 -4.50252 0
M  V30 7750 N 718.357 1.51182 -0.445186 0
M  V30 7751 C 719.604 2.02152 0.118645 0
M  V30 7752 C 719.932 1.32888 1.42025 0
M  V30 7753 O 719.187 0.435041 1.90803 0
M  V30 7754 C 719.486 3.55408 0.376797 0
M  V30 7755 C 719.152 4.43008 -0.839945 0
M  V30 7756 C 717.814 4.66669 -1.17361 0
M  V30 7757 C 720.166 4.9435 -1.65127 0
M  V30 7758 C 717.494 5.38919 -2.31913 0
M  V30 7759 C 719.846 5.67857 -2.78786 0
M  V30 7760 C 718.51 5.89779 -3.12597 0
M  V30 7761 H 717.78 0.739727 0.0434152 0
M  V30 7762 H 720.427 1.82055 -0.593984 0
M  V30 7763 H 718.732 3.73879 1.1714 0
M  V30 7764 H 720.429 3.92388 0.826602 0
M  V30 7765 H 717.019 4.24793 -0.569958 0
M  V30 7766 H 721.203 4.75947 -1.4067 0
M  V30 7767 H 716.459 5.54105 -2.58413 0
M  V30 7768 H 720.633 6.06628 -3.42017 0
M  V30 7769 H 718.26 6.45542 -4.01471 0
M  V30 7770 N 719.835 0.176821 1.56605 0
M  V30 7771 C 720.783 -0.768159 2.1955 0
M  V30 7772 C 721.777 -1.23343 1.16116 0
M  V30 7773 O 722.983 -1.19844 1.34303 0
M  V30 7774 H 719.358 -0.266013 0.703378 0
M  V30 7775 H 721.329 -0.213374 2.97636 0
M  V30 7776 C 720.078 -1.98492 2.85475 0
M  V30 7777 H 719.401 -1.63595 3.64797 0
M  V30 7778 H 720.841 -2.62489 3.3298 0
M  V30 7779 C 719.3 -2.81207 1.85538 0
M  V30 7780 O 719.83 -3.7854 1.34427 0
M  V30 7781 N 718.036 -2.46331 1.54173 0
M  V30 7782 H 717.583 -1.67241 1.95929 0
M  V30 7783 H 717.541 -3.01961 0.875595 0
M  V30 7784 N 721.313 -1.57302 -0.09688 0
M  V30 7785 C 722.263 -1.98369 -1.12399 0
M  V30 7786 C 723.247 -0.861872 -1.3587 0
M  V30 7787 O 724.439 -1.1257 -1.36591 0
M  V30 7788 C 721.568 -2.41017 -2.4447 0
M  V30 7789 C 720.654 -3.59881 -2.24381 0
M  V30 7790 N 721.045 -4.74872 -1.74155 0
M  V30 7791 C 719.343 -3.65943 -2.54954 0
M  V30 7792 C 720.044 -5.56823 -1.68294 0
M  V30 7793 N 719.02 -4.99942 -2.13444 0
M  V30 7794 H 722.822 -2.84726 -0.728575 0
M  V30 7795 H 720.336 -1.59523 -0.304332 0
M  V30 7796 H 722.333 -2.68665 -3.18786 0
M  V30 7797 H 720.993 -1.56036 -2.84751 0
M  V30 7798 H 722.004 -4.97657 -1.43379 0
M  V30 7799 H 718.681 -2.9162 -2.98771 0
M  V30 7800 H 720.071 -6.59099 -1.30528 0
M  V30 7801 N 722.791 0.367657 -1.53252 0
M  V30 7802 C 724.019 1.13119 -1.73239 0
M  V30 7803 C 724.434 1.831 -0.460404 0
M  V30 7804 O 723.791 1.73483 0.566557 0
M  V30 7805 C 723.842 2.16308 -2.89643 0
M  V30 7806 O 723.563 1.49175 -4.1192 0
M  V30 7807 C 725.064 3.05224 -3.21486 0
M  V30 7808 H 722.284 0.338318 -0.579467 0
M  V30 7809 H 724.828 0.42721 -1.99988 0
M  V30 7810 H 722.983 2.82307 -2.65295 0
M  V30 7811 H 723.397 2.17912 -4.7709 0
M  V30 7812 H 724.871 3.73613 -4.06346 0
M  V30 7813 H 725.348 3.69919 -2.36763 0
M  V30 7814 H 725.954 2.44843 -3.47753 0
M  V30 7815 N 724.269 1.44576 0.627338 0
M  V30 7816 C 725.202 1.46206 1.75212 0
M  V30 7817 C 726.18 0.320483 1.5941 0
M  V30 7818 O 727.364 0.518028 1.81242 0
M  V30 7819 C 724.491 1.29834 3.12827 0
M  V30 7820 C 723.537 2.47603 3.47268 0
M  V30 7821 S 724.37 4.10125 3.44322 0
M  V30 7822 C 725.526 3.96183 4.84551 0
M  V30 7823 H 725.759 2.41378 1.73563 0
M  V30 7824 H 723.292 1.3192 0.802283 0
M  V30 7825 H 725.25 1.21075 3.92239 0
M  V30 7826 H 723.911 0.361662 3.12011 0
M  V30 7827 H 723.104 2.3202 4.47418 0
M  V30 7828 H 722.706 2.53121 2.75329 0
M  V30 7829 H 724.998 3.60107 5.73872 0
M  V30 7830 H 725.941 4.96176 5.05188 0
M  V30 7831 H 726.349 3.28177 4.59304 0
M  V30 7832 N 725.747 -0.868086 1.31537 0
M  V30 7833 C 726.994 -1.62127 1.2133 0
M  V30 7834 C 727.322 -1.93158 -0.2281 0
M  V30 7835 O 726.577 -1.5632 -1.1774 0
M  V30 7836 C 726.876 -2.95889 2.0046 0
M  V30 7837 C 726.542 -2.84343 3.49943 0
M  V30 7838 C 725.204 -2.80901 3.90702 0
M  V30 7839 C 727.556 -2.71243 4.45058 0
M  V30 7840 C 724.884 -2.6222 5.24841 0
M  V30 7841 C 727.236 -2.54098 5.79325 0
M  V30 7842 C 725.9 -2.4904 6.19302 0
M  V30 7843 H 725.17 -0.593265 0.443979 0
M  V30 7844 H 727.817 -1.00803 1.62822 0
M  V30 7845 H 726.122 -3.61259 1.51655 0
M  V30 7846 H 727.819 -3.53161 1.89942 0
M  V30 7847 H 724.409 -2.8784 3.17563 0
M  V30 7848 H 728.593 -2.72956 4.14498 0
M  V30 7849 H 723.849 -2.56731 5.54887 0
M  V30 7850 H 728.023 -2.42938 6.52652 0
M  V30 7851 H 725.65 -2.34324 7.23185 0
M  V30 7852 N 727.225 -1.14528 -1.08264 0
M  V30 7853 C 728.474 -0.908992 -1.80056 0
M  V30 7854 C 728.787 0.565859 -1.87236 0
M  V30 7855 O 729.993 0.919454 -2.55457 0
M  V30 7856 C 728.449 -1.57681 -3.23519 0
M  V30 7857 C 728.057 -3.08803 -3.24569 0
M  V30 7858 C 729.801 -1.4217 -3.99985 0
M  V30 7859 C 727.708 -3.68414 -4.62629 0
M  V30 7860 H 726.638 -0.336432 -0.674781 0
M  V30 7861 H 729.289 -1.37437 -1.21587 0
M  V30 7862 H 727.671 -1.03911 -3.82124 0
M  V30 7863 H 728.845 -3.69252 -2.75663 0
M  V30 7864 H 727.16 -3.23968 -2.61598 0
M  V30 7865 H 729.757 -1.84106 -5.02005 0
M  V30 7866 H 730.1 -0.367989 -4.1467 0
M  V30 7867 H 730.633 -1.92984 -3.47853 0
M  V30 7868 H 727.372 -4.73644 -4.53147 0
M  V30 7869 H 726.892 -3.12746 -5.11811 0
M  V30 7870 H 728.571 -3.68793 -5.31602 0
M  V30 7871 N 728.703 1.26451 -0.940633 0
M  V30 7872 C 729.633 2.28773 -0.467479 0
M  V30 7873 C 730.614 1.63218 0.478955 0
M  V30 7874 O 731.799 1.90427 0.380929 0
M  V30 7875 C 728.929 3.46259 0.268656 0
M  V30 7876 C 727.883 4.23898 -0.591171 0
M  V30 7877 C 727.209 5.33993 0.274891 0
M  V30 7878 C 728.509 4.87974 -1.86223 0
M  V30 7879 H 730.203 2.68601 -1.32265 0
M  V30 7880 H 727.749 1.29123 -0.637436 0
M  V30 7881 H 729.702 4.16951 0.610696 0
M  V30 7882 H 728.426 3.05383 1.15796 0
M  V30 7883 H 727.085 3.54969 -0.916098 0
M  V30 7884 H 726.733 4.89358 1.16353 0
M  V30 7885 H 726.433 5.86849 -0.297006 0
M  V30 7886 H 727.957 6.07523 0.612213 0
M  V30 7887 H 729.371 5.50883 -1.58747 0
M  V30 7888 H 727.768 5.50945 -2.37866 0
M  V30 7889 H 728.838 4.10945 -2.57394 0
M  V30 7890 N 730.181 0.707592 1.40822 0
M  V30 7891 C 731.091 0.0507246 2.34545 0
M  V30 7892 C 732.107 -0.752727 1.56876 0
M  V30 7893 O 733.283 -0.687524 1.89302 0
M  V30 7894 C 730.348 -0.865731 3.35717 0
M  V30 7895 C 729.409 -0.0531313 4.29267 0
M  V30 7896 C 728.642 -0.925939 5.25606 0
M  V30 7897 O 728.865 -2.16531 5.27703 0
M  V30 7898 O 727.799 -0.369194 6.00767 0
M  V30 7899 H 731.625 0.823587 2.9232 0
M  V30 7900 H 729.21 0.46801 1.4188 0
M  V30 7901 H 731.092 -1.39091 3.97783 0
M  V30 7902 H 729.767 -1.61788 2.80368 0
M  V30 7903 H 728.674 0.516931 3.70511 0
M  V30 7904 H 730.007 0.660617 4.87747 0
M  V30 7905 N 731.66 -1.50943 0.453197 0
M  V30 7906 C 732.592 -2.25922 -0.38623 0
M  V30 7907 C 733.605 -1.3055 -0.972652 0
M  V30 7908 O 734.794 -1.56191 -0.864097 0
M  V30 7909 C 731.894 -3.01176 -1.5539 0
M  V30 7910 C 731.067 -4.23768 -1.0835 0
M  V30 7911 C 730.126 -4.81466 -2.12313 0
M  V30 7912 O 729.152 -5.42875 -1.71101 0
M  V30 7913 N 730.354 -4.66889 -3.44956 0
M  V30 7914 H 733.119 -2.98601 0.256468 0
M  V30 7915 H 730.68 -1.59408 0.282965 0
M  V30 7916 H 732.672 -3.36659 -2.24594 0
M  V30 7917 H 731.242 -2.31409 -2.10163 0
M  V30 7918 H 730.462 -3.93597 -0.217961 0
M  V30 7919 H 731.75 -5.03289 -0.746857 0
M  V30 7920 H 731.148 -4.18011 -3.81161 0
M  V30 7921 H 729.705 -5.06691 -4.1001 0
M  V30 7922 N 733.138 -0.185124 -1.56509 0
M  V30 7923 C 734.048 0.751908 -2.22224 0
M  V30 7924 C 735.064 1.24244 -1.21817 0
M  V30 7925 O 736.24 1.29169 -1.54523 0
M  V30 7926 C 733.305 1.95837 -2.86092 0
M  V30 7927 C 732.366 1.51337 -4.01741 0
M  V30 7928 C 731.599 2.66233 -4.62554 0
M  V30 7929 O 731.822 3.8346 -4.22273 0
M  V30 7930 O 730.756 2.39517 -5.52191 0
M  V30 7931 H 734.582 0.222304 -3.02885 0
M  V30 7932 H 732.167 0.0437141 -1.49336 0
M  V30 7933 H 734.049 2.66368 -3.26536 0
M  V30 7934 H 732.724 2.47677 -2.08417 0
M  V30 7935 H 731.631 0.777155 -3.65939 0
M  V30 7936 H 732.964 1.04175 -4.81049 0
M  V30 7937 N 734.616 1.57351 0.0885366 0
M  V30 7938 C 735.526 2.05858 1.12516 0
M  V30 7939 C 736.542 0.984758 1.43452 0
M  V30 7940 O 737.718 1.29836 1.53963 0
M  V30 7941 C 734.783 2.47882 2.42395 0
M  V30 7942 C 733.844 3.69487 2.18582 0
M  V30 7943 C 733.077 4.09497 3.42268 0
M  V30 7944 O 733.3 3.49536 4.50755 0
M  V30 7945 O 732.234 5.02406 3.31469 0
M  V30 7946 H 736.06 2.94467 0.743146 0
M  V30 7947 H 733.645 1.46326 0.301507 0
M  V30 7948 H 735.527 2.75509 3.18862 0
M  V30 7949 H 734.202 1.62408 2.8001 0
M  V30 7950 H 733.109 3.46967 1.39875 0
M  V30 7951 H 734.442 4.55761 1.85857 0
M  V30 7952 N 736.094 -0.359525 1.53444 0
M  V30 7953 C 737.324 -1.12036 1.73585 0
M  V30 7954 C 737.732 -1.83335 0.467438 0
M  V30 7955 O 737.075 -1.74641 -0.569753 0
M  V30 7956 C 737.137 -2.19036 2.85068 0
M  V30 7957 C 736.801 -1.67451 4.25217 0
M  V30 7958 C 737.798 -1.13534 5.07352 0
M  V30 7959 C 735.483 -1.72781 4.71648 0
M  V30 7960 C 737.477 -0.656321 6.34012 0
M  V30 7961 C 735.164 -1.2449 5.98285 0
M  V30 7962 C 736.162 -0.710068 6.79299 0
M  V30 7963 O 735.85 -0.234314 8.03558 0
M  V30 7964 H 735.582 -0.340662 0.583888 0
M  V30 7965 H 738.136 -0.422452 2.01009 0
M  V30 7966 H 736.366 -2.92338 2.53131 0
M  V30 7967 H 738.055 -2.80559 2.93328 0
M  V30 7968 H 738.821 -1.08751 4.7265 0
M  V30 7969 H 734.7 -2.13351 4.08659 0
M  V30 7970 H 738.244 -0.238193 6.97193 0
M  V30 7971 H 734.141 -1.28969 6.32485 0
M  V30 7972 H 734.909 -0.353084 8.17738 0
M  V30 7973 N 737.572 -1.44907 -0.619662 0
M  V30 7974 C 738.504 -1.48652 -1.74457 0
M  V30 7975 C 739.517 -0.378596 -1.58337 0
M  V30 7976 O 740.706 -0.644987 -1.6644 0
M  V30 7977 C 737.806 -1.31568 -3.12319 0
M  V30 7978 C 736.979 -2.55816 -3.54792 0
M  V30 7979 C 736.038 -2.33465 -4.71573 0
M  V30 7980 O 735.064 -3.07015 -4.79302 0
M  V30 7981 N 736.266 -1.37254 -5.6404 0
M  V30 7982 H 739.031 -2.45632 -1.71712 0
M  V30 7983 H 736.592 -1.40492 -0.804582 0
M  V30 7984 H 738.584 -1.14445 -3.88181 0
M  V30 7985 H 737.154 -0.429095 -3.09641 0
M  V30 7986 H 736.374 -2.88137 -2.69018 0
M  V30 7987 H 737.662 -3.38431 -3.79924 0
M  V30 7988 H 737.06 -0.765309 -5.60499 0
M  V30 7989 H 735.617 -1.26106 -6.39485 0
M  V30 7990 N 739.05 0.861098 -1.31996 0
M  V30 7991 C 740.466 1.14827 -1.10846 0
M  V30 7992 C 740.666 2.0117 0.11528 0
M  V30 7993 O 739.722 2.39423 0.802048 0
M  V30 7994 C 741.035 1.83183 -2.38462 0
M  V30 7995 C 742.583 1.95847 -2.44158 0
M  V30 7996 C 743.058 2.67617 -3.71679 0
M  V30 7997 N 744.549 2.75147 -3.72624 0
M  V30 7998 C 745.284 3.31314 -4.67994 0
M  V30 7999 N 744.78 3.88343 -5.73726 0
M  V30 8000 N 746.573 3.29356 -4.55501 0
M  V30 8001 H 738.724 0.285951 -2.10466 0
M  V30 8002 H 740.987 0.189303 -0.928907 0
M  V30 8003 H 740.693 1.27193 -3.27895 0
M  V30 8004 H 740.567 2.83393 -2.48935 0
M  V30 8005 H 742.954 2.50999 -1.55189 0
M  V30 8006 H 743.035 0.94653 -2.37644 0
M  V30 8007 H 742.679 2.13131 -4.61018 0
M  V30 8008 H 742.609 3.69237 -3.75462 0
M  V30 8009 H 745.1 2.34682 -2.96197 0
M  V30 8010 H 745.413 4.29338 -6.42564 0
M  V30 8011 H 743.758 3.86693 -5.77489 0
M  V30 8012 H 746.949 2.84047 -3.72069 0
M  V30 8013 H 747.122 3.7283 -5.30001 0
M  V30 8014 N 740.528 1.15101 1.07655 0
M  V30 8015 C 741.438 0.858869 2.18313 0
M  V30 8016 C 742.454 -0.163641 1.73229 0
M  V30 8017 O 743.63 0.00969541 2.01398 0
M  V30 8018 C 740.695 0.34893 3.4494 0
M  V30 8019 C 739.756 1.43495 4.04608 0
M  V30 8020 C 738.989 0.949253 5.2519 0
M  V30 8021 O 739.212 -0.20636 5.70027 0
M  V30 8022 O 738.146 1.73161 5.76454 0
M  V30 8023 H 741.972 1.78386 2.45788 0
M  V30 8024 H 739.557 0.929876 1.16934 0
M  V30 8025 H 741.439 0.070851 4.2134 0
M  V30 8026 H 740.114 -0.548237 3.19024 0
M  V30 8027 H 739.021 1.7666 3.29761 0
M  V30 8028 H 740.354 2.30692 4.3479 0
M  V30 8029 N 742.006 -1.2595 0.947325 0
M  V30 8030 C 743.254 -1.93081 0.596996 0
M  V30 8031 C 743.575 -1.74632 -0.867672 0
M  V30 8032 O 742.845 -1.1056 -1.6172 0
M  V30 8033 H 741.425 -0.714542 0.217805 0
M  V30 8034 H 744.087 -1.53265 1.20398 0
M  V30 8035 H 743.183 -3.01134 0.82004 0
M  V30 8036 N 743.484 -0.715051 -1.40445 0
M  V30 8037 C 744.733 -0.251322 -2.00128 0
M  V30 8038 C 745.046 1.16194 -1.57347 0
M  V30 8039 O 746.252 1.72416 -2.09726 0
M  V30 8040 C 744.708 -0.398407 -3.57688 0
M  V30 8041 C 744.316 -1.81828 -4.09442 0
M  V30 8042 C 746.06 0.00455625 -4.245 0
M  V30 8043 C 743.967 -1.91598 -5.59503 0
M  V30 8044 H 742.897 -0.0902081 -0.748584 0
M  V30 8045 H 745.548 -0.886062 -1.6069 0
M  V30 8046 H 743.93 0.304908 -3.94824 0
M  V30 8047 H 745.104 -2.55193 -3.83684 0
M  V30 8048 H 743.419 -2.17266 -3.55225 0
M  V30 8049 H 746.016 -0.0477303 -5.34679 0
M  V30 8050 H 746.359 1.04636 -4.02935 0
M  V30 8051 H 746.892 -0.649184 -3.92467 0
M  V30 8052 H 743.631 -2.93898 -5.85922 0
M  V30 8053 H 743.151 -1.22644 -5.87127 0
M  V30 8054 H 744.83 -1.68785 -6.24596 0
M  V30 8055 N 744.962 1.50701 -0.461195 0
M  V30 8056 C 745.872 2.32069 0.343661 0
M  V30 8057 C 746.888 1.42016 1.00535 0
M  V30 8058 O 748.064 1.75077 0.995498 0
M  V30 8059 C 745.129 3.16424 1.41692 0
M  V30 8060 C 744.19 4.22286 0.772869 0
M  V30 8061 C 743.423 5.02609 1.79499 0
M  V30 8062 O 743.646 4.83874 3.0203 0
M  V30 8063 O 742.58 5.86047 1.3723 0
M  V30 8064 H 746.406 3.01996 -0.321268 0
M  V30 8065 H 743.991 1.47723 -0.223235 0
M  V30 8066 H 745.873 3.68795 2.03883 0
M  V30 8067 H 744.548 2.49236 2.0655 0
M  V30 8068 H 743.455 3.73931 0.112277 0
M  V30 8069 H 744.788 4.91915 0.167399 0
M  V30 8070 N 746.441 0.193421 1.56409 0
M  V30 8071 C 747.687 -0.43983 1.98588 0
M  V30 8072 C 748.042 -1.59353 1.07816 0
M  V30 8073 O 747.335 -1.9121 0.122226 0
M  V30 8074 C 747.529 -0.949718 3.44551 0
M  V30 8075 C 747.358 0.153045 4.49439 0
M  V30 8076 C 746.128 0.610119 5.01603 0
M  V30 8077 C 748.326 0.961397 5.05234 0
M  V30 8078 N 746.308 1.69088 5.90155 0
M  V30 8079 C 747.679 1.8916 5.90439 0
M  V30 8080 C 749.734 1.004 4.87672 0
M  V30 8081 C 748.437 2.86086 6.5996 0
M  V30 8082 C 750.463 1.96131 5.57931 0
M  V30 8083 C 749.825 2.87895 6.42881 0
M  V30 8084 H 745.924 -0.128415 0.771384 0
M  V30 8085 H 748.508 0.29873 1.92395 0
M  V30 8086 H 746.679 -1.65772 3.51246 0
M  V30 8087 H 748.411 -1.55344 3.73698 0
M  V30 8088 H 745.166 0.203771 4.73161 0
M  V30 8089 H 745.59 2.23241 6.39134 0
M  V30 8090 H 750.232 0.308536 4.21673 0
M  V30 8091 H 747.95 3.56609 7.25159 0
M  V30 8092 H 751.536 2.00066 5.46319 0
M  V30 8093 H 750.416 3.60763 6.9629 0
M  V30 8094 N 747.919 -1.57396 -0.0801906 0
M  V30 8095 C 748.867 -2.04136 -1.11495 0
M  V30 8096 C 749.861 -0.945137 -1.40583 0
M  V30 8097 O 751.067 -1.13028 -1.40088 0
M  V30 8098 H 747.442 -0.65076 -0.37685 0
M  V30 8099 H 749.413 -2.90205 -0.694526 0
M  V30 8100 C 748.162 -2.49399 -2.42272 0
M  V30 8101 H 747.485 -3.33339 -2.20737 0
M  V30 8102 H 748.925 -2.85864 -3.13142 0
M  V30 8103 C 747.384 -1.37341 -3.07635 0
M  V30 8104 O 747.914 -0.710829 -3.95361 0
M  V30 8105 N 746.12 -1.12064 -2.68123 0
M  V30 8106 H 745.667 -1.66126 -1.96875 0
M  V30 8107 H 745.625 -0.372916 -3.12181 0
M  V30 8108 N 749.397 0.351382 -1.53633 0
M  V30 8109 C 750.644 1.0925 -1.70502 0
M  V30 8110 C 750.972 1.88881 -0.464123 0
M  V30 8111 O 750.227 1.87693 0.554077 0
M  V30 8112 C 750.526 2.06744 -2.91533 0
M  V30 8113 C 750.192 1.43484 -4.27461 0
M  V30 8114 C 748.854 1.2596 -4.64422 0
M  V30 8115 C 751.206 0.978436 -5.11934 0
M  V30 8116 C 748.534 0.614017 -5.83478 0
M  V30 8117 C 750.886 0.346795 -6.31649 0
M  V30 8118 C 749.55 0.15917 -6.6731 0
M  V30 8119 H 748.82 0.399773 -0.623909 0
M  V30 8120 H 751.467 0.372656 -1.87839 0
M  V30 8121 H 749.772 2.85082 -2.68767 0
M  V30 8122 H 751.469 2.64066 -3.01778 0
M  V30 8123 H 748.059 1.5812 -3.98367 0
M  V30 8124 H 752.243 1.1017 -4.83918 0
M  V30 8125 H 747.499 0.457194 -6.09688 0
M  V30 8126 H 751.673 -0.0149864 -6.96398 0
M  V30 8127 H 749.3 -0.343129 -7.59425 0
M  V30 8128 N 750.875 1.45233 0.611969 0
M  V30 8129 C 752.124 1.48296 1.36716 0
M  V30 8130 C 752.437 0.12706 1.95187 0
M  V30 8131 O 753.643 0.0353066 2.71477 0
M  V30 8132 C 752.099 2.61168 2.47627 0
M  V30 8133 C 751.707 4.03051 1.95587 0
M  V30 8134 C 753.451 2.73472 3.24674 0
M  V30 8135 C 751.358 5.07312 3.03954 0
M  V30 8136 H 750.288 0.5518 0.513841 0
M  V30 8137 H 752.939 1.7136 0.656359 0
M  V30 8138 H 751.321 2.31379 3.21372 0
M  V30 8139 H 752.495 4.42497 1.2858 0
M  V30 8140 H 750.81 3.95158 1.31298 0
M  V30 8141 H 753.407 3.48537 4.05494 0
M  V30 8142 H 753.75 1.79953 3.75397 0
M  V30 8143 H 754.283 3.02765 2.58028 0
M  V30 8144 H 751.022 6.02525 2.58154 0
M  V30 8145 H 750.542 4.7244 3.69541 0
M  V30 8146 H 752.221 5.31867 3.6841 0
M  V30 8147 N 752.353 -0.854086 1.3245 0
M  V30 8148 C 753.63 -1.59188 1.1366 0
M  V30 8149 C 754.01 -2.08917 -0.302807 0
M  V30 8150 O 753.358 -1.8795 -1.29951 0
M  V30 8151 C 753.568 -2.73757 2.16467 0
M  V30 8152 C 754.916 -3.43323 2.49829 0
M  V30 8153 O 755.94 -2.83983 2.15017 0
M  V30 8154 O 754.799 -4.50409 3.09506 0
M  V30 8155 H 751.893 -0.701092 0.438633 0
M  V30 8156 H 754.439 -0.898165 1.43983 0
M  V30 8157 H 753.211 -2.3454 3.1322 0
M  V30 8158 H 752.834 -3.50804 1.87142 0
M  V30 8159 N 753.831 -1.1567 -1.07043 0
M  V30 8160 C 755.078 -0.933517 -1.79699 0
M  V30 8161 C 755.406 0.539162 -1.86878 0
M  V30 8162 O 754.661 1.41592 -1.35093 0
M  V30 8163 C 754.96 -1.49677 -3.24548 0
M  V30 8164 C 754.626 -2.99047 -3.37463 0
M  V30 8165 C 753.288 -3.39824 -3.40695 0
M  V30 8166 C 755.64 -3.95027 -3.40004 0
M  V30 8167 C 752.968 -4.75215 -3.44075 0
M  V30 8168 C 755.32 -5.30295 -3.44921 0
M  V30 8169 C 753.984 -5.70562 -3.46432 0
M  V30 8170 H 753.254 -0.341598 -0.657565 0
M  V30 8171 H 755.901 -1.44263 -1.25938 0
M  V30 8172 H 754.206 -0.908915 -3.81111 0
M  V30 8173 H 755.903 -1.29986 -3.79348 0
M  V30 8174 H 752.493 -2.6653 -3.35648 0
M  V30 8175 H 756.677 -3.64596 -3.36725 0
M  V30 8176 H 751.933 -5.05754 -3.43545 0
M  V30 8177 H 756.107 -6.0446 -3.45833 0
M  V30 8178 H 753.734 -6.75456 -3.48803 0
M  V30 8179 N 755.309 1.25446 -0.953992 0
M  V30 8180 C 756.557 1.92762 -0.607227 0
M  V30 8181 C 756.878 1.7509 0.858399 0
M  V30 8182 O 756.148 1.11416 1.61132 0
M  V30 8183 H 754.728 0.713377 -0.221591 0
M  V30 8184 H 757.39 1.52625 -1.21209 0
M  V30 8185 H 756.486 3.00695 -0.835998 0
M  V30 8186 N 756.787 0.722489 1.40064 0
M  V30 8187 C 757.717 0.0892452 2.33329 0
M  V30 8188 C 758.698 -0.737992 1.53257 0
M  V30 8189 O 759.883 -0.685516 1.81698 0
M  V30 8190 C 757.013 -0.828139 3.37282 0
M  V30 8191 C 755.967 -0.106005 4.27869 0
M  V30 8192 C 755.293 -1.13957 5.22415 0
M  V30 8193 C 756.593 1.04395 5.11761 0
M  V30 8194 H 758.287 0.868269 2.86534 0
M  V30 8195 H 755.833 0.418982 1.3777 0
M  V30 8196 H 757.786 -1.28058 4.01471 0
M  V30 8197 H 756.51 -1.63914 2.82489 0
M  V30 8198 H 755.169 0.326683 3.65142 0
M  V30 8199 H 754.817 -1.9438 4.63924 0
M  V30 8200 H 754.517 -0.661233 5.83868 0
M  V30 8201 H 756.041 -1.59197 5.89482 0
M  V30 8202 H 757.455 0.670541 5.69365 0
M  V30 8203 H 755.852 1.4511 5.82291 0
M  V30 8204 H 756.922 1.87144 4.47331 0
M  V30 8205 N 758.265 -1.50454 0.469181 0
M  V30 8206 C 759.542 -1.9504 -0.147955 0
M  V30 8207 C 759.922 -1.40946 -1.57154 0
M  V30 8208 O 759.27 -0.609663 -2.20217 0
M  V30 8209 C 759.48 -3.48875 -0.0932198 0
M  V30 8210 C 760.828 -4.23655 -0.283056 0
M  V30 8211 O 761.852 -3.55795 -0.169892 0
M  V30 8212 O 760.711 -5.44102 -0.511396 0
M  V30 8213 H 757.805 -0.819283 -0.11271 0
M  V30 8214 H 760.351 -1.6123 0.529446 0
M  V30 8215 H 759.123 -3.80791 0.900784 0
M  V30 8216 H 758.746 -3.89217 -0.812161 0
M  V30 8217 N 759.743 -0.201713 -1.56304 0
M  V30 8218 C 760.673 0.71155 -2.22394 0
M  V30 8219 C 761.654 1.21625 -1.18917 0
M  V30 8220 O 762.839 1.26388 -1.47444 0
M  V30 8221 C 759.969 1.92837 -2.88845 0
M  V30 8222 C 758.923 1.55831 -3.98623 0
M  V30 8223 C 758.249 2.85228 -4.52271 0
M  V30 8224 C 759.549 0.763249 -5.16693 0
M  V30 8225 H 761.243 0.160573 -2.98969 0
M  V30 8226 H 758.789 0.0757916 -1.438 0
M  V30 8227 H 760.742 2.57253 -3.33764 0
M  V30 8228 H 759.466 2.50398 -2.09686 0
M  V30 8229 H 758.125 0.9377 -3.54405 0
M  V30 8230 H 757.773 3.40893 -3.69866 0
M  V30 8231 H 757.473 2.6121 -5.26349 0
M  V30 8232 H 758.997 3.50622 -4.99897 0
M  V30 8233 H 760.411 1.31066 -5.58117 0
M  V30 8234 H 758.808 0.620935 -5.96879 0
M  V30 8235 H 759.878 -0.234322 -4.84334 0
M  V30 8236 N 761.222 1.57436 0.0718424 0
M  V30 8237 C 762.154 2.00412 1.1121 0
M  V30 8238 C 763.167 0.910074 1.34987 0
M  V30 8239 O 764.356 1.18796 1.33228 0
M  V30 8240 C 761.456 2.32786 2.46301 0
M  V30 8241 C 760.629 3.64036 2.4248 0
M  V30 8242 C 759.688 3.8408 3.59679 0
M  V30 8243 O 758.714 4.55667 3.4111 0
M  V30 8244 N 759.916 3.2643 4.80025 0
M  V30 8245 H 762.681 2.90264 0.746118 0
M  V30 8246 H 760.242 1.59791 0.260495 0
M  V30 8247 H 762.234 2.43368 3.23348 0
M  V30 8248 H 760.804 1.48824 2.74901 0
M  V30 8249 H 760.024 3.64208 1.50818 0
M  V30 8250 H 761.312 4.50217 2.37027 0
M  V30 8251 H 760.71 2.68325 4.98014 0
M  V30 8252 H 759.267 3.42461 5.54584 0
M  V30 8253 N 762.7 -0.34323 1.53817 0
M  V30 8254 C 764.111 -0.918823 1.62525 0
M  V30 8255 C 764.462 -1.89542 0.506765 0
M  V30 8256 O 763.587 -2.13326 -0.363441 0
M  V30 8257 C 764.182 -1.67326 2.94597 0
M  V30 8258 C 762.741 -2.19786 3.05567 0
M  V30 8259 C 761.888 -1.01708 2.57974 0
M  V30 8260 H 764.839 -0.121358 1.58235 0
M  V30 8261 H 764.86 -2.53615 2.83654 0
M  V30 8262 H 764.372 -0.962223 3.75983 0
M  V30 8263 H 762.473 -2.94065 2.28816 0
M  V30 8264 H 762.586 -2.46135 4.1104 0
M  V30 8265 H 760.95 -1.39058 2.13389 0
M  V30 8266 H 761.733 -0.320671 3.41799 0
M  V30 8267 N 764.178 -1.45556 -0.604258 0
M  V30 8268 C 765.418 -1.51289 -1.37445 0
M  V30 8269 C 765.782 -0.152112 -1.91397 0
M  V30 8270 O 766.983 -0.0841419 -2.68668 0
M  V30 8271 C 765.254 -2.5646 -2.48924 0
M  V30 8272 S 766.813 -2.81442 -3.36654 0
M  V30 8273 H 763.631 -0.534774 -0.468549 0
M  V30 8274 H 766.233 -1.82657 -0.696902 0
M  V30 8275 H 764.937 -3.53995 -2.07644 0
M  V30 8276 H 764.468 -2.26753 -3.21476 0
M  V30 8277 H 766.483 -2.15074 -4.47166 0
M  V30 8278 N 765.656 0.84705 -1.32902 0
M  V30 8279 C 766.905 1.59667 -1.23245 0
M  V30 8280 C 767.218 1.94551 0.202349 0
M  V30 8281 O 768.424 2.68218 0.420847 0
M  V30 8282 C 766.88 2.8795 -2.15901 0
M  V30 8283 C 766.488 2.60461 -3.64505 0
M  V30 8284 C 768.232 3.65968 -2.15098 0
M  V30 8285 C 766.139 3.84791 -4.49099 0
M  V30 8286 H 765.069 0.599167 -0.457728 0
M  V30 8287 H 767.72 0.934662 -1.57912 0
M  V30 8288 H 766.102 3.55648 -1.74157 0
M  V30 8289 H 767.276 2.01026 -4.14639 0
M  V30 8290 H 765.591 1.9576 -3.67515 0
M  V30 8291 H 768.188 4.58241 -2.75534 0
M  V30 8292 H 768.531 4.00275 -1.14392 0
M  V30 8293 H 769.064 3.05184 -2.55162 0
M  V30 8294 H 765.803 3.55621 -5.50649 0
M  V30 8295 H 765.323 4.43594 -4.03713 0
M  V30 8296 H 767.002 4.52454 -4.62487 0
M  V30 8297 N 767.134 1.16236 1.06428 0
M  V30 8298 C 768.044 0.881976 2.1739 0
M  V30 8299 C 769.06 -0.145259 1.73393 0
M  V30 8300 O 770.236 0.0310558 2.01376 0
M  V30 8301 C 767.301 0.385496 3.4455 0
M  V30 8302 C 766.362 1.47779 4.03063 0
M  V30 8303 C 765.595 1.0049 5.24154 0
M  V30 8304 O 765.818 -0.145889 5.70213 0
M  V30 8305 O 764.752 1.79265 5.74585 0
M  V30 8306 H 768.578 1.80983 2.43883 0
M  V30 8307 H 766.163 0.942226 1.15942 0
M  V30 8308 H 768.045 0.115536 4.21242 0
M  V30 8309 H 766.72 -0.514369 3.19587 0
M  V30 8310 H 765.627 1.80147 3.27869 0
M  V30 8311 H 766.96 2.35291 4.32318 0
M  V30 8312 N 768.612 -1.24939 0.960631 0
M  V30 8313 C 769.542 -2.28 0.503815 0
M  V30 8314 C 770.523 -1.63959 -0.452928 0
M  V30 8315 O 771.708 -1.91009 -0.350585 0
M  V30 8316 C 768.838 -3.46643 -0.213535 0
M  V30 8317 C 767.792 -4.22903 0.658535 0
M  V30 8318 C 767.118 -5.34363 -0.189902 0
M  V30 8319 C 768.418 -4.84949 1.93963 0
M  V30 8320 H 770.112 -2.66462 1.36521 0
M  V30 8321 H 767.658 -1.28093 0.657897 0
M  V30 8322 H 769.611 -4.1787 -0.544286 0
M  V30 8323 H 768.335 -3.07187 -1.10923 0
M  V30 8324 H 766.994 -3.53467 0.972455 0
M  V30 8325 H 766.642 -4.91147 -1.08553 0
M  V30 8326 H 766.342 -5.86302 0.390331 0
M  V30 8327 H 767.866 -6.0842 -0.515484 0
M  V30 8328 H 769.28 -5.48288 1.67491 0
M  V30 8329 H 767.677 -5.47091 2.46601 0
M  V30 8330 H 768.747 -4.06799 2.639 0
M  V30 8331 N 770.09 -0.729906 -1.39679 0
M  V30 8332 C 771.339 -0.272534 -1.9985 0
M  V30 8333 C 771.652 1.14519 -1.58571 0
M  V30 8334 O 772.858 1.70182 -2.11543 0
M  V30 8335 C 771.314 -0.436322 -3.57245 0
M  V30 8336 C 770.922 -1.86161 -4.0749 0
M  V30 8337 C 772.666 -0.0404679 -4.24481 0
M  V30 8338 C 770.573 -1.97522 -5.5744 0
M  V30 8339 H 769.503 -0.0981428 -0.747585 0
M  V30 8340 H 772.154 -0.903056 -1.59741 0
M  V30 8341 H 770.536 0.263015 -3.95126 0
M  V30 8342 H 771.71 -2.59248 -3.80955 0
M  V30 8343 H 770.025 -2.21021 -3.529 0
M  V30 8344 H 772.622 -0.104437 -5.34598 0
M  V30 8345 H 772.965 1.00357 -4.04023 0
M  V30 8346 H 773.498 -0.690774 -3.91757 0
M  V30 8347 H 770.237 -3.00096 -5.82771 0
M  V30 8348 H 769.757 -1.28864 -5.85794 0
M  V30 8349 H 771.436 -1.754 -6.22771 0
M  V30 8350 N 771.568 1.50203 -0.477153 0
M  V30 8351 C 772.478 2.32421 0.319027 0
M  V30 8352 C 773.494 1.43075 0.990233 0
M  V30 8353 O 774.67 1.76123 0.976873 0
M  V30 8354 C 771.735 3.17909 1.38328 0
M  V30 8355 C 770.796 4.23082 0.728036 0
M  V30 8356 C 770.029 5.04484 1.74158 0
M  V30 8357 O 770.252 4.8705 2.96881 0
M  V30 8358 O 769.186 5.8747 1.31006 0
M  V30 8359 H 773.012 3.01638 -0.353281 0
M  V30 8360 H 770.597 1.47478 -0.238891 0
M  V30 8361 H 772.479 3.70937 1.9996 0
M  V30 8362 H 771.154 2.51413 2.03895 0
M  V30 8363 H 770.061 3.7403 0.07261 0
M  V30 8364 H 771.394 4.92065 0.115216 0
M  V30 8365 N 773.046 0.209999 1.56195 0
M  V30 8366 C 774.462 -0.145598 1.58934 0
M  V30 8367 C 774.662 -1.59868 1.22656 0
M  V30 8368 O 773.718 -2.33689 0.956336 0
M  V30 8369 C 775.031 0.170243 3.00218 0
M  V30 8370 C 776.579 0.111548 3.12801 0
M  V30 8371 C 777.054 0.400904 4.56242 0
M  V30 8372 N 778.545 0.350058 4.61875 0
M  V30 8373 C 779.28 0.547598 5.70779 0
M  V30 8374 N 778.776 0.806291 6.88092 0
M  V30 8375 N 780.569 0.480827 5.6004 0
M  V30 8376 H 772.72 1.15804 1.78054 0
M  V30 8377 H 774.983 0.463326 0.827063 0
M  V30 8378 H 774.689 1.17833 3.31373 0
M  V30 8379 H 774.563 -0.520208 3.73596 0
M  V30 8380 H 776.95 -0.887162 2.81449 0
M  V30 8381 H 777.031 0.835302 2.41777 0
M  V30 8382 H 776.675 1.397 4.8831 0
M  V30 8383 H 776.605 -0.34391 5.25476 0
M  V30 8384 H 779.096 0.157334 3.77572 0
M  V30 8385 H 779.409 0.945433 7.66995 0
M  V30 8386 H 777.754 0.843355 6.89864 0
M  V30 8387 H 780.945 0.279037 4.67268 0
M  V30 8388 H 781.118 0.638189 6.4485 0
M  V30 8389 N 774.524 -1.57472 -0.0634922 0
M  V30 8390 C 775.935 -1.76303 -0.614337 0
M  V30 8391 C 776.286 -0.836578 -1.77471 0
M  V30 8392 O 775.411 -0.0227184 -2.16388 0
M  V30 8393 C 776.006 -3.19709 -1.12122 0
M  V30 8394 C 774.565 -3.39856 -1.61786 0
M  V30 8395 C 773.712 -2.71975 -0.540845 0
M  V30 8396 H 776.663 -1.57864 0.162702 0
M  V30 8397 H 776.684 -3.24326 -1.98979 0
M  V30 8398 H 776.196 -3.87114 -0.276472 0
M  V30 8399 H 774.297 -2.77578 -2.48558 0
M  V30 8400 H 774.41 -4.48338 -1.68908 0
M  V30 8401 H 772.774 -2.34763 -0.987854 0
M  V30 8402 H 773.557 -3.4204 0.293856 0
M  V30 8403 N 776.003 0.335068 -1.53997 0
M  V30 8404 C 776.951 1.43206 -1.83289 0
M  V30 8405 C 777.945 1.54081 -0.703953 0
M  V30 8406 O 779.151 1.56603 -0.887432 0
M  V30 8407 H 775.526 0.477655 -0.580818 0
M  V30 8408 H 777.497 1.15719 -2.75049 0
M  V30 8409 C 776.246 2.79602 -2.06683 0
M  V30 8410 H 775.569 2.72004 -2.93008 0
M  V30 8411 H 777.009 3.55459 -2.31139 0
M  V30 8412 C 775.468 3.25873 -0.854883 0
M  V30 8413 O 775.998 4.01657 -0.0584648 0
M  V30 8414 N 774.204 2.82777 -0.669729 0
M  V30 8415 H 773.751 2.21269 -1.31901 0
M  V30 8416 H 773.709 3.1409 0.13969 0
M  V30 8417 N 777.481 1.45874 0.596531 0
M  V30 8418 C 778.429 1.55739 1.72766 0
M  V30 8419 C 779.423 0.426666 1.63939 0
M  V30 8420 O 780.629 0.60301 1.69599 0
M  V30 8421 H 777.004 0.489386 0.570968 0
M  V30 8422 H 778.975 2.50871 1.61575 0
M  V30 8423 C 777.724 1.55174 3.11153 0
M  V30 8424 H 777.047 2.41511 3.1861 0
M  V30 8425 H 778.487 1.66133 3.90097 0
M  V30 8426 C 776.946 0.278001 3.35751 0
M  V30 8427 O 777.476 -0.637557 3.96608 0
M  V30 8428 N 775.682 0.170227 2.90101 0
M  V30 8429 H 775.229 0.916159 2.40758 0
M  V30 8430 H 775.187 -0.68117 3.06932 0
M  V30 8431 N 778.959 -0.83999 1.33349 0
M  V30 8432 C 780.37 -1.41139 1.22216 0
M  V30 8433 C 780.721 -1.95551 -0.159398 0
M  V30 8434 O 779.846 -1.88721 -1.05893 0
M  V30 8435 C 780.441 -2.56564 2.21269 0
M  V30 8436 C 779 -3.09661 2.13979 0
M  V30 8437 C 778.147 -1.82457 2.08818 0
M  V30 8438 H 781.098 -0.645853 1.44964 0
M  V30 8439 H 781.119 -3.34163 1.81976 0
M  V30 8440 H 780.631 -2.16932 3.21811 0
M  V30 8441 H 778.732 -3.53841 1.16736 0
M  V30 8442 H 778.845 -3.6991 3.04472 0
M  V30 8443 H 777.209 -2.0266 1.54276 0
M  V30 8444 H 777.992 -1.45022 3.11165 0
M  V30 8445 N 780.437 -1.16799 -1.0581 0
M  V30 8446 C 781.848 -0.95945 -1.60161 0
M  V30 8447 C 782.199 0.49543 -1.89842 0
M  V30 8448 O 781.324 1.36957 -1.67546 0
M  V30 8449 C 781.919 -1.73527 -2.90987 0
M  V30 8450 C 780.478 -1.57158 -3.42021 0
M  V30 8451 C 779.625 -1.74089 -2.15843 0
M  V30 8452 H 782.576 -1.31598 -0.886992 0
M  V30 8453 H 782.597 -1.21397 -3.60615 0
M  V30 8454 H 782.109 -2.79411 -2.69353 0
M  V30 8455 H 780.21 -0.537361 -3.68705 0
M  V30 8456 H 780.323 -2.35858 -4.17022 0
M  V30 8457 H 778.687 -1.16874 -2.26302 0
M  V30 8458 H 779.47 -2.81371 -1.96686 0
M  V30 8459 N 781.915 1.24427 -0.967243 0
M  V30 8460 C 783.163 1.92107 -0.627638 0
M  V30 8461 C 783.484 1.75991 0.83978 0
M  V30 8462 O 782.754 1.13118 1.59941 0
M  V30 8463 H 781.334 0.710986 -0.229145 0
M  V30 8464 H 783.996 1.51331 -1.22821 0
M  V30 8465 H 783.092 2.99791 -0.867844 0
M  V30 8466 N 783.393 0.737304 1.3929 0
M  V30 8467 C 784.639 0.286681 2.00763 0
M  V30 8468 C 784.972 -1.12388 1.58375 0
M  V30 8469 O 784.247 -1.76661 0.813699 0
M  V30 8470 C 784.53 0.391147 3.57969 0
M  V30 8471 C 784.383 1.84165 4.1037 0
M  V30 8472 C 785.702 -0.225072 4.39524 0
M  V30 8473 H 782.821 0.105642 0.729389 0
M  V30 8474 H 785.463 0.933892 1.65464 0
M  V30 8475 H 783.613 -0.159875 3.88171 0
M  V30 8476 H 785.285 2.44972 3.90879 0
M  V30 8477 H 783.528 2.3622 3.63844 0
M  V30 8478 H 784.199 1.866 5.19504 0
M  V30 8479 H 786.675 0.244677 4.1538 0
M  V30 8480 H 785.551 -0.121646 5.48765 0
M  V30 8481 H 785.812 -1.31141 4.22202 0
M  V30 8482 N 784.871 -1.49948 0.485112 0
M  V30 8483 C 785.801 -2.31675 -0.291364 0
M  V30 8484 C 786.782 -1.39216 -0.977383 0
M  V30 8485 O 787.967 -1.68133 -0.971855 0
M  V30 8486 C 785.097 -3.19326 -1.36558 0
M  V30 8487 C 784.051 -4.2045 -0.800359 0
M  V30 8488 C 783.377 -4.96931 -1.97391 0
M  V30 8489 C 784.677 -5.21925 0.197867 0
M  V30 8490 H 786.371 -2.96839 0.390775 0
M  V30 8491 H 783.917 -1.42749 0.189375 0
M  V30 8492 H 785.87 -3.75304 -1.91638 0
M  V30 8493 H 784.594 -2.52074 -2.07668 0
M  V30 8494 H 783.253 -3.65594 -0.271428 0
M  V30 8495 H 782.901 -4.26141 -2.67232 0
M  V30 8496 H 782.601 -5.65344 -1.60187 0
M  V30 8497 H 784.125 -5.55749 -2.52935 0
M  V30 8498 H 785.539 -5.72691 -0.264239 0
M  V30 8499 H 783.936 -5.98138 0.484908 0
M  V30 8500 H 785.006 -4.71809 1.11912 0
M  V30 8501 N 786.349 -0.21828 -1.56081 0
M  V30 8502 C 787.312 0.679633 -2.18892 0
M  V30 8503 C 788.312 1.12405 -1.14986 0
M  V30 8504 O 789.502 1.03339 -1.40238 0
M  V30 8505 C 786.634 1.93063 -2.80962 0
M  V30 8506 H 787.827 0.132066 -2.99609 0
M  V30 8507 H 785.38 0.0313374 -1.56269 0
M  V30 8508 H 786.115 2.52015 -2.04106 0
M  V30 8509 H 785.9 1.62046 -3.57048 0
M  V30 8510 H 787.39 2.57043 -3.29118 0
M  V30 8511 N 787.827 1.57504 0.0551401 0
M  V30 8512 C 788.757 2.07864 1.06372 0
M  V30 8513 C 789.738 0.975565 1.39344 0
M  V30 8514 O 790.923 1.24929 1.48682 0
M  V30 8515 C 788.053 2.53643 2.3724 0
M  V30 8516 C 787.007 3.67978 2.18578 0
M  V30 8517 C 786.333 3.9987 3.54976 0
M  V30 8518 C 787.633 4.97405 1.59329 0
M  V30 8519 H 789.327 2.92379 0.644595 0
M  V30 8520 H 786.873 1.40654 0.308619 0
M  V30 8521 H 788.826 2.8749 3.08103 0
M  V30 8522 H 787.55 1.66177 2.81163 0
M  V30 8523 H 786.209 3.3444 1.50152 0
M  V30 8524 H 785.857 3.0951 3.965 0
M  V30 8525 H 785.557 4.76867 3.43324 0
M  V30 8526 H 787.081 4.36228 4.27244 0
M  V30 8527 H 788.495 5.29375 2.20078 0
M  V30 8528 H 786.892 5.78837 1.58327 0
M  V30 8529 H 787.962 4.81697 0.55638 0
M  V30 8530 N 789.305 -0.326896 1.54172 0
M  V30 8531 C 790.235 -1.40741 1.86317 0
M  V30 8532 C 791.216 -1.54125 0.719684 0
M  V30 8533 O 792.401 -1.6806 0.973117 0
M  V30 8534 C 789.531 -2.77557 2.08757 0
M  V30 8535 C 788.485 -2.78965 3.24596 0
M  V30 8536 C 787.811 -4.18824 3.32401 0
M  V30 8537 C 789.111 -2.4301 4.62324 0
M  V30 8538 H 790.805 -1.14088 2.76811 0
M  V30 8539 H 788.351 -0.547389 1.3319 0
M  V30 8540 H 790.304 -3.53209 2.29829 0
M  V30 8541 H 789.028 -3.0568 1.15009 0
M  V30 8542 H 787.687 -2.05767 3.03406 0
M  V30 8543 H 787.335 -4.44083 2.36218 0
M  V30 8544 H 787.035 -4.20673 4.10253 0
M  V30 8545 H 788.559 -4.96294 3.55703 0
M  V30 8546 H 789.973 -3.08375 4.83299 0
M  V30 8547 H 788.37 -2.56116 5.42701 0
M  V30 8548 H 789.44 -1.38165 4.64799 0
M  V30 8549 N 790.784 -1.46188 -0.588786 0
M  V30 8550 C 792.061 -1.41659 -1.34878 0
M  V30 8551 C 792.441 -0.0968913 -2.10878 0
M  V30 8552 O 791.789 0.921468 -2.09096 0
M  V30 8553 C 791.999 -2.6424 -2.27988 0
M  V30 8554 C 793.347 -3.1013 -2.90008 0
M  V30 8555 O 794.371 -2.64745 -2.38303 0
M  V30 8556 O 793.23 -3.88944 -3.83908 0
M  V30 8557 H 790.324 -0.563058 -0.605718 0
M  V30 8558 H 792.87 -1.58346 -0.610309 0
M  V30 8559 H 791.642 -3.51853 -1.71217 0
M  V30 8560 H 791.265 -2.49982 -3.09184 0
M  V30 8561 N 792.262 0.832906 -1.33792 0
M  V30 8562 C 793.172 1.97514 -1.26592 0
M  V30 8563 C 794.188 1.73114 -0.175391 0
M  V30 8564 O 795.364 1.97387 -0.400062 0
M  V30 8565 C 792.429 3.31625 -1.01121 0
M  V30 8566 C 791.49 3.69101 -2.19233 0
M  V30 8567 C 790.723 4.96813 -1.94968 0
M  V30 8568 O 790.946 5.63208 -0.902955 0
M  V30 8569 O 789.88 5.31932 -2.8166 0
M  V30 8570 H 793.706 2.0653 -2.22664 0
M  V30 8571 H 791.291 0.966826 -1.13898 0
M  V30 8572 H 793.173 4.11968 -0.886571 0
M  V30 8573 H 791.848 3.23599 -0.080822 0
M  V30 8574 H 790.755 2.89243 -2.37253 0
M  V30 8575 H 792.088 3.818 -3.10628 0
M  V30 8576 N 793.74 1.17359 1.05189 0
M  V30 8577 C 794.65 0.904984 2.16442 0
M  V30 8578 C 795.666 -0.12686 1.73537 0
M  V30 8579 O 796.842 0.0524127 2.01332 0
M  V30 8580 C 793.907 0.422019 3.44122 0
M  V30 8581 C 792.968 1.52045 4.01473 0
M  V30 8582 C 792.201 1.06044 5.23059 0
M  V30 8583 O 792.424 -0.0854023 5.70336 0
M  V30 8584 O 791.358 1.85349 5.72651 0
M  V30 8585 H 795.184 1.8356 2.41949 0
M  V30 8586 H 792.769 0.95447 1.14936 0
M  V30 8587 H 794.651 0.160208 4.21095 0
M  V30 8588 H 793.326 -0.480444 3.20115 0
M  V30 8589 H 792.233 1.83615 3.25939 0
M  V30 8590 H 793.566 2.39863 4.29798 0
M  V30 8591 N 795.218 -1.23913 0.973828 0
M  V30 8592 C 796.458 -1.93889 0.647015 0
M  V30 8593 C 796.822 -1.74368 -0.803735 0
M  V30 8594 O 798.023 -2.38435 -1.24106 0
M  V30 8595 C 796.294 -3.4257 1.01885 0
M  V30 8596 S 797.853 -4.31306 0.807517 0
M  V30 8597 H 794.671 -0.670279 0.237165 0
M  V30 8598 H 797.273 -1.50144 1.25208 0
M  V30 8599 H 795.977 -3.54286 2.07146 0
M  V30 8600 H 795.508 -3.91312 0.404812 0
M  V30 8601 H 797.523 -4.95218 -0.311986 0
M  V30 8602 N 796.696 -0.74468 -1.38897 0
M  V30 8603 C 797.942 -0.306249 -2.01081 0
M  V30 8604 C 798.297 1.09724 -1.58046 0
M  V30 8605 O 797.59 1.73923 -0.803834 0
M  V30 8606 C 797.784 -0.357302 -3.55609 0
M  V30 8607 C 797.613 -1.76421 -4.13649 0
M  V30 8608 C 796.383 -2.3787 -4.4581 0
M  V30 8609 C 798.581 -2.71942 -4.36523 0
M  V30 8610 N 796.563 -3.70614 -4.89406 0
M  V30 8611 C 797.934 -3.89437 -4.8243 0
M  V30 8612 C 799.989 -2.69579 -4.18607 0
M  V30 8613 C 798.692 -5.04917 -5.123 0
M  V30 8614 C 800.718 -3.8421 -4.49596 0
M  V30 8615 C 800.08 -5.00442 -4.95719 0
M  V30 8616 H 796.179 -0.158531 -0.765762 0
M  V30 8617 H 798.763 -0.972726 -1.6866 0
M  V30 8618 H 796.934 0.278865 -3.87398 0
M  V30 8619 H 798.666 0.100599 -4.04575 0
M  V30 8620 H 795.421 -1.8971 -4.33943 0
M  V30 8621 H 795.845 -4.38791 -5.1555 0
M  V30 8622 H 800.487 -1.80905 -3.82143 0
M  V30 8623 H 798.205 -5.94213 -5.47665 0
M  V30 8624 H 801.791 -3.83691 -4.37347 0
M  V30 8625 H 800.671 -5.87671 -5.19242 0
M  V30 8626 N 798.174 1.49689 -0.493057 0
M  V30 8627 C 799.421 2.02427 0.0542714 0
M  V30 8628 C 799.749 1.37339 1.37725 0
M  V30 8629 O 799.004 0.495523 1.89323 0
M  V30 8630 C 799.303 3.56427 0.263536 0
M  V30 8631 C 798.969 4.40111 -0.98046 0
M  V30 8632 C 797.631 4.62699 -1.32148 0
M  V30 8633 C 799.983 4.88847 -1.80771 0
M  V30 8634 C 797.311 5.31268 -2.48941 0
M  V30 8635 C 799.663 5.587 -2.96711 0
M  V30 8636 C 798.327 5.79536 -3.31202 0
M  V30 8637 H 797.597 0.740734 0.0198593 0
M  V30 8638 H 800.244 1.80073 -0.651603 0
M  V30 8639 H 798.549 3.77416 1.05186 0
M  V30 8640 H 800.246 3.94819 0.701348 0
M  V30 8641 H 796.836 4.22765 -0.704814 0
M  V30 8642 H 801.02 4.71231 -1.55741 0
M  V30 8643 H 796.276 5.45603 -2.75911 0
M  V30 8644 H 800.45 5.9544 -3.61143 0
M  V30 8645 H 798.077 6.32443 -4.21805 0
M  V30 8646 N 799.652 0.226554 1.55963 0
M  V30 8647 C 801.063 -0.280381 1.84583 0
M  V30 8648 C 801.414 -1.59105 1.14804 0
M  V30 8649 O 800.539 -2.12297 0.419414 0
M  V30 8650 C 801.134 -0.515499 3.34855 0
M  V30 8651 C 799.693 -0.966733 3.63774 0
M  V30 8652 C 798.84 -0.0325753 2.77281 0
M  V30 8653 H 801.791 0.449626 1.52197 0
M  V30 8654 H 801.812 -1.36085 3.55332 0
M  V30 8655 H 801.324 0.438594 3.85614 0
M  V30 8656 H 799.425 -1.93401 3.18476 0
M  V30 8657 H 799.538 -0.837679 4.7172 0
M  V30 8658 H 797.902 -0.540279 2.48904 0
M  V30 8659 H 798.685 0.916524 3.30839 0
M  V30 8660 N 801.13 -1.57531 -0.0467866 0
M  V30 8661 C 802.077 -2.05387 -1.05285 0
M  V30 8662 C 803.047 -0.939385 -1.36985 0
M  V30 8663 O 804.232 -1.20877 -1.47626 0
M  V30 8664 C 801.372 -2.52343 -2.35408 0
M  V30 8665 C 800.485 -3.77512 -2.10022 0
M  V30 8666 C 799.62 -4.1315 -3.33887 0
M  V30 8667 C 798.659 -5.31286 -3.03976 0
M  V30 8668 N 797.796 -5.62441 -4.20243 0
M  V30 8669 H 802.636 -2.91095 -0.637788 0
M  V30 8670 H 800.173 -1.43939 -0.303322 0
M  V30 8671 H 802.131 -2.77628 -3.11413 0
M  V30 8672 H 800.761 -1.69577 -2.7467 0
M  V30 8673 H 799.813 -3.59417 -1.24594 0
M  V30 8674 H 801.125 -4.63644 -1.83945 0
M  V30 8675 H 800.279 -4.39469 -4.18273 0
M  V30 8676 H 799.018 -3.25634 -3.63062 0
M  V30 8677 H 798.023 -5.04738 -2.17991 0
M  V30 8678 H 799.248 -6.20441 -2.76098 0
M  V30 8679 H 797.194 -4.77885 -4.49402 0
M  V30 8680 H 797.111 -6.43046 -3.97528 0
M  V30 8681 H 798.379 -5.93327 -5.05553 0
M  V30 8682 N 802.608 0.318715 -1.54344 0
M  V30 8683 C 803.571 1.37545 -1.83342 0
M  V30 8684 C 804.571 1.445 -0.705444 0
M  V30 8685 O 805.761 1.44443 -0.973752 0
M  V30 8686 C 802.893 2.76225 -1.99781 0
M  V30 8687 H 804.086 1.13084 -2.77762 0
M  V30 8688 H 801.639 0.554457 -1.46135 0
M  V30 8689 H 802.374 3.05934 -1.07588 0
M  V30 8690 H 802.159 2.7257 -2.81865 0
M  V30 8691 H 803.649 3.52664 -2.23647 0
M  V30 8692 N 804.086 1.46499 0.581025 0
M  V30 8693 C 805.314 1.5547 1.36517 0
M  V30 8694 C 805.729 0.196407 1.87776 0
M  V30 8695 O 805.086 -0.806577 1.63709 0
M  V30 8696 C 805.137 2.56084 2.55154 0
M  V30 8697 O 804.858 3.86637 2.06018 0
M  V30 8698 C 806.359 2.75011 3.47683 0
M  V30 8699 H 803.579 0.525703 0.416986 0
M  V30 8700 H 806.123 1.9192 0.706177 0
M  V30 8701 H 804.278 2.22633 3.17039 0
M  V30 8702 H 804.692 4.41413 2.83292 0
M  V30 8703 H 806.166 3.49329 4.27403 0
M  V30 8704 H 806.643 1.81978 3.99726 0
M  V30 8705 H 807.249 3.09565 2.91632 0
M  V30 8706 N 805.565 -0.825799 1.34232 0
M  V30 8707 C 806.842 -1.56741 1.17011 0
M  V30 8708 C 807.222 -2.09512 -0.258425 0
M  V30 8709 O 806.57 -1.90664 -1.25935 0
M  V30 8710 C 806.78 -2.69104 2.22225 0
M  V30 8711 C 808.128 -3.37947 2.57055 0
M  V30 8712 O 809.152 -2.79358 2.20992 0
M  V30 8713 O 808.011 -4.43743 3.1899 0
M  V30 8714 H 805.105 -0.69163 0.453405 0
M  V30 8715 H 807.651 -0.867422 1.45856 0
M  V30 8716 H 806.423 -2.27844 3.18124 0
M  V30 8717 H 806.046 -3.46756 1.94541 0
M  V30 8718 N 807.043 -1.17915 -1.04565 0
M  V30 8719 C 807.99 -0.901605 -2.12461 0
M  V30 8720 C 808.96 0.157011 -1.65356 0
M  V30 8721 O 810.145 0.0184494 -1.90791 0
M  V30 8722 C 807.285 -0.42796 -3.42436 0
M  V30 8723 C 806.398 -1.55142 -4.03181 0
M  V30 8724 C 805.533 -1.03101 -5.21098 0
M  V30 8725 C 804.572 -2.1295 -5.73863 0
M  V30 8726 N 803.709 -1.62339 -6.83074 0
M  V30 8727 H 808.549 -1.82551 -2.3554 0
M  V30 8728 H 806.086 -0.910389 -1.15544 0
M  V30 8729 H 808.044 -0.134859 -4.16982 0
M  V30 8730 H 806.674 0.458977 -3.1952 0
M  V30 8731 H 805.726 -1.96011 -3.26012 0
M  V30 8732 H 807.038 -2.37968 -4.38375 0
M  V30 8733 H 806.192 -0.692132 -6.02739 0
M  V30 8734 H 804.931 -0.17227 -4.87396 0
M  V30 8735 H 803.936 -2.47687 -4.90847 0
M  V30 8736 H 805.161 -2.9925 -6.09611 0
M  V30 8737 H 803.107 -0.787464 -6.51256 0
M  V30 8738 H 803.024 -2.38767 -7.17305 0
M  V30 8739 H 804.292 -1.31363 -7.68351 0
M  V30 8740 N 808.521 1.23394 -0.980386 0
M  V30 8741 C 809.746 1.96384 -0.666935 0
M  V30 8742 C 810.171 1.72087 0.759456 0
M  V30 8743 O 809.529 0.992328 1.51732 0
M  V30 8744 C 809.577 3.47499 -0.963177 0
M  V30 8745 O 808.681 4.12363 -0.0552051 0
M  V30 8746 H 808.022 0.614797 -0.250839 0
M  V30 8747 H 810.552 1.56831 -1.31398 0
M  V30 8748 H 810.562 3.97953 -0.899877 0
M  V30 8749 H 809.237 3.6451 -2.00264 0
M  V30 8750 H 807.814 3.72499 -0.172914 0
M  V30 8751 N 809.999 0.752036 1.385 0
M  V30 8752 C 811.246 0.307503 2.00152 0
M  V30 8753 C 811.574 -1.11033 1.59693 0
M  V30 8754 O 810.829 -1.77455 0.825125 0
M  V30 8755 C 811.128 0.376155 3.55415 0
M  V30 8756 C 810.794 1.74942 4.15579 0
M  V30 8757 C 809.456 2.12525 4.31725 0
M  V30 8758 C 811.808 2.65031 4.48785 0
M  V30 8759 C 809.136 3.39671 4.78373 0
M  V30 8760 C 811.488 3.91567 4.96848 0
M  V30 8761 C 810.152 4.2922 5.11201 0
M  V30 8762 H 809.422 0.112523 0.732407 0
M  V30 8763 H 812.069 0.962213 1.65571 0
M  V30 8764 H 810.374 -0.362121 3.90123 0
M  V30 8765 H 812.071 0.0138065 4.00998 0
M  V30 8766 H 808.661 1.44726 4.03426 0
M  V30 8767 H 812.845 2.3726 4.35914 0
M  V30 8768 H 808.101 3.68765 4.8767 0
M  V30 8769 H 812.275 4.61517 5.21512 0
M  V30 8770 H 809.902 5.27805 5.47107 0
M  V30 8771 N 811.477 -1.49425 0.500989 0
M  V30 8772 C 812.723 -2.02753 -0.0436 0
M  V30 8773 C 813.056 -1.37991 -1.36646 0
M  V30 8774 O 812.331 -0.515597 -1.87542 0
M  V30 8775 C 812.614 -3.59565 -0.19616 0
M  V30 8776 C 812.467 -4.34855 1.14982 0
M  V30 8777 C 813.786 -4.30014 -0.936795 0
M  V30 8778 H 810.905 -0.73686 -0.0143711 0
M  V30 8779 H 813.547 -1.78448 0.652397 0
M  V30 8780 H 811.697 -3.80405 -0.788959 0
M  V30 8781 H 813.369 -4.25512 1.7815 0
M  V30 8782 H 811.612 -3.97414 1.73911 0
M  V30 8783 H 812.283 -5.42933 0.996385 0
M  V30 8784 H 814.759 -4.1383 -0.434036 0
M  V30 8785 H 813.635 -5.39483 -1.01238 0
M  V30 8786 H 813.896 -3.95257 -1.9805 0
M  V30 8787 N 812.955 -0.234822 -1.55841 0
M  V30 8788 C 813.865 0.680828 -2.24504 0
M  V30 8789 C 814.881 1.20306 -1.25708 0
M  V30 8790 O 816.057 1.24188 -1.58554 0
M  V30 8791 C 813.122 1.86636 -2.92178 0
M  V30 8792 C 812.183 1.3848 -4.06352 0
M  V30 8793 C 811.416 2.51382 -4.70789 0
M  V30 8794 O 811.639 3.69831 -4.34259 0
M  V30 8795 O 810.573 2.21828 -5.59532 0
M  V30 8796 H 814.399 0.12583 -3.03439 0
M  V30 8797 H 811.984 -0.00381817 -1.494 0
M  V30 8798 H 813.866 2.55845 -3.34845 0
M  V30 8799 H 812.541 2.40921 -2.16192 0
M  V30 8800 H 811.448 0.660341 -3.68226 0
M  V30 8801 H 812.781 0.888177 -4.8412 0
M  V30 8802 N 814.433 1.57553 0.0384317 0
M  V30 8803 C 815.38 2.05942 1.04194 0
M  V30 8804 C 816.35 0.946637 1.36484 0
M  V30 8805 O 817.535 1.21658 1.46983 0
M  V30 8806 C 814.675 2.53588 2.34066 0
M  V30 8807 C 813.788 3.7862 2.08017 0
M  V30 8808 C 812.923 4.14915 3.31692 0
M  V30 8809 C 811.962 5.32891 3.01155 0
M  V30 8810 N 811.099 5.64662 4.17254 0
M  V30 8811 H 815.939 2.91429 0.622341 0
M  V30 8812 H 813.476 1.44098 0.295684 0
M  V30 8813 H 815.434 2.79276 3.09937 0
M  V30 8814 H 814.064 1.71031 2.73767 0
M  V30 8815 H 813.116 3.60073 1.22686 0
M  V30 8816 H 814.428 4.64613 1.81484 0
M  V30 8817 H 813.582 4.41681 4.15936 0
M  V30 8818 H 812.321 3.27555 3.6133 0
M  V30 8819 H 811.326 5.05887 2.15311 0
M  V30 8820 H 812.551 6.21896 2.72804 0
M  V30 8821 H 810.497 4.80261 4.46861 0
M  V30 8822 H 810.414 6.45145 3.94112 0
M  V30 8823 H 811.682 5.96 5.02399 0
M  V30 8824 N 815.911 -0.310526 1.54511 0
M  V30 8825 C 816.841 -1.38757 1.878 0
M  V30 8826 C 817.822 -1.53353 0.735991 0
M  V30 8827 O 819.007 -1.67018 0.990887 0
M  V30 8828 C 816.137 -2.75327 2.11689 0
M  V30 8829 C 815.091 -2.75506 3.27537 0
M  V30 8830 C 814.417 -4.15275 3.36824 0
M  V30 8831 C 815.717 -2.38093 4.64875 0
M  V30 8832 H 817.411 -1.11146 2.78005 0
M  V30 8833 H 814.957 -0.533232 1.33763 0
M  V30 8834 H 816.91 -3.50752 2.33562 0
M  V30 8835 H 815.634 -3.04443 1.18245 0
M  V30 8836 H 814.293 -2.02538 3.05572 0
M  V30 8837 H 813.941 -4.41553 2.40915 0
M  V30 8838 H 813.641 -4.16299 4.14692 0
M  V30 8839 H 815.165 -4.92493 3.60947 0
M  V30 8840 H 816.579 -3.03232 4.86542 0
M  V30 8841 H 814.976 -2.50345 5.45387 0
M  V30 8842 H 816.046 -1.33227 4.66239 0
M  V30 8843 N 817.389 -1.46805 -0.573248 0
M  V30 8844 C 818.629 -1.5417 -1.34205 0
M  V30 8845 C 818.993 -0.192675 -1.91031 0
M  V30 8846 O 820.194 -0.141111 -2.68429 0
M  V30 8847 C 818.465 -2.61682 -2.43428 0
M  V30 8848 S 820.024 -2.88519 -3.30609 0
M  V30 8849 H 816.842 -0.544592 -0.4571 0
M  V30 8850 H 819.444 -1.84094 -0.658001 0
M  V30 8851 H 818.148 -3.58319 -2.00088 0
M  V30 8852 H 817.679 -2.33521 -3.16594 0
M  V30 8853 H 819.694 -2.2451 -4.42504 0
M  V30 8854 N 818.867 0.818669 -1.34668 0
M  V30 8855 C 820.095 1.60674 -1.30351 0
M  V30 8856 C 820.51 1.88408 0.121546 0
M  V30 8857 O 819.867 1.47849 1.06991 0
M  V30 8858 C 819.918 2.94516 -2.09625 0
M  V30 8859 O 819.639 2.6799 -3.46573 0
M  V30 8860 C 821.14 3.8891 -2.12754 0
M  V30 8861 H 818.36 0.499306 -0.448258 0
M  V30 8862 H 820.904 1.01828 -1.77345 0
M  V30 8863 H 819.059 3.49908 -1.66262 0
M  V30 8864 H 819.473 3.53361 -3.87603 0
M  V30 8865 H 820.947 4.79972 -2.72637 0
M  V30 8866 H 821.424 4.24599 -1.12306 0
M  V30 8867 H 822.03 3.39453 -2.56225 0
M  V30 8868 N 820.346 1.18468 1.03938 0
M  V30 8869 C 821.256 0.927889 2.1547 0
M  V30 8870 C 822.272 -0.108447 1.73662 0
M  V30 8871 O 823.448 0.0737636 2.01265 0
M  V30 8872 C 820.513 0.458494 3.43655 0
M  V30 8873 C 819.574 1.56295 3.99838 0
M  V30 8874 C 818.807 1.11586 5.21904 0
M  V30 8875 O 819.03 -0.0249057 5.70395 0
M  V30 8876 O 817.964 1.91412 5.70653 0
M  V30 8877 H 821.79 1.86116 2.39989 0
M  V30 8878 H 819.375 0.966607 1.13917 0
M  V30 8879 H 821.257 0.204861 4.20902 0
M  V30 8880 H 819.932 -0.446464 3.20606 0
M  V30 8881 H 818.839 1.87061 3.23974 0
M  V30 8882 H 820.172 2.44408 4.2723 0
M  V30 8883 N 821.824 -1.22873 0.986916 0
M  V30 8884 C 822.756 -2.23889 0.490537 0
M  V30 8885 C 823.769 -1.57523 -0.411144 0
M  V30 8886 O 824.958 -1.7721 -0.214236 0
M  V30 8887 C 822.058 -3.37488 -0.30902 0
M  V30 8888 C 821.231 -4.33438 0.587354 0
M  V30 8889 C 820.29 -5.25958 -0.159467 0
M  V30 8890 O 819.316 -5.67394 0.453115 0
M  V30 8891 N 820.518 -5.62265 -1.44355 0
M  V30 8892 H 823.283 -2.67109 1.35914 0
M  V30 8893 H 820.844 -1.37111 0.860937 0
M  V30 8894 H 822.836 -3.96365 -0.817139 0
M  V30 8895 H 821.406 -2.934 -1.07868 0
M  V30 8896 H 820.626 -3.72969 1.27622 0
M  V30 8897 H 821.914 -4.94495 1.19801 0
M  V30 8898 H 821.312 -5.30562 -1.96266 0
M  V30 8899 H 819.869 -6.23585 -1.89698 0
M  V30 8900 N 823.302 -0.75937 -1.38099 0
M  V30 8901 C 824.55 -0.317485 -1.99591 0
M  V30 8902 C 824.871 1.10628 -1.60581 0
M  V30 8903 O 824.141 1.7575 -0.865378 0
M  V30 8904 H 822.721 -0.114397 -0.738189 0
M  V30 8905 H 825.383 -0.974749 -1.68774 0
M  V30 8906 H 824.479 -0.385227 -3.09713 0
M  V30 8907 N 824.78 1.49157 -0.508906 0
M  V30 8908 C 826.005 2.07376 0.0315182 0
M  V30 8909 C 826.43 1.36575 1.2934 0
M  V30 8910 O 825.788 0.424963 1.76249 0
M  V30 8911 C 825.836 3.59661 0.260118 0
M  V30 8912 O 824.94 3.90255 1.33322 0
M  V30 8913 H 824.281 0.663334 -0.029739 0
M  V30 8914 H 826.811 1.91857 -0.710791 0
M  V30 8915 H 826.821 4.05056 0.489225 0
M  V30 8916 H 825.496 4.10601 -0.661794 0
M  V30 8917 H 824.073 3.56661 1.08844 0
M  V30 8918 N 826.258 0.243083 1.55714 0
M  V30 8919 C 827.208 -0.671915 2.17875 0
M  V30 8920 C 828.192 -1.14199 1.13347 0
M  V30 8921 O 829.384 -1.09239 1.39269 0
M  V30 8922 C 826.513 -1.87027 2.87881 0
M  V30 8923 C 825.599 -1.41888 3.99661 0
M  V30 8924 N 825.99 -0.681465 5.01188 0
M  V30 8925 C 824.288 -1.70447 4.12145 0
M  V30 8926 C 824.989 -0.448285 5.7997 0
M  V30 8927 N 823.965 -1.01137 5.34109 0
M  V30 8928 H 827.767 -0.100321 2.93729 0
M  V30 8929 H 825.281 0.0452371 1.62337 0
M  V30 8930 H 827.278 -2.53674 3.3084 0
M  V30 8931 H 825.938 -2.44613 2.13529 0
M  V30 8932 H 826.949 -0.331959 5.16835 0
M  V30 8933 H 823.626 -2.29198 3.48962 0
M  V30 8934 H 825.016 0.140141 6.71754 0
M  V30 8935 N 827.736 -1.57571 -0.0300757 0
M  V30 8936 C 829.147 -1.77567 -0.576802 0
M  V30 8937 C 829.498 -0.874034 -1.75656 0
M  V30 8938 O 828.623 -0.0686124 -2.16291 0
M  V30 8939 C 829.218 -3.22016 -1.05315 0
M  V30 8940 C 827.777 -3.43212 -1.5454 0
M  V30 8941 C 826.924 -2.73061 -0.483033 0
M  V30 8942 H 829.875 -1.57483 0.196151 0
M  V30 8943 H 829.896 -3.28474 -1.92055 0
M  V30 8944 H 829.408 -3.87613 -0.194298 0
M  V30 8945 H 827.509 -2.82788 -2.42615 0
M  V30 8946 H 827.622 -4.5182 -1.5936 0
M  V30 8947 H 825.986 -2.36805 -0.937835 0
M  V30 8948 H 826.769 -3.4134 0.366341 0
M  V30 8949 N 829.214 0.302327 -1.54673 0
M  V30 8950 C 830.161 1.37282 -1.85532 0
M  V30 8951 C 831.131 1.50437 -0.704129 0
M  V30 8952 O 832.316 1.65317 -0.952627 0
M  V30 8953 C 829.456 2.73309 -2.10704 0
M  V30 8954 C 828.569 2.68614 -3.38335 0
M  V30 8955 C 827.704 3.96626 -3.53357 0
M  V30 8956 C 826.743 3.86324 -4.74784 0
M  V30 8957 N 825.88 5.06109 -4.86619 0
M  V30 8958 H 830.72 1.10265 -2.76849 0
M  V30 8959 H 828.257 0.533346 -1.37091 0
M  V30 8960 H 830.215 3.52414 -2.23294 0
M  V30 8961 H 828.845 2.98589 -1.22656 0
M  V30 8962 H 827.897 1.81381 -3.34373 0
M  V30 8963 H 829.209 2.56891 -4.27561 0
M  V30 8964 H 828.363 4.84168 -3.65604 0
M  V30 8965 H 827.102 4.11182 -2.62261 0
M  V30 8966 H 826.107 2.97166 -4.62572 0
M  V30 8967 H 827.332 3.73315 -5.67286 0
M  V30 8968 H 825.278 5.2113 -3.98446 0
M  V30 8969 H 825.195 4.96804 -5.69844 0
M  V30 8970 H 826.463 5.95306 -5.03221 0
M  V30 8971 N 830.692 1.47107 0.565454 0
M  V30 8972 C 831.939 1.53308 1.32299 0
M  V30 8973 C 832.267 0.1919 1.93551 0
M  V30 8974 O 831.522 -0.81435 1.77952 0
M  V30 8975 C 831.821 2.59309 2.45954 0
M  V30 8976 C 831.487 4.02827 2.02586 0
M  V30 8977 C 830.149 4.41897 1.90474 0
M  V30 8978 C 832.501 4.92913 1.6937 0
M  V30 8979 C 829.829 5.68898 1.4343 0
M  V30 8980 C 832.181 6.20368 1.238 0
M  V30 8981 C 830.845 6.58327 1.10278 0
M  V30 8982 H 830.115 0.560993 0.484116 0
M  V30 8983 H 832.762 1.80667 0.634965 0
M  V30 8984 H 831.067 2.25676 3.20277 0
M  V30 8985 H 832.764 2.61332 3.04149 0
M  V30 8986 H 829.354 3.71953 2.12952 0
M  V30 8987 H 833.538 4.63433 1.77605 0
M  V30 8988 H 828.794 5.97065 1.31618 0
M  V30 8989 H 832.968 6.89589 0.971586 0
M  V30 8990 H 830.595 7.56628 0.736027 0
M  V30 8991 N 832.17 -0.811516 1.35101 0
M  V30 8992 C 833.102 -1.93102 1.23468 0
M  V30 8993 C 834.115 -1.62021 0.159095 0
M  V30 8994 O 835.304 -1.73682 0.411945 0
M  V30 8995 C 832.404 -3.27345 0.877404 0
M  V30 8996 C 831.577 -3.86368 2.05033 0
M  V30 8997 C 830.636 -4.99009 1.66963 0
M  V30 8998 O 829.662 -5.16698 2.38772 0
M  V30 8999 N 830.864 -5.7749 0.590394 0
M  V30 9000 H 833.629 -2.0361 2.19916 0
M  V30 9001 H 831.19 -0.988687 1.28205 0
M  V30 9002 H 833.182 -4.00163 0.604298 0
M  V30 9003 H 831.752 -3.126 0.00275267 0
M  V30 9004 H 830.972 -3.05804 2.48752 0
M  V30 9005 H 832.26 -4.22533 2.83449 0
M  V30 9006 H 831.658 -5.657 -0.00633259 0
M  V30 9007 H 830.215 -6.50708 0.377055 0
M  V30 9008 N 833.648 -1.19017 -1.03309 0
M  V30 9009 C 834.595 -0.924088 -2.11493 0
M  V30 9010 C 835.565 0.139464 -1.65513 0
M  V30 9011 O 836.75 -0.00178761 -1.908 0
M  V30 9012 C 833.89 -0.464255 -3.41963 0
M  V30 9013 C 833.003 -1.5941 -4.01513 0
M  V30 9014 C 832.138 -1.08622 -5.19976 0
M  V30 9015 C 831.177 -2.19024 -5.71572 0
M  V30 9016 N 830.314 -1.69575 -6.81314 0
M  V30 9017 H 835.154 -1.85039 -2.33591 0
M  V30 9018 H 832.691 -0.922593 -1.14572 0
M  V30 9019 H 834.649 -0.179078 -4.16815 0
M  V30 9020 H 833.279 0.425062 -3.19989 0
M  V30 9021 H 832.331 -1.99458 -3.23915 0
M  V30 9022 H 833.643 -2.42604 -4.35826 0
M  V30 9023 H 832.797 -0.756022 -6.01971 0
M  V30 9024 H 831.536 -0.223955 -4.87186 0
M  V30 9025 H 830.541 -2.5288 -4.88193 0
M  V30 9026 H 831.766 -3.05699 -6.06403 0
M  V30 9027 H 829.712 -0.856494 -6.50385 0
M  V30 9028 H 829.629 -2.46361 -7.14732 0
M  V30 9029 H 830.897 -1.39505 -7.66915 0
M  V30 9030 N 835.127 1.22348 -0.993418 0
M  V30 9031 C 836.538 1.72893 -0.704616 0
M  V30 9032 C 836.889 1.80095 0.778483 0
M  V30 9033 O 836.014 1.4476 1.60853 0
M  V30 9034 C 836.609 3.14 -1.27237 0
M  V30 9035 C 835.168 3.61949 -1.03294 0
M  V30 9036 C 834.315 2.39816 -1.39225 0
M  V30 9037 H 837.266 1.07688 -1.16572 0
M  V30 9038 H 837.287 3.74886 -0.651212 0
M  V30 9039 H 836.799 3.08727 -2.3518 0
M  V30 9040 H 834.9 3.72588 0.0298329 0
M  V30 9041 H 835.013 4.48051 -1.69668 0
M  V30 9042 H 833.377 2.41448 -0.810849 0
M  V30 9043 H 834.16 2.37203 -2.48172 0
M  V30 9044 N 836.605 0.766683 1.37694 0
M  V30 9045 C 837.552 0.147725 2.30327 0
M  V30 9046 C 838.522 -0.695366 1.50844 0
M  V30 9047 O 839.707 -0.64878 1.79431 0
M  V30 9048 C 836.847 -0.72935 3.37305 0
M  V30 9049 C 835.96 0.129795 4.31805 0
M  V30 9050 C 835.095 -0.751511 5.25857 0
M  V30 9051 C 834.134 0.110475 6.12 0
M  V30 9052 N 833.271 -0.728522 6.9831 0
M  V30 9053 H 838.111 0.943204 2.82679 0
M  V30 9054 H 835.648 0.476736 1.3916 0
M  V30 9055 H 837.606 -1.25263 3.97951 0
M  V30 9056 H 836.236 -1.49048 2.86329 0
M  V30 9057 H 835.288 0.770829 3.72508 0
M  V30 9058 H 836.6 0.794923 4.92425 0
M  V30 9059 H 835.754 -1.34146 5.91684 0
M  V30 9060 H 834.493 -1.45034 4.65636 0
M  V30 9061 H 833.498 0.712999 5.45157 0
M  V30 9062 H 834.723 0.806557 6.74293 0
M  V30 9063 H 832.669 -1.41206 6.40622 0
M  V30 9064 H 832.586 -0.12058 7.55904 0
M  V30 9065 H 833.854 -1.30303 7.68532 0
M  V30 9066 N 838.083 -1.48885 0.516809 0
M  V30 9067 C 839.015 -2.27357 -0.290061 0
M  V30 9068 C 840.028 -1.34558 -0.916406 0
M  V30 9069 O 841.217 -1.59715 -0.797073 0
M  V30 9070 C 838.317 -3.07496 -1.42476 0
M  V30 9071 C 837.49 -4.27982 -0.902793 0
M  V30 9072 C 836.549 -4.90038 -1.91701 0
M  V30 9073 O 835.575 -5.49643 -1.47922 0
M  V30 9074 N 836.777 -4.811 -3.24843 0
M  V30 9075 H 839.542 -2.97244 0.382884 0
M  V30 9076 H 837.103 -1.58064 0.35032 0
M  V30 9077 H 839.095 -3.45882 -2.10113 0
M  V30 9078 H 837.665 -2.40115 -2.00159 0
M  V30 9079 H 836.885 -3.94167 -0.0508272 0
M  V30 9080 H 838.173 -5.06003 -0.532723 0
M  V30 9081 H 837.571 -4.33801 -3.63088 0
M  V30 9082 H 836.128 -5.23625 -3.8815 0
M  V30 9083 N 839.561 -0.251338 -1.55583 0
M  V30 9084 C 840.491 0.640437 -2.24545 0
M  V30 9085 C 841.472 1.17781 -1.22726 0
M  V30 9086 O 842.657 1.21633 -1.5139 0
M  V30 9087 C 839.787 1.8355 -2.94834 0
M  V30 9088 C 838.741 1.4307 -4.03379 0
M  V30 9089 C 838.067 2.70695 -4.61116 0
M  V30 9090 C 839.367 0.59848 -5.1886 0
M  V30 9091 H 841.061 0.0653772 -2.99329 0
M  V30 9092 H 838.607 0.0300042 -1.43969 0
M  V30 9093 H 840.56 2.46505 -3.4178 0
M  V30 9094 H 839.284 2.43601 -2.17546 0
M  V30 9095 H 837.943 0.824474 -3.57209 0
M  V30 9096 H 837.591 3.28954 -3.80524 0
M  V30 9097 H 837.291 2.44332 -5.34393 0
M  V30 9098 H 838.815 3.34541 -5.10798 0
M  V30 9099 H 840.229 1.13244 -5.62004 0
M  V30 9100 H 838.626 0.430728 -5.98552 0
M  V30 9101 H 839.696 -0.38829 -4.83343 0
M  V30 9102 N 841.039 1.57585 0.0217189 0
M  V30 9103 C 841.986 2.07036 1.02004 0
M  V30 9104 C 842.956 0.96106 1.35473 0
M  V30 9105 O 844.141 1.23211 1.45684 0
M  V30 9106 C 841.281 2.56056 2.31364 0
M  V30 9107 C 840.394 3.80805 2.03989 0
M  V30 9108 C 839.529 4.18409 3.27272 0
M  V30 9109 C 838.568 5.36055 2.95486 0
M  V30 9110 N 837.705 5.69056 4.11242 0
M  V30 9111 H 842.545 2.92073 0.591396 0
M  V30 9112 H 840.082 1.44403 0.280384 0
M  V30 9113 H 842.04 2.82548 3.06957 0
M  V30 9114 H 840.67 1.73925 2.71937 0
M  V30 9115 H 839.722 3.61354 1.1886 0
M  V30 9116 H 841.034 4.66512 1.76546 0
M  V30 9117 H 840.188 4.46068 4.11228 0
M  V30 9118 H 838.927 3.31369 3.57835 0
M  V30 9119 H 837.932 5.08142 2.09933 0
M  V30 9120 H 839.157 6.24755 2.66193 0
M  V30 9121 H 837.103 4.84974 4.41742 0
M  V30 9122 H 837.02 6.49288 3.87247 0
M  V30 9123 H 838.288 6.01295 4.96049 0
M  V30 9124 N 842.517 -0.29412 1.54831 0
M  V30 9125 C 843.794 -1.04847 1.65126 0
M  V30 9126 C 844.174 -2.04996 0.503986 0
M  V30 9127 O 843.522 -2.22996 -0.498496 0
M  V30 9128 C 843.732 -1.72418 3.03435 0
M  V30 9129 C 845.08 -2.24362 3.60481 0
M  V30 9130 O 846.104 -1.8244 3.05932 0
M  V30 9131 O 844.963 -3.01196 4.56008 0
M  V30 9132 H 842.057 -0.485032 0.669831 0
M  V30 9133 H 844.603 -0.291659 1.67175 0
M  V30 9134 H 843.375 -0.997351 3.78376 0
M  V30 9135 H 842.998 -2.54839 3.05193 0
M  V30 9136 N 843.995 -1.47404 -0.557645 0
M  V30 9137 C 844.942 -1.59859 -1.66475 0
M  V30 9138 C 845.912 -0.441644 -1.60121 0
M  V30 9139 O 847.097 -0.661641 -1.78961 0
M  V30 9140 C 844.237 -1.61843 -3.04797 0
M  V30 9141 C 843.35 -2.8845 -3.2159 0
M  V30 9142 C 842.485 -2.81773 -4.50308 0
M  V30 9143 C 841.524 -4.03208 -4.60532 0
M  V30 9144 N 840.661 -3.94769 -5.80604 0
M  V30 9145 H 845.501 -2.54415 -1.55168 0
M  V30 9146 H 843.038 -1.26194 -0.755876 0
M  V30 9147 H 844.996 -1.60976 -3.84893 0
M  V30 9148 H 843.626 -0.707997 -3.1494 0
M  V30 9149 H 842.678 -2.99186 -2.34929 0
M  V30 9150 H 843.99 -3.78379 -3.25009 0
M  V30 9151 H 843.144 -2.79153 -5.38663 0
M  V30 9152 H 841.883 -1.89527 -4.49367 0
M  V30 9153 H 840.888 -4.06133 -3.70589 0
M  V30 9154 H 842.113 -4.9658 -4.63233 0
M  V30 9155 H 840.059 -3.05326 -5.80613 0
M  V30 9156 H 839.976 -4.78375 -5.854 0
M  V30 9157 H 841.244 -3.96165 -6.71322 0
M  V30 9158 N 845.473 0.80434 -1.35529 0
M  V30 9159 C 846.701 1.59283 -1.32048 0
M  V30 9160 C 847.116 1.88527 0.101556 0
M  V30 9161 O 846.473 1.48975 1.05417 0
M  V30 9162 C 846.524 2.92276 -2.12737 0
M  V30 9163 O 846.245 2.64299 -3.49396 0
M  V30 9164 C 847.746 3.86631 -2.16867 0
M  V30 9165 H 844.966 0.494523 -0.453528 0
M  V30 9166 H 847.51 0.999415 -1.78415 0
M  V30 9167 H 845.665 3.48125 -1.69964 0
M  V30 9168 H 846.079 3.4923 -3.91329 0
M  V30 9169 H 847.553 4.77053 -2.77712 0
M  V30 9170 H 848.03 4.23384 -1.16803 0
M  V30 9171 H 848.636 3.36717 -2.59811 0
M  V30 9172 N 846.951 1.19563 1.02676 0
M  V30 9173 C 847.861 0.950691 2.14474 0
M  V30 9174 C 848.877 -0.0900219 1.73767 0
M  V30 9175 O 850.053 0.0951063 2.01175 0
M  V30 9176 C 847.118 0.494917 3.43149 0
M  V30 9177 C 846.179 1.60527 3.98158 0
M  V30 9178 C 845.412 1.17115 5.20692 0
M  V30 9179 O 845.635 0.0355937 5.70389 0
M  V30 9180 O 844.569 1.97454 5.68591 0
M  V30 9181 H 848.395 1.88651 2.38001 0
M  V30 9182 H 845.98 0.978635 1.12885 0
M  V30 9183 H 847.862 0.249492 4.20661 0
M  V30 9184 H 846.537 -0.412434 3.21062 0
M  V30 9185 H 845.444 1.90487 3.21971 0
M  V30 9186 H 846.777 2.48925 4.24614 0
M  V30 9187 N 848.429 -1.21819 0.999893 0
M  V30 9188 C 849.676 -1.90752 0.679694 0
M  V30 9189 C 850.004 -1.77777 -0.789014 0
M  V30 9190 O 849.259 -1.14518 -1.58695 0
M  V30 9191 C 849.558 -3.4193 1.04012 0
M  V30 9192 C 849.224 -3.75098 2.50225 0
M  V30 9193 C 847.886 -3.83861 2.90179 0
M  V30 9194 C 850.238 -3.90706 3.44961 0
M  V30 9195 C 847.566 -4.05676 4.23844 0
M  V30 9196 C 849.918 -4.14027 4.78294 0
M  V30 9197 C 848.582 -4.21016 5.17979 0
M  V30 9198 H 847.852 -0.698012 0.248718 0
M  V30 9199 H 850.499 -1.44437 1.25738 0
M  V30 9200 H 848.804 -3.89947 0.380606 0
M  V30 9201 H 850.501 -3.93532 0.770301 0
M  V30 9202 H 847.091 -3.68865 2.18258 0
M  V30 9203 H 851.275 -3.83307 3.15261 0
M  V30 9204 H 846.531 -4.09316 4.5417 0
M  V30 9205 H 850.705 -4.25046 5.51642 0
M  V30 9206 H 848.332 -4.37672 6.21568 0
M  V30 9207 N 849.908 -0.773975 -1.37286 0
M  V30 9208 C 851.133 -0.349561 -2.04433 0
M  V30 9209 C 851.558 1.02082 -1.5799 0
M  V30 9210 O 850.916 1.65458 -0.741172 0
M  V30 9211 C 850.964 -0.404292 -3.58326 0
M  V30 9212 O 850.068 0.594447 -4.08093 0
M  V30 9213 H 849.409 -0.150959 -0.646612 0
M  V30 9214 H 851.939 -1.05079 -1.75555 0
M  V30 9215 H 851.949 -0.262378 -4.07155 0
M  V30 9216 H 850.624 -1.40403 -3.91484 0
M  V30 9217 H 849.201 0.415468 -3.70578 0
M  V30 9218 N 851.386 1.48609 -0.524698 0
M  V30 9219 C 852.635 2.01696 0.0132937 0
M  V30 9220 C 852.948 1.40751 1.35825 0
M  V30 9221 O 854.154 1.85304 1.9843 0
M  V30 9222 C 852.61 3.59824 0.0741012 0
M  V30 9223 C 852.218 4.2975 -1.26564 0
M  V30 9224 C 853.962 4.20774 0.5612 0
M  V30 9225 C 851.869 5.79798 -1.16571 0
M  V30 9226 H 850.799 0.753949 0.00873931 0
M  V30 9227 H 853.45 1.70922 -0.667684 0
M  V30 9228 H 851.832 3.87416 0.820043 0
M  V30 9229 H 853.006 4.13836 -2.02674 0
M  V30 9230 H 851.321 3.80649 -1.68806 0
M  V30 9231 H 853.918 5.30687 0.653853 0
M  V30 9232 H 854.261 3.85734 1.56573 0
M  V30 9233 H 854.794 3.97591 -0.128901 0
M  V30 9234 H 851.533 6.19403 -2.14523 0
M  V30 9235 H 851.053 5.9814 -0.445894 0
M  V30 9236 H 852.732 6.41337 -0.854186 0
M  V30 9237 N 852.864 0.259585 1.55447 0
M  V30 9238 C 854.113 -0.362163 1.98422 0
M  V30 9239 C 854.426 -1.58135 1.1512 0
M  V30 9240 O 855.632 -2.27506 1.48166 0
M  V30 9241 C 854.088 -0.695722 3.53111 0
M  V30 9242 C 853.696 0.502784 4.4517 0
M  V30 9243 C 855.44 -1.28096 4.04712 0
M  V30 9244 C 853.347 0.144674 5.91223 0
M  V30 9245 H 852.277 -0.139092 0.74106 0
M  V30 9246 H 854.928 0.361798 1.79898 0
M  V30 9247 H 853.31 -1.47816 3.67378 0
M  V30 9248 H 854.484 1.27994 4.42667 0
M  V30 9249 H 852.799 1.0038 4.0412 0
M  V30 9250 H 855.396 -1.56243 5.11363 0
M  V30 9251 H 855.739 -2.20969 3.52815 0
M  V30 9252 H 856.272 -0.561146 3.93822 0
M  V30 9253 H 853.011 1.04087 6.47183 0
M  V30 9254 H 852.531 -0.596023 5.96831 0
M  V30 9255 H 854.21 -0.268651 6.46442 0
M  V30 9256 N 854.342 -1.57594 -0.0133615 0
M  V30 9257 C 855.292 -2.04048 -1.01726 0
M  V30 9258 C 856.276 -0.932682 -1.3111 0
M  V30 9259 O 857.468 -1.19652 -1.30432 0
M  V30 9260 C 854.597 -2.53637 -2.31351 0
M  V30 9261 C 853.683 -3.71269 -2.04989 0
M  V30 9262 N 854.074 -4.83436 -1.48739 0
M  V30 9263 C 852.372 -3.78943 -2.35198 0
M  V30 9264 C 853.073 -5.64961 -1.38542 0
M  V30 9265 N 852.049 -5.10554 -1.86643 0
M  V30 9266 H 855.851 -2.88188 -0.576623 0
M  V30 9267 H 853.365 -1.60912 -0.219344 0
M  V30 9268 H 855.362 -2.85186 -3.04096 0
M  V30 9269 H 854.022 -1.7091 -2.76079 0
M  V30 9270 H 855.033 -5.04558 -1.16798 0
M  V30 9271 H 851.71 -3.07047 -2.82893 0
M  V30 9272 H 853.1 -6.65092 -0.954075 0
M  V30 9273 N 855.82 0.285905 -1.54985 0
M  V30 9274 C 857.05 1.03626 -1.78732 0
M  V30 9275 C 857.458 1.80896 -0.554377 0
M  V30 9276 O 856.801 1.77161 0.48578 0
M  V30 9277 C 856.863 2.05185 -2.95193 0
M  V30 9278 C 856.527 1.46973 -4.32722 0
M  V30 9279 C 857.524 0.891986 -5.12191 0
M  V30 9280 C 855.209 1.50081 -4.79355 0
M  V30 9281 C 857.203 0.353078 -6.36421 0
M  V30 9282 C 854.89 0.958037 -6.03544 0
M  V30 9283 C 855.888 0.385157 -6.81913 0
M  V30 9284 O 855.576 -0.149341 -8.03761 0
M  V30 9285 H 855.308 0.312416 -0.599477 0
M  V30 9286 H 857.862 0.326067 -2.02795 0
M  V30 9287 H 856.092 2.79928 -2.66791 0
M  V30 9288 H 857.781 2.66244 -3.0638 0
M  V30 9289 H 858.547 0.860762 -4.77301 0
M  V30 9290 H 854.426 1.9361 -4.18373 0
M  V30 9291 H 857.97 -0.0947181 -6.97536 0
M  V30 9292 H 853.867 0.986458 -6.37918 0
M  V30 9293 H 854.635 -0.0374719 -8.18491 0
M  V30 9294 N 857.298 1.47698 0.54982 0
M  V30 9295 C 858.261 1.60282 1.63837 0
M  V30 9296 C 859.261 0.477394 1.5355 0
M  V30 9297 O 860.451 0.742665 1.57576 0
M  V30 9298 C 857.583 1.55431 3.03404 0
M  V30 9299 H 858.776 2.57325 1.54026 0
M  V30 9300 H 856.329 1.35999 0.770329 0
M  V30 9301 H 857.064 0.597912 3.1874 0
M  V30 9302 H 856.849 2.37116 3.12279 0
M  V30 9303 H 858.339 1.6739 3.82584 0
M  V30 9304 N 858.776 -0.797141 1.35954 0
M  V30 9305 C 860.024 -1.55161 1.29497 0
M  V30 9306 C 860.345 -1.94582 -0.127659 0
M  V30 9307 O 859.615 -1.64343 -1.06622 0
M  V30 9308 H 858.195 -0.575413 0.47635 0
M  V30 9309 H 860.857 -0.950282 1.70164 0
M  V30 9310 H 859.953 -2.46272 1.9172 0
M  V30 9311 N 860.254 -1.20106 -1.0204 0
M  V30 9312 C 861.201 -0.946468 -2.10501 0
M  V30 9313 C 862.171 0.121902 -1.65652 0
M  V30 9314 O 863.356 -0.0220244 -1.90787 0
M  V30 9315 C 860.496 -0.500499 -3.41451 0
M  V30 9316 C 859.609 -1.63659 -3.998 0
M  V30 9317 C 858.744 -1.14131 -5.18794 0
M  V30 9318 C 857.783 -2.25074 -5.69217 0
M  V30 9319 N 856.92 -1.76791 -6.79477 0
M  V30 9320 H 861.76 -1.87506 -2.31615 0
M  V30 9321 H 859.297 -0.934693 -1.13587 0
M  V30 9322 H 861.255 -0.223276 -4.16602 0
M  V30 9323 H 859.885 0.391099 -3.20422 0
M  V30 9324 H 858.937 -2.02882 -3.21781 0
M  V30 9325 H 860.249 -2.47213 -4.33229 0
M  V30 9326 H 859.403 -0.819826 -6.01135 0
M  V30 9327 H 858.142 -0.275615 -4.86921 0
M  V30 9328 H 857.147 -2.58043 -4.85483 0
M  V30 9329 H 858.372 -3.12114 -6.03127 0
M  V30 9330 H 856.318 -0.925428 -6.4944 0
M  V30 9331 H 856.235 -2.53928 -7.12079 0
M  V30 9332 H 857.503 -1.47631 -7.65392 0
M  V30 9333 N 861.732 1.21287 -1.00634 0
M  V30 9334 C 862.978 1.90671 -0.690822 0
M  V30 9335 C 863.311 1.77996 0.776592 0
M  V30 9336 O 862.586 1.15748 1.5631 0
M  V30 9337 C 862.869 3.42426 -1.11428 0
M  V30 9338 C 862.722 3.64086 -2.64124 0
M  V30 9339 C 864.041 4.34851 -0.677686 0
M  V30 9340 H 861.16 0.692419 -0.252439 0
M  V30 9341 H 863.802 1.42893 -1.25226 0
M  V30 9342 H 861.952 3.83249 -0.636586 0
M  V30 9343 H 863.624 3.32582 -3.19667 0
M  V30 9344 H 861.867 3.07906 -3.05576 0
M  V30 9345 H 862.538 4.7042 -2.88806 0
M  V30 9346 H 865.014 4.01619 -1.0882 0
M  V30 9347 H 863.89 5.39675 -1.00213 0
M  V30 9348 H 864.151 4.4009 0.421125 0
M  V30 9349 N 863.21 0.781244 1.36873 0
M  V30 9350 C 864.487 0.274217 1.93668 0
M  V30 9351 C 864.867 -1.2323 1.71399 0
M  V30 9352 O 864.215 -2.01993 1.06822 0
M  V30 9353 C 864.425 0.657939 3.42742 0
M  V30 9354 C 865.773 0.63307 4.19854 0
M  V30 9355 O 866.797 0.597909 3.51146 0
M  V30 9356 O 865.656 0.668636 5.42394 0
M  V30 9357 H 862.75 0.0658059 0.824378 0
M  V30 9358 H 865.296 0.863238 1.46104 0
M  V30 9359 H 864.068 1.69728 3.52573 0
M  V30 9360 H 863.691 0.0423678 3.97577 0
M  V30 9361 N 864.689 -1.48329 0.532571 0
M  V30 9362 C 865.919 -2.066 0.00353785 0
M  V30 9363 C 866.327 -1.38913 -1.28451 0
M  V30 9364 O 865.67 -0.471385 -1.77549 0
M  V30 9365 C 865.732 -3.58342 -0.288324 0
M  V30 9366 C 865.396 -4.47917 0.906631 0
M  V30 9367 C 866.393 -4.87534 1.80572 0
M  V30 9368 C 864.078 -4.89783 1.11436 0
M  V30 9369 C 866.072 -5.6779 2.89642 0
M  V30 9370 C 863.759 -5.69809 2.20819 0
M  V30 9371 C 864.757 -6.08721 3.09755 0
M  V30 9372 O 864.445 -6.8714 4.17246 0
M  V30 9373 H 864.177 -0.675263 0.0315661 0
M  V30 9374 H 866.731 -1.91669 0.738375 0
M  V30 9375 H 864.961 -3.71395 -1.07717 0
M  V30 9376 H 866.65 -3.98726 -0.759752 0
M  V30 9377 H 867.416 -4.5581 1.65719 0
M  V30 9378 H 863.295 -4.58977 0.431382 0
M  V30 9379 H 866.839 -5.98082 3.59087 0
M  V30 9380 H 862.736 -6.00947 2.35655 0
M  V30 9381 H 863.504 -7.05498 4.14988 0
M  V30 9382 N 866.167 -0.267825 -1.55308 0
M  V30 9383 C 867.115 0.638848 -2.23655 0
M  V30 9384 C 868.109 1.16363 -1.2311 0
M  V30 9385 O 869.315 1.1181 -1.41062 0
M  V30 9386 H 865.69 0.224551 -0.717691 0
M  V30 9387 H 867.661 0.0394809 -2.98374 0
M  V30 9388 C 866.41 1.8151 -2.96562 0
M  V30 9389 H 865.733 1.42048 -3.73715 0
M  V30 9390 H 867.173 2.42629 -3.47717 0
M  V30 9391 C 865.632 2.69911 -2.01618 0
M  V30 9392 O 866.162 3.70058 -1.56268 0
M  V30 9393 N 864.368 2.36924 -1.68272 0
M  V30 9394 H 863.915 1.55533 -2.05347 0
M  V30 9395 H 863.873 2.96343 -1.05016 0
M  V30 9396 N 867.645 1.57599 0.00500368 0
M  V30 9397 C 868.608 2.07058 0.982832 0
M  V30 9398 C 869.608 0.979045 1.27559 0
M  V30 9399 O 870.798 1.24187 1.22161 0
M  V30 9400 C 867.93 2.50782 2.30914 0
M  V30 9401 H 869.123 2.94718 0.555119 0
M  V30 9402 H 866.676 1.54249 0.25237 0
M  V30 9403 H 867.411 1.66351 2.78385 0
M  V30 9404 H 867.196 3.30495 2.10987 0
M  V30 9405 H 868.686 2.89391 3.0107 0
M  V30 9406 N 869.123 -0.277682 1.55134 0
M  V30 9407 C 870.348 -1.03254 1.7987 0
M  V30 9408 C 870.773 -1.79324 0.567861 0
M  V30 9409 O 870.131 -1.74764 -0.4824 0
M  V30 9410 C 870.179 -1.9705 3.02 0
M  V30 9411 O 869.283 -3.05744 2.76757 0
M  V30 9412 H 868.624 -0.295447 0.594649 0
M  V30 9413 H 871.154 -0.308013 2.02268 0
M  V30 9414 H 871.164 -2.3909 3.30606 0
M  V30 9415 H 869.839 -1.41094 3.91236 0
M  V30 9416 H 868.416 -2.68052 2.59235 0
M  V30 9417 N 870.601 -1.47988 -0.541979 0
M  V30 9418 C 871.564 -1.61148 -1.62984 0
M  V30 9419 C 872.564 -0.48553 -1.53295 0
M  V30 9420 O 873.754 -0.751012 -1.5718 0
M  V30 9421 C 870.886 -1.57038 -3.02576 0
M  V30 9422 H 872.079 -2.58138 -1.52659 0
M  V30 9423 H 869.632 -1.36405 -0.763106 0
M  V30 9424 H 870.367 -0.614807 -3.18419 0
M  V30 9425 H 870.152 -2.38769 -3.11018 0
M  V30 9426 H 871.642 -1.69416 -3.81691 0
M  V30 9427 N 872.079 0.78992 -1.36375 0
M  V30 9428 C 873.325 1.54939 -1.31778 0
M  V30 9429 C 873.68 1.92128 0.102327 0
M  V30 9430 O 872.973 1.59823 1.05675 0
M  V30 9431 C 873.167 2.83698 -2.17371 0
M  V30 9432 C 872.996 2.59093 -3.67561 0
M  V30 9433 C 871.766 2.5414 -4.36739 0
M  V30 9434 C 873.964 2.28325 -4.60838 0
M  V30 9435 N 871.946 2.21427 -5.72576 0
M  V30 9436 C 873.317 2.05596 -5.84919 0
M  V30 9437 C 875.372 2.14328 -4.49409 0
M  V30 9438 C 874.075 1.70285 -6.98853 0
M  V30 9439 C 876.101 1.80415 -5.63209 0
M  V30 9440 C 875.463 1.58533 -6.86328 0
M  V30 9441 H 871.562 0.568011 -0.537483 0
M  V30 9442 H 874.146 0.923183 -1.71422 0
M  V30 9443 H 872.317 3.44187 -1.79972 0
M  V30 9444 H 874.049 3.49425 -2.04167 0
M  V30 9445 H 870.804 2.69368 -3.89535 0
M  V30 9446 H 871.228 2.07818 -6.44314 0
M  V30 9447 H 875.87 2.29935 -3.54809 0
M  V30 9448 H 873.588 1.53415 -7.93404 0
M  V30 9449 H 877.174 1.70269 -5.56327 0
M  V30 9450 H 876.054 1.32677 -7.72895 0
M  V30 9451 N 873.557 1.20646 1.01402 0
M  V30 9452 C 874.487 0.98155 2.11867 0
M  V30 9453 C 875.468 -0.0903712 1.6986 0
M  V30 9454 O 876.653 0.0676586 1.94082 0
M  V30 9455 C 873.783 0.535636 3.43145 0
M  V30 9456 C 872.737 1.55109 3.98905 0
M  V30 9457 C 872.063 0.961725 5.2598 0
M  V30 9458 C 873.363 2.93552 4.32001 0
M  V30 9459 H 875.057 1.90544 2.3094 0
M  V30 9460 H 872.603 0.917554 1.10982 0
M  V30 9461 H 874.556 0.365512 4.19812 0
M  V30 9462 H 873.28 -0.423882 3.23838 0
M  V30 9463 H 871.939 1.70862 3.24348 0
M  V30 9464 H 871.587 -0.00580108 5.03 0
M  V30 9465 H 871.287 1.63993 5.64252 0
M  V30 9466 H 872.811 0.802726 6.053 0
M  V30 9467 H 874.225 2.81295 4.99546 0
M  V30 9468 H 872.622 3.58303 4.81393 0
M  V30 9469 H 873.692 3.4508 3.40658 0
M  V30 9470 N 875.035 -1.20752 1.01276 0
M  V30 9471 C 876.263 -1.94006 0.718976 0
M  V30 9472 C 876.678 -1.74544 -0.719711 0
M  V30 9473 O 876.035 -1.05697 -1.48776 0
M  V30 9474 C 876.086 -3.46208 1.04031 0
M  V30 9475 O 875.807 -3.65031 2.42248 0
M  V30 9476 C 877.308 -4.36614 0.767032 0
M  V30 9477 H 874.528 -0.616743 0.264327 0
M  V30 9478 H 877.072 -1.53352 1.3529 0
M  V30 9479 H 875.227 -3.84756 0.451852 0
M  V30 9480 H 875.641 -4.59054 2.53712 0
M  V30 9481 H 877.115 -5.42076 1.04198 0
M  V30 9482 H 877.592 -4.38182 -0.298851 0
M  V30 9483 H 878.198 -4.03723 1.33746 0
M  V30 9484 N 876.513 -0.788492 -1.36457 0
M  V30 9485 C 877.46 -0.18435 -2.30063 0
M  V30 9486 C 878.43 0.67128 -1.51931 0
M  V30 9487 O 879.615 0.620152 -1.8044 0
M  V30 9488 C 876.755 0.675596 -3.38422 0
M  V30 9489 C 875.868 -0.198475 -4.31544 0
M  V30 9490 C 875.003 0.667757 -5.26986 0
M  V30 9491 C 874.042 -0.207825 -6.11747 0
M  V30 9492 N 873.179 0.617335 -6.99381 0
M  V30 9493 H 878.019 -0.988056 -2.81143 0
M  V30 9494 H 875.556 -0.498815 -1.38384 0
M  V30 9495 H 877.514 1.18916 -3.99894 0
M  V30 9496 H 876.144 1.44474 -2.88664 0
M  V30 9497 H 875.196 -0.829995 -3.71235 0
M  V30 9498 H 876.508 -0.873163 -4.91098 0
M  V30 9499 H 875.662 1.24716 -5.93743 0
M  V30 9500 H 874.401 1.37607 -4.67884 0
M  V30 9501 H 873.406 -0.799638 -5.43954 0
M  V30 9502 H 874.631 -0.913729 -6.72925 0
M  V30 9503 H 872.577 1.30996 -6.42788 0
M  V30 9504 H 872.494 0.000307255 -7.56 0
M  V30 9505 H 873.762 1.1806 -7.70508 0
M  V30 9506 N 877.991 1.48044 -0.54043 0
M  V30 9507 C 878.939 2.31461 0.229862 0
M  V30 9508 C 879.933 1.41884 0.925495 0
M  V30 9509 O 881.139 1.58736 0.848689 0
M  V30 9510 H 877.514 0.746227 0.0929975 0
M  V30 9511 H 879.485 2.94297 -0.493118 0
M  V30 9512 C 878.234 3.24172 1.25729 0
M  V30 9513 H 877.557 3.93052 0.731426 0
M  V30 9514 H 878.997 3.85404 1.76747 0
M  V30 9515 C 877.456 2.4651 2.2964 0
M  V30 9516 O 877.986 2.19742 3.36268 0
M  V30 9517 N 876.192 2.07817 2.03127 0
M  V30 9518 H 875.739 2.29786 1.1643 0
M  V30 9519 H 875.697 1.56168 2.72872 0
M  V30 9520 N 879.47 0.276058 1.55163 0
M  V30 9521 C 880.403 -0.652386 2.18676 0
M  V30 9522 C 881.381 -1.15151 1.148 0
M  V30 9523 O 882.565 -1.22431 1.43328 0
M  V30 9524 C 879.692 -1.88982 2.81076 0
M  V30 9525 C 878.738 -1.52609 3.98262 0
M  V30 9526 S 879.571 -0.603445 5.32089 0
M  V30 9527 C 880.727 -1.84923 5.97958 0
M  V30 9528 H 880.96 -0.112733 2.97086 0
M  V30 9529 H 878.493 0.0603118 1.54282 0
M  V30 9530 H 880.451 -2.60007 3.17658 0
M  V30 9531 H 879.112 -2.40061 2.02557 0
M  V30 9532 H 878.305 -2.44689 4.40617 0
M  V30 9533 H 877.907 -0.89601 3.63108 0
M  V30 9534 H 880.199 -2.79303 6.17249 0
M  V30 9535 H 881.142 -1.46868 6.92702 0
M  V30 9536 H 881.55 -2.0146 5.27327 0
M  V30 9537 N 880.948 -1.576 0.00335426 0
M  V30 9538 C 882.225 -1.81945 -0.718015 0
M  V30 9539 C 882.605 -0.881788 -1.91801 0
M  V30 9540 O 881.953 0.0687118 -2.28397 0
M  V30 9541 C 882.163 -3.30521 -1.12058 0
M  V30 9542 C 883.511 -3.96345 -1.52303 0
M  V30 9543 O 884.535 -3.34864 -1.21428 0
M  V30 9544 O 883.394 -5.04655 -2.09728 0
M  V30 9545 H 880.488 -0.749328 -0.34991 0
M  V30 9546 H 883.034 -1.69675 0.0290654 0
M  V30 9547 H 881.806 -3.90399 -0.265378 0
M  V30 9548 H 881.429 -3.47802 -1.92665 0
M  V30 9549 N 882.426 0.269451 -1.5528 0
M  V30 9550 C 883.837 0.840233 -1.66724 0
M  V30 9551 C 884.188 1.86909 -0.596621 0
M  V30 9552 O 883.313 2.14817 0.261246 0
M  V30 9553 C 883.908 1.5308 -3.02245 0
M  V30 9554 C 882.467 2.04957 -3.15705 0
M  V30 9555 C 881.614 0.892838 -2.62533 0
M  V30 9556 H 884.565 0.0457236 -1.58634 0
M  V30 9557 H 884.586 2.39792 -2.95432 0
M  V30 9558 H 884.098 0.781741 -3.80145 0
M  V30 9559 H 882.199 2.82813 -2.42585 0
M  V30 9560 H 882.312 2.26244 -4.22316 0
M  V30 9561 H 880.676 1.28719 -2.19781 0
M  V30 9562 H 881.459 0.157229 -3.4294 0
M  V30 9563 N 883.904 1.48273 0.534124 0
M  V30 9564 C 884.834 1.6538 1.64839 0
M  V30 9565 C 885.815 0.502741 1.62501 0
M  V30 9566 O 887 0.734799 1.79762 0
M  V30 9567 C 884.13 1.68949 3.03436 0
M  V30 9568 C 883.084 2.83513 3.20631 0
M  V30 9569 C 882.41 2.72169 4.60248 0
M  V30 9570 C 883.71 4.24858 3.03797 0
M  V30 9571 H 885.404 2.58663 1.50777 0
M  V30 9572 H 882.95 1.24479 0.723937 0
M  V30 9573 H 884.903 1.79505 3.81256 0
M  V30 9574 H 883.627 0.722415 3.1851 0
M  V30 9575 H 882.286 2.72505 2.45227 0
M  V30 9576 H 881.934 1.7344 4.72152 0
M  V30 9577 H 881.634 3.49042 4.72698 0
M  V30 9578 H 883.158 2.84687 5.40172 0
M  V30 9579 H 884.572 4.36721 3.71413 0
M  V30 9580 H 882.969 5.02697 3.27743 0
M  V30 9581 H 884.039 4.41611 2.0027 0
M  V30 9582 N 885.382 -0.782676 1.36792 0
M  V30 9583 C 886.33 -1.91698 1.31737 0
M  V30 9584 C 887.324 -1.68118 0.207994 0
M  V30 9585 O 888.53 -1.76042 0.375393 0
M  V30 9586 H 884.905 -0.630215 0.410284 0
M  V30 9587 H 886.876 -1.93078 2.27516 0
M  V30 9588 C 885.625 -3.28816 1.13029 0
M  V30 9589 H 884.948 -3.4753 1.97643 0
M  V30 9590 H 886.388 -4.08515 1.13541 0
M  V30 9591 C 884.847 -3.36497 -0.1647 0
M  V30 9592 O 885.377 -3.84822 -1.15216 0
M  V30 9593 N 883.583 -2.89828 -0.211678 0
M  V30 9594 H 883.13 -2.50693 0.59252 0
M  V30 9595 H 883.088 -2.95349 -1.07779 0
M  V30 9596 N 886.86 -1.21182 -1.00761 0
M  V30 9597 C 888.137 -0.936297 -1.71735 0
M  V30 9598 C 888.517 0.552585 -2.03739 0
M  V30 9599 O 887.865 1.51672 -1.70903 0
M  V30 9600 C 888.075 -1.81867 -2.97868 0
M  V30 9601 C 889.423 -2.06594 -3.7095 0
M  V30 9602 O 890.447 -1.79194 -3.07844 0
M  V30 9603 O 889.306 -2.5292 -4.84452 0
M  V30 9604 H 886.4 -0.350867 -0.74888 0
M  V30 9605 H 888.946 -1.32098 -1.06527 0
M  V30 9606 H 887.718 -2.82643 -2.70607 0
M  V30 9607 H 887.341 -1.43463 -3.70815 0
M  V30 9608 N 888.338 1.20213 -1.01915 0
M  V30 9609 C 889.286 2.25125 -0.584936 0
M  V30 9610 C 890.28 1.65138 0.377602 0
M  V30 9611 O 891.486 1.78294 0.247245 0
M  V30 9612 H 887.861 0.732333 -0.170858 0
M  V30 9613 H 889.832 2.59075 -1.48063 0
M  V30 9614 C 888.581 3.47651 0.058389 0
M  V30 9615 H 887.904 3.9409 -0.673263 0
M  V30 9616 H 889.344 4.2275 0.325285 0
M  V30 9617 C 887.803 3.10725 1.30199 0
M  V30 9618 O 888.333 3.22491 2.39505 0
M  V30 9619 N 886.539 2.6525 1.18706 0
M  V30 9620 H 886.086 2.55875 0.297618 0
M  V30 9621 H 886.044 2.40913 2.02011 0
M  V30 9622 N 889.816 0.795718 1.36037 0
M  V30 9623 C 891.062 0.371574 1.99367 0
M  V30 9624 C 891.395 -1.0557 1.62999 0
M  V30 9625 O 890.67 -1.73051 0.887895 0
M  V30 9626 C 890.953 0.542622 3.55988 0
M  V30 9627 C 890.806 2.01404 4.0219 0
M  V30 9628 C 892.125 -0.0384527 4.40083 0
M  V30 9629 H 889.244 0.136483 0.724252 0
M  V30 9630 H 891.886 1.00323 1.61355 0
M  V30 9631 H 890.036 0.0049053 3.885 0
M  V30 9632 H 891.708 2.6133 3.80137 0
M  V30 9633 H 889.951 2.51439 3.53498 0
M  V30 9634 H 890.622 2.08466 5.11122 0
M  V30 9635 H 893.098 0.420634 4.13968 0
M  V30 9636 H 891.974 0.111214 5.48787 0
M  V30 9637 H 892.235 -1.13116 4.27384 0
M  V30 9638 N 891.294 -1.47756 0.548274 0
M  V30 9639 C 892.522 -2.06884 0.0254873 0
M  V30 9640 C 892.937 -1.40225 -1.26422 0
M  V30 9641 O 892.294 -0.495776 -1.75637 0
M  V30 9642 C 892.345 -3.61036 -0.183134 0
M  V30 9643 O 892.066 -4.25195 1.05549 0
M  V30 9644 C 893.567 -4.37008 -0.744222 0
M  V30 9645 H 890.787 -0.669697 0.041789 0
M  V30 9646 H 893.331 -1.89888 0.759138 0
M  V30 9647 H 891.486 -3.77576 -0.866886 0
M  V30 9648 H 891.9 -5.17606 0.847629 0
M  V30 9649 H 893.374 -5.45579 -0.839529 0
M  V30 9650 H 893.851 -4.0268 -1.75344 0
M  V30 9651 H 894.457 -4.25191 -0.0964542 0
M  V30 9652 N 892.772 -0.284283 -1.55015 0
M  V30 9653 C 893.997 0.335799 -2.04664 0
M  V30 9654 C 894.422 1.47999 -1.16094 0
M  V30 9655 O 893.78 1.8058 -0.161454 0
M  V30 9656 C 893.828 0.785615 -3.51938 0
M  V30 9657 O 892.932 1.89202 -3.66437 0
M  V30 9658 H 892.273 0.0680233 -0.660506 0
M  V30 9659 H 894.803 -0.421255 -2.00216 0
M  V30 9660 H 894.813 1.07892 -3.93476 0
M  V30 9661 H 893.488 -0.0514675 -4.15868 0
M  V30 9662 H 892.065 1.60055 -3.36804 0
M  V30 9663 N 894.251 1.57596 -0.0117121 0
M  V30 9664 C 895.181 2.12188 0.9746 0
M  V30 9665 C 896.162 1.03379 1.35081 0
M  V30 9666 O 897.347 1.31123 1.4325 0
M  V30 9667 C 894.477 2.63477 2.26268 0
M  V30 9668 C 893.431 3.76917 2.02774 0
M  V30 9669 C 892.757 4.14566 3.37697 0
M  V30 9670 C 894.057 5.03715 1.38089 0
M  V30 9671 H 895.751 2.9485 0.520007 0
M  V30 9672 H 893.297 1.41836 0.248685 0
M  V30 9673 H 895.25 3.00299 2.95633 0
M  V30 9674 H 893.974 1.77953 2.73862 0
M  V30 9675 H 892.633 3.40507 1.35832 0
M  V30 9676 H 892.281 3.26048 3.83016 0
M  V30 9677 H 891.981 4.91 3.22789 0
M  V30 9678 H 893.505 4.53956 4.08358 0
M  V30 9679 H 894.919 5.38233 1.97428 0
M  V30 9680 H 893.316 5.85032 1.33634 0
M  V30 9681 H 894.386 4.83624 0.351575 0
M  V30 9682 N 895.729 -0.261212 1.5542 0
M  V30 9683 C 896.659 -1.32712 1.92119 0
M  V30 9684 C 897.64 -1.50934 0.784406 0
M  V30 9685 O 898.825 -1.63781 1.04352 0
M  V30 9686 C 895.955 -2.68453 2.20341 0
M  V30 9687 C 894.909 -2.64947 3.36136 0
M  V30 9688 C 894.235 -4.04349 3.49865 0
M  V30 9689 C 895.535 -2.23182 4.72215 0
M  V30 9690 H 897.229 -1.02245 2.81401 0
M  V30 9691 H 894.775 -0.490406 1.35392 0
M  V30 9692 H 896.728 -3.43144 2.44603 0
M  V30 9693 H 895.452 -3.00527 1.27871 0
M  V30 9694 H 894.111 -1.92714 3.11861 0
M  V30 9695 H 893.759 -4.33665 2.5484 0
M  V30 9696 H 893.459 -4.02895 4.27726 0
M  V30 9697 H 894.983 -4.80761 3.76432 0
M  V30 9698 H 896.397 -2.87599 4.95943 0
M  V30 9699 H 894.794 -2.32867 5.53076 0
M  V30 9700 H 895.864 -1.18327 4.70241 0
M  V30 9701 N 897.207 -1.48554 -0.526253 0
M  V30 9702 C 898.155 -1.63804 -1.65139 0
M  V30 9703 C 899.149 -0.504398 -1.61716 0
M  V30 9704 O 900.355 -0.683241 -1.66529 0
M  V30 9705 H 896.73 -0.516071 -0.546969 0
M  V30 9706 H 898.701 -2.58294 -1.49421 0
M  V30 9707 C 897.45 -1.69843 -3.03395 0
M  V30 9708 H 896.773 -2.56438 -3.06724 0
M  V30 9709 H 898.213 -1.84555 -3.81727 0
M  V30 9710 C 896.672 -0.437875 -3.34042 0
M  V30 9711 O 897.202 0.447604 -3.99198 0
M  V30 9712 N 895.408 -0.308444 -2.88958 0
M  V30 9713 H 894.955 -1.02998 -2.36112 0
M  V30 9714 H 894.913 0.533952 -3.09833 0
M  V30 9715 N 898.685 0.775411 -1.37205 0
M  V30 9716 C 899.648 1.8702 -1.325 0
M  V30 9717 C 900.648 1.5915 -0.229793 0
M  V30 9718 O 901.838 1.673 -0.485423 0
M  V30 9719 C 898.97 3.24085 -1.05745 0
M  V30 9720 H 900.163 1.92604 -2.29878 0
M  V30 9721 H 897.716 0.97476 -1.22181 0
M  V30 9722 H 898.451 3.24178 -0.0888371 0
M  V30 9723 H 898.236 3.45705 -1.85016 0
M  V30 9724 H 899.726 4.0416 -1.05094 0
M  V30 9725 N 900.163 1.21714 1.00117 0
M  V30 9726 C 901.388 1.06357 1.78054 0
M  V30 9727 C 901.813 -0.382075 1.84179 0
M  V30 9728 O 901.171 -1.27575 1.28819 0
M  V30 9729 C 901.219 1.66982 3.19608 0
M  V30 9730 O 900.323 0.917892 4.02055 0
M  V30 9731 H 899.664 0.374074 0.548602 0
M  V30 9732 H 902.194 1.61338 1.25822 0
M  V30 9733 H 902.204 1.71363 3.70268 0
M  V30 9734 H 900.879 2.72185 3.14465 0
M  V30 9735 H 899.456 0.949473 3.6061 0
M  V30 9736 N 901.641 -1.19671 1.02551 0
M  V30 9737 C 902.866 -1.93774 0.739363 0
M  V30 9738 C 903.291 -1.74787 -0.695064 0
M  V30 9739 O 902.649 -1.04796 -1.47944 0
M  V30 9740 C 902.697 -3.43684 1.09149 0
M  V30 9741 O 901.801 -4.11874 0.208213 0
M  V30 9742 H 901.142 -0.605064 0.273484 0
M  V30 9743 H 903.672 -1.51846 1.37128 0
M  V30 9744 H 903.682 -3.94339 1.04695 0
M  V30 9745 H 902.357 -3.56826 2.13654 0
M  V30 9746 H 900.934 -3.716 0.311045 0
M  V30 9747 N 903.119 -0.802921 -1.35613 0
M  V30 9748 C 904.396 -0.304993 -1.93208 0
M  V30 9749 C 904.776 1.20488 -1.73337 0
M  V30 9750 O 904.124 2.00268 -1.10022 0
M  V30 9751 C 904.334 -0.712383 -3.41652 0
M  V30 9752 C 905.682 -0.699785 -4.18794 0
M  V30 9753 O 906.706 -0.653698 -3.5015 0
M  V30 9754 O 905.565 -0.754842 -5.41262 0
M  V30 9755 H 902.659 -0.0789127 -0.823226 0
M  V30 9756 H 905.205 -0.886372 -1.44712 0
M  V30 9757 H 903.977 -1.75316 -3.49829 0
M  V30 9758 H 903.6 -0.105614 -3.9746 0
M  V30 9759 N 904.597 1.47463 -0.556102 0
M  V30 9760 C 905.544 2.29998 0.192213 0
M  V30 9761 C 906.514 1.38993 0.909403 0
M  V30 9762 O 907.699 1.67954 0.905316 0
M  V30 9763 C 904.839 3.22932 1.21692 0
M  V30 9764 C 903.952 4.29027 0.505908 0
M  V30 9765 C 903.087 5.09114 1.51581 0
M  V30 9766 C 902.126 6.06984 0.789714 0
M  V30 9767 N 901.263 6.80033 1.74639 0
M  V30 9768 H 906.103 2.93468 -0.517734 0
M  V30 9769 H 903.64 1.44654 -0.267147 0
M  V30 9770 H 905.598 3.75234 1.8236 0
M  V30 9771 H 904.228 2.61329 1.89491 0
M  V30 9772 H 903.28 3.7979 -0.215276 0
M  V30 9773 H 904.592 4.9876 -0.062958 0
M  V30 9774 H 903.746 5.6556 2.19606 0
M  V30 9775 H 902.485 4.3928 2.11859 0
M  V30 9776 H 901.49 5.49717 0.0955382 0
M  V30 9777 H 902.715 6.78827 0.192688 0
M  V30 9778 H 900.661 6.12931 2.33777 0
M  V30 9779 H 900.578 7.45933 1.22965 0
M  V30 9780 H 901.846 7.41054 2.41782 0
M  V30 9781 N 906.075 0.2925 1.54862 0
M  V30 9782 C 907.322 -0.319263 1.99967 0
M  V30 9783 C 907.65 -1.54547 1.18092 0
M  V30 9784 O 906.905 -1.94186 0.242969 0
M  V30 9785 C 907.204 -0.728674 3.49893 0
M  V30 9786 C 906.87 0.394836 4.49168 0
M  V30 9787 C 905.532 0.703289 4.76033 0
M  V30 9788 C 907.884 1.15103 5.08331 0
M  V30 9789 C 905.212 1.77121 5.59325 0
M  V30 9790 C 907.564 2.20881 5.92785 0
M  V30 9791 C 906.228 2.52342 6.17964 0
M  V30 9792 H 905.498 -0.116827 0.731733 0
M  V30 9793 H 908.145 0.40983 1.87063 0
M  V30 9794 H 906.45 -1.53772 3.60363 0
M  V30 9795 H 908.147 -1.21305 3.82212 0
M  V30 9796 H 904.737 0.144319 4.28357 0
M  V30 9797 H 908.921 0.92599 4.87585 0
M  V30 9798 H 904.177 2.01978 5.77074 0
M  V30 9799 H 908.351 2.79939 6.37657 0
M  V30 9800 H 905.978 3.35225 6.82296 0
M  V30 9801 N 907.553 -1.57587 0.0200696 0
M  V30 9802 C 908.799 -1.91708 -0.661503 0
M  V30 9803 C 909.132 -0.895968 -1.72296 0
M  V30 9804 O 908.407 0.082577 -1.94325 0
M  V30 9805 C 908.69 -3.36344 -1.28627 0
M  V30 9806 C 908.543 -4.49186 -0.234982 0
M  V30 9807 C 909.862 -3.80771 -2.20685 0
M  V30 9808 H 906.981 -0.69717 -0.239005 0
M  V30 9809 H 909.623 -1.8985 0.0754764 0
M  V30 9810 H 907.773 -3.38058 -1.91439 0
M  V30 9811 H 909.445 -4.59606 0.395011 0
M  V30 9812 H 907.688 -4.31557 0.440565 0
M  V30 9813 H 908.359 -5.47395 -0.711558 0
M  V30 9814 H 910.835 -3.80735 -1.67868 0
M  V30 9815 H 909.711 -4.82685 -2.61356 0
M  V30 9816 H 909.972 -3.15764 -3.09428 0
M  V30 9817 N 909.032 0.252966 -1.55557 0
M  V30 9818 C 909.995 1.29645 -1.8901 0
M  V30 9819 C 910.995 1.41378 -0.766096 0
M  V30 9820 O 912.185 1.40183 -1.03414 0
M  V30 9821 C 909.317 2.67504 -2.11316 0
M  V30 9822 H 910.51 1.01202 -2.82309 0
M  V30 9823 H 908.063 0.491977 -1.48355 0
M  V30 9824 H 908.798 3.01095 -1.20466 0
M  V30 9825 H 908.583 2.6037 -2.93172 0
M  V30 9826 H 910.073 3.42861 -2.38403 0
M  V30 9827 N 910.51 1.48831 0.518367 0
M  V30 9828 C 911.787 1.47933 1.27966 0
M  V30 9829 C 912.167 0.197393 2.10175 0
M  V30 9830 O 911.515 -0.820656 2.13255 0
M  V30 9831 C 911.725 2.74816 2.15121 0
M  V30 9832 C 913.073 3.23613 2.74881 0
M  V30 9833 O 914.097 2.75814 2.254 0
M  V30 9834 O 912.956 4.06818 3.64913 0
M  V30 9835 H 910.05 0.591316 0.578164 0
M  V30 9836 H 912.596 1.61077 0.534065 0
M  V30 9837 H 911.368 3.59621 1.54234 0
M  V30 9838 H 910.991 2.64449 2.96905 0
M  V30 9839 N 911.988 -0.768124 1.37614 0
M  V30 9840 C 912.918 -1.89537 1.36374 0
M  V30 9841 C 913.899 -1.68513 0.231803 0
M  V30 9842 O 915.084 -1.89318 0.432705 0
M  V30 9843 C 912.214 -3.26871 1.17358 0
M  V30 9844 C 911.168 -3.62466 2.27602 0
M  V30 9845 C 910.494 -4.9838 1.93705 0
M  V30 9846 C 911.794 -3.68841 3.69802 0
M  V30 9847 H 913.488 -1.90832 2.30702 0
M  V30 9848 H 911.034 -0.91672 1.11051 0
M  V30 9849 H 912.987 -4.05371 1.15119 0
M  V30 9850 H 911.711 -3.26018 0.194865 0
M  V30 9851 H 910.37 -2.86276 2.29002 0
M  V30 9852 H 910.018 -4.94071 0.943539 0
M  V30 9853 H 909.718 -5.23165 2.6753 0
M  V30 9854 H 911.242 -5.79276 1.93059 0
M  V30 9855 H 912.656 -4.37485 3.70513 0
M  V30 9856 H 911.053 -4.05126 4.42711 0
M  V30 9857 H 912.123 -2.69415 4.03167 0
M  V30 9858 N 913.466 -1.22244 -0.994698 0
M  V30 9859 C 914.712 -1.05752 -1.73747 0
M  V30 9860 C 915.067 0.403416 -1.88123 0
M  V30 9861 O 914.36 1.29511 -1.412 0
M  V30 9862 C 914.554 -1.70014 -3.14372 0
M  V30 9863 C 914.383 -3.22205 -3.1371 0
M  V30 9864 C 913.153 -3.91301 -3.19705 0
M  V30 9865 C 915.351 -4.19163 -2.98005 0
M  V30 9866 N 913.333 -5.30594 -3.08778 0
M  V30 9867 C 914.704 -5.45274 -2.95087 0
M  V30 9868 C 916.759 -4.10078 -2.82383 0
M  V30 9869 C 915.462 -6.63345 -2.78146 0
M  V30 9870 C 917.488 -5.27797 -2.66803 0
M  V30 9871 C 916.85 -6.52826 -2.6457 0
M  V30 9872 H 912.949 -0.441393 -0.64552 0
M  V30 9873 H 915.533 -1.54757 -1.18146 0
M  V30 9874 H 913.704 -1.23562 -3.68221 0
M  V30 9875 H 915.436 -1.46631 -3.77202 0
M  V30 9876 H 912.191 -3.42289 -3.27315 0
M  V30 9877 H 912.615 -6.0358 -3.06628 0
M  V30 9878 H 917.257 -3.14201 -2.82909 0
M  V30 9879 H 914.975 -7.59373 -2.76367 0
M  V30 9880 H 918.561 -5.22598 -2.557 0
M  V30 9881 H 917.441 -7.42383 -2.5266 0
M  V30 9882 N 914.944 1.19125 -1.03184 0
M  V30 9883 C 915.891 2.2245 -0.6152 0
M  V30 9884 C 916.861 1.61869 0.372502 0
M  V30 9885 O 918.046 1.88901 0.268491 0
M  V30 9886 C 915.186 3.45091 0.0248027 0
M  V30 9887 C 914.299 4.20044 -1.0093 0
M  V30 9888 C 913.434 5.30119 -0.338744 0
M  V30 9889 C 912.473 5.96833 -1.35855 0
M  V30 9890 N 911.61 6.98464 -0.713594 0
M  V30 9891 H 916.45 2.57445 -1.50086 0
M  V30 9892 H 913.987 1.26485 -0.751005 0
M  V30 9893 H 915.945 4.15149 0.413131 0
M  V30 9894 H 914.575 3.10742 0.874028 0
M  V30 9895 H 913.627 3.48901 -1.51566 0
M  V30 9896 H 914.939 4.65796 -1.78425 0
M  V30 9897 H 914.093 6.0661 0.104269 0
M  V30 9898 H 912.832 4.85446 0.468382 0
M  V30 9899 H 911.837 5.1909 -1.81179 0
M  V30 9900 H 913.062 6.4359 -2.16722 0
M  V30 9901 H 911.008 6.55959 0.0733863 0
M  V30 9902 H 910.925 7.42422 -1.42638 0
M  V30 9903 H 912.193 7.78943 -0.294681 0
M  V30 9904 N 916.422 0.810101 1.35185 0
M  V30 9905 C 917.699 0.315235 1.93043 0
M  V30 9906 C 918.079 -1.19567 1.73974 0
M  V30 9907 O 917.427 -1.99682 1.11083 0
M  V30 9908 C 917.637 0.730492 3.41269 0
M  V30 9909 C 918.985 0.721985 4.18417 0
M  V30 9910 O 920.009 0.672258 3.49799 0
M  V30 9911 O 918.868 0.783535 5.40854 0
M  V30 9912 H 915.962 0.0832774 0.822796 0
M  V30 9913 H 918.508 0.894034 1.4424 0
M  V30 9914 H 917.28 1.77169 3.48894 0
M  V30 9915 H 916.903 0.12669 3.97398 0
M  V30 9916 N 917.9 -1.47166 0.563914 0
M  V30 9917 C 919.146 -2.02756 0.0424338 0
M  V30 9918 C 919.479 -1.43662 -1.3067 0
M  V30 9919 O 918.754 -0.594676 -1.85186 0
M  V30 9920 C 919.037 -3.60074 -0.0434793 0
M  V30 9921 C 918.89 -4.29587 1.33323 0
M  V30 9922 C 920.209 -4.336 -0.753568 0
M  V30 9923 H 917.328 -0.736806 0.0168946 0
M  V30 9924 H 919.97 -1.75521 0.727496 0
M  V30 9925 H 918.12 -3.83409 -0.626906 0
M  V30 9926 H 919.792 -4.17573 1.96037 0
M  V30 9927 H 918.035 -3.8968 1.9061 0
M  V30 9928 H 918.706 -5.38218 1.22576 0
M  V30 9929 H 921.182 -4.15299 -0.258126 0
M  V30 9930 H 920.058 -5.43291 -0.782659 0
M  V30 9931 H 920.319 -4.03302 -1.81108 0
M  V30 9932 N 919.378 -0.300708 -1.54705 0
M  V30 9933 C 920.655 0.361757 -1.92226 0
M  V30 9934 C 921.035 1.71714 -1.2279 0
M  V30 9935 O 920.383 2.2559 -0.363542 0
M  V30 9936 C 920.593 0.476699 -3.45729 0
M  V30 9937 C 921.941 0.7477 -4.17965 0
M  V30 9938 O 922.965 0.560521 -3.51762 0
M  V30 9939 O 921.824 1.10724 -5.35166 0
M  V30 9940 H 918.918 0.202213 -0.801897 0
M  V30 9941 H 921.464 -0.348746 -1.66078 0
M  V30 9942 H 920.236 -0.476132 -3.88392 0
M  V30 9943 H 919.859 1.23568 -3.77911 0
M  V30 9944 N 920.856 1.57574 -0.0284266 0
M  V30 9945 C 922.272 1.56194 0.327958 0
M  V30 9946 C 922.472 1.03397 1.72949 0
M  V30 9947 O 921.528 0.680392 2.4316 0
M  V30 9948 C 922.841 3.00177 0.177196 0
M  V30 9949 C 924.389 3.12 0.250014 0
M  V30 9950 C 924.864 4.57821 0.128049 0
M  V30 9951 N 926.355 4.6283 0.185054 0
M  V30 9952 C 927.09 5.73286 0.114454 0
M  V30 9953 N 926.586 6.928 -0.00719225 0
M  V30 9954 N 928.379 5.61848 0.16839 0
M  V30 9955 H 920.53 1.90224 -0.944921 0
M  V30 9956 H 922.793 0.874987 -0.364832 0
M  V30 9957 H 922.499 3.42753 -0.788224 0
M  V30 9958 H 922.373 3.65101 0.94768 0
M  V30 9959 H 924.76 2.69337 1.20589 0
M  V30 9960 H 924.841 2.49799 -0.550835 0
M  V30 9961 H 924.485 5.01165 -0.824407 0
M  V30 9962 H 924.415 5.18001 0.947753 0
M  V30 9963 H 926.906 3.76867 0.279247 0
M  V30 9964 H 927.219 7.72781 -0.0543903 0
M  V30 9965 H 925.564 6.94987 -0.0419648 0
M  V30 9966 H 928.755 4.67367 0.261821 0
M  V30 9967 H 928.928 6.47907 0.109908 0
M  V30 9968 N 922.334 -0.244713 1.55689 0
M  V30 9969 C 923.583 -0.970373 1.76824 0
M  V30 9970 C 923.896 -1.86402 0.592764 0
M  V30 9971 O 925.102 -2.62659 0.687186 0
M  V30 9972 C 923.558 -1.77547 3.13058 0
M  V30 9973 C 923.166 -0.929104 4.3826 0
M  V30 9974 C 924.91 -2.49373 3.43531 0
M  V30 9975 C 922.817 -1.73021 5.65524 0
M  V30 9976 H 921.747 -0.366048 0.659185 0
M  V30 9977 H 924.398 -0.224964 1.82116 0
M  V30 9978 H 922.78 -2.56291 3.01879 0
M  V30 9979 H 923.954 -0.183836 4.60433 0
M  V30 9980 H 922.269 -0.324071 4.15137 0
M  V30 9981 H 924.866 -3.09767 4.35831 0
M  V30 9982 H 925.209 -3.21099 2.64955 0
M  V30 9983 H 925.742 -1.77637 3.55935 0
M  V30 9984 H 922.481 -1.05666 6.46927 0
M  V30 9985 H 922.001 -2.45071 5.47449 0
M  V30 9986 H 923.68 -2.2968 6.0486 0
M  V30 9987 N 923.813 -1.49104 -0.510467 0
M  V30 9988 C 925.059 -1.58346 -1.26705 0
M  V30 9989 C 925.392 -0.265121 -1.92382 0
M  V30 9990 O 924.667 0.730558 -1.80258 0
M  V30 9991 C 924.95 -2.7359 -2.34137 0
M  V30 9992 C 924.803 -4.1519 -1.73024 0
M  V30 9993 C 926.122 -2.84511 -3.3577 0
M  V30 9994 H 923.241 -0.57637 -0.459311 0
M  V30 9995 H 925.883 -1.81353 -0.566658 0
M  V30 9996 H 924.033 -2.54105 -2.93876 0
M  V30 9997 H 925.705 -4.46167 -1.17186 0
M  V30 9998 H 923.948 -4.21279 -1.03473 0
M  V30 9999 H 924.619 -4.91683 -2.50903 0
M  V30 10000 H 927.095 -3.0222 -2.86011 0
M  V30 10001 H 925.971 -3.6684 -4.08313 0
M  V30 10002 H 926.232 -1.93471 -3.97519 0
M  V30 10003 N 925.291 0.760815 -1.38019 0
M  V30 10004 C 926.539 1.51673 -1.33566 0
M  V30 10005 C 926.86 1.94852 0.076024 0
M  V30 10006 O 926.13 1.67112 1.02227 0
M  V30 10007 H 924.71 0.562581 -0.491438 0
M  V30 10008 H 927.372 0.904832 -1.72623 0
M  V30 10009 H 926.468 2.41102 -1.98182 0
M  V30 10010 N 926.769 1.22769 0.988202 0
M  V30 10011 C 927.699 1.02627 2.09738 0
M  V30 10012 C 928.68 -0.0543211 1.70013 0
M  V30 10013 O 929.865 0.108811 1.93895 0
M  V30 10014 C 926.995 0.608302 3.41931 0
M  V30 10015 C 925.949 1.63536 3.95525 0
M  V30 10016 C 925.275 1.07308 5.23822 0
M  V30 10017 C 926.575 3.02649 4.25677 0
M  V30 10018 H 928.269 1.954 2.26847 0
M  V30 10019 H 925.815 0.940888 1.09011 0
M  V30 10020 H 927.768 0.454478 4.18942 0
M  V30 10021 H 926.492 -0.355095 3.24664 0
M  V30 10022 H 925.151 1.77704 3.20651 0
M  V30 10023 H 924.799 0.100894 5.02899 0
M  V30 10024 H 924.499 1.75925 5.60646 0
M  V30 10025 H 926.023 0.930938 6.03462 0
M  V30 10026 H 927.437 2.91828 4.93467 0
M  V30 10027 H 925.834 3.68434 4.73684 0
M  V30 10028 H 926.904 3.52228 3.33262 0
M  V30 10029 N 928.247 -1.18576 1.03814 0
M  V30 10030 C 929.524 -1.8433 0.654358 0
M  V30 10031 C 929.904 -1.92504 -0.866338 0
M  V30 10032 O 929.252 -1.44904 -1.76678 0
M  V30 10033 C 929.462 -3.22778 1.32723 0
M  V30 10034 C 930.81 -3.98841 1.45641 0
M  V30 10035 O 931.834 -3.32209 1.28514 0
M  V30 10036 O 930.693 -5.18219 1.73526 0
M  V30 10037 H 927.787 -0.794766 0.228638 0
M  V30 10038 H 930.333 -1.25989 1.13687 0
M  V30 10039 H 929.105 -3.11717 2.36534 0
M  V30 10040 H 928.728 -3.88772 0.833176 0
M  V30 10041 N 929.725 -0.817259 -1.34754 0
M  V30 10042 C 930.657 -0.192695 -2.28389 0
M  V30 10043 C 931.67 0.614167 -1.50771 0
M  V30 10044 O 932.859 0.444776 -1.7287 0
M  V30 10045 C 929.959 0.748929 -3.30521 0
M  V30 10046 C 929.132 -0.0138762 -4.37398 0
M  V30 10047 C 928.191 0.847825 -5.19325 0
M  V30 10048 O 927.217 0.29487 -5.68436 0
M  V30 10049 N 928.419 2.16843 -5.38479 0
M  V30 10050 H 931.184 -0.997122 -2.82626 0
M  V30 10051 H 928.745 -0.673696 -1.47217 0
M  V30 10052 H 930.737 1.32987 -3.82226 0
M  V30 10053 H 929.307 1.45412 -2.7672 0
M  V30 10054 H 928.527 -0.776093 -3.86485 0
M  V30 10055 H 929.815 -0.539191 -5.05935 0
M  V30 10056 H 929.213 2.64148 -5.00242 0
M  V30 10057 H 927.77 2.69835 -5.93323 0
M  V30 10058 N 931.203 1.46865 -0.571711 0
M  V30 10059 C 932.136 2.27176 0.215944 0
M  V30 10060 C 933.114 1.34951 0.907035 0
M  V30 10061 O 934.298 1.64349 0.923127 0
M  V30 10062 C 931.425 3.12388 1.30888 0
M  V30 10063 C 930.471 4.20296 0.724804 0
M  V30 10064 S 931.304 5.33691 -0.439839 0
M  V30 10065 C 932.46 6.22468 0.654564 0
M  V30 10066 H 932.693 2.93633 -0.465518 0
M  V30 10067 H 930.226 1.50184 -0.358351 0
M  V30 10068 H 932.184 3.62049 1.93471 0
M  V30 10069 H 930.845 2.45265 1.96224 0
M  V30 10070 H 930.038 4.79703 1.54599 0
M  V30 10071 H 929.64 3.73591 0.174861 0
M  V30 10072 H 931.932 6.59694 1.54304 0
M  V30 10073 H 932.875 7.08033 0.0975111 0
M  V30 10074 H 933.283 5.56384 0.953762 0
M  V30 10075 N 932.681 0.308908 1.54543 0
M  V30 10076 C 933.644 -0.550857 2.22482 0
M  V30 10077 C 934.644 -1.0551 1.21344 0
M  V30 10078 O 935.834 -0.949866 1.46025 0
M  V30 10079 C 932.966 -1.76354 2.9174 0
M  V30 10080 H 934.159 0.0428395 2.99869 0
M  V30 10081 H 931.712 0.059825 1.56185 0
M  V30 10082 H 932.447 -2.39686 2.18451 0
M  V30 10083 H 932.232 -1.40954 3.65889 0
M  V30 10084 H 933.722 -2.37417 3.43545 0
M  V30 10085 N 934.159 -1.57557 0.0367827 0
M  V30 10086 C 935.106 -2.10679 -0.942499 0
M  V30 10087 C 936.076 -1.01068 -1.31812 0
M  V30 10088 O 937.261 -1.28533 -1.41011 0
M  V30 10089 C 934.401 -2.64467 -2.21701 0
M  V30 10090 C 933.514 -3.88114 -1.89715 0
M  V30 10091 C 932.649 -4.30268 -3.11518 0
M  V30 10092 C 931.688 -5.46652 -2.75387 0
M  V30 10093 N 930.825 -5.83927 -3.89838 0
M  V30 10094 H 935.665 -2.94066 -0.482588 0
M  V30 10095 H 933.202 -1.45344 -0.226597 0
M  V30 10096 H 935.16 -2.93745 -2.96259 0
M  V30 10097 H 933.79 -1.83898 -2.65295 0
M  V30 10098 H 932.842 -3.65516 -1.05366 0
M  V30 10099 H 934.154 -4.72743 -1.5911 0
M  V30 10100 H 933.308 -4.61023 -3.94389 0
M  V30 10101 H 932.047 -3.44421 -3.4529 0
M  V30 10102 H 931.052 -5.15583 -1.90929 0
M  V30 10103 H 932.277 -6.34204 -2.42822 0
M  V30 10104 H 930.223 -5.01035 -4.23438 0
M  V30 10105 H 930.14 -6.63214 -3.62883 0
M  V30 10106 H 931.408 -6.19291 -4.73391 0
M  V30 10107 N 935.637 0.236453 -1.55816 0
M  V30 10108 C 936.57 1.3196 -1.86177 0
M  V30 10109 C 937.548 1.459 -0.717769 0
M  V30 10110 O 938.732 1.61949 -0.964606 0
M  V30 10111 C 935.859 2.69183 -2.05568 0
M  V30 10112 C 934.905 2.72338 -3.28229 0
M  V30 10113 S 935.738 2.27898 -4.84585 0
M  V30 10114 C 936.894 3.67025 -5.06994 0
M  V30 10115 H 937.127 1.06011 -2.77757 0
M  V30 10116 H 934.66 0.437961 -1.48058 0
M  V30 10117 H 936.618 3.48191 -2.17423 0
M  V30 10118 H 935.279 2.92365 -1.14811 0
M  V30 10119 H 934.472 3.7314 -3.38795 0
M  V30 10120 H 934.074 2.01382 -3.15153 0
M  V30 10121 H 936.366 4.62604 -4.94979 0
M  V30 10122 H 937.309 3.61385 -6.08939 0
M  V30 10123 H 937.717 3.60022 -4.34792 0
M  V30 10124 N 937.115 1.49373 0.502552 0
M  V30 10125 C 938.343 1.62488 1.28084 0
M  V30 10126 C 938.758 0.295667 1.86471 0
M  V30 10127 O 938.115 -0.718664 1.67754 0
M  V30 10128 C 938.166 2.69249 2.4122 0
M  V30 10129 O 937.887 3.97014 1.85234 0
M  V30 10130 C 939.388 2.93054 3.32617 0
M  V30 10131 H 936.608 0.547068 0.388533 0
M  V30 10132 H 939.152 1.95394 0.603452 0
M  V30 10133 H 937.307 2.39125 3.04792 0
M  V30 10134 H 937.721 4.55809 2.59496 0
M  V30 10135 H 939.195 3.71493 4.08285 0
M  V30 10136 H 939.672 2.02911 3.89517 0
M  V30 10137 H 940.278 3.24589 2.74813 0
M  V30 10138 N 938.594 -0.753485 1.38421 0
M  V30 10139 C 939.504 -1.89797 1.37892 0
M  V30 10140 C 940.52 -1.71797 0.276023 0
M  V30 10141 O 941.696 -1.94718 0.514464 0
M  V30 10142 C 938.761 -3.25166 1.20284 0
M  V30 10143 C 937.822 -3.55691 2.4038 0
M  V30 10144 C 937.055 -4.84601 2.23602 0
M  V30 10145 O 937.278 -5.56985 1.22979 0
M  V30 10146 O 936.212 -5.14605 3.12194 0
M  V30 10147 H 940.038 -1.93197 2.34326 0
M  V30 10148 H 937.623 -0.898775 1.19342 0
M  V30 10149 H 939.505 -4.06099 1.12525 0
M  V30 10150 H 938.18 -3.22577 0.269352 0
M  V30 10151 H 937.087 -2.74919 2.53714 0
M  V30 10152 H 938.42 -3.6304 3.32359 0
M  V30 10153 N 940.072 -1.23292 -0.981677 0
M  V30 10154 C 941.297 -1.09176 -1.76339 0
M  V30 10155 C 941.722 0.352726 -1.84763 0
M  V30 10156 O 941.08 1.25509 -1.30832 0
M  V30 10157 C 941.128 -1.72046 -3.16911 0
M  V30 10158 O 940.232 -0.98174 -4.00544 0
M  V30 10159 H 939.573 -0.382755 -0.542581 0
M  V30 10160 H 942.103 -1.63319 -1.23239 0
M  V30 10161 H 942.113 -1.77232 -3.67495 0
M  V30 10162 H 940.788 -2.77154 -3.10095 0
M  V30 10163 H 939.365 -1.00672 -3.59054 0
M  V30 10164 N 941.55 1.18024 -1.04442 0
M  V30 10165 C 942.775 1.92573 -0.770097 0
M  V30 10166 C 943.2 1.75871 0.667169 0
M  V30 10167 O 942.558 1.07136 1.46258 0
M  V30 10168 C 942.606 3.41904 -1.14602 0
M  V30 10169 O 941.71 4.11491 -0.273712 0
M  V30 10170 H 941.051 0.600636 -0.283076 0
M  V30 10171 H 943.581 1.49645 -1.39526 0
M  V30 10172 H 943.591 3.92623 -1.10956 0
M  V30 10173 H 942.266 3.53382 -2.19304 0
M  V30 10174 H 940.843 3.71059 -0.370124 0
M  V30 10175 N 943.028 0.824394 1.34319 0
M  V30 10176 C 943.958 0.262077 2.32025 0
M  V30 10177 C 944.939 -0.622277 1.58309 0
M  V30 10178 O 946.124 -0.548848 1.86283 0
M  V30 10179 C 943.254 -0.57567 3.42496 0
M  V30 10180 C 942.208 0.21167 4.27476 0
M  V30 10181 C 941.534 -0.748913 5.29429 0
M  V30 10182 C 942.834 1.42068 5.02607 0
M  V30 10183 H 944.528 1.07842 2.79304 0
M  V30 10184 H 942.074 0.520022 1.34282 0
M  V30 10185 H 944.027 -0.979251 4.09864 0
M  V30 10186 H 942.751 -1.42508 2.93869 0
M  V30 10187 H 941.41 0.596636 3.61712 0
M  V30 10188 H 941.058 -1.59432 4.77064 0
M  V30 10189 H 940.758 -0.226313 5.87164 0
M  V30 10190 H 942.282 -1.15032 5.99667 0
M  V30 10191 H 943.696 1.09103 5.62823 0
M  V30 10192 H 942.093 1.87903 5.69923 0
M  V30 10193 H 943.163 2.1981 4.32217 0
M  V30 10194 N 944.506 -1.46559 0.579492 0
M  V30 10195 C 945.917 -1.8608 0.152052 0
M  V30 10196 C 946.268 -1.48346 -1.28405 0
M  V30 10197 O 945.393 -0.89685 -1.9694 0
M  V30 10198 C 945.988 -3.37729 0.269171 0
M  V30 10199 C 944.547 -3.76258 -0.103376 0
M  V30 10200 C 943.694 -2.70584 0.60659 0
M  V30 10201 H 946.645 -1.3776 0.787904 0
M  V30 10202 H 946.666 -3.77116 -0.506339 0
M  V30 10203 H 946.178 -3.65162 1.31448 0
M  V30 10204 H 944.279 -3.54443 -1.14895 0
M  V30 10205 H 944.392 -4.78335 0.270701 0
M  V30 10206 H 942.756 -2.54656 0.0471984 0
M  V30 10207 H 943.539 -3.00856 1.65349 0
M  V30 10208 N 945.984 -0.3171 -1.54377 0
M  V30 10209 C 947.209 0.292311 -2.0533 0
M  V30 10210 C 947.634 1.45503 -1.19207 0
M  V30 10211 O 946.992 1.80197 -0.199721 0
M  V30 10212 C 947.04 0.710787 -3.53525 0
M  V30 10213 O 946.144 1.81387 -3.70368 0
M  V30 10214 H 945.485 0.0539976 -0.661801 0
M  V30 10215 H 948.015 -0.463629 -1.99278 0
M  V30 10216 H 948.025 0.995216 -3.95676 0
M  V30 10217 H 946.7 -0.139668 -4.15665 0
M  V30 10218 H 945.277 1.52875 -3.40123 0
M  V30 10219 N 947.462 1.57535 -0.0451378 0
M  V30 10220 C 948.425 2.1008 0.916461 0
M  V30 10221 C 949.425 1.01913 1.2438 0
M  V30 10222 O 950.615 1.2801 1.18148 0
M  V30 10223 C 947.747 2.58001 2.22818 0
M  V30 10224 H 948.94 2.96334 0.461076 0
M  V30 10225 H 946.493 1.54974 0.203169 0
M  V30 10226 H 947.228 1.75123 2.72951 0
M  V30 10227 H 947.013 3.3704 2.00366 0
M  V30 10228 H 948.503 2.98822 2.9171 0
M  V30 10229 N 948.94 -0.228186 1.55939 0
M  V30 10230 C 950.165 -0.974795 1.83064 0
M  V30 10231 C 950.59 -1.77426 0.624624 0
M  V30 10232 O 949.948 -1.76211 -0.426556 0
M  V30 10233 C 949.996 -1.87342 3.08116 0
M  V30 10234 O 949.1 -2.96784 2.86344 0
M  V30 10235 H 948.441 -0.276379 0.603747 0
M  V30 10236 H 950.971 -0.243507 2.03146 0
M  V30 10237 H 950.981 -2.28451 3.38045 0
M  V30 10238 H 949.656 -1.28575 3.95526 0
M  V30 10239 H 948.233 -2.59669 2.67631 0
M  V30 10240 N 950.418 -1.49637 -0.494624 0
M  V30 10241 C 951.365 -1.66776 -1.59545 0
M  V30 10242 C 952.335 -0.509159 -1.58104 0
M  V30 10243 O 953.52 -0.736949 -1.75993 0
M  V30 10244 C 950.66 -1.74624 -2.97658 0
M  V30 10245 C 949.773 -3.01831 -3.09067 0
M  V30 10246 C 948.908 -3.00619 -4.37952 0
M  V30 10247 C 947.947 -4.22378 -4.43016 0
M  V30 10248 N 947.084 -4.1904 -5.63339 0
M  V30 10249 H 951.924 -2.60767 -1.44238 0
M  V30 10250 H 949.461 -1.29286 -0.701673 0
M  V30 10251 H 951.419 -1.77156 -3.77719 0
M  V30 10252 H 950.049 -0.840936 -3.11654 0
M  V30 10253 H 949.101 -3.08881 -2.22029 0
M  V30 10254 H 950.413 -3.91823 -3.08669 0
M  V30 10255 H 949.567 -3.01749 -5.26339 0
M  V30 10256 H 948.306 -2.08416 -4.40924 0
M  V30 10257 H 947.311 -4.21485 -3.5303 0
M  V30 10258 H 948.536 -5.15781 -4.41755 0
M  V30 10259 H 946.482 -3.29677 -5.67141 0
M  V30 10260 H 946.399 -5.02774 -5.64583 0
M  V30 10261 H 947.667 -4.24281 -6.53916 0
M  V30 10262 N 951.896 0.746133 -1.38819 0
M  V30 10263 C 953.124 1.53539 -1.38685 0
M  V30 10264 C 953.539 1.88788 0.0215039 0
M  V30 10265 O 952.896 1.53312 0.990031 0
M  V30 10266 C 952.947 2.8299 -2.24942 0
M  V30 10267 O 952.668 2.49242 -3.60292 0
M  V30 10268 C 954.169 3.77085 -2.3307 0
M  V30 10269 H 951.389 0.474842 -0.474095 0
M  V30 10270 H 953.933 0.922844 -1.82493 0
M  V30 10271 H 952.088 3.40603 -1.84576 0
M  V30 10272 H 952.502 3.32319 -4.05789 0
M  V30 10273 H 953.976 4.64845 -2.97696 0
M  V30 10274 H 954.453 4.18049 -1.34655 0
M  V30 10275 H 955.059 3.25394 -2.73859 0
M  V30 10276 N 953.375 1.23811 0.975125 0
M  V30 10277 C 954.322 1.02394 2.06843 0
M  V30 10278 C 955.292 -0.060337 1.6599 0
M  V30 10279 O 956.477 0.0928187 1.90574 0
M  V30 10280 C 953.617 0.626882 3.39359 0
M  V30 10281 C 952.73 1.78385 3.9345 0
M  V30 10282 C 951.865 1.33307 5.14201 0
M  V30 10283 C 950.904 2.46045 5.60471 0
M  V30 10284 N 950.041 2.01888 6.72448 0
M  V30 10285 H 954.881 1.95973 2.24496 0
M  V30 10286 H 952.418 0.976206 1.10039 0
M  V30 10287 H 954.376 0.377742 4.15486 0
M  V30 10288 H 953.006 -0.271907 3.21653 0
M  V30 10289 H 952.058 2.14685 3.14029 0
M  V30 10290 H 953.37 2.63122 4.23755 0
M  V30 10291 H 952.524 1.04237 5.97678 0
M  V30 10292 H 951.263 0.456143 4.85562 0
M  V30 10293 H 950.268 2.75884 4.75571 0
M  V30 10294 H 951.493 3.34283 5.91127 0
M  V30 10295 H 949.439 1.16583 6.45558 0
M  V30 10296 H 949.356 2.80182 7.02164 0
M  V30 10297 H 950.624 1.75937 7.59386 0
M  V30 10298 N 954.853 -1.17469 1.05066 0
M  V30 10299 C 955.8 -2.21443 0.650512 0
M  V30 10300 C 956.77 -1.62441 -0.346702 0
M  V30 10301 O 957.955 -1.89305 -0.238404 0
M  V30 10302 C 955.095 -3.45087 0.0301014 0
M  V30 10303 C 954.208 -4.18385 1.07599 0
M  V30 10304 C 953.343 -5.29513 0.423038 0
M  V30 10305 C 952.382 -5.94596 1.45333 0
M  V30 10306 N 951.519 -6.97241 0.824623 0
M  V30 10307 H 956.359 -2.55025 1.54163 0
M  V30 10308 H 953.896 -1.25274 0.771032 0
M  V30 10309 H 955.854 -4.15754 -0.347032 0
M  V30 10310 H 954.484 -3.12093 -0.824481 0
M  V30 10311 H 953.536 -3.46446 1.57097 0
M  V30 10312 H 954.848 -4.62899 1.85813 0
M  V30 10313 H 954.002 -6.067 -0.00774975 0
M  V30 10314 H 952.741 -4.86129 -0.391092 0
M  V30 10315 H 951.746 -5.16142 1.89415 0
M  V30 10316 H 952.971 -6.40061 2.26934 0
M  V30 10317 H 950.917 -6.55993 0.0309804 0
M  V30 10318 H 950.834 -7.40059 1.54432 0
M  V30 10319 H 952.102 -7.78375 0.418567 0
M  V30 10320 N 956.331 -0.831506 -1.3388 0
M  V30 10321 C 957.579 -0.422837 -1.97627 0
M  V30 10322 C 957.9 1.01961 -1.6622 0
M  V30 10323 O 957.17 1.70916 -0.957323 0
M  V30 10324 H 955.75 -0.153365 -0.731087 0
M  V30 10325 H 958.412 -1.06284 -1.6337 0
M  V30 10326 H 957.508 -0.548858 -3.07236 0
M  V30 10327 N 957.809 1.4625 -0.587256 0
M  V30 10328 C 958.742 2.27392 0.191837 0
M  V30 10329 C 959.72 1.35905 0.89267 0
M  V30 10330 O 960.904 1.65319 0.905643 0
M  V30 10331 C 958.031 3.13758 1.27567 0
M  V30 10332 C 957.077 4.21041 0.680186 0
M  V30 10333 S 957.91 5.33194 -0.496419 0
M  V30 10334 C 959.066 6.23127 0.588506 0
M  V30 10335 H 959.299 2.93123 -0.496635 0
M  V30 10336 H 956.832 1.49795 -0.37426 0
M  V30 10337 H 958.79 3.6408 1.8962 0
M  V30 10338 H 957.451 2.47332 1.93612 0
M  V30 10339 H 956.644 4.81316 1.49503 0
M  V30 10340 H 956.246 3.73755 0.135227 0
M  V30 10341 H 958.538 6.61294 1.47298 0
M  V30 10342 H 959.481 7.08096 0.0224093 0
M  V30 10343 H 959.889 5.57365 0.894696 0
M  V30 10344 N 959.287 0.325282 1.54207 0
M  V30 10345 C 960.534 -0.276775 2.006 0
M  V30 10346 C 960.862 -1.52007 1.21343 0
M  V30 10347 O 960.117 -1.93627 0.284104 0
M  V30 10348 C 960.416 -0.654292 3.5136 0
M  V30 10349 C 960.082 0.490023 4.48229 0
M  V30 10350 C 958.744 0.804104 4.74434 0
M  V30 10351 C 961.096 1.2586 5.05775 0
M  V30 10352 C 958.424 1.88945 5.55443 0
M  V30 10353 C 960.776 2.33405 5.87967 0
M  V30 10354 C 959.44 2.65393 6.12473 0
M  V30 10355 H 958.71 -0.101279 0.734046 0
M  V30 10356 H 961.357 0.449416 1.86152 0
M  V30 10357 H 959.662 -1.46093 3.63544 0
M  V30 10358 H 961.359 -1.13171 3.84699 0
M  V30 10359 H 957.949 0.235147 4.27954 0
M  V30 10360 H 962.133 1.02921 4.85511 0
M  V30 10361 H 957.389 2.14174 5.7266 0
M  V30 10362 H 961.563 2.93402 6.31576 0
M  V30 10363 H 959.19 3.49622 6.75032 0
M  V30 10364 N 960.765 -1.57509 0.0534917 0
M  V30 10365 C 962.181 -1.56696 -0.303067 0
M  V30 10366 C 962.381 -1.06135 -1.71282 0
M  V30 10367 O 961.437 -0.71899 -2.42047 0
M  V30 10368 C 962.75 -3.00421 -0.129418 0
M  V30 10369 C 964.298 -3.12358 -0.200346 0
M  V30 10370 C 964.773 -4.57967 -0.0551971 0
M  V30 10371 N 966.264 -4.63066 -0.111398 0
M  V30 10372 C 966.999 -5.73395 -0.0232344 0
M  V30 10373 N 966.495 -6.92701 0.11741 0
M  V30 10374 N 968.288 -5.62045 -0.078984 0
M  V30 10375 H 960.439 -1.88696 0.975064 0
M  V30 10376 H 962.702 -0.869072 0.378706 0
M  V30 10377 H 962.408 -3.41456 0.842653 0
M  V30 10378 H 962.282 -3.66563 -0.889476 0
M  V30 10379 H 964.669 -2.71221 -1.16289 0
M  V30 10380 H 964.75 -2.48891 0.590506 0
M  V30 10381 H 964.394 -4.9979 0.904034 0
M  V30 10382 H 964.324 -5.19443 -0.865223 0
M  V30 10383 H 966.815 -3.77263 -0.219256 0
M  V30 10384 H 967.128 -7.72597 0.177326 0
M  V30 10385 H 965.473 -6.94833 0.152526 0
M  V30 10386 H 968.664 -4.67725 -0.187434 0
M  V30 10387 H 968.837 -6.48 -0.00681731 0
M  V30 10388 N 962.243 0.219913 -1.56058 0
M  V30 10389 C 963.471 0.960915 -1.83232 0
M  V30 10390 C 963.886 1.77878 -0.632828 0
M  V30 10391 O 963.243 1.78093 0.398624 0
M  V30 10392 C 963.294 1.87716 -3.08942 0
M  V30 10393 O 963.015 1.09235 -4.24263 0
M  V30 10394 C 964.516 2.73192 -3.49115 0
M  V30 10395 H 961.736 0.281546 -0.609075 0
M  V30 10396 H 964.28 0.234648 -2.03149 0
M  V30 10397 H 962.435 2.55736 -2.90995 0
M  V30 10398 H 962.849 1.71446 -4.95688 0
M  V30 10399 H 964.323 3.33181 -4.40107 0
M  V30 10400 H 964.8 3.45668 -2.70943 0
M  V30 10401 H 965.406 2.10583 -3.69506 0
M  V30 10402 N 963.721 1.49897 0.486681 0
M  V30 10403 C 964.967 1.60342 1.2417 0
M  V30 10404 C 965.3 0.295694 1.91936 0
M  V30 10405 O 964.575 -0.701788 1.81398 0
M  V30 10406 C 964.858 2.77281 2.29755 0
M  V30 10407 C 964.711 4.1789 1.66397 0
M  V30 10408 C 966.03 2.89817 3.31201 0
M  V30 10409 H 963.149 0.583605 0.450083 0
M  V30 10410 H 965.791 1.82232 0.537734 0
M  V30 10411 H 963.941 2.58748 2.89796 0
M  V30 10412 H 965.613 4.47975 1.10073 0
M  V30 10413 H 963.856 4.22872 0.967579 0
M  V30 10414 H 964.527 4.95612 2.43049 0
M  V30 10415 H 967.003 3.06732 2.81167 0
M  V30 10416 H 965.879 3.7329 4.02425 0
M  V30 10417 H 966.14 1.9977 3.94391 0
M  V30 10418 N 965.199 -0.738761 1.39212 0
M  V30 10419 C 966.447 -1.49529 1.35962 0
M  V30 10420 C 966.768 -1.94948 -0.0450152 0
M  V30 10421 O 966.038 -1.68717 -0.995552 0
M  V30 10422 H 964.618 -0.554692 0.500326 0
M  V30 10423 H 967.28 -0.877255 1.74041 0
M  V30 10424 H 966.376 -2.37919 2.01993 0
M  V30 10425 N 966.677 -1.24326 -0.968545 0
M  V30 10426 C 967.609 -0.992749 -2.06584 0
M  V30 10427 C 968.622 0.0374902 -1.62757 0
M  V30 10428 O 969.811 -0.199448 -1.77382 0
M  V30 10429 C 966.911 -0.476165 -3.35538 0
M  V30 10430 C 966.084 -1.56934 -4.08277 0
M  V30 10431 C 965.143 -1.05555 -5.15504 0
M  V30 10432 O 964.169 -1.74707 -5.41725 0
M  V30 10433 N 965.371 0.110465 -5.80395 0
M  V30 10434 H 968.136 -1.93752 -2.28649 0
M  V30 10435 H 965.697 -1.15344 -1.13611 0
M  V30 10436 H 967.689 -0.117223 -4.0453 0
M  V30 10437 H 966.259 0.374315 -3.10351 0
M  V30 10438 H 965.479 -2.10051 -3.33575 0
M  V30 10439 H 966.767 -2.30415 -4.53637 0
M  V30 10440 H 966.165 0.688614 -5.61493 0
M  V30 10441 H 964.722 0.41056 -6.50506 0
M  V30 10442 N 968.156 1.1691 -1.05688 0
M  V30 10443 C 969.086 2.23275 -0.683402 0
M  V30 10444 C 970.067 1.6704 0.321206 0
M  V30 10445 O 971.252 1.93191 0.197691 0
M  V30 10446 C 968.382 3.47244 -0.0626006 0
M  V30 10447 C 967.336 4.16333 -0.992513 0
M  V30 10448 C 966.662 5.34182 -0.23533 0
M  V30 10449 C 967.962 4.68002 -2.31886 0
M  V30 10450 H 969.656 2.54771 -1.57264 0
M  V30 10451 H 967.202 1.2246 -0.757606 0
M  V30 10452 H 969.155 4.20874 0.210503 0
M  V30 10453 H 967.879 3.1503 0.861616 0
M  V30 10454 H 966.538 3.44622 -1.25026 0
M  V30 10455 H 966.186 4.9822 0.69181 0
M  V30 10456 H 965.886 5.81346 -0.855002 0
M  V30 10457 H 967.41 6.10592 0.0303717 0
M  V30 10458 H 968.824 5.33244 -2.10531 0
M  V30 10459 H 967.221 5.25764 -2.89296 0
M  V30 10460 H 968.291 3.84541 -2.95391 0
M  V30 10461 N 969.634 0.838594 1.33437 0
M  V30 10462 C 970.864 0.446995 2.01707 0
M  V30 10463 C 971.272 -0.956335 1.63251 0
M  V30 10464 O 970.615 -1.63289 0.841566 0
M  V30 10465 C 970.677 0.487707 3.56176 0
M  V30 10466 C 970.341 1.8471 4.18009 0
M  V30 10467 C 971.338 2.81028 4.374 0
M  V30 10468 C 969.023 2.13987 4.54439 0
M  V30 10469 C 971.017 4.04785 4.92369 0
M  V30 10470 C 968.704 3.38 5.09116 0
M  V30 10471 C 969.702 4.33216 5.28027 0
M  V30 10472 O 969.39 5.55036 5.81541 0
M  V30 10473 H 969.122 0.175799 0.652741 0
M  V30 10474 H 971.676 1.13265 1.71348 0
M  V30 10475 H 969.906 -0.254719 3.8586 0
M  V30 10476 H 971.595 0.113971 4.0574 0
M  V30 10477 H 972.361 2.5971 4.09604 0
M  V30 10478 H 968.24 1.40668 4.39014 0
M  V30 10479 H 971.784 4.79114 5.07046 0
M  V30 10480 H 967.681 3.59175 5.36343 0
M  V30 10481 H 968.449 5.56772 5.99956 0
M  V30 10482 N 971.112 -1.45937 0.595003 0
M  V30 10483 C 972.059 -2.30427 -0.131165 0
M  V30 10484 C 973.029 -1.41355 -0.872232 0
M  V30 10485 O 974.214 -1.70296 -0.860467 0
M  V30 10486 C 971.354 -3.26045 -1.13087 0
M  V30 10487 C 970.467 -4.30218 -0.391982 0
M  V30 10488 C 969.602 -5.12953 -1.3803 0
M  V30 10489 C 968.641 -6.08865 -0.628505 0
M  V30 10490 N 967.778 -6.84425 -1.56548 0
M  V30 10491 H 972.618 -2.91992 0.595359 0
M  V30 10492 H 970.155 -1.43895 0.305405 0
M  V30 10493 H 972.113 -3.79937 -1.72348 0
M  V30 10494 H 970.743 -2.66261 -1.82496 0
M  V30 10495 H 969.795 -3.79086 0.315895 0
M  V30 10496 H 971.107 -4.98418 0.195173 0
M  V30 10497 H 970.261 -5.71184 -2.04534 0
M  V30 10498 H 969 -4.44743 -2.00138 0
M  V30 10499 H 968.005 -5.49777 0.0502431 0
M  V30 10500 H 969.23 -6.79099 -0.012641 0
M  V30 10501 H 967.176 -6.18913 -2.17444 0
M  V30 10502 H 967.093 -7.48931 -1.03145 0
M  V30 10503 H 968.361 -7.47204 -2.22049 0
M  V30 10504 N 972.59 -0.333456 -1.54032 0
M  V30 10505 C 973.5 0.536674 -2.28379 0
M  V30 10506 C 974.516 1.12068 -1.33104 0
M  V30 10507 O 975.692 1.13853 -1.66131 0
M  V30 10508 C 972.757 1.67677 -3.03456 0
M  V30 10509 C 971.818 1.12357 -4.14336 0
M  V30 10510 C 971.051 2.20933 -4.85823 0
M  V30 10511 O 971.274 3.41466 -4.569 0
M  V30 10512 O 970.208 1.85795 -5.72507 0
M  V30 10513 H 974.034 -0.0674003 -3.03625 0
M  V30 10514 H 971.619 -0.098823 -1.49073 0
M  V30 10515 H 973.501 2.34032 -3.50438 0
M  V30 10516 H 972.176 2.26684 -2.31076 0
M  V30 10517 H 971.083 0.424827 -3.7168 0
M  V30 10518 H 972.416 0.578497 -4.88789 0
M  V30 10519 N 974.068 1.57479 -0.061844 0
M  V30 10520 C 975 2.09116 0.938245 0
M  V30 10521 C 976.013 1.0212 1.26788 0
M  V30 10522 O 977.202 1.2966 1.22681 0
M  V30 10523 C 974.302 2.52822 2.25686 0
M  V30 10524 C 973.475 3.83277 2.10755 0
M  V30 10525 C 972.534 4.13182 3.25833 0
M  V30 10526 O 971.56 4.82937 3.01265 0
M  V30 10527 N 972.762 3.65938 4.50633 0
M  V30 10528 H 975.527 2.95543 0.497433 0
M  V30 10529 H 973.088 1.61423 0.124134 0
M  V30 10530 H 975.08 2.69896 3.01559 0
M  V30 10531 H 973.65 1.71586 2.61299 0
M  V30 10532 H 972.87 3.7568 1.19409 0
M  V30 10533 H 974.158 4.68686 1.98018 0
M  V30 10534 H 973.556 3.09566 4.73482 0
M  V30 10535 H 972.113 3.8823 5.23565 0
M  V30 10536 N 975.546 -0.211634 1.56173 0
M  V30 10537 C 976.476 -1.26533 1.96244 0
M  V30 10538 C 977.457 -1.48362 0.832028 0
M  V30 10539 O 978.642 -1.60378 1.0951 0
M  V30 10540 C 975.772 -2.61307 2.2877 0
M  V30 10541 C 974.726 -2.54119 3.44395 0
M  V30 10542 C 974.052 -3.93014 3.62552 0
M  V30 10543 C 975.352 -2.08046 4.79076 0
M  V30 10544 H 977.046 -0.932407 2.84511 0
M  V30 10545 H 974.592 -0.447084 1.36884 0
M  V30 10546 H 976.545 -3.35188 2.55396 0
M  V30 10547 H 975.269 -2.96307 1.37367 0
M  V30 10548 H 973.928 -1.82694 3.17834 0
M  V30 10549 H 973.576 -4.25338 2.68508 0
M  V30 10550 H 973.276 -3.89083 4.40327 0
M  V30 10551 H 974.8 -4.68542 3.91537 0
M  V30 10552 H 976.214 -2.71676 5.04842 0
M  V30 10553 H 974.611 -2.15154 5.60204 0
M  V30 10554 H 975.681 -1.03306 4.73768 0
M  V30 10555 N 977.024 -1.50153 -0.478725 0
M  V30 10556 C 978.272 -1.60443 -1.22892 0
M  V30 10557 C 978.593 -0.303276 -1.92627 0
M  V30 10558 O 977.863 0.678798 -1.83764 0
M  V30 10559 H 976.443 -0.591205 -0.456602 0
M  V30 10560 H 979.105 -1.86893 -0.552905 0
M  V30 10561 H 978.201 -2.41175 -1.98094 0
M  V30 10562 N 978.502 0.731368 -1.39602 0
M  V30 10563 C 979.449 1.84541 -1.38612 0
M  V30 10564 C 980.419 1.64279 -0.245287 0
M  V30 10565 O 981.604 1.85635 -0.440954 0
M  V30 10566 C 978.744 3.22092 -1.23897 0
M  V30 10567 C 977.857 3.54034 -2.47555 0
M  V30 10568 C 976.992 4.81007 -2.25402 0
M  V30 10569 C 976.031 5.05804 -3.44716 0
M  V30 10570 N 975.168 6.23981 -3.21857 0
M  V30 10571 H 980.008 1.84722 -2.33841 0
M  V30 10572 H 977.545 0.902569 -1.16156 0
M  V30 10573 H 979.503 4.01499 -1.13376 0
M  V30 10574 H 978.133 3.2118 -0.322958 0
M  V30 10575 H 977.185 2.69301 -2.68665 0
M  V30 10576 H 978.497 3.68275 -3.36415 0
M  V30 10577 H 977.651 5.68401 -2.12143 0
M  V30 10578 H 976.39 4.68946 -1.33943 0
M  V30 10579 H 975.395 4.1687 -3.58468 0
M  V30 10580 H 976.62 5.19747 -4.37081 0
M  V30 10581 H 974.566 6.13202 -2.33065 0
M  V30 10582 H 974.483 6.38826 -4.04274 0
M  V30 10583 H 975.751 7.14205 -3.123 0
M  V30 10584 N 979.98 1.24838 0.961938 0
M  V30 10585 C 980.91 1.07053 2.07514 0
M  V30 10586 C 981.891 -0.0182465 1.7009 0
M  V30 10587 O 983.076 0.149915 1.9362 0
M  V30 10588 C 980.206 0.680693 3.40564 0
M  V30 10589 C 979.16 1.71889 3.91967 0
M  V30 10590 C 978.486 1.18395 5.21428 0
M  V30 10591 C 979.786 3.1161 4.19161 0
M  V30 10592 H 981.48 2.00167 2.22651 0
M  V30 10593 H 979.026 0.963799 1.0699 0
M  V30 10594 H 980.979 0.54324 4.17884 0
M  V30 10595 H 979.703 -0.28615 3.25344 0
M  V30 10596 H 978.362 1.84465 3.16809 0
M  V30 10597 H 978.01 0.207543 5.02572 0
M  V30 10598 H 977.71 1.87778 5.56788 0
M  V30 10599 H 979.234 1.05873 6.01351 0
M  V30 10600 H 980.648 3.0223 4.87165 0
M  V30 10601 H 979.045 3.78398 4.65763 0
M  V30 10602 H 980.115 3.59218 3.25715 0
M  V30 10603 N 981.458 -1.16348 1.06306 0
M  V30 10604 C 982.391 -2.19667 0.618197 0
M  V30 10605 C 983.369 -1.58586 -0.359078 0
M  V30 10606 O 984.553 -1.86585 -0.268023 0
M  V30 10607 C 981.68 -3.3857 -0.0937091 0
M  V30 10608 C 980.726 -4.18139 0.840339 0
M  V30 10609 S 981.559 -4.81879 2.33565 0
M  V30 10610 C 982.715 -6.04161 1.63524 0
M  V30 10611 H 982.948 -2.57063 1.49352 0
M  V30 10612 H 980.481 -1.27141 0.876046 0
M  V30 10613 H 982.439 -4.07465 -0.498227 0
M  V30 10614 H 981.1 -2.9954 -0.94523 0
M  V30 10615 H 980.293 -5.03172 0.288781 0
M  V30 10616 H 979.895 -3.54739 1.18474 0
M  V30 10617 H 982.187 -6.70935 0.940904 0
M  V30 10618 H 983.13 -6.63866 2.46347 0
M  V30 10619 H 983.538 -5.53323 1.11778 0
M  V30 10620 N 982.937 -0.845659 -1.3299 0
M  V30 10621 C 984.165 -0.45835 -2.01759 0
M  V30 10622 C 984.58 0.94239 -1.63598 0
M  V30 10623 O 983.937 1.61353 -0.852738 0
M  V30 10624 C 983.988 -0.577311 -3.5686 0
M  V30 10625 O 983.709 -1.92287 -3.93646 0
M  V30 10626 C 985.21 -0.187839 -4.42902 0
M  V30 10627 H 982.43 -0.181165 -0.646081 0
M  V30 10628 H 984.974 -1.14011 -1.6977 0
M  V30 10629 H 983.129 0.0566146 -3.87359 0
M  V30 10630 H 983.543 -1.91322 -4.88361 0
M  V30 10631 H 985.017 -0.322105 -5.51059 0
M  V30 10632 H 985.494 0.870896 -4.30479 0
M  V30 10633 H 986.1 -0.796473 -4.17776 0
M  V30 10634 N 984.415 1.45619 -0.602734 0
M  V30 10635 C 985.643 2.06647 -0.102253 0
M  V30 10636 C 986.058 1.4482 1.21131 0
M  V30 10637 O 985.415 0.560621 1.73676 0
M  V30 10638 C 985.466 3.61467 0.0490113 0
M  V30 10639 O 985.187 4.20985 -1.21257 0
M  V30 10640 C 986.688 4.39469 0.581517 0
M  V30 10641 H 983.908 0.667685 -0.0666155 0
M  V30 10642 H 986.452 1.86939 -0.829091 0
M  V30 10643 H 984.607 3.80534 0.726153 0
M  V30 10644 H 985.021 5.14103 -1.03915 0
M  V30 10645 H 986.495 5.48318 0.636462 0
M  V30 10646 H 986.972 4.0891 1.60277 0
M  V30 10647 H 987.578 4.25256 -0.061419 0
M  V30 10648 N 985.893 0.34162 1.53853 0
M  V30 10649 C 986.823 -0.508431 2.27897 0
M  V30 10650 C 987.804 -1.10425 1.29384 0
M  V30 10651 O 988.989 -1.126 1.58224 0
M  V30 10652 C 986.119 -1.66048 3.05034 0
M  V30 10653 C 985.073 -1.19309 4.11035 0
M  V30 10654 C 984.399 -2.4335 4.76114 0
M  V30 10655 C 985.699 -0.294952 5.21467 0
M  V30 10656 H 987.393 0.109251 2.99201 0
M  V30 10657 H 984.939 0.0539847 1.43899 0
M  V30 10658 H 986.892 -2.26158 3.5557 0
M  V30 10659 H 985.616 -2.30503 2.31379 0
M  V30 10660 H 984.275 -0.614809 3.61408 0
M  V30 10661 H 983.923 -3.06208 3.99056 0
M  V30 10662 H 983.623 -2.1276 5.47729 0
M  V30 10663 H 985.147 -3.0419 5.29434 0
M  V30 10664 H 986.561 -0.80285 5.67651 0
M  V30 10665 H 984.958 -0.0810221 6.00045 0
M  V30 10666 H 986.028 0.669433 4.80257 0
M  V30 10667 N 987.371 -1.57444 0.0701946 0
M  V30 10668 C 988.787 -1.57009 -0.286431 0
M  V30 10669 C 988.987 -1.07946 -1.70147 0
M  V30 10670 O 988.043 -0.744622 -2.41271 0
M  V30 10671 C 989.356 -3.00542 -0.0975466 0
M  V30 10672 C 990.904 -3.12553 -0.167205 0
M  V30 10673 C 991.379 -4.58 -0.00662047 0
M  V30 10674 N 992.87 -4.63158 -0.0622778 0
M  V30 10675 C 993.605 -5.73388 0.0375831 0
M  V30 10676 N 993.101 -6.92537 0.190873 0
M  V30 10677 N 994.894 -5.62097 -0.0193672 0
M  V30 10678 H 987.045 -1.87651 0.995023 0
M  V30 10679 H 989.308 -0.865006 0.387902 0
M  V30 10680 H 989.014 -3.40543 0.878822 0
M  V30 10681 H 988.888 -3.67485 -0.850547 0
M  V30 10682 H 991.275 -2.72439 -1.13406 0
M  V30 10683 H 991.356 -2.48251 0.616871 0
M  V30 10684 H 991 -4.98803 0.956992 0
M  V30 10685 H 990.93 -5.20332 -0.810081 0
M  V30 10686 H 993.421 -3.77475 -0.179229 0
M  V30 10687 H 993.734 -7.72365 0.25926 0
M  V30 10688 H 992.079 -6.94632 0.226214 0
M  V30 10689 H 995.27 -4.67897 -0.137815 0
M  V30 10690 H 995.443 -6.4797 0.0619121 0
M  V30 10691 N 988.849 0.203349 -1.56283 0
M  V30 10692 C 989.797 1.27157 -1.94766 0
M  V30 10693 C 990.791 1.4756 -0.832005 0
M  V30 10694 O 991.997 1.48519 -1.01696 0
M  V30 10695 H 988.372 0.426712 -0.61921 0
M  V30 10696 H 990.343 0.919921 -2.83866 0
M  V30 10697 C 989.092 2.6108 -2.29636 0
M  V30 10698 H 988.415 2.46193 -3.15006 0
M  V30 10699 H 989.855 3.34591 -2.60433 0
M  V30 10700 C 988.314 3.17456 -1.12799 0
M  V30 10701 O 988.844 3.99717 -0.398661 0
M  V30 10702 N 987.05 2.76084 -0.906975 0
M  V30 10703 H 986.597 2.09294 -1.50179 0
M  V30 10704 H 986.555 3.14143 -0.127005 0
M  V30 10705 N 990.327 1.50405 0.470755 0
M  V30 10706 C 991.555 1.65168 1.24608 0
M  V30 10707 C 991.97 0.335153 1.85801 0
M  V30 10708 O 991.327 -0.682919 1.69241 0
M  V30 10709 C 991.378 2.74305 2.35455 0
M  V30 10710 O 991.099 4.00854 1.76771 0
M  V30 10711 C 992.6 3.00044 3.26326 0
M  V30 10712 H 989.82 0.555186 0.376842 0
M  V30 10713 H 992.364 1.9663 0.56187 0
M  V30 10714 H 990.519 2.45536 2.99651 0
M  V30 10715 H 990.933 4.61211 2.49769 0
M  V30 10716 H 992.407 3.8007 4.00313 0
M  V30 10717 H 992.884 2.11128 3.85126 0
M  V30 10718 H 993.49 3.30345 2.67866 0
M  V30 10719 N 991.805 -0.723954 1.39988 0
M  V30 10720 C 993.033 -1.51313 1.4111 0
M  V30 10721 C 993.448 -1.88798 0.00853333 0
M  V30 10722 O 992.805 -1.54868 -0.965516 0
M  V30 10723 C 992.856 -2.79375 2.29416 0
M  V30 10724 O 992.577 -2.43478 3.64211 0
M  V30 10725 C 994.078 -3.7333 2.3904 0
M  V30 10726 H 991.298 -0.46724 0.481589 0
M  V30 10727 H 993.842 -0.893694 1.83938 0
M  V30 10728 H 991.997 -3.37624 1.89971 0
M  V30 10729 H 992.411 -3.25821 4.11024 0
M  V30 10730 H 993.885 -4.60051 3.05053 0
M  V30 10731 H 994.362 -4.15854 1.41289 0
M  V30 10732 H 994.968 -3.20996 2.79001 0
M  V30 10733 N 993.283 -1.25346 -0.955304 0
M  V30 10734 C 994.694 -1.09173 -1.51453 0
M  V30 10735 C 995.045 0.332755 -1.93358 0
M  V30 10736 O 994.17 1.22264 -1.78551 0
M  V30 10737 C 994.765 -1.97564 -2.75234 0
M  V30 10738 C 993.324 -1.85579 -3.27471 0
M  V30 10739 C 992.471 -1.91755 -2.00313 0
M  V30 10740 H 995.422 -1.38642 -0.772271 0
M  V30 10741 H 995.443 -1.51523 -3.49029 0
M  V30 10742 H 994.955 -3.01233 -2.44704 0
M  V30 10743 H 993.056 -0.847906 -3.62824 0
M  V30 10744 H 993.169 -2.70353 -3.95533 0
M  V30 10745 H 991.533 -1.35633 -2.15582 0
M  V30 10746 H 992.316 -2.97028 -1.72132 0
M  V30 10747 N 994.761 1.15782 -1.06922 0
M  V30 10748 C 995.709 2.22441 -0.679893 0
M  V30 10749 C 996.703 1.66591 0.307221 0
M  V30 10750 O 997.909 1.79182 0.171402 0
M  V30 10751 H 994.284 0.724427 -0.201765 0
M  V30 10752 H 996.255 2.52562 -1.58918 0
M  V30 10753 C 995.004 3.47586 -0.0891142 0
M  V30 10754 H 994.327 3.9088 -0.839805 0
M  V30 10755 H 995.767 4.2375 0.14569 0
M  V30 10756 C 994.226 3.15967 1.16903 0
M  V30 10757 O 994.756 3.32359 2.25611 0
M  V30 10758 N 992.962 2.70046 1.07349 0
M  V30 10759 H 992.509 2.56907 0.188825 0
M  V30 10760 H 992.467 2.49264 1.91611 0
M  V30 10761 N 996.239 0.8527 1.3254 0
M  V30 10762 C 997.486 0.455123 1.97319 0
M  V30 10763 C 997.814 -0.988814 1.67489 0
M  V30 10764 O 997.069 -1.70845 0.954483 0
M  V30 10765 C 997.368 0.638757 3.51646 0
M  V30 10766 C 997.034 2.05287 4.01458 0
M  V30 10767 C 995.696 2.43963 4.14771 0
M  V30 10768 C 998.048 2.9759 4.27889 0
M  V30 10769 C 995.376 3.7422 4.51859 0
M  V30 10770 C 997.728 4.27343 4.66434 0
M  V30 10771 C 996.392 4.65957 4.77954 0
M  V30 10772 H 995.662 0.166541 0.722042 0
M  V30 10773 H 998.309 1.08238 1.57977 0
M  V30 10774 H 996.614 -0.0717394 3.91734 0
M  V30 10775 H 998.311 0.311219 3.9979 0
M  V30 10776 H 994.901 1.74253 3.91579 0
M  V30 10777 H 999.085 2.68942 4.17114 0
M  V30 10778 H 994.341 4.03923 4.58973 0
M  V30 10779 H 998.515 4.9893 4.85841 0
M  V30 10780 H 996.142 5.66934 5.06449 0
M  V30 10781 N 997.718 -1.45297 0.610449 0
M  V30 10782 C 998.964 -2.02518 0.106917 0
M  V30 10783 C 999.297 -1.47747 -1.26034 0
M  V30 10784 O 998.572 -0.65329 -1.832 0
M  V30 10785 C 998.855 -3.6003 0.0710975 0
M  V30 10786 C 998.708 -4.25128 1.46922 0
M  V30 10787 C 1000.03 -4.35778 -0.61524 0
M  V30 10788 H 997.146 -0.735896 0.040327 0
M  V30 10789 H 999.788 -1.73117 0.782968 0
M  V30 10790 H 997.938 -3.85209 -0.504611 0
M  V30 10791 H 999.61 -4.11125 2.09223 0
M  V30 10792 H 997.853 -3.83418 2.02911 0
M  V30 10793 H 998.524 -5.34046 1.39637 0
M  V30 10794 H 1001 -4.1591 -0.125871 0
M  V30 10795 H 999.876 -5.45506 -0.609419 0
M  V30 10796 H 1000.14 -4.08859 -1.68186 0
M  V30 10797 N 999.196 -0.349774 -1.5367 0
M  V30 10798 C 1000.61 0.00191293 -1.596 0
M  V30 10799 C 1000.81 1.48175 -1.36552 0
M  V30 10800 O 999.868 2.24129 -1.16285 0
M  V30 10801 C 1001.18 -0.439848 -2.97466 0
M  V30 10802 C 1002.73 -0.392721 -3.10526 0
M  V30 10803 C 1003.2 -0.810047 -4.5078 0
M  V30 10804 N 1004.69 -0.764478 -4.56848 0
M  V30 10805 C 1005.43 -1.05927 -5.63531 0
M  V30 10806 N 1004.93 -1.42253 -6.78038 0
M  V30 10807 N 1006.72 -0.983098 -5.53436 0
M  V30 10808 H 998.87 -1.31364 -1.66905 0
M  V30 10809 H 1001.13 -0.535908 -0.781989 0
M  V30 10810 H 1000.84 -1.47189 -3.19419 0
M  V30 10811 H 1000.71 0.181735 -3.76762 0
M  V30 10812 H 1003.1 0.630161 -2.88293 0
M  V30 10813 H 1003.18 -1.04959 -2.33275 0
M  V30 10814 H 1002.82 -1.83097 -4.73749 0
M  V30 10815 H 1002.75 -0.130591 -5.26438 0
M  V30 10816 H 1005.25 -0.496637 -3.74622 0
M  V30 10817 H 1005.56 -1.63215 -7.55368 0
M  V30 10818 H 1003.9 -1.46104 -6.79469 0
M  V30 10819 H 1007.09 -0.698601 -4.62858 0
M  V30 10820 H 1007.27 -1.21618 -6.36485 0
M  V30 10821 N 1000.67 1.57404 -0.0785433 0
M  V30 10822 C 1001.91 1.95621 0.592595 0
M  V30 10823 C 1002.28 0.958429 1.66367 0
M  V30 10824 O 1003.48 1.2285 2.39084 0
M  V30 10825 C 1001.75 3.38445 1.14846 0
M  V30 10826 S 1003.31 3.98645 1.83378 0
M  V30 10827 H 1000.13 0.684063 0.193851 0
M  V30 10828 H 1002.73 1.94892 -0.154007 0
M  V30 10829 H 1001.43 4.08843 0.357179 0
M  V30 10830 H 1000.96 3.42733 1.93127 0
M  V30 10831 H 1002.98 3.86099 3.11676 0
M  V30 10832 N 1002.15 -0.195058 1.56388 0
M  V30 10833 C 1003.4 -0.913626 1.79821 0
M  V30 10834 C 1003.71 -1.84422 0.651767 0
M  V30 10835 O 1004.92 -2.6034 0.770402 0
M  V30 10836 C 1003.38 -1.67497 3.18548 0
M  V30 10837 C 1002.98 -0.789205 4.40994 0
M  V30 10838 C 1004.73 -2.38318 3.5129 0
M  V30 10839 C 1002.63 -1.54942 5.70742 0
M  V30 10840 H 1001.56 -0.344891 0.670497 0
M  V30 10841 H 1004.22 -0.166912 1.82739 0
M  V30 10842 H 1002.6 -2.46557 3.0988 0
M  V30 10843 H 1003.77 -0.0372595 4.60785 0
M  V30 10844 H 1002.09 -0.191834 4.15958 0
M  V30 10845 H 1004.68 -2.95745 4.45465 0
M  V30 10846 H 1005.03 -3.12507 2.75037 0
M  V30 10847 H 1005.56 -1.66224 3.61406 0
M  V30 10848 H 1002.3 -0.85031 6.49962 0
M  V30 10849 H 1001.82 -2.2753 5.54969 0
M  V30 10850 H 1003.5 -2.1032 6.11861 0
M  V30 10851 N 1003.63 -1.50653 -0.462772 0
M  V30 10852 C 1004.88 -1.61296 -1.21105 0
M  V30 10853 C 1005.19 -0.322757 -1.92919 0
M  V30 10854 O 1006.4 -0.308211 -2.69745 0
M  V30 10855 C 1004.85 -2.84752 -2.201 0
M  V30 10856 C 1004.46 -4.20681 -1.54051 0
M  V30 10857 C 1006.21 -3.04744 -2.95518 0
M  V30 10858 C 1004.11 -5.35314 -2.51381 0
M  V30 10859 H 1003.04 -0.60069 -0.455728 0
M  V30 10860 H 1005.69 -1.77093 -0.480656 0
M  V30 10861 H 1004.08 -2.62532 -2.96467 0
M  V30 10862 H 1005.25 -4.53187 -0.834168 0
M  V30 10863 H 1003.56 -4.06361 -0.908828 0
M  V30 10864 H 1006.16 -3.87559 -3.68378 0
M  V30 10865 H 1006.5 -2.16802 -3.55391 0
M  V30 10866 H 1007.04 -3.27185 -2.26263 0
M  V30 10867 H 1003.78 -6.25437 -1.96235 0
M  V30 10868 H 1003.3 -5.07216 -3.20144 0
M  V30 10869 H 1004.98 -5.66229 -3.1304 0
M  V30 10870 N 1005.11 0.71652 -1.4037 0
M  V30 10871 C 1006.52 1.29562 -1.34427 0
M  V30 10872 C 1006.87 1.96192 -0.0173106 0
M  V30 10873 O 1006 1.97488 0.884719 0
M  V30 10874 C 1006.59 2.35601 -2.4347 0
M  V30 10875 C 1005.15 2.89138 -2.4099 0
M  V30 10876 C 1004.3 1.62915 -2.24397 0
M  V30 10877 H 1007.25 0.512715 -1.5019 0
M  V30 10878 H 1007.27 3.16422 -2.11323 0
M  V30 10879 H 1006.78 1.87077 -3.40035 0
M  V30 10880 H 1004.88 3.41894 -1.4812 0
M  V30 10881 H 1004.99 3.40995 -3.3654 0
M  V30 10882 H 1003.36 1.87947 -1.71896 0
M  V30 10883 H 1004.14 1.16417 -3.22958 0
M  V30 10884 N 1006.59 1.25851 0.948643 0
M  V30 10885 C 1007.53 1.06559 2.06756 0
M  V30 10886 C 1008.53 -0.00528632 1.69399 0
M  V30 10887 O 1009.73 0.150806 1.79367 0
M  V30 10888 H 1006.11 0.327689 0.676848 0
M  V30 10889 H 1008.08 2.01401 2.20182 0
M  V30 10890 C 1006.83 0.707392 3.40428 0
M  V30 10891 H 1006.15 1.52324 3.69645 0
M  V30 10892 H 1007.59 0.612142 4.19558 0
M  V30 10893 C 1006.05 -0.58697 3.31747 0
M  V30 10894 O 1006.58 -1.62741 3.67258 0
M  V30 10895 N 1004.79 -0.574828 2.84858 0
M  V30 10896 H 1004.33 0.272236 2.56157 0
M  V30 10897 H 1004.29 -1.441 2.79432 0
M  V30 10898 N 1008.06 -1.15214 1.07534 0
M  V30 10899 C 1009.01 -2.18022 0.667108 0
M  V30 10900 C 1010 -1.57911 -0.308714 0
M  V30 10901 O 1011.19 -1.76578 -0.122147 0
M  V30 10902 C 1008.32 -3.43232 0.0684348 0
M  V30 10903 C 1007.41 -4.10393 1.06951 0
M  V30 10904 N 1007.8 -4.53013 2.24973 0
M  V30 10905 C 1006.09 -4.36758 0.903262 0
M  V30 10906 C 1006.8 -5.05118 2.88498 0
M  V30 10907 N 1005.77 -4.98777 2.16153 0
M  V30 10908 H 1009.57 -2.48706 1.56597 0
M  V30 10909 H 1007.09 -1.31801 0.948796 0
M  V30 10910 H 1009.08 -4.16197 -0.241934 0
M  V30 10911 H 1007.74 -3.14031 -0.825525 0
M  V30 10912 H 1008.76 -4.4634 2.6268 0
M  V30 10913 H 1005.43 -4.17453 0.0623543 0
M  V30 10914 H 1006.82 -5.48039 3.8872 0
M  V30 10915 N 1009.54 -0.859717 -1.32086 0
M  V30 10916 C 1010.45 -0.31108 -2.32528 0
M  V30 10917 C 1011.47 0.573714 -1.6427 0
M  V30 10918 O 1012.64 0.472878 -1.9577 0
M  V30 10919 C 1009.71 0.487256 -3.43259 0
M  V30 10920 C 1008.77 -0.424279 -4.27198 0
M  V30 10921 C 1008 0.336051 -5.32641 0
M  V30 10922 O 1008.23 1.56541 -5.48499 0
M  V30 10923 O 1007.16 -0.300777 -6.01148 0
M  V30 10924 H 1010.99 -1.14336 -2.81355 0
M  V30 10925 H 1008.57 -0.622794 -1.358 0
M  V30 10926 H 1010.45 0.940203 -4.10777 0
M  V30 10927 H 1009.13 1.29626 -2.96612 0
M  V30 10928 H 1008.04 -0.925509 -3.62471 0
M  V30 10929 H 1009.37 -1.1986 -4.77383 0
M  V30 10930 N 1011.02 1.44971 -0.618145 0
M  V30 10931 C 1011.97 2.30606 0.09449 0
M  V30 10932 C 1012.94 1.42725 0.849633 0
M  V30 10933 O 1014.12 1.71643 0.833266 0
M  V30 10934 C 1011.26 3.27803 1.07886 0
M  V30 10935 C 1010.38 4.30787 0.323488 0
M  V30 10936 C 1009.51 5.15085 1.29851 0
M  V30 10937 C 1008.55 6.09788 0.531561 0
M  V30 10938 N 1007.69 6.86829 1.4564 0
M  V30 10939 H 1012.53 2.91008 -0.641738 0
M  V30 10940 H 1010.06 1.43391 -0.328259 0
M  V30 10941 H 1012.02 3.82631 1.66281 0
M  V30 10942 H 1010.65 2.69131 1.78237 0
M  V30 10943 H 1009.7 3.78536 -0.376164 0
M  V30 10944 H 1011.02 4.98044 -0.274443 0
M  V30 10945 H 1010.17 5.74365 1.95421 0
M  V30 10946 H 1008.91 4.4787 1.93037 0
M  V30 10947 H 1007.91 5.49628 -0.137702 0
M  V30 10948 H 1009.14 6.79033 -0.0953993 0
M  V30 10949 H 1007.08 6.22295 2.07571 0
M  V30 10950 H 1007 7.50477 0.912167 0
M  V30 10951 H 1008.27 7.50642 2.10134 0
M  V30 10952 N 1012.5 0.357919 1.53482 0
M  V30 10953 C 1013.91 0.00655107 1.59599 0
M  V30 10954 C 1014.11 -1.47449 1.37336 0
M  V30 10955 O 1013.17 -2.2351 1.17472 0
M  V30 10956 C 1014.48 0.455617 2.97228 0
M  V30 10957 C 1016.03 0.409183 3.10314 0
M  V30 10958 C 1016.51 0.833941 4.50344 0
M  V30 10959 N 1018 0.788695 4.56436 0
M  V30 10960 C 1018.73 1.08914 5.62961 0
M  V30 10961 N 1018.23 1.45847 6.77274 0
M  V30 10962 N 1020.02 1.01243 5.52907 0
M  V30 10963 H 1012.17 1.32248 1.66206 0
M  V30 10964 H 1014.44 0.540047 0.779136 0
M  V30 10965 H 1014.14 1.48881 3.18634 0
M  V30 10966 H 1014.02 -0.161751 3.76853 0
M  V30 10967 H 1016.4 -0.614863 2.88623 0
M  V30 10968 H 1016.48 1.06195 2.32715 0
M  V30 10969 H 1016.13 1.85607 4.72771 0
M  V30 10970 H 1016.06 0.158507 5.26361 0
M  V30 10971 H 1018.55 0.516497 3.74354 0
M  V30 10972 H 1018.86 1.67218 7.54492 0
M  V30 10973 H 1017.21 1.49705 6.78685 0
M  V30 10974 H 1020.4 0.723137 4.62481 0
M  V30 10975 H 1020.57 1.24991 6.35831 0
M  V30 10976 N 1013.98 -1.5736 0.0868897 0
M  V30 10977 C 1015.2 -1.98809 -0.590757 0
M  V30 10978 C 1015.63 -0.965407 -1.61436 0
M  V30 10979 O 1014.98 0.067143 -1.81176 0
M  V30 10980 C 1015.03 -3.39249 -1.22238 0
M  V30 10981 O 1014.14 -3.39706 -2.33824 0
M  V30 10982 H 1013.48 -0.64669 -0.150626 0
M  V30 10983 H 1016.01 -2.03927 0.165873 0
M  V30 10984 H 1016.02 -3.76765 -1.56564 0
M  V30 10985 H 1014.69 -4.13208 -0.472434 0
M  V30 10986 H 1013.27 -3.13977 -2.01178 0
M  V30 10987 N 1015.45 0.186762 -1.56489 0
M  V30 10988 C 1016.7 0.904063 -1.80752 0
M  V30 10989 C 1017.02 1.83443 -0.661343 0
M  V30 10990 O 1016.29 1.93272 0.319811 0
M  V30 10991 H 1014.87 0.336828 -0.66675 0
M  V30 10992 H 1017.54 0.190275 -1.93969 0
M  V30 10993 H 1016.63 1.49021 -2.74225 0
M  V30 10994 N 1016.93 1.50896 0.454776 0
M  V30 10995 C 1017.88 1.70947 1.55067 0
M  V30 10996 C 1018.85 0.550899 1.56698 0
M  V30 10997 O 1020.03 0.783352 1.73978 0
M  V30 10998 C 1017.17 1.82455 2.92924 0
M  V30 10999 C 1016.29 3.09919 3.00956 0
M  V30 11000 C 1015.42 3.12125 4.29827 0
M  V30 11001 C 1014.46 4.33975 4.31662 0
M  V30 11002 N 1013.6 4.33828 5.5203 0
M  V30 11003 H 1018.44 2.645 1.37273 0
M  V30 11004 H 1015.98 1.31101 0.667148 0
M  V30 11005 H 1017.93 1.87108 3.72889 0
M  V30 11006 H 1016.56 0.92327 3.09315 0
M  V30 11007 H 1015.62 3.14659 2.13761 0
M  V30 11008 H 1016.93 3.99869 2.98172 0
M  V30 11009 H 1016.08 3.15598 5.18154 0
M  V30 11010 H 1014.82 2.20033 4.35243 0
M  V30 11011 H 1013.83 4.30697 3.41731 0
M  V30 11012 H 1015.05 5.27312 4.27924 0
M  V30 11013 H 1013 3.44598 5.58201 0
M  V30 11014 H 1012.91 5.17566 5.51055 0
M  V30 11015 H 1014.18 4.4147 6.42437 0
M  V30 11016 N 1018.41 -0.709066 1.40748 0
M  V30 11017 C 1019.34 -1.83583 1.4429 0
M  V30 11018 C 1020.32 -1.67378 0.303067 0
M  V30 11019 O 1021.51 -1.87312 0.512612 0
M  V30 11020 C 1018.64 -3.21599 1.31116 0
M  V30 11021 C 1017.59 -3.52486 2.4277 0
M  V30 11022 C 1016.92 -4.89716 2.14668 0
M  V30 11023 C 1018.22 -3.52824 3.85113 0
M  V30 11024 H 1019.91 -1.80876 2.38588 0
M  V30 11025 H 1017.46 -0.868795 1.14839 0
M  V30 11026 H 1019.41 -4.00123 1.32209 0
M  V30 11027 H 1018.13 -3.24898 0.332965 0
M  V30 11028 H 1016.79 -2.76305 2.40937 0
M  V30 11029 H 1016.44 -4.89625 1.15224 0
M  V30 11030 H 1016.14 -5.11347 2.89478 0
M  V30 11031 H 1017.66 -5.70566 2.17455 0
M  V30 11032 H 1019.08 -4.21377 3.88734 0
M  V30 11033 H 1017.48 -3.85984 4.59496 0
M  V30 11034 H 1018.55 -2.52073 4.14231 0
M  V30 11035 N 1019.89 -1.26353 -0.941956 0
M  V30 11036 C 1021.17 -1.02601 -1.6653 0
M  V30 11037 C 1021.55 0.44381 -2.06382 0
M  V30 11038 O 1020.89 1.42399 -1.78703 0
M  V30 11039 C 1021.1 -1.97401 -2.87809 0
M  V30 11040 C 1022.45 -2.25967 -3.59478 0
M  V30 11041 O 1023.48 -1.95261 -2.97912 0
M  V30 11042 O 1022.34 -2.78244 -4.70364 0
M  V30 11043 H 1019.43 -0.39007 -0.729228 0
M  V30 11044 H 1021.98 -1.37559 -0.993754 0
M  V30 11045 H 1020.75 -2.9659 -2.55245 0
M  V30 11046 H 1020.37 -1.62918 -3.62689 0
M  V30 11047 N 1021.37 1.14642 -1.08144 0
M  V30 11048 C 1022.33 2.17834 -0.712799 0
M  V30 11049 C 1023.33 1.58828 0.251041 0
M  V30 11050 O 1024.52 1.74173 0.0309381 0
M  V30 11051 C 1021.65 3.4086 -0.0519477 0
M  V30 11052 H 1022.85 2.51961 -1.62653 0
M  V30 11053 H 1020.4 1.29243 -0.878971 0
M  V30 11054 H 1021.13 3.12311 0.873636 0
M  V30 11055 H 1020.92 3.84952 -0.745286 0
M  V30 11056 H 1022.41 4.17163 0.191031 0
M  V30 11057 N 1022.85 0.866709 1.31628 0
M  V30 11058 C 1024.09 0.476026 1.96825 0
M  V30 11059 C 1024.42 -0.970994 1.68529 0
M  V30 11060 O 1023.68 -1.69823 0.97255 0
M  V30 11061 C 1023.97 0.676018 3.50948 0
M  V30 11062 C 1023.64 2.09533 3.99258 0
M  V30 11063 C 1022.3 2.48349 4.1216 0
M  V30 11064 C 1024.65 3.02112 4.24709 0
M  V30 11065 C 1021.98 3.78991 4.47864 0
M  V30 11066 C 1024.33 4.32266 4.61875 0
M  V30 11067 C 1023 4.71 4.72985 0
M  V30 11068 H 1022.27 0.17419 0.720235 0
M  V30 11069 H 1024.92 1.09907 1.5682 0
M  V30 11070 H 1023.22 -0.0301867 3.91788 0
M  V30 11071 H 1024.92 0.353604 3.99438 0
M  V30 11072 H 1021.51 1.78396 3.89709 0
M  V30 11073 H 1025.69 2.73351 4.14238 0
M  V30 11074 H 1020.95 4.08769 4.54663 0
M  V30 11075 H 1025.12 5.04055 4.80522 0
M  V30 11076 H 1022.75 5.72273 5.00407 0
M  V30 11077 N 1024.32 -1.44642 0.625825 0
M  V30 11078 C 1025.25 -2.33397 -0.0692188 0
M  V30 11079 C 1026.23 -1.47898 -0.840241 0
M  V30 11080 O 1027.42 -1.7663 -0.807176 0
M  V30 11081 C 1024.55 -3.30888 -1.055 0
M  V30 11082 C 1023.5 -4.26164 -0.395968 0
M  V30 11083 C 1022.83 -5.13483 -1.49128 0
M  V30 11084 C 1024.13 -5.17663 0.694433 0
M  V30 11085 H 1025.82 -2.91763 0.671925 0
M  V30 11086 H 1023.37 -1.40294 0.324573 0
M  V30 11087 H 1025.32 -3.91861 -1.54993 0
M  V30 11088 H 1024.05 -2.7072 -1.82696 0
M  V30 11089 H 1022.71 -3.66516 0.0782691 0
M  V30 11090 H 1022.35 -4.49672 -2.25399 0
M  V30 11091 H 1022.05 -5.78038 -1.05573 0
M  V30 11092 H 1023.58 -5.77327 -1.98813 0
M  V30 11093 H 1024.99 -5.72602 0.282818 0
M  V30 11094 H 1023.39 -5.90793 1.05281 0
M  V30 11095 H 1024.46 -4.58994 1.56372 0
M  V30 11096 N 1025.8 -0.366053 -1.5329 0
M  V30 11097 C 1027.05 0.223824 -2.01561 0
M  V30 11098 C 1027.38 1.48382 -1.25286 0
M  V30 11099 O 1026.66 1.91385 -0.34669 0
M  V30 11100 C 1026.94 0.5153 -3.56394 0
M  V30 11101 C 1026.79 -0.758357 -4.43361 0
M  V30 11102 C 1028.11 1.31568 -4.19974 0
M  V30 11103 H 1025.23 0.0798751 -0.732659 0
M  V30 11104 H 1027.87 -0.491038 -1.83545 0
M  V30 11105 H 1026.02 1.12429 -3.71876 0
M  V30 11106 H 1027.69 -1.39584 -4.39675 0
M  V30 11107 H 1025.94 -1.37862 -4.11311 0
M  V30 11108 H 1026.61 -0.509366 -5.49645 0
M  V30 11109 H 1029.08 0.800514 -4.08327 0
M  V30 11110 H 1027.96 1.48837 -5.28336 0
M  V30 11111 H 1028.22 2.32432 -3.76069 0
M  V30 11112 N 1027.28 1.57312 -0.0952337 0
M  V30 11113 C 1028.21 2.17056 0.860753 0
M  V30 11114 C 1029.19 1.10394 1.29411 0
M  V30 11115 O 1030.38 1.38532 1.36098 0
M  V30 11116 C 1027.51 2.751 2.11984 0
M  V30 11117 C 1026.46 3.87136 1.8251 0
M  V30 11118 C 1025.79 4.31883 3.15247 0
M  V30 11119 C 1027.09 5.10326 1.11194 0
M  V30 11120 H 1028.78 2.97192 0.362983 0
M  V30 11121 H 1026.33 1.42955 0.173151 0
M  V30 11122 H 1028.28 3.15547 2.79299 0
M  V30 11123 H 1027 1.92219 2.64044 0
M  V30 11124 H 1025.66 3.47229 1.17592 0
M  V30 11125 H 1025.31 3.45893 3.65195 0
M  V30 11126 H 1025.01 5.0742 2.96309 0
M  V30 11127 H 1026.53 4.74964 3.83721 0
M  V30 11128 H 1027.95 5.47942 1.6862 0
M  V30 11129 H 1026.34 5.91293 1.02435 0
M  V30 11130 H 1027.41 4.84807 0.0947227 0
M  V30 11131 N 1028.76 -0.17846 1.56586 0
M  V30 11132 C 1029.67 -1.24115 1.9908 0
M  V30 11133 C 1030.68 -1.48854 0.901031 0
M  V30 11134 O 1031.86 -1.61142 1.2081 0
M  V30 11135 C 1028.92 -2.56187 2.33601 0
M  V30 11136 C 1027.99 -2.39373 3.56369 0
M  V30 11137 C 1027.22 -3.65147 3.89234 0
M  V30 11138 O 1027.44 -4.70024 3.23162 0
M  V30 11139 O 1026.38 -3.59683 4.82609 0
M  V30 11140 H 1030.2 -0.910482 2.89731 0
M  V30 11141 H 1027.79 -0.38477 1.4436 0
M  V30 11142 H 1029.67 -3.34109 2.56806 0
M  V30 11143 H 1028.34 -2.88847 1.46113 0
M  V30 11144 H 1027.25 -1.59506 3.38391 0
M  V30 11145 H 1028.58 -2.1164 4.44375 0
M  V30 11146 N 1030.24 -1.51135 -0.446768 0
M  V30 11147 C 1031.17 -1.67949 -1.55967 0
M  V30 11148 C 1032.18 -0.560337 -1.52853 0
M  V30 11149 O 1033.37 -0.83435 -1.578 0
M  V30 11150 C 1030.47 -1.6703 -2.9488 0
M  V30 11151 C 1029.64 -2.95377 -3.22601 0
M  V30 11152 C 1028.7 -2.86772 -4.4119 0
M  V30 11153 O 1027.73 -3.60722 -4.40304 0
M  V30 11154 N 1028.93 -2.01979 -5.44228 0
M  V30 11155 H 1031.69 -2.63951 -1.41951 0
M  V30 11156 H 1029.26 -1.48903 -0.635569 0
M  V30 11157 H 1031.25 -1.58854 -3.7222 0
M  V30 11158 H 1029.82 -0.786623 -3.02541 0
M  V30 11159 H 1029.04 -3.17494 -2.33647 0
M  V30 11160 H 1030.33 -3.80356 -3.37945 0
M  V30 11161 H 1029.72 -1.41257 -5.4778 0
M  V30 11162 H 1028.28 -1.99689 -6.20457 0
M  V30 11163 N 1031.71 0.701592 -1.41122 0
M  V30 11164 C 1032.64 1.82815 -1.45262 0
M  V30 11165 C 1033.62 1.67215 -0.311939 0
M  V30 11166 O 1034.81 1.87038 -0.522538 0
M  V30 11167 C 1031.94 3.20899 -1.32819 0
M  V30 11168 C 1030.89 3.51194 -2.44636 0
M  V30 11169 C 1030.22 4.8857 -2.17263 0
M  V30 11170 C 1031.52 3.50777 -3.86979 0
M  V30 11171 H 1033.21 1.79608 -2.39544 0
M  V30 11172 H 1030.76 0.862693 -1.15298 0
M  V30 11173 H 1032.71 3.99417 -1.34329 0
M  V30 11174 H 1031.44 3.24717 -0.350191 0
M  V30 11175 H 1030.1 2.75024 -2.42399 0
M  V30 11176 H 1029.74 4.89007 -1.17819 0
M  V30 11177 H 1029.44 5.09805 -2.92186 0
M  V30 11178 H 1030.97 5.69405 -2.20478 0
M  V30 11179 H 1032.38 4.19309 -3.90964 0
M  V30 11180 H 1030.78 3.83542 -4.61536 0
M  V30 11181 H 1031.85 2.49873 -4.15562 0
M  V30 11182 N 1033.19 1.2685 0.935242 0
M  V30 11183 C 1034.61 1.04091 1.20984 0
M  V30 11184 C 1034.81 -0.230242 2.0018 0
M  V30 11185 O 1033.86 -0.93778 2.3444 0
M  V30 11186 C 1035.18 2.27586 1.96533 0
M  V30 11187 C 1036.72 2.32547 2.09501 0
M  V30 11188 C 1037.2 3.55751 2.88454 0
M  V30 11189 N 1038.69 3.56263 2.96025 0
M  V30 11190 C 1039.43 4.48262 3.57559 0
M  V30 11191 N 1038.92 5.50557 4.20546 0
M  V30 11192 N 1040.71 4.35901 3.5489 0
M  V30 11193 H 1032.87 2.08484 0.405954 0
M  V30 11194 H 1035.13 0.916548 0.242164 0
M  V30 11195 H 1034.83 3.20076 1.45753 0
M  V30 11196 H 1034.71 2.32305 2.97177 0
M  V30 11197 H 1037.1 1.40568 2.5947 0
M  V30 11198 H 1037.18 2.31836 1.08101 0
M  V30 11199 H 1036.82 4.48063 2.3917 0
M  V30 11200 H 1036.75 3.53711 3.90123 0
M  V30 11201 H 1039.24 2.82278 2.51252 0
M  V30 11202 H 1039.55 6.16935 4.65415 0
M  V30 11203 H 1037.9 5.54407 4.19115 0
M  V30 11204 H 1041.09 3.552 3.04879 0
M  V30 11205 H 1041.26 5.07792 4.02557 0
M  V30 11206 N 1034.67 -1.14067 1.0875 0
M  V30 11207 C 1035.91 -1.8684 0.828873 0
M  V30 11208 C 1036.27 -1.81235 -0.633879 0
M  V30 11209 O 1037.48 -2.49178 -1.00815 0
M  V30 11210 C 1035.75 -3.31299 1.34073 0
M  V30 11211 S 1037.31 -4.21645 1.21494 0
M  V30 11212 H 1034.12 -0.644622 0.299972 0
M  V30 11213 H 1036.73 -1.37526 1.38949 0
M  V30 11214 H 1035.43 -3.32929 2.39972 0
M  V30 11215 H 1034.96 -3.85672 0.775944 0
M  V30 11216 H 1036.98 -4.95937 0.161446 0
M  V30 11217 N 1036.15 -0.873678 -1.31166 0
M  V30 11218 C 1037.1 -0.321349 -2.3037 0
M  V30 11219 C 1038.09 0.565568 -1.5968 0
M  V30 11220 O 1039.3 0.451257 -1.74252 0
M  V30 11221 H 1035.67 -0.0852425 -0.747153 0
M  V30 11222 H 1037.64 -1.17191 -2.74425 0
M  V30 11223 C 1036.39 0.459016 -3.44657 0
M  V30 11224 H 1035.71 -0.214185 -3.99226 0
M  V30 11225 H 1037.15 0.810758 -4.16176 0
M  V30 11226 C 1035.61 1.65173 -2.93632 0
M  V30 11227 O 1036.14 2.75105 -2.92711 0
M  V30 11228 N 1034.35 1.4851 -2.49786 0
M  V30 11229 H 1033.9 0.590785 -2.50734 0
M  V30 11230 H 1033.85 2.28452 -2.16002 0
M  V30 11231 N 1037.63 1.44308 -0.633487 0
M  V30 11232 C 1038.87 2.01624 -0.138643 0
M  V30 11233 C 1039.2 1.50101 1.24477 0
M  V30 11234 O 1038.47 0.705575 1.82752 0
M  V30 11235 H 1037.05 0.745439 -0.0482636 0
M  V30 11236 H 1039.71 1.76777 -0.820719 0
M  V30 11237 H 1038.8 3.11913 -0.108136 0
M  V30 11238 N 1039.1 0.374177 1.53094 0
M  V30 11239 C 1040.35 -0.213131 2.01677 0
M  V30 11240 C 1040.68 -1.47715 1.26071 0
M  V30 11241 O 1039.96 -1.91199 0.356834 0
M  V30 11242 C 1040.24 -0.496392 3.56662 0
M  V30 11243 C 1040.09 0.781859 4.42953 0
M  V30 11244 C 1041.41 -1.29339 4.20666 0
M  V30 11245 H 1038.53 -0.0759885 0.733072 0
M  V30 11246 H 1041.17 0.500765 1.83282 0
M  V30 11247 H 1039.32 -1.10455 3.72467 0
M  V30 11248 H 1041 1.41914 4.38928 0
M  V30 11249 H 1039.24 1.40041 4.10574 0
M  V30 11250 H 1039.91 0.538508 5.49367 0
M  V30 11251 H 1042.39 -0.778848 4.08746 0
M  V30 11252 H 1041.26 -1.46033 5.29118 0
M  V30 11253 H 1041.52 -2.30435 3.77296 0
M  V30 11254 N 1040.58 -1.57259 0.103575 0
M  V30 11255 C 1041.51 -2.17509 -0.84923 0
M  V30 11256 C 1042.49 -1.11079 -1.28824 0
M  V30 11257 O 1043.68 -1.39252 -1.35361 0
M  V30 11258 C 1040.81 -2.76221 -2.10522 0
M  V30 11259 C 1039.76 -3.88098 -1.80454 0
M  V30 11260 C 1039.09 -4.33549 -3.12952 0
M  V30 11261 C 1040.39 -5.10909 -1.08486 0
M  V30 11262 H 1042.08 -2.9738 -0.347217 0
M  V30 11263 H 1039.63 -1.43045 -0.165568 0
M  V30 11264 H 1041.58 -3.17024 -2.77621 0
M  V30 11265 H 1040.31 -1.93617 -2.63021 0
M  V30 11266 H 1038.96 -3.47847 -1.15749 0
M  V30 11267 H 1038.61 -3.47825 -3.63355 0
M  V30 11268 H 1038.31 -5.08984 -2.93614 0
M  V30 11269 H 1039.84 -4.76992 -3.81196 0
M  V30 11270 H 1041.25 -5.48828 -1.65711 0
M  V30 11271 H 1039.65 -5.91828 -0.992973 0
M  V30 11272 H 1040.72 -4.84851 -0.0690108 0
M  V30 11273 N 1042.06 0.170153 -1.56679 0
M  V30 11274 C 1042.97 1.23057 -1.99735 0
M  V30 11275 C 1043.99 1.48374 -0.908912 0
M  V30 11276 O 1045.16 1.60499 -1.21663 0
M  V30 11277 C 1042.23 2.54944 -2.34956 0
M  V30 11278 C 1041.29 2.3748 -3.57634 0
M  V30 11279 C 1040.52 3.63078 -3.91165 0
M  V30 11280 O 1040.74 4.68304 -3.2565 0
M  V30 11281 O 1039.68 3.57119 -4.8451 0
M  V30 11282 H 1043.5 0.895104 -2.9021 0
M  V30 11283 H 1041.09 0.377109 -1.44562 0
M  V30 11284 H 1042.97 3.32742 -2.58574 0
M  V30 11285 H 1041.65 2.88068 -1.47643 0
M  V30 11286 H 1040.55 1.57709 -3.39232 0
M  V30 11287 H 1041.89 2.0928 -4.45491 0
M  V30 11288 N 1043.54 1.5137 0.438746 0
M  V30 11289 C 1044.79 1.63645 1.18595 0
M  V30 11290 C 1045.11 0.354241 1.91755 0
M  V30 11291 O 1044.38 -0.629838 1.85499 0
M  V30 11292 H 1042.96 0.603103 0.440767 0
M  V30 11293 H 1045.62 1.88293 0.503159 0
M  V30 11294 H 1044.72 2.46342 1.9163 0
M  V30 11295 N 1045.02 -0.694098 1.41492 0
M  V30 11296 C 1046.27 -1.4498 1.40227 0
M  V30 11297 C 1046.58 -1.95594 0.0151253 0
M  V30 11298 O 1047.78 -2.71234 -0.120146 0
M  V30 11299 C 1046.24 -2.62171 2.46565 0
M  V30 11300 C 1045.85 -2.18337 3.91194 0
M  V30 11301 C 1047.59 -3.39796 2.54439 0
M  V30 11302 C 1045.5 -3.32495 4.89082 0
M  V30 11303 H 1044.43 -0.544584 0.521483 0
M  V30 11304 H 1047.08 -0.75337 1.67322 0
M  V30 11305 H 1045.46 -3.34089 2.12604 0
M  V30 11306 H 1046.64 -1.53698 4.34412 0
M  V30 11307 H 1044.95 -1.53702 3.86994 0
M  V30 11308 H 1047.55 -4.2478 3.24755 0
M  V30 11309 H 1047.89 -3.85082 1.5817 0
M  V30 11310 H 1048.42 -2.74935 2.87499 0
M  V30 11311 H 1045.16 -2.92219 5.86761 0
M  V30 11312 H 1044.68 -3.95978 4.50512 0
M  V30 11313 H 1046.36 -3.98251 5.09907 0
M  V30 11314 N 1046.49 -1.27344 -0.928501 0
M  V30 11315 C 1047.91 -1.04732 -1.2043 0
M  V30 11316 C 1048.11 0.219623 -2.003 0
M  V30 11317 O 1047.17 0.925333 -2.34934 0
M  V30 11318 C 1048.48 -2.28625 -1.95323 0
M  V30 11319 C 1050.03 -2.33655 -2.08265 0
M  V30 11320 C 1050.5 -3.57275 -2.86563 0
M  V30 11321 N 1051.99 -3.57828 -2.94132 0
M  V30 11322 C 1052.73 -4.50152 -3.55177 0
M  V30 11323 N 1052.22 -5.52779 -4.17621 0
M  V30 11324 N 1054.02 -4.37777 -3.52573 0
M  V30 11325 H 1046.17 -2.08697 -0.394892 0
M  V30 11326 H 1048.43 -0.91782 -0.2373 0
M  V30 11327 H 1048.14 -3.20845 -1.44054 0
M  V30 11328 H 1048.01 -2.33878 -2.95941 0
M  V30 11329 H 1050.4 -1.41942 -2.58721 0
M  V30 11330 H 1050.48 -2.32406 -1.0687 0
M  V30 11331 H 1050.12 -4.49325 -2.3679 0
M  V30 11332 H 1050.05 -3.55775 -3.88242 0
M  V30 11333 H 1052.54 -2.83607 -2.49751 0
M  V30 11334 H 1052.86 -6.19394 -4.62137 0
M  V30 11335 H 1051.2 -5.56622 -4.16169 0
M  V30 11336 H 1054.39 -3.56811 -3.02991 0
M  V30 11337 H 1054.57 -5.09919 -3.99858 0
M  V30 11338 N 1047.97 1.13488 -1.09353 0
M  V30 11339 C 1049.22 1.841 -0.82401 0
M  V30 11340 C 1049.53 1.84393 0.652586 0
M  V30 11341 O 1050.74 2.5089 1.03762 0
M  V30 11342 C 1049.2 3.30523 -1.42418 0
M  V30 11343 C 1048.8 3.38621 -2.93326 0
M  V30 11344 C 1050.55 4.06182 -1.23356 0
M  V30 11345 C 1048.46 4.79311 -3.46432 0
M  V30 11346 H 1047.39 0.68974 -0.304589 0
M  V30 11347 H 1050.04 1.27866 -1.31615 0
M  V30 11348 H 1048.42 3.86555 -0.859727 0
M  V30 11349 H 1049.59 2.92587 -3.5599 0
M  V30 11350 H 1047.91 2.76426 -3.11412 0
M  V30 11351 H 1050.5 5.10047 -1.60488 0
M  V30 11352 H 1050.85 4.15936 -0.174152 0
M  V30 11353 H 1051.38 3.56477 -1.76547 0
M  V30 11354 H 1048.12 4.74748 -4.5199 0
M  V30 11355 H 1047.64 5.25842 -2.8853 0
M  V30 11356 H 1049.32 5.48227 -3.43593 0
M  V30 11357 N 1049.45 0.880621 1.30701 0
M  V30 11358 C 1050.69 0.503519 1.98101 0
M  V30 11359 C 1051.06 -0.929075 1.68024 0
M  V30 11360 O 1052.26 -1.41208 2.28722 0
M  V30 11361 C 1050.53 0.765652 3.49102 0
M  V30 11362 S 1052.09 0.490001 4.36056 0
M  V30 11363 H 1048.9 0.187522 0.685825 0
M  V30 11364 H 1051.51 1.13895 1.58897 0
M  V30 11365 H 1050.21 1.80688 3.68484 0
M  V30 11366 H 1049.74 0.117616 3.93224 0
M  V30 11367 H 1051.76 -0.673236 4.91612 0
M  V30 11368 N 1050.93 -1.4397 0.641131 0
M  V30 11369 C 1052.35 -1.56607 0.30762 0
M  V30 11370 C 1052.55 -1.62694 -1.18882 0
M  V30 11371 O 1051.6 -1.57541 -1.97325 0
M  V30 11372 C 1052.91 -2.83289 1.00834 0
M  V30 11373 C 1054.46 -2.97016 0.98744 0
M  V30 11374 C 1054.94 -4.26514 1.66882 0
M  V30 11375 N 1056.43 -4.33351 1.63589 0
M  V30 11376 C 1057.16 -5.32292 2.13196 0
M  V30 11377 N 1056.66 -6.37582 2.71038 0
M  V30 11378 N 1058.45 -5.23866 2.03766 0
M  V30 11379 H 1050.6 -1.38262 1.61237 0
M  V30 11380 H 1052.87 -0.663221 0.677378 0
M  V30 11381 H 1052.57 -2.84812 2.06337 0
M  V30 11382 H 1052.45 -3.73134 0.552333 0
M  V30 11383 H 1054.83 -2.95041 -0.0591395 0
M  V30 11384 H 1054.91 -2.08493 1.48203 0
M  V30 11385 H 1054.56 -4.2925 2.71491 0
M  V30 11386 H 1054.49 -5.13912 1.14898 0
M  V30 11387 H 1056.98 -3.5788 1.21368 0
M  V30 11388 H 1057.29 -7.09378 3.06597 0
M  V30 11389 H 1055.64 -6.38239 2.75093 0
M  V30 11390 H 1058.83 -4.40524 1.58291 0
M  V30 11391 H 1059 -6.00819 2.42737 0
M  V30 11392 N 1052.41 -0.382291 -1.52893 0
M  V30 11393 C 1053.34 0.491199 -2.23875 0
M  V30 11394 C 1054.35 1.03249 -1.25871 0
M  V30 11395 O 1055.54 0.936016 -1.5199 0
M  V30 11396 C 1052.64 1.6927 -2.936 0
M  V30 11397 C 1051.81 1.28 -4.18252 0
M  V30 11398 C 1050.87 2.34541 -4.71038 0
M  V30 11399 O 1049.9 1.96239 -5.34302 0
M  V30 11400 N 1051.1 3.6636 -4.50289 0
M  V30 11401 H 1053.87 -0.116897 -2.99472 0
M  V30 11402 H 1051.43 -0.208296 -1.60554 0
M  V30 11403 H 1053.42 2.40054 -3.25816 0
M  V30 11404 H 1051.99 2.20729 -2.21354 0
M  V30 11405 H 1051.21 0.40133 -3.92152 0
M  V30 11406 H 1052.5 0.98082 -4.99257 0
M  V30 11407 H 1051.9 4.00245 -3.99775 0
M  V30 11408 H 1050.45 4.332 -4.87013 0
M  V30 11409 N 1053.89 1.57202 -0.111913 0
M  V30 11410 C 1055.13 1.94565 0.546713 0
M  V30 11411 C 1055.45 0.995644 1.67666 0
M  V30 11412 O 1054.72 0.0506681 1.95834 0
M  V30 11413 H 1053.3 0.718334 0.204951 0
M  V30 11414 H 1055.97 1.94074 -0.179193 0
M  V30 11415 H 1055.06 2.9742 0.945931 0
M  V30 11416 N 1055.36 -0.161842 1.56767 0
M  V30 11417 C 1056.61 -0.876925 1.82527 0
M  V30 11418 C 1056.94 -1.81831 0.690492 0
M  V30 11419 O 1056.19 -1.9304 -0.32159 0
M  V30 11420 C 1056.49 -1.69736 3.14522 0
M  V30 11421 C 1056.16 -0.904075 4.41743 0
M  V30 11422 C 1054.82 -0.685168 4.76297 0
M  V30 11423 C 1057.17 -0.348282 5.20035 0
M  V30 11424 C 1054.5 0.10048 5.86614 0
M  V30 11425 C 1056.85 0.424327 6.31175 0
M  V30 11426 C 1055.52 0.653948 6.64289 0
M  V30 11427 H 1054.79 -0.320889 0.667915 0
M  V30 11428 H 1057.43 -0.141338 1.90978 0
M  V30 11429 H 1055.74 -2.50262 3.01456 0
M  V30 11430 H 1057.44 -2.25386 3.31666 0
M  V30 11431 H 1054.03 -1.08474 4.14646 0
M  V30 11432 H 1058.21 -0.504721 4.93727 0
M  V30 11433 H 1053.47 0.288029 6.10721 0
M  V30 11434 H 1057.64 0.862203 6.91042 0
M  V30 11435 H 1055.27 1.26459 7.49608 0
M  V30 11436 N 1056.84 -1.516 -0.430713 0
M  V30 11437 C 1058.25 -1.57 -1.01035 0
M  V30 11438 C 1058.6 -0.397439 -1.92132 0
M  V30 11439 O 1057.73 0.484954 -2.10896 0
M  V30 11440 C 1058.32 -2.84536 -1.83915 0
M  V30 11441 C 1056.88 -2.92485 -2.36917 0
M  V30 11442 C 1056.03 -2.5173 -1.16308 0
M  V30 11443 H 1058.98 -1.57281 -0.211734 0
M  V30 11444 H 1059 -2.68672 -2.69435 0
M  V30 11445 H 1058.51 -3.69858 -1.17586 0
M  V30 11446 H 1056.61 -2.11608 -3.0668 0
M  V30 11447 H 1056.73 -3.96277 -2.6926 0
M  V30 11448 H 1055.09 -2.05079 -1.51045 0
M  V30 11449 H 1055.87 -3.39403 -0.515793 0
M  V30 11450 N 1058.32 0.686584 -1.41858 0
M  V30 11451 C 1059.27 1.82167 -1.4463 0
M  V30 11452 C 1060.26 1.66286 -0.323313 0
M  V30 11453 O 1061.47 1.73038 -0.495773 0
M  V30 11454 H 1057.84 0.600454 -0.452724 0
M  V30 11455 H 1059.81 1.76947 -2.40276 0
M  V30 11456 C 1058.56 3.20248 -1.35412 0
M  V30 11457 H 1057.89 3.33089 -2.21115 0
M  V30 11458 H 1059.33 3.99723 -1.41413 0
M  V30 11459 C 1057.78 3.36832 -0.0674972 0
M  V30 11460 O 1058.31 3.91845 0.884325 0
M  V30 11461 N 1056.52 2.90598 0.011519 0
M  V30 11462 H 1056.07 2.46016 -0.76381 0
M  V30 11463 H 1056.03 3.02072 0.871774 0
M  V30 11464 N 1059.8 1.27835 0.921735 0
M  V30 11465 C 1061.21 1.05369 1.19873 0
M  V30 11466 C 1061.41 -0.208997 2.00413 0
M  V30 11467 O 1060.47 -0.912861 2.35421 0
M  V30 11468 C 1061.78 2.29658 1.94108 0
M  V30 11469 C 1063.33 2.34756 2.07023 0
M  V30 11470 C 1063.81 3.5879 2.84664 0
M  V30 11471 N 1065.3 3.59383 2.9223 0
M  V30 11472 C 1066.03 4.52029 3.52785 0
M  V30 11473 N 1065.53 5.54986 4.14683 0
M  V30 11474 N 1067.32 4.39641 3.50246 0
M  V30 11475 H 1059.47 2.08903 0.383819 0
M  V30 11476 H 1061.73 0.919065 0.232429 0
M  V30 11477 H 1061.44 3.21604 1.4235 0
M  V30 11478 H 1061.31 2.35444 2.94696 0
M  V30 11479 H 1063.7 1.43312 2.57965 0
M  V30 11480 H 1063.78 2.32969 1.05636 0
M  V30 11481 H 1063.43 4.50574 2.34404 0
M  V30 11482 H 1063.36 3.57829 3.86349 0
M  V30 11483 H 1065.85 2.84927 2.48244 0
M  V30 11484 H 1066.16 6.21837 4.58845 0
M  V30 11485 H 1064.51 5.58822 4.13211 0
M  V30 11486 H 1067.7 3.58413 3.01094 0
M  V30 11487 H 1067.87 5.12033 3.97148 0
M  V30 11488 N 1061.28 -1.12907 1.09954 0
M  V30 11489 C 1062.52 -1.83661 0.833761 0
M  V30 11490 C 1062.84 -1.84736 -0.642798 0
M  V30 11491 O 1064.04 -2.51437 -1.0243 0
M  V30 11492 C 1062.5 -3.29763 1.44168 0
M  V30 11493 C 1062.11 -3.3706 2.95118 0
M  V30 11494 C 1063.85 -4.05522 1.25509 0
M  V30 11495 C 1061.76 -4.77467 3.48969 0
M  V30 11496 H 1060.69 -0.688115 0.308242 0
M  V30 11497 H 1063.34 -1.27166 1.32291 0
M  V30 11498 H 1061.72 -3.86094 0.880215 0
M  V30 11499 H 1062.9 -2.90695 3.57537 0
M  V30 11500 H 1061.21 -2.7477 3.12874 0
M  V30 11501 H 1063.81 -5.09188 1.63191 0
M  V30 11502 H 1064.15 -4.15837 0.196208 0
M  V30 11503 H 1064.68 -3.55536 1.78435 0
M  V30 11504 H 1061.42 -4.72344 4.54501 0
M  V30 11505 H 1060.94 -5.24305 2.91315 0
M  V30 11506 H 1062.62 -5.46397 3.46495 0
M  V30 11507 N 1062.75 -0.88754 -1.30232 0
M  V30 11508 C 1064 -0.508031 -1.96334 0
M  V30 11509 C 1064.33 0.940905 -1.69884 0
M  V30 11510 O 1063.61 1.66523 -1.005 0
M  V30 11511 C 1063.89 -0.786566 -3.51405 0
M  V30 11512 C 1063.74 -2.28632 -3.8736 0
M  V30 11513 C 1065.06 -0.264803 -4.39303 0
M  V30 11514 H 1062.18 -0.186051 -0.71313 0
M  V30 11515 H 1064.82 -1.112 -1.5406 0
M  V30 11516 H 1062.97 -0.272523 -3.87543 0
M  V30 11517 H 1064.65 -2.86896 -3.61231 0
M  V30 11518 H 1062.89 -2.75194 -3.35337 0
M  V30 11519 H 1063.56 -2.43181 -4.95547 0
M  V30 11520 H 1066.04 -0.704809 -4.10087 0
M  V30 11521 H 1064.91 -0.488998 -5.46717 0
M  V30 11522 H 1065.17 0.834055 -4.34161 0
M  V30 11523 N 1064.23 1.43628 -0.648757 0
M  V30 11524 C 1065.48 2.01864 -0.160336 0
M  V30 11525 C 1065.81 1.51148 1.22412 0
M  V30 11526 O 1065.06 0.693168 1.83013 0
M  V30 11527 C 1065.36 3.57214 -0.115282 0
M  V30 11528 C 1065.03 4.27258 -1.44088 0
M  V30 11529 C 1063.69 4.46109 -1.8039 0
M  V30 11530 C 1066.04 4.66962 -2.31508 0
M  V30 11531 C 1063.37 5.01928 -3.03785 0
M  V30 11532 C 1065.72 5.24148 -3.54191 0
M  V30 11533 C 1064.39 5.41216 -3.90694 0
M  V30 11534 H 1063.66 0.738674 -0.0586712 0
M  V30 11535 H 1066.3 1.72163 -0.838578 0
M  V30 11536 H 1064.61 3.86431 0.646395 0
M  V30 11537 H 1066.3 4.00025 0.279425 0
M  V30 11538 H 1062.89 4.12928 -1.14842 0
M  V30 11539 H 1067.08 4.52095 -2.04753 0
M  V30 11540 H 1062.33 5.13328 -3.32122 0
M  V30 11541 H 1066.51 5.53861 -4.22151 0
M  V30 11542 H 1064.14 5.84234 -4.8639 0
M  V30 11543 N 1065.71 0.390394 1.52688 0
M  V30 11544 C 1066.64 -0.479319 2.24132 0
M  V30 11545 C 1067.66 -1.0258 1.26416 0
M  V30 11546 O 1068.84 -0.927943 1.52484 0
M  V30 11547 C 1065.94 -1.67711 2.94493 0
M  V30 11548 C 1065.12 -1.2578 4.18925 0
M  V30 11549 C 1064.18 -2.3204 4.72275 0
M  V30 11550 O 1063.2 -1.93402 5.35336 0
M  V30 11551 N 1064.4 -3.63967 4.52226 0
M  V30 11552 H 1067.17 0.132777 2.99406 0
M  V30 11553 H 1064.73 0.216807 1.60442 0
M  V30 11554 H 1066.72 -2.38323 3.27084 0
M  V30 11555 H 1065.29 -2.19552 2.22521 0
M  V30 11556 H 1064.51 -0.380528 3.92359 0
M  V30 11557 H 1065.8 -0.954329 4.9977 0
M  V30 11558 H 1065.2 -3.98119 4.01892 0
M  V30 11559 H 1063.76 -4.30611 4.89303 0
M  V30 11560 N 1067.19 -1.57141 0.120249 0
M  V30 11561 C 1068.1 -2.18925 -0.843155 0
M  V30 11562 C 1069.11 -1.16575 -1.29175 0
M  V30 11563 O 1070.29 -1.4905 -1.35448 0
M  V30 11564 C 1067.36 -2.7775 -2.075 0
M  V30 11565 C 1066.42 -3.95139 -1.6782 0
M  V30 11566 C 1065.65 -4.51149 -2.85132 0
M  V30 11567 O 1065.87 -4.06056 -4.00593 0
M  V30 11568 O 1064.81 -5.41815 -2.62145 0
M  V30 11569 H 1068.63 -3.01707 -0.347357 0
M  V30 11570 H 1066.22 -1.49028 -0.105427 0
M  V30 11571 H 1068.1 -3.15243 -2.79643 0
M  V30 11572 H 1066.77 -1.97998 -2.56083 0
M  V30 11573 H 1065.68 -3.62412 -0.927807 0
M  V30 11574 H 1067.01 -4.7633 -1.23977 0
M  V30 11575 N 1068.67 0.153526 -1.5685 0
M  V30 11576 C 1069.91 0.867232 -1.8299 0
M  V30 11577 C 1070.24 1.81462 -0.700125 0
M  V30 11578 O 1069.5 1.93207 0.311348 0
M  V30 11579 C 1069.8 1.68066 -3.15418 0
M  V30 11580 C 1069.46 0.880635 -4.42217 0
M  V30 11581 C 1068.12 0.659899 -4.76654 0
M  V30 11582 C 1070.48 0.320698 -5.20212 0
M  V30 11583 C 1067.8 -0.131588 -5.86552 0
M  V30 11584 C 1070.16 -0.457794 -6.30941 0
M  V30 11585 C 1068.82 -0.689168 -6.63933 0
M  V30 11586 H 1068.09 0.317343 -0.669608 0
M  V30 11587 H 1070.74 0.131208 -1.9105 0
M  V30 11588 H 1069.04 2.4866 -3.02779 0
M  V30 11589 H 1070.74 2.23623 -3.32857 0
M  V30 11590 H 1067.33 1.06274 -4.15215 0
M  V30 11591 H 1071.51 0.47853 -4.93988 0
M  V30 11592 H 1066.77 -0.320413 -6.1056 0
M  V30 11593 H 1070.94 -0.898839 -6.90575 0
M  V30 11594 H 1068.57 -1.30433 -7.48927 0
M  V30 11595 N 1070.14 1.51827 0.422667 0
M  V30 11596 C 1071.56 1.40328 0.760275 0
M  V30 11597 C 1071.76 0.497119 1.95272 0
M  V30 11598 O 1070.82 -0.0422083 2.52465 0
M  V30 11599 C 1072.13 2.82622 1.02689 0
M  V30 11600 C 1073.68 2.91874 1.13044 0
M  V30 11601 C 1074.15 4.35107 1.4299 0
M  V30 11602 N 1075.64 4.3828 1.49883 0
M  V30 11603 C 1076.38 5.46153 1.74655 0
M  V30 11604 N 1075.87 6.64165 1.9712 0
M  V30 11605 N 1077.67 5.33651 1.76558 0
M  V30 11606 H 1069.82 2.09285 -0.362455 0
M  V30 11607 H 1072.08 0.94273 -0.0998161 0
M  V30 11608 H 1071.79 3.50991 0.223226 0
M  V30 11609 H 1071.66 3.22844 1.95068 0
M  V30 11610 H 1074.05 2.23694 1.92471 0
M  V30 11611 H 1074.13 2.55128 0.185326 0
M  V30 11612 H 1073.77 5.03841 0.640848 0
M  V30 11613 H 1073.7 4.69377 2.38731 0
M  V30 11614 H 1076.19 3.53206 1.34366 0
M  V30 11615 H 1076.51 7.42165 2.15434 0
M  V30 11616 H 1074.85 6.67255 1.94413 0
M  V30 11617 H 1078.04 4.40436 1.58536 0
M  V30 11618 H 1078.22 6.17798 1.95525 0
M  V30 11619 N 1071.62 -0.679052 1.4222 0
M  V30 11620 C 1072.55 -1.80455 1.41311 0
M  V30 11621 C 1073.57 -1.59767 0.312799 0
M  V30 11622 O 1074.76 -1.68964 0.575612 0
M  V30 11623 C 1071.86 -3.17492 1.18541 0
M  V30 11624 C 1071.03 -3.65066 2.40926 0
M  V30 11625 C 1070.09 -4.80823 2.13765 0
M  V30 11626 O 1069.11 -4.91587 2.86934 0
M  V30 11627 N 1070.32 -5.69233 1.13813 0
M  V30 11628 H 1073.08 -1.81722 2.38322 0
M  V30 11629 H 1070.64 -0.861988 1.37045 0
M  V30 11630 H 1072.63 -3.92581 0.982958 0
M  V30 11631 H 1071.2 -3.1115 0.300691 0
M  V30 11632 H 1070.42 -2.80702 2.76767 0
M  V30 11633 H 1071.71 -3.93593 3.22431 0
M  V30 11634 H 1071.11 -5.63185 0.532887 0
M  V30 11635 H 1069.67 -6.44152 0.995554 0
M  V30 11636 N 1073.1 -1.28322 -0.914942 0
M  V30 11637 C 1074.52 -1.06003 -1.19313 0
M  V30 11638 C 1074.72 0.198366 -2.00521 0
M  V30 11639 O 1073.77 0.900364 -2.35902 0
M  V30 11640 C 1075.09 -2.30684 -1.92887 0
M  V30 11641 C 1076.63 -2.35851 -2.05775 0
M  V30 11642 C 1077.11 -3.60295 -2.82757 0
M  V30 11643 N 1078.6 -3.60928 -2.9032 0
M  V30 11644 C 1079.33 -4.53894 -3.50383 0
M  V30 11645 N 1078.83 -5.57178 -4.11734 0
M  V30 11646 N 1080.62 -4.41492 -3.4791 0
M  V30 11647 H 1072.77 -2.09104 -0.372735 0
M  V30 11648 H 1075.04 -0.920285 -0.227552 0
M  V30 11649 H 1074.74 -3.22355 -1.40643 0
M  V30 11650 H 1074.62 -2.37003 -2.93444 0
M  V30 11651 H 1077 -1.44678 -2.57201 0
M  V30 11652 H 1077.09 -2.33526 -1.04399 0
M  V30 11653 H 1076.73 -4.51811 -2.32011 0
M  V30 11654 H 1076.66 -3.59873 -3.84446 0
M  V30 11655 H 1079.15 -2.8624 -2.46729 0
M  V30 11656 H 1079.46 -6.24261 -4.55541 0
M  V30 11657 H 1077.81 -5.61005 -4.10242 0
M  V30 11658 H 1081 -3.60005 -2.99189 0
M  V30 11659 H 1081.17 -5.14132 -3.94427 0
M  V30 11660 N 1074.58 1.12322 -1.10551 0
M  V30 11661 C 1075.81 1.87407 -0.869607 0
M  V30 11662 C 1076.22 1.79976 0.58356 0
M  V30 11663 O 1075.56 1.1725 1.41415 0
M  V30 11664 C 1075.62 3.37401 -1.24099 0
M  V30 11665 C 1075.29 3.68607 -2.70144 0
M  V30 11666 C 1076.28 3.66869 -3.68379 0
M  V30 11667 C 1073.97 3.97903 -3.06559 0
M  V30 11668 C 1075.96 3.93987 -5.01052 0
M  V30 11669 C 1073.65 4.24681 -4.39419 0
M  V30 11670 C 1074.65 4.2271 -5.36475 0
M  V30 11671 O 1074.33 4.48823 -6.66943 0
M  V30 11672 H 1074.07 0.59978 -0.311834 0
M  V30 11673 H 1076.62 1.43037 -1.4741 0
M  V30 11674 H 1074.85 3.82332 -0.579606 0
M  V30 11675 H 1076.54 3.93833 -0.982378 0
M  V30 11676 H 1077.31 3.44297 -3.41591 0
M  V30 11677 H 1073.18 3.98578 -2.31638 0
M  V30 11678 H 1076.73 3.92364 -5.76798 0
M  V30 11679 H 1072.63 4.46727 -4.65945 0
M  V30 11680 H 1073.39 4.66436 -6.72592 0
M  V30 11681 N 1076.06 0.894434 1.2976 0
M  V30 11682 C 1076.97 0.372622 2.31622 0
M  V30 11683 C 1077.98 -0.52996 1.65733 0
M  V30 11684 O 1079.16 -0.420807 1.96955 0
M  V30 11685 C 1076.22 -0.396076 3.4443 0
M  V30 11686 C 1075.28 0.537394 4.25923 0
M  V30 11687 C 1074.52 -0.194713 5.33345 0
M  V30 11688 O 1074.74 -1.41943 5.52457 0
M  V30 11689 O 1073.67 0.460055 6.00139 0
M  V30 11690 H 1077.5 1.21756 2.78225 0
M  V30 11691 H 1075.09 0.65858 1.34101 0
M  V30 11692 H 1076.97 -0.830962 4.13126 0
M  V30 11693 H 1075.64 -1.21716 2.99945 0
M  V30 11694 H 1074.55 1.02129 3.5989 0
M  V30 11695 H 1075.88 1.32475 4.74037 0
M  V30 11696 N 1077.53 -1.43282 0.656365 0
M  V30 11697 C 1078.78 -2.00996 0.168354 0
M  V30 11698 C 1079.1 -1.52408 -1.22601 0
M  V30 11699 O 1080.3 -2.02417 -1.80941 0
M  V30 11700 C 1078.76 -3.5903 0.250161 0
M  V30 11701 C 1078.37 -4.1661 1.64742 0
M  V30 11702 C 1080.11 -4.24118 -0.180084 0
M  V30 11703 C 1078.02 -5.66948 1.68299 0
M  V30 11704 H 1076.95 -0.751674 0.0591769 0
M  V30 11705 H 1079.6 -1.64216 0.818859 0
M  V30 11706 H 1077.98 -3.93226 -0.467908 0
M  V30 11707 H 1079.15 -3.93908 2.3911 0
M  V30 11708 H 1077.47 -3.63905 2.02391 0
M  V30 11709 H 1080.07 -5.34419 -0.173401 0
M  V30 11710 H 1080.41 -3.98264 -1.21208 0
M  V30 11711 H 1080.94 -3.94816 0.486343 0
M  V30 11712 H 1077.68 -5.97573 2.69419 0
M  V30 11713 H 1077.2 -5.91697 0.98261 0
M  V30 11714 H 1078.88 -6.31041 1.42813 0
M  V30 11715 N 1079.01 -0.398486 -1.52479 0
M  V30 11716 C 1079.94 0.423498 -2.29627 0
M  V30 11717 C 1080.92 1.05547 -1.33394 0
M  V30 11718 O 1082.11 1.0665 -1.62294 0
M  V30 11719 C 1079.24 1.54612 -3.10986 0
M  V30 11720 C 1078.19 1.03971 -4.15179 0
M  V30 11721 C 1077.52 2.25512 -4.84818 0
M  V30 11722 C 1078.82 0.10121 -5.22202 0
M  V30 11723 H 1080.51 -0.220222 -2.98589 0
M  V30 11724 H 1078.06 -0.107355 -1.43599 0
M  V30 11725 H 1080.01 2.12806 -3.63719 0
M  V30 11726 H 1078.74 2.21756 -2.39774 0
M  V30 11727 H 1077.4 0.480251 -3.63441 0
M  V30 11728 H 1077.04 2.91187 -4.10145 0
M  V30 11729 H 1076.74 1.92285 -5.55248 0
M  V30 11730 H 1078.27 2.84331 -5.40359 0
M  V30 11731 H 1079.68 0.591617 -5.70239 0
M  V30 11732 H 1078.08 -0.141737 -5.99933 0
M  V30 11733 H 1079.15 -0.847216 -4.77441 0
M  V30 11734 N 1080.49 1.57075 -0.12858 0
M  V30 11735 C 1081.45 2.14643 0.803813 0
M  V30 11736 C 1082.45 1.08363 1.18803 0
M  V30 11737 O 1083.64 1.34093 1.11197 0
M  V30 11738 C 1080.78 2.6945 2.08829 0
M  V30 11739 H 1081.97 2.98362 0.303347 0
M  V30 11740 H 1079.52 1.55833 0.120735 0
M  V30 11741 H 1080.26 1.89345 2.63285 0
M  V30 11742 H 1080.04 3.47187 1.82218 0
M  V30 11743 H 1081.53 3.13865 2.7546 0
M  V30 11744 N 1081.97 -0.145205 1.5693 0
M  V30 11745 C 1082.93 -1.16316 1.97492 0
M  V30 11746 C 1083.93 -1.35764 0.861668 0
M  V30 11747 O 1085.12 -1.32726 1.12825 0
M  V30 11748 C 1082.25 -2.52311 2.29242 0
M  V30 11749 H 1083.45 -0.815138 2.8861 0
M  V30 11750 H 1081 -0.38861 1.51392 0
M  V30 11751 H 1081.74 -2.92081 1.40922 0
M  V30 11752 H 1081.52 -2.39555 3.10412 0
M  V30 11753 H 1083.01 -3.25624 2.61456 0
M  V30 11754 N 1083.45 -1.52049 -0.414609 0
M  V30 11755 C 1084.4 -1.75603 -1.52533 0
M  V30 11756 C 1085.39 -0.622965 -1.57529 0
M  V30 11757 O 1086.6 -0.804886 -1.61002 0
M  V30 11758 H 1082.97 -0.555222 -0.507181 0
M  V30 11759 H 1084.94 -2.68666 -1.2985 0
M  V30 11760 C 1083.69 -1.9188 -2.89961 0
M  V30 11761 H 1083.01 -2.78483 -2.86857 0
M  V30 11762 H 1084.45 -2.12363 -3.66985 0
M  V30 11763 C 1082.91 -0.684453 -3.29874 0
M  V30 11764 O 1083.44 0.150256 -4.01419 0
M  V30 11765 N 1081.65 -0.521936 -2.85874 0
M  V30 11766 H 1081.2 -1.20229 -2.27822 0
M  V30 11767 H 1081.15 0.302655 -3.1294 0
M  V30 11768 N 1084.93 0.6715 -1.42579 0
M  V30 11769 C 1085.89 1.76676 -1.46008 0
M  V30 11770 C 1086.89 1.57007 -0.347213 0
M  V30 11771 O 1088.08 1.63238 -0.608185 0
M  V30 11772 C 1085.21 3.15348 -1.29494 0
M  V30 11773 H 1086.4 1.75021 -2.43531 0
M  V30 11774 H 1083.96 0.881444 -1.29075 0
M  V30 11775 H 1084.69 3.22626 -0.32906 0
M  V30 11776 H 1084.48 3.31028 -2.10149 0
M  V30 11777 H 1085.97 3.95251 -1.34784 0
M  V30 11778 N 1086.4 1.28806 0.908124 0
M  V30 11779 C 1087.65 1.15663 1.65242 0
M  V30 11780 C 1087.97 -0.292883 1.93395 0
M  V30 11781 O 1089.17 -0.545509 2.65963 0
M  V30 11782 C 1087.63 2.02233 2.97707 0
M  V30 11783 C 1087.24 3.51958 2.77181 0
M  V30 11784 C 1088.98 1.97792 3.75604 0
M  V30 11785 C 1086.89 4.3066 4.05322 0
M  V30 11786 H 1085.82 0.42928 0.619867 0
M  V30 11787 H 1088.47 1.5338 1.00731 0
M  V30 11788 H 1086.85 1.57377 3.63385 0
M  V30 11789 H 1088.02 4.0481 2.20149 0
M  V30 11790 H 1086.34 3.57983 2.12691 0
M  V30 11791 H 1088.94 2.53858 4.70596 0
M  V30 11792 H 1089.28 0.955956 4.05175 0
M  V30 11793 H 1089.81 2.40648 3.16755 0
M  V30 11794 H 1086.55 5.3346 3.8092 0
M  V30 11795 H 1086.07 3.8258 4.61944 0
M  V30 11796 H 1087.75 4.40878 4.73535 0
M  V30 11797 N 1087.88 -1.11734 1.11145 0
M  V30 11798 C 1089.29 -1.64928 0.874959 0
M  V30 11799 C 1089.64 -1.87012 -0.593375 0
M  V30 11800 O 1088.77 -1.60206 -1.45475 0
M  V30 11801 C 1089.36 -2.99608 1.58178 0
M  V30 11802 C 1087.92 -3.49723 1.39179 0
M  V30 11803 C 1087.07 -2.24595 1.62642 0
M  V30 11804 H 1090.02 -0.954154 1.26813 0
M  V30 11805 H 1090.04 -3.66434 1.02501 0
M  V30 11806 H 1089.55 -2.83504 2.65042 0
M  V30 11807 H 1087.65 -3.70998 0.345111 0
M  V30 11808 H 1087.77 -4.28711 2.13878 0
M  V30 11809 H 1086.13 -2.32067 1.04961 0
M  V30 11810 H 1086.91 -2.11036 2.70774 0
M  V30 11811 N 1089.36 -0.901303 -1.29284 0
M  V30 11812 C 1090.31 -0.378666 -2.27672 0
M  V30 11813 C 1091.28 0.540102 -1.57074 0
M  V30 11814 O 1092.46 0.464997 -1.85047 0
M  V30 11815 C 1089.6 0.38635 -3.42931 0
M  V30 11816 C 1088.71 -0.563496 -4.28309 0
M  V30 11817 C 1087.85 0.218731 -5.30749 0
M  V30 11818 C 1086.89 -0.725536 -6.07785 0
M  V30 11819 N 1086.03 0.0223854 -7.02096 0
M  V30 11820 H 1090.87 -1.22277 -2.71758 0
M  V30 11821 H 1088.4 -0.614302 -1.33659 0
M  V30 11822 H 1090.36 0.845967 -4.08533 0
M  V30 11823 H 1088.99 1.1949 -2.9987 0
M  V30 11824 H 1088.04 -1.14163 -3.62865 0
M  V30 11825 H 1089.35 -1.28623 -4.81931 0
M  V30 11826 H 1088.51 0.739473 -6.02177 0
M  V30 11827 H 1087.25 0.97459 -4.77863 0
M  V30 11828 H 1086.25 -1.25776 -5.3522 0
M  V30 11829 H 1087.48 -1.48075 -6.6276 0
M  V30 11830 H 1085.42 0.760482 -6.51577 0
M  V30 11831 H 1085.34 -0.640408 -7.53283 0
M  V30 11832 H 1086.61 0.523339 -7.77741 0
M  V30 11833 N 1090.84 1.42931 -0.663954 0
M  V30 11834 C 1092.09 2.01284 -0.181379 0
M  V30 11835 C 1092.41 1.52708 1.21265 0
M  V30 11836 O 1091.68 0.744181 1.81215 0
M  V30 11837 H 1090.26 0.744248 -0.0640646 0
M  V30 11838 H 1092.92 1.74997 -0.858031 0
M  V30 11839 H 1092.01 3.11613 -0.174273 0
M  V30 11840 N 1092.32 0.406567 1.52266 0
M  V30 11841 C 1093.56 -0.170053 2.01785 0
M  V30 11842 C 1093.89 -1.45361 1.2923 0
M  V30 11843 O 1093.15 -1.91849 0.386342 0
M  V30 11844 C 1093.44 -0.467124 3.54334 0
M  V30 11845 C 1093.11 0.72693 4.45002 0
M  V30 11846 C 1091.77 1.05446 4.69505 0
M  V30 11847 C 1094.12 1.52493 4.98393 0
M  V30 11848 C 1091.45 2.18123 5.44646 0
M  V30 11849 C 1093.8 2.64244 5.74768 0
M  V30 11850 C 1092.47 2.97486 5.97544 0
M  V30 11851 H 1091.74 -0.0622267 0.738383 0
M  V30 11852 H 1094.39 0.54746 1.83508 0
M  V30 11853 H 1092.69 -1.26617 3.70777 0
M  V30 11854 H 1094.39 -0.926194 3.90157 0
M  V30 11855 H 1090.98 0.461666 4.26106 0
M  V30 11856 H 1095.16 1.28512 4.79373 0
M  V30 11857 H 1090.42 2.44228 5.60502 0
M  V30 11858 H 1094.59 3.26468 6.15136 0
M  V30 11859 H 1092.22 3.84913 6.5555 0
M  V30 11860 N 1093.79 -1.57004 0.136909 0
M  V30 11861 C 1094.73 -2.12004 -0.844362 0
M  V30 11862 C 1095.71 -1.04099 -1.24909 0
M  V30 11863 O 1096.89 -1.31866 -1.34698 0
M  V30 11864 C 1094.02 -2.63147 -2.13241 0
M  V30 11865 C 1093.06 -3.83105 -1.87438 0
M  V30 11866 S 1093.9 -5.2461 -1.07447 0
M  V30 11867 C 1095.05 -5.79134 -2.37392 0
M  V30 11868 H 1095.28 -2.94905 -0.376614 0
M  V30 11869 H 1092.82 -1.54207 -0.0771977 0
M  V30 11870 H 1094.78 -2.93264 -2.87239 0
M  V30 11871 H 1093.44 -1.80395 -2.57131 0
M  V30 11872 H 1092.63 -4.17099 -2.82922 0
M  V30 11873 H 1092.23 -3.53696 -1.21553 0
M  V30 11874 H 1094.52 -5.8995 -3.33114 0
M  V30 11875 H 1095.47 -6.76887 -2.07918 0
M  V30 11876 H 1095.87 -5.07311 -2.47579 0
M  V30 11877 N 1095.27 0.136881 -1.57004 0
M  V30 11878 C 1096.55 0.87705 -1.74835 0
M  V30 11879 C 1096.93 1.98886 -0.707639 0
M  V30 11880 O 1096.28 2.26879 0.271652 0
M  V30 11881 C 1096.49 1.41021 -3.1924 0
M  V30 11882 C 1097.84 1.86963 -3.81222 0
M  V30 11883 O 1098.86 1.5074 -3.22732 0
M  V30 11884 O 1097.72 2.53798 -4.83993 0
M  V30 11885 H 1094.81 0.415192 -0.715223 0
M  V30 11886 H 1097.36 0.122016 -1.69261 0
M  V30 11887 H 1096.13 0.611677 -3.8649 0
M  V30 11888 H 1095.75 2.22846 -3.2928 0
M  V30 11889 N 1096.75 1.52266 0.40654 0
M  V30 11890 C 1098 1.66123 1.15097 0
M  V30 11891 C 1098.32 0.394836 1.90961 0
M  V30 11892 O 1097.59 -0.590349 1.86793 0
M  V30 11893 H 1096.17 0.612317 0.427875 0
M  V30 11894 H 1098.83 1.89318 0.463106 0
M  V30 11895 H 1097.93 2.50351 1.86361 0
M  V30 11896 N 1098.23 -0.663929 1.42933 0
M  V30 11897 C 1099.18 -1.77717 1.47259 0
M  V30 11898 C 1100.15 -1.62922 0.323387 0
M  V30 11899 O 1101.33 -1.83319 0.529021 0
M  V30 11900 C 1098.47 -3.15814 1.39124 0
M  V30 11901 C 1097.58 -3.4182 2.64165 0
M  V30 11902 C 1096.72 -4.69705 2.48094 0
M  V30 11903 C 1095.76 -4.88781 3.68456 0
M  V30 11904 N 1094.89 -6.07915 3.51261 0
M  V30 11905 H 1099.73 -1.73355 2.42388 0
M  V30 11906 H 1097.27 -0.846121 1.2033 0
M  V30 11907 H 1099.23 -3.95633 1.32403 0
M  V30 11908 H 1097.86 -3.19274 0.475829 0
M  V30 11909 H 1096.91 -2.56176 2.81208 0
M  V30 11910 H 1098.22 -3.51805 3.53602 0
M  V30 11911 H 1097.38 -5.57632 2.39021 0
M  V30 11912 H 1096.12 -4.62022 1.56164 0
M  V30 11913 H 1095.12 -3.99292 3.7795 0
M  V30 11914 H 1096.35 -4.98301 4.61381 0
M  V30 11915 H 1094.29 -6.01384 2.62057 0
M  V30 11916 H 1094.21 -6.1881 4.34293 0
M  V30 11917 H 1095.48 -6.98492 3.4602 0
M  V30 11918 N 1099.71 -1.29285 -0.901281 0
M  V30 11919 C 1100.64 -1.10086 -2.01032 0
M  V30 11920 C 1101.65 -0.0488364 -1.62727 0
M  V30 11921 O 1102.84 -0.293194 -1.76076 0
M  V30 11922 C 1099.94 -0.653357 -3.32542 0
M  V30 11923 C 1099.11 -1.78355 -3.99385 0
M  V30 11924 C 1098.17 -1.32733 -5.09184 0
M  V30 11925 O 1097.2 -2.03177 -5.31703 0
M  V30 11926 N 1098.4 -0.197345 -5.80164 0
M  V30 11927 H 1101.17 -2.056 -2.18057 0
M  V30 11928 H 1098.73 -1.21204 -1.07337 0
M  V30 11929 H 1100.72 -0.331491 -4.0334 0
M  V30 11930 H 1099.29 0.209278 -3.11899 0
M  V30 11931 H 1098.51 -2.27438 -3.21972 0
M  V30 11932 H 1099.8 -2.54137 -4.40785 0
M  V30 11933 H 1099.19 0.390011 -5.64354 0
M  V30 11934 H 1097.75 0.0651642 -6.51767 0
M  V30 11935 N 1101.18 1.11143 -1.11736 0
M  V30 11936 C 1102.15 2.15456 -0.78174 0
M  V30 11937 C 1103.15 1.59547 0.200383 0
M  V30 11938 O 1104.34 1.74183 -0.0244893 0
M  V30 11939 C 1101.47 3.40523 -0.160364 0
M  V30 11940 H 1102.66 2.46658 -1.70586 0
M  V30 11941 H 1100.22 1.26381 -0.919644 0
M  V30 11942 H 1100.95 3.14932 0.773835 0
M  V30 11943 H 1100.74 3.82386 -0.867378 0
M  V30 11944 H 1102.23 4.17559 0.0582175 0
M  V30 11945 N 1102.66 0.908147 1.28804 0
M  V30 11946 C 1103.9 0.545425 1.96989 0
M  V30 11947 C 1104.27 -0.893226 1.69957 0
M  V30 11948 O 1105.47 -1.36324 2.31666 0
M  V30 11949 C 1103.74 0.83953 3.474 0
M  V30 11950 S 1105.3 0.582385 4.34918 0
M  V30 11951 H 1102.12 0.202027 0.681693 0
M  V30 11952 H 1104.72 1.1724 1.56445 0
M  V30 11953 H 1103.42 1.88463 3.64568 0
M  V30 11954 H 1102.95 0.200999 3.92886 0
M  V30 11955 H 1104.97 -0.568807 4.92929 0
M  V30 11956 N 1104.14 -1.42577 0.671525 0
M  V30 11957 C 1105.39 -2.00806 0.189663 0
M  V30 11958 C 1105.7 -1.537 -1.20978 0
M  V30 11959 O 1106.91 -2.04325 -1.78784 0
M  V30 11960 C 1105.36 -3.58744 0.288227 0
M  V30 11961 C 1104.97 -4.14839 1.69152 0
M  V30 11962 C 1106.72 -4.24285 -0.13509 0
M  V30 11963 C 1104.62 -5.65131 1.74302 0
M  V30 11964 H 1103.55 -0.751004 0.067146 0
M  V30 11965 H 1106.2 -1.63338 0.83623 0
M  V30 11966 H 1104.59 -3.937 -0.426175 0
M  V30 11967 H 1105.76 -3.91349 2.43274 0
M  V30 11968 H 1104.08 -3.61738 2.0624 0
M  V30 11969 H 1106.67 -5.34573 -0.116709 0
M  V30 11970 H 1107.02 -3.99527 -1.16977 0
M  V30 11971 H 1107.55 -3.94278 0.528191 0
M  V30 11972 H 1104.29 -5.94682 2.75742 0
M  V30 11973 H 1103.81 -5.90621 1.04531 0
M  V30 11974 H 1105.49 -6.29491 1.49498 0
M  V30 11975 N 1105.62 -0.414636 -1.52048 0
M  V30 11976 C 1106.55 0.399119 -2.30064 0
M  V30 11977 C 1107.53 1.04126 -1.34506 0
M  V30 11978 O 1108.71 1.04923 -1.63416 0
M  V30 11979 C 1105.84 1.51305 -3.12608 0
M  V30 11980 C 1104.8 0.995621 -4.16259 0
M  V30 11981 C 1104.12 2.20357 -4.87183 0
M  V30 11982 C 1105.42 0.0458178 -5.2228 0
M  V30 11983 H 1107.12 -0.251879 -2.98339 0
M  V30 11984 H 1104.66 -0.122579 -1.43477 0
M  V30 11985 H 1106.62 2.08936 -3.65956 0
M  V30 11986 H 1105.34 2.19201 -2.42113 0
M  V30 11987 H 1104 0.441676 -3.6393 0
M  V30 11988 H 1103.65 2.8682 -4.13211 0
M  V30 11989 H 1103.35 1.86385 -5.57256 0
M  V30 11990 H 1104.87 2.78584 -5.43345 0
M  V30 11991 H 1106.29 0.531102 -5.70835 0
M  V30 11992 H 1104.68 -0.20536 -5.99749 0
M  V30 11993 H 1105.75 -0.897807 -4.76516 0
M  V30 11994 N 1107.1 1.56929 -0.145233 0
M  V30 11995 C 1108.03 2.12449 0.833107 0
M  V30 11996 C 1109.01 1.0476 1.24355 0
M  V30 11997 O 1110.19 1.32579 1.33997 0
M  V30 11998 C 1107.32 2.64274 2.11842 0
M  V30 11999 C 1106.36 3.84093 1.85404 0
M  V30 12000 S 1107.2 5.25172 1.04663 0
M  V30 12001 C 1108.35 5.80384 2.34318 0
M  V30 12002 H 1108.59 2.951 0.360969 0
M  V30 12003 H 1106.12 1.54246 0.0690187 0
M  V30 12004 H 1108.08 2.94783 2.8568 0
M  V30 12005 H 1106.74 1.81756 2.56171 0
M  V30 12006 H 1105.93 4.18593 2.80706 0
M  V30 12007 H 1105.53 3.54336 1.19675 0
M  V30 12008 H 1107.83 5.91709 3.29981 0
M  V30 12009 H 1108.77 6.7798 2.04325 0
M  V30 12010 H 1109.18 5.08617 2.44885 0
M  V30 12011 N 1108.58 -0.128553 1.57075 0
M  V30 12012 C 1109.82 -0.836536 1.83535 0
M  V30 12013 C 1110.14 -1.81491 0.7294 0
M  V30 12014 O 1111.34 -2.56838 0.880128 0
M  V30 12015 C 1109.8 -1.53836 3.25365 0
M  V30 12016 C 1109.41 -0.601454 4.43944 0
M  V30 12017 C 1111.15 -2.23204 3.61082 0
M  V30 12018 C 1109.06 -1.30596 5.768 0
M  V30 12019 H 1107.99 -0.316142 0.684522 0
M  V30 12020 H 1110.64 -0.0892555 1.83283 0
M  V30 12021 H 1109.02 -2.33192 3.20058 0
M  V30 12022 H 1110.2 0.158209 4.60528 0
M  V30 12023 H 1108.51 -0.0152393 4.16397 0
M  V30 12024 H 1111.11 -2.76585 4.57608 0
M  V30 12025 H 1111.45 -3.0056 2.88044 0
M  V30 12026 H 1111.98 -1.50746 3.68131 0
M  V30 12027 H 1108.72 -0.573874 6.52983 0
M  V30 12028 H 1108.24 -2.03787 5.6412 0
M  V30 12029 H 1109.92 -1.8418 6.20231 0
M  V30 12030 N 1110.05 -1.5248 -0.398459 0
M  V30 12031 C 1111 -1.76585 -1.48615 0
M  V30 12032 C 1111.97 -0.608677 -1.54546 0
M  V30 12033 O 1113.16 -0.847383 -1.7095 0
M  V30 12034 C 1110.3 -1.93201 -2.8595 0
M  V30 12035 C 1109.41 -3.20875 -2.89246 0
M  V30 12036 C 1108.54 -3.27862 -4.17947 0
M  V30 12037 C 1107.58 -4.49697 -4.15258 0
M  V30 12038 N 1106.72 -4.54017 -5.35549 0
M  V30 12039 H 1111.56 -2.69412 -1.27362 0
M  V30 12040 H 1109.1 -1.33487 -0.618031 0
M  V30 12041 H 1111.05 -2.00819 -3.65688 0
M  V30 12042 H 1109.68 -1.03743 -3.05675 0
M  V30 12043 H 1108.74 -3.22376 -2.01935 0
M  V30 12044 H 1110.05 -4.1066 -2.83125 0
M  V30 12045 H 1109.2 -3.34611 -5.06083 0
M  V30 12046 H 1107.94 -2.36035 -4.26777 0
M  V30 12047 H 1106.95 -4.43083 -3.25511 0
M  V30 12048 H 1108.17 -5.42831 -4.08059 0
M  V30 12049 H 1106.12 -3.65078 -5.45027 0
M  V30 12050 H 1106.03 -5.37661 -5.31466 0
M  V30 12051 H 1107.3 -4.65009 -6.25609 0
M  V30 12052 N 1111.53 0.65634 -1.43283 0
M  V30 12053 C 1112.49 1.75117 -1.47874 0
M  V30 12054 C 1113.49 1.56629 -0.363846 0
M  V30 12055 O 1114.68 1.62584 -0.625464 0
M  V30 12056 C 1111.82 3.13957 -1.32831 0
M  V30 12057 H 1113.01 1.72429 -2.45374 0
M  V30 12058 H 1110.56 0.867704 -1.30002 0
M  V30 12059 H 1111.3 3.22259 -0.36326 0
M  V30 12060 H 1111.08 3.28781 -2.13649 0
M  V30 12061 H 1112.57 3.93799 -1.38969 0
M  V30 12062 N 1113.01 1.29761 0.894412 0
M  V30 12063 C 1113.94 1.17902 2.01547 0
M  V30 12064 C 1114.92 0.0719402 1.69948 0
M  V30 12065 O 1116.11 0.252338 1.92554 0
M  V30 12066 C 1113.24 0.860262 3.36477 0
M  V30 12067 C 1112.19 1.92424 3.82305 0
M  V30 12068 C 1111.52 1.45868 5.14419 0
M  V30 12069 C 1112.82 3.33391 4.02054 0
M  V30 12070 H 1114.51 2.11688 2.11727 0
M  V30 12071 H 1112.06 1.01916 1.01731 0
M  V30 12072 H 1114.01 0.763987 4.14417 0
M  V30 12073 H 1112.73 -0.113289 3.26403 0
M  V30 12074 H 1111.39 2.00999 3.06586 0
M  V30 12075 H 1111.04 0.473654 5.00765 0
M  V30 12076 H 1110.74 2.17028 5.46052 0
M  V30 12077 H 1112.26 1.37601 5.94894 0
M  V30 12078 H 1113.68 3.27628 4.7046 0
M  V30 12079 H 1112.07 4.02555 4.4505 0
M  V30 12080 H 1113.14 3.75978 3.06216 0
M  V30 12081 N 1114.49 -1.10549 1.12324 0
M  V30 12082 C 1115.4 -2.20428 0.803032 0
M  V30 12083 C 1116.41 -1.72756 -0.207674 0
M  V30 12084 O 1117.59 -2.01357 -0.0415623 0
M  V30 12085 C 1114.65 -3.45716 0.261032 0
M  V30 12086 C 1113.72 -4.08129 1.33152 0
M  V30 12087 C 1112.95 -5.27436 0.815288 0
M  V30 12088 O 1113.17 -5.69317 -0.351361 0
M  V30 12089 O 1112.11 -5.80674 1.58434 0
M  V30 12090 H 1115.93 -2.50249 1.72073 0
M  V30 12091 H 1113.52 -1.19263 0.899815 0
M  V30 12092 H 1115.4 -4.21384 -0.0364007 0
M  V30 12093 H 1114.07 -3.17525 -0.629249 0
M  V30 12094 H 1112.98 -3.3415 1.6821 0
M  V30 12095 H 1114.31 -4.4052 2.19552 0
M  V30 12096 N 1115.97 -0.914965 -1.28321 0
M  V30 12097 C 1116.9 -0.421292 -2.29668 0
M  V30 12098 C 1117.88 0.511743 -1.6222 0
M  V30 12099 O 1119.06 0.419218 -1.89621 0
M  V30 12100 C 1116.19 0.338364 -3.45648 0
M  V30 12101 C 1115.15 -0.505646 -4.25003 0
M  V30 12102 C 1114.47 0.382421 -5.33331 0
M  V30 12103 C 1115.77 -1.76354 -4.91626 0
M  V30 12104 H 1117.47 -1.26826 -2.71211 0
M  V30 12105 H 1115.01 -0.611291 -1.30381 0
M  V30 12106 H 1116.96 0.694578 -4.15636 0
M  V30 12107 H 1115.69 1.21925 -3.02988 0
M  V30 12108 H 1114.35 -0.844395 -3.56743 0
M  V30 12109 H 1114 1.26189 -4.86914 0
M  V30 12110 H 1113.7 -0.17871 -5.87328 0
M  V30 12111 H 1115.22 0.73449 -6.06166 0
M  V30 12112 H 1116.63 -1.47616 -5.5397 0
M  V30 12113 H 1115.03 -2.26717 -5.55625 0
M  V30 12114 H 1116.1 -2.49063 -4.16048 0
M  V30 12115 N 1117.44 1.42219 -0.679077 0
M  V30 12116 C 1118.72 1.95155 -0.13188 0
M  V30 12117 C 1119.1 1.6193 1.35433 0
M  V30 12118 O 1118.45 0.917672 2.09263 0
M  V30 12119 C 1118.66 3.46635 -0.405578 0
M  V30 12120 C 1120.01 4.23359 -0.324394 0
M  V30 12121 O 1121.03 3.54578 -0.339564 0
M  V30 12122 O 1119.89 5.45831 -0.270268 0
M  V30 12123 H 1116.98 0.826983 -0.00535438 0
M  V30 12124 H 1119.53 1.52024 -0.754101 0
M  V30 12125 H 1118.3 3.6404 -1.43495 0
M  V30 12126 H 1117.92 3.96823 0.248439 0
M  V30 12127 N 1118.92 0.422693 1.51826 0
M  V30 12128 C 1120.33 -0.0438129 1.86649 0
M  V30 12129 C 1120.68 -1.43246 1.34071 0
M  V30 12130 O 1119.81 -2.05256 0.685501 0
M  V30 12131 C 1120.4 -0.0862802 3.3869 0
M  V30 12132 C 1118.96 -0.497157 3.73102 0
M  V30 12133 C 1118.11 0.319655 2.75451 0
M  V30 12134 H 1121.06 0.639181 1.45259 0
M  V30 12135 H 1121.08 -0.8988 3.69732 0
M  V30 12136 H 1120.59 0.924525 3.76927 0
M  V30 12137 H 1118.69 -1.51411 3.40449 0
M  V30 12138 H 1118.81 -0.232125 4.78537 0
M  V30 12139 H 1117.17 -0.219963 2.53748 0
M  V30 12140 H 1117.95 1.32906 3.16529 0
M  V30 12141 N 1120.4 -1.5685 0.153553 0
M  V30 12142 C 1121.35 -2.18385 -0.800667 0
M  V30 12143 C 1122.34 -1.14272 -1.25053 0
M  V30 12144 O 1123.55 -1.32509 -1.21825 0
M  V30 12145 H 1119.92 -0.699352 -0.276425 0
M  V30 12146 H 1121.89 -2.97287 -0.257535 0
M  V30 12147 C 1120.64 -2.82497 -2.02708 0
M  V30 12148 H 1119.97 -3.62328 -1.68992 0
M  V30 12149 H 1121.41 -3.29047 -2.67403 0
M  V30 12150 C 1119.86 -1.81343 -2.8393 0
M  V30 12151 O 1120.39 -1.28793 -3.80493 0
M  V30 12152 N 1118.6 -1.50499 -2.48593 0
M  V30 12153 H 1118.15 -1.93425 -1.70131 0
M  V30 12154 H 1118.11 -0.830672 -3.03228 0
M  V30 12155 N 1121.88 0.120221 -1.57141 0
M  V30 12156 C 1122.81 1.14876 -2.03287 0
M  V30 12157 C 1123.79 1.43259 -0.917112 0
M  V30 12158 O 1124.97 1.53721 -1.18674 0
M  V30 12159 C 1122.1 2.47525 -2.43616 0
M  V30 12160 C 1121.06 2.33607 -3.58625 0
M  V30 12161 C 1120.38 3.71207 -3.84849 0
M  V30 12162 C 1121.68 1.79761 -4.90391 0
M  V30 12163 H 1123.38 0.764943 -2.89463 0
M  V30 12164 H 1120.92 0.366516 -1.39258 0
M  V30 12165 H 1122.88 3.19728 -2.74504 0
M  V30 12166 H 1121.6 2.87794 -1.54409 0
M  V30 12167 H 1120.26 1.63853 -3.27945 0
M  V30 12168 H 1119.91 4.0896 -2.9285 0
M  V30 12169 H 1119.61 3.62749 -4.62263 0
M  V30 12170 H 1121.13 4.44917 -4.18188 0
M  V30 12171 H 1122.55 2.4178 -5.19822 0
M  V30 12172 H 1120.94 1.82126 -5.71795 0
M  V30 12173 H 1122.01 0.755087 -4.78985 0
M  V30 12174 N 1123.36 1.52689 0.390367 0
M  V30 12175 C 1124.59 1.71292 1.1551 0
M  V30 12176 C 1124.99 0.430405 1.84239 0
M  V30 12177 O 1124.34 -0.604823 1.73458 0
M  V30 12178 C 1124.4 2.80597 2.24735 0
M  V30 12179 C 1124.06 4.21757 1.75984 0
M  V30 12180 C 1125.06 5.04961 1.23733 0
M  V30 12181 C 1122.75 4.68071 1.82248 0
M  V30 12182 C 1124.74 6.32561 0.783926 0
M  V30 12183 C 1122.43 5.95656 1.36519 0
M  V30 12184 C 1123.42 6.7773 0.846786 0
M  V30 12185 O 1123.11 8.02923 0.396164 0
M  V30 12186 H 1122.84 0.576906 0.352356 0
M  V30 12187 H 1125.4 2.00117 0.462865 0
M  V30 12188 H 1123.63 2.4719 2.97378 0
M  V30 12189 H 1125.32 2.87616 2.86412 0
M  V30 12190 H 1126.08 4.70363 1.18251 0
M  V30 12191 H 1121.96 4.04278 2.21541 0
M  V30 12192 H 1125.51 6.96572 0.378612 0
M  V30 12193 H 1121.4 6.29758 1.41686 0
M  V30 12194 H 1122.17 8.16861 0.517766 0
M  V30 12195 N 1124.83 -0.648732 1.43629 0
M  V30 12196 C 1126.25 -0.964917 1.27128 0
M  V30 12197 C 1126.45 -2.00561 0.194251 0
M  V30 12198 O 1125.51 -2.48884 -0.42581 0
M  V30 12199 C 1126.82 -1.44491 2.6371 0
M  V30 12200 C 1128.37 -1.56133 2.71278 0
M  V30 12201 C 1128.84 -2.07521 4.08288 0
M  V30 12202 N 1130.33 -2.14817 4.10375 0
M  V30 12203 C 1131.07 -2.55712 5.13224 0
M  V30 12204 N 1130.56 -2.9587 6.26444 0
M  V30 12205 N 1132.36 -2.55691 5.00578 0
M  V30 12206 H 1124.51 0.0398357 2.12363 0
M  V30 12207 H 1126.77 -0.0447705 0.946942 0
M  V30 12208 H 1126.48 -0.754616 3.43509 0
M  V30 12209 H 1126.35 -2.41914 2.89409 0
M  V30 12210 H 1128.74 -2.24263 1.91808 0
M  V30 12211 H 1128.82 -0.571314 2.49338 0
M  V30 12212 H 1128.46 -1.39992 4.88226 0
M  V30 12213 H 1128.39 -3.07362 4.27594 0
M  V30 12214 H 1130.88 -1.86538 3.28652 0
M  V30 12215 H 1131.2 -3.25837 7.0075 0
M  V30 12216 H 1129.54 -2.93664 6.2991 0
M  V30 12217 H 1132.73 -2.23697 4.1119 0
M  V30 12218 H 1132.91 -2.87239 5.80859 0
M  V30 12219 N 1126.31 -1.30234 -0.887518 0
M  V30 12220 C 1127.56 -1.18277 -1.63381 0
M  V30 12221 C 1127.87 0.262079 -1.93836 0
M  V30 12222 O 1129.08 0.503127 -2.66797 0
M  V30 12223 C 1127.54 -2.06944 -2.94452 0
M  V30 12224 C 1127.14 -3.56323 -2.71547 0
M  V30 12225 C 1128.89 -2.03743 -3.7241 0
M  V30 12226 C 1126.8 -4.37054 -3.98419 0
M  V30 12227 H 1125.73 -0.439087 -0.612959 0
M  V30 12228 H 1128.38 -1.54964 -0.982779 0
M  V30 12229 H 1126.76 -1.63138 -3.60835 0
M  V30 12230 H 1127.93 -4.08261 -2.13681 0
M  V30 12231 H 1126.25 -3.61321 -2.06969 0
M  V30 12232 H 1128.84 -2.61312 -4.66497 0
M  V30 12233 H 1129.19 -1.02029 -4.03603 0
M  V30 12234 H 1129.72 -2.45657 -3.12886 0
M  V30 12235 H 1126.46 -5.39453 -3.72385 0
M  V30 12236 H 1125.98 -3.89881 -4.55799 0
M  V30 12237 H 1127.66 -4.48356 -4.66462 0
M  V30 12238 N 1127.79 1.09952 -1.12909 0
M  V30 12239 C 1129.04 1.81657 -0.885729 0
M  V30 12240 C 1129.36 1.85863 0.589913 0
M  V30 12241 O 1128.63 1.34028 1.42875 0
M  V30 12242 H 1127.21 0.672743 -0.324694 0
M  V30 12243 H 1129.87 1.33013 -1.42456 0
M  V30 12244 H 1128.97 2.85018 -1.27167 0
M  V30 12245 N 1129.27 0.921757 1.27833 0
M  V30 12246 C 1130.2 0.373575 2.26135 0
M  V30 12247 C 1131.21 -0.492414 1.55174 0
M  V30 12248 O 1132.4 -0.305998 1.75858 0
M  V30 12249 C 1129.5 -0.483911 3.35427 0
M  V30 12250 C 1128.68 0.361411 4.35904 0
M  V30 12251 C 1127.73 -0.432461 5.2442 0
M  V30 12252 O 1126.76 0.15777 5.68981 0
M  V30 12253 N 1127.96 -1.73367 5.54007 0
M  V30 12254 H 1130.73 1.21856 2.73809 0
M  V30 12255 H 1128.29 0.788552 1.41398 0
M  V30 12256 H 1130.28 -1.02193 3.91585 0
M  V30 12257 H 1128.85 -1.22963 2.874 0
M  V30 12258 H 1128.07 1.08076 3.79095 0
M  V30 12259 H 1129.36 0.939528 5.0005 0
M  V30 12260 H 1128.76 -2.23561 5.19651 0
M  V30 12261 H 1127.31 -2.21834 6.12889 0
M  V30 12262 N 1130.75 -1.41857 0.686609 0
M  V30 12263 C 1131.97 -2.06219 0.221037 0
M  V30 12264 C 1132.4 -1.51298 -1.11762 0
M  V30 12265 O 1131.75 -0.636253 -1.69769 0
M  V30 12266 C 1131.8 -3.60153 0.179425 0
M  V30 12267 O 1130.91 -4.03577 -0.848481 0
M  V30 12268 H 1130.25 -0.654787 0.110228 0
M  V30 12269 H 1132.78 -1.81783 0.938948 0
M  V30 12270 H 1132.79 -4.07999 0.00725332 0
M  V30 12271 H 1131.46 -3.99498 1.15647 0
M  V30 12272 H 1130.04 -3.67255 -0.646393 0
M  V30 12273 N 1132.22 -0.430739 -1.51599 0
M  V30 12274 C 1133.17 0.384024 -2.27583 0
M  V30 12275 C 1134.14 1.02254 -1.30895 0
M  V30 12276 O 1135.33 1.0427 -1.59789 0
M  V30 12277 C 1132.47 1.48291 -3.11615 0
M  V30 12278 C 1131.58 0.863187 -4.23288 0
M  V30 12279 C 1130.71 1.93657 -4.94642 0
M  V30 12280 C 1129.75 1.29493 -5.98246 0
M  V30 12281 N 1128.89 2.30939 -6.63032 0
M  V30 12282 H 1133.73 -0.270314 -2.96771 0
M  V30 12283 H 1131.27 -0.145148 -1.46382 0
M  V30 12284 H 1133.23 2.13124 -3.58656 0
M  V30 12285 H 1131.86 2.10697 -2.44554 0
M  V30 12286 H 1130.91 0.103326 -3.8026 0
M  V30 12287 H 1132.22 0.354676 -4.97537 0
M  V30 12288 H 1131.37 2.66167 -5.45197 0
M  V30 12289 H 1130.11 2.4788 -4.20008 0
M  V30 12290 H 1129.12 0.555262 -5.46989 0
M  V30 12291 H 1130.34 0.760122 -6.74833 0
M  V30 12292 H 1128.29 2.84254 -5.91216 0
M  V30 12293 H 1128.21 1.84961 -7.33025 0
M  V30 12294 H 1129.47 3.02953 -7.1822 0
M  V30 12295 N 1133.7 1.56767 -0.161869 0
M  V30 12296 C 1134.95 1.95769 0.485536 0
M  V30 12297 C 1135.26 1.05006 1.65025 0
M  V30 12298 O 1136.47 1.33649 2.36326 0
M  V30 12299 C 1134.93 3.4807 0.915176 0
M  V30 12300 C 1134.53 4.47443 -0.223416 0
M  V30 12301 C 1136.28 3.95909 1.53153 0
M  V30 12302 C 1134.19 5.90971 0.225325 0
M  V30 12303 H 1133.12 0.730911 0.185161 0
M  V30 12304 H 1135.77 1.81808 -0.248592 0
M  V30 12305 H 1134.15 3.57415 1.705 0
M  V30 12306 H 1135.32 4.49805 -1.00061 0
M  V30 12307 H 1133.64 4.09606 -0.749127 0
M  V30 12308 H 1136.23 5.00592 1.87915 0
M  V30 12309 H 1136.58 3.38307 2.42599 0
M  V30 12310 H 1137.11 3.89542 0.806322 0
M  V30 12311 H 1133.85 6.52426 -0.634124 0
M  V30 12312 H 1133.37 5.91936 0.96808 0
M  V30 12313 H 1135.05 6.43497 0.672373 0
M  V30 12314 N 1135.18 -0.111886 1.57202 0
M  V30 12315 C 1136.43 -0.818411 1.85225 0
M  V30 12316 C 1136.76 -1.79542 0.747991 0
M  V30 12317 O 1136.01 -1.93965 -0.260013 0
M  V30 12318 C 1136.31 -1.59644 3.19763 0
M  V30 12319 C 1135.98 -0.76308 4.44396 0
M  V30 12320 C 1134.64 -0.53329 4.78236 0
M  V30 12321 C 1136.99 -0.18266 5.2088 0
M  V30 12322 C 1134.32 0.287056 5.85997 0
M  V30 12323 C 1136.67 0.624916 6.29506 0
M  V30 12324 C 1135.33 0.864955 6.61872 0
M  V30 12325 H 1134.6 -0.299478 0.677786 0
M  V30 12326 H 1137.25 -0.0805082 1.91331 0
M  V30 12327 H 1135.56 -2.40545 3.09266 0
M  V30 12328 H 1137.25 -2.1472 3.38669 0
M  V30 12329 H 1133.84 -0.952278 4.17887 0
M  V30 12330 H 1138.03 -0.34739 4.95083 0
M  V30 12331 H 1133.28 0.482179 6.09496 0
M  V30 12332 H 1137.46 1.08162 6.87949 0
M  V30 12333 H 1135.08 1.50244 7.45205 0
M  V30 12334 N 1136.66 -1.52894 -0.382264 0
M  V30 12335 C 1137.91 -1.68266 -1.12663 0
M  V30 12336 C 1138.23 -0.425974 -1.89778 0
M  V30 12337 O 1137.49 0.59178 -1.86538 0
M  V30 12338 C 1137.79 -2.87309 -2.12576 0
M  V30 12339 C 1137.45 -4.24484 -1.52067 0
M  V30 12340 C 1136.12 -4.6179 -1.35292 0
M  V30 12341 C 1138.47 -5.09858 -1.08138 0
M  V30 12342 C 1135.8 -5.82123 -0.731449 0
M  V30 12343 C 1138.15 -6.30822 -0.473986 0
M  V30 12344 C 1136.81 -6.66854 -0.293585 0
M  V30 12345 H 1136.08 -0.615728 -0.412262 0
M  V30 12346 H 1138.73 -1.8705 -0.410425 0
M  V30 12347 H 1137.03 -2.62968 -2.90439 0
M  V30 12348 H 1138.73 -2.96397 -2.70092 0
M  V30 12349 H 1135.32 -3.951 -1.66114 0
M  V30 12350 H 1139.5 -4.816 -1.19898 0
M  V30 12351 H 1134.76 -6.08643 -0.579938 0
M  V30 12352 H 1138.93 -6.96287 -0.125324 0
M  V30 12353 H 1136.56 -7.59962 0.190054 0
M  V30 12354 N 1138.14 0.641106 -1.43971 0
M  V30 12355 C 1139.55 0.958161 -1.27638 0
M  V30 12356 C 1139.75 2.00456 -0.204885 0
M  V30 12357 O 1138.81 2.49106 0.412606 0
M  V30 12358 C 1140.12 1.43091 -2.64472 0
M  V30 12359 C 1141.67 1.54692 -2.72102 0
M  V30 12360 C 1142.15 2.05353 -4.09382 0
M  V30 12361 N 1143.64 2.12638 -4.11509 0
M  V30 12362 C 1144.37 2.52987 -5.14573 0
M  V30 12363 N 1143.87 2.92544 -6.28005 0
M  V30 12364 N 1145.66 2.53033 -5.01927 0
M  V30 12365 H 1137.81 -0.0510973 -2.12339 0
M  V30 12366 H 1140.07 0.039748 -0.947166 0
M  V30 12367 H 1139.78 0.736389 -3.43904 0
M  V30 12368 H 1139.65 2.40375 -2.90688 0
M  V30 12369 H 1142.04 2.23242 -1.92994 0
M  V30 12370 H 1142.12 0.558083 -2.49638 0
M  V30 12371 H 1141.77 1.37401 -4.88962 0
M  V30 12372 H 1141.7 3.0509 -4.29218 0
M  V30 12373 H 1144.19 1.84792 -3.29636 0
M  V30 12374 H 1144.5 3.22116 -7.02468 0
M  V30 12375 H 1142.85 2.90319 -6.31458 0
M  V30 12376 H 1146.04 2.21514 -4.1237 0
M  V30 12377 H 1146.21 2.84155 -5.82375 0
M  V30 12378 N 1139.62 1.30703 0.880598 0
M  V30 12379 C 1140.84 1.22714 1.6658 0
M  V30 12380 C 1141.26 -0.209303 1.87636 0
M  V30 12381 O 1140.62 -1.13771 1.42697 0
M  V30 12382 C 1140.67 1.95659 3.03974 0
M  V30 12383 O 1140.39 3.33695 2.83865 0
M  V30 12384 C 1141.89 1.9438 3.98411 0
M  V30 12385 H 1139.11 0.424478 0.519673 0
M  V30 12386 H 1141.65 1.72402 1.0999 0
M  V30 12387 H 1139.81 1.49758 3.57283 0
M  V30 12388 H 1140.22 3.70697 3.71058 0
M  V30 12389 H 1141.7 2.4995 4.92168 0
M  V30 12390 H 1142.17 0.923767 4.29375 0
M  V30 12391 H 1142.78 2.40112 3.51036 0
M  V30 12392 N 1141.09 -1.09351 1.1349 0
M  V30 12393 C 1142.34 -1.81185 0.89535 0
M  V30 12394 C 1142.66 -1.86173 -0.580048 0
M  V30 12395 O 1141.93 -1.34784 -1.42162 0
M  V30 12396 H 1140.51 -0.671011 0.328257 0
M  V30 12397 H 1143.17 -1.32255 1.43159 0
M  V30 12398 H 1142.27 -2.84339 1.28676 0
M  V30 12399 N 1142.57 -0.928524 -1.27343 0
M  V30 12400 C 1143.82 -0.570235 -1.94618 0
M  V30 12401 C 1144.15 0.886381 -1.72792 0
M  V30 12402 O 1143.43 1.63242 -1.05747 0
M  V30 12403 C 1143.71 -0.897964 -3.48724 0
M  V30 12404 C 1143.56 -2.40839 -3.7989 0
M  V30 12405 C 1144.88 -0.404429 -4.38238 0
M  V30 12406 H 1142 -0.208645 -0.70685 0
M  V30 12407 H 1144.64 -1.16045 -1.50444 0
M  V30 12408 H 1142.79 -0.395679 -3.8648 0
M  V30 12409 H 1144.46 -2.98243 -3.51921 0
M  V30 12410 H 1142.71 -2.85723 -3.26412 0
M  V30 12411 H 1143.38 -2.58823 -4.8756 0
M  V30 12412 H 1145.85 -0.834918 -4.07637 0
M  V30 12413 H 1144.73 -0.662684 -5.44885 0
M  V30 12414 H 1144.99 0.695507 -4.36595 0
M  V30 12415 N 1144.05 1.41491 -0.694123 0
M  V30 12416 C 1144.98 2.33462 -0.0422169 0
M  V30 12417 C 1145.96 1.51739 0.76872 0
M  V30 12418 O 1147.15 1.8028 0.721985 0
M  V30 12419 C 1144.28 3.35545 0.895925 0
M  V30 12420 C 1143.23 4.27568 0.192188 0
M  V30 12421 C 1142.56 5.20014 1.24459 0
M  V30 12422 C 1143.86 5.1376 -0.940626 0
M  V30 12423 H 1145.55 2.88225 -0.810363 0
M  V30 12424 H 1143.1 1.38586 -0.39114 0
M  V30 12425 H 1145.05 3.9881 1.36121 0
M  V30 12426 H 1143.77 2.79129 1.69572 0
M  V30 12427 H 1142.43 3.65726 -0.25305 0
M  V30 12428 H 1142.08 4.59913 2.03687 0
M  V30 12429 H 1141.78 5.82417 0.778734 0
M  V30 12430 H 1143.3 5.86155 1.71041 0
M  V30 12431 H 1144.72 5.70601 -0.555692 0
M  V30 12432 H 1143.11 5.85097 -1.33349 0
M  V30 12433 H 1144.18 4.51011 -1.78093 0
M  V30 12434 N 1145.53 0.438773 1.51369 0
M  V30 12435 C 1146.49 -0.36032 2.2635 0
M  V30 12436 C 1147.49 -0.948465 1.29849 0
M  V30 12437 O 1148.68 -0.822692 1.53549 0
M  V30 12438 C 1145.81 -1.50994 3.05636 0
M  V30 12439 H 1147.01 0.296826 2.98427 0
M  V30 12440 H 1144.56 0.191978 1.55117 0
M  V30 12441 H 1145.29 -2.2031 2.37979 0
M  V30 12442 H 1145.08 -1.09437 3.76518 0
M  V30 12443 H 1146.57 -2.07447 3.6243 0
M  V30 12444 N 1147.01 -1.56678 0.170181 0
M  V30 12445 C 1147.96 -2.14503 -0.772818 0
M  V30 12446 C 1148.94 -1.07896 -1.19362 0
M  V30 12447 O 1150.13 -1.34021 -1.15617 0
M  V30 12448 C 1147.26 -2.78844 -2.00253 0
M  V30 12449 C 1146.35 -3.92607 -1.60377 0
M  V30 12450 N 1146.74 -4.97464 -0.914519 0
M  V30 12451 C 1145.04 -4.03746 -1.89487 0
M  V30 12452 C 1145.74 -5.77248 -0.718343 0
M  V30 12453 N 1144.71 -5.2881 -1.25942 0
M  V30 12454 H 1148.51 -2.92941 -0.237231 0
M  V30 12455 H 1146.03 -1.62371 -0.0305396 0
M  V30 12456 H 1148.03 -3.18646 -2.68831 0
M  V30 12457 H 1146.69 -2.01886 -2.54307 0
M  V30 12458 H 1147.7 -5.14724 -0.572692 0
M  V30 12459 H 1144.37 -3.3789 -2.45227 0
M  V30 12460 H 1145.76 -6.71676 -0.173373 0
M  V30 12461 N 1148.48 0.103547 -1.57259 0
M  V30 12462 C 1149.41 1.12714 -2.04494 0
M  V30 12463 C 1150.39 1.42278 -0.932255 0
M  V30 12464 O 1151.58 1.52453 -1.20298 0
M  V30 12465 C 1148.71 2.44927 -2.46228 0
M  V30 12466 C 1147.66 2.2979 -3.61082 0
M  V30 12467 C 1146.99 3.67105 -3.88765 0
M  V30 12468 C 1148.29 1.7455 -4.9227 0
M  V30 12469 H 1149.98 0.734198 -2.90258 0
M  V30 12470 H 1147.53 0.351725 -1.39638 0
M  V30 12471 H 1149.48 3.16798 -2.77879 0
M  V30 12472 H 1148.21 2.8614 -1.57453 0
M  V30 12473 H 1146.87 1.60366 -3.29664 0
M  V30 12474 H 1146.51 4.05831 -2.97171 0
M  V30 12475 H 1146.21 3.57825 -4.66084 0
M  V30 12476 H 1147.74 4.40456 -4.22884 0
M  V30 12477 H 1149.15 2.36253 -5.22358 0
M  V30 12478 H 1147.55 1.76051 -5.73695 0
M  V30 12479 H 1148.62 0.704242 -4.79759 0
M  V30 12480 N 1149.96 1.53094 0.37415 0
M  V30 12481 C 1150.87 1.81872 1.48188 0
M  V30 12482 C 1151.89 0.706487 1.59012 0
M  V30 12483 O 1153.06 0.995648 1.75068 0
M  V30 12484 C 1150.13 1.99494 2.83554 0
M  V30 12485 C 1149.19 3.23402 2.82329 0
M  V30 12486 C 1148.42 3.40174 4.11239 0
M  V30 12487 O 1148.65 2.61425 5.06965 0
M  V30 12488 O 1147.58 4.33493 4.17573 0
M  V30 12489 H 1151.41 2.75965 1.26795 0
M  V30 12490 H 1148.99 1.38368 0.56343 0
M  V30 12491 H 1150.87 2.12705 3.63778 0
M  V30 12492 H 1149.55 1.08591 3.04942 0
M  V30 12493 H 1148.45 3.15621 2.00834 0
M  V30 12494 H 1149.79 4.14199 2.65894 0
M  V30 12495 N 1151.44 -0.633461 1.44309 0
M  V30 12496 C 1152.35 -1.77428 1.53481 0
M  V30 12497 C 1153.37 -1.68839 0.420628 0
M  V30 12498 O 1154.54 -1.89658 0.677638 0
M  V30 12499 C 1151.61 -3.13801 1.47409 0
M  V30 12500 C 1150.67 -3.34039 2.6966 0
M  V30 12501 C 1149.9 -4.63907 2.63868 0
M  V30 12502 O 1150.12 -5.44559 1.69741 0
M  V30 12503 O 1149.06 -4.86295 3.54684 0
M  V30 12504 H 1152.88 -1.72642 2.49857 0
M  V30 12505 H 1150.47 -0.794399 1.26529 0
M  V30 12506 H 1152.35 -3.95101 1.46537 0
M  V30 12507 H 1151.03 -3.19134 0.541769 0
M  V30 12508 H 1149.93 -2.52427 2.761 0
M  V30 12509 H 1151.27 -3.33566 3.61931 0
M  V30 12510 N 1152.92 -1.31168 -0.873655 0
M  V30 12511 C 1153.83 -1.20458 -2.01313 0
M  V30 12512 C 1154.84 -0.122074 -1.73571 0
M  V30 12513 O 1156.02 -0.339176 -1.98523 0
M  V30 12514 C 1153.09 -0.90876 -3.34578 0
M  V30 12515 C 1152.15 -2.07779 -3.75668 0
M  V30 12516 C 1151.38 -1.79599 -5.02573 0
M  V30 12517 O 1151.6 -0.729338 -5.65718 0
M  V30 12518 O 1150.54 -2.65169 -5.40341 0
M  V30 12519 H 1154.36 -2.16207 -2.13279 0
M  V30 12520 H 1151.95 -1.10871 -1.00139 0
M  V30 12521 H 1153.83 -0.759469 -4.145 0
M  V30 12522 H 1152.5 0.0187249 -3.23695 0
M  V30 12523 H 1151.41 -2.28247 -2.96402 0
M  V30 12524 H 1152.74 -2.9874 -3.91172 0
M  V30 12525 N 1154.4 1.08748 -1.14068 0
M  V30 12526 C 1155.81 1.33125 -0.880341 0
M  V30 12527 C 1156.01 1.9569 0.480396 0
M  V30 12528 O 1155.07 2.2077 1.22543 0
M  V30 12529 C 1156.38 2.23618 -2.01036 0
M  V30 12530 C 1157.93 2.37108 -2.04326 0
M  V30 12531 C 1158.4 3.30941 -3.1661 0
M  V30 12532 N 1159.9 3.38517 -3.16166 0
M  V30 12533 C 1160.63 4.11142 -3.99687 0
M  V30 12534 N 1160.13 4.86505 -4.93239 0
M  V30 12535 N 1161.92 4.06938 -3.87761 0
M  V30 12536 H 1154.07 0.665164 -2.01716 0
M  V30 12537 H 1156.33 0.355612 -0.878774 0
M  V30 12538 H 1156.04 1.84885 -2.99183 0
M  V30 12539 H 1155.91 3.24056 -1.93049 0
M  V30 12540 H 1158.3 2.75101 -1.06787 0
M  V30 12541 H 1158.38 1.36424 -2.16384 0
M  V30 12542 H 1158.03 2.93669 -4.14392 0
M  V30 12543 H 1157.96 4.31545 -3.01789 0
M  V30 12544 H 1160.45 2.84786 -2.48405 0
M  V30 12545 H 1160.76 5.39372 -5.53441 0
M  V30 12546 H 1159.1 4.8557 -4.9724 0
M  V30 12547 H 1162.3 3.47166 -3.13996 0
M  V30 12548 H 1162.47 4.63275 -4.53079 0
M  V30 12549 N 1155.87 0.935264 1.26849 0
M  V30 12550 C 1157.15 0.497797 1.8916 0
M  V30 12551 C 1157.53 -1.02441 1.84578 0
M  V30 12552 O 1156.88 -1.88185 1.29609 0
M  V30 12553 C 1157.09 1.05244 3.32753 0
M  V30 12554 C 1158.44 1.11751 4.0963 0
M  V30 12555 O 1159.46 1.0026 3.41799 0
M  V30 12556 O 1158.32 1.29548 5.30923 0
M  V30 12557 H 1155.41 0.161322 0.811113 0
M  V30 12558 H 1157.96 1.02744 1.35062 0
M  V30 12559 H 1156.73 2.09617 3.30419 0
M  V30 12560 H 1156.36 0.504889 3.94381 0
M  V30 12561 N 1157.35 -1.41121 0.701616 0
M  V30 12562 C 1158.28 -2.33436 0.0545974 0
M  V30 12563 C 1159.26 -1.52144 -0.760662 0
M  V30 12564 O 1160.45 -1.80661 -0.712414 0
M  V30 12565 C 1157.58 -3.36015 -0.878117 0
M  V30 12566 C 1156.53 -4.27664 -0.169511 0
M  V30 12567 C 1155.86 -5.20666 -1.21699 0
M  V30 12568 C 1157.16 -5.13254 0.967859 0
M  V30 12569 H 1158.85 -2.87791 0.825637 0
M  V30 12570 H 1156.4 -1.38377 0.398484 0
M  V30 12571 H 1158.35 -3.99526 -1.34004 0
M  V30 12572 H 1157.08 -2.80024 -1.68089 0
M  V30 12573 H 1155.73 -3.65586 0.272441 0
M  V30 12574 H 1155.38 -4.60987 -2.01246 0
M  V30 12575 H 1155.08 -5.82822 -0.747836 0
M  V30 12576 H 1156.61 -5.87053 -1.6793 0
M  V30 12577 H 1158.02 -5.70298 0.585944 0
M  V30 12578 H 1156.42 -5.84381 1.3645 0
M  V30 12579 H 1157.49 -4.5006 1.80483 0
M  V30 12580 N 1158.83 -0.446794 -1.51134 0
M  V30 12581 C 1159.78 0.359865 -2.27977 0
M  V30 12582 C 1160.75 1.0086 -1.31972 0
M  V30 12583 O 1161.93 1.02569 -1.60886 0
M  V30 12584 C 1159.07 1.44978 -3.1317 0
M  V30 12585 C 1158.19 0.818243 -4.2418 0
M  V30 12586 C 1157.32 1.884 -4.96668 0
M  V30 12587 C 1156.36 1.2314 -5.99586 0
M  V30 12588 N 1155.5 2.23894 -6.65444 0
M  V30 12589 H 1160.34 -0.301775 -2.96468 0
M  V30 12590 H 1157.87 -0.160666 -1.4622 0
M  V30 12591 H 1159.83 2.09308 -3.60896 0
M  V30 12592 H 1158.46 2.08092 -2.46775 0
M  V30 12593 H 1157.51 0.0629889 -3.80348 0
M  V30 12594 H 1158.83 0.301885 -4.97886 0
M  V30 12595 H 1157.98 2.6037 -5.4799 0
M  V30 12596 H 1156.72 2.43411 -4.22614 0
M  V30 12597 H 1155.72 0.497215 -5.47547 0
M  V30 12598 H 1156.95 0.688505 -6.75601 0
M  V30 12599 H 1154.89 2.77967 -5.94197 0
M  V30 12600 H 1154.81 1.77176 -7.34945 0
M  V30 12601 H 1156.08 2.95318 -7.21393 0
M  V30 12602 N 1160.31 1.56586 -0.178487 0
M  V30 12603 C 1161.56 1.96273 0.464745 0
M  V30 12604 C 1161.87 1.0675 1.63902 0
M  V30 12605 O 1163.08 1.36148 2.34896 0
M  V30 12606 C 1161.53 3.49021 0.878207 0
M  V30 12607 C 1161.14 4.4718 -0.270861 0
M  V30 12608 C 1162.88 3.97512 1.48946 0
M  V30 12609 C 1160.79 5.91176 0.162632 0
M  V30 12610 H 1159.72 0.732834 0.177398 0
M  V30 12611 H 1162.37 1.81534 -0.267861 0
M  V30 12612 H 1160.75 3.59203 1.667 0
M  V30 12613 H 1161.93 4.48718 -1.04826 0
M  V30 12614 H 1160.24 4.08788 -0.792529 0
M  V30 12615 H 1162.84 5.02556 1.82595 0
M  V30 12616 H 1163.18 3.40861 2.38997 0
M  V30 12617 H 1163.72 3.90376 0.76496 0
M  V30 12618 H 1160.46 6.51716 -0.703286 0
M  V30 12619 H 1159.98 5.9293 0.905243 0
M  V30 12620 H 1161.65 6.44174 0.604084 0
M  V30 12621 N 1161.79 -0.095206 1.57312 0
M  V30 12622 C 1163.01 -0.81227 1.90289 0
M  V30 12623 C 1163.43 -1.72287 0.772178 0
M  V30 12624 O 1162.79 -1.80698 -0.255841 0
M  V30 12625 C 1162.84 -1.62572 3.22882 0
M  V30 12626 O 1162.56 -0.75175 4.31602 0
M  V30 12627 C 1164.06 -2.44585 3.6972 0
M  V30 12628 H 1161.28 -0.232256 0.629522 0
M  V30 12629 H 1163.82 -0.0724733 2.04372 0
M  V30 12630 H 1161.98 -2.31803 3.10397 0
M  V30 12631 H 1162.39 -1.31514 5.07744 0
M  V30 12632 H 1163.87 -2.97155 4.65191 0
M  V30 12633 H 1164.34 -3.23044 2.97555 0
M  V30 12634 H 1164.95 -1.80554 3.85072 0
M  V30 12635 N 1163.26 -1.53291 -0.366026 0
M  V30 12636 C 1164.54 -1.60055 -1.12436 0
M  V30 12637 C 1164.92 -0.407811 -2.07123 0
M  V30 12638 O 1164.27 0.601977 -2.20428 0
M  V30 12639 C 1164.48 -2.95062 -1.86385 0
M  V30 12640 C 1165.83 -3.49623 -2.40934 0
M  V30 12641 O 1166.85 -2.97088 -1.96512 0
M  V30 12642 O 1165.71 -4.41461 -3.2214 0
M  V30 12643 H 1162.8 -0.646476 -0.51575 0
M  V30 12644 H 1165.35 -1.65632 -0.369326 0
M  V30 12645 H 1164.12 -3.73312 -1.17277 0
M  V30 12646 H 1163.75 -2.92973 -2.68798 0
M  V30 12647 N 1164.74 0.6258 -1.44643 0
M  V30 12648 C 1165.99 1.3873 -1.47925 0
M  V30 12649 C 1166.32 1.93868 -0.113469 0
M  V30 12650 O 1165.6 1.73976 0.869639 0
M  V30 12651 C 1165.88 2.54867 -2.54391 0
M  V30 12652 C 1165.73 2.05044 -4.00346 0
M  V30 12653 C 1167.05 3.57043 -2.57309 0
M  V30 12654 H 1164.17 0.503087 -0.538584 0
M  V30 12655 H 1166.81 0.707102 -1.76352 0
M  V30 12656 H 1164.96 3.12894 -2.30281 0
M  V30 12657 H 1166.63 1.51807 -4.35606 0
M  V30 12658 H 1164.88 1.36185 -4.11869 0
M  V30 12659 H 1165.55 2.88681 -4.70497 0
M  V30 12660 H 1168.02 3.08826 -2.78865 0
M  V30 12661 H 1166.9 4.35818 -3.33698 0
M  V30 12662 H 1167.16 4.11464 -1.61708 0
M  V30 12663 N 1166.22 1.31629 0.866686 0
M  V30 12664 C 1167.47 1.20861 1.61479 0
M  V30 12665 C 1167.78 -0.231208 1.94229 0
M  V30 12666 O 1168.99 -0.460618 2.67564 0
M  V30 12667 C 1167.44 2.11602 2.91123 0
M  V30 12668 C 1167.05 3.60598 2.65844 0
M  V30 12669 C 1168.8 2.09642 3.69121 0
M  V30 12670 C 1166.7 4.43337 3.91415 0
M  V30 12671 H 1165.63 0.448783 0.605896 0
M  V30 12672 H 1168.28 1.56507 0.958001 0
M  V30 12673 H 1166.67 1.68858 3.58194 0
M  V30 12674 H 1167.84 4.11609 2.07159 0
M  V30 12675 H 1166.16 3.64568 2.01194 0
M  V30 12676 H 1168.75 2.68701 4.62281 0
M  V30 12677 H 1169.1 1.08438 4.01929 0
M  V30 12678 H 1169.63 2.50603 3.08938 0
M  V30 12679 H 1166.37 5.45309 3.63756 0
M  V30 12680 H 1165.89 3.97083 4.49539 0
M  V30 12681 H 1167.57 4.5572 4.5927 0
M  V30 12682 N 1167.7 -1.08142 1.14644 0
M  V30 12683 C 1168.63 -2.14476 0.779437 0
M  V30 12684 C 1169.61 -1.60812 -0.240454 0
M  V30 12685 O 1170.79 -1.88059 -0.128881 0
M  V30 12686 C 1167.92 -3.38333 0.157692 0
M  V30 12687 C 1166.97 -4.10754 1.14819 0
M  V30 12688 S 1167.8 -4.63227 2.68666 0
M  V30 12689 C 1168.96 -5.90367 2.07888 0
M  V30 12690 H 1169.19 -2.45276 1.68009 0
M  V30 12691 H 1166.72 -1.20292 0.967942 0
M  V30 12692 H 1168.68 -4.10038 -0.194607 0
M  V30 12693 H 1167.34 -3.05726 -0.720435 0
M  V30 12694 H 1166.53 -4.99644 0.661226 0
M  V30 12695 H 1166.14 -3.44974 1.44462 0
M  V30 12696 H 1168.43 -6.62107 1.43599 0
M  V30 12697 H 1169.37 -6.43764 2.94913 0
M  V30 12698 H 1169.78 -5.43507 1.52514 0
M  V30 12699 N 1169.18 -0.941978 -1.26351 0
M  V30 12700 C 1170.14 -0.456768 -2.24602 0
M  V30 12701 C 1171.14 0.432574 -1.54872 0
M  V30 12702 O 1172.33 0.23164 -1.72653 0
M  V30 12703 C 1169.46 0.341583 -3.39184 0
M  V30 12704 H 1170.66 -1.32503 -2.69041 0
M  V30 12705 H 1168.21 -0.724021 -1.38519 0
M  V30 12706 H 1168.94 1.22806 -3.00149 0
M  V30 12707 H 1168.73 -0.296268 -3.90979 0
M  V30 12708 H 1170.22 0.670955 -4.12175 0
M  V30 12709 N 1170.66 1.40747 -0.709091 0
M  V30 12710 C 1171.9 2.01003 -0.24581 0
M  V30 12711 C 1172.23 1.56203 1.15891 0
M  V30 12712 O 1171.49 0.770166 1.79908 0
M  V30 12713 C 1171.78 3.56404 -0.266685 0
M  V30 12714 C 1171.45 4.20762 -1.6208 0
M  V30 12715 C 1170.11 4.38056 -1.99148 0
M  V30 12716 C 1172.46 4.56723 -2.51105 0
M  V30 12717 C 1169.79 4.88591 -3.248 0
M  V30 12718 C 1172.14 5.08654 -3.76103 0
M  V30 12719 C 1170.81 5.24158 -4.13297 0
M  V30 12720 H 1170.08 0.73552 -0.0899481 0
M  V30 12721 H 1172.73 1.68451 -0.910844 0
M  V30 12722 H 1171.03 3.88825 0.481915 0
M  V30 12723 H 1172.73 4.0085 0.109509 0
M  V30 12724 H 1169.32 4.07685 -1.32252 0
M  V30 12725 H 1173.5 4.43004 -2.23744 0
M  V30 12726 H 1168.76 4.98779 -3.53595 0
M  V30 12727 H 1172.93 5.35457 -4.45262 0
M  V30 12728 H 1170.56 5.63079 -5.10731 0
M  V30 12729 N 1172.13 0.454803 1.50895 0
M  V30 12730 C 1173.07 -0.383826 2.25963 0
M  V30 12731 C 1174.08 -0.971263 1.30653 0
M  V30 12732 O 1175.27 -0.862434 1.56283 0
M  V30 12733 C 1172.37 -1.55069 3.01342 0
M  V30 12734 C 1171.54 -1.07899 4.23883 0
M  V30 12735 C 1170.6 -2.118 4.81692 0
M  V30 12736 O 1169.63 -1.70523 5.43057 0
M  V30 12737 N 1170.83 -3.44459 4.67256 0
M  V30 12738 H 1173.59 0.259646 2.98573 0
M  V30 12739 H 1171.15 0.284661 1.59378 0
M  V30 12740 H 1173.15 -2.24236 3.36898 0
M  V30 12741 H 1171.72 -2.09917 2.31633 0
M  V30 12742 H 1170.94 -0.213773 3.9362 0
M  V30 12743 H 1172.22 -0.741501 5.03368 0
M  V30 12744 H 1171.62 -3.80716 4.18416 0
M  V30 12745 H 1170.18 -4.0947 5.07127 0
M  V30 12746 N 1173.61 -1.56489 0.186789 0
M  V30 12747 C 1174.57 -2.17478 -0.723596 0
M  V30 12748 C 1175.57 -1.12698 -1.14699 0
M  V30 12749 O 1176.76 -1.38128 -1.06143 0
M  V30 12750 C 1173.9 -2.77015 -1.98685 0
M  V30 12751 H 1175.09 -2.99282 -0.192403 0
M  V30 12752 H 1172.64 -1.56174 -0.0628153 0
M  V30 12753 H 1173.38 -1.98987 -2.56076 0
M  V30 12754 H 1173.16 -3.53711 -1.69207 0
M  V30 12755 H 1174.65 -3.23872 -2.63622 0
M  V30 12756 N 1175.09 0.086862 -1.5736 0
M  V30 12757 C 1176.02 1.13614 -1.97907 0
M  V30 12758 C 1177 1.38395 -0.853564 0
M  V30 12759 O 1178.18 1.52018 -1.11457 0
M  V30 12760 C 1175.31 2.48364 -2.30289 0
M  V30 12761 C 1174.36 2.39814 -3.52692 0
M  V30 12762 S 1175.19 1.80673 -5.04101 0
M  V30 12763 C 1176.35 3.17031 -5.39669 0
M  V30 12764 H 1176.58 0.790538 -2.86597 0
M  V30 12765 H 1174.11 0.294847 -1.51559 0
M  V30 12766 H 1176.07 3.25883 -2.49621 0
M  V30 12767 H 1174.73 2.80091 -1.42154 0
M  V30 12768 H 1173.92 3.3915 -3.72818 0
M  V30 12769 H 1173.53 1.70427 -3.32912 0
M  V30 12770 H 1175.82 4.13319 -5.36818 0
M  V30 12771 H 1176.76 3.017 -6.40611 0
M  V30 12772 H 1177.17 3.16942 -4.67128 0
M  V30 12773 N 1176.57 1.53483 0.357892 0
M  V30 12774 C 1177.81 1.71743 1.10832 0
M  V30 12775 C 1178.17 0.463303 1.86326 0
M  V30 12776 O 1179.37 0.522715 2.63669 0
M  V30 12777 C 1177.64 2.93741 2.03595 0
M  V30 12778 S 1179.2 3.32744 2.86054 0
M  V30 12779 H 1176.02 0.604247 0.374709 0
M  V30 12780 H 1178.62 1.916 0.388565 0
M  V30 12781 H 1177.33 3.83205 1.46909 0
M  V30 12782 H 1176.86 2.76309 2.8003 0
M  V30 12783 H 1178.87 2.85358 4.05938 0
M  V30 12784 N 1178.05 -0.61812 1.44973 0
M  V30 12785 C 1179.46 -0.937734 1.29146 0
M  V30 12786 C 1179.66 -2.00104 0.236749 0
M  V30 12787 O 1178.72 -2.49731 -0.372923 0
M  V30 12788 C 1180.03 -1.38865 2.66715 0
M  V30 12789 C 1181.58 -1.50343 2.74529 0
M  V30 12790 C 1182.05 -1.98814 4.12598 0
M  V30 12791 N 1183.54 -2.06064 4.14839 0
M  V30 12792 C 1184.28 -2.44768 5.18533 0
M  V30 12793 N 1183.78 -2.82516 6.32579 0
M  V30 12794 N 1185.57 -2.45016 5.05889 0
M  V30 12795 H 1177.72 0.084872 2.1223 0
M  V30 12796 H 1179.98 -0.0246744 0.947679 0
M  V30 12797 H 1179.69 -0.681583 3.45032 0
M  V30 12798 H 1179.56 -2.3572 2.94475 0
M  V30 12799 H 1181.95 -2.20144 1.96522 0
M  V30 12800 H 1182.03 -0.518297 2.50494 0
M  V30 12801 H 1181.67 -1.29604 4.91086 0
M  V30 12802 H 1181.6 -2.98223 4.34017 0
M  V30 12803 H 1184.1 -1.79525 3.32535 0
M  V30 12804 H 1184.41 -3.109 7.07504 0
M  V30 12805 H 1182.75 -2.80237 6.35997 0
M  V30 12806 H 1185.94 -2.14925 4.15842 0
M  V30 12807 H 1186.12 -2.74854 5.86821 0
M  V30 12808 N 1179.52 -1.32087 -0.859693 0
M  V30 12809 C 1180.77 -1.22119 -1.61033 0
M  V30 12810 C 1181.09 0.218289 -1.93774 0
M  V30 12811 O 1180.36 1.14172 -1.5919 0
M  V30 12812 H 1178.94 -0.448989 -0.597008 0
M  V30 12813 H 1181.6 -1.65545 -1.02863 0
M  V30 12814 H 1180.7 -1.80023 -2.54947 0
M  V30 12815 N 1181 1.07532 -1.15215 0
M  V30 12816 C 1182.23 1.8355 -0.94831 0
M  V30 12817 C 1182.64 1.82289 0.506701 0
M  V30 12818 O 1181.98 1.23142 1.36314 0
M  V30 12819 C 1182.04 3.31834 -1.38298 0
M  V30 12820 C 1181.71 3.56818 -2.85535 0
M  V30 12821 C 1182.71 3.50915 -3.83608 0
M  V30 12822 C 1180.39 3.84543 -3.23159 0
M  V30 12823 C 1182.38 3.72382 -5.17311 0
M  V30 12824 C 1180.07 4.05662 -4.57036 0
M  V30 12825 C 1181.07 3.99576 -5.53921 0
M  V30 12826 O 1180.76 4.20132 -6.85379 0
M  V30 12827 H 1180.49 0.586014 -0.336992 0
M  V30 12828 H 1183.04 1.36656 -1.53344 0
M  V30 12829 H 1181.27 3.79529 -0.741244 0
M  V30 12830 H 1182.96 3.89312 -1.14853 0
M  V30 12831 H 1183.73 3.295 -3.55886 0
M  V30 12832 H 1179.61 3.88395 -2.48335 0
M  V30 12833 H 1183.15 3.67547 -5.92921 0
M  V30 12834 H 1179.05 4.26563 -4.84473 0
M  V30 12835 H 1179.82 4.3749 -6.91769 0
M  V30 12836 N 1182.48 0.948665 1.2585 0
M  V30 12837 C 1183.41 0.482036 2.2847 0
M  V30 12838 C 1184.39 -0.468553 1.63519 0
M  V30 12839 O 1185.58 -0.368796 1.90666 0
M  V30 12840 C 1182.71 -0.246603 3.46423 0
M  V30 12841 C 1181.66 0.61815 4.23513 0
M  V30 12842 C 1180.99 -0.240884 5.34157 0
M  V30 12843 C 1182.29 1.89327 4.86778 0
M  V30 12844 H 1183.98 1.33973 2.67753 0
M  V30 12845 H 1181.53 0.645645 1.28715 0
M  V30 12846 H 1183.48 -0.584135 4.17332 0
M  V30 12847 H 1182.2 -1.13849 3.06114 0
M  V30 12848 H 1180.86 0.938682 3.54379 0
M  V30 12849 H 1180.51 -1.13235 4.90089 0
M  V30 12850 H 1180.21 0.334367 5.86648 0
M  V30 12851 H 1181.73 -0.573517 6.07901 0
M  V30 12852 H 1183.15 1.62252 5.49861 0
M  V30 12853 H 1181.55 2.41369 5.49419 0
M  V30 12854 H 1182.62 2.60006 4.09298 0
M  V30 12855 N 1183.96 -1.40369 0.716545 0
M  V30 12856 C 1184.92 -2.29083 0.0733105 0
M  V30 12857 C 1185.92 -1.45415 -0.686378 0
M  V30 12858 O 1187.11 -1.66316 -0.518139 0
M  V30 12859 C 1184.24 -3.28639 -0.906032 0
M  V30 12860 H 1185.44 -2.87464 0.85467 0
M  V30 12861 H 1182.99 -1.48706 0.481256 0
M  V30 12862 H 1183.72 -2.75279 -1.71441 0
M  V30 12863 H 1183.51 -3.90405 -0.364163 0
M  V30 12864 H 1185 -3.95066 -1.35324 0
M  V30 12865 N 1185.44 -0.462799 -1.50652 0
M  V30 12866 C 1186.85 -0.11648 -1.59174 0
M  V30 12867 C 1187.05 1.37638 -1.47167 0
M  V30 12868 O 1186.11 2.14886 -1.3259 0
M  V30 12869 C 1187.42 -0.659289 -2.93383 0
M  V30 12870 C 1188.97 -0.62198 -3.06758 0
M  V30 12871 C 1189.44 -1.14219 -4.43529 0
M  V30 12872 N 1190.94 -1.10125 -4.49919 0
M  V30 12873 C 1191.67 -1.47436 -5.54121 0
M  V30 12874 N 1191.17 -1.92156 -6.65618 0
M  V30 12875 N 1192.96 -1.39091 -5.44619 0
M  V30 12876 H 1185.11 -1.43383 -1.56701 0
M  V30 12877 H 1187.37 -0.592438 -0.740082 0
M  V30 12878 H 1187.08 -1.70477 -3.07621 0
M  V30 12879 H 1186.95 -0.0982388 -3.77072 0
M  V30 12880 H 1189.34 0.414576 -2.92173 0
M  V30 12881 H 1189.42 -1.21974 -2.24847 0
M  V30 12882 H 1189.07 -2.17734 -4.58862 0
M  V30 12883 H 1189 -0.52073 -5.24019 0
M  V30 12884 H 1191.49 -0.773154 -3.69906 0
M  V30 12885 H 1191.8 -2.18796 -7.4118 0
M  V30 12886 H 1190.14 -1.96103 -6.6676 0
M  V30 12887 H 1193.34 -1.04001 -4.564 0
M  V30 12888 H 1193.51 -1.68496 -6.2571 0
M  V30 12889 N 1186.91 1.56388 -0.195085 0
M  V30 12890 C 1187.86 2.19091 0.725793 0
M  V30 12891 C 1188.83 1.13814 1.20977 0
M  V30 12892 O 1190.02 1.42065 1.27366 0
M  V30 12893 C 1187.16 2.85427 1.93973 0
M  V30 12894 C 1186.27 4.05229 1.49712 0
M  V30 12895 C 1185.4 4.59421 2.66656 0
M  V30 12896 C 1184.44 5.71581 2.19001 0
M  V30 12897 N 1183.58 6.2018 3.29123 0
M  V30 12898 H 1188.42 2.97429 0.184334 0
M  V30 12899 H 1185.96 1.46886 0.0792434 0
M  V30 12900 H 1187.92 3.22057 2.65208 0
M  V30 12901 H 1186.55 2.09652 2.4545 0
M  V30 12902 H 1185.6 3.74261 0.680641 0
M  V30 12903 H 1186.91 4.8635 1.10749 0
M  V30 12904 H 1186.06 4.98357 3.46014 0
M  V30 12905 H 1184.8 3.77407 3.08893 0
M  V30 12906 H 1183.81 5.32174 1.38097 0
M  V30 12907 H 1185.03 6.55413 1.77795 0
M  V30 12908 H 1182.98 5.41088 3.70891 0
M  V30 12909 H 1182.9 6.96353 2.94328 0
M  V30 12910 H 1184.16 6.63769 4.08694 0
M  V30 12911 N 1188.39 -0.0785156 1.57404 0
M  V30 12912 C 1189.36 -1.07835 2.02248 0
M  V30 12913 C 1190.36 -1.31987 0.918475 0
M  V30 12914 O 1191.55 -1.27821 1.18353 0
M  V30 12915 C 1188.68 -2.42361 2.39737 0
M  V30 12916 H 1189.87 -0.691995 2.91807 0
M  V30 12917 H 1187.42 -0.32405 1.52904 0
M  V30 12918 H 1188.16 -2.85841 1.53183 0
M  V30 12919 H 1187.94 -2.26174 3.20293 0
M  V30 12920 H 1189.43 -3.14241 2.75031 0
M  V30 12921 N 1189.87 -1.5367 -0.349747 0
M  V30 12922 C 1191.12 -1.70618 -1.09068 0
M  V30 12923 C 1191.45 -0.466133 -1.88832 0
M  V30 12924 O 1190.7 0.552079 -1.87751 0
M  V30 12925 C 1191 -2.91753 -2.06434 0
M  V30 12926 C 1190.67 -4.27614 -1.43029 0
M  V30 12927 C 1189.33 -4.64555 -1.25466 0
M  V30 12928 C 1191.68 -5.12037 -0.972987 0
M  V30 12929 C 1189.01 -5.83543 -0.607807 0
M  V30 12930 C 1191.36 -6.31685 -0.340073 0
M  V30 12931 C 1190.02 -6.67327 -0.152069 0
M  V30 12932 H 1189.29 -0.624334 -0.399108 0
M  V30 12933 H 1191.94 -1.87879 -0.370657 0
M  V30 12934 H 1190.25 -2.6907 -2.84796 0
M  V30 12935 H 1191.94 -3.02059 -2.63744 0
M  V30 12936 H 1188.53 -3.98535 -1.57696 0
M  V30 12937 H 1192.72 -4.84035 -1.09655 0
M  V30 12938 H 1187.97 -6.09737 -0.450705 0
M  V30 12939 H 1192.15 -6.96396 0.0223973 0
M  V30 12940 H 1189.77 -7.59388 0.35121 0
M  V30 12941 N 1191.35 0.610423 -1.45298 0
M  V30 12942 C 1192.31 1.70324 -1.5337 0
M  V30 12943 C 1193.31 1.55393 -0.413492 0
M  V30 12944 O 1194.5 1.60512 -0.676872 0
M  V30 12945 C 1191.63 3.09572 -1.42752 0
M  V30 12946 H 1192.83 1.64535 -2.50736 0
M  V30 12947 H 1190.38 0.825906 -1.32697 0
M  V30 12948 H 1191.11 3.2094 -0.465601 0
M  V30 12949 H 1190.9 3.21817 -2.24 0
M  V30 12950 H 1192.39 3.89178 -1.51427 0
M  V30 12951 N 1192.83 1.32541 0.852676 0
M  V30 12952 C 1193.77 1.21643 1.96142 0
M  V30 12953 C 1194.74 0.0981496 1.6581 0
M  V30 12954 O 1195.93 0.27404 1.88822 0
M  V30 12955 C 1193.07 0.947483 3.31838 0
M  V30 12956 C 1192.18 2.15074 3.74656 0
M  V30 12957 C 1191.32 1.81711 4.99154 0
M  V30 12958 C 1190.36 2.98346 5.34468 0
M  V30 12959 N 1189.49 2.65062 6.50143 0
M  V30 12960 H 1194.33 2.16479 2.04795 0
M  V30 12961 H 1191.87 1.07664 1.00234 0
M  V30 12962 H 1193.83 0.772038 4.09994 0
M  V30 12963 H 1192.46 0.0359112 3.2278 0
M  V30 12964 H 1191.51 2.43639 2.92137 0
M  V30 12965 H 1192.82 3.02314 3.96747 0
M  V30 12966 H 1191.98 1.60729 5.85022 0
M  V30 12967 H 1190.71 0.916875 4.79004 0
M  V30 12968 H 1189.72 3.19956 4.47111 0
M  V30 12969 H 1190.94 3.89104 5.56574 0
M  V30 12970 H 1188.89 1.77582 6.31507 0
M  V30 12971 H 1188.81 3.45832 6.72262 0
M  V30 12972 H 1190.08 2.47516 7.39159 0
M  V30 12973 N 1194.3 -1.0692 1.15784 0
M  V30 12974 C 1195.72 -1.31707 0.901408 0
M  V30 12975 C 1195.92 -1.96429 -0.449203 0
M  V30 12976 O 1194.98 -2.22692 -1.19015 0
M  V30 12977 C 1196.29 -2.20391 2.04568 0
M  V30 12978 C 1197.84 -2.33827 2.08072 0
M  V30 12979 C 1198.31 -3.25862 3.21835 0
M  V30 12980 N 1199.8 -3.33444 3.21511 0
M  V30 12981 C 1200.54 -4.04731 4.06177 0
M  V30 12982 N 1200.03 -4.78596 5.00917 0
M  V30 12983 N 1201.83 -4.00717 3.94185 0
M  V30 12984 H 1193.98 -0.632989 2.02749 0
M  V30 12985 H 1196.24 -0.341587 0.88432 0
M  V30 12986 H 1195.95 -1.80102 3.02087 0
M  V30 12987 H 1195.82 -3.20943 1.9818 0
M  V30 12988 H 1198.21 -2.73367 1.11151 0
M  V30 12989 H 1198.29 -1.32964 2.18527 0
M  V30 12990 H 1197.93 -2.8704 4.19012 0
M  V30 12991 H 1197.86 -4.26689 3.08617 0
M  V30 12992 H 1200.35 -2.80798 2.52905 0
M  V30 12993 H 1200.67 -5.30499 5.61952 0
M  V30 12994 H 1199.01 -4.77598 5.04902 0
M  V30 12995 H 1202.2 -3.42126 3.1948 0
M  V30 12996 H 1202.38 -4.56008 4.60392 0
M  V30 12997 N 1195.78 -0.955326 -1.25345 0
M  V30 12998 C 1196.71 -0.4334 -2.25065 0
M  V30 12999 C 1197.73 0.451099 -1.56425 0
M  V30 13000 O 1198.92 0.259265 -1.76607 0
M  V30 13001 C 1196.02 0.394809 -3.36592 0
M  V30 13002 C 1195.19 -0.476856 -4.34793 0
M  V30 13003 C 1194.25 0.293269 -5.25382 0
M  V30 13004 O 1193.27 -0.30857 -5.68363 0
M  V30 13005 N 1194.48 1.58617 -5.58409 0
M  V30 13006 H 1197.24 -1.29073 -2.70482 0
M  V30 13007 H 1194.8 -0.825764 -1.39258 0
M  V30 13008 H 1196.79 0.917747 -3.94157 0
M  V30 13009 H 1195.36 1.153 -2.90559 0
M  V30 13010 H 1194.58 -1.18089 -3.76097 0
M  V30 13011 H 1195.87 -1.07178 -4.97384 0
M  V30 13012 H 1195.27 2.09705 -5.25395 0
M  V30 13013 H 1193.83 2.05506 -6.18555 0
M  V30 13014 N 1197.26 1.39987 -0.723979 0
M  V30 13015 C 1198.19 2.2917 -0.0373445 0
M  V30 13016 C 1199.21 1.46258 0.715015 0
M  V30 13017 O 1200.4 1.69455 0.561003 0
M  V30 13018 C 1197.5 3.2468 0.971384 0
M  V30 13019 C 1196.67 4.36485 0.282826 0
M  V30 13020 C 1195.73 5.12379 1.19811 0
M  V30 13021 O 1194.75 5.65127 0.67974 0
M  V30 13022 N 1195.96 5.22531 2.52866 0
M  V30 13023 H 1198.72 2.88738 -0.803131 0
M  V30 13024 H 1196.28 1.51448 -0.572292 0
M  V30 13025 H 1198.27 3.72326 1.58606 0
M  V30 13026 H 1196.84 2.6622 1.63846 0
M  V30 13027 H 1196.06 3.90859 -0.512167 0
M  V30 13028 H 1197.35 5.08427 -0.194793 0
M  V30 13029 H 1196.75 4.81174 2.97469 0
M  V30 13030 H 1195.31 5.73655 3.09457 0
M  V30 13031 N 1198.74 0.470782 1.50404 0
M  V30 13032 C 1199.67 -0.359838 2.26358 0
M  V30 13033 C 1200.68 -0.95735 1.31676 0
M  V30 13034 O 1201.87 -0.84581 1.57189 0
M  V30 13035 C 1198.97 -1.51864 3.02969 0
M  V30 13036 C 1198.15 -1.03397 4.25003 0
M  V30 13037 C 1197.21 -2.06679 4.83911 0
M  V30 13038 O 1196.23 -1.64754 5.44835 0
M  V30 13039 N 1197.43 -3.39484 4.70883 0
M  V30 13040 H 1200.2 0.291299 2.98281 0
M  V30 13041 H 1197.76 0.301549 1.59067 0
M  V30 13042 H 1199.75 -2.2065 3.39258 0
M  V30 13043 H 1198.32 -2.07448 2.33846 0
M  V30 13044 H 1197.54 -0.172012 3.93825 0
M  V30 13045 H 1198.83 -0.68807 5.04126 0
M  V30 13046 H 1198.23 -3.76256 4.22431 0
M  V30 13047 H 1196.78 -4.04068 5.11441 0
M  V30 13048 N 1200.22 -1.56282 0.203376 0
M  V30 13049 C 1201.15 -2.2247 -0.709183 0
M  V30 13050 C 1202.13 -1.19046 -1.21499 0
M  V30 13051 O 1203.31 -1.47578 -1.26231 0
M  V30 13052 C 1200.44 -2.8905 -1.92529 0
M  V30 13053 C 1199.4 -3.98789 -1.55407 0
M  V30 13054 C 1198.72 -4.52574 -2.84747 0
M  V30 13055 C 1200.02 -5.16774 -0.75775 0
M  V30 13056 H 1201.72 -2.98986 -0.157392 0
M  V30 13057 H 1199.26 -1.43808 -0.0742613 0
M  V30 13058 H 1201.22 -3.34038 -2.56898 0
M  V30 13059 H 1199.94 -2.09952 -2.50175 0
M  V30 13060 H 1198.6 -3.54504 -0.933928 0
M  V30 13061 H 1198.25 -3.70229 -3.40499 0
M  V30 13062 H 1197.95 -5.26627 -2.6065 0
M  V30 13063 H 1199.47 -5.00269 -3.5009 0
M  V30 13064 H 1200.89 -5.58256 -1.30472 0
M  V30 13065 H 1199.28 -5.96945 -0.614583 0
M  V30 13066 H 1200.35 -4.84308 0.239476 0
M  V30 13067 N 1201.7 0.070167 -1.57444 0
M  V30 13068 C 1202.92 0.781894 -1.91557 0
M  V30 13069 C 1203.34 1.71037 -0.799489 0
M  V30 13070 O 1202.7 1.81082 0.227062 0
M  V30 13071 C 1202.75 1.57415 -3.25427 0
M  V30 13072 O 1202.47 0.682991 -4.32743 0
M  V30 13073 C 1203.97 2.38673 -3.73564 0
M  V30 13074 H 1201.19 0.222211 -0.633138 0
M  V30 13075 H 1203.73 0.0399504 -2.04461 0
M  V30 13076 H 1201.89 2.26835 -3.14045 0
M  V30 13077 H 1202.3 1.2342 -5.09772 0
M  V30 13078 H 1203.78 2.89716 -4.6986 0
M  V30 13079 H 1204.25 3.18269 -3.02657 0
M  V30 13080 H 1204.86 1.74405 -3.87896 0
M  V30 13081 N 1203.17 1.53854 0.341593 0
M  V30 13082 C 1204.14 1.8128 1.40251 0
M  V30 13083 C 1205.14 0.683915 1.45531 0
M  V30 13084 O 1206.33 0.952202 1.45872 0
M  V30 13085 C 1203.46 1.95658 2.79161 0
M  V30 13086 H 1204.65 2.76053 1.17195 0
M  V30 13087 H 1202.2 1.45296 0.57609 0
M  V30 13088 H 1202.94 1.03034 3.07497 0
M  V30 13089 H 1202.72 2.77788 2.76724 0
M  V30 13090 H 1204.21 2.18387 3.55945 0
M  V30 13091 N 1204.65 -0.602709 1.4562 0
M  V30 13092 C 1205.58 -1.72705 1.49159 0
M  V30 13093 C 1206.56 -1.58843 0.347494 0
M  V30 13094 O 1207.75 -1.80337 0.548716 0
M  V30 13095 C 1204.87 -3.10579 1.35125 0
M  V30 13096 C 1203.92 -3.43016 2.53461 0
M  V30 13097 S 1204.75 -3.37311 4.1591 0
M  V30 13098 C 1205.91 -4.77757 4.0435 0
M  V30 13099 H 1206.14 -1.69441 2.44289 0
M  V30 13100 H 1203.67 -0.779776 1.33262 0
M  V30 13101 H 1205.63 -3.90127 1.27715 0
M  V30 13102 H 1204.29 -3.11352 0.414568 0
M  V30 13103 H 1203.49 -4.43415 2.39581 0
M  V30 13104 H 1203.09 -2.70993 2.57757 0
M  V30 13105 H 1205.38 -5.67677 3.69796 0
M  V30 13106 H 1206.32 -4.96694 5.04679 0
M  V30 13107 H 1206.73 -4.53667 3.35926 0
M  V30 13108 N 1206.13 -1.32992 -0.845635 0
M  V30 13109 C 1207.08 -1.22682 -1.95494 0
M  V30 13110 C 1208.05 -0.106942 -1.65755 0
M  V30 13111 O 1209.23 -0.28405 -1.88674 0
M  V30 13112 C 1206.37 -0.965068 -3.31331 0
M  V30 13113 C 1205.48 -2.17058 -3.7351 0
M  V30 13114 C 1204.62 -1.84355 -4.98183 0
M  V30 13115 C 1203.66 -3.01176 -5.32878 0
M  V30 13116 N 1202.8 -2.68506 -6.48729 0
M  V30 13117 H 1207.64 -2.17562 -2.03644 0
M  V30 13118 H 1205.17 -1.08194 -0.996613 0
M  V30 13119 H 1207.13 -0.793771 -4.09579 0
M  V30 13120 H 1205.76 -0.0530285 -3.22756 0
M  V30 13121 H 1204.81 -2.45185 -2.90841 0
M  V30 13122 H 1206.12 -3.04413 -3.95138 0
M  V30 13123 H 1205.28 -1.6383 -5.84162 0
M  V30 13124 H 1204.02 -0.942264 -4.78511 0
M  V30 13125 H 1203.02 -3.22323 -4.45408 0
M  V30 13126 H 1204.25 -3.9205 -5.54503 0
M  V30 13127 H 1202.19 -1.80929 -6.30556 0
M  V30 13128 H 1202.11 -3.49392 -6.70419 0
M  V30 13129 H 1203.38 -2.51432 -7.37836 0
M  V30 13130 N 1207.61 1.06304 -1.1635 0
M  V30 13131 C 1208.85 1.79366 -0.94634 0
M  V30 13132 C 1209.19 1.86981 0.524569 0
M  V30 13133 O 1208.46 1.36134 1.38917 0
M  V30 13134 C 1208.74 3.23861 -1.57436 0
M  V30 13135 C 1208.6 3.24327 -3.1166 0
M  V30 13136 C 1209.92 4.21409 -1.26895 0
M  V30 13137 H 1207.04 0.65115 -0.345215 0
M  V30 13138 H 1209.68 1.24325 -1.43678 0
M  V30 13139 H 1207.83 3.70862 -1.15731 0
M  V30 13140 H 1209.5 2.85488 -3.62346 0
M  V30 13141 H 1207.74 2.62983 -3.44997 0
M  V30 13142 H 1208.41 4.2626 -3.50723 0
M  V30 13143 H 1210.89 3.8285 -1.62989 0
M  V30 13144 H 1209.77 5.20778 -1.73439 0
M  V30 13145 H 1210.03 4.41701 -0.187768 0
M  V30 13146 N 1209.09 0.96196 1.24836 0
M  V30 13147 C 1210.33 0.616342 1.92052 0
M  V30 13148 C 1210.65 -0.851601 1.76088 0
M  V30 13149 O 1211.85 -1.3075 2.37943 0
M  V30 13150 C 1210.31 1.05168 3.44191 0
M  V30 13151 C 1209.92 2.54268 3.68852 0
M  V30 13152 C 1211.66 0.778938 4.17292 0
M  V30 13153 C 1209.57 2.91564 5.14533 0
M  V30 13154 H 1208.5 0.22681 0.719078 0
M  V30 13155 H 1211.15 1.1674 1.41577 0
M  V30 13156 H 1209.53 0.428979 3.9367 0
M  V30 13157 H 1210.71 3.21619 3.29997 0
M  V30 13158 H 1209.02 2.79091 3.09026 0
M  V30 13159 H 1211.62 1.03366 5.24614 0
M  V30 13160 H 1211.96 -0.284772 4.15325 0
M  V30 13161 H 1212.49 1.36233 3.73745 0
M  V30 13162 H 1209.23 3.96982 5.21618 0
M  V30 13163 H 1208.75 2.28892 5.54408 0
M  V30 13164 H 1210.43 2.81155 5.82718 0
M  V30 13165 N 1210.56 -1.39601 0.731392 0
M  V30 13166 C 1211.5 -2.29147 0.0494974 0
M  V30 13167 C 1212.51 -1.46635 -0.707248 0
M  V30 13168 O 1213.7 -1.6975 -0.552008 0
M  V30 13169 C 1210.8 -3.25191 -0.954152 0
M  V30 13170 C 1209.97 -4.36629 -0.259674 0
M  V30 13171 C 1209.03 -5.13007 -1.17092 0
M  V30 13172 O 1208.06 -5.65479 -0.64976 0
M  V30 13173 N 1209.26 -5.23865 -2.50092 0
M  V30 13174 H 1212.02 -2.88308 0.818433 0
M  V30 13175 H 1209.58 -1.51142 0.580316 0
M  V30 13176 H 1211.58 -3.73161 -1.56629 0
M  V30 13177 H 1210.15 -2.67085 -1.62432 0
M  V30 13178 H 1209.37 -3.90582 0.532888 0
M  V30 13179 H 1210.65 -5.08317 0.221753 0
M  V30 13180 H 1210.05 -4.82745 -2.94913 0
M  V30 13181 H 1208.61 -5.75288 -3.0641 0
M  V30 13182 N 1212.04 -0.478751 -1.50152 0
M  V30 13183 C 1213.46 -0.133356 -1.59042 0
M  V30 13184 C 1213.66 1.36069 -1.48618 0
M  V30 13185 O 1212.71 2.13468 -1.34862 0
M  V30 13186 C 1214.03 -0.690369 -2.92668 0
M  V30 13187 C 1215.58 -0.654481 -3.06081 0
M  V30 13188 C 1216.05 -1.18917 -4.42293 0
M  V30 13189 N 1217.54 -1.14891 -4.48725 0
M  V30 13190 C 1218.28 -1.53305 -5.52526 0
M  V30 13191 N 1217.77 -1.99205 -6.63543 0
M  V30 13192 N 1219.57 -1.4486 -5.43113 0
M  V30 13193 H 1211.72 -1.45037 -1.55171 0
M  V30 13194 H 1213.98 -0.600254 -0.733757 0
M  V30 13195 H 1213.69 -1.7373 -3.05795 0
M  V30 13196 H 1213.56 -0.138227 -3.76947 0
M  V30 13197 H 1215.95 0.383564 -2.92597 0
M  V30 13198 H 1216.03 -1.24352 -2.2354 0
M  V30 13199 H 1215.67 -2.22588 -4.56527 0
M  V30 13200 H 1215.6 -0.57628 -5.23437 0
M  V30 13201 H 1218.09 -0.812344 -3.69066 0
M  V30 13202 H 1218.41 -2.26645 -7.38818 0
M  V30 13203 H 1216.75 -2.03164 -6.64642 0
M  V30 13204 H 1219.94 -1.08836 -4.55272 0
M  V30 13205 H 1220.11 -1.75123 -6.23888 0
M  V30 13206 N 1213.52 1.56172 -0.211661 0
M  V30 13207 C 1214.47 2.21206 0.719063 0
M  V30 13208 C 1215.46 1.18835 1.20725 0
M  V30 13209 O 1216.67 1.36939 1.16823 0
M  V30 13210 H 1213.04 0.709129 0.250279 0
M  V30 13211 H 1215.01 2.98038 0.147022 0
M  V30 13212 C 1213.76 2.89826 1.92084 0
M  V30 13213 H 1213.09 3.68351 1.55428 0
M  V30 13214 H 1214.53 3.38744 2.55006 0
M  V30 13215 C 1212.99 1.91756 2.77004 0
M  V30 13216 O 1213.52 1.42826 3.75451 0
M  V30 13217 N 1211.72 1.59622 2.42836 0
M  V30 13218 H 1211.27 1.99606 1.62835 0
M  V30 13219 H 1211.23 0.942641 2.99936 0
M  V30 13220 N 1215 -0.0618163 1.57479 0
M  V30 13221 C 1216.24 -0.764296 1.89573 0
M  V30 13222 C 1216.6 -1.74235 0.806605 0
M  V30 13223 O 1217.8 -2.49067 1.0109 0
M  V30 13224 C 1216.07 -1.44503 3.26885 0
M  V30 13225 S 1217.63 -2.1812 3.80748 0
M  V30 13226 H 1214.45 -0.253946 0.664103 0
M  V30 13227 H 1217.05 -0.0200064 1.9549 0
M  V30 13228 H 1215.76 -0.719525 4.04043 0
M  V30 13229 H 1215.29 -2.22855 3.2419 0
M  V30 13230 H 1217.3 -3.44793 3.56837 0
M  V30 13231 N 1216.48 -1.54033 -0.333429 0
M  V30 13232 C 1217.44 -1.82021 -1.39288 0
M  V30 13233 C 1218.44 -0.691623 -1.45166 0
M  V30 13234 O 1219.63 -0.959925 -1.45365 0
M  V30 13235 C 1216.76 -1.97136 -2.78119 0
M  V30 13236 H 1217.95 -2.76671 -1.1573 0
M  V30 13237 H 1215.51 -1.45599 -0.568376 0
M  V30 13238 H 1216.24 -1.04663 -3.06946 0
M  V30 13239 H 1216.03 -2.79251 -2.75247 0
M  V30 13240 H 1217.52 -2.20271 -3.54782 0
M  V30 13241 N 1217.95 0.594978 -1.45938 0
M  V30 13242 C 1218.92 1.68688 -1.55168 0
M  V30 13243 C 1219.92 1.54945 -0.429951 0
M  V30 13244 O 1221.11 1.59785 -0.693859 0
M  V30 13245 C 1218.24 3.0804 -1.46027 0
M  V30 13246 H 1219.43 1.61866 -2.52467 0
M  V30 13247 H 1216.99 0.811785 -1.33565 0
M  V30 13248 H 1217.72 3.20428 -0.499614 0
M  V30 13249 H 1217.51 3.19423 -2.27401 0
M  V30 13250 H 1219 3.8755 -1.55546 0
M  V30 13251 N 1219.43 1.33438 0.838571 0
M  V30 13252 C 1220.66 1.27766 1.62356 0
M  V30 13253 C 1221.07 -0.15359 1.88576 0
M  V30 13254 O 1220.41 -1.10626 1.46654 0
M  V30 13255 C 1220.48 1.98435 2.99773 0
M  V30 13256 C 1220.14 3.47741 2.96522 0
M  V30 13257 C 1221.14 4.42938 2.72217 0
M  V30 13258 C 1218.82 3.89922 3.16648 0
M  V30 13259 C 1220.82 5.7829 2.68066 0
M  V30 13260 C 1218.5 5.25378 3.12123 0
M  V30 13261 C 1219.5 6.19374 2.87863 0
M  V30 13262 O 1219.19 7.52349 2.83242 0
M  V30 13263 H 1218.92 0.441527 0.511889 0
M  V30 13264 H 1221.47 1.76377 1.05262 0
M  V30 13265 H 1219.7 1.44415 3.58721 0
M  V30 13266 H 1221.39 1.86258 3.60642 0
M  V30 13267 H 1222.16 4.11673 2.56418 0
M  V30 13268 H 1218.04 3.17169 3.34552 0
M  V30 13269 H 1221.58 6.51629 2.4905 0
M  V30 13270 H 1217.48 5.56267 3.27471 0
M  V30 13271 H 1218.25 7.61901 2.99082 0
M  V30 13272 N 1220.91 -1.05686 1.16912 0
M  V30 13273 C 1221.84 -2.15268 0.904532 0
M  V30 13274 C 1222.82 -1.69424 -0.151548 0
M  V30 13275 O 1224.01 -1.942 -0.00235371 0
M  V30 13276 C 1221.14 -3.44853 0.411581 0
M  V30 13277 C 1220.09 -4.04237 1.40628 0
M  V30 13278 C 1219.42 -5.29105 0.771479 0
M  V30 13279 C 1220.72 -4.42303 2.77787 0
M  V30 13280 H 1222.41 -2.37659 1.82094 0
M  V30 13281 H 1219.96 -1.14217 0.876947 0
M  V30 13282 H 1221.91 -4.20857 0.213929 0
M  V30 13283 H 1220.63 -3.22099 -0.540352 0
M  V30 13284 H 1219.29 -3.30297 1.59058 0
M  V30 13285 H 1218.94 -5.02652 -0.187133 0
M  V30 13286 H 1218.64 -5.69797 1.43545 0
M  V30 13287 H 1220.16 -6.07801 0.583988 0
M  V30 13288 H 1221.58 -5.09362 2.63103 0
M  V30 13289 H 1219.98 -4.93997 3.40716 0
M  V30 13290 H 1221.05 -3.52877 3.32575 0
M  V30 13291 N 1222.39 -0.968567 -1.24324 0
M  V30 13292 C 1223.34 -0.498817 -2.25345 0
M  V30 13293 C 1224.31 0.456082 -1.59716 0
M  V30 13294 O 1225.49 0.366254 -1.87252 0
M  V30 13295 C 1222.63 0.204027 -3.44496 0
M  V30 13296 C 1221.74 -0.789741 -4.2472 0
M  V30 13297 C 1220.88 -0.0629156 -5.31163 0
M  V30 13298 C 1219.92 -1.04669 -6.03084 0
M  V30 13299 N 1219.05 -0.349812 -7.01228 0
M  V30 13300 H 1223.89 -1.36511 -2.64894 0
M  V30 13301 H 1221.43 -0.684288 -1.30215 0
M  V30 13302 H 1223.39 0.628223 -4.12443 0
M  V30 13303 H 1222.02 1.03426 -3.05782 0
M  V30 13304 H 1221.07 -1.33237 -3.56303 0
M  V30 13305 H 1222.38 -1.53988 -4.74436 0
M  V30 13306 H 1221.54 0.419233 -6.0525 0
M  V30 13307 H 1220.28 0.719915 -4.82357 0
M  V30 13308 H 1219.28 -1.53971 -5.278 0
M  V30 13309 H 1220.51 -1.82998 -6.53979 0
M  V30 13310 H 1218.45 0.414026 -6.54692 0
M  V30 13311 H 1218.37 -1.03881 -7.48829 0
M  V30 13312 H 1219.64 0.11034 -7.79422 0
M  V30 13313 N 1223.87 1.39211 -0.738786 0
M  V30 13314 C 1224.8 2.33209 -0.11647 0
M  V30 13315 C 1225.78 1.54108 0.720056 0
M  V30 13316 O 1226.96 1.82486 0.664264 0
M  V30 13317 C 1224.09 3.38226 0.78872 0
M  V30 13318 C 1223.05 4.27963 0.0560636 0
M  V30 13319 C 1222.37 5.2371 1.07852 0
M  V30 13320 C 1223.67 5.10508 -1.1036 0
M  V30 13321 H 1225.37 2.85501 -0.901649 0
M  V30 13322 H 1222.91 1.37272 -0.435032 0
M  V30 13323 H 1224.87 4.02938 1.23364 0
M  V30 13324 H 1223.59 2.84382 1.60606 0
M  V30 13325 H 1222.25 3.64735 -0.369274 0
M  V30 13326 H 1221.9 4.66161 1.88953 0
M  V30 13327 H 1221.6 5.846 0.593048 0
M  V30 13328 H 1223.12 5.91299 1.52307 0
M  V30 13329 H 1224.53 5.68544 -0.736943 0
M  V30 13330 H 1222.93 5.80558 -1.51895 0
M  V30 13331 H 1224 4.45117 -1.92352 0
M  V30 13332 N 1225.34 0.486708 1.49896 0
M  V30 13333 C 1226.76 0.141788 1.58969 0
M  V30 13334 C 1226.96 -1.35279 1.49338 0
M  V30 13335 O 1226.02 -2.1275 1.35992 0
M  V30 13336 C 1227.33 0.70588 2.92297 0
M  V30 13337 C 1228.88 0.670704 3.0573 0
M  V30 13338 C 1229.35 1.21261 4.41656 0
M  V30 13339 N 1230.84 1.17269 4.4811 0
M  V30 13340 C 1231.58 1.56233 5.51705 0
M  V30 13341 N 1231.07 2.02721 6.62477 0
M  V30 13342 N 1232.87 1.47738 5.42337 0
M  V30 13343 H 1225.02 1.45858 1.544 0
M  V30 13344 H 1227.28 0.604137 0.730563 0
M  V30 13345 H 1226.99 1.7535 3.04869 0
M  V30 13346 H 1226.86 0.158215 3.76868 0
M  V30 13347 H 1229.25 -0.368041 2.92796 0
M  V30 13348 H 1229.33 1.25535 2.22878 0
M  V30 13349 H 1228.97 2.25006 4.5534 0
M  V30 13350 H 1228.9 0.604031 5.23124 0
M  V30 13351 H 1231.39 0.831905 3.6863 0
M  V30 13352 H 1231.71 2.3056 7.37606 0
M  V30 13353 H 1230.05 2.06686 6.63556 0
M  V30 13354 H 1233.24 1.11249 4.54688 0
M  V30 13355 H 1233.42 1.78429 6.2295 0
M  V30 13356 N 1226.82 -1.56058 0.219941 0
M  V30 13357 C 1227.77 -2.21585 -0.707321 0
M  V30 13358 C 1228.77 -1.19473 -1.20094 0
M  V30 13359 O 1229.97 -1.37557 -1.16095 0
M  V30 13360 H 1226.35 -0.710447 -0.246515 0
M  V30 13361 H 1228.32 -2.98111 -0.131214 0
M  V30 13362 C 1227.07 -2.90841 -1.90544 0
M  V30 13363 H 1226.39 -3.6917 -1.53472 0
M  V30 13364 H 1227.83 -3.40092 -2.53206 0
M  V30 13365 C 1226.29 -1.93223 -2.75983 0
M  V30 13366 O 1226.82 -1.44815 -3.74689 0
M  V30 13367 N 1225.02 -1.60907 -2.41986 0
M  V30 13368 H 1224.57 -2.00467 -1.61774 0
M  V30 13369 H 1224.53 -0.958534 -2.99432 0
M  V30 13370 N 1228.3 0.053464 -1.57509 0
M  V30 13371 C 1229.55 0.744867 -1.8927 0
M  V30 13372 C 1229.9 1.74249 -0.815791 0
M  V30 13373 O 1229.2 1.9077 0.178187 0
M  V30 13374 C 1229.39 1.47666 -3.25468 0
M  V30 13375 C 1229.22 0.551427 -4.46306 0
M  V30 13376 C 1227.99 0.181517 -5.04974 0
M  V30 13377 C 1230.19 -0.159765 -5.14052 0
M  V30 13378 N 1228.17 -0.747526 -6.09332 0
M  V30 13379 C 1229.54 -0.94533 -6.12751 0
M  V30 13380 C 1231.59 -0.2293 -4.97372 0
M  V30 13381 C 1230.3 -1.794 -6.96569 0
M  V30 13382 C 1232.32 -1.065 -5.81732 0
M  V30 13383 C 1231.69 -1.83856 -6.79983 0
M  V30 13384 H 1227.78 0.247424 -0.741826 0
M  V30 13385 H 1230.37 0.00570542 -1.94699 0
M  V30 13386 H 1228.54 2.18643 -3.21014 0
M  V30 13387 H 1230.27 2.11852 -3.4482 0
M  V30 13388 H 1227.03 0.538408 -4.7053 0
M  V30 13389 H 1227.45 -1.20583 -6.66175 0
M  V30 13390 H 1232.09 0.354441 -4.21312 0
M  V30 13391 H 1229.81 -2.38864 -7.71991 0
M  V30 13392 H 1233.4 -1.12202 -5.70878 0
M  V30 13393 H 1232.28 -2.47479 -7.44126 0
M  V30 13394 N 1229.78 1.54207 0.325255 0
M  V30 13395 C 1230.71 1.79812 1.42128 0
M  V30 13396 C 1231.72 0.68003 1.47917 0
M  V30 13397 O 1232.91 0.957107 1.50671 0
M  V30 13398 C 1230.01 1.89935 2.80674 0
M  V30 13399 C 1229.19 3.20078 2.98108 0
M  V30 13400 C 1228.25 3.20924 4.17006 0
M  V30 13401 O 1227.27 3.94571 4.10247 0
M  V30 13402 N 1228.47 2.44588 5.26457 0
M  V30 13403 H 1231.24 2.74396 1.20527 0
M  V30 13404 H 1228.8 1.53483 0.515233 0
M  V30 13405 H 1230.79 1.8793 3.58419 0
M  V30 13406 H 1229.36 1.02455 2.95333 0
M  V30 13407 H 1228.58 3.35057 2.07679 0
M  V30 13408 H 1229.87 4.06008 3.06651 0
M  V30 13409 H 1229.27 1.8434 5.34823 0
M  V30 13410 H 1227.82 2.48363 6.02627 0
M  V30 13411 N 1231.26 -0.58723 1.46251 0
M  V30 13412 C 1232.5 -1.34549 1.52539 0
M  V30 13413 C 1232.86 -1.91622 0.172885 0
M  V30 13414 O 1232.15 -1.73267 -0.81787 0
M  V30 13415 C 1232.35 -2.49776 2.5563 0
M  V30 13416 C 1232.17 -2.03991 4.00772 0
M  V30 13417 C 1230.94 -1.89216 4.68535 0
M  V30 13418 C 1233.14 -1.60227 4.88704 0
M  V30 13419 N 1231.12 -1.37454 5.98314 0
M  V30 13420 C 1232.5 -1.20024 6.08271 0
M  V30 13421 C 1234.55 -1.48004 4.75394 0
M  V30 13422 C 1233.25 -0.688163 7.16001 0
M  V30 13423 C 1235.28 -0.981991 5.8319 0
M  V30 13424 C 1234.64 -0.589721 7.01927 0
M  V30 13425 H 1230.74 -0.485499 0.613037 0
M  V30 13426 H 1233.32 -0.669117 1.82841 0
M  V30 13427 H 1231.5 -3.14983 2.27245 0
M  V30 13428 H 1233.23 -3.16715 2.5194 0
M  V30 13429 H 1229.98 -2.11025 4.23988 0
M  V30 13430 H 1230.41 -1.13748 6.67376 0
M  V30 13431 H 1235.05 -1.76951 3.8399 0
M  V30 13432 H 1232.77 -0.386268 8.07176 0
M  V30 13433 H 1236.35 -0.891387 5.74931 0
M  V30 13434 H 1235.23 -0.210279 7.83918 0
M  V30 13435 N 1232.74 -1.33881 -0.831482 0
M  V30 13436 C 1233.98 -1.26951 -1.58918 0
M  V30 13437 C 1234.34 0.161359 -1.91722 0
M  V30 13438 O 1233.63 1.1054 -1.56498 0
M  V30 13439 C 1233.82 -2.08544 -2.90249 0
M  V30 13440 C 1233.65 -3.5942 -2.70273 0
M  V30 13441 C 1232.42 -4.28718 -2.67449 0
M  V30 13442 C 1234.62 -4.53599 -2.42388 0
M  V30 13443 N 1232.6 -5.65496 -2.38929 0
M  V30 13444 C 1233.97 -5.7832 -2.23485 0
M  V30 13445 C 1236.03 -4.42605 -2.28046 0
M  V30 13446 C 1234.73 -6.93286 -1.91695 0
M  V30 13447 C 1236.76 -5.57395 -1.97649 0
M  V30 13448 C 1236.12 -6.81129 -1.79563 0
M  V30 13449 H 1232.22 -0.519762 -0.58427 0
M  V30 13450 H 1234.8 -1.68502 -0.97546 0
M  V30 13451 H 1232.97 -1.69302 -3.49559 0
M  V30 13452 H 1234.71 -1.93325 -3.55538 0
M  V30 13453 H 1231.46 -3.81068 -2.81219 0
M  V30 13454 H 1231.88 -6.37619 -2.27532 0
M  V30 13455 H 1236.53 -3.47571 -2.40737 0
M  V30 13456 H 1234.24 -7.88311 -1.7774 0
M  V30 13457 H 1237.83 -5.50828 -1.87296 0
M  V30 13458 H 1236.71 -7.68449 -1.56382 0
M  V30 13459 N 1234.21 1.05064 -1.1747 0
M  V30 13460 C 1235.63 1.30256 -0.922248 0
M  V30 13461 C 1235.83 1.97119 0.417896 0
M  V30 13462 O 1234.89 2.24557 1.15457 0
M  V30 13463 C 1236.2 2.17109 -2.08049 0
M  V30 13464 C 1237.75 2.30487 -2.11766 0
M  V30 13465 C 1238.22 3.20701 -3.26979 0
M  V30 13466 N 1239.71 3.28287 -3.26775 0
M  V30 13467 C 1240.45 3.98218 -4.12565 0
M  V30 13468 N 1239.94 4.70567 -5.08467 0
M  V30 13469 N 1241.74 3.94395 -4.00511 0
M  V30 13470 H 1233.89 0.600653 -2.0373 0
M  V30 13471 H 1236.15 0.327475 -0.889643 0
M  V30 13472 H 1235.86 1.75273 -3.04914 0
M  V30 13473 H 1235.73 3.1775 -2.03261 0
M  V30 13474 H 1238.12 2.71564 -1.15486 0
M  V30 13475 H 1238.2 1.29471 -2.20615 0
M  V30 13476 H 1237.84 2.80337 -4.23525 0
M  V30 13477 H 1237.77 4.21725 -3.15366 0
M  V30 13478 H 1240.26 2.76739 -2.5734 0
M  V30 13479 H 1240.58 5.21492 -5.70321 0
M  V30 13480 H 1238.92 4.69505 -5.12436 0
M  V30 13481 H 1242.11 3.37 -3.24882 0
M  V30 13482 H 1242.29 4.48626 -4.67588 0
M  V30 13483 N 1235.69 0.975146 1.23809 0
M  V30 13484 C 1236.62 0.530389 2.27396 0
M  V30 13485 C 1237.6 -0.433763 1.64476 0
M  V30 13486 O 1238.79 -0.32827 1.91405 0
M  V30 13487 C 1235.92 -0.173066 3.46869 0
M  V30 13488 C 1234.87 0.707844 4.22106 0
M  V30 13489 C 1234.2 -0.127527 5.34548 0
M  V30 13490 C 1235.5 1.99609 4.82652 0
M  V30 13491 H 1237.19 1.39622 2.64851 0
M  V30 13492 H 1234.74 0.672802 1.27316 0
M  V30 13493 H 1236.69 -0.495481 4.18477 0
M  V30 13494 H 1235.41 -1.0733 3.0846 0
M  V30 13495 H 1234.07 1.01364 3.52308 0
M  V30 13496 H 1233.72 -1.02814 4.9238 0
M  V30 13497 H 1233.42 0.458728 5.85807 0
M  V30 13498 H 1234.95 -0.444443 6.0898 0
M  V30 13499 H 1236.36 1.73878 5.46296 0
M  V30 13500 H 1234.76 2.52969 5.44175 0
M  V30 13501 H 1235.83 2.68629 4.03691 0
M  V30 13502 N 1237.17 -1.38817 0.746158 0
M  V30 13503 C 1238.42 -2.0028 0.299016 0
M  V30 13504 C 1238.74 -1.59221 -1.11709 0
M  V30 13505 O 1238 -0.817595 -1.77803 0
M  V30 13506 C 1238.3 -3.55571 0.361086 0
M  V30 13507 C 1237.96 -4.16317 1.73179 0
M  V30 13508 C 1236.63 -4.32622 2.10693 0
M  V30 13509 C 1238.98 -4.49905 2.63126 0
M  V30 13510 C 1236.31 -4.79808 3.3764 0
M  V30 13511 C 1238.66 -4.98504 3.89457 0
M  V30 13512 C 1237.32 -5.13016 4.27049 0
M  V30 13513 H 1236.59 -0.732877 0.109418 0
M  V30 13514 H 1239.24 -1.65977 0.955186 0
M  V30 13515 H 1237.54 -3.89966 -0.378655 0
M  V30 13516 H 1239.24 -4.01 -0.00319228 0
M  V30 13517 H 1235.83 -4.04035 1.43015 0
M  V30 13518 H 1240.02 -4.36916 2.3541 0
M  V30 13519 H 1235.27 -4.89229 3.66695 0
M  V30 13520 H 1239.45 -5.23464 4.59302 0
M  V30 13521 H 1237.07 -5.4934 5.25481 0
M  V30 13522 N 1238.65 -0.49465 -1.49636 0
M  V30 13523 C 1239.88 0.0491129 -2.06842 0
M  V30 13524 C 1240.29 1.31395 -1.35576 0
M  V30 13525 O 1239.65 1.7731 -0.432135 0
M  V30 13526 C 1239.7 0.313171 -3.60141 0
M  V30 13527 O 1239.42 -0.90152 -4.28724 0
M  V30 13528 C 1240.92 0.901284 -4.34041 0
M  V30 13529 H 1238.14 -0.0176186 -0.670769 0
M  V30 13530 H 1240.68 -0.690188 -1.92501 0
M  V30 13531 H 1238.84 1.00244 -3.74206 0
M  V30 13532 H 1239.25 -0.660477 -5.20325 0
M  V30 13533 H 1240.73 1.03567 -5.42197 0
M  V30 13534 H 1241.2 1.89746 -3.96097 0
M  V30 13535 H 1241.81 0.249677 -4.24566 0
M  V30 13536 N 1240.13 1.55939 -0.228214 0
M  V30 13537 C 1241.07 2.20581 0.679157 0
M  V30 13538 C 1242.04 1.16355 1.18536 0
M  V30 13539 O 1243.23 1.44735 1.24324 0
M  V30 13540 C 1240.37 2.89477 1.87875 0
M  V30 13541 C 1239.48 4.08313 1.41083 0
M  V30 13542 C 1238.62 4.64974 2.56851 0
M  V30 13543 C 1237.65 5.76098 2.06828 0
M  V30 13544 N 1236.79 6.27021 3.15894 0
M  V30 13545 H 1241.63 2.97753 0.121203 0
M  V30 13546 H 1239.17 1.47021 0.0480688 0
M  V30 13547 H 1241.13 3.2761 2.58317 0
M  V30 13548 H 1239.76 2.14811 2.40948 0
M  V30 13549 H 1238.81 3.75621 0.601102 0
M  V30 13550 H 1240.12 4.8859 1.00408 0
M  V30 13551 H 1239.27 5.05584 3.35365 0
M  V30 13552 H 1238.01 3.83875 3.00818 0
M  V30 13553 H 1237.02 5.34984 1.26778 0
M  V30 13554 H 1238.24 6.59037 1.63852 0
M  V30 13555 H 1236.19 5.48833 3.5933 0
M  V30 13556 H 1236.11 7.02439 2.79491 0
M  V30 13557 H 1237.37 6.72289 3.94523 0
M  V30 13558 N 1241.6 -0.0451101 1.57535 0
M  V30 13559 C 1242.85 -0.740209 1.88809 0
M  V30 13560 C 1243.18 -1.75854 0.823956 0
M  V30 13561 O 1242.46 -1.93817 -0.16286 0
M  V30 13562 C 1242.74 -1.42424 3.30737 0
M  V30 13563 C 1242.59 -0.42052 4.4783 0
M  V30 13564 C 1243.91 -2.36241 3.7132 0
M  V30 13565 H 1241.03 -0.267628 0.686691 0
M  V30 13566 H 1243.67 -0.00309149 1.9 0
M  V30 13567 H 1241.82 -2.05254 3.29853 0
M  V30 13568 H 1243.5 0.204625 4.60846 0
M  V30 13569 H 1241.74 0.261739 4.3301 0
M  V30 13570 H 1242.41 -0.937298 5.43984 0
M  V30 13571 H 1244.89 -1.83468 3.73468 0
M  V30 13572 H 1243.76 -2.81091 4.71465 0
M  V30 13573 H 1244.02 -3.2222 3.02699 0
M  V30 13574 N 1243.08 -1.54377 -0.317073 0
M  V30 13575 C 1244.03 -1.84214 -1.39046 0
M  V30 13576 C 1245 -0.689742 -1.51102 0
M  V30 13577 O 1246.18 -0.936809 -1.66218 0
M  V30 13578 C 1243.32 -2.08087 -2.75307 0
M  V30 13579 C 1242.44 -3.35756 -2.7183 0
M  V30 13580 C 1241.57 -3.49556 -3.9998 0
M  V30 13581 C 1240.61 -4.71076 -3.90837 0
M  V30 13582 N 1239.75 -4.81767 -5.10729 0
M  V30 13583 H 1244.59 -2.75785 -1.12902 0
M  V30 13584 H 1242.13 -1.36575 -0.546404 0
M  V30 13585 H 1244.08 -2.19921 -3.54529 0
M  V30 13586 H 1242.71 -1.19801 -2.99746 0
M  V30 13587 H 1241.77 -3.32627 -1.84563 0
M  V30 13588 H 1243.08 -4.2509 -2.60959 0
M  V30 13589 H 1242.23 -3.60967 -4.87635 0
M  V30 13590 H 1240.97 -2.58326 -4.13665 0
M  V30 13591 H 1239.98 -4.59715 -3.01566 0
M  V30 13592 H 1241.2 -5.63698 -3.78711 0
M  V30 13593 H 1239.15 -3.93455 -5.24908 0
M  V30 13594 H 1239.06 -5.65077 -5.02219 0
M  V30 13595 H 1240.33 -4.97517 -6.00081 0
M  V30 13596 N 1244.56 0.579466 -1.4656 0
M  V30 13597 C 1245.97 1.1616 -1.46164 0
M  V30 13598 C 1246.32 1.95134 -0.20423 0
M  V30 13599 O 1245.45 2.05022 0.692457 0
M  V30 13600 C 1246.04 2.11322 -2.64818 0
M  V30 13601 C 1244.6 2.64852 -2.67452 0
M  V30 13602 C 1243.75 1.40786 -2.38903 0
M  V30 13603 H 1246.7 0.367229 -1.54393 0
M  V30 13604 H 1246.72 2.94839 -2.4052 0
M  V30 13605 H 1246.23 1.53815 -3.56318 0
M  V30 13606 H 1244.33 3.26219 -1.80032 0
M  V30 13607 H 1244.45 3.07366 -3.67509 0
M  V30 13608 H 1242.81 1.70707 -1.89027 0
M  V30 13609 H 1243.59 0.851049 -3.32584 0
M  V30 13610 N 1246.04 1.3432 0.824371 0
M  V30 13611 C 1246.97 1.2842 1.95014 0
M  V30 13612 C 1247.95 0.161925 1.69328 0
M  V30 13613 O 1249.13 0.354052 1.90945 0
M  V30 13614 C 1246.26 1.03741 3.31444 0
M  V30 13615 C 1245.22 2.12419 3.71567 0
M  V30 13616 C 1244.54 1.72931 5.05963 0
M  V30 13617 C 1245.84 3.54235 3.83817 0
M  V30 13618 H 1247.54 2.22614 2.00209 0
M  V30 13619 H 1245.08 1.07165 0.961856 0
M  V30 13620 H 1247.04 0.982586 4.09784 0
M  V30 13621 H 1245.76 0.0598892 3.26545 0
M  V30 13622 H 1244.42 2.16968 2.955 0
M  V30 13623 H 1244.07 0.738433 4.9755 0
M  V30 13624 H 1243.77 2.45668 5.3378 0
M  V30 13625 H 1245.29 1.68941 5.86763 0
M  V30 13626 H 1246.71 3.52106 4.52432 0
M  V30 13627 H 1245.1 4.25581 4.23085 0
M  V30 13628 H 1246.17 3.91682 2.85856 0
M  V30 13629 N 1247.52 -1.0444 1.18026 0
M  V30 13630 C 1248.45 -2.14297 0.927314 0
M  V30 13631 C 1249.43 -1.69575 -0.13357 0
M  V30 13632 O 1250.61 -1.94191 0.0182439 0
M  V30 13633 C 1247.74 -3.44397 0.448134 0
M  V30 13634 C 1246.7 -4.02723 1.44907 0
M  V30 13635 C 1246.02 -5.28257 0.827555 0
M  V30 13636 C 1247.32 -4.39331 2.82463 0
M  V30 13637 H 1249.02 -2.35715 1.84605 0
M  V30 13638 H 1246.56 -1.13281 0.889012 0
M  V30 13639 H 1248.52 -4.20606 0.258554 0
M  V30 13640 H 1247.24 -3.22654 -0.506159 0
M  V30 13641 H 1245.9 -3.28591 1.62552 0
M  V30 13642 H 1245.55 -5.02822 -0.13381 0
M  V30 13643 H 1245.25 -5.68242 1.49581 0
M  V30 13644 H 1246.77 -6.07147 0.64842 0
M  V30 13645 H 1248.18 -5.06543 2.68491 0
M  V30 13646 H 1246.58 -4.90355 3.45936 0
M  V30 13647 H 1247.65 -3.4933 3.36299 0
M  V30 13648 N 1248.99 -0.981699 -1.2329 0
M  V30 13649 C 1249.93 -0.481042 -2.24095 0
M  V30 13650 C 1250.94 0.417818 -1.57347 0
M  V30 13651 O 1252.13 0.221746 -1.77117 0
M  V30 13652 C 1249.23 0.323324 -3.37354 0
M  V30 13653 C 1248.4 -0.568975 -4.33684 0
M  V30 13654 C 1247.46 0.181761 -5.25886 0
M  V30 13655 O 1246.49 -0.429059 -5.67581 0
M  V30 13656 N 1247.69 1.46737 -5.61648 0
M  V30 13657 H 1250.45 -1.34781 -2.67683 0
M  V30 13658 H 1248.01 -0.855117 -1.37475 0
M  V30 13659 H 1250.01 0.833934 -3.96015 0
M  V30 13660 H 1248.58 1.09111 -2.9294 0
M  V30 13661 H 1247.8 -1.2604 -3.73507 0
M  V30 13662 H 1249.08 -1.17704 -4.94998 0
M  V30 13663 H 1248.48 1.98513 -5.29725 0
M  V30 13664 H 1247.04 1.92339 -6.22775 0
M  V30 13665 N 1250.47 1.3842 -0.753509 0
M  V30 13666 C 1251.72 2.00415 -0.310091 0
M  V30 13667 C 1252.05 1.59675 1.10532 0
M  V30 13668 O 1251.33 0.834261 1.757 0
M  V30 13669 C 1251.61 3.57488 -0.432897 0
M  V30 13670 C 1251.46 4.08193 -1.88941 0
M  V30 13671 C 1252.78 4.39757 0.173763 0
M  V30 13672 H 1249.9 0.728107 -0.114147 0
M  V30 13673 H 1252.54 1.64363 -0.953138 0
M  V30 13674 H 1250.69 3.88331 0.114563 0
M  V30 13675 H 1252.36 3.87993 -2.49517 0
M  V30 13676 H 1250.61 3.61063 -2.4045 0
M  V30 13677 H 1251.28 5.17291 -1.9265 0
M  V30 13678 H 1253.75 4.15066 -0.293137 0
M  V30 13679 H 1252.63 5.4887 0.057594 0
M  V30 13680 H 1252.89 4.23704 1.26205 0
M  V30 13681 N 1251.95 0.502579 1.49372 0
M  V30 13682 C 1253.18 -0.0381429 2.06865 0
M  V30 13683 C 1253.59 -1.30674 1.36271 0
M  V30 13684 O 1252.95 -1.77078 0.441532 0
M  V30 13685 C 1253 -0.294068 3.60302 0
M  V30 13686 O 1252.72 0.924244 4.2824 0
M  V30 13687 C 1254.22 -0.878253 4.34513 0
M  V30 13688 H 1251.44 0.0211756 0.670666 0
M  V30 13689 H 1253.99 0.700387 1.92132 0
M  V30 13690 H 1252.14 -0.982583 3.74732 0
M  V30 13691 H 1252.56 0.688062 5.19967 0
M  V30 13692 H 1254.03 -1.0069 5.42739 0
M  V30 13693 H 1254.51 -1.87643 3.97098 0
M  V30 13694 H 1255.11 -0.227157 4.24693 0
M  V30 13695 N 1253.43 -1.55816 0.23648 0
M  V30 13696 C 1254.84 -1.59159 -0.118601 0
M  V30 13697 C 1255.04 -1.25352 -1.57763 0
M  V30 13698 O 1254.1 -0.995863 -2.32032 0
M  V30 13699 C 1255.41 -2.99885 0.221175 0
M  V30 13700 C 1256.96 -3.12567 0.164624 0
M  V30 13701 C 1257.44 -4.55496 0.478285 0
M  V30 13702 N 1258.93 -4.61215 0.428402 0
M  V30 13703 C 1259.66 -5.69768 0.644398 0
M  V30 13704 N 1259.16 -6.86624 0.922966 0
M  V30 13705 N 1260.95 -5.59143 0.575814 0
M  V30 13706 H 1253.1 -1.76063 1.18809 0
M  V30 13707 H 1255.37 -0.819079 0.477297 0
M  V30 13708 H 1255.07 -3.29326 1.2344 0
M  V30 13709 H 1254.95 -3.74425 -0.456723 0
M  V30 13710 H 1257.33 -2.82914 -0.839263 0
M  V30 13711 H 1257.41 -2.40325 0.876219 0
M  V30 13712 H 1257.06 -4.85868 1.47968 0
M  V30 13713 H 1256.99 -5.25984 -0.254671 0
M  V30 13714 H 1259.48 -3.77251 0.221398 0
M  V30 13715 H 1259.79 -7.6528 1.07548 0
M  V30 13716 H 1258.14 -6.88333 0.960325 0
M  V30 13717 H 1261.33 -4.66727 0.358307 0
M  V30 13718 H 1261.5 -6.43674 0.747548 0
M  V30 13719 N 1254.91 0.036755 -1.57557 0
M  V30 13720 C 1255.84 1.06718 -2.0284 0
M  V30 13721 C 1256.85 1.32926 -0.939917 0
M  V30 13722 O 1258.04 1.30549 -1.21734 0
M  V30 13723 C 1255.14 2.41054 -2.38214 0
M  V30 13724 C 1254.31 2.3431 -3.69347 0
M  V30 13725 C 1253.37 3.51034 -3.91997 0
M  V30 13726 O 1252.4 3.30875 -4.63152 0
M  V30 13727 N 1253.6 4.72634 -3.37042 0
M  V30 13728 H 1256.37 0.681275 -2.91854 0
M  V30 13729 H 1253.93 0.224836 -1.60331 0
M  V30 13730 H 1255.92 3.17847 -2.5051 0
M  V30 13731 H 1254.49 2.71517 -1.5491 0
M  V30 13732 H 1253.71 1.42668 -3.67477 0
M  V30 13733 H 1255 2.2694 -4.55385 0
M  V30 13734 H 1254.39 4.91914 -2.79352 0
M  V30 13735 H 1252.95 5.46818 -3.5473 0
M  V30 13736 N 1256.39 1.54543 0.308881 0
M  V30 13737 C 1257.3 1.87994 1.4034 0
M  V30 13738 C 1258.31 0.773294 1.55872 0
M  V30 13739 O 1259.49 1.069 1.70688 0
M  V30 13740 C 1256.55 2.11341 2.74838 0
M  V30 13741 C 1255.61 3.35086 2.68358 0
M  V30 13742 C 1254.85 3.5731 3.96441 0
M  V30 13743 O 1255.07 2.82692 4.9542 0
M  V30 13744 O 1254 4.50814 3.98811 0
M  V30 13745 H 1257.83 2.81094 1.14976 0
M  V30 13746 H 1255.41 1.40634 0.504236 0
M  V30 13747 H 1257.3 2.27943 3.54429 0
M  V30 13748 H 1255.97 1.21427 3.00062 0
M  V30 13749 H 1254.88 3.23855 1.87267 0
M  V30 13750 H 1256.21 4.25104 2.48087 0
M  V30 13751 N 1257.86 -0.571685 1.46866 0
M  V30 13752 C 1258.77 -1.70758 1.60869 0
M  V30 13753 C 1259.79 -1.66903 0.49186 0
M  V30 13754 O 1260.97 -1.86613 0.757468 0
M  V30 13755 C 1258.03 -3.07267 1.60586 0
M  V30 13756 C 1257.09 -3.22301 2.83585 0
M  V30 13757 C 1256.32 -4.52298 2.83306 0
M  V30 13758 O 1256.55 -5.36869 1.92685 0
M  V30 13759 O 1255.48 -4.70814 3.7499 0
M  V30 13760 H 1259.31 -1.6189 2.56954 0
M  V30 13761 H 1256.89 -0.740018 1.29785 0
M  V30 13762 H 1258.77 -3.8853 1.63163 0
M  V30 13763 H 1257.45 -3.16549 0.676637 0
M  V30 13764 H 1256.36 -2.4049 2.86558 0
M  V30 13765 H 1257.69 -3.17916 3.75753 0
M  V30 13766 N 1259.34 -1.34755 -0.817236 0
M  V30 13767 C 1260.25 -1.28888 -1.96023 0
M  V30 13768 C 1261.27 -0.195582 -1.72897 0
M  V30 13769 O 1262.44 -0.423071 -1.96906 0
M  V30 13770 C 1259.51 -1.04985 -3.30423 0
M  V30 13771 C 1258.57 -2.23526 -3.66517 0
M  V30 13772 C 1257.8 -2.00753 -4.94504 0
M  V30 13773 O 1258.03 -0.968622 -5.62116 0
M  V30 13774 O 1256.96 -2.87848 -5.28608 0
M  V30 13775 H 1260.79 -2.25059 -2.03917 0
M  V30 13776 H 1258.37 -1.15019 -0.953467 0
M  V30 13777 H 1260.25 -0.934589 -4.10906 0
M  V30 13778 H 1258.93 -0.118582 -3.23483 0
M  V30 13779 H 1257.83 -2.40613 -2.86455 0
M  V30 13780 H 1259.17 -3.15062 -3.78149 0
M  V30 13781 N 1260.82 1.03812 -1.18578 0
M  V30 13782 C 1261.75 2.11436 -0.858502 0
M  V30 13783 C 1262.73 1.61594 0.180604 0
M  V30 13784 O 1263.91 1.88408 0.058995 0
M  V30 13785 C 1261.04 3.37514 -0.283154 0
M  V30 13786 C 1260.09 4.0621 -1.29985 0
M  V30 13787 S 1260.92 4.52936 -2.85673 0
M  V30 13788 C 1262.08 5.82245 -2.29656 0
M  V30 13789 H 1262.31 2.38871 -1.76997 0
M  V30 13790 H 1259.84 1.16617 -1.01192 0
M  V30 13791 H 1261.8 4.10478 0.0422898 0
M  V30 13792 H 1260.46 3.08189 0.60647 0
M  V30 13793 H 1259.65 4.96845 -0.84621 0
M  V30 13794 H 1259.26 3.39374 -1.57166 0
M  V30 13795 H 1261.55 6.56321 -1.68074 0
M  V30 13796 H 1262.49 6.32375 -3.18602 0
M  V30 13797 H 1262.9 5.37472 -1.72581 0
M  V30 13798 N 1262.3 0.988223 1.22768 0
M  V30 13799 C 1263.23 0.492919 2.23837 0
M  V30 13800 C 1264.24 -0.409467 1.57567 0
M  V30 13801 O 1265.43 -0.21235 1.77232 0
M  V30 13802 C 1262.53 -0.305428 3.37521 0
M  V30 13803 C 1261.7 0.591966 4.33376 0
M  V30 13804 C 1260.76 -0.15387 5.25975 0
M  V30 13805 O 1259.79 0.459153 5.67345 0
M  V30 13806 N 1260.99 -1.43756 5.62418 0
M  V30 13807 H 1263.76 1.36199 2.66965 0
M  V30 13808 H 1261.32 0.862395 1.3702 0
M  V30 13809 H 1263.31 -0.812921 3.96451 0
M  V30 13810 H 1261.88 -1.07556 2.93514 0
M  V30 13811 H 1261.1 1.28019 3.72833 0
M  V30 13812 H 1262.39 1.20327 4.94367 0
M  V30 13813 H 1261.79 -1.95701 5.30771 0
M  V30 13814 H 1260.34 -1.89034 6.23786 0
M  V30 13815 N 1263.78 -1.38018 0.760839 0
M  V30 13816 C 1264.74 -2.28734 0.146154 0
M  V30 13817 C 1265.74 -1.47525 -0.639768 0
M  V30 13818 O 1266.93 -1.6788 -0.464964 0
M  V30 13819 C 1264.06 -3.31356 -0.801019 0
M  V30 13820 H 1265.25 -2.84599 0.945692 0
M  V30 13821 H 1262.81 -1.471 0.528323 0
M  V30 13822 H 1263.54 -2.80594 -1.62597 0
M  V30 13823 H 1263.33 -3.91366 -0.239775 0
M  V30 13824 H 1264.82 -3.99171 -1.22687 0
M  V30 13825 N 1265.25 -0.510493 -1.49103 0
M  V30 13826 C 1266.2 0.262848 -2.29298 0
M  V30 13827 C 1267.17 0.951714 -1.36131 0
M  V30 13828 O 1268.36 0.956534 -1.65091 0
M  V30 13829 C 1265.5 1.31565 -3.19037 0
M  V30 13830 C 1264.61 0.637598 -4.27269 0
M  V30 13831 C 1263.74 1.67165 -5.04212 0
M  V30 13832 C 1262.78 0.975992 -6.04269 0
M  V30 13833 N 1261.92 1.95468 -6.74342 0
M  V30 13834 H 1266.76 -0.427246 -2.94921 0
M  V30 13835 H 1264.3 -0.222538 -1.45407 0
M  V30 13836 H 1266.25 1.93813 -3.69449 0
M  V30 13837 H 1264.88 1.97438 -2.55379 0
M  V30 13838 H 1263.94 -0.0983863 -3.80273 0
M  V30 13839 H 1265.25 0.0904435 -4.98718 0
M  V30 13840 H 1264.4 2.36893 -5.5854 0
M  V30 13841 H 1263.14 2.25267 -4.32557 0
M  V30 13842 H 1262.15 0.264534 -5.49163 0
M  V30 13843 H 1263.37 0.40134 -6.77913 0
M  V30 13844 H 1261.32 2.52515 -6.05452 0
M  V30 13845 H 1261.23 1.45845 -7.41799 0
M  V30 13846 H 1262.5 2.64455 -7.33269 0
M  V30 13847 N 1266.73 1.55688 -0.24474 0
M  V30 13848 C 1267.64 2.24933 0.666519 0
M  V30 13849 C 1268.66 1.26471 1.19503 0
M  V30 13850 O 1269.83 1.59342 1.23176 0
M  V30 13851 C 1266.9 2.9336 1.84772 0
M  V30 13852 C 1265.96 4.07225 1.35889 0
M  V30 13853 C 1265.19 4.72381 2.48379 0
M  V30 13854 O 1265.42 4.36605 3.67059 0
M  V30 13855 O 1264.35 5.60933 2.18261 0
M  V30 13856 H 1268.18 3.03513 0.106507 0
M  V30 13857 H 1265.76 1.49394 -0.0133309 0
M  V30 13858 H 1267.64 3.36468 2.53708 0
M  V30 13859 H 1266.32 2.17721 2.39539 0
M  V30 13860 H 1265.22 3.68639 0.636881 0
M  V30 13861 H 1266.56 4.84676 0.857333 0
M  V30 13862 N 1268.21 -0.0283989 1.57574 0
M  V30 13863 C 1269.49 -0.754527 1.80461 0
M  V30 13864 C 1269.87 -1.93539 0.842966 0
M  V30 13865 O 1269.21 -2.28212 -0.114714 0
M  V30 13866 C 1269.42 -1.18694 3.28196 0
M  V30 13867 C 1270.77 -1.60257 3.93196 0
M  V30 13868 O 1271.8 -1.2815 3.32349 0
M  V30 13869 O 1270.66 -2.19853 5.00327 0
M  V30 13870 H 1267.75 -0.364936 0.742126 0
M  V30 13871 H 1270.3 -0.00512589 1.69699 0
M  V30 13872 H 1269.07 -0.34398 3.89785 0
M  V30 13873 H 1268.69 -1.99633 3.43849 0
M  V30 13874 N 1269.69 -1.54705 -0.300681 0
M  V30 13875 C 1270.6 -1.88736 -1.39341 0
M  V30 13876 C 1271.61 -0.78155 -1.5546 0
M  V30 13877 O 1272.79 -1.07804 -1.70118 0
M  V30 13878 C 1269.85 -2.12795 -2.73713 0
M  V30 13879 C 1268.92 -3.36504 -2.66577 0
M  V30 13880 C 1268.15 -3.59407 -3.94541 0
M  V30 13881 O 1268.37 -2.85315 -4.93914 0
M  V30 13882 O 1267.31 -4.52923 -3.96415 0
M  V30 13883 H 1271.13 -2.817 -1.13484 0
M  V30 13884 H 1268.72 -1.40899 -0.496771 0
M  V30 13885 H 1270.6 -2.29819 -3.53215 0
M  V30 13886 H 1269.27 -1.23017 -2.99414 0
M  V30 13887 H 1268.18 -3.24844 -1.85546 0
M  V30 13888 H 1269.51 -4.26414 -2.45829 0
M  V30 13889 N 1271.17 0.563888 -1.47167 0
M  V30 13890 C 1272.1 1.68137 -1.62025 0
M  V30 13891 C 1273.08 1.63481 -0.469899 0
M  V30 13892 O 1274.26 1.81206 -0.698432 0
M  V30 13893 C 1271.39 3.06779 -1.62801 0
M  V30 13894 C 1270.35 3.26278 -2.76996 0
M  V30 13895 C 1269.67 4.65638 -2.62841 0
M  V30 13896 C 1270.97 3.12295 -4.18651 0
M  V30 13897 H 1272.67 1.55958 -2.55573 0
M  V30 13898 H 1270.21 0.74887 -1.22996 0
M  V30 13899 H 1272.17 3.84795 -1.71787 0
M  V30 13900 H 1270.89 3.19901 -0.658097 0
M  V30 13901 H 1269.55 2.50668 -2.67509 0
M  V30 13902 H 1269.2 4.75551 -1.63892 0
M  V30 13903 H 1268.9 4.79635 -3.39447 0
M  V30 13904 H 1270.42 5.45798 -2.73746 0
M  V30 13905 H 1271.83 3.80136 -4.2915 0
M  V30 13906 H 1270.23 3.37805 -4.95992 0
M  V30 13907 H 1271.3 2.09126 -4.37486 0
M  V30 13908 N 1272.64 1.35187 0.810078 0
M  V30 13909 C 1273.58 1.23673 1.92971 0
M  V30 13910 C 1274.59 0.160819 1.62004 0
M  V30 13911 O 1275.78 0.413793 1.73638 0
M  V30 13912 C 1272.88 0.880887 3.27252 0
M  V30 13913 C 1272.05 2.05444 3.86149 0
M  V30 13914 C 1271.11 1.67494 4.98831 0
M  V30 13915 O 1270.14 2.39322 5.16443 0
M  V30 13916 N 1271.34 0.596539 5.77427 0
M  V30 13917 H 1274.1 2.20133 2.03376 0
M  V30 13918 H 1271.66 1.2831 0.987322 0
M  V30 13919 H 1273.66 0.608556 4.00098 0
M  V30 13920 H 1272.23 0.00607926 3.12599 0
M  V30 13921 H 1271.45 2.49077 3.05539 0
M  V30 13922 H 1272.73 2.83898 4.22231 0
M  V30 13923 H 1272.13 -0.000312591 5.657 0
M  V30 13924 H 1270.69 0.383979 6.50668 0
M  V30 13925 N 1274.12 -1.03182 1.19127 0
M  V30 13926 C 1275.07 -2.11394 0.926339 0
M  V30 13927 C 1276.04 -1.65528 -0.137703 0
M  V30 13928 O 1277.22 -1.908 0.00381804 0
M  V30 13929 C 1274.36 -3.41913 0.467894 0
M  V30 13930 C 1273.48 -4.01343 1.59837 0
M  V30 13931 C 1272.61 -5.1986 1.09175 0
M  V30 13932 C 1271.65 -5.71339 2.19632 0
M  V30 13933 N 1270.79 -6.81133 1.703 0
M  V30 13934 H 1275.63 -2.33393 1.85288 0
M  V30 13935 H 1273.17 -1.14473 0.923811 0
M  V30 13936 H 1275.12 -4.16796 0.183513 0
M  V30 13937 H 1273.75 -3.20034 -0.421656 0
M  V30 13938 H 1272.81 -3.23702 1.99803 0
M  V30 13939 H 1274.12 -4.35568 2.43068 0
M  V30 13940 H 1273.27 -6.0189 0.762427 0
M  V30 13941 H 1272.01 -4.87161 0.22914 0
M  V30 13942 H 1271.02 -4.87923 2.53399 0
M  V30 13943 H 1272.24 -6.06078 3.06344 0
M  V30 13944 H 1270.19 -6.50293 0.863415 0
M  V30 13945 H 1270.1 -7.1447 2.47122 0
M  V30 13946 H 1271.37 -7.66766 1.40321 0
M  V30 13947 N 1275.6 -0.99472 -1.22242 0
M  V30 13948 C 1276.83 -0.690097 -1.95052 0
M  V30 13949 C 1277.24 0.745543 -1.73456 0
M  V30 13950 O 1276.6 1.50329 -1.03477 0
M  V30 13951 C 1276.65 -0.988798 -3.47714 0
M  V30 13952 O 1276.37 -2.36803 -3.68587 0
M  V30 13953 C 1277.87 -0.702132 -4.37704 0
M  V30 13954 H 1275.09 -0.255142 -0.620599 0
M  V30 13955 H 1277.64 -1.32998 -1.55344 0
M  V30 13956 H 1275.79 -0.394684 -3.85384 0
M  V30 13957 H 1276.21 -2.4687 -4.62769 0
M  V30 13958 H 1277.68 -0.961389 -5.43564 0
M  V30 13959 H 1278.16 0.363866 -4.3769 0
M  V30 13960 H 1278.76 -1.27738 -4.05664 0
M  V30 13961 N 1277.08 1.37613 -0.768148 0
M  V30 13962 C 1278.03 2.30311 -0.150176 0
M  V30 13963 C 1279 1.50918 0.69376 0
M  V30 13964 O 1280.18 1.795 0.64687 0
M  V30 13965 C 1277.32 3.37382 0.72576 0
M  V30 13966 C 1276.43 4.31791 -0.13439 0
M  V30 13967 C 1275.57 5.25937 0.745915 0
M  V30 13968 C 1274.61 6.11988 -0.116988 0
M  V30 13969 N 1273.74 6.98387 0.721091 0
M  V30 13970 H 1278.58 2.82579 -0.946212 0
M  V30 13971 H 1276.12 1.3911 -0.478217 0
M  V30 13972 H 1278.08 3.98084 1.24839 0
M  V30 13973 H 1276.71 2.86488 1.48743 0
M  V30 13974 H 1275.76 3.72426 -0.774793 0
M  V30 13975 H 1277.07 4.9234 -0.800163 0
M  V30 13976 H 1276.23 5.91826 1.33516 0
M  V30 13977 H 1274.97 4.6579 1.44538 0
M  V30 13978 H 1273.97 5.45081 -0.7188 0
M  V30 13979 H 1275.2 6.74207 -0.813732 0
M  V30 13980 H 1273.14 6.40772 1.40524 0
M  V30 13981 H 1273.06 7.55916 0.112536 0
M  V30 13982 H 1274.33 7.6867 1.29485 0
M  V30 13983 N 1278.56 0.518393 1.4883 0
M  V30 13984 C 1279.47 -0.254811 2.33212 0
M  V30 13985 C 1280.48 -0.950401 1.45751 0
M  V30 13986 O 1281.66 -0.927932 1.78749 0
M  V30 13987 C 1278.72 -1.29509 3.21603 0
M  V30 13988 C 1277.78 -0.611086 4.24928 0
M  V30 13989 C 1277.02 -1.6018 5.09095 0
M  V30 13990 O 1277.24 -2.83336 4.95052 0
M  V30 13991 O 1276.17 -1.14756 5.90859 0
M  V30 13992 H 1280 0.436329 3.00549 0
M  V30 13993 H 1277.59 0.27947 1.46763 0
M  V30 13994 H 1279.47 -1.89654 3.7631 0
M  V30 13995 H 1278.14 -1.96884 2.5694 0
M  V30 13996 H 1277.05 0.0305638 3.74088 0
M  V30 13997 H 1278.38 0.0205249 4.92196 0
M  V30 13998 N 1280.03 -1.55556 0.252993 0
M  V30 13999 C 1281.45 -1.59276 -0.101714 0
M  V30 14000 C 1281.65 -1.27018 -1.56424 0
M  V30 14001 O 1280.71 -1.02042 -2.30963 0
M  V30 14002 C 1282.02 -2.99634 0.252969 0
M  V30 14003 C 1283.57 -3.12375 0.197767 0
M  V30 14004 C 1284.04 -4.54963 0.52657 0
M  V30 14005 N 1285.53 -4.60734 0.477296 0
M  V30 14006 C 1286.27 -5.69052 0.704793 0
M  V30 14007 N 1285.76 -6.85607 0.99574 0
M  V30 14008 N 1287.56 -5.58501 0.635086 0
M  V30 14009 H 1279.71 -1.74793 1.2067 0
M  V30 14010 H 1281.97 -0.813971 0.485958 0
M  V30 14011 H 1281.68 -3.27998 1.26926 0
M  V30 14012 H 1281.55 -3.74888 -0.416984 0
M  V30 14013 H 1283.94 -2.83788 -0.809209 0
M  V30 14014 H 1284.02 -2.39382 0.901659 0
M  V30 14015 H 1283.66 -4.84271 1.53113 0
M  V30 14016 H 1283.59 -5.26224 -0.198869 0
M  V30 14017 H 1286.08 -3.76995 0.261398 0
M  V30 14018 H 1286.4 -7.64096 1.15659 0
M  V30 14019 H 1284.74 -6.87276 1.03328 0
M  V30 14020 H 1287.93 -4.6632 0.407789 0
M  V30 14021 H 1288.11 -6.42845 0.815777 0
M  V30 14022 N 1281.51 0.0200419 -1.57587 0
M  V30 14023 C 1282.44 1.0456 -2.0396 0
M  V30 14024 C 1283.46 1.31922 -0.953962 0
M  V30 14025 O 1284.65 1.2925 -1.23112 0
M  V30 14026 C 1281.75 2.38514 -2.40758 0
M  V30 14027 C 1280.92 2.3038 -3.71812 0
M  V30 14028 C 1279.98 3.46856 -3.95698 0
M  V30 14029 O 1279 3.25944 -4.66636 0
M  V30 14030 N 1280.21 4.69033 -3.42036 0
M  V30 14031 H 1282.97 0.650282 -2.9256 0
M  V30 14032 H 1280.53 0.207818 -1.60561 0
M  V30 14033 H 1282.52 3.15172 -2.53868 0
M  V30 14034 H 1281.09 2.69859 -1.57781 0
M  V30 14035 H 1280.31 1.38762 -3.6897 0
M  V30 14036 H 1281.6 2.22097 -4.57767 0
M  V30 14037 H 1281 4.88923 -2.84553 0
M  V30 14038 H 1279.56 5.43025 -3.6051 0
M  V30 14039 N 1282.99 1.54862 0.292472 0
M  V30 14040 C 1283.92 1.82786 1.38282 0
M  V30 14041 C 1284.94 0.711253 1.46441 0
M  V30 14042 O 1286.12 0.988851 1.48607 0
M  V30 14043 C 1283.22 1.95845 2.76582 0
M  V30 14044 C 1282.4 3.2633 2.91252 0
M  V30 14045 C 1281.46 3.29697 4.10105 0
M  V30 14046 O 1280.48 4.03184 4.01785 0
M  V30 14047 N 1281.68 2.557 5.21151 0
M  V30 14048 H 1284.45 2.76891 1.1468 0
M  V30 14049 H 1282.01 1.54541 0.482561 0
M  V30 14050 H 1284 1.95491 3.54352 0
M  V30 14051 H 1282.57 1.08696 2.93094 0
M  V30 14052 H 1281.79 3.39387 2.00525 0
M  V30 14053 H 1283.08 4.12421 2.9797 0
M  V30 14054 H 1282.48 1.95642 5.30792 0
M  V30 14055 H 1281.04 2.61089 5.97223 0
M  V30 14056 N 1284.47 -0.556076 1.47464 0
M  V30 14057 C 1285.42 -1.66304 1.60036 0
M  V30 14058 C 1286.39 -1.60074 0.443348 0
M  V30 14059 O 1287.57 -1.7889 0.663545 0
M  V30 14060 C 1284.71 -3.04624 1.62167 0
M  V30 14061 C 1283.82 -3.21283 2.88793 0
M  V30 14062 C 1282.96 -4.50008 2.82252 0
M  V30 14063 C 1282 -4.60103 4.03698 0
M  V30 14064 N 1281.13 -5.80184 3.95387 0
M  V30 14065 H 1285.97 -1.54897 2.5458 0
M  V30 14066 H 1283.51 -0.754533 1.26274 0
M  V30 14067 H 1285.47 -3.84721 1.61386 0
M  V30 14068 H 1284.1 -3.14865 0.711348 0
M  V30 14069 H 1283.15 -2.34611 2.99436 0
M  V30 14070 H 1284.46 -3.24607 3.78724 0
M  V30 14071 H 1283.62 -5.38366 2.79726 0
M  V30 14072 H 1282.36 -4.49165 1.90005 0
M  V30 14073 H 1281.36 -3.70157 4.06527 0
M  V30 14074 H 1282.59 -4.62704 4.97073 0
M  V30 14075 H 1280.53 -5.80288 3.05944 0
M  V30 14076 H 1280.45 -5.8489 4.78998 0
M  V30 14077 H 1281.72 -6.709 3.96879 0
M  V30 14078 N 1285.95 -1.35615 -0.802897 0
M  V30 14079 C 1286.91 -1.28705 -1.89651 0
M  V30 14080 C 1287.91 -0.197681 -1.5958 0
M  V30 14081 O 1289.1 -0.451618 -1.68244 0
M  V30 14082 C 1286.23 -0.991941 -3.26149 0
M  V30 14083 H 1287.43 -2.25951 -1.97196 0
M  V30 14084 H 1284.98 -1.20192 -0.999179 0
M  V30 14085 H 1285.71 -0.0235051 -3.24291 0
M  V30 14086 H 1285.5 -1.78013 -3.49362 0
M  V30 14087 H 1286.99 -0.969298 -4.06195 0
M  V30 14088 N 1287.43 1.02549 -1.19673 0
M  V30 14089 C 1288.34 2.14373 -0.952972 0
M  V30 14090 C 1289.35 1.73776 0.0881727 0
M  V30 14091 O 1290.53 2.01165 -0.0972471 0
M  V30 14092 C 1287.59 3.43096 -0.498569 0
M  V30 14093 C 1286.65 3.97987 -1.60951 0
M  V30 14094 C 1285.89 5.20567 -1.17669 0
M  V30 14095 O 1286.11 5.70385 -0.0416636 0
M  V30 14096 O 1285.04 5.6838 -1.98059 0
M  V30 14097 H 1288.87 2.378 -1.88904 0
M  V30 14098 H 1286.45 1.12781 -0.979836 0
M  V30 14099 H 1288.34 4.20634 -0.253968 0
M  V30 14100 H 1287.01 3.21105 0.409018 0
M  V30 14101 H 1285.92 3.21768 -1.90829 0
M  V30 14102 H 1287.25 4.24349 -2.49377 0
M  V30 14103 N 1288.9 1.00119 1.21713 0
M  V30 14104 C 1289.85 0.551452 2.25969 0
M  V30 14105 C 1290.85 -0.402075 1.64559 0
M  V30 14106 O 1292.05 -0.273685 1.77907 0
M  V30 14107 H 1288.43 0.159968 0.734789 0
M  V30 14108 H 1290.4 1.44201 2.61244 0
M  V30 14109 C 1289.15 -0.109992 3.47526 0
M  V30 14110 H 1288.47 0.614686 3.95046 0
M  V30 14111 H 1289.91 -0.388007 4.22221 0
M  V30 14112 C 1288.37 -1.34798 3.08757 0
M  V30 14113 O 1288.9 -2.44266 3.189 0
M  V30 14114 N 1287.1 -1.2263 2.63458 0
M  V30 14115 H 1286.65 -0.335571 2.55405 0
M  V30 14116 H 1286.61 -2.05565 2.37887 0
M  V30 14117 N 1290.38 -1.37203 0.775435 0
M  V30 14118 C 1291.29 -2.34019 0.165062 0
M  V30 14119 C 1292.31 -1.6036 -0.675316 0
M  V30 14120 O 1293.48 -1.9243 -0.594375 0
M  V30 14121 C 1290.55 -3.3954 -0.700957 0
M  V30 14122 C 1289.61 -4.29015 0.156304 0
M  V30 14123 C 1288.84 -5.29497 -0.668476 0
M  V30 14124 O 1289.07 -5.37636 -1.90535 0
M  V30 14125 O 1288 -6.01852 -0.0757351 0
M  V30 14126 H 1291.83 -2.87955 0.965184 0
M  V30 14127 H 1289.41 -1.39429 0.536654 0
M  V30 14128 H 1291.29 -4.04094 -1.19524 0
M  V30 14129 H 1289.97 -2.87926 -1.4792 0
M  V30 14130 H 1288.87 -3.67549 0.69703 0
M  V30 14131 H 1290.21 -4.83944 0.897725 0
M  V30 14132 N 1291.86 -0.526279 -1.48553 0
M  V30 14133 C 1292.79 0.227364 -2.3239 0
M  V30 14134 C 1293.77 0.93862 -1.41859 0
M  V30 14135 O 1294.96 0.925119 -1.70749 0
M  V30 14136 C 1292.09 1.277 -3.22971 0
M  V30 14137 C 1291.04 0.684107 -4.22497 0
M  V30 14138 C 1290.37 1.83612 -5.02186 0
M  V30 14139 C 1291.67 -0.341723 -5.21181 0
M  V30 14140 H 1293.36 -0.472486 -2.95648 0
M  V30 14141 H 1290.91 -0.228669 -1.42173 0
M  V30 14142 H 1292.86 1.81215 -3.80446 0
M  V30 14143 H 1291.58 2.00638 -2.57705 0
M  V30 14144 H 1290.24 0.170505 -3.66203 0
M  V30 14145 H 1289.89 2.55379 -4.33348 0
M  V30 14146 H 1289.59 1.44536 -5.69547 0
M  V30 14147 H 1291.11 2.37513 -5.62512 0
M  V30 14148 H 1292.53 0.106207 -5.73202 0
M  V30 14149 H 1290.92 -0.649673 -5.96573 0
M  V30 14150 H 1291.99 -1.2488 -4.68543 0
M  V30 14151 N 1293.34 1.5542 -0.261239 0
M  V30 14152 C 1294.28 2.21972 0.632216 0
M  V30 14153 C 1295.25 1.18843 1.16041 0
M  V30 14154 O 1296.44 1.47339 1.21226 0
M  V30 14155 C 1293.58 2.93397 1.81693 0
M  V30 14156 C 1292.69 4.11214 1.3239 0
M  V30 14157 C 1291.83 4.70318 2.46931 0
M  V30 14158 C 1290.87 5.80355 1.94561 0
M  V30 14159 N 1290 6.33581 3.02523 0
M  V30 14160 H 1294.84 2.97944 0.058018 0
M  V30 14161 H 1292.38 1.4709 0.0168725 0
M  V30 14162 H 1294.34 3.33015 2.5131 0
M  V30 14163 H 1292.97 2.19874 2.36337 0
M  V30 14164 H 1292.02 3.76811 0.521292 0
M  V30 14165 H 1293.33 4.90609 0.900214 0
M  V30 14166 H 1292.49 5.12584 3.24565 0
M  V30 14167 H 1291.23 3.90169 2.92608 0
M  V30 14168 H 1290.23 5.37552 1.15402 0
M  V30 14169 H 1291.46 6.62364 1.49836 0
M  V30 14170 H 1289.4 5.56332 3.47608 0
M  V30 14171 H 1289.32 7.08209 2.64529 0
M  V30 14172 H 1290.59 6.80506 3.80174 0
M  V30 14173 N 1294.82 -0.0116844 1.57596 0
M  V30 14174 C 1295.73 -1.02342 2.111 0
M  V30 14175 C 1296.74 -1.38478 1.05355 0
M  V30 14176 O 1297.92 -1.47447 1.37191 0
M  V30 14177 C 1294.98 -2.30016 2.5941 0
M  V30 14178 C 1294.04 -2.003 3.79708 0
M  V30 14179 C 1293.28 -3.21888 4.25704 0
M  V30 14180 O 1293.5 -4.33171 3.71106 0
M  V30 14181 O 1292.43 -3.0657 5.17975 0
M  V30 14182 H 1296.26 -0.598637 2.97742 0
M  V30 14183 H 1293.84 -0.229779 1.47622 0
M  V30 14184 H 1295.73 -3.05044 2.90733 0
M  V30 14185 H 1294.4 -2.71755 1.75871 0
M  V30 14186 H 1293.31 -1.22785 3.53376 0
M  V30 14187 H 1294.64 -1.63406 4.64284 0
M  V30 14188 N 1296.29 -1.55015 -0.284256 0
M  V30 14189 C 1297.22 -1.90128 -1.3555 0
M  V30 14190 C 1298.2 -0.761914 -1.52082 0
M  V30 14191 O 1299.39 -1.01909 -1.65312 0
M  V30 14192 C 1296.52 -2.16332 -2.71695 0
M  V30 14193 C 1295.47 -3.32166 -2.69907 0
M  V30 14194 C 1294.8 -3.43824 -4.09498 0
M  V30 14195 C 1296.1 -4.6885 -2.30168 0
M  V30 14196 H 1297.79 -2.79852 -1.06411 0
M  V30 14197 H 1295.34 -1.34649 -0.510451 0
M  V30 14198 H 1297.29 -2.39482 -3.46737 0
M  V30 14199 H 1296.02 -1.23395 -3.02392 0
M  V30 14200 H 1294.68 -3.08965 -1.97322 0
M  V30 14201 H 1294.32 -2.48375 -4.374 0
M  V30 14202 H 1294.02 -4.21698 -4.092 0
M  V30 14203 H 1295.55 -3.69254 -4.86296 0
M  V30 14204 H 1296.96 -4.91619 -2.9493 0
M  V30 14205 H 1295.36 -5.49558 -2.41052 0
M  V30 14206 H 1296.43 -4.68433 -1.25294 0
M  V30 14207 N 1297.77 0.548248 -1.47757 0
M  V30 14208 C 1298.68 1.68178 -1.63565 0
M  V30 14209 C 1299.7 1.661 -0.518351 0
M  V30 14210 O 1300.87 1.85384 -0.787061 0
M  V30 14211 C 1297.94 3.04673 -1.65454 0
M  V30 14212 C 1297 3.17749 -2.88677 0
M  V30 14213 C 1296.23 4.47733 -2.90466 0
M  V30 14214 O 1296.46 5.33736 -2.01201 0
M  V30 14215 O 1295.39 4.64789 -3.82433 0
M  V30 14216 H 1299.22 1.57781 -2.59497 0
M  V30 14217 H 1296.8 0.719277 -1.30946 0
M  V30 14218 H 1298.68 3.85885 -1.69324 0
M  V30 14219 H 1297.36 3.15433 -0.726912 0
M  V30 14220 H 1296.26 2.359 -2.90348 0
M  V30 14221 H 1297.6 3.11897 -3.80763 0
M  V30 14222 N 1299.25 1.36039 0.795694 0
M  V30 14223 C 1300.18 1.25713 1.91648 0
M  V30 14224 C 1301.19 0.177993 1.61824 0
M  V30 14225 O 1302.38 0.432186 1.73189 0
M  V30 14226 C 1299.48 0.915546 3.26299 0
M  V30 14227 C 1298.66 2.09528 3.83949 0
M  V30 14228 C 1297.72 1.72775 4.97026 0
M  V30 14229 O 1296.74 2.44786 5.13876 0
M  V30 14230 N 1297.94 0.65775 5.76762 0
M  V30 14231 H 1300.71 2.22277 2.01029 0
M  V30 14232 H 1298.27 1.2935 0.973657 0
M  V30 14233 H 1300.26 0.650958 3.9943 0
M  V30 14234 H 1298.83 0.0392343 3.12575 0
M  V30 14235 H 1298.05 2.52304 3.0288 0
M  V30 14236 H 1299.34 2.88361 4.19196 0
M  V30 14237 H 1298.74 0.0596875 5.65669 0
M  V30 14238 H 1297.29 0.45297 6.50224 0
M  V30 14239 N 1300.73 -1.01913 1.20215 0
M  V30 14240 C 1301.68 -2.104 0.948708 0
M  V30 14241 C 1302.65 -1.65665 -0.120139 0
M  V30 14242 O 1303.83 -1.90785 0.0240547 0
M  V30 14243 C 1300.97 -3.41398 0.504132 0
M  V30 14244 C 1300.08 -3.99625 1.64085 0
M  V30 14245 C 1299.22 -5.18673 1.14683 0
M  V30 14246 C 1298.26 -5.68977 2.2568 0
M  V30 14247 N 1297.39 -6.79289 1.77514 0
M  V30 14248 H 1302.23 -2.31415 1.87753 0
M  V30 14249 H 1299.77 -1.13487 0.935901 0
M  V30 14250 H 1301.73 -4.16578 0.22771 0
M  V30 14251 H 1300.36 -3.20463 -0.387689 0
M  V30 14252 H 1299.41 -3.21565 2.03225 0
M  V30 14253 H 1300.72 -4.32965 2.47674 0
M  V30 14254 H 1299.88 -6.01048 0.826223 0
M  V30 14255 H 1298.62 -4.86891 0.280797 0
M  V30 14256 H 1297.62 -4.85208 2.5856 0
M  V30 14257 H 1298.85 -6.02794 3.12755 0
M  V30 14258 H 1296.79 -6.49341 0.932338 0
M  V30 14259 H 1296.71 -7.11808 2.54686 0
M  V30 14260 H 1297.98 -7.65235 1.48446 0
M  V30 14261 N 1302.21 -1.00763 -1.2118 0
M  V30 14262 C 1303.16 -0.541218 -2.21483 0
M  V30 14263 C 1304.14 0.398597 -1.55885 0
M  V30 14264 O 1305.33 0.22302 -1.75589 0
M  V30 14265 C 1302.46 0.128145 -3.43061 0
M  V30 14266 C 1301.55 -0.832845 -4.15842 0
M  V30 14267 N 1301.94 -1.98673 -4.65148 0
M  V30 14268 C 1300.24 -0.651779 -4.41212 0
M  V30 14269 C 1300.94 -2.59112 -5.20803 0
M  V30 14270 N 1299.91 -1.87249 -5.10332 0
M  V30 14271 H 1303.72 -1.42105 -2.57262 0
M  V30 14272 H 1301.23 -0.871796 -1.37016 0
M  V30 14273 H 1303.23 0.479771 -4.1413 0
M  V30 14274 H 1301.89 1.00392 -3.0879 0
M  V30 14275 H 1302.9 -2.36701 -4.60644 0
M  V30 14276 H 1299.57 0.1767 -4.17126 0
M  V30 14277 H 1300.96 -3.56713 -5.69391 0
M  V30 14278 N 1303.68 1.3679 -0.7827 0
M  V30 14279 C 1304.91 2.04206 -0.362571 0
M  V30 14280 C 1305.33 1.58637 1.01074 0
M  V30 14281 O 1304.69 0.751692 1.64983 0
M  V30 14282 C 1304.74 3.58062 -0.4271 0
M  V30 14283 O 1303.84 4.08463 0.56845 0
M  V30 14284 H 1303.19 0.645638 -0.155073 0
M  V30 14285 H 1305.72 1.74883 -1.06194 0
M  V30 14286 H 1305.73 4.0698 -0.288298 0
M  V30 14287 H 1304.4 3.90582 -1.42893 0
M  V30 14288 H 1302.98 3.70835 0.391863 0
M  V30 14289 N 1305.16 0.53415 1.48272 0
M  V30 14290 C 1306.09 -0.263508 2.2768 0
M  V30 14291 C 1307.11 -0.90064 1.35618 0
M  V30 14292 O 1308.3 -0.778379 1.60635 0
M  V30 14293 C 1305.4 -1.38878 3.09138 0
M  V30 14294 C 1304.57 -0.852784 4.29006 0
M  V30 14295 C 1303.63 -1.85969 4.92242 0
M  V30 14296 O 1302.65 -1.41497 5.51332 0
M  V30 14297 N 1303.86 -3.19207 4.84858 0
M  V30 14298 H 1306.62 0.417548 2.96777 0
M  V30 14299 H 1304.18 0.368743 1.57645 0
M  V30 14300 H 1306.17 -2.06062 3.48311 0
M  V30 14301 H 1304.74 -1.97343 2.42434 0
M  V30 14302 H 1303.96 -0.0048227 3.942 0
M  V30 14303 H 1305.25 -0.473634 5.06591 0
M  V30 14304 H 1304.65 -3.58001 4.38009 0
M  V30 14305 H 1303.21 -3.82013 5.28119 0
M  V30 14306 N 1306.64 -1.55279 0.269478 0
M  V30 14307 C 1307.57 -2.25278 -0.614188 0
M  V30 14308 C 1308.55 -1.24092 -1.1634 0
M  V30 14309 O 1309.74 -1.52799 -1.19858 0
M  V30 14310 C 1306.87 -2.96956 -1.80096 0
M  V30 14311 C 1305.82 -4.05021 -1.38353 0
M  V30 14312 C 1305.15 -4.64244 -2.65295 0
M  V30 14313 C 1306.45 -5.19523 -0.537886 0
M  V30 14314 H 1308.14 -2.99385 -0.0304397 0
M  V30 14315 H 1305.69 -1.43994 -0.0132004 0
M  V30 14316 H 1307.64 -3.44633 -2.42499 0
M  V30 14317 H 1306.36 -2.20374 -2.41045 0
M  V30 14318 H 1305.02 -3.58146 -0.78273 0
M  V30 14319 H 1304.67 -3.84337 -3.2449 0
M  V30 14320 H 1304.37 -5.37208 -2.38079 0
M  V30 14321 H 1305.89 -5.14668 -3.28557 0
M  V30 14322 H 1307.31 -5.63287 -1.06677 0
M  V30 14323 H 1305.71 -5.99014 -0.360845 0
M  V30 14324 H 1306.78 -4.82857 0.444672 0
M  V30 14325 N 1308.12 0.00332656 -1.576 0
M  V30 14326 C 1309.35 0.699945 -1.94701 0
M  V30 14327 C 1309.76 1.67492 -0.871312 0
M  V30 14328 O 1309.12 1.81882 0.150054 0
M  V30 14329 C 1309.17 1.43471 -3.31811 0
M  V30 14330 O 1308.89 0.498835 -4.35251 0
M  V30 14331 C 1310.39 2.22614 -3.83351 0
M  V30 14332 H 1307.61 0.195158 -0.641993 0
M  V30 14333 H 1310.16 -0.0468044 -2.04446 0
M  V30 14334 H 1308.31 2.13311 -3.23384 0
M  V30 14335 H 1308.72 1.01688 -5.14548 0
M  V30 14336 H 1310.2 2.69527 -4.81725 0
M  V30 14337 H 1310.68 3.05146 -3.15883 0
M  V30 14338 H 1311.28 1.57796 -3.94944 0
M  V30 14339 N 1309.6 1.55164 0.276031 0
M  V30 14340 C 1310.51 1.90928 1.36321 0
M  V30 14341 C 1311.52 0.806183 1.54197 0
M  V30 14342 O 1312.7 1.10497 1.68382 0
M  V30 14343 C 1309.76 2.17123 2.70293 0
M  V30 14344 C 1308.82 3.40703 2.6119 0
M  V30 14345 C 1308.06 3.65638 3.88773 0
M  V30 14346 O 1308.28 2.93137 4.89313 0
M  V30 14347 O 1307.21 4.59172 3.89159 0
M  V30 14348 H 1311.04 2.8347 1.08988 0
M  V30 14349 H 1308.63 1.41672 0.474292 0
M  V30 14350 H 1310.51 2.3541 3.49514 0
M  V30 14351 H 1309.18 1.27765 2.97419 0
M  V30 14352 H 1308.09 3.27754 1.80355 0
M  V30 14353 H 1309.42 4.30271 2.39014 0
M  V30 14354 N 1311.07 -0.540404 1.48045 0
M  V30 14355 C 1311.98 -1.67308 1.64455 0
M  V30 14356 C 1313 -1.65823 0.527152 0
M  V30 14357 O 1314.18 -1.84964 0.796881 0
M  V30 14358 C 1311.24 -3.03792 1.67068 0
M  V30 14359 C 1310.3 -3.16213 2.90358 0
M  V30 14360 C 1309.54 -4.46187 2.92837 0
M  V30 14361 O 1309.76 -5.32662 2.04029 0
M  V30 14362 O 1308.69 -4.62754 3.84892 0
M  V30 14363 H 1312.52 -1.56403 2.6033 0
M  V30 14364 H 1310.1 -0.712323 1.31325 0
M  V30 14365 H 1311.99 -3.84982 1.71368 0
M  V30 14366 H 1310.66 -3.15043 0.74363 0
M  V30 14367 H 1309.57 -2.34357 2.91595 0
M  V30 14368 H 1310.9 -3.09874 3.82412 0
M  V30 14369 N 1312.55 -1.36459 -0.788468 0
M  V30 14370 C 1313.5 -1.30863 -1.90115 0
M  V30 14371 C 1314.47 -0.177148 -1.65153 0
M  V30 14372 O 1315.65 -0.363817 -1.87299 0
M  V30 14373 C 1312.79 -1.10473 -3.2694 0
M  V30 14374 C 1311.91 -2.32704 -3.63968 0
M  V30 14375 C 1311.04 -2.05319 -4.89916 0
M  V30 14376 C 1310.08 -3.23506 -5.19625 0
M  V30 14377 N 1309.22 -2.9578 -6.36756 0
M  V30 14378 H 1314.06 -2.26003 -1.94233 0
M  V30 14379 H 1311.6 -1.12324 -0.949827 0
M  V30 14380 H 1313.55 -0.966773 -4.05844 0
M  V30 14381 H 1312.18 -0.189873 -3.22241 0
M  V30 14382 H 1311.24 -2.573 -2.8018 0
M  V30 14383 H 1312.55 -3.20899 -3.81871 0
M  V30 14384 H 1311.7 -1.88459 -5.76687 0
M  V30 14385 H 1310.44 -1.14437 -4.74084 0
M  V30 14386 H 1309.45 -3.40924 -4.31336 0
M  V30 14387 H 1310.67 -4.15216 -5.37376 0
M  V30 14388 H 1308.62 -2.0751 -6.22315 0
M  V30 14389 H 1308.53 -3.77513 -6.54996 0
M  V30 14390 H 1309.8 -2.825 -7.26508 0
M  V30 14391 N 1314.03 1.01274 -1.20754 0
M  V30 14392 C 1314.98 2.12012 -0.95675 0
M  V30 14393 C 1315.97 1.69143 0.0932738 0
M  V30 14394 O 1317.18 1.79908 -0.0574298 0
M  V30 14395 H 1313.55 0.692956 -0.292088 0
M  V30 14396 H 1315.52 2.30347 -1.89692 0
M  V30 14397 C 1314.27 3.43643 -0.529602 0
M  V30 14398 H 1313.6 3.77058 -1.32918 0
M  V30 14399 H 1315.04 4.22171 -0.393376 0
M  V30 14400 C 1313.5 3.2825 0.758505 0
M  V30 14401 O 1314.03 3.58309 1.81598 0
M  V30 14402 N 1312.23 2.81487 0.722022 0
M  V30 14403 H 1311.78 2.57226 -0.138807 0
M  V30 14404 H 1311.74 2.7157 1.58421 0
M  V30 14405 N 1315.51 1.01404 1.20644 0
M  V30 14406 C 1316.44 0.602465 2.25594 0
M  V30 14407 C 1317.42 -0.381216 1.65773 0
M  V30 14408 O 1318.61 -0.267209 1.92353 0
M  V30 14409 C 1315.74 -0.0626245 3.47244 0
M  V30 14410 C 1314.69 0.841776 4.1964 0
M  V30 14411 C 1314.02 0.0426002 5.34683 0
M  V30 14412 C 1315.32 2.14864 4.76058 0
M  V30 14413 H 1317.01 1.47977 2.60275 0
M  V30 14414 H 1314.56 0.712966 1.25111 0
M  V30 14415 H 1316.51 -0.362095 4.19841 0
M  V30 14416 H 1315.23 -0.974627 3.11719 0
M  V30 14417 H 1313.89 1.12521 3.48905 0
M  V30 14418 H 1313.54 -0.870973 4.95402 0
M  V30 14419 H 1313.24 0.644866 5.84051 0
M  V30 14420 H 1314.76 -0.250476 6.10086 0
M  V30 14421 H 1316.18 1.9117 5.40488 0
M  V30 14422 H 1314.57 2.70153 5.35852 0
M  V30 14423 H 1315.64 2.81336 3.9494 0
M  V30 14424 N 1316.99 -1.36373 0.789944 0
M  V30 14425 C 1317.92 -2.32616 0.202944 0
M  V30 14426 C 1318.9 -1.56674 -0.662364 0
M  V30 14427 O 1320.08 -1.84826 -0.596078 0
M  V30 14428 C 1317.21 -3.4092 -0.662646 0
M  V30 14429 C 1316.17 -4.27877 0.102811 0
M  V30 14430 C 1315.49 -5.27352 -0.883407 0
M  V30 14431 C 1316.79 -5.0606 1.29231 0
M  V30 14432 H 1318.49 -2.81958 1.00699 0
M  V30 14433 H 1316.03 -1.35562 0.48568 0
M  V30 14434 H 1317.99 -4.07239 -1.08324 0
M  V30 14435 H 1316.71 -2.90147 -1.4994 0
M  V30 14436 H 1315.37 -3.63114 0.504389 0
M  V30 14437 H 1315.02 -4.72853 -1.71521 0
M  V30 14438 H 1314.72 -5.86398 -0.375669 0
M  V30 14439 H 1316.24 -5.96545 -1.30256 0
M  V30 14440 H 1317.66 -5.65417 0.947446 0
M  V30 14441 H 1316.05 -5.74521 1.73338 0
M  V30 14442 H 1317.12 -4.37671 2.08739 0
M  V30 14443 N 1318.47 -0.542005 -1.47987 0
M  V30 14444 C 1319.4 0.25143 -2.27817 0
M  V30 14445 C 1320.41 0.893436 -1.36094 0
M  V30 14446 O 1321.6 0.769849 -1.61045 0
M  V30 14447 C 1318.7 1.37236 -3.0987 0
M  V30 14448 C 1317.87 0.830021 -4.29452 0
M  V30 14449 C 1316.93 1.83356 -4.93221 0
M  V30 14450 O 1315.96 1.38571 -5.52075 0
M  V30 14451 N 1317.16 3.16631 -4.86544 0
M  V30 14452 H 1319.92 -0.433281 -2.96551 0
M  V30 14453 H 1317.49 -0.377099 -1.57447 0
M  V30 14454 H 1319.48 2.04212 -3.49399 0
M  V30 14455 H 1318.05 1.96055 -2.43478 0
M  V30 14456 H 1317.27 -0.0160827 -3.94197 0
M  V30 14457 H 1318.56 0.446762 -5.06835 0
M  V30 14458 H 1317.95 3.55673 -4.39901 0
M  V30 14459 H 1316.51 3.79207 -5.30137 0
M  V30 14460 N 1319.94 1.55134 -0.277709 0
M  V30 14461 C 1320.85 2.26296 0.618658 0
M  V30 14462 C 1321.87 1.28978 1.16794 0
M  V30 14463 O 1323.05 1.61918 1.19768 0
M  V30 14464 C 1320.11 2.97214 1.78508 0
M  V30 14465 C 1319.17 4.10016 1.27221 0
M  V30 14466 C 1318.4 4.77543 2.38304 0
M  V30 14467 O 1318.63 4.44293 3.57715 0
M  V30 14468 O 1317.56 5.65437 2.06313 0
M  V30 14469 H 1321.39 3.03671 0.0421031 0
M  V30 14470 H 1318.97 1.49332 -0.0450166 0
M  V30 14471 H 1320.85 3.41773 2.46513 0
M  V30 14472 H 1319.53 2.22753 2.34867 0
M  V30 14473 H 1318.44 3.69907 0.558544 0
M  V30 14474 H 1319.77 4.86385 0.754333 0
M  V30 14475 N 1321.42 0.00503138 1.57599 0
M  V30 14476 C 1322.35 -1.01302 2.05598 0
M  V30 14477 C 1323.37 -1.30388 0.974829 0
M  V30 14478 O 1324.56 -1.27275 1.25153 0
M  V30 14479 C 1321.66 -2.34654 2.44522 0
M  V30 14480 C 1320.83 -2.24436 3.7543 0
M  V30 14481 C 1319.89 -3.40517 4.01166 0
M  V30 14482 O 1318.91 -3.18479 4.71762 0
M  V30 14483 N 1320.12 -4.63532 3.49454 0
M  V30 14484 H 1322.88 -0.603656 2.93558 0
M  V30 14485 H 1320.44 -0.182248 1.60871 0
M  V30 14486 H 1322.43 -3.11093 2.5885 0
M  V30 14487 H 1321 -2.67315 1.62055 0
M  V30 14488 H 1320.22 -1.32875 3.71131 0
M  V30 14489 H 1321.51 -2.14786 4.61242 0
M  V30 14490 H 1320.91 -4.84334 2.92296 0
M  V30 14491 H 1319.47 -5.37221 3.69103 0
M  V30 14492 N 1322.9 -1.55308 -0.267798 0
M  V30 14493 C 1323.83 -1.91555 -1.33525 0
M  V30 14494 C 1324.81 -0.778001 -1.51265 0
M  V30 14495 O 1326 -1.03657 -1.64222 0
M  V30 14496 C 1323.13 -2.19201 -2.69385 0
M  V30 14497 C 1322.08 -3.3501 -2.66369 0
M  V30 14498 C 1321.41 -3.48148 -4.05829 0
M  V30 14499 C 1322.71 -4.71265 -2.25182 0
M  V30 14500 H 1324.4 -2.80965 -1.03437 0
M  V30 14501 H 1321.95 -1.35183 -0.496141 0
M  V30 14502 H 1323.9 -2.43146 -3.44177 0
M  V30 14503 H 1322.62 -1.26596 -3.01067 0
M  V30 14504 H 1321.28 -3.11041 -1.94034 0
M  V30 14505 H 1320.93 -2.53 -4.34741 0
M  V30 14506 H 1320.63 -4.26014 -4.04704 0
M  V30 14507 H 1322.15 -3.74391 -4.82352 0
M  V30 14508 H 1323.57 -4.94719 -2.89699 0
M  V30 14509 H 1321.96 -5.52084 -2.3521 0
M  V30 14510 H 1323.03 -4.69735 -1.20319 0
M  V30 14511 N 1324.38 0.532545 -1.4833 0
M  V30 14512 C 1325.31 1.65325 -1.58746 0
M  V30 14513 C 1326.32 1.5581 -0.471925 0
M  V30 14514 O 1327.51 1.62317 -0.742656 0
M  V30 14515 C 1324.61 3.03957 -1.49877 0
M  V30 14516 C 1323.78 3.38979 -2.76427 0
M  V30 14517 C 1322.84 4.56881 -2.61048 0
M  V30 14518 O 1321.87 4.6023 -3.34928 0
M  V30 14519 N 1323.07 5.54898 -1.70496 0
M  V30 14520 H 1325.84 1.56827 -2.55393 0
M  V30 14521 H 1323.4 0.71976 -1.45021 0
M  V30 14522 H 1325.39 3.80702 -1.37288 0
M  V30 14523 H 1323.96 3.06548 -0.612158 0
M  V30 14524 H 1323.18 2.51438 -3.03599 0
M  V30 14525 H 1324.47 3.59163 -3.60388 0
M  V30 14526 H 1323.87 5.54968 -1.0967 0
M  V30 14527 H 1322.42 6.3087 -1.63847 0
M  V30 14528 N 1325.86 1.36875 0.78122 0
M  V30 14529 C 1326.82 1.31706 1.8758 0
M  V30 14530 C 1327.82 0.223044 1.59246 0
M  V30 14531 O 1329.01 0.478327 1.67504 0
M  V30 14532 C 1326.14 1.0437 3.2453 0
M  V30 14533 H 1327.33 2.29059 1.93576 0
M  V30 14534 H 1324.89 1.21766 0.979931 0
M  V30 14535 H 1325.62 0.0750941 3.24213 0
M  V30 14536 H 1325.41 1.83548 3.46486 0
M  V30 14537 H 1326.9 1.0338 4.04602 0
M  V30 14538 N 1327.33 -1.00632 1.21289 0
M  V30 14539 C 1328.24 -2.12829 0.986957 0
M  V30 14540 C 1329.26 -1.73895 -0.0605152 0
M  V30 14541 O 1330.44 -2.00985 0.129238 0
M  V30 14542 C 1327.5 -3.4226 0.553089 0
M  V30 14543 C 1326.56 -3.95376 1.67262 0
M  V30 14544 C 1325.79 -5.18629 1.25936 0
M  V30 14545 O 1326.02 -5.70246 0.132402 0
M  V30 14546 O 1324.95 -5.65157 2.07077 0
M  V30 14547 H 1328.78 -2.34765 1.92663 0
M  V30 14548 H 1326.36 -1.11208 0.997654 0
M  V30 14549 H 1328.24 -4.20177 0.320856 0
M  V30 14550 H 1326.92 -3.21716 -0.357881 0
M  V30 14551 H 1325.83 -3.18692 1.95924 0
M  V30 14552 H 1327.16 -4.20328 2.56097 0
M  V30 14553 N 1328.81 -1.02043 -1.20104 0
M  V30 14554 C 1330.04 -0.731315 -1.93544 0
M  V30 14555 C 1330.45 0.708582 -1.74999 0
M  V30 14556 O 1329.81 1.481 -1.06642 0
M  V30 14557 C 1329.86 -1.06233 -3.45538 0
M  V30 14558 O 1329.58 -2.44568 -3.63481 0
M  V30 14559 C 1331.08 -0.794818 -4.36116 0
M  V30 14560 H 1328.3 -0.268248 -0.615048 0
M  V30 14561 H 1330.85 -1.36264 -1.52488 0
M  V30 14562 H 1329 -0.476341 -3.8446 0
M  V30 14563 H 1329.42 -2.5663 -4.57429 0
M  V30 14564 H 1330.89 -1.07647 -5.41402 0
M  V30 14565 H 1331.37 0.270944 -4.38363 0
M  V30 14566 H 1331.97 -1.36314 -4.02863 0
M  V30 14567 N 1330.29 1.35952 -0.797165 0
M  V30 14568 C 1331.2 2.33726 -0.202271 0
M  V30 14569 C 1332.22 1.61415 0.649719 0
M  V30 14570 O 1333.39 1.93351 0.563686 0
M  V30 14571 C 1330.46 3.40612 0.64685 0
M  V30 14572 C 1329.52 4.28712 -0.224536 0
M  V30 14573 C 1328.75 5.30493 0.584153 0
M  V30 14574 O 1328.97 5.40599 1.81957 0
M  V30 14575 O 1327.91 6.01897 -0.0200239 0
M  V30 14576 H 1331.73 2.86383 -1.01087 0
M  V30 14577 H 1329.32 1.38557 -0.558768 0
M  V30 14578 H 1331.2 4.05944 1.1308 0
M  V30 14579 H 1329.88 2.90243 1.43321 0
M  V30 14580 H 1328.78 3.66394 -0.755415 0
M  V30 14581 H 1330.12 4.82454 -0.974603 0
M  V30 14582 N 1331.77 0.549846 1.47697 0
M  V30 14583 C 1332.7 -0.190364 2.32723 0
M  V30 14584 C 1333.68 -0.915933 1.43334 0
M  V30 14585 O 1334.86 -0.897838 1.72199 0
M  V30 14586 C 1331.99 -1.22545 3.24961 0
M  V30 14587 C 1330.95 -0.616805 4.23532 0
M  V30 14588 C 1330.27 -1.75599 5.05044 0
M  V30 14589 C 1331.57 0.424595 5.20571 0
M  V30 14590 H 1333.27 0.519461 2.94859 0
M  V30 14591 H 1330.81 0.251259 1.41791 0
M  V30 14592 H 1332.77 -1.75139 3.83281 0
M  V30 14593 H 1331.49 -1.96512 2.60865 0
M  V30 14594 H 1330.15 -0.112224 3.66428 0
M  V30 14595 H 1329.8 -2.48453 4.37356 0
M  V30 14596 H 1329.5 -1.35456 5.71774 0
M  V30 14597 H 1331.02 -2.28533 5.6622 0
M  V30 14598 H 1332.44 -0.0150025 5.73298 0
M  V30 14599 H 1330.83 0.7445 5.95464 0
M  V30 14600 H 1331.9 1.32318 4.66497 0
M  V30 14601 N 1333.25 -1.54984 0.285932 0
M  V30 14602 C 1334.48 -2.03943 -0.330295 0
M  V30 14603 C 1334.88 -1.16336 -1.49207 0
M  V30 14604 O 1334.23 -0.178341 -1.82832 0
M  V30 14605 C 1334.29 -3.48976 -0.863479 0
M  V30 14606 C 1333.95 -4.5668 0.171058 0
M  V30 14607 C 1334.95 -5.10303 0.994329 0
M  V30 14608 C 1332.64 -5.01352 0.308416 0
M  V30 14609 C 1334.63 -6.07126 1.94104 0
M  V30 14610 C 1332.32 -5.97999 1.25859 0
M  V30 14611 C 1333.31 -6.50768 2.0734 0
M  V30 14612 O 1333 -7.45524 3.00749 0
M  V30 14613 H 1332.73 -0.671491 -0.0779452 0
M  V30 14614 H 1335.29 -2.01081 0.419011 0
M  V30 14615 H 1333.52 -3.49113 -1.66305 0
M  V30 14616 H 1335.21 -3.81213 -1.39396 0
M  V30 14617 H 1335.97 -4.76595 0.899002 0
M  V30 14618 H 1331.85 -4.59917 -0.315817 0
M  V30 14619 H 1335.4 -6.48239 2.57743 0
M  V30 14620 H 1331.29 -6.31125 1.35469 0
M  V30 14621 H 1332.06 -7.63276 2.95554 0
M  V30 14622 N 1334.72 -0.0133892 -1.57594 0
M  V30 14623 C 1335.69 0.958601 -2.08191 0
M  V30 14624 C 1336.69 1.26408 -0.993865 0
M  V30 14625 O 1337.88 1.20703 -1.25604 0
M  V30 14626 C 1335.01 2.27971 -2.5346 0
M  V30 14627 H 1336.2 0.520686 -2.95345 0
M  V30 14628 H 1333.76 0.234351 -1.54533 0
M  V30 14629 H 1334.49 2.76424 -1.69588 0
M  V30 14630 H 1334.28 2.07116 -3.32935 0
M  V30 14631 H 1335.77 2.97672 -2.92884 0
M  V30 14632 N 1336.2 1.55448 0.259558 0
M  V30 14633 C 1337.11 1.92364 1.34289 0
M  V30 14634 C 1338.13 0.822492 1.53333 0
M  V30 14635 O 1339.3 1.12277 1.672 0
M  V30 14636 C 1336.37 2.19978 2.67975 0
M  V30 14637 C 1335.43 3.43454 2.57562 0
M  V30 14638 C 1334.66 3.69741 3.84873 0
M  V30 14639 O 1334.89 2.9831 4.86176 0
M  V30 14640 O 1333.82 4.63274 3.84267 0
M  V30 14641 H 1337.65 2.8461 1.05975 0
M  V30 14642 H 1335.23 1.42167 0.459239 0
M  V30 14643 H 1337.11 2.39104 3.46998 0
M  V30 14644 H 1335.79 1.30912 2.96047 0
M  V30 14645 H 1334.7 3.29649 1.76869 0
M  V30 14646 H 1336.03 4.32782 2.34437 0
M  V30 14647 N 1337.68 -0.524672 1.4861 0
M  V30 14648 C 1338.64 -1.61092 1.63039 0
M  V30 14649 C 1339.64 -1.52718 0.503387 0
M  V30 14650 O 1340.83 -1.56293 0.769304 0
M  V30 14651 C 1337.97 -3.00722 1.60558 0
M  V30 14652 H 1339.16 -1.49636 2.59902 0
M  V30 14653 H 1336.71 -0.747135 1.37287 0
M  V30 14654 H 1337.45 -3.1768 0.651926 0
M  V30 14655 H 1337.23 -3.0821 2.42382 0
M  V30 14656 H 1338.72 -3.79688 1.73859 0
M  V30 14657 N 1339.16 -1.37287 -0.77395 0
M  V30 14658 C 1340.07 -1.35059 -1.91823 0
M  V30 14659 C 1341.08 -0.250489 -1.72188 0
M  V30 14660 O 1342.26 -0.485501 -1.95461 0
M  V30 14661 C 1339.33 -1.15444 -3.26915 0
M  V30 14662 C 1338.39 -2.35073 -3.5922 0
M  V30 14663 C 1337.62 -2.16384 -4.87867 0
M  V30 14664 O 1337.84 -1.14696 -5.58749 0
M  V30 14665 O 1336.78 -3.0452 -5.19183 0
M  V30 14666 H 1340.6 -2.31432 -1.96654 0
M  V30 14667 H 1338.19 -1.17994 -0.916392 0
M  V30 14668 H 1340.07 -1.06484 -4.07724 0
M  V30 14669 H 1338.74 -0.221435 -3.22942 0
M  V30 14670 H 1337.65 -2.49604 -2.78655 0
M  V30 14671 H 1338.98 -3.26933 -3.67934 0
M  V30 14672 N 1340.64 0.999871 -1.21821 0
M  V30 14673 C 1341.55 2.12303 -0.99823 0
M  V30 14674 C 1342.56 1.73924 0.0512923 0
M  V30 14675 O 1343.74 2.00914 -0.139895 0
M  V30 14676 C 1340.8 3.41962 -0.571232 0
M  V30 14677 C 1339.86 3.94483 -1.69356 0
M  V30 14678 C 1339.1 5.17954 -1.28685 0
M  V30 14679 O 1339.32 5.70168 -0.162641 0
M  V30 14680 O 1338.25 5.64051 -2.10071 0
M  V30 14681 H 1342.08 2.3374 -1.93905 0
M  V30 14682 H 1339.67 1.10677 -1.00354 0
M  V30 14683 H 1341.55 4.20001 -0.343134 0
M  V30 14684 H 1340.22 3.21901 0.340814 0
M  V30 14685 H 1339.13 3.17648 -1.97612 0
M  V30 14686 H 1340.46 4.18964 -2.58322 0
M  V30 14687 N 1342.11 1.02678 1.19562 0
M  V30 14688 C 1343.05 0.550355 2.21464 0
M  V30 14689 C 1344.03 -0.407674 1.57406 0
M  V30 14690 O 1345.21 -0.325272 1.85672 0
M  V30 14691 C 1342.34 -0.197777 3.38122 0
M  V30 14692 C 1341.38 0.711362 4.20526 0
M  V30 14693 S 1342.22 2.18636 4.88834 0
M  V30 14694 C 1343.37 1.44868 6.08904 0
M  V30 14695 H 1343.6 1.41377 2.61534 0
M  V30 14696 H 1341.14 0.836535 1.29775 0
M  V30 14697 H 1343.1 -0.62329 4.0574 0
M  V30 14698 H 1341.76 -1.03689 2.96492 0
M  V30 14699 H 1340.95 0.133916 5.03822 0
M  V30 14700 H 1340.55 1.0751 3.58214 0
M  V30 14701 H 1342.84 0.734143 6.73511 0
M  V30 14702 H 1343.79 2.25816 6.71128 0
M  V30 14703 H 1344.19 0.947098 5.56498 0
M  V30 14704 N 1343.59 -1.35528 0.804364 0
M  V30 14705 C 1345.01 -1.51962 0.487831 0
M  V30 14706 C 1345.21 -1.75426 -0.991353 0
M  V30 14707 O 1344.26 -1.7944 -1.77644 0
M  V30 14708 C 1345.58 -2.69626 1.33126 0
M  V30 14709 C 1347.13 -2.83502 1.32648 0
M  V30 14710 C 1347.6 -4.04188 2.15397 0
M  V30 14711 N 1349.09 -4.11362 2.12922 0
M  V30 14712 C 1349.83 -5.03856 2.73709 0
M  V30 14713 N 1349.32 -6.01696 3.43415 0
M  V30 14714 N 1351.12 -4.96585 2.63363 0
M  V30 14715 H 1343.27 -1.18553 1.76235 0
M  V30 14716 H 1345.53 -0.57986 0.749977 0
M  V30 14717 H 1345.24 -2.58857 2.38088 0
M  V30 14718 H 1345.11 -3.64168 0.982934 0
M  V30 14719 H 1347.5 -2.93723 0.284712 0
M  V30 14720 H 1347.58 -1.89824 1.71466 0
M  V30 14721 H 1347.22 -3.94728 3.19613 0
M  V30 14722 H 1347.15 -4.97044 1.7394 0
M  V30 14723 H 1349.64 -3.41319 1.62203 0
M  V30 14724 H 1349.96 -6.68866 3.8709 0
M  V30 14725 H 1348.3 -6.01877 3.47519 0
M  V30 14726 H 1351.49 -4.19103 2.08496 0
M  V30 14727 H 1351.66 -5.68478 3.11026 0
M  V30 14728 N 1345.07 -0.557671 -1.47404 0
M  V30 14729 C 1346.32 -0.0338384 -2.02772 0
M  V30 14730 C 1346.65 1.31278 -1.43107 0
M  V30 14731 O 1345.93 1.85436 -0.58682 0
M  V30 14732 C 1346.21 0.0587427 -3.60052 0
M  V30 14733 C 1346.06 -1.315 -4.30148 0
M  V30 14734 C 1347.38 0.771942 -4.33277 0
M  V30 14735 H 1344.5 -0.0137711 -0.736871 0
M  V30 14736 H 1347.14 -0.720049 -1.75827 0
M  V30 14737 H 1345.29 0.643154 -3.83139 0
M  V30 14738 H 1346.96 -1.94265 -4.184 0
M  V30 14739 H 1345.21 -1.88956 -3.90484 0
M  V30 14740 H 1345.88 -1.20294 -5.38733 0
M  V30 14741 H 1348.35 0.275729 -4.15185 0
M  V30 14742 H 1347.23 0.805683 -5.42955 0
M  V30 14743 H 1347.49 1.82816 -4.0253 0
M  V30 14744 N 1346.55 1.54831 -0.294147 0
M  V30 14745 C 1347.97 1.59489 0.0594489 0
M  V30 14746 C 1348.17 1.31121 1.53002 0
M  V30 14747 O 1347.22 1.08129 2.28176 0
M  V30 14748 C 1348.53 2.98858 -0.332323 0
M  V30 14749 C 1350.08 3.1174 -0.280518 0
M  V30 14750 C 1350.56 4.53407 -0.64701 0
M  V30 14751 N 1352.05 4.59307 -0.599284 0
M  V30 14752 C 1352.78 5.66983 -0.85542 0
M  V30 14753 N 1352.28 6.82726 -1.17717 0
M  V30 14754 N 1354.07 5.56621 -0.78294 0
M  V30 14755 H 1346.22 1.71532 -1.25262 0
M  V30 14756 H 1348.49 0.800801 -0.507368 0
M  V30 14757 H 1348.19 3.24517 -1.35578 0
M  V30 14758 H 1348.07 3.75862 0.317443 0
M  V30 14759 H 1350.45 2.85834 0.733683 0
M  V30 14760 H 1350.53 2.36907 -0.96481 0
M  V30 14761 H 1350.18 4.80042 -1.65899 0
M  V30 14762 H 1350.11 5.26567 0.0592796 0
M  V30 14763 H 1352.6 3.76169 -0.361259 0
M  V30 14764 H 1352.91 7.60761 -1.35877 0
M  V30 14765 H 1351.26 6.84295 -1.21513 0
M  V30 14766 H 1354.45 4.65075 -0.531282 0
M  V30 14767 H 1354.62 6.40456 -0.985929 0
M  V30 14768 N 1348.03 0.0217466 1.57585 0
M  V30 14769 C 1348.96 -0.961069 2.12804 0
M  V30 14770 C 1349.94 -1.3442 1.04237 0
M  V30 14771 O 1351.12 -1.42412 1.32032 0
M  V30 14772 C 1348.25 -2.24586 2.64912 0
M  V30 14773 C 1347.21 -2.0037 3.78201 0
M  V30 14774 C 1346.53 -3.35051 4.16708 0
M  V30 14775 C 1347.83 -1.34879 5.04584 0
M  V30 14776 H 1349.53 -0.501222 2.95175 0
M  V30 14777 H 1347.07 -0.239649 1.41992 0
M  V30 14778 H 1349.03 -2.93715 3.02175 0
M  V30 14779 H 1347.75 -2.72723 1.79693 0
M  V30 14780 H 1346.41 -1.33662 3.41365 0
M  V30 14781 H 1346.06 -3.80932 3.28481 0
M  V30 14782 H 1345.76 -3.19656 4.93045 0
M  V30 14783 H 1347.28 -4.05459 4.56547 0
M  V30 14784 H 1348.7 -1.93997 5.3948 0
M  V30 14785 H 1347.09 -1.29906 5.85871 0
M  V30 14786 H 1348.16 -0.320774 4.83838 0
M  V30 14787 N 1349.51 -1.55583 -0.251311 0
M  V30 14788 C 1350.47 -1.89148 -1.29443 0
M  V30 14789 C 1351.47 -0.7676 -1.41296 0
M  V30 14790 O 1352.66 -1.03563 -1.40073 0
M  V30 14791 C 1349.79 -2.11601 -2.67279 0
M  V30 14792 H 1350.98 -2.82416 -1.00901 0
M  V30 14793 H 1348.54 -1.48407 -0.490398 0
M  V30 14794 H 1349.27 -1.20787 -3.00967 0
M  V30 14795 H 1349.06 -2.93449 -2.60058 0
M  V30 14796 H 1350.55 -2.38768 -3.42607 0
M  V30 14797 N 1350.98 0.516783 -1.48886 0
M  V30 14798 C 1351.95 1.60226 -1.63891 0
M  V30 14799 C 1352.95 1.52448 -0.511479 0
M  V30 14800 O 1354.14 1.55882 -0.777582 0
M  V30 14801 C 1351.27 2.99867 -1.62151 0
M  V30 14802 H 1352.46 1.48256 -2.60692 0
M  V30 14803 H 1350.01 0.739844 -1.37681 0
M  V30 14804 H 1350.75 3.1733 -0.668764 0
M  V30 14805 H 1350.53 3.0692 -2.44013 0
M  V30 14806 H 1352.02 3.7876 -1.7587 0
M  V30 14807 N 1352.46 1.37696 0.766659 0
M  V30 14808 C 1353.41 1.33871 1.88009 0
M  V30 14809 C 1354.38 0.2034 1.6485 0
M  V30 14810 O 1355.56 0.393569 1.86697 0
M  V30 14811 C 1352.7 1.1566 3.25141 0
M  V30 14812 C 1351.82 2.38465 3.6022 0
M  V30 14813 C 1350.95 2.13087 4.86587 0
M  V30 14814 C 1349.99 3.31732 5.14413 0
M  V30 14815 N 1349.13 3.05872 6.3197 0
M  V30 14816 H 1353.97 2.29065 1.90613 0
M  V30 14817 H 1351.5 1.13821 0.931837 0
M  V30 14818 H 1353.46 1.03122 4.04255 0
M  V30 14819 H 1352.09 0.241115 3.21898 0
M  V30 14820 H 1351.14 2.61725 2.76051 0
M  V30 14821 H 1352.46 3.26933 3.76718 0
M  V30 14822 H 1351.61 1.97609 5.73616 0
M  V30 14823 H 1350.35 1.21965 4.72203 0
M  V30 14824 H 1349.35 3.47743 4.25858 0
M  V30 14825 H 1350.58 4.23712 5.30702 0
M  V30 14826 H 1348.53 2.17384 6.18935 0
M  V30 14827 H 1348.44 3.87885 6.48908 0
M  V30 14828 H 1349.71 2.94023 7.21922 0
M  V30 14829 N 1353.94 -0.993397 1.22349 0
M  V30 14830 C 1354.89 -2.0834 0.993123 0
M  V30 14831 C 1355.86 -1.65883 -0.0849717 0
M  V30 14832 O 1357.04 -1.90691 0.0645176 0
M  V30 14833 C 1354.18 -3.40252 0.576434 0
M  V30 14834 C 1353.29 -3.96055 1.72524 0
M  V30 14835 C 1352.43 -5.16123 1.25659 0
M  V30 14836 C 1351.47 -5.64062 2.37698 0
M  V30 14837 N 1350.61 -6.7537 1.91883 0
M  V30 14838 H 1355.45 -2.27381 1.92619 0
M  V30 14839 H 1352.98 -1.11476 0.959763 0
M  V30 14840 H 1354.94 -4.16001 0.316021 0
M  V30 14841 H 1353.57 -3.21214 -0.319626 0
M  V30 14842 H 1352.62 -3.17182 2.1 0
M  V30 14843 H 1353.93 -4.27614 2.56802 0
M  V30 14844 H 1353.09 -5.9916 0.953528 0
M  V30 14845 H 1351.83 -4.86186 0.384011 0
M  V30 14846 H 1350.83 -4.79614 2.68794 0
M  V30 14847 H 1352.06 -5.96025 3.25471 0
M  V30 14848 H 1350 -6.47217 1.06986 0
M  V30 14849 H 1349.92 -7.06246 2.69727 0
M  V30 14850 H 1351.19 -7.61914 1.64644 0
M  V30 14851 N 1355.42 -1.03311 -1.19015 0
M  V30 14852 C 1356.35 -0.575655 -2.21853 0
M  V30 14853 C 1357.36 0.350705 -1.58978 0
M  V30 14854 O 1358.55 0.146425 -1.77898 0
M  V30 14855 C 1355.65 0.179949 -3.38422 0
M  V30 14856 C 1354.82 -0.752403 -4.3088 0
M  V30 14857 C 1353.88 -0.0414484 -5.26184 0
M  V30 14858 O 1352.91 -0.669403 -5.6525 0
M  V30 14859 N 1354.11 1.22783 -5.67366 0
M  V30 14860 H 1356.88 -1.46013 -2.61726 0
M  V30 14861 H 1354.44 -0.912655 -1.33724 0
M  V30 14862 H 1356.43 0.66522 -3.99195 0
M  V30 14863 H 1355 0.965879 -2.97304 0
M  V30 14864 H 1354.22 -1.41768 -3.67825 0
M  V30 14865 H 1355.51 -1.38592 -4.89561 0
M  V30 14866 H 1354.91 1.75867 -5.37668 0
M  V30 14867 H 1353.46 1.65752 -6.30372 0
M  V30 14868 N 1356.9 1.35099 -0.81154 0
M  V30 14869 C 1357.81 2.33499 -0.22705 0
M  V30 14870 C 1358.82 1.62095 0.632562 0
M  V30 14871 O 1360 1.93938 0.543147 0
M  V30 14872 C 1357.06 3.41279 0.610687 0
M  V30 14873 C 1356.12 4.2845 -0.269994 0
M  V30 14874 C 1355.36 5.31083 0.527854 0
M  V30 14875 O 1355.58 5.42499 1.76213 0
M  V30 14876 O 1354.51 6.01842 -0.083862 0
M  V30 14877 H 1358.34 2.85294 -1.04119 0
M  V30 14878 H 1355.92 1.37957 -0.573432 0
M  V30 14879 H 1357.81 4.07121 1.08768 0
M  V30 14880 H 1356.48 2.91746 1.40235 0
M  V30 14881 H 1355.39 3.65572 -0.794234 0
M  V30 14882 H 1356.72 4.81394 -1.02572 0
M  V30 14883 N 1358.37 0.56548 1.47106 0
M  V30 14884 C 1359.3 -0.16567 2.32912 0
M  V30 14885 C 1360.28 -0.900678 1.44298 0
M  V30 14886 O 1361.47 -0.879523 1.73142 0
M  V30 14887 C 1358.6 -1.19092 3.26243 0
M  V30 14888 C 1357.55 -0.571849 4.24163 0
M  V30 14889 C 1356.88 -1.70233 5.06878 0
M  V30 14890 C 1358.18 0.479785 5.20092 0
M  V30 14891 H 1359.87 0.550705 2.94292 0
M  V30 14892 H 1357.42 0.266284 1.41517 0
M  V30 14893 H 1359.37 -1.71064 3.85117 0
M  V30 14894 H 1358.1 -1.93734 2.62934 0
M  V30 14895 H 1356.76 -0.073353 3.66527 0
M  V30 14896 H 1356.4 -2.438 4.39967 0
M  V30 14897 H 1356.1 -1.29384 5.73178 0
M  V30 14898 H 1357.63 -2.22515 5.68612 0
M  V30 14899 H 1359.04 0.0458042 5.73282 0
M  V30 14900 H 1357.44 0.807615 5.94641 0
M  V30 14901 H 1358.51 1.37259 4.65068 0
M  V30 14902 N 1359.85 -1.54672 0.302354 0
M  V30 14903 C 1360.76 -2.27251 -0.582578 0
M  V30 14904 C 1361.78 -1.30819 -1.14727 0
M  V30 14905 O 1362.95 -1.63803 -1.17177 0
M  V30 14906 C 1360.02 -3.00016 -1.73757 0
M  V30 14907 C 1359.08 -4.11988 -1.20682 0
M  V30 14908 C 1358.31 -4.81273 -2.30676 0
M  V30 14909 O 1358.54 -4.49927 -3.50602 0
M  V30 14910 O 1357.47 -5.68647 -1.97291 0
M  V30 14911 H 1361.3 -3.03699 0.00621365 0
M  V30 14912 H 1358.88 -1.49242 0.0687684 0
M  V30 14913 H 1360.76 -3.45652 -2.41045 0
M  V30 14914 H 1359.44 -2.26462 -2.31294 0
M  V30 14915 H 1358.35 -3.70749 -0.499625 0
M  V30 14916 H 1359.68 -4.87524 -0.676858 0
M  V30 14917 N 1361.33 -0.0301034 -1.57571 0
M  V30 14918 C 1362.24 0.967086 -2.1374 0
M  V30 14919 C 1363.26 1.35636 -1.0899 0
M  V30 14920 O 1364.43 1.43758 -1.41052 0
M  V30 14921 C 1361.5 2.23058 -2.65417 0
M  V30 14922 C 1360.56 1.90163 -3.84885 0
M  V30 14923 C 1359.79 3.10488 -4.34088 0
M  V30 14924 O 1360.01 4.23179 -3.8246 0
M  V30 14925 O 1358.95 2.92729 -5.25921 0
M  V30 14926 H 1362.77 0.519486 -2.99224 0
M  V30 14927 H 1360.36 0.190559 -1.4818 0
M  V30 14928 H 1362.24 2.97229 -2.98719 0
M  V30 14929 H 1360.92 2.66997 -1.83015 0
M  V30 14930 H 1359.82 1.13373 -3.56507 0
M  V30 14931 H 1361.16 1.51039 -4.68453 0
M  V30 14932 N 1362.81 1.55714 0.243056 0
M  V30 14933 C 1364.06 1.76927 0.96849 0
M  V30 14934 C 1364.37 0.594748 1.86339 0
M  V30 14935 O 1365.58 0.689981 2.62586 0
M  V30 14936 C 1364.03 3.13246 1.77214 0
M  V30 14937 C 1363.64 4.38358 0.92444 0
M  V30 14938 C 1365.38 3.43796 2.49007 0
M  V30 14939 C 1363.29 5.65708 1.7242 0
M  V30 14940 H 1362.22 0.659574 0.365346 0
M  V30 14941 H 1364.87 1.8214 0.223026 0
M  V30 14942 H 1363.25 3.02151 2.5597 0
M  V30 14943 H 1364.43 4.60452 0.178936 0
M  V30 14944 H 1362.74 4.15171 0.319653 0
M  V30 14945 H 1365.34 4.3616 3.09303 0
M  V30 14946 H 1365.68 2.65297 3.20817 0
M  V30 14947 H 1366.22 3.56124 1.77259 0
M  V30 14948 H 1362.96 6.47039 1.04978 0
M  V30 14949 H 1362.48 5.4771 2.44488 0
M  V30 14950 H 1364.15 6.05105 2.29036 0
M  V30 14951 N 1364.29 -0.50888 1.49158 0
M  V30 14952 C 1365.22 -1.62008 1.68154 0
M  V30 14953 C 1366.2 -1.61624 0.53025 0
M  V30 14954 O 1367.38 -1.78489 0.765205 0
M  V30 14955 C 1364.51 -3.00525 1.74075 0
M  V30 14956 C 1363.47 -3.15773 2.88915 0
M  V30 14957 C 1362.79 -4.55562 2.79942 0
M  V30 14958 C 1364.09 -2.96542 4.29953 0
M  V30 14959 H 1365.79 -1.46365 2.61185 0
M  V30 14960 H 1363.33 -0.702705 1.2569 0
M  V30 14961 H 1365.29 -3.78154 1.8595 0
M  V30 14962 H 1364.01 -3.17238 0.776373 0
M  V30 14963 H 1362.67 -2.40567 2.76628 0
M  V30 14964 H 1362.32 -4.6914 1.81429 0
M  V30 14965 H 1362.02 -4.66706 3.57015 0
M  V30 14966 H 1363.54 -5.35262 2.93814 0
M  V30 14967 H 1364.95 -3.63947 4.42963 0
M  V30 14968 H 1363.35 -3.19164 5.08187 0
M  V30 14969 H 1364.42 -1.92745 4.44946 0
M  V30 14970 N 1365.76 -1.381 -0.759346 0
M  V30 14971 C 1366.71 -1.31373 -1.86347 0
M  V30 14972 C 1367.7 -0.199113 -1.59663 0
M  V30 14973 O 1368.89 -0.43459 -1.71582 0
M  V30 14974 C 1366.02 -1.13537 -3.23982 0
M  V30 14975 C 1365.11 -2.29596 -3.56576 0
M  V30 14976 N 1365.5 -3.55023 -3.60267 0
M  V30 14977 C 1363.79 -2.22022 -3.86811 0
M  V30 14978 C 1364.5 -4.31629 -3.89963 0
M  V30 14979 N 1363.47 -3.60915 -4.06499 0
M  V30 14980 H 1367.27 -2.26345 -1.8747 0
M  V30 14981 H 1364.79 -1.3125 -0.956415 0
M  V30 14982 H 1366.78 -1.06801 -4.02988 0
M  V30 14983 H 1365.44 -0.194922 -3.24114 0
M  V30 14984 H 1366.46 -3.88769 -3.42168 0
M  V30 14985 H 1363.13 -1.36104 -3.94692 0
M  V30 14986 H 1364.52 -5.40238 -3.9949 0
M  V30 14987 N 1367.24 0.986894 -1.22875 0
M  V30 14988 C 1368.15 2.11232 -1.02069 0
M  V30 14989 C 1369.17 1.73969 0.0328424 0
M  V30 14990 O 1370.34 2.00754 -0.161197 0
M  V30 14991 C 1367.41 3.41337 -0.60747 0
M  V30 14992 C 1366.47 3.92665 -1.73531 0
M  V30 14993 C 1365.7 5.1656 -1.34171 0
M  V30 14994 O 1365.93 5.69964 -0.223106 0
M  V30 14995 O 1364.86 5.61791 -2.16041 0
M  V30 14996 H 1368.69 2.3167 -1.96374 0
M  V30 14997 H 1366.27 1.09607 -1.01522 0
M  V30 14998 H 1368.15 4.19613 -0.387661 0
M  V30 14999 H 1366.83 3.22244 0.306653 0
M  V30 15000 H 1365.74 3.15534 -2.0097 0
M  V30 15001 H 1367.07 4.162 -2.62751 0
M  V30 15002 N 1368.72 1.0394 1.18466 0
M  V30 15003 C 1369.65 0.573814 2.20868 0
M  V30 15004 C 1370.63 -0.390956 1.5783 0
M  V30 15005 O 1371.82 -0.305561 1.86007 0
M  V30 15006 C 1368.94 -0.161904 3.38313 0
M  V30 15007 C 1367.99 0.755924 4.19748 0
M  V30 15008 S 1368.82 2.23809 4.86487 0
M  V30 15009 C 1369.98 1.51318 6.07333 0
M  V30 15010 H 1370.21 1.44143 2.60019 0
M  V30 15011 H 1367.74 0.850252 1.2888 0
M  V30 15012 H 1369.7 -0.58022 4.06379 0
M  V30 15013 H 1368.36 -1.00539 2.97575 0
M  V30 15014 H 1367.56 0.187345 5.03652 0
M  V30 15015 H 1367.16 1.11303 3.57054 0
M  V30 15016 H 1369.45 0.805536 6.72694 0
M  V30 15017 H 1370.39 2.32922 6.68695 0
M  V30 15018 H 1370.8 1.00607 5.55462 0
M  V30 15019 N 1370.2 -1.34667 0.818693 0
M  V30 15020 C 1371.11 -2.33375 0.239429 0
M  V30 15021 C 1372.12 -1.62428 -0.623957 0
M  V30 15022 O 1373.3 -1.94223 -0.532854 0
M  V30 15023 C 1370.37 -3.41598 -0.59258 0
M  V30 15024 C 1369.43 -4.28301 0.292712 0
M  V30 15025 C 1368.66 -5.31356 -0.499682 0
M  V30 15026 O 1368.88 -5.43426 -1.73334 0
M  V30 15027 O 1367.82 -6.01789 0.115778 0
M  V30 15028 H 1371.64 -2.84738 1.05631 0
M  V30 15029 H 1369.23 -1.37651 0.58074 0
M  V30 15030 H 1371.11 -4.07692 -1.06607 0
M  V30 15031 H 1369.78 -2.92486 -1.38685 0
M  V30 15032 H 1368.69 -3.65145 0.81361 0
M  V30 15033 H 1370.02 -4.80843 1.05123 0
M  V30 15034 N 1371.68 -0.573274 -1.46804 0
M  V30 15035 C 1372.64 0.155066 -2.28675 0
M  V30 15036 C 1373.64 0.827706 -1.37861 0
M  V30 15037 O 1374.83 0.681105 -1.60333 0
M  V30 15038 C 1371.96 1.22864 -3.1799 0
M  V30 15039 H 1373.15 -0.564305 -2.94543 0
M  V30 15040 H 1370.71 -0.330855 -1.52758 0
M  V30 15041 H 1371.44 1.97989 -2.56848 0
M  V30 15042 H 1371.23 0.750936 -3.84842 0
M  V30 15043 H 1372.72 1.73974 -3.79635 0
M  V30 15044 N 1373.15 1.5451 -0.310553 0
M  V30 15045 C 1374.57 1.59543 0.0425296 0
M  V30 15046 C 1374.77 1.32737 1.51602 0
M  V30 15047 O 1373.83 1.10543 2.27016 0
M  V30 15048 C 1375.14 2.98489 -0.364002 0
M  V30 15049 C 1376.69 3.11425 -0.313566 0
M  V30 15050 C 1377.16 4.52695 -0.695064 0
M  V30 15051 N 1378.65 4.58645 -0.647966 0
M  V30 15052 C 1379.39 5.66044 -0.915508 0
M  V30 15053 N 1378.88 6.81439 -1.24951 0
M  V30 15054 N 1380.68 5.55759 -0.841933 0
M  V30 15055 H 1372.83 1.70194 -1.27074 0
M  V30 15056 H 1375.09 0.795374 -0.515833 0
M  V30 15057 H 1374.8 3.23061 -1.39012 0
M  V30 15058 H 1374.67 3.76177 0.27756 0
M  V30 15059 H 1377.06 2.86596 0.703326 0
M  V30 15060 H 1377.14 2.35871 -0.989883 0
M  V30 15061 H 1376.78 4.78255 -1.70981 0
M  V30 15062 H 1376.71 5.266 0.00342684 0
M  V30 15063 H 1379.2 3.75765 -0.401137 0
M  V30 15064 H 1379.52 7.59277 -1.43938 0
M  V30 15065 H 1377.86 6.82968 -1.28764 0
M  V30 15066 H 1381.05 4.64486 -0.58058 0
M  V30 15067 H 1381.23 6.39374 -1.0538 0
M  V30 15068 N 1374.63 0.0384594 1.57553 0
M  V30 15069 C 1375.56 -0.938444 2.13812 0
M  V30 15070 C 1376.54 -1.33307 1.05657 0
M  V30 15071 O 1377.73 -1.41003 1.33535 0
M  V30 15072 C 1374.86 -2.21764 2.67279 0
M  V30 15073 C 1373.81 -1.96347 3.80305 0
M  V30 15074 C 1373.14 -3.30612 4.20238 0
M  V30 15075 C 1374.44 -1.2952 5.05986 0
M  V30 15076 H 1376.13 -0.469887 2.9569 0
M  V30 15077 H 1373.68 -0.224576 1.42238 0
M  V30 15078 H 1375.63 -2.90493 3.05273 0
M  V30 15079 H 1374.36 -2.70802 1.82576 0
M  V30 15080 H 1373.02 -1.30033 3.42764 0
M  V30 15081 H 1372.66 -3.77427 3.32502 0
M  V30 15082 H 1372.36 -3.14409 4.96408 0
M  V30 15083 H 1373.89 -4.00594 4.60822 0
M  V30 15084 H 1375.3 -1.88264 5.41507 0
M  V30 15085 H 1373.7 -1.23685 5.87216 0
M  V30 15086 H 1374.77 -0.269439 4.84151 0
M  V30 15087 N 1376.11 -1.55841 -0.234795 0
M  V30 15088 C 1377.02 -1.94476 -1.31211 0
M  V30 15089 C 1378.04 -0.846782 -1.52005 0
M  V30 15090 O 1379.21 -1.14922 -1.65393 0
M  V30 15091 C 1376.28 -2.24213 -2.64442 0
M  V30 15092 C 1375.34 -3.47508 -2.52065 0
M  V30 15093 C 1374.57 -3.75817 -3.78942 0
M  V30 15094 O 1374.8 -3.06007 -4.81369 0
M  V30 15095 O 1373.73 -4.69328 -3.76848 0
M  V30 15096 H 1377.56 -2.8626 -1.01434 0
M  V30 15097 H 1375.14 -1.42879 -0.436563 0
M  V30 15098 H 1377.02 -2.44594 -3.4315 0
M  V30 15099 H 1375.7 -1.35605 -2.93927 0
M  V30 15100 H 1374.6 -3.32421 -1.71602 0
M  V30 15101 H 1375.94 -4.36457 -2.27523 0
M  V30 15102 N 1377.59 0.500963 -1.49426 0
M  V30 15103 C 1378.5 1.62889 -1.68833 0
M  V30 15104 C 1379.52 1.64367 -0.570932 0
M  V30 15105 O 1380.69 1.82786 -0.845641 0
M  V30 15106 C 1377.76 2.99255 -1.75063 0
M  V30 15107 C 1376.82 3.08404 -2.9864 0
M  V30 15108 C 1376.05 4.38266 -3.04564 0
M  V30 15109 O 1376.27 5.27065 -2.1808 0
M  V30 15110 O 1375.21 4.52387 -3.97026 0
M  V30 15111 H 1379.03 1.49446 -2.64385 0
M  V30 15112 H 1376.62 0.677254 -1.33168 0
M  V30 15113 H 1378.5 3.80303 -1.81515 0
M  V30 15114 H 1377.18 3.1296 -0.826896 0
M  V30 15115 H 1376.08 2.26544 -2.97706 0
M  V30 15116 H 1377.42 2.99626 -3.90494 0
M  V30 15117 N 1379.07 1.38501 0.752011 0
M  V30 15118 C 1379.98 1.38094 1.8965 0
M  V30 15119 C 1380.99 0.277851 1.71767 0
M  V30 15120 O 1382.17 0.516536 1.94663 0
M  V30 15121 C 1379.23 1.2063 3.25037 0
M  V30 15122 C 1378.3 2.40758 3.55435 0
M  V30 15123 C 1377.53 2.24118 4.84362 0
M  V30 15124 O 1377.75 1.23571 5.56854 0
M  V30 15125 O 1376.69 3.12741 5.14273 0
M  V30 15126 H 1380.51 2.34532 1.92947 0
M  V30 15127 H 1378.1 1.19437 0.897504 0
M  V30 15128 H 1379.98 1.12957 4.05979 0
M  V30 15129 H 1378.65 0.272785 3.22549 0
M  V30 15130 H 1377.56 2.54006 2.74648 0
M  V30 15131 H 1378.89 3.32745 3.62686 0
M  V30 15132 N 1380.55 -0.980364 1.23396 0
M  V30 15133 C 1381.46 -2.10688 1.03188 0
M  V30 15134 C 1382.47 -1.73984 -0.0236159 0
M  V30 15135 O 1383.65 -2.00666 0.171841 0
M  V30 15136 C 1380.71 -3.4101 0.625563 0
M  V30 15137 C 1379.77 -3.91739 1.75611 0
M  V30 15138 C 1379.01 -5.15841 1.36908 0
M  V30 15139 O 1379.23 -5.69837 0.253329 0
M  V30 15140 O 1378.16 -5.60638 2.19018 0
M  V30 15141 H 1381.99 -2.30626 1.97599 0
M  V30 15142 H 1379.57 -1.09067 1.02102 0
M  V30 15143 H 1381.46 -4.19402 0.409909 0
M  V30 15144 H 1380.13 -3.22402 -0.28956 0
M  V30 15145 H 1379.04 -3.14464 2.0264 0
M  V30 15146 H 1380.37 -4.14801 2.64955 0
M  V30 15147 N 1382.02 -1.04567 -1.17913 0
M  V30 15148 C 1383.3 -0.666082 -1.8391 0
M  V30 15149 C 1383.68 0.854062 -1.93052 0
M  V30 15150 O 1383.03 1.75752 -1.46026 0
M  V30 15151 C 1383.24 -1.34776 -3.21926 0
M  V30 15152 C 1384.59 -1.48177 -3.97905 0
M  V30 15153 O 1385.61 -1.30627 -3.31384 0
M  V30 15154 O 1384.47 -1.76822 -5.17104 0
M  V30 15155 H 1381.56 -0.233694 -0.793294 0
M  V30 15156 H 1384.11 -1.14487 -1.25263 0
M  V30 15157 H 1382.88 -2.38514 -3.10204 0
M  V30 15158 H 1382.5 -0.857914 -3.88234 0
M  V30 15159 N 1383.5 1.34231 -0.825823 0
M  V30 15160 C 1384.92 1.51166 -0.511945 0
M  V30 15161 C 1385.12 1.76981 0.963318 0
M  V30 15162 O 1384.17 1.82243 1.74767 0
M  V30 15163 C 1385.49 2.67474 -1.37399 0
M  V30 15164 C 1387.03 2.81356 -1.37141 0
M  V30 15165 C 1387.51 4.0071 -2.218 0
M  V30 15166 N 1389 4.07922 -2.19439 0
M  V30 15167 C 1389.74 4.99438 -2.81691 0
M  V30 15168 N 1389.23 5.96157 -3.52944 0
M  V30 15169 N 1391.02 4.92332 -2.7123 0
M  V30 15170 H 1383.18 1.15734 -1.78099 0
M  V30 15171 H 1385.44 0.567856 -0.759107 0
M  V30 15172 H 1385.14 2.55036 -2.42176 0
M  V30 15173 H 1385.02 3.62558 -1.04075 0
M  V30 15174 H 1387.41 2.93233 -0.331405 0
M  V30 15175 H 1387.49 1.87072 -1.74464 0
M  V30 15176 H 1387.13 3.89593 -3.25852 0
M  V30 15177 H 1387.06 4.94213 -1.81826 0
M  V30 15178 H 1389.55 3.38695 -1.67612 0
M  V30 15179 H 1389.86 6.62623 -3.97682 0
M  V30 15180 H 1388.21 5.96272 -3.5705 0
M  V30 15181 H 1391.4 4.15733 -2.15137 0
M  V30 15182 H 1391.57 5.63458 -3.20031 0
M  V30 15183 N 1384.98 0.581051 1.46498 0
M  V30 15184 C 1386.23 0.0658652 2.01993 0
M  V30 15185 C 1386.55 -1.29807 1.45516 0
M  V30 15186 O 1385.82 -1.85177 0.639233 0
M  V30 15187 H 1384.4 0.0213584 0.746695 0
M  V30 15188 H 1387.06 0.756456 1.79621 0
M  V30 15189 H 1386.16 -0.00438128 3.121 0
M  V30 15190 N 1386.46 -1.54343 0.318742 0
M  V30 15191 C 1387.39 -2.21652 -0.583351 0
M  V30 15192 C 1388.4 -1.21494 -1.08366 0
M  V30 15193 O 1389.59 -1.4799 -0.998064 0
M  V30 15194 C 1386.69 -2.86349 -1.81266 0
M  V30 15195 C 1385.86 -4.12601 -1.45186 0
M  V30 15196 C 1384.92 -4.60937 -2.53818 0
M  V30 15197 O 1383.95 -5.25731 -2.18164 0
M  V30 15198 N 1385.15 -4.34755 -3.84667 0
M  V30 15199 H 1387.92 -2.99699 -0.00703539 0
M  V30 15200 H 1385.48 -1.61278 0.141728 0
M  V30 15201 H 1387.47 -3.15611 -2.53321 0
M  V30 15202 H 1386.04 -2.12037 -2.29693 0
M  V30 15203 H 1385.26 -3.90157 -0.563143 0
M  V30 15204 H 1386.55 -4.94774 -1.18642 0
M  V30 15205 H 1385.95 -3.82883 -4.16434 0
M  V30 15206 H 1384.5 -4.68683 -4.52967 0
M  V30 15207 N 1387.94 -0.0468143 -1.5753 0
M  V30 15208 C 1388.87 0.958157 -2.08211 0
M  V30 15209 C 1389.88 1.27757 -1.00906 0
M  V30 15210 O 1391.07 1.23913 -1.28483 0
M  V30 15211 C 1388.17 2.28088 -2.50657 0
M  V30 15212 C 1387.34 2.14403 -3.81248 0
M  V30 15213 C 1386.4 3.29761 -4.10054 0
M  V30 15214 O 1385.43 3.05859 -4.8004 0
M  V30 15215 N 1386.63 4.54104 -3.61621 0
M  V30 15216 H 1389.39 0.525612 -2.95055 0
M  V30 15217 H 1386.96 0.139532 -1.61298 0
M  V30 15218 H 1388.95 3.04121 -2.67007 0
M  V30 15219 H 1387.52 2.62924 -1.69085 0
M  V30 15220 H 1386.74 1.22988 -3.74523 0
M  V30 15221 H 1388.03 2.02482 -4.66775 0
M  V30 15222 H 1387.42 4.76414 -3.05034 0
M  V30 15223 H 1385.98 5.27246 -3.83217 0
M  V30 15224 N 1389.41 1.55964 0.226527 0
M  V30 15225 C 1390.34 1.95028 1.284 0
M  V30 15226 C 1391.33 0.817833 1.49149 0
M  V30 15227 O 1392.51 1.07975 1.61416 0
M  V30 15228 C 1389.64 2.26266 2.63478 0
M  V30 15229 C 1388.59 3.41954 2.57393 0
M  V30 15230 C 1387.92 3.58786 3.96456 0
M  V30 15231 C 1389.22 4.77069 2.12608 0
M  V30 15232 H 1390.91 2.83608 0.959513 0
M  V30 15233 H 1388.46 1.36451 0.460125 0
M  V30 15234 H 1390.41 2.52186 3.3761 0
M  V30 15235 H 1389.14 1.34533 2.97604 0
M  V30 15236 H 1387.8 3.16076 1.85719 0
M  V30 15237 H 1387.44 2.64437 4.27881 0
M  V30 15238 H 1387.14 4.36595 3.93267 0
M  V30 15239 H 1388.67 3.87048 4.72256 0
M  V30 15240 H 1390.08 5.02226 2.76481 0
M  V30 15241 H 1388.48 5.58126 2.2049 0
M  V30 15242 H 1389.55 4.7276 1.07823 0
M  V30 15243 N 1390.89 -0.493031 1.4969 0
M  V30 15244 C 1391.82 -1.61058 1.63074 0
M  V30 15245 C 1392.84 -1.54504 0.513069 0
M  V30 15246 O 1394.03 -1.60291 0.785431 0
M  V30 15247 C 1391.13 -2.99877 1.57883 0
M  V30 15248 C 1390.3 -3.31531 2.85317 0
M  V30 15249 C 1389.36 -4.49799 2.7307 0
M  V30 15250 O 1388.38 -4.51189 3.47012 0
M  V30 15251 N 1389.59 -5.50182 1.85148 0
M  V30 15252 H 1392.35 -1.5 2.59461 0
M  V30 15253 H 1389.91 -0.681057 1.46878 0
M  V30 15254 H 1391.9 -3.76928 1.47333 0
M  V30 15255 H 1390.47 -3.04817 0.693218 0
M  V30 15256 H 1389.69 -2.433 3.10159 0
M  V30 15257 H 1390.98 -3.49481 3.69784 0
M  V30 15258 H 1390.38 -5.51865 1.24345 0
M  V30 15259 H 1388.94 -6.26305 1.80516 0
M  V30 15260 N 1392.37 -1.38898 -0.744656 0
M  V30 15261 C 1393.33 -1.36633 -1.84022 0
M  V30 15262 C 1394.33 -0.265187 -1.58598 0
M  V30 15263 O 1395.52 -0.522569 -1.66177 0
M  V30 15264 C 1392.66 -1.12938 -3.21649 0
M  V30 15265 H 1393.85 -2.34111 -1.87435 0
M  V30 15266 H 1391.4 -1.24322 -0.947302 0
M  V30 15267 H 1392.14 -0.161027 -3.239 0
M  V30 15268 H 1391.92 -1.9267 -3.41498 0
M  V30 15269 H 1393.41 -1.14071 -4.01718 0
M  V30 15270 N 1393.85 0.973806 -1.23914 0
M  V30 15271 C 1394.76 2.10138 -1.04304 0
M  V30 15272 C 1395.77 1.73994 0.0143888 0
M  V30 15273 O 1396.95 2.00572 -0.182481 0
M  V30 15274 C 1394.02 3.40673 -0.643639 0
M  V30 15275 C 1393.08 3.90802 -1.77686 0
M  V30 15276 C 1392.31 5.15108 -1.39642 0
M  V30 15277 O 1392.53 5.69695 -0.283546 0
M  V30 15278 O 1391.47 5.59468 -2.21988 0
M  V30 15279 H 1395.29 2.29574 -1.9882 0
M  V30 15280 H 1392.88 1.08524 -1.02679 0
M  V30 15281 H 1394.76 4.19178 -0.432145 0
M  V30 15282 H 1393.43 3.22551 0.272458 0
M  V30 15283 H 1392.34 3.13385 -2.04305 0
M  V30 15284 H 1393.67 4.1339 -2.67151 0
M  V30 15285 N 1395.33 1.05191 1.17357 0
M  V30 15286 C 1396.74 0.773255 1.39617 0
M  V30 15287 C 1396.94 -0.632346 1.91321 0
M  V30 15288 O 1396 -1.39475 2.10483 0
M  V30 15289 C 1397.31 1.82885 2.38692 0
M  V30 15290 C 1398.86 1.85106 2.52398 0
M  V30 15291 C 1399.33 2.89689 3.54746 0
M  V30 15292 N 1400.83 2.88651 3.62263 0
M  V30 15293 C 1401.56 3.66221 4.41214 0
M  V30 15294 N 1401.06 4.53577 5.23679 0
M  V30 15295 N 1402.85 3.54661 4.36087 0
M  V30 15296 H 1395 1.9588 0.82127 0
M  V30 15297 H 1397.26 0.848187 0.423417 0
M  V30 15298 H 1396.97 2.83766 2.07773 0
M  V30 15299 H 1396.84 1.67047 3.38194 0
M  V30 15300 H 1399.23 0.848896 2.82627 0
M  V30 15301 H 1399.31 2.05022 1.5297 0
M  V30 15302 H 1398.96 3.90091 3.25255 0
M  V30 15303 H 1398.89 2.67025 4.53878 0
M  V30 15304 H 1401.38 2.25312 3.03386 0
M  V30 15305 H 1401.69 5.09449 5.81104 0
M  V30 15306 H 1400.03 4.57638 5.23061 0
M  V30 15307 H 1403.23 2.8581 3.70716 0
M  V30 15308 H 1403.4 4.15361 4.97372 0
M  V30 15309 N 1396.8 -1.33791 0.83293 0
M  V30 15310 C 1397.75 -2.29332 0.25989 0
M  V30 15311 C 1398.72 -1.54056 -0.620965 0
M  V30 15312 O 1399.91 -1.82382 -0.560492 0
M  V30 15313 C 1397.05 -3.40461 -0.563964 0
M  V30 15314 C 1396.16 -4.30658 0.34025 0
M  V30 15315 C 1395.29 -5.28897 -0.494134 0
M  V30 15316 C 1394.33 -6.10733 0.408842 0
M  V30 15317 N 1393.47 -7.01032 -0.38706 0
M  V30 15318 H 1398.31 -2.77743 1.07996 0
M  V30 15319 H 1395.85 -1.3667 0.544043 0
M  V30 15320 H 1397.81 -4.03587 -1.05704 0
M  V30 15321 H 1396.44 -2.93258 -1.34905 0
M  V30 15322 H 1395.49 -3.68305 0.9516 0
M  V30 15323 H 1396.8 -4.87962 1.03415 0
M  V30 15324 H 1395.95 -5.97522 -1.05128 0
M  V30 15325 H 1394.69 -4.72155 -1.2215 0
M  V30 15326 H 1393.7 -5.41031 0.978046 0
M  V30 15327 H 1394.92 -6.69557 1.13448 0
M  V30 15328 H 1392.87 -6.46747 -1.09792 0
M  V30 15329 H 1392.79 -7.55592 0.248249 0
M  V30 15330 H 1394.05 -7.73973 -0.926631 0
M  V30 15331 N 1398.28 -0.588812 -1.46187 0
M  V30 15332 C 1399.23 0.140932 -2.30369 0
M  V30 15333 C 1400.2 0.878216 -1.40984 0
M  V30 15334 O 1401.38 0.867678 -1.69929 0
M  V30 15335 C 1398.52 1.14468 -3.25563 0
M  V30 15336 C 1397.64 0.410215 -4.30048 0
M  V30 15337 C 1396.77 1.40203 -5.12364 0
M  V30 15338 C 1395.81 0.65431 -6.08593 0
M  V30 15339 N 1394.95 1.59448 -6.83755 0
M  V30 15340 H 1399.79 -0.582976 -2.92242 0
M  V30 15341 H 1397.33 -0.299302 -1.44023 0
M  V30 15342 H 1399.28 1.73957 -3.79203 0
M  V30 15343 H 1397.91 1.83623 -2.65485 0
M  V30 15344 H 1396.97 -0.299822 -3.79217 0
M  V30 15345 H 1398.28 -0.174043 -4.98496 0
M  V30 15346 H 1397.43 2.06953 -5.70312 0
M  V30 15347 H 1396.17 2.02022 -4.4389 0
M  V30 15348 H 1395.18 -0.0269371 -5.49793 0
M  V30 15349 H 1396.4 0.0414285 -6.79087 0
M  V30 15350 H 1394.35 2.20066 -6.17986 0
M  V30 15351 H 1394.26 1.06318 -7.48487 0
M  V30 15352 H 1395.53 2.25215 -7.46256 0
M  V30 15353 N 1399.76 1.54172 -0.326923 0
M  V30 15354 C 1400.69 2.20703 0.580137 0
M  V30 15355 C 1401.67 1.18523 1.11315 0
M  V30 15356 O 1402.86 1.47276 1.17652 0
M  V30 15357 C 1399.98 2.87137 1.79638 0
M  V30 15358 C 1399.03 4.03064 1.39432 0
M  V30 15359 S 1399.86 5.33785 0.428179 0
M  V30 15360 C 1401.02 6.03715 1.65163 0
M  V30 15361 H 1401.25 2.97296 0.0149964 0
M  V30 15362 H 1398.78 1.54 -0.111004 0
M  V30 15363 H 1400.74 3.26035 2.49423 0
M  V30 15364 H 1399.4 2.1034 2.33272 0
M  V30 15365 H 1398.6 4.48424 2.3007 0
M  V30 15366 H 1398.2 3.65858 0.776144 0
M  V30 15367 H 1400.49 6.26098 2.58858 0
M  V30 15368 H 1401.43 6.97156 1.24014 0
M  V30 15369 H 1401.84 5.33666 1.84014 0
M  V30 15370 N 1401.24 0.0551678 1.57503 0
M  V30 15371 C 1402.2 -0.903065 2.10659 0
M  V30 15372 C 1403.2 -1.23728 1.02703 0
M  V30 15373 O 1404.39 -1.17331 1.2876 0
M  V30 15374 C 1401.52 -2.21171 2.59415 0
M  V30 15375 H 1402.72 -0.442197 2.96622 0
M  V30 15376 H 1400.27 -0.193297 1.551 0
M  V30 15377 H 1401 -2.71831 1.76858 0
M  V30 15378 H 1400.79 -1.98216 3.38309 0
M  V30 15379 H 1402.28 -2.89802 3.00674 0
M  V30 15380 N 1402.72 -1.56081 -0.218252 0
M  V30 15381 C 1403.65 -1.89176 -1.29403 0
M  V30 15382 C 1404.66 -0.780312 -1.42881 0
M  V30 15383 O 1405.85 -1.05863 -1.4372 0
M  V30 15384 C 1402.95 -2.08818 -2.66923 0
M  V30 15385 C 1402.12 -3.39854 -2.75351 0
M  V30 15386 C 1401.18 -3.48889 -3.93908 0
M  V30 15387 O 1400.21 -4.21894 -3.82091 0
M  V30 15388 N 1401.41 -2.80273 -5.08357 0
M  V30 15389 H 1404.18 -2.82047 -1.01338 0
M  V30 15390 H 1401.74 -1.56667 -0.408278 0
M  V30 15391 H 1403.73 -2.12175 -3.44622 0
M  V30 15392 H 1402.3 -1.22557 -2.87574 0
M  V30 15393 H 1401.52 -3.48568 -1.84104 0
M  V30 15394 H 1402.81 -4.26168 -2.77954 0
M  V30 15395 H 1402.2 -2.20744 -5.20854 0
M  V30 15396 H 1400.76 -2.89286 -5.84086 0
M  V30 15397 N 1404.2 0.485086 -1.49949 0
M  V30 15398 C 1405.13 1.60191 -1.63926 0
M  V30 15399 C 1406.14 1.5423 -0.521256 0
M  V30 15400 O 1407.33 1.59872 -0.79392 0
M  V30 15401 C 1404.43 2.99035 -1.59472 0
M  V30 15402 C 1403.6 3.30014 -2.87071 0
M  V30 15403 C 1402.66 4.48345 -2.75451 0
M  V30 15404 O 1401.69 4.49342 -3.494 0
M  V30 15405 N 1402.89 5.49192 -1.88064 0
M  V30 15406 H 1405.65 1.48622 -2.60253 0
M  V30 15407 H 1403.22 0.673258 -1.47237 0
M  V30 15408 H 1405.21 3.76142 -1.4933 0
M  V30 15409 H 1403.78 3.04445 -0.709373 0
M  V30 15410 H 1403 2.41652 -3.11445 0
M  V30 15411 H 1404.29 3.47515 -3.71632 0
M  V30 15412 H 1403.68 5.51198 -1.2727 0
M  V30 15413 H 1402.24 6.25338 -1.83835 0
M  V30 15414 N 1405.67 1.39291 0.737279 0
M  V30 15415 C 1406.61 1.32216 1.85995 0
M  V30 15416 C 1407.58 0.19623 1.61412 0
M  V30 15417 O 1408.77 0.376297 1.84706 0
M  V30 15418 C 1405.9 1.0525 3.21932 0
M  V30 15419 C 1404.94 2.20002 3.65378 0
M  V30 15420 S 1405.77 3.82265 3.75011 0
M  V30 15421 C 1406.93 3.57519 5.13742 0
M  V30 15422 H 1407.16 2.27231 1.91712 0
M  V30 15423 H 1404.7 1.25319 0.901911 0
M  V30 15424 H 1406.65 0.903753 4.00428 0
M  V30 15425 H 1405.32 0.119258 3.13874 0
M  V30 15426 H 1404.51 1.9672 4.64023 0
M  V30 15427 H 1404.11 2.31068 2.94081 0
M  V30 15428 H 1406.4 3.14643 6.00005 0
M  V30 15429 H 1407.35 4.55616 5.42051 0
M  V30 15430 H 1407.75 2.9167 4.8331 0
M  V30 15431 N 1407.15 -0.967221 1.24429 0
M  V30 15432 C 1408.08 -2.07966 1.06172 0
M  V30 15433 C 1409.06 -1.70081 -0.0254566 0
M  V30 15434 O 1410.25 -1.93682 0.141705 0
M  V30 15435 C 1407.38 -3.4085 0.666251 0
M  V30 15436 C 1406.33 -3.92692 1.70225 0
M  V30 15437 C 1405.66 -5.21925 1.16183 0
M  V30 15438 C 1406.96 -4.20478 3.09831 0
M  V30 15439 H 1408.65 -2.23497 1.99222 0
M  V30 15440 H 1406.2 -1.07398 0.959255 0
M  V30 15441 H 1408.15 -4.1811 0.52552 0
M  V30 15442 H 1406.87 -3.2522 -0.299939 0
M  V30 15443 H 1405.53 -3.17588 1.83121 0
M  V30 15444 H 1405.18 -5.02655 0.186237 0
M  V30 15445 H 1404.88 -5.57579 1.85416 0
M  V30 15446 H 1406.41 -6.01795 1.03323 0
M  V30 15447 H 1407.82 -4.88442 3.00162 0
M  V30 15448 H 1406.22 -4.67362 3.7642 0
M  V30 15449 H 1407.29 -3.27235 3.57834 0
M  V30 15450 N 1408.63 -1.05812 -1.16797 0
M  V30 15451 C 1409.91 -0.685551 -1.83193 0
M  V30 15452 C 1410.29 0.833539 -1.93947 0
M  V30 15453 O 1409.63 1.74193 -1.47882 0
M  V30 15454 C 1409.84 -1.38183 -3.20479 0
M  V30 15455 C 1411.19 -1.52389 -3.96311 0
M  V30 15456 O 1412.22 -1.34134 -3.2998 0
M  V30 15457 O 1411.08 -1.82297 -5.15199 0
M  V30 15458 H 1408.17 -0.242095 -0.790771 0
M  V30 15459 H 1410.72 -1.15809 -1.24041 0
M  V30 15460 H 1409.49 -2.41791 -3.07657 0
M  V30 15461 H 1409.11 -0.899043 -3.87302 0
M  V30 15462 N 1410.11 1.33347 -0.840014 0
M  V30 15463 C 1411.04 2.31703 -0.289138 0
M  V30 15464 C 1412.02 1.59024 0.603759 0
M  V30 15465 O 1413.2 1.86911 0.527071 0
M  V30 15466 C 1410.33 3.43144 0.53566 0
M  V30 15467 C 1409.29 4.272 -0.261544 0
M  V30 15468 C 1408.61 5.30267 0.687075 0
M  V30 15469 C 1409.91 5.00915 -1.47924 0
M  V30 15470 H 1411.61 2.78026 -1.11094 0
M  V30 15471 H 1409.15 1.33666 -0.535658 0
M  V30 15472 H 1411.11 4.10979 0.931351 0
M  V30 15473 H 1409.83 2.95512 1.39069 0
M  V30 15474 H 1408.49 3.60991 -0.638809 0
M  V30 15475 H 1408.14 4.78893 1.53853 0
M  V30 15476 H 1407.84 5.87388 0.157773 0
M  V30 15477 H 1409.36 6.00968 1.08026 0
M  V30 15478 H 1410.78 5.61511 -1.15664 0
M  V30 15479 H 1409.17 5.67692 -1.94541 0
M  V30 15480 H 1410.24 4.29622 -2.24839 0
M  V30 15481 N 1411.59 0.596556 1.45873 0
M  V30 15482 C 1412.5 -0.130832 2.34235 0
M  V30 15483 C 1413.51 -0.871805 1.50584 0
M  V30 15484 O 1414.69 -0.831877 1.83417 0
M  V30 15485 C 1411.75 -1.12279 3.28016 0
M  V30 15486 C 1410.81 -0.384982 4.2757 0
M  V30 15487 C 1410.05 -1.32969 5.1687 0
M  V30 15488 O 1410.27 -2.56696 5.09375 0
M  V30 15489 O 1409.2 -0.832741 5.96112 0
M  V30 15490 H 1413.03 0.59503 2.97814 0
M  V30 15491 H 1410.61 0.356873 1.45075 0
M  V30 15492 H 1412.5 -1.6944 3.85834 0
M  V30 15493 H 1411.17 -1.82988 2.67015 0
M  V30 15494 H 1410.08 0.228816 3.734 0
M  V30 15495 H 1411.41 0.281398 4.91395 0
M  V30 15496 N 1413.06 -1.53996 0.335095 0
M  V30 15497 C 1413.97 -2.28436 -0.534244 0
M  V30 15498 C 1414.99 -1.33224 -1.11926 0
M  V30 15499 O 1416.17 -1.66252 -1.13676 0
M  V30 15500 C 1413.23 -3.03634 -1.67354 0
M  V30 15501 C 1412.29 -4.14455 -1.11916 0
M  V30 15502 C 1411.52 -4.86058 -2.20416 0
M  V30 15503 O 1411.75 -4.57263 -3.40979 0
M  V30 15504 O 1410.68 -5.72704 -1.85185 0
M  V30 15505 H 1414.51 -3.03618 0.0706314 0
M  V30 15506 H 1412.09 -1.49062 0.100409 0
M  V30 15507 H 1413.97 -3.50687 -2.33659 0
M  V30 15508 H 1412.65 -2.31317 -2.26438 0
M  V30 15509 H 1411.56 -3.71725 -0.420871 0
M  V30 15510 H 1412.89 -4.8885 -0.573295 0
M  V30 15511 N 1414.54 -0.0635198 -1.57472 0
M  V30 15512 C 1415.47 0.93602 -2.09216 0
M  V30 15513 C 1416.49 1.2668 -1.02255 0
M  V30 15514 O 1417.68 1.22543 -1.2979 0
M  V30 15515 C 1414.78 2.25417 -2.53062 0
M  V30 15516 C 1413.95 2.10347 -3.83501 0
M  V30 15517 C 1413.01 3.25394 -4.13528 0
M  V30 15518 O 1412.03 3.00751 -4.83257 0
M  V30 15519 N 1413.24 4.50243 -3.66417 0
M  V30 15520 H 1416 0.494288 -2.95596 0
M  V30 15521 H 1413.56 0.122416 -1.61437 0
M  V30 15522 H 1415.55 3.01272 -2.70217 0
M  V30 15523 H 1414.12 2.61116 -1.71864 0
M  V30 15524 H 1413.34 1.19009 -3.75807 0
M  V30 15525 H 1414.63 1.97519 -4.68896 0
M  V30 15526 H 1414.03 4.73152 -3.1007 0
M  V30 15527 H 1412.59 5.23152 -3.88787 0
M  V30 15528 N 1416.02 1.56195 0.209972 0
M  V30 15529 C 1416.95 1.96378 1.26324 0
M  V30 15530 C 1417.93 0.833606 1.48273 0
M  V30 15531 O 1419.12 1.0968 1.60262 0
M  V30 15532 C 1416.25 2.29048 2.61064 0
M  V30 15533 C 1415.2 3.44665 2.53752 0
M  V30 15534 C 1414.53 3.6297 3.92628 0
M  V30 15535 C 1415.83 4.79297 2.07536 0
M  V30 15536 H 1417.52 2.8461 0.929379 0
M  V30 15537 H 1415.07 1.36931 0.445627 0
M  V30 15538 H 1417.02 2.55752 3.34916 0
M  V30 15539 H 1415.74 1.37682 2.96161 0
M  V30 15540 H 1414.4 3.18028 1.82356 0
M  V30 15541 H 1414.05 2.68961 4.25052 0
M  V30 15542 H 1413.75 4.40741 3.88614 0
M  V30 15543 H 1415.27 3.92035 4.68125 0
M  V30 15544 H 1416.69 5.05131 2.71138 0
M  V30 15545 H 1415.08 5.60433 2.14557 0
M  V30 15546 H 1416.15 4.73877 1.02802 0
M  V30 15547 N 1417.5 -0.477127 1.50204 0
M  V30 15548 C 1418.41 -1.60182 1.71403 0
M  V30 15549 C 1419.42 -1.63437 0.597009 0
M  V30 15550 O 1420.6 -1.81418 0.874614 0
M  V30 15551 C 1417.66 -2.96432 1.79802 0
M  V30 15552 C 1416.73 -3.03614 3.03508 0
M  V30 15553 C 1415.96 -4.33365 3.11497 0
M  V30 15554 O 1416.18 -5.23529 2.26438 0
M  V30 15555 O 1415.12 -4.46013 4.04173 0
M  V30 15556 H 1418.94 -1.45221 2.66729 0
M  V30 15557 H 1416.53 -0.655982 1.34228 0
M  V30 15558 H 1418.41 -3.77367 1.87542 0
M  V30 15559 H 1417.08 -3.11605 0.876581 0
M  V30 15560 H 1415.99 -2.21779 3.01272 0
M  V30 15561 H 1417.32 -2.93376 3.95211 0
M  V30 15562 N 1418.98 -1.3968 -0.729882 0
M  V30 15563 C 1419.89 -1.41094 -1.87429 0
M  V30 15564 C 1420.9 -0.305142 -1.71303 0
M  V30 15565 O 1422.08 -0.54744 -1.93817 0
M  V30 15566 C 1419.14 -1.25786 -3.23077 0
M  V30 15567 C 1418.2 -2.46382 -3.5156 0
M  V30 15568 C 1417.44 -2.31795 -4.80735 0
M  V30 15569 O 1417.66 -1.32415 -5.54818 0
M  V30 15570 O 1416.59 -3.20883 -5.09232 0
M  V30 15571 H 1420.42 -2.37571 -1.89192 0
M  V30 15572 H 1418.01 -1.2085 -0.878389 0
M  V30 15573 H 1419.89 -1.19402 -4.0413 0
M  V30 15574 H 1418.56 -0.324065 -3.22074 0
M  V30 15575 H 1417.47 -2.58343 -2.70573 0
M  V30 15576 H 1418.8 -3.38473 -3.57347 0
M  V30 15577 N 1420.45 0.960609 -1.2494 0
M  V30 15578 C 1421.36 2.0902 -1.06527 0
M  V30 15579 C 1422.38 1.74 -0.00406641 0
M  V30 15580 O 1423.56 2.00367 -0.203744 0
M  V30 15581 C 1420.62 3.39971 -0.679736 0
M  V30 15582 C 1419.68 3.88895 -1.81821 0
M  V30 15583 C 1418.92 5.13597 -1.45098 0
M  V30 15584 O 1419.14 5.69362 -0.343954 0
M  V30 15585 O 1418.07 5.57083 -2.27909 0
M  V30 15586 H 1421.9 2.27453 -2.01243 0
M  V30 15587 H 1419.48 1.07429 -1.03824 0
M  V30 15588 H 1421.37 4.18696 -0.47658 0
M  V30 15589 H 1420.04 3.22822 0.238231 0
M  V30 15590 H 1418.95 3.11201 -2.07617 0
M  V30 15591 H 1420.28 4.10533 -2.7152 0
M  V30 15592 N 1421.93 1.0643 1.16234 0
M  V30 15593 C 1422.84 0.687446 2.24302 0
M  V30 15594 C 1423.86 -0.297132 1.71444 0
M  V30 15595 O 1425.03 -0.146101 2.00869 0
M  V30 15596 C 1422.1 0.0810973 3.46605 0
M  V30 15597 C 1421.16 1.11772 4.14494 0
M  V30 15598 C 1420.39 0.54021 5.30959 0
M  V30 15599 O 1420.62 -0.646619 5.66723 0
M  V30 15600 O 1419.55 1.28057 5.8812 0
M  V30 15601 H 1423.38 1.58842 2.58849 0
M  V30 15602 H 1420.96 0.836649 1.23776 0
M  V30 15603 H 1422.84 -0.25524 4.20626 0
M  V30 15604 H 1421.52 -0.793338 3.13828 0
M  V30 15605 H 1420.43 1.50626 3.42436 0
M  V30 15606 H 1421.76 1.96373 4.5133 0
M  V30 15607 N 1423.41 -1.329 0.847073 0
M  V30 15608 C 1424.37 -2.27341 0.291324 0
M  V30 15609 C 1425.37 -1.51295 -0.544653 0
M  V30 15610 O 1426.56 -1.70497 -0.357258 0
M  V30 15611 C 1423.7 -3.35779 -0.588668 0
M  V30 15612 H 1424.89 -2.78009 1.12477 0
M  V30 15613 H 1422.44 -1.43442 0.620803 0
M  V30 15614 H 1423.18 -2.90366 -1.44423 0
M  V30 15615 H 1422.96 -3.92099 0.00960515 0
M  V30 15616 H 1424.45 -4.06166 -0.970526 0
M  V30 15617 N 1424.89 -0.604284 -1.45555 0
M  V30 15618 C 1425.85 0.106526 -2.28952 0
M  V30 15619 C 1426.85 0.798277 -1.39586 0
M  V30 15620 O 1428.04 0.646943 -1.61741 0
M  V30 15621 C 1425.17 1.16091 -3.20524 0
M  V30 15622 H 1426.37 -0.626655 -2.9328 0
M  V30 15623 H 1423.92 -0.363183 -1.52022 0
M  V30 15624 H 1424.65 1.92496 -2.6099 0
M  V30 15625 H 1424.44 0.669137 -3.86348 0
M  V30 15626 H 1425.93 1.65882 -3.8324 0
M  V30 15627 N 1426.37 1.53816 -0.343257 0
M  V30 15628 C 1427.78 1.59598 0.00867849 0
M  V30 15629 C 1427.98 1.35922 1.48753 0
M  V30 15630 O 1427.04 1.15334 2.2462 0
M  V30 15631 C 1428.35 2.97649 -0.427234 0
M  V30 15632 C 1429.9 3.1069 -0.379554 0
M  V30 15633 C 1430.37 4.51119 -0.79093 0
M  V30 15634 N 1431.87 4.57168 -0.745105 0
M  V30 15635 C 1432.6 5.63975 -1.03537 0
M  V30 15636 N 1432.1 6.78635 -1.39377 0
M  V30 15637 N 1433.89 5.53848 -0.959628 0
M  V30 15638 H 1426.04 1.6746 -1.30656 0
M  V30 15639 H 1428.3 0.784254 -0.532588 0
M  V30 15640 H 1428.01 3.2004 -1.45834 0
M  V30 15641 H 1427.88 3.76682 0.197704 0
M  V30 15642 H 1430.27 2.88024 0.642376 0
M  V30 15643 H 1430.35 2.33718 -1.03969 0
M  V30 15644 H 1430 4.74521 -1.81087 0
M  V30 15645 H 1429.93 5.26489 -0.108274 0
M  V30 15646 H 1432.42 3.7483 -0.480752 0
M  V30 15647 H 1432.73 7.56053 -1.60011 0
M  V30 15648 H 1431.07 6.80083 -1.43222 0
M  V30 15649 H 1434.27 4.6315 -0.678974 0
M  V30 15650 H 1434.44 6.36995 -1.18919 0
M  V30 15651 N 1427.84 0.0718701 1.57436 0
M  V30 15652 C 1428.78 -0.924911 2.09709 0
M  V30 15653 C 1429.79 -1.26136 1.02925 0
M  V30 15654 O 1430.98 -1.21853 1.30438 0
M  V30 15655 C 1428.08 -2.24072 2.54254 0
M  V30 15656 C 1427.25 -2.0831 3.84611 0
M  V30 15657 C 1426.31 -3.23196 4.15248 0
M  V30 15658 O 1425.34 -2.98184 4.84846 0
M  V30 15659 N 1426.54 -4.48293 3.688 0
M  V30 15660 H 1429.3 -0.478605 2.95854 0
M  V30 15661 H 1426.86 -0.113853 1.61499 0
M  V30 15662 H 1428.86 -2.99835 2.71811 0
M  V30 15663 H 1427.43 -2.60201 1.73246 0
M  V30 15664 H 1426.65 -1.17014 3.76432 0
M  V30 15665 H 1427.93 -1.9503 4.69937 0
M  V30 15666 H 1427.33 -4.71501 3.12575 0
M  V30 15667 H 1425.89 -5.21082 3.91556 0
M  V30 15668 N 1429.32 -1.56304 -0.201686 0
M  V30 15669 C 1430.27 -1.94021 -1.24999 0
M  V30 15670 C 1431.24 -0.799926 -1.45569 0
M  V30 15671 O 1432.42 -1.05752 -1.58811 0
M  V30 15672 C 1429.56 -2.27935 -2.59113 0
M  V30 15673 C 1428.68 -3.54995 -2.46176 0
M  V30 15674 C 1427.81 -3.78262 -3.72949 0
M  V30 15675 C 1426.85 -4.9877 -3.54817 0
M  V30 15676 N 1425.99 -5.18325 -4.73586 0
M  V30 15677 H 1430.83 -2.834 -0.92134 0
M  V30 15678 H 1428.37 -1.40252 -0.44359 0
M  V30 15679 H 1430.32 -2.45613 -3.37239 0
M  V30 15680 H 1428.95 -1.41705 -2.90034 0
M  V30 15681 H 1428.01 -3.45401 -1.59381 0
M  V30 15682 H 1429.32 -4.43277 -2.28708 0
M  V30 15683 H 1428.47 -3.96144 -4.59516 0
M  V30 15684 H 1427.21 -2.88299 -3.93364 0
M  V30 15685 H 1426.22 -4.80818 -2.66635 0
M  V30 15686 H 1427.44 -5.90237 -3.35854 0
M  V30 15687 H 1425.39 -4.31308 -4.94277 0
M  V30 15688 H 1425.3 -6.00774 -4.58919 0
M  V30 15689 H 1426.57 -5.40659 -5.61523 0
M  V30 15690 N 1430.8 0.469154 -1.50455 0
M  V30 15691 C 1431.73 1.57493 -1.7239 0
M  V30 15692 C 1432.71 1.60161 -0.572915 0
M  V30 15693 O 1433.9 1.76397 -0.812259 0
M  V30 15694 C 1431.03 2.95804 -1.81981 0
M  V30 15695 C 1429.98 3.08001 -2.97185 0
M  V30 15696 C 1429.31 4.4798 -2.91922 0
M  V30 15697 C 1430.61 2.85039 -4.37665 0
M  V30 15698 H 1432.3 1.39389 -2.64974 0
M  V30 15699 H 1429.85 0.669133 -1.27509 0
M  V30 15700 H 1431.8 3.73091 -1.95911 0
M  V30 15701 H 1430.52 3.15068 -0.86021 0
M  V30 15702 H 1429.18 2.33148 -2.82909 0
M  V30 15703 H 1428.83 4.64165 -1.93803 0
M  V30 15704 H 1428.53 4.57076 -3.69263 0
M  V30 15705 H 1430.05 5.27284 -3.07903 0
M  V30 15706 H 1431.47 3.52074 -4.52456 0
M  V30 15707 H 1429.87 3.05578 -5.16471 0
M  V30 15708 H 1430.94 1.8088 -4.499 0
M  V30 15709 N 1432.28 1.40065 0.722464 0
M  V30 15710 C 1433.21 1.35695 1.84715 0
M  V30 15711 C 1434.22 0.263522 1.60653 0
M  V30 15712 O 1435.41 0.523382 1.70655 0
M  V30 15713 C 1432.51 1.08722 3.20987 0
M  V30 15714 C 1431.69 2.29586 3.72302 0
M  V30 15715 C 1430.74 1.98879 4.87169 0
M  V30 15716 O 1429.77 2.71681 5.00178 0
M  V30 15717 N 1430.97 0.962554 5.72464 0
M  V30 15718 H 1433.74 2.32621 1.88964 0
M  V30 15719 H 1431.3 1.3433 0.903723 0
M  V30 15720 H 1433.29 0.861772 3.95418 0
M  V30 15721 H 1431.86 0.204869 3.11928 0
M  V30 15722 H 1431.08 2.68004 2.8908 0
M  V30 15723 H 1432.37 3.10176 4.03322 0
M  V30 15724 H 1431.77 0.359452 5.64557 0
M  V30 15725 H 1430.32 0.797003 6.46909 0
M  V30 15726 N 1433.76 -0.95397 1.25448 0
M  V30 15727 C 1434.69 -2.06828 1.08372 0
M  V30 15728 C 1435.67 -1.70098 -0.00741585 0
M  V30 15729 O 1436.85 -1.93521 0.16224 0
M  V30 15730 C 1433.98 -3.40124 0.702365 0
M  V30 15731 C 1432.94 -3.90865 1.74381 0
M  V30 15732 C 1432.26 -5.20663 1.21712 0
M  V30 15733 C 1433.56 -4.17169 3.14273 0
M  V30 15734 H 1435.26 -2.21372 2.01581 0
M  V30 15735 H 1432.8 -1.06374 0.970592 0
M  V30 15736 H 1434.76 -4.17529 0.569837 0
M  V30 15737 H 1433.48 -3.2552 -0.265428 0
M  V30 15738 H 1432.14 -3.15628 1.86479 0
M  V30 15739 H 1431.79 -5.02429 0.23954 0
M  V30 15740 H 1431.49 -5.55581 1.91319 0
M  V30 15741 H 1433.01 -6.00665 1.097 0
M  V30 15742 H 1434.43 -4.85231 3.05325 0
M  V30 15743 H 1432.82 -4.63344 3.81356 0
M  V30 15744 H 1433.89 -3.23421 3.61285 0
M  V30 15745 N 1435.24 -1.07045 -1.15668 0
M  V30 15746 C 1436.15 -0.699332 -2.23934 0
M  V30 15747 C 1437.16 0.288036 -1.71599 0
M  V30 15748 O 1438.34 0.135447 -2.00944 0
M  V30 15749 C 1435.4 -0.0994775 -3.46557 0
M  V30 15750 C 1434.46 -1.13968 -4.13896 0
M  V30 15751 C 1433.7 -0.56836 -5.30665 0
M  V30 15752 O 1433.92 0.616556 -5.67058 0
M  V30 15753 O 1432.85 -1.31174 -5.87432 0
M  V30 15754 H 1436.68 -1.60212 -2.58003 0
M  V30 15755 H 1434.26 -0.843202 -1.23331 0
M  V30 15756 H 1436.15 0.23293 -4.20756 0
M  V30 15757 H 1434.82 0.776684 -3.14244 0
M  V30 15758 H 1433.73 -1.5244 -3.41633 0
M  V30 15759 H 1435.06 -1.98764 -4.50282 0
M  V30 15760 N 1436.71 1.32449 -0.85411 0
M  V30 15761 C 1437.66 2.2889 -0.296341 0
M  V30 15762 C 1438.63 1.55024 0.596378 0
M  V30 15763 O 1439.82 1.8325 0.531406 0
M  V30 15764 C 1436.96 3.41315 0.509729 0
M  V30 15765 C 1436.07 4.30062 -0.40872 0
M  V30 15766 C 1435.2 5.29616 0.409928 0
M  V30 15767 C 1434.24 6.10005 -0.505953 0
M  V30 15768 N 1433.38 7.01559 0.275483 0
M  V30 15769 H 1438.22 2.75989 -1.12401 0
M  V30 15770 H 1435.76 1.35787 -0.565717 0
M  V30 15771 H 1437.71 4.05218 0.992697 0
M  V30 15772 H 1436.34 2.95367 1.30223 0
M  V30 15773 H 1435.4 3.66745 -1.01007 0
M  V30 15774 H 1436.71 4.86255 -1.11165 0
M  V30 15775 H 1435.86 5.99119 0.956083 0
M  V30 15776 H 1434.6 4.74039 1.14623 0
M  V30 15777 H 1433.61 5.39406 -1.064 0
M  V30 15778 H 1434.83 6.67667 -1.24086 0
M  V30 15779 H 1432.78 6.48412 0.994887 0
M  V30 15780 H 1432.69 7.55102 -0.368426 0
M  V30 15781 H 1433.96 7.75349 0.803382 0
M  V30 15782 N 1438.19 0.611994 1.45232 0
M  V30 15783 C 1439.44 0.109073 2.02506 0
M  V30 15784 C 1439.77 -1.25876 1.47881 0
M  V30 15785 O 1439.05 -1.83131 0.65524 0
M  V30 15786 C 1439.33 0.0749288 3.60022 0
M  V30 15787 C 1439.18 1.47374 4.24972 0
M  V30 15788 C 1440.5 -0.610602 4.35844 0
M  V30 15789 H 1437.62 0.0411101 0.735853 0
M  V30 15790 H 1440.26 0.78481 1.73034 0
M  V30 15791 H 1438.41 -0.500511 3.85262 0
M  V30 15792 H 1440.08 2.0966 4.10902 0
M  V30 15793 H 1438.33 2.03319 3.83202 0
M  V30 15794 H 1439 1.40206 5.33897 0
M  V30 15795 H 1441.47 -0.121445 4.15923 0
M  V30 15796 H 1440.35 -0.603614 5.45571 0
M  V30 15797 H 1440.61 -1.6775 4.09038 0
M  V30 15798 N 1439.67 -1.53632 0.351409 0
M  V30 15799 C 1440.9 -2.05458 -0.243852 0
M  V30 15800 C 1441.31 -1.22588 -1.43589 0
M  V30 15801 O 1440.67 -0.263088 -1.80594 0
M  V30 15802 C 1440.72 -3.55586 -0.651226 0
M  V30 15803 O 1440.44 -4.35313 0.493415 0
M  V30 15804 C 1441.94 -4.23614 -1.30637 0
M  V30 15805 H 1439.16 -0.669443 -0.0456828 0
M  V30 15806 H 1441.71 -1.98149 0.505675 0
M  V30 15807 H 1439.86 -3.63091 -1.35068 0
M  V30 15808 H 1440.28 -5.24234 0.167107 0
M  V30 15809 H 1441.75 -5.30022 -1.5421 0
M  V30 15810 H 1442.23 -3.76449 -2.26236 0
M  V30 15811 H 1442.83 -4.20323 -0.648738 0
M  V30 15812 N 1441.15 -0.0802183 -1.57396 0
M  V30 15813 C 1442.11 0.869437 -2.12069 0
M  V30 15814 C 1443.11 1.22079 -1.04658 0
M  V30 15815 O 1444.3 1.15267 -1.3061 0
M  V30 15816 C 1441.43 2.17016 -2.62901 0
M  V30 15817 H 1442.63 0.394952 -2.97288 0
M  V30 15818 H 1440.18 0.168597 -1.55388 0
M  V30 15819 H 1440.91 2.68983 -1.8116 0
M  V30 15820 H 1440.7 1.92808 -3.4142 0
M  V30 15821 H 1442.19 2.84982 -3.05246 0
M  V30 15822 N 1442.63 1.56409 0.193394 0
M  V30 15823 C 1443.54 1.97886 1.26009 0
M  V30 15824 C 1444.55 0.886786 1.49707 0
M  V30 15825 O 1445.73 1.19267 1.62288 0
M  V30 15826 C 1442.79 2.31145 2.58404 0
M  V30 15827 C 1441.85 3.54069 2.42763 0
M  V30 15828 C 1441.09 3.85732 3.68845 0
M  V30 15829 O 1441.31 3.18662 4.73086 0
M  V30 15830 O 1440.24 4.79155 3.64272 0
M  V30 15831 H 1444.07 2.88849 0.938087 0
M  V30 15832 H 1441.65 1.43987 0.398528 0
M  V30 15833 H 1443.54 2.53606 3.36544 0
M  V30 15834 H 1442.21 1.4335 2.90228 0
M  V30 15835 H 1441.12 3.36854 1.62728 0
M  V30 15836 H 1442.45 4.42335 2.15871 0
M  V30 15837 N 1444.1 -0.461169 1.50702 0
M  V30 15838 C 1445.07 -1.54032 1.69725 0
M  V30 15839 C 1446.07 -1.50445 0.567707 0
M  V30 15840 O 1447.26 -1.52889 0.834901 0
M  V30 15841 C 1444.39 -2.93642 1.73168 0
M  V30 15842 H 1445.58 -1.38478 2.66015 0
M  V30 15843 H 1443.13 -0.688235 1.40332 0
M  V30 15844 H 1443.87 -3.14629 0.786078 0
M  V30 15845 H 1443.65 -2.97652 2.55236 0
M  V30 15846 H 1445.14 -3.71972 1.89807 0
M  V30 15847 N 1445.58 -1.40446 -0.715026 0
M  V30 15848 C 1446.53 -1.40756 -1.82911 0
M  V30 15849 C 1447.5 -0.264443 -1.63981 0
M  V30 15850 O 1448.68 -0.462589 -1.85107 0
M  V30 15851 C 1445.82 -1.27648 -3.20624 0
M  V30 15852 C 1444.94 -2.5167 -3.51121 0
M  V30 15853 C 1444.07 -2.31 -4.78344 0
M  V30 15854 C 1443.11 -3.50596 -5.01746 0
M  V30 15855 N 1442.25 -3.29117 -6.20183 0
M  V30 15856 H 1447.09 -2.35981 -1.8198 0
M  V30 15857 H 1444.62 -1.17201 -0.888951 0
M  V30 15858 H 1446.58 -1.18054 -4.00149 0
M  V30 15859 H 1445.21 -0.360419 -3.20782 0
M  V30 15860 H 1444.26 -2.7179 -2.66147 0
M  V30 15861 H 1445.58 -3.4069 -3.64324 0
M  V30 15862 H 1444.73 -2.18763 -5.65887 0
M  V30 15863 H 1443.47 -1.39406 -4.67351 0
M  V30 15864 H 1442.47 -3.63309 -4.12658 0
M  V30 15865 H 1443.7 -4.43117 -5.14611 0
M  V30 15866 H 1441.65 -2.40206 -6.1044 0
M  V30 15867 H 1441.56 -4.11702 -6.34064 0
M  V30 15868 H 1442.83 -3.20614 -7.10512 0
M  V30 15869 N 1447.06 0.947303 -1.25952 0
M  V30 15870 C 1448.31 1.68721 -1.10527 0
M  V30 15871 C 1448.62 1.92403 0.352215 0
M  V30 15872 O 1449.83 2.6416 0.627036 0
M  V30 15873 C 1448.28 3.03785 -1.92983 0
M  V30 15874 C 1447.89 2.87873 -3.43268 0
M  V30 15875 C 1449.64 3.81509 -1.86149 0
M  V30 15876 C 1447.54 4.18373 -4.17993 0
M  V30 15877 H 1446.47 0.632774 -0.410016 0
M  V30 15878 H 1449.12 1.054 -1.5021 0
M  V30 15879 H 1447.51 3.68052 -1.46128 0
M  V30 15880 H 1448.68 2.32493 -3.97848 0
M  V30 15881 H 1446.99 2.23598 -3.51273 0
M  V30 15882 H 1449.59 4.78179 -2.39267 0
M  V30 15883 H 1449.93 4.07923 -0.83091 0
M  V30 15884 H 1450.47 3.24005 -2.30794 0
M  V30 15885 H 1447.21 3.97145 -5.21494 0
M  V30 15886 H 1446.73 4.7349 -3.68194 0
M  V30 15887 H 1448.41 4.86869 -4.26108 0
M  V30 15888 N 1448.54 1.07657 1.15099 0
M  V30 15889 C 1449.49 0.699678 2.19939 0
M  V30 15890 C 1450.46 -0.310432 1.63173 0
M  V30 15891 O 1451.64 -0.196177 1.89789 0
M  V30 15892 C 1448.78 0.106963 3.44934 0
M  V30 15893 C 1447.89 1.16892 4.15885 0
M  V30 15894 C 1447.03 0.540884 5.28439 0
M  V30 15895 C 1446.07 1.58542 5.91211 0
M  V30 15896 N 1445.2 0.979731 6.95231 0
M  V30 15897 H 1450.04 1.59805 2.51528 0
M  V30 15898 H 1447.58 0.798746 1.23525 0
M  V30 15899 H 1449.54 -0.254335 4.16424 0
M  V30 15900 H 1448.17 -0.754756 3.13852 0
M  V30 15901 H 1447.22 1.64775 3.4286 0
M  V30 15902 H 1448.53 1.96078 4.58645 0
M  V30 15903 H 1447.69 0.127397 6.06566 0
M  V30 15904 H 1446.43 -0.282708 4.8688 0
M  V30 15905 H 1445.43 2.00865 5.11794 0
M  V30 15906 H 1446.66 2.41135 6.34847 0
M  V30 15907 H 1444.6 0.177098 6.55761 0
M  V30 15908 H 1444.52 1.70878 7.36435 0
M  V30 15909 H 1445.79 0.591849 7.7725 0
M  V30 15910 N 1450.02 -1.31994 0.861122 0
M  V30 15911 C 1450.96 -2.28729 0.308476 0
M  V30 15912 C 1451.93 -1.55338 -0.588148 0
M  V30 15913 O 1453.12 -1.8353 -0.52168 0
M  V30 15914 C 1450.26 -3.4158 -0.491621 0
M  V30 15915 C 1449.37 -4.29839 0.431522 0
M  V30 15916 C 1448.51 -5.29826 -0.381836 0
M  V30 15917 C 1447.55 -6.09728 0.538296 0
M  V30 15918 N 1446.68 -7.01696 -0.238274 0
M  V30 15919 H 1451.52 -2.75389 1.13863 0
M  V30 15920 H 1449.06 -1.35485 0.572911 0
M  V30 15921 H 1451.02 -4.05738 -0.971193 0
M  V30 15922 H 1449.65 -2.96054 -1.28654 0
M  V30 15923 H 1448.7 -3.66204 1.02951 0
M  V30 15924 H 1450.01 -4.85658 1.13742 0
M  V30 15925 H 1449.17 -5.99618 -0.924297 0
M  V30 15926 H 1447.9 -4.7464 -1.12107 0
M  V30 15927 H 1446.91 -5.38834 1.09259 0
M  V30 15928 H 1448.13 -6.67 1.27625 0
M  V30 15929 H 1446.08 -6.4893 -0.960486 0
M  V30 15930 H 1446 -7.54896 0.408466 0
M  V30 15931 H 1447.27 -7.75764 -0.762252 0
M  V30 15932 N 1451.49 -0.619688 -1.44906 0
M  V30 15933 C 1452.42 0.0791121 -2.33366 0
M  V30 15934 C 1453.41 0.846503 -1.47541 0
M  V30 15935 O 1454.59 0.814657 -1.76287 0
M  V30 15936 C 1451.72 1.06901 -3.30438 0
M  V30 15937 C 1450.67 0.41403 -4.25993 0
M  V30 15938 C 1450 1.51303 -5.12846 0
M  V30 15939 C 1451.3 -0.672483 -5.17953 0
M  V30 15940 H 1452.99 -0.659551 -2.92045 0
M  V30 15941 H 1450.54 -0.318623 -1.40431 0
M  V30 15942 H 1452.49 1.56653 -3.912 0
M  V30 15943 H 1451.22 1.83842 -2.69944 0
M  V30 15944 H 1449.88 -0.0627315 -3.66546 0
M  V30 15945 H 1449.52 2.27303 -4.48712 0
M  V30 15946 H 1449.22 1.08022 -5.77586 0
M  V30 15947 H 1450.75 2.01258 -5.76479 0
M  V30 15948 H 1452.16 -0.258542 -5.72717 0
M  V30 15949 H 1450.56 -1.02776 -5.91234 0
M  V30 15950 H 1451.63 -1.54425 -4.59653 0
M  V30 15951 N 1452.97 1.53444 -0.359552 0
M  V30 15952 C 1453.88 2.29257 0.497834 0
M  V30 15953 C 1454.9 1.34987 1.09793 0
M  V30 15954 O 1456.07 1.68039 1.11017 0
M  V30 15955 C 1453.14 3.06258 1.62502 0
M  V30 15956 C 1452.2 4.16183 1.05308 0
M  V30 15957 C 1451.43 4.89503 2.12655 0
M  V30 15958 O 1451.66 4.6263 3.33661 0
M  V30 15959 O 1450.59 5.75578 1.76051 0
M  V30 15960 H 1454.42 3.03467 -0.118925 0
M  V30 15961 H 1452 1.48884 -0.124111 0
M  V30 15962 H 1453.88 3.5436 2.2805 0
M  V30 15963 H 1452.56 2.3489 2.22729 0
M  V30 15964 H 1451.47 3.72348 0.361679 0
M  V30 15965 H 1452.8 4.897 0.49545 0
M  V30 15966 N 1454.45 0.0885642 1.57351 0
M  V30 15967 C 1455.73 -0.618587 1.85561 0
M  V30 15968 C 1456.11 -1.86753 0.984206 0
M  V30 15969 O 1455.46 -2.28434 0.0548839 0
M  V30 15970 C 1455.67 -0.940222 3.36096 0
M  V30 15971 C 1457.01 -1.30649 4.04 0
M  V30 15972 O 1458.04 -1.03144 3.4094 0
M  V30 15973 O 1456.9 -1.82135 5.15256 0
M  V30 15974 H 1453.99 -0.308881 0.767152 0
M  V30 15975 H 1456.54 0.120767 1.6927 0
M  V30 15976 H 1455.31 -0.0538991 3.91263 0
M  V30 15977 H 1454.93 -1.73577 3.5771 0
M  V30 15978 N 1455.93 -1.56509 -0.185096 0
M  V30 15979 C 1456.84 -1.98552 -1.24958 0
M  V30 15980 C 1457.85 -0.894713 -1.49234 0
M  V30 15981 O 1459.03 -1.20126 -1.61653 0
M  V30 15982 C 1456.1 -2.32513 -2.57175 0
M  V30 15983 C 1455.16 -3.55351 -2.40882 0
M  V30 15984 C 1454.39 -3.87683 -3.66794 0
M  V30 15985 O 1454.61 -3.21167 -4.7139 0
M  V30 15986 O 1453.55 -4.8108 -3.61726 0
M  V30 15987 H 1457.37 -2.89342 -0.922756 0
M  V30 15988 H 1454.96 -1.44196 -0.390887 0
M  V30 15989 H 1456.84 -2.55387 -3.35195 0
M  V30 15990 H 1455.51 -1.44888 -2.89464 0
M  V30 15991 H 1454.42 -3.37712 -1.60939 0
M  V30 15992 H 1455.75 -4.43474 -2.13522 0
M  V30 15993 N 1457.41 0.45317 -1.50944 0
M  V30 15994 C 1458.66 1.20076 -1.62064 0
M  V30 15995 C 1458.97 1.92709 -0.335034 0
M  V30 15996 O 1460.17 2.69543 -0.32538 0
M  V30 15997 C 1458.63 2.18283 -2.86148 0
M  V30 15998 C 1458.24 1.5137 -4.21653 0
M  V30 15999 C 1459.98 2.93572 -3.0662 0
M  V30 16000 C 1457.89 2.47968 -5.36904 0
M  V30 16001 H 1456.82 0.451894 -0.603579 0
M  V30 16002 H 1459.47 0.46937 -1.77396 0
M  V30 16003 H 1457.85 2.94789 -2.64415 0
M  V30 16004 H 1459.03 0.805295 -4.53709 0
M  V30 16005 H 1457.34 0.882935 -4.06931 0
M  V30 16006 H 1459.94 3.65903 -3.89897 0
M  V30 16007 H 1460.28 3.54003 -2.1906 0
M  V30 16008 H 1460.81 2.24175 -3.28619 0
M  V30 16009 H 1457.55 1.92249 -6.26674 0
M  V30 16010 H 1457.07 3.16907 -5.09244 0
M  V30 16011 H 1458.75 3.09428 -5.6821 0
M  V30 16012 N 1458.88 1.40823 0.707568 0
M  V30 16013 C 1459.81 1.44485 1.83429 0
M  V30 16014 C 1460.8 0.304848 1.67346 0
M  V30 16015 O 1461.98 0.514605 1.87258 0
M  V30 16016 C 1459.11 1.31458 3.21459 0
M  V30 16017 C 1458.06 2.43145 3.52228 0
M  V30 16018 C 1457.39 2.15189 4.89487 0
M  V30 16019 C 1458.69 3.85489 3.52414 0
M  V30 16020 H 1460.38 2.38781 1.80622 0
M  V30 16021 H 1457.93 1.14931 0.867572 0
M  V30 16022 H 1459.88 1.32635 3.99983 0
M  V30 16023 H 1458.61 0.336422 3.24863 0
M  V30 16024 H 1457.27 2.41231 2.76049 0
M  V30 16025 H 1456.91 1.15745 4.89502 0
M  V30 16026 H 1456.61 2.90022 5.11039 0
M  V30 16027 H 1458.14 2.18062 5.70334 0
M  V30 16028 H 1459.55 3.89183 4.20963 0
M  V30 16029 H 1457.95 4.59906 3.85495 0
M  V30 16030 H 1459.02 4.14499 2.51632 0
M  V30 16031 N 1460.36 -0.94061 1.26453 0
M  V30 16032 C 1461.61 -1.68937 1.12197 0
M  V30 16033 C 1461.94 -1.91309 -0.33382 0
M  V30 16034 O 1461.22 -1.49417 -1.24518 0
M  V30 16035 C 1461.5 -3.06381 1.89215 0
M  V30 16036 C 1461.35 -2.91331 3.42704 0
M  V30 16037 C 1462.67 -4.06507 1.68642 0
M  V30 16038 H 1459.79 -0.613121 0.408964 0
M  V30 16039 H 1462.43 -1.09242 1.55455 0
M  V30 16040 H 1460.58 -3.57339 1.5245 0
M  V30 16041 H 1462.25 -2.47591 3.89226 0
M  V30 16042 H 1460.5 -2.26945 3.697 0
M  V30 16043 H 1461.17 -3.88818 3.91822 0
M  V30 16044 H 1463.64 -3.64512 2.00674 0
M  V30 16045 H 1462.52 -5.0069 2.24945 0
M  V30 16046 H 1462.78 -4.37572 0.631131 0
M  V30 16047 N 1461.84 -1.08266 -1.14527 0
M  V30 16048 C 1462.77 -0.655392 -2.18586 0
M  V30 16049 C 1463.75 0.332109 -1.59172 0
M  V30 16050 O 1464.94 0.236315 -1.87013 0
M  V30 16051 C 1462.06 0.0362295 -3.38681 0
M  V30 16052 C 1461.11 -0.91119 -4.16653 0
M  V30 16053 S 1461.94 -2.4171 -4.77846 0
M  V30 16054 C 1463.1 -1.73755 -6.01299 0
M  V30 16055 H 1463.33 -1.53694 -2.54491 0
M  V30 16056 H 1460.86 -0.897499 -1.25636 0
M  V30 16057 H 1462.82 0.428996 -4.08252 0
M  V30 16058 H 1461.48 0.894253 -3.01101 0
M  V30 16059 H 1460.68 -0.374143 -5.02609 0
M  V30 16060 H 1460.28 -1.24478 -3.52677 0
M  V30 16061 H 1462.57 -1.05465 -6.69241 0
M  V30 16062 H 1463.51 -2.5758 -6.59589 0
M  V30 16063 H 1463.92 -1.21153 -5.51346 0
M  V30 16064 N 1463.32 1.31536 -0.86811 0
M  V30 16065 C 1464.6 1.9149 -0.398866 0
M  V30 16066 C 1464.98 1.79008 1.1189 0
M  V30 16067 O 1464.32 1.19659 1.94664 0
M  V30 16068 C 1464.53 3.37771 -0.878173 0
M  V30 16069 C 1465.88 4.14882 -0.903216 0
M  V30 16070 O 1466.91 3.46545 -0.823703 0
M  V30 16071 O 1465.77 5.36936 -1.01794 0
M  V30 16072 H 1462.86 0.818398 -0.118971 0
M  V30 16073 H 1465.41 1.40216 -0.955899 0
M  V30 16074 H 1464.18 3.40861 -1.9217 0
M  V30 16075 H 1463.8 3.96472 -0.299346 0
M  V30 16076 N 1464.8 0.627364 1.44575 0
M  V30 16077 C 1466.07 0.0614392 1.95503 0
M  V30 16078 C 1466.45 -1.41182 1.56942 0
M  V30 16079 O 1465.8 -2.12435 0.841634 0
M  V30 16080 C 1466.01 0.280349 3.47872 0
M  V30 16081 C 1467.36 0.171559 4.24253 0
M  V30 16082 O 1468.38 0.211515 3.55571 0
M  V30 16083 O 1467.24 0.0733152 5.46451 0
M  V30 16084 H 1464.34 -0.0244626 0.826638 0
M  V30 16085 H 1466.88 0.698805 1.54644 0
M  V30 16086 H 1465.66 1.30278 3.68976 0
M  V30 16087 H 1465.28 -0.391336 3.95669 0
M  V30 16088 N 1466.28 -1.53251 0.367684 0
M  V30 16089 C 1467.21 -2.23396 -0.512539 0
M  V30 16090 C 1468.22 -1.2488 -1.04446 0
M  V30 16091 O 1469.41 -1.5109 -0.950477 0
M  V30 16092 C 1466.51 -2.91971 -1.72064 0
M  V30 16093 C 1465.68 -4.17011 -1.31986 0
M  V30 16094 C 1464.74 -4.68779 -2.39025 0
M  V30 16095 O 1463.77 -5.32405 -2.01328 0
M  V30 16096 N 1464.97 -4.46773 -3.7064 0
M  V30 16097 H 1467.73 -2.9957 0.0883152 0
M  V30 16098 H 1465.3 -1.60746 0.192966 0
M  V30 16099 H 1467.29 -3.23511 -2.43152 0
M  V30 16100 H 1465.86 -2.19237 -2.22831 0
M  V30 16101 H 1465.08 -3.91751 -0.438732 0
M  V30 16102 H 1466.37 -4.98298 -1.02842 0
M  V30 16103 H 1465.76 -3.95938 -4.04042 0
M  V30 16104 H 1464.32 -4.82857 -4.37827 0
M  V30 16105 N 1467.75 -0.0969077 -1.57302 0
M  V30 16106 C 1468.7 0.878876 -2.15357 0
M  V30 16107 C 1469.7 1.29091 -1.0969 0
M  V30 16108 O 1470.9 1.26523 -1.28031 0
M  V30 16109 H 1467.28 0.301458 -0.688932 0
M  V30 16110 H 1469.25 0.364542 -2.96165 0
M  V30 16111 C 1468 2.12761 -2.75006 0
M  V30 16112 H 1467.32 1.81944 -3.56 0
M  V30 16113 H 1468.76 2.79092 -3.19193 0
M  V30 16114 C 1467.22 2.90283 -1.70989 0
M  V30 16115 O 1467.75 3.84889 -1.14992 0
M  V30 16116 N 1465.95 2.53857 -1.41439 0
M  V30 16117 H 1465.5 1.76993 -1.87166 0
M  V30 16118 H 1465.46 3.06025 -0.720816 0
M  V30 16119 N 1469.23 1.56605 0.176793 0
M  V30 16120 C 1470.18 1.96896 1.23833 0
M  V30 16121 C 1471.17 0.85693 1.46127 0
M  V30 16122 O 1472.38 1.04202 1.46772 0
M  V30 16123 H 1468.75 0.626363 0.416141 0
M  V30 16124 H 1470.73 2.85387 0.871607 0
M  V30 16125 C 1469.47 2.34034 2.57145 0
M  V30 16126 H 1468.8 3.1914 2.40811 0
M  V30 16127 H 1470.24 2.66074 3.30122 0
M  V30 16128 C 1468.7 1.18171 3.15495 0
M  V30 16129 O 1469.23 0.466448 3.98983 0
M  V30 16130 N 1467.43 0.953705 2.74505 0
M  V30 16131 H 1466.98 1.5371 2.06715 0
M  V30 16132 H 1466.94 0.180307 3.13883 0
M  V30 16133 N 1470.71 -0.445159 1.51182 0
M  V30 16134 C 1471.66 -1.53975 1.71931 0
M  V30 16135 C 1472.63 -1.56344 0.560865 0
M  V30 16136 O 1473.81 -1.73475 0.794414 0
M  V30 16137 C 1470.95 -2.91756 1.84316 0
M  V30 16138 C 1470.06 -2.98976 3.11829 0
M  V30 16139 C 1469.2 -4.27831 3.14855 0
M  V30 16140 C 1468.24 -4.2889 4.36715 0
M  V30 16141 N 1467.38 -5.49257 4.37334 0
M  V30 16142 H 1472.22 -1.35586 2.65368 0
M  V30 16143 H 1469.75 -0.658787 1.31523 0
M  V30 16144 H 1471.71 -3.7169 1.89479 0
M  V30 16145 H 1470.34 -3.08721 0.942947 0
M  V30 16146 H 1469.39 -2.11753 3.16014 0
M  V30 16147 H 1470.7 -2.95619 4.01759 0
M  V30 16148 H 1469.86 -5.16134 3.1889 0
M  V30 16149 H 1468.6 -4.33833 2.228 0
M  V30 16150 H 1467.6 -3.38982 4.32864 0
M  V30 16151 H 1468.83 -4.24558 5.30026 0
M  V30 16152 H 1466.77 -5.55995 3.48145 0
M  V30 16153 H 1466.69 -5.47748 5.21064 0
M  V30 16154 H 1467.96 -6.39613 4.45551 0
M  V30 16155 N 1472.19 -1.41197 -0.700089 0
M  V30 16156 C 1473.12 -1.45456 -1.8266 0
M  V30 16157 C 1474.1 -0.313719 -1.67182 0
M  V30 16158 O 1475.28 -0.524528 -1.86982 0
M  V30 16159 C 1472.41 -1.33161 -3.20758 0
M  V30 16160 C 1471.37 -2.4501 -3.50933 0
M  V30 16161 C 1470.69 -2.17782 -4.88339 0
M  V30 16162 C 1471.99 -3.87352 -3.50365 0
M  V30 16163 H 1473.69 -2.39735 -1.79353 0
M  V30 16164 H 1471.23 -1.1539 -0.861465 0
M  V30 16165 H 1473.19 -1.34754 -3.99274 0
M  V30 16166 H 1471.91 -0.353646 -3.2468 0
M  V30 16167 H 1470.57 -2.42692 -2.74766 0
M  V30 16168 H 1470.22 -1.1834 -4.88881 0
M  V30 16169 H 1469.92 -2.92728 -5.09494 0
M  V30 16170 H 1471.44 -2.21083 -5.6917 0
M  V30 16171 H 1472.86 -3.9141 -4.18893 0
M  V30 16172 H 1471.25 -4.61944 -3.83051 0
M  V30 16173 H 1472.32 -4.15827 -2.4943 0
M  V30 16174 N 1473.67 0.933891 -1.2695 0
M  V30 16175 C 1474.89 1.72042 -1.15828 0
M  V30 16176 C 1475.32 1.85975 0.28193 0
M  V30 16177 O 1474.67 1.35528 1.20423 0
M  V30 16178 C 1474.72 3.10112 -1.84019 0
M  V30 16179 O 1473.83 3.96504 -1.13394 0
M  V30 16180 H 1473.17 0.527573 -0.40319 0
M  V30 16181 H 1475.7 1.16914 -1.67905 0
M  V30 16182 H 1475.71 3.60461 -1.91133 0
M  V30 16183 H 1474.38 2.99287 -2.8879 0
M  V30 16184 H 1472.96 3.54948 -1.14307 0
M  V30 16185 N 1475.14 1.08871 1.13951 0
M  V30 16186 C 1476.09 0.722966 2.19184 0
M  V30 16187 C 1477.06 -0.293108 1.63493 0
M  V30 16188 O 1478.25 -0.176036 1.89986 0
M  V30 16189 C 1475.39 0.143542 3.44801 0
M  V30 16190 C 1474.5 1.21297 4.14622 0
M  V30 16191 C 1473.63 0.596902 5.27836 0
M  V30 16192 C 1472.67 1.64803 5.89497 0
M  V30 16193 N 1471.81 1.05341 6.94152 0
M  V30 16194 H 1476.65 1.62464 2.49819 0
M  V30 16195 H 1474.19 0.811803 1.22671 0
M  V30 16196 H 1476.14 -0.210153 4.1667 0
M  V30 16197 H 1474.77 -0.721426 3.14635 0
M  V30 16198 H 1473.83 1.68403 3.41093 0
M  V30 16199 H 1475.14 2.00931 4.56539 0
M  V30 16200 H 1474.29 0.191724 6.06397 0
M  V30 16201 H 1473.03 -0.231052 4.87152 0
M  V30 16202 H 1472.04 2.06282 5.09635 0
M  V30 16203 H 1473.26 2.47855 6.32254 0
M  V30 16204 H 1471.21 0.24664 6.55536 0
M  V30 16205 H 1471.12 1.7868 7.34581 0
M  V30 16206 H 1472.39 0.674253 7.76578 0
M  V30 16207 N 1476.62 -1.31073 0.875073 0
M  V30 16208 C 1477.53 -2.3215 0.338196 0
M  V30 16209 C 1478.55 -1.64928 -0.554504 0
M  V30 16210 O 1479.72 -1.96308 -0.449998 0
M  V30 16211 C 1476.79 -3.43804 -0.447163 0
M  V30 16212 C 1475.85 -4.26674 0.474106 0
M  V30 16213 C 1475.08 -5.32997 -0.273867 0
M  V30 16214 O 1475.31 -5.50288 -1.50129 0
M  V30 16215 O 1474.24 -6.00756 0.370913 0
M  V30 16216 H 1478.07 -2.80002 1.17612 0
M  V30 16217 H 1475.65 -1.35064 0.6386 0
M  V30 16218 H 1477.53 -4.11847 -0.892199 0
M  V30 16219 H 1476.21 -2.98105 -1.26155 0
M  V30 16220 H 1475.11 -3.61366 0.967748 0
M  V30 16221 H 1476.45 -4.75952 1.25423 0
M  V30 16222 N 1478.1 -0.635022 -1.4424 0
M  V30 16223 C 1479.52 -0.300978 -1.56736 0
M  V30 16224 C 1479.72 1.19571 -1.62188 0
M  V30 16225 O 1478.77 1.97991 -1.56703 0
M  V30 16226 C 1480.09 -0.996327 -2.83714 0
M  V30 16227 C 1481.63 -0.97484 -2.97432 0
M  V30 16228 C 1482.11 -1.65073 -4.27218 0
M  V30 16229 N 1483.6 -1.6175 -4.3404 0
M  V30 16230 C 1484.33 -2.10938 -5.33191 0
M  V30 16231 N 1483.83 -2.68333 -6.38725 0
M  V30 16232 N 1485.62 -2.01544 -5.24725 0
M  V30 16233 H 1477.77 -1.60649 -1.38945 0
M  V30 16234 H 1480.04 -0.674561 -0.666087 0
M  V30 16235 H 1479.74 -2.05128 -2.85684 0
M  V30 16236 H 1479.62 -0.536511 -3.73365 0
M  V30 16237 H 1482 0.071646 -2.95013 0
M  V30 16238 H 1482.09 -1.47318 -2.0912 0
M  V30 16239 H 1481.73 -2.69669 -4.30397 0
M  V30 16240 H 1481.66 -1.12719 -5.14395 0
M  V30 16241 H 1484.15 -1.1985 -3.58392 0
M  V30 16242 H 1484.46 -3.03588 -7.10672 0
M  V30 16243 H 1482.81 -2.72385 -6.39399 0
M  V30 16244 H 1486 -1.56423 -4.41191 0
M  V30 16245 H 1486.17 -2.40187 -6.01842 0
M  V30 16246 N 1479.58 1.53054 -0.375806 0
M  V30 16247 C 1480.53 2.2605 0.46582 0
M  V30 16248 C 1481.5 1.27123 1.06906 0
M  V30 16249 O 1482.68 1.55926 1.09963 0
M  V30 16250 C 1479.82 3.06066 1.59429 0
M  V30 16251 C 1478.93 4.19901 1.01523 0
M  V30 16252 C 1478.07 4.87339 2.11363 0
M  V30 16253 C 1477.11 5.93189 1.50976 0
M  V30 16254 N 1476.24 6.54276 2.54692 0
M  V30 16255 H 1481.08 2.97553 -0.163149 0
M  V30 16256 H 1478.62 1.4681 -0.092282 0
M  V30 16257 H 1480.58 3.50739 2.25915 0
M  V30 16258 H 1479.21 2.36799 2.19377 0
M  V30 16259 H 1478.26 3.7964 0.240346 0
M  V30 16260 H 1479.57 4.95935 0.533812 0
M  V30 16261 H 1478.73 5.35247 2.85649 0
M  V30 16262 H 1477.47 4.10799 2.6286 0
M  V30 16263 H 1476.47 5.44632 0.752095 0
M  V30 16264 H 1477.7 6.71654 1.00291 0
M  V30 16265 H 1475.64 5.80584 3.05383 0
M  V30 16266 H 1475.56 7.2588 2.11267 0
M  V30 16267 H 1476.83 7.06831 3.28648 0
M  V30 16268 N 1481.06 0.105248 1.57248 0
M  V30 16269 C 1481.99 -0.846915 2.176 0
M  V30 16270 C 1482.97 -1.28706 1.11216 0
M  V30 16271 O 1484.15 -1.35213 1.39396 0
M  V30 16272 C 1481.28 -2.10228 2.76445 0
M  V30 16273 C 1480.24 -1.80041 3.8829 0
M  V30 16274 C 1479.56 -3.12491 4.33882 0
M  V30 16275 C 1480.86 -1.07943 5.11024 0
M  V30 16276 H 1482.56 -0.344052 2.97417 0
M  V30 16277 H 1480.1 -0.164045 1.43063 0
M  V30 16278 H 1482.06 -2.77284 3.17319 0
M  V30 16279 H 1480.78 -2.62815 1.93897 0
M  V30 16280 H 1479.44 -1.15379 3.4797 0
M  V30 16281 H 1479.09 -3.62985 3.48211 0
M  V30 16282 H 1478.79 -2.93072 5.09296 0
M  V30 16283 H 1480.31 -3.80688 4.77398 0
M  V30 16284 H 1481.72 -1.65127 5.49004 0
M  V30 16285 H 1480.12 -0.986674 5.91933 0
M  V30 16286 H 1481.19 -0.0638511 4.84858 0
M  V30 16287 N 1482.53 -1.56697 -0.168486 0
M  V30 16288 C 1483.46 -1.99659 -1.21073 0
M  V30 16289 C 1484.45 -0.872625 -1.46011 0
M  V30 16290 O 1485.63 -1.13891 -1.57297 0
M  V30 16291 C 1482.76 -2.35889 -2.54899 0
M  V30 16292 C 1481.71 -3.51272 -2.44524 0
M  V30 16293 C 1481.04 -3.73253 -3.82866 0
M  V30 16294 C 1482.34 -4.84631 -1.94756 0
M  V30 16295 H 1484.03 -2.86974 -0.853593 0
M  V30 16296 H 1481.58 -1.38065 -0.409165 0
M  V30 16297 H 1483.53 -2.64542 -3.28017 0
M  V30 16298 H 1482.26 -1.45486 -2.92406 0
M  V30 16299 H 1480.92 -3.22751 -1.7386 0
M  V30 16300 H 1480.56 -2.80136 -4.17772 0
M  V30 16301 H 1480.26 -4.5089 -3.76792 0
M  V30 16302 H 1481.79 -4.04309 -4.57566 0
M  V30 16303 H 1483.2 -5.12142 -2.5765 0
M  V30 16304 H 1481.6 -5.65925 -1.99623 0
M  V30 16305 H 1482.67 -4.76436 -0.902021 0
M  V30 16306 N 1484.01 0.437135 -1.51416 0
M  V30 16307 C 1484.92 1.55581 -1.75589 0
M  V30 16308 C 1485.94 1.61797 -0.640132 0
M  V30 16309 O 1487.11 1.79035 -0.922406 0
M  V30 16310 C 1484.18 2.91561 -1.87598 0
M  V30 16311 C 1483.24 2.9546 -3.11451 0
M  V30 16312 C 1482.47 4.24954 -3.22878 0
M  V30 16313 O 1482.7 5.17341 -2.40238 0
M  V30 16314 O 1481.63 4.35141 -4.15856 0
M  V30 16315 H 1485.46 1.38098 -2.70486 0
M  V30 16316 H 1483.04 0.620163 -1.3592 0
M  V30 16317 H 1484.92 3.72262 -1.97481 0
M  V30 16318 H 1483.6 3.09171 -0.958889 0
M  V30 16319 H 1482.51 2.13713 -3.07046 0
M  V30 16320 H 1483.84 2.82794 -4.0285 0
M  V30 16321 N 1485.49 1.41566 0.692592 0
M  V30 16322 C 1486.4 1.46014 1.83622 0
M  V30 16323 C 1487.42 0.350453 1.70434 0
M  V30 16324 O 1488.59 0.598634 1.92298 0
M  V30 16325 C 1485.66 1.34308 3.19628 0
M  V30 16326 C 1484.72 2.55617 3.44904 0
M  V30 16327 C 1483.95 2.4446 4.74421 0
M  V30 16328 O 1484.17 1.47078 5.51112 0
M  V30 16329 O 1483.11 3.34272 5.00546 0
M  V30 16330 H 1486.93 2.42504 1.82826 0
M  V30 16331 H 1484.52 1.23136 0.846039 0
M  V30 16332 H 1486.4 1.30075 4.00822 0
M  V30 16333 H 1485.08 0.409343 3.21101 0
M  V30 16334 H 1483.98 2.65426 2.63628 0
M  V30 16335 H 1485.32 3.47829 3.48247 0
M  V30 16336 N 1486.97 -0.927146 1.27443 0
M  V30 16337 C 1488.38 -1.20319 1.0486 0
M  V30 16338 C 1488.58 -2.00323 -0.217491 0
M  V30 16339 O 1487.64 -2.35032 -0.922833 0
M  V30 16340 C 1488.95 -1.9508 2.28833 0
M  V30 16341 C 1490.5 -2.08016 2.33877 0
M  V30 16342 C 1490.98 -2.86183 3.5758 0
M  V30 16343 N 1492.47 -2.93751 3.58141 0
M  V30 16344 C 1493.2 -3.54698 4.5053 0
M  V30 16345 N 1492.7 -4.17032 5.53223 0
M  V30 16346 N 1494.49 -3.52107 4.38152 0
M  V30 16347 H 1486.64 -0.392671 2.08739 0
M  V30 16348 H 1488.91 -0.236323 0.918072 0
M  V30 16349 H 1488.61 -1.43712 3.20998 0
M  V30 16350 H 1488.49 -2.95692 2.34193 0
M  V30 16351 H 1490.87 -2.5857 1.42217 0
M  V30 16352 H 1490.95 -1.06622 2.3252 0
M  V30 16353 H 1490.6 -2.36312 4.49576 0
M  V30 16354 H 1490.53 -3.87863 3.56188 0
M  V30 16355 H 1493.02 -2.49449 2.83872 0
M  V30 16356 H 1493.33 -4.61477 6.19886 0
M  V30 16357 H 1491.68 -4.15576 5.57065 0
M  V30 16358 H 1494.87 -3.02611 3.57134 0
M  V30 16359 H 1495.04 -3.99315 5.10344 0
M  V30 16360 N 1488.45 -1.09474 -1.13372 0
M  V30 16361 C 1489.7 -0.825968 -1.84013 0
M  V30 16362 C 1490.01 0.650623 -1.84462 0
M  V30 16363 O 1491.21 1.03495 -2.51 0
M  V30 16364 C 1489.67 -1.42769 -3.30371 0
M  V30 16365 C 1489.28 -2.93686 -3.38308 0
M  V30 16366 C 1491.02 -1.23788 -4.0605 0
M  V30 16367 C 1488.93 -3.46942 -4.78942 0
M  V30 16368 H 1487.86 -0.305322 -0.689416 0
M  V30 16369 H 1490.51 -1.31751 -1.27726 0
M  V30 16370 H 1488.89 -0.86384 -3.86463 0
M  V30 16371 H 1490.07 -3.56302 -2.92208 0
M  V30 16372 H 1488.38 -3.11706 -2.76094 0
M  V30 16373 H 1490.98 -1.61031 -5.09876 0
M  V30 16374 H 1491.32 -0.178578 -4.15917 0
M  V30 16375 H 1491.85 -1.76927 -3.56289 0
M  V30 16376 H 1488.59 -4.52495 -4.74267 0
M  V30 16377 H 1488.11 -2.8909 -5.25535 0
M  V30 16378 H 1489.79 -3.44176 -5.47861 0
M  V30 16379 N 1489.92 1.30607 -0.882012 0
M  V30 16380 C 1491.15 2.00954 -0.513048 0
M  V30 16381 C 1491.57 1.65697 0.890279 0
M  V30 16382 O 1490.93 0.872001 1.58952 0
M  V30 16383 C 1490.98 3.53907 -0.691525 0
M  V30 16384 O 1490.08 4.11555 0.263896 0
M  V30 16385 H 1489.43 0.632356 -0.202537 0
M  V30 16386 H 1491.96 1.66524 -1.18874 0
M  V30 16387 H 1491.97 4.0372 -0.589392 0
M  V30 16388 H 1490.64 3.78907 -1.71471 0
M  V30 16389 H 1489.22 3.7272 0.115707 0
M  V30 16390 N 1491.4 0.642663 1.43901 0
M  V30 16391 C 1492.68 0.0821715 1.95427 0
M  V30 16392 C 1493.06 -1.3951 1.58431 0
M  V30 16393 O 1492.41 -2.11531 0.864118 0
M  V30 16394 C 1492.62 0.317229 3.47555 0
M  V30 16395 C 1493.97 0.216547 4.24047 0
M  V30 16396 O 1494.99 0.249216 3.55327 0
M  V30 16397 O 1493.85 0.131269 5.46342 0
M  V30 16398 H 1490.94 -0.0156936 0.826851 0
M  V30 16399 H 1493.49 0.715168 1.53894 0
M  V30 16400 H 1492.26 1.34184 3.67574 0
M  V30 16401 H 1491.88 -0.349348 3.96062 0
M  V30 16402 N 1492.88 -1.52852 0.383918 0
M  V30 16403 C 1493.81 -2.29213 -0.44539 0
M  V30 16404 C 1494.79 -1.3238 -1.06815 0
M  V30 16405 O 1495.98 -1.61269 -1.08194 0
M  V30 16406 C 1493.11 -3.09497 -1.57573 0
M  V30 16407 C 1492.06 -4.14168 -1.07928 0
M  V30 16408 C 1491.39 -4.82644 -2.30128 0
M  V30 16409 C 1492.69 -5.22082 -0.151035 0
M  V30 16410 H 1494.38 -2.98786 0.19172 0
M  V30 16411 H 1491.93 -1.43695 0.0936471 0
M  V30 16412 H 1493.88 -3.61672 -2.16267 0
M  V30 16413 H 1492.6 -2.37647 -2.24034 0
M  V30 16414 H 1491.26 -3.62966 -0.514909 0
M  V30 16415 H 1490.91 -4.07348 -2.95087 0
M  V30 16416 H 1490.61 -5.53388 -1.97574 0
M  V30 16417 H 1492.14 -5.37621 -2.89475 0
M  V30 16418 H 1493.55 -5.69649 -0.646003 0
M  V30 16419 H 1491.95 -6.00041 0.0844833 0
M  V30 16420 H 1493.02 -4.78228 0.801618 0
M  V30 16421 N 1494.36 -0.113586 -1.5719 0
M  V30 16422 C 1495.59 0.553592 -1.99356 0
M  V30 16423 C 1496 1.60567 -0.993154 0
M  V30 16424 O 1495.36 1.82494 0.0147252 0
M  V30 16425 C 1495.41 1.18462 -3.41539 0
M  V30 16426 O 1495.13 0.174602 -4.37752 0
M  V30 16427 C 1496.63 1.93564 -3.98808 0
M  V30 16428 H 1493.85 0.146998 -0.6547 0
M  V30 16429 H 1496.4 -0.198329 -2.03536 0
M  V30 16430 H 1494.55 1.88736 -3.38316 0
M  V30 16431 H 1494.97 0.632395 -5.20674 0
M  V30 16432 H 1496.44 2.33051 -5.00391 0
M  V30 16433 H 1496.92 2.80874 -3.37648 0
M  V30 16434 H 1497.52 1.28066 -4.0556 0
M  V30 16435 N 1495.84 1.56784 0.160173 0
M  V30 16436 C 1497.07 1.86767 0.89026 0
M  V30 16437 C 1497.48 0.700276 1.75333 0
M  V30 16438 O 1496.84 -0.330342 1.79485 0
M  V30 16439 C 1496.89 3.15883 1.75784 0
M  V30 16440 O 1496.61 4.28124 0.929575 0
M  V30 16441 C 1498.11 3.5929 2.59664 0
M  V30 16442 H 1495.33 0.61938 0.258088 0
M  V30 16443 H 1497.87 2.03897 0.156919 0
M  V30 16444 H 1496.03 3.00546 2.4444 0
M  V30 16445 H 1496.44 5.01872 1.52397 0
M  V30 16446 H 1497.92 4.52506 3.16136 0
M  V30 16447 H 1498.39 2.83943 3.35072 0
M  V30 16448 H 1499 3.77277 1.96323 0
M  V30 16449 N 1497.32 -0.429099 1.51646 0
M  V30 16450 C 1498.26 -1.54202 1.74139 0
M  V30 16451 C 1499.26 -1.58117 0.607905 0
M  V30 16452 O 1500.46 -1.61763 0.789486 0
M  V30 16453 H 1496.84 -0.512456 0.550357 0
M  V30 16454 H 1498.81 -1.32408 2.67415 0
M  V30 16455 C 1497.56 -2.91779 1.89104 0
M  V30 16456 H 1496.88 -2.89502 2.75733 0
M  V30 16457 H 1498.32 -3.68995 2.08851 0
M  V30 16458 C 1496.78 -3.30512 0.652945 0
M  V30 16459 O 1497.31 -4.01257 -0.188553 0
M  V30 16460 N 1495.52 -2.86359 0.494634 0
M  V30 16461 H 1495.06 -2.28959 1.18049 0
M  V30 16462 H 1495.02 -3.12637 -0.332503 0
M  V30 16463 N 1498.79 -1.41931 -0.685074 0
M  V30 16464 C 1499.72 -1.47385 -1.81107 0
M  V30 16465 C 1500.7 -0.331433 -1.6684 0
M  V30 16466 O 1501.89 -0.544331 -1.86415 0
M  V30 16467 C 1499.02 -1.36555 -3.19327 0
M  V30 16468 C 1497.97 -2.48718 -3.48315 0
M  V30 16469 C 1497.3 -2.2295 -4.86002 0
M  V30 16470 C 1498.6 -3.91047 -3.46237 0
M  V30 16471 H 1500.29 -2.41624 -1.768 0
M  V30 16472 H 1497.84 -1.16297 -0.849178 0
M  V30 16473 H 1499.79 -1.38981 -3.97822 0
M  V30 16474 H 1498.52 -0.388063 -3.24286 0
M  V30 16475 H 1497.18 -2.45592 -2.72176 0
M  V30 16476 H 1496.82 -1.23518 -4.87598 0
M  V30 16477 H 1496.52 -2.98116 -5.0636 0
M  V30 16478 H 1498.05 -2.27108 -5.66793 0
M  V30 16479 H 1499.46 -3.95831 -4.14718 0
M  V30 16480 H 1497.86 -4.65981 -3.7813 0
M  V30 16481 H 1498.93 -4.1845 -2.45006 0
M  V30 16482 N 1500.27 0.920374 -1.27933 0
M  V30 16483 C 1501.23 2.0035 -1.11321 0
M  V30 16484 C 1502.23 1.60706 -0.0549132 0
M  V30 16485 O 1503.42 1.71595 -0.300134 0
M  V30 16486 C 1500.56 3.33681 -0.69782 0
M  V30 16487 H 1501.75 2.16518 -2.07509 0
M  V30 16488 H 1499.3 1.10216 -1.10825 0
M  V30 16489 H 1500.04 3.23214 0.265122 0
M  V30 16490 H 1499.82 3.63815 -1.46223 0
M  V30 16491 H 1501.31 4.13208 -0.604048 0
M  V30 16492 N 1501.75 1.10074 1.1279 0
M  V30 16493 C 1502.66 0.758458 2.22001 0
M  V30 16494 C 1503.68 -0.242438 1.72303 0
M  V30 16495 O 1504.85 -0.0821223 2.01233 0
M  V30 16496 C 1501.92 0.191326 3.46172 0
M  V30 16497 C 1500.98 1.24902 4.10729 0
M  V30 16498 C 1500.21 0.708857 5.28972 0
M  V30 16499 O 1500.43 -0.465993 5.68493 0
M  V30 16500 O 1499.37 1.46703 5.83748 0
M  V30 16501 H 1503.19 1.66997 2.53665 0
M  V30 16502 H 1500.78 0.875604 1.21052 0
M  V30 16503 H 1502.66 -0.121292 4.21225 0
M  V30 16504 H 1501.34 -0.693094 3.16193 0
M  V30 16505 H 1500.24 1.61444 3.37471 0
M  V30 16506 H 1501.58 2.10632 4.44854 0
M  V30 16507 N 1503.23 -1.30138 0.888926 0
M  V30 16508 C 1504.14 -2.31778 0.3628 0
M  V30 16509 C 1505.15 -1.65507 -0.53698 0
M  V30 16510 O 1506.33 -1.96775 -0.429152 0
M  V30 16511 C 1503.39 -3.44259 -0.410673 0
M  V30 16512 C 1502.46 -4.26147 0.519334 0
M  V30 16513 C 1501.69 -5.33257 -0.21732 0
M  V30 16514 O 1501.91 -5.5185 -1.44284 0
M  V30 16515 O 1500.85 -6.00329 0.43461 0
M  V30 16516 H 1504.67 -2.78739 1.20575 0
M  V30 16517 H 1502.26 -1.34379 0.65289 0
M  V30 16518 H 1504.14 -4.1277 -0.848467 0
M  V30 16519 H 1502.81 -2.99426 -1.22986 0
M  V30 16520 H 1501.72 -3.60319 1.00602 0
M  V30 16521 H 1503.05 -4.74595 1.30464 0
M  V30 16522 N 1504.71 -0.650285 -1.43559 0
M  V30 16523 C 1505.62 0.0438076 -2.34559 0
M  V30 16524 C 1506.63 0.815316 -1.53716 0
M  V30 16525 O 1507.81 0.76323 -1.86378 0
M  V30 16526 C 1504.87 1.00028 -3.31957 0
M  V30 16527 C 1503.93 0.226027 -4.28705 0
M  V30 16528 C 1503.17 1.13694 -5.21449 0
M  V30 16529 O 1503.39 2.37614 -5.18551 0
M  V30 16530 O 1502.32 0.610924 -5.98792 0
M  V30 16531 H 1506.15 -0.705152 -2.954 0
M  V30 16532 H 1503.73 -0.410471 -1.43651 0
M  V30 16533 H 1505.62 1.55004 -3.91857 0
M  V30 16534 H 1504.29 1.72952 -2.73623 0
M  V30 16535 H 1503.2 -0.367244 -3.72293 0
M  V30 16536 H 1504.53 -0.463582 -4.90012 0
M  V30 16537 N 1506.18 1.52647 -0.392018 0
M  V30 16538 C 1507.09 2.30261 0.449093 0
M  V30 16539 C 1508.11 1.37286 1.06905 0
M  V30 16540 O 1509.29 1.70357 1.07427 0
M  V30 16541 C 1506.35 3.09636 1.55969 0
M  V30 16542 C 1505.41 4.18324 0.964566 0
M  V30 16543 C 1504.64 4.93904 2.02224 0
M  V30 16544 O 1504.87 4.69603 3.23773 0
M  V30 16545 O 1503.8 5.79183 1.63802 0
M  V30 16546 H 1507.63 3.03147 -0.183269 0
M  V30 16547 H 1505.21 1.48587 -0.155664 0
M  V30 16548 H 1507.09 3.59118 2.20482 0
M  V30 16549 H 1505.77 2.39561 2.17697 0
M  V30 16550 H 1504.68 3.73031 0.282618 0
M  V30 16551 H 1506.01 4.90641 0.391466 0
M  V30 16552 N 1507.66 0.121921 1.57128 0
M  V30 16553 C 1508.61 -0.827205 2.15467 0
M  V30 16554 C 1509.58 -1.26155 1.08047 0
M  V30 16555 O 1510.76 -1.33855 1.35969 0
M  V30 16556 C 1507.9 -2.07077 2.76067 0
M  V30 16557 C 1507.02 -1.68452 3.97804 0
M  V30 16558 C 1506.15 -2.87797 4.46482 0
M  V30 16559 C 1505.19 -2.45426 5.60743 0
M  V30 16560 N 1504.33 -3.57695 6.04151 0
M  V30 16561 H 1509.17 -0.322879 2.96246 0
M  V30 16562 H 1506.71 -0.147677 1.46357 0
M  V30 16563 H 1508.66 -2.79943 3.09335 0
M  V30 16564 H 1507.29 -2.54963 1.97974 0
M  V30 16565 H 1506.35 -0.854487 3.70679 0
M  V30 16566 H 1507.66 -1.33316 4.80654 0
M  V30 16567 H 1506.81 -3.68885 4.81673 0
M  V30 16568 H 1505.55 -3.26162 3.62587 0
M  V30 16569 H 1504.56 -1.62772 5.25153 0
M  V30 16570 H 1505.78 -2.08175 6.46405 0
M  V30 16571 H 1503.73 -3.95728 5.23197 0
M  V30 16572 H 1503.64 -3.26491 6.81865 0
M  V30 16573 H 1504.91 -4.39213 6.43981 0
M  V30 16574 N 1509.14 -1.56867 -0.151857 0
M  V30 16575 C 1510.1 -1.96997 -1.17152 0
M  V30 16576 C 1511.1 -0.855905 -1.36128 0
M  V30 16577 O 1512.29 -1.12261 -1.33203 0
M  V30 16578 C 1509.43 -2.28171 -2.5328 0
M  V30 16579 H 1510.62 -2.88261 -0.827365 0
M  V30 16580 H 1508.17 -1.51226 -0.395024 0
M  V30 16581 H 1508.91 -1.39683 -2.92676 0
M  V30 16582 H 1508.69 -3.09394 -2.40869 0
M  V30 16583 H 1510.18 -2.60073 -3.26729 0
M  V30 16584 N 1510.62 0.421051 -1.51871 0
M  V30 16585 C 1511.57 1.5122 -1.74359 0
M  V30 16586 C 1512.54 1.55432 -0.585667 0
M  V30 16587 O 1513.72 1.7219 -0.821912 0
M  V30 16588 C 1510.86 2.88787 -1.88935 0
M  V30 16589 C 1509.97 2.93977 -3.16546 0
M  V30 16590 C 1509.11 4.22768 -3.21622 0
M  V30 16591 C 1508.15 4.21888 -4.43483 0
M  V30 16592 N 1507.28 5.4223 -4.46017 0
M  V30 16593 H 1512.12 1.31348 -2.67492 0
M  V30 16594 H 1509.66 0.637779 -1.32555 0
M  V30 16595 H 1511.62 3.68629 -1.95368 0
M  V30 16596 H 1510.25 3.07181 -0.991942 0
M  V30 16597 H 1509.3 2.06699 -3.19343 0
M  V30 16598 H 1510.61 2.8919 -4.06412 0
M  V30 16599 H 1509.77 5.10995 -3.27061 0
M  V30 16600 H 1508.51 4.30234 -2.29674 0
M  V30 16601 H 1507.51 3.32052 -4.38202 0
M  V30 16602 H 1508.74 4.16072 -5.36713 0
M  V30 16603 H 1506.68 5.50386 -3.56947 0
M  V30 16604 H 1506.6 5.39389 -5.29713 0
M  V30 16605 H 1507.87 6.32443 -4.55671 0
M  V30 16606 N 1512.1 1.42293 0.677538 0
M  V30 16607 C 1513.04 1.45787 1.81243 0
M  V30 16608 C 1514.04 0.333895 1.66077 0
M  V30 16609 O 1515.24 0.50678 1.72719 0
M  V30 16610 H 1511.62 0.456538 0.597559 0
M  V30 16611 H 1513.59 2.41398 1.75413 0
M  V30 16612 C 1512.34 1.37449 3.19379 0
M  V30 16613 H 1511.66 2.23231 3.31674 0
M  V30 16614 H 1513.1 1.43955 3.98814 0
M  V30 16615 C 1511.56 0.0889433 3.36783 0
M  V30 16616 O 1512.09 -0.859357 3.924 0
M  V30 16617 N 1510.3 0.00698476 2.90599 0
M  V30 16618 H 1509.84 0.779459 2.45524 0
M  V30 16619 H 1509.8 -0.852522 3.02621 0
M  V30 16620 N 1513.57 -0.913576 1.28419 0
M  V30 16621 C 1514.5 -2.03275 1.14897 0
M  V30 16622 C 1515.49 -1.70036 0.0467034 0
M  V30 16623 O 1516.67 -1.92907 0.223725 0
M  V30 16624 C 1513.8 -3.37717 0.810217 0
M  V30 16625 C 1512.75 -3.85119 1.86728 0
M  V30 16626 C 1512.08 -5.16527 1.38215 0
M  V30 16627 C 1513.38 -4.06959 3.27386 0
M  V30 16628 H 1515.07 -2.14847 2.08522 0
M  V30 16629 H 1512.62 -1.03233 1.00394 0
M  V30 16630 H 1514.57 -4.15505 0.702382 0
M  V30 16631 H 1513.3 -3.26199 -0.161732 0
M  V30 16632 H 1511.96 -3.09536 1.96426 0
M  V30 16633 H 1511.6 -5.01413 0.399263 0
M  V30 16634 H 1511.3 -5.49213 2.08898 0
M  V30 16635 H 1512.83 -5.96871 1.28754 0
M  V30 16636 H 1514.24 -4.75272 3.20608 0
M  V30 16637 H 1512.64 -4.50977 3.95904 0
M  V30 16638 H 1513.71 -3.11764 3.71391 0
M  V30 16639 N 1515.05 -1.1067 -1.12204 0
M  V30 16640 C 1516.28 -0.872867 -1.87586 0
M  V30 16641 C 1516.7 0.57682 -1.79773 0
M  V30 16642 O 1516.05 1.39782 -1.17334 0
M  V30 16643 C 1516.1 -1.31572 -3.36706 0
M  V30 16644 O 1515.82 -2.70856 -3.44338 0
M  V30 16645 C 1517.33 -1.11613 -4.29019 0
M  V30 16646 H 1514.55 -0.313132 -0.593455 0
M  V30 16647 H 1517.09 -1.47199 -1.4196 0
M  V30 16648 H 1515.24 -0.760212 -3.79868 0
M  V30 16649 H 1515.66 -2.89854 -4.37132 0
M  V30 16650 H 1517.13 -1.4751 -5.31925 0
M  V30 16651 H 1517.61 -0.0549698 -4.39166 0
M  V30 16652 H 1518.22 -1.65822 -3.91642 0
M  V30 16653 N 1516.53 1.29665 -0.895815 0
M  V30 16654 C 1517.48 2.27831 -0.369011 0
M  V30 16655 C 1518.45 1.56843 0.546756 0
M  V30 16656 O 1519.63 1.84848 0.472837 0
M  V30 16657 C 1516.77 3.42764 0.400884 0
M  V30 16658 C 1515.89 4.28544 -0.545335 0
M  V30 16659 C 1515.02 5.30652 0.241228 0
M  V30 16660 C 1514.06 6.08087 -0.699765 0
M  V30 16661 N 1513.2 7.02081 0.0521477 0
M  V30 16662 H 1518.04 2.72274 -1.21124 0
M  V30 16663 H 1515.57 1.33918 -0.608631 0
M  V30 16664 H 1517.53 4.08171 0.863277 0
M  V30 16665 H 1516.16 2.99361 1.2076 0
M  V30 16666 H 1515.21 3.63346 -1.12624 0
M  V30 16667 H 1516.53 4.82472 -1.26579 0
M  V30 16668 H 1515.68 6.01858 0.764994 0
M  V30 16669 H 1514.42 4.77446 0.994838 0
M  V30 16670 H 1513.42 5.35748 -1.23507 0
M  V30 16671 H 1514.65 6.63382 -1.45264 0
M  V30 16672 H 1512.59 6.51249 0.788096 0
M  V30 16673 H 1512.51 7.53547 -0.60847 0
M  V30 16674 H 1513.78 7.77512 0.556304 0
M  V30 16675 N 1518.01 0.657889 1.43212 0
M  V30 16676 C 1518.94 -0.0172114 2.33494 0
M  V30 16677 C 1519.92 -0.807087 1.49733 0
M  V30 16678 O 1521.1 -0.767631 1.78385 0
M  V30 16679 C 1518.23 -0.981029 3.33156 0
M  V30 16680 C 1517.19 -0.30094 4.26941 0
M  V30 16681 C 1516.51 -1.37653 5.16678 0
M  V30 16682 C 1517.81 0.809572 5.15988 0
M  V30 16683 H 1519.51 0.736749 2.90194 0
M  V30 16684 H 1517.05 0.355744 1.39537 0
M  V30 16685 H 1519.01 -1.46226 3.95216 0
M  V30 16686 H 1517.73 -1.76621 2.74723 0
M  V30 16687 H 1516.39 0.159893 3.66251 0
M  V30 16688 H 1516.04 -2.15326 4.54581 0
M  V30 16689 H 1515.74 -0.926704 5.80246 0
M  V30 16690 H 1517.26 -1.85903 5.81612 0
M  V30 16691 H 1518.68 0.410297 5.7183 0
M  V30 16692 H 1517.07 1.18415 5.88301 0
M  V30 16693 H 1518.14 1.66558 4.55397 0
M  V30 16694 N 1519.49 -1.52437 0.400108 0
M  V30 16695 C 1520.43 -2.26763 -0.429799 0
M  V30 16696 C 1521.4 -1.28808 -1.0487 0
M  V30 16697 O 1522.59 -1.57655 -1.07468 0
M  V30 16698 C 1519.73 -3.08564 -1.54539 0
M  V30 16699 C 1518.84 -4.21463 -0.948294 0
M  V30 16700 C 1517.98 -4.9064 -2.03584 0
M  V30 16701 C 1517.02 -5.95515 -1.4152 0
M  V30 16702 N 1516.15 -6.58245 -2.4425 0
M  V30 16703 H 1520.99 -2.97256 0.210467 0
M  V30 16704 H 1518.53 -1.46645 0.115627 0
M  V30 16705 H 1520.49 -3.54289 -2.20307 0
M  V30 16706 H 1519.12 -2.40259 -2.15582 0
M  V30 16707 H 1518.17 -3.79974 -0.179918 0
M  V30 16708 H 1519.48 -4.96722 -0.454845 0
M  V30 16709 H 1518.64 -5.39724 -2.77097 0
M  V30 16710 H 1517.37 -4.14929 -2.56291 0
M  V30 16711 H 1516.38 -5.45759 -0.665354 0
M  V30 16712 H 1517.6 -6.73164 -0.89593 0
M  V30 16713 H 1515.55 -5.85369 -2.96107 0
M  V30 16714 H 1515.47 -7.2915 -1.99692 0
M  V30 16715 H 1516.74 -7.1197 -3.17362 0
M  V30 16716 N 1520.96 -0.130252 -1.57061 0
M  V30 16717 C 1521.91 0.832998 -2.17173 0
M  V30 16718 C 1522.91 1.26735 -1.12403 0
M  V30 16719 O 1524.11 1.23778 -1.30686 0
M  V30 16720 H 1520.49 0.286777 -0.695171 0
M  V30 16721 H 1522.46 0.301639 -2.96872 0
M  V30 16722 C 1521.21 2.06879 -2.79457 0
M  V30 16723 H 1520.53 1.74352 -3.5978 0
M  V30 16724 H 1521.97 2.72258 -3.25041 0
M  V30 16725 C 1520.43 2.86591 -1.77108 0
M  V30 16726 O 1520.96 3.82363 -1.2313 0
M  V30 16727 N 1519.17 2.508 -1.46792 0
M  V30 16728 H 1518.71 1.72984 -1.90878 0
M  V30 16729 H 1518.67 3.04428 -0.785566 0
M  V30 16730 N 1522.44 1.56945 0.143535 0
M  V30 16731 C 1523.39 1.98526 1.17711 0
M  V30 16732 C 1524.36 0.853402 1.425 0
M  V30 16733 O 1525.55 1.11574 1.54777 0
M  V30 16734 C 1522.69 2.37395 2.50475 0
M  V30 16735 C 1521.8 3.63887 2.32831 0
M  V30 16736 C 1520.93 3.91844 3.58653 0
M  V30 16737 C 1519.97 5.11595 3.36061 0
M  V30 16738 N 1519.11 5.35545 4.54022 0
M  V30 16739 H 1523.95 2.86624 0.815524 0
M  V30 16740 H 1521.49 1.41802 0.391231 0
M  V30 16741 H 1523.44 2.5796 3.27891 0
M  V30 16742 H 1522.07 1.52372 2.84575 0
M  V30 16743 H 1521.13 3.51078 1.46452 0
M  V30 16744 H 1522.44 4.51459 2.12098 0
M  V30 16745 H 1521.59 4.12926 4.44497 0
M  V30 16746 H 1520.33 3.027 3.82393 0
M  V30 16747 H 1519.34 4.90383 2.48606 0
M  V30 16748 H 1520.56 6.02295 3.13716 0
M  V30 16749 H 1518.51 4.49355 4.77929 0
M  V30 16750 H 1518.42 6.17393 4.36305 0
M  V30 16751 H 1519.69 5.61127 5.4107 0
M  V30 16752 N 1523.92 -0.412991 1.52093 0
M  V30 16753 C 1524.87 -1.50193 1.7154 0
M  V30 16754 C 1525.86 -1.50492 0.569294 0
M  V30 16755 O 1527.05 -1.56534 0.826207 0
M  V30 16756 C 1524.18 -2.8816 1.86598 0
M  V30 16757 C 1523.26 -2.92524 3.07068 0
M  V30 16758 N 1523.65 -2.66591 4.29841 0
M  V30 16759 C 1521.95 -3.23691 3.06822 0
M  V30 16760 C 1522.65 -2.77424 5.11284 0
M  V30 16761 N 1521.63 -3.10138 4.46448 0
M  V30 16762 H 1525.43 -1.28932 2.64109 0
M  V30 16763 H 1522.94 -0.620648 1.50072 0
M  V30 16764 H 1524.94 -3.66532 1.98646 0
M  V30 16765 H 1523.6 -3.10422 0.952263 0
M  V30 16766 H 1524.61 -2.41058 4.58379 0
M  V30 16767 H 1521.29 -3.51572 2.25174 0
M  V30 16768 H 1522.68 -2.61121 6.19084 0
M  V30 16769 N 1525.4 -1.4265 -0.669982 0
M  V30 16770 C 1526.31 -1.48916 -1.81276 0
M  V30 16771 C 1527.33 -0.377523 -1.69855 0
M  V30 16772 O 1528.5 -0.629151 -1.91321 0
M  V30 16773 C 1525.57 -1.39376 -3.17451 0
M  V30 16774 C 1524.63 -2.61072 -3.40793 0
M  V30 16775 C 1523.86 -2.51976 -4.70472 0
M  V30 16776 O 1524.08 -1.55827 -5.48702 0
M  V30 16777 O 1523.02 -3.42193 -4.95164 0
M  V30 16778 H 1526.84 -2.45382 -1.78945 0
M  V30 16779 H 1524.43 -1.24467 -0.826342 0
M  V30 16780 H 1526.31 -1.36435 -3.98702 0
M  V30 16781 H 1524.99 -0.460376 -3.20409 0
M  V30 16782 H 1523.89 -2.69587 -2.59372 0
M  V30 16783 H 1525.23 -3.53325 -3.42669 0
M  V30 16784 N 1526.88 0.906753 -1.28902 0
M  V30 16785 C 1528.1 1.69547 -1.19452 0
M  V30 16786 C 1528.53 1.86531 0.242418 0
M  V30 16787 O 1527.89 1.38052 1.17521 0
M  V30 16788 C 1527.93 3.06139 -1.90556 0
M  V30 16789 O 1527.04 3.9401 -1.21779 0
M  V30 16790 H 1526.38 0.518902 -0.41429 0
M  V30 16791 H 1528.91 1.13327 -1.70347 0
M  V30 16792 H 1528.92 3.56326 -1.98736 0
M  V30 16793 H 1527.59 2.93094 -2.95074 0
M  V30 16794 H 1526.17 3.52444 -1.2181 0
M  V30 16795 N 1528.36 1.11264 1.11616 0
M  V30 16796 C 1529.29 0.713116 2.16772 0
M  V30 16797 C 1530.27 -0.289791 1.59997 0
M  V30 16798 O 1531.45 -0.186649 1.87574 0
M  V30 16799 C 1528.58 0.0535784 3.38658 0
M  V30 16800 C 1527.62 1.02134 4.14091 0
M  V30 16801 S 1528.46 2.54294 4.71269 0
M  V30 16802 C 1529.61 1.89636 5.96481 0
M  V30 16803 H 1529.85 1.60387 2.50326 0
M  V30 16804 H 1527.38 0.930494 1.23212 0
M  V30 16805 H 1529.34 -0.320604 4.09246 0
M  V30 16806 H 1528 -0.814107 3.03366 0
M  V30 16807 H 1527.19 0.50727 5.01441 0
M  V30 16808 H 1526.79 1.33785 3.49253 0
M  V30 16809 H 1529.08 1.23171 6.66209 0
M  V30 16810 H 1530.03 2.74977 6.52528 0
M  V30 16811 H 1530.44 1.35729 5.4794 0
M  V30 16812 N 1529.83 -1.29188 0.902679 0
M  V30 16813 C 1531.08 -1.94718 0.526082 0
M  V30 16814 C 1531.4 -1.71924 -0.932816 0
M  V30 16815 O 1532.6 -2.31585 -1.41707 0
M  V30 16816 C 1531.06 -3.48723 0.889974 0
M  V30 16817 C 1530.67 -3.80312 2.36784 0
M  V30 16818 C 1532.41 -4.20472 0.58343 0
M  V30 16819 C 1530.32 -5.27574 2.67244 0
M  V30 16820 H 1529.25 -0.728875 0.193019 0
M  V30 16821 H 1531.9 -1.46869 1.10008 0
M  V30 16822 H 1530.28 -3.95242 0.244872 0
M  V30 16823 H 1531.45 -3.44641 3.05875 0
M  V30 16824 H 1529.77 -3.21709 2.64371 0
M  V30 16825 H 1532.37 -5.28864 0.787813 0
M  V30 16826 H 1532.71 -4.13544 -0.478204 0
M  V30 16827 H 1533.24 -3.79693 1.1865 0
M  V30 16828 H 1529.98 -5.39569 3.72217 0
M  V30 16829 H 1529.5 -5.64482 2.0278 0
M  V30 16830 H 1531.18 -5.95199 2.53666 0
M  V30 16831 N 1531.31 -0.665475 -1.42861 0
M  V30 16832 C 1532.54 -0.190399 -2.06524 0
M  V30 16833 C 1532.96 1.13995 -1.49622 0
M  V30 16834 O 1532.32 1.70695 -0.610981 0
M  V30 16835 C 1532.37 -0.12594 -3.6038 0
M  V30 16836 O 1531.47 0.908299 -4.02273 0
M  V30 16837 H 1530.81 -0.100495 -0.656351 0
M  V30 16838 H 1533.34 -0.911858 -1.83156 0
M  V30 16839 H 1533.35 0.0533153 -4.07965 0
M  V30 16840 H 1532.03 -1.09703 -4.01171 0
M  V30 16841 H 1530.6 0.700841 -3.66255 0
M  V30 16842 N 1532.79 1.52222 -0.408187 0
M  V30 16843 C 1533.7 2.30725 0.424645 0
M  V30 16844 C 1534.72 1.38412 1.05442 0
M  V30 16845 O 1535.89 1.71486 1.05614 0
M  V30 16846 C 1532.96 3.11273 1.52677 0
M  V30 16847 C 1532.02 4.19323 0.920143 0
M  V30 16848 C 1531.25 4.96021 1.96974 0
M  V30 16849 O 1531.47 4.73011 3.18774 0
M  V30 16850 O 1530.41 5.80887 1.5765 0
M  V30 16851 H 1534.23 3.02935 -0.215411 0
M  V30 16852 H 1531.82 1.48413 -0.171414 0
M  V30 16853 H 1533.7 3.61436 2.16661 0
M  V30 16854 H 1532.38 2.41857 2.15144 0
M  V30 16855 H 1531.28 3.7331 0.243037 0
M  V30 16856 H 1532.62 4.91028 0.339405 0
M  V30 16857 N 1534.27 0.138579 1.5699 0
M  V30 16858 C 1535.2 -0.800568 2.19347 0
M  V30 16859 C 1536.18 -1.26318 1.13921 0
M  V30 16860 O 1537.36 -1.32226 1.42232 0
M  V30 16861 C 1534.49 -2.04317 2.80842 0
M  V30 16862 C 1533.45 -1.71764 3.92022 0
M  V30 16863 C 1532.77 -3.03217 4.40413 0
M  V30 16864 C 1534.07 -0.970789 5.13199 0
M  V30 16865 H 1535.77 -0.280888 2.98079 0
M  V30 16866 H 1533.31 -0.133663 1.43378 0
M  V30 16867 H 1535.27 -2.70491 3.2313 0
M  V30 16868 H 1533.99 -2.58643 1.99428 0
M  V30 16869 H 1532.65 -1.07972 3.50339 0
M  V30 16870 H 1532.3 -3.55517 3.55832 0
M  V30 16871 H 1532 -2.82203 5.15398 0
M  V30 16872 H 1533.52 -3.70477 4.85365 0
M  V30 16873 H 1534.94 -1.53445 5.52384 0
M  V30 16874 H 1533.33 -0.860895 5.93893 0
M  V30 16875 H 1534.4 0.0390088 4.84884 0
M  V30 16876 N 1535.75 -1.57019 -0.13521 0
M  V30 16877 C 1536.66 -2.02427 -1.18578 0
M  V30 16878 C 1537.67 -0.941738 -1.46312 0
M  V30 16879 O 1538.85 -1.25208 -1.57749 0
M  V30 16880 C 1535.91 -2.40577 -2.49647 0
M  V30 16881 C 1534.97 -3.62835 -2.29455 0
M  V30 16882 C 1534.21 -3.99156 -3.54274 0
M  V30 16883 O 1534.43 -3.36001 -4.60933 0
M  V30 16884 O 1533.36 -4.92345 -3.46238 0
M  V30 16885 H 1537.19 -2.92131 -0.830237 0
M  V30 16886 H 1534.77 -1.45366 -0.344814 0
M  V30 16887 H 1536.66 -2.65922 -3.269 0
M  V30 16888 H 1535.33 -1.54023 -2.84708 0
M  V30 16889 H 1534.24 -3.42661 -1.50114 0
M  V30 16890 H 1535.57 -4.50043 -1.99305 0
M  V30 16891 N 1537.22 0.404919 -1.52309 0
M  V30 16892 C 1538.47 1.15319 -1.66822 0
M  V30 16893 C 1538.8 1.90056 -0.399041 0
M  V30 16894 O 1538.08 1.84927 0.602679 0
M  V30 16895 C 1538.36 2.14426 -2.89298 0
M  V30 16896 C 1538.21 1.43558 -4.26276 0
M  V30 16897 C 1539.53 3.15046 -3.07301 0
M  V30 16898 H 1536.65 0.417869 -0.607087 0
M  V30 16899 H 1539.29 0.438414 -1.84873 0
M  V30 16900 H 1537.44 2.75382 -2.74039 0
M  V30 16901 H 1539.12 0.856899 -4.53271 0
M  V30 16902 H 1537.36 0.737515 -4.27485 0
M  V30 16903 H 1538.03 2.15895 -5.08029 0
M  V30 16904 H 1540.51 2.6417 -3.21486 0
M  V30 16905 H 1539.38 3.81652 -3.94503 0
M  V30 16906 H 1539.64 3.83012 -2.20803 0
M  V30 16907 N 1538.7 1.43003 0.662408 0
M  V30 16908 C 1540.12 1.26201 0.977003 0
M  V30 16909 C 1540.32 0.175104 2.00738 0
M  V30 16910 O 1539.37 -0.44954 2.48466 0
M  V30 16911 C 1540.69 2.62319 1.47001 0
M  V30 16912 C 1542.24 2.69776 1.58714 0
M  V30 16913 C 1542.71 4.06289 2.11408 0
M  V30 16914 N 1544.2 4.08307 2.18724 0
M  V30 16915 C 1544.94 5.10761 2.60598 0
M  V30 16916 N 1544.43 6.23593 3.01834 0
M  V30 16917 N 1546.23 4.98115 2.60456 0
M  V30 16918 H 1538.38 2.12391 -0.0195698 0
M  V30 16919 H 1540.64 0.946472 0.0538044 0
M  V30 16920 H 1540.35 3.42773 0.78736 0
M  V30 16921 H 1540.22 2.87088 2.44664 0
M  V30 16922 H 1542.61 1.89659 2.26083 0
M  V30 16923 H 1542.69 2.48782 0.595081 0
M  V30 16924 H 1542.33 4.86868 1.44644 0
M  V30 16925 H 1542.26 4.24641 3.11428 0
M  V30 16926 H 1544.75 3.26857 1.89665 0
M  V30 16927 H 1545.07 6.97609 3.32509 0
M  V30 16928 H 1543.41 6.27079 2.99661 0
M  V30 16929 H 1546.6 4.09037 2.27611 0
M  V30 16930 H 1546.77 5.78092 2.92769 0
M  V30 16931 N 1540.18 -0.899904 1.29381 0
M  V30 16932 C 1541.11 -2.02045 1.17047 0
M  V30 16933 C 1542.09 -1.69977 0.0647354 0
M  V30 16934 O 1543.28 -1.92659 0.244173 0
M  V30 16935 C 1540.41 -3.36839 0.845991 0
M  V30 16936 C 1539.36 -3.83117 1.90802 0
M  V30 16937 C 1538.69 -5.15032 1.43686 0
M  V30 16938 C 1539.99 -4.03464 3.31684 0
M  V30 16939 H 1541.68 -2.12623 2.10789 0
M  V30 16940 H 1539.23 -1.02162 1.01484 0
M  V30 16941 H 1541.18 -4.14737 0.746413 0
M  V30 16942 H 1539.9 -3.26352 -0.127125 0
M  V30 16943 H 1538.56 -3.07435 1.99698 0
M  V30 16944 H 1538.21 -5.00961 0.452422 0
M  V30 16945 H 1537.91 -5.46967 2.14711 0
M  V30 16946 H 1539.43 -5.95472 1.35078 0
M  V30 16947 H 1540.85 -4.71845 3.25631 0
M  V30 16948 H 1539.25 -4.46752 4.00665 0
M  V30 16949 H 1540.32 -3.07807 3.74677 0
M  V30 16950 N 1541.66 -1.11854 -1.11024 0
M  V30 16951 C 1542.61 -0.780825 -2.17191 0
M  V30 16952 C 1543.58 0.249657 -1.64213 0
M  V30 16953 O 1544.76 0.125603 -1.90386 0
M  V30 16954 C 1541.9 -0.23491 -3.443 0
M  V30 16955 C 1541.01 -1.32247 -4.1126 0
M  V30 16956 C 1540.15 -0.736638 -5.26068 0
M  V30 16957 C 1539.19 -1.80375 -5.8492 0
M  V30 16958 N 1538.32 -1.23709 -6.91115 0
M  V30 16959 H 1543.16 -1.69031 -2.45423 0
M  V30 16960 H 1540.7 -0.844041 -1.20476 0
M  V30 16961 H 1542.66 0.0996064 -4.17081 0
M  V30 16962 H 1541.29 0.637752 -3.16437 0
M  V30 16963 H 1540.34 -1.77387 -3.36509 0
M  V30 16964 H 1541.65 -2.12965 -4.51051 0
M  V30 16965 H 1540.81 -0.352432 -6.05675 0
M  V30 16966 H 1539.55 0.101811 -4.87594 0
M  V30 16967 H 1538.55 -2.19721 -5.03987 0
M  V30 16968 H 1539.78 -2.64531 -6.2546 0
M  V30 16969 H 1537.72 -0.420357 -6.54652 0
M  V30 16970 H 1537.64 -1.98093 -7.29586 0
M  V30 16971 H 1538.91 -0.879912 -7.74518 0
M  V30 16972 N 1543.14 1.28707 -0.909517 0
M  V30 16973 C 1544.08 2.27427 -0.393155 0
M  V30 16974 C 1545.05 1.57414 0.53009 0
M  V30 16975 O 1546.24 1.85339 0.453205 0
M  V30 16976 C 1543.38 3.4317 0.364507 0
M  V30 16977 C 1542.49 4.27942 -0.590757 0
M  V30 16978 C 1541.63 5.30878 0.184931 0
M  V30 16979 C 1540.67 6.07311 -0.764222 0
M  V30 16980 N 1539.8 7.02096 -0.0223203 0
M  V30 16981 H 1544.64 2.70974 -1.24005 0
M  V30 16982 H 1542.18 1.33265 -0.6228 0
M  V30 16983 H 1544.14 4.09063 0.819937 0
M  V30 16984 H 1542.77 3.00625 1.17578 0
M  V30 16985 H 1541.82 3.62131 -1.16471 0
M  V30 16986 H 1543.13 4.81102 -1.31689 0
M  V30 16987 H 1542.29 6.02635 0.701116 0
M  V30 16988 H 1541.02 4.78474 0.944143 0
M  V30 16989 H 1540.03 5.34408 -1.29182 0
M  V30 16990 H 1541.25 6.61804 -1.52292 0
M  V30 16991 H 1539.2 6.52048 0.718978 0
M  V30 16992 H 1539.12 7.5286 -0.688359 0
M  V30 16993 H 1540.39 7.78059 0.473807 0
M  V30 16994 N 1544.61 0.673042 1.42506 0
M  V30 16995 C 1545.52 -0.00648572 2.34599 0
M  V30 16996 C 1546.54 -0.790758 1.54994 0
M  V30 16997 O 1547.72 -0.733482 1.87569 0
M  V30 16998 C 1544.78 -0.94734 3.33506 0
M  V30 16999 C 1543.84 -0.157795 4.2901 0
M  V30 17000 C 1543.08 -1.05384 5.23192 0
M  V30 17001 O 1543.3 -2.29334 5.22266 0
M  V30 17002 O 1542.23 -0.515584 5.99688 0
M  V30 17003 H 1546.06 0.752059 2.94241 0
M  V30 17004 H 1543.64 0.433272 1.42979 0
M  V30 17005 H 1545.53 -1.4875 3.94273 0
M  V30 17006 H 1544.2 -1.68577 2.7634 0
M  V30 17007 H 1543.11 0.426426 3.71662 0
M  V30 17008 H 1544.44 0.54148 4.89212 0
M  V30 17009 N 1546.09 -1.52004 0.416254 0
M  V30 17010 C 1547 -2.30947 -0.412403 0
M  V30 17011 C 1548.02 -1.38969 -1.04707 0
M  V30 17012 O 1549.19 -1.72044 -1.04703 0
M  V30 17013 C 1546.26 -3.12078 -1.51024 0
M  V30 17014 C 1545.32 -4.19805 -0.897892 0
M  V30 17015 C 1544.55 -4.97059 -1.94341 0
M  V30 17016 O 1544.78 -4.74695 -3.16261 0
M  V30 17017 O 1543.71 -5.81715 -1.54567 0
M  V30 17018 H 1547.54 -3.02817 0.231473 0
M  V30 17019 H 1545.12 -1.4832 0.179283 0
M  V30 17020 H 1547 -3.6258 -2.14741 0
M  V30 17021 H 1545.68 -2.42995 -2.13858 0
M  V30 17022 H 1544.59 -3.73433 -0.223236 0
M  V30 17023 H 1545.92 -4.91201 -0.31336 0
M  V30 17024 N 1547.57 -0.146903 -1.56914 0
M  V30 17025 C 1548.52 0.792821 -2.16756 0
M  V30 17026 C 1549.49 1.2442 -1.1004 0
M  V30 17027 O 1550.67 1.31674 -1.38081 0
M  V30 17028 C 1547.81 2.02659 -2.79327 0
M  V30 17029 C 1546.93 1.62102 -4.00433 0
M  V30 17030 C 1546.06 2.80658 -4.51004 0
M  V30 17031 C 1545.1 2.36474 -5.64576 0
M  V30 17032 N 1544.24 3.48038 -6.09766 0
M  V30 17033 H 1549.08 0.275708 -2.96722 0
M  V30 17034 H 1546.61 0.124374 -1.46573 0
M  V30 17035 H 1548.57 2.74986 -3.13749 0
M  V30 17036 H 1547.2 2.51781 -2.02005 0
M  V30 17037 H 1546.25 0.795407 -3.71991 0
M  V30 17038 H 1547.57 1.25652 -4.82714 0
M  V30 17039 H 1546.72 3.61175 -4.87481 0
M  V30 17040 H 1545.46 3.20353 -3.6773 0
M  V30 17041 H 1544.46 1.54397 -5.27676 0
M  V30 17042 H 1545.69 1.97865 -6.49635 0
M  V30 17043 H 1543.63 3.87354 -5.29427 0
M  V30 17044 H 1543.55 3.15602 -6.86972 0
M  V30 17045 H 1544.82 4.28912 -6.50887 0
M  V30 17046 N 1549.05 1.57088 0.126881 0
M  V30 17047 C 1550.27 1.88984 0.854389 0
M  V30 17048 C 1550.7 0.738037 1.73016 0
M  V30 17049 O 1550.06 -0.311728 1.786 0
M  V30 17050 C 1550.1 3.19584 1.67028 0
M  V30 17051 O 1549.21 3.04935 2.77648 0
M  V30 17052 H 1548.55 0.620354 0.236763 0
M  V30 17053 H 1551.08 2.04295 0.111647 0
M  V30 17054 H 1551.09 3.52109 2.06115 0
M  V30 17055 H 1549.76 4.03012 1.02732 0
M  V30 17056 H 1548.34 2.83861 2.41821 0
M  V30 17057 N 1550.53 -0.396836 1.52522 0
M  V30 17058 C 1551.94 -0.736347 1.41598 0
M  V30 17059 C 1552.14 -1.944 0.530191 0
M  V30 17060 O 1551.2 -2.525 0.000649033 0
M  V30 17061 C 1552.51 -0.978775 2.84325 0
M  V30 17062 C 1554.06 -1.08073 2.9375 0
M  V30 17063 C 1554.53 -1.35584 4.37471 0
M  V30 17064 N 1556.03 -1.42423 4.40761 0
M  V30 17065 C 1556.76 -1.6536 5.49039 0
M  V30 17066 N 1556.26 -1.85819 6.67415 0
M  V30 17067 N 1558.05 -1.67475 5.36571 0
M  V30 17068 H 1550.2 0.397925 2.08639 0
M  V30 17069 H 1552.46 0.115803 0.9409 0
M  V30 17070 H 1552.17 -0.16362 3.51319 0
M  V30 17071 H 1552.04 -1.8956 3.26109 0
M  V30 17072 H 1554.43 -1.88646 2.26928 0
M  V30 17073 H 1554.51 -0.141996 2.55406 0
M  V30 17074 H 1554.16 -0.555238 5.04856 0
M  V30 17075 H 1554.09 -2.3073 4.73362 0
M  V30 17076 H 1556.58 -1.28352 3.55435 0
M  V30 17077 H 1556.89 -2.02806 7.45714 0
M  V30 17078 H 1555.23 -1.83059 6.70458 0
M  V30 17079 H 1558.43 -1.51038 4.43064 0
M  V30 17080 H 1558.6 -1.85011 6.21027 0
M  V30 17081 N 1552.01 -1.43353 -0.654814 0
M  V30 17082 C 1552.94 -1.44353 -1.7803 0
M  V30 17083 C 1553.95 -0.339872 -1.59213 0
M  V30 17084 O 1555.14 -0.604207 -1.67963 0
M  V30 17085 C 1552.24 -1.23913 -3.15434 0
M  V30 17086 C 1551.41 -2.47088 -3.60924 0
M  V30 17087 C 1550.47 -2.21896 -4.77126 0
M  V30 17088 O 1549.5 -2.95236 -4.86646 0
M  V30 17089 N 1550.7 -1.23459 -5.6722 0
M  V30 17090 H 1553.46 -2.41372 -1.77651 0
M  V30 17091 H 1551.03 -1.38488 -0.838603 0
M  V30 17092 H 1553.02 -1.04945 -3.90856 0
M  V30 17093 H 1551.59 -0.35346 -3.10595 0
M  V30 17094 H 1550.81 -2.81492 -2.75964 0
M  V30 17095 H 1552.1 -3.29066 -3.88064 0
M  V30 17096 H 1551.49 -0.6284 -5.62199 0
M  V30 17097 H 1550.05 -1.10474 -6.4237 0
M  V30 17098 N 1553.48 0.89303 -1.29857 0
M  V30 17099 C 1554.39 2.03079 -1.17457 0
M  V30 17100 C 1555.41 1.73733 -0.0962941 0
M  V30 17101 O 1556.59 1.99005 -0.309667 0
M  V30 17102 C 1553.65 3.3589 -0.858991 0
M  V30 17103 C 1552.71 3.78711 -2.0218 0
M  V30 17104 C 1551.94 5.05184 -1.72118 0
M  V30 17105 O 1552.17 5.66738 -0.645276 0
M  V30 17106 O 1551.1 5.44218 -2.57119 0
M  V30 17107 H 1554.93 2.16465 -2.13017 0
M  V30 17108 H 1552.51 1.01774 -1.09373 0
M  V30 17109 H 1554.39 4.15582 -0.697852 0
M  V30 17110 H 1553.07 3.23631 0.0667756 0
M  V30 17111 H 1551.98 2.99758 -2.23822 0
M  V30 17112 H 1553.31 3.95563 -2.929 0
M  V30 17113 N 1554.96 1.12442 1.10429 0
M  V30 17114 C 1555.89 0.814745 2.18824 0
M  V30 17115 C 1556.87 -0.221476 1.68652 0
M  V30 17116 O 1558.06 -0.0826537 1.94024 0
M  V30 17117 C 1555.19 0.268632 3.4626 0
M  V30 17118 C 1554.14 1.23792 4.09707 0
M  V30 17119 C 1553.47 0.552034 5.31843 0
M  V30 17120 C 1554.77 2.5926 4.53411 0
M  V30 17121 H 1556.46 1.72111 2.44986 0
M  V30 17122 H 1554.01 0.828968 1.17746 0
M  V30 17123 H 1555.96 0.0397207 4.21381 0
M  V30 17124 H 1554.68 -0.673079 3.19589 0
M  V30 17125 H 1553.34 1.45264 3.36592 0
M  V30 17126 H 1552.99 -0.394821 5.01448 0
M  V30 17127 H 1552.69 1.19861 5.75245 0
M  V30 17128 H 1554.22 0.332161 6.09696 0
M  V30 17129 H 1555.63 2.41816 5.19806 0
M  V30 17130 H 1554.03 3.19997 5.07663 0
M  V30 17131 H 1555.1 3.17699 3.66327 0
M  V30 17132 N 1556.44 -1.28223 0.91633 0
M  V30 17133 C 1557.35 -2.30956 0.411882 0
M  V30 17134 C 1558.37 -1.66609 -0.501753 0
M  V30 17135 O 1559.54 -1.97641 -0.387317 0
M  V30 17136 C 1556.61 -3.45053 -0.337558 0
M  V30 17137 C 1555.67 -4.2495 0.609609 0
M  V30 17138 C 1554.9 -5.33598 -0.104159 0
M  V30 17139 O 1555.12 -5.54786 -1.32546 0
M  V30 17140 O 1554.06 -5.99272 0.561851 0
M  V30 17141 H 1557.88 -2.76118 1.26461 0
M  V30 17142 H 1555.47 -1.32964 0.681246 0
M  V30 17143 H 1557.35 -4.14477 -0.760722 0
M  V30 17144 H 1556.03 -3.01968 -1.16607 0
M  V30 17145 H 1554.93 -3.58104 1.08222 0
M  V30 17146 H 1556.27 -4.7172 1.40502 0
M  V30 17147 N 1557.92 -0.68059 -1.42147 0
M  V30 17148 C 1558.86 -0.00585926 -2.30799 0
M  V30 17149 C 1559.83 0.786778 -1.46284 0
M  V30 17150 O 1561.02 0.757853 -1.75103 0
M  V30 17151 C 1558.16 0.935319 -3.32183 0
M  V30 17152 C 1557.27 0.13589 -4.31786 0
M  V30 17153 C 1556.41 1.07335 -5.20243 0
M  V30 17154 C 1555.45 0.265943 -6.11522 0
M  V30 17155 N 1554.58 1.15641 -6.92511 0
M  V30 17156 H 1559.42 -0.767651 -2.87943 0
M  V30 17157 H 1556.96 -0.39029 -1.41828 0
M  V30 17158 H 1558.92 1.49489 -3.89498 0
M  V30 17159 H 1557.55 1.66368 -2.76626 0
M  V30 17160 H 1556.6 -0.540383 -3.76542 0
M  V30 17161 H 1557.91 -0.490716 -4.9638 0
M  V30 17162 H 1557.07 1.70265 -5.82319 0
M  V30 17163 H 1555.81 1.73383 -4.55839 0
M  V30 17164 H 1554.81 -0.376531 -5.48509 0
M  V30 17165 H 1556.04 -0.39053 -6.77976 0
M  V30 17166 H 1553.98 1.80319 -6.30731 0
M  V30 17167 H 1553.9 0.585022 -7.53733 0
M  V30 17168 H 1555.17 1.773 -7.59069 0
M  V30 17169 N 1559.4 1.51781 -0.424309 0
M  V30 17170 C 1560.33 2.30313 0.384462 0
M  V30 17171 C 1561.31 1.35166 1.03268 0
M  V30 17172 O 1562.49 1.64081 1.0388 0
M  V30 17173 C 1559.62 3.13566 1.49311 0
M  V30 17174 C 1558.58 4.16884 0.969096 0
M  V30 17175 C 1557.9 4.88576 2.17251 0
M  V30 17176 C 1559.2 5.22298 0.0125613 0
M  V30 17177 H 1560.9 2.98172 -0.270871 0
M  V30 17178 H 1558.44 1.43396 -0.131712 0
M  V30 17179 H 1560.39 3.67279 2.06602 0
M  V30 17180 H 1559.12 2.43504 2.17655 0
M  V30 17181 H 1557.78 3.64203 0.418494 0
M  V30 17182 H 1557.43 4.15029 2.84183 0
M  V30 17183 H 1557.13 5.58432 1.82833 0
M  V30 17184 H 1558.65 5.45107 2.75119 0
M  V30 17185 H 1560.06 5.71161 0.494744 0
M  V30 17186 H 1558.46 5.99606 -0.243544 0
M  V30 17187 H 1559.53 4.75935 -0.92813 0
M  V30 17188 N 1560.87 0.155222 1.56834 0
M  V30 17189 C 1561.82 -0.781315 2.17173 0
M  V30 17190 C 1562.79 -1.23835 1.10699 0
M  V30 17191 O 1563.98 -1.3094 1.38778 0
M  V30 17192 C 1561.12 -2.01174 2.80398 0
M  V30 17193 C 1560.23 -1.59976 4.01287 0
M  V30 17194 C 1559.36 -2.78262 4.52486 0
M  V30 17195 C 1558.4 -2.33477 5.65822 0
M  V30 17196 N 1557.54 -3.44799 6.11603 0
M  V30 17197 H 1562.38 -0.259968 2.96864 0
M  V30 17198 H 1559.92 -0.116599 1.46637 0
M  V30 17199 H 1561.87 -2.73318 3.15203 0
M  V30 17200 H 1560.5 -2.50706 2.03338 0
M  V30 17201 H 1559.56 -0.775668 3.72408 0
M  V30 17202 H 1560.87 -1.2309 4.83374 0
M  V30 17203 H 1560.02 -3.58585 4.89389 0
M  V30 17204 H 1558.76 -3.18398 3.69424 0
M  V30 17205 H 1557.77 -1.51596 5.28487 0
M  V30 17206 H 1558.99 -1.94417 6.50676 0
M  V30 17207 H 1556.94 -3.84541 5.31474 0
M  V30 17208 H 1556.85 -3.11955 6.88637 0
M  V30 17209 H 1558.12 -4.25454 6.53153 0
M  V30 17210 N 1562.35 -1.57153 -0.118549 0
M  V30 17211 C 1563.77 -1.52458 -0.472096 0
M  V30 17212 C 1563.97 -0.868289 -1.81832 0
M  V30 17213 O 1563.02 -0.450817 -2.48443 0
M  V30 17214 C 1564.34 -2.9722 -0.456175 0
M  V30 17215 C 1565.88 -3.08312 -0.539694 0
M  V30 17216 C 1566.36 -4.54635 -0.554158 0
M  V30 17217 N 1567.85 -4.59091 -0.615584 0
M  V30 17218 C 1568.59 -5.69724 -0.64823 0
M  V30 17219 N 1568.08 -6.89852 -0.638494 0
M  V30 17220 N 1569.87 -5.57833 -0.691272 0
M  V30 17221 H 1562.03 -1.98202 0.76353 0
M  V30 17222 H 1564.29 -0.905179 0.281699 0
M  V30 17223 H 1563.99 -3.48608 0.465364 0
M  V30 17224 H 1563.87 -3.5468 -1.28381 0
M  V30 17225 H 1566.26 -2.56926 -1.45165 0
M  V30 17226 H 1566.34 -2.53845 0.315638 0
M  V30 17227 H 1565.98 -5.06667 0.353759 0
M  V30 17228 H 1565.91 -5.06914 -1.42638 0
M  V30 17229 H 1568.4 -3.72624 -0.629253 0
M  V30 17230 H 1568.71 -7.69925 -0.66604 0
M  V30 17231 H 1567.06 -6.92354 -0.605912 0
M  V30 17232 H 1570.25 -4.62893 -0.696244 0
M  V30 17233 H 1570.42 -6.44063 -0.713246 0
M  V30 17234 N 1563.83 0.388742 -1.5273 0
M  V30 17235 C 1564.78 1.47488 -1.77527 0
M  V30 17236 C 1565.75 1.54155 -0.618505 0
M  V30 17237 O 1566.93 1.70407 -0.858251 0
M  V30 17238 C 1564.07 2.84714 -1.95018 0
M  V30 17239 C 1563.18 2.87197 -3.2271 0
M  V30 17240 C 1562.32 4.15851 -3.30517 0
M  V30 17241 C 1561.36 4.12386 -4.52332 0
M  V30 17242 N 1560.5 5.32647 -4.57418 0
M  V30 17243 H 1565.34 1.25644 -2.70218 0
M  V30 17244 H 1562.87 0.609519 -1.33878 0
M  V30 17245 H 1564.83 3.64402 -2.03143 0
M  V30 17246 H 1563.46 3.05008 -1.05688 0
M  V30 17247 H 1562.51 1.99879 -3.23655 0
M  V30 17248 H 1563.82 2.80505 -4.12454 0
M  V30 17249 H 1562.98 5.03943 -3.37827 0
M  V30 17250 H 1561.72 4.25265 -2.38748 0
M  V30 17251 H 1560.72 3.22683 -4.45147 0
M  V30 17252 H 1561.95 4.04594 -5.45418 0
M  V30 17253 H 1559.89 5.42691 -3.68541 0
M  V30 17254 H 1559.81 5.28032 -5.41035 0
M  V30 17255 H 1561.08 6.22636 -4.68983 0
M  V30 17256 N 1565.31 1.43698 0.647203 0
M  V30 17257 C 1566.24 1.52135 1.77136 0
M  V30 17258 C 1567.22 0.375551 1.65902 0
M  V30 17259 O 1568.4 0.593564 1.84907 0
M  V30 17260 C 1565.53 1.44974 3.15594 0
M  V30 17261 C 1564.49 2.57866 3.41598 0
M  V30 17262 C 1563.81 2.35757 4.7992 0
M  V30 17263 C 1565.11 4.00089 3.35747 0
M  V30 17264 H 1566.81 2.46227 1.70332 0
M  V30 17265 H 1564.35 1.18507 0.818046 0
M  V30 17266 H 1566.31 1.4948 3.93997 0
M  V30 17267 H 1565.03 0.473905 3.23143 0
M  V30 17268 H 1563.69 2.52722 2.65569 0
M  V30 17269 H 1563.34 1.36403 4.84152 0
M  V30 17270 H 1563.04 3.11436 4.98278 0
M  V30 17271 H 1564.56 2.42055 5.60572 0
M  V30 17272 H 1565.98 4.06687 4.04078 0
M  V30 17273 H 1564.37 4.75842 3.65642 0
M  V30 17274 H 1565.44 4.24798 2.33825 0
M  V30 17275 N 1566.79 -0.886131 1.30328 0
M  V30 17276 C 1567.7 -2.02453 1.18532 0
M  V30 17277 C 1568.71 -1.7368 0.105506 0
M  V30 17278 O 1569.89 -1.98838 0.320217 0
M  V30 17279 C 1566.95 -3.3543 0.876792 0
M  V30 17280 C 1566.01 -3.77633 2.04185 0
M  V30 17281 C 1565.25 -5.04264 1.74795 0
M  V30 17282 O 1565.47 -5.66388 0.675323 0
M  V30 17283 O 1564.4 -5.42847 2.60001 0
M  V30 17284 H 1568.23 -2.15333 2.14162 0
M  V30 17285 H 1565.82 -1.01193 1.09911 0
M  V30 17286 H 1567.7 -4.15206 0.719882 0
M  V30 17287 H 1566.37 -3.23662 -0.0496117 0
M  V30 17288 H 1565.28 -2.98567 2.25408 0
M  V30 17289 H 1566.61 -3.94004 2.94994 0
M  V30 17290 N 1568.26 -1.13026 -1.09832 0
M  V30 17291 C 1569.51 -0.887662 -1.81563 0
M  V30 17292 C 1569.83 0.587935 -1.85926 0
M  V30 17293 O 1569.1 1.42732 -1.3418 0
M  V30 17294 H 1567.68 -0.32541 -0.672397 0
M  V30 17295 H 1570.35 -1.42597 -1.32861 0
M  V30 17296 H 1569.44 -1.2747 -2.84882 0
M  V30 17297 N 1569.74 1.27735 -0.923117 0
M  V30 17298 C 1571.02 1.89626 -0.479724 0
M  V30 17299 C 1571.4 1.83592 1.04197 0
M  V30 17300 O 1570.75 1.27808 1.89413 0
M  V30 17301 C 1570.96 3.33742 -1.02064 0
M  V30 17302 C 1572.31 4.10678 -1.07837 0
M  V30 17303 O 1573.33 3.4274 -0.969943 0
M  V30 17304 O 1572.19 5.32135 -1.24476 0
M  V30 17305 H 1569.28 0.812615 -0.153575 0
M  V30 17306 H 1571.83 1.36036 -1.01451 0
M  V30 17307 H 1570.6 3.32404 -2.06454 0
M  V30 17308 H 1570.22 3.94845 -0.467234 0
M  V30 17309 N 1571.22 0.688118 1.41784 0
M  V30 17310 C 1572.18 0.0271411 2.29184 0
M  V30 17311 C 1573.18 -0.715537 1.44002 0
M  V30 17312 O 1574.37 -0.551542 1.65238 0
M  V30 17313 C 1571.51 -0.97206 3.26747 0
M  V30 17314 H 1572.7 0.79658 2.89127 0
M  V30 17315 H 1570.25 0.451198 1.49646 0
M  V30 17316 H 1570.99 -1.76953 2.71769 0
M  V30 17317 H 1570.77 -0.442746 3.89592 0
M  V30 17318 H 1572.26 -1.43256 3.92259 0
M  V30 17319 N 1572.7 -1.51554 0.432352 0
M  V30 17320 C 1573.92 -2.06947 -0.136995 0
M  V30 17321 C 1574.35 -1.29817 -1.36122 0
M  V30 17322 O 1573.71 -0.334733 -1.78183 0
M  V30 17323 C 1573.75 -3.57871 -0.442785 0
M  V30 17324 O 1572.86 -3.82966 -1.53007 0
M  V30 17325 H 1572.2 -0.663988 -0.00405152 0
M  V30 17326 H 1574.73 -1.95225 0.612249 0
M  V30 17327 H 1574.74 -4.02042 -0.694694 0
M  V30 17328 H 1573.41 -4.13436 0.452013 0
M  V30 17329 H 1571.99 -3.50661 -1.26851 0
M  V30 17330 N 1574.18 -0.163538 -1.56749 0
M  V30 17331 C 1575.45 0.529349 -1.88301 0
M  V30 17332 C 1575.83 1.81844 -1.07219 0
M  V30 17333 O 1575.18 2.27912 -0.16381 0
M  V30 17334 C 1575.39 0.778796 -3.402 0
M  V30 17335 C 1576.74 1.11225 -4.09773 0
M  V30 17336 O 1577.76 0.867598 -3.45472 0
M  V30 17337 O 1576.62 1.57344 -5.2336 0
M  V30 17338 H 1573.72 0.271928 -0.781015 0
M  V30 17339 H 1576.26 -0.20139 -1.68501 0
M  V30 17340 H 1575.03 -0.132839 -3.91074 0
M  V30 17341 H 1574.66 1.56313 -3.65584 0
M  V30 17342 N 1575.65 1.57214 0.110213 0
M  V30 17343 C 1576.9 1.85312 0.816439 0
M  V30 17344 C 1577.23 0.749901 1.79462 0
M  V30 17345 O 1576.48 -0.257948 1.93993 0
M  V30 17346 C 1576.78 3.19933 1.59304 0
M  V30 17347 C 1576.45 4.44477 0.75835 0
M  V30 17348 C 1575.11 4.78292 0.528201 0
M  V30 17349 C 1577.46 5.20899 0.177117 0
M  V30 17350 C 1574.79 5.85966 -0.293292 0
M  V30 17351 C 1577.14 6.29439 -0.631615 0
M  V30 17352 C 1575.81 6.6178 -0.871998 0
M  V30 17353 H 1575.08 0.678104 0.298756 0
M  V30 17354 H 1577.72 1.91339 0.0784721 0
M  V30 17355 H 1576.03 3.09522 2.40216 0
M  V30 17356 H 1577.73 3.38897 2.14359 0
M  V30 17357 H 1574.32 4.17988 0.94783 0
M  V30 17358 H 1578.5 4.95119 0.342121 0
M  V30 17359 H 1573.76 6.09444 -0.488665 0
M  V30 17360 H 1577.93 6.87834 -1.08894 0
M  V30 17361 H 1575.56 7.45045 -1.51037 0
M  V30 17362 N 1577.13 -0.380637 1.52934 0
M  V30 17363 C 1578.08 -1.46521 1.74687 0
M  V30 17364 C 1579.07 -1.49251 0.601087 0
M  V30 17365 O 1580.26 -1.54746 0.859224 0
M  V30 17366 C 1577.39 -2.84137 1.92668 0
M  V30 17367 C 1576.47 -2.85944 3.13204 0
M  V30 17368 N 1576.86 -2.57413 4.35399 0
M  V30 17369 C 1575.16 -3.1711 3.13619 0
M  V30 17370 C 1575.86 -2.66516 5.17053 0
M  V30 17371 N 1574.84 -3.00598 4.52926 0
M  V30 17372 H 1578.64 -1.23301 2.66785 0
M  V30 17373 H 1576.16 -0.588675 1.51355 0
M  V30 17374 H 1578.15 -3.62236 2.06376 0
M  V30 17375 H 1576.81 -3.08333 1.01789 0
M  V30 17376 H 1577.82 -2.31281 4.63389 0
M  V30 17377 H 1574.5 -3.46717 2.3258 0
M  V30 17378 H 1575.89 -2.47931 6.24484 0
M  V30 17379 N 1578.61 -1.44039 -0.639573 0
M  V30 17380 C 1579.52 -1.52728 -1.78077 0
M  V30 17381 C 1580.54 -0.413467 -1.69016 0
M  V30 17382 O 1581.71 -0.669592 -1.89943 0
M  V30 17383 C 1578.78 -1.46078 -3.14424 0
M  V30 17384 C 1577.84 -2.68242 -3.35179 0
M  V30 17385 C 1577.07 -2.61899 -4.65021 0
M  V30 17386 O 1577.29 -1.67431 -5.45273 0
M  V30 17387 O 1576.23 -3.52619 -4.87795 0
M  V30 17388 H 1580.05 -2.49122 -1.737 0
M  V30 17389 H 1577.64 -1.26191 -0.799755 0
M  V30 17390 H 1579.52 -1.44861 -3.95719 0
M  V30 17391 H 1578.2 -0.528236 -3.19361 0
M  V30 17392 H 1577.1 -2.75028 -2.53595 0
M  V30 17393 H 1578.44 -3.60514 -3.35098 0
M  V30 17394 N 1580.09 0.879207 -1.30796 0
M  V30 17395 C 1581.02 1.99134 -1.13482 0
M  V30 17396 C 1582.03 1.6262 -0.0764492 0
M  V30 17397 O 1583.22 1.75553 -0.323038 0
M  V30 17398 C 1580.32 3.31386 -0.709706 0
M  V30 17399 C 1579.5 3.963 -1.85108 0
M  V30 17400 C 1578.55 5.06858 -1.41356 0
M  V30 17401 O 1577.58 5.28178 -2.12172 0
M  V30 17402 N 1578.78 5.79746 -0.295789 0
M  V30 17403 H 1581.55 2.14536 -2.09271 0
M  V30 17404 H 1579.11 1.05264 -1.23009 0
M  V30 17405 H 1581.1 4.02719 -0.399903 0
M  V30 17406 H 1579.67 3.12209 0.156309 0
M  V30 17407 H 1578.89 3.18065 -2.3287 0
M  V30 17408 H 1580.18 4.36408 -2.61582 0
M  V30 17409 H 1579.58 5.64935 0.294166 0
M  V30 17410 H 1578.13 6.51784 -0.0454707 0
M  V30 17411 N 1581.57 1.13606 1.09231 0
M  V30 17412 C 1582.82 0.893694 1.8082 0
M  V30 17413 C 1583.13 -0.581713 1.8675 0
M  V30 17414 O 1584.34 -0.941079 2.54668 0
M  V30 17415 C 1582.79 1.54932 3.24845 0
M  V30 17416 C 1582.4 3.0604 3.27175 0
M  V30 17417 C 1584.14 1.38773 4.01176 0
M  V30 17418 C 1582.05 3.64478 4.65735 0
M  V30 17419 H 1580.98 0.330699 0.677609 0
M  V30 17420 H 1583.63 1.36401 1.22748 0
M  V30 17421 H 1582.01 1.00668 3.82991 0
M  V30 17422 H 1583.19 3.66901 2.78783 0
M  V30 17423 H 1581.5 3.21739 2.64335 0
M  V30 17424 H 1584.1 1.79843 5.03548 0
M  V30 17425 H 1584.44 0.33282 4.14967 0
M  V30 17426 H 1584.98 1.90028 3.49477 0
M  V30 17427 H 1581.71 4.69785 4.57146 0
M  V30 17428 H 1581.23 3.08396 5.14444 0
M  V30 17429 H 1582.91 3.64272 5.3471 0
M  V30 17430 N 1583.05 -1.27244 0.929878 0
M  V30 17431 C 1584.01 -2.25028 0.435315 0
M  V30 17432 C 1585.01 -1.54453 -0.447332 0
M  V30 17433 O 1586.2 -1.72424 -0.248105 0
M  V30 17434 C 1583.33 -3.38843 -0.373933 0
M  V30 17435 H 1584.52 -2.70293 1.2993 0
M  V30 17436 H 1582.08 -1.39204 0.710771 0
M  V30 17437 H 1582.81 -2.98963 -1.25664 0
M  V30 17438 H 1582.6 -3.91244 0.258946 0
M  V30 17439 H 1584.09 -4.11516 -0.710255 0
M  V30 17440 N 1584.52 -0.695628 -1.41417 0
M  V30 17441 C 1585.8 -0.154646 -1.94988 0
M  V30 17442 C 1586.18 1.33534 -1.63499 0
M  V30 17443 O 1585.53 2.08178 -0.942031 0
M  V30 17444 C 1585.74 -0.446004 -3.46138 0
M  V30 17445 C 1587.09 -0.37378 -4.22952 0
M  V30 17446 O 1588.11 -0.380921 -3.54157 0
M  V30 17447 O 1586.97 -0.33395 -5.45479 0
M  V30 17448 H 1584.06 -0.0150053 -0.826864 0
M  V30 17449 H 1586.61 -0.771792 -1.51134 0
M  V30 17450 H 1585.38 -1.47734 -3.6234 0
M  V30 17451 H 1585 0.202111 -3.97086 0
M  V30 17452 N 1586 1.51322 -0.440383 0
M  V30 17453 C 1586.93 2.30708 0.360013 0
M  V30 17454 C 1587.91 1.36254 1.01828 0
M  V30 17455 O 1589.1 1.65174 1.02134 0
M  V30 17456 C 1586.23 3.15132 1.45977 0
M  V30 17457 C 1585.18 4.17889 0.924825 0
M  V30 17458 C 1584.51 4.90853 2.12056 0
M  V30 17459 C 1585.81 5.22282 -0.0428362 0
M  V30 17460 H 1587.5 2.97868 -0.30248 0
M  V30 17461 H 1585.05 1.43249 -0.146914 0
M  V30 17462 H 1587 3.69449 2.02695 0
M  V30 17463 H 1585.72 2.45798 2.1506 0
M  V30 17464 H 1584.38 3.64627 0.379842 0
M  V30 17465 H 1584.03 4.1802 2.79765 0
M  V30 17466 H 1583.73 5.60339 1.769 0
M  V30 17467 H 1585.26 5.47995 2.69322 0
M  V30 17468 H 1586.67 5.71654 0.434137 0
M  V30 17469 H 1585.07 5.99314 -0.307126 0
M  V30 17470 H 1586.14 4.74923 -0.978557 0
M  V30 17471 N 1587.48 0.171848 1.5666 0
M  V30 17472 C 1588.41 -0.789671 2.15167 0
M  V30 17473 C 1589.42 -1.19335 1.10739 0
M  V30 17474 O 1590.61 -1.13311 1.37924 0
M  V30 17475 C 1587.71 -2.07448 2.6799 0
M  V30 17476 C 1586.89 -1.83429 3.9708 0
M  V30 17477 C 1585.95 -2.96134 4.34961 0
M  V30 17478 O 1584.97 -2.66746 5.02827 0
M  V30 17479 N 1586.17 -4.23932 3.96563 0
M  V30 17480 H 1588.94 -0.289484 2.98299 0
M  V30 17481 H 1586.5 -0.0109154 1.61896 0
M  V30 17482 H 1588.49 -2.81941 2.90329 0
M  V30 17483 H 1587.06 -2.48656 1.89444 0
M  V30 17484 H 1586.28 -0.928376 3.83112 0
M  V30 17485 H 1587.57 -1.64749 4.81389 0
M  V30 17486 H 1586.97 -4.50668 3.41928 0
M  V30 17487 H 1585.52 -4.95126 4.23903 0
M  V30 17488 N 1588.96 -1.5727 -0.101874 0
M  V30 17489 C 1589.92 -2.00625 -1.10826 0
M  V30 17490 C 1590.92 -0.89878 -1.33336 0
M  V30 17491 O 1592.11 -1.16442 -1.29564 0
M  V30 17492 C 1589.24 -2.36113 -2.45893 0
M  V30 17493 H 1590.44 -2.90748 -0.735238 0
M  V30 17494 H 1587.99 -1.52406 -0.346713 0
M  V30 17495 H 1588.72 -1.48923 -2.88084 0
M  V30 17496 H 1588.51 -3.169 -2.30904 0
M  V30 17497 H 1590 -2.70336 -3.1829 0
M  V30 17498 N 1590.44 0.372521 -1.53134 0
M  V30 17499 C 1591.37 1.4759 -1.75357 0
M  V30 17500 C 1592.38 1.49938 -0.634223 0
M  V30 17501 O 1593.57 1.53543 -0.910322 0
M  V30 17502 C 1590.67 2.86382 -1.81214 0
M  V30 17503 C 1589.84 3.0781 -3.1076 0
M  V30 17504 C 1588.9 4.26677 -3.07949 0
M  V30 17505 O 1587.93 4.22186 -3.81769 0
M  V30 17506 N 1589.13 5.33729 -2.28283 0
M  V30 17507 H 1591.89 1.28908 -2.7056 0
M  V30 17508 H 1589.46 0.562186 -1.51826 0
M  V30 17509 H 1591.45 3.64029 -1.7682 0
M  V30 17510 H 1590.02 2.98344 -0.933249 0
M  V30 17511 H 1589.24 2.17884 -3.28512 0
M  V30 17512 H 1590.53 3.18991 -3.96386 0
M  V30 17513 H 1589.92 5.40238 -1.67806 0
M  V30 17514 H 1588.48 6.09979 -2.29714 0
M  V30 17515 N 1591.91 1.44376 0.631925 0
M  V30 17516 C 1593.16 1.46398 1.38747 0
M  V30 17517 C 1593.48 0.100149 1.95343 0
M  V30 17518 O 1594.68 -0.00210908 2.715 0
M  V30 17519 C 1593.14 2.57731 2.51203 0
M  V30 17520 C 1592.75 4.00317 2.01123 0
M  V30 17521 C 1594.49 2.68972 3.28412 0
M  V30 17522 C 1592.4 5.03075 3.10917 0
M  V30 17523 H 1591.33 0.544667 0.521396 0
M  V30 17524 H 1593.98 1.70439 0.679912 0
M  V30 17525 H 1592.36 2.26928 3.2453 0
M  V30 17526 H 1593.53 4.40683 1.34666 0
M  V30 17527 H 1591.85 3.93311 1.36732 0
M  V30 17528 H 1594.45 3.42916 4.10259 0
M  V30 17529 H 1594.79 1.74762 3.77841 0
M  V30 17530 H 1595.32 2.9918 2.62176 0
M  V30 17531 H 1592.06 5.98911 2.66433 0
M  V30 17532 H 1591.58 4.67302 3.76017 0
M  V30 17533 H 1593.26 5.2674 3.75705 0
M  V30 17534 N 1593.39 -0.872258 1.31261 0
M  V30 17535 C 1594.35 -1.96081 1.1868 0
M  V30 17536 C 1595.35 -1.60392 0.11452 0
M  V30 17537 O 1596.54 -1.70363 0.363613 0
M  V30 17538 C 1593.68 -3.30862 0.821183 0
M  V30 17539 H 1594.87 -2.08667 2.15402 0
M  V30 17540 H 1592.42 -1.06026 1.14839 0
M  V30 17541 H 1593.16 -3.23976 -0.14498 0
M  V30 17542 H 1592.94 -3.58137 1.59625 0
M  V30 17543 H 1594.43 -4.10682 0.756991 0
M  V30 17544 N 1594.87 -1.14184 -1.08627 0
M  V30 17545 C 1595.78 -0.84033 -2.19033 0
M  V30 17546 C 1596.8 0.178322 -1.73084 0
M  V30 17547 O 1597.97 0.00737963 -2.01399 0
M  V30 17548 C 1595.04 -0.319674 -3.45223 0
M  V30 17549 C 1594.1 -1.4006 -4.0581 0
M  V30 17550 C 1593.33 -0.904693 -5.25976 0
M  V30 17551 O 1593.55 0.25468 -5.69831 0
M  V30 17552 O 1592.49 -1.68267 -5.77901 0
M  V30 17553 H 1596.31 -1.76296 -2.47292 0
M  V30 17554 H 1593.9 -0.919929 -1.17719 0
M  V30 17555 H 1595.78 -0.0351268 -4.21385 0
M  V30 17556 H 1594.46 0.575264 -3.18547 0
M  V30 17557 H 1593.36 -1.73858 -3.31247 0
M  V30 17558 H 1594.7 -2.26998 -4.3673 0
M  V30 17559 N 1596.35 1.26749 -0.936613 0
M  V30 17560 C 1597.28 2.2892 -0.460213 0
M  V30 17561 C 1598.26 1.63065 0.484135 0
M  V30 17562 O 1599.44 1.90305 0.386973 0
M  V30 17563 C 1596.57 3.46172 0.279648 0
M  V30 17564 C 1595.53 4.24083 -0.57771 0
M  V30 17565 C 1594.85 5.33903 0.291843 0
M  V30 17566 C 1596.15 4.88562 -1.84673 0
M  V30 17567 H 1597.85 2.69019 -1.31412 0
M  V30 17568 H 1595.39 1.29325 -0.633333 0
M  V30 17569 H 1597.35 4.16755 0.623931 0
M  V30 17570 H 1596.07 3.05014 1.16765 0
M  V30 17571 H 1594.73 3.55258 -0.904824 0
M  V30 17572 H 1594.38 4.88986 1.17906 0
M  V30 17573 H 1594.08 5.8694 -0.278372 0
M  V30 17574 H 1595.6 6.07326 0.631498 0
M  V30 17575 H 1597.02 5.51384 -1.56997 0
M  V30 17576 H 1595.41 5.51697 -2.36115 0
M  V30 17577 H 1596.48 4.11761 -2.56088 0
M  V30 17578 N 1597.83 0.703118 1.41046 0
M  V30 17579 C 1598.77 0.0425767 2.30761 0
M  V30 17580 C 1599.74 -0.763406 1.47517 0
M  V30 17581 O 1600.93 -0.7299 1.76287 0
M  V30 17582 C 1598.07 -0.882353 3.33629 0
M  V30 17583 C 1597.18 -0.0671799 4.31948 0
M  V30 17584 C 1596.32 -0.990443 5.21885 0
M  V30 17585 C 1595.36 -0.168622 6.11868 0
M  V30 17586 N 1594.49 -1.04609 6.94263 0
M  V30 17587 H 1599.33 0.813363 2.86685 0
M  V30 17588 H 1596.87 0.412804 1.41189 0
M  V30 17589 H 1598.83 -1.43273 3.91827 0
M  V30 17590 H 1597.46 -1.61946 2.79237 0
M  V30 17591 H 1596.51 0.600219 3.75635 0
M  V30 17592 H 1597.82 0.569624 4.95537 0
M  V30 17593 H 1596.98 -1.60979 5.84954 0
M  V30 17594 H 1595.71 -1.66109 4.5854 0
M  V30 17595 H 1594.72 0.463746 5.47841 0
M  V30 17596 H 1595.94 0.49834 6.77269 0
M  V30 17597 H 1593.89 -1.70262 6.33519 0
M  V30 17598 H 1593.81 -0.465036 7.54568 0
M  V30 17599 H 1595.08 -1.65201 7.61793 0
M  V30 17600 N 1599.3 -1.51086 0.448402 0
M  V30 17601 C 1600.24 -2.24615 -0.402921 0
M  V30 17602 C 1601.22 -1.26994 -1.01544 0
M  V30 17603 O 1602.4 -1.56159 -1.05577 0
M  V30 17604 C 1599.53 -3.00504 -1.56253 0
M  V30 17605 C 1598.57 -4.1287 -1.06961 0
M  V30 17606 S 1599.41 -5.355 -0.00265176 0
M  V30 17607 C 1600.56 -6.14931 -1.16667 0
M  V30 17608 H 1600.79 -2.96475 0.221298 0
M  V30 17609 H 1598.33 -1.52631 0.23303 0
M  V30 17610 H 1600.29 -3.44824 -2.22726 0
M  V30 17611 H 1598.95 -2.28212 -2.15819 0
M  V30 17612 H 1598.14 -4.65288 -1.93708 0
M  V30 17613 H 1597.74 -3.70869 -0.48296 0
M  V30 17614 H 1600.03 -6.44688 -2.08286 0
M  V30 17615 H 1600.98 -7.04806 -0.682223 0
M  V30 17616 H 1601.38 -5.46601 -1.41024 0
M  V30 17617 N 1600.78 -0.180154 -1.56567 0
M  V30 17618 C 1601.71 0.77825 -2.15583 0
M  V30 17619 C 1602.73 1.18746 -1.1137 0
M  V30 17620 O 1603.92 1.12578 -1.38523 0
M  V30 17621 C 1601.02 2.06024 -2.69086 0
M  V30 17622 C 1600.19 1.8132 -3.98047 0
M  V30 17623 C 1599.25 2.93823 -4.36526 0
M  V30 17624 O 1598.27 2.64075 -5.04235 0
M  V30 17625 N 1599.48 4.21823 -3.98806 0
M  V30 17626 H 1602.24 0.273661 -2.98448 0
M  V30 17627 H 1599.8 0.00232952 -1.619 0
M  V30 17628 H 1601.79 2.80398 -2.9182 0
M  V30 17629 H 1600.36 2.47648 -1.9076 0
M  V30 17630 H 1599.58 0.908046 -3.83599 0
M  V30 17631 H 1600.87 1.62194 -4.82256 0
M  V30 17632 H 1600.27 4.48849 -3.44313 0
M  V30 17633 H 1598.83 4.92871 -4.26522 0
M  V30 17634 N 1602.26 1.57322 0.0935319 0
M  V30 17635 C 1603.19 2.05208 1.11409 0
M  V30 17636 C 1604.17 0.941295 1.41681 0
M  V30 17637 O 1605.36 1.21266 1.51684 0
M  V30 17638 C 1602.49 2.47782 2.43354 0
M  V30 17639 C 1601.44 3.62538 2.27486 0
M  V30 17640 C 1600.77 3.91095 3.64622 0
M  V30 17641 C 1602.07 4.93371 1.71412 0
M  V30 17642 H 1603.76 2.9072 0.715702 0
M  V30 17643 H 1601.31 1.3986 0.342827 0
M  V30 17644 H 1603.26 2.79891 3.15022 0
M  V30 17645 H 1601.98 1.59272 2.85132 0
M  V30 17646 H 1600.64 3.30679 1.58263 0
M  V30 17647 H 1600.29 2.99749 4.0393 0
M  V30 17648 H 1599.99 4.68353 3.5485 0
M  V30 17649 H 1601.51 4.25679 4.37755 0
M  V30 17650 H 1602.93 5.23851 2.32922 0
M  V30 17651 H 1601.33 5.74804 1.72395 0
M  V30 17652 H 1602.4 4.80197 0.67368 0
M  V30 17653 N 1603.74 -0.364395 1.53329 0
M  V30 17654 C 1604.7 -1.42927 1.79178 0
M  V30 17655 C 1605.7 -1.4653 0.662235 0
M  V30 17656 O 1606.89 -1.4727 0.930442 0
M  V30 17657 C 1604.02 -2.82035 1.91492 0
M  V30 17658 H 1605.22 -1.21281 2.74283 0
M  V30 17659 H 1602.77 -0.597596 1.44425 0
M  V30 17660 H 1603.5 -3.08993 0.984579 0
M  V30 17661 H 1603.29 -2.80818 2.73649 0
M  V30 17662 H 1604.78 -3.59148 2.13078 0
M  V30 17663 N 1605.22 -1.44709 -0.62426 0
M  V30 17664 C 1606.16 -1.52104 -1.73589 0
M  V30 17665 C 1607.13 -0.368193 -1.61968 0
M  V30 17666 O 1608.32 -0.579374 -1.81791 0
M  V30 17667 C 1605.46 -1.4778 -3.11857 0
M  V30 17668 C 1604.57 -2.73491 -3.34405 0
M  V30 17669 C 1603.71 -2.60953 -4.62685 0
M  V30 17670 C 1602.75 -3.81795 -4.78434 0
M  V30 17671 N 1601.88 -3.67892 -5.97997 0
M  V30 17672 H 1606.72 -2.47077 -1.66604 0
M  V30 17673 H 1604.26 -1.22617 -0.812616 0
M  V30 17674 H 1606.22 -1.43263 -3.91831 0
M  V30 17675 H 1604.85 -0.563694 -3.1784 0
M  V30 17676 H 1603.9 -2.88166 -2.48324 0
M  V30 17677 H 1605.21 -3.6317 -3.4192 0
M  V30 17678 H 1604.37 -2.54308 -5.50829 0
M  V30 17679 H 1603.1 -1.68846 -4.57539 0
M  V30 17680 H 1602.11 -3.88817 -3.88717 0
M  V30 17681 H 1603.33 -4.74947 -4.85388 0
M  V30 17682 H 1601.28 -2.78541 -5.93928 0
M  V30 17683 H 1601.2 -4.51193 -6.06598 0
M  V30 17684 H 1602.47 -3.6515 -6.88684 0
M  V30 17685 N 1606.69 0.865285 -1.31722 0
M  V30 17686 C 1607.64 1.97294 -1.19766 0
M  V30 17687 C 1608.61 1.65896 -0.0823232 0
M  V30 17688 O 1609.8 1.89075 -0.256009 0
M  V30 17689 C 1606.94 3.32727 -0.915776 0
M  V30 17690 C 1606.05 3.76691 -2.11489 0
M  V30 17691 C 1605.18 5.00865 -1.76939 0
M  V30 17692 C 1604.22 5.37291 -2.93232 0
M  V30 17693 N 1603.36 6.52643 -2.58846 0
M  V30 17694 H 1608.2 2.06851 -2.14515 0
M  V30 17695 H 1605.74 1.01256 -1.06703 0
M  V30 17696 H 1607.7 4.10712 -0.732881 0
M  V30 17697 H 1606.33 3.228 -0.00510917 0
M  V30 17698 H 1605.38 2.94449 -2.4084 0
M  V30 17699 H 1606.69 3.99613 -2.98514 0
M  V30 17700 H 1605.84 5.86529 -1.5514 0
M  V30 17701 H 1604.58 4.79857 -0.871125 0
M  V30 17702 H 1603.59 4.50143 -3.15675 0
M  V30 17703 H 1604.81 5.60262 -3.83775 0
M  V30 17704 H 1602.76 6.33172 -1.71548 0
M  V30 17705 H 1602.68 6.75531 -3.39401 0
M  V30 17706 H 1603.94 7.41487 -2.40451 0
M  V30 17707 N 1608.17 1.14759 1.0802 0
M  V30 17708 C 1609.08 0.851934 2.18585 0
M  V30 17709 C 1610.1 -0.16914 1.73176 0
M  V30 17710 O 1611.27 0.00330114 2.014 0
M  V30 17711 C 1608.34 0.337977 3.45049 0
M  V30 17712 C 1607.4 1.4221 4.05061 0
M  V30 17713 C 1606.63 0.932574 5.25489 0
M  V30 17714 O 1606.86 -0.224457 5.69958 0
M  V30 17715 O 1605.79 1.7133 5.77001 0
M  V30 17716 H 1609.62 1.77605 2.46354 0
M  V30 17717 H 1607.2 0.926159 1.17229 0
M  V30 17718 H 1609.08 0.0574734 4.21361 0
M  V30 17719 H 1607.76 -0.558363 3.18848 0
M  V30 17720 H 1606.67 1.75612 3.3032 0
M  V30 17721 H 1608 2.29311 4.3552 0
M  V30 17722 N 1609.65 -1.26251 0.943322 0
M  V30 17723 C 1610.56 -2.3003 0.460778 0
M  V30 17724 C 1611.58 -1.67635 -0.4663 0
M  V30 17725 O 1612.75 -1.98418 -0.345307 0
M  V30 17726 C 1609.82 -3.45691 -0.264291 0
M  V30 17727 C 1608.88 -4.23561 0.69961 0
M  V30 17728 C 1608.11 -5.33699 0.00904846 0
M  V30 17729 O 1608.33 -5.57473 -1.20748 0
M  V30 17730 O 1607.27 -5.97945 0.688839 0
M  V30 17731 H 1611.09 -2.73374 1.32289 0
M  V30 17732 H 1608.68 -1.31489 0.709297 0
M  V30 17733 H 1610.56 -4.15997 -0.672634 0
M  V30 17734 H 1609.24 -3.04373 -1.10176 0
M  V30 17735 H 1608.14 -3.55728 1.15794 0
M  V30 17736 H 1609.48 -4.68634 1.50476 0
M  V30 17737 N 1611.13 -0.710588 -1.40671 0
M  V30 17738 C 1612.04 -0.0557164 -2.34534 0
M  V30 17739 C 1613.06 0.749387 -1.57036 0
M  V30 17740 O 1614.23 0.683493 -1.89447 0
M  V30 17741 C 1611.3 0.858583 -3.35901 0
M  V30 17742 C 1610.36 0.043995 -4.29277 0
M  V30 17743 C 1609.59 0.91475 -5.25802 0
M  V30 17744 O 1609.81 2.15407 -5.28163 0
M  V30 17745 O 1608.75 0.356407 -6.00844 0
M  V30 17746 H 1612.57 -0.829807 -2.92144 0
M  V30 17747 H 1610.16 -0.471028 -1.4178 0
M  V30 17748 H 1612.04 1.38244 -3.98079 0
M  V30 17749 H 1610.72 1.61191 -2.80712 0
M  V30 17750 H 1609.62 -0.524815 -3.704 0
M  V30 17751 H 1610.96 -0.670996 -4.87605 0
M  V30 17752 N 1612.61 1.50847 -0.456408 0
M  V30 17753 C 1613.54 2.31077 0.335523 0
M  V30 17754 C 1614.52 1.37326 1.00377 0
M  V30 17755 O 1615.7 1.66247 1.00376 0
M  V30 17756 C 1612.83 3.16662 1.42627 0
M  V30 17757 C 1611.79 4.18846 0.88045 0
M  V30 17758 C 1611.11 4.93074 2.06838 0
M  V30 17759 C 1612.41 5.22208 -0.0982288 0
M  V30 17760 H 1614.11 2.97531 -0.334056 0
M  V30 17761 H 1611.65 1.43085 -0.162099 0
M  V30 17762 H 1613.61 3.71578 1.98765 0
M  V30 17763 H 1612.33 2.48066 2.12441 0
M  V30 17764 H 1610.99 3.65009 0.341147 0
M  V30 17765 H 1610.64 4.20963 2.75316 0
M  V30 17766 H 1610.34 5.62184 1.70947 0
M  V30 17767 H 1611.86 5.5082 2.63494 0
M  V30 17768 H 1613.28 5.72082 0.373481 0
M  V30 17769 H 1611.67 5.98954 -0.370674 0
M  V30 17770 H 1612.74 4.73859 -1.02887 0
M  V30 17771 N 1614.09 0.188454 1.56469 0
M  V30 17772 C 1615.02 -0.766806 2.15992 0
M  V30 17773 C 1616.03 -1.18153 1.11998 0
M  V30 17774 O 1617.22 -1.11842 1.39118 0
M  V30 17775 C 1614.32 -2.04594 2.70175 0
M  V30 17776 C 1613.49 -1.79207 3.99003 0
M  V30 17777 C 1612.55 -2.91504 4.38078 0
M  V30 17778 O 1611.58 -2.61397 5.05628 0
M  V30 17779 N 1612.78 -4.19702 4.01037 0
M  V30 17780 H 1615.54 -0.257829 2.98589 0
M  V30 17781 H 1613.11 0.00625645 1.61899 0
M  V30 17782 H 1615.1 -2.78846 2.93303 0
M  V30 17783 H 1613.67 -2.46633 1.9207 0
M  V30 17784 H 1612.89 -0.88769 3.84075 0
M  V30 17785 H 1614.18 -1.59634 4.83109 0
M  V30 17786 H 1613.57 -4.47016 3.46689 0
M  V30 17787 H 1612.13 -4.90602 4.2913 0
M  V30 17788 N 1615.56 -1.5737 -0.0851874 0
M  V30 17789 C 1616.53 -2.01789 -1.08692 0
M  V30 17790 C 1617.53 -0.912872 -1.32376 0
M  V30 17791 O 1618.72 -1.1781 -1.28322 0
M  V30 17792 C 1615.85 -2.38708 -2.43375 0
M  V30 17793 H 1617.04 -2.91511 -0.704359 0
M  V30 17794 H 1614.59 -1.52765 -0.330528 0
M  V30 17795 H 1615.33 -1.5197 -2.86488 0
M  V30 17796 H 1615.11 -3.19331 -2.2753 0
M  V30 17797 H 1616.6 -2.73697 -3.15404 0
M  V30 17798 N 1617.04 0.356258 -1.53521 0
M  V30 17799 C 1618 1.41975 -1.79933 0
M  V30 17800 C 1619 1.46177 -0.669997 0
M  V30 17801 O 1620.19 1.46774 -0.938239 0
M  V30 17802 C 1617.33 2.81015 -1.92985 0
M  V30 17803 H 1618.52 1.19824 -2.74922 0
M  V30 17804 H 1616.07 0.589928 -1.4474 0
M  V30 17805 H 1616.81 3.08466 -1.00095 0
M  V30 17806 H 1616.59 2.79363 -2.75135 0
M  V30 17807 H 1618.08 3.58013 -2.1498 0
M  V30 17808 N 1618.52 1.45038 0.616577 0
M  V30 17809 C 1619.45 1.55858 1.73869 0
M  V30 17810 C 1620.43 0.410657 1.65069 0
M  V30 17811 O 1621.62 0.632652 1.83606 0
M  V30 17812 C 1618.75 1.51635 3.12448 0
M  V30 17813 C 1617.7 2.65053 3.36052 0
M  V30 17814 C 1617.03 2.45883 4.74811 0
M  V30 17815 C 1618.33 4.07121 3.27185 0
M  V30 17816 H 1620.02 2.49784 1.6507 0
M  V30 17817 H 1617.57 1.20216 0.792724 0
M  V30 17818 H 1619.52 1.57803 3.90738 0
M  V30 17819 H 1618.24 0.542342 3.22066 0
M  V30 17820 H 1616.9 2.58299 2.60149 0
M  V30 17821 H 1616.55 1.46641 4.8115 0
M  V30 17822 H 1616.25 3.21935 4.9156 0
M  V30 17823 H 1617.77 2.53892 5.55312 0
M  V30 17824 H 1619.19 4.15167 3.9536 0
M  V30 17825 H 1617.58 4.83491 3.55466 0
M  V30 17826 H 1618.65 4.29663 2.24762 0
M  V30 17827 N 1620 -0.858287 1.32179 0
M  V30 17828 C 1620.96 -1.94811 1.20753 0
M  V30 17829 C 1621.96 -1.60261 0.131526 0
M  V30 17830 O 1623.15 -1.69968 0.381662 0
M  V30 17831 C 1620.28 -3.29972 0.856229 0
M  V30 17832 H 1621.48 -2.06371 2.17603 0
M  V30 17833 H 1619.03 -1.04802 1.15958 0
M  V30 17834 H 1619.76 -3.24111 -0.11061 0
M  V30 17835 H 1619.55 -3.56424 1.63414 0
M  V30 17836 H 1621.04 -4.09856 0.800507 0
M  V30 17837 N 1621.48 -1.1533 -1.07409 0
M  V30 17838 C 1622.89 -0.895817 -1.32088 0
M  V30 17839 C 1623.09 0.457526 -1.96237 0
M  V30 17840 O 1622.15 1.19958 -2.22185 0
M  V30 17841 C 1623.46 -2.03632 -2.21256 0
M  V30 17842 C 1625.01 -2.07079 -2.34707 0
M  V30 17843 C 1625.48 -3.20451 -3.27223 0
M  V30 17844 N 1626.97 -3.20095 -3.34804 0
M  V30 17845 C 1627.71 -4.04458 -4.0645 0
M  V30 17846 N 1627.21 -4.98883 -4.80715 0
M  V30 17847 N 1629 -3.92483 -4.02385 0
M  V30 17848 H 1621.15 -2.02478 -0.641578 0
M  V30 17849 H 1623.41 -0.882864 -0.345332 0
M  V30 17850 H 1623.12 -3.0132 -1.81381 0
M  V30 17851 H 1622.99 -1.96817 -3.21781 0
M  V30 17852 H 1625.38 -1.09991 -2.73836 0
M  V30 17853 H 1625.46 -2.17962 -1.3389 0
M  V30 17854 H 1625.1 -4.17791 -2.88813 0
M  V30 17855 H 1625.03 -3.06805 -4.27993 0
M  V30 17856 H 1627.53 -2.51712 -2.81868 0
M  V30 17857 H 1627.84 -5.59698 -5.32877 0
M  V30 17858 H 1626.18 -5.02872 -4.79734 0
M  V30 17859 H 1629.37 -3.18026 -3.43478 0
M  V30 17860 H 1629.55 -4.58454 -4.57956 0
M  V30 17861 N 1622.95 1.25748 -0.950004 0
M  V30 17862 C 1623.88 2.28419 -0.484467 0
M  V30 17863 C 1624.86 1.63569 0.466813 0
M  V30 17864 O 1626.05 1.90705 0.366766 0
M  V30 17865 C 1623.18 3.46449 0.242916 0
M  V30 17866 C 1622.13 4.23447 -0.622657 0
M  V30 17867 C 1621.46 5.34182 0.235199 0
M  V30 17868 C 1622.76 4.86576 -1.89845 0
M  V30 17869 H 1624.45 2.6761 -1.34257 0
M  V30 17870 H 1622 1.28646 -0.647014 0
M  V30 17871 H 1623.95 4.17394 0.579693 0
M  V30 17872 H 1622.68 3.06235 1.13523 0
M  V30 17873 H 1621.34 3.54279 -0.942453 0
M  V30 17874 H 1620.98 4.90209 1.12713 0
M  V30 17875 H 1620.68 5.86612 -0.340609 0
M  V30 17876 H 1622.21 6.07961 0.567048 0
M  V30 17877 H 1623.62 5.49688 -1.62837 0
M  V30 17878 H 1622.02 5.49162 -2.41954 0
M  V30 17879 H 1623.09 4.09021 -2.60441 0
M  V30 17880 N 1624.43 0.718038 1.40292 0
M  V30 17881 C 1625.71 0.185648 1.94717 0
M  V30 17882 C 1626.09 -1.30916 1.65603 0
M  V30 17883 O 1625.44 -2.06653 0.975031 0
M  V30 17884 C 1625.65 0.501015 3.45385 0
M  V30 17885 C 1626.99 0.441021 4.22303 0
M  V30 17886 O 1628.02 0.437217 3.53507 0
M  V30 17887 O 1626.88 0.420689 5.44878 0
M  V30 17888 H 1623.97 0.0281581 0.82652 0
M  V30 17889 H 1626.52 0.795738 1.49887 0
M  V30 17890 H 1625.29 1.5348 3.59944 0
M  V30 17891 H 1624.91 -0.138913 3.97357 0
M  V30 17892 N 1625.91 -1.50602 0.464402 0
M  V30 17893 C 1627.19 -1.94992 -0.154146 0
M  V30 17894 C 1627.57 -1.40447 -1.57601 0
M  V30 17895 O 1626.92 -0.602668 -2.20409 0
M  V30 17896 C 1627.13 -3.48844 -0.104296 0
M  V30 17897 C 1628.47 -4.23563 -0.296506 0
M  V30 17898 O 1629.5 -3.55739 -0.181187 0
M  V30 17899 O 1628.36 -5.43937 -0.528668 0
M  V30 17900 H 1625.45 -0.818921 -0.115311 0
M  V30 17901 H 1628 -1.61397 0.524324 0
M  V30 17902 H 1626.77 -3.81075 0.88869 0
M  V30 17903 H 1626.39 -3.88957 -0.824514 0
M  V30 17904 N 1627.39 -0.19675 -1.56367 0
M  V30 17905 C 1628.3 0.735372 -2.22777 0
M  V30 17906 C 1629.31 1.23336 -1.22737 0
M  V30 17907 O 1630.49 1.28017 -1.55479 0
M  V30 17908 C 1627.56 1.93706 -2.8754 0
M  V30 17909 C 1626.62 1.48348 -4.02854 0
M  V30 17910 C 1625.85 2.62788 -4.64519 0
M  V30 17911 O 1626.07 3.80311 -4.25111 0
M  V30 17912 O 1625.01 2.35406 -5.53956 0
M  V30 17913 H 1628.83 0.199788 -3.03042 0
M  V30 17914 H 1626.42 0.0326149 -1.49364 0
M  V30 17915 H 1628.3 2.63934 -3.28507 0
M  V30 17916 H 1626.97 2.46121 -2.10252 0
M  V30 17917 H 1625.88 0.749939 -3.66506 0
M  V30 17918 H 1627.21 1.00597 -4.8181 0
M  V30 17919 N 1628.87 1.57413 0.0768405 0
M  V30 17920 C 1630.12 1.86186 0.775741 0
M  V30 17921 C 1630.43 0.788676 1.78995 0
M  V30 17922 O 1631.63 0.964095 2.53806 0
M  V30 17923 C 1630.09 3.30247 1.43055 0
M  V30 17924 C 1629.7 4.45682 0.45517 0
M  V30 17925 C 1631.44 3.68225 2.11211 0
M  V30 17926 C 1629.35 5.80782 1.11561 0
M  V30 17927 H 1628.28 0.694546 0.293466 0
M  V30 17928 H 1630.93 1.83477 0.0289478 0
M  V30 17929 H 1629.31 3.27552 2.22544 0
M  V30 17930 H 1630.49 4.59759 -0.309535 0
M  V30 17931 H 1628.8 4.16222 -0.121671 0
M  V30 17932 H 1631.4 4.66454 2.6139 0
M  V30 17933 H 1631.74 2.9777 2.90928 0
M  V30 17934 H 1632.27 3.72888 1.38561 0
M  V30 17935 H 1629.01 6.54517 0.358877 0
M  V30 17936 H 1628.53 5.70515 1.8513 0
M  V30 17937 H 1630.21 6.25951 1.63689 0
M  V30 17938 N 1630.34 -0.348112 1.53707 0
M  V30 17939 C 1631.31 -1.41018 1.80683 0
M  V30 17940 C 1632.31 -1.4582 0.67774 0
M  V30 17941 O 1633.5 -1.46275 0.94601 0
M  V30 17942 C 1630.63 -2.79988 1.94473 0
M  V30 17943 H 1631.82 -1.18365 2.75554 0
M  V30 17944 H 1629.38 -0.582244 1.4505 0
M  V30 17945 H 1630.11 -3.07931 1.0173 0
M  V30 17946 H 1629.9 -2.77899 2.76612 0
M  V30 17947 H 1631.39 -3.56868 2.16876 0
M  V30 17948 N 1631.82 -1.45363 -0.608876 0
M  V30 17949 C 1632.75 -1.49944 -1.73348 0
M  V30 17950 C 1633.77 -0.390352 -1.58051 0
M  V30 17951 O 1634.96 -0.657338 -1.65956 0
M  V30 17952 C 1632.06 -1.33886 -3.11332 0
M  V30 17953 C 1631.23 -2.58445 -3.52881 0
M  V30 17954 C 1630.29 -2.36963 -4.69825 0
M  V30 17955 O 1629.31 -3.10569 -4.77007 0
M  V30 17956 N 1630.52 -1.41442 -5.63005 0
M  V30 17957 H 1633.28 -2.46902 -1.69882 0
M  V30 17958 H 1630.84 -1.41086 -0.794119 0
M  V30 17959 H 1632.83 -1.17327 -3.8732 0
M  V30 17960 H 1631.4 -0.452095 -3.09314 0
M  V30 17961 H 1630.62 -2.90129 -2.66869 0
M  V30 17962 H 1631.91 -3.41245 -3.77398 0
M  V30 17963 H 1631.31 -0.806941 -5.59915 0
M  V30 17964 H 1629.87 -1.30855 -6.3853 0
M  V30 17965 N 1633.3 0.851265 -1.32632 0
M  V30 17966 C 1634.25 1.96012 -1.21852 0
M  V30 17967 C 1635.22 1.65799 -0.0999141 0
M  V30 17968 O 1636.4 1.88793 -0.276049 0
M  V30 17969 C 1633.54 3.31737 -0.951014 0
M  V30 17970 C 1632.66 3.74427 -2.15472 0
M  V30 17971 C 1631.79 4.9896 -1.82242 0
M  V30 17972 C 1630.83 5.3415 -2.98914 0
M  V30 17973 N 1629.97 6.49861 -2.65754 0
M  V30 17974 H 1634.81 2.04565 -2.16696 0
M  V30 17975 H 1632.34 1.00119 -1.07771 0
M  V30 17976 H 1634.3 4.09912 -0.776401 0
M  V30 17977 H 1632.93 3.22776 -0.0393461 0
M  V30 17978 H 1631.98 2.91878 -2.4395 0
M  V30 17979 H 1633.3 3.96425 -3.02736 0
M  V30 17980 H 1632.45 5.84851 -1.61352 0
M  V30 17981 H 1631.19 4.78906 -0.921971 0
M  V30 17982 H 1630.19 4.4677 -3.20432 0
M  V30 17983 H 1631.42 5.5616 -3.89696 0
M  V30 17984 H 1629.36 6.31317 -1.78254 0
M  V30 17985 H 1629.28 6.71894 -3.46547 0
M  V30 17986 H 1630.55 7.38895 -2.48302 0
M  V30 17987 N 1634.78 1.15898 1.06796 0
M  V30 17988 C 1635.73 0.856808 2.16244 0
M  V30 17989 C 1636.72 -0.172075 1.68524 0
M  V30 17990 O 1637.93 -0.0265569 1.7998 0
M  V30 17991 H 1634.3 0.259445 0.705827 0
M  V30 17992 H 1636.27 1.7874 2.38945 0
M  V30 17993 C 1635.02 0.368721 3.45739 0
M  V30 17994 H 1634.34 1.15184 3.82848 0
M  V30 17995 H 1635.78 0.196012 4.23547 0
M  V30 17996 C 1634.24 -0.910802 3.24355 0
M  V30 17997 O 1634.77 -1.98115 3.49447 0
M  V30 17998 N 1632.98 -0.852545 2.77813 0
M  V30 17999 H 1632.53 0.0186646 2.57593 0
M  V30 18000 H 1632.48 -1.70917 2.63884 0
M  V30 18001 N 1636.26 -1.25243 0.956659 0
M  V30 18002 C 1637.2 -2.2781 0.46963 0
M  V30 18003 C 1638.2 -1.63003 -0.461138 0
M  V30 18004 O 1639.4 -1.76805 -0.337644 0
M  V30 18005 H 1635.78 -0.740078 0.133374 0
M  V30 18006 H 1637.75 -2.66273 1.34689 0
M  V30 18007 C 1636.5 -3.46904 -0.235206 0
M  V30 18008 H 1635.82 -3.97006 0.471869 0
M  V30 18009 H 1637.26 -4.20548 -0.539969 0
M  V30 18010 C 1635.72 -3.03697 -1.45841 0
M  V30 18011 O 1636.25 -3.09887 -2.55603 0
M  V30 18012 N 1634.46 -2.58866 -1.32049 0
M  V30 18013 H 1634 -2.54029 -0.427428 0
M  V30 18014 H 1633.96 -2.30322 -2.14008 0
M  V30 18015 N 1637.73 -0.725468 -1.3991 0
M  V30 18016 C 1638.7 -0.0878956 -2.29031 0
M  V30 18017 C 1639.7 0.677105 -1.45849 0
M  V30 18018 O 1640.89 0.507538 -1.66642 0
M  V30 18019 C 1638.02 0.885087 -3.2921 0
M  V30 18020 H 1639.21 -0.872957 -2.86914 0
M  V30 18021 H 1636.77 -0.490715 -1.48397 0
M  V30 18022 H 1637.5 1.69685 -2.76365 0
M  V30 18023 H 1637.29 0.339297 -3.90629 0
M  V30 18024 H 1638.78 1.32806 -3.9592 0
M  V30 18025 N 1639.21 1.50354 -0.472382 0
M  V30 18026 C 1640.14 2.3142 0.310995 0
M  V30 18027 C 1641.12 1.38383 0.989151 0
M  V30 18028 O 1642.31 1.67303 0.986074 0
M  V30 18029 C 1639.44 3.18157 1.3926 0
M  V30 18030 C 1638.39 4.19756 0.835977 0
M  V30 18031 C 1637.72 4.9524 2.01597 0
M  V30 18032 C 1639.02 5.22074 -0.15361 0
M  V30 18033 H 1640.71 2.97159 -0.365595 0
M  V30 18034 H 1638.26 1.42905 -0.177266 0
M  V30 18035 H 1640.21 3.73666 1.94813 0
M  V30 18036 H 1638.94 2.50305 2.09798 0
M  V30 18037 H 1637.59 3.65351 0.302414 0
M  V30 18038 H 1637.24 4.2386 2.70836 0
M  V30 18039 H 1636.94 5.63966 1.64974 0
M  V30 18040 H 1638.47 5.53584 2.57637 0
M  V30 18041 H 1639.88 5.72446 0.312783 0
M  V30 18042 H 1638.28 5.98527 -0.43418 0
M  V30 18043 H 1639.35 4.72741 -1.07908 0
M  V30 18044 N 1640.69 0.205039 1.56261 0
M  V30 18045 C 1641.64 -0.711828 2.19549 0
M  V30 18046 C 1642.61 -1.2025 1.14582 0
M  V30 18047 O 1643.79 -1.26459 1.42873 0
M  V30 18048 C 1640.93 -1.92152 2.86656 0
M  V30 18049 C 1640.05 -1.47129 4.06174 0
M  V30 18050 C 1639.18 -2.63726 4.6111 0
M  V30 18051 C 1638.22 -2.15357 5.72964 0
M  V30 18052 N 1637.36 -3.25167 6.22263 0
M  V30 18053 H 1642.2 -0.165392 2.97541 0
M  V30 18054 H 1639.73 -0.0698889 1.46934 0
M  V30 18055 H 1641.69 -2.63152 3.23739 0
M  V30 18056 H 1640.32 -2.4411 2.11211 0
M  V30 18057 H 1639.37 -0.656797 3.74687 0
M  V30 18058 H 1640.69 -1.0765 4.87045 0
M  V30 18059 H 1639.84 -3.42833 5.0055 0
M  V30 18060 H 1638.58 -3.06484 3.79367 0
M  V30 18061 H 1637.58 -1.34706 5.33043 0
M  V30 18062 H 1638.81 -1.73618 6.56532 0
M  V30 18063 H 1636.76 -3.67438 5.43439 0
M  V30 18064 H 1636.67 -2.89888 6.98213 0
M  V30 18065 H 1637.94 -4.0446 6.66358 0
M  V30 18066 N 1642.17 -1.57451 -0.0684915 0
M  V30 18067 C 1643.12 -2.03916 -1.08105 0
M  V30 18068 C 1644.09 -0.920418 -1.38266 0
M  V30 18069 O 1645.27 -1.18831 -1.49277 0
M  V30 18070 C 1642.41 -2.49075 -2.38863 0
M  V30 18071 C 1641.52 -3.74581 -2.15204 0
M  V30 18072 C 1640.66 -4.08509 -3.39549 0
M  V30 18073 C 1639.7 -5.27046 -3.11269 0
M  V30 18074 N 1638.84 -5.56597 -4.27954 0
M  V30 18075 H 1643.68 -2.90188 -0.677843 0
M  V30 18076 H 1641.21 -1.43507 -0.32313 0
M  V30 18077 H 1643.17 -2.7331 -3.1521 0
M  V30 18078 H 1641.8 -1.65776 -2.76981 0
M  V30 18079 H 1640.85 -3.57666 -1.29535 0
M  V30 18080 H 1642.16 -4.61065 -1.90317 0
M  V30 18081 H 1641.32 -4.33663 -4.24289 0
M  V30 18082 H 1640.06 -3.20599 -3.67515 0
M  V30 18083 H 1639.06 -5.01686 -2.24926 0
M  V30 18084 H 1640.29 -6.16577 -2.84622 0
M  V30 18085 H 1638.23 -4.71646 -4.55945 0
M  V30 18086 H 1638.15 -6.37506 -4.06352 0
M  V30 18087 H 1639.42 -5.86303 -5.13681 0
M  V30 18088 N 1643.65 0.339955 -1.5389 0
M  V30 18089 C 1644.9 1.07723 -1.70524 0
M  V30 18090 C 1645.21 1.89693 -0.477058 0
M  V30 18091 O 1646.42 2.66387 -0.524424 0
M  V30 18092 C 1644.87 1.96455 -3.01551 0
M  V30 18093 C 1644.48 1.19675 -4.3172 0
M  V30 18094 C 1646.22 2.70019 -3.27552 0
M  V30 18095 C 1644.13 2.07458 -5.53819 0
M  V30 18096 H 1643.06 0.405877 -0.635437 0
M  V30 18097 H 1645.71 0.336489 -1.80388 0
M  V30 18098 H 1644.09 2.74364 -2.85553 0
M  V30 18099 H 1645.27 0.466526 -4.58432 0
M  V30 18100 H 1643.58 0.578651 -4.1236 0
M  V30 18101 H 1646.18 3.35973 -4.15964 0
M  V30 18102 H 1646.52 3.36779 -2.44716 0
M  V30 18103 H 1647.06 1.99182 -3.44342 0
M  V30 18104 H 1643.79 1.45234 -6.39208 0
M  V30 18105 H 1643.31 2.7826 -5.31349 0
M  V30 18106 H 1644.99 2.66428 -5.89598 0
M  V30 18107 N 1645.13 1.45684 0.601159 0
M  V30 18108 C 1646.54 1.30232 0.922598 0
M  V30 18109 C 1646.74 0.260086 1.99814 0
M  V30 18110 O 1645.8 -0.343753 2.50149 0
M  V30 18111 C 1647.11 2.68318 1.35743 0
M  V30 18112 C 1648.66 2.76264 1.47129 0
M  V30 18113 C 1649.13 4.1489 1.93986 0
M  V30 18114 N 1650.62 4.17216 2.01209 0
M  V30 18115 C 1651.36 5.21354 2.387 0
M  V30 18116 N 1650.86 6.35833 2.75114 0
M  V30 18117 N 1652.65 5.08714 2.39095 0
M  V30 18118 H 1644.8 2.12117 -0.109634 0
M  V30 18119 H 1647.06 0.947902 0.0136129 0
M  V30 18120 H 1646.77 3.45804 0.64127 0
M  V30 18121 H 1646.64 2.97206 2.32268 0
M  V30 18122 H 1649.03 1.99077 2.17835 0
M  V30 18123 H 1649.11 2.51082 0.489028 0
M  V30 18124 H 1648.75 4.92565 1.23864 0
M  V30 18125 H 1648.68 4.37468 2.93137 0
M  V30 18126 H 1651.18 3.34607 1.75632 0
M  V30 18127 H 1651.49 7.11084 3.02622 0
M  V30 18128 H 1649.83 6.39224 2.72795 0
M  V30 18129 H 1653.02 4.18322 2.10057 0
M  V30 18130 H 1653.2 5.89989 2.67987 0
M  V30 18131 N 1646.6 -0.84422 1.33082 0
M  V30 18132 C 1647.51 -1.9858 1.24913 0
M  V30 18133 C 1648.53 -1.73256 0.160708 0
M  V30 18134 O 1649.71 -1.97719 0.383313 0
M  V30 18135 C 1646.77 -3.32471 0.983063 0
M  V30 18136 C 1645.83 -3.70946 2.16096 0
M  V30 18137 C 1645.06 -4.98448 1.90749 0
M  V30 18138 O 1645.29 -5.63953 0.855173 0
M  V30 18139 O 1644.22 -5.34301 2.7714 0
M  V30 18140 H 1648.05 -2.0841 2.20905 0
M  V30 18141 H 1645.63 -0.976447 1.13075 0
M  V30 18142 H 1647.51 -4.12705 0.851612 0
M  V30 18143 H 1646.19 -3.23656 0.053384 0
M  V30 18144 H 1645.1 -2.91244 2.34793 0
M  V30 18145 H 1646.43 -3.8442 3.07379 0
M  V30 18146 N 1648.08 -1.16463 -1.0618 0
M  V30 18147 C 1649.01 -0.895399 -2.1565 0
M  V30 18148 C 1649.99 0.158729 -1.69358 0
M  V30 18149 O 1651.18 0.010586 -1.94197 0
M  V30 18150 C 1648.31 -0.396959 -3.45024 0
M  V30 18151 C 1647.26 -1.38913 -4.0483 0
M  V30 18152 C 1646.59 -0.749043 -5.29427 0
M  V30 18153 C 1647.89 -2.7591 -4.43476 0
M  V30 18154 H 1649.58 -1.81085 -2.38429 0
M  V30 18155 H 1647.13 -0.872098 -1.14588 0
M  V30 18156 H 1649.08 -0.196086 -4.20944 0
M  V30 18157 H 1647.8 0.554002 -3.21867 0
M  V30 18158 H 1646.46 -1.57657 -3.30968 0
M  V30 18159 H 1646.11 0.208439 -5.02568 0
M  V30 18160 H 1645.81 -1.41128 -5.704 0
M  V30 18161 H 1647.34 -0.558217 -6.08043 0
M  V30 18162 H 1648.75 -2.60942 -5.10473 0
M  V30 18163 H 1647.15 -3.38618 -4.95437 0
M  V30 18164 H 1648.22 -3.31076 -3.54284 0
M  V30 18165 N 1649.56 1.24734 -0.963288 0
M  V30 18166 C 1650.47 2.29268 -0.497316 0
M  V30 18167 C 1651.49 1.68356 0.439572 0
M  V30 18168 O 1652.66 1.98942 0.313697 0
M  V30 18169 C 1649.73 3.46068 0.209261 0
M  V30 18170 C 1648.79 4.22394 -0.766907 0
M  V30 18171 C 1648.02 5.33617 -0.0939542 0
M  V30 18172 O 1648.24 5.59323 1.11864 0
M  V30 18173 O 1647.18 5.96774 -0.78388 0
M  V30 18174 H 1651 2.71235 -1.36622 0
M  V30 18175 H 1648.59 1.30344 -0.730126 0
M  V30 18176 H 1650.47 4.17015 0.606367 0
M  V30 18177 H 1649.15 3.06087 1.0532 0
M  V30 18178 H 1648.05 3.53841 -1.21439 0
M  V30 18179 H 1649.39 4.66181 -1.57912 0
M  V30 18180 N 1651.04 0.732878 1.39523 0
M  V30 18181 C 1652.29 0.279338 2.0016 0
M  V30 18182 C 1652.61 -1.13673 1.58441 0
M  V30 18183 O 1651.88 -1.77369 0.831681 0
M  V30 18184 H 1650.46 0.100288 0.740237 0
M  V30 18185 H 1653.12 0.942363 1.70603 0
M  V30 18186 H 1652.21 0.326053 3.10392 0
M  V30 18187 N 1652.52 -1.50101 0.480349 0
M  V30 18188 C 1653.47 -2.25631 -0.327823 0
M  V30 18189 C 1654.45 -1.29605 -0.953492 0
M  V30 18190 O 1655.64 -1.54451 -0.86451 0
M  V30 18191 C 1652.77 -3.13284 -1.40386 0
M  V30 18192 C 1651.86 -4.16763 -0.785461 0
M  V30 18193 N 1652.25 -5.05702 0.0997266 0
M  V30 18194 C 1650.55 -4.33503 -1.04838 0
M  V30 18195 C 1651.25 -5.79944 0.45163 0
M  V30 18196 N 1650.22 -5.43317 -0.175455 0
M  V30 18197 H 1654.02 -2.91761 0.353929 0
M  V30 18198 H 1651.54 -1.59697 0.295085 0
M  V30 18199 H 1653.54 -3.66008 -1.9961 0
M  V30 18200 H 1652.2 -2.48703 -2.08751 0
M  V30 18201 H 1653.21 -5.1577 0.469184 0
M  V30 18202 H 1649.88 -3.80138 -1.72631 0
M  V30 18203 H 1651.27 -6.61554 1.17458 0
M  V30 18204 N 1653.99 -0.213323 -1.5615 0
M  V30 18205 C 1655.24 0.420909 -1.97259 0
M  V30 18206 C 1655.56 1.61483 -1.10375 0
M  V30 18207 O 1656.76 2.31804 -1.41347 0
M  V30 18208 C 1655.22 0.800243 -3.5089 0
M  V30 18209 C 1654.83 -0.370405 -4.46466 0
M  V30 18210 C 1656.57 1.40054 -4.00731 0
M  V30 18211 C 1654.48 0.0309052 -5.91392 0
M  V30 18212 H 1653.41 0.16103 -0.736604 0
M  V30 18213 H 1656.06 -0.308232 -1.80893 0
M  V30 18214 H 1654.44 1.58657 -3.62828 0
M  V30 18215 H 1655.61 -1.14796 -4.46272 0
M  V30 18216 H 1653.93 -0.883391 -4.06922 0
M  V30 18217 H 1656.53 1.71355 -5.06499 0
M  V30 18218 H 1656.87 2.31345 -3.461 0
M  V30 18219 H 1657.4 0.677813 -3.91983 0
M  V30 18220 H 1654.14 -0.848284 -6.49988 0
M  V30 18221 H 1653.66 0.772941 -5.94799 0
M  V30 18222 H 1655.34 0.460441 -6.4536 0
M  V30 18223 N 1655.47 1.57485 0.0601405 0
M  V30 18224 C 1656.7 1.92438 0.773466 0
M  V30 18225 C 1657.12 0.810755 1.6973 0
M  V30 18226 O 1656.48 -0.235697 1.79761 0
M  V30 18227 C 1656.53 3.26381 1.53323 0
M  V30 18228 O 1655.63 3.16436 2.64465 0
M  V30 18229 H 1654.97 0.629838 0.210239 0
M  V30 18230 H 1657.5 2.04585 0.0248981 0
M  V30 18231 H 1657.51 3.60534 1.90996 0
M  V30 18232 H 1656.19 4.07007 0.855468 0
M  V30 18233 H 1654.77 2.93862 2.29564 0
M  V30 18234 N 1656.95 -0.331789 1.54068 0
M  V30 18235 C 1658.23 -1.08843 1.6252 0
M  V30 18236 C 1658.61 -2.06164 0.453847 0
M  V30 18237 O 1657.96 -2.21714 -0.552727 0
M  V30 18238 C 1658.17 -1.79767 2.9914 0
M  V30 18239 C 1659.51 -2.33086 3.54903 0
M  V30 18240 O 1660.54 -1.89846 3.01392 0
M  V30 18241 O 1659.4 -3.12226 4.48528 0
M  V30 18242 H 1656.49 -0.501222 0.657804 0
M  V30 18243 H 1659.04 -0.332339 1.66414 0
M  V30 18244 H 1657.81 -1.08932 3.75832 0
M  V30 18245 H 1657.43 -2.62205 2.98888 0
M  V30 18246 N 1658.43 -1.46001 -0.593424 0
M  V30 18247 C 1659.36 -1.58605 -1.71367 0
M  V30 18248 C 1660.34 -0.436866 -1.64394 0
M  V30 18249 O 1661.52 -0.661782 -1.82576 0
M  V30 18250 C 1658.65 -1.56587 -3.09996 0
M  V30 18251 C 1657.61 -2.70366 -3.31792 0
M  V30 18252 C 1656.93 -2.53406 -4.70839 0
M  V30 18253 C 1658.23 -4.12274 -3.20667 0
M  V30 18254 H 1659.93 -2.52379 -1.61076 0
M  V30 18255 H 1657.47 -1.21462 -0.773499 0
M  V30 18256 H 1659.43 -1.64 -3.88178 0
M  V30 18257 H 1658.15 -0.593511 -3.21162 0
M  V30 18258 H 1656.81 -2.62405 -2.56006 0
M  V30 18259 H 1656.46 -1.54278 -4.78756 0
M  V30 18260 H 1656.16 -3.29715 -4.86376 0
M  V30 18261 H 1657.68 -2.62694 -5.51203 0
M  V30 18262 H 1659.1 -4.21404 -3.88705 0
M  V30 18263 H 1657.49 -4.89085 -3.47729 0
M  V30 18264 H 1658.56 -4.33184 -2.17898 0
M  V30 18265 N 1659.91 0.83715 -1.33527 0
M  V30 18266 C 1660.84 1.95423 -1.1976 0
M  V30 18267 C 1661.85 1.62295 -0.128147 0
M  V30 18268 O 1663.04 1.74436 -0.378725 0
M  V30 18269 C 1660.14 3.2896 -0.814775 0
M  V30 18270 C 1659.31 3.9021 -1.97623 0
M  V30 18271 C 1658.37 5.02104 -1.5741 0
M  V30 18272 O 1657.4 5.2116 -2.28868 0
M  V30 18273 N 1658.6 5.78511 -0.480081 0
M  V30 18274 H 1661.37 2.0777 -2.15991 0
M  V30 18275 H 1658.93 1.01297 -1.26295 0
M  V30 18276 H 1660.92 4.01243 -0.527823 0
M  V30 18277 H 1659.49 3.12548 0.0569031 0
M  V30 18278 H 1658.71 3.10495 -2.42871 0
M  V30 18279 H 1660 4.27865 -2.75334 0
M  V30 18280 H 1659.39 5.65585 0.114287 0
M  V30 18281 H 1657.95 6.5131 -0.252808 0
M  V30 18282 N 1661.38 1.17024 1.05561 0
M  V30 18283 C 1662.29 0.898107 2.16728 0
M  V30 18284 C 1663.31 -0.132369 1.73496 0
M  V30 18285 O 1664.49 0.0460203 2.01347 0
M  V30 18286 C 1661.55 0.411091 3.44254 0
M  V30 18287 C 1660.61 1.5077 4.01954 0
M  V30 18288 C 1659.85 1.04383 5.23393 0
M  V30 18289 O 1660.07 -0.10351 5.70306 0
M  V30 18290 O 1659 1.8353 5.73237 0
M  V30 18291 H 1662.83 1.82791 2.42531 0
M  V30 18292 H 1660.41 0.950816 1.15238 0
M  V30 18293 H 1662.3 0.146837 4.21144 0
M  V30 18294 H 1660.97 -0.490605 3.19961 0
M  V30 18295 H 1659.88 1.82579 3.26521 0
M  V30 18296 H 1661.21 2.38497 4.30558 0
M  V30 18297 N 1662.86 -1.24221 0.969889 0
M  V30 18298 C 1664.14 -1.87715 0.549772 0
M  V30 18299 C 1664.52 -1.87333 -0.973114 0
M  V30 18300 O 1663.87 -1.3475 -1.84539 0
M  V30 18301 C 1664.08 -3.29724 1.14381 0
M  V30 18302 C 1665.43 -4.06393 1.23005 0
M  V30 18303 O 1666.45 -3.38904 1.09648 0
M  V30 18304 O 1665.31 -5.27149 1.4414 0
M  V30 18305 H 1662.4 -0.806356 0.183629 0
M  V30 18306 H 1664.95 -1.32177 1.0643 0
M  V30 18307 H 1663.72 -3.24513 2.18649 0
M  V30 18308 H 1663.34 -3.92839 0.613456 0
M  V30 18309 N 1664.34 -0.740267 -1.39132 0
M  V30 18310 C 1665.27 -0.118951 -2.33197 0
M  V30 18311 C 1666.25 0.718416 -1.54184 0
M  V30 18312 O 1667.44 0.662322 -1.82557 0
M  V30 18313 C 1664.57 0.78512 -3.38309 0
M  V30 18314 C 1663.52 0.0515093 -4.27969 0
M  V30 18315 C 1662.85 1.07295 -5.23824 0
M  V30 18316 C 1664.15 -1.10903 -5.1039 0
M  V30 18317 H 1665.84 -0.904687 -2.85405 0
M  V30 18318 H 1663.39 -0.436493 -1.37225 0
M  V30 18319 H 1665.34 1.22935 -4.03069 0
M  V30 18320 H 1664.06 1.60303 -2.84553 0
M  V30 18321 H 1662.72 -0.373156 -3.64696 0
M  V30 18322 H 1662.37 1.88456 -4.66362 0
M  V30 18323 H 1662.07 0.586827 -5.84662 0
M  V30 18324 H 1663.59 1.51677 -5.91461 0
M  V30 18325 H 1665.01 -0.742993 -5.68465 0
M  V30 18326 H 1663.41 -1.52513 -5.80396 0
M  V30 18327 H 1664.48 -1.92825 -4.44912 0
M  V30 18328 N 1665.82 1.49844 -0.488302 0
M  V30 18329 C 1667.1 1.95212 0.123105 0
M  V30 18330 C 1667.48 1.42936 1.55346 0
M  V30 18331 O 1666.82 0.637657 2.19422 0
M  V30 18332 C 1667.03 3.48966 0.0487846 0
M  V30 18333 C 1668.38 4.23982 0.229083 0
M  V30 18334 O 1669.41 3.55982 0.124569 0
M  V30 18335 O 1668.26 5.44709 0.442066 0
M  V30 18336 H 1665.36 0.820652 0.102268 0
M  V30 18337 H 1667.9 1.60542 -0.549935 0
M  V30 18338 H 1666.68 3.79613 -0.949203 0
M  V30 18339 H 1666.3 3.90219 0.76253 0
M  V30 18340 N 1667.3 0.221601 1.56034 0
M  V30 18341 C 1668.52 -0.417979 2.03145 0
M  V30 18342 C 1668.95 -1.52556 1.10038 0
M  V30 18343 O 1668.3 -1.81084 0.0885729 0
M  V30 18344 C 1668.35 -0.926762 3.48487 0
M  V30 18345 O 1667.46 -2.03811 3.58518 0
M  V30 18346 H 1666.8 -0.0945778 0.65723 0
M  V30 18347 H 1669.33 0.340252 2.01751 0
M  V30 18348 H 1669.34 -1.23656 3.8881 0
M  V30 18349 H 1668.01 -0.116115 4.15738 0
M  V30 18350 H 1666.59 -1.73494 3.30082 0
M  V30 18351 N 1668.77 -1.57515 -0.0517878 0
M  V30 18352 C 1669.68 -2.08427 -1.07681 0
M  V30 18353 C 1670.7 -1.01797 -1.41115 0
M  V30 18354 O 1671.88 -1.33394 -1.50891 0
M  V30 18355 C 1668.94 -2.53472 -2.36544 0
M  V30 18356 C 1668 -3.74488 -2.09899 0
M  V30 18357 C 1667.24 -4.17374 -3.32618 0
M  V30 18358 O 1667.46 -3.59962 -4.42475 0
M  V30 18359 O 1666.39 -5.10006 -3.19653 0
M  V30 18360 H 1670.22 -2.96122 -0.674217 0
M  V30 18361 H 1667.8 -1.4699 -0.267274 0
M  V30 18362 H 1669.69 -2.82876 -3.12345 0
M  V30 18363 H 1668.36 -1.68899 -2.76143 0
M  V30 18364 H 1667.27 -3.50137 -1.31739 0
M  V30 18365 H 1668.6 -4.59975 -1.75169 0
M  V30 18366 N 1670.25 0.323614 -1.54242 0
M  V30 18367 C 1671.67 0.66795 -1.4495 0
M  V30 18368 C 1671.87 1.91649 -0.622338 0
M  V30 18369 O 1670.93 2.52209 -0.121119 0
M  V30 18370 C 1672.24 0.842006 -2.88671 0
M  V30 18371 C 1673.79 0.93935 -2.98572 0
M  V30 18372 C 1674.26 1.14557 -4.43442 0
M  V30 18373 N 1675.75 1.21231 -4.47054 0
M  V30 18374 C 1676.49 1.38976 -5.56303 0
M  V30 18375 N 1675.98 1.53764 -6.75521 0
M  V30 18376 N 1677.78 1.41684 -5.4395 0
M  V30 18377 H 1669.93 -0.497017 -2.06503 0
M  V30 18378 H 1672.19 -0.160563 -0.934304 0
M  V30 18379 H 1671.9 -0.00418568 -3.517 0
M  V30 18380 H 1671.77 1.73785 -3.34782 0
M  V30 18381 H 1674.16 1.77605 -2.35671 0
M  V30 18382 H 1674.24 0.0199775 -2.55792 0
M  V30 18383 H 1673.88 0.313732 -5.0693 0
M  V30 18384 H 1673.81 2.07882 -4.83831 0
M  V30 18385 H 1676.3 1.11247 -3.61154 0
M  V30 18386 H 1676.62 1.66996 -7.54541 0
M  V30 18387 H 1674.96 1.50862 -6.78429 0
M  V30 18388 H 1678.15 1.29726 -4.49765 0
M  V30 18389 H 1678.33 1.5517 -6.29147 0
M  V30 18390 N 1671.73 1.46313 0.585673 0
M  V30 18391 C 1672.69 1.56239 1.67696 0
M  V30 18392 C 1673.69 0.439808 1.54668 0
M  V30 18393 O 1674.88 0.704019 1.5934 0
M  V30 18394 C 1672.02 1.47986 3.07104 0
M  V30 18395 H 1673.21 2.53492 1.60255 0
M  V30 18396 H 1670.76 1.3408 0.803264 0
M  V30 18397 H 1671.5 0.520007 3.20104 0
M  V30 18398 H 1671.28 2.2943 3.17969 0
M  V30 18399 H 1672.77 1.5801 3.86552 0
M  V30 18400 N 1673.21 -0.830057 1.33969 0
M  V30 18401 C 1674.17 -1.92206 1.24858 0
M  V30 18402 C 1675.17 -1.59946 0.16549 0
M  V30 18403 O 1676.36 -1.6912 0.417629 0
M  V30 18404 C 1673.49 -3.28082 0.926029 0
M  V30 18405 H 1674.69 -2.01708 2.21932 0
M  V30 18406 H 1672.24 -1.02319 1.18154 0
M  V30 18407 H 1672.98 -3.24273 -0.0418364 0
M  V30 18408 H 1672.76 -3.52878 1.70938 0
M  V30 18409 H 1674.25 -4.08065 0.887263 0
M  V30 18410 N 1674.69 -1.17582 -1.04939 0
M  V30 18411 C 1676.1 -0.923633 -1.30158 0
M  V30 18412 C 1676.3 0.415798 -1.97163 0
M  V30 18413 O 1675.36 1.15218 -2.2468 0
M  V30 18414 C 1676.67 -2.0828 -2.16887 0
M  V30 18415 C 1678.22 -2.12011 -2.30262 0
M  V30 18416 C 1678.7 -3.2732 -3.20352 0
M  V30 18417 N 1680.19 -3.27125 -3.27939 0
M  V30 18418 C 1680.92 -4.12988 -3.97779 0
M  V30 18419 N 1680.42 -5.08968 -4.70025 0
M  V30 18420 N 1682.21 -4.0093 -3.93969 0
M  V30 18421 H 1674.36 -2.03794 -0.598485 0
M  V30 18422 H 1676.62 -0.889991 -0.326528 0
M  V30 18423 H 1676.33 -3.051 -1.74948 0
M  V30 18424 H 1676.2 -2.03599 -3.17533 0
M  V30 18425 H 1678.59 -1.15774 -2.71441 0
M  V30 18426 H 1678.67 -2.20752 -1.29236 0
M  V30 18427 H 1678.32 -4.23823 -2.79886 0
M  V30 18428 H 1678.25 -3.15814 -4.21389 0
M  V30 18429 H 1680.74 -2.57634 -2.76465 0
M  V30 18430 H 1681.05 -5.70876 -5.20885 0
M  V30 18431 H 1679.4 -5.12935 -4.68959 0
M  V30 18432 H 1682.59 -3.2524 -3.36654 0
M  V30 18433 H 1682.76 -4.68065 -4.48128 0
M  V30 18434 N 1676.17 1.23705 -0.976463 0
M  V30 18435 C 1677.11 2.27034 -0.505813 0
M  V30 18436 C 1678.11 1.63716 0.435148 0
M  V30 18437 O 1679.31 1.7732 0.309474 0
M  V30 18438 H 1675.69 0.737862 -0.145131 0
M  V30 18439 H 1677.66 2.64097 -1.38908 0
M  V30 18440 C 1676.41 3.47234 0.179987 0
M  V30 18441 H 1675.73 3.96205 -0.534969 0
M  V30 18442 H 1677.17 4.21353 0.472996 0
M  V30 18443 C 1675.63 3.05979 1.40991 0
M  V30 18444 O 1676.16 3.13914 2.50641 0
M  V30 18445 N 1674.37 2.60934 1.27913 0
M  V30 18446 H 1673.91 2.54677 0.38696 0
M  V30 18447 H 1673.87 2.33697 2.10316 0
M  V30 18448 N 1677.64 0.747635 1.38738 0
M  V30 18449 C 1678.59 0.11597 2.30508 0
M  V30 18450 C 1679.56 -0.716088 1.49871 0
M  V30 18451 O 1680.75 -0.673446 1.7852 0
M  V30 18452 C 1677.89 -0.775765 3.36268 0
M  V30 18453 C 1677 0.070275 4.31943 0
M  V30 18454 C 1676.13 -0.823908 5.24772 0
M  V30 18455 C 1675.17 0.0261249 6.12094 0
M  V30 18456 N 1674.31 -0.824688 6.9724 0
M  V30 18457 H 1679.15 0.904158 2.83952 0
M  V30 18458 H 1676.69 0.457513 1.39804 0
M  V30 18459 H 1678.64 -1.30735 3.96187 0
M  V30 18460 H 1677.27 -1.5298 2.84248 0
M  V30 18461 H 1676.33 0.719421 3.73535 0
M  V30 18462 H 1677.64 0.726987 4.93474 0
M  V30 18463 H 1676.79 -1.42287 5.89779 0
M  V30 18464 H 1675.53 -1.51437 4.63593 0
M  V30 18465 H 1674.54 0.637803 5.46088 0
M  V30 18466 H 1675.76 0.713556 6.75341 0
M  V30 18467 H 1673.71 -1.50021 6.38616 0
M  V30 18468 H 1673.62 -0.22474 7.55666 0
M  V30 18469 H 1674.89 -1.40882 7.66663 0
M  V30 18470 N 1679.12 -1.49583 0.496242 0
M  V30 18471 C 1680.08 -2.27561 -0.273642 0
M  V30 18472 C 1681.08 -1.33375 -0.8982 0
M  V30 18473 O 1682.27 -1.56578 -0.76347 0
M  V30 18474 C 1679.41 -3.11178 -1.39216 0
M  V30 18475 H 1680.6 -2.97077 0.410543 0
M  V30 18476 H 1678.15 -1.54271 0.251058 0
M  V30 18477 H 1678.89 -2.46217 -2.11064 0
M  V30 18478 H 1678.67 -3.80422 -0.949829 0
M  V30 18479 H 1680.16 -3.70085 -1.93459 0
M  V30 18480 N 1680.6 -0.229873 -1.55915 0
M  V30 18481 C 1681.51 0.687953 -2.24286 0
M  V30 18482 C 1682.53 1.20705 -1.25325 0
M  V30 18483 O 1683.7 1.2469 -1.58159 0
M  V30 18484 C 1680.77 1.87563 -2.91584 0
M  V30 18485 C 1679.83 1.39769 -4.0591 0
M  V30 18486 C 1679.06 2.52876 -4.69989 0
M  V30 18487 O 1679.28 3.71208 -4.33083 0
M  V30 18488 O 1678.22 2.23603 -5.58825 0
M  V30 18489 H 1682.04 0.135464 -3.03398 0
M  V30 18490 H 1679.63 0.000925172 -1.494 0
M  V30 18491 H 1681.51 2.56907 -3.34031 0
M  V30 18492 H 1680.19 2.41606 -2.15426 0
M  V30 18493 H 1679.09 0.672029 -3.68014 0
M  V30 18494 H 1680.43 0.903543 -4.83836 0
M  V30 18495 N 1682.08 1.5754 0.0434337 0
M  V30 18496 C 1683.02 2.0561 1.04848 0
M  V30 18497 C 1683.99 0.942299 1.36784 0
M  V30 18498 O 1685.18 1.21191 1.47368 0
M  V30 18499 C 1682.32 2.52844 2.3487 0
M  V30 18500 C 1681.43 3.77958 2.09218 0
M  V30 18501 C 1680.57 4.13859 3.33007 0
M  V30 18502 C 1679.61 5.31932 3.02845 0
M  V30 18503 N 1678.74 5.63335 4.19045 0
M  V30 18504 H 1683.58 2.9123 0.631591 0
M  V30 18505 H 1681.12 1.44003 0.300258 0
M  V30 18506 H 1683.08 2.78291 3.10822 0
M  V30 18507 H 1681.71 1.70161 2.74308 0
M  V30 18508 H 1680.76 3.59681 1.23828 0
M  V30 18509 H 1682.07 4.64034 1.82958 0
M  V30 18510 H 1681.23 4.40358 4.17336 0
M  V30 18511 H 1679.97 3.26406 3.62368 0
M  V30 18512 H 1678.97 5.052 2.16916 0
M  V30 18513 H 1680.2 6.21027 2.74777 0
M  V30 18514 H 1678.14 4.7884 4.48384 0
M  V30 18515 H 1678.06 6.4389 3.96158 0
M  V30 18516 H 1679.33 5.94402 5.04289 0
M  V30 18517 N 1683.56 -0.31543 1.54411 0
M  V30 18518 C 1684.49 -1.4098 1.80713 0
M  V30 18519 C 1685.5 -1.47481 0.689435 0
M  V30 18520 O 1686.69 -1.50058 0.966682 0
M  V30 18521 C 1683.79 -2.79459 1.91718 0
M  V30 18522 C 1682.96 -2.96064 3.2197 0
M  V30 18523 C 1682.02 -4.14954 3.23573 0
M  V30 18524 O 1681.05 -4.07726 3.97175 0
M  V30 18525 N 1682.25 -5.24889 2.47935 0
M  V30 18526 H 1685.01 -1.18778 2.75158 0
M  V30 18527 H 1682.58 -0.50545 1.53808 0
M  V30 18528 H 1684.57 -3.57215 1.90209 0
M  V30 18529 H 1683.14 -2.94675 1.04333 0
M  V30 18530 H 1682.36 -2.05541 3.36372 0
M  V30 18531 H 1683.65 -3.0406 4.07952 0
M  V30 18532 H 1683.04 -5.33638 1.87741 0
M  V30 18533 H 1681.6 -6.01033 2.52195 0
M  V30 18534 N 1685.03 -1.46622 -0.577906 0
M  V30 18535 C 1685.98 -1.57549 -1.68662 0
M  V30 18536 C 1686.95 -0.419536 -1.60714 0
M  V30 18537 O 1688.14 -0.636916 -1.79856 0
M  V30 18538 C 1685.28 -1.57627 -3.06998 0
M  V30 18539 C 1684.39 -2.83991 -3.25535 0
M  V30 18540 C 1683.52 -2.75541 -4.54148 0
M  V30 18541 C 1682.56 -3.96823 -4.66045 0
M  V30 18542 N 1681.7 -3.86731 -5.8599 0
M  V30 18543 H 1686.54 -2.52252 -1.58659 0
M  V30 18544 H 1684.08 -1.2514 -0.773195 0
M  V30 18545 H 1686.04 -1.55657 -3.87075 0
M  V30 18546 H 1684.67 -0.664527 -3.15886 0
M  V30 18547 H 1683.72 -2.9592 -2.3903 0
M  V30 18548 H 1685.03 -3.73864 -3.30193 0
M  V30 18549 H 1684.18 -2.71703 -5.42459 0
M  V30 18550 H 1682.92 -1.83317 -4.51936 0
M  V30 18551 H 1681.93 -4.00987 -3.76151 0
M  V30 18552 H 1683.15 -4.90149 -4.70033 0
M  V30 18553 H 1681.1 -2.97296 -5.84766 0
M  V30 18554 H 1681.02 -4.70263 -5.91937 0
M  V30 18555 H 1682.28 -3.86876 -6.76718 0
M  V30 18556 N 1686.51 0.822941 -1.34408 0
M  V30 18557 C 1687.93 1.11606 -1.14089 0
M  V30 18558 C 1688.13 2.01418 0.0576164 0
M  V30 18559 O 1687.18 2.41622 0.733146 0
M  V30 18560 C 1688.5 1.76279 -2.43611 0
M  V30 18561 C 1690.05 1.88773 -2.49667 0
M  V30 18562 C 1690.52 2.56862 -3.79191 0
M  V30 18563 N 1692.01 2.64362 -3.80351 0
M  V30 18564 C 1692.75 3.17775 -4.77291 0
M  V30 18565 N 1692.24 3.71751 -5.84613 0
M  V30 18566 N 1694.04 3.16175 -4.64747 0
M  V30 18567 H 1686.19 0.225555 -2.11199 0
M  V30 18568 H 1688.45 0.162621 -0.933948 0
M  V30 18569 H 1688.16 1.17749 -3.31403 0
M  V30 18570 H 1688.03 2.76147 -2.56949 0
M  V30 18571 H 1690.42 2.46451 -1.62314 0
M  V30 18572 H 1690.5 0.878079 -2.40257 0
M  V30 18573 H 1690.14 1.99839 -4.66933 0
M  V30 18574 H 1690.07 3.58332 -3.85883 0
M  V30 18575 H 1692.56 2.26102 -3.02797 0
M  V30 18576 H 1692.88 4.10759 -6.54597 0
M  V30 18577 H 1691.22 3.69995 -5.88327 0
M  V30 18578 H 1694.41 2.73274 -3.80051 0
M  V30 18579 H 1694.58 3.57498 -5.40462 0
M  V30 18580 N 1687.99 1.18137 1.04314 0
M  V30 18581 C 1689.27 0.884901 1.74439 0
M  V30 18582 C 1689.65 -0.612825 2.02009 0
M  V30 18583 O 1689 -1.56679 1.66325 0
M  V30 18584 C 1689.21 1.72944 3.03136 0
M  V30 18585 C 1690.55 1.95491 3.7692 0
M  V30 18586 O 1691.58 1.69976 3.13028 0
M  V30 18587 O 1690.44 2.38426 4.91747 0
M  V30 18588 H 1687.53 0.328481 0.758966 0
M  V30 18589 H 1690.08 1.28878 1.10402 0
M  V30 18590 H 1688.85 2.74485 2.78879 0
M  V30 18591 H 1688.47 1.32392 3.74911 0
M  V30 18592 N 1689.47 -1.23186 0.98301 0
M  V30 18593 C 1690.4 -2.27054 0.544858 0
M  V30 18594 C 1691.38 -1.64749 -0.423281 0
M  V30 18595 O 1692.56 -1.91611 -0.316075 0
M  V30 18596 C 1689.69 -3.46972 -0.150976 0
M  V30 18597 C 1688.65 -4.21647 0.734707 0
M  V30 18598 C 1687.97 -5.34618 -0.0934874 0
M  V30 18599 C 1689.27 -4.81372 2.02679 0
M  V30 18600 H 1690.97 -2.63957 1.41305 0
M  V30 18601 H 1688.51 -1.26885 0.680895 0
M  V30 18602 H 1690.47 -4.18784 -0.468825 0
M  V30 18603 H 1689.19 -3.09137 -1.05364 0
M  V30 18604 H 1687.85 -3.51655 1.03605 0
M  V30 18605 H 1687.5 -4.93025 -0.996768 0
M  V30 18606 H 1687.2 -5.85503 0.496019 0
M  V30 18607 H 1688.72 -6.09251 -0.405658 0
M  V30 18608 H 1690.14 -5.45178 1.77353 0
M  V30 18609 H 1688.53 -5.42554 2.56429 0
M  V30 18610 H 1689.6 -4.01972 2.71194 0
M  V30 18611 N 1690.95 -0.754982 -1.38339 0
M  V30 18612 C 1692.19 -0.311146 -1.9969 0
M  V30 18613 C 1692.52 1.11138 -1.60229 0
M  V30 18614 O 1691.79 1.76024 -0.859794 0
M  V30 18615 H 1690.37 -0.112052 -0.738548 0
M  V30 18616 H 1693.03 -0.969386 -1.69083 0
M  V30 18617 H 1692.12 -0.375392 -3.09834 0
M  V30 18618 N 1692.42 1.49318 -0.504168 0
M  V30 18619 C 1693.33 2.32958 0.277053 0
M  V30 18620 C 1694.35 1.44838 0.964266 0
M  V30 18621 O 1695.53 1.77856 0.944947 0
M  V30 18622 C 1692.59 3.20352 1.32572 0
M  V30 18623 C 1691.65 4.24326 0.651606 0
M  V30 18624 C 1690.89 5.07544 1.65031 0
M  V30 18625 O 1691.11 4.92326 2.88047 0
M  V30 18626 O 1690.04 5.89737 1.20388 0
M  V30 18627 H 1693.87 3.00952 -0.40763 0
M  V30 18628 H 1691.45 1.47023 -0.265453 0
M  V30 18629 H 1693.34 3.74483 1.93237 0
M  V30 18630 H 1692.01 2.5505 1.99327 0
M  V30 18631 H 1690.92 3.741 0.00513384 0
M  V30 18632 H 1692.25 4.92193 0.0264424 0
M  V30 18633 N 1693.9 0.238138 1.5579 0
M  V30 18634 C 1694.81 -0.676049 2.24648 0
M  V30 18635 C 1695.83 -1.20038 1.25964 0
M  V30 18636 O 1697 -1.2385 1.58818 0
M  V30 18637 C 1694.07 -1.86014 2.92574 0
M  V30 18638 C 1693.13 -1.37615 4.06646 0
M  V30 18639 C 1692.36 -2.5038 4.71323 0
M  V30 18640 O 1692.59 -3.68906 4.35045 0
M  V30 18641 O 1691.52 -2.20636 5.60003 0
M  V30 18642 H 1695.35 -0.119372 3.03465 0
M  V30 18643 H 1692.93 0.00699789 1.49398 0
M  V30 18644 H 1694.81 -2.55132 3.35389 0
M  V30 18645 H 1693.49 -2.4046 2.16704 0
M  V30 18646 H 1692.4 -0.652503 3.68366 0
M  V30 18647 H 1693.73 -0.877871 4.84308 0
M  V30 18648 N 1695.38 -1.57561 -0.0350783 0
M  V30 18649 C 1696.31 -2.09201 -1.03716 0
M  V30 18650 C 1697.29 -0.993231 -1.3809 0
M  V30 18651 O 1698.48 -1.26812 -1.47079 0
M  V30 18652 C 1695.61 -2.56643 -2.3399 0
M  V30 18653 C 1694.56 -3.70731 -2.13874 0
M  V30 18654 C 1693.89 -4.04358 -3.49855 0
M  V30 18655 C 1695.19 -4.99393 -1.52982 0
M  V30 18656 H 1696.88 -2.93176 -0.60731 0
M  V30 18657 H 1694.43 -1.41036 -0.290683 0
M  V30 18658 H 1696.38 -2.9139 -3.04417 0
M  V30 18659 H 1695.1 -1.69744 -2.79024 0
M  V30 18660 H 1693.76 -3.36325 -1.45881 0
M  V30 18661 H 1693.41 -3.14534 -3.92527 0
M  V30 18662 H 1693.11 -4.81201 -3.37223 0
M  V30 18663 H 1694.63 -4.41633 -4.21654 0
M  V30 18664 H 1696.05 -5.32135 -2.13319 0
M  V30 18665 H 1694.45 -5.80807 -1.50943 0
M  V30 18666 H 1695.52 -4.82367 -0.494993 0
M  V30 18667 N 1696.86 0.307236 -1.54576 0
M  V30 18668 C 1697.77 1.4014 -1.88143 0
M  V30 18669 C 1698.78 1.5579 -0.774952 0
M  V30 18670 O 1699.96 1.70574 -1.07082 0
M  V30 18671 C 1697.03 2.74613 -2.11633 0
M  V30 18672 C 1696.09 2.68001 -3.35371 0
M  V30 18673 C 1695.32 3.96061 -3.57731 0
M  V30 18674 O 1695.54 4.95119 -2.83219 0
M  V30 18675 O 1694.48 3.98331 -4.51238 0
M  V30 18676 H 1698.3 1.14677 -2.81217 0
M  V30 18677 H 1695.89 0.502739 -1.40687 0
M  V30 18678 H 1697.77 3.54186 -2.2832 0
M  V30 18679 H 1696.44 2.99933 -1.21746 0
M  V30 18680 H 1695.35 1.86922 -3.24054 0
M  V30 18681 H 1696.68 2.47635 -4.25368 0
M  V30 18682 N 1698.34 1.46926 0.570122 0
M  V30 18683 C 1699.3 1.58009 1.6603 0
M  V30 18684 C 1700.3 0.456188 1.54193 0
M  V30 18685 O 1701.49 0.720879 1.58584 0
M  V30 18686 C 1698.62 1.51235 3.05517 0
M  V30 18687 H 1699.81 2.55178 1.57558 0
M  V30 18688 H 1697.37 1.34924 0.788998 0
M  V30 18689 H 1698.1 0.553929 3.19534 0
M  V30 18690 H 1697.89 2.3279 3.15518 0
M  V30 18691 H 1699.38 1.62101 3.84854 0
M  V30 18692 N 1699.82 -0.815801 1.34842 0
M  V30 18693 C 1700.75 -1.94193 1.29659 0
M  V30 18694 C 1701.73 -1.69221 0.172703 0
M  V30 18695 O 1702.91 -1.90716 0.366203 0
M  V30 18696 C 1700.04 -3.30777 1.0585 0
M  V30 18697 C 1699 -3.70207 2.1478 0
M  V30 18698 C 1698.32 -5.04852 1.76149 0
M  V30 18699 C 1699.62 -3.81553 3.56671 0
M  V30 18700 H 1701.32 -1.98787 2.23884 0
M  V30 18701 H 1698.86 -0.955013 1.07775 0
M  V30 18702 H 1700.81 -4.0915 1.00866 0
M  V30 18703 H 1699.54 -3.265 0.0806804 0
M  V30 18704 H 1698.2 -2.94113 2.18845 0
M  V30 18705 H 1697.85 -4.9707 0.770099 0
M  V30 18706 H 1697.55 -5.32205 2.49062 0
M  V30 18707 H 1699.07 -5.85676 1.72674 0
M  V30 18708 H 1700.48 -4.50181 3.54979 0
M  V30 18709 H 1698.88 -4.20367 4.28266 0
M  V30 18710 H 1699.95 -2.83356 3.93494 0
M  V30 18711 N 1701.29 -1.18689 -1.03686 0
M  V30 18712 C 1702.24 -0.917369 -2.11785 0
M  V30 18713 C 1703.21 0.144719 -1.65468 0
M  V30 18714 O 1704.4 0.00427016 -1.908 0
M  V30 18715 C 1701.54 -0.453396 -3.42109 0
M  V30 18716 C 1700.65 -1.58134 -4.02017 0
M  V30 18717 C 1699.78 -1.06971 -5.20318 0
M  V30 18718 C 1698.82 -2.17208 -5.72265 0
M  V30 18719 N 1697.96 -1.67411 -6.81849 0
M  V30 18720 H 1702.8 -1.84297 -2.34177 0
M  V30 18721 H 1700.34 -0.918951 -1.14864 0
M  V30 18722 H 1702.29 -0.165843 -4.1687 0
M  V30 18723 H 1700.92 0.435219 -3.19853 0
M  V30 18724 H 1699.98 -1.98429 -3.24546 0
M  V30 18725 H 1701.29 -2.41219 -4.36594 0
M  V30 18726 H 1700.44 -0.736906 -6.02208 0
M  V30 18727 H 1699.18 -0.208487 -4.87254 0
M  V30 18728 H 1698.19 -2.51328 -4.88993 0
M  V30 18729 H 1699.41 -3.03772 -6.07371 0
M  V30 18730 H 1697.36 -0.83584 -6.50653 0
M  V30 18731 H 1697.27 -2.44091 -7.15511 0
M  V30 18732 H 1698.54 -1.3707 -7.67354 0
M  V30 18733 N 1702.77 1.22662 -0.989529 0
M  V30 18734 C 1704 1.95343 -0.681822 0
M  V30 18735 C 1704.41 1.73139 0.752889 0
M  V30 18736 O 1703.77 1.02838 1.50766 0
M  V30 18737 C 1703.82 3.4813 -0.974049 0
M  V30 18738 O 1703.54 3.69587 -2.35238 0
M  V30 18739 C 1705.04 4.37998 -0.683571 0
M  V30 18740 H 1702.26 0.621675 -0.252509 0
M  V30 18741 H 1704.81 1.55906 -1.32339 0
M  V30 18742 H 1702.96 3.85548 -0.378344 0
M  V30 18743 H 1703.38 4.63812 -2.44906 0
M  V30 18744 H 1704.85 5.43966 -0.938338 0
M  V30 18745 H 1705.33 4.37532 0.382417 0
M  V30 18746 H 1705.93 4.06202 -1.26017 0
M  V30 18747 N 1704.25 0.762308 1.37937 0
M  V30 18748 C 1705.16 0.142724 2.34165 0
M  V30 18749 C 1706.18 -0.690588 1.59709 0
M  V30 18750 O 1707.35 -0.61271 1.91854 0
M  V30 18751 C 1704.42 -0.733325 3.38856 0
M  V30 18752 C 1703.48 0.115359 4.29145 0
M  V30 18753 C 1702.71 -0.718972 5.28835 0
M  V30 18754 O 1702.93 -1.95656 5.35794 0
M  V30 18755 O 1701.87 -0.133162 6.01753 0
M  V30 18756 H 1705.69 0.937662 2.88863 0
M  V30 18757 H 1703.28 0.523325 1.39935 0
M  V30 18758 H 1705.16 -1.23374 4.02935 0
M  V30 18759 H 1703.84 -1.50661 2.86501 0
M  V30 18760 H 1702.74 0.661926 3.68197 0
M  V30 18761 H 1704.08 0.851505 4.84779 0
M  V30 18762 N 1705.73 -1.49049 0.51208 0
M  V30 18763 C 1706.66 -2.32163 -0.249529 0
M  V30 18764 C 1707.64 -1.40957 -0.952114 0
M  V30 18765 O 1708.82 -1.69858 -0.94137 0
M  V30 18766 C 1705.95 -3.21737 -1.30776 0
M  V30 18767 C 1704.91 -4.21825 -0.724392 0
M  V30 18768 C 1704.23 -5.00411 -1.88396 0
M  V30 18769 C 1705.53 -5.21483 0.291975 0
M  V30 18770 H 1707.23 -2.96086 0.444253 0
M  V30 18771 H 1704.77 -1.42385 0.215093 0
M  V30 18772 H 1706.73 -3.78699 -1.84837 0
M  V30 18773 H 1705.45 -2.55779 -2.03088 0
M  V30 18774 H 1704.11 -3.66024 -0.205441 0
M  V30 18775 H 1703.76 -4.30891 -2.59502 0
M  V30 18776 H 1703.46 -5.68141 -1.49964 0
M  V30 18777 H 1704.98 -5.6022 -2.42869 0
M  V30 18778 H 1706.4 -5.73074 -0.160899 0
M  V30 18779 H 1704.79 -5.97166 0.592717 0
M  V30 18780 H 1705.86 -4.69714 1.20404 0
M  V30 18781 N 1707.21 -0.246397 -1.55662 0
M  V30 18782 C 1708.12 0.664125 -2.25003 0
M  V30 18783 C 1709.13 1.19368 -1.26598 0
M  V30 18784 O 1710.31 1.23006 -1.59473 0
M  V30 18785 C 1707.37 1.8446 -2.93557 0
M  V30 18786 C 1706.43 1.35456 -4.0737 0
M  V30 18787 C 1705.67 2.47877 -4.72645 0
M  V30 18788 O 1705.89 3.66594 -4.36995 0
M  V30 18789 O 1704.82 2.17663 -5.61165 0
M  V30 18790 H 1708.65 0.103277 -3.03524 0
M  V30 18791 H 1706.23 -0.0149207 -1.49393 0
M  V30 18792 H 1708.12 2.53349 -3.36737 0
M  V30 18793 H 1706.79 2.39308 -2.17976 0
M  V30 18794 H 1705.7 0.632958 -3.68706 0
M  V30 18795 H 1707.03 0.852175 -4.84767 0
M  V30 18796 N 1708.68 1.57577 0.026722 0
M  V30 18797 C 1709.96 1.80541 0.752606 0
M  V30 18798 C 1710.34 0.845025 1.93449 0
M  V30 18799 O 1709.69 -0.112286 2.28224 0
M  V30 18800 C 1709.9 3.28322 1.18345 0
M  V30 18801 C 1711.25 3.93366 1.59839 0
M  V30 18802 O 1712.27 3.32486 1.27796 0
M  V30 18803 O 1711.13 5.0056 2.19321 0
M  V30 18804 H 1708.22 0.742514 0.364146 0
M  V30 18805 H 1710.77 1.697 0.00332 0
M  V30 18806 H 1709.54 3.89822 0.339832 0
M  V30 18807 H 1709.16 3.44061 1.99267 0
M  V30 18808 N 1710.16 -0.299034 1.54737 0
M  V30 18809 C 1711.39 -1.0529 1.78105 0
M  V30 18810 C 1711.8 -1.80868 0.541499 0
M  V30 18811 O 1711.16 -1.75834 -0.488726 0
M  V30 18812 C 1711.21 -2.03192 2.9899 0
M  V30 18813 O 1710.93 -1.30681 4.18156 0
M  V30 18814 C 1712.43 -2.90602 3.34762 0
M  V30 18815 H 1709.65 -0.312173 0.593961 0
M  V30 18816 H 1712.2 -0.337712 2.01692 0
M  V30 18817 H 1710.35 -2.70211 2.77606 0
M  V30 18818 H 1710.77 -1.96446 4.86322 0
M  V30 18819 H 1712.24 -3.55144 4.22584 0
M  V30 18820 H 1712.72 -3.59006 2.53004 0
M  V30 18821 H 1713.32 -2.29112 3.58313 0
M  V30 18822 N 1711.64 -1.47227 -0.562322 0
M  V30 18823 C 1712.57 -1.62204 -1.67965 0
M  V30 18824 C 1713.55 -0.471638 -1.63431 0
M  V30 18825 O 1714.74 -0.70036 -1.81131 0
M  V30 18826 C 1711.87 -1.63127 -3.06605 0
M  V30 18827 C 1710.82 -2.77343 -3.25983 0
M  V30 18828 C 1710.15 -2.63336 -4.65358 0
M  V30 18829 C 1711.45 -4.18983 -3.1185 0
M  V30 18830 H 1713.14 -2.55739 -1.55686 0
M  V30 18831 H 1710.69 -1.23075 -0.747561 0
M  V30 18832 H 1712.64 -1.72197 -3.84612 0
M  V30 18833 H 1711.36 -0.661501 -3.19831 0
M  V30 18834 H 1710.02 -2.67776 -2.50383 0
M  V30 18835 H 1709.67 -1.64398 -4.75376 0
M  V30 18836 H 1709.37 -3.39957 -4.79273 0
M  V30 18837 H 1710.89 -2.74327 -5.45506 0
M  V30 18838 H 1712.31 -4.29554 -3.79679 0
M  V30 18839 H 1710.7 -4.96351 -3.37277 0
M  V30 18840 H 1711.77 -4.37709 -2.08661 0
M  V30 18841 N 1713.12 0.808639 -1.35273 0
M  V30 18842 C 1714.39 1.55238 -1.18998 0
M  V30 18843 C 1714.77 2.09824 0.231723 0
M  V30 18844 O 1714.12 1.92252 1.23497 0
M  V30 18845 C 1714.33 2.66252 -2.25634 0
M  V30 18846 C 1715.68 3.34646 -2.61338 0
M  V30 18847 O 1716.7 2.76521 -2.24532 0
M  V30 18848 O 1715.56 4.39644 -3.24615 0
M  V30 18849 H 1712.66 0.6858 -0.462176 0
M  V30 18850 H 1715.2 0.848777 -1.46949 0
M  V30 18851 H 1713.98 2.23774 -3.21 0
M  V30 18852 H 1713.6 3.4425 -1.98941 0
M  V30 18853 N 1714.6 1.19237 1.03055 0
M  V30 18854 C 1715.82 1.01983 1.80594 0
M  V30 18855 C 1716.25 -0.426875 1.83192 0
M  V30 18856 O 1715.6 -1.30678 1.2567 0
M  V30 18857 C 1715.65 1.59139 3.23585 0
M  V30 18858 O 1714.76 0.819576 4.04174 0
M  V30 18859 H 1714.1 0.360585 0.557561 0
M  V30 18860 H 1716.63 1.58222 1.29719 0
M  V30 18861 H 1716.64 1.62283 3.74337 0
M  V30 18862 H 1715.31 2.64436 3.21009 0
M  V30 18863 H 1713.89 0.861253 3.62818 0
M  V30 18864 N 1716.07 -1.22136 0.99602 0
M  V30 18865 C 1717.3 -1.94978 0.692172 0
M  V30 18866 C 1717.72 -1.73536 -0.743696 0
M  V30 18867 O 1717.07 -1.03637 -1.50219 0
M  V30 18868 C 1717.13 -3.47609 0.992498 0
M  V30 18869 O 1716.85 -3.68334 2.37195 0
M  V30 18870 C 1718.35 -4.37629 0.70679 0
M  V30 18871 H 1715.57 -0.620327 0.255802 0
M  V30 18872 H 1718.11 -1.55202 1.33164 0
M  V30 18873 H 1716.27 -3.85342 0.398785 0
M  V30 18874 H 1716.68 -4.62506 2.47362 0
M  V30 18875 H 1718.15 -5.43461 0.967173 0
M  V30 18876 H 1718.63 -4.37729 -0.359208 0
M  V30 18877 H 1719.24 -4.05528 1.2817 0
M  V30 18878 N 1717.55 -0.769612 -1.37531 0
M  V30 18879 C 1718.52 -0.160716 -2.28636 0
M  V30 18880 C 1719.52 0.630362 -1.47929 0
M  V30 18881 O 1720.71 0.454265 -1.68173 0
M  V30 18882 C 1717.84 0.779904 -3.31859 0
M  V30 18883 H 1719.03 -0.963794 -2.83991 0
M  V30 18884 H 1716.58 -0.537678 -1.46761 0
M  V30 18885 H 1717.32 1.60807 -2.81623 0
M  V30 18886 H 1717.1 0.21485 -3.91511 0
M  V30 18887 H 1718.59 1.20143 -3.99944 0
M  V30 18888 N 1719.03 1.48775 -0.519977 0
M  V30 18889 C 1720.26 2.06895 0.0139983 0
M  V30 18890 C 1720.67 1.37786 1.29075 0
M  V30 18891 O 1720.03 0.462168 1.76551 0
M  V30 18892 C 1720.08 3.60621 0.251999 0
M  V30 18893 O 1719.8 4.27132 -0.974158 0
M  V30 18894 C 1721.3 4.35508 0.827483 0
M  V30 18895 H 1718.52 0.670373 -0.0290011 0
M  V30 18896 H 1721.07 1.91302 -0.722762 0
M  V30 18897 H 1719.22 3.75853 0.938783 0
M  V30 18898 H 1719.64 5.19129 -0.748697 0
M  V30 18899 H 1721.11 5.43877 0.943492 0
M  V30 18900 H 1721.59 3.99261 1.82996 0
M  V30 18901 H 1722.19 4.24929 0.177578 0
M  V30 18902 N 1720.51 0.254649 1.55529 0
M  V30 18903 C 1721.44 -0.674506 2.1905 0
M  V30 18904 C 1722.45 -1.13297 1.16909 0
M  V30 18905 O 1723.64 -1.0584 1.43736 0
M  V30 18906 C 1720.74 -1.92951 2.78609 0
M  V30 18907 C 1719.92 -1.62123 4.06245 0
M  V30 18908 C 1718.97 -2.72661 4.50047 0
M  V30 18909 O 1718 -2.39717 5.1626 0
M  V30 18910 N 1719.2 -4.02315 4.18477 0
M  V30 18911 H 1721.97 -0.130956 2.99414 0
M  V30 18912 H 1719.53 0.0749176 1.61727 0
M  V30 18913 H 1721.52 -2.66155 3.04866 0
M  V30 18914 H 1720.09 -2.38265 2.02358 0
M  V30 18915 H 1719.31 -0.723991 3.87495 0
M  V30 18916 H 1720.6 -1.39 4.89445 0
M  V30 18917 H 1720 -4.3191 3.65336 0
M  V30 18918 H 1718.55 -4.7196 4.49552 0
M  V30 18919 N 1721.99 -1.57589 -0.0183649 0
M  V30 18920 C 1722.92 -2.04071 -1.04343 0
M  V30 18921 C 1723.93 -0.955366 -1.3182 0
M  V30 18922 O 1725.12 -1.23249 -1.29119 0
M  V30 18923 C 1722.22 -2.41011 -2.38258 0
M  V30 18924 C 1721.39 -3.72057 -2.29984 0
M  V30 18925 C 1720.45 -3.96067 -3.46435 0
M  V30 18926 O 1719.48 -4.66982 -3.25447 0
M  V30 18927 N 1720.68 -3.42535 -4.68669 0
M  V30 18928 H 1723.45 -2.92629 -0.647168 0
M  V30 18929 H 1721.01 -1.60583 -0.20611 0
M  V30 18930 H 1723 -2.54203 -3.14902 0
M  V30 18931 H 1721.57 -1.58068 -2.69691 0
M  V30 18932 H 1720.79 -3.69117 -1.38369 0
M  V30 18933 H 1722.08 -4.58003 -2.2161 0
M  V30 18934 H 1721.47 -2.85073 -4.8862 0
M  V30 18935 H 1720.03 -3.61087 -5.42641 0
M  V30 18936 N 1723.46 0.290824 -1.54893 0
M  V30 18937 C 1724.37 1.38137 -1.89619 0
M  V30 18938 C 1725.39 1.54959 -0.791432 0
M  V30 18939 O 1726.57 1.69428 -1.08885 0
M  V30 18940 C 1723.63 2.72353 -2.14534 0
M  V30 18941 C 1722.69 2.64429 -3.38195 0
M  V30 18942 C 1721.93 3.92244 -3.61912 0
M  V30 18943 O 1722.15 4.92088 -2.88454 0
M  V30 18944 O 1721.08 3.93523 -4.55438 0
M  V30 18945 H 1724.91 1.11688 -2.82417 0
M  V30 18946 H 1722.49 0.487789 -1.41213 0
M  V30 18947 H 1724.38 3.51745 -2.32064 0
M  V30 18948 H 1723.05 2.98624 -1.24921 0
M  V30 18949 H 1721.96 1.83474 -3.26018 0
M  V30 18950 H 1723.29 2.43109 -4.2797 0
M  V30 18951 N 1724.94 1.47523 0.554506 0
M  V30 18952 C 1725.87 1.63093 1.67102 0
M  V30 18953 C 1726.85 0.480298 1.63178 0
M  V30 18954 O 1728.04 0.709956 1.80757 0
M  V30 18955 C 1725.17 1.64751 3.05736 0
M  V30 18956 C 1724.12 2.79068 3.24507 0
M  V30 18957 C 1723.45 2.65801 4.63955 0
M  V30 18958 C 1724.75 4.20631 3.09623 0
M  V30 18959 H 1726.44 2.56561 1.54328 0
M  V30 18960 H 1723.99 1.2347 0.741023 0
M  V30 18961 H 1725.94 1.74234 3.83693 0
M  V30 18962 H 1724.67 0.678453 3.19475 0
M  V30 18963 H 1723.32 2.691 2.48959 0
M  V30 18964 H 1722.97 1.66917 4.74497 0
M  V30 18965 H 1722.67 3.42494 4.77464 0
M  V30 18966 H 1724.2 2.77216 5.44044 0
M  V30 18967 H 1725.61 4.31562 3.77396 0
M  V30 18968 H 1724.01 4.98133 3.3464 0
M  V30 18969 H 1725.08 4.38809 2.06336 0
M  V30 18970 N 1726.42 -0.801453 1.357 0
M  V30 18971 C 1727.84 -1.09776 1.1585 0
M  V30 18972 C 1728.04 -2.01484 -0.0255653 0
M  V30 18973 O 1727.09 -2.42758 -0.694613 0
M  V30 18974 C 1728.41 -1.72381 2.46385 0
M  V30 18975 C 1729.95 -1.84777 2.52639 0
M  V30 18976 C 1730.43 -2.50797 3.83229 0
M  V30 18977 N 1731.92 -2.58277 3.84509 0
M  V30 18978 C 1732.65 -3.10141 4.82286 0
M  V30 18979 N 1732.15 -3.62404 5.90454 0
M  V30 18980 N 1733.94 -3.08742 4.69718 0
M  V30 18981 H 1726.09 -0.191926 2.11531 0
M  V30 18982 H 1728.36 -0.147742 0.936417 0
M  V30 18983 H 1728.06 -1.12462 3.33234 0
M  V30 18984 H 1727.94 -2.72024 2.6131 0
M  V30 18985 H 1730.32 -2.43837 1.66215 0
M  V30 18986 H 1730.41 -0.839745 2.41624 0
M  V30 18987 H 1730.05 -1.92385 4.70053 0
M  V30 18988 H 1729.98 -3.52147 3.91535 0
M  V30 18989 H 1732.47 -2.21257 3.06356 0
M  V30 18990 H 1732.78 -4.00293 6.61049 0
M  V30 18991 H 1731.13 -3.60588 5.94139 0
M  V30 18992 H 1734.32 -2.67193 3.84351 0
M  V30 18993 H 1734.49 -3.48854 5.46081 0
M  V30 18994 N 1727.9 -1.19782 -1.02421 0
M  V30 18995 C 1728.86 -0.941631 -2.08964 0
M  V30 18996 C 1729.86 0.0797747 -1.60602 0
M  V30 18997 O 1731.05 -0.155473 -1.73505 0
M  V30 18998 C 1728.18 -0.416114 -3.38351 0
M  V30 18999 H 1729.38 -1.88661 -2.33125 0
M  V30 19000 H 1726.93 -1.01212 -1.19104 0
M  V30 19001 H 1727.66 0.53469 -3.19862 0
M  V30 19002 H 1727.45 -1.15262 -3.74776 0
M  V30 19003 H 1728.94 -0.256114 -4.16814 0
M  V30 19004 N 1729.38 1.21606 -1.00248 0
M  V30 19005 C 1730.32 2.23884 -0.560771 0
M  V30 19006 C 1731.29 1.60913 0.411864 0
M  V30 19007 O 1732.48 1.88191 0.314476 0
M  V30 19008 C 1729.62 3.44928 0.108948 0
M  V30 19009 C 1728.73 4.22381 -0.906566 0
M  V30 19010 C 1727.87 5.30787 -0.20937 0
M  V30 19011 C 1726.91 5.99969 -1.2126 0
M  V30 19012 N 1726.04 6.99997 -0.543057 0
M  V30 19013 H 1730.88 2.61029 -1.43764 0
M  V30 19014 H 1728.42 1.28278 -0.719937 0
M  V30 19015 H 1730.38 4.14019 0.514244 0
M  V30 19016 H 1729.01 3.08518 0.949544 0
M  V30 19017 H 1728.06 3.52493 -1.43012 0
M  V30 19018 H 1729.37 4.70009 -1.67013 0
M  V30 19019 H 1728.53 6.06176 0.252164 0
M  V30 19020 H 1727.27 4.84159 0.586621 0
M  V30 19021 H 1726.27 5.23353 -1.68467 0
M  V30 19022 H 1727.5 6.48684 -2.00963 0
M  V30 19023 H 1725.44 6.55585 0.233324 0
M  V30 19024 H 1725.36 7.45679 -1.24492 0
M  V30 19025 H 1726.63 7.7943 -0.104643 0
M  V30 19026 N 1730.86 0.776895 1.37121 0
M  V30 19027 C 1732.27 0.457116 1.52914 0
M  V30 19028 C 1732.47 -1.0265 1.73394 0
M  V30 19029 O 1731.53 -1.81224 1.75824 0
M  V30 19030 C 1732.84 1.27667 2.72253 0
M  V30 19031 C 1734.39 1.26909 2.86117 0
M  V30 19032 C 1734.86 2.0721 4.08446 0
M  V30 19033 N 1736.35 2.04591 4.15568 0
M  V30 19034 C 1737.09 2.63502 5.09268 0
M  V30 19035 N 1736.59 3.31222 6.08493 0
M  V30 19036 N 1738.38 2.53304 5.0179 0
M  V30 19037 H 1730.53 1.73811 1.2208 0
M  V30 19038 H 1732.79 0.738142 0.594853 0
M  V30 19039 H 1732.5 2.32825 2.63601 0
M  V30 19040 H 1732.37 0.909363 3.66074 0
M  V30 19041 H 1734.76 0.225476 2.94237 0
M  V30 19042 H 1734.84 1.67607 1.9324 0
M  V30 19043 H 1734.48 3.11595 4.01087 0
M  V30 19044 H 1734.41 1.63891 5.00447 0
M  V30 19045 H 1736.91 1.55293 3.44518 0
M  V30 19046 H 1737.22 3.73535 6.76529 0
M  V30 19047 H 1735.56 3.35322 6.08756 0
M  V30 19048 H 1738.75 2.00009 4.23218 0
M  V30 19049 H 1738.93 2.99509 5.74629 0
M  V30 19050 N 1732.33 -1.48497 0.527859 0
M  V30 19051 C 1733.24 -2.3337 -0.239957 0
M  V30 19052 C 1734.26 -1.46353 -0.941101 0
M  V30 19053 O 1735.44 -1.79337 -0.916532 0
M  V30 19054 C 1732.5 -3.22421 -1.27458 0
M  V30 19055 C 1731.56 -4.25309 -0.584017 0
M  V30 19056 C 1730.79 -5.10105 -1.56935 0
M  V30 19057 O 1731.02 -4.96846 -2.80178 0
M  V30 19058 O 1729.95 -5.91578 -1.10991 0
M  V30 19059 H 1733.78 -3.00265 0.455458 0
M  V30 19060 H 1731.36 -1.46582 0.288809 0
M  V30 19061 H 1733.24 -3.7751 -1.87254 0
M  V30 19062 H 1731.92 -2.58189 -1.95244 0
M  V30 19063 H 1730.83 -3.7406 0.0543828 0
M  V30 19064 H 1732.16 -4.92173 0.0518646 0
M  V30 19065 N 1733.81 -0.262893 -1.55392 0
M  V30 19066 C 1734.74 0.66288 -2.19405 0
M  V30 19067 C 1735.76 1.12675 -1.17508 0
M  V30 19068 O 1736.95 1.05077 -1.44295 0
M  V30 19069 C 1734.05 1.91471 -2.79628 0
M  V30 19070 C 1733.22 1.59966 -4.07099 0
M  V30 19071 C 1732.28 2.7027 -4.51487 0
M  V30 19072 O 1731.3 2.36976 -5.17524 0
M  V30 19073 N 1732.51 4.0009 -4.20605 0
M  V30 19074 H 1735.27 0.115075 -2.99479 0
M  V30 19075 H 1732.83 -0.0834933 -1.61685 0
M  V30 19076 H 1734.82 2.64535 -3.06273 0
M  V30 19077 H 1733.39 2.37188 -2.03619 0
M  V30 19078 H 1732.61 0.703431 -3.87873 0
M  V30 19079 H 1733.9 1.36402 -4.90175 0
M  V30 19080 H 1733.3 4.29966 -3.67621 0
M  V30 19081 H 1731.86 4.69569 -4.52049 0
M  V30 19082 N 1735.29 1.57597 0.0100073 0
M  V30 19083 C 1736.2 2.11209 1.02117 0
M  V30 19084 C 1737.22 1.05503 1.38366 0
M  V30 19085 O 1738.39 1.37348 1.47301 0
M  V30 19086 C 1735.46 2.59654 2.2974 0
M  V30 19087 C 1734.52 3.79921 1.99896 0
M  V30 19088 C 1733.75 4.26046 3.21435 0
M  V30 19089 O 1733.97 3.71566 4.32775 0
M  V30 19090 O 1732.91 5.18301 3.06018 0
M  V30 19091 H 1736.73 2.97805 0.595469 0
M  V30 19092 H 1734.32 1.47647 0.228208 0
M  V30 19093 H 1736.2 2.91058 3.04735 0
M  V30 19094 H 1734.88 1.76161 2.71568 0
M  V30 19095 H 1733.78 3.53506 1.22409 0
M  V30 19096 H 1735.12 4.64457 1.62912 0
M  V30 19097 N 1736.77 -0.282606 1.55045 0
M  V30 19098 C 1738.01 -1.01698 1.75458 0
M  V30 19099 C 1738.35 -1.86284 0.548808 0
M  V30 19100 O 1737.62 -1.89131 -0.45382 0
M  V30 19101 C 1737.9 -1.90759 3.05423 0
M  V30 19102 C 1737.76 -1.0923 4.36336 0
M  V30 19103 C 1739.08 -2.8963 3.31364 0
M  V30 19104 H 1736.2 -0.368305 0.638373 0
M  V30 19105 H 1738.84 -0.290118 1.87772 0
M  V30 19106 H 1736.99 -2.52734 2.95055 0
M  V30 19107 H 1738.66 -0.493996 4.58647 0
M  V30 19108 H 1736.9 -0.395481 4.31994 0
M  V30 19109 H 1737.57 -1.74842 5.23578 0
M  V30 19110 H 1740.05 -2.37788 3.41462 0
M  V30 19111 H 1738.93 -3.49096 4.23584 0
M  V30 19112 H 1739.19 -3.64255 2.50541 0
M  V30 19113 N 1738.25 -1.47815 -0.546675 0
M  V30 19114 C 1739.47 -1.58613 -1.32851 0
M  V30 19115 C 1739.89 -0.240179 -1.87266 0
M  V30 19116 O 1739.25 0.768148 -1.65547 0
M  V30 19117 C 1739.3 -2.61969 -2.49107 0
M  V30 19118 O 1739.02 -3.9134 -1.96938 0
M  V30 19119 C 1740.52 -2.83051 -3.4117 0
M  V30 19120 H 1737.74 -0.535292 -0.404603 0
M  V30 19121 H 1740.28 -1.93516 -0.661192 0
M  V30 19122 H 1738.44 -2.29971 -3.11756 0
M  V30 19123 H 1738.85 -4.47905 -2.72913 0
M  V30 19124 H 1740.33 -3.59209 -4.19134 0
M  V30 19125 H 1740.8 -1.91258 -3.95369 0
M  V30 19126 H 1741.41 -3.16287 -2.84328 0
M  V30 19127 N 1739.72 0.794246 -1.36123 0
M  V30 19128 C 1740.97 1.55421 -1.30277 0
M  V30 19129 C 1741.3 1.93834 0.119134 0
M  V30 19130 O 1740.58 1.6233 1.07141 0
M  V30 19131 C 1740.86 2.83454 -2.22094 0
M  V30 19132 C 1740.71 2.51439 -3.72959 0
M  V30 19133 C 1742.03 3.85246 -2.12776 0
M  V30 19134 H 1739.15 0.563871 -0.474572 0
M  V30 19135 H 1741.79 0.912877 -1.66633 0
M  V30 19136 H 1739.94 3.38182 -1.9122 0
M  V30 19137 H 1741.62 2.02799 -4.14331 0
M  V30 19138 H 1739.86 1.84451 -3.92632 0
M  V30 19139 H 1740.53 3.42863 -4.32608 0
M  V30 19140 H 1743.01 3.39952 -2.39942 0
M  V30 19141 H 1741.88 4.72588 -2.79198 0
M  V30 19142 H 1742.14 4.27847 -1.11353 0
M  V30 19143 N 1741.2 1.20323 1.01785 0
M  V30 19144 C 1742.13 0.974819 2.12178 0
M  V30 19145 C 1743.11 -0.0957637 1.6983 0
M  V30 19146 O 1744.3 0.0614963 1.94103 0
M  V30 19147 C 1741.43 0.524739 3.43313 0
M  V30 19148 C 1740.38 1.53842 3.99395 0
M  V30 19149 C 1739.71 0.945021 5.26283 0
M  V30 19150 C 1741.01 2.92179 4.3293 0
M  V30 19151 H 1742.7 1.8981 2.31544 0
M  V30 19152 H 1740.25 0.914025 1.11273 0
M  V30 19153 H 1742.2 0.352182 4.19926 0
M  V30 19154 H 1740.92 -0.434161 3.23701 0
M  V30 19155 H 1739.58 1.69832 3.24889 0
M  V30 19156 H 1739.23 -0.0217709 5.02995 0
M  V30 19157 H 1738.93 1.62201 5.64769 0
M  V30 19158 H 1740.46 0.783504 6.05552 0
M  V30 19159 H 1741.87 2.79708 5.00436 0
M  V30 19160 H 1740.27 3.56773 4.82528 0
M  V30 19161 H 1741.34 3.43997 3.41752 0
M  V30 19162 N 1742.68 -1.21073 1.00892 0
M  V30 19163 C 1743.63 -2.23583 0.572636 0
M  V30 19164 C 1744.6 -1.61129 -0.403324 0
M  V30 19165 O 1745.78 -1.88355 -0.304491 0
M  V30 19166 C 1742.92 -3.44981 -0.0906539 0
M  V30 19167 C 1742.03 -4.21894 0.928953 0
M  V30 19168 C 1741.17 -5.30669 0.237516 0
M  V30 19169 C 1740.21 -5.99317 1.24441 0
M  V30 19170 N 1739.35 -6.99699 0.580172 0
M  V30 19171 H 1744.19 -2.60263 1.45146 0
M  V30 19172 H 1741.72 -1.27895 0.72673 0
M  V30 19173 H 1743.68 -4.14285 -0.492281 0
M  V30 19174 H 1742.31 -3.09017 -0.933169 0
M  V30 19175 H 1741.36 -3.5173 1.4488 0
M  V30 19176 H 1742.67 -4.69116 1.69503 0
M  V30 19177 H 1741.83 -6.06301 -0.220013 0
M  V30 19178 H 1740.57 -4.84463 -0.560937 0
M  V30 19179 H 1739.57 -5.22453 1.7124 0
M  V30 19180 H 1740.8 -6.47609 2.04401 0
M  V30 19181 H 1738.74 -6.55699 -0.198553 0
M  V30 19182 H 1738.66 -7.45009 1.28444 0
M  V30 19183 H 1739.93 -7.79363 0.145977 0
M  V30 19184 N 1744.16 -0.784156 -1.36707 0
M  V30 19185 C 1745.11 -0.177044 -2.3012 0
M  V30 19186 C 1746.08 0.6761 -1.51717 0
M  V30 19187 O 1747.26 0.625878 -1.80243 0
M  V30 19188 C 1744.4 0.686337 -3.38206 0
M  V30 19189 C 1743.51 -0.184772 -4.31605 0
M  V30 19190 C 1742.65 0.684485 -5.26772 0
M  V30 19191 C 1741.69 -0.188402 -6.1181 0
M  V30 19192 N 1740.82 0.639537 -6.99181 0
M  V30 19193 H 1745.66 -0.979125 -2.81455 0
M  V30 19194 H 1743.2 -0.494419 -1.38542 0
M  V30 19195 H 1745.16 1.20185 -3.99514 0
M  V30 19196 H 1743.79 1.4539 -2.88204 0
M  V30 19197 H 1742.84 -0.818204 -3.71496 0
M  V30 19198 H 1744.15 -0.857567 -4.91373 0
M  V30 19199 H 1743.31 1.26601 -5.93344 0
M  V30 19200 H 1742.05 1.39092 -4.67445 0
M  V30 19201 H 1741.05 -0.782364 -5.44205 0
M  V30 19202 H 1742.28 -0.89236 -6.73212 0
M  V30 19203 H 1740.22 1.33036 -6.42369 0
M  V30 19204 H 1740.14 0.0243097 -7.55996 0
M  V30 19205 H 1741.41 1.20505 -7.70129 0
M  V30 19206 N 1745.64 1.48215 -0.535727 0
M  V30 19207 C 1746.6 2.28206 0.213212 0
M  V30 19208 C 1747.6 1.3571 0.862522 0
M  V30 19209 O 1748.79 1.58547 0.721688 0
M  V30 19210 C 1745.92 3.1476 1.30917 0
M  V30 19211 H 1747.11 2.95884 -0.489163 0
M  V30 19212 H 1744.67 1.53551 -0.291872 0
M  V30 19213 H 1745.4 2.51726 2.04462 0
M  V30 19214 H 1745.19 3.82806 0.848633 0
M  V30 19215 H 1746.68 3.75085 1.83579 0
M  V30 19216 N 1747.11 0.27113 1.5525 0
M  V30 19217 C 1748.04 -0.61179 2.25343 0
M  V30 19218 C 1749.03 -1.16208 1.24216 0
M  V30 19219 O 1750.21 -1.19696 1.52927 0
M  V30 19220 C 1747.34 -1.7978 2.97147 0
M  V30 19221 C 1746.29 -1.37922 4.05169 0
M  V30 19222 C 1745.62 -2.64801 4.64526 0
M  V30 19223 C 1746.92 -0.532357 5.1958 0
M  V30 19224 H 1748.61 -0.0272538 2.99388 0
M  V30 19225 H 1746.16 -0.0116681 1.43995 0
M  V30 19226 H 1748.11 -2.42132 3.44891 0
M  V30 19227 H 1746.84 -2.40811 2.20631 0
M  V30 19228 H 1745.5 -0.778918 3.5823 0
M  V30 19229 H 1745.14 -3.24081 3.84682 0
M  V30 19230 H 1744.84 -2.37507 5.37461 0
M  V30 19231 H 1746.37 -3.28009 5.15017 0
M  V30 19232 H 1747.78 -1.06078 5.63401 0
M  V30 19233 H 1746.18 -0.35447 5.99052 0
M  V30 19234 H 1747.25 0.44981 4.82809 0
M  V30 19235 N 1748.59 -1.576 -0.00164943 0
M  V30 19236 C 1749.87 -1.81716 -0.723788 0
M  V30 19237 C 1750.25 -0.875694 -1.9208 0
M  V30 19238 O 1749.6 0.0759629 -2.28374 0
M  V30 19239 C 1749.81 -3.30164 -1.13106 0
M  V30 19240 C 1751.16 -3.95859 -1.5356 0
M  V30 19241 O 1752.18 -3.34477 -1.2249 0
M  V30 19242 O 1751.04 -5.03986 -2.1133 0
M  V30 19243 H 1748.13 -0.748213 -0.352287 0
M  V30 19244 H 1750.68 -1.69683 0.0236782 0
M  V30 19245 H 1749.45 -3.90313 -0.277771 0
M  V30 19246 H 1749.07 -3.47188 -1.93768 0
M  V30 19247 N 1750.07 0.274379 -1.55193 0
M  V30 19248 C 1750.98 1.36118 -1.91073 0
M  V30 19249 C 1752 1.54111 -0.807823 0
M  V30 19250 O 1753.17 1.68264 -1.10676 0
M  V30 19251 C 1750.24 2.70062 -2.17411 0
M  V30 19252 C 1749.3 2.60827 -3.4098 0
M  V30 19253 C 1748.53 3.88384 -3.66052 0
M  V30 19254 O 1748.75 4.89 -2.93657 0
M  V30 19255 O 1747.69 3.8867 -4.59586 0
M  V30 19256 H 1751.51 1.08686 -2.83586 0
M  V30 19257 H 1749.1 0.472784 -1.41722 0
M  V30 19258 H 1750.98 3.49264 -2.35782 0
M  V30 19259 H 1749.66 2.97283 -1.28081 0
M  V30 19260 H 1748.56 1.80006 -3.27946 0
M  V30 19261 H 1749.9 2.38556 -4.30525 0
M  V30 19262 N 1751.55 1.48103 0.538828 0
M  V30 19263 C 1752.46 1.64632 1.67133 0
M  V30 19264 C 1753.47 0.528917 1.65766 0
M  V30 19265 O 1754.65 0.798849 1.84879 0
M  V30 19266 C 1751.72 1.67391 3.03614 0
M  V30 19267 C 1750.78 2.90694 3.15904 0
M  V30 19268 C 1750.01 2.93311 4.45875 0
M  V30 19269 O 1750.23 2.04596 5.32444 0
M  V30 19270 O 1749.17 3.85384 4.62345 0
M  V30 19271 H 1752.99 2.60496 1.56126 0
M  V30 19272 H 1750.58 1.31401 0.710925 0
M  V30 19273 H 1752.46 1.71777 3.84799 0
M  V30 19274 H 1751.13 0.746982 3.14963 0
M  V30 19275 H 1750.04 2.91844 2.34047 0
M  V30 19276 H 1751.37 3.82742 3.09467 0
M  V30 19277 N 1753.03 -0.787016 1.36542 0
M  V30 19278 C 1754.25 -1.57588 1.34065 0
M  V30 19279 C 1754.67 -1.88641 -0.0775397 0
M  V30 19280 O 1754.03 -1.50306 -1.03511 0
M  V30 19281 C 1754.08 -2.89543 2.16442 0
M  V30 19282 O 1753.8 -2.59828 3.52734 0
M  V30 19283 C 1755.3 -3.83838 2.21773 0
M  V30 19284 H 1752.52 -0.488708 0.459789 0
M  V30 19285 H 1755.06 -0.976614 1.79673 0
M  V30 19286 H 1753.22 -3.45933 1.74383 0
M  V30 19287 H 1753.63 -3.44219 3.95744 0
M  V30 19288 H 1755.11 -4.73478 2.83765 0
M  V30 19289 H 1755.58 -4.21862 1.22185 0
M  V30 19290 H 1756.19 -3.33381 2.64078 0
M  V30 19291 N 1754.5 -1.20861 -1.01145 0
M  V30 19292 C 1755.92 -0.964575 -1.27154 0
M  V30 19293 C 1756.12 0.352861 -1.98386 0
M  V30 19294 O 1755.18 1.08012 -2.28232 0
M  V30 19295 C 1756.49 -2.15074 -2.10151 0
M  V30 19296 C 1758.04 -2.19229 -2.234 0
M  V30 19297 C 1758.51 -3.37346 -3.09777 0
M  V30 19298 N 1760 -3.37392 -3.17365 0
M  V30 19299 C 1760.74 -4.25434 -3.84439 0
M  V30 19300 N 1760.23 -5.23664 -4.53595 0
M  V30 19301 N 1762.03 -4.13261 -3.81014 0
M  V30 19302 H 1754.18 -2.05595 -0.533346 0
M  V30 19303 H 1756.44 -0.899928 -0.298048 0
M  V30 19304 H 1756.15 -3.10511 -1.65153 0
M  V30 19305 H 1756.02 -2.13598 -3.10895 0
M  V30 19306 H 1758.41 -1.24352 -2.6762 0
M  V30 19307 H 1758.49 -2.24752 -1.22148 0
M  V30 19308 H 1758.13 -4.32513 -2.66261 0
M  V30 19309 H 1758.06 -3.29061 -4.11128 0
M  V30 19310 H 1760.55 -2.66299 -2.68129 0
M  V30 19311 H 1760.87 -5.87158 -5.02459 0
M  V30 19312 H 1759.21 -5.27595 -4.52403 0
M  V30 19313 H 1762.4 -3.35786 -3.26137 0
M  V30 19314 H 1762.58 -4.82085 -4.3301 0
M  V30 19315 N 1755.98 1.20536 -1.01532 0
M  V30 19316 C 1757.21 1.94393 -0.722908 0
M  V30 19317 C 1757.63 1.74191 0.709857 0
M  V30 19318 O 1756.99 1.03538 1.48827 0
M  V30 19319 C 1757.04 3.44597 -1.06231 0
M  V30 19320 O 1756.14 4.12036 -0.173286 0
M  V30 19321 H 1755.48 0.607361 -0.268345 0
M  V30 19322 H 1758.01 1.53003 -1.35835 0
M  V30 19323 H 1758.02 3.95212 -1.01348 0
M  V30 19324 H 1756.7 3.58624 -2.10621 0
M  V30 19325 H 1755.28 3.71851 -0.27953 0
M  V30 19326 N 1757.46 0.791395 1.36289 0
M  V30 19327 C 1758.41 0.164218 2.27408 0
M  V30 19328 C 1759.39 -0.653018 1.47053 0
M  V30 19329 O 1760.59 -0.512767 1.6941 0
M  V30 19330 C 1757.72 -0.698551 3.36118 0
M  V30 19331 C 1756.8 0.127583 4.23908 0
M  V30 19332 N 1757.19 1.18307 4.91769 0
M  V30 19333 C 1755.49 -0.0932621 4.45902 0
M  V30 19334 C 1756.19 1.68616 5.56726 0
M  V30 19335 N 1755.17 0.995058 5.34415 0
M  V30 19336 H 1758.97 0.972045 2.7736 0
M  V30 19337 H 1756.48 0.63105 1.49638 0
M  V30 19338 H 1758.48 -1.16379 4.00327 0
M  V30 19339 H 1757.14 -1.5049 2.8772 0
M  V30 19340 H 1758.15 1.56553 4.93672 0
M  V30 19341 H 1754.83 -0.869962 4.08336 0
M  V30 19342 H 1756.22 2.56745 6.20912 0
M  V30 19343 N 1758.94 -1.47929 0.54358 0
M  V30 19344 C 1759.85 -2.33611 -0.215191 0
M  V30 19345 C 1760.87 -1.47343 -0.925526 0
M  V30 19346 O 1762.04 -1.80299 -0.897459 0
M  V30 19347 C 1759.11 -3.23755 -1.24031 0
M  V30 19348 C 1758.17 -4.25904 -0.538874 0
M  V30 19349 C 1757.4 -5.11741 -1.51516 0
M  V30 19350 O 1757.62 -4.9979 -2.74893 0
M  V30 19351 O 1756.56 -5.92722 -1.0471 0
M  V30 19352 H 1760.38 -2.99765 0.487279 0
M  V30 19353 H 1757.97 -1.46267 0.30434 0
M  V30 19354 H 1759.85 -3.79475 -1.8324 0
M  V30 19355 H 1758.53 -2.60245 -1.92495 0
M  V30 19356 H 1757.43 -3.73982 0.0940539 0
M  V30 19357 H 1758.77 -4.9209 0.104063 0
M  V30 19358 N 1760.42 -0.27936 -1.55104 0
M  V30 19359 C 1761.38 0.593214 -2.2139 0
M  V30 19360 C 1762.38 1.07807 -1.19308 0
M  V30 19361 O 1763.57 0.97756 -1.44185 0
M  V30 19362 C 1760.7 1.81889 -2.88321 0
M  V30 19363 H 1761.9 0.0143941 -2.99897 0
M  V30 19364 H 1759.45 -0.0300083 -1.56271 0
M  V30 19365 H 1760.18 2.43811 -2.13838 0
M  V30 19366 H 1759.97 1.4791 -3.63132 0
M  V30 19367 H 1761.46 2.4393 -3.38951 0
M  V30 19368 N 1761.9 1.57599 -0.0067085 0
M  V30 19369 C 1762.83 2.05706 1.01084 0
M  V30 19370 C 1763.84 0.976216 1.30284 0
M  V30 19371 O 1765.03 1.25288 1.27142 0
M  V30 19372 C 1762.13 2.44771 2.34393 0
M  V30 19373 C 1761.3 3.75668 2.24036 0
M  V30 19374 C 1760.36 4.01528 3.4009 0
M  V30 19375 O 1759.39 4.72101 3.17977 0
M  V30 19376 N 1760.59 3.49947 4.6316 0
M  V30 19377 H 1763.35 2.93622 0.600532 0
M  V30 19378 H 1760.92 1.6089 0.180536 0
M  V30 19379 H 1762.91 2.5918 3.10818 0
M  V30 19380 H 1761.48 1.62339 2.67142 0
M  V30 19381 H 1760.7 3.71272 1.3248 0
M  V30 19382 H 1761.99 4.6147 2.14295 0
M  V30 19383 H 1761.38 2.92811 4.84023 0
M  V30 19384 H 1759.94 3.69675 5.36828 0
M  V30 19385 N 1763.37 -0.266145 1.55336 0
M  V30 19386 C 1764.62 -0.998308 1.76527 0
M  V30 19387 C 1764.95 -1.85691 0.568535 0
M  V30 19388 O 1764.23 -1.89602 -0.433735 0
M  V30 19389 C 1764.51 -1.87509 3.07429 0
M  V30 19390 C 1764.36 -1.04596 4.3747 0
M  V30 19391 C 1765.68 -2.86099 3.34418 0
M  V30 19392 H 1762.8 -0.361514 0.642244 0
M  V30 19393 H 1765.44 -0.270186 1.88069 0
M  V30 19394 H 1763.59 -2.49591 2.97719 0
M  V30 19395 H 1765.27 -0.445323 4.59145 0
M  V30 19396 H 1763.51 -0.349641 4.32389 0
M  V30 19397 H 1764.18 -1.69279 5.25403 0
M  V30 19398 H 1766.66 -2.34153 3.43965 0
M  V30 19399 H 1765.53 -3.44584 4.27262 0
M  V30 19400 H 1765.79 -3.61577 2.5439 0
M  V30 19401 N 1764.85 -1.48386 -0.530967 0
M  V30 19402 C 1765.78 -1.58922 -1.65156 0
M  V30 19403 C 1766.8 -0.473583 -1.5576 0
M  V30 19404 O 1767.99 -0.744383 -1.62238 0
M  V30 19405 C 1765.09 -1.50201 -3.03798 0
M  V30 19406 C 1764.26 -2.76787 -3.38685 0
M  V30 19407 C 1763.32 -2.61534 -4.56603 0
M  V30 19408 O 1762.34 -3.35417 -4.59874 0
M  V30 19409 N 1763.55 -1.71087 -5.54716 0
M  V30 19410 H 1766.31 -2.55559 -1.56555 0
M  V30 19411 H 1763.87 -1.45097 -0.718216 0
M  V30 19412 H 1765.86 -1.37693 -3.80556 0
M  V30 19413 H 1764.43 -0.615419 -3.06482 0
M  V30 19414 H 1763.65 -3.03867 -2.51115 0
M  V30 19415 H 1764.94 -3.6077 -3.58779 0
M  V30 19416 H 1764.34 -1.10261 -5.54851 0
M  V30 19417 H 1762.9 -1.64518 -6.30696 0
M  V30 19418 N 1766.33 0.779763 -1.36958 0
M  V30 19419 C 1767.24 1.92394 -1.34245 0
M  V30 19420 C 1768.26 1.72292 -0.243187 0
M  V30 19421 O 1769.43 1.95665 -0.477211 0
M  V30 19422 C 1766.5 3.27402 -1.14057 0
M  V30 19423 C 1765.56 3.60213 -2.33548 0
M  V30 19424 C 1764.79 4.88779 -2.14314 0
M  V30 19425 O 1765.01 5.59231 -1.12327 0
M  V30 19426 O 1763.95 5.20469 -3.02316 0
M  V30 19427 H 1767.77 1.97633 -2.30596 0
M  V30 19428 H 1765.36 0.921386 -1.17605 0
M  V30 19429 H 1767.24 4.08172 -1.04755 0
M  V30 19430 H 1765.92 3.23033 -0.207744 0
M  V30 19431 H 1764.82 2.7971 -2.48421 0
M  V30 19432 H 1766.16 3.69317 -3.25371 0
M  V30 19433 N 1767.81 1.21396 1.00503 0
M  V30 19434 C 1768.74 0.916483 2.08988 0
M  V30 19435 C 1769.72 -0.135972 1.6203 0
M  V30 19436 O 1770.9 -0.00701537 1.88499 0
M  V30 19437 C 1768.03 0.376122 3.36605 0
M  V30 19438 C 1767.08 1.41137 4.0247 0
M  V30 19439 S 1767.91 2.98055 4.44886 0
M  V30 19440 C 1769.06 2.45626 5.7569 0
M  V30 19441 H 1769.3 1.83517 2.33899 0
M  V30 19442 H 1766.83 1.0437 1.13782 0
M  V30 19443 H 1768.79 0.0709239 4.10439 0
M  V30 19444 H 1767.45 -0.52125 3.09745 0
M  V30 19445 H 1766.64 0.982903 4.94323 0
M  V30 19446 H 1766.24 1.66465 3.34911 0
M  V30 19447 H 1768.54 1.8611 6.51436 0
M  V30 19448 H 1769.48 3.3592 6.23348 0
M  V30 19449 H 1769.89 1.87337 5.32508 0
M  V30 19450 N 1769.29 -1.19996 1.0217 0
M  V30 19451 C 1770.7 -1.4154 0.737473 0
M  V30 19452 C 1770.9 -1.89649 -0.680832 0
M  V30 19453 O 1769.96 -2.06865 -1.44787 0
M  V30 19454 C 1771.27 -2.43269 1.76751 0
M  V30 19455 C 1772.82 -2.57027 1.78623 0
M  V30 19456 C 1773.29 -3.62003 2.80567 0
M  V30 19457 N 1774.78 -3.69492 2.79339 0
M  V30 19458 C 1775.52 -4.50391 3.54874 0
M  V30 19459 N 1775.02 -5.35053 4.40103 0
M  V30 19460 N 1776.81 -4.44972 3.43448 0
M  V30 19461 H 1768.96 -0.870855 1.93726 0
M  V30 19462 H 1771.22 -0.444866 0.837137 0
M  V30 19463 H 1770.93 -2.14927 2.78387 0
M  V30 19464 H 1770.8 -3.42336 1.58386 0
M  V30 19465 H 1773.19 -2.84695 0.776695 0
M  V30 19466 H 1773.27 -1.58138 2.01062 0
M  V30 19467 H 1772.91 -3.35078 3.81687 0
M  V30 19468 H 1772.84 -4.60526 2.55388 0
M  V30 19469 H 1775.34 -3.09021 2.17518 0
M  V30 19470 H 1775.65 -5.93881 4.94495 0
M  V30 19471 H 1773.99 -5.34538 4.44178 0
M  V30 19472 H 1777.18 -3.77869 2.76283 0
M  V30 19473 H 1777.36 -5.07782 4.02569 0
M  V30 19474 N 1770.76 -0.798611 -1.35867 0
M  V30 19475 C 1771.7 -0.161203 -2.28632 0
M  V30 19476 C 1772.71 0.634886 -1.4991 0
M  V30 19477 O 1773.9 0.468557 -1.72241 0
M  V30 19478 C 1771 0.794407 -3.29458 0
M  V30 19479 C 1770.17 0.0464031 -4.37375 0
M  V30 19480 C 1769.23 0.919313 -5.18107 0
M  V30 19481 O 1768.26 0.373179 -5.67975 0
M  V30 19482 N 1769.46 2.24243 -5.35439 0
M  V30 19483 H 1772.22 -0.958079 -2.83973 0
M  V30 19484 H 1769.78 -0.653344 -1.48132 0
M  V30 19485 H 1771.78 1.38242 -3.80357 0
M  V30 19486 H 1770.35 1.49212 -2.7469 0
M  V30 19487 H 1769.57 -0.722757 -3.87518 0
M  V30 19488 H 1770.85 -0.469417 -5.0663 0
M  V30 19489 H 1770.25 2.71017 -4.96554 0
M  V30 19490 H 1768.81 2.77986 -5.89548 0
M  V30 19491 N 1772.24 1.47639 -0.551417 0
M  V30 19492 C 1773.19 2.29936 0.199514 0
M  V30 19493 C 1774.16 1.38704 0.913811 0
M  V30 19494 O 1775.34 1.67666 0.910643 0
M  V30 19495 C 1772.48 3.22544 1.22717 0
M  V30 19496 C 1771.6 4.28865 0.519527 0
M  V30 19497 C 1770.73 5.0863 1.53197 0
M  V30 19498 C 1769.77 6.06731 0.808981 0
M  V30 19499 N 1768.91 6.79476 1.76798 0
M  V30 19500 H 1773.75 2.93631 -0.508414 0
M  V30 19501 H 1771.28 1.44738 -0.262553 0
M  V30 19502 H 1773.24 3.74653 1.83551 0
M  V30 19503 H 1771.87 2.60726 1.9032 0
M  V30 19504 H 1770.92 3.79857 -0.203217 0
M  V30 19505 H 1772.24 4.98778 -0.0471224 0
M  V30 19506 H 1771.39 5.6486 2.214 0
M  V30 19507 H 1770.13 4.38605 2.13253 0
M  V30 19508 H 1769.13 5.49684 0.112991 0
M  V30 19509 H 1770.36 6.78762 0.214239 0
M  V30 19510 H 1768.31 6.12185 2.35722 0
M  V30 19511 H 1768.22 7.45539 1.25333 0
M  V30 19512 H 1769.49 7.40283 2.44133 0
M  V30 19513 N 1773.72 0.287581 1.54954 0
M  V30 19514 C 1774.67 -0.609238 2.1971 0
M  V30 19515 C 1775.65 -1.10905 1.16571 0
M  V30 19516 O 1776.85 -1.05206 1.4234 0
M  V30 19517 C 1773.98 -1.78705 2.9312 0
M  V30 19518 C 1773.06 -1.30383 4.0356 0
M  V30 19519 N 1773.45 -0.537641 5.02934 0
M  V30 19520 C 1771.75 -1.58573 4.16858 0
M  V30 19521 C 1772.45 -0.281993 5.81016 0
M  V30 19522 N 1771.43 -0.857984 5.36786 0
M  V30 19523 H 1775.23 -0.0161538 2.93896 0
M  V30 19524 H 1772.74 0.0917131 1.62141 0
M  V30 19525 H 1774.74 -2.44095 3.37969 0
M  V30 19526 H 1773.4 -2.38397 2.20448 0
M  V30 19527 H 1774.41 -0.183797 5.17574 0
M  V30 19528 H 1771.09 -2.1911 3.55383 0
M  V30 19529 H 1772.48 0.332479 6.71077 0
M  V30 19530 N 1775.2 -1.57593 0.0150662 0
M  V30 19531 C 1776.16 -2.08293 -0.956385 0
M  V30 19532 C 1777.16 -0.99521 -1.26302 0
M  V30 19533 O 1778.35 -1.25732 -1.2057 0
M  V30 19534 C 1775.48 -2.53702 -2.27701 0
M  V30 19535 H 1776.68 -2.95401 -0.517543 0
M  V30 19536 H 1774.23 -1.54558 -0.232706 0
M  V30 19537 H 1774.96 -1.69882 -2.76244 0
M  V30 19538 H 1774.75 -3.33155 -2.06761 0
M  V30 19539 H 1776.24 -2.93201 -2.9736 0
M  V30 19540 N 1776.68 0.257904 -1.55475 0
M  V30 19541 C 1777.61 1.34176 -1.85821 0
M  V30 19542 C 1778.62 1.44821 -0.743696 0
M  V30 19543 O 1779.81 1.46367 -1.02171 0
M  V30 19544 C 1776.91 2.72151 -2.01958 0
M  V30 19545 C 1776.08 2.83911 -3.32736 0
M  V30 19546 C 1775.14 4.02659 -3.38751 0
M  V30 19547 O 1774.17 3.92705 -4.12034 0
M  V30 19548 N 1775.37 5.15325 -2.67245 0
M  V30 19549 H 1778.14 1.08483 -2.79377 0
M  V30 19550 H 1775.7 0.448017 -1.55578 0
M  V30 19551 H 1777.69 3.4991 -2.03335 0
M  V30 19552 H 1776.26 2.906 -1.15198 0
M  V30 19553 H 1775.48 1.92915 -3.43769 0
M  V30 19554 H 1776.77 2.88709 -4.18956 0
M  V30 19555 H 1776.16 5.26303 -2.07418 0
M  V30 19556 H 1774.72 5.91259 -2.74328 0
M  V30 19557 N 1778.15 1.48666 0.52309 0
M  V30 19558 C 1779.12 1.63211 1.60919 0
M  V30 19559 C 1780.12 0.505012 1.52664 0
M  V30 19560 O 1781.31 0.770967 1.56211 0
M  V30 19561 C 1778.44 1.60878 3.00551 0
M  V30 19562 H 1779.63 2.60061 1.4936 0
M  V30 19563 H 1777.19 1.37366 0.745674 0
M  V30 19564 H 1777.92 0.655306 3.1761 0
M  V30 19565 H 1777.71 2.4271 3.07952 0
M  V30 19566 H 1779.2 1.74263 3.79502 0
M  V30 19567 N 1779.63 -0.772489 1.37369 0
M  V30 19568 C 1780.88 -1.53329 1.32733 0
M  V30 19569 C 1781.21 -1.93999 -0.0882815 0
M  V30 19570 O 1780.49 -1.64014 -1.04545 0
M  V30 19571 C 1780.77 -2.79885 2.26575 0
M  V30 19572 C 1780.62 -2.45474 3.76912 0
M  V30 19573 C 1781.94 -3.81812 2.18878 0
M  V30 19574 H 1779.06 -0.55625 0.483482 0
M  V30 19575 H 1781.7 -0.886251 1.68064 0
M  V30 19576 H 1779.85 -3.35097 1.96576 0
M  V30 19577 H 1781.52 -1.96182 4.17505 0
M  V30 19578 H 1779.77 -1.78181 3.95517 0
M  V30 19579 H 1780.44 -3.35937 4.38007 0
M  V30 19580 H 1782.91 -3.36091 2.4532 0
M  V30 19581 H 1781.79 -4.68087 2.86681 0
M  V30 19582 H 1782.05 -4.26021 1.18146 0
M  V30 19583 N 1781.11 -1.21927 -0.998575 0
M  V30 19584 C 1782.02 -1.00049 -2.12197 0
M  V30 19585 C 1783.04 0.0494414 -1.7393 0
M  V30 19586 O 1784.21 -0.142033 -2.00899 0
M  V30 19587 C 1781.28 -0.574871 -3.41901 0
M  V30 19588 C 1780.34 -1.69776 -3.94303 0
M  V30 19589 C 1779.57 -1.29236 -5.17816 0
M  V30 19590 O 1779.79 -0.168709 -5.7015 0
M  V30 19591 O 1778.73 -2.10671 -5.63827 0
M  V30 19592 H 1782.55 -1.94154 -2.33534 0
M  V30 19593 H 1780.14 -1.00472 -1.10571 0
M  V30 19594 H 1782.02 -0.347603 -4.19964 0
M  V30 19595 H 1780.7 0.337389 -3.21937 0
M  V30 19596 H 1779.6 -1.9795 -3.17438 0
M  V30 19597 H 1780.94 -2.58768 -4.18688 0
M  V30 19598 N 1782.59 1.19452 -1.02805 0
M  V30 19599 C 1783.5 2.2631 -0.618147 0
M  V30 19600 C 1784.51 1.70449 0.349712 0
M  V30 19601 O 1785.69 2.00325 0.207801 0
M  V30 19602 C 1782.76 3.46691 0.0255242 0
M  V30 19603 C 1781.82 4.17735 -0.98973 0
M  V30 19604 C 1781.05 5.32369 -0.376681 0
M  V30 19605 O 1781.27 5.64467 0.820584 0
M  V30 19606 O 1780.21 5.9178 -1.09911 0
M  V30 19607 H 1784.03 2.63611 -1.50807 0
M  V30 19608 H 1781.62 1.2629 -0.798192 0
M  V30 19609 H 1783.5 4.19643 0.384464 0
M  V30 19610 H 1782.17 3.1124 0.889467 0
M  V30 19611 H 1781.08 3.46906 -1.40024 0
M  V30 19612 H 1782.41 4.57155 -1.82402 0
M  V30 19613 N 1784.07 0.805805 1.35442 0
M  V30 19614 C 1785 0.230077 2.32364 0
M  V30 19615 C 1785.98 -0.644034 1.57436 0
M  V30 19616 O 1787.16 -0.574467 1.85509 0
M  V30 19617 C 1784.29 -0.622814 3.4167 0
M  V30 19618 C 1783.25 0.152739 4.27727 0
M  V30 19619 C 1782.57 -0.821803 5.28347 0
M  V30 19620 C 1783.87 1.35128 5.04517 0
M  V30 19621 H 1785.57 1.03983 2.80763 0
M  V30 19622 H 1783.11 0.501467 1.34986 0
M  V30 19623 H 1785.07 -1.03564 4.08476 0
M  V30 19624 H 1783.79 -1.46544 2.91877 0
M  V30 19625 H 1782.45 0.546732 3.625 0
M  V30 19626 H 1782.1 -1.65991 4.74822 0
M  V30 19627 H 1781.8 -0.307209 5.86796 0
M  V30 19628 H 1783.32 -1.23285 5.98024 0
M  V30 19629 H 1784.73 1.01337 5.64273 0
M  V30 19630 H 1783.13 1.80031 5.72459 0
M  V30 19631 H 1784.2 2.13833 4.35205 0
M  V30 19632 N 1785.54 -1.47344 0.559239 0
M  V30 19633 C 1786.77 -2.0686 0.0408612 0
M  V30 19634 C 1787.19 -1.4116 -1.25376 0
M  V30 19635 O 1786.54 -0.508814 -1.75264 0
M  V30 19636 C 1786.6 -3.61162 -0.156298 0
M  V30 19637 O 1786.32 -4.24399 1.08706 0
M  V30 19638 C 1787.82 -4.37549 -0.711725 0
M  V30 19639 H 1785.04 -0.669368 0.0467647 0
M  V30 19640 H 1787.58 -1.89318 0.773229 0
M  V30 19641 H 1785.74 -3.7821 -0.838802 0
M  V30 19642 H 1786.15 -5.16961 0.886072 0
M  V30 19643 H 1787.62 -5.46187 -0.798961 0
M  V30 19644 H 1788.1 -4.03972 -1.72346 0
M  V30 19645 H 1788.71 -4.25251 -0.0648534 0
M  V30 19646 N 1787.02 -0.295795 -1.54799 0
M  V30 19647 C 1787.93 0.592206 -2.27002 0
M  V30 19648 C 1788.95 1.1528 -1.30332 0
M  V30 19649 O 1790.12 1.1787 -1.63305 0
M  V30 19650 C 1787.19 1.75027 -2.99277 0
M  V30 19651 C 1786.25 1.22427 -4.11473 0
M  V30 19652 C 1785.48 2.32714 -4.80291 0
M  V30 19653 O 1785.71 3.52506 -4.48437 0
M  V30 19654 O 1784.64 1.997 -5.67806 0
M  V30 19655 H 1788.47 0.00666048 -3.03699 0
M  V30 19656 H 1786.05 -0.0624413 -1.49269 0
M  V30 19657 H 1787.93 2.42508 -3.44627 0
M  V30 19658 H 1786.61 2.32252 -2.25479 0
M  V30 19659 H 1785.52 0.515337 -3.70534 0
M  V30 19660 H 1786.85 0.697518 -4.87233 0
M  V30 19661 N 1788.5 1.57583 -0.0234236 0
M  V30 19662 C 1789.43 2.06766 0.988961 0
M  V30 19663 C 1790.45 0.98998 1.29241 0
M  V30 19664 O 1791.64 1.2663 1.25806 0
M  V30 19665 C 1788.74 2.47244 2.31784 0
M  V30 19666 C 1787.91 3.78023 2.20039 0
M  V30 19667 C 1786.97 4.05113 3.35812 0
M  V30 19668 O 1785.99 4.75447 3.12952 0
M  V30 19669 N 1787.2 3.5484 4.59422 0
M  V30 19670 H 1789.96 2.94242 0.569355 0
M  V30 19671 H 1787.52 1.61073 0.163461 0
M  V30 19672 H 1789.51 2.62463 3.08051 0
M  V30 19673 H 1788.08 1.65163 2.65405 0
M  V30 19674 H 1787.3 3.72656 1.28534 0
M  V30 19675 H 1788.59 4.63717 2.09389 0
M  V30 19676 H 1787.99 2.97928 4.8089 0
M  V30 19677 H 1786.55 3.75348 5.32877 0
M  V30 19678 N 1789.98 -0.249655 1.5561 0
M  V30 19679 C 1790.91 -1.31281 1.931 0
M  V30 19680 C 1791.89 -1.50347 0.795601 0
M  V30 19681 O 1793.08 -1.63001 1.05566 0
M  V30 19682 C 1790.21 -2.66808 2.2233 0
M  V30 19683 C 1789.16 -2.62441 3.38096 0
M  V30 19684 C 1788.49 -4.01738 3.52861 0
M  V30 19685 C 1789.79 -2.19667 4.7386 0
M  V30 19686 H 1791.48 -1.00151 2.82153 0
M  V30 19687 H 1789.03 -0.480331 1.35753 0
M  V30 19688 H 1790.98 -3.41316 2.47146 0
M  V30 19689 H 1789.7 -2.99569 1.30101 0
M  V30 19690 H 1788.36 -1.90391 3.13284 0
M  V30 19691 H 1788.01 -4.31759 2.58056 0
M  V30 19692 H 1787.71 -3.99705 4.30708 0
M  V30 19693 H 1789.23 -4.7795 3.79995 0
M  V30 19694 H 1790.65 -2.83906 4.98067 0
M  V30 19695 H 1789.04 -2.28751 5.54791 0
M  V30 19696 H 1790.11 -1.14829 4.71108 0
M  V30 19697 N 1791.46 -1.48941 -0.515198 0
M  V30 19698 C 1792.37 -1.67271 -1.64492 0
M  V30 19699 C 1793.38 -0.555222 -1.64904 0
M  V30 19700 O 1794.56 -0.828161 -1.83585 0
M  V30 19701 C 1791.62 -1.722 -3.00912 0
M  V30 19702 C 1790.69 -2.95683 -3.11239 0
M  V30 19703 C 1789.92 -3.00368 -4.41152 0
M  V30 19704 O 1790.14 -2.13041 -5.29122 0
M  V30 19705 O 1789.08 -3.92691 -4.56155 0
M  V30 19706 H 1792.9 -2.62947 -1.51962 0
M  V30 19707 H 1790.49 -1.32515 -0.68993 0
M  V30 19708 H 1792.37 -1.77877 -3.82018 0
M  V30 19709 H 1791.04 -0.796995 -3.13735 0
M  V30 19710 H 1789.95 -2.95531 -2.29374 0
M  V30 19711 H 1791.28 -3.87617 -3.03338 0
M  V30 19712 N 1792.94 0.765193 -1.37777 0
M  V30 19713 C 1793.87 1.888 -1.29951 0
M  V30 19714 C 1794.88 1.61387 -0.213996 0
M  V30 19715 O 1796.07 1.72183 -0.470657 0
M  V30 19716 C 1793.17 3.24178 -0.988004 0
M  V30 19717 C 1792.34 3.79186 -2.18029 0
M  V30 19718 C 1791.4 4.93054 -1.83804 0
M  V30 19719 O 1790.43 5.08296 -2.56172 0
M  V30 19720 N 1791.63 5.75153 -0.786062 0
M  V30 19721 H 1794.39 1.96028 -2.267 0
M  V30 19722 H 1791.96 0.944602 -1.31487 0
M  V30 19723 H 1793.95 3.97881 -0.739771 0
M  V30 19724 H 1792.52 3.1241 -0.108852 0
M  V30 19725 H 1791.74 2.97185 -2.58988 0
M  V30 19726 H 1793.03 4.12669 -2.97627 0
M  V30 19727 H 1792.42 5.65395 -0.185678 0
M  V30 19728 H 1790.98 6.49054 -0.597697 0
M  V30 19729 N 1794.41 1.22455 0.992094 0
M  V30 19730 C 1795.66 1.0496 1.73175 0
M  V30 19731 C 1795.99 -0.41518 1.90017 0
M  V30 19732 O 1795.24 -1.32408 1.44107 0
M  V30 19733 C 1795.54 1.70683 3.1401 0
M  V30 19734 C 1795.21 3.20579 3.1708 0
M  V30 19735 C 1793.87 3.6148 3.17626 0
M  V30 19736 C 1796.22 4.16519 3.13308 0
M  V30 19737 C 1793.55 4.968 3.121 0
M  V30 19738 C 1795.9 5.51816 3.09324 0
M  V30 19739 C 1794.57 5.92096 3.08185 0
M  V30 19740 H 1793.84 0.384075 0.633694 0
M  V30 19741 H 1796.48 1.52228 1.16184 0
M  V30 19742 H 1794.79 1.15742 3.74314 0
M  V30 19743 H 1796.49 1.54636 3.69985 0
M  V30 19744 H 1793.08 2.88012 3.17406 0
M  V30 19745 H 1797.26 3.85937 3.12036 0
M  V30 19746 H 1792.52 5.27238 3.09564 0
M  V30 19747 H 1796.69 6.25882 3.0536 0
M  V30 19748 H 1794.32 6.96919 3.03658 0
M  V30 19749 N 1795.89 -1.18905 1.03437 0
M  V30 19750 C 1796.84 -2.22318 0.619933 0
M  V30 19751 C 1797.81 -1.61948 -0.369056 0
M  V30 19752 O 1798.99 -1.88958 -0.26447 0
M  V30 19753 C 1796.13 -3.45096 -0.0174579 0
M  V30 19754 C 1795.25 -4.19829 1.01823 0
M  V30 19755 C 1794.38 -5.30046 0.350026 0
M  V30 19756 C 1793.42 -5.96543 1.37125 0
M  V30 19757 N 1792.56 -6.98311 0.728458 0
M  V30 19758 H 1797.4 -2.57125 1.50634 0
M  V30 19759 H 1794.93 -1.26324 0.753695 0
M  V30 19760 H 1796.89 -4.15236 -0.404294 0
M  V30 19761 H 1795.52 -3.10927 -0.867412 0
M  V30 19762 H 1794.57 -3.48578 1.52308 0
M  V30 19763 H 1795.89 -4.65415 1.79416 0
M  V30 19764 H 1795.04 -6.06631 -0.0913585 0
M  V30 19765 H 1793.78 -4.85544 -0.458049 0
M  V30 19766 H 1792.78 -5.18703 1.82284 0
M  V30 19767 H 1794.01 -6.43127 2.18091 0
M  V30 19768 H 1791.96 -6.55973 -0.0594251 0
M  V30 19769 H 1791.87 -7.42117 1.44218 0
M  V30 19770 H 1793.14 -7.78878 0.311259 0
M  V30 19771 N 1797.37 -0.812977 -1.35013 0
M  V30 19772 C 1798.79 -0.497497 -1.51648 0
M  V30 19773 C 1798.99 0.980162 -1.76054 0
M  V30 19774 O 1798.04 1.76498 -1.80567 0
M  V30 19775 C 1799.35 -1.3484 -2.68772 0
M  V30 19776 C 1800.9 -1.3445 -2.82652 0
M  V30 19777 C 1801.38 -2.17966 -4.02808 0
M  V30 19778 N 1802.87 -2.15537 -4.09998 0
M  V30 19779 C 1803.6 -2.76912 -5.02103 0
M  V30 19780 N 1803.1 -3.47239 -5.99497 0
M  V30 19781 N 1804.89 -2.66519 -4.94898 0
M  V30 19782 H 1797.04 -1.76987 -1.17429 0
M  V30 19783 H 1799.31 -0.753654 -0.575073 0
M  V30 19784 H 1799.01 -2.39732 -2.57336 0
M  V30 19785 H 1798.89 -1.0061 -3.63535 0
M  V30 19786 H 1801.27 -0.303409 -2.93536 0
M  V30 19787 H 1801.35 -1.72671 -1.88728 0
M  V30 19788 H 1801 -3.2212 -3.92685 0
M  V30 19789 H 1800.93 -1.77102 -4.95926 0
M  V30 19790 H 1803.42 -1.64373 -3.40279 0
M  V30 19791 H 1803.73 -3.91341 -6.66387 0
M  V30 19792 H 1802.08 -3.51344 -5.99652 0
M  V30 19793 H 1805.27 -2.1116 -4.17767 0
M  V30 19794 H 1805.44 -3.14639 -5.66486 0
M  V30 19795 N 1798.85 1.47045 -0.567045 0
M  V30 19796 C 1799.81 2.28607 0.164758 0
M  V30 19797 C 1800.81 1.37509 0.833542 0
M  V30 19798 O 1802 1.60043 0.687895 0
M  V30 19799 C 1799.13 3.17466 1.24211 0
M  V30 19800 H 1800.33 2.9478 -0.551814 0
M  V30 19801 H 1797.88 1.52897 -0.324376 0
M  V30 19802 H 1798.61 2.56006 1.99076 0
M  V30 19803 H 1798.4 3.8452 0.767243 0
M  V30 19804 H 1799.89 3.78894 1.75582 0
M  V30 19805 N 1800.33 0.304 1.5464 0
M  V30 19806 C 1801.27 -0.570762 2.23631 0
M  V30 19807 C 1802.24 -1.1272 1.21998 0
M  V30 19808 O 1803.43 -1.17117 1.50626 0
M  V30 19809 C 1800.57 -1.73533 2.98296 0
M  V30 19810 C 1799.68 -1.21 4.14708 0
M  V30 19811 C 1798.82 -2.33867 4.76948 0
M  V30 19812 C 1797.85 -1.78483 5.855 0
M  V30 19813 N 1796.99 -2.84935 6.41682 0
M  V30 19814 H 1801.83 0.024168 2.9799 0
M  V30 19815 H 1799.37 0.023697 1.47081 0
M  V30 19816 H 1801.33 -2.42031 3.39819 0
M  V30 19817 H 1799.96 -2.30184 2.26308 0
M  V30 19818 H 1799.01 -0.41718 3.78105 0
M  V30 19819 H 1800.32 -0.764576 4.92905 0
M  V30 19820 H 1799.47 -3.10306 5.21339 0
M  V30 19821 H 1798.21 -2.81737 3.9809 0
M  V30 19822 H 1797.22 -1.00534 5.4053 0
M  V30 19823 H 1798.44 -1.31513 6.66244 0
M  V30 19824 H 1796.39 -3.32133 5.65706 0
M  V30 19825 H 1796.31 -2.44898 7.15235 0
M  V30 19826 H 1797.57 -3.61263 6.90731 0
M  V30 19827 N 1801.8 -1.57568 0.0317802 0
M  V30 19828 C 1802.77 -2.09296 -0.934239 0
M  V30 19829 C 1803.77 -1.00855 -1.25239 0
M  V30 19830 O 1804.96 -1.27004 -1.19229 0
M  V30 19831 C 1802.09 -2.56103 -2.24998 0
M  V30 19832 H 1803.28 -2.95933 -0.486183 0
M  V30 19833 H 1800.83 -1.54796 -0.2163 0
M  V30 19834 H 1801.57 -1.72803 -2.74426 0
M  V30 19835 H 1801.35 -3.35329 -2.03216 0
M  V30 19836 H 1802.84 -2.96339 -2.94233 0
M  V30 19837 N 1803.28 0.241399 -1.5574 0
M  V30 19838 C 1804.23 1.31868 -1.91608 0
M  V30 19839 C 1805.22 1.49545 -0.795774 0
M  V30 19840 O 1806.43 1.50955 -0.980442 0
M  V30 19841 H 1802.81 0.441685 -0.60862 0
M  V30 19842 H 1804.78 0.98887 -2.81538 0
M  V30 19843 C 1803.53 2.66602 -2.23201 0
M  V30 19844 H 1802.85 2.53802 -3.08909 0
M  V30 19845 H 1804.29 3.40842 -2.52196 0
M  V30 19846 C 1802.75 3.20112 -1.05024 0
M  V30 19847 O 1803.28 4.0057 -0.301069 0
M  V30 19848 N 1801.48 2.78214 -0.839381 0
M  V30 19849 H 1801.03 2.12894 -1.4503 0
M  V30 19850 H 1800.99 3.1436 -0.050362 0
M  V30 19851 N 1804.76 1.49212 0.507292 0
M  V30 19852 C 1805.69 1.68326 1.61829 0
M  V30 19853 C 1806.67 0.531969 1.61568 0
M  V30 19854 O 1807.86 0.767104 1.78407 0
M  V30 19855 C 1804.99 1.74394 3.0034 0
M  V30 19856 C 1803.94 2.89251 3.15465 0
M  V30 19857 C 1803.27 2.80426 4.55264 0
M  V30 19858 C 1804.57 4.30269 2.96085 0
M  V30 19859 H 1806.26 2.6134 1.46087 0
M  V30 19860 H 1803.81 1.25765 0.701367 0
M  V30 19861 H 1805.76 1.86353 3.77956 0
M  V30 19862 H 1804.48 0.779748 3.17155 0
M  V30 19863 H 1803.14 2.76884 2.40272 0
M  V30 19864 H 1802.79 1.81928 4.68947 0
M  V30 19865 H 1802.49 3.57511 4.66326 0
M  V30 19866 H 1804.01 2.94384 5.34949 0
M  V30 19867 H 1805.43 4.4335 3.63475 0
M  V30 19868 H 1803.83 5.08527 3.18623 0
M  V30 19869 H 1804.9 4.45151 1.92272 0
M  V30 19870 N 1806.24 -0.757876 1.38181 0
M  V30 19871 C 1807.52 -1.50715 1.24677 0
M  V30 19872 C 1807.9 -2.1054 -0.153689 0
M  V30 19873 O 1807.24 -1.96703 -1.16276 0
M  V30 19874 C 1807.45 -2.57695 2.3536 0
M  V30 19875 C 1808.8 -3.24716 2.73578 0
M  V30 19876 O 1809.83 -2.67997 2.3464 0
M  V30 19877 O 1808.68 -4.27294 3.40709 0
M  V30 19878 H 1805.78 -0.668175 0.487311 0
M  V30 19879 H 1808.32 -0.793653 1.49997 0
M  V30 19880 H 1807.1 -2.11706 3.29084 0
M  V30 19881 H 1806.72 -3.36629 2.11581 0
M  V30 19882 N 1807.72 -1.22979 -0.985586 0
M  V30 19883 C 1808.66 -1.00637 -2.07704 0
M  V30 19884 C 1809.63 0.0744076 -1.65933 0
M  V30 19885 O 1810.82 -0.0766583 -1.90646 0
M  V30 19886 C 1807.96 -0.598088 -3.39878 0
M  V30 19887 C 1807.07 -1.75043 -3.94948 0
M  V30 19888 C 1806.21 -1.28943 -5.15313 0
M  V30 19889 C 1805.25 -2.41285 -5.62537 0
M  V30 19890 N 1804.38 -1.9618 -6.74135 0
M  V30 19891 H 1809.22 -1.94063 -2.26149 0
M  V30 19892 H 1806.76 -0.966841 -1.10863 0
M  V30 19893 H 1808.72 -0.342503 -4.15792 0
M  V30 19894 H 1807.35 0.299167 -3.21411 0
M  V30 19895 H 1806.4 -2.12015 -3.15838 0
M  V30 19896 H 1807.71 -2.5952 -4.25971 0
M  V30 19897 H 1806.87 -0.99166 -5.98541 0
M  V30 19898 H 1805.6 -0.41496 -4.85931 0
M  V30 19899 H 1804.61 -2.71842 -4.77893 0
M  V30 19900 H 1805.83 -3.2926 -5.9394 0
M  V30 19901 H 1803.78 -1.11105 -6.46523 0
M  V30 19902 H 1803.7 -2.74219 -7.04514 0
M  V30 19903 H 1804.97 -1.69492 -7.6085 0
M  V30 19904 N 1809.19 1.18355 -1.04066 0
M  V30 19905 C 1810.14 2.24033 -0.625447 0
M  V30 19906 C 1811.14 1.65792 0.347754 0
M  V30 19907 O 1812.34 1.78711 0.215045 0
M  V30 19908 H 1808.72 0.729132 -0.184039 0
M  V30 19909 H 1810.69 2.56362 -1.52712 0
M  V30 19910 C 1809.44 3.477 -0.00432692 0
M  V30 19911 H 1808.76 3.92812 -0.744237 0
M  V30 19912 H 1810.2 4.23268 0.24898 0
M  V30 19913 C 1808.66 3.13022 1.24574 0
M  V30 19914 O 1809.19 3.26759 2.33649 0
M  V30 19915 N 1807.4 2.67347 1.13902 0
M  V30 19916 H 1806.94 2.5637 0.251417 0
M  V30 19917 H 1806.9 2.44517 1.97633 0
M  V30 19918 N 1810.67 0.820125 1.3458 0
M  V30 19919 C 1811.62 0.237994 2.2957 0
M  V30 19920 C 1812.59 -0.635637 1.53456 0
M  V30 19921 O 1813.77 -0.57787 1.81839 0
M  V30 19922 C 1810.91 -0.596426 3.39907 0
M  V30 19923 C 1810.03 0.29914 4.30963 0
M  V30 19924 C 1809.16 -0.54458 5.28401 0
M  V30 19925 C 1808.2 0.350546 6.11095 0
M  V30 19926 N 1807.34 -0.453936 7.00631 0
M  V30 19927 H 1812.18 1.0534 2.7876 0
M  V30 19928 H 1809.72 0.530977 1.37183 0
M  V30 19929 H 1811.67 -1.0955 4.0256 0
M  V30 19930 H 1810.3 -1.37697 2.91958 0
M  V30 19931 H 1809.36 0.916412 3.69196 0
M  V30 19932 H 1810.67 0.987544 4.88926 0
M  V30 19933 H 1809.82 -1.10825 5.96492 0
M  V30 19934 H 1808.56 -1.2665 4.70968 0
M  V30 19935 H 1807.57 0.926375 5.41939 0
M  V30 19936 H 1808.79 1.07054 6.70609 0
M  V30 19937 H 1806.74 -1.15958 6.4567 0
M  V30 19938 H 1806.65 0.176138 7.55795 0
M  V30 19939 H 1807.92 -1.00044 7.73053 0
M  V30 19940 N 1812.15 -1.46743 0.574835 0
M  V30 19941 C 1813.08 -2.2832 -0.20062 0
M  V30 19942 C 1814.1 -1.3805 -0.862898 0
M  V30 19943 O 1815.28 -1.6272 -0.733785 0
M  V30 19944 C 1812.38 -3.1285 -1.303 0
M  V30 19945 C 1811.56 -4.31195 -0.734153 0
M  V30 19946 C 1810.62 -4.97183 -1.72324 0
M  V30 19947 O 1809.64 -5.55025 -1.26239 0
M  V30 19948 N 1810.84 -4.93476 -3.05714 0
M  V30 19949 H 1813.61 -2.95513 0.499231 0
M  V30 19950 H 1811.17 -1.56568 0.412077 0
M  V30 19951 H 1813.16 -3.53861 -1.96378 0
M  V30 19952 H 1811.73 -2.47784 -1.90583 0
M  V30 19953 H 1810.95 -3.94063 0.103888 0
M  V30 19954 H 1812.24 -5.07704 -0.333751 0
M  V30 19955 H 1811.64 -4.47715 -3.45786 0
M  V30 19956 H 1810.2 -5.38453 -3.67304 0
M  V30 19957 N 1813.63 -0.312197 -1.54477 0
M  V30 19958 C 1814.86 0.296061 -2.04771 0
M  V30 19959 C 1815.27 1.46662 -1.18894 0
M  V30 19960 O 1814.63 1.81205 -0.217043 0
M  V30 19961 C 1814.68 0.74151 -3.53813 0
M  V30 19962 O 1814.4 -0.382471 -4.36427 0
M  V30 19963 C 1815.9 1.41376 -4.20152 0
M  V30 19964 H 1813.12 0.062705 -0.668064 0
M  V30 19965 H 1815.67 -0.455083 -1.99372 0
M  V30 19966 H 1813.82 1.44265 -3.59536 0
M  V30 19967 H 1814.23 -0.0336382 -5.24489 0
M  V30 19968 H 1815.71 1.67649 -5.25926 0
M  V30 19969 H 1816.19 2.35743 -3.7057 0
M  V30 19970 H 1816.79 0.755498 -4.18536 0
M  V30 19971 N 1815.11 1.57549 -0.040136 0
M  V30 19972 C 1816.04 2.13912 0.936168 0
M  V30 19973 C 1817.02 1.05798 1.33194 0
M  V30 19974 O 1818.2 1.33685 1.40861 0
M  V30 19975 C 1815.33 2.67515 2.21479 0
M  V30 19976 C 1814.29 3.80513 1.95943 0
M  V30 19977 C 1813.61 4.20589 3.30165 0
M  V30 19978 C 1814.91 5.06124 1.28981 0
M  V30 19979 H 1816.61 2.9574 0.46674 0
M  V30 19980 H 1814.15 1.42262 0.223062 0
M  V30 19981 H 1816.11 3.05582 2.90168 0
M  V30 19982 H 1814.83 1.82864 2.70608 0
M  V30 19983 H 1813.49 3.42902 1.29669 0
M  V30 19984 H 1813.14 3.32904 3.77073 0
M  V30 19985 H 1812.84 4.96742 3.13881 0
M  V30 19986 H 1814.36 4.61248 4.00103 0
M  V30 19987 H 1815.77 5.41707 1.87687 0
M  V30 19988 H 1814.17 5.87347 1.2306 0
M  V30 19989 H 1815.24 4.84179 0.264286 0
M  V30 19990 N 1816.58 -0.233136 1.55866 0
M  V30 19991 C 1817.49 -1.31004 1.94615 0
M  V30 19992 C 1818.51 -1.51915 0.848399 0
M  V30 19993 O 1819.69 -1.6527 1.15098 0
M  V30 19994 C 1816.75 -2.64203 2.24494 0
M  V30 19995 C 1815.81 -2.51695 3.47776 0
M  V30 19996 C 1815.05 -3.78542 3.7622 0
M  V30 19997 O 1815.27 -4.81043 3.06519 0
M  V30 19998 O 1814.2 -3.76348 4.69729 0
M  V30 19999 H 1818.03 -1.01129 2.86368 0
M  V30 20000 H 1815.61 -0.435043 1.42926 0
M  V30 20001 H 1817.5 -3.42889 2.44959 0
M  V30 20002 H 1816.17 -2.93782 1.35918 0
M  V30 20003 H 1815.08 -1.71248 3.32603 0
M  V30 20004 H 1816.41 -2.27058 4.36698 0
M  V30 20005 N 1818.06 -1.49479 -0.499372 0
M  V30 20006 C 1819.01 -1.66268 -1.60073 0
M  V30 20007 C 1819.98 -0.504137 -1.58265 0
M  V30 20008 O 1821.17 -0.731358 -1.76227 0
M  V30 20009 C 1818.31 -1.73678 -2.98211 0
M  V30 20010 C 1817.42 -3.00848 -3.10023 0
M  V30 20011 C 1816.55 -2.99227 -4.38904 0
M  V30 20012 C 1815.59 -4.20969 -4.44355 0
M  V30 20013 N 1814.73 -4.17249 -5.64666 0
M  V30 20014 H 1819.57 -2.60308 -1.45065 0
M  V30 20015 H 1817.11 -1.29063 -0.705774 0
M  V30 20016 H 1819.06 -1.75956 -3.7828 0
M  V30 20017 H 1817.69 -0.831037 -3.11919 0
M  V30 20018 H 1816.75 -3.08175 -2.23008 0
M  V30 20019 H 1818.06 -3.90841 -3.09911 0
M  V30 20020 H 1817.21 -3.00076 -5.27294 0
M  V30 20021 H 1815.95 -2.07015 -4.41584 0
M  V30 20022 H 1814.96 -4.20362 -3.54366 0
M  V30 20023 H 1816.18 -5.14376 -4.4339 0
M  V30 20024 H 1814.13 -3.27875 -5.68185 0
M  V30 20025 H 1814.04 -5.00979 -5.66177 0
M  V30 20026 H 1815.31 -4.22203 -6.55259 0
M  V30 20027 N 1819.54 0.750537 -1.38581 0
M  V30 20028 C 1820.45 1.89503 -1.38296 0
M  V30 20029 C 1821.47 1.71738 -0.279678 0
M  V30 20030 O 1822.64 1.94608 -0.518607 0
M  V30 20031 C 1819.71 3.24909 -1.20976 0
M  V30 20032 C 1818.77 3.55178 -2.41136 0
M  V30 20033 C 1818 4.84124 -2.24633 0
M  V30 20034 O 1818.23 5.56722 -1.24164 0
M  V30 20035 O 1817.16 5.1394 -3.13288 0
M  V30 20036 H 1820.99 1.92698 -2.34737 0
M  V30 20037 H 1818.57 0.896233 -1.19533 0
M  V30 20038 H 1820.45 4.05858 -1.13389 0
M  V30 20039 H 1819.13 3.22519 -0.276217 0
M  V30 20040 H 1818.03 2.74378 -2.54298 0
M  V30 20041 H 1819.37 3.62332 -3.33131 0
M  V30 20042 N 1821.02 1.235 0.979051 0
M  V30 20043 C 1821.97 1.01485 2.09293 0
M  V30 20044 C 1822.96 -0.0465937 1.69336 0
M  V30 20045 O 1824.17 0.107021 1.79682 0
M  V30 20046 H 1820.54 0.311087 0.684638 0
M  V30 20047 H 1822.51 1.95972 2.25028 0
M  V30 20048 C 1821.26 0.624167 3.42052 0
M  V30 20049 H 1820.59 1.43265 3.73249 0
M  V30 20050 H 1822.03 0.509648 4.20926 0
M  V30 20051 C 1820.48 -0.667694 3.30217 0
M  V30 20052 O 1821.01 -1.71648 3.6318 0
M  V30 20053 N 1819.22 -0.644122 2.83372 0
M  V30 20054 H 1818.77 0.20969 2.56745 0
M  V30 20055 H 1818.73 -1.50872 2.75835 0
M  V30 20056 N 1822.5 -1.17802 1.04693 0
M  V30 20057 C 1823.46 -2.19854 0.647816 0
M  V30 20058 C 1824.46 -1.58013 -0.298081 0
M  V30 20059 O 1825.65 -1.74004 -0.0826309 0
M  V30 20060 C 1822.78 -3.40864 -0.0492661 0
M  V30 20061 H 1823.98 -2.56678 1.55101 0
M  V30 20062 H 1821.53 -1.31796 0.840215 0
M  V30 20063 H 1822.26 -3.0958 -0.965967 0
M  V30 20064 H 1822.05 -3.86995 0.630677 0
M  V30 20065 H 1823.54 -4.16412 -0.31479 0
M  V30 20066 N 1823.98 -0.827251 -1.34143 0
M  V30 20067 C 1825.25 -0.339793 -1.92626 0
M  V30 20068 C 1825.63 1.17342 -1.75482 0
M  V30 20069 O 1824.98 1.98251 -1.13616 0
M  V30 20070 C 1825.19 -0.773891 -3.40312 0
M  V30 20071 C 1826.54 -0.77521 -4.17463 0
M  V30 20072 O 1827.56 -0.716748 -3.48914 0
M  V30 20073 O 1826.42 -0.852347 -5.39812 0
M  V30 20074 H 1823.52 -0.0937486 -0.821669 0
M  V30 20075 H 1826.06 -0.91233 -1.4309 0
M  V30 20076 H 1824.83 -1.81597 -3.46609 0
M  V30 20077 H 1824.46 -0.177287 -3.97205 0
M  V30 20078 N 1825.45 1.46436 -0.582609 0
M  V30 20079 C 1826.38 2.33089 0.138477 0
M  V30 20080 C 1827.36 1.45339 0.883777 0
M  V30 20081 O 1828.55 1.74156 0.859257 0
M  V30 20082 C 1825.68 3.27611 1.15276 0
M  V30 20083 C 1824.63 4.24801 0.522308 0
M  V30 20084 C 1823.96 5.0883 1.64306 0
M  V30 20085 C 1825.26 5.19496 -0.540449 0
M  V30 20086 H 1826.95 2.93629 -0.585013 0
M  V30 20087 H 1824.5 1.41196 -0.282781 0
M  V30 20088 H 1826.45 3.87087 1.66558 0
M  V30 20089 H 1825.18 2.65177 1.90653 0
M  V30 20090 H 1823.84 3.66587 0.0305728 0
M  V30 20091 H 1823.48 4.42782 2.38649 0
M  V30 20092 H 1823.18 5.74649 1.22686 0
M  V30 20093 H 1824.71 5.7117 2.15864 0
M  V30 20094 H 1826.12 5.73189 -0.112706 0
M  V30 20095 H 1824.52 5.93658 -0.876957 0
M  V30 20096 H 1825.59 4.63434 -1.42677 0
M  V30 20097 N 1826.93 0.320385 1.54309 0
M  V30 20098 C 1827.89 -0.534308 2.22885 0
M  V30 20099 C 1828.89 -1.04605 1.22124 0
M  V30 20100 O 1830.08 -0.938988 1.46726 0
M  V30 20101 C 1827.22 -1.74181 2.93042 0
M  V30 20102 H 1828.41 0.0651232 2.99829 0
M  V30 20103 H 1825.96 0.0714303 1.56137 0
M  V30 20104 H 1826.7 -2.38056 2.20227 0
M  V30 20105 H 1826.48 -1.38231 3.66926 0
M  V30 20106 H 1827.97 -2.34857 3.45299 0
M  V30 20107 N 1828.41 -1.57525 0.0484906 0
M  V30 20108 C 1829.66 -1.92204 -0.624654 0
M  V30 20109 C 1829.98 -0.927289 -1.71541 0
M  V30 20110 O 1829.25 0.0282687 -1.9588 0
M  V30 20111 H 1827.83 -0.709494 -0.233724 0
M  V30 20112 H 1830.49 -1.94639 0.100861 0
M  V30 20113 H 1829.59 -2.93368 -1.06498 0
M  V30 20114 N 1829.89 0.224867 -1.55988 0
M  V30 20115 C 1830.8 1.2997 -1.95307 0
M  V30 20116 C 1831.81 1.51463 -0.856444 0
M  V30 20117 O 1832.99 1.64658 -1.15973 0
M  V30 20118 C 1830.05 2.63009 -2.25892 0
M  V30 20119 C 1829.12 2.49847 -3.49106 0
M  V30 20120 C 1828.35 3.76541 -3.78223 0
M  V30 20121 O 1828.57 4.7941 -3.09066 0
M  V30 20122 O 1827.51 3.73852 -4.71718 0
M  V30 20123 H 1831.33 0.996093 -2.869 0
M  V30 20124 H 1828.92 0.427457 -1.43154 0
M  V30 20125 H 1830.8 3.41586 -2.46774 0
M  V30 20126 H 1829.47 2.93057 -1.37474 0
M  V30 20127 H 1828.38 1.69482 -3.33507 0
M  V30 20128 H 1829.71 2.24739 -4.37896 0
M  V30 20129 N 1831.37 1.49742 0.491438 0
M  V30 20130 C 1832.3 1.70033 1.60034 0
M  V30 20131 C 1833.28 0.549076 1.60994 0
M  V30 20132 O 1834.46 0.785983 1.77584 0
M  V30 20133 C 1831.59 1.7757 2.98473 0
M  V30 20134 C 1830.55 2.9258 3.12379 0
M  V30 20135 C 1829.87 2.85239 4.52264 0
M  V30 20136 C 1831.17 4.33385 2.91504 0
M  V30 20137 H 1832.87 2.62875 1.43307 0
M  V30 20138 H 1830.41 1.26502 0.687989 0
M  V30 20139 H 1832.36 1.90351 3.75958 0
M  V30 20140 H 1831.09 0.813343 3.1631 0
M  V30 20141 H 1829.75 2.79417 2.37322 0
M  V30 20142 H 1829.4 1.86892 4.66991 0
M  V30 20143 H 1829.1 3.62437 4.62508 0
M  V30 20144 H 1830.62 3.00041 5.31797 0
M  V30 20145 H 1832.03 4.4718 3.58752 0
M  V30 20146 H 1830.43 5.11878 3.13211 0
M  V30 20147 H 1831.5 4.47166 1.87539 0
M  V30 20148 N 1832.84 -0.743177 1.38977 0
M  V30 20149 C 1834.26 -1.04764 1.20402 0
M  V30 20150 C 1834.46 -2.01411 0.0599139 0
M  V30 20151 O 1833.52 -2.45485 -0.591026 0
M  V30 20152 C 1834.83 -1.61775 2.53474 0
M  V30 20153 C 1836.38 -1.73896 2.60248 0
M  V30 20154 C 1836.85 -2.34318 3.93522 0
M  V30 20155 N 1838.34 -2.41737 3.95117 0
M  V30 20156 C 1839.08 -2.89407 4.95006 0
M  V30 20157 N 1838.57 -3.37034 6.05293 0
M  V30 20158 N 1840.37 -2.88542 4.8239 0
M  V30 20159 H 1832.52 -0.102036 2.12155 0
M  V30 20160 H 1834.78 -0.107893 0.94184 0
M  V30 20161 H 1834.49 -0.982274 3.37704 0
M  V30 20162 H 1834.36 -2.60696 2.72612 0
M  V30 20163 H 1836.75 -2.36568 1.76407 0
M  V30 20164 H 1836.83 -0.736509 2.44968 0
M  V30 20165 H 1836.47 -1.72276 4.7779 0
M  V30 20166 H 1836.4 -3.35224 4.06119 0
M  V30 20167 H 1838.89 -2.08064 3.15464 0
M  V30 20168 H 1839.21 -3.71895 6.77432 0
M  V30 20169 H 1837.55 -3.35064 6.08898 0
M  V30 20170 H 1840.74 -2.50651 3.95337 0
M  V30 20171 H 1840.92 -3.25379 5.60386 0
M  V30 20172 N 1834.32 -1.24018 -0.972487 0
M  V30 20173 C 1835.57 -1.07861 -1.71738 0
M  V30 20174 C 1835.9 0.382399 -1.90398 0
M  V30 20175 O 1835.18 1.2828 -1.462 0
M  V30 20176 C 1835.46 -1.81357 -3.11098 0
M  V30 20177 C 1835.31 -3.35179 -2.99959 0
M  V30 20178 C 1836.63 -1.58242 -4.10667 0
M  V30 20179 H 1833.75 -0.393228 -0.623331 0
M  V30 20180 H 1836.39 -1.52625 -1.13162 0
M  V30 20181 H 1834.54 -1.43307 -3.61103 0
M  V30 20182 H 1836.21 -3.82798 -2.57416 0
M  V30 20183 H 1834.46 -3.63805 -2.3628 0
M  V30 20184 H 1835.13 -3.818 -3.98664 0
M  V30 20185 H 1837.6 -1.91332 -3.69501 0
M  V30 20186 H 1836.48 -2.1213 -5.06253 0
M  V30 20187 H 1836.74 -0.519567 -4.39036 0
M  V30 20188 N 1835.8 1.17245 -1.05316 0
M  V30 20189 C 1836.73 2.23491 -0.67631 0
M  V30 20190 C 1837.71 1.66937 0.326507 0
M  V30 20191 O 1838.9 1.93127 0.203823 0
M  V30 20192 C 1836.03 3.47262 -0.0515755 0
M  V30 20193 C 1834.98 4.16646 -0.97929 0
M  V30 20194 C 1834.31 5.34254 -0.218369 0
M  V30 20195 C 1835.61 4.68736 -2.30399 0
M  V30 20196 H 1837.3 2.55269 -1.56455 0
M  V30 20197 H 1834.85 1.22699 -0.753714 0
M  V30 20198 H 1836.8 4.20805 0.223865 0
M  V30 20199 H 1835.52 3.14755 0.871614 0
M  V30 20200 H 1834.18 3.45017 -1.23931 0
M  V30 20201 H 1833.83 4.97998 0.707624 0
M  V30 20202 H 1833.53 5.81615 -0.83654 0
M  V30 20203 H 1835.05 6.1058 0.0497574 0
M  V30 20204 H 1836.47 5.3391 -2.08837 0
M  V30 20205 H 1834.87 5.2668 -2.87625 0
M  V30 20206 H 1835.94 3.85477 -2.94169 0
M  V30 20207 N 1837.28 0.834353 1.33702 0
M  V30 20208 C 1838.53 0.427042 1.97537 0
M  V30 20209 C 1838.85 -1.01607 1.66436 0
M  V30 20210 O 1838.12 -1.70711 0.960958 0
M  V30 20211 H 1836.7 0.154921 0.730759 0
M  V30 20212 H 1839.36 1.06632 1.63143 0
M  V30 20213 H 1838.46 0.555396 3.07118 0
M  V30 20214 N 1838.76 -1.46125 0.590367 0
M  V30 20215 C 1839.69 -2.2852 -0.176393 0
M  V30 20216 C 1840.7 -1.38958 -0.848208 0
M  V30 20217 O 1841.89 -1.63489 -0.716485 0
M  V30 20218 C 1838.99 -3.14214 -1.26974 0
M  V30 20219 C 1838.16 -4.31949 -0.688377 0
M  V30 20220 C 1837.22 -4.98983 -1.67041 0
M  V30 20221 O 1836.25 -5.56332 -1.20345 0
M  V30 20222 N 1837.45 -4.96691 -3.00463 0
M  V30 20223 H 1840.22 -2.94967 0.530546 0
M  V30 20224 H 1837.78 -1.56122 0.42866 0
M  V30 20225 H 1839.77 -3.55924 -1.92614 0
M  V30 20226 H 1838.34 -2.49792 -1.87944 0
M  V30 20227 H 1837.56 -3.93931 0.145677 0
M  V30 20228 H 1838.85 -5.0803 -0.279884 0
M  V30 20229 H 1838.24 -4.51357 -3.41018 0
M  V30 20230 H 1836.8 -5.42318 -3.61572 0
M  V30 20231 N 1840.23 -0.328564 -1.54137 0
M  V30 20232 C 1841.2 0.52248 -2.23165 0
M  V30 20233 C 1842.2 1.03956 -1.22677 0
M  V30 20234 O 1843.39 0.931193 -1.47222 0
M  V30 20235 C 1840.52 1.72624 -2.93962 0
M  V30 20236 H 1841.71 -0.081023 -2.99791 0
M  V30 20237 H 1839.27 -0.0797096 -1.56097 0
M  V30 20238 H 1840 2.36885 -2.21486 0
M  V30 20239 H 1839.79 1.36283 -3.67654 0
M  V30 20240 H 1841.28 2.33023 -3.4654 0
M  V30 20241 N 1841.71 1.57497 -0.0568439 0
M  V30 20242 C 1842.66 2.11862 0.915593 0
M  V30 20243 C 1843.63 1.02738 1.30515 0
M  V30 20244 O 1844.81 1.30318 1.39362 0
M  V30 20245 C 1841.95 2.67269 2.18315 0
M  V30 20246 C 1841.07 3.90498 1.84757 0
M  V30 20247 C 1840.2 4.342 3.06013 0
M  V30 20248 C 1839.24 5.50115 2.68403 0
M  V30 20249 N 1838.38 5.88844 3.8237 0
M  V30 20250 H 1843.22 2.94657 0.445101 0
M  V30 20251 H 1840.76 1.45621 0.20807 0
M  V30 20252 H 1842.71 2.97494 2.92494 0
M  V30 20253 H 1841.34 1.87262 2.62931 0
M  V30 20254 H 1840.4 3.66828 1.00703 0
M  V30 20255 H 1841.71 4.7473 1.53077 0
M  V30 20256 H 1840.86 4.66008 3.88486 0
M  V30 20257 H 1839.6 3.4879 3.40876 0
M  V30 20258 H 1838.61 5.17973 1.84348 0
M  V30 20259 H 1839.83 6.37244 2.34726 0
M  V30 20260 H 1837.78 5.06387 4.17024 0
M  V30 20261 H 1837.69 6.67781 3.54407 0
M  V30 20262 H 1838.96 6.25269 4.65466 0
M  V30 20263 N 1843.19 -0.216591 1.56105 0
M  V30 20264 C 1844.12 -1.29202 1.89313 0
M  V30 20265 C 1845.14 -1.42798 0.781832 0
M  V30 20266 O 1846.32 -1.43607 1.06016 0
M  V30 20267 C 1843.42 -2.66701 2.09102 0
M  V30 20268 C 1842.6 -2.74989 3.40147 0
M  V30 20269 C 1841.66 -3.93536 3.49308 0
M  V30 20270 O 1840.68 -3.81642 4.22301 0
M  V30 20271 N 1841.88 -5.08059 2.80814 0
M  V30 20272 H 1844.65 -1.01038 2.82155 0
M  V30 20273 H 1842.21 -0.406611 1.56711 0
M  V30 20274 H 1844.2 -3.44396 2.12541 0
M  V30 20275 H 1842.77 -2.87443 1.22862 0
M  V30 20276 H 1841.99 -1.83733 3.48763 0
M  V30 20277 H 1843.28 -2.775 4.26464 0
M  V30 20278 H 1842.68 -5.20618 2.21299 0
M  V30 20279 H 1841.24 -5.83778 2.89908 0
M  V30 20280 N 1844.67 -1.5 -0.48349 0
M  V30 20281 C 1845.58 -1.70722 -1.60907 0
M  V30 20282 C 1846.59 -0.590075 -1.63689 0
M  V30 20283 O 1847.77 -0.866915 -1.81787 0
M  V30 20284 C 1844.84 -1.78544 -2.97192 0
M  V30 20285 C 1843.9 -3.02218 -3.04898 0
M  V30 20286 C 1843.13 -3.09658 -4.34681 0
M  V30 20287 O 1843.35 -2.24216 -5.24484 0
M  V30 20288 O 1842.29 -4.02278 -4.47723 0
M  V30 20289 H 1846.11 -2.66111 -1.4635 0
M  V30 20290 H 1843.7 -1.33949 -0.661666 0
M  V30 20291 H 1845.58 -1.85941 -3.78159 0
M  V30 20292 H 1844.25 -0.863364 -3.11974 0
M  V30 20293 H 1843.16 -3.00329 -2.23054 0
M  V30 20294 H 1844.49 -3.93964 -2.95048 0
M  V30 20295 N 1846.15 0.735796 -1.39369 0
M  V30 20296 C 1847.39 1.49756 -1.36752 0
M  V30 20297 C 1847.73 1.94165 0.036815 0
M  V30 20298 O 1847 1.66728 1.00159 0
M  V30 20299 C 1847.28 2.73779 -2.33916 0
M  V30 20300 C 1847.14 2.35394 -3.83288 0
M  V30 20301 C 1848.46 3.75875 -2.28924 0
M  V30 20302 H 1845.57 0.543236 -0.49806 0
M  V30 20303 H 1848.22 0.841381 -1.70355 0
M  V30 20304 H 1846.37 3.29768 -2.05391 0
M  V30 20305 H 1848.04 1.85043 -4.2256 0
M  V30 20306 H 1846.28 1.67632 -4.00102 0
M  V30 20307 H 1846.95 3.24206 -4.4676 0
M  V30 20308 H 1849.43 3.29469 -2.54144 0
M  V30 20309 H 1848.3 4.60321 -2.98991 0
M  V30 20310 H 1848.57 4.22739 -1.29399 0
M  V30 20311 N 1847.63 1.24532 0.965897 0
M  V30 20312 C 1848.54 1.0564 2.09469 0
M  V30 20313 C 1849.55 -0.00330962 1.74 0
M  V30 20314 O 1850.73 0.195248 2.00451 0
M  V30 20315 C 1847.79 0.665318 3.40256 0
M  V30 20316 C 1846.85 1.80171 3.89663 0
M  V30 20317 C 1846.09 1.42919 5.14208 0
M  V30 20318 O 1846.31 0.319815 5.69503 0
M  V30 20319 O 1845.24 2.25546 5.58044 0
M  V30 20320 H 1849.07 2.00277 2.28304 0
M  V30 20321 H 1846.65 1.03368 1.07868 0
M  V30 20322 H 1848.54 0.458827 4.18895 0
M  V30 20323 H 1847.21 -0.251914 3.22718 0
M  V30 20324 H 1846.12 2.06296 3.12078 0
M  V30 20325 H 1847.45 2.69778 4.11681 0
M  V30 20326 N 1849.1 -1.16685 1.05936 0
M  V30 20327 C 1850.05 -2.18921 0.636999 0
M  V30 20328 C 1851.04 -1.5747 -0.330447 0
M  V30 20329 O 1852.23 -1.76393 -0.146469 0
M  V30 20330 C 1849.36 -3.43293 0.0211274 0
M  V30 20331 C 1848.44 -4.11828 1.01285 0
M  V30 20332 N 1848.84 -4.5607 2.18709 0
M  V30 20333 C 1847.13 -4.37961 0.842986 0
M  V30 20334 C 1847.83 -5.09046 2.81509 0
M  V30 20335 N 1846.81 -5.01709 2.09259 0
M  V30 20336 H 1850.61 -2.5084 1.53155 0
M  V30 20337 H 1848.13 -1.33096 0.930542 0
M  V30 20338 H 1850.12 -4.15824 -0.299267 0
M  V30 20339 H 1848.78 -3.12863 -0.868723 0
M  V30 20340 H 1849.79 -4.49918 2.56504 0
M  V30 20341 H 1846.47 -4.175 0.00481897 0
M  V30 20342 H 1847.86 -5.53344 3.81131 0
M  V30 20343 N 1850.58 -0.841432 -1.33258 0
M  V30 20344 C 1851.53 -0.274487 -2.29162 0
M  V30 20345 C 1852.5 0.611143 -1.54448 0
M  V30 20346 O 1853.68 0.548868 -1.82735 0
M  V30 20347 C 1850.82 0.542275 -3.40813 0
M  V30 20348 C 1849.94 -0.367664 -4.30433 0
M  V30 20349 C 1849.07 0.460447 -5.29201 0
M  V30 20350 C 1848.11 -0.447722 -6.1046 0
M  V30 20351 N 1847.25 0.342415 -7.01265 0
M  V30 20352 H 1852.09 -1.09762 -2.77049 0
M  V30 20353 H 1849.62 -0.552735 -1.3632 0
M  V30 20354 H 1851.58 1.03132 -4.04252 0
M  V30 20355 H 1850.21 1.33035 -2.94111 0
M  V30 20356 H 1849.26 -0.975032 -3.67692 0
M  V30 20357 H 1850.58 -1.0652 -4.87293 0
M  V30 20358 H 1849.73 1.01321 -5.9818 0
M  V30 20359 H 1848.47 1.19141 -4.72924 0
M  V30 20360 H 1847.47 -1.01248 -5.40397 0
M  V30 20361 H 1848.7 -1.17709 -6.68821 0
M  V30 20362 H 1846.65 1.05671 -6.47433 0
M  V30 20363 H 1846.56 -0.296356 -7.55419 0
M  V30 20364 H 1847.83 0.877331 -7.74547 0
M  V30 20365 N 1852.06 1.4581 -0.598108 0
M  V30 20366 C 1853.01 2.30454 0.126261 0
M  V30 20367 C 1853.98 1.41541 0.869221 0
M  V30 20368 O 1855.16 1.70478 0.856841 0
M  V30 20369 C 1852.3 3.26285 1.12393 0
M  V30 20370 C 1851.41 4.303 0.382824 0
M  V30 20371 C 1850.55 5.13246 1.36937 0
M  V30 20372 C 1849.59 6.08997 0.615545 0
M  V30 20373 N 1848.73 6.84756 1.55091 0
M  V30 20374 H 1853.57 2.91865 -0.601573 0
M  V30 20375 H 1851.1 1.43829 -0.308467 0
M  V30 20376 H 1853.06 3.80303 1.71539 0
M  V30 20377 H 1851.69 2.66649 1.81929 0
M  V30 20378 H 1850.74 3.79018 -0.323962 0
M  V30 20379 H 1852.05 4.98375 -0.205781 0
M  V30 20380 H 1851.21 5.71618 2.03318 0
M  V30 20381 H 1849.95 4.45168 1.99191 0
M  V30 20382 H 1848.95 5.49765 -0.0619441 0
M  V30 20383 H 1850.18 6.791 -0.00181251 0
M  V30 20384 H 1848.12 6.19375 2.16127 0
M  V30 20385 H 1848.04 7.49149 1.0155 0
M  V30 20386 H 1849.31 7.47675 2.20458 0
M  V30 20387 N 1853.54 0.336733 1.53961 0
M  V30 20388 C 1854.48 -0.523198 2.24792 0
M  V30 20389 C 1855.45 -1.10107 1.24361 0
M  V30 20390 O 1856.64 -1.13895 1.53077 0
M  V30 20391 C 1853.78 -1.67166 3.0191 0
M  V30 20392 C 1852.89 -1.12176 4.17182 0
M  V30 20393 C 1852.03 -2.23697 4.81802 0
M  V30 20394 C 1851.07 -1.66023 5.89154 0
M  V30 20395 N 1850.2 -2.7126 6.47582 0
M  V30 20396 H 1855.04 0.0873707 2.97872 0
M  V30 20397 H 1852.58 0.0548897 1.46998 0
M  V30 20398 H 1854.54 -2.34768 3.44876 0
M  V30 20399 H 1853.17 -2.25332 2.31139 0
M  V30 20400 H 1852.22 -0.336885 3.78905 0
M  V30 20401 H 1853.53 -0.659852 4.94416 0
M  V30 20402 H 1852.69 -2.99178 5.27804 0
M  V30 20403 H 1851.43 -2.7323 4.03976 0
M  V30 20404 H 1850.43 -0.890457 5.42541 0
M  V30 20405 H 1851.66 -1.17352 6.68884 0
M  V30 20406 H 1849.6 -3.20059 5.72624 0
M  V30 20407 H 1849.52 -2.29671 7.20269 0
M  V30 20408 H 1850.79 -3.4653 6.98239 0
M  V30 20409 N 1855.02 -1.57465 0.0651956 0
M  V30 20410 C 1855.96 -2.12345 -0.904345 0
M  V30 20411 C 1856.93 -1.03429 -1.29968 0
M  V30 20412 O 1858.12 -1.31055 -1.38669 0
M  V30 20413 C 1855.26 -2.68423 -2.16895 0
M  V30 20414 C 1854.37 -3.91472 -1.82684 0
M  V30 20415 C 1853.51 -4.35816 -3.03706 0
M  V30 20416 C 1852.54 -5.5153 -2.65482 0
M  V30 20417 N 1851.68 -5.90863 -3.79242 0
M  V30 20418 H 1856.52 -2.94889 -0.429468 0
M  V30 20419 H 1854.06 -1.45729 -0.200344 0
M  V30 20420 H 1856.02 -2.99041 -2.90913 0
M  V30 20421 H 1854.65 -1.88654 -2.61934 0
M  V30 20422 H 1853.7 -3.67357 -0.987564 0
M  V30 20423 H 1855.01 -4.75536 -1.50557 0
M  V30 20424 H 1854.16 -4.68062 -3.86009 0
M  V30 20425 H 1852.9 -3.50593 -3.39022 0
M  V30 20426 H 1851.91 -5.18943 -1.81598 0
M  V30 20427 H 1853.13 -6.3848 -2.31343 0
M  V30 20428 H 1851.08 -5.08591 -4.14332 0
M  V30 20429 H 1851 -6.69651 -3.50861 0
M  V30 20430 H 1852.26 -6.27729 -4.62144 0
M  V30 20431 N 1856.49 0.20831 -1.56217 0
M  V30 20432 C 1857.42 1.26115 -1.96513 0
M  V30 20433 C 1858.4 1.48185 -0.835183 0
M  V30 20434 O 1859.59 1.60145 -1.09851 0
M  V30 20435 C 1856.72 2.6082 -2.29326 0
M  V30 20436 C 1855.67 2.53385 -3.44935 0
M  V30 20437 C 1855 3.92241 -3.63388 0
M  V30 20438 C 1856.3 2.07026 -4.79518 0
M  V30 20439 H 1857.99 0.92635 -2.84709 0
M  V30 20440 H 1855.54 0.444169 -1.36979 0
M  V30 20441 H 1857.49 3.34644 -2.56109 0
M  V30 20442 H 1856.22 2.96014 -1.37997 0
M  V30 20443 H 1854.88 1.82018 -3.18222 0
M  V30 20444 H 1854.52 4.24766 -2.69413 0
M  V30 20445 H 1854.22 3.88145 -4.41154 0
M  V30 20446 H 1855.75 4.67707 -3.92533 0
M  V30 20447 H 1857.16 2.70601 -5.05419 0
M  V30 20448 H 1855.56 2.13961 -5.60661 0
M  V30 20449 H 1856.63 1.02298 -4.73986 0
M  V30 20450 N 1857.97 1.50255 0.475528 0
M  V30 20451 C 1858.88 1.71573 1.6 0
M  V30 20452 C 1859.9 0.598748 1.63374 0
M  V30 20453 O 1861.07 0.876544 1.81325 0
M  V30 20454 C 1858.14 1.80117 2.96241 0
M  V30 20455 C 1857.2 3.03831 3.03291 0
M  V30 20456 C 1856.43 3.11958 4.33033 0
M  V30 20457 O 1856.66 2.26995 5.23287 0
M  V30 20458 O 1855.59 4.04647 4.45583 0
M  V30 20459 H 1859.42 2.66884 1.44937 0
M  V30 20460 H 1857 1.34298 0.654553 0
M  V30 20461 H 1858.88 1.87943 3.77167 0
M  V30 20462 H 1857.56 0.879896 3.11512 0
M  V30 20463 H 1856.46 3.01508 2.21458 0
M  V30 20464 H 1857.8 3.95523 2.92955 0
M  V30 20465 N 1859.45 -0.728395 1.39758 0
M  V30 20466 C 1860.41 -1.82415 1.38772 0
M  V30 20467 C 1861.41 -1.58278 0.283678 0
M  V30 20468 O 1862.6 -1.65556 0.541927 0
M  V30 20469 C 1859.73 -3.20309 1.16684 0
M  V30 20470 H 1860.93 -1.8469 2.36283 0
M  V30 20471 H 1858.48 -0.932729 1.25419 0
M  V30 20472 H 1859.22 -3.2369 0.198817 0
M  V30 20473 H 1859 -3.39226 1.96643 0
M  V30 20474 H 1860.49 -4.0036 1.18751 0
M  V30 20475 N 1860.93 -1.25042 -0.959279 0
M  V30 20476 C 1861.86 -1.00807 -2.05841 0
M  V30 20477 C 1862.87 0.0253938 -1.6278 0
M  V30 20478 O 1864.06 -0.212625 -1.77229 0
M  V30 20479 C 1861.16 -0.501088 -3.35175 0
M  V30 20480 C 1860.33 -1.59964 -4.071 0
M  V30 20481 C 1859.39 -1.09383 -5.14705 0
M  V30 20482 O 1858.42 -1.78728 -5.40412 0
M  V30 20483 N 1859.62 0.0673296 -5.80461 0
M  V30 20484 H 1862.39 -1.95446 -2.27203 0
M  V30 20485 H 1859.95 -1.16185 -1.1275 0
M  V30 20486 H 1861.94 -0.147283 -4.04432 0
M  V30 20487 H 1860.51 0.351241 -3.1062 0
M  V30 20488 H 1859.73 -2.12524 -3.32005 0
M  V30 20489 H 1861.02 -2.3378 -4.51912 0
M  V30 20490 H 1860.42 0.646867 -5.61989 0
M  V30 20491 H 1858.97 0.362206 -6.50793 0
M  V30 20492 N 1862.41 1.16121 -1.06553 0
M  V30 20493 C 1863.65 1.86991 -0.784989 0
M  V30 20494 C 1863.99 1.81645 0.686919 0
M  V30 20495 O 1863.26 1.23394 1.50347 0
M  V30 20496 C 1863.54 3.36448 -1.28355 0
M  V30 20497 C 1863.4 3.5047 -2.81941 0
M  V30 20498 C 1864.72 4.30933 -0.893561 0
M  V30 20499 H 1861.83 0.678978 -0.286633 0
M  V30 20500 H 1864.48 1.36475 -1.32192 0
M  V30 20501 H 1862.63 3.796 -0.826796 0
M  V30 20502 H 1864.3 3.16237 -3.35845 0
M  V30 20503 H 1862.54 2.92294 -3.20541 0
M  V30 20504 H 1863.21 4.55443 -3.11891 0
M  V30 20505 H 1865.69 3.95696 -1.287 0
M  V30 20506 H 1864.56 5.3401 -1.26984 0
M  V30 20507 H 1864.83 4.41642 0.201274 0
M  V30 20508 N 1863.88 0.848487 1.3281 0
M  V30 20509 C 1864.82 0.245947 2.27877 0
M  V30 20510 C 1865.83 -0.578811 1.52163 0
M  V30 20511 O 1867.02 -0.404308 1.73861 0
M  V30 20512 C 1864.12 -0.671584 3.32179 0
M  V30 20513 C 1863.29 0.115958 4.37246 0
M  V30 20514 C 1862.35 -0.726387 5.21162 0
M  V30 20515 O 1861.38 -0.162121 5.68969 0
M  V30 20516 N 1862.58 -2.04216 5.43393 0
M  V30 20517 H 1865.34 1.06281 2.80222 0
M  V30 20518 H 1862.9 0.707872 1.45605 0
M  V30 20519 H 1864.9 -1.2403 3.85225 0
M  V30 20520 H 1863.47 -1.38914 2.80039 0
M  V30 20521 H 1862.69 0.866084 3.84568 0
M  V30 20522 H 1863.97 0.657126 5.04539 0
M  V30 20523 H 1863.37 -2.52401 5.06271 0
M  V30 20524 H 1861.93 -2.55914 5.99459 0
M  V30 20525 N 1865.36 -1.4549 0.605832 0
M  V30 20526 C 1866.27 -2.34313 -0.115915 0
M  V30 20527 C 1867.29 -1.51136 -0.862199 0
M  V30 20528 O 1868.46 -1.83943 -0.820181 0
M  V30 20529 C 1865.53 -3.28724 -1.10188 0
M  V30 20530 C 1864.59 -4.27807 -0.357749 0
M  V30 20531 C 1863.82 -5.17707 -1.29675 0
M  V30 20532 O 1864.05 -5.10999 -2.53448 0
M  V30 20533 O 1862.98 -5.9663 -0.794767 0
M  V30 20534 H 1866.81 -2.97429 0.613981 0
M  V30 20535 H 1864.39 -1.44845 0.366103 0
M  V30 20536 H 1866.27 -3.86905 -1.6698 0
M  V30 20537 H 1864.95 -2.68175 -1.81284 0
M  V30 20538 H 1863.86 -3.73246 0.252588 0
M  V30 20539 H 1865.19 -4.91206 0.312682 0
M  V30 20540 N 1866.84 -0.344893 -1.5378 0
M  V30 20541 C 1867.77 0.503579 -2.28005 0
M  V30 20542 C 1868.75 1.10149 -1.29619 0
M  V30 20543 O 1869.94 1.12263 -1.58463 0
M  V30 20544 C 1867.07 1.65398 -3.05386 0
M  V30 20545 C 1866.02 1.18434 -4.11288 0
M  V30 20546 C 1865.35 2.42336 -4.76631 0
M  V30 20547 C 1866.65 0.283853 -5.21528 0
M  V30 20548 H 1868.34 -0.115619 -2.99177 0
M  V30 20549 H 1865.89 -0.0570472 -1.43887 0
M  V30 20550 H 1867.84 2.25401 -3.56051 0
M  V30 20551 H 1866.56 2.3001 -2.31869 0
M  V30 20552 H 1865.22 0.607115 -3.61538 0
M  V30 20553 H 1864.87 3.05358 -3.99707 0
M  V30 20554 H 1864.57 2.11594 -5.4818 0
M  V30 20555 H 1866.09 3.03063 -5.3008 0
M  V30 20556 H 1867.51 0.790766 -5.6782 0
M  V30 20557 H 1865.91 0.0682509 -6.00061 0
M  V30 20558 H 1866.98 -0.679653 -4.80113 0
M  V30 20559 N 1868.32 1.57428 -0.0735454 0
M  V30 20560 C 1869.25 2.09808 0.922679 0
M  V30 20561 C 1870.26 1.0306 1.26026 0
M  V30 20562 O 1871.45 1.30568 1.21714 0
M  V30 20563 C 1868.55 2.54492 2.23801 0
M  V30 20564 C 1867.73 3.84832 2.07901 0
M  V30 20565 C 1866.78 4.15592 3.22754 0
M  V30 20566 O 1865.81 4.85163 2.97667 0
M  V30 20567 N 1867.01 3.69277 4.47901 0
M  V30 20568 H 1869.78 2.95905 0.475456 0
M  V30 20569 H 1867.34 1.61511 0.112135 0
M  V30 20570 H 1869.33 2.7213 2.99545 0
M  V30 20571 H 1867.9 1.73523 2.60016 0
M  V30 20572 H 1867.12 3.76557 1.16614 0
M  V30 20573 H 1868.41 4.70144 1.9453 0
M  V30 20574 H 1867.81 3.13076 4.71168 0
M  V30 20575 H 1866.36 3.92111 5.20665 0
M  V30 20576 N 1869.8 -0.200022 1.56326 0
M  V30 20577 C 1871.02 -0.941617 1.84793 0
M  V30 20578 C 1871.45 -1.76271 0.656525 0
M  V30 20579 O 1870.8 -1.76951 -0.394703 0
M  V30 20580 C 1870.85 -1.81754 3.11445 0
M  V30 20581 O 1869.96 -2.91571 2.91651 0
M  V30 20582 H 1869.3 -0.265444 0.608634 0
M  V30 20583 H 1871.83 -0.206826 2.03552 0
M  V30 20584 H 1871.84 -2.22316 3.4211 0
M  V30 20585 H 1870.51 -1.2142 3.97781 0
M  V30 20586 H 1869.09 -2.54799 2.72271 0
M  V30 20587 N 1871.27 -1.50505 -0.467553 0
M  V30 20588 C 1872.22 -1.69626 -1.56511 0
M  V30 20589 C 1873.19 -0.537594 -1.5716 0
M  V30 20590 O 1874.38 -0.768574 -1.74636 0
M  V30 20591 C 1871.52 -1.79965 -2.9446 0
M  V30 20592 C 1870.63 -3.07356 -3.03572 0
M  V30 20593 C 1869.76 -3.08469 -4.32458 0
M  V30 20594 C 1868.8 -4.303 -4.35326 0
M  V30 20595 N 1867.94 -4.29132 -5.55689 0
M  V30 20596 H 1872.78 -2.63326 -1.39511 0
M  V30 20597 H 1870.32 -1.30531 -0.678239 0
M  V30 20598 H 1872.28 -1.8394 -3.74462 0
M  V30 20599 H 1870.91 -0.897013 -3.10086 0
M  V30 20600 H 1869.96 -3.12836 -2.16421 0
M  V30 20601 H 1871.27 -3.97327 -3.01551 0
M  V30 20602 H 1870.42 -3.11193 -5.20811 0
M  V30 20603 H 1869.16 -2.16335 -4.37093 0
M  V30 20604 H 1868.17 -4.27784 -3.4537 0
M  V30 20605 H 1869.39 -5.23665 -4.3238 0
M  V30 20606 H 1867.34 -3.39853 -5.61102 0
M  V30 20607 H 1867.26 -5.12875 -5.55423 0
M  V30 20608 H 1868.52 -4.36007 -6.46156 0
M  V30 20609 N 1872.75 0.720973 -1.40142 0
M  V30 20610 C 1873.99 1.49327 -1.39573 0
M  V30 20611 C 1874.36 1.91999 0.00451559 0
M  V30 20612 O 1875.56 2.68459 0.135289 0
M  V30 20613 C 1873.83 2.69014 -2.35301 0
M  V30 20614 S 1875.39 3.58489 -2.53043 0
M  V30 20615 H 1872.21 0.510609 -0.494773 0
M  V30 20616 H 1874.81 0.843571 -1.76364 0
M  V30 20617 H 1873.51 2.35827 -3.35878 0
M  V30 20618 H 1873.04 3.389 -1.99775 0
M  V30 20619 H 1875.06 4.6322 -1.77882 0
M  V30 20620 N 1874.23 1.25549 0.952634 0
M  V30 20621 C 1875.46 1.13262 1.73743 0
M  V30 20622 C 1875.88 -0.309507 1.85536 0
M  V30 20623 O 1875.24 -1.22422 1.33726 0
M  V30 20624 C 1875.29 1.79395 3.12809 0
M  V30 20625 O 1874.39 1.07496 3.98144 0
M  V30 20626 H 1873.73 0.395314 0.5335 0
M  V30 20627 H 1876.26 1.66151 1.19394 0
M  V30 20628 H 1876.27 1.85761 3.63259 0
M  V30 20629 H 1874.95 2.84316 3.03542 0
M  V30 20630 H 1873.52 1.09025 3.56606 0
M  V30 20631 N 1875.71 -1.15554 1.07168 0
M  V30 20632 C 1876.99 -1.8238 0.706884 0
M  V30 20633 C 1877.37 -1.94906 -0.810848 0
M  V30 20634 O 1876.71 -1.49905 -1.72455 0
M  V30 20635 C 1876.92 -3.18844 1.41913 0
M  V30 20636 C 1878.27 -3.94506 1.57004 0
M  V30 20637 O 1879.3 -3.28392 1.37976 0
M  V30 20638 O 1878.15 -5.13036 1.88297 0
M  V30 20639 H 1875.25 -0.787892 0.251307 0
M  V30 20640 H 1877.79 -1.22681 1.17249 0
M  V30 20641 H 1876.57 -3.04814 2.45365 0
M  V30 20642 H 1876.19 -3.86227 0.944182 0
M  V30 20643 N 1877.19 -0.855519 -1.32358 0
M  V30 20644 C 1878.44 -0.458415 -1.96832 0
M  V30 20645 C 1878.76 0.98946 -1.68032 0
M  V30 20646 O 1878.03 1.69161 -0.987995 0
M  V30 20647 H 1876.61 -0.166527 -0.728202 0
M  V30 20648 H 1879.27 -1.09214 -1.61426 0
M  V30 20649 H 1878.36 -0.604185 -3.06196 0
M  V30 20650 N 1878.67 1.45167 -0.61354 0
M  V30 20651 C 1879.58 2.34372 0.103487 0
M  V30 20652 C 1880.59 1.51591 0.854172 0
M  V30 20653 O 1881.77 1.84375 0.810414 0
M  V30 20654 C 1878.83 3.29304 1.08443 0
M  V30 20655 C 1877.89 4.2799 0.335056 0
M  V30 20656 C 1877.13 5.18387 1.26928 0
M  V30 20657 O 1877.35 5.12336 2.50734 0
M  V30 20658 O 1876.28 5.97043 0.763115 0
M  V30 20659 H 1880.11 2.97099 -0.629746 0
M  V30 20660 H 1877.69 1.44649 -0.373779 0
M  V30 20661 H 1879.58 3.87785 1.64926 0
M  V30 20662 H 1878.25 2.69133 1.79859 0
M  V30 20663 H 1877.16 3.73107 -0.272378 0
M  V30 20664 H 1878.49 4.91033 -0.338727 0
M  V30 20665 N 1880.14 0.353044 1.53595 0
M  V30 20666 C 1881.56 0.0014839 1.596 0
M  V30 20667 C 1881.76 -1.47884 1.36867 0
M  V30 20668 O 1880.82 -2.23881 1.16762 0
M  V30 20669 C 1882.13 0.446178 2.97371 0
M  V30 20670 C 1883.68 0.399329 3.10442 0
M  V30 20671 C 1884.15 0.819639 4.50606 0
M  V30 20672 N 1885.64 0.7742 4.56684 0
M  V30 20673 C 1886.38 1.07126 5.63304 0
M  V30 20674 N 1885.87 1.43696 6.77734 0
M  V30 20675 N 1887.67 0.994874 5.53226 0
M  V30 20676 H 1879.82 1.31719 1.66625 0
M  V30 20677 H 1882.08 0.537571 0.780847 0
M  V30 20678 H 1881.79 1.47869 3.19105 0
M  V30 20679 H 1881.66 -0.173715 3.768 0
M  V30 20680 H 1884.05 -0.624023 2.88427 0
M  V30 20681 H 1884.13 1.05455 2.33051 0
M  V30 20682 H 1883.77 1.84105 4.73358 0
M  V30 20683 H 1883.7 0.141795 5.26409 0
M  V30 20684 H 1886.19 0.504609 3.74516 0
M  V30 20685 H 1886.51 1.64822 7.55019 0
M  V30 20686 H 1884.85 1.4755 6.79157 0
M  V30 20687 H 1888.04 0.70845 4.62708 0
M  V30 20688 H 1888.22 1.22972 6.36225 0
M  V30 20689 N 1881.62 -1.57387 0.0818932 0
M  V30 20690 C 1882.58 -2.12162 -0.86718 0
M  V30 20691 C 1883.58 -1.04788 -1.21967 0
M  V30 20692 O 1884.77 -1.30733 -1.15128 0
M  V30 20693 C 1881.91 -2.63132 -2.16736 0
M  V30 20694 H 1883.1 -2.9733 -0.391788 0
M  V30 20695 H 1880.65 -1.55406 -0.166944 0
M  V30 20696 H 1881.39 -1.81446 -2.6879 0
M  V30 20697 H 1881.17 -3.41625 -1.92445 0
M  V30 20698 H 1882.66 -3.05549 -2.84657 0
M  V30 20699 N 1883.1 0.191729 -1.56429 0
M  V30 20700 C 1884.52 0.542701 -1.5009 0
M  V30 20701 C 1884.72 1.85685 -0.782522 0
M  V30 20702 O 1883.77 2.50275 -0.334432 0
M  V30 20703 C 1885.08 0.594326 -2.94768 0
M  V30 20704 C 1886.63 0.682929 -3.05459 0
M  V30 20705 C 1887.11 0.765634 -4.51555 0
M  V30 20706 N 1888.6 0.829072 -4.5572 0
M  V30 20707 C 1889.33 0.91329 -5.6608 0
M  V30 20708 N 1888.83 0.959603 -6.86122 0
M  V30 20709 N 1890.62 0.950739 -5.54001 0
M  V30 20710 H 1882.77 -0.670241 -2.01548 0
M  V30 20711 H 1885.04 -0.239168 -0.917335 0
M  V30 20712 H 1884.74 -0.302238 -3.50399 0
M  V30 20713 H 1884.62 1.44787 -3.48305 0
M  V30 20714 H 1887 1.56992 -2.49875 0
M  V30 20715 H 1887.08 -0.19688 -2.55041 0
M  V30 20716 H 1886.73 -0.117022 -5.07765 0
M  V30 20717 H 1886.66 1.66129 -4.99709 0
M  V30 20718 H 1889.15 0.802391 -3.69283 0
M  V30 20719 H 1889.46 1.02447 -7.65979 0
M  V30 20720 H 1887.81 0.928223 -6.88774 0
M  V30 20721 H 1891 0.911418 -4.59141 0
M  V30 20722 H 1891.17 1.01291 -6.40034 0
M  V30 20723 N 1884.58 1.50751 0.459565 0
M  V30 20724 C 1885.54 1.69889 1.53852 0
M  V30 20725 C 1886.54 0.569308 1.50385 0
M  V30 20726 O 1887.73 0.836527 1.528 0
M  V30 20727 C 1884.86 1.73481 2.93457 0
M  V30 20728 H 1886.06 2.66162 1.38195 0
M  V30 20729 H 1883.61 1.40405 0.686741 0
M  V30 20730 H 1884.34 0.789426 3.14545 0
M  V30 20731 H 1884.13 2.55553 2.97381 0
M  V30 20732 H 1885.62 1.90202 3.7177 0
M  V30 20733 N 1886.06 -0.713531 1.40522 0
M  V30 20734 C 1886.97 -1.8577 1.43272 0
M  V30 20735 C 1887.98 -1.70936 0.325113 0
M  V30 20736 O 1889.16 -1.93165 0.570022 0
M  V30 20737 C 1886.22 -3.21587 1.29548 0
M  V30 20738 C 1885.28 -3.4866 2.50469 0
M  V30 20739 C 1884.52 -4.77998 2.3739 0
M  V30 20740 O 1884.74 -5.53234 1.38881 0
M  V30 20741 O 1883.67 -5.05453 3.26804 0
M  V30 20742 H 1887.5 -1.86406 2.39763 0
M  V30 20743 H 1885.08 -0.864226 1.21867 0
M  V30 20744 H 1886.97 -4.02709 1.2411 0
M  V30 20745 H 1885.64 -3.21674 0.36163 0
M  V30 20746 H 1884.55 -2.67539 2.61483 0
M  V30 20747 H 1885.88 -3.53372 3.42621 0
M  V30 20748 N 1887.53 -1.26053 -0.945962 0
M  V30 20749 C 1888.46 -1.09687 -2.06134 0
M  V30 20750 C 1889.44 -0.00341513 -1.701 0
M  V30 20751 O 1890.63 -0.174559 -1.93414 0
M  V30 20752 C 1887.76 -0.724007 -3.3967 0
M  V30 20753 C 1886.71 -1.76866 -3.89747 0
M  V30 20754 C 1886.04 -1.25025 -5.19878 0
M  V30 20755 C 1887.34 -3.16923 -4.15159 0
M  V30 20756 H 1889.03 -2.02986 -2.20084 0
M  V30 20757 H 1886.58 -0.977346 -1.05754 0
M  V30 20758 H 1888.53 -0.596411 -4.17158 0
M  V30 20759 H 1887.26 0.244695 -3.25682 0
M  V30 20760 H 1885.92 -1.88485 -3.14435 0
M  V30 20761 H 1885.56 -0.271527 -5.02267 0
M  V30 20762 H 1885.26 -1.94853 -5.54352 0
M  V30 20763 H 1886.79 -1.13523 -5.99954 0
M  V30 20764 H 1888.2 -3.08409 -4.83277 0
M  V30 20765 H 1886.6 -3.84299 -4.60906 0
M  V30 20766 H 1887.67 -3.63337 -3.21114 0
M  V30 20767 N 1889.01 1.14984 -1.07779 0
M  V30 20768 C 1889.96 2.2193 -0.696405 0
M  V30 20769 C 1890.95 1.66815 0.294832 0
M  V30 20770 O 1892.16 1.79305 0.158081 0
M  V30 20771 H 1888.53 0.722908 -0.207143 0
M  V30 20772 H 1890.51 2.51374 -1.60791 0
M  V30 20773 C 1889.25 3.4751 -0.114943 0
M  V30 20774 H 1888.58 3.90245 -0.86883 0
M  V30 20775 H 1890.02 4.23846 0.114195 0
M  V30 20776 C 1888.48 3.16827 1.14552 0
M  V30 20777 O 1889.01 3.34026 2.23135 0
M  V30 20778 N 1887.21 2.70836 1.05339 0
M  V30 20779 H 1886.76 2.5704 0.169728 0
M  V30 20780 H 1886.72 2.50681 1.89754 0
M  V30 20781 N 1890.49 0.862526 1.31902 0
M  V30 20782 C 1891.77 0.390745 1.91657 0
M  V30 20783 C 1892.15 -1.12648 1.78532 0
M  V30 20784 O 1891.49 -1.95169 1.18833 0
M  V30 20785 C 1891.7 0.863847 3.3814 0
M  V30 20786 C 1893.05 0.885621 4.15261 0
M  V30 20787 O 1894.08 0.809005 3.46891 0
M  V30 20788 O 1892.94 0.995169 5.37363 0
M  V30 20789 H 1890.03 0.115501 0.818895 0
M  V30 20790 H 1892.58 0.949947 1.4062 0
M  V30 20791 H 1891.35 1.90723 3.41673 0
M  V30 20792 H 1890.97 0.282536 3.96595 0
M  V30 20793 N 1891.97 -1.4484 0.62123 0
M  V30 20794 C 1892.92 -2.30626 -0.0895817 0
M  V30 20795 C 1893.89 -1.42906 -0.846593 0
M  V30 20796 O 1895.07 -1.7182 -0.829611 0
M  V30 20797 C 1892.21 -3.28032 -1.07188 0
M  V30 20798 C 1891.32 -4.30855 -0.314319 0
M  V30 20799 C 1890.46 -5.1536 -1.28755 0
M  V30 20800 C 1889.5 -6.09899 -0.518581 0
M  V30 20801 N 1888.63 -6.87137 -1.44178 0
M  V30 20802 H 1893.47 -2.90871 0.64793 0
M  V30 20803 H 1891.01 -1.4332 0.33131 0
M  V30 20804 H 1892.97 -3.82984 -1.65467 0
M  V30 20805 H 1891.6 -2.6951 -1.77664 0
M  V30 20806 H 1890.65 -3.78455 0.38422 0
M  V30 20807 H 1891.96 -4.97985 0.285042 0
M  V30 20808 H 1891.12 -5.7478 -1.94198 0
M  V30 20809 H 1889.86 -4.4828 -1.92084 0
M  V30 20810 H 1888.86 -5.49597 0.149399 0
M  V30 20811 H 1890.09 -6.79011 0.109851 0
M  V30 20812 H 1888.03 -6.22735 -2.06246 0
M  V30 20813 H 1887.95 -7.50669 -0.896192 0
M  V30 20814 H 1889.22 -7.51088 -2.08536 0
M  V30 20815 N 1893.45 -0.361184 -1.53405 0
M  V30 20816 C 1894.69 0.230222 -2.01489 0
M  V30 20817 C 1895.03 1.48779 -1.24814 0
M  V30 20818 O 1894.3 1.91494 -0.340612 0
M  V30 20819 C 1894.58 0.526613 -3.56229 0
M  V30 20820 C 1894.44 -0.744277 -4.436 0
M  V30 20821 C 1895.76 1.32901 -4.19554 0
M  V30 20822 H 1892.87 0.0822009 -0.732402 0
M  V30 20823 H 1895.52 -0.485208 -1.837 0
M  V30 20824 H 1893.67 1.13609 -3.71517 0
M  V30 20825 H 1895.34 -1.38188 -4.40116 0
M  V30 20826 H 1893.58 -1.36555 -4.11747 0
M  V30 20827 H 1894.25 -0.491913 -5.49804 0
M  V30 20828 H 1896.73 0.813474 -4.08071 0
M  V30 20829 H 1895.6 1.50513 -5.27861 0
M  V30 20830 H 1895.87 2.33625 -3.75329 0
M  V30 20831 N 1894.92 1.57341 -0.0902386 0
M  V30 20832 C 1895.87 2.10293 0.880961 0
M  V30 20833 C 1896.86 1.01683 1.24697 0
M  V30 20834 O 1898.05 1.27965 1.22286 0
M  V30 20835 C 1895.18 2.68293 2.14182 0
M  V30 20836 C 1894.27 3.83938 1.80146 0
M  V30 20837 N 1894.66 4.92166 1.16646 0
M  V30 20838 C 1892.95 3.93581 2.09785 0
M  V30 20839 C 1893.66 5.72845 1.01113 0
M  V30 20840 N 1892.63 5.21716 1.52686 0
M  V30 20841 H 1896.43 2.91354 0.385979 0
M  V30 20842 H 1893.95 1.62006 0.113118 0
M  V30 20843 H 1895.94 3.04555 2.84697 0
M  V30 20844 H 1894.6 1.88685 2.6425 0
M  V30 20845 H 1895.62 5.11143 0.833854 0
M  V30 20846 H 1892.29 3.24975 2.62102 0
M  V30 20847 H 1893.68 6.69924 0.514913 0
M  V30 20848 N 1896.4 -0.183431 1.56529 0
M  V30 20849 C 1897.35 -1.22726 1.95466 0
M  V30 20850 C 1898.32 -1.44626 0.81686 0
M  V30 20851 O 1899.5 -1.57566 1.07599 0
M  V30 20852 C 1896.64 -2.56435 2.30944 0
M  V30 20853 C 1895.76 -2.42016 3.57844 0
M  V30 20854 C 1894.89 -3.68509 3.82589 0
M  V30 20855 C 1893.93 -3.48972 5.02877 0
M  V30 20856 N 1893.07 -4.67505 5.23817 0
M  V30 20857 H 1897.91 -0.888204 2.84456 0
M  V30 20858 H 1895.45 -0.427192 1.4076 0
M  V30 20859 H 1897.4 -3.3435 2.49532 0
M  V30 20860 H 1896.03 -2.8836 1.4508 0
M  V30 20861 H 1895.09 -1.55339 3.47237 0
M  V30 20862 H 1896.4 -2.23519 4.45915 0
M  V30 20863 H 1895.55 -4.54861 4.0148 0
M  V30 20864 H 1894.29 -3.89972 2.9287 0
M  V30 20865 H 1893.3 -2.61005 4.83897 0
M  V30 20866 H 1894.52 -3.28942 5.94116 0
M  V30 20867 H 1892.47 -4.8921 4.37047 0
M  V30 20868 H 1892.38 -4.51876 6.06089 0
M  V30 20869 H 1893.65 -5.55175 5.47176 0
M  V30 20870 N 1897.88 -1.50992 -0.451564 0
M  V30 20871 C 1898.81 -1.74216 -1.5547 0
M  V30 20872 C 1899.79 -0.591568 -1.59482 0
M  V30 20873 O 1900.98 -0.83279 -1.75437 0
M  V30 20874 C 1898.11 -1.85421 -2.9366 0
M  V30 20875 C 1897.06 -3.0076 -3.04512 0
M  V30 20876 C 1896.39 -2.9713 -4.44542 0
M  V30 20877 C 1897.69 -4.40961 -2.79911 0
M  V30 20878 H 1899.38 -2.66582 -1.36287 0
M  V30 20879 H 1896.93 -1.28281 -0.654207 0
M  V30 20880 H 1898.88 -2.00252 -3.70779 0
M  V30 20881 H 1897.6 -0.896921 -3.14043 0
M  V30 20882 H 1896.26 -2.85611 -2.2983 0
M  V30 20883 H 1895.91 -1.99207 -4.61872 0
M  V30 20884 H 1895.61 -3.74572 -4.52736 0
M  V30 20885 H 1897.13 -3.14035 -5.23655 0
M  V30 20886 H 1898.55 -4.56534 -3.4677 0
M  V30 20887 H 1896.95 -5.20002 -2.9953 0
M  V30 20888 H 1898.02 -4.51981 -1.75618 0
M  V30 20889 N 1899.36 0.706069 -1.40899 0
M  V30 20890 C 1900.29 1.83119 -1.37841 0
M  V30 20891 C 1901.3 1.60335 -0.282253 0
M  V30 20892 O 1902.49 1.70032 -0.543263 0
M  V30 20893 C 1899.59 3.19696 -1.12461 0
M  V30 20894 C 1898.77 3.69598 -2.33915 0
M  V30 20895 C 1897.82 4.84815 -2.04551 0
M  V30 20896 O 1896.85 4.96973 -2.775 0
M  V30 20897 N 1898.05 5.71302 -1.0293 0
M  V30 20898 H 1900.82 1.86237 -2.34811 0
M  V30 20899 H 1898.38 0.887984 -1.35375 0
M  V30 20900 H 1900.37 3.94386 -0.90786 0
M  V30 20901 H 1898.94 3.11668 -0.241258 0
M  V30 20902 H 1898.16 2.85933 -2.7136 0
M  V30 20903 H 1899.45 3.99674 -3.14862 0
M  V30 20904 H 1898.85 5.64099 -0.425314 0
M  V30 20905 H 1897.4 6.45935 -0.872446 0
M  V30 20906 N 1900.84 1.26553 0.939264 0
M  V30 20907 C 1901.78 1.08092 2.05958 0
M  V30 20908 C 1902.78 0.00730279 1.69398 0
M  V30 20909 O 1903.98 0.164131 1.7925 0
M  V30 20910 H 1900.36 0.33271 0.674394 0
M  V30 20911 H 1902.33 2.03032 2.18679 0
M  V30 20912 C 1901.08 0.732672 3.39893 0
M  V30 20913 H 1900.4 1.55067 3.68503 0
M  V30 20914 H 1901.84 0.643305 4.19091 0
M  V30 20915 C 1900.3 -0.5623 3.32174 0
M  V30 20916 O 1900.83 -1.60007 3.68457 0
M  V30 20917 N 1899.04 -0.553643 2.85277 0
M  V30 20918 H 1898.58 0.291265 2.55948 0
M  V30 20919 H 1898.54 -1.4202 2.80495 0
M  V30 20920 N 1902.31 -1.14411 1.08387 0
M  V30 20921 C 1903.22 -2.23103 0.725418 0
M  V30 20922 C 1904.24 -1.71924 -0.26799 0
M  V30 20923 O 1905.42 -2.01088 -0.111986 0
M  V30 20924 C 1902.48 -3.46418 0.139915 0
M  V30 20925 C 1901.54 -4.12537 1.18791 0
M  V30 20926 C 1900.78 -5.29966 0.630252 0
M  V30 20927 O 1901 -5.67739 -0.550335 0
M  V30 20928 O 1899.93 -5.85862 1.38021 0
M  V30 20929 H 1903.76 -2.56116 1.63213 0
M  V30 20930 H 1901.34 -1.22338 0.857538 0
M  V30 20931 H 1903.23 -4.20999 -0.18381 0
M  V30 20932 H 1901.9 -3.15129 -0.739957 0
M  V30 20933 H 1900.81 -3.39831 1.56416 0
M  V30 20934 H 1902.14 -4.47932 2.04005 0
M  V30 20935 N 1903.79 -0.869509 -1.31443 0
M  V30 20936 C 1905.04 -0.480925 -1.97015 0
M  V30 20937 C 1905.37 0.964227 -1.68571 0
M  V30 20938 O 1904.65 1.67893 -0.981953 0
M  V30 20939 C 1904.93 -0.738064 -3.52455 0
M  V30 20940 C 1904.78 -2.23272 -3.90474 0
M  V30 20941 C 1906.1 -0.204237 -4.39626 0
M  V30 20942 H 1903.22 -0.176206 -0.715626 0
M  V30 20943 H 1905.86 -1.09066 -1.55578 0
M  V30 20944 H 1904.01 -0.21909 -3.87882 0
M  V30 20945 H 1905.68 -2.81891 -3.65151 0
M  V30 20946 H 1903.93 -2.70546 -3.39098 0
M  V30 20947 H 1904.6 -2.36328 -4.98852 0
M  V30 20948 H 1907.07 -0.648228 -4.1102 0
M  V30 20949 H 1905.95 -0.413608 -5.47339 0
M  V30 20950 H 1906.21 0.893807 -4.32971 0
M  V30 20951 N 1905.27 1.44508 -0.628902 0
M  V30 20952 C 1906.18 2.34468 0.0786233 0
M  V30 20953 C 1907.2 1.52489 0.838046 0
M  V30 20954 O 1908.37 1.85224 0.790813 0
M  V30 20955 C 1905.44 3.30435 1.04945 0
M  V30 20956 C 1904.5 4.28322 0.289643 0
M  V30 20957 C 1903.73 5.19704 1.21422 0
M  V30 20958 O 1903.95 5.14967 2.45286 0
M  V30 20959 O 1902.89 5.97819 0.699748 0
M  V30 20960 H 1906.71 2.96414 -0.661222 0
M  V30 20961 H 1904.3 1.44244 -0.3891 0
M  V30 20962 H 1906.18 3.89513 1.60804 0
M  V30 20963 H 1904.86 2.71025 1.76994 0
M  V30 20964 H 1903.76 3.72797 -0.311936 0
M  V30 20965 H 1905.1 4.90646 -0.390789 0
M  V30 20966 N 1906.75 0.369315 1.53212 0
M  V30 20967 C 1907.97 -0.222451 2.06204 0
M  V30 20968 C 1908.4 -1.41373 1.24077 0
M  V30 20969 O 1907.76 -1.79415 0.260767 0
M  V30 20970 C 1907.81 -0.590386 3.55734 0
M  V30 20971 O 1906.91 -1.68711 3.76311 0
M  V30 20972 H 1906.25 -0.0315041 0.663252 0
M  V30 20973 H 1908.78 0.531 1.97589 0
M  V30 20974 H 1908.79 -0.860345 3.98826 0
M  V30 20975 H 1907.47 0.28067 4.14952 0
M  V30 20976 H 1906.04 -1.41242 3.45116 0
M  V30 20977 N 1908.23 -1.57291 0.0985816 0
M  V30 20978 C 1909.47 -1.94767 -0.56514 0
M  V30 20979 C 1909.81 -0.980722 -1.67617 0
M  V30 20980 O 1909.08 -0.0143714 -1.94495 0
M  V30 20981 C 1909.36 -3.42336 -1.11704 0
M  V30 20982 C 1909.22 -4.49799 -0.0108284 0
M  V30 20983 C 1910.54 -3.91296 -2.01434 0
M  V30 20984 H 1907.66 -0.708215 -0.203963 0
M  V30 20985 H 1910.3 -1.89238 0.169998 0
M  V30 20986 H 1908.45 -3.47179 -1.74354 0
M  V30 20987 H 1910.12 -4.57066 0.623574 0
M  V30 20988 H 1908.36 -4.28825 0.655093 0
M  V30 20989 H 1909.03 -5.50261 -0.437868 0
M  V30 20990 H 1911.51 -3.88628 -1.48685 0
M  V30 20991 H 1910.39 -4.9511 -2.36975 0
M  V30 20992 H 1910.65 -3.30792 -2.93307 0
M  V30 20993 N 1909.71 0.175127 -1.56624 0
M  V30 20994 C 1910.93 0.908041 -1.85909 0
M  V30 20995 C 1911.35 1.75993 -0.683514 0
M  V30 20996 O 1910.71 1.79162 0.347453 0
M  V30 20997 C 1910.76 1.78791 -3.14191 0
M  V30 20998 O 1910.48 0.970386 -4.27218 0
M  V30 20999 C 1911.98 2.63081 -3.56796 0
M  V30 21000 H 1909.2 0.263986 -0.616889 0
M  V30 21001 H 1911.74 0.176369 -2.03738 0
M  V30 21002 H 1909.9 2.47296 -2.982 0
M  V30 21003 H 1910.31 1.57179 -5.00395 0
M  V30 21004 H 1911.79 3.2044 -4.49469 0
M  V30 21005 H 1912.26 3.37766 -2.80732 0
M  V30 21006 H 1912.87 1.99914 -3.75386 0
M  V30 21007 N 1911.18 1.5123 0.44355 0
M  V30 21008 C 1912.43 1.63267 1.19114 0
M  V30 21009 C 1912.75 0.348151 1.91867 0
M  V30 21010 O 1912.02 -0.635724 1.85298 0
M  V30 21011 H 1910.6 0.601701 0.442679 0
M  V30 21012 H 1913.26 1.88132 0.509134 0
M  V30 21013 H 1912.36 2.45732 1.92411 0
M  V30 21014 N 1912.66 -0.698586 1.41271 0
M  V30 21015 C 1913.59 -1.82278 1.37295 0
M  V30 21016 C 1914.57 -1.60809 0.240668 0
M  V30 21017 O 1915.76 -1.83598 0.42709 0
M  V30 21018 C 1912.88 -3.18907 1.14087 0
M  V30 21019 C 1911.93 -3.59172 2.29994 0
M  V30 21020 S 1912.76 -3.64327 3.92462 0
M  V30 21021 C 1913.92 -5.03687 3.71551 0
M  V30 21022 H 1914.15 -1.85373 2.32431 0
M  V30 21023 H 1911.68 -0.867008 1.27759 0
M  V30 21024 H 1913.64 -3.97783 1.01383 0
M  V30 21025 H 1912.3 -3.13425 0.20577 0
M  V30 21026 H 1911.5 -4.58421 2.09442 0
M  V30 21027 H 1911.1 -2.87597 2.3909 0
M  V30 21028 H 1913.39 -5.911 3.3107 0
M  V30 21029 H 1914.33 -5.2928 4.70391 0
M  V30 21030 H 1914.74 -4.75083 3.04887 0
M  V30 21031 N 1914.14 -1.27049 -0.93254 0
M  V30 21032 C 1915.07 -1.11867 -2.04959 0
M  V30 21033 C 1916.05 -0.0214563 -1.70086 0
M  V30 21034 O 1917.24 -0.195063 -1.93218 0
M  V30 21035 C 1914.37 -0.759993 -3.38883 0
M  V30 21036 C 1913.32 -1.8099 -3.87849 0
M  V30 21037 C 1912.65 -1.30532 -5.18522 0
M  V30 21038 C 1913.95 -3.21309 -4.11774 0
M  V30 21039 H 1915.64 -2.05309 -2.17918 0
M  V30 21040 H 1913.19 -0.988507 -1.04712 0
M  V30 21041 H 1915.14 -0.640623 -4.16502 0
M  V30 21042 H 1913.86 0.210139 -3.25923 0
M  V30 21043 H 1912.52 -1.91809 -3.12418 0
M  V30 21044 H 1912.17 -0.324784 -5.0195 0
M  V30 21045 H 1911.87 -2.00722 -5.52254 0
M  V30 21046 H 1913.39 -1.19879 -5.98716 0
M  V30 21047 H 1914.81 -3.13517 -4.79979 0
M  V30 21048 H 1913.2 -3.89166 -4.56804 0
M  V30 21049 H 1914.27 -3.66722 -3.17243 0
M  V30 21050 N 1915.62 1.13835 -1.08993 0
M  V30 21051 C 1916.57 2.21179 -0.719905 0
M  V30 21052 C 1917.56 1.67118 0.277123 0
M  V30 21053 O 1918.77 1.79462 0.139054 0
M  V30 21054 H 1915.14 0.72067 -0.214799 0
M  V30 21055 H 1917.11 2.49654 -1.63448 0
M  V30 21056 C 1915.86 3.47368 -0.151794 0
M  V30 21057 H 1915.18 3.89302 -0.910172 0
M  V30 21058 H 1916.62 4.23943 0.0692336 0
M  V30 21059 C 1915.08 3.18024 1.11185 0
M  V30 21060 O 1915.61 3.36374 2.1958 0
M  V30 21061 N 1913.82 2.71938 1.0246 0
M  V30 21062 H 1913.37 2.57206 0.142456 0
M  V30 21063 H 1913.32 2.52679 1.87084 0
M  V30 21064 N 1917.1 0.876467 1.3098 0
M  V30 21065 C 1918.01 0.340667 2.32113 0
M  V30 21066 C 1919.02 -0.552749 1.64987 0
M  V30 21067 O 1920.2 -0.447909 1.96356 0
M  V30 21068 C 1917.26 -0.443504 3.43852 0
M  V30 21069 C 1916.32 0.478646 4.26623 0
M  V30 21070 C 1915.56 -0.268194 5.33026 0
M  V30 21071 O 1915.78 -1.49543 5.50448 0
M  V30 21072 O 1914.71 0.377306 6.00716 0
M  V30 21073 H 1918.54 1.1791 2.79877 0
M  V30 21074 H 1916.12 0.640037 1.34996 0
M  V30 21075 H 1918.01 -0.887816 4.11941 0
M  V30 21076 H 1916.68 -1.25838 2.98239 0
M  V30 21077 H 1915.59 0.971593 3.61263 0
M  V30 21078 H 1916.92 1.25929 4.75818 0
M  V30 21079 N 1918.57 -1.44173 0.636557 0
M  V30 21080 C 1919.54 -2.29133 -0.0554994 0
M  V30 21081 C 1920.54 -1.41329 -0.766986 0
M  V30 21082 O 1921.73 -1.63142 -0.610753 0
M  V30 21083 C 1918.86 -3.23031 -1.08922 0
M  V30 21084 H 1920.05 -2.91811 0.691829 0
M  V30 21085 H 1917.6 -1.51175 0.396956 0
M  V30 21086 H 1918.34 -2.65213 -1.86635 0
M  V30 21087 H 1918.12 -3.87743 -0.58291 0
M  V30 21088 H 1919.61 -3.8684 -1.57304 0
M  V30 21089 N 1920.05 -0.377435 -1.53014 0
M  V30 21090 C 1920.96 0.471045 -2.29822 0
M  V30 21091 C 1921.98 1.0821 -1.36259 0
M  V30 21092 O 1923.15 1.09048 -1.69324 0
M  V30 21093 C 1920.22 1.58917 -3.08134 0
M  V30 21094 C 1919.28 1.00444 -4.17384 0
M  V30 21095 C 1918.51 2.06928 -4.91952 0
M  V30 21096 O 1918.74 3.2824 -4.66492 0
M  V30 21097 O 1917.67 1.69321 -5.77593 0
M  V30 21098 H 1921.5 -0.154333 -3.03308 0
M  V30 21099 H 1919.08 -0.141478 -1.48729 0
M  V30 21100 H 1920.96 2.23899 -3.56997 0
M  V30 21101 H 1919.64 2.19973 -2.37473 0
M  V30 21102 H 1918.54 0.3182 -3.72744 0
M  V30 21103 H 1919.88 0.438266 -4.90245 0
M  V30 21104 N 1921.53 1.57237 -0.106922 0
M  V30 21105 C 1922.78 1.9439 0.552888 0
M  V30 21106 C 1923.1 0.990316 1.67981 0
M  V30 21107 O 1922.37 0.0444502 1.9585 0
M  V30 21108 H 1920.95 0.71768 0.20723 0
M  V30 21109 H 1923.61 1.9413 -0.17303 0
M  V30 21110 H 1922.71 2.97118 0.955369 0
M  V30 21111 N 1923.01 -0.166818 1.56715 0
M  V30 21112 C 1923.96 -1.20646 1.96757 0
M  V30 21113 C 1924.93 -1.43751 0.832153 0
M  V30 21114 O 1926.11 -1.56416 1.09264 0
M  V30 21115 C 1923.25 -2.53971 2.3365 0
M  V30 21116 C 1922.36 -2.38207 3.60391 0
M  V30 21117 C 1921.5 -3.6443 3.86476 0
M  V30 21118 C 1920.54 -3.43618 5.0655 0
M  V30 21119 N 1919.67 -4.61923 5.28746 0
M  V30 21120 H 1924.51 -0.857983 2.85382 0
M  V30 21121 H 1922.05 -0.412238 1.41206 0
M  V30 21122 H 1924.01 -3.31684 2.53064 0
M  V30 21123 H 1922.64 -2.86805 1.48131 0
M  V30 21124 H 1921.69 -1.51648 3.48866 0
M  V30 21125 H 1923 -2.18777 4.48261 0
M  V30 21126 H 1922.16 -4.50578 4.06282 0
M  V30 21127 H 1920.9 -3.86844 2.9699 0
M  V30 21128 H 1919.9 -2.55858 4.86638 0
M  V30 21129 H 1921.13 -3.22623 5.97571 0
M  V30 21130 H 1919.07 -4.84547 4.42211 0
M  V30 21131 H 1918.99 -4.45423 6.10848 0
M  V30 21132 H 1920.26 -5.4934 5.53033 0
M  V30 21133 N 1924.49 -1.51463 -0.435524 0
M  V30 21134 C 1925.45 -1.72315 -1.51129 0
M  V30 21135 C 1926.45 -0.593161 -1.4946 0
M  V30 21136 O 1927.64 -0.860731 -1.5145 0
M  V30 21137 C 1924.77 -1.78127 -2.9066 0
M  V30 21138 H 1925.96 -2.68327 -1.33943 0
M  V30 21139 H 1923.52 -1.4148 -0.664317 0
M  V30 21140 H 1924.25 -0.839367 -3.13249 0
M  V30 21141 H 1924.04 -2.60252 -2.93277 0
M  V30 21142 H 1925.53 -1.96093 -3.68697 0
M  V30 21143 N 1925.96 0.691085 -1.4164 0
M  V30 21144 C 1927.21 1.44682 -1.40535 0
M  V30 21145 C 1927.53 1.9559 -0.0192882 0
M  V30 21146 O 1928.73 2.71259 0.114373 0
M  V30 21147 C 1927.19 2.61645 -2.47123 0
M  V30 21148 C 1926.8 2.17504 -3.91658 0
M  V30 21149 C 1928.54 3.39253 -2.55162 0
M  V30 21150 C 1926.45 3.31453 -4.89789 0
M  V30 21151 H 1925.38 0.543472 -0.522641 0
M  V30 21152 H 1928.03 0.749807 -1.67482 0
M  V30 21153 H 1926.41 3.33636 -2.13314 0
M  V30 21154 H 1927.58 1.52774 -4.34738 0
M  V30 21155 H 1925.9 1.52878 -3.87321 0
M  V30 21156 H 1928.5 4.24088 -3.25659 0
M  V30 21157 H 1928.84 3.84744 -1.58989 0
M  V30 21158 H 1929.37 2.74322 -2.88083 0
M  V30 21159 H 1926.11 2.9097 -5.87381 0
M  V30 21160 H 1925.63 3.95019 -4.51354 0
M  V30 21161 H 1927.31 3.97164 -5.10754 0
M  V30 21162 N 1927.44 1.27542 0.925789 0
M  V30 21163 C 1928.39 1.10432 2.02666 0
M  V30 21164 C 1929.36 0.004846 1.66099 0
M  V30 21165 O 1930.54 0.167531 1.90063 0
M  V30 21166 C 1927.68 0.759567 3.36637 0
M  V30 21167 C 1926.8 1.93687 3.86147 0
M  V30 21168 C 1925.93 1.53382 5.08574 0
M  V30 21169 C 1924.97 2.67849 5.50385 0
M  V30 21170 N 1924.11 2.2812 6.64007 0
M  V30 21171 H 1928.95 2.04632 2.16633 0
M  V30 21172 H 1926.49 1.01863 1.06124 0
M  V30 21173 H 1928.44 0.540492 4.13684 0
M  V30 21174 H 1927.07 -0.145477 3.22472 0
M  V30 21175 H 1926.13 2.26843 3.05363 0
M  V30 21176 H 1927.44 2.79548 4.13104 0
M  V30 21177 H 1926.59 1.2761 5.93128 0
M  V30 21178 H 1925.33 0.646332 4.83398 0
M  V30 21179 H 1924.34 2.94333 4.64379 0
M  V30 21180 H 1925.56 3.57222 5.77554 0
M  V30 21181 H 1923.51 1.41825 6.40485 0
M  V30 21182 H 1923.42 3.07519 6.90629 0
M  V30 21183 H 1924.69 2.056 7.51897 0
M  V30 21184 N 1928.92 -1.13255 1.09595 0
M  V30 21185 C 1929.85 -2.20827 0.758791 0
M  V30 21186 C 1930.83 -1.68034 -0.264325 0
M  V30 21187 O 1932.02 -1.93751 -0.132005 0
M  V30 21188 C 1929.15 -3.46831 0.180424 0
M  V30 21189 C 1928.1 -4.12724 1.13325 0
M  V30 21190 C 1927.43 -5.33075 0.416504 0
M  V30 21191 C 1928.73 -4.59862 2.47637 0
M  V30 21192 H 1930.42 -2.49287 1.65821 0
M  V30 21193 H 1927.97 -1.19818 0.798734 0
M  V30 21194 H 1929.92 -4.21346 -0.0675313 0
M  V30 21195 H 1928.64 -3.17773 -0.754194 0
M  V30 21196 H 1927.3 -3.40179 1.36651 0
M  V30 21197 H 1926.95 -5.00281 -0.522308 0
M  V30 21198 H 1926.65 -5.78109 1.05183 0
M  V30 21199 H 1928.17 -6.10344 0.17689 0
M  V30 21200 H 1929.59 -5.25791 2.28509 0
M  V30 21201 H 1927.99 -5.15642 3.06974 0
M  V30 21202 H 1929.06 -3.74294 3.08273 0
M  V30 21203 N 1930.4 -0.883401 -1.30514 0
M  V30 21204 C 1931.36 -0.353908 -2.26451 0
M  V30 21205 C 1932.36 0.502723 -1.52739 0
M  V30 21206 O 1933.55 0.310104 -1.71418 0
M  V30 21207 C 1930.68 0.495846 -3.37275 0
M  V30 21208 H 1931.88 -1.20101 -2.74801 0
M  V30 21209 H 1929.43 -0.660124 -1.41676 0
M  V30 21210 H 1930.16 1.3636 -2.94239 0
M  V30 21211 H 1929.95 -0.117731 -3.91923 0
M  V30 21212 H 1931.44 0.858149 -4.08688 0
M  V30 21213 N 1931.88 1.43833 -0.644194 0
M  V30 21214 C 1932.82 2.30739 0.0528797 0
M  V30 21215 C 1933.79 1.44234 0.823751 0
M  V30 21216 O 1934.98 1.73118 0.802171 0
M  V30 21217 C 1932.12 3.29695 1.01956 0
M  V30 21218 C 1931.23 4.31301 0.245734 0
M  V30 21219 C 1930.37 5.17343 1.2054 0
M  V30 21220 C 1929.41 6.10647 0.421486 0
M  V30 21221 N 1928.54 6.89344 1.33228 0
M  V30 21222 H 1933.38 2.89803 -0.694123 0
M  V30 21223 H 1930.92 1.42775 -0.354069 0
M  V30 21224 H 1932.88 3.85568 1.59353 0
M  V30 21225 H 1931.51 2.72302 1.73354 0
M  V30 21226 H 1930.56 3.77795 -0.44438 0
M  V30 21227 H 1931.87 4.97468 -0.364231 0
M  V30 21228 H 1931.03 5.77797 1.85029 0
M  V30 21229 H 1929.76 4.51279 1.84928 0
M  V30 21230 H 1928.77 5.4929 -0.236816 0
M  V30 21231 H 1929.99 6.7875 -0.217862 0
M  V30 21232 H 1927.94 6.25937 1.96312 0
M  V30 21233 H 1927.86 7.52 0.776653 0
M  V30 21234 H 1929.13 7.54311 1.9656 0
M  V30 21235 N 1933.35 0.385544 1.52811 0
M  V30 21236 C 1934.63 -0.255227 1.93928 0
M  V30 21237 C 1935.01 -1.64683 1.32071 0
M  V30 21238 O 1934.36 -2.23242 0.487363 0
M  V30 21239 C 1934.57 -0.285363 3.47831 0
M  V30 21240 C 1935.92 -0.516126 4.21451 0
M  V30 21241 O 1936.94 -0.365732 3.54317 0
M  V30 21242 O 1935.8 -0.810503 5.40456 0
M  V30 21243 H 1932.89 -0.157694 0.811826 0
M  V30 21244 H 1935.44 0.439779 1.63903 0
M  V30 21245 H 1934.21 0.68954 3.85177 0
M  V30 21246 H 1933.84 -1.02545 3.84149 0
M  V30 21247 N 1934.83 -1.57178 0.115259 0
M  V30 21248 C 1936.08 -1.95355 -0.54445 0
M  V30 21249 C 1936.41 -0.998445 -1.66567 0
M  V30 21250 O 1935.69 -0.0349993 -1.94469 0
M  V30 21251 C 1935.97 -3.43502 -1.08067 0
M  V30 21252 C 1935.82 -4.49785 0.0368794 0
M  V30 21253 C 1937.14 -3.9341 -1.97273 0
M  V30 21254 H 1934.26 -0.710338 -0.19644 0
M  V30 21255 H 1936.9 -1.89047 0.19006 0
M  V30 21256 H 1935.05 -3.49008 -1.70662 0
M  V30 21257 H 1936.72 -4.56379 0.672017 0
M  V30 21258 H 1934.97 -4.28106 0.700539 0
M  V30 21259 H 1935.64 -5.50694 -0.379481 0
M  V30 21260 H 1938.11 -3.90184 -1.44555 0
M  V30 21261 H 1936.99 -4.97596 -2.31711 0
M  V30 21262 H 1937.25 -3.33884 -2.89782 0
M  V30 21263 N 1936.31 0.158505 -1.56801 0
M  V30 21264 C 1937.27 1.17986 -1.96499 0
M  V30 21265 C 1938.27 1.3649 -0.850127 0
M  V30 21266 O 1939.46 1.33678 -1.11696 0
M  V30 21267 C 1936.6 2.54245 -2.27095 0
M  V30 21268 H 1937.79 0.839577 -2.87908 0
M  V30 21269 H 1935.34 0.401431 -1.51057 0
M  V30 21270 H 1936.08 2.93266 -1.38441 0
M  V30 21271 H 1935.86 2.42179 -3.0837 0
M  V30 21272 H 1937.35 3.27829 -2.58686 0
M  V30 21273 N 1937.79 1.51692 0.427485 0
M  V30 21274 C 1939.01 1.68956 1.20285 0
M  V30 21275 C 1939.44 0.390472 1.84003 0
M  V30 21276 O 1938.8 -0.650352 1.69234 0
M  V30 21277 C 1938.85 2.81368 2.25532 0
M  V30 21278 O 1937.95 2.45657 3.3125 0
M  V30 21279 H 1937.29 0.56304 0.351969 0
M  V30 21280 H 1939.82 1.98306 0.503588 0
M  V30 21281 H 1939.83 3.05742 2.70158 0
M  V30 21282 H 1938.51 3.7563 1.78535 0
M  V30 21283 H 1937.08 2.31889 2.9203 0
M  V30 21284 N 1939.27 -0.683564 1.42004 0
M  V30 21285 C 1940.2 -1.8095 1.47578 0
M  V30 21286 C 1941.18 -1.66804 0.333208 0
M  V30 21287 O 1942.36 -1.86357 0.546314 0
M  V30 21288 C 1939.49 -3.19182 1.36895 0
M  V30 21289 C 1938.45 -3.4805 2.49089 0
M  V30 21290 C 1937.77 -4.85764 2.23467 0
M  V30 21291 C 1939.07 -3.4582 3.91415 0
M  V30 21292 H 1940.77 -1.76543 2.41812 0
M  V30 21293 H 1938.31 -0.84794 1.16387 0
M  V30 21294 H 1940.27 -3.97674 1.39404 0
M  V30 21295 H 1938.99 -3.24245 0.391513 0
M  V30 21296 H 1937.65 -2.71915 2.45882 0
M  V30 21297 H 1937.3 -4.87467 1.24037 0
M  V30 21298 H 1937 -5.06043 2.98654 0
M  V30 21299 H 1938.52 -5.66551 2.27711 0
M  V30 21300 H 1939.94 -4.14297 3.96272 0
M  V30 21301 H 1938.33 -3.77633 4.66383 0
M  V30 21302 H 1939.4 -2.4456 4.1871 0
M  V30 21303 N 1940.75 -1.28031 -0.919012 0
M  V30 21304 C 1941.97 -1.17828 -1.70679 0
M  V30 21305 C 1942.4 0.260207 -1.86292 0
M  V30 21306 O 1941.75 1.18833 -1.36925 0
M  V30 21307 C 1941.8 -1.87626 -3.07943 0
M  V30 21308 O 1940.91 -1.18014 -3.95154 0
M  V30 21309 H 1940.25 -0.40932 -0.522832 0
M  V30 21310 H 1942.78 -1.69258 -1.14947 0
M  V30 21311 H 1942.79 -1.95327 -3.58206 0
M  V30 21312 H 1941.46 -2.92263 -2.95897 0
M  V30 21313 H 1940.04 -1.18441 -3.5359 0
M  V30 21314 N 1942.22 1.12672 -1.10194 0
M  V30 21315 C 1943.45 1.88496 -0.865112 0
M  V30 21316 C 1943.87 1.78977 0.578691 0
M  V30 21317 O 1943.23 1.14292 1.40737 0
M  V30 21318 C 1943.28 3.35768 -1.315 0
M  V30 21319 O 1942.38 4.09615 -0.478447 0
M  V30 21320 H 1941.72 0.585782 -0.312658 0
M  V30 21321 H 1944.25 1.42506 -1.46811 0
M  V30 21322 H 1944.26 3.86605 -1.30385 0
M  V30 21323 H 1942.94 3.42013 -2.36643 0
M  V30 21324 H 1941.52 3.68753 -0.554589 0
M  V30 21325 N 1943.7 0.89031 1.30043 0
M  V30 21326 C 1944.63 0.31832 2.26979 0
M  V30 21327 C 1945.65 -0.530108 1.53928 0
M  V30 21328 O 1946.84 -0.348791 1.75059 0
M  V30 21329 C 1943.94 -0.565563 3.34148 0
M  V30 21330 C 1943.11 0.255006 4.36656 0
M  V30 21331 C 1942.17 -0.560216 5.23209 0
M  V30 21332 O 1941.19 0.0189739 5.69197 0
M  V30 21333 N 1942.4 -1.86825 5.49615 0
M  V30 21334 H 1945.16 1.15143 2.76699 0
M  V30 21335 H 1942.72 0.753836 1.43279 0
M  V30 21336 H 1944.71 -1.11711 3.88976 0
M  V30 21337 H 1943.28 -1.29935 2.84316 0
M  V30 21338 H 1942.5 0.987993 3.81618 0
M  V30 21339 H 1943.79 0.817308 5.02193 0
M  V30 21340 H 1943.19 -2.36167 5.14045 0
M  V30 21341 H 1941.75 -2.36713 6.07297 0
M  V30 21342 N 1945.18 -1.43489 0.651812 0
M  V30 21343 C 1946.11 -2.33484 -0.0271093 0
M  V30 21344 C 1947.09 -1.4939 -0.813427 0
M  V30 21345 O 1948.28 -1.78058 -0.775186 0
M  V30 21346 C 1945.41 -3.32737 -0.995143 0
M  V30 21347 C 1944.36 -4.26809 -0.319036 0
M  V30 21348 C 1943.69 -5.1609 -1.39842 0
M  V30 21349 C 1944.99 -5.16326 0.787692 0
M  V30 21350 H 1946.68 -2.90503 0.724441 0
M  V30 21351 H 1944.23 -1.39686 0.349826 0
M  V30 21352 H 1946.18 -3.94593 -1.479 0
M  V30 21353 H 1944.9 -2.73972 -1.77784 0
M  V30 21354 H 1943.56 -3.66316 0.144366 0
M  V30 21355 H 1943.21 -4.53664 -2.17251 0
M  V30 21356 H 1942.91 -5.79848 -0.951292 0
M  V30 21357 H 1944.43 -5.80819 -1.88367 0
M  V30 21358 H 1945.85 -5.71999 0.386053 0
M  V30 21359 H 1944.24 -5.88798 1.1592 0
M  V30 21360 H 1945.31 -4.56099 1.64626 0
M  V30 21361 N 1946.66 -0.393643 -1.52605 0
M  V30 21362 C 1947.59 0.474548 -2.24234 0
M  V30 21363 C 1948.6 1.02311 -1.26634 0
M  V30 21364 O 1949.79 0.924695 -1.52681 0
M  V30 21365 C 1946.89 1.67083 -2.9485 0
M  V30 21366 C 1946.06 1.24889 -4.19192 0
M  V30 21367 C 1945.12 2.31034 -4.72768 0
M  V30 21368 O 1944.15 1.92263 -5.35746 0
M  V30 21369 N 1945.35 3.63004 -4.52999 0
M  V30 21370 H 1948.12 -0.139149 -2.99377 0
M  V30 21371 H 1945.68 -0.220221 -1.60395 0
M  V30 21372 H 1947.67 2.37626 -3.27591 0
M  V30 21373 H 1946.24 2.19078 -2.22988 0
M  V30 21374 H 1945.46 0.372176 -3.92439 0
M  V30 21375 H 1946.75 0.94369 -4.99972 0
M  V30 21376 H 1946.15 3.97263 -4.02739 0
M  V30 21377 H 1944.7 4.29568 -4.90219 0
M  V30 21378 N 1948.14 1.57115 -0.123593 0
M  V30 21379 C 1949.41 1.86893 0.577099 0
M  V30 21380 C 1949.79 1.02556 1.84514 0
M  V30 21381 O 1949.14 0.105755 2.28255 0
M  V30 21382 C 1949.35 3.38107 0.865122 0
M  V30 21383 C 1950.7 4.0681 1.21618 0
M  V30 21384 O 1951.72 3.43153 0.955237 0
M  V30 21385 O 1950.58 5.19186 1.70612 0
M  V30 21386 H 1947.68 0.773842 0.291716 0
M  V30 21387 H 1950.22 1.68959 -0.158443 0
M  V30 21388 H 1948.99 3.91286 -0.0332696 0
M  V30 21389 H 1948.62 3.61488 1.65566 0
M  V30 21390 N 1949.61 -0.150187 1.56883 0
M  V30 21391 C 1950.84 -0.87835 1.8733 0
M  V30 21392 C 1951.26 -1.74883 0.711426 0
M  V30 21393 O 1950.61 -1.79692 -0.318906 0
M  V30 21394 C 1950.66 -1.73769 3.16996 0
M  V30 21395 O 1950.39 -0.902296 4.28708 0
M  V30 21396 C 1951.89 -2.57371 3.60936 0
M  V30 21397 H 1949.11 -0.254139 0.621011 0
M  V30 21398 H 1951.65 -0.143933 2.03993 0
M  V30 21399 H 1949.81 -2.42521 3.02097 0
M  V30 21400 H 1950.22 -1.49198 5.02832 0
M  V30 21401 H 1951.69 -3.13249 4.5451 0
M  V30 21402 H 1952.17 -3.33257 2.86071 0
M  V30 21403 H 1952.78 -1.93916 3.78519 0
M  V30 21404 N 1951.09 -1.51916 -0.419434 0
M  V30 21405 C 1952.02 -1.70735 -1.52912 0
M  V30 21406 C 1953.04 -0.587816 -1.51818 0
M  V30 21407 O 1954.23 -0.862677 -1.56269 0
M  V30 21408 C 1951.33 -1.72322 -2.91819 0
M  V30 21409 C 1950.5 -3.01148 -3.17221 0
M  V30 21410 C 1949.56 -2.94683 -4.35945 0
M  V30 21411 O 1948.58 -3.68606 -4.33726 0
M  V30 21412 N 1949.79 -2.11763 -5.40497 0
M  V30 21413 H 1952.55 -2.66468 -1.37167 0
M  V30 21414 H 1950.11 -1.50025 -0.608608 0
M  V30 21415 H 1952.1 -1.65542 -3.69294 0
M  V30 21416 H 1950.67 -0.841065 -3.01073 0
M  V30 21417 H 1949.89 -3.21657 -2.27883 0
M  V30 21418 H 1951.18 -3.8639 -3.31029 0
M  V30 21419 H 1950.58 -1.51114 -5.45143 0
M  V30 21420 H 1949.14 -2.10848 -6.16755 0
M  V30 21421 N 1952.57 0.676023 -1.42365 0
M  V30 21422 C 1953.48 1.81906 -1.48147 0
M  V30 21423 C 1954.5 1.70014 -0.37032 0
M  V30 21424 O 1955.67 1.91586 -0.621036 0
M  V30 21425 C 1952.74 3.18039 -1.38029 0
M  V30 21426 C 1951.8 3.41897 -2.59625 0
M  V30 21427 C 1951.03 4.71536 -2.4998 0
M  V30 21428 O 1951.25 5.49358 -1.535 0
M  V30 21429 O 1950.19 4.9661 -3.40091 0
M  V30 21430 H 1954.01 1.79984 -2.44621 0
M  V30 21431 H 1951.6 0.831611 -1.24115 0
M  V30 21432 H 1953.48 3.99277 -1.34743 0
M  V30 21433 H 1952.16 3.20602 -0.446789 0
M  V30 21434 H 1951.06 2.60512 -2.68485 0
M  V30 21435 H 1952.4 3.44164 -3.51869 0
M  V30 21436 N 1954.05 1.28517 0.912209 0
M  V30 21437 C 1954.98 1.15113 2.03153 0
M  V30 21438 C 1955.96 0.0485128 1.70031 0
M  V30 21439 O 1957.14 0.225778 1.92883 0
M  V30 21440 C 1954.27 0.81381 3.37631 0
M  V30 21441 C 1953.23 1.87137 3.8492 0
M  V30 21442 C 1952.55 1.38765 5.1638 0
M  V30 21443 C 1953.85 3.27819 4.06611 0
M  V30 21444 H 1955.55 2.0875 2.14625 0
M  V30 21445 H 1953.09 1.00504 1.03126 0
M  V30 21446 H 1955.05 0.706804 4.1543 0
M  V30 21447 H 1953.77 -0.15826 3.26216 0
M  V30 21448 H 1952.43 1.96755 3.09327 0
M  V30 21449 H 1952.08 0.404598 5.0137 0
M  V30 21450 H 1951.78 2.09482 5.48991 0
M  V30 21451 H 1953.3 1.29389 5.96733 0
M  V30 21452 H 1954.72 3.21114 4.7493 0
M  V30 21453 H 1953.11 3.96384 4.50555 0
M  V30 21454 H 1954.18 3.71723 3.11368 0
M  V30 21455 N 1955.53 -1.12086 1.1079 0
M  V30 21456 C 1956.46 -2.2001 0.78217 0
M  V30 21457 C 1957.44 -1.68305 -0.246488 0
M  V30 21458 O 1958.62 -1.9388 -0.111448 0
M  V30 21459 C 1955.75 -3.4662 0.2172 0
M  V30 21460 C 1954.71 -4.11499 1.17696 0
M  V30 21461 C 1954.03 -5.32604 0.47302 0
M  V30 21462 C 1955.33 -4.5721 2.52501 0
M  V30 21463 H 1957.03 -2.47514 1.68456 0
M  V30 21464 H 1954.57 -1.18964 0.811397 0
M  V30 21465 H 1956.53 -4.21394 -0.0228381 0
M  V30 21466 H 1955.25 -3.18555 -0.720448 0
M  V30 21467 H 1953.91 -3.38711 1.40252 0
M  V30 21468 H 1953.56 -5.00807 -0.469217 0
M  V30 21469 H 1953.26 -5.76961 1.11308 0
M  V30 21470 H 1954.78 -6.10122 0.241615 0
M  V30 21471 H 1956.19 -5.23338 2.34073 0
M  V30 21472 H 1954.59 -5.12357 3.12426 0
M  V30 21473 H 1955.66 -3.71003 3.12226 0
M  V30 21474 N 1957 -0.897194 -1.29569 0
M  V30 21475 C 1957.94 -0.330353 -2.26807 0
M  V30 21476 C 1958.95 0.521937 -1.54207 0
M  V30 21477 O 1960.14 0.339502 -1.75242 0
M  V30 21478 C 1957.24 0.547835 -3.34443 0
M  V30 21479 C 1956.41 -0.278159 -4.36515 0
M  V30 21480 C 1955.47 0.532461 -5.23499 0
M  V30 21481 O 1954.5 -0.0491596 -5.69179 0
M  V30 21482 N 1955.7 1.83908 -5.50598 0
M  V30 21483 H 1958.46 -1.16608 -2.76084 0
M  V30 21484 H 1956.02 -0.761424 -1.42877 0
M  V30 21485 H 1958.02 1.09647 -3.89563 0
M  V30 21486 H 1956.59 1.28425 -2.85001 0
M  V30 21487 H 1955.81 -1.00822 -3.81089 0
M  V30 21488 H 1957.09 -0.843929 -5.01752 0
M  V30 21489 H 1956.49 2.33437 -5.1529 0
M  V30 21490 H 1955.05 2.33489 -6.08544 0
M  V30 21491 N 1958.48 1.43142 -0.659413 0
M  V30 21492 C 1959.39 2.34582 0.0288714 0
M  V30 21493 C 1960.41 1.54232 0.805512 0
M  V30 21494 O 1961.58 1.8686 0.751347 0
M  V30 21495 C 1958.65 3.32587 0.97912 0
M  V30 21496 C 1957.71 4.2884 0.198725 0
M  V30 21497 C 1956.94 5.22163 1.10371 0
M  V30 21498 O 1957.17 5.20054 2.34308 0
M  V30 21499 O 1956.1 5.99168 0.572785 0
M  V30 21500 H 1959.93 2.94945 -0.723947 0
M  V30 21501 H 1957.51 1.43386 -0.419609 0
M  V30 21502 H 1959.39 3.92836 1.52505 0
M  V30 21503 H 1958.07 2.74719 1.71206 0
M  V30 21504 H 1956.98 3.72052 -0.390942 0
M  V30 21505 H 1958.31 4.89707 -0.494774 0
M  V30 21506 N 1959.96 0.40173 1.52394 0
M  V30 21507 C 1960.87 -0.434422 2.30543 0
M  V30 21508 C 1961.89 -1.06028 1.37964 0
M  V30 21509 O 1963.06 -1.0634 1.71037 0
M  V30 21510 C 1960.13 -1.53995 3.10623 0
M  V30 21511 C 1959.19 -0.93791 4.18929 0
M  V30 21512 C 1958.42 -1.99075 4.95182 0
M  V30 21513 O 1958.64 -3.20777 4.71655 0
M  V30 21514 O 1957.58 -1.60111 5.80214 0
M  V30 21515 H 1961.4 0.202567 3.03024 0
M  V30 21516 H 1958.99 0.165122 1.48485 0
M  V30 21517 H 1960.87 -2.18191 3.60514 0
M  V30 21518 H 1959.55 -2.16167 2.40943 0
M  V30 21519 H 1958.45 -0.25886 3.73203 0
M  V30 21520 H 1959.79 -0.360217 4.9088 0
M  V30 21521 N 1961.44 -1.57047 0.131923 0
M  V30 21522 C 1962.67 -1.99989 -0.530289 0
M  V30 21523 C 1963.08 -1.01182 -1.59397 0
M  V30 21524 O 1962.44 -0.00657368 -1.82499 0
M  V30 21525 C 1962.49 -3.42898 -1.14469 0
M  V30 21526 O 1962.21 -4.37926 -0.123503 0
M  V30 21527 C 1963.71 -4.0104 -1.88897 0
M  V30 21528 H 1960.93 -0.656371 -0.139348 0
M  V30 21529 H 1963.48 -2.03291 0.222069 0
M  V30 21530 H 1961.63 -3.40495 -1.84775 0
M  V30 21531 H 1962.04 -5.21376 -0.571587 0
M  V30 21532 H 1963.52 -5.03077 -2.27196 0
M  V30 21533 H 1964 -3.40903 -2.76915 0
M  V30 21534 H 1964.6 -4.07027 -1.23324 0
M  V30 21535 N 1962.92 0.141865 -1.5696 0
M  V30 21536 C 1964.33 0.494676 -1.5174 0
M  V30 21537 C 1964.53 1.83101 -0.8412 0
M  V30 21538 O 1963.59 2.49085 -0.413886 0
M  V30 21539 C 1964.9 0.500247 -2.9651 0
M  V30 21540 C 1966.45 0.585404 -3.07477 0
M  V30 21541 C 1966.92 0.621588 -4.53762 0
M  V30 21542 N 1968.42 0.683668 -4.58127 0
M  V30 21543 C 1969.15 0.732734 -5.68699 0
M  V30 21544 N 1968.65 0.740833 -6.88828 0
M  V30 21545 N 1970.44 0.774006 -5.56745 0
M  V30 21546 H 1962.59 -0.734022 -1.99314 0
M  V30 21547 H 1964.85 -0.268231 -0.909261 0
M  V30 21548 H 1964.56 -0.413562 -3.4926 0
M  V30 21549 H 1964.43 1.33632 -3.52735 0
M  V30 21550 H 1966.82 1.48963 -2.54743 0
M  V30 21551 H 1966.9 -0.277919 -2.54286 0
M  V30 21552 H 1966.55 -0.278504 -5.07136 0
M  V30 21553 H 1966.48 1.50147 -5.04741 0
M  V30 21554 H 1968.97 0.6845 -3.71649 0
M  V30 21555 H 1969.28 0.780262 -7.68851 0
M  V30 21556 H 1967.62 0.708625 -6.91378 0
M  V30 21557 H 1970.82 0.764885 -4.61809 0
M  V30 21558 H 1970.99 0.808779 -6.42933 0
M  V30 21559 N 1964.39 1.52136 0.411372 0
M  V30 21560 C 1965.33 1.71544 1.52005 0
M  V30 21561 C 1966.34 0.595859 1.51504 0
M  V30 21562 O 1967.53 0.870952 1.5581 0
M  V30 21563 C 1964.63 1.73867 2.90901 0
M  V30 21564 C 1963.8 3.02826 3.15619 0
M  V30 21565 C 1962.86 2.96991 4.34376 0
M  V30 21566 O 1961.89 3.70901 4.31765 0
M  V30 21567 N 1963.09 2.14626 5.39366 0
M  V30 21568 H 1965.85 2.67192 1.35752 0
M  V30 21569 H 1963.41 1.50346 0.600643 0
M  V30 21570 H 1965.41 1.67498 3.68411 0
M  V30 21571 H 1963.98 0.85702 3.00623 0
M  V30 21572 H 1963.2 3.22861 2.26174 0
M  V30 21573 H 1964.48 3.8814 3.28976 0
M  V30 21574 H 1963.88 1.54003 5.44334 0
M  V30 21575 H 1962.44 2.14116 6.15628 0
M  V30 21576 N 1965.87 -0.668464 1.42721 0
M  V30 21577 C 1966.82 -1.78184 1.46694 0
M  V30 21578 C 1967.79 -1.63023 0.318213 0
M  V30 21579 O 1968.98 -1.83486 0.523198 0
M  V30 21580 C 1966.12 -3.16254 1.3812 0
M  V30 21581 C 1965.23 -3.42657 2.63078 0
M  V30 21582 C 1964.36 -4.7049 2.46602 0
M  V30 21583 C 1963.4 -4.89948 3.66902 0
M  V30 21584 N 1962.54 -6.09027 3.49329 0
M  V30 21585 H 1967.38 -1.74123 2.41837 0
M  V30 21586 H 1964.92 -0.849937 1.2006 0
M  V30 21587 H 1966.87 -3.96051 1.31146 0
M  V30 21588 H 1965.5 -3.19423 0.46569 0
M  V30 21589 H 1964.56 -2.57068 2.80393 0
M  V30 21590 H 1965.87 -3.52926 3.52484 0
M  V30 21591 H 1965.02 -5.58388 2.37249 0
M  V30 21592 H 1963.76 -4.62515 1.54696 0
M  V30 21593 H 1962.77 -4.0049 3.7668 0
M  V30 21594 H 1963.99 -4.99764 4.59797 0
M  V30 21595 H 1961.94 -6.02213 2.60146 0
M  V30 21596 H 1961.85 -6.20186 4.32326 0
M  V30 21597 H 1963.12 -6.99587 3.438 0
M  V30 21598 N 1967.35 -1.28999 -0.905381 0
M  V30 21599 C 1968.28 -1.16189 -2.0254 0
M  V30 21600 C 1969.26 -0.0575293 -1.70003 0
M  V30 21601 O 1970.45 -0.236004 -1.92761 0
M  V30 21602 C 1967.58 -0.831704 -3.37194 0
M  V30 21603 C 1966.53 -1.89176 -3.83922 0
M  V30 21604 C 1965.86 -1.41501 -5.15637 0
M  V30 21605 C 1967.16 -3.29971 -4.04866 0
M  V30 21606 H 1968.85 -2.09886 -2.13514 0
M  V30 21607 H 1966.4 -1.0105 -1.02591 0
M  V30 21608 H 1968.35 -0.728825 -4.1505 0
M  V30 21609 H 1967.07 0.140958 -3.26296 0
M  V30 21610 H 1965.73 -1.98393 -3.08279 0
M  V30 21611 H 1965.38 -0.431182 -5.01149 0
M  V30 21612 H 1965.08 -2.12391 -5.47872 0
M  V30 21613 H 1966.61 -1.32552 -5.96039 0
M  V30 21614 H 1968.02 -3.23628 -4.73221 0
M  V30 21615 H 1966.42 -3.98768 -4.48447 0
M  V30 21616 H 1967.49 -3.73369 -3.09393 0
M  V30 21617 N 1968.83 1.11497 -1.11383 0
M  V30 21618 C 1969.78 2.19602 -0.766658 0
M  V30 21619 C 1970.77 1.67668 0.241612 0
M  V30 21620 O 1971.98 1.79717 0.100956 0
M  V30 21621 H 1968.35 0.715952 -0.230037 0
M  V30 21622 H 1970.32 2.46131 -1.68707 0
M  V30 21623 C 1969.07 3.46968 -0.225442 0
M  V30 21624 H 1968.4 3.87284 -0.992544 0
M  V30 21625 H 1969.84 4.23995 -0.0207066 0
M  V30 21626 C 1968.29 3.20311 1.04414 0
M  V30 21627 O 1968.82 3.40956 2.12395 0
M  V30 21628 N 1967.03 2.7405 0.966692 0
M  V30 21629 H 1966.58 2.5745 0.0878667 0
M  V30 21630 H 1966.54 2.56591 1.81682 0
M  V30 21631 N 1970.31 0.904053 1.29092 0
M  V30 21632 C 1971.55 0.532992 1.95671 0
M  V30 21633 C 1971.89 -0.919194 1.71069 0
M  V30 21634 O 1971.16 -1.6523 1.02612 0
M  V30 21635 C 1971.44 0.831252 3.50374 0
M  V30 21636 C 1971.3 2.33546 3.84417 0
M  V30 21637 C 1972.62 0.320724 4.3893 0
M  V30 21638 H 1969.74 0.195117 0.710703 0
M  V30 21639 H 1972.38 1.13153 1.52632 0
M  V30 21640 H 1970.53 0.321853 3.87165 0
M  V30 21641 H 1972.2 2.91473 3.57549 0
M  V30 21642 H 1970.44 2.79442 3.31805 0
M  V30 21643 H 1971.11 2.49471 4.9241 0
M  V30 21644 H 1973.59 0.756974 4.09157 0
M  V30 21645 H 1972.47 0.55858 5.4605 0
M  V30 21646 H 1972.73 -0.778699 4.35188 0
M  V30 21647 N 1971.79 -1.4279 0.666995 0
M  V30 21648 C 1973.01 -2.06504 0.192596 0
M  V30 21649 C 1973.44 -1.49743 -1.13836 0
M  V30 21650 O 1972.79 -0.612797 -1.7063 0
M  V30 21651 C 1972.84 -3.60366 0.129775 0
M  V30 21652 O 1971.95 -4.0237 -0.904018 0
M  V30 21653 H 1971.29 -0.656244 0.101194 0
M  V30 21654 H 1973.82 -1.83059 0.913807 0
M  V30 21655 H 1973.83 -4.07971 -0.0489739 0
M  V30 21656 H 1972.5 -4.01054 1.1013 0
M  V30 21657 H 1971.08 -3.66329 -0.696943 0
M  V30 21658 N 1973.26 -0.409806 -1.52179 0
M  V30 21659 C 1974.49 0.165235 -2.06239 0
M  V30 21660 C 1974.91 1.38804 -1.2798 0
M  V30 21661 O 1974.26 1.79458 -0.331843 0
M  V30 21662 C 1974.31 0.514997 -3.57813 0
M  V30 21663 O 1974.04 -0.659248 -4.33111 0
M  V30 21664 C 1975.54 1.1437 -4.28293 0
M  V30 21665 H 1972.76 0.0200917 -0.670699 0
M  V30 21666 H 1975.3 -0.580955 -1.96074 0
M  V30 21667 H 1973.46 1.21108 -3.67983 0
M  V30 21668 H 1973.87 -0.367126 -5.23214 0
M  V30 21669 H 1975.34 1.33863 -5.35523 0
M  V30 21670 H 1975.82 2.11699 -3.84812 0
M  V30 21671 H 1976.43 0.487795 -4.22493 0
M  V30 21672 N 1974.74 1.56975 -0.14025 0
M  V30 21673 C 1975.69 2.16418 0.802003 0
M  V30 21674 C 1976.66 1.09512 1.24885 0
M  V30 21675 O 1977.84 1.37522 1.32259 0
M  V30 21676 C 1974.98 2.78465 2.03841 0
M  V30 21677 C 1974.1 3.99743 1.63798 0
M  V30 21678 C 1973.23 4.4981 2.82567 0
M  V30 21679 C 1972.27 5.63569 2.38865 0
M  V30 21680 N 1971.41 6.08285 3.5062 0
M  V30 21681 H 1976.25 2.96602 0.288284 0
M  V30 21682 H 1973.78 1.46519 0.130587 0
M  V30 21683 H 1975.74 3.12581 2.76314 0
M  V30 21684 H 1974.37 2.00936 2.52635 0
M  V30 21685 H 1973.42 3.71651 0.811169 0
M  V30 21686 H 1974.74 4.82177 1.27697 0
M  V30 21687 H 1973.89 4.85945 3.63238 0
M  V30 21688 H 1972.63 3.66369 3.21908 0
M  V30 21689 H 1971.63 5.27017 1.56632 0
M  V30 21690 H 1972.86 6.48791 2.00617 0
M  V30 21691 H 1970.81 5.2778 3.89595 0
M  V30 21692 H 1970.72 6.85628 3.18512 0
M  V30 21693 H 1971.99 6.49063 4.31668 0
M  V30 21694 N 1976.22 -0.133539 1.57033 0
M  V30 21695 C 1977.15 -1.16595 2.02306 0
M  V30 21696 C 1978.13 -1.44031 0.904933 0
M  V30 21697 O 1979.32 -1.54721 1.17367 0
M  V30 21698 C 1976.45 -2.49581 2.41509 0
M  V30 21699 C 1975.4 -2.36639 3.56631 0
M  V30 21700 C 1974.73 -3.74457 3.81688 0
M  V30 21701 C 1976.03 -1.83912 4.88849 0
M  V30 21702 H 1977.72 -0.789456 2.88804 0
M  V30 21703 H 1975.27 -0.378309 1.38942 0
M  V30 21704 H 1977.22 -3.22043 2.71783 0
M  V30 21705 H 1975.94 -2.89093 1.51964 0
M  V30 21706 H 1974.6 -1.66628 3.26544 0
M  V30 21707 H 1974.25 -4.11428 2.89372 0
M  V30 21708 H 1973.95 -3.66655 4.59171 0
M  V30 21709 H 1975.47 -4.48446 4.14401 0
M  V30 21710 H 1976.89 -2.46178 5.17754 0
M  V30 21711 H 1975.28 -1.86967 5.70231 0
M  V30 21712 H 1976.35 -0.795669 4.78327 0
M  V30 21713 N 1977.7 -1.52352 -0.403298 0
M  V30 21714 C 1979.11 -1.41285 -0.742343 0
M  V30 21715 C 1979.31 -0.521946 -1.94623 0
M  V30 21716 O 1978.37 0.0100547 -2.52498 0
M  V30 21717 C 1979.68 -2.83907 -0.990819 0
M  V30 21718 C 1981.23 -2.93289 -1.09318 0
M  V30 21719 C 1981.71 -4.36892 -1.37437 0
M  V30 21720 N 1983.2 -4.40153 -1.4429 0
M  V30 21721 C 1983.93 -5.48333 -1.67686 0
M  V30 21722 N 1983.43 -6.66622 -1.88647 0
M  V30 21723 N 1985.22 -5.35856 -1.69748 0
M  V30 21724 H 1977.37 -2.08806 0.389077 0
M  V30 21725 H 1979.63 -0.941383 0.111813 0
M  V30 21726 H 1979.34 -3.51247 -0.178511 0
M  V30 21727 H 1979.21 -3.25302 -1.9094 0
M  V30 21728 H 1981.6 -2.26127 -1.89607 0
M  V30 21729 H 1981.68 -2.55343 -0.152822 0
M  V30 21730 H 1981.33 -5.04616 -0.576634 0
M  V30 21731 H 1981.26 -4.72379 -2.32734 0
M  V30 21732 H 1983.75 -3.54888 -1.29857 0
M  V30 21733 H 1984.06 -7.44848 -2.05965 0
M  V30 21734 H 1982.41 -6.69676 -1.859 0
M  V30 21735 H 1985.6 -4.42419 -1.52914 0
M  V30 21736 H 1985.77 -6.20237 -1.87642 0
M  V30 21737 N 1979.18 0.660885 -1.43074 0
M  V30 21738 C 1980.11 1.78641 -1.43597 0
M  V30 21739 C 1981.12 1.59355 -0.333119 0
M  V30 21740 O 1982.31 1.68218 -0.597082 0
M  V30 21741 C 1979.41 3.15957 -1.22575 0
M  V30 21742 C 1978.58 3.61969 -2.45556 0
M  V30 21743 C 1977.64 4.78062 -2.19871 0
M  V30 21744 O 1976.67 4.87893 -2.93171 0
M  V30 21745 N 1977.87 5.67738 -1.21053 0
M  V30 21746 H 1980.63 1.78672 -2.40617 0
M  V30 21747 H 1978.2 0.844466 -1.38132 0
M  V30 21748 H 1980.19 3.91298 -1.03287 0
M  V30 21749 H 1978.76 3.10742 -0.34029 0
M  V30 21750 H 1977.98 2.77155 -2.80319 0
M  V30 21751 H 1979.27 3.89455 -3.27418 0
M  V30 21752 H 1978.66 5.6246 -0.604562 0
M  V30 21753 H 1977.22 6.42832 -1.0775 0
M  V30 21754 N 1980.65 1.29477 0.898527 0
M  V30 21755 C 1981.58 1.17262 2.01921 0
M  V30 21756 C 1982.57 0.0665442 1.6997 0
M  V30 21757 O 1983.75 0.246223 1.92633 0
M  V30 21758 C 1980.88 0.849575 3.36748 0
M  V30 21759 C 1979.83 1.91209 3.82914 0
M  V30 21760 C 1979.16 1.44234 5.14879 0
M  V30 21761 C 1980.46 3.32113 4.03111 0
M  V30 21762 H 1982.15 2.11015 2.12398 0
M  V30 21763 H 1979.7 1.01592 1.02054 0
M  V30 21764 H 1981.65 0.750826 4.14657 0
M  V30 21765 H 1980.38 -0.123652 3.26366 0
M  V30 21766 H 1979.04 2.00025 3.07222 0
M  V30 21767 H 1978.68 0.457753 5.00913 0
M  V30 21768 H 1978.38 2.15293 5.46738 0
M  V30 21769 H 1979.91 1.35711 5.95327 0
M  V30 21770 H 1981.32 3.26133 4.71498 0
M  V30 21771 H 1979.72 4.0114 4.46326 0
M  V30 21772 H 1980.79 3.75004 3.07408 0
M  V30 21773 N 1982.13 -1.10905 1.11972 0
M  V30 21774 C 1983.04 -2.20682 0.796029 0
M  V30 21775 C 1984.06 -1.72689 -0.213158 0
M  V30 21776 O 1985.23 -2.01343 -0.047955 0
M  V30 21777 C 1982.3 -3.45797 0.250055 0
M  V30 21778 C 1981.36 -4.08549 1.31855 0
M  V30 21779 C 1980.59 -5.27692 0.798538 0
M  V30 21780 O 1980.82 -5.69202 -0.369435 0
M  V30 21781 O 1979.75 -5.81174 1.5659 0
M  V30 21782 H 1983.58 -2.50794 1.71278 0
M  V30 21783 H 1981.16 -1.19548 0.896024 0
M  V30 21784 H 1983.04 -4.21371 -0.0497791 0
M  V30 21785 H 1981.72 -3.17324 -0.639327 0
M  V30 21786 H 1980.63 -3.34682 1.67148 0
M  V30 21787 H 1981.96 -4.41215 2.18153 0
M  V30 21788 N 1983.61 -0.910886 -1.2861 0
M  V30 21789 C 1984.52 -0.402088 -2.31129 0
M  V30 21790 C 1985.54 0.508811 -1.66394 0
M  V30 21791 O 1986.71 0.395691 -1.97475 0
M  V30 21792 C 1983.78 0.352182 -3.44907 0
M  V30 21793 C 1982.84 -0.59159 -4.25204 0
M  V30 21794 C 1982.07 0.126778 -5.33549 0
M  V30 21795 O 1982.29 1.34897 -5.54219 0
M  V30 21796 O 1981.23 -0.536442 -5.99505 0
M  V30 21797 H 1985.05 -1.25289 -2.76652 0
M  V30 21798 H 1982.64 -0.675604 -1.33251 0
M  V30 21799 H 1984.52 0.778285 -4.14151 0
M  V30 21800 H 1983.2 1.17886 -3.01471 0
M  V30 21801 H 1982.1 -1.06703 -3.5856 0
M  V30 21802 H 1983.44 -1.38501 -4.72312 0
M  V30 21803 N 1985.09 1.42434 -0.674558 0
M  V30 21804 C 1986 2.346 0.00398919 0
M  V30 21805 C 1987.01 1.55078 0.789109 0
M  V30 21806 O 1988.19 1.87647 0.731485 0
M  V30 21807 C 1985.26 3.33607 0.94379 0
M  V30 21808 C 1984.32 4.29026 0.153229 0
M  V30 21809 C 1983.55 5.23304 1.04827 0
M  V30 21810 O 1983.77 5.2251 2.28779 0
M  V30 21811 O 1982.71 5.99742 0.509202 0
M  V30 21812 H 1986.53 2.94161 -0.755189 0
M  V30 21813 H 1984.12 1.42933 -0.434794 0
M  V30 21814 H 1986 3.94431 1.4833 0
M  V30 21815 H 1984.67 2.76519 1.68282 0
M  V30 21816 H 1983.58 3.71616 -0.430381 0
M  V30 21817 H 1984.91 4.89155 -0.546686 0
M  V30 21818 N 1986.57 0.417871 1.51959 0
M  V30 21819 C 1987.98 0.0691743 1.5945 0
M  V30 21820 C 1988.18 -1.41946 1.43016 0
M  V30 21821 O 1987.24 -2.18728 1.26152 0
M  V30 21822 C 1988.55 0.571902 2.95211 0
M  V30 21823 C 1990.1 0.530639 3.08469 0
M  V30 21824 C 1990.57 1.01002 4.46724 0
M  V30 21825 N 1992.07 0.967199 4.5299 0
M  V30 21826 C 1992.8 1.30921 5.58254 0
M  V30 21827 N 1992.3 1.72311 6.7103 0
M  V30 21828 N 1994.09 1.22862 5.48508 0
M  V30 21829 H 1986.24 1.38668 1.60888 0
M  V30 21830 H 1988.5 0.570206 0.757344 0
M  V30 21831 H 1988.21 1.6127 3.12546 0
M  V30 21832 H 1988.08 -0.0137455 3.77197 0
M  V30 21833 H 1990.47 -0.50113 2.90814 0
M  V30 21834 H 1990.55 1.15245 2.28369 0
M  V30 21835 H 1990.2 2.04016 4.65124 0
M  V30 21836 H 1990.13 0.364935 5.25334 0
M  V30 21837 H 1992.62 0.663 3.72039 0
M  V30 21838 H 1992.93 1.96696 7.47349 0
M  V30 21839 H 1991.27 1.76222 6.72288 0
M  V30 21840 H 1994.47 0.904063 4.59287 0
M  V30 21841 H 1994.64 1.49846 6.30437 0
M  V30 21842 N 1988.04 -1.56898 0.148573 0
M  V30 21843 C 1988.99 -2.1813 -0.807596 0
M  V30 21844 C 1989.99 -1.13875 -1.25415 0
M  V30 21845 O 1991.19 -1.32122 -1.22245 0
M  V30 21846 H 1987.57 -0.698471 -0.278644 0
M  V30 21847 H 1989.54 -2.97203 -0.266972 0
M  V30 21848 C 1988.29 -2.81852 -2.03604 0
M  V30 21849 H 1987.61 -3.6179 -1.70141 0
M  V30 21850 H 1989.05 -3.28196 -2.68446 0
M  V30 21851 C 1987.51 -1.80441 -2.84504 0
M  V30 21852 O 1988.04 -1.27584 -3.809 0
M  V30 21853 N 1986.25 -1.49709 -2.49069 0
M  V30 21854 H 1985.79 -1.92884 -1.70744 0
M  V30 21855 H 1985.75 -0.821041 -3.0349 0
M  V30 21856 N 1989.52 0.125209 -1.57102 0
M  V30 21857 C 1990.75 0.852378 -1.89075 0
M  V30 21858 C 1991.17 1.72938 -0.739878 0
M  V30 21859 O 1990.53 1.78633 0.309828 0
M  V30 21860 C 1990.58 1.66688 -3.19762 0
M  V30 21861 O 1989.68 2.77324 -3.0523 0
M  V30 21862 H 1989.02 0.236103 -0.620606 0
M  V30 21863 H 1991.55 0.109473 -2.04307 0
M  V30 21864 H 1991.56 2.0574 -3.52328 0
M  V30 21865 H 1990.24 1.02303 -4.03121 0
M  V30 21866 H 1988.82 2.41519 -2.84118 0
M  V30 21867 N 1991 1.52564 0.395213 0
M  V30 21868 C 1991.93 1.79867 1.48897 0
M  V30 21869 C 1992.91 0.650351 1.57176 0
M  V30 21870 O 1994.1 0.897328 1.72226 0
M  V30 21871 C 1991.23 1.96192 2.86576 0
M  V30 21872 C 1990.18 3.11854 2.9314 0
M  V30 21873 C 1989.51 3.13424 4.33208 0
M  V30 21874 C 1990.81 4.51046 2.63353 0
M  V30 21875 H 1992.5 2.71457 1.26299 0
M  V30 21876 H 1990.05 1.30621 0.606145 0
M  V30 21877 H 1992 2.13875 3.63091 0
M  V30 21878 H 1990.72 1.01286 3.10498 0
M  V30 21879 H 1989.38 2.93944 2.19072 0
M  V30 21880 H 1989.03 2.16212 4.5416 0
M  V30 21881 H 1988.73 3.91117 4.38522 0
M  V30 21882 H 1990.25 3.33254 5.11639 0
M  V30 21883 H 1991.67 4.6909 3.29587 0
M  V30 21884 H 1990.07 5.3076 2.80024 0
M  V30 21885 H 1991.14 4.58187 1.58722 0
M  V30 21886 N 1992.48 -0.653289 1.43422 0
M  V30 21887 C 1993.41 -1.77877 1.44543 0
M  V30 21888 C 1994.42 -1.59177 0.341566 0
M  V30 21889 O 1995.61 -1.67899 0.605995 0
M  V30 21890 C 1992.71 -3.15302 1.24249 0
M  V30 21891 C 1991.89 -3.60661 2.47472 0
M  V30 21892 C 1990.94 -4.76889 2.22403 0
M  V30 21893 O 1989.97 -4.86332 2.95754 0
M  V30 21894 N 1991.17 -5.67088 1.24062 0
M  V30 21895 H 1993.94 -1.77394 2.41561 0
M  V30 21896 H 1991.5 -0.837129 1.38578 0
M  V30 21897 H 1993.49 -3.90744 1.05361 0
M  V30 21898 H 1992.06 -3.10557 0.356765 0
M  V30 21899 H 1991.28 -2.75664 2.81785 0
M  V30 21900 H 1992.57 -3.87713 3.29478 0
M  V30 21901 H 1991.97 -5.62132 0.634383 0
M  V30 21902 H 1990.52 -6.42252 1.11158 0
M  V30 21903 N 1993.96 -1.29952 -0.891648 0
M  V30 21904 C 1995.23 -1.09057 -1.62376 0
M  V30 21905 C 1995.61 0.362482 -2.07965 0
M  V30 21906 O 1994.96 1.35277 -1.84153 0
M  V30 21907 C 1995.17 -2.08543 -2.79841 0
M  V30 21908 C 1996.52 -2.39899 -3.50333 0
M  V30 21909 O 1997.54 -2.06801 -2.90021 0
M  V30 21910 O 1996.4 -2.96487 -4.59083 0
M  V30 21911 H 1993.5 -0.418386 -0.71336 0
M  V30 21912 H 1996.04 -1.41353 -0.939009 0
M  V30 21913 H 1994.81 -3.06378 -2.43409 0
M  V30 21914 H 1994.44 -1.77024 -3.56017 0
M  V30 21915 N 1995.44 1.1031 -1.12559 0
M  V30 21916 C 1996.37 2.16497 -0.752435 0
M  V30 21917 C 1997.38 1.61285 0.221548 0
M  V30 21918 O 1998.57 1.785 0.00269501 0
M  V30 21919 C 1995.67 3.38772 -0.0931525 0
M  V30 21920 C 1994.84 4.23422 -1.09693 0
M  V30 21921 C 1993.9 5.24141 -0.465028 0
M  V30 21922 O 1992.93 5.58024 -1.1224 0
M  V30 21923 N 1994.13 5.75411 0.76697 0
M  V30 21924 H 1996.89 2.49118 -1.66614 0
M  V30 21925 H 1994.46 1.25941 -1.01737 0
M  V30 21926 H 1996.45 4.03256 0.341604 0
M  V30 21927 H 1995.02 3.04116 0.723336 0
M  V30 21928 H 1994.24 3.55215 -1.70927 0
M  V30 21929 H 1995.53 4.7681 -1.77565 0
M  V30 21930 H 1994.92 5.50084 1.32 0
M  V30 21931 H 1993.48 6.41673 1.14453 0
M  V30 21932 N 1996.91 0.917694 1.28125 0
M  V30 21933 C 1997.84 0.426179 2.29578 0
M  V30 21934 C 1998.82 -0.508289 1.62328 0
M  V30 21935 O 2000.01 -0.415181 1.8971 0
M  V30 21936 C 1997.14 -0.331007 3.45719 0
M  V30 21937 C 1996.09 0.51469 4.24894 0
M  V30 21938 C 1995.42 -0.371069 5.33411 0
M  V30 21939 C 1996.72 1.774 4.9125 0
M  V30 21940 H 1998.41 1.27403 2.7094 0
M  V30 21941 H 1995.96 0.614065 1.30251 0
M  V30 21942 H 1997.91 -0.68573 4.15783 0
M  V30 21943 H 1996.64 -1.2128 3.03247 0
M  V30 21944 H 1995.3 0.851986 3.56562 0
M  V30 21945 H 1994.94 -1.25152 4.87182 0
M  V30 21946 H 1994.64 0.19121 5.87289 0
M  V30 21947 H 1996.17 -0.721587 6.06321 0
M  V30 21948 H 1997.58 1.48795 5.53654 0
M  V30 21949 H 1995.98 2.27899 5.55141 0
M  V30 21950 H 1997.05 2.49947 4.15517 0
M  V30 21951 N 1998.39 -1.42074 0.682102 0
M  V30 21952 C 1999.67 -1.95126 0.136033 0
M  V30 21953 C 2000.05 -1.62218 -1.35088 0
M  V30 21954 O 1999.4 -0.922124 -2.09067 0
M  V30 21955 C 1999.61 -3.46548 0.412954 0
M  V30 21956 C 2000.95 -4.23289 0.333404 0
M  V30 21957 O 2001.98 -3.54505 0.34711 0
M  V30 21958 O 2000.84 -5.45773 0.281884 0
M  V30 21959 H 1997.93 -0.826969 0.00711447 0
M  V30 21960 H 2000.48 -1.51864 0.757335 0
M  V30 21961 H 1999.25 -3.63733 1.4427 0
M  V30 21962 H 1998.87 -3.96875 -0.239993 0
M  V30 21963 N 1999.87 -0.425924 -1.51735 0
M  V30 21964 C 2000.78 0.39769 -2.31205 0
M  V30 21965 C 2001.8 1.0382 -1.39633 0
M  V30 21966 O 2002.97 1.03606 -1.72707 0
M  V30 21967 C 2000.04 1.49033 -3.13033 0
M  V30 21968 C 1999.1 0.871143 -4.20368 0
M  V30 21969 C 1998.33 1.91172 -4.98286 0
M  V30 21970 O 1998.55 3.13232 -4.76699 0
M  V30 21971 O 1997.49 1.5086 -5.82688 0
M  V30 21972 H 2001.31 -0.25075 -3.02663 0
M  V30 21973 H 1998.9 -0.188723 -1.48203 0
M  V30 21974 H 2000.78 2.12428 -3.6394 0
M  V30 21975 H 1999.46 2.12307 -2.44351 0
M  V30 21976 H 1998.36 0.199453 -3.73568 0
M  V30 21977 H 1999.7 0.282077 -4.91391 0
M  V30 21978 N 2001.35 1.56817 -0.156891 0
M  V30 21979 C 2002.26 2.20833 0.79183 0
M  V30 21980 C 2003.27 1.19558 1.26419 0
M  V30 21981 O 2004.45 1.5217 1.31933 0
M  V30 21982 C 2001.51 2.82517 2.00961 0
M  V30 21983 C 2000.58 3.98948 1.58552 0
M  V30 21984 C 1999.81 4.57681 2.74525 0
M  V30 21985 O 2000.03 4.15295 3.91007 0
M  V30 21986 O 1998.97 5.47786 2.49428 0
M  V30 21987 H 2002.79 3.02436 0.276846 0
M  V30 21988 H 2000.38 1.49233 0.0706167 0
M  V30 21989 H 2002.26 3.21683 2.72209 0
M  V30 21990 H 2000.93 2.03921 2.51392 0
M  V30 21991 H 1999.84 3.64479 0.84297 0
M  V30 21992 H 2001.17 4.79094 1.12826 0
M  V30 21993 N 2002.83 -0.116876 1.57166 0
M  V30 21994 C 2003.76 -1.1737 1.95702 0
M  V30 21995 C 2004.74 -1.39998 0.826998 0
M  V30 21996 O 2005.92 -1.54117 1.08536 0
M  V30 21997 C 2003.05 -2.52714 2.25507 0
M  V30 21998 C 2002.09 -2.465 3.48051 0
M  V30 21999 S 2002.93 -1.9026 5.00561 0
M  V30 22000 C 2004.08 -3.27272 5.3352 0
M  V30 22001 H 2004.32 -0.845087 2.85036 0
M  V30 22002 H 2001.85 -0.323716 1.50968 0
M  V30 22003 H 2003.81 -3.30587 2.43357 0
M  V30 22004 H 2002.47 -2.82753 1.36783 0
M  V30 22005 H 2001.66 -3.46202 3.66278 0
M  V30 22006 H 2001.26 -1.76749 3.29599 0
M  V30 22007 H 2003.55 -4.23489 5.28832 0
M  V30 22008 H 2004.5 -3.1387 6.34737 0
M  V30 22009 H 2004.91 -3.25798 4.60994 0
M  V30 22010 N 2004.3 -1.52772 -0.387116 0
M  V30 22011 C 2005.21 -1.8061 -1.49724 0
M  V30 22012 C 2006.23 -0.692981 -1.59605 0
M  V30 22013 O 2007.41 -0.98077 -1.75906 0
M  V30 22014 C 2004.47 -1.97083 -2.85236 0
M  V30 22015 C 2003.53 -3.20997 -2.8506 0
M  V30 22016 C 2002.76 -3.36675 -4.14108 0
M  V30 22017 O 2002.99 -2.57118 -5.09163 0
M  V30 22018 O 2001.92 -4.29938 -4.21233 0
M  V30 22019 H 2005.75 -2.7488 -1.2913 0
M  V30 22020 H 2003.33 -1.37886 -0.57514 0
M  V30 22021 H 2005.21 -2.09614 -3.65568 0
M  V30 22022 H 2003.89 -1.06002 -3.05852 0
M  V30 22023 H 2002.8 -3.13907 -2.03503 0
M  V30 22024 H 2004.13 -4.1193 -2.69396 0
M  V30 22025 N 2005.78 0.645673 -1.43767 0
M  V30 22026 C 2006.74 1.74013 -1.49171 0
M  V30 22027 C 2007.74 1.56355 -0.375476 0
M  V30 22028 O 2008.93 1.62115 -0.637529 0
M  V30 22029 C 2006.07 3.12961 -1.3516 0
M  V30 22030 H 2007.26 1.706 -2.46649 0
M  V30 22031 H 2004.81 0.858019 -1.30643 0
M  V30 22032 H 2005.55 3.2198 -0.387199 0
M  V30 22033 H 2005.33 3.27184 -2.16086 0
M  V30 22034 H 2006.82 3.92755 -1.41891 0
M  V30 22035 N 2007.26 1.30423 0.884744 0
M  V30 22036 C 2008.21 1.16824 1.9905 0
M  V30 22037 C 2009.18 0.0576868 1.66 0
M  V30 22038 O 2010.36 0.227913 1.89434 0
M  V30 22039 C 2007.5 0.866281 3.3405 0
M  V30 22040 C 2006.61 2.05874 3.79789 0
M  V30 22041 C 2005.75 1.69484 5.03437 0
M  V30 22042 C 2004.79 2.85224 5.41585 0
M  V30 22043 N 2003.93 2.49129 6.56414 0
M  V30 22044 H 2008.77 2.1142 2.10013 0
M  V30 22045 H 2006.3 1.05188 1.02829 0
M  V30 22046 H 2008.26 0.671829 4.11755 0
M  V30 22047 H 2006.89 -0.0428113 3.22772 0
M  V30 22048 H 2005.94 2.36443 2.97992 0
M  V30 22049 H 2007.25 2.92549 4.04001 0
M  V30 22050 H 2006.41 1.46416 5.88768 0
M  V30 22051 H 2005.15 0.799794 4.81097 0
M  V30 22052 H 2004.15 3.08958 4.5478 0
M  V30 22053 H 2005.38 3.75416 5.65897 0
M  V30 22054 H 2003.32 1.6213 6.35649 0
M  V30 22055 H 2003.24 3.29336 6.80495 0
M  V30 22056 H 2004.51 2.29417 7.44975 0
M  V30 22057 N 2008.74 -1.09711 1.13142 0
M  V30 22058 C 2009.67 -2.16095 0.763906 0
M  V30 22059 C 2010.68 -1.61401 -0.212992 0
M  V30 22060 O 2011.87 -1.78499 0.00677131 0
M  V30 22061 C 2008.97 -3.38718 0.111117 0
M  V30 22062 C 2008.14 -4.22834 1.11937 0
M  V30 22063 C 2007.2 -5.23887 0.492818 0
M  V30 22064 O 2006.23 -5.57421 1.15198 0
M  V30 22065 N 2007.43 -5.7581 -0.736444 0
M  V30 22066 H 2010.2 -2.48231 1.67933 0
M  V30 22067 H 2007.76 -1.254 1.02404 0
M  V30 22068 H 2009.75 -4.03431 -0.320214 0
M  V30 22069 H 2008.32 -3.04495 -0.707198 0
M  V30 22070 H 2007.54 -3.54303 1.72809 0
M  V30 22071 H 2008.83 -4.75862 1.80091 0
M  V30 22072 H 2008.23 -5.50776 -1.29081 0
M  V30 22073 H 2006.78 -6.42271 -1.11048 0
M  V30 22074 N 2010.22 -0.924476 -1.27637 0
M  V30 22075 C 2011.16 -0.411501 -2.28931 0
M  V30 22076 C 2012.16 0.502472 -1.61776 0
M  V30 22077 O 2013.36 0.382531 -1.75888 0
M  V30 22078 H 2009.74 -0.114496 -0.743233 0
M  V30 22079 H 2011.71 -1.27869 -2.69615 0
M  V30 22080 C 2010.46 0.323415 -3.46193 0
M  V30 22081 H 2009.78 -0.37068 -3.98078 0
M  V30 22082 H 2011.22 0.646821 -4.19037 0
M  V30 22083 C 2009.68 1.53523 -2.99887 0
M  V30 22084 O 2010.21 2.63407 -3.03281 0
M  V30 22085 N 2008.42 1.38594 -2.55421 0
M  V30 22086 H 2007.96 0.491939 -2.52859 0
M  V30 22087 H 2007.92 2.198 -2.24801 0
M  V30 22088 N 2011.69 1.41711 -0.689627 0
M  V30 22089 C 2012.62 2.33474 -0.0348045 0
M  V30 22090 C 2013.61 1.51494 0.773533 0
M  V30 22091 O 2014.79 1.8005 0.727705 0
M  V30 22092 C 2011.92 3.35259 0.906573 0
M  V30 22093 C 2010.87 4.27505 0.205762 0
M  V30 22094 C 2010.2 5.19616 1.26109 0
M  V30 22095 C 2011.5 5.14056 -0.92431 0
M  V30 22096 H 2013.19 2.88481 -0.801208 0
M  V30 22097 H 2010.74 1.3871 -0.386738 0
M  V30 22098 H 2012.69 3.98375 1.37386 0
M  V30 22099 H 2011.42 2.78589 1.70457 0
M  V30 22100 H 2010.08 3.65804 -0.241437 0
M  V30 22101 H 2009.72 4.59264 2.05147 0
M  V30 22102 H 2009.42 5.82167 0.797221 0
M  V30 22103 H 2010.95 5.85609 1.72901 0
M  V30 22104 H 2012.36 5.70774 -0.537573 0
M  V30 22105 H 2010.76 5.85517 -1.3149 0
M  V30 22106 H 2011.83 4.51574 -1.7666 0
M  V30 22107 N 2013.17 0.433965 1.51507 0
M  V30 22108 C 2014.08 -0.385423 2.31412 0
M  V30 22109 C 2015.1 -1.03078 1.40182 0
M  V30 22110 O 2016.27 -1.02688 1.73254 0
M  V30 22111 C 2013.34 -1.47371 3.13819 0
M  V30 22112 C 2012.4 -0.848838 4.20824 0
M  V30 22113 C 2011.63 -1.88527 4.99293 0
M  V30 22114 O 2011.86 -3.107 4.78353 0
M  V30 22115 O 2010.79 -1.47768 5.83479 0
M  V30 22116 H 2014.62 0.266798 3.02526 0
M  V30 22117 H 2012.2 0.19658 1.48101 0
M  V30 22118 H 2014.08 -2.10495 3.65061 0
M  V30 22119 H 2012.76 -2.11008 2.45474 0
M  V30 22120 H 2011.67 -0.179639 3.73668 0
M  V30 22121 H 2013 -0.256013 4.91534 0
M  V30 22122 N 2014.65 -1.56732 0.165206 0
M  V30 22123 C 2016.07 -1.58453 -0.191031 0
M  V30 22124 C 2016.27 -1.1803 -1.63313 0
M  V30 22125 O 2015.32 -0.889055 -2.3633 0
M  V30 22126 C 2016.64 -3.00582 0.0842414 0
M  V30 22127 C 2018.18 -3.12992 0.0219686 0
M  V30 22128 C 2018.66 -4.57203 0.270149 0
M  V30 22129 N 2020.15 -4.62688 0.217711 0
M  V30 22130 C 2020.88 -5.72113 0.383998 0
M  V30 22131 N 2020.38 -6.90118 0.609007 0
M  V30 22132 N 2022.17 -5.61187 0.320329 0
M  V30 22133 H 2014.32 -1.81296 1.1066 0
M  V30 22134 H 2016.59 -0.839986 0.439463 0
M  V30 22135 H 2016.29 -3.3461 1.083 0
M  V30 22136 H 2016.17 -3.71954 -0.62693 0
M  V30 22137 H 2018.55 -2.78794 -0.967358 0
M  V30 22138 H 2018.64 -2.44069 0.765755 0
M  V30 22139 H 2018.28 -4.92108 1.25666 0
M  V30 22140 H 2018.21 -5.24276 -0.494177 0
M  V30 22141 H 2020.7 -3.77868 0.0491965 0
M  V30 22142 H 2021.01 -7.69387 0.725507 0
M  V30 22143 H 2019.36 -6.91995 0.645549 0
M  V30 22144 H 2022.55 -4.67875 0.145176 0
M  V30 22145 H 2022.72 -6.46412 0.453351 0
M  V30 22146 N 2016.13 0.10854 -1.57226 0
M  V30 22147 C 2017.08 1.13867 -1.97531 0
M  V30 22148 C 2018.06 1.36505 -0.851775 0
M  V30 22149 O 2019.25 1.37422 -1.11554 0
M  V30 22150 C 2016.38 2.4625 -2.39198 0
M  V30 22151 C 2015.47 2.27043 -3.58207 0
M  V30 22152 N 2015.86 1.77671 -4.73568 0
M  V30 22153 C 2014.16 2.5766 -3.64043 0
M  V30 22154 C 2014.86 1.72418 -5.5556 0
M  V30 22155 N 2013.84 2.17145 -4.98346 0
M  V30 22156 H 2017.64 0.749664 -2.84178 0
M  V30 22157 H 2015.15 0.31615 -1.59293 0
M  V30 22158 H 2017.15 3.20769 -2.66295 0
M  V30 22159 H 2015.81 2.859 -1.5392 0
M  V30 22160 H 2016.82 1.47065 -4.96581 0
M  V30 22161 H 2013.5 3.00925 -2.89397 0
M  V30 22162 H 2014.89 1.35411 -6.58113 0
M  V30 22163 N 2017.61 1.52975 0.379009 0
M  V30 22164 C 2018.86 1.67728 1.12028 0
M  V30 22165 C 2019.17 0.428628 1.90846 0
M  V30 22166 O 2020.37 0.456461 2.67635 0
M  V30 22167 C 2018.83 2.96454 2.04066 0
M  V30 22168 C 2018.44 4.28534 1.30624 0
M  V30 22169 C 2020.18 3.20574 2.78267 0
M  V30 22170 C 2018.09 5.4836 2.21485 0
M  V30 22171 H 2017.02 0.624902 0.421917 0
M  V30 22172 H 2019.67 1.79474 0.382288 0
M  V30 22173 H 2018.05 2.78478 2.81542 0
M  V30 22174 H 2019.23 4.57097 0.583043 0
M  V30 22175 H 2017.54 4.10754 0.683407 0
M  V30 22176 H 2020.14 4.07279 3.4645 0
M  V30 22177 H 2020.48 2.36066 3.42898 0
M  V30 22178 H 2021.01 3.39162 2.0788 0
M  V30 22179 H 2017.75 6.35305 1.61455 0
M  V30 22180 H 2017.27 5.24095 2.91692 0
M  V30 22181 H 2018.95 5.82626 2.81346 0
M  V30 22182 N 2019.08 -0.63804 1.44107 0
M  V30 22183 C 2020.31 -1.43004 1.50215 0
M  V30 22184 C 2020.73 -1.87678 0.125903 0
M  V30 22185 O 2020.09 -1.58316 -0.883508 0
M  V30 22186 C 2020.14 -2.63112 2.46585 0
M  V30 22187 O 2019.24 -3.62706 1.9626 0
M  V30 22188 H 2018.59 -0.428173 0.507508 0
M  V30 22189 H 2021.12 -0.779402 1.89173 0
M  V30 22190 H 2021.13 -3.10742 2.64393 0
M  V30 22191 H 2019.8 -2.29941 3.46554 0
M  V30 22192 H 2018.38 -3.21932 1.88186 0
M  V30 22193 N 2020.56 -1.3089 -0.877815 0
M  V30 22194 C 2021.79 -1.23068 -1.66319 0
M  V30 22195 C 2022.21 0.205309 -1.8768 0
M  V30 22196 O 2021.56 1.13467 -1.42939 0
M  V30 22197 C 2021.61 -1.96305 -3.03557 0
M  V30 22198 O 2021.33 -3.34298 -2.83154 0
M  V30 22199 C 2022.84 -1.95228 -3.97996 0
M  V30 22200 H 2020.06 -0.425583 -0.518768 0
M  V30 22201 H 2022.6 -1.72636 -1.09623 0
M  V30 22202 H 2020.75 -1.50518 -3.56964 0
M  V30 22203 H 2021.17 -3.71486 -3.70268 0
M  V30 22204 H 2022.64 -2.50997 -4.91635 0
M  V30 22205 H 2023.12 -0.932904 -4.29178 0
M  V30 22206 H 2023.73 -2.40858 -3.50525 0
M  V30 22207 N 2022.04 1.0911 -1.13723 0
M  V30 22208 C 2022.97 2.17859 -0.840227 0
M  V30 22209 C 2023.95 1.68899 0.201778 0
M  V30 22210 O 2025.14 1.94107 0.0600046 0
M  V30 22211 C 2022.27 3.45922 -0.309024 0
M  V30 22212 C 2021.22 4.08234 -1.28565 0
M  V30 22213 C 2020.55 5.31162 -0.614064 0
M  V30 22214 C 2021.85 4.50354 -2.64534 0
M  V30 22215 H 2023.54 2.4296 -1.74959 0
M  V30 22216 H 2021.09 1.16771 -0.842653 0
M  V30 22217 H 2023.04 4.21306 -0.088895 0
M  V30 22218 H 2021.76 3.20353 0.635735 0
M  V30 22219 H 2020.42 3.34873 -1.49183 0
M  V30 22220 H 2020.07 5.01875 0.336272 0
M  V30 22221 H 2019.77 5.73807 -1.26566 0
M  V30 22222 H 2021.29 6.09267 -0.403293 0
M  V30 22223 H 2022.71 5.16948 -2.47866 0
M  V30 22224 H 2021.11 5.03894 -3.259 0
M  V30 22225 H 2022.18 3.62594 -3.21952 0
M  V30 22226 N 2023.52 0.931232 1.27145 0
M  V30 22227 C 2024.47 0.423636 2.2871 0
M  V30 22228 C 2025.46 -0.493886 1.62041 0
M  V30 22229 O 2026.67 -0.373198 1.76089 0
M  V30 22230 H 2023.04 0.118436 0.742615 0
M  V30 22231 H 2025.01 1.29297 2.68933 0
M  V30 22232 C 2023.76 -0.305051 3.46359 0
M  V30 22233 H 2023.08 0.391786 3.97876 0
M  V30 22234 H 2024.52 -0.62459 4.19374 0
M  V30 22235 C 2022.98 -1.5193 3.00697 0
M  V30 22236 O 2023.51 -2.61795 3.04674 0
M  V30 22237 N 2021.72 -1.37237 2.56153 0
M  V30 22238 H 2021.27 -0.478522 2.53116 0
M  V30 22239 H 2021.22 -2.18605 2.25963 0
M  V30 22240 N 2025 -1.41343 0.697132 0
M  V30 22241 C 2026.25 -2.00432 0.225852 0
M  V30 22242 C 2026.56 -1.55857 -1.18186 0
M  V30 22243 O 2027.77 -2.07516 -1.75069 0
M  V30 22244 C 2026.22 -3.58166 0.352888 0
M  V30 22245 C 2025.83 -4.11721 1.76607 0
M  V30 22246 C 2027.57 -4.2446 -0.0585393 0
M  V30 22247 C 2025.48 -5.61895 1.84467 0
M  V30 22248 H 2024.41 -0.749671 0.0806811 0
M  V30 22249 H 2027.06 -1.61804 0.865556 0
M  V30 22250 H 2025.44 -3.94405 -0.355093 0
M  V30 22251 H 2026.62 -3.86898 2.50293 0
M  V30 22252 H 2024.93 -3.57959 2.12731 0
M  V30 22253 H 2027.53 -5.34696 -0.0202684 0
M  V30 22254 H 2027.87 -4.01572 -1.09752 0
M  V30 22255 H 2028.41 -3.93261 0.599221 0
M  V30 22256 H 2025.14 -5.89612 2.86423 0
M  V30 22257 H 2024.66 -5.8864 1.15167 0
M  V30 22258 H 2026.34 -6.26692 1.60828 0
M  V30 22259 N 2026.48 -0.441993 -1.51275 0
M  V30 22260 C 2027.41 0.40297 -2.2563 0
M  V30 22261 C 2028.42 0.982305 -1.29825 0
M  V30 22262 O 2029.61 0.875653 -1.55546 0
M  V30 22263 C 2026.71 1.57618 -3.00016 0
M  V30 22264 C 2025.88 1.11489 -4.22953 0
M  V30 22265 C 2024.94 2.15876 -4.79879 0
M  V30 22266 O 2023.97 1.75121 -5.41591 0
M  V30 22267 N 2025.17 3.48408 -4.64319 0
M  V30 22268 H 2027.93 -0.234323 -2.98783 0
M  V30 22269 H 2025.5 -0.271138 -1.59613 0
M  V30 22270 H 2027.49 2.27084 -3.34985 0
M  V30 22271 H 2026.06 2.11873 -2.29845 0
M  V30 22272 H 2025.28 0.247136 -3.93425 0
M  V30 22273 H 2026.57 0.78415 -5.02721 0
M  V30 22274 H 2025.96 3.84249 -4.15173 0
M  V30 22275 H 2024.52 4.13755 -5.03637 0
M  V30 22276 N 2027.95 1.56642 -0.173515 0
M  V30 22277 C 2028.88 2.21076 0.751509 0
M  V30 22278 C 2029.86 1.16706 1.23749 0
M  V30 22279 O 2031.05 1.45142 1.29025 0
M  V30 22280 C 2028.18 2.85323 1.9801 0
M  V30 22281 C 2027.13 3.95751 1.62989 0
M  V30 22282 C 2026.46 4.47058 2.93332 0
M  V30 22283 C 2027.76 5.15234 0.856231 0
M  V30 22284 H 2029.45 2.98631 0.21442 0
M  V30 22285 H 2027 1.4364 0.101692 0
M  V30 22286 H 2028.95 3.29075 2.63226 0
M  V30 22287 H 2027.68 2.0514 2.54136 0
M  V30 22288 H 2026.34 3.52658 1.00141 0
M  V30 22289 H 2025.98 3.63663 3.47503 0
M  V30 22290 H 2025.68 5.21556 2.70652 0
M  V30 22291 H 2027.21 4.93497 3.59573 0
M  V30 22292 H 2028.62 5.55665 1.41102 0
M  V30 22293 H 2027.02 5.95663 0.728389 0
M  V30 22294 H 2028.09 4.84677 -0.147009 0
M  V30 22295 N 2029.43 -0.1002 1.57281 0
M  V30 22296 C 2030.66 -0.82219 1.90407 0
M  V30 22297 C 2031.08 -1.71739 0.767297 0
M  V30 22298 O 2030.44 -1.79103 -0.281369 0
M  V30 22299 C 2030.49 -1.61579 3.22373 0
M  V30 22300 O 2029.59 -2.72433 3.09603 0
M  V30 22301 H 2028.93 -0.2262 0.624283 0
M  V30 22302 H 2031.46 -0.0769557 2.04455 0
M  V30 22303 H 2031.47 -2.00109 3.55556 0
M  V30 22304 H 2030.15 -0.958772 4.04698 0
M  V30 22305 H 2028.72 -2.36968 2.87925 0
M  V30 22306 N 2030.91 -1.53174 -0.370891 0
M  V30 22307 C 2032.19 -1.59697 -1.12943 0
M  V30 22308 C 2032.57 -0.401233 -2.07252 0
M  V30 22309 O 2031.91 0.608973 -2.20236 0
M  V30 22310 C 2032.12 -2.94469 -1.87321 0
M  V30 22311 C 2033.47 -3.48856 -2.42043 0
M  V30 22312 O 2034.5 -2.96463 -1.97455 0
M  V30 22313 O 2033.36 -4.40436 -3.2354 0
M  V30 22314 H 2030.45 -0.644835 -0.5178 0
M  V30 22315 H 2033 -1.65514 -0.374583 0
M  V30 22316 H 2031.77 -3.72938 -1.18462 0
M  V30 22317 H 2031.39 -2.92119 -2.69727 0
M  V30 22318 N 2032.39 0.630389 -1.44443 0
M  V30 22319 C 2033.61 1.42206 -1.50971 0
M  V30 22320 C 2034.04 1.87609 -0.135854 0
M  V30 22321 O 2033.4 1.58782 0.8751 0
M  V30 22322 C 2033.44 2.61801 -2.47977 0
M  V30 22323 O 2032.55 3.6166 -1.98181 0
M  V30 22324 H 2031.89 0.425475 -0.509771 0
M  V30 22325 H 2034.42 0.769359 -1.89584 0
M  V30 22326 H 2034.43 3.09335 -2.66037 0
M  V30 22327 H 2033.1 2.281 -3.47769 0
M  V30 22328 H 2031.68 3.2093 -1.89891 0
M  V30 22329 N 2033.87 1.31354 0.870861 0
M  V30 22330 C 2034.81 1.18928 1.978 0
M  V30 22331 C 2035.78 0.07529 1.65929 0
M  V30 22332 O 2036.97 0.247992 1.89181 0
M  V30 22333 C 2034.11 0.901663 3.33113 0
M  V30 22334 C 2033.22 2.0989 3.77584 0
M  V30 22335 C 2032.36 1.74815 5.01611 0
M  V30 22336 C 2031.39 2.90952 5.38529 0
M  V30 22337 N 2030.53 2.56077 6.53734 0
M  V30 22338 H 2035.37 2.13636 2.07759 0
M  V30 22339 H 2032.91 1.06273 1.01708 0
M  V30 22340 H 2034.87 0.715464 4.11019 0
M  V30 22341 H 2033.5 -0.00857463 3.22799 0
M  V30 22342 H 2032.55 2.3959 2.95467 0
M  V30 22343 H 2033.86 2.96817 4.00875 0
M  V30 22344 H 2033.01 1.52652 5.87182 0
M  V30 22345 H 2031.75 0.850776 4.80222 0
M  V30 22346 H 2030.76 3.13764 4.51478 0
M  V30 22347 H 2031.98 3.81397 5.61884 0
M  V30 22348 H 2029.93 1.68863 6.33894 0
M  V30 22349 H 2029.85 3.36535 6.76964 0
M  V30 22350 H 2031.11 2.37306 7.425 0
M  V30 22351 N 2035.34 -1.08505 1.143 0
M  V30 22352 C 2036.29 -2.15397 0.829011 0
M  V30 22353 C 2037.26 -1.64728 -0.213016 0
M  V30 22354 O 2038.45 -1.90619 -0.0831625 0
M  V30 22355 C 2035.59 -3.43691 0.311546 0
M  V30 22356 C 2034.7 -4.08212 1.41375 0
M  V30 22357 C 2033.83 -5.24296 0.853639 0
M  V30 22358 C 2032.87 -5.80757 1.93359 0
M  V30 22359 N 2032.01 -6.88188 1.39073 0
M  V30 22360 H 2036.85 -2.41597 1.74456 0
M  V30 22361 H 2034.39 -1.18566 0.870668 0
M  V30 22362 H 2036.34 -4.17199 -0.00667521 0
M  V30 22363 H 2034.97 -3.17779 -0.567106 0
M  V30 22364 H 2034.03 -3.32474 1.84839 0
M  V30 22365 H 2035.34 -4.46196 2.2296 0
M  V30 22366 H 2034.49 -6.0474 0.487261 0
M  V30 22367 H 2033.23 -4.877 0.00682778 0
M  V30 22368 H 2032.24 -4.98967 2.30893 0
M  V30 22369 H 2033.46 -6.19412 2.78398 0
M  V30 22370 H 2031.41 -6.53553 0.566079 0
M  V30 22371 H 2031.32 -7.24992 2.14296 0
M  V30 22372 H 2032.59 -7.72366 1.05222 0
M  V30 22373 N 2036.82 -0.937962 -1.26649 0
M  V30 22374 C 2037.77 -0.443717 -2.26495 0
M  V30 22375 C 2038.74 0.494894 -1.58556 0
M  V30 22376 O 2039.92 0.411807 -1.86303 0
M  V30 22377 C 2037.06 0.287974 -3.43896 0
M  V30 22378 C 2036.18 -0.685936 -4.2652 0
M  V30 22379 C 2035.31 0.0666303 -5.31158 0
M  V30 22380 C 2034.35 -0.899313 -6.05457 0
M  V30 22381 N 2033.49 -0.17871 -7.01873 0
M  V30 22382 H 2038.33 -1.3001 -2.68144 0
M  V30 22383 H 2035.86 -0.652331 -1.31845 0
M  V30 22384 H 2037.82 0.728613 -4.10788 0
M  V30 22385 H 2036.45 1.10852 -3.03169 0
M  V30 22386 H 2035.5 -1.24509 -3.59446 0
M  V30 22387 H 2036.82 -1.42373 -4.7805 0
M  V30 22388 H 2035.97 0.566702 -6.04047 0
M  V30 22389 H 2034.71 0.837326 -4.80458 0
M  V30 22390 H 2033.71 -1.41054 -5.31398 0
M  V30 22391 H 2034.94 -1.66996 -6.58247 0
M  V30 22392 H 2032.89 0.573553 -6.53488 0
M  V30 22393 H 2032.8 -0.855891 -7.51139 0
M  V30 22394 H 2034.07 0.300374 -7.78921 0
M  V30 22395 N 2038.3 1.40971 -0.704618 0
M  V30 22396 C 2039.23 2.33424 -0.0595656 0
M  V30 22397 C 2040.21 1.52306 0.757422 0
M  V30 22398 O 2041.4 1.80812 0.708567 0
M  V30 22399 C 2038.53 3.36202 0.870964 0
M  V30 22400 C 2037.48 4.27699 0.160408 0
M  V30 22401 C 2036.81 5.20924 1.20591 0
M  V30 22402 C 2038.11 5.13047 -0.97878 0
M  V30 22403 H 2039.8 2.87615 -0.83176 0
M  V30 22404 H 2037.35 1.38292 -0.401428 0
M  V30 22405 H 2039.3 3.9981 1.33153 0
M  V30 22406 H 2038.02 2.80381 1.67493 0
M  V30 22407 H 2036.68 3.65527 -0.280222 0
M  V30 22408 H 2036.33 4.61414 2.00264 0
M  V30 22409 H 2036.03 5.8298 0.73543 0
M  V30 22410 H 2037.55 5.8741 1.6668 0
M  V30 22411 H 2038.97 5.70172 -0.598081 0
M  V30 22412 H 2037.36 5.8409 -1.37693 0
M  V30 22413 H 2038.43 4.49675 -1.8144 0
M  V30 22414 N 2039.78 0.45001 1.51039 0
M  V30 22415 C 2040.71 -0.390998 2.2584 0
M  V30 22416 C 2041.72 -0.975406 1.30344 0
M  V30 22417 O 2042.91 -0.867391 1.56008 0
M  V30 22418 C 2040.01 -1.56025 3.00848 0
M  V30 22419 C 2039.19 -1.09244 4.23538 0
M  V30 22420 C 2038.24 -2.13329 4.81017 0
M  V30 22421 O 2037.27 -1.72246 5.42513 0
M  V30 22422 N 2038.47 -3.45941 4.6616 0
M  V30 22423 H 2041.24 0.250165 2.98654 0
M  V30 22424 H 2038.8 0.279599 1.59467 0
M  V30 22425 H 2040.79 -2.25304 3.36185 0
M  V30 22426 H 2039.36 -2.10651 2.30965 0
M  V30 22427 H 2038.58 -0.226269 3.9355 0
M  V30 22428 H 2039.87 -0.757479 5.0313 0
M  V30 22429 H 2039.27 -3.82042 4.17205 0
M  V30 22430 H 2037.82 -4.11078 5.05824 0
M  V30 22431 N 2041.26 -1.56548 0.18182 0
M  V30 22432 C 2042.53 -1.88906 -0.507337 0
M  V30 22433 C 2042.91 -1.09334 -1.80581 0
M  V30 22434 O 2042.26 -0.190397 -2.27705 0
M  V30 22435 C 2042.47 -3.41085 -0.73904 0
M  V30 22436 C 2043.82 -4.11043 -1.06435 0
M  V30 22437 O 2044.84 -3.46461 -0.82722 0
M  V30 22438 O 2043.7 -5.2516 -1.51225 0
M  V30 22439 H 2040.8 -0.784135 -0.262794 0
M  V30 22440 H 2043.34 -1.68254 0.221041 0
M  V30 22441 H 2042.11 -3.90893 0.17847 0
M  V30 22442 H 2041.74 -3.67384 -1.52036 0
M  V30 22443 N 2042.73 0.0918577 -1.57332 0
M  V30 22444 C 2043.98 0.794757 -1.86252 0
M  V30 22445 C 2044.31 1.78575 -0.770794 0
M  V30 22446 O 2043.56 1.9428 0.235291 0
M  V30 22447 C 2043.86 1.55559 -3.2177 0
M  V30 22448 C 2043.53 0.706426 -4.45332 0
M  V30 22449 C 2042.19 0.472346 -4.78876 0
M  V30 22450 C 2044.54 0.116314 -5.2107 0
M  V30 22451 C 2041.87 -0.361657 -5.85584 0
M  V30 22452 C 2044.22 -0.70503 -6.28659 0
M  V30 22453 C 2042.89 -0.949172 -6.60717 0
M  V30 22454 H 2042.16 0.290822 -0.681545 0
M  V30 22455 H 2044.8 0.0561366 -1.91418 0
M  V30 22456 H 2043.11 2.36587 -3.12304 0
M  V30 22457 H 2044.81 2.1039 -3.41375 0
M  V30 22458 H 2041.4 0.898985 -4.19066 0
M  V30 22459 H 2045.58 0.284315 -4.95485 0
M  V30 22460 H 2040.84 -0.559757 -6.08832 0
M  V30 22461 H 2045.01 -1.16914 -6.86516 0
M  V30 22462 H 2042.64 -1.59721 -7.43232 0
M  V30 22463 N 2044.21 1.53368 0.362763 0
M  V30 22464 C 2045.18 1.7933 1.42736 0
M  V30 22465 C 2046.18 0.663794 1.4646 0
M  V30 22466 O 2047.37 0.932009 1.47171 0
M  V30 22467 C 2044.5 1.91792 2.81831 0
M  V30 22468 H 2045.69 2.74412 1.20989 0
M  V30 22469 H 2043.24 1.44488 0.596058 0
M  V30 22470 H 2043.98 0.987867 3.08888 0
M  V30 22471 H 2043.76 2.73948 2.80526 0
M  V30 22472 H 2045.25 2.13461 3.58921 0
M  V30 22473 N 2045.69 -0.62272 1.44776 0
M  V30 22474 C 2046.92 -1.41403 1.51723 0
M  V30 22475 C 2047.34 -1.87534 0.145802 0
M  V30 22476 O 2046.7 -1.59244 -0.866667 0
M  V30 22477 C 2046.75 -2.60482 2.49362 0
M  V30 22478 O 2045.85 -3.60604 2.00096 0
M  V30 22479 H 2045.19 -0.422766 0.51202 0
M  V30 22480 H 2047.72 -0.759294 1.89989 0
M  V30 22481 H 2047.73 -3.0792 2.67674 0
M  V30 22482 H 2046.41 -2.26253 3.48974 0
M  V30 22483 H 2044.98 -3.19918 1.9159 0
M  V30 22484 N 2047.17 -1.31814 -0.863883 0
M  V30 22485 C 2048.4 -1.24825 -1.65004 0
M  V30 22486 C 2048.81 0.185391 -1.87888 0
M  V30 22487 O 2048.17 1.11945 -1.44134 0
M  V30 22488 C 2048.22 -1.99514 -3.01457 0
M  V30 22489 O 2047.94 -3.37283 -2.79593 0
M  V30 22490 C 2049.44 -1.99438 -3.95903 0
M  V30 22491 H 2046.66 -0.431061 -0.514225 0
M  V30 22492 H 2049.21 -1.73789 -1.07786 0
M  V30 22493 H 2047.36 -1.54296 -3.55347 0
M  V30 22494 H 2047.77 -3.75392 -3.66307 0
M  V30 22495 H 2049.25 -2.56197 -4.88945 0
M  V30 22496 H 2049.73 -0.978372 -4.28164 0
M  V30 22497 H 2050.33 -2.44562 -3.4795 0
M  V30 22498 N 2048.65 1.07897 -1.14873 0
M  V30 22499 C 2049.89 1.80653 -0.921532 0
M  V30 22500 C 2050.23 1.8624 0.550287 0
M  V30 22501 O 2049.5 1.34206 1.4078 0
M  V30 22502 C 2049.78 3.26 -1.52958 0
M  V30 22503 C 2049.64 3.28591 -3.07161 0
M  V30 22504 C 2050.96 4.23118 -1.21076 0
M  V30 22505 H 2048.07 0.655845 -0.336208 0
M  V30 22506 H 2050.72 1.26293 -1.41951 0
M  V30 22507 H 2048.87 3.72421 -1.1061 0
M  V30 22508 H 2050.54 2.90454 -3.58377 0
M  V30 22509 H 2048.78 2.67712 -3.4134 0
M  V30 22510 H 2049.45 4.31053 -3.44815 0
M  V30 22511 H 2051.93 3.85059 -1.57697 0
M  V30 22512 H 2050.8 5.23119 -1.66246 0
M  V30 22513 H 2051.07 4.41918 -0.12688 0
M  V30 22514 N 2050.12 0.944665 1.2615 0
M  V30 22515 C 2051.03 0.463226 2.29981 0
M  V30 22516 C 2052.05 -0.464516 1.67685 0
M  V30 22517 O 2053.23 -0.343195 1.98454 0
M  V30 22518 C 2050.29 -0.260612 3.45719 0
M  V30 22519 C 2049.35 0.704117 4.23486 0
M  V30 22520 C 2048.59 0.0147279 5.33698 0
M  V30 22521 O 2048.81 -1.20155 5.57601 0
M  V30 22522 O 2047.74 0.695202 5.97872 0
M  V30 22523 H 2051.57 1.3258 2.73233 0
M  V30 22524 H 2049.15 0.710696 1.31413 0
M  V30 22525 H 2051.04 -0.668207 4.16068 0
M  V30 22526 H 2049.71 -1.09852 3.0449 0
M  V30 22527 H 2048.62 1.16172 3.55605 0
M  V30 22528 H 2049.95 1.50974 4.68474 0
M  V30 22529 N 2051.6 -1.40596 0.712085 0
M  V30 22530 C 2052.57 -2.29105 0.0660369 0
M  V30 22531 C 2053.57 -1.45196 -0.690992 0
M  V30 22532 O 2054.76 -1.66151 -0.523417 0
M  V30 22533 C 2051.89 -3.2835 -0.916461 0
M  V30 22534 H 2053.08 -2.87734 0.845539 0
M  V30 22535 H 2050.63 -1.48859 0.476533 0
M  V30 22536 H 2051.37 -2.74733 -1.72314 0
M  V30 22537 H 2051.15 -3.90288 -0.376557 0
M  V30 22538 H 2052.64 -3.94634 -1.36578 0
M  V30 22539 N 2053.08 -0.458013 -1.50798 0
M  V30 22540 C 2054.01 0.333063 -2.31112 0
M  V30 22541 C 2054.99 1.00231 -1.37433 0
M  V30 22542 O 2056.18 1.00199 -1.66354 0
M  V30 22543 C 2053.31 1.4229 -3.16814 0
M  V30 22544 C 2052.26 0.875993 -4.1894 0
M  V30 22545 C 2051.59 2.06313 -4.93294 0
M  V30 22546 C 2052.89 -0.103786 -5.22197 0
M  V30 22547 H 2054.58 -0.337222 -2.97495 0
M  V30 22548 H 2052.13 -0.163622 -1.43067 0
M  V30 22549 H 2054.08 1.98369 -3.7179 0
M  V30 22550 H 2052.8 2.12177 -2.48291 0
M  V30 22551 H 2051.46 0.337263 -3.65045 0
M  V30 22552 H 2051.11 2.74868 -4.21256 0
M  V30 22553 H 2050.81 1.70348 -5.62366 0
M  V30 22554 H 2052.33 2.62908 -5.511 0
M  V30 22555 H 2053.75 0.367392 -5.72122 0
M  V30 22556 H 2052.15 -0.377048 -5.98914 0
M  V30 22557 H 2053.22 -1.03392 -4.73749 0
M  V30 22558 N 2054.56 1.56449 -0.190119 0
M  V30 22559 C 2055.47 2.22463 0.744809 0
M  V30 22560 C 2056.49 1.22213 1.23855 0
M  V30 22561 O 2057.66 1.54934 1.28675 0
M  V30 22562 C 2054.73 2.86716 1.94923 0
M  V30 22563 C 2053.79 4.02222 1.50054 0
M  V30 22564 C 2053.02 4.63401 2.64755 0
M  V30 22565 O 2053.24 4.23495 3.8211 0
M  V30 22566 O 2052.18 5.52953 2.37752 0
M  V30 22567 H 2056 3.02955 0.212633 0
M  V30 22568 H 2053.59 1.49349 0.0389463 0
M  V30 22569 H 2055.47 3.27385 2.65324 0
M  V30 22570 H 2054.15 2.09207 2.4701 0
M  V30 22571 H 2053.05 3.66185 0.765469 0
M  V30 22572 H 2054.39 4.81379 1.02638 0
M  V30 22573 N 2056.04 -0.0835127 1.57379 0
M  V30 22574 C 2056.95 -1.11858 2.06216 0
M  V30 22575 C 2057.96 -1.43137 0.989333 0
M  V30 22576 O 2059.14 -1.53548 1.30327 0
M  V30 22577 C 2056.2 -2.41603 2.48655 0
M  V30 22578 C 2055.27 -2.17401 3.70183 0
M  V30 22579 C 2054.5 -3.40959 4.10588 0
M  V30 22580 O 2054.72 -4.49637 3.50974 0
M  V30 22581 O 2053.66 -3.29863 5.03462 0
M  V30 22582 H 2057.48 -0.733741 2.94703 0
M  V30 22583 H 2055.07 -0.296834 1.46421 0
M  V30 22584 H 2056.95 -3.1798 2.76526 0
M  V30 22585 H 2055.62 -2.7949 1.63301 0
M  V30 22586 H 2054.53 -1.38767 3.47411 0
M  V30 22587 H 2055.86 -1.84401 4.56352 0
M  V30 22588 N 2057.52 -1.53558 -0.354624 0
M  V30 22589 C 2058.76 -1.69934 -1.09393 0
M  V30 22590 C 2059.08 -0.459423 -1.89511 0
M  V30 22591 O 2058.35 0.526608 -1.88689 0
M  V30 22592 H 2056.93 -0.626487 -0.406845 0
M  V30 22593 H 2059.6 -1.90781 -0.398582 0
M  V30 22594 H 2058.69 -2.56533 -1.77757 0
M  V30 22595 N 2058.99 0.615033 -1.45104 0
M  V30 22596 C 2059.94 1.72617 -1.53206 0
M  V30 22597 C 2060.91 1.6173 -0.378499 0
M  V30 22598 O 2062.1 1.81418 -0.590937 0
M  V30 22599 C 2059.24 3.1091 -1.49763 0
M  V30 22600 C 2058.35 3.32657 -2.75615 0
M  V30 22601 C 2057.48 4.61014 -2.63894 0
M  V30 22602 C 2056.52 4.75993 -3.84834 0
M  V30 22603 N 2055.66 5.95642 -3.71692 0
M  V30 22604 H 2060.5 1.65028 -2.48133 0
M  V30 22605 H 2058.04 0.804792 -1.23132 0
M  V30 22606 H 2059.99 3.90911 -1.45755 0
M  V30 22607 H 2058.62 3.17475 -0.583921 0
M  V30 22608 H 2057.68 2.46484 -2.89741 0
M  V30 22609 H 2058.99 3.39601 -3.65339 0
M  V30 22610 H 2058.14 5.49198 -2.5781 0
M  V30 22611 H 2056.88 4.56455 -1.71756 0
M  V30 22612 H 2055.89 3.86234 -3.91284 0
M  V30 22613 H 2057.11 4.82354 -4.78028 0
M  V30 22614 H 2055.06 5.92143 -2.82318 0
M  V30 22615 H 2054.97 6.03713 -4.55046 0
M  V30 22616 H 2056.24 6.86345 -3.69528 0
M  V30 22617 N 2060.47 1.3227 0.85688 0
M  V30 22618 C 2061.42 1.2102 1.96527 0
M  V30 22619 C 2062.39 0.0928848 1.6584 0
M  V30 22620 O 2063.57 0.268043 1.88908 0
M  V30 22621 C 2060.71 0.936943 3.32138 0
M  V30 22622 C 2059.83 2.13883 3.75337 0
M  V30 22623 C 2058.96 1.80125 4.99728 0
M  V30 22624 C 2058 2.96647 5.35413 0
M  V30 22625 N 2057.14 2.62997 6.50982 0
M  V30 22626 H 2061.98 2.15827 2.05481 0
M  V30 22627 H 2059.51 1.07346 1.00575 0
M  V30 22628 H 2061.47 0.759018 4.10237 0
M  V30 22629 H 2060.1 0.025663 3.2279 0
M  V30 22630 H 2059.15 2.4271 2.92909 0
M  V30 22631 H 2060.47 3.01052 3.97705 0
M  V30 22632 H 2059.62 1.58871 5.8553 0
M  V30 22633 H 2058.36 0.901662 4.79293 0
M  V30 22634 H 2057.36 3.18535 4.48124 0
M  V30 22635 H 2058.59 3.87335 5.57807 0
M  V30 22636 H 2056.54 1.75576 6.32067 0
M  V30 22637 H 2056.45 3.43696 6.73357 0
M  V30 22638 H 2057.72 2.45168 7.39941 0
M  V30 22639 N 2061.95 -1.07287 1.15444 0
M  V30 22640 C 2063.37 -1.31993 0.897222 0
M  V30 22641 C 2063.57 -1.96286 -0.455437 0
M  V30 22642 O 2062.62 -2.22313 -1.19722 0
M  V30 22643 C 2063.93 -2.2104 2.03868 0
M  V30 22644 C 2065.48 -2.34486 2.07329 0
M  V30 22645 C 2065.96 -3.26882 3.20799 0
M  V30 22646 N 2067.45 -3.34463 3.20451 0
M  V30 22647 C 2068.18 -4.06019 4.0489 0
M  V30 22648 N 2067.68 -4.80184 4.99395 0
M  V30 22649 N 2069.47 -4.01967 3.92911 0
M  V30 22650 H 2061.62 -0.639423 2.02547 0
M  V30 22651 H 2063.89 -0.344393 0.883231 0
M  V30 22652 H 2063.59 -1.8106 3.01513 0
M  V30 22653 H 2063.47 -3.21571 1.9716 0
M  V30 22654 H 2065.85 -2.73719 1.10282 0
M  V30 22655 H 2065.93 -1.33658 2.18104 0
M  V30 22656 H 2065.58 -2.88368 4.18098 0
M  V30 22657 H 2065.51 -4.27667 3.0726 0
M  V30 22658 H 2068 -2.816 2.52012 0
M  V30 22659 H 2068.31 -5.32281 5.60265 0
M  V30 22660 H 2066.66 -4.79198 5.03383 0
M  V30 22661 H 2069.85 -3.43139 3.18392 0
M  V30 22662 H 2070.02 -4.57468 4.58942 0
M  V30 22663 N 2063.43 -0.951342 -1.25647 0
M  V30 22664 C 2064.67 -0.604351 -1.93271 0
M  V30 22665 C 2065 0.858137 -1.74546 0
M  V30 22666 O 2064.26 1.63065 -1.08206 0
M  V30 22667 C 2064.56 -0.9052 -3.45747 0
M  V30 22668 C 2064.22 -2.35319 -3.84624 0
M  V30 22669 C 2062.88 -2.74899 -3.94948 0
M  V30 22670 C 2065.24 -3.29371 -4.03936 0
M  V30 22671 C 2062.56 -4.07606 -4.21989 0
M  V30 22672 C 2064.92 -4.61686 -4.32468 0
M  V30 22673 C 2063.58 -5.01067 -4.41009 0
M  V30 22674 H 2062.85 -0.221148 -0.70723 0
M  V30 22675 H 2065.5 -1.19976 -1.49258 0
M  V30 22676 H 2063.8 -0.227362 -3.9114 0
M  V30 22677 H 2065.5 -0.615351 -3.9625 0
M  V30 22678 H 2062.09 -2.03622 -3.77142 0
M  V30 22679 H 2066.27 -2.99984 -3.95378 0
M  V30 22680 H 2061.53 -4.37766 -4.26815 0
M  V30 22681 H 2065.7 -5.34545 -4.46357 0
M  V30 22682 H 2063.33 -6.03923 -4.61715 0
M  V30 22683 N 2064.91 1.40216 -0.719531 0
M  V30 22684 C 2065.84 2.2918 -0.0300683 0
M  V30 22685 C 2066.85 1.4603 0.719654 0
M  V30 22686 O 2068.04 1.69276 0.56638 0
M  V30 22687 C 2065.14 3.2437 0.981688 0
M  V30 22688 C 2064.31 4.36393 0.296683 0
M  V30 22689 C 2063.37 5.11996 1.21437 0
M  V30 22690 O 2062.4 5.64908 0.697679 0
M  V30 22691 N 2063.6 5.21726 2.54524 0
M  V30 22692 H 2066.36 2.88992 -0.79396 0
M  V30 22693 H 2063.93 1.51629 -0.567481 0
M  V30 22694 H 2065.92 3.7182 1.59787 0
M  V30 22695 H 2064.49 2.65699 1.64691 0
M  V30 22696 H 2063.71 3.91019 -0.499755 0
M  V30 22697 H 2065 5.08486 -0.17865 0
M  V30 22698 H 2064.39 4.80227 2.98996 0
M  V30 22699 H 2062.95 5.72669 3.11277 0
M  V30 22700 N 2066.38 0.466004 1.50553 0
M  V30 22701 C 2067.33 -0.330804 2.28417 0
M  V30 22702 C 2068.3 -0.991708 1.33246 0
M  V30 22703 O 2069.49 -1.00512 1.62179 0
M  V30 22704 C 2066.63 -1.40978 3.14991 0
M  V30 22705 C 2065.74 -0.76416 4.25188 0
M  V30 22706 C 2064.87 -1.8206 4.99027 0
M  V30 22707 C 2063.91 -1.15495 6.01105 0
M  V30 22708 N 2063.05 -2.15401 6.68242 0
M  V30 22709 H 2067.89 0.339504 2.9606 0
M  V30 22710 H 2065.43 0.179273 1.46003 0
M  V30 22711 H 2067.38 -2.04695 3.63532 0
M  V30 22712 H 2066.01 -2.04932 2.49405 0
M  V30 22713 H 2065.07 -0.0145483 3.80397 0
M  V30 22714 H 2066.38 -0.238458 4.9823 0
M  V30 22715 H 2065.53 -2.5337 5.51261 0
M  V30 22716 H 2064.27 -2.38009 4.25679 0
M  V30 22717 H 2063.28 -0.427447 5.48136 0
M  V30 22718 H 2064.5 -0.602414 6.76423 0
M  V30 22719 H 2062.45 -2.70378 5.97689 0
M  V30 22720 H 2062.36 -1.67802 7.37142 0
M  V30 22721 H 2063.63 -2.86107 7.25095 0
M  V30 22722 N 2067.86 -1.56346 0.198413 0
M  V30 22723 C 2068.77 -2.22855 -0.733001 0
M  V30 22724 C 2069.79 -1.22868 -1.23205 0
M  V30 22725 O 2070.96 -1.55615 -1.27852 0
M  V30 22726 C 2068.03 -2.87746 -1.93399 0
M  V30 22727 C 2067.09 -4.03012 -1.47919 0
M  V30 22728 C 2066.32 -4.64799 -2.62293 0
M  V30 22729 O 2066.55 -4.25516 -3.79859 0
M  V30 22730 O 2065.48 -5.54206 -2.34817 0
M  V30 22731 H 2069.31 -3.03063 -0.196563 0
M  V30 22732 H 2066.89 -1.49368 -0.0310254 0
M  V30 22733 H 2068.77 -3.28788 -2.63584 0
M  V30 22734 H 2067.45 -2.10514 -2.45897 0
M  V30 22735 H 2066.35 -3.66586 -0.746038 0
M  V30 22736 H 2067.69 -4.81917 -1.00084 0
M  V30 22737 N 2069.34 0.0751653 -1.57421 0
M  V30 22738 C 2070.59 0.773759 -1.86268 0
M  V30 22739 C 2070.9 1.78911 -0.79058 0
M  V30 22740 O 2072.11 2.53703 -0.966795 0
M  V30 22741 C 2070.56 1.42704 -3.30399 0
M  V30 22742 C 2070.17 0.450427 -4.4573 0
M  V30 22743 C 2071.92 2.10819 -3.6845 0
M  V30 22744 C 2069.82 1.10943 -5.80901 0
M  V30 22745 H 2068.75 0.292727 -0.694858 0
M  V30 22746 H 2071.4 0.0269952 -1.8348 0
M  V30 22747 H 2069.79 2.22195 -3.27789 0
M  V30 22748 H 2070.96 -0.314427 -4.59726 0
M  V30 22749 H 2069.28 -0.126101 -4.16209 0
M  V30 22750 H 2071.87 2.60894 -4.66732 0
M  V30 22751 H 2072.22 2.90611 -2.98079 0
M  V30 22752 H 2072.75 1.38164 -3.73036 0
M  V30 22753 H 2069.49 0.351912 -6.54555 0
M  V30 22754 H 2069.01 1.84523 -5.70711 0
M  V30 22755 H 2070.69 1.63022 -6.26125 0
M  V30 22756 N 2070.82 1.53744 0.346476 0
M  V30 22757 C 2071.73 1.84516 1.44883 0
M  V30 22758 C 2072.74 0.735054 1.57712 0
M  V30 22759 O 2073.92 1.02706 1.73244 0
M  V30 22760 C 2070.99 2.04576 2.7991 0
M  V30 22761 C 2070.05 3.28442 2.7645 0
M  V30 22762 C 2069.28 3.47536 4.05036 0
M  V30 22763 O 2069.5 2.70527 5.02167 0
M  V30 22764 O 2068.44 4.40955 4.09686 0
M  V30 22765 H 2072.26 2.78207 1.21797 0
M  V30 22766 H 2069.85 1.39362 0.53838 0
M  V30 22767 H 2071.73 2.19232 3.59882 0
M  V30 22768 H 2070.4 1.14074 3.02934 0
M  V30 22769 H 2069.31 3.19192 1.95108 0
M  V30 22770 H 2070.64 4.18928 2.5838 0
M  V30 22771 N 2072.3 -0.607329 1.45428 0
M  V30 22772 C 2073.24 -1.73916 1.54454 0
M  V30 22773 C 2074.24 -1.64251 0.4145 0
M  V30 22774 O 2075.44 -1.70041 0.59042 0
M  V30 22775 H 2071.82 -0.574581 0.48514 0
M  V30 22776 H 2073.79 -1.6343 2.49666 0
M  V30 22777 C 2072.54 -3.12295 1.52863 0
M  V30 22778 H 2071.86 -3.20392 2.39142 0
M  V30 22779 H 2073.3 -3.91318 1.63236 0
M  V30 22780 C 2071.76 -3.35948 0.2531 0
M  V30 22781 O 2072.29 -3.96125 -0.666944 0
M  V30 22782 N 2070.5 -2.90219 0.148714 0
M  V30 22783 H 2070.04 -2.4143 0.898284 0
M  V30 22784 H 2070 -3.06419 -0.703907 0
M  V30 22785 N 2073.77 -1.32722 -0.849853 0
M  V30 22786 C 2074.7 -1.24675 -1.97429 0
M  V30 22787 C 2075.69 -0.129581 -1.69606 0
M  V30 22788 O 2076.87 -0.317548 -1.91586 0
M  V30 22789 C 2074 -0.973971 -3.33363 0
M  V30 22790 C 2072.95 -2.05289 -3.75553 0
M  V30 22791 C 2072.28 -1.63244 -5.09171 0
M  V30 22792 C 2073.58 -3.46845 -3.90507 0
M  V30 22793 H 2075.27 -2.18753 -2.0442 0
M  V30 22794 H 2072.82 -1.0531 -0.982132 0
M  V30 22795 H 2074.77 -0.904206 -4.11585 0
M  V30 22796 H 2073.5 0.00243816 -3.266 0
M  V30 22797 H 2072.16 -2.11289 -2.99587 0
M  V30 22798 H 2071.8 -0.643348 -4.98869 0
M  V30 22799 H 2071.5 -2.35437 -5.38371 0
M  V30 22800 H 2073.03 -1.57713 -5.8988 0
M  V30 22801 H 2074.44 -3.43408 -4.59069 0
M  V30 22802 H 2072.84 -4.17429 -4.3113 0
M  V30 22803 H 2073.91 -3.86155 -2.93278 0
M  V30 22804 N 2075.25 1.06673 -1.16011 0
M  V30 22805 C 2076.48 1.83106 -0.963322 0
M  V30 22806 C 2076.9 1.82372 0.488451 0
M  V30 22807 O 2076.25 1.24012 1.33893 0
M  V30 22808 C 2076.3 3.29888 -1.47838 0
M  V30 22809 O 2076.02 3.30717 -2.87328 0
M  V30 22810 C 2077.53 4.23065 -1.32405 0
M  V30 22811 H 2074.75 0.577476 -0.341705 0
M  V30 22812 H 2077.29 1.34611 -1.53948 0
M  V30 22813 H 2075.44 3.75708 -0.944585 0
M  V30 22814 H 2075.86 4.22475 -3.1083 0
M  V30 22815 H 2077.33 5.24098 -1.73279 0
M  V30 22816 H 2077.81 4.38375 -0.269104 0
M  V30 22817 H 2078.42 3.83088 -1.84726 0
M  V30 22818 N 2076.73 0.957992 1.25141 0
M  V30 22819 C 2077.66 0.438189 2.24972 0
M  V30 22820 C 2078.68 -0.447769 1.56521 0
M  V30 22821 O 2079.86 -0.255506 1.76662 0
M  V30 22822 C 2076.96 -0.387644 3.36676 0
M  V30 22823 C 2076.14 0.486109 4.3469 0
M  V30 22824 C 2075.2 -0.282086 5.25443 0
M  V30 22825 O 2074.22 0.320666 5.68296 0
M  V30 22826 N 2075.42 -1.57428 5.58746 0
M  V30 22827 H 2078.19 1.29648 2.70206 0
M  V30 22828 H 2075.75 0.828726 1.39082 0
M  V30 22829 H 2077.74 -0.909356 3.94351 0
M  V30 22830 H 2076.31 -1.14681 2.90804 0
M  V30 22831 H 2075.53 1.18889 3.75844 0
M  V30 22832 H 2076.82 1.08236 4.97154 0
M  V30 22833 H 2076.22 -2.08586 5.25841 0
M  V30 22834 H 2074.78 -2.04189 6.18991 0
M  V30 22835 N 2078.21 -1.39832 0.726957 0
M  V30 22836 C 2079.14 -2.29161 0.0422219 0
M  V30 22837 C 2080.15 -1.4641 -0.7119 0
M  V30 22838 O 2081.34 -1.69574 -0.557395 0
M  V30 22839 C 2078.44 -3.24886 -0.964472 0
M  V30 22840 C 2077.62 -4.36544 -0.273536 0
M  V30 22841 C 2076.67 -5.12632 -1.1872 0
M  V30 22842 O 2075.7 -5.6527 -0.66771 0
M  V30 22843 N 2076.9 -5.23068 -2.51754 0
M  V30 22844 H 2079.67 -2.88567 0.809275 0
M  V30 22845 H 2077.23 -1.51326 0.575514 0
M  V30 22846 H 2079.22 -3.72662 -1.57813 0
M  V30 22847 H 2077.79 -2.66568 -1.63279 0
M  V30 22848 H 2077.01 -3.90749 0.520485 0
M  V30 22849 H 2078.3 -5.08384 0.205613 0
M  V30 22850 H 2077.7 -4.81806 -2.96445 0
M  V30 22851 H 2076.25 -5.74312 -3.08235 0
M  V30 22852 N 2079.69 -0.473982 -1.50304 0
M  V30 22853 C 2080.92 0.0775007 -2.06455 0
M  V30 22854 C 2081.32 1.33801 -1.33768 0
M  V30 22855 O 2080.67 1.79261 -0.401381 0
M  V30 22856 C 2080.73 0.428656 -3.56935 0
M  V30 22857 C 2080.39 -0.730244 -4.51128 0
M  V30 22858 C 2081.39 -1.6131 -4.94242 0
M  V30 22859 C 2079.08 -0.92139 -4.93777 0
M  V30 22860 C 2081.07 -2.67149 -5.78714 0
M  V30 22861 C 2078.76 -1.98299 -5.78032 0
M  V30 22862 C 2079.75 -2.85641 -6.20402 0
M  V30 22863 O 2079.44 -3.89973 -7.02977 0
M  V30 22864 H 2079.17 -0.00505561 -0.675981 0
M  V30 22865 H 2081.73 -0.662628 -1.94418 0
M  V30 22866 H 2079.96 1.22201 -3.66884 0
M  V30 22867 H 2081.65 0.915562 -3.95439 0
M  V30 22868 H 2082.41 -1.47713 -4.61959 0
M  V30 22869 H 2078.29 -0.251023 -4.60316 0
M  V30 22870 H 2081.84 -3.35352 -6.11706 0
M  V30 22871 H 2077.73 -2.11903 -6.09727 0
M  V30 22872 H 2078.5 -3.86996 -7.21232 0
M  V30 22873 N 2081.16 1.56239 -0.206702 0
M  V30 22874 C 2082.07 2.2324 0.721172 0
M  V30 22875 C 2083.09 1.2352 1.22552 0
M  V30 22876 O 2084.27 1.56291 1.27025 0
M  V30 22877 C 2081.33 2.88767 1.91871 0
M  V30 22878 C 2080.39 4.03791 1.45779 0
M  V30 22879 C 2079.63 4.66183 2.59825 0
M  V30 22880 O 2079.85 4.27524 3.77597 0
M  V30 22881 O 2078.78 5.55444 2.31874 0
M  V30 22882 H 2082.61 3.03163 0.180488 0
M  V30 22883 H 2080.19 1.49382 0.0231036 0
M  V30 22884 H 2082.08 3.30181 2.61837 0
M  V30 22885 H 2080.75 2.11815 2.44777 0
M  V30 22886 H 2079.66 3.66976 0.726587 0
M  V30 22887 H 2080.99 4.82441 0.975269 0
M  V30 22888 N 2082.64 -0.0668159 1.57458 0
M  V30 22889 C 2083.55 -1.09665 2.0739 0
M  V30 22890 C 2084.57 -1.4208 1.00446 0
M  V30 22891 O 2085.74 -1.52157 1.31948 0
M  V30 22892 C 2082.81 -2.38952 2.51203 0
M  V30 22893 C 2081.87 -2.13463 3.72468 0
M  V30 22894 C 2081.1 -3.36585 4.14181 0
M  V30 22895 O 2081.33 -4.45889 3.55723 0
M  V30 22896 O 2080.26 -3.24505 5.06932 0
M  V30 22897 H 2084.09 -0.702443 2.95465 0
M  V30 22898 H 2081.67 -0.281287 1.46728 0
M  V30 22899 H 2083.55 -3.1503 2.79883 0
M  V30 22900 H 2082.23 -2.77742 1.66256 0
M  V30 22901 H 2081.14 -1.35074 3.48864 0
M  V30 22902 H 2082.47 -1.7955 4.58282 0
M  V30 22903 N 2084.12 -1.53926 -0.338317 0
M  V30 22904 C 2085.07 -1.8228 -1.41572 0
M  V30 22905 C 2086.04 -0.668853 -1.52038 0
M  V30 22906 O 2087.22 -0.913813 -1.67494 0
M  V30 22907 C 2084.36 -2.04273 -2.78148 0
M  V30 22908 C 2083.48 -3.31978 -2.76432 0
M  V30 22909 C 2082.61 -3.44011 -4.04759 0
M  V30 22910 C 2081.65 -4.65646 -3.97292 0
M  V30 22911 N 2080.79 -4.74683 -5.1732 0
M  V30 22912 H 2085.63 -2.74202 -1.16692 0
M  V30 22913 H 2083.16 -1.35809 -0.565173 0
M  V30 22914 H 2085.12 -2.15014 -3.57526 0
M  V30 22915 H 2083.75 -1.15659 -3.01368 0
M  V30 22916 H 2082.8 -3.30052 -1.89129 0
M  V30 22917 H 2084.12 -4.21454 -2.66792 0
M  V30 22918 H 2083.27 -3.54213 -4.92563 0
M  V30 22919 H 2082.01 -2.52601 -4.17186 0
M  V30 22920 H 2081.01 -4.55516 -3.07873 0
M  V30 22921 H 2082.24 -5.58425 -3.86443 0
M  V30 22922 H 2080.19 -3.86184 -5.30281 0
M  V30 22923 H 2080.1 -5.58103 -5.09958 0
M  V30 22924 H 2081.37 -4.89201 -6.0688 0
M  V30 22925 N 2085.6 0.599608 -1.45748 0
M  V30 22926 C 2086.56 1.6918 -1.54631 0
M  V30 22927 C 2087.56 1.55081 -0.425029 0
M  V30 22928 O 2088.75 1.60004 -0.688782 0
M  V30 22929 C 2085.88 3.08502 -1.45049 0
M  V30 22930 H 2087.08 1.62667 -2.51951 0
M  V30 22931 H 2084.63 0.816022 -1.33307 0
M  V30 22932 H 2085.37 3.20585 -0.489439 0
M  V30 22933 H 2085.15 3.20144 -2.26386 0
M  V30 22934 H 2086.64 3.88042 -1.54315 0
M  V30 22935 N 2087.08 1.33171 0.842803 0
M  V30 22936 C 2088.04 1.23019 1.93388 0
M  V30 22937 C 2089.04 0.15022 1.60097 0
M  V30 22938 O 2090.23 0.401472 1.69511 0
M  V30 22939 C 2087.36 0.89468 3.2895 0
M  V30 22940 H 2088.56 2.19997 2.03817 0
M  V30 22941 H 2086.11 1.17173 1.03442 0
M  V30 22942 H 2086.84 -0.0727774 3.24218 0
M  V30 22943 H 2086.63 1.67563 3.54493 0
M  V30 22944 H 2088.12 0.848284 4.08894 0
M  V30 22945 N 2088.56 -1.06056 1.16576 0
M  V30 22946 C 2089.52 -2.11761 0.876928 0
M  V30 22947 C 2090.52 -1.60281 -0.129123 0
M  V30 22948 O 2091.71 -1.73901 0.102046 0
M  V30 22949 C 2088.84 -3.3947 0.311872 0
M  V30 22950 H 2090.03 -2.38816 1.81403 0
M  V30 22951 H 2087.59 -1.2216 0.975021 0
M  V30 22952 H 2088.32 -3.18066 -0.632797 0
M  V30 22953 H 2088.11 -3.78143 1.03683 0
M  V30 22954 H 2089.6 -4.17404 0.12782 0
M  V30 22955 N 2090.03 -0.964615 -1.24631 0
M  V30 22956 C 2091.26 -0.641396 -1.96392 0
M  V30 22957 C 2091.67 0.792726 -1.71792 0
M  V30 22958 O 2091.01 1.54313 -0.996658 0
M  V30 22959 C 2091.08 -0.832418 -3.4973 0
M  V30 22960 C 2090.74 -2.24559 -3.98023 0
M  V30 22961 C 2091.74 -3.22308 -4.07938 0
M  V30 22962 C 2089.42 -2.57246 -4.31428 0
M  V30 22963 C 2091.42 -4.50832 -4.50588 0
M  V30 22964 C 2089.1 -3.85996 -4.73762 0
M  V30 22965 C 2090.1 -4.82602 -4.83306 0
M  V30 22966 O 2089.79 -6.09056 -5.24696 0
M  V30 22967 H 2089.52 -0.238561 -0.632507 0
M  V30 22968 H 2092.08 -1.29421 -1.59498 0
M  V30 22969 H 2090.31 -0.122445 -3.86506 0
M  V30 22970 H 2091.99 -0.508751 -4.02699 0
M  V30 22971 H 2092.76 -2.98383 -3.82351 0
M  V30 22972 H 2088.64 -1.82773 -4.2322 0
M  V30 22973 H 2092.18 -5.26237 -4.57952 0
M  V30 22974 H 2088.08 -4.09723 -4.98796 0
M  V30 22975 H 2088.85 -6.12578 -5.42854 0
M  V30 22976 N 2091.51 1.39445 -0.734362 0
M  V30 22977 C 2092.79 1.94487 -0.208359 0
M  V30 22978 C 2093.17 1.6712 1.28974 0
M  V30 22979 O 2092.52 0.999082 2.05501 0
M  V30 22980 C 2092.73 3.44777 -0.541289 0
M  V30 22981 C 2094.07 4.2176 -0.490275 0
M  V30 22982 O 2095.1 3.52972 -0.478443 0
M  V30 22983 O 2093.96 5.4435 -0.48425 0
M  V30 22984 H 2091.05 0.826136 -0.037802 0
M  V30 22985 H 2093.6 1.48948 -0.813177 0
M  V30 22986 H 2092.37 3.58128 -1.5767 0
M  V30 22987 H 2091.99 3.97492 0.0925302 0
M  V30 22988 N 2092.99 0.481946 1.5005 0
M  V30 22989 C 2093.94 -0.306558 2.28755 0
M  V30 22990 C 2094.91 -0.97752 1.3429 0
M  V30 22991 O 2096.09 -0.987865 1.63236 0
M  V30 22992 C 2093.23 -1.37629 3.16468 0
M  V30 22993 C 2092.34 -0.71902 4.25974 0
M  V30 22994 C 2091.48 -1.76757 5.0093 0
M  V30 22995 C 2090.52 -1.09113 6.02296 0
M  V30 22996 N 2089.66 -2.08302 6.70489 0
M  V30 22997 H 2094.5 0.370886 2.95683 0
M  V30 22998 H 2092.03 0.194749 1.45805 0
M  V30 22999 H 2093.99 -2.00828 3.65683 0
M  V30 23000 H 2092.62 -2.02275 2.51564 0
M  V30 23001 H 2091.67 0.0257987 3.80391 0
M  V30 23002 H 2092.98 -0.1856 4.98455 0
M  V30 23003 H 2092.14 -2.47509 5.53917 0
M  V30 23004 H 2090.88 -2.33481 4.2818 0
M  V30 23005 H 2089.88 -0.369286 5.48558 0
M  V30 23006 H 2091.11 -0.530637 6.77024 0
M  V30 23007 H 2089.05 -2.64023 6.00523 0
M  V30 23008 H 2088.97 -1.59974 7.3888 0
M  V30 23009 H 2090.24 -2.78401 7.28089 0
M  V30 23010 N 2094.47 -1.56127 0.214985 0
M  V30 23011 C 2095.4 -2.22991 -0.69263 0
M  V30 23012 C 2096.38 -1.19946 -1.20611 0
M  V30 23013 O 2097.56 -1.48512 -1.25131 0
M  V30 23014 C 2094.69 -2.90473 -1.90376 0
M  V30 23015 C 2093.65 -3.99933 -1.52439 0
M  V30 23016 C 2092.97 -4.54678 -2.81375 0
M  V30 23017 C 2094.27 -5.17323 -0.719325 0
M  V30 23018 H 2095.97 -2.99095 -0.135168 0
M  V30 23019 H 2093.51 -1.4386 -0.0635721 0
M  V30 23020 H 2095.47 -3.35938 -2.54408 0
M  V30 23021 H 2094.19 -2.11806 -2.48608 0
M  V30 23022 H 2092.85 -3.55189 -0.907557 0
M  V30 23023 H 2092.5 -3.72749 -3.37739 0
M  V30 23024 H 2092.2 -5.28549 -2.56729 0
M  V30 23025 H 2093.72 -5.02857 -3.46362 0
M  V30 23026 H 2095.14 -5.5921 -1.2632 0
M  V30 23027 H 2093.53 -5.97385 -0.570203 0
M  V30 23028 H 2094.6 -4.84117 0.275461 0
M  V30 23029 N 2095.95 0.0584645 -1.57492 0
M  V30 23030 C 2096.86 1.08563 -2.07969 0
M  V30 23031 C 2097.87 1.41545 -1.01198 0
M  V30 23032 O 2099.05 1.51455 -1.32753 0
M  V30 23033 C 2096.11 2.37616 -2.52467 0
M  V30 23034 C 2095.17 2.11485 -3.73594 0
M  V30 23035 C 2094.41 3.34384 -4.1596 0
M  V30 23036 O 2094.63 4.43997 -3.58083 0
M  V30 23037 O 2093.56 3.21812 -5.08646 0
M  V30 23038 H 2097.39 0.686764 -2.95833 0
M  V30 23039 H 2094.97 0.273502 -1.46875 0
M  V30 23040 H 2096.86 3.13541 -2.81549 0
M  V30 23041 H 2095.53 2.76857 -1.67726 0
M  V30 23042 H 2094.44 1.33222 -3.49575 0
M  V30 23043 H 2095.77 1.77117 -4.59228 0
M  V30 23044 N 2097.42 1.54103 0.330149 0
M  V30 23045 C 2098.37 1.83029 1.40603 0
M  V30 23046 C 2099.34 0.676907 1.51681 0
M  V30 23047 O 2100.53 0.922683 1.67007 0
M  V30 23048 C 2097.67 2.05745 2.77061 0
M  V30 23049 C 2096.78 3.3344 2.74667 0
M  V30 23050 C 2095.91 3.46152 4.02929 0
M  V30 23051 C 2094.95 4.67746 3.94817 0
M  V30 23052 N 2094.09 4.7742 5.14796 0
M  V30 23053 H 2098.93 2.74817 1.15236 0
M  V30 23054 H 2096.47 1.36107 0.557963 0
M  V30 23055 H 2098.42 2.16907 3.56381 0
M  V30 23056 H 2097.05 1.17255 3.00751 0
M  V30 23057 H 2096.11 3.3105 1.87376 0
M  V30 23058 H 2097.42 4.22863 2.64554 0
M  V30 23059 H 2096.57 3.5682 4.90678 0
M  V30 23060 H 2095.31 2.5481 4.15841 0
M  V30 23061 H 2094.32 4.57142 3.05453 0
M  V30 23062 H 2095.54 5.60467 3.83476 0
M  V30 23063 H 2093.49 3.88991 5.28225 0
M  V30 23064 H 2093.4 5.60799 5.06991 0
M  V30 23065 H 2094.67 4.92412 6.04277 0
M  V30 23066 N 2098.9 -0.59187 1.46064 0
M  V30 23067 C 2100.13 -1.37666 1.54453 0
M  V30 23068 C 2100.55 -1.87916 0.18248 0
M  V30 23069 O 2099.9 -1.63106 -0.818692 0
M  V30 23070 C 2099.95 -2.57045 2.54185 0
M  V30 23071 O 2099.67 -2.08879 3.85099 0
M  V30 23072 C 2101.18 -3.49713 2.72426 0
M  V30 23073 H 2098.4 -0.420872 0.522597 0
M  V30 23074 H 2100.94 -0.720387 1.91391 0
M  V30 23075 H 2099.09 -3.18681 2.20276 0
M  V30 23076 H 2099.51 -2.86557 4.39301 0
M  V30 23077 H 2100.98 -4.29981 3.4615 0
M  V30 23078 H 2101.46 -4.01064 1.7901 0
M  V30 23079 H 2102.07 -2.9392 3.07395 0
M  V30 23080 N 2100.38 -1.33616 -0.835729 0
M  V30 23081 C 2101.33 -1.24131 -1.94577 0
M  V30 23082 C 2102.3 -0.119257 -1.65671 0
M  V30 23083 O 2103.48 -0.298063 -1.88457 0
M  V30 23084 C 2100.62 -0.989665 -3.30605 0
M  V30 23085 C 2099.74 -2.19828 -3.71887 0
M  V30 23086 C 2098.87 -1.88052 -4.96799 0
M  V30 23087 C 2097.91 -3.05128 -5.30625 0
M  V30 23088 N 2097.05 -2.7332 -6.46715 0
M  V30 23089 H 2101.89 -2.19069 -2.02022 0
M  V30 23090 H 2099.42 -1.08932 -0.988545 0
M  V30 23091 H 2101.38 -0.824187 -4.08978 0
M  V30 23092 H 2100.01 -0.0770128 -3.22708 0
M  V30 23093 H 2099.06 -2.4734 -2.89011 0
M  V30 23094 H 2100.38 -3.07341 -3.92865 0
M  V30 23095 H 2099.53 -1.68166 -5.82928 0
M  V30 23096 H 2098.27 -0.977799 -4.77797 0
M  V30 23097 H 2097.27 -3.25624 -4.43 0
M  V30 23098 H 2098.5 -3.9616 -5.51574 0
M  V30 23099 H 2096.44 -1.8561 -6.29194 0
M  V30 23100 H 2096.36 -3.54365 -6.67804 0
M  V30 23101 H 2097.63 -2.56909 -7.35947 0
M  V30 23102 N 2101.86 1.05436 -1.17136 0
M  V30 23103 C 2102.81 2.1523 -0.881986 0
M  V30 23104 C 2103.8 1.68713 0.152395 0
M  V30 23105 O 2105.01 1.79999 0.00555059 0
M  V30 23106 H 2101.38 0.702752 -0.267664 0
M  V30 23107 H 2103.35 2.36842 -1.81517 0
M  V30 23108 C 2102.1 3.45286 -0.409046 0
M  V30 23109 H 2101.42 3.81478 -1.19644 0
M  V30 23110 H 2102.86 4.23289 -0.245428 0
M  V30 23111 C 2101.32 3.25396 0.872886 0
M  V30 23112 O 2101.85 3.51736 1.94023 0
M  V30 23113 N 2100.06 2.78789 0.820065 0
M  V30 23114 H 2099.61 2.57554 -0.0487256 0
M  V30 23115 H 2099.56 2.65861 1.67826 0
M  V30 23116 N 2103.34 0.971211 1.24118 0
M  V30 23117 C 2104.75 0.678316 1.44468 0
M  V30 23118 C 2104.95 -0.75867 1.86672 0
M  V30 23119 O 2104.01 -1.53217 2.00701 0
M  V30 23120 C 2105.32 1.66541 2.50369 0
M  V30 23121 C 2106.87 1.67842 2.64193 0
M  V30 23122 C 2107.34 2.65358 3.73295 0
M  V30 23123 N 2108.84 2.63821 3.80727 0
M  V30 23124 C 2109.57 3.35947 4.6468 0
M  V30 23125 N 2109.07 4.17602 5.52794 0
M  V30 23126 N 2110.86 3.24755 4.58793 0
M  V30 23127 H 2103.01 1.8996 0.950216 0
M  V30 23128 H 2105.27 0.818026 0.479101 0
M  V30 23129 H 2104.98 2.69261 2.26255 0
M  V30 23130 H 2104.85 1.44095 3.48592 0
M  V30 23131 H 2107.24 0.658308 2.87664 0
M  V30 23132 H 2107.32 1.94351 1.66316 0
M  V30 23133 H 2106.97 3.67505 3.50574 0
M  V30 23134 H 2106.9 2.36127 4.70693 0
M  V30 23135 H 2109.39 2.04554 3.17751 0
M  V30 23136 H 2109.7 4.69515 6.13821 0
M  V30 23137 H 2108.04 4.21695 5.52447 0
M  V30 23138 H 2111.24 2.60422 3.8897 0
M  V30 23139 H 2111.41 3.81228 5.23994 0
M  V30 23140 N 2104.81 -1.39054 0.741747 0
M  V30 23141 C 2105.74 -2.33184 0.121433 0
M  V30 23142 C 2106.73 -1.54261 -0.716774 0
M  V30 23143 O 2107.91 -1.82627 -0.660379 0
M  V30 23144 C 2105.04 -3.38393 -0.78152 0
M  V30 23145 C 2103.99 -4.27974 -0.046955 0
M  V30 23146 C 2103.32 -5.23938 -1.06737 0
M  V30 23147 C 2104.62 -5.10272 1.11446 0
M  V30 23148 H 2106.31 -2.85308 0.907724 0
M  V30 23149 H 2103.86 -1.37179 0.437953 0
M  V30 23150 H 2105.81 -4.032 -1.22506 0
M  V30 23151 H 2104.54 -2.84724 -1.6 0
M  V30 23152 H 2103.2 -3.64656 0.377036 0
M  V30 23153 H 2102.84 -4.66562 -1.8796 0
M  V30 23154 H 2102.54 -5.84725 -0.580605 0
M  V30 23155 H 2104.07 -5.91622 -1.51048 0
M  V30 23156 H 2105.48 -5.68386 0.749042 0
M  V30 23157 H 2103.88 -5.80234 1.53131 0
M  V30 23158 H 2104.95 -4.44706 1.93299 0
M  V30 23159 N 2106.29 -0.489897 -1.49792 0
M  V30 23160 C 2107.22 0.330983 -2.26798 0
M  V30 23161 C 2108.24 0.940504 -1.32885 0
M  V30 23162 O 2109.43 0.825724 -1.58253 0
M  V30 23163 C 2106.53 1.47994 -3.04879 0
M  V30 23164 C 2105.7 0.979767 -4.26286 0
M  V30 23165 C 2104.76 2.005 -4.86504 0
M  V30 23166 O 2103.78 1.57802 -5.46889 0
M  V30 23167 N 2104.99 3.3346 -4.75168 0
M  V30 23168 H 2107.75 -0.32926 -2.97886 0
M  V30 23169 H 2105.31 -0.321781 -1.5867 0
M  V30 23170 H 2107.3 2.16312 -3.4204 0
M  V30 23171 H 2105.87 2.04453 -2.36469 0
M  V30 23172 H 2105.09 0.121846 -3.94012 0
M  V30 23173 H 2106.38 0.623816 -5.04961 0
M  V30 23174 H 2105.78 3.70846 -4.27188 0
M  V30 23175 H 2104.34 3.97523 -5.16545 0
M  V30 23176 N 2107.77 1.56011 -0.223262 0
M  V30 23177 C 2108.7 2.17647 0.718502 0
M  V30 23178 C 2109.72 1.14602 1.15629 0
M  V30 23179 O 2110.9 1.41574 1.08715 0
M  V30 23180 C 2108 2.74665 1.98525 0
M  V30 23181 C 2107.18 4.02896 1.70275 0
M  V30 23182 C 2106.24 4.44462 2.81673 0
M  V30 23183 O 2105.26 5.11326 2.5007 0
M  V30 23184 N 2106.46 4.10287 4.10664 0
M  V30 23185 H 2109.23 2.99089 0.191253 0
M  V30 23186 H 2106.79 1.61845 -0.0423185 0
M  V30 23187 H 2108.78 2.99442 2.72244 0
M  V30 23188 H 2107.35 1.97516 2.42293 0
M  V30 23189 H 2106.57 3.85957 0.801915 0
M  V30 23190 H 2107.86 4.86545 1.48833 0
M  V30 23191 H 2107.26 3.5656 4.39183 0
M  V30 23192 H 2105.82 4.39952 4.80921 0
M  V30 23193 N 2109.25 -0.0501116 1.5752 0
M  V30 23194 C 2110.16 -1.07459 2.08542 0
M  V30 23195 C 2111.17 -1.41006 1.01947 0
M  V30 23196 O 2112.35 -1.50749 1.33555 0
M  V30 23197 C 2109.42 -2.36274 2.53723 0
M  V30 23198 C 2108.48 -2.095 3.74711 0
M  V30 23199 C 2107.71 -3.32174 4.17728 0
M  V30 23200 O 2107.93 -4.42091 3.60432 0
M  V30 23201 O 2106.87 -3.1911 5.10346 0
M  V30 23202 H 2110.69 -0.671065 2.96193 0
M  V30 23203 H 2108.28 -0.265709 1.47018 0
M  V30 23204 H 2110.16 -3.12043 2.83208 0
M  V30 23205 H 2108.83 -2.75963 1.69192 0
M  V30 23206 H 2107.74 -1.31366 3.50277 0
M  V30 23207 H 2109.07 -1.74679 4.60161 0
M  V30 23208 N 2110.73 -1.54276 -0.321972 0
M  V30 23209 C 2111.66 -1.86766 -1.40146 0
M  V30 23210 C 2112.64 -0.724601 -1.53895 0
M  V30 23211 O 2113.82 -0.978478 -1.67748 0
M  V30 23212 C 2110.95 -2.09642 -2.76889 0
M  V30 23213 C 2109.91 -3.25485 -2.77927 0
M  V30 23214 C 2109.23 -3.33736 -4.17761 0
M  V30 23215 C 2110.53 -4.63097 -2.41533 0
M  V30 23216 H 2112.23 -2.77174 -1.13204 0
M  V30 23217 H 2109.77 -1.33364 -0.543134 0
M  V30 23218 H 2111.73 -2.30955 -3.52474 0
M  V30 23219 H 2110.45 -1.15985 -3.05311 0
M  V30 23220 H 2109.11 -3.04062 -2.04798 0
M  V30 23221 H 2108.76 -2.37634 -4.43327 0
M  V30 23222 H 2108.46 -4.11594 -4.19362 0
M  V30 23223 H 2109.98 -3.57285 -4.95156 0
M  V30 23224 H 2111.39 -4.84281 -3.06831 0
M  V30 23225 H 2109.79 -5.43516 -2.54382 0
M  V30 23226 H 2110.86 -4.65238 -1.3668 0
M  V30 23227 N 2112.2 0.584116 -1.46376 0
M  V30 23228 C 2113.48 1.34425 -1.42089 0
M  V30 23229 C 2113.86 2.10846 -0.103623 0
M  V30 23230 O 2113.21 2.09389 0.914788 0
M  V30 23231 C 2113.42 2.27143 -2.64966 0
M  V30 23232 C 2114.77 2.89016 -3.11054 0
M  V30 23233 O 2115.79 2.37457 -2.65505 0
M  V30 23234 O 2114.65 3.82664 -3.90167 0
M  V30 23235 H 2111.74 0.603918 -0.564989 0
M  V30 23236 H 2114.29 0.605251 -1.5854 0
M  V30 23237 H 2113.06 1.70093 -3.52398 0
M  V30 23238 H 2112.69 3.08385 -2.50967 0
M  V30 23239 N 2113.68 1.34058 0.828631 0
M  V30 23240 C 2114.96 1.1668 1.56988 0
M  V30 23241 C 2115.34 -0.262846 2.09457 0
M  V30 23242 O 2114.69 -1.26337 1.90398 0
M  V30 23243 C 2114.9 2.21657 2.69572 0
M  V30 23244 C 2116.25 2.56341 3.38489 0
M  V30 23245 O 2117.27 2.20402 2.79824 0
M  V30 23246 O 2116.13 3.18053 4.44415 0
M  V30 23247 H 2113.22 0.451944 0.692586 0
M  V30 23248 H 2115.77 1.45672 0.870498 0
M  V30 23249 H 2114.54 3.17643 2.28515 0
M  V30 23250 H 2114.16 1.93809 3.47166 0
M  V30 23251 N 2115.16 -1.04814 1.17694 0
M  V30 23252 C 2116.09 -2.1459 0.920505 0
M  V30 23253 C 2117.07 -1.69531 -0.138953 0
M  V30 23254 O 2118.26 -1.94196 0.0120784 0
M  V30 23255 C 2115.39 -3.44537 0.437198 0
M  V30 23256 C 2114.34 -4.03181 1.43628 0
M  V30 23257 C 2113.67 -5.28517 0.810779 0
M  V30 23258 C 2114.97 -4.40226 2.81066 0
M  V30 23259 H 2116.66 -2.363 1.83856 0
M  V30 23260 H 2114.21 -1.13563 0.885411 0
M  V30 23261 H 2116.16 -4.20686 0.245199 0
M  V30 23262 H 2114.88 -3.22492 -0.516401 0
M  V30 23263 H 2113.54 -3.29106 1.61508 0
M  V30 23264 H 2113.19 -5.02777 -0.149773 0
M  V30 23265 H 2112.89 -5.68714 1.47776 0
M  V30 23266 H 2114.42 -6.0735 0.62914 0
M  V30 23267 H 2115.83 -5.07393 2.66881 0
M  V30 23268 H 2114.23 -4.91451 3.44377 0
M  V30 23269 H 2115.3 -3.50396 3.35188 0
M  V30 23270 N 2116.64 -0.977779 -1.23601 0
M  V30 23271 C 2117.89 -0.646167 -1.9223 0
M  V30 23272 C 2118.22 0.817893 -1.76137 0
M  V30 23273 O 2117.49 1.58966 -1.12071 0
M  V30 23274 C 2117.78 -1.03412 -3.44932 0
M  V30 23275 C 2117.63 -2.55561 -3.70147 0
M  V30 23276 C 2118.95 -0.576087 -4.36313 0
M  V30 23277 H 2116.07 -0.236222 -0.698118 0
M  V30 23278 H 2118.71 -1.21859 -1.45775 0
M  V30 23279 H 2116.86 -0.547033 -3.84629 0
M  V30 23280 H 2118.53 -3.11824 -3.39947 0
M  V30 23281 H 2116.77 -2.98312 -3.14949 0
M  V30 23282 H 2117.45 -2.77756 -4.77028 0
M  V30 23283 H 2119.92 -0.994237 -4.04047 0
M  V30 23284 H 2118.8 -0.875993 -5.41865 0
M  V30 23285 H 2119.06 0.523647 -4.38988 0
M  V30 23286 N 2118.12 1.38658 -0.749111 0
M  V30 23287 C 2119.36 2.00513 -0.303727 0
M  V30 23288 C 2119.7 1.59324 1.11039 0
M  V30 23289 O 2118.97 0.828679 1.75964 0
M  V30 23290 C 2119.25 3.57624 -0.421545 0
M  V30 23291 C 2119.11 4.0879 -1.87644 0
M  V30 23292 C 2120.43 4.39699 0.187724 0
M  V30 23293 H 2117.55 0.728465 -0.111835 0
M  V30 23294 H 2120.19 1.64665 -0.947915 0
M  V30 23295 H 2118.34 3.88293 0.126892 0
M  V30 23296 H 2120.01 3.88784 -2.48284 0
M  V30 23297 H 2118.25 3.61824 -2.39303 0
M  V30 23298 H 2118.92 5.179 -1.91006 0
M  V30 23299 H 2121.4 4.15157 -0.279958 0
M  V30 23300 H 2120.28 5.48849 0.0750199 0
M  V30 23301 H 2120.54 4.23301 1.27549 0
M  V30 23302 N 2119.6 0.497834 1.49531 0
M  V30 23303 C 2120.87 -0.110673 1.95287 0
M  V30 23304 C 2121.25 -1.54433 1.43923 0
M  V30 23305 O 2120.6 -2.19012 0.651616 0
M  V30 23306 C 2120.81 -0.0265636 3.4899 0
M  V30 23307 C 2122.16 -0.202082 4.24119 0
M  V30 23308 O 2123.18 -0.1019 3.56054 0
M  V30 23309 O 2122.04 -0.407373 5.4498 0
M  V30 23310 H 2119.14 -0.0970406 0.821287 0
M  V30 23311 H 2121.68 0.560146 1.60189 0
M  V30 23312 H 2120.45 0.973355 3.79001 0
M  V30 23313 H 2120.08 -0.737668 3.90697 0
M  V30 23314 N 2121.07 -1.5589 0.231532 0
M  V30 23315 C 2122 -2.23713 -0.66894 0
M  V30 23316 C 2122.98 -1.21219 -1.19332 0
M  V30 23317 O 2124.17 -1.49831 -1.23549 0
M  V30 23318 C 2121.3 -2.92476 -1.87284 0
M  V30 23319 C 2120.25 -4.01527 -1.48189 0
M  V30 23320 C 2119.58 -4.57637 -2.76537 0
M  V30 23321 C 2120.88 -5.18057 -0.664415 0
M  V30 23322 H 2122.57 -2.99221 -0.103437 0
M  V30 23323 H 2120.12 -1.43919 -0.0483103 0
M  V30 23324 H 2122.07 -3.38617 -2.50831 0
M  V30 23325 H 2120.8 -2.14431 -2.46347 0
M  V30 23326 H 2119.46 -3.56131 -0.869833 0
M  V30 23327 H 2119.1 -3.7631 -3.33766 0
M  V30 23328 H 2118.8 -5.31242 -2.51108 0
M  V30 23329 H 2120.33 -5.06503 -3.41009 0
M  V30 23330 H 2121.74 -5.60519 -1.20382 0
M  V30 23331 H 2120.14 -5.97956 -0.506811 0
M  V30 23332 H 2121.21 -4.83798 0.326792 0
M  V30 23333 N 2122.55 0.0417572 -1.57545 0
M  V30 23334 C 2123.83 0.769799 -1.79815 0
M  V30 23335 C 2124.21 1.94247 -0.826527 0
M  V30 23336 O 2123.56 2.28106 0.134058 0
M  V30 23337 C 2123.77 1.21472 -3.27178 0
M  V30 23338 C 2125.11 1.63585 -3.91823 0
M  V30 23339 O 2126.14 1.30963 -3.31251 0
M  V30 23340 O 2125 2.24087 -4.98445 0
M  V30 23341 H 2122.09 0.371214 -0.739005 0
M  V30 23342 H 2124.64 0.019513 -1.69689 0
M  V30 23343 H 2123.41 0.377014 -3.8948 0
M  V30 23344 H 2123.03 2.02541 -3.42144 0
M  V30 23345 N 2124.03 1.54445 0.313786 0
M  V30 23346 C 2124.98 1.85248 1.40663 0
M  V30 23347 C 2125.97 0.725147 1.53095 0
M  V30 23348 O 2127.18 0.908956 1.55364 0
M  V30 23349 H 2123.55 0.587354 0.469595 0
M  V30 23350 H 2125.52 2.76619 1.11913 0
M  V30 23351 C 2124.27 2.10521 2.76724 0
M  V30 23352 H 2123.6 2.96733 2.67935 0
M  V30 23353 H 2125.04 2.36022 3.52235 0
M  V30 23354 C 2123.49 0.899767 3.24663 0
M  V30 23355 O 2124.02 0.113882 4.01539 0
M  V30 23356 N 2122.23 0.708685 2.81826 0
M  V30 23357 H 2121.78 1.34941 2.19428 0
M  V30 23358 H 2121.74 -0.0963363 3.14252 0
M  V30 23359 N 2125.51 -0.576345 1.46683 0
M  V30 23360 C 2126.44 -1.69965 1.53768 0
M  V30 23361 C 2127.45 -1.57142 0.425462 0
M  V30 23362 O 2128.64 -1.6445 0.694142 0
M  V30 23363 C 2125.74 -3.08273 1.40788 0
M  V30 23364 C 2124.91 -3.47036 2.66242 0
M  V30 23365 C 2123.97 -4.6443 2.47369 0
M  V30 23366 O 2123 -4.69971 3.21117 0
M  V30 23367 N 2124.2 -5.59714 1.53948 0
M  V30 23368 H 2126.97 -1.6434 2.50624 0
M  V30 23369 H 2124.53 -0.762495 1.4282 0
M  V30 23370 H 2126.52 -3.8461 1.25925 0
M  V30 23371 H 2125.09 -3.0823 0.520883 0
M  V30 23372 H 2124.31 -2.6034 2.96001 0
M  V30 23373 H 2125.6 -3.69703 3.49567 0
M  V30 23374 H 2125 -5.57979 0.931464 0
M  V30 23375 H 2123.55 -6.35456 1.45046 0
M  V30 23376 N 2126.99 -1.34495 -0.82151 0
M  V30 23377 C 2128.4 -1.14208 -1.11484 0
M  V30 23378 C 2128.6 0.0554729 -2.01424 0
M  V30 23379 O 2127.66 0.730574 -2.417 0
M  V30 23380 C 2128.97 -2.43799 -1.76019 0
M  V30 23381 C 2130.52 -2.49868 -1.88508 0
M  V30 23382 C 2130.99 -3.79464 -2.56459 0
M  V30 23383 N 2132.48 -3.80632 -2.63957 0
M  V30 23384 C 2133.22 -4.77629 -3.17267 0
M  V30 23385 N 2132.72 -5.85009 -3.71129 0
M  V30 23386 N 2134.51 -4.65083 -3.15681 0
M  V30 23387 H 2126.66 -2.11223 -0.223307 0
M  V30 23388 H 2128.92 -0.93412 -0.161627 0
M  V30 23389 H 2128.63 -3.31528 -1.17397 0
M  V30 23390 H 2128.5 -2.57243 -2.75873 0
M  V30 23391 H 2130.89 -1.62577 -2.46278 0
M  V30 23392 H 2130.97 -2.4035 -0.875522 0
M  V30 23393 H 2130.61 -4.67146 -1.99342 0
M  V30 23394 H 2130.54 -3.86264 -3.57921 0
M  V30 23395 H 2133.04 -3.03038 -2.2578 0
M  V30 23396 H 2133.35 -6.55034 -4.10062 0
M  V30 23397 H 2131.69 -5.88721 -3.69369 0
M  V30 23398 H 2134.88 -3.80342 -2.72869 0
M  V30 23399 H 2135.06 -5.40842 -3.56922 0
M  V30 23400 N 2128.46 1.04188 -1.18248 0
M  V30 23401 C 2129.4 2.12204 -0.866138 0
M  V30 23402 C 2130.41 1.62233 0.135743 0
M  V30 23403 O 2131.6 1.78263 -0.0919276 0
M  V30 23404 C 2128.7 3.37802 -0.272597 0
M  V30 23405 C 2127.87 4.17012 -1.31983 0
M  V30 23406 C 2126.93 5.20939 -0.74221 0
M  V30 23407 O 2125.96 5.5129 -1.41662 0
M  V30 23408 N 2127.16 5.78668 0.460879 0
M  V30 23409 H 2129.92 2.39936 -1.79585 0
M  V30 23410 H 2127.48 1.20371 -1.0827 0
M  V30 23411 H 2129.48 4.045 0.127367 0
M  V30 23412 H 2128.05 3.07523 0.561114 0
M  V30 23413 H 2127.27 3.45655 -1.89516 0
M  V30 23414 H 2128.55 4.66728 -2.0259 0
M  V30 23415 H 2127.95 5.56308 1.02655 0
M  V30 23416 H 2126.51 6.46837 0.80278 0
M  V30 23417 N 2129.94 0.98432 1.23081 0
M  V30 23418 C 2130.87 0.547274 2.26996 0
M  V30 23419 C 2131.85 -0.421528 1.64794 0
M  V30 23420 O 2133.04 -0.314036 1.91644 0
M  V30 23421 C 2130.17 -0.147283 3.46988 0
M  V30 23422 C 2129.12 0.739194 4.21568 0
M  V30 23423 C 2128.45 -0.0877981 5.34628 0
M  V30 23424 C 2129.75 2.03191 4.81156 0
M  V30 23425 H 2131.44 1.41586 2.63806 0
M  V30 23426 H 2128.99 0.682245 1.26813 0
M  V30 23427 H 2130.94 -0.464368 4.18834 0
M  V30 23428 H 2129.67 -1.05035 3.09249 0
M  V30 23429 H 2128.32 1.03979 3.51545 0
M  V30 23430 H 2127.97 -0.99152 4.93131 0
M  V30 23431 H 2127.67 0.50225 5.8545 0
M  V30 23432 H 2129.2 -0.399175 6.09294 0
M  V30 23433 H 2130.61 1.77933 5.44989 0
M  V30 23434 H 2129.01 2.57006 5.4228 0
M  V30 23435 H 2130.08 2.71622 4.01684 0
M  V30 23436 N 2131.42 -1.38259 0.756453 0
M  V30 23437 C 2132.67 -2.00349 0.314356 0
M  V30 23438 C 2133 -1.5991 -1.10192 0
M  V30 23439 O 2132.27 -0.837999 -1.75522 0
M  V30 23440 C 2132.56 -3.57396 0.440504 0
M  V30 23441 C 2132.41 -4.0779 1.8981 0
M  V30 23442 C 2133.73 -4.39793 -0.164403 0
M  V30 23443 H 2130.85 -0.727862 0.115697 0
M  V30 23444 H 2133.49 -1.6416 0.956635 0
M  V30 23445 H 2131.64 -3.88355 -0.106298 0
M  V30 23446 H 2133.31 -3.87461 2.50343 0
M  V30 23447 H 2131.56 -3.6055 2.41218 0
M  V30 23448 H 2132.23 -5.1688 1.9375 0
M  V30 23449 H 2134.7 -4.15003 0.301971 0
M  V30 23450 H 2133.58 -5.48881 -0.0459121 0
M  V30 23451 H 2133.84 -4.23971 -1.25303 0
M  V30 23452 N 2132.9 -0.505757 -1.49264 0
M  V30 23453 C 2134.12 0.0358953 -2.07369 0
M  V30 23454 C 2134.55 1.29628 -1.36302 0
M  V30 23455 O 2133.91 1.76338 -0.421242 0
M  V30 23456 C 2133.95 0.267709 -3.59605 0
M  V30 23457 O 2133.06 1.34146 -3.89973 0
M  V30 23458 H 2132.4 -0.0283388 -0.663395 0
M  V30 23459 H 2134.93 -0.70674 -1.92006 0
M  V30 23460 H 2134.94 0.497774 -4.04952 0
M  V30 23461 H 2133.61 -0.653126 -4.1074 0
M  V30 23462 H 2132.19 1.09597 -3.56431 0
M  V30 23463 N 2134.38 1.55765 -0.239796 0
M  V30 23464 C 2135.32 2.22467 0.679046 0
M  V30 23465 C 2136.32 1.20993 1.18562 0
M  V30 23466 O 2137.52 1.39024 1.14334 0
M  V30 23467 H 2133.9 0.713528 0.237447 0
M  V30 23468 H 2135.87 2.98254 0.0932403 0
M  V30 23469 C 2134.62 2.93244 1.86825 0
M  V30 23470 H 2133.94 3.71094 1.48759 0
M  V30 23471 H 2135.38 3.43289 2.48855 0
M  V30 23472 C 2133.84 1.96721 2.735 0
M  V30 23473 O 2134.37 1.49575 3.72814 0
M  V30 23474 N 2132.58 1.63976 2.39917 0
M  V30 23475 H 2132.12 2.02511 1.59208 0
M  V30 23476 H 2132.08 0.996588 2.98187 0
M  V30 23477 N 2135.85 -0.0334016 1.57565 0
M  V30 23478 C 2136.78 -1.03494 2.09312 0
M  V30 23479 C 2137.77 -1.37985 0.9947 0
M  V30 23480 O 2138.95 -1.46944 1.26969 0
M  V30 23481 C 2136.08 -2.33717 2.56892 0
M  V30 23482 C 2135.03 -2.1348 3.70959 0
M  V30 23483 C 2134.36 -3.49425 4.0473 0
M  V30 23484 C 2135.66 -1.52451 4.99556 0
M  V30 23485 H 2137.35 -0.60419 2.9324 0
M  V30 23486 H 2134.9 -0.289182 1.41066 0
M  V30 23487 H 2136.85 -3.04107 2.91714 0
M  V30 23488 H 2135.58 -2.78843 1.70041 0
M  V30 23489 H 2134.24 -1.45523 3.3648 0
M  V30 23490 H 2133.88 -3.92192 3.14952 0
M  V30 23491 H 2133.58 -3.36711 4.81559 0
M  V30 23492 H 2135.11 -4.21184 4.42082 0
M  V30 23493 H 2136.52 -2.12753 5.32362 0
M  V30 23494 H 2134.92 -1.50324 5.80967 0
M  V30 23495 H 2135.99 -0.48986 4.82419 0
M  V30 23496 N 2137.33 -1.54609 -0.305591 0
M  V30 23497 C 2138.24 -1.88292 -1.3994 0
M  V30 23498 C 2139.26 -0.77661 -1.55707 0
M  V30 23499 O 2140.43 -1.07264 -1.7046 0
M  V30 23500 C 2137.5 -2.11925 -2.74388 0
M  V30 23501 C 2136.56 -3.35656 -2.67644 0
M  V30 23502 C 2135.79 -3.58152 -3.9568 0
M  V30 23503 O 2136.02 -2.83746 -4.94818 0
M  V30 23504 O 2134.95 -4.51662 -3.97851 0
M  V30 23505 H 2138.78 -2.81339 -1.14378 0
M  V30 23506 H 2136.36 -1.40741 -0.501242 0
M  V30 23507 H 2138.24 -2.28697 -3.53943 0
M  V30 23508 H 2136.92 -1.22065 -2.99803 0
M  V30 23509 H 2135.83 -3.24253 -1.86577 0
M  V30 23510 H 2137.16 -4.25631 -2.47182 0
M  V30 23511 N 2138.81 0.568558 -1.46987 0
M  V30 23512 C 2139.76 1.67655 -1.5862 0
M  V30 23513 C 2140.73 1.60444 -0.429761 0
M  V30 23514 O 2141.91 1.79446 -0.648355 0
M  V30 23515 C 2139.05 3.05988 -1.59578 0
M  V30 23516 C 2138.17 3.2372 -2.86058 0
M  V30 23517 C 2137.3 4.52385 -2.78427 0
M  V30 23518 C 2136.34 4.63509 -3.99782 0
M  V30 23519 N 2135.48 5.83515 -3.90454 0
M  V30 23520 H 2140.32 1.5705 -2.53257 0
M  V30 23521 H 2137.85 0.765211 -1.2563 0
M  V30 23522 H 2139.81 3.86076 -1.58118 0
M  V30 23523 H 2138.44 3.15456 -0.684628 0
M  V30 23524 H 2137.49 2.37141 -2.97436 0
M  V30 23525 H 2138.81 3.27806 -3.75959 0
M  V30 23526 H 2137.96 5.40718 -2.75152 0
M  V30 23527 H 2136.7 4.5076 -1.86191 0
M  V30 23528 H 2135.7 3.7359 -4.03374 0
M  V30 23529 H 2136.93 4.66902 -4.93132 0
M  V30 23530 H 2134.87 5.82861 -3.01013 0
M  V30 23531 H 2134.79 5.8893 -4.74022 0
M  V30 23532 H 2136.06 6.74241 -3.91177 0
M  V30 23533 N 2140.29 1.34929 0.814366 0
M  V30 23534 C 2141.24 1.27211 1.92577 0
M  V30 23535 C 2142.21 0.145599 1.65461 0
M  V30 23536 O 2143.39 0.328007 1.87959 0
M  V30 23537 C 2140.53 1.04214 3.28989 0
M  V30 23538 C 2139.64 2.25716 3.68343 0
M  V30 23539 C 2138.78 1.95932 4.93745 0
M  V30 23540 C 2137.82 3.13531 5.25704 0
M  V30 23541 N 2136.95 2.83574 6.42285 0
M  V30 23542 H 2141.79 2.22255 1.98511 0
M  V30 23543 H 2139.33 1.10491 0.97109 0
M  V30 23544 H 2141.29 0.889147 4.07615 0
M  V30 23545 H 2139.92 0.128343 3.22545 0
M  V30 23546 H 2138.97 2.51906 2.85039 0
M  V30 23547 H 2140.28 3.13553 3.87925 0
M  V30 23548 H 2139.44 1.77419 5.80179 0
M  V30 23549 H 2138.18 1.05369 4.76181 0
M  V30 23550 H 2137.18 3.32631 4.37763 0
M  V30 23551 H 2138.41 4.04885 5.45202 0
M  V30 23552 H 2136.35 1.95596 6.26161 0
M  V30 23553 H 2136.27 3.64944 6.62081 0
M  V30 23554 H 2137.54 2.68584 7.31767 0
M  V30 23555 N 2141.77 -1.0356 1.18799 0
M  V30 23556 C 2142.7 -2.11742 0.877379 0
M  V30 23557 C 2143.71 -1.62303 -0.127137 0
M  V30 23558 O 2144.9 -1.78212 0.10138 0
M  V30 23559 C 2142 -3.37653 0.290508 0
M  V30 23560 C 2141.17 -4.16306 1.34193 0
M  V30 23561 C 2140.23 -5.20538 0.769826 0
M  V30 23562 O 2139.26 -5.50531 1.44584 0
M  V30 23563 N 2140.46 -5.78904 -0.430185 0
M  V30 23564 H 2143.23 -2.3898 1.80855 0
M  V30 23565 H 2140.79 -1.19795 1.08907 0
M  V30 23566 H 2142.78 -4.04561 -0.105914 0
M  V30 23567 H 2141.35 -3.07816 -0.544797 0
M  V30 23568 H 2140.57 -3.44645 1.91347 0
M  V30 23569 H 2141.86 -4.65647 2.05062 0
M  V30 23570 H 2141.25 -5.56844 -0.997037 0
M  V30 23571 H 2139.81 -6.47254 -0.768466 0
M  V30 23572 N 2143.25 -0.990834 -1.22557 0
M  V30 23573 C 2144.66 -0.701213 -1.43371 0
M  V30 23574 C 2144.86 0.728876 -1.87855 0
M  V30 23575 O 2143.92 1.50004 -2.03113 0
M  V30 23576 C 2145.23 -1.70503 -2.47688 0
M  V30 23577 C 2146.78 -1.72024 -2.61489 0
M  V30 23578 C 2147.25 -2.71263 -3.69026 0
M  V30 23579 N 2148.74 -2.69845 -3.76481 0
M  V30 23580 C 2149.48 -3.43297 -4.59276 0
M  V30 23581 N 2148.98 -4.26343 -5.4608 0
M  V30 23582 N 2150.77 -3.32013 -4.53568 0
M  V30 23583 H 2142.92 -1.91447 -0.919875 0
M  V30 23584 H 2145.18 -0.825544 -0.466027 0
M  V30 23585 H 2144.89 -2.72827 -2.21942 0
M  V30 23586 H 2144.76 -1.49623 -3.46256 0
M  V30 23587 H 2147.15 -0.70399 -2.8658 0
M  V30 23588 H 2147.23 -1.96973 -1.63203 0
M  V30 23589 H 2146.87 -3.73036 -3.44683 0
M  V30 23590 H 2146.8 -2.43585 -4.66877 0
M  V30 23591 H 2149.3 -2.09583 -3.14457 0
M  V30 23592 H 2149.61 -4.79221 -6.06273 0
M  V30 23593 H 2147.95 -4.30431 -5.45669 0
M  V30 23594 H 2151.14 -2.66577 -3.84778 0
M  V30 23595 H 2151.32 -3.89516 -5.17862 0
M  V30 23596 N 2144.72 1.37856 -0.763775 0
M  V30 23597 C 2145.67 2.30357 -0.142863 0
M  V30 23598 C 2146.64 1.50697 0.698548 0
M  V30 23599 O 2147.83 1.79294 0.652566 0
M  V30 23600 C 2144.97 3.3715 0.736468 0
M  V30 23601 C 2144.08 4.31831 -0.12068 0
M  V30 23602 C 2143.21 5.25697 0.762609 0
M  V30 23603 C 2142.25 6.12022 -0.0975572 0
M  V30 23604 N 2141.39 6.98155 0.74326 0
M  V30 23605 H 2146.23 2.82878 -0.937235 0
M  V30 23606 H 2143.77 1.39261 -0.473798 0
M  V30 23607 H 2145.72 3.97686 1.26102 0
M  V30 23608 H 2144.35 2.86014 1.49652 0
M  V30 23609 H 2143.41 3.7267 -0.762965 0
M  V30 23610 H 2144.72 4.92592 -0.784528 0
M  V30 23611 H 2143.87 5.91399 1.35395 0
M  V30 23612 H 2142.61 4.65328 1.46016 0
M  V30 23613 H 2141.62 5.45306 -0.70149 0
M  V30 23614 H 2142.84 6.74462 -0.792323 0
M  V30 23615 H 2140.79 6.40323 1.42558 0
M  V30 23616 H 2140.7 7.55877 0.136535 0
M  V30 23617 H 2141.97 7.68255 1.31925 0
M  V30 23618 N 2146.2 0.513665 1.48994 0
M  V30 23619 C 2147.45 -0.0263341 2.02483 0
M  V30 23620 C 2147.78 -1.35817 1.39226 0
M  V30 23621 O 2147.03 -1.88621 0.5216 0
M  V30 23622 C 2147.33 -0.214329 3.56757 0
M  V30 23623 C 2147 1.0411 4.38716 0
M  V30 23624 C 2145.66 1.3852 4.60832 0
M  V30 23625 C 2148.01 1.87499 4.86306 0
M  V30 23626 C 2145.34 2.56248 5.27782 0
M  V30 23627 C 2147.69 3.04392 5.54553 0
M  V30 23628 C 2146.35 3.39167 5.7491 0
M  V30 23629 H 2145.62 -0.00963634 0.740937 0
M  V30 23630 H 2148.27 0.676388 1.79157 0
M  V30 23631 H 2146.58 -0.999685 3.78832 0
M  V30 23632 H 2148.27 -0.646802 3.95749 0
M  V30 23633 H 2144.86 0.763083 4.21752 0
M  V30 23634 H 2149.05 1.62228 4.69037 0
M  V30 23635 H 2144.3 2.83413 5.41744 0
M  V30 23636 H 2148.48 3.69325 5.904 0
M  V30 23637 H 2146.1 4.30492 6.26562 0
M  V30 23638 N 2147.68 -1.55636 0.248053 0
M  V30 23639 C 2148.96 -1.90888 -0.426759 0
M  V30 23640 C 2149.34 -1.16894 -1.75781 0
M  V30 23641 O 2148.68 -0.286804 -2.26693 0
M  V30 23642 C 2148.89 -3.43913 -0.593709 0
M  V30 23643 C 2150.24 -4.15188 -0.889059 0
M  V30 23644 O 2151.27 -3.49658 -0.67953 0
M  V30 23645 O 2150.13 -5.31102 -1.28815 0
M  V30 23646 H 2147.22 -0.794576 -0.2293 0
M  V30 23647 H 2149.77 -1.67165 0.292205 0
M  V30 23648 H 2148.54 -3.89784 0.3441 0
M  V30 23649 H 2148.16 -3.73502 -1.36317 0
M  V30 23650 N 2149.16 0.0250451 -1.5758 0
M  V30 23651 C 2150.09 1.05207 -2.03627 0
M  V30 23652 C 2151.1 1.32224 -0.949769 0
M  V30 23653 O 2152.29 1.29641 -1.22701 0
M  V30 23654 C 2149.39 2.39277 -2.39999 0
M  V30 23655 C 2148.56 2.31559 -3.71078 0
M  V30 23656 C 2147.62 3.48111 -3.94595 0
M  V30 23657 O 2146.65 3.27424 -4.65599 0
M  V30 23658 N 2147.85 4.70117 -3.40545 0
M  V30 23659 H 2150.62 0.659567 -2.92352 0
M  V30 23660 H 2148.18 0.212915 -1.60494 0
M  V30 23661 H 2150.17 3.15976 -2.52866 0
M  V30 23662 H 2148.74 2.70358 -1.56924 0
M  V30 23663 H 2147.96 1.39933 -3.68527 0
M  V30 23664 H 2149.25 2.23549 -4.57059 0
M  V30 23665 H 2148.65 4.89824 -2.83 0
M  V30 23666 H 2147.2 5.44167 -3.58784 0
M  V30 23667 N 2150.64 1.54769 0.297388 0
M  V30 23668 C 2151.57 1.88972 1.37157 0
M  V30 23669 C 2152.55 0.748993 1.52722 0
M  V30 23670 O 2153.73 1.00504 1.6617 0
M  V30 23671 C 2150.86 2.1402 2.73519 0
M  V30 23672 C 2149.82 3.29865 2.72714 0
M  V30 23673 C 2149.14 3.4034 4.12399 0
M  V30 23674 C 2150.44 4.66881 2.34135 0
M  V30 23675 H 2152.14 2.7894 1.0878 0
M  V30 23676 H 2149.68 1.34212 0.521848 0
M  V30 23677 H 2151.63 2.36533 3.48755 0
M  V30 23678 H 2150.36 1.20827 3.03428 0
M  V30 23679 H 2149.02 3.07281 1.99934 0
M  V30 23680 H 2148.67 2.44657 4.3949 0
M  V30 23681 H 2148.37 4.18214 4.1276 0
M  V30 23682 H 2149.89 3.65118 4.89409 0
M  V30 23683 H 2151.3 4.89101 2.99087 0
M  V30 23684 H 2149.7 5.47495 2.45703 0
M  V30 23685 H 2150.77 4.67354 1.29261 0
M  V30 23686 N 2152.11 -0.560755 1.47286 0
M  V30 23687 C 2153.04 -1.67792 1.62383 0
M  V30 23688 C 2154.02 -1.6338 0.473377 0
M  V30 23689 O 2155.21 -1.81057 0.702288 0
M  V30 23690 C 2152.34 -3.06431 1.63454 0
M  V30 23691 C 2151.29 -3.25688 2.7769 0
M  V30 23692 C 2150.62 -4.65078 2.63831 0
M  V30 23693 C 2151.92 -3.11404 4.19315 0
M  V30 23694 H 2153.61 -1.55414 2.55904 0
M  V30 23695 H 2151.16 -0.746251 1.23155 0
M  V30 23696 H 2153.11 -3.84428 1.72606 0
M  V30 23697 H 2151.84 -3.1976 0.664904 0
M  V30 23698 H 2150.5 -2.50098 2.68042 0
M  V30 23699 H 2150.14 -4.75201 1.64904 0
M  V30 23700 H 2149.84 -4.78911 3.40467 0
M  V30 23701 H 2151.37 -5.45214 2.74907 0
M  V30 23702 H 2152.78 -3.79222 4.29958 0
M  V30 23703 H 2151.18 -3.36749 4.9671 0
M  V30 23704 H 2152.25 -2.08195 4.3793 0
M  V30 23705 N 2153.59 -1.35359 -0.807199 0
M  V30 23706 C 2154.55 -1.28103 -1.90059 0
M  V30 23707 C 2155.55 -0.192614 -1.59642 0
M  V30 23708 O 2156.74 -0.446274 -1.68387 0
M  V30 23709 C 2153.88 -0.981581 -3.26463 0
M  V30 23710 H 2155.07 -2.25323 -1.97912 0
M  V30 23711 H 2152.62 -1.19874 -1.00299 0
M  V30 23712 H 2153.36 -0.013209 -3.24297 0
M  V30 23713 H 2153.14 -1.76903 -3.49925 0
M  V30 23714 H 2154.63 -0.956397 -4.06501 0
M  V30 23715 N 2155.07 1.02928 -1.19346 0
M  V30 23716 C 2155.98 2.14674 -0.946161 0
M  V30 23717 C 2157 1.73748 0.0936895 0
M  V30 23718 O 2158.17 2.01195 -0.0908598 0
M  V30 23719 C 2155.24 3.43253 -0.487673 0
M  V30 23720 C 2154.3 3.98496 -1.59686 0
M  V30 23721 C 2153.53 5.20938 -1.16016 0
M  V30 23722 O 2153.75 5.70395 -0.0235541 0
M  V30 23723 O 2152.69 5.69006 -1.96254 0
M  V30 23724 H 2156.51 2.38399 -1.88148 0
M  V30 23725 H 2154.1 1.13092 -0.97625 0
M  V30 23726 H 2155.98 4.20713 -0.240612 0
M  V30 23727 H 2154.66 3.20974 0.41921 0
M  V30 23728 H 2153.56 3.22373 -1.89807 0
M  V30 23729 H 2154.9 4.25138 -2.48029 0
M  V30 23730 N 2156.55 0.997319 1.2203 0
M  V30 23731 C 2157.46 0.560352 2.2781 0
M  V30 23732 C 2158.47 -0.392977 1.69504 0
M  V30 23733 O 2159.65 -0.258715 1.99731 0
M  V30 23734 C 2156.71 -0.113747 3.46513 0
M  V30 23735 C 2155.78 0.883099 4.20119 0
M  V30 23736 C 2155.01 0.241074 5.33155 0
M  V30 23737 O 2155.23 -0.963972 5.62195 0
M  V30 23738 O 2154.17 0.948154 5.94385 0
M  V30 23739 H 2157.99 1.44049 2.67364 0
M  V30 23740 H 2155.58 0.765793 1.28281 0
M  V30 23741 H 2157.46 -0.491137 4.18528 0
M  V30 23742 H 2156.13 -0.968387 3.08875 0
M  V30 23743 H 2155.04 1.3115 3.50358 0
M  V30 23744 H 2156.37 1.70708 4.61649 0
M  V30 23745 N 2158.03 -1.37449 0.771075 0
M  V30 23746 C 2158.97 -2.30278 0.155078 0
M  V30 23747 C 2159.94 -1.51065 -0.690547 0
M  V30 23748 O 2161.13 -1.79637 -0.643049 0
M  V30 23749 C 2158.27 -3.37536 -0.718578 0
M  V30 23750 C 2157.38 -4.31761 0.143579 0
M  V30 23751 C 2156.52 -5.26094 -0.734719 0
M  V30 23752 C 2155.56 -6.11962 0.130013 0
M  V30 23753 N 2154.69 -6.98539 -0.706225 0
M  V30 23754 H 2159.53 -2.82377 0.952224 0
M  V30 23755 H 2157.07 -1.39008 0.481177 0
M  V30 23756 H 2159.03 -3.98349 -1.23991 0
M  V30 23757 H 2157.66 -2.86804 -1.48133 0
M  V30 23758 H 2156.71 -3.7226 0.782718 0
M  V30 23759 H 2158.02 -4.92169 0.81064 0
M  V30 23760 H 2157.18 -5.92109 -1.32257 0
M  V30 23761 H 2155.91 -4.66096 -1.43546 0
M  V30 23762 H 2154.92 -5.44927 0.730399 0
M  V30 23763 H 2156.14 -6.74032 0.82808 0
M  V30 23764 H 2154.09 -6.4107 -1.3916 0
M  V30 23765 H 2154.01 -7.55938 -0.0964474 0
M  V30 23766 H 2155.28 -7.68944 -1.27849 0
M  V30 23767 N 2159.5 -0.52156 -1.4872 0
M  V30 23768 C 2160.45 0.259278 -2.3115 0
M  V30 23769 C 2161.45 0.943463 -1.40695 0
M  V30 23770 O 2162.65 0.868807 -1.57644 0
M  V30 23771 H 2159.03 0.10248 -0.744984 0
M  V30 23772 H 2161 -0.455653 -2.94901 0
M  V30 23773 C 2159.75 1.29841 -3.22547 0
M  V30 23774 H 2159.07 0.781352 -3.9209 0
M  V30 23775 H 2160.51 1.81634 -3.83125 0
M  V30 23776 C 2158.97 2.32757 -2.43569 0
M  V30 23777 O 2159.5 3.39036 -2.15448 0
M  V30 23778 N 2157.71 2.05753 -2.05217 0
M  V30 23779 H 2157.25 1.19343 -2.28287 0
M  V30 23780 H 2157.21 2.74836 -1.52685 0
M  V30 23781 N 2160.98 1.55502 -0.256304 0
M  V30 23782 C 2162.23 1.98345 0.366351 0
M  V30 23783 C 2162.54 1.14786 1.58378 0
M  V30 23784 O 2163.75 1.47686 2.27818 0
M  V30 23785 C 2162.21 3.52964 0.703174 0
M  V30 23786 C 2161.81 4.45275 -0.493386 0
M  V30 23787 C 2163.56 4.04441 1.2895 0
M  V30 23788 C 2161.47 5.91252 -0.132195 0
M  V30 23789 H 2160.4 0.740764 0.140656 0
M  V30 23790 H 2163.05 1.79974 -0.358 0
M  V30 23791 H 2161.43 3.67065 1.48591 0
M  V30 23792 H 2162.6 4.42936 -1.27059 0
M  V30 23793 H 2160.92 4.04331 -0.995272 0
M  V30 23794 H 2163.51 5.11032 1.57322 0
M  V30 23795 H 2163.86 3.52348 2.21713 0
M  V30 23796 H 2164.39 3.93703 0.569458 0
M  V30 23797 H 2161.13 6.47401 -1.02721 0
M  V30 23798 H 2160.65 5.96704 0.608619 0
M  V30 23799 H 2162.33 6.46384 0.282295 0
M  V30 23800 N 2162.46 -0.0166879 1.57591 0
M  V30 23801 C 2163.69 -0.720103 1.94497 0
M  V30 23802 C 2164.11 -1.6743 0.857254 0
M  V30 23803 O 2163.47 -1.80343 -0.186035 0
M  V30 23804 C 2163.52 -1.44264 3.30485 0
M  V30 23805 O 2162.62 -2.55638 3.23609 0
M  V30 23806 H 2161.96 -0.19279 0.635396 0
M  V30 23807 H 2164.49 0.0315297 2.04576 0
M  V30 23808 H 2164.5 -1.80981 3.65664 0
M  V30 23809 H 2163.18 -0.742902 4.09211 0
M  V30 23810 H 2161.75 -2.21373 3.00081 0
M  V30 23811 N 2163.94 -1.54924 -0.289176 0
M  V30 23812 C 2165.16 -1.791 -1.04585 0
M  V30 23813 C 2165.59 -0.55455 -1.7974 0
M  V30 23814 O 2164.95 0.495343 -1.74402 0
M  V30 23815 C 2164.99 -3.0053 -1.99283 0
M  V30 23816 O 2164.1 -2.74483 -3.07787 0
M  V30 23817 H 2163.44 -0.592442 -0.299847 0
M  V30 23818 H 2165.97 -2.02034 -0.323001 0
M  V30 23819 H 2165.98 -3.28824 -2.41534 0
M  V30 23820 H 2164.65 -3.90179 -1.4399 0
M  V30 23821 H 2163.23 -2.5724 -2.69966 0
M  V30 23822 N 2165.42 0.552936 -1.47582 0
M  V30 23823 C 2166.36 1.65963 -1.60389 0
M  V30 23824 C 2167.33 1.59979 -0.446754 0
M  V30 23825 O 2168.52 1.78749 -0.667351 0
M  V30 23826 C 2165.66 3.04278 -1.62815 0
M  V30 23827 C 2164.77 3.20668 -2.89476 0
M  V30 23828 C 2163.91 4.49406 -2.8321 0
M  V30 23829 C 2162.95 4.59243 -4.04676 0
M  V30 23830 N 2162.08 5.79341 -3.96621 0
M  V30 23831 H 2166.92 1.54355 -2.54909 0
M  V30 23832 H 2164.46 0.751844 -1.26435 0
M  V30 23833 H 2166.42 3.84377 -1.62204 0
M  V30 23834 H 2165.05 3.14712 -0.718048 0
M  V30 23835 H 2164.1 2.33973 -2.99935 0
M  V30 23836 H 2165.41 3.238 -3.79414 0
M  V30 23837 H 2164.57 5.3777 -2.80872 0
M  V30 23838 H 2163.3 4.4876 -1.90961 0
M  V30 23839 H 2162.31 3.69291 -4.07314 0
M  V30 23840 H 2163.53 4.61645 -4.98057 0
M  V30 23841 H 2161.48 5.79636 -3.07178 0
M  V30 23842 H 2161.4 5.8387 -4.80242 0
M  V30 23843 H 2162.67 6.70054 -3.98306 0
M  V30 23844 N 2166.89 1.35785 0.800009 0
M  V30 23845 C 2168.12 1.32363 1.5863 0
M  V30 23846 C 2168.53 -0.099518 1.88938 0
M  V30 23847 O 2167.88 -1.06381 1.49763 0
M  V30 23848 C 2167.94 2.0694 2.93966 0
M  V30 23849 C 2167.6 3.56091 2.86441 0
M  V30 23850 C 2168.6 4.50553 2.59419 0
M  V30 23851 C 2166.28 3.98831 3.05351 0
M  V30 23852 C 2168.28 5.8573 2.51394 0
M  V30 23853 C 2165.96 5.34102 2.96948 0
M  V30 23854 C 2166.96 6.27364 2.70006 0
M  V30 23855 O 2166.65 7.60153 2.61578 0
M  V30 23856 H 2166.38 0.456006 0.499033 0
M  V30 23857 H 2168.94 1.7932 1.00168 0
M  V30 23858 H 2167.17 1.5463 3.54438 0
M  V30 23859 H 2168.86 1.96511 3.55159 0
M  V30 23860 H 2169.62 4.18848 2.44522 0
M  V30 23861 H 2165.5 3.2662 3.25331 0
M  V30 23862 H 2169.04 6.58494 2.30285 0
M  V30 23863 H 2164.94 5.65418 3.11405 0
M  V30 23864 H 2165.71 7.70154 2.77137 0
M  V30 23865 N 2168.37 -1.02294 1.19891 0
M  V30 23866 C 2169.34 -2.08864 0.943854 0
M  V30 23867 C 2170.34 -1.6061 -0.0780656 0
M  V30 23868 O 2171.53 -1.73488 0.157319 0
M  V30 23869 C 2168.66 -3.38306 0.419714 0
M  V30 23870 H 2169.85 -2.32924 1.88909 0
M  V30 23871 H 2167.4 -1.18996 1.01339 0
M  V30 23872 H 2168.14 -3.19918 -0.531286 0
M  V30 23873 H 2167.92 -3.74653 1.15661 0
M  V30 23874 H 2169.41 -4.16786 0.26055 0
M  V30 23875 N 2169.85 -1.00378 -1.21499 0
M  V30 23876 C 2171.13 -0.601329 -1.86127 0
M  V30 23877 C 2171.51 0.921083 -1.89945 0
M  V30 23878 O 2170.86 1.80753 -1.39787 0
M  V30 23879 C 2171.07 -1.2343 -3.26445 0
M  V30 23880 C 2172.41 -1.34165 -4.02846 0
M  V30 23881 O 2173.44 -1.18952 -3.35751 0
M  V30 23882 O 2172.3 -1.58622 -5.22973 0
M  V30 23883 H 2169.39 -0.205796 -0.800985 0
M  V30 23884 H 2171.94 -1.10035 -1.29192 0
M  V30 23885 H 2170.71 -2.27515 -3.18359 0
M  V30 23886 H 2170.33 -0.721556 -3.90998 0
M  V30 23887 N 2171.33 1.37038 -0.778354 0
M  V30 23888 C 2172.24 2.33983 -0.170042 0
M  V30 23889 C 2173.25 1.60504 0.671902 0
M  V30 23890 O 2174.43 1.92556 0.590278 0
M  V30 23891 C 2171.5 3.39689 0.693729 0
M  V30 23892 C 2170.56 4.28981 -0.165434 0
M  V30 23893 C 2169.79 5.29638 0.657205 0
M  V30 23894 O 2170.01 5.38041 1.8939 0
M  V30 23895 O 2168.95 6.01867 0.0629255 0
M  V30 23896 H 2172.77 2.87749 -0.97131 0
M  V30 23897 H 2170.36 1.39314 -0.53962 0
M  V30 23898 H 2172.24 4.04348 1.18664 0
M  V30 23899 H 2170.91 2.8824 1.47307 0
M  V30 23900 H 2169.82 3.674 -0.704851 0
M  V30 23901 H 2171.15 4.83752 -0.908023 0
M  V30 23902 N 2172.81 0.529439 1.48441 0
M  V30 23903 C 2174.22 0.18726 1.58498 0
M  V30 23904 C 2174.42 -1.30947 1.53151 0
M  V30 23905 O 2173.48 -2.08768 1.42029 0
M  V30 23906 C 2174.79 0.789307 2.90156 0
M  V30 23907 C 2176.34 0.757992 3.03683 0
M  V30 23908 C 2176.82 1.33861 4.38002 0
M  V30 23909 N 2178.31 1.30055 4.44567 0
M  V30 23910 C 2179.04 1.7197 5.47004 0
M  V30 23911 N 2178.54 2.21612 6.56399 0
M  V30 23912 N 2180.33 1.63211 5.37884 0
M  V30 23913 H 2172.48 1.5022 1.50159 0
M  V30 23914 H 2174.74 0.624813 0.712961 0
M  V30 23915 H 2174.45 1.84009 2.99722 0
M  V30 23916 H 2174.32 0.266088 3.7626 0
M  V30 23917 H 2176.71 -0.284031 2.9373 0
M  V30 23918 H 2176.79 1.31867 2.19191 0
M  V30 23919 H 2176.44 2.37955 4.48709 0
M  V30 23920 H 2176.37 0.75361 5.2118 0
M  V30 23921 H 2178.86 0.937142 3.66096 0
M  V30 23922 H 2179.17 2.51591 7.30699 0
M  V30 23923 H 2177.52 2.25605 6.57364 0
M  V30 23924 H 2180.71 1.24226 4.51315 0
M  V30 23925 H 2180.88 1.96197 6.17584 0
M  V30 23926 N 2174.29 -1.55364 0.264547 0
M  V30 23927 C 2175.56 -1.9133 -0.406489 0
M  V30 23928 C 2175.94 -1.18752 -1.74531 0
M  V30 23929 O 2175.29 -0.310831 -2.26376 0
M  V30 23930 C 2175.5 -3.44523 -0.557199 0
M  V30 23931 C 2176.85 -4.16107 -0.844973 0
M  V30 23932 O 2177.87 -3.50359 -0.642406 0
M  V30 23933 O 2176.73 -5.32438 -1.23175 0
M  V30 23934 H 2173.83 -0.796963 -0.220859 0
M  V30 23935 H 2176.37 -1.66846 0.309918 0
M  V30 23936 H 2175.14 -3.89397 0.385423 0
M  V30 23937 H 2174.77 -3.74926 -1.32348 0
M  V30 23938 N 2175.76 0.00833021 -1.57598 0
M  V30 23939 C 2177.18 0.364296 -1.55387 0
M  V30 23940 C 2177.38 1.75313 -0.993353 0
M  V30 23941 O 2176.44 2.44681 -0.623498 0
M  V30 23942 C 2177.75 0.247154 -2.99683 0
M  V30 23943 C 2179.3 0.32271 -3.11332 0
M  V30 23944 C 2179.77 0.234786 -4.57398 0
M  V30 23945 N 2181.26 0.292944 -4.62273 0
M  V30 23946 C 2182 0.248123 -5.72863 0
M  V30 23947 N 2181.49 0.154382 -6.92628 0
M  V30 23948 N 2183.29 0.299377 -5.61302 0
M  V30 23949 H 2175.44 -0.900301 -1.92376 0
M  V30 23950 H 2177.7 -0.344326 -0.883257 0
M  V30 23951 H 2177.41 -0.708073 -3.44498 0
M  V30 23952 H 2177.28 1.03257 -3.62792 0
M  V30 23953 H 2179.67 1.26838 -2.66451 0
M  V30 23954 H 2179.75 -0.492428 -2.51016 0
M  V30 23955 H 2179.39 -0.707303 -5.02951 0
M  V30 23956 H 2179.32 1.0683 -5.1565 0
M  V30 23957 H 2181.81 0.367063 -3.76113 0
M  V30 23958 H 2182.13 0.12585 -7.72698 0
M  V30 23959 H 2180.47 0.12013 -6.94896 0
M  V30 23960 H 2183.66 0.370748 -4.66629 0
M  V30 23961 H 2183.84 0.260981 -6.47474 0
M  V30 23962 N 2177.24 1.55075 0.280956 0
M  V30 23963 C 2178.2 1.86644 1.33029 0
M  V30 23964 C 2179.2 0.740496 1.42735 0
M  V30 23965 O 2180.39 1.00871 1.42023 0
M  V30 23966 C 2177.53 2.06462 2.71268 0
M  V30 23967 H 2178.72 2.80439 1.06273 0
M  V30 23968 H 2176.27 1.47445 0.51863 0
M  V30 23969 H 2177.01 1.15021 3.03217 0
M  V30 23970 H 2176.79 2.88433 2.65611 0
M  V30 23971 H 2178.28 2.32186 3.47101 0
M  V30 23972 N 2178.72 -0.545102 1.47873 0
M  V30 23973 C 2179.63 -1.67829 1.63922 0
M  V30 23974 C 2180.65 -1.65989 0.521885 0
M  V30 23975 O 2181.82 -1.85216 0.791005 0
M  V30 23976 C 2178.89 -3.0432 1.66102 0
M  V30 23977 C 2177.95 -3.17134 2.89352 0
M  V30 23978 C 2177.18 -4.47114 2.91419 0
M  V30 23979 O 2177.4 -5.33307 2.02337 0
M  V30 23980 O 2176.34 -4.63974 3.83421 0
M  V30 23981 H 2180.16 -1.57229 2.59832 0
M  V30 23982 H 2177.75 -0.716489 1.31098 0
M  V30 23983 H 2179.63 -3.85524 1.70145 0
M  V30 23984 H 2178.31 -3.15277 0.733623 0
M  V30 23985 H 2177.21 -2.35282 2.90849 0
M  V30 23986 H 2178.55 -3.11086 3.81426 0
M  V30 23987 N 2180.2 -1.36208 -0.792797 0
M  V30 23988 C 2181.16 -1.30111 -1.88689 0
M  V30 23989 C 2182.16 -0.209535 -1.59429 0
M  V30 23990 O 2183.35 -0.464108 -1.67904 0
M  V30 23991 C 2180.48 -1.01615 -3.25403 0
M  V30 23992 H 2181.68 -2.2741 -1.95511 0
M  V30 23993 H 2179.23 -1.20931 -0.990219 0
M  V30 23994 H 2179.96 -0.0476043 -3.24265 0
M  V30 23995 H 2179.75 -1.80604 -3.48029 0
M  V30 23996 H 2181.24 -0.999458 -4.05463 0
M  V30 23997 N 2181.68 1.01656 -1.20431 0
M  V30 23998 C 2182.59 2.13658 -0.968877 0
M  V30 23999 C 2183.6 1.73837 0.075256 0
M  V30 24000 O 2184.78 2.01087 -0.112194 0
M  V30 24001 C 2181.84 3.42716 -0.524052 0
M  V30 24002 C 2180.9 3.9678 -1.63904 0
M  V30 24003 C 2180.14 5.19678 -1.21534 0
M  V30 24004 O 2180.36 5.70338 -0.0840508 0
M  V30 24005 O 2179.29 5.66893 -2.02278 0
M  V30 24006 H 2183.12 2.3639 -1.90666 0
M  V30 24007 H 2180.7 1.1205 -0.98819 0
M  V30 24008 H 2182.59 4.20434 -0.285221 0
M  V30 24009 H 2181.26 3.21401 0.385143 0
M  V30 24010 H 2180.17 3.20341 -1.93215 0
M  V30 24011 H 2181.5 4.22484 -2.52524 0
M  V30 24012 N 2183.15 1.01021 1.20965 0
M  V30 24013 C 2184.12 0.579903 2.21743 0
M  V30 24014 C 2185.12 -0.34653 1.57022 0
M  V30 24015 O 2186.31 -0.136099 1.73668 0
M  V30 24016 C 2183.44 -0.154061 3.40552 0
M  V30 24017 H 2184.63 1.47135 2.61326 0
M  V30 24018 H 2182.18 0.79929 1.34317 0
M  V30 24019 H 2182.92 -1.06071 3.06463 0
M  V30 24020 H 2182.7 0.511376 3.88751 0
M  V30 24021 H 2184.19 -0.44269 4.15247 0
M  V30 24022 N 2184.63 -1.36623 0.78561 0
M  V30 24023 C 2186.05 -1.5262 0.466843 0
M  V30 24024 C 2186.25 -1.74044 -1.01543 0
M  V30 24025 O 2185.3 -1.76975 -1.801 0
M  V30 24026 C 2186.62 -2.71435 1.29398 0
M  V30 24027 C 2188.16 -2.85304 1.28728 0
M  V30 24028 C 2188.64 -4.07118 2.09807 0
M  V30 24029 N 2190.13 -4.14257 2.07233 0
M  V30 24030 C 2190.87 -5.0758 2.6674 0
M  V30 24031 N 2190.36 -6.06372 3.3509 0
M  V30 24032 N 2192.15 -5.00167 2.56494 0
M  V30 24033 H 2184.31 -1.20971 1.74585 0
M  V30 24034 H 2186.57 -0.590141 0.741915 0
M  V30 24035 H 2186.27 -2.62113 2.34498 0
M  V30 24036 H 2186.15 -3.65488 0.932654 0
M  V30 24037 H 2188.54 -2.94088 0.244207 0
M  V30 24038 H 2188.62 -1.92169 1.68834 0
M  V30 24039 H 2188.26 -3.99095 3.14143 0
M  V30 24040 H 2188.19 -4.99393 1.67074 0
M  V30 24041 H 2190.68 -3.43522 1.57483 0
M  V30 24042 H 2190.99 -6.74137 3.77836 0
M  V30 24043 H 2189.34 -6.06609 3.39191 0
M  V30 24044 H 2192.53 -4.21936 2.027 0
M  V30 24045 H 2192.7 -5.7271 3.03162 0
M  V30 24046 N 2186.11 -0.537304 -1.48158 0
M  V30 24047 C 2187.02 0.225092 -2.33518 0
M  V30 24048 C 2188.04 0.931763 -1.4695 0
M  V30 24049 O 2189.21 0.905094 -1.79917 0
M  V30 24050 C 2186.28 1.25403 -3.23226 0
M  V30 24051 C 2185.34 0.556924 -4.25672 0
M  V30 24052 C 2184.57 1.53684 -5.11094 0
M  V30 24053 O 2184.79 2.77009 -4.9862 0
M  V30 24054 O 2183.73 1.07222 -5.92273 0
M  V30 24055 H 2187.55 -0.474567 -2.99969 0
M  V30 24056 H 2185.14 -0.298137 -1.46395 0
M  V30 24057 H 2187.02 1.84847 -3.78695 0
M  V30 24058 H 2185.7 1.93596 -2.59427 0
M  V30 24059 H 2184.6 -0.0781996 -3.74018 0
M  V30 24060 H 2185.94 -0.0832021 -4.9213 0
M  V30 24061 N 2187.59 1.55221 -0.272782 0
M  V30 24062 C 2188.54 2.22436 0.615702 0
M  V30 24063 C 2189.51 1.19702 1.15155 0
M  V30 24064 O 2190.69 1.48236 1.20128 0
M  V30 24065 C 2187.83 2.94739 1.79507 0
M  V30 24066 C 2186.94 4.12186 1.2933 0
M  V30 24067 C 2186.08 4.7214 2.43429 0
M  V30 24068 C 2185.12 5.81785 1.90243 0
M  V30 24069 N 2184.25 6.35811 2.97806 0
M  V30 24070 H 2189.09 2.97978 0.0358746 0
M  V30 24071 H 2186.63 1.47099 0.00594098 0
M  V30 24072 H 2188.59 3.34874 2.48828 0
M  V30 24073 H 2187.22 2.21624 2.34697 0
M  V30 24074 H 2186.27 3.77188 0.493274 0
M  V30 24075 H 2187.58 4.91265 0.86373 0
M  V30 24076 H 2186.74 5.14982 3.20747 0
M  V30 24077 H 2185.48 3.92333 2.897 0
M  V30 24078 H 2184.48 5.38395 1.11404 0
M  V30 24079 H 2185.71 6.63459 1.4491 0
M  V30 24080 H 2183.65 5.589 3.43464 0
M  V30 24081 H 2183.57 7.10156 2.59258 0
M  V30 24082 H 2184.84 6.83312 3.75106 0
M  V30 24083 N 2189.07 2.77022e-05 1.576 0
M  V30 24084 C 2189.98 -1.0077 2.11855 0
M  V30 24085 C 2190.99 -1.37692 1.06382 0
M  V30 24086 O 2192.17 -1.46423 1.38283 0
M  V30 24087 C 2189.23 -2.28082 2.61112 0
M  V30 24088 C 2188.29 -1.97473 3.81186 0
M  V30 24089 C 2187.53 -3.18716 4.28084 0
M  V30 24090 O 2187.75 -4.30401 3.74315 0
M  V30 24091 O 2186.68 -3.02712 5.20239 0
M  V30 24092 H 2190.51 -0.576494 2.98178 0
M  V30 24093 H 2188.1 -0.218802 1.47789 0
M  V30 24094 H 2189.98 -3.02875 2.92992 0
M  V30 24095 H 2188.65 -2.70441 1.77886 0
M  V30 24096 H 2187.56 -1.20156 3.54279 0
M  V30 24097 H 2188.89 -1.59951 4.65485 0
M  V30 24098 N 2190.54 -1.55222 -0.272728 0
M  V30 24099 C 2191.77 -1.79867 -1.02252 0
M  V30 24100 C 2192.19 -0.57212 -1.79923 0
M  V30 24101 O 2191.54 0.458811 -1.76639 0
M  V30 24102 C 2191.6 -3.02396 -1.98088 0
M  V30 24103 O 2191.32 -4.20314 -1.23564 0
M  V30 24104 C 2192.82 -3.39646 -2.84878 0
M  V30 24105 H 2190.04 -0.599174 -0.302046 0
M  V30 24106 H 2192.58 -2.02236 -0.303429 0
M  V30 24107 H 2190.74 -2.82152 -2.6546 0
M  V30 24108 H 2191.15 -4.89586 -1.88163 0
M  V30 24109 H 2192.62 -4.28551 -3.4792 0
M  V30 24110 H 2193.1 -2.59061 -3.5466 0
M  V30 24111 H 2193.71 -3.6215 -2.22997 0
M  V30 24112 N 2192.02 0.537252 -1.4816 0
M  V30 24113 C 2192.97 1.64253 -1.62141 0
M  V30 24114 C 2193.94 1.59496 -0.463696 0
M  V30 24115 O 2195.12 1.78031 -0.686272 0
M  V30 24116 C 2192.26 3.02534 -1.66033 0
M  V30 24117 C 2191.38 3.17579 -2.9286 0
M  V30 24118 C 2190.51 4.46377 -2.8796 0
M  V30 24119 C 2189.55 4.54925 -4.09524 0
M  V30 24120 N 2188.69 5.75102 -4.02743 0
M  V30 24121 H 2193.53 1.51643 -2.56532 0
M  V30 24122 H 2191.07 0.738391 -1.27225 0
M  V30 24123 H 2193.02 3.82635 -1.66272 0
M  V30 24124 H 2191.65 3.13933 -0.751387 0
M  V30 24125 H 2190.71 2.30779 -3.02399 0
M  V30 24126 H 2192.02 3.19757 -3.82827 0
M  V30 24127 H 2191.17 5.3476 -2.8656 0
M  V30 24128 H 2189.91 4.46709 -1.9571 0
M  V30 24129 H 2188.92 3.6495 -4.11208 0
M  V30 24130 H 2190.14 4.56337 -5.02925 0
M  V30 24131 H 2188.09 5.76345 -3.13309 0
M  V30 24132 H 2188 5.78743 -4.86408 0
M  V30 24133 H 2189.27 6.65792 -4.0539 0
M  V30 24134 N 2193.5 1.36626 0.785562 0
M  V30 24135 C 2194.46 1.3111 1.87997 0
M  V30 24136 C 2195.46 0.217987 1.59316 0
M  V30 24137 O 2196.65 0.473006 1.67655 0
M  V30 24138 C 2193.79 1.03339 3.2486 0
M  V30 24139 H 2194.98 2.28444 1.94303 0
M  V30 24140 H 2192.53 1.21455 0.983792 0
M  V30 24141 H 2193.27 0.0648002 3.24235 0
M  V30 24142 H 2193.05 1.82447 3.47067 0
M  V30 24143 H 2194.54 1.02095 4.04928 0
M  V30 24144 N 2194.98 -1.01016 1.20969 0
M  V30 24145 C 2195.91 -2.11553 0.988309 0
M  V30 24146 C 2196.89 -1.69888 -0.084948 0
M  V30 24147 O 2198.07 -1.9406 0.0738543 0
M  V30 24148 C 2195.2 -3.42972 0.546588 0
M  V30 24149 C 2194.16 -3.98408 1.56382 0
M  V30 24150 C 2193.48 -5.2567 0.978512 0
M  V30 24151 C 2194.78 -4.31061 2.9493 0
M  V30 24152 H 2196.48 -2.30331 1.9128 0
M  V30 24153 H 2194.02 -1.10688 0.921092 0
M  V30 24154 H 2195.98 -4.19693 0.378913 0
M  V30 24155 H 2194.7 -3.23971 -0.413541 0
M  V30 24156 H 2193.36 -3.23801 1.71897 0
M  V30 24157 H 2193.01 -5.02999 0.0102572 0
M  V30 24158 H 2192.71 -5.63725 1.65794 0
M  V30 24159 H 2194.23 -6.05041 0.822046 0
M  V30 24160 H 2195.65 -4.98645 2.82889 0
M  V30 24161 H 2194.04 -4.80246 3.59838 0
M  V30 24162 H 2195.11 -3.39555 3.46166 0
M  V30 24163 N 2196.46 -1.01661 -1.20428 0
M  V30 24164 C 2197.68 -0.724976 -1.94316 0
M  V30 24165 C 2198.11 0.708003 -1.74267 0
M  V30 24166 O 2197.46 1.48717 -1.03696 0
M  V30 24167 C 2197.51 -1.06597 -3.44484 0
M  V30 24168 O 2196.62 -0.177671 -4.12017 0
M  V30 24169 H 2195.96 -0.268991 -0.607075 0
M  V30 24170 H 2198.49 -1.35998 -1.52858 0
M  V30 24171 H 2198.5 -1.01769 -3.95104 0
M  V30 24172 H 2197.17 -2.11003 -3.584 0
M  V30 24173 H 2195.75 -0.283486 -3.71821 0
M  V30 24174 N 2197.93 1.36205 -0.792844 0
M  V30 24175 C 2198.86 2.32573 -0.207894 0
M  V30 24176 C 2199.85 1.56815 0.659028 0
M  V30 24177 O 2201.03 1.84952 0.592143 0
M  V30 24178 C 2198.16 3.4106 0.655389 0
M  V30 24179 C 2197.11 4.27854 -0.111917 0
M  V30 24180 C 2196.44 5.27539 0.872181 0
M  V30 24181 C 2197.74 5.05784 -1.30308 0
M  V30 24182 H 2199.43 2.81743 -1.01299 0
M  V30 24183 H 2196.98 1.35459 -0.488564 0
M  V30 24184 H 2198.93 4.07469 1.07457 0
M  V30 24185 H 2197.66 2.90466 1.49323 0
M  V30 24186 H 2196.32 3.63005 -0.512116 0
M  V30 24187 H 2195.96 4.73217 1.70514 0
M  V30 24188 H 2195.66 5.86477 0.363188 0
M  V30 24189 H 2197.19 5.96821 1.28986 0
M  V30 24190 H 2198.6 5.65214 -0.959478 0
M  V30 24191 H 2197 5.7415 -1.7456 0
M  V30 24192 H 2198.07 4.37226 -2.0967 0
M  V30 24193 N 2199.41 0.545154 1.47871 0
M  V30 24194 C 2200.38 -0.198677 2.28337 0
M  V30 24195 C 2201.38 -0.853864 1.36256 0
M  V30 24196 O 2202.57 -0.711578 1.59004 0
M  V30 24197 C 2199.7 -1.2891 3.15587 0
M  V30 24198 H 2200.89 0.507993 2.95566 0
M  V30 24199 H 2198.44 0.301643 1.53362 0
M  V30 24200 H 2199.18 -2.02855 2.53023 0
M  V30 24201 H 2198.96 -0.824241 3.83339 0
M  V30 24202 H 2200.45 -1.81187 3.76246 0
M  V30 24203 N 2200.89 -1.55074 0.28101 0
M  V30 24204 C 2202.31 -1.59433 -0.0729684 0
M  V30 24205 C 2202.51 -1.29819 -1.54108 0
M  V30 24206 O 2201.56 -1.06191 -2.29085 0
M  V30 24207 C 2202.88 -2.99129 0.306974 0
M  V30 24208 C 2204.42 -3.11967 0.254078 0
M  V30 24209 C 2204.9 -4.53939 0.608547 0
M  V30 24210 N 2206.39 -4.59798 0.560322 0
M  V30 24211 C 2207.12 -5.67688 0.807319 0
M  V30 24212 N 2206.62 -6.83699 1.11924 0
M  V30 24213 N 2208.41 -5.57264 0.735721 0
M  V30 24214 H 2200.56 -1.72588 1.23803 0
M  V30 24215 H 2202.83 -0.805073 0.500561 0
M  V30 24216 H 2202.53 -3.25655 1.32822 0
M  V30 24217 H 2202.41 -3.75579 -0.349297 0
M  V30 24218 H 2204.79 -2.85202 -0.75789 0
M  V30 24219 H 2204.88 -2.37717 0.94469 0
M  V30 24220 H 2204.52 -4.81431 1.61823 0
M  V30 24221 H 2204.45 -5.26497 -0.10392 0
M  V30 24222 H 2206.94 -3.76462 0.329354 0
M  V30 24223 H 2207.25 -7.61886 1.29422 0
M  V30 24224 H 2205.6 -6.853 1.15708 0
M  V30 24225 H 2208.79 -4.65509 0.491834 0
M  V30 24226 H 2208.96 -6.41269 0.931595 0
M  V30 24227 N 2202.37 -0.00838561 -1.57598 0
M  V30 24228 C 2203.33 0.965206 -2.07886 0
M  V30 24229 C 2204.33 1.26723 -0.989847 0
M  V30 24230 O 2205.52 1.21101 -1.2522 0
M  V30 24231 C 2202.65 2.28775 -2.52735 0
M  V30 24232 H 2203.85 0.53006 -2.95179 0
M  V30 24233 H 2201.4 0.239256 -1.54458 0
M  V30 24234 H 2202.14 2.76961 -1.6871 0
M  V30 24235 H 2201.92 2.08172 -3.32276 0
M  V30 24236 H 2203.41 2.986 -2.91938 0
M  V30 24237 N 2203.85 1.55365 0.264492 0
M  V30 24238 C 2204.78 1.91838 1.33117 0
M  V30 24239 C 2205.76 0.781219 1.51099 0
M  V30 24240 O 2206.94 1.04006 1.64001 0
M  V30 24241 C 2204.07 2.19774 2.68918 0
M  V30 24242 C 2203.03 3.35576 2.65655 0
M  V30 24243 C 2202.35 3.49011 4.05087 0
M  V30 24244 C 2203.65 4.71743 2.24179 0
M  V30 24245 H 2205.35 2.81184 1.02839 0
M  V30 24246 H 2202.89 1.35288 0.493263 0
M  V30 24247 H 2204.85 2.43878 3.43659 0
M  V30 24248 H 2203.57 1.27236 3.00796 0
M  V30 24249 H 2202.23 3.11453 1.93371 0
M  V30 24250 H 2201.88 2.53924 4.34202 0
M  V30 24251 H 2201.58 4.26875 4.03797 0
M  V30 24252 H 2203.1 3.75417 4.81554 0
M  V30 24253 H 2204.52 4.95335 2.88646 0
M  V30 24254 H 2202.91 5.52583 2.34034 0
M  V30 24255 H 2203.98 4.6999 1.19319 0
M  V30 24256 N 2205.33 -0.529387 1.48443 0
M  V30 24257 C 2206.24 -1.66081 1.65693 0
M  V30 24258 C 2207.25 -1.65426 0.539461 0
M  V30 24259 O 2208.43 -1.84367 0.810605 0
M  V30 24260 C 2205.49 -3.02542 1.69321 0
M  V30 24261 C 2204.55 -3.14047 2.927 0
M  V30 24262 C 2203.79 -4.43998 2.96144 0
M  V30 24263 O 2204.01 -5.31131 2.07982 0
M  V30 24264 O 2202.94 -4.59881 3.8832 0
M  V30 24265 H 2206.77 -1.54464 2.61485 0
M  V30 24266 H 2204.35 -0.702544 1.31851 0
M  V30 24267 H 2206.24 -3.83698 1.74224 0
M  V30 24268 H 2204.91 -3.14481 0.767022 0
M  V30 24269 H 2203.82 -2.32184 2.93328 0
M  V30 24270 H 2205.15 -3.07023 3.84704 0
M  V30 24271 N 2206.8 -1.37041 -0.778305 0
M  V30 24272 C 2207.71 -1.3445 -1.92251 0
M  V30 24273 C 2208.73 -0.245021 -1.72266 0
M  V30 24274 O 2209.91 -0.479293 -1.95614 0
M  V30 24275 C 2206.97 -1.14405 -3.2728 0
M  V30 24276 C 2206.03 -2.33931 -3.59965 0
M  V30 24277 C 2205.26 -2.14834 -4.88551 0
M  V30 24278 O 2205.49 -1.12922 -5.59111 0
M  V30 24279 O 2204.42 -3.0287 -5.20147 0
M  V30 24280 H 2208.25 -2.30807 -1.97388 0
M  V30 24281 H 2205.83 -1.17703 -0.920134 0
M  V30 24282 H 2207.71 -1.05189 -4.0806 0
M  V30 24283 H 2206.39 -0.211181 -3.2301 0
M  V30 24284 H 2205.3 -2.48718 -2.79446 0
M  V30 24285 H 2206.63 -3.25763 -3.6897 0
M  V30 24286 N 2208.28 1.00373 -1.21503 0
M  V30 24287 C 2209.24 2.07336 -0.976963 0
M  V30 24288 C 2210.24 1.60714 0.052504 0
M  V30 24289 O 2211.43 1.73216 -0.1849 0
M  V30 24290 C 2208.57 3.37596 -0.473483 0
M  V30 24291 H 2209.76 2.29889 -1.92591 0
M  V30 24292 H 2207.31 1.17369 -1.03219 0
M  V30 24293 H 2208.05 3.20723 0.480323 0
M  V30 24294 H 2207.83 3.72766 -1.21607 0
M  V30 24295 H 2209.32 4.16319 -0.326824 0
M  V30 24296 N 2209.76 1.02298 1.19887 0
M  V30 24297 C 2210.69 0.619214 2.2514 0
M  V30 24298 C 2211.67 -0.368886 1.66052 0
M  V30 24299 O 2212.86 -0.252907 1.92546 0
M  V30 24300 C 2209.99 -0.0368173 3.4728 0
M  V30 24301 C 2208.94 0.872939 4.19003 0
M  V30 24302 C 2208.27 0.0823342 5.34637 0
M  V30 24303 C 2209.57 2.18395 4.74448 0
M  V30 24304 H 2211.26 1.49907 2.59168 0
M  V30 24305 H 2208.81 0.722244 1.24578 0
M  V30 24306 H 2210.76 -0.330884 4.20099 0
M  V30 24307 H 2209.48 -0.951435 3.12434 0
M  V30 24308 H 2208.14 1.15111 3.48059 0
M  V30 24309 H 2207.79 -0.834133 4.96036 0
M  V30 24310 H 2207.49 0.688252 5.83555 0
M  V30 24311 H 2209.01 -0.20513 6.10255 0
M  V30 24312 H 2210.43 1.95182 5.39052 0
M  V30 24313 H 2208.82 2.74128 5.33829 0
M  V30 24314 H 2209.89 2.84263 3.92839 0
M  V30 24315 N 2211.24 -1.35782 0.800057 0
M  V30 24316 C 2212.15 -2.33683 0.207245 0
M  V30 24317 C 2213.16 -1.61552 -0.646282 0
M  V30 24318 O 2214.34 -1.9347 -0.55957 0
M  V30 24319 C 2211.4 -3.40749 -0.639599 0
M  V30 24320 C 2210.47 -4.28664 0.23366 0
M  V30 24321 C 2209.7 -5.30617 -0.572861 0
M  V30 24322 O 2209.92 -5.40986 -1.80806 0
M  V30 24323 O 2208.86 -6.01891 0.0328343 0
M  V30 24324 H 2212.68 -2.86167 1.01697 0
M  V30 24325 H 2210.27 -1.38438 0.561715 0
M  V30 24326 H 2212.15 -4.06184 -1.12216 0
M  V30 24327 H 2210.82 -2.90547 -1.42703 0
M  V30 24328 H 2209.73 -3.66232 0.763212 0
M  V30 24329 H 2211.06 -4.82246 0.984869 0
M  V30 24330 N 2212.72 -0.552988 -1.4758 0
M  V30 24331 C 2213.68 0.186565 -2.28439 0
M  V30 24332 C 2214.68 0.846626 -1.36707 0
M  V30 24333 O 2215.87 0.703136 -1.59379 0
M  V30 24334 C 2213 1.27234 -3.16266 0
M  V30 24335 H 2214.19 -0.523661 -2.95293 0
M  V30 24336 H 2211.75 -0.309772 -1.532 0
M  V30 24337 H 2212.48 2.0151 -2.54095 0
M  V30 24338 H 2212.27 0.8039 -3.83771 0
M  V30 24339 H 2213.76 1.79189 -3.77201 0
M  V30 24340 N 2214.19 1.54923 -0.28923 0
M  V30 24341 C 2215.14 2.23076 0.592075 0
M  V30 24342 C 2216.11 1.20917 1.13879 0
M  V30 24343 O 2217.3 1.49502 1.18549 0
M  V30 24344 C 2214.44 2.96626 1.76371 0
M  V30 24345 C 2213.55 4.13535 1.24951 0
M  V30 24346 C 2212.68 4.74695 2.38407 0
M  V30 24347 C 2211.72 5.8377 1.84062 0
M  V30 24348 N 2210.86 6.38934 2.91045 0
M  V30 24349 H 2215.7 2.98 0.00426799 0
M  V30 24350 H 2213.24 1.47097 -0.00966114 0
M  V30 24351 H 2215.19 3.37494 2.45262 0
M  V30 24352 H 2213.82 2.24101 2.32333 0
M  V30 24353 H 2212.88 3.7769 0.453241 0
M  V30 24354 H 2214.19 4.92153 0.811576 0
M  V30 24355 H 2213.34 5.18355 3.15267 0
M  V30 24356 H 2212.08 3.95383 2.85523 0
M  V30 24357 H 2211.09 5.39546 1.05687 0
M  V30 24358 H 2212.31 6.64959 1.37865 0
M  V30 24359 H 2210.26 5.62511 3.37516 0
M  V30 24360 H 2210.17 7.12866 2.51712 0
M  V30 24361 H 2211.44 6.87252 3.67838 0
M  V30 24362 N 2215.67 0.0167433 1.57591 0
M  V30 24363 C 2216.58 -0.985172 2.12912 0
M  V30 24364 C 2217.6 -1.36555 1.07836 0
M  V30 24365 O 2218.77 -1.44948 1.39828 0
M  V30 24366 C 2215.84 -2.253 2.63516 0
M  V30 24367 C 2214.9 -1.93419 3.83259 0
M  V30 24368 C 2214.13 -3.14157 4.3144 0
M  V30 24369 O 2214.36 -4.26406 3.78859 0
M  V30 24370 O 2213.29 -2.97177 5.23421 0
M  V30 24371 H 2217.12 -0.544836 2.98773 0
M  V30 24372 H 2214.7 -0.203115 1.48013 0
M  V30 24373 H 2216.58 -2.99751 2.96188 0
M  V30 24374 H 2215.26 -2.68539 1.80745 0
M  V30 24375 H 2214.16 -1.16392 3.55533 0
M  V30 24376 H 2215.5 -1.55005 4.67155 0
M  V30 24377 N 2217.15 -1.55503 -0.256249 0
M  V30 24378 C 2218.06 -1.92649 -1.33879 0
M  V30 24379 C 2219.08 -0.825754 -1.53158 0
M  V30 24380 O 2220.25 -1.12632 -1.66961 0
M  V30 24381 C 2217.32 -2.20548 -2.67506 0
M  V30 24382 C 2216.38 -3.44001 -2.5683 0
M  V30 24383 C 2215.61 -3.70559 -3.84085 0
M  V30 24384 O 2215.83 -2.99344 -4.8554 0
M  V30 24385 O 2214.77 -4.64091 -3.8328 0
M  V30 24386 H 2218.59 -2.84835 -1.05369 0
M  V30 24387 H 2216.18 -1.42264 -0.456212 0
M  V30 24388 H 2218.06 -2.39842 -3.46488 0
M  V30 24389 H 2216.74 -1.31542 -2.95768 0
M  V30 24390 H 2215.64 -3.30024 -1.76167 0
M  V30 24391 H 2216.98 -4.3328 -2.33516 0
M  V30 24392 N 2218.63 0.521507 -1.48721 0
M  V30 24393 C 2219.56 1.63428 -1.66774 0
M  V30 24394 C 2220.54 1.62068 -0.516528 0
M  V30 24395 O 2221.72 1.79131 -0.750045 0
M  V30 24396 C 2218.85 3.0199 -1.71521 0
M  V30 24397 C 2217.81 3.18211 -2.86227 0
M  V30 24398 C 2217.13 4.57919 -2.76069 0
M  V30 24399 C 2218.43 3.00177 -4.27424 0
M  V30 24400 H 2220.13 1.48574 -2.59935 0
M  V30 24401 H 2217.67 0.713336 -1.2509 0
M  V30 24402 H 2219.63 3.79717 -1.82738 0
M  V30 24403 H 2218.35 3.17885 -0.749449 0
M  V30 24404 H 2217.01 2.42903 -2.74579 0
M  V30 24405 H 2216.66 4.70662 -1.77445 0
M  V30 24406 H 2216.36 4.69716 -3.53045 0
M  V30 24407 H 2217.88 5.37734 -2.89266 0
M  V30 24408 H 2219.3 3.67689 -4.39861 0
M  V30 24409 H 2217.69 3.23461 -5.05463 0
M  V30 24410 H 2218.76 1.96511 -4.43296 0
M  V30 24411 N 2220.11 1.37452 0.771027 0
M  V30 24412 C 2221.02 1.35467 1.91535 0
M  V30 24413 C 2222.03 0.254153 1.72134 0
M  V30 24414 O 2223.21 0.48966 1.95357 0
M  V30 24415 C 2220.27 1.16139 3.26669 0
M  V30 24416 C 2219.33 2.35837 3.58719 0
M  V30 24417 C 2218.57 2.17422 4.87405 0
M  V30 24418 O 2218.79 1.15885 5.58504 0
M  V30 24419 O 2217.72 3.05624 5.18534 0
M  V30 24420 H 2221.55 2.3185 1.96161 0
M  V30 24421 H 2219.14 1.18189 0.913879 0
M  V30 24422 H 2221.02 1.07352 4.07497 0
M  V30 24423 H 2219.69 0.228308 3.22894 0
M  V30 24424 H 2218.6 2.50197 2.78123 0
M  V30 24425 H 2219.93 3.27716 3.67237 0
M  V30 24426 N 2221.58 -0.997276 1.22033 0
M  V30 24427 C 2223 -1.2602 0.979348 0
M  V30 24428 C 2223.2 -1.98785 -0.329685 0
M  V30 24429 O 2222.26 -2.29477 -1.05341 0
M  V30 24430 C 2223.57 -2.07627 2.17512 0
M  V30 24431 C 2225.12 -2.20826 2.21821 0
M  V30 24432 C 2225.59 -3.05819 3.40938 0
M  V30 24433 N 2227.08 -3.13406 3.41073 0
M  V30 24434 C 2227.82 -3.79447 4.29892 0
M  V30 24435 N 2227.31 -4.47453 5.28922 0
M  V30 24436 N 2229.11 -3.76165 4.17679 0
M  V30 24437 H 2221.26 -0.509316 2.06203 0
M  V30 24438 H 2223.52 -0.287525 0.903346 0
M  V30 24439 H 2223.23 -1.61518 3.12418 0
M  V30 24440 H 2223.1 -3.08381 2.17211 0
M  V30 24441 H 2225.49 -2.66151 1.27466 0
M  V30 24442 H 2225.57 -1.19516 2.26162 0
M  V30 24443 H 2225.21 -2.61195 4.35591 0
M  V30 24444 H 2225.14 -4.0726 3.33836 0
M  V30 24445 H 2227.63 -2.65003 2.6941 0
M  V30 24446 H 2227.95 -4.95572 5.92982 0
M  V30 24447 H 2226.29 -4.46215 5.32839 0
M  V30 24448 H 2229.48 -3.22196 3.3957 0
M  V30 24449 H 2229.66 -4.27355 4.87106 0
M  V30 24450 N 2223.06 -1.02932 -1.19343 0
M  V30 24451 C 2224.29 -0.745678 -1.92995 0
M  V30 24452 C 2224.71 0.695558 -1.7552 0
M  V30 24453 O 2224.06 1.47304 -1.0774 0
M  V30 24454 C 2224.11 -1.08798 -3.44739 0
M  V30 24455 O 2223.83 -2.47262 -3.61653 0
M  V30 24456 C 2225.34 -0.827206 -4.35514 0
M  V30 24457 H 2222.56 -0.272812 -0.613037 0
M  V30 24458 H 2225.1 -1.37393 -1.51471 0
M  V30 24459 H 2223.25 -0.504899 -3.84096 0
M  V30 24460 H 2223.67 -2.60023 -4.55509 0
M  V30 24461 H 2225.14 -1.11668 -5.40587 0
M  V30 24462 H 2225.62 0.238359 -4.38553 0
M  V30 24463 H 2226.23 -1.39304 -4.01839 0
M  V30 24464 N 2224.54 1.35356 -0.807246 0
M  V30 24465 C 2225.49 2.31684 -0.206181 0
M  V30 24466 C 2226.48 1.56664 0.644418 0
M  V30 24467 O 2227.69 1.71787 0.537508 0
M  V30 24468 H 2224.06 0.750472 -0.0479138 0
M  V30 24469 H 2226.03 2.79922 -1.03373 0
M  V30 24470 C 2224.78 3.41942 0.630152 0
M  V30 24471 H 2224.11 3.99797 -0.0150261 0
M  V30 24472 H 2225.55 4.1162 1.01709 0
M  V30 24473 C 2224.01 2.85038 1.79596 0
M  V30 24474 O 2224.54 2.78642 2.89346 0
M  V30 24475 N 2222.74 2.42077 1.6077 0
M  V30 24476 H 2222.29 2.47479 0.714965 0
M  V30 24477 H 2222.25 2.04353 2.38929 0
M  V30 24478 N 2226.02 0.560807 1.47284 0
M  V30 24479 C 2226.97 -0.184869 2.30058 0
M  V30 24480 C 2227.94 -0.904961 1.39283 0
M  V30 24481 O 2229.12 -0.899949 1.68243 0
M  V30 24482 C 2226.26 -1.2066 3.23319 0
M  V30 24483 C 2225.37 -0.492209 4.29187 0
M  V30 24484 C 2224.51 -1.49955 5.09595 0
M  V30 24485 C 2223.55 -0.770332 6.07233 0
M  V30 24486 N 2222.68 -1.72468 6.80588 0
M  V30 24487 H 2227.52 0.5271 2.93301 0
M  V30 24488 H 2225.06 0.271763 1.44568 0
M  V30 24489 H 2227.02 -1.81161 3.75814 0
M  V30 24490 H 2225.65 -1.88656 2.61933 0
M  V30 24491 H 2224.7 0.2274 3.7972 0
M  V30 24492 H 2226.01 0.0788806 4.98738 0
M  V30 24493 H 2225.17 -2.17799 5.66258 0
M  V30 24494 H 2223.91 -2.10456 4.39954 0
M  V30 24495 H 2222.91 -0.077988 5.49745 0
M  V30 24496 H 2224.14 -0.171015 6.78885 0
M  V30 24497 H 2222.08 -2.31819 6.13674 0
M  V30 24498 H 2222 -1.20583 7.46321 0
M  V30 24499 H 2223.27 -2.39415 7.41823 0
M  V30 24500 N 2227.5 -1.54768 0.297442 0
M  V30 24501 C 2228.43 -2.19555 -0.622149 0
M  V30 24502 C 2229.41 -1.16378 -1.13556 0
M  V30 24503 O 2230.59 -1.45004 -1.20442 0
M  V30 24504 C 2227.72 -2.83657 -1.85085 0
M  V30 24505 C 2226.76 -4.0033 -1.47099 0
M  V30 24506 S 2227.6 -5.32871 -0.529967 0
M  V30 24507 C 2228.75 -6.00453 -1.76654 0
M  V30 24508 H 2228.99 -2.97213 -0.0717284 0
M  V30 24509 H 2226.52 -1.54184 0.0815949 0
M  V30 24510 H 2228.48 -3.21215 -2.55599 0
M  V30 24511 H 2227.14 -2.05851 -2.37243 0
M  V30 24512 H 2226.33 -4.43951 -2.38586 0
M  V30 24513 H 2225.93 -3.6431 -0.845821 0
M  V30 24514 H 2228.23 -6.21044 -2.70759 0
M  V30 24515 H 2229.17 -6.94662 -1.37296 0
M  V30 24516 H 2229.58 -5.30057 -1.94164 0
M  V30 24517 N 2228.97 -0.0251005 -1.5758 0
M  V30 24518 C 2229.9 0.956538 -2.13008 0
M  V30 24519 C 2230.89 1.34198 -1.04523 0
M  V30 24520 O 2232.07 1.42131 -1.32335 0
M  V30 24521 C 2229.2 2.24022 -2.6539 0
M  V30 24522 C 2228.15 1.99565 -3.78626 0
M  V30 24523 C 2227.48 3.34163 -4.1742 0
M  V30 24524 C 2228.78 1.33805 -5.0487 0
M  V30 24525 H 2230.47 0.494939 -2.95281 0
M  V30 24526 H 2228.02 0.236627 -1.42043 0
M  V30 24527 H 2229.97 2.93071 -3.02799 0
M  V30 24528 H 2228.7 2.7234 -1.80273 0
M  V30 24529 H 2227.36 1.32935 -3.41649 0
M  V30 24530 H 2227 3.80232 -3.29291 0
M  V30 24531 H 2226.7 3.18606 -4.93724 0
M  V30 24532 H 2228.23 4.04486 -4.57409 0
M  V30 24533 H 2229.64 1.92848 -5.39891 0
M  V30 24534 H 2228.04 1.28659 -5.86146 0
M  V30 24535 H 2229.11 0.310476 -4.83905 0
M  V30 24536 N 2230.45 1.55637 0.247999 0
M  V30 24537 C 2231.4 1.90224 1.30703 0
M  V30 24538 C 2232.37 0.756358 1.4788 0
M  V30 24539 O 2233.55 1.00991 1.61881 0
M  V30 24540 C 2230.69 2.20142 2.65766 0
M  V30 24541 C 2229.81 3.4753 2.56606 0
M  V30 24542 C 2228.94 3.67024 3.84014 0
M  V30 24543 C 2227.98 4.88017 3.69467 0
M  V30 24544 N 2227.12 5.04037 4.88765 0
M  V30 24545 H 2231.96 2.80539 1.00507 0
M  V30 24546 H 2229.5 1.38874 0.485031 0
M  V30 24547 H 2231.45 2.35493 3.44382 0
M  V30 24548 H 2230.08 1.33032 2.94113 0
M  V30 24549 H 2229.14 3.40517 1.69565 0
M  V30 24550 H 2230.45 4.36292 2.41767 0
M  V30 24551 H 2229.6 3.82328 4.71074 0
M  V30 24552 H 2228.34 2.76494 4.01749 0
M  V30 24553 H 2227.35 4.72691 2.80791 0
M  V30 24554 H 2228.57 5.80006 3.53228 0
M  V30 24555 H 2226.52 4.16444 5.06863 0
M  V30 24556 H 2226.43 5.86885 4.76552 0
M  V30 24557 H 2227.7 5.23751 5.77326 0
M  V30 24558 N 2231.93 -0.513613 1.48996 0
M  V30 24559 C 2232.89 -1.59876 1.64232 0
M  V30 24560 C 2233.89 -1.52339 0.514723 0
M  V30 24561 O 2235.08 -1.55716 0.780898 0
M  V30 24562 C 2232.22 -2.99521 1.62788 0
M  V30 24563 H 2233.41 -1.47701 2.61007 0
M  V30 24564 H 2230.96 -0.736912 1.37838 0
M  V30 24565 H 2231.7 -3.17186 0.675516 0
M  V30 24566 H 2231.48 -3.064 2.44666 0
M  V30 24567 H 2232.97 -3.78385 1.76676 0
M  V30 24568 N 2233.41 -1.37859 -0.763727 0
M  V30 24569 C 2234.32 -1.36481 -1.90814 0
M  V30 24570 C 2235.34 -0.263278 -1.71997 0
M  V30 24571 O 2236.51 -0.500013 -1.95094 0
M  V30 24572 C 2233.58 -1.1787 -3.26048 0
M  V30 24573 C 2232.64 -2.37736 -3.57463 0
M  V30 24574 C 2231.87 -2.20003 -4.86245 0
M  V30 24575 O 2232.09 -1.18846 -5.57882 0
M  V30 24576 O 2231.03 -3.0837 -5.16906 0
M  V30 24577 H 2234.85 -2.32887 -1.94929 0
M  V30 24578 H 2232.44 -1.18672 -0.907598 0
M  V30 24579 H 2234.32 -1.09511 -4.06922 0
M  V30 24580 H 2233 -0.245429 -3.22768 0
M  V30 24581 H 2231.9 -2.51668 -2.76792 0
M  V30 24582 H 2233.24 -3.29658 -3.65494 0
M  V30 24583 N 2234.89 0.990791 -1.22561 0
M  V30 24584 C 2235.82 2.07904 -0.94081 0
M  V30 24585 C 2236.8 1.62178 0.117054 0
M  V30 24586 O 2237.98 1.88494 -0.0149837 0
M  V30 24587 C 2235.11 3.36143 -0.41538 0
M  V30 24588 C 2234.16 4.00796 -1.45825 0
M  V30 24589 S 2234.99 4.41377 -3.03227 0
M  V30 24590 C 2236.14 5.72784 -2.52327 0
M  V30 24591 H 2236.38 2.31742 -1.86234 0
M  V30 24592 H 2233.91 1.12556 -1.0569 0
M  V30 24593 H 2235.87 4.10328 -0.118819 0
M  V30 24594 H 2234.53 3.10332 0.485066 0
M  V30 24595 H 2233.72 4.93142 -1.04053 0
M  V30 24596 H 2233.32 3.32946 -1.70362 0
M  V30 24597 H 2235.62 6.4922 -1.937 0
M  V30 24598 H 2236.56 6.19386 -3.43172 0
M  V30 24599 H 2236.97 5.30286 -1.93539 0
M  V30 24600 N 2236.37 1.03564 1.18795 0
M  V30 24601 C 2237.28 0.632544 2.25912 0
M  V30 24602 C 2238.29 -0.338852 1.70669 0
M  V30 24603 O 2239.47 -0.195041 2.00453 0
M  V30 24604 C 2236.53 -0.00344848 3.467 0
M  V30 24605 C 2235.59 1.01631 4.17097 0
M  V30 24606 C 2234.83 0.410571 5.32118 0
M  V30 24607 O 2235.05 -0.784626 5.64978 0
M  V30 24608 O 2233.98 1.13677 5.91068 0
M  V30 24609 H 2237.81 1.52483 2.62646 0
M  V30 24610 H 2235.39 0.806217 1.2578 0
M  V30 24611 H 2237.28 -0.357736 4.19879 0
M  V30 24612 H 2235.95 -0.869631 3.118 0
M  V30 24613 H 2234.86 1.4223 3.46008 0
M  V30 24614 H 2236.19 1.85309 4.55984 0
M  V30 24615 N 2237.84 -1.34926 0.814413 0
M  V30 24616 C 2239.12 -1.92941 0.321397 0
M  V30 24617 C 2239.5 -1.74355 -1.19011 0
M  V30 24618 O 2238.85 -1.1172 -1.99326 0
M  V30 24619 C 2239.06 -3.41034 0.741383 0
M  V30 24620 C 2240.41 -4.18184 0.73534 0
M  V30 24621 O 2241.43 -3.49582 0.683422 0
M  V30 24622 O 2240.29 -5.40601 0.800798 0
M  V30 24623 H 2237.38 -0.822526 0.0859038 0
M  V30 24624 H 2239.93 -1.43954 0.898634 0
M  V30 24625 H 2238.7 -3.48326 1.78282 0
M  V30 24626 H 2238.32 -3.97356 0.139377 0
M  V30 24627 N 2239.32 -0.56861 -1.46985 0
M  V30 24628 C 2240.25 0.160712 -2.32946 0
M  V30 24629 C 2241.23 0.897605 -1.44489 0
M  V30 24630 O 2242.42 0.875836 -1.73328 0
M  V30 24631 C 2239.55 1.18397 -3.26496 0
M  V30 24632 C 2238.5 0.56282 -4.24283 0
M  V30 24633 C 2237.83 1.69154 -5.07239 0
M  V30 24634 C 2239.13 -0.490853 -5.19988 0
M  V30 24635 H 2240.82 -0.556968 -2.94174 0
M  V30 24636 H 2238.37 -0.269295 -1.4146 0
M  V30 24637 H 2240.32 1.70244 -3.8548 0
M  V30 24638 H 2239.04 1.93174 -2.63346 0
M  V30 24639 H 2237.7 0.0655519 -3.66541 0
M  V30 24640 H 2237.35 2.42863 -4.40485 0
M  V30 24641 H 2237.05 1.28164 -5.73452 0
M  V30 24642 H 2238.58 2.21304 -5.69084 0
M  V30 24643 H 2239.99 -0.0580055 -5.73271 0
M  V30 24644 H 2238.39 -0.820269 -5.94467 0
M  V30 24645 H 2239.46 -1.38248 -4.64775 0
M  V30 24646 N 2240.8 1.54608 -0.305646 0
M  V30 24647 C 2242.05 2.00528 0.302711 0
M  V30 24648 C 2242.38 1.19369 1.53182 0
M  V30 24649 O 2241.65 0.271355 1.92598 0
M  V30 24650 C 2241.94 3.54099 0.654694 0
M  V30 24651 C 2241.79 4.45994 -0.583872 0
M  V30 24652 C 2243.11 4.1449 1.47939 0
M  V30 24653 H 2240.23 0.728962 0.108551 0
M  V30 24654 H 2242.87 1.8533 -0.418667 0
M  V30 24655 H 2241.02 3.6718 1.26929 0
M  V30 24656 H 2242.69 4.44811 -1.22231 0
M  V30 24657 H 2240.93 4.16402 -1.21622 0
M  V30 24658 H 2241.61 5.5122 -0.293384 0
M  V30 24659 H 2244.08 4.04873 0.960059 0
M  V30 24660 H 2242.96 5.22091 1.69445 0
M  V30 24661 H 2243.22 3.66662 2.47004 0
M  V30 24662 N 2242.28 0.033457 1.57564 0
M  V30 24663 C 2243.5 -0.657861 1.9669 0
M  V30 24664 C 2243.93 -1.64618 0.910086 0
M  V30 24665 O 2243.29 -1.80844 -0.128566 0
M  V30 24666 C 2243.33 -1.33677 3.34907 0
M  V30 24667 O 2242.44 -2.45213 3.31578 0
M  V30 24668 H 2241.78 -0.172478 0.641208 0
M  V30 24669 H 2244.31 0.096598 2.04372 0
M  V30 24670 H 2244.32 -1.69256 3.71236 0
M  V30 24671 H 2242.99 -0.612339 4.11368 0
M  V30 24672 H 2241.57 -2.11714 3.06972 0
M  V30 24673 N 2243.76 -1.55766 -0.239741 0
M  V30 24674 C 2244.98 -1.82336 -0.988341 0
M  V30 24675 C 2245.41 -0.611452 -1.77884 0
M  V30 24676 O 2244.76 0.439608 -1.7589 0
M  V30 24677 C 2244.81 -3.06718 -1.89621 0
M  V30 24678 O 2243.92 -2.84136 -2.98899 0
M  V30 24679 H 2243.26 -0.601681 -0.280848 0
M  V30 24680 H 2245.79 -2.0296 -0.258562 0
M  V30 24681 H 2245.8 -3.36342 -2.30951 0
M  V30 24682 H 2244.47 -3.94562 -1.31504 0
M  V30 24683 H 2243.05 -2.65699 -2.61646 0
M  V30 24684 N 2245.23 0.505704 -1.49266 0
M  V30 24685 C 2246.18 1.60777 -1.65588 0
M  V30 24686 C 2247.15 1.58477 -0.497424 0
M  V30 24687 O 2248.34 1.76535 -0.723881 0
M  V30 24688 C 2245.48 2.98945 -1.72413 0
M  V30 24689 C 2244.59 3.11296 -2.99531 0
M  V30 24690 C 2243.72 4.40168 -2.97364 0
M  V30 24691 C 2242.76 4.46136 -4.19082 0
M  V30 24692 N 2241.9 5.6643 -4.14851 0
M  V30 24693 H 2246.74 1.46167 -2.5969 0
M  V30 24694 H 2244.28 0.711239 -1.28763 0
M  V30 24695 H 2246.23 3.79022 -1.74351 0
M  V30 24696 H 2244.86 3.12269 -0.817807 0
M  V30 24697 H 2243.92 2.24312 -3.07226 0
M  V30 24698 H 2245.23 3.11565 -3.89524 0
M  V30 24699 H 2244.38 5.28562 -2.97838 0
M  V30 24700 H 2243.12 4.42457 -2.05141 0
M  V30 24701 H 2242.13 3.56145 -4.18856 0
M  V30 24702 H 2243.35 4.45566 -5.12491 0
M  V30 24703 H 2241.3 5.6957 -3.25463 0
M  V30 24704 H 2241.21 5.68296 -4.98574 0
M  V30 24705 H 2242.48 6.57043 -4.19422 0
M  V30 24706 N 2246.71 1.38262 0.756405 0
M  V30 24707 C 2247.99 1.24838 1.50582 0
M  V30 24708 C 2248.37 -0.151448 2.10556 0
M  V30 24709 O 2247.72 -1.16067 1.96827 0
M  V30 24710 C 2247.93 2.35635 2.57444 0
M  V30 24711 C 2249.28 2.73923 3.24425 0
M  V30 24712 O 2250.3 2.34925 2.67747 0
M  V30 24713 O 2249.16 3.41163 4.26931 0
M  V30 24714 H 2246.25 0.488022 0.667656 0
M  V30 24715 H 2248.8 1.50082 0.792057 0
M  V30 24716 H 2247.57 3.29309 2.11356 0
M  V30 24717 H 2247.19 2.11939 3.36404 0
M  V30 24718 N 2248.19 -0.984277 1.23084 0
M  V30 24719 C 2249.47 -1.69915 0.968929 0
M  V30 24720 C 2249.85 -2.04758 -0.513568 0
M  V30 24721 O 2249.2 -1.73769 -1.4838 0
M  V30 24722 C 2249.41 -2.9434 1.87524 0
M  V30 24723 C 2250.75 -3.66936 2.13642 0
M  V30 24724 O 2251.78 -3.04365 1.85042 0
M  V30 24725 O 2250.64 -4.79533 2.62127 0
M  V30 24726 H 2247.73 -0.742041 0.365108 0
M  V30 24727 H 2250.28 -1.03985 1.34109 0
M  V30 24728 H 2249.05 -2.65159 2.87761 0
M  V30 24729 H 2248.67 -3.68007 1.5052 0
M  V30 24730 N 2249.67 -1.04192 -1.18244 0
M  V30 24731 C 2250.91 -0.747155 -1.88535 0
M  V30 24732 C 2251.25 0.723377 -1.80225 0
M  V30 24733 O 2250.52 1.52802 -1.2034 0
M  V30 24734 C 2250.81 -1.2155 -3.38965 0
M  V30 24735 C 2250.66 -2.74823 -3.56079 0
M  V30 24736 C 2251.98 -0.806558 -4.32646 0
M  V30 24737 H 2249.1 -0.272895 -0.684615 0
M  V30 24738 H 2251.74 -1.29415 -1.3911 0
M  V30 24739 H 2249.89 -0.750148 -3.81189 0
M  V30 24740 H 2251.56 -3.29405 -3.2294 0
M  V30 24741 H 2249.8 -3.14587 -2.98693 0
M  V30 24742 H 2250.47 -3.02652 -4.61634 0
M  V30 24743 H 2252.95 -1.20702 -3.98209 0
M  V30 24744 H 2251.83 -1.16199 -5.3646 0
M  V30 24745 H 2252.09 0.290213 -4.41146 0
M  V30 24746 N 2251.15 1.34492 -0.821557 0
M  V30 24747 C 2252.39 1.97935 -0.408173 0
M  V30 24748 C 2252.72 1.65459 1.0319 0
M  V30 24749 O 2251.99 0.944625 1.71621 0
M  V30 24750 H 2250.57 0.732204 -0.147941 0
M  V30 24751 H 2253.23 1.64153 -1.0507 0
M  V30 24752 H 2252.32 3.07634 -0.526065 0
M  V30 24753 N 2252.62 0.576397 1.46681 0
M  V30 24754 C 2253.57 -0.160458 2.30242 0
M  V30 24755 C 2254.54 -0.890137 1.40235 0
M  V30 24756 O 2255.73 -0.882054 1.69188 0
M  V30 24757 C 2252.87 -1.17224 3.2458 0
M  V30 24758 C 2251.98 -0.44666 4.29685 0
M  V30 24759 C 2251.11 -1.44542 5.11157 0
M  V30 24760 C 2250.15 -0.705883 6.08016 0
M  V30 24761 N 2249.29 -1.65239 6.82378 0
M  V30 24762 H 2254.13 0.558179 2.92726 0
M  V30 24763 H 2251.67 0.287081 1.44271 0
M  V30 24764 H 2253.63 -1.77165 3.77715 0
M  V30 24765 H 2252.26 -1.85867 2.63919 0
M  V30 24766 H 2251.31 0.267661 3.79457 0
M  V30 24767 H 2252.62 0.131774 4.98626 0
M  V30 24768 H 2251.77 -2.11781 5.68536 0
M  V30 24769 H 2250.51 -2.05778 4.42162 0
M  V30 24770 H 2249.52 -0.0196759 5.49796 0
M  V30 24771 H 2250.74 -0.0990007 6.79028 0
M  V30 24772 H 2248.69 -2.25298 6.16098 0
M  V30 24773 H 2248.61 -1.1266 7.47558 0
M  V30 24774 H 2249.87 -2.31533 7.4432 0
M  V30 24775 N 2254.1 -1.54444 0.313841 0
M  V30 24776 C 2255.05 -2.25454 -0.572131 0
M  V30 24777 C 2256.04 -1.26512 -1.12655 0
M  V30 24778 O 2257.25 -1.44321 -1.07571 0
M  V30 24779 H 2253.63 -0.724045 -0.203134 0
M  V30 24780 H 2255.6 -2.98359 0.0491669 0
M  V30 24781 C 2254.35 -3.01823 -1.72621 0
M  V30 24782 H 2253.67 -3.77769 -1.30884 0
M  V30 24783 H 2255.11 -3.54771 -2.32193 0
M  V30 24784 C 2253.57 -2.09546 -2.63803 0
M  V30 24785 O 2254.1 -1.67192 -3.65253 0
M  V30 24786 N 2252.3 -1.75236 -2.31821 0
M  V30 24787 H 2251.85 -2.09876 -1.49365 0
M  V30 24788 H 2251.81 -1.13772 -2.93093 0
M  V30 24789 N 2255.58 -0.0418125 -1.57545 0
M  V30 24790 C 2256.83 0.634987 -1.92603 0
M  V30 24791 C 2257.16 1.71044 -0.919657 0
M  V30 24792 O 2256.43 1.9442 0.055755 0
M  V30 24793 C 2256.72 1.23973 -3.38087 0
M  V30 24794 C 2256.57 0.172978 -4.49467 0
M  V30 24795 C 2257.89 2.1541 -3.83779 0
M  V30 24796 H 2255.01 0.229362 -0.700401 0
M  V30 24797 H 2257.65 -0.101666 -1.89728 0
M  V30 24798 H 2255.8 1.86756 -3.40667 0
M  V30 24799 H 2257.47 -0.458392 -4.59017 0
M  V30 24800 H 2255.72 -0.500072 -4.30908 0
M  V30 24801 H 2256.39 0.635957 -5.48324 0
M  V30 24802 H 2258.86 1.62599 -3.83016 0
M  V30 24803 H 2257.74 2.5467 -4.86245 0
M  V30 24804 H 2258 3.05042 -3.20003 0
M  V30 24805 N 2257.06 1.55891 0.231477 0
M  V30 24806 C 2258.01 1.87995 1.29004 0
M  V30 24807 C 2258.99 0.742127 1.42763 0
M  V30 24808 O 2260.18 1.00436 1.45745 0
M  V30 24809 C 2257.31 2.19154 2.64246 0
M  V30 24810 C 2256.4 3.39303 2.54429 0
M  V30 24811 N 2256.79 4.5818 2.14254 0
M  V30 24812 C 2255.09 3.4272 2.8541 0
M  V30 24813 C 2255.79 5.40331 2.15446 0
M  V30 24814 N 2254.77 4.79787 2.55549 0
M  V30 24815 H 2258.57 2.77426 0.970165 0
M  V30 24816 H 2256.08 1.56324 0.44007 0
M  V30 24817 H 2258.08 2.40325 3.4066 0
M  V30 24818 H 2256.74 1.31031 2.97088 0
M  V30 24819 H 2257.75 4.83522 1.85546 0
M  V30 24820 H 2254.43 2.64912 3.22689 0
M  V30 24821 H 2255.82 6.45471 1.86594 0
M  V30 24822 N 2258.54 -0.497781 1.49532 0
M  V30 24823 C 2259.45 -1.62529 1.69179 0
M  V30 24824 C 2260.46 -1.64245 0.574429 0
M  V30 24825 O 2261.64 -1.82606 0.849529 0
M  V30 24826 C 2258.7 -2.98882 1.757 0
M  V30 24827 C 2257.76 -3.07768 2.99295 0
M  V30 24828 C 2257 -4.37616 3.05496 0
M  V30 24829 O 2257.22 -5.26599 2.19201 0
M  V30 24830 O 2256.15 -4.51541 3.97988 0
M  V30 24831 H 2259.98 -1.48883 2.64703 0
M  V30 24832 H 2257.57 -0.674418 1.33312 0
M  V30 24833 H 2259.45 -3.79916 1.82324 0
M  V30 24834 H 2258.12 -3.12784 0.833555 0
M  V30 24835 H 2257.03 -2.2591 2.98187 0
M  V30 24836 H 2258.36 -2.98794 3.9113 0
M  V30 24837 N 2260.01 -1.38661 -0.749062 0
M  V30 24838 C 2260.94 -1.38976 -1.87637 0
M  V30 24839 C 2261.93 -0.255034 -1.68177 0
M  V30 24840 O 2263.11 -0.458787 -1.88703 0
M  V30 24841 C 2260.24 -1.21857 -3.2522 0
M  V30 24842 C 2259.19 -2.32581 -3.59291 0
M  V30 24843 C 2258.52 -2.00563 -4.9566 0
M  V30 24844 C 2259.82 -3.74857 -3.63703 0
M  V30 24845 H 2261.51 -2.33313 -1.87631 0
M  V30 24846 H 2259.06 -1.12305 -0.90131 0
M  V30 24847 H 2261.01 -1.20702 -4.03744 0
M  V30 24848 H 2259.74 -0.239832 -3.25718 0
M  V30 24849 H 2258.4 -2.3293 -2.83089 0
M  V30 24850 H 2258.04 -1.01162 -4.92722 0
M  V30 24851 H 2257.74 -2.74723 -5.19424 0
M  V30 24852 H 2259.27 -2.01034 -5.76557 0
M  V30 24853 H 2260.68 -3.76514 -4.32331 0
M  V30 24854 H 2259.08 -4.48259 -3.98978 0
M  V30 24855 H 2260.15 -4.06846 -2.63826 0
M  V30 24856 N 2261.49 0.977736 -1.23605 0
M  V30 24857 C 2262.4 2.10468 -1.03636 0
M  V30 24858 C 2263.42 1.73989 0.0199129 0
M  V30 24859 O 2264.6 2.00629 -0.176112 0
M  V30 24860 C 2261.66 3.40876 -0.63282 0
M  V30 24861 C 2260.72 3.91364 -1.76444 0
M  V30 24862 C 2259.95 5.15548 -1.38006 0
M  V30 24863 O 2260.18 5.69782 -0.265457 0
M  V30 24864 O 2259.11 5.6017 -2.2021 0
M  V30 24865 H 2262.94 2.30204 -1.9809 0
M  V30 24866 H 2260.52 1.08849 -1.02334 0
M  V30 24867 H 2262.4 4.19313 -0.418834 0
M  V30 24868 H 2261.08 3.22463 0.282697 0
M  V30 24869 H 2259.99 3.14032 -2.03309 0
M  V30 24870 H 2261.32 4.14236 -2.65837 0
M  V30 24871 N 2262.97 1.04818 1.1769 0
M  V30 24872 C 2263.92 0.645836 2.2158 0
M  V30 24873 C 2264.89 -0.35013 1.62368 0
M  V30 24874 O 2266.07 -0.2424 1.89254 0
M  V30 24875 C 2263.21 0.0228174 3.45092 0
M  V30 24876 C 2262.33 1.06716 4.18612 0
M  V30 24877 C 2261.46 0.411861 5.29601 0
M  V30 24878 C 2260.5 1.44077 5.94902 0
M  V30 24879 N 2259.64 0.809904 6.97413 0
M  V30 24880 H 2264.48 1.53624 2.5535 0
M  V30 24881 H 2262.01 0.768386 1.25436 0
M  V30 24882 H 2263.97 -0.355807 4.1568 0
M  V30 24883 H 2262.6 -0.831067 3.11918 0
M  V30 24884 H 2261.65 1.56366 3.46777 0
M  V30 24885 H 2262.97 1.84835 4.6329 0
M  V30 24886 H 2262.12 -0.0205557 6.06697 0
M  V30 24887 H 2260.86 -0.401352 4.86046 0
M  V30 24888 H 2259.86 1.88325 5.1654 0
M  V30 24889 H 2261.09 2.25582 6.40538 0
M  V30 24890 H 2259.04 0.0171339 6.55998 0
M  V30 24891 H 2258.95 1.52869 7.40383 0
M  V30 24892 H 2260.22 0.402136 7.78462 0
M  V30 24893 N 2264.45 -1.34055 0.828678 0
M  V30 24894 C 2265.67 -2.02858 0.431673 0
M  V30 24895 C 2266.1 -1.61976 -0.95631 0
M  V30 24896 O 2265.46 -0.807256 -1.62336 0
M  V30 24897 C 2265.51 -3.56406 0.548385 0
M  V30 24898 O 2264.61 -4.10158 -0.429484 0
M  V30 24899 H 2263.95 -0.640003 0.176897 0
M  V30 24900 H 2266.48 -1.71177 1.12069 0
M  V30 24901 H 2266.49 -4.05767 0.426267 0
M  V30 24902 H 2265.17 -3.85507 1.56067 0
M  V30 24903 H 2263.74 -3.71952 -0.265771 0
M  V30 24904 N 2265.93 -0.584167 -1.46374 0
M  V30 24905 C 2266.87 0.148246 -2.30323 0
M  V30 24906 C 2267.84 0.882688 -1.40705 0
M  V30 24907 O 2269.03 0.873069 -1.69653 0
M  V30 24908 C 2266.17 1.15501 -3.25198 0
M  V30 24909 C 2265.28 0.423867 -4.29916 0
M  V30 24910 C 2264.42 1.41829 -5.11916 0
M  V30 24911 C 2263.46 0.673629 -6.08382 0
M  V30 24912 N 2262.59 1.61618 -6.83245 0
M  V30 24913 H 2267.43 -0.573695 -2.92426 0
M  V30 24914 H 2264.97 -0.294728 -1.44117 0
M  V30 24915 H 2266.93 1.7516 -3.78649 0
M  V30 24916 H 2265.56 1.84465 -2.64901 0
M  V30 24917 H 2264.61 -0.287781 -3.7931 0
M  V30 24918 H 2265.92 -0.158215 -4.98549 0
M  V30 24919 H 2265.08 2.08763 -5.69652 0
M  V30 24920 H 2263.82 2.0343 -4.43247 0
M  V30 24921 H 2262.82 -0.00948147 -5.49799 0
M  V30 24922 H 2264.05 0.0629888 -6.79071 0
M  V30 24923 H 2261.99 2.22027 -6.17284 0
M  V30 24924 H 2261.91 1.08694 -7.48145 0
M  V30 24925 H 2263.18 2.27583 -7.45538 0
M  V30 24926 N 2267.41 1.54275 -0.322027 0
M  V30 24927 C 2268.82 1.59571 0.0306719 0
M  V30 24928 C 2269.02 1.3386 1.50612 0
M  V30 24929 O 2268.08 1.12227 2.26189 0
M  V30 24930 C 2269.39 2.9821 -0.386175 0
M  V30 24931 C 2270.94 3.11184 -0.336701 0
M  V30 24932 C 2271.41 4.52166 -0.728687 0
M  V30 24933 N 2272.9 4.58151 -0.682032 0
M  V30 24934 C 2273.64 5.65348 -0.957548 0
M  V30 24935 N 2273.14 6.80492 -1.30012 0
M  V30 24936 N 2274.93 5.55118 -0.883211 0
M  V30 24937 H 2267.08 1.69245 -1.28335 0
M  V30 24938 H 2269.34 0.791519 -0.52173 0
M  V30 24939 H 2269.05 3.22019 -1.41409 0
M  V30 24940 H 2268.92 3.76373 0.249596 0
M  V30 24941 H 2271.31 2.87111 0.682008 0
M  V30 24942 H 2271.39 2.35128 -1.00738 0
M  V30 24943 H 2271.03 4.76971 -1.7453 0
M  V30 24944 H 2270.96 5.26588 -0.0357077 0
M  V30 24945 H 2273.46 3.75456 -0.429051 0
M  V30 24946 H 2273.77 7.58186 -1.49577 0
M  V30 24947 H 2272.11 6.81992 -1.33836 0
M  V30 24948 H 2275.3 4.64041 -0.615082 0
M  V30 24949 H 2275.48 6.38573 -1.10129 0
M  V30 24950 N 2268.88 0.0501669 1.5752 0
M  V30 24951 C 2269.85 -0.909749 2.10372 0
M  V30 24952 C 2270.85 -1.24054 1.0231 0
M  V30 24953 O 2272.04 -1.17739 1.28387 0
M  V30 24954 C 2269.17 -2.21994 2.58712 0
M  V30 24955 H 2270.36 -0.451613 2.9648 0
M  V30 24956 H 2267.91 -0.19822 1.55038 0
M  V30 24957 H 2268.65 -2.72391 1.75994 0
M  V30 24958 H 2268.43 -1.99289 3.37678 0
M  V30 24959 H 2269.92 -2.90755 2.99752 0
M  V30 24960 N 2270.36 -1.56011 -0.223207 0
M  V30 24961 C 2271.29 -1.953 -1.27984 0
M  V30 24962 C 2272.27 -0.821005 -1.48975 0
M  V30 24963 O 2273.46 -1.08318 -1.61186 0
M  V30 24964 C 2270.59 -2.26827 -2.62996 0
M  V30 24965 C 2269.54 -3.42501 -2.56665 0
M  V30 24966 C 2268.87 -3.59629 -3.95691 0
M  V30 24967 C 2270.17 -4.77521 -2.11592 0
M  V30 24968 H 2271.86 -2.83812 -0.953475 0
M  V30 24969 H 2269.41 -1.36549 -0.45722 0
M  V30 24970 H 2271.36 -2.52904 -3.37072 0
M  V30 24971 H 2270.08 -1.35167 -2.97317 0
M  V30 24972 H 2268.74 -3.16471 -1.85046 0
M  V30 24973 H 2268.39 -2.65347 -4.27317 0
M  V30 24974 H 2268.09 -4.37431 -3.92337 0
M  V30 24975 H 2269.62 -3.88052 -4.71432 0
M  V30 24976 H 2271.03 -5.02814 -2.75411 0
M  V30 24977 H 2269.43 -5.58594 -2.19301 0
M  V30 24978 H 2270.5 -4.72989 -1.06816 0
M  V30 24979 N 2271.84 0.489844 -1.49794 0
M  V30 24980 C 2272.75 1.6163 -1.70038 0
M  V30 24981 C 2273.77 1.63938 -0.583131 0
M  V30 24982 O 2274.94 1.82153 -0.859201 0
M  V30 24983 C 2272.01 2.97946 -1.77282 0
M  V30 24984 C 2271.07 3.06176 -3.00923 0
M  V30 24985 C 2270.3 4.3599 -3.07812 0
M  V30 24986 O 2270.52 5.2543 -2.21991 0
M  V30 24987 O 2269.46 4.49424 -4.00377 0
M  V30 24988 H 2273.28 1.47477 -2.65489 0
M  V30 24989 H 2270.87 0.667339 -1.33667 0
M  V30 24990 H 2272.75 3.78944 -1.84336 0
M  V30 24991 H 2271.43 3.12337 -0.850131 0
M  V30 24992 H 2270.33 2.24325 -2.99381 0
M  V30 24993 H 2271.67 2.96716 -3.92709 0
M  V30 24994 N 2273.32 1.39056 0.741698 0
M  V30 24995 C 2274.55 1.39174 1.53095 0
M  V30 24996 C 2274.96 -0.0154767 1.88794 0
M  V30 24997 O 2274.32 -0.985132 1.53627 0
M  V30 24998 C 2274.37 2.25845 2.8227 0
M  V30 24999 O 2274.09 3.61086 2.4809 0
M  V30 25000 C 2275.59 2.34273 3.76339 0
M  V30 25001 H 2272.81 0.475608 0.473327 0
M  V30 25002 H 2275.35 1.82787 0.917013 0
M  V30 25003 H 2273.51 1.85662 3.40012 0
M  V30 25004 H 2273.92 4.06848 3.31021 0
M  V30 25005 H 2275.4 2.99178 4.63893 0
M  V30 25006 H 2275.87 1.35989 4.17617 0
M  V30 25007 H 2276.48 2.74896 3.24518 0
M  V30 25008 N 2274.8 -0.971167 1.24121 0
M  V30 25009 C 2275.73 -2.06794 0.988386 0
M  V30 25010 C 2276.74 -1.62749 -0.0409255 0
M  V30 25011 O 2277.93 -1.77424 0.195704 0
M  V30 25012 C 2275.03 -3.35638 0.469082 0
M  V30 25013 C 2274.2 -4.08608 1.56072 0
M  V30 25014 C 2273.26 -5.15726 1.04467 0
M  V30 25015 O 2272.29 -5.42093 1.73563 0
M  V30 25016 N 2273.49 -5.8037 -0.122715 0
M  V30 25017 H 2276.25 -2.29057 1.93269 0
M  V30 25018 H 2273.82 -1.13854 1.15104 0
M  V30 25019 H 2275.81 -4.04554 0.108685 0
M  V30 25020 H 2274.38 -3.10271 -0.380865 0
M  V30 25021 H 2273.6 -3.34018 2.09346 0
M  V30 25022 H 2274.89 -4.54122 2.29457 0
M  V30 25023 H 2274.28 -5.61347 -0.700464 0
M  V30 25024 H 2272.84 -6.50418 -0.42429 0
M  V30 25025 N 2276.27 -1.05441 -1.17133 0
M  V30 25026 C 2277.21 -0.601894 -2.20119 0
M  V30 25027 C 2278.19 0.370826 -1.58315 0
M  V30 25028 O 2279.37 0.281849 -1.86381 0
M  V30 25029 C 2276.5 0.118808 -3.38492 0
M  V30 25030 C 2275.54 -0.809316 -4.18751 0
M  V30 25031 S 2276.38 -2.29986 -4.83598 0
M  V30 25032 C 2277.53 -1.5904 -6.05357 0
M  V30 25033 H 2277.76 -1.47442 -2.58163 0
M  V30 25034 H 2275.3 -0.866595 -1.27787 0
M  V30 25035 H 2277.26 0.528423 -4.07085 0
M  V30 25036 H 2275.92 0.967412 -2.98831 0
M  V30 25037 H 2275.11 -0.251468 -5.03372 0
M  V30 25038 H 2274.71 -1.15841 -3.55608 0
M  V30 25039 H 2277 -0.891135 -6.71614 0
M  V30 25040 H 2277.95 -2.41419 -6.65675 0
M  V30 25041 H 2278.35 -1.07672 -5.54136 0
M  V30 25042 N 2277.75 1.33613 -0.835776 0
M  V30 25043 C 2278.66 2.33051 -0.269129 0
M  V30 25044 C 2279.68 1.63209 0.603222 0
M  V30 25045 O 2280.85 1.94886 0.508078 0
M  V30 25046 C 2277.92 3.42325 0.549031 0
M  V30 25047 C 2276.98 4.27893 -0.347231 0
M  V30 25048 C 2276.21 5.31949 0.431976 0
M  V30 25049 O 2276.44 5.45589 1.66399 0
M  V30 25050 O 2275.37 6.01592 -0.192404 0
M  V30 25051 H 2279.2 2.8337 -1.09248 0
M  V30 25052 H 2276.78 1.369 -0.598222 0
M  V30 25053 H 2278.66 4.09017 1.01407 0
M  V30 25054 H 2277.34 2.94228 1.34949 0
M  V30 25055 H 2276.25 3.6408 -0.860043 0
M  V30 25056 H 2277.58 4.79465 -1.11238 0
M  V30 25057 N 2279.23 0.591922 1.46062 0
M  V30 25058 C 2280.14 -0.138269 2.34192 0
M  V30 25059 C 2281.16 -0.876582 1.50306 0
M  V30 25060 O 2282.33 -0.837696 1.83152 0
M  V30 25061 C 2279.4 -1.1332 3.27658 0
M  V30 25062 C 2278.46 -0.398555 4.27446 0
M  V30 25063 C 2277.69 -1.34609 5.16446 0
M  V30 25064 O 2277.91 -2.58312 5.08558 0
M  V30 25065 O 2276.85 -0.851663 5.95844 0
M  V30 25066 H 2280.67 0.585572 2.98001 0
M  V30 25067 H 2278.26 0.352265 1.45188 0
M  V30 25068 H 2280.14 -1.70664 3.85294 0
M  V30 25069 H 2278.82 -1.83835 2.66433 0
M  V30 25070 H 2277.72 0.21696 3.7347 0
M  V30 25071 H 2279.06 0.265795 4.91482 0
M  V30 25072 N 2280.71 -1.54102 0.330204 0
M  V30 25073 C 2281.64 -2.20826 -0.575438 0
M  V30 25074 C 2282.62 -1.1876 -1.11062 0
M  V30 25075 O 2283.8 -1.47526 -1.17339 0
M  V30 25076 C 2280.93 -2.87519 -1.79027 0
M  V30 25077 C 2279.98 -4.0336 -1.38574 0
M  V30 25078 S 2280.81 -5.33875 -0.416817 0
M  V30 25079 C 2281.97 -6.04065 -1.63878 0
M  V30 25080 H 2282.2 -2.97299 -0.00866888 0
M  V30 25081 H 2279.73 -1.53976 0.114281 0
M  V30 25082 H 2281.69 -3.26565 -2.48728 0
M  V30 25083 H 2280.35 -2.10836 -2.32823 0
M  V30 25084 H 2279.54 -4.48912 -2.29115 0
M  V30 25085 H 2279.15 -3.66022 -0.768355 0
M  V30 25086 H 2281.44 -6.26648 -2.57525 0
M  V30 25087 H 2282.38 -6.97418 -1.2253 0
M  V30 25088 H 2282.79 -5.34056 -1.82877 0
M  V30 25089 N 2282.19 -0.0585199 -1.57491 0
M  V30 25090 C 2283.13 0.913338 -2.11959 0
M  V30 25091 C 2284.1 1.30405 -1.02877 0
M  V30 25092 O 2285.29 1.39224 -1.30466 0
M  V30 25093 C 2282.43 2.18031 -2.67501 0
M  V30 25094 C 2281.54 1.84342 -3.90694 0
M  V30 25095 C 2280.68 3.05551 -4.34525 0
M  V30 25096 C 2279.72 2.67817 -5.504 0
M  V30 25097 N 2278.85 3.81744 -5.89251 0
M  V30 25098 H 2283.69 0.441965 -2.94704 0
M  V30 25099 H 2281.23 0.20652 -1.45643 0
M  V30 25100 H 2283.19 2.92178 -2.97805 0
M  V30 25101 H 2281.82 2.62732 -1.87542 0
M  V30 25102 H 2280.87 1.00313 -3.66935 0
M  V30 25103 H 2282.18 1.52571 -4.74893 0
M  V30 25104 H 2281.34 3.8799 -4.66421 0
M  V30 25105 H 2280.07 3.40505 -3.49153 0
M  V30 25106 H 2279.08 1.83797 -5.18169 0
M  V30 25107 H 2280.3 2.34048 -6.37494 0
M  V30 25108 H 2278.25 4.16485 -5.0683 0
M  V30 25109 H 2278.17 3.53697 -6.68158 0
M  V30 25110 H 2279.44 4.648 -6.25764 0
M  V30 25111 N 2283.66 1.56128 0.21493 0
M  V30 25112 C 2284.89 1.83538 0.95506 0
M  V30 25113 C 2285.31 0.638503 1.77675 0
M  V30 25114 O 2284.66 -0.392937 1.7822 0
M  V30 25115 C 2284.72 3.09539 1.86729 0
M  V30 25116 O 2284.44 4.2461 1.0788 0
M  V30 25117 C 2285.94 3.49985 2.72076 0
M  V30 25118 H 2283.16 0.609971 0.2796 0
M  V30 25119 H 2285.7 2.03223 0.228162 0
M  V30 25120 H 2283.86 2.9181 2.54805 0
M  V30 25121 H 2284.27 4.96233 1.69863 0
M  V30 25122 H 2285.74 4.41168 3.31775 0
M  V30 25123 H 2286.22 2.72046 3.44801 0
M  V30 25124 H 2286.83 3.70177 2.09402 0
M  V30 25125 N 2285.14 -0.481893 1.50052 0
M  V30 25126 C 2286.07 -1.59841 1.64266 0
M  V30 25127 C 2287.09 -1.54118 0.524537 0
M  V30 25128 O 2288.28 -1.59703 0.797321 0
M  V30 25129 C 2285.38 -2.98695 1.60108 0
M  V30 25130 C 2284.55 -3.29402 2.87773 0
M  V30 25131 C 2283.61 -4.47758 2.76405 0
M  V30 25132 O 2282.63 -4.48597 3.50356 0
M  V30 25133 N 2283.84 -5.48791 1.89232 0
M  V30 25134 H 2286.6 -1.48068 2.60568 0
M  V30 25135 H 2284.16 -0.670123 1.4738 0
M  V30 25136 H 2286.15 -3.75823 1.5013 0
M  V30 25137 H 2284.72 -3.04293 0.715851 0
M  V30 25138 H 2283.94 -2.40988 3.11959 0
M  V30 25139 H 2285.23 -3.46724 3.72371 0
M  V30 25140 H 2284.63 -5.50925 1.28443 0
M  V30 25141 H 2283.19 -6.24946 1.85165 0
M  V30 25142 N 2286.62 -1.39448 -0.734313 0
M  V30 25143 C 2287.55 -1.40959 -1.86153 0
M  V30 25144 C 2288.53 -0.272857 -1.67897 0
M  V30 25145 O 2289.72 -0.478776 -1.88206 0
M  V30 25146 C 2286.85 -1.25299 -3.23909 0
M  V30 25147 C 2285.8 -2.36379 -3.56804 0
M  V30 25148 C 2285.13 -2.05809 -4.93504 0
M  V30 25149 C 2286.43 -3.78693 -3.59707 0
M  V30 25150 H 2288.12 -2.3529 -1.85146 0
M  V30 25151 H 2285.67 -1.13255 -0.889347 0
M  V30 25152 H 2287.62 -1.24977 -4.02441 0
M  V30 25153 H 2286.34 -0.274366 -3.25446 0
M  V30 25154 H 2285 -2.35919 -2.80602 0
M  V30 25155 H 2284.65 -1.06383 -4.91622 0
M  V30 25156 H 2284.35 -2.80217 -5.16481 0
M  V30 25157 H 2285.87 -2.07138 -5.74392 0
M  V30 25158 H 2287.29 -3.81078 -4.28313 0
M  V30 25159 H 2285.69 -4.52466 -3.94201 0
M  V30 25160 H 2286.76 -4.09621 -2.59496 0
M  V30 25161 N 2288.1 0.964571 -1.24635 0
M  V30 25162 C 2289.01 2.09357 -1.05863 0
M  V30 25163 C 2290.02 1.74 0.00145797 0
M  V30 25164 O 2291.2 2.0043 -0.197381 0
M  V30 25165 C 2288.27 3.40185 -0.668938 0
M  V30 25166 C 2287.33 3.89471 -1.80585 0
M  V30 25167 C 2286.56 5.14056 -1.43466 0
M  V30 25168 O 2286.78 5.69468 -0.325875 0
M  V30 25169 O 2285.72 5.57803 -2.26139 0
M  V30 25170 H 2289.54 2.28091 -2.0052 0
M  V30 25171 H 2287.13 1.07758 -1.03482 0
M  V30 25172 H 2289.01 4.18846 -0.463285 0
M  V30 25173 H 2287.68 3.22745 0.24848 0
M  V30 25174 H 2286.59 3.11858 -2.06628 0
M  V30 25175 H 2287.92 4.11393 -2.70216 0
M  V30 25176 N 2289.58 1.0606 1.16572 0
M  V30 25177 C 2290.49 0.680321 2.24519 0
M  V30 25178 C 2291.5 -0.302574 1.71349 0
M  V30 25179 O 2292.68 -0.152478 2.00822 0
M  V30 25180 C 2289.74 0.0700925 3.46629 0
M  V30 25181 C 2288.8 1.10455 4.14847 0
M  V30 25182 C 2288.04 0.523349 5.31128 0
M  V30 25183 O 2288.26 -0.664609 5.66515 0
M  V30 25184 O 2287.19 1.26189 5.88523 0
M  V30 25185 H 2291.02 1.58019 2.59352 0
M  V30 25186 H 2288.61 0.832715 1.24041 0
M  V30 25187 H 2290.49 -0.268593 4.20543 0
M  V30 25188 H 2289.16 -0.803298 3.13574 0
M  V30 25189 H 2288.07 1.49538 3.42913 0
M  V30 25190 H 2289.4 1.94939 4.51951 0
M  V30 25191 N 2291.06 -1.33168 0.84285 0
M  V30 25192 C 2291.99 -2.31641 0.294069 0
M  V30 25193 C 2292.97 -1.59153 -0.600373 0
M  V30 25194 O 2294.15 -1.87022 -0.523091 0
M  V30 25195 C 2291.28 -3.43257 -0.528355 0
M  V30 25196 C 2290.24 -4.27143 0.270635 0
M  V30 25197 C 2289.56 -5.30412 -0.675788 0
M  V30 25198 C 2290.86 -5.00599 1.4899 0
M  V30 25199 H 2292.56 -2.77789 1.11686 0
M  V30 25200 H 2290.1 -1.33552 0.538502 0
M  V30 25201 H 2292.05 -4.11176 -0.922602 0
M  V30 25202 H 2290.78 -2.95808 -1.38439 0
M  V30 25203 H 2289.44 -3.60855 0.646491 0
M  V30 25204 H 2289.09 -4.79219 -1.52834 0
M  V30 25205 H 2288.79 -5.8742 -0.145271 0
M  V30 25206 H 2290.31 -6.01197 -1.06746 0
M  V30 25207 H 2291.72 -5.61264 1.16859 0
M  V30 25208 H 2290.12 -5.67276 1.95749 0
M  V30 25209 H 2291.19 -4.29143 2.25753 0
M  V30 25210 N 2292.53 -0.599659 -1.45746 0
M  V30 25211 C 2293.44 0.125847 -2.34262 0
M  V30 25212 C 2294.46 0.868598 -1.50769 0
M  V30 25213 O 2295.64 0.827971 -1.83594 0
M  V30 25214 C 2292.7 1.11581 -3.28254 0
M  V30 25215 C 2291.76 0.375881 -4.27651 0
M  V30 25216 C 2290.99 1.31868 -5.17152 0
M  V30 25217 O 2291.22 2.55612 -5.0992 0
M  V30 25218 O 2290.15 0.820052 -5.96287 0
M  V30 25219 H 2293.98 -0.601368 -2.97687 0
M  V30 25220 H 2291.56 -0.35996 -1.44999 0
M  V30 25221 H 2293.44 1.68619 -3.86194 0
M  V30 25222 H 2292.12 1.82419 -2.67404 0
M  V30 25223 H 2291.03 -0.236763 -3.7335 0
M  V30 25224 H 2292.36 -0.291856 -4.91334 0
M  V30 25225 N 2294.01 1.53925 -0.338371 0
M  V30 25226 C 2295.29 1.93051 0.31474 0
M  V30 25227 C 2295.67 1.26944 1.68667 0
M  V30 25228 O 2295.02 0.418484 2.24635 0
M  V30 25229 C 2295.23 3.46789 0.392188 0
M  V30 25230 C 2296.57 4.19665 0.645481 0
M  V30 25231 O 2297.6 3.53025 0.474513 0
M  V30 25232 O 2296.46 5.37708 0.976314 0
M  V30 25233 H 2293.55 0.806593 0.182584 0
M  V30 25234 H 2296.1 1.65177 -0.38917 0
M  V30 25235 H 2294.87 3.87115 -0.57077 0
M  V30 25236 H 2294.49 3.80814 1.14309 0
M  V30 25237 N 2295.49 0.0668712 1.57458 0
M  V30 25238 C 2296.4 -0.916937 2.15938 0
M  V30 25239 C 2297.42 -1.33056 1.12126 0
M  V30 25240 O 2298.59 -1.40426 1.44369 0
M  V30 25241 C 2295.66 -2.16802 2.70551 0
M  V30 25242 C 2294.72 -1.81128 3.89219 0
M  V30 25243 C 2293.95 -3.00272 4.41217 0
M  V30 25244 O 2294.17 -4.14137 3.92233 0
M  V30 25245 O 2293.11 -2.80375 5.3261 0
M  V30 25246 H 2296.93 -0.449508 3.00355 0
M  V30 25247 H 2294.52 -0.155923 1.48584 0
M  V30 25248 H 2296.4 -2.90176 3.05575 0
M  V30 25249 H 2295.08 -2.62653 1.89196 0
M  V30 25250 H 2293.98 -1.05022 3.59056 0
M  V30 25251 H 2295.32 -1.40065 4.7185 0
M  V30 25252 N 2296.97 -1.56239 -0.206647 0
M  V30 25253 C 2297.9 -1.96647 -1.25906 0
M  V30 25254 C 2298.88 -0.83676 -1.48096 0
M  V30 25255 O 2300.06 -1.10021 -1.60028 0
M  V30 25256 C 2297.19 -2.29603 -2.60576 0
M  V30 25257 C 2296.15 -3.45204 -2.53018 0
M  V30 25258 C 2295.47 -3.63805 -3.91854 0
M  V30 25259 C 2296.77 -4.79738 -2.06516 0
M  V30 25260 H 2298.47 -2.84807 -0.923319 0
M  V30 25261 H 2296.01 -1.37026 -0.442711 0
M  V30 25262 H 2297.97 -2.56464 -3.34371 0
M  V30 25263 H 2296.69 -1.38312 -2.95867 0
M  V30 25264 H 2295.35 -3.18415 -1.81679 0
M  V30 25265 H 2295 -2.69865 -4.24479 0
M  V30 25266 H 2294.7 -4.41567 -3.87675 0
M  V30 25267 H 2296.22 -3.93031 -4.67289 0
M  V30 25268 H 2297.64 -5.05706 -2.70063 0
M  V30 25269 H 2296.03 -5.60888 -2.13364 0
M  V30 25270 H 2297.1 -4.74095 -1.01793 0
M  V30 25271 N 2298.45 0.473929 -1.50305 0
M  V30 25272 C 2299.38 1.58968 -1.65112 0
M  V30 25273 C 2300.39 1.53838 -0.532703 0
M  V30 25274 O 2301.58 1.59278 -0.805779 0
M  V30 25275 C 2298.68 2.97842 -1.61689 0
M  V30 25276 C 2297.85 3.27871 -2.89516 0
M  V30 25277 C 2296.91 4.46285 -2.78775 0
M  V30 25278 O 2295.94 4.46733 -3.5273 0
M  V30 25279 N 2297.14 5.4778 -1.9214 0
M  V30 25280 H 2299.9 1.46684 -2.6135 0
M  V30 25281 H 2297.47 0.662298 -1.47734 0
M  V30 25282 H 2299.46 3.75022 -1.52121 0
M  V30 25283 H 2298.03 3.03909 -0.731979 0
M  V30 25284 H 2297.25 2.39331 -3.13232 0
M  V30 25285 H 2298.54 3.44744 -3.74205 0
M  V30 25286 H 2297.93 5.50237 -1.31363 0
M  V30 25287 H 2296.49 6.23955 -1.88477 0
M  V30 25288 N 2299.92 1.39835 0.726907 0
M  V30 25289 C 2300.89 1.38966 1.82267 0
M  V30 25290 C 2301.89 0.285362 1.58248 0
M  V30 25291 O 2303.08 0.543689 1.65498 0
M  V30 25292 C 2300.21 1.17025 3.20184 0
M  V30 25293 H 2301.4 2.36479 1.84439 0
M  V30 25294 H 2298.95 1.25518 0.931393 0
M  V30 25295 H 2299.69 0.202261 3.23669 0
M  V30 25296 H 2299.47 1.97003 3.39016 0
M  V30 25297 H 2300.96 1.19177 4.00233 0
M  V30 25298 N 2301.4 -0.957948 1.25144 0
M  V30 25299 C 2302.63 -1.73689 1.12427 0
M  V30 25300 C 2303.04 -1.86029 -0.322272 0
M  V30 25301 O 2302.4 -1.35563 -1.22184 0
M  V30 25302 C 2302.45 -3.15238 1.76938 0
M  V30 25303 O 2302.17 -3.03505 3.15937 0
M  V30 25304 C 2303.67 -4.09426 1.69957 0
M  V30 25305 H 2300.89 -0.544366 0.392309 0
M  V30 25306 H 2303.44 -1.20204 1.65442 0
M  V30 25307 H 2301.59 -3.65678 1.27901 0
M  V30 25308 H 2302.01 -3.92774 3.47605 0
M  V30 25309 H 2303.48 -5.06368 2.19762 0
M  V30 25310 H 2303.96 -4.34172 0.662695 0
M  V30 25311 H 2304.56 -3.649 2.18467 0
M  V30 25312 N 2302.88 -1.06677 -1.16008 0
M  V30 25313 C 2303.79 -0.692218 -2.24155 0
M  V30 25314 C 2304.81 0.293483 -1.71507 0
M  V30 25315 O 2305.98 0.141826 -2.009 0
M  V30 25316 C 2303.05 -0.0884741 -3.46587 0
M  V30 25317 C 2302.11 -1.12654 -4.14255 0
M  V30 25318 C 2301.34 -0.551509 -5.30843 0
M  V30 25319 O 2301.56 0.634556 -5.66859 0
M  V30 25320 O 2300.5 -1.29308 -5.87846 0
M  V30 25321 H 2304.32 -1.59392 -2.58511 0
M  V30 25322 H 2301.91 -0.839282 -1.23598 0
M  V30 25323 H 2303.79 0.246287 -4.2068 0
M  V30 25324 H 2302.47 0.786657 -3.13996 0
M  V30 25325 H 2301.37 -1.51354 -3.42115 0
M  V30 25326 H 2302.71 -1.97333 -4.50911 0
M  V30 25327 N 2304.36 1.32719 -0.8499 0
M  V30 25328 C 2305.63 1.92021 -0.372439 0
M  V30 25329 C 2306.01 1.77449 1.14346 0
M  V30 25330 O 2305.36 1.16965 1.96294 0
M  V30 25331 C 2305.57 3.38949 -0.831541 0
M  V30 25332 C 2306.92 4.16087 -0.845955 0
M  V30 25333 O 2307.94 3.47647 -0.775867 0
M  V30 25334 O 2306.8 5.38288 -0.943848 0
M  V30 25335 H 2303.9 0.81996 -0.107681 0
M  V30 25336 H 2306.44 1.4152 -0.936485 0
M  V30 25337 H 2305.22 3.43477 -1.87454 0
M  V30 25338 H 2304.84 3.96846 -0.244679 0
M  V30 25339 N 2305.84 0.60738 1.45426 0
M  V30 25340 C 2306.8 -0.101653 2.28974 0
M  V30 25341 C 2307.8 -0.795304 1.39755 0
M  V30 25342 O 2308.99 -0.643499 1.61879 0
M  V30 25343 C 2306.12 -1.15409 3.2077 0
M  V30 25344 H 2307.31 0.632896 2.93146 0
M  V30 25345 H 2304.87 0.366417 1.51944 0
M  V30 25346 H 2305.6 -1.91941 2.61399 0
M  V30 25347 H 2305.39 -0.660912 3.8649 0
M  V30 25348 H 2306.88 -1.65066 3.83592 0
M  V30 25349 N 2307.31 -1.53743 0.34653 0
M  V30 25350 C 2308.26 -2.2512 -0.508874 0
M  V30 25351 C 2309.23 -1.2506 -1.09313 0
M  V30 25352 O 2310.42 -1.53799 -1.12918 0
M  V30 25353 C 2307.56 -3.02968 -1.65241 0
M  V30 25354 C 2306.67 -4.17888 -1.09517 0
M  V30 25355 C 2305.8 -4.83216 -2.20625 0
M  V30 25356 C 2304.84 -5.90199 -1.62269 0
M  V30 25357 N 2303.98 -6.49296 -2.67131 0
M  V30 25358 H 2308.82 -2.9781 0.106336 0
M  V30 25359 H 2306.36 -1.4696 0.0642485 0
M  V30 25360 H 2308.32 -3.46364 -2.32568 0
M  V30 25361 H 2306.95 -2.32569 -2.23856 0
M  V30 25362 H 2306 -3.79112 -0.312751 0
M  V30 25363 H 2307.31 -4.94826 -0.628357 0
M  V30 25364 H 2306.46 -5.29699 -2.95811 0
M  V30 25365 H 2305.2 -4.05708 -2.70652 0
M  V30 25366 H 2304.21 -5.43097 -0.855893 0
M  V30 25367 H 2305.43 -6.69617 -1.1309 0
M  V30 25368 H 2303.38 -5.7465 -3.16407 0
M  V30 25369 H 2303.3 -7.21717 -2.25081 0
M  V30 25370 H 2304.56 -7.00431 -3.42077 0
M  V30 25371 N 2308.79 -0.0752207 -1.5742 0
M  V30 25372 C 2309.72 0.888286 -2.15944 0
M  V30 25373 C 2310.7 1.30804 -1.08739 0
M  V30 25374 O 2311.89 1.37848 -1.3679 0
M  V30 25375 C 2309.02 2.15465 -2.72382 0
M  V30 25376 C 2307.97 1.87418 -3.84784 0
M  V30 25377 C 2307.3 3.20714 -4.2784 0
M  V30 25378 C 2308.6 1.17675 -5.08871 0
M  V30 25379 H 2310.29 0.400747 -2.96706 0
M  V30 25380 H 2307.84 0.191317 -1.42723 0
M  V30 25381 H 2309.79 2.83289 -3.1197 0
M  V30 25382 H 2308.52 2.66467 -1.88846 0
M  V30 25383 H 2307.17 1.21998 -3.45705 0
M  V30 25384 H 2306.82 3.69564 -3.41221 0
M  V30 25385 H 2306.52 3.02738 -5.03611 0
M  V30 25386 H 2308.05 3.8973 -4.70046 0
M  V30 25387 H 2309.46 1.75574 -5.45753 0
M  V30 25388 H 2307.86 1.09946 -5.89942 0
M  V30 25389 H 2308.93 0.156368 -4.84648 0
M  V30 25390 N 2310.27 1.56347 0.198358 0
M  V30 25391 C 2311.69 1.49858 0.549059 0
M  V30 25392 C 2311.89 0.774644 1.86015 0
M  V30 25393 O 2310.94 0.32382 2.50415 0
M  V30 25394 C 2312.26 2.94514 0.606816 0
M  V30 25395 C 2313.8 3.05167 0.695872 0
M  V30 25396 C 2314.28 4.51227 0.784769 0
M  V30 25397 N 2315.77 4.55364 0.848383 0
M  V30 25398 C 2316.5 5.65688 0.937279 0
M  V30 25399 N 2316 6.85709 0.98868 0
M  V30 25400 N 2317.79 5.53593 0.974215 0
M  V30 25401 H 2309.94 2.0183 -0.661691 0
M  V30 25402 H 2312.21 0.91834 -0.235277 0
M  V30 25403 H 2311.91 3.50524 -0.287381 0
M  V30 25404 H 2311.79 3.47689 1.46262 0
M  V30 25405 H 2314.17 2.49207 1.5805 0
M  V30 25406 H 2314.26 2.55122 -0.186066 0
M  V30 25407 H 2313.9 5.0781 -0.0954964 0
M  V30 25408 H 2313.83 4.99 1.68246 0
M  V30 25409 H 2316.32 3.6894 0.818038 0
M  V30 25410 H 2316.63 7.65538 1.05693 0
M  V30 25411 H 2314.98 6.88374 0.957413 0
M  V30 25412 H 2318.17 4.58751 0.930873 0
M  V30 25413 H 2318.34 6.39599 1.04004 0
M  V30 25414 N 2311.75 -0.465951 1.50554 0
M  V30 25415 C 2312.68 -1.57125 1.72725 0
M  V30 25416 C 2313.66 -1.60039 0.576322 0
M  V30 25417 O 2314.84 -1.76224 0.816011 0
M  V30 25418 C 2311.97 -2.95416 1.82611 0
M  V30 25419 C 2310.93 -3.07368 2.9784 0
M  V30 25420 C 2310.25 -4.47357 2.92875 0
M  V30 25421 C 2311.55 -2.84106 4.3827 0
M  V30 25422 H 2313.25 -1.38825 2.6527 0
M  V30 25423 H 2310.79 -0.666418 1.27651 0
M  V30 25424 H 2312.75 -3.72673 1.96705 0
M  V30 25425 H 2311.47 -3.14884 0.866914 0
M  V30 25426 H 2310.13 -2.32545 2.83405 0
M  V30 25427 H 2309.78 -4.63752 1.94791 0
M  V30 25428 H 2309.48 -4.56289 3.70235 0
M  V30 25429 H 2311 -5.26627 3.09024 0
M  V30 25430 H 2312.42 -3.5111 4.53205 0
M  V30 25431 H 2310.81 -3.04478 5.1712 0
M  V30 25432 H 2311.88 -1.79923 4.50284 0
M  V30 25433 N 2313.23 -1.40218 -0.719481 0
M  V30 25434 C 2314.14 -1.42483 -1.86375 0
M  V30 25435 C 2315.15 -0.317864 -1.71072 0
M  V30 25436 O 2316.33 -0.561828 -1.93405 0
M  V30 25437 C 2313.39 -1.28183 -3.22133 0
M  V30 25438 C 2312.45 -2.48988 -3.49719 0
M  V30 25439 C 2311.69 -2.35362 -4.79 0
M  V30 25440 O 2311.91 -1.36534 -5.53818 0
M  V30 25441 O 2310.84 -3.24659 -5.06834 0
M  V30 25442 H 2314.67 -2.38971 -1.87421 0
M  V30 25443 H 2312.26 -1.21499 -0.869384 0
M  V30 25444 H 2314.14 -1.22402 -4.03232 0
M  V30 25445 H 2312.81 -0.347991 -3.21824 0
M  V30 25446 H 2311.72 -2.60347 -2.68645 0
M  V30 25447 H 2313.05 -3.4112 -3.54822 0
M  V30 25448 N 2314.7 0.951297 -1.25651 0
M  V30 25449 C 2315.95 1.69882 -1.1076 0
M  V30 25450 C 2316.28 1.91019 0.350028 0
M  V30 25451 O 2315.56 1.48356 1.2578 0
M  V30 25452 C 2315.84 3.07975 -1.86611 0
M  V30 25453 C 2315.69 2.94226 -3.40222 0
M  V30 25454 C 2317.01 4.07922 -1.65189 0
M  V30 25455 H 2314.13 0.616566 -0.403751 0
M  V30 25456 H 2316.77 1.10556 -1.54523 0
M  V30 25457 H 2314.92 3.58619 -1.49415 0
M  V30 25458 H 2316.6 2.50882 -3.87112 0
M  V30 25459 H 2314.84 2.30071 -3.67763 0
M  V30 25460 H 2315.51 3.92126 -3.88512 0
M  V30 25461 H 2317.99 3.66201 -1.97576 0
M  V30 25462 H 2316.86 5.02579 -2.20692 0
M  V30 25463 H 2317.12 4.38091 -0.59401 0
M  V30 25464 N 2316.18 1.07291 1.1544 0
M  V30 25465 C 2317.13 0.686991 2.22223 0
M  V30 25466 C 2318.12 -0.301901 1.66688 0
M  V30 25467 O 2319.33 -0.16568 1.79236 0
M  V30 25468 H 2315.71 0.204077 0.723779 0
M  V30 25469 H 2317.68 1.59724 2.52053 0
M  V30 25470 C 2316.43 0.10021 3.47556 0
M  V30 25471 H 2315.75 0.852279 3.9061 0
M  V30 25472 H 2317.19 -0.132161 4.23794 0
M  V30 25473 C 2315.65 -1.15894 3.16339 0
M  V30 25474 O 2316.18 -2.24549 3.33078 0
M  V30 25475 N 2314.38 -1.06486 2.70387 0
M  V30 25476 H 2313.93 -0.180623 2.56966 0
M  V30 25477 H 2313.89 -1.90815 2.49874 0
M  V30 25478 N 2317.66 -1.32267 0.856927 0
M  V30 25479 C 2318.59 -2.26849 0.247976 0
M  V30 25480 C 2319.57 -1.50506 -0.615356 0
M  V30 25481 O 2320.76 -1.79623 -0.571657 0
M  V30 25482 C 2317.88 -3.32404 -0.650035 0
M  V30 25483 C 2316.93 -4.26269 0.140213 0
M  V30 25484 S 2317.76 -5.13766 1.51013 0
M  V30 25485 C 2318.92 -6.22843 0.61789 0
M  V30 25486 H 2319.15 -2.7815 1.04976 0
M  V30 25487 H 2316.68 -1.39833 0.654689 0
M  V30 25488 H 2318.64 -3.93696 -1.1625 0
M  V30 25489 H 2317.3 -2.79882 -1.42565 0
M  V30 25490 H 2316.5 -5.01057 -0.543857 0
M  V30 25491 H 2316.1 -3.69407 0.584332 0
M  V30 25492 H 2318.39 -6.77269 -0.176934 0
M  V30 25493 H 2319.33 -6.95373 1.33648 0
M  V30 25494 H 2319.74 -5.64176 0.191223 0
M  V30 25495 N 2319.14 -0.615084 -1.45102 0
M  V30 25496 C 2320.07 0.13758 -2.28787 0
M  V30 25497 C 2321.08 0.8245 -1.40377 0
M  V30 25498 O 2322.27 0.688633 -1.64682 0
M  V30 25499 C 2319.37 1.21623 -3.16324 0
M  V30 25500 C 2318.55 0.614963 -4.33055 0
M  V30 25501 C 2317.6 1.58547 -5.01746 0
M  V30 25502 O 2316.63 1.10885 -5.58295 0
M  V30 25503 N 2317.83 2.9199 -5.01719 0
M  V30 25504 H 2320.6 -0.580535 -2.94024 0
M  V30 25505 H 2318.16 -0.455097 -1.55372 0
M  V30 25506 H 2320.15 1.86545 -3.59142 0
M  V30 25507 H 2318.72 1.83677 -2.52946 0
M  V30 25508 H 2317.94 -0.212519 -3.93627 0
M  V30 25509 H 2319.23 0.193615 -5.08431 0
M  V30 25510 H 2318.63 3.33308 -4.5708 0
M  V30 25511 H 2317.18 3.52315 -5.48377 0
M  V30 25512 N 2320.62 1.53557 -0.354678 0
M  V30 25513 C 2321.58 2.2402 0.484526 0
M  V30 25514 C 2322.58 1.24424 1.01859 0
M  V30 25515 O 2323.77 1.48782 0.906071 0
M  V30 25516 C 2320.9 2.9685 1.6761 0
M  V30 25517 H 2322.1 2.9961 -0.131895 0
M  V30 25518 H 2319.65 1.55939 -0.106193 0
M  V30 25519 H 2320.38 2.25475 2.33091 0
M  V30 25520 H 2320.17 3.69914 1.30023 0
M  V30 25521 H 2321.66 3.50445 2.27108 0
M  V30 25522 N 2322.1 0.083568 1.57378 0
M  V30 25523 C 2323.03 -0.876822 2.16412 0
M  V30 25524 C 2324.01 -1.30226 1.09431 0
M  V30 25525 O 2325.19 -1.37121 1.37519 0
M  V30 25526 C 2322.32 -2.14017 2.73521 0
M  V30 25527 C 2321.28 -1.85375 3.85772 0
M  V30 25528 C 2320.6 -3.1844 4.29534 0
M  V30 25529 C 2321.9 -1.14975 5.09488 0
M  V30 25530 H 2323.6 -0.385006 2.96914 0
M  V30 25531 H 2321.14 -0.183745 1.42823 0
M  V30 25532 H 2323.09 -2.81631 3.13468 0
M  V30 25533 H 2321.82 -2.65462 1.90257 0
M  V30 25534 H 2320.48 -1.20163 3.46347 0
M  V30 25535 H 2320.13 -3.67749 3.43176 0
M  V30 25536 H 2319.83 -3.00063 5.05209 0
M  V30 25537 H 2321.35 -3.87231 4.72106 0
M  V30 25538 H 2322.76 -1.72677 5.46677 0
M  V30 25539 H 2321.16 -1.06816 5.90517 0
M  V30 25540 H 2322.23 -0.130663 4.84724 0
M  V30 25541 N 2323.57 -1.5645 -0.190064 0
M  V30 25542 C 2324.52 -1.94944 -1.23553 0
M  V30 25543 C 2325.49 -0.810722 -1.44971 0
M  V30 25544 O 2326.68 -1.0693 -1.58021 0
M  V30 25545 C 2323.82 -2.29854 -2.57412 0
M  V30 25546 C 2322.93 -3.56815 -2.43531 0
M  V30 25547 C 2322.06 -3.81024 -3.70128 0
M  V30 25548 C 2321.1 -5.01393 -3.511 0
M  V30 25549 N 2320.24 -5.2183 -4.69721 0
M  V30 25550 H 2325.08 -2.84076 -0.900254 0
M  V30 25551 H 2322.62 -1.40578 -0.433155 0
M  V30 25552 H 2324.57 -2.48112 -3.35404 0
M  V30 25553 H 2323.2 -1.43857 -2.88973 0
M  V30 25554 H 2322.26 -3.46576 -1.5681 0
M  V30 25555 H 2323.57 -4.44964 -2.25407 0
M  V30 25556 H 2322.72 -3.99548 -4.56559 0
M  V30 25557 H 2321.46 -2.91214 -3.9121 0
M  V30 25558 H 2320.47 -4.82786 -2.63054 0
M  V30 25559 H 2321.69 -5.92716 -3.31458 0
M  V30 25560 H 2319.64 -4.34969 -4.91058 0
M  V30 25561 H 2319.55 -6.04168 -4.54442 0
M  V30 25562 H 2320.82 -5.44817 -5.57489 0
M  V30 25563 N 2325.05 0.45796 -1.50799 0
M  V30 25564 C 2326.3 1.20667 -1.62123 0
M  V30 25565 C 2326.62 1.9219 -0.329827 0
M  V30 25566 O 2325.89 1.84683 0.653376 0
M  V30 25567 H 2324.47 0.448401 -0.597449 0
M  V30 25568 H 2327.13 0.527063 -1.87638 0
M  V30 25569 H 2326.23 1.94747 -2.43885 0
M  V30 25570 N 2326.53 1.40598 0.712035 0
M  V30 25571 C 2327.46 1.37064 1.83701 0
M  V30 25572 C 2328.47 0.275454 1.60453 0
M  V30 25573 O 2329.66 0.53605 1.70261 0
M  V30 25574 C 2326.76 1.11105 3.2017 0
M  V30 25575 C 2325.94 2.32347 3.70586 0
M  V30 25576 C 2325 2.02494 4.85678 0
M  V30 25577 O 2324.02 2.75391 4.98145 0
M  V30 25578 N 2325.22 1.00507 5.71733 0
M  V30 25579 H 2327.99 2.34019 1.8723 0
M  V30 25580 H 2325.55 1.34998 0.893715 0
M  V30 25581 H 2327.54 0.891134 3.94767 0
M  V30 25582 H 2326.11 0.228044 3.11767 0
M  V30 25583 H 2325.33 2.70145 2.8708 0
M  V30 25584 H 2326.62 3.13165 4.01006 0
M  V30 25585 H 2326.02 0.401397 5.64274 0
M  V30 25586 H 2324.57 0.845056 6.46299 0
M  V30 25587 N 2328.01 -0.94462 1.26153 0
M  V30 25588 C 2329.25 -1.69042 1.11495 0
M  V30 25589 C 2329.58 -1.91464 -0.342333 0
M  V30 25590 O 2328.84 -1.49056 -1.2681 0
M  V30 25591 C 2329.14 -3.07265 1.82547 0
M  V30 25592 C 2328.8 -3.0461 3.32451 0
M  V30 25593 C 2327.46 -3.03593 3.73342 0
M  V30 25594 C 2329.82 -2.97178 4.28176 0
M  V30 25595 C 2327.14 -2.92906 5.08353 0
M  V30 25596 C 2329.5 -2.88031 5.63223 0
M  V30 25597 C 2328.16 -2.85356 6.03431 0
M  V30 25598 H 2327.43 -0.618568 0.407988 0
M  V30 25599 H 2330.08 -1.10288 1.56553 0
M  V30 25600 H 2328.38 -3.69623 1.29948 0
M  V30 25601 H 2330.08 -3.63812 1.68648 0
M  V30 25602 H 2326.67 -3.06179 2.9992 0
M  V30 25603 H 2330.85 -2.97074 3.97568 0
M  V30 25604 H 2326.11 -2.89209 5.38672 0
M  V30 25605 H 2330.28 -2.81243 6.37083 0
M  V30 25606 H 2327.91 -2.7683 7.08004 0
M  V30 25607 N 2329.49 -1.07901 -1.1487 0
M  V30 25608 C 2330.4 -0.715954 -2.23408 0
M  V30 25609 C 2331.41 0.275275 -1.71809 0
M  V30 25610 O 2332.59 0.12051 -2.01039 0
M  V30 25611 C 2329.65 -0.125229 -3.46474 0
M  V30 25612 C 2328.71 -1.17041 -4.13037 0
M  V30 25613 C 2327.95 -0.607781 -5.30228 0
M  V30 25614 O 2328.17 0.574397 -5.67501 0
M  V30 25615 O 2327.1 -1.35536 -5.86441 0
M  V30 25616 H 2330.93 -1.62125 -2.56805 0
M  V30 25617 H 2328.51 -0.852344 -1.22701 0
M  V30 25618 H 2330.4 0.201655 -4.20917 0
M  V30 25619 H 2329.07 0.753309 -3.14813 0
M  V30 25620 H 2327.98 -1.54974 -3.40491 0
M  V30 25621 H 2329.31 -2.02105 -4.48792 0
M  V30 25622 N 2330.96 1.31811 -0.863929 0
M  V30 25623 C 2332.38 1.49638 -0.55503 0
M  V30 25624 C 2332.58 1.79668 0.912234 0
M  V30 25625 O 2331.64 1.87174 1.69476 0
M  V30 25626 C 2332.95 2.63429 -1.45003 0
M  V30 25627 C 2334.5 2.77313 -1.45143 0
M  V30 25628 C 2334.97 3.94193 -2.33186 0
M  V30 25629 N 2336.46 4.0147 -2.31032 0
M  V30 25630 C 2337.2 4.91165 -2.95879 0
M  V30 25631 N 2336.69 5.85803 -3.69873 0
M  V30 25632 N 2338.49 4.84362 -2.85219 0
M  V30 25633 H 2330.64 1.10586 -1.81341 0
M  V30 25634 H 2332.9 0.545881 -0.77506 0
M  V30 25635 H 2332.61 2.47996 -2.49381 0
M  V30 25636 H 2332.48 3.59429 -1.14416 0
M  V30 25637 H 2334.87 2.92164 -0.415253 0
M  V30 25638 H 2334.95 1.81998 -1.79751 0
M  V30 25639 H 2334.59 3.80101 -3.36877 0
M  V30 25640 H 2334.52 4.88803 -1.95906 0
M  V30 25641 H 2337.01 3.33756 -1.77244 0
M  V30 25642 H 2337.33 6.50961 -4.16497 0
M  V30 25643 H 2335.67 5.85801 -3.73981 0
M  V30 25644 H 2338.86 4.09401 -2.26955 0
M  V30 25645 H 2339.04 5.5406 -3.36037 0
M  V30 25646 N 2332.44 0.62277 1.44773 0
M  V30 25647 C 2333.72 0.0552318 1.95522 0
M  V30 25648 C 2334.1 -1.4168 1.56493 0
M  V30 25649 O 2333.45 -2.12701 0.834885 0
M  V30 25650 C 2333.66 0.269303 3.47959 0
M  V30 25651 C 2335 0.158088 4.24306 0
M  V30 25652 O 2336.03 0.200224 3.55637 0
M  V30 25653 O 2334.89 0.0559654 5.46471 0
M  V30 25654 H 2331.98 -0.027087 0.826556 0
M  V30 25655 H 2334.53 0.693892 1.54865 0
M  V30 25656 H 2333.3 1.29106 3.69388 0
M  V30 25657 H 2332.92 -0.403896 3.95543 0
M  V30 25658 N 2333.92 -1.53367 0.362817 0
M  V30 25659 C 2334.85 -2.28577 -0.476936 0
M  V30 25660 C 2335.83 -1.30896 -1.08629 0
M  V30 25661 O 2337.02 -1.59763 -1.10406 0
M  V30 25662 C 2334.15 -3.07296 -1.61823 0
M  V30 25663 C 2333.1 -4.12642 -1.13626 0
M  V30 25664 C 2332.43 -4.79427 -2.36757 0
M  V30 25665 C 2333.73 -5.21824 -0.222969 0
M  V30 25666 H 2335.42 -2.99021 0.150526 0
M  V30 25667 H 2332.97 -1.43811 0.0738356 0
M  V30 25668 H 2334.92 -3.58657 -2.21231 0
M  V30 25669 H 2333.64 -2.34537 -2.27288 0
M  V30 25670 H 2332.3 -3.62222 -0.564881 0
M  V30 25671 H 2331.95 -4.03243 -3.00673 0
M  V30 25672 H 2331.65 -5.50612 -2.05182 0
M  V30 25673 H 2333.17 -5.33581 -2.96856 0
M  V30 25674 H 2334.59 -5.68704 -0.724445 0
M  V30 25675 H 2332.98 -6.001 0.00178349 0
M  V30 25676 H 2334.05 -4.79287 0.735638 0
M  V30 25677 N 2335.4 -0.091913 -1.57332 0
M  V30 25678 C 2336.33 0.898131 -2.1087 0
M  V30 25679 C 2337.34 1.24815 -1.04523 0
M  V30 25680 O 2338.53 1.20182 -1.31979 0
M  V30 25681 C 2335.63 2.20816 -2.57087 0
M  V30 25682 C 2334.81 2.03396 -3.87232 0
M  V30 25683 C 2333.86 3.17882 -4.1933 0
M  V30 25684 O 2332.89 2.91985 -4.88603 0
M  V30 25685 N 2334.09 4.43561 -3.74479 0
M  V30 25686 H 2336.86 0.440891 -2.96439 0
M  V30 25687 H 2334.42 0.093278 -1.61631 0
M  V30 25688 H 2336.41 2.96349 -2.75607 0
M  V30 25689 H 2334.98 2.57973 -1.76546 0
M  V30 25690 H 2334.2 1.12211 -3.77892 0
M  V30 25691 H 2335.49 1.8903 -4.72382 0
M  V30 25692 H 2334.89 4.67483 -3.18554 0
M  V30 25693 H 2333.44 5.16054 -3.9816 0
M  V30 25694 N 2336.88 1.56548 0.181765 0
M  V30 25695 C 2337.84 1.94726 1.2089 0
M  V30 25696 C 2338.84 0.829771 1.37737 0
M  V30 25697 O 2340.03 1.09699 1.35321 0
M  V30 25698 C 2337.16 2.23296 2.57589 0
M  V30 25699 H 2338.35 2.8663 0.882225 0
M  V30 25700 H 2335.91 1.50444 0.423811 0
M  V30 25701 H 2336.64 1.34072 2.95288 0
M  V30 25702 H 2336.43 3.04741 2.4673 0
M  V30 25703 H 2337.92 2.5379 3.31633 0
M  V30 25704 N 2338.35 -0.449957 1.5104 0
M  V30 25705 C 2339.77 -0.785438 1.38935 0
M  V30 25706 C 2339.97 -1.96136 0.461851 0
M  V30 25707 O 2339.03 -2.52348 -0.0876945 0
M  V30 25708 C 2340.34 -1.07765 2.80726 0
M  V30 25709 C 2341.89 -1.18285 2.89789 0
M  V30 25710 C 2342.36 -1.50807 4.32459 0
M  V30 25711 N 2343.85 -1.57757 4.35508 0
M  V30 25712 C 2344.59 -1.84468 5.42917 0
M  V30 25713 N 2344.08 -2.09056 6.60505 0
M  V30 25714 N 2345.88 -1.86146 5.30383 0
M  V30 25715 H 2338.03 0.324684 2.09904 0
M  V30 25716 H 2340.29 0.0828123 0.944376 0
M  V30 25717 H 2340 -0.286437 3.50532 0
M  V30 25718 H 2339.87 -2.00853 3.19277 0
M  V30 25719 H 2342.26 -1.96471 2.20189 0
M  V30 25720 H 2342.34 -0.231269 2.54752 0
M  V30 25721 H 2341.98 -0.731534 5.02604 0
M  V30 25722 H 2341.91 -2.4715 4.64999 0
M  V30 25723 H 2344.4 -1.40709 3.50727 0
M  V30 25724 H 2344.72 -2.28772 7.38162 0
M  V30 25725 H 2343.06 -2.06405 6.63643 0
M  V30 25726 H 2346.25 -1.66447 4.37508 0
M  V30 25727 H 2346.43 -2.06626 6.14174 0
M  V30 25728 N 2339.83 -1.40974 -0.704569 0
M  V30 25729 C 2341.11 -1.3034 -1.45845 0
M  V30 25730 C 2341.49 0.0731973 -2.10973 0
M  V30 25731 O 2340.84 1.08682 -2.00999 0
M  V30 25732 C 2341.05 -2.45027 -2.48521 0
M  V30 25733 C 2342.4 -2.85775 -3.14035 0
M  V30 25734 O 2343.42 -2.44701 -2.58844 0
M  V30 25735 O 2342.28 -3.56773 -4.13975 0
M  V30 25736 H 2339.37 -0.512465 -0.649083 0
M  V30 25737 H 2341.92 -1.52918 -0.735809 0
M  V30 25738 H 2340.69 -3.36926 -1.98988 0
M  V30 25739 H 2340.31 -2.24278 -3.28306 0
M  V30 25740 N 2341.31 0.937917 -1.26653 0
M  V30 25741 C 2342.22 2.07064 -1.10279 0
M  V30 25742 C 2343.24 1.73964 -0.0354503 0
M  V30 25743 O 2344.41 1.99967 -0.239851 0
M  V30 25744 C 2341.48 3.3869 -0.740946 0
M  V30 25745 C 2340.54 3.85553 -1.88806 0
M  V30 25746 C 2339.77 5.10897 -1.54338 0
M  V30 25747 O 2339.99 5.68649 -0.446594 0
M  V30 25748 O 2338.93 5.52881 -2.3792 0
M  V30 25749 H 2342.75 2.23786 -2.05313 0
M  V30 25750 H 2340.34 1.05538 -1.05745 0
M  V30 25751 H 2342.22 4.17769 -0.552024 0
M  V30 25752 H 2340.9 3.23199 0.179965 0
M  V30 25753 H 2339.8 3.07405 -2.13197 0
M  V30 25754 H 2341.14 4.05569 -2.78881 0
M  V30 25755 N 2342.79 1.08509 1.14296 0
M  V30 25756 C 2343.72 0.673897 2.19069 0
M  V30 25757 C 2344.73 -0.279549 1.60382 0
M  V30 25758 O 2345.92 -0.067044 1.78374 0
M  V30 25759 C 2343.02 -0.0290383 3.38888 0
M  V30 25760 C 2342.2 0.943569 4.27101 0
M  V30 25761 C 2341.25 0.275768 5.25477 0
M  V30 25762 O 2340.28 0.9205 5.61708 0
M  V30 25763 N 2341.48 -0.973913 5.72272 0
M  V30 25764 H 2344.25 1.57525 2.54963 0
M  V30 25765 H 2341.81 0.97131 1.29527 0
M  V30 25766 H 2343.8 -0.486759 4.01762 0
M  V30 25767 H 2342.37 -0.832502 3.01311 0
M  V30 25768 H 2341.59 1.5801 3.61146 0
M  V30 25769 H 2342.88 1.6026 4.82902 0
M  V30 25770 H 2342.28 -1.51745 5.44968 0
M  V30 25771 H 2340.83 -1.37511 6.37129 0
M  V30 25772 N 2344.27 -1.31351 0.870907 0
M  V30 25773 C 2345.21 -2.30437 0.316486 0
M  V30 25774 C 2346.21 -1.5956 -0.568937 0
M  V30 25775 O 2347.41 -1.74156 -0.454934 0
M  V30 25776 H 2343.79 -0.747331 0.0836653 0
M  V30 25777 H 2345.76 -2.74671 1.16611 0
M  V30 25778 C 2344.51 -3.44559 -0.46629 0
M  V30 25779 H 2343.83 -3.9927 0.205757 0
M  V30 25780 H 2345.27 -4.16004 -0.819541 0
M  V30 25781 C 2343.73 -2.93283 -1.65792 0
M  V30 25782 O 2344.26 -2.9213 -2.75723 0
M  V30 25783 N 2342.47 -2.49472 -1.49037 0
M  V30 25784 H 2342.01 -2.50609 -0.596076 0
M  V30 25785 H 2341.97 -2.1552 -2.28907 0
M  V30 25786 N 2345.74 -0.630439 -1.44441 0
M  V30 25787 C 2346.65 0.0761281 -2.34476 0
M  V30 25788 C 2347.67 0.836423 -1.52578 0
M  V30 25789 O 2348.85 0.788842 -1.85309 0
M  V30 25790 C 2345.91 1.04593 -3.30547 0
M  V30 25791 C 2344.97 0.285085 -4.28352 0
M  V30 25792 C 2344.21 1.20869 -5.19833 0
M  V30 25793 O 2344.43 2.44738 -5.15228 0
M  V30 25794 O 2343.36 0.693386 -5.97893 0
M  V30 25795 H 2347.19 -0.664376 -2.96344 0
M  V30 25796 H 2344.77 -0.390635 -1.44203 0
M  V30 25797 H 2346.66 1.60389 -3.89684 0
M  V30 25798 H 2345.33 1.76706 -2.71213 0
M  V30 25799 H 2344.24 -0.315903 -3.72764 0
M  V30 25800 H 2345.57 -0.39601 -4.90604 0
M  V30 25801 N 2347.22 1.53172 -0.370945 0
M  V30 25802 C 2348.13 2.29621 0.480783 0
M  V30 25803 C 2349.15 1.358 1.08786 0
M  V30 25804 O 2350.32 1.6886 1.09765 0
M  V30 25805 C 2347.39 3.07457 1.60222 0
M  V30 25806 C 2346.45 4.16955 1.02212 0
M  V30 25807 C 2345.68 4.9107 2.09012 0
M  V30 25808 O 2345.91 4.65097 3.30214 0
M  V30 25809 O 2344.84 5.7687 1.71768 0
M  V30 25810 H 2348.67 3.0337 -0.141474 0
M  V30 25811 H 2346.25 1.48787 -0.135172 0
M  V30 25812 H 2348.13 3.56045 2.2541 0
M  V30 25813 H 2346.81 2.36539 2.20978 0
M  V30 25814 H 2345.72 3.72606 0.333998 0
M  V30 25815 H 2347.05 4.90055 0.459044 0
M  V30 25816 N 2348.7 0.100255 1.57281 0
M  V30 25817 C 2349.65 -0.85682 2.14306 0
M  V30 25818 C 2350.62 -1.27632 1.06298 0
M  V30 25819 O 2351.8 -1.35716 1.34112 0
M  V30 25820 C 2348.94 -2.10862 2.73187 0
M  V30 25821 C 2348.06 -1.73918 3.95445 0
M  V30 25822 C 2347.19 -2.93923 4.42473 0
M  V30 25823 C 2346.23 -2.5313 5.57307 0
M  V30 25824 N 2345.37 -3.65987 5.99165 0
M  V30 25825 H 2350.21 -0.363674 2.95773 0
M  V30 25826 H 2347.74 -0.167833 1.46139 0
M  V30 25827 H 2349.7 -2.84179 3.05447 0
M  V30 25828 H 2348.33 -2.57667 1.94441 0
M  V30 25829 H 2347.38 -0.905489 3.69466 0
M  V30 25830 H 2348.7 -1.39927 4.78771 0
M  V30 25831 H 2347.85 -3.75487 4.76544 0
M  V30 25832 H 2346.59 -3.31128 3.58058 0
M  V30 25833 H 2345.59 -1.69994 5.2286 0
M  V30 25834 H 2346.82 -2.17063 6.43475 0
M  V30 25835 H 2344.76 -4.029 5.17694 0
M  V30 25836 H 2344.68 -3.35857 6.773 0
M  V30 25837 H 2345.95 -4.48046 6.37868 0
M  V30 25838 N 2350.18 -1.56643 -0.17346 0
M  V30 25839 C 2351.6 -1.50713 -0.525148 0
M  V30 25840 C 2351.8 -0.804139 -1.84759 0
M  V30 25841 O 2350.85 -0.363618 -2.49868 0
M  V30 25842 C 2352.16 -2.95442 -0.559885 0
M  V30 25843 C 2353.71 -3.06235 -0.647234 0
M  V30 25844 C 2354.19 -4.52418 -0.712884 0
M  V30 25845 N 2355.68 -4.56656 -0.775831 0
M  V30 25846 C 2356.41 -5.67107 -0.847164 0
M  V30 25847 N 2355.91 -6.87195 -0.879464 0
M  V30 25848 N 2357.7 -5.55073 -0.88602 0
M  V30 25849 H 2349.85 -2.00752 0.693717 0
M  V30 25850 H 2352.12 -0.914481 0.249857 0
M  V30 25851 H 2351.82 -3.50022 0.34311 0
M  V30 25852 H 2351.7 -3.49971 -1.40712 0
M  V30 25853 H 2354.08 -2.5169 -1.54066 0
M  V30 25854 H 2354.16 -2.54794 0.226631 0
M  V30 25855 H 2353.81 -5.07594 0.176273 0
M  V30 25856 H 2353.74 -5.01613 -1.60286 0
M  V30 25857 H 2356.23 -3.70194 -0.759239 0
M  V30 25858 H 2356.54 -7.67123 -0.935009 0
M  V30 25859 H 2354.89 -6.8981 -0.847777 0
M  V30 25860 H 2358.08 -4.60174 -0.857772 0
M  V30 25861 H 2358.25 -6.41173 -0.93815 0
M  V30 25862 N 2351.66 0.44194 -1.51277 0
M  V30 25863 C 2353.07 0.778059 -1.3935 0
M  V30 25864 C 2353.27 1.95888 -0.472246 0
M  V30 25865 O 2352.33 2.52391 0.0743107 0
M  V30 25866 C 2353.64 1.06275 -2.81294 0
M  V30 25867 C 2355.19 1.16746 -2.90412 0
M  V30 25868 C 2355.67 1.48512 -4.33253 0
M  V30 25869 N 2357.16 1.55445 -4.36338 0
M  V30 25870 C 2357.89 1.81586 -5.43888 0
M  V30 25871 N 2357.39 2.05551 -6.61605 0
M  V30 25872 N 2359.18 1.8333 -5.31363 0
M  V30 25873 H 2351.33 -0.335811 -2.09729 0
M  V30 25874 H 2353.59 -0.0878193 -0.943924 0
M  V30 25875 H 2353.3 0.267843 -3.50679 0
M  V30 25876 H 2353.17 1.99157 -3.20338 0
M  V30 25877 H 2355.56 1.953 -2.21228 0
M  V30 25878 H 2355.64 0.217756 -2.54871 0
M  V30 25879 H 2355.29 0.704869 -5.02985 0
M  V30 25880 H 2355.22 2.44681 -4.66304 0
M  V30 25881 H 2357.71 1.38847 -3.51468 0
M  V30 25882 H 2358.02 2.24854 -7.39365 0
M  V30 25883 H 2356.37 2.02882 -6.64728 0
M  V30 25884 H 2359.56 1.64124 -4.38384 0
M  V30 25885 H 2359.73 2.03366 -6.15261 0
M  V30 25886 N 2353.14 1.41345 0.697083 0
M  V30 25887 C 2354.07 1.39005 1.82237 0
M  V30 25888 C 2355.08 0.292457 1.60152 0
M  V30 25889 O 2356.27 0.554078 1.69683 0
M  V30 25890 C 2353.37 1.14494 3.18974 0
M  V30 25891 C 2352.54 2.36264 3.68101 0
M  V30 25892 C 2351.6 2.07633 4.83503 0
M  V30 25893 O 2350.63 2.80659 4.95196 0
M  V30 25894 N 2351.83 1.06565 5.70635 0
M  V30 25895 H 2354.59 2.35992 1.84738 0
M  V30 25896 H 2352.16 1.35938 0.879346 0
M  V30 25897 H 2354.15 0.932954 3.938 0
M  V30 25898 H 2352.72 0.261098 3.11508 0
M  V30 25899 H 2351.94 2.73175 2.84199 0
M  V30 25900 H 2353.23 3.174 3.97661 0
M  V30 25901 H 2352.62 0.461224 5.63817 0
M  V30 25902 H 2351.18 0.913557 6.45366 0
M  V30 25903 N 2354.61 -0.931187 1.27148 0
M  V30 25904 C 2355.54 -2.0484 1.12085 0
M  V30 25905 C 2356.52 -1.70084 0.0232663 0
M  V30 25906 O 2357.71 -1.93197 0.197119 0
M  V30 25907 C 2354.84 -3.38801 0.763599 0
M  V30 25908 C 2353.79 -3.87656 1.81403 0
M  V30 25909 C 2353.12 -5.18383 1.31084 0
M  V30 25910 C 2354.42 -4.11432 3.21747 0
M  V30 25911 H 2356.11 -2.177 2.05541 0
M  V30 25912 H 2353.66 -1.04606 0.989621 0
M  V30 25913 H 2355.61 -4.16434 0.645055 0
M  V30 25914 H 2354.34 -3.25945 -0.20667 0
M  V30 25915 H 2353 -3.12213 1.92141 0
M  V30 25916 H 2352.64 -5.01916 0.330125 0
M  V30 25917 H 2352.34 -5.5204 2.01309 0
M  V30 25918 H 2353.87 -5.98588 1.20517 0
M  V30 25919 H 2355.28 -4.79645 3.14028 0
M  V30 25920 H 2353.68 -4.5639 3.89652 0
M  V30 25921 H 2354.75 -3.16852 3.67059 0
M  V30 25922 N 2356.09 -1.09114 -1.13719 0
M  V30 25923 C 2357.02 -0.685505 -2.18709 0
M  V30 25924 C 2358.04 0.27104 -1.60528 0
M  V30 25925 O 2359.23 0.0575835 -1.78407 0
M  V30 25926 C 2356.33 0.0110659 -3.38898 0
M  V30 25927 C 2355.5 -0.966206 -4.26595 0
M  V30 25928 C 2354.56 -0.303632 -5.25323 0
M  V30 25929 O 2353.58 -0.950276 -5.61212 0
M  V30 25930 N 2354.79 0.94355 -5.7278 0
M  V30 25931 H 2357.55 -1.58875 -2.54124 0
M  V30 25932 H 2355.11 -0.978165 -1.2901 0
M  V30 25933 H 2357.1 0.465446 -4.02015 0
M  V30 25934 H 2355.67 0.816511 -3.01748 0
M  V30 25935 H 2354.89 -1.59923 -3.60303 0
M  V30 25936 H 2356.18 -1.62819 -4.82045 0
M  V30 25937 H 2355.58 1.48853 -5.45765 0
M  V30 25938 H 2354.14 1.3413 -6.3785 0
M  V30 25939 N 2357.57 1.30887 -0.877861 0
M  V30 25940 C 2358.99 1.49041 -0.57087 0
M  V30 25941 C 2359.19 1.80625 0.893127 0
M  V30 25942 O 2358.24 1.88961 1.67481 0
M  V30 25943 C 2359.55 2.61876 -1.47789 0
M  V30 25944 C 2361.1 2.75758 -1.48076 0
M  V30 25945 C 2361.58 3.91698 -2.37354 0
M  V30 25946 N 2363.07 3.98997 -2.35278 0
M  V30 25947 C 2363.8 4.87999 -3.01072 0
M  V30 25948 N 2363.3 5.81847 -3.76066 0
M  V30 25949 N 2365.09 4.8131 -2.9034 0
M  V30 25950 H 2357.24 1.08656 -1.82504 0
M  V30 25951 H 2359.51 0.53763 -0.780806 0
M  V30 25952 H 2359.21 2.45337 -2.51998 0
M  V30 25953 H 2359.09 3.58195 -1.18222 0
M  V30 25954 H 2361.47 2.91707 -0.446217 0
M  V30 25955 H 2361.55 1.80082 -1.81671 0
M  V30 25956 H 2361.2 3.76506 -3.40889 0
M  V30 25957 H 2361.13 4.86698 -2.01079 0
M  V30 25958 H 2363.62 3.31857 -1.80774 0
M  V30 25959 H 2363.93 6.46507 -4.23378 0
M  V30 25960 H 2362.28 5.81802 -3.80174 0
M  V30 25961 H 2365.47 4.0697 -2.31285 0
M  V30 25962 H 2365.64 5.50465 -3.41895 0
M  V30 25963 N 2359.05 0.638091 1.44105 0
M  V30 25964 C 2359.98 -0.101165 2.28977 0
M  V30 25965 C 2360.99 -0.802063 1.41671 0
M  V30 25966 O 2362.18 -0.662346 1.65757 0
M  V30 25967 C 2359.28 -1.16575 3.18219 0
M  V30 25968 C 2358.45 -0.54599 4.33979 0
M  V30 25969 C 2357.51 -1.50545 5.04205 0
M  V30 25970 O 2356.54 -1.01989 5.59988 0
M  V30 25971 N 2357.74 -2.83971 5.06301 0
M  V30 25972 H 2360.51 0.627238 2.93063 0
M  V30 25973 H 2358.07 0.479758 1.54628 0
M  V30 25974 H 2360.06 -1.80808 3.62064 0
M  V30 25975 H 2358.63 -1.79629 2.55836 0
M  V30 25976 H 2357.85 0.275115 3.93239 0
M  V30 25977 H 2359.14 -0.112703 5.08675 0
M  V30 25978 H 2358.54 -3.25994 4.62325 0
M  V30 25979 H 2357.09 -3.43546 5.53913 0
M  V30 25980 N 2360.53 -1.52973 0.379063 0
M  V30 25981 C 2361.46 -2.2907 -0.452665 0
M  V30 25982 C 2362.44 -1.32041 -1.07235 0
M  V30 25983 O 2363.62 -1.60925 -1.08705 0
M  V30 25984 C 2360.75 -3.08995 -1.58554 0
M  V30 25985 C 2359.71 -4.13824 -1.09243 0
M  V30 25986 C 2359.03 -4.81911 -2.31659 0
M  V30 25987 C 2360.33 -5.22031 -0.16761 0
M  V30 25988 H 2362.03 -2.98845 0.182233 0
M  V30 25989 H 2359.57 -1.43724 0.0890845 0
M  V30 25990 H 2361.52 -3.60983 -2.17414 0
M  V30 25991 H 2360.25 -2.36935 -2.24788 0
M  V30 25992 H 2358.91 -3.62801 -0.526431 0
M  V30 25993 H 2358.56 -4.06409 -2.96379 0
M  V30 25994 H 2358.26 -5.52758 -1.9933 0
M  V30 25995 H 2359.78 -5.367 -2.9118 0
M  V30 25996 H 2361.19 -5.69441 -0.664086 0
M  V30 25997 H 2359.59 -6.00064 0.065432 0
M  V30 25998 H 2360.66 -4.7848 0.786431 0
M  V30 25999 N 2362 -0.108595 -1.57225 0
M  V30 26000 C 2362.95 0.856359 -2.11307 0
M  V30 26001 C 2363.94 1.23502 -1.03131 0
M  V30 26002 O 2365.13 1.20785 -1.29383 0
M  V30 26003 C 2362.26 2.11036 -2.70774 0
M  V30 26004 C 2361.34 1.75653 -3.86014 0
M  V30 26005 N 2361.74 1.10894 -4.93494 0
M  V30 26006 C 2360.03 2.05178 -3.96003 0
M  V30 26007 C 2360.73 0.944207 -5.73986 0
M  V30 26008 N 2359.71 1.46587 -5.23463 0
M  V30 26009 H 2363.51 0.351951 -2.91785 0
M  V30 26010 H 2361.03 0.094204 -1.62127 0
M  V30 26011 H 2363.02 2.81123 -3.07856 0
M  V30 26012 H 2361.68 2.6203 -1.91756 0
M  V30 26013 H 2362.69 0.774145 -5.12081 0
M  V30 26014 H 2359.37 2.58292 -3.28012 0
M  V30 26015 H 2360.76 0.436695 -6.70479 0
M  V30 26016 N 2363.48 1.56732 0.16515 0
M  V30 26017 C 2364.39 2.00127 1.22419 0
M  V30 26018 C 2365.41 0.913645 1.48083 0
M  V30 26019 O 2366.58 1.22175 1.6011 0
M  V30 26020 C 2363.65 2.35769 2.54193 0
M  V30 26021 C 2362.71 3.5839 2.36337 0
M  V30 26022 C 2361.94 3.92322 3.61827 0
M  V30 26023 O 2362.17 3.27143 4.67262 0
M  V30 26024 O 2361.1 4.85647 3.5557 0
M  V30 26025 H 2364.93 2.90494 0.885835 0
M  V30 26026 H 2362.51 1.44682 0.372492 0
M  V30 26027 H 2364.39 2.59635 3.31915 0
M  V30 26028 H 2363.07 1.48562 2.87595 0
M  V30 26029 H 2361.97 3.39734 1.56626 0
M  V30 26030 H 2363.31 4.46157 2.07857 0
M  V30 26031 N 2364.96 -0.433911 1.51509 0
M  V30 26032 C 2366.19 -1.20366 1.67916 0
M  V30 26033 C 2366.6 -1.85396 0.377494 0
M  V30 26034 O 2365.94 -1.71655 -0.654224 0
M  V30 26035 C 2366 -2.32674 2.74049 0
M  V30 26036 C 2365.67 -1.87984 4.16547 0
M  V30 26037 C 2366.66 -1.38136 5.01213 0
M  V30 26038 C 2364.35 -1.95571 4.62663 0
M  V30 26039 C 2366.34 -0.964663 6.30058 0
M  V30 26040 C 2364.03 -1.53513 5.91504 0
M  V30 26041 C 2365.03 -1.04043 6.75029 0
M  V30 26042 O 2364.72 -0.625824 8.0146 0
M  V30 26043 H 2364.45 -0.368725 0.566584 0
M  V30 26044 H 2367 -0.519955 1.9871 0
M  V30 26045 H 2365.23 -3.04332 2.38577 0
M  V30 26046 H 2366.92 -2.94527 2.793 0
M  V30 26047 H 2367.69 -1.31666 4.66786 0
M  V30 26048 H 2363.57 -2.33022 3.97771 0
M  V30 26049 H 2367.11 -0.577838 6.95203 0
M  V30 26050 H 2363.01 -1.59654 6.25445 0
M  V30 26051 H 2363.78 -0.751366 8.15044 0
M  V30 26052 N 2366.44 -1.41713 -0.689577 0
M  V30 26053 C 2367.35 -1.46404 -1.83311 0
M  V30 26054 C 2368.36 -0.35408 -1.70359 0
M  V30 26055 O 2369.54 -0.602726 -1.9217 0
M  V30 26056 C 2366.61 -1.34988 -3.19342 0
M  V30 26057 C 2365.67 -2.5635 -3.44359 0
M  V30 26058 C 2364.9 -2.45469 -4.73899 0
M  V30 26059 O 2365.12 -1.48251 -5.50798 0
M  V30 26060 O 2364.06 -3.35336 -4.99833 0
M  V30 26061 H 2367.88 -2.42893 -1.8231 0
M  V30 26062 H 2365.47 -1.23316 -0.843417 0
M  V30 26063 H 2367.35 -1.30927 -4.00545 0
M  V30 26064 H 2366.02 -0.416176 -3.21013 0
M  V30 26065 H 2364.93 -2.65987 -2.63063 0
M  V30 26066 H 2366.26 -3.48569 -3.47506 0
M  V30 26067 N 2367.92 0.924431 -1.2764 0
M  V30 26068 C 2369.14 1.70647 -1.16992 0
M  V30 26069 C 2369.56 1.86818 0.272836 0
M  V30 26070 O 2368.92 1.38755 1.18546 0
M  V30 26071 C 2368.97 3.10436 -1.85234 0
M  V30 26072 O 2368.69 2.95022 -3.23873 0
M  V30 26073 C 2370.19 4.04776 -1.80753 0
M  V30 26074 H 2367.41 0.533773 -0.406604 0
M  V30 26075 H 2369.95 1.15775 -1.68571 0
M  V30 26076 H 2368.11 3.62158 -1.37551 0
M  V30 26077 H 2368.52 3.8342 -3.57896 0
M  V30 26078 H 2370 5.00364 -2.3311 0
M  V30 26079 H 2370.47 4.32262 -0.777575 0
M  V30 26080 H 2371.08 3.5898 -2.28065 0
M  V30 26081 N 2369.39 1.09715 1.13139 0
M  V30 26082 C 2370.3 0.751406 2.22241 0
M  V30 26083 C 2371.32 -0.247907 1.72225 0
M  V30 26084 O 2372.5 -0.0885109 2.01205 0
M  V30 26085 C 2369.56 0.180334 3.46231 0
M  V30 26086 C 2368.62 1.23597 4.11123 0
M  V30 26087 C 2367.86 0.692059 5.29194 0
M  V30 26088 O 2368.08 -0.48404 5.68343 0
M  V30 26089 O 2367.01 1.44849 5.84211 0
M  V30 26090 H 2370.84 1.6619 2.54194 0
M  V30 26091 H 2368.42 0.871757 1.21329 0
M  V30 26092 H 2370.31 -0.134665 4.21185 0
M  V30 26093 H 2368.98 -0.70313 3.15971 0
M  V30 26094 H 2367.89 1.60371 3.37982 0
M  V30 26095 H 2369.22 2.09219 4.4552 0
M  V30 26096 N 2370.87 -1.30419 0.88479 0
M  V30 26097 C 2371.8 -2.30588 0.367614 0
M  V30 26098 C 2372.78 -1.60982 -0.549436 0
M  V30 26099 O 2373.97 -1.88592 -0.463327 0
M  V30 26100 C 2371.1 -3.44765 -0.418883 0
M  V30 26101 C 2370.05 -4.26066 0.406391 0
M  V30 26102 C 2369.38 -5.32294 -0.506699 0
M  V30 26103 C 2370.68 -4.95606 1.64841 0
M  V30 26104 H 2372.37 -2.74095 1.20467 0
M  V30 26105 H 2369.92 -1.31771 0.580718 0
M  V30 26106 H 2371.87 -4.13903 -0.791322 0
M  V30 26107 H 2370.6 -3.00062 -1.28958 0
M  V30 26108 H 2369.25 -3.58615 0.760967 0
M  V30 26109 H 2368.9 -4.83839 -1.3751 0
M  V30 26110 H 2368.6 -5.87585 0.041686 0
M  V30 26111 H 2370.13 -6.04288 -0.875658 0
M  V30 26112 H 2371.54 -5.57262 1.34656 0
M  V30 26113 H 2369.94 -5.60761 2.13698 0
M  V30 26114 H 2371.01 -4.21743 2.39292 0
M  V30 26115 N 2372.35 -0.645724 -1.43764 0
M  V30 26116 C 2373.26 0.0512544 -2.34544 0
M  V30 26117 C 2374.28 0.820193 -1.53456 0
M  V30 26118 O 2375.45 0.769143 -1.86135 0
M  V30 26119 C 2372.52 1.01081 -3.31638 0
M  V30 26120 C 2371.58 0.239637 -4.28631 0
M  V30 26121 C 2370.81 1.15349 -5.21086 0
M  V30 26122 O 2371.03 2.39259 -5.17794 0
M  V30 26123 O 2369.97 0.629932 -5.98595 0
M  V30 26124 H 2373.79 -0.69577 -2.95623 0
M  V30 26125 H 2371.38 -0.405908 -1.4378 0
M  V30 26126 H 2373.26 1.56247 -3.91363 0
M  V30 26127 H 2371.94 1.73819 -2.73072 0
M  V30 26128 H 2370.84 -0.355422 -3.72408 0
M  V30 26129 H 2372.18 -0.448023 -4.90157 0
M  V30 26130 N 2373.83 1.5277 -0.38717 0
M  V30 26131 C 2375.11 1.93955 0.253163 0
M  V30 26132 C 2375.49 1.32246 1.64543 0
M  V30 26133 O 2374.83 0.489738 2.2319 0
M  V30 26134 C 2375.04 3.47862 0.281661 0
M  V30 26135 C 2376.39 4.21506 0.511641 0
M  V30 26136 O 2377.42 3.54356 0.361961 0
M  V30 26137 O 2376.27 5.40542 0.804752 0
M  V30 26138 H 2373.37 0.811993 0.15683 0
M  V30 26139 H 2375.91 1.63856 -0.441523 0
M  V30 26140 H 2374.69 3.85103 -0.693639 0
M  V30 26141 H 2374.31 3.84258 1.02136 0
M  V30 26142 N 2375.31 0.116931 1.57166 0
M  V30 26143 C 2376.22 -0.847774 2.18746 0
M  V30 26144 C 2377.23 -1.29421 1.16302 0
M  V30 26145 O 2378.41 -1.35762 1.48763 0
M  V30 26146 C 2375.47 -2.08085 2.77311 0
M  V30 26147 C 2374.53 -1.68654 3.94784 0
M  V30 26148 C 2373.77 -2.86083 4.50546 0
M  V30 26149 O 2373.99 -4.01449 4.05209 0
M  V30 26150 O 2372.92 -2.63288 5.41261 0
M  V30 26151 H 2376.75 -0.353725 3.01633 0
M  V30 26152 H 2374.34 -0.108573 1.49005 0
M  V30 26153 H 2376.22 -2.80307 3.14652 0
M  V30 26154 H 2374.89 -2.56501 1.97457 0
M  V30 26155 H 2373.8 -0.935454 3.62215 0
M  V30 26156 H 2375.13 -1.24982 4.76068 0
M  V30 26157 N 2376.78 -1.56818 -0.156836 0
M  V30 26158 C 2378.2 -1.51261 -0.509133 0
M  V30 26159 C 2378.4 -0.82369 -1.83896 0
M  V30 26160 O 2377.46 -0.390099 -2.49468 0
M  V30 26161 C 2378.77 -2.96019 -0.528518 0
M  V30 26162 C 2380.32 -3.06904 -0.614718 0
M  V30 26163 C 2380.79 -4.53149 -0.664858 0
M  V30 26164 N 2382.28 -4.57454 -0.727353 0
M  V30 26165 C 2383.02 -5.67974 -0.786967 0
M  V30 26166 N 2382.51 -6.88089 -0.806528 0
M  V30 26167 N 2384.31 -5.55982 -0.827097 0
M  V30 26168 H 2376.46 -2.00005 0.71497 0
M  V30 26169 H 2378.72 -0.911779 0.259542 0
M  V30 26170 H 2378.43 -3.49639 0.380216 0
M  V30 26171 H 2378.3 -3.51444 -1.36992 0
M  V30 26172 H 2380.69 -2.5331 -1.51387 0
M  V30 26173 H 2380.77 -2.54539 0.253642 0
M  V30 26174 H 2380.41 -5.07379 0.2301 0
M  V30 26175 H 2380.34 -5.03285 -1.54957 0
M  V30 26176 H 2382.83 -3.70979 -0.719933 0
M  V30 26177 H 2383.15 -7.68071 -0.853592 0
M  V30 26178 H 2381.49 -6.9067 -0.774566 0
M  V30 26179 H 2384.68 -4.61058 -0.808917 0
M  V30 26180 H 2384.86 -6.42132 -0.870093 0
M  V30 26181 N 2378.26 0.425871 -1.51737 0
M  V30 26182 C 2379.21 1.51773 -1.73878 0
M  V30 26183 C 2380.18 1.55617 -0.580729 0
M  V30 26184 O 2381.36 1.7245 -0.816441 0
M  V30 26185 C 2378.5 2.89385 -1.88017 0
M  V30 26186 C 2377.62 2.94981 -3.15611 0
M  V30 26187 C 2376.75 4.23787 -3.20278 0
M  V30 26188 C 2375.79 4.23294 -4.42141 0
M  V30 26189 N 2374.93 5.43643 -4.44293 0
M  V30 26190 H 2379.77 1.32196 -2.67073 0
M  V30 26191 H 2377.31 0.641985 -1.32352 0
M  V30 26192 H 2379.26 3.69247 -1.94197 0
M  V30 26193 H 2377.89 3.07495 -0.982185 0
M  V30 26194 H 2376.95 2.07712 -3.18685 0
M  V30 26195 H 2378.26 2.90479 -4.05491 0
M  V30 26196 H 2377.41 5.12031 -3.25437 0
M  V30 26197 H 2376.15 4.30961 -2.28307 0
M  V30 26198 H 2375.16 3.33442 -4.37146 0
M  V30 26199 H 2376.38 4.17774 -5.35389 0
M  V30 26200 H 2374.33 5.51517 -3.55198 0
M  V30 26201 H 2374.24 5.41068 -5.27997 0
M  V30 26202 H 2375.51 6.33887 -4.5366 0
M  V30 26203 N 2379.74 1.42077 0.682052 0
M  V30 26204 C 2380.67 1.4093 1.80753 0
M  V30 26205 C 2381.69 0.309426 1.59832 0
M  V30 26206 O 2382.87 0.572044 1.69085 0
M  V30 26207 C 2379.97 1.17871 3.17741 0
M  V30 26208 C 2379.15 2.40155 3.65574 0
M  V30 26209 C 2378.21 2.1275 4.81273 0
M  V30 26210 O 2377.23 2.85895 4.92191 0
M  V30 26211 N 2378.43 1.12612 5.69472 0
M  V30 26212 H 2381.2 2.37938 1.82224 0
M  V30 26213 H 2378.76 1.36863 0.864879 0
M  V30 26214 H 2380.75 0.974669 3.92788 0
M  V30 26215 H 2379.32 0.294123 3.11213 0
M  V30 26216 H 2378.54 2.76174 2.81286 0
M  V30 26217 H 2379.83 3.216 3.94273 0
M  V30 26218 H 2379.23 0.520998 5.63296 0
M  V30 26219 H 2377.79 0.981955 6.44361 0
M  V30 26220 N 2381.22 -0.917649 1.28129 0
M  V30 26221 C 2382.64 -1.19536 1.05751 0
M  V30 26222 C 2382.84 -2.00479 -0.202598 0
M  V30 26223 O 2381.89 -2.35711 -0.905341 0
M  V30 26224 C 2383.2 -1.93374 2.30276 0
M  V30 26225 C 2384.75 -2.06272 2.35416 0
M  V30 26226 C 2385.23 -2.83517 3.59697 0
M  V30 26227 N 2386.72 -2.91081 3.60314 0
M  V30 26228 C 2387.45 -3.5134 4.53153 0
M  V30 26229 N 2386.95 -4.12909 5.56307 0
M  V30 26230 N 2388.74 -3.48841 4.40757 0
M  V30 26231 H 2380.89 -0.377148 2.09025 0
M  V30 26232 H 2383.16 -0.229494 0.919802 0
M  V30 26233 H 2382.86 -1.41323 3.22057 0
M  V30 26234 H 2382.74 -2.93943 2.36384 0
M  V30 26235 H 2385.12 -2.57506 1.44134 0
M  V30 26236 H 2385.2 -1.04891 2.33305 0
M  V30 26237 H 2384.85 -2.32965 4.5132 0
M  V30 26238 H 2384.78 -3.85205 3.59061 0
M  V30 26239 H 2387.27 -2.47333 2.85718 0
M  V30 26240 H 2387.58 -4.56858 6.23298 0
M  V30 26241 H 2385.93 -4.11425 5.60138 0
M  V30 26242 H 2389.12 -2.99948 3.59373 0
M  V30 26243 H 2389.29 -3.95511 5.13298 0
M  V30 26244 N 2382.7 -1.10314 -1.12555 0
M  V30 26245 C 2383.66 -0.754278 -2.16433 0
M  V30 26246 C 2384.66 0.220657 -1.59279 0
M  V30 26247 O 2385.85 -0.00233653 -1.742 0
M  V30 26248 C 2382.98 -0.117046 -3.40699 0
M  V30 26249 H 2384.18 -1.67436 -2.48808 0
M  V30 26250 H 2381.73 -0.903498 -1.27541 0
M  V30 26251 H 2382.46 0.813822 -3.13923 0
M  V30 26252 H 2382.25 -0.81868 -3.83458 0
M  V30 26253 H 2383.74 0.111314 -4.17452 0
M  V30 26254 N 2384.18 1.29948 -0.891694 0
M  V30 26255 C 2385.11 2.3039 -0.379838 0
M  V30 26256 C 2386.09 1.61271 0.540891 0
M  V30 26257 O 2387.27 1.88835 0.453319 0
M  V30 26258 C 2384.4 3.44982 0.400593 0
M  V30 26259 C 2383.36 4.25845 -0.42898 0
M  V30 26260 C 2382.68 5.32555 0.478463 0
M  V30 26261 C 2383.98 4.94724 -1.67467 0
M  V30 26262 H 2385.68 2.73452 -1.21919 0
M  V30 26263 H 2383.22 1.31461 -0.587698 0
M  V30 26264 H 2385.17 4.14317 0.769361 0
M  V30 26265 H 2383.9 3.00742 1.27365 0
M  V30 26266 H 2382.56 3.58207 -0.779974 0
M  V30 26267 H 2382.21 4.84561 1.34943 0
M  V30 26268 H 2381.91 5.87555 -0.0728465 0
M  V30 26269 H 2383.43 6.04744 0.843599 0
M  V30 26270 H 2384.84 5.5654 -1.3761 0
M  V30 26271 H 2383.24 5.5962 -2.16668 0
M  V30 26272 H 2384.31 4.20468 -2.41525 0
M  V30 26273 N 2385.65 0.653339 1.4342 0
M  V30 26274 C 2386.62 -0.0287548 2.29182 0
M  V30 26275 C 2387.62 -0.75044 1.42215 0
M  V30 26276 O 2388.81 -0.591672 1.63844 0
M  V30 26277 C 2385.94 -1.05145 3.2428 0
M  V30 26278 H 2387.13 0.725838 2.90984 0
M  V30 26279 H 2384.68 0.414572 1.50702 0
M  V30 26280 H 2385.42 -1.83527 2.67373 0
M  V30 26281 H 2385.2 -0.537619 3.88397 0
M  V30 26282 H 2386.69 -1.52779 3.88649 0
M  V30 26283 N 2387.13 -1.52563 0.395266 0
M  V30 26284 C 2388.09 -2.25226 -0.424961 0
M  V30 26285 C 2389.09 -1.27081 -0.985244 0
M  V30 26286 O 2390.28 -1.51132 -0.866305 0
M  V30 26287 C 2387.42 -3.01189 -1.59681 0
M  V30 26288 H 2388.61 -2.99155 0.211285 0
M  V30 26289 H 2386.16 -1.55602 0.1475 0
M  V30 26290 H 2386.9 -2.31576 -2.27031 0
M  V30 26291 H 2386.68 -3.73231 -1.2017 0
M  V30 26292 H 2388.17 -3.56343 -2.17736 0
M  V30 26293 N 2388.61 -0.125265 -1.57101 0
M  V30 26294 C 2389.57 0.808342 -2.14473 0
M  V30 26295 C 2390.57 1.19031 -1.08112 0
M  V30 26296 O 2391.76 1.11479 -1.33858 0
M  V30 26297 C 2388.89 2.09397 -2.69008 0
M  V30 26298 H 2390.09 0.309644 -2.98297 0
M  V30 26299 H 2387.64 0.124024 -1.55807 0
M  V30 26300 H 2388.38 2.63684 -1.88789 0
M  V30 26301 H 2388.16 1.82951 -3.46802 0
M  V30 26302 H 2389.65 2.76122 -3.13283 0
M  V30 26303 N 2390.09 1.56899 0.148518 0
M  V30 26304 C 2391.05 1.97246 1.16733 0
M  V30 26305 C 2392.05 0.858801 1.35946 0
M  V30 26306 O 2393.24 1.12545 1.32964 0
M  V30 26307 C 2390.37 2.28709 2.52794 0
M  V30 26308 H 2391.57 2.88437 0.821228 0
M  V30 26309 H 2389.12 1.5131 0.391804 0
M  V30 26310 H 2389.85 1.40305 2.92378 0
M  V30 26311 H 2389.64 3.09906 2.4021 0
M  V30 26312 H 2391.13 2.60768 3.26175 0
M  V30 26313 N 2391.57 -0.417818 1.51961 0
M  V30 26314 C 2392.51 -1.50849 1.7468 0
M  V30 26315 C 2393.48 -1.55307 0.588974 0
M  V30 26316 O 2394.67 -1.72014 0.825575 0
M  V30 26317 C 2391.81 -2.88384 1.89549 0
M  V30 26318 C 2390.92 -2.93303 3.17171 0
M  V30 26319 C 2390.06 -4.22083 3.22521 0
M  V30 26320 C 2389.09 -4.20943 4.4438 0
M  V30 26321 N 2388.23 -5.41279 4.4717 0
M  V30 26322 H 2393.07 -1.30778 2.67771 0
M  V30 26323 H 2390.61 -0.634957 1.3269 0
M  V30 26324 H 2392.57 -3.68212 1.96152 0
M  V30 26325 H 2391.2 -3.06969 0.998478 0
M  V30 26326 H 2390.25 -2.06019 3.19782 0
M  V30 26327 H 2391.56 -2.88325 4.07026 0
M  V30 26328 H 2390.71 -5.10298 3.28148 0
M  V30 26329 H 2389.45 -4.29744 2.30589 0
M  V30 26330 H 2388.46 -3.31119 4.38908 0
M  V30 26331 H 2389.68 -4.14929 5.37597 0
M  V30 26332 H 2387.63 -5.49625 3.58117 0
M  V30 26333 H 2387.55 -5.38261 5.30859 0
M  V30 26334 H 2388.81 -6.31472 4.57016 0
M  V30 26335 N 2393.04 -1.42436 -0.674508 0
M  V30 26336 C 2393.99 -1.45937 -1.78804 0
M  V30 26337 C 2394.96 -0.3113 -1.63157 0
M  V30 26338 O 2396.15 -0.515415 -1.83707 0
M  V30 26339 C 2393.29 -1.36779 -3.16837 0
M  V30 26340 C 2392.4 -2.61623 -3.43769 0
M  V30 26341 C 2391.53 -2.44605 -4.71531 0
M  V30 26342 C 2390.57 -3.64822 -4.91499 0
M  V30 26343 N 2389.71 -3.46744 -6.10502 0
M  V30 26344 H 2394.55 -2.41097 -1.75147 0
M  V30 26345 H 2392.09 -1.19699 -0.855019 0
M  V30 26346 H 2394.04 -1.29466 -3.96603 0
M  V30 26347 H 2392.67 -0.452145 -3.19618 0
M  V30 26348 H 2391.73 -2.79301 -2.58254 0
M  V30 26349 H 2393.04 -3.50984 -3.54417 0
M  V30 26350 H 2392.19 -2.3488 -5.59389 0
M  V30 26351 H 2390.93 -1.52734 -4.63167 0
M  V30 26352 H 2389.94 -3.74979 -4.02083 0
M  V30 26353 H 2391.16 -4.57674 -5.01708 0
M  V30 26354 H 2389.11 -2.57591 -6.0331 0
M  V30 26355 H 2389.02 -4.29693 -6.22013 0
M  V30 26356 H 2390.29 -3.40832 -7.01038 0
M  V30 26357 N 2394.52 0.910841 -1.28614 0
M  V30 26358 C 2395.47 2.01363 -1.1279 0
M  V30 26359 C 2396.44 1.66082 -0.0242302 0
M  V30 26360 O 2397.62 1.89855 -0.1897 0
M  V30 26361 C 2394.76 3.35728 -0.798802 0
M  V30 26362 C 2393.88 3.8386 -1.9818 0
M  V30 26363 C 2393.01 5.06749 -1.59307 0
M  V30 26364 C 2392.05 5.47221 -2.74254 0
M  V30 26365 N 2391.19 6.613 -2.35854 0
M  V30 26366 H 2396.03 2.1423 -2.07146 0
M  V30 26367 H 2393.56 1.04928 -1.03095 0
M  V30 26368 H 2395.52 4.13025 -0.588734 0
M  V30 26369 H 2394.15 3.2262 0.107833 0
M  V30 26370 H 2393.2 3.02695 -2.30391 0
M  V30 26371 H 2394.52 4.09813 -2.8435 0
M  V30 26372 H 2393.67 5.91598 -1.34524 0
M  V30 26373 H 2392.41 4.82611 -0.702702 0
M  V30 26374 H 2391.41 4.60912 -2.99733 0
M  V30 26375 H 2392.64 5.73346 -3.63938 0
M  V30 26376 H 2390.59 6.38787 -1.4929 0
M  V30 26377 H 2390.5 6.86993 -3.15558 0
M  V30 26378 H 2391.77 7.49446 -2.14361 0
M  V30 26379 N 2396 1.10909 1.11969 0
M  V30 26380 C 2396.93 0.784511 2.19927 0
M  V30 26381 C 2397.91 -0.244697 1.68331 0
M  V30 26382 O 2399.1 -0.109384 1.93892 0
M  V30 26383 C 2396.23 0.220888 3.46597 0
M  V30 26384 C 2395.18 1.18134 4.11374 0
M  V30 26385 C 2394.51 0.478688 5.32553 0
M  V30 26386 C 2395.81 2.52987 4.56941 0
M  V30 26387 H 2397.5 1.68719 2.47334 0
M  V30 26388 H 2395.05 0.812663 1.18877 0
M  V30 26389 H 2397 -0.0183538 4.21396 0
M  V30 26390 H 2395.72 -0.717057 3.18631 0
M  V30 26391 H 2394.38 1.40612 3.38561 0
M  V30 26392 H 2394.03 -0.463888 5.00856 0
M  V30 26393 H 2393.73 1.11922 5.76842 0
M  V30 26394 H 2395.25 0.248107 6.10096 0
M  V30 26395 H 2396.67 2.3463 5.23089 0
M  V30 26396 H 2395.07 3.12971 5.12025 0
M  V30 26397 H 2396.14 3.1262 3.70671 0
M  V30 26398 N 2397.48 -1.29474 0.898573 0
M  V30 26399 C 2398.39 -2.31502 0.380014 0
M  V30 26400 C 2399.4 -1.65901 -0.524666 0
M  V30 26401 O 2400.58 -1.97088 -0.414517 0
M  V30 26402 C 2397.65 -3.44555 -0.385078 0
M  V30 26403 C 2396.71 -4.25749 0.550989 0
M  V30 26404 C 2395.94 -5.33404 -0.177685 0
M  V30 26405 O 2396.16 -5.52907 -1.40179 0
M  V30 26406 O 2395.1 -5.99989 0.479212 0
M  V30 26407 H 2398.92 -2.77835 1.22644 0
M  V30 26408 H 2396.51 -1.3389 0.662858 0
M  V30 26409 H 2398.39 -4.13389 -0.817769 0
M  V30 26410 H 2397.06 -3.00332 -1.20758 0
M  V30 26411 H 2395.97 -3.59562 1.03277 0
M  V30 26412 H 2397.3 -4.73612 1.33987 0
M  V30 26413 N 2398.96 -0.660936 -1.43071 0
M  V30 26414 C 2400.2 -0.17713 -2.01322 0
M  V30 26415 C 2400.53 1.21587 -1.52452 0
M  V30 26416 O 2399.8 1.81371 -0.740354 0
M  V30 26417 H 2398.38 -0.0624935 -0.744381 0
M  V30 26418 H 2401.04 -0.854336 -1.75177 0
M  V30 26419 H 2400.13 -0.167695 -3.11649 0
M  V30 26420 N 2400.43 1.52351 -0.403352 0
M  V30 26421 C 2401.71 1.94212 0.232577 0
M  V30 26422 C 2402.09 1.33983 1.63131 0
M  V30 26423 O 2401.44 0.513383 2.22658 0
M  V30 26424 C 2401.65 3.48141 0.24475 0
M  V30 26425 C 2403 4.22025 0.466906 0
M  V30 26426 O 2404.02 3.5472 0.324356 0
M  V30 26427 O 2402.88 5.41365 0.747375 0
M  V30 26428 H 2399.97 0.813611 0.148209 0
M  V30 26429 H 2402.52 1.63378 -0.458877 0
M  V30 26430 H 2401.29 3.84346 -0.734445 0
M  V30 26431 H 2400.92 3.85319 0.980544 0
M  V30 26432 N 2401.91 0.133594 1.57033 0
M  V30 26433 C 2402.84 -0.807528 2.19092 0
M  V30 26434 C 2403.82 -1.26679 1.13519 0
M  V30 26435 O 2405.01 -1.32677 1.41812 0
M  V30 26436 C 2402.14 -2.05207 2.80191 0
M  V30 26437 C 2401.09 -1.73008 3.91475 0
M  V30 26438 C 2400.42 -3.04614 4.39448 0
M  V30 26439 C 2401.72 -0.987077 5.12888 0
M  V30 26440 H 2403.41 -0.290351 2.97989 0
M  V30 26441 H 2400.96 -0.138214 1.43335 0
M  V30 26442 H 2402.91 -2.71515 3.22269 0
M  V30 26443 H 2401.64 -2.59275 1.98606 0
M  V30 26444 H 2400.29 -1.09083 3.49995 0
M  V30 26445 H 2399.94 -3.56645 3.54702 0
M  V30 26446 H 2399.64 -2.83838 5.145 0
M  V30 26447 H 2401.17 -3.72016 4.84187 0
M  V30 26448 H 2402.58 -1.55198 5.51894 0
M  V30 26449 H 2400.98 -0.879746 5.93616 0
M  V30 26450 H 2402.05 0.0236139 4.84894 0
M  V30 26451 N 2403.39 -1.56975 -0.140195 0
M  V30 26452 C 2404.34 -1.98776 -1.17289 0
M  V30 26453 C 2405.31 -0.856433 -1.42318 0
M  V30 26454 O 2406.49 -1.11903 -1.54539 0
M  V30 26455 C 2403.63 -2.37927 -2.49969 0
M  V30 26456 C 2402.75 -3.64382 -2.32056 0
M  V30 26457 C 2401.88 -3.92606 -3.57818 0
M  V30 26458 C 2400.92 -5.12309 -3.34971 0
M  V30 26459 N 2400.06 -5.3651 -4.52882 0
M  V30 26460 H 2404.9 -2.86797 -0.809422 0
M  V30 26461 H 2402.43 -1.41885 -0.388212 0
M  V30 26462 H 2404.39 -2.58657 -3.27341 0
M  V30 26463 H 2403.02 -1.52977 -2.8425 0
M  V30 26464 H 2402.07 -3.51389 -1.45704 0
M  V30 26465 H 2403.39 -4.5191 -2.11137 0
M  V30 26466 H 2402.54 -4.13871 -4.43617 0
M  V30 26467 H 2401.28 -3.03513 -3.81748 0
M  V30 26468 H 2400.28 -4.90911 -2.47561 0
M  V30 26469 H 2401.51 -6.02961 -3.12433 0
M  V30 26470 H 2399.45 -4.50372 -4.76971 0
M  V30 26471 H 2399.37 -6.1832 -4.3499 0
M  V30 26472 H 2400.64 -5.62278 -5.39874 0
M  V30 26473 N 2404.87 0.409753 -1.5218 0
M  V30 26474 C 2406.15 1.16971 -1.56771 0
M  V30 26475 C 2406.53 2.08206 -0.348358 0
M  V30 26476 O 2405.87 2.18615 0.664824 0
M  V30 26477 C 2406.08 1.94755 -2.89606 0
M  V30 26478 C 2407.43 2.50843 -3.42583 0
M  V30 26479 O 2408.46 2.04935 -2.91342 0
M  V30 26480 O 2407.31 3.34644 -4.3206 0
M  V30 26481 H 2404.41 0.534043 -0.631448 0
M  V30 26482 H 2406.95 0.416584 -1.64507 0
M  V30 26483 H 2405.73 1.27914 -3.69802 0
M  V30 26484 H 2405.35 2.77074 -2.8516 0
M  V30 26485 N 2406.35 1.42792 0.666944 0
M  V30 26486 C 2407.28 1.4968 1.79216 0
M  V30 26487 C 2408.26 0.352652 1.66404 0
M  V30 26488 O 2409.44 0.568026 1.85707 0
M  V30 26489 C 2406.57 1.40611 3.17562 0
M  V30 26490 C 2405.53 2.53133 3.45119 0
M  V30 26491 C 2404.85 2.2912 4.83123 0
M  V30 26492 C 2406.15 3.95424 3.41229 0
M  V30 26493 H 2407.85 2.43856 1.73709 0
M  V30 26494 H 2405.39 1.17369 0.834299 0
M  V30 26495 H 2407.35 1.44036 3.9602 0
M  V30 26496 H 2406.07 0.429327 3.23766 0
M  V30 26497 H 2404.73 2.49039 2.69027 0
M  V30 26498 H 2404.38 1.29717 4.85986 0
M  V30 26499 H 2404.08 3.0454 5.02523 0
M  V30 26500 H 2405.6 2.34307 5.63855 0
M  V30 26501 H 2407.01 4.0108 4.09644 0
M  V30 26502 H 2405.41 4.70758 3.72165 0
M  V30 26503 H 2406.48 4.21536 2.39657 0
M  V30 26504 N 2407.82 -0.904008 1.29095 0
M  V30 26505 C 2408.73 -2.04068 1.15731 0
M  V30 26506 C 2409.75 -1.73809 0.0815613 0
M  V30 26507 O 2410.93 -1.9926 0.292784 0
M  V30 26508 C 2407.99 -3.36606 0.830483 0
M  V30 26509 C 2407.05 -3.80411 1.98962 0
M  V30 26510 C 2406.29 -5.06625 1.67829 0
M  V30 26511 O 2406.51 -5.67265 0.597205 0
M  V30 26512 O 2405.44 -5.46379 2.52495 0
M  V30 26513 H 2409.27 -2.18264 2.11174 0
M  V30 26514 H 2406.85 -1.02698 1.08506 0
M  V30 26515 H 2408.74 -4.16158 0.662594 0
M  V30 26516 H 2407.41 -3.23563 -0.0942109 0
M  V30 26517 H 2406.32 -3.01645 2.21272 0
M  V30 26518 H 2407.65 -3.98032 2.89536 0
M  V30 26519 N 2409.3 -1.11501 -1.11379 0
M  V30 26520 C 2410.23 -0.796163 -2.19507 0
M  V30 26521 C 2411.21 0.235766 -1.68458 0
M  V30 26522 O 2412.4 0.0991003 -1.93947 0
M  V30 26523 C 2409.53 -0.239266 -3.46475 0
M  V30 26524 C 2408.48 -1.20314 -4.10741 0
M  V30 26525 C 2407.81 -0.506924 -5.32292 0
M  V30 26526 C 2409.11 -2.55407 -4.55593 0
M  V30 26527 H 2410.8 -1.70028 -2.46436 0
M  V30 26528 H 2408.35 -0.818956 -1.18445 0
M  V30 26529 H 2410.3 -0.00399414 -4.214 0
M  V30 26530 H 2409.03 0.70015 -3.19007 0
M  V30 26531 H 2407.68 -1.42405 -3.37811 0
M  V30 26532 H 2407.33 0.43732 -5.01095 0
M  V30 26533 H 2407.03 -1.1498 -5.76241 0
M  V30 26534 H 2408.56 -0.280459 -6.09956 0
M  V30 26535 H 2409.97 -2.374 -5.21837 0
M  V30 26536 H 2408.37 -3.15682 -5.10358 0
M  V30 26537 H 2409.44 -3.14581 -3.69007 0
M  V30 26538 N 2410.78 1.28995 -0.905426 0
M  V30 26539 C 2411.71 2.26592 -0.344788 0
M  V30 26540 C 2412.73 1.54536 0.512108 0
M  V30 26541 O 2413.92 1.75454 0.328337 0
M  V30 26542 C 2411.02 3.34785 0.526528 0
M  V30 26543 C 2410.19 4.36329 -0.305948 0
M  V30 26544 C 2409.25 5.23828 0.499117 0
M  V30 26545 O 2408.27 5.69136 -0.0854004 0
M  V30 26546 N 2409.48 5.51758 1.80398 0
M  V30 26547 H 2412.24 2.75336 -1.18364 0
M  V30 26548 H 2409.8 1.4239 -0.770506 0
M  V30 26549 H 2411.79 3.90254 1.07164 0
M  V30 26550 H 2410.36 2.85813 1.26608 0
M  V30 26551 H 2409.58 3.80439 -1.03246 0
M  V30 26552 H 2410.87 5.01205 -0.875861 0
M  V30 26553 H 2410.27 5.16766 2.30151 0
M  V30 26554 H 2408.83 6.10019 2.2961 0
M  V30 26555 N 2412.26 0.668514 1.42719 0
M  V30 26556 C 2413.22 -0.00444538 2.292 0
M  V30 26557 C 2414.22 -0.735314 1.43003 0
M  V30 26558 O 2415.41 -0.574261 1.64462 0
M  V30 26559 C 2412.54 -1.017 3.25377 0
M  V30 26560 H 2413.74 0.756659 2.90198 0
M  V30 26561 H 2411.29 0.430532 1.50253 0
M  V30 26562 H 2412.03 -1.80681 2.69304 0
M  V30 26563 H 2411.81 -0.496394 3.88945 0
M  V30 26564 H 2413.3 -1.48648 3.90248 0
M  V30 26565 N 2413.74 -1.52135 0.411426 0
M  V30 26566 C 2415.01 -1.94333 -0.222274 0
M  V30 26567 C 2415.39 -1.34847 -1.62418 0
M  V30 26568 O 2414.74 -0.525184 -2.22383 0
M  V30 26569 C 2414.95 -3.48266 -0.226284 0
M  V30 26570 C 2416.3 -4.22267 -0.444518 0
M  V30 26571 O 2417.32 -3.54887 -0.30554 0
M  V30 26572 O 2416.18 -5.41754 -0.718654 0
M  V30 26573 H 2413.28 -0.814386 -0.143892 0
M  V30 26574 H 2415.82 -1.63132 0.467535 0
M  V30 26575 H 2414.6 -3.83951 0.754818 0
M  V30 26576 H 2414.22 -3.85834 -0.960096 0
M  V30 26577 N 2415.22 -0.14192 -1.5696 0
M  V30 26578 C 2416.44 0.520802 -2.00755 0
M  V30 26579 C 2416.87 1.57957 -1.02133 0
M  V30 26580 O 2416.22 1.813 0.00368137 0
M  V30 26581 C 2416.27 1.10288 -3.4332 0
M  V30 26582 O 2415.38 2.21789 -3.47683 0
M  V30 26583 H 2414.72 0.127897 -0.651566 0
M  V30 26584 H 2417.25 -0.237156 -2.03221 0
M  V30 26585 H 2417.26 1.4328 -3.82014 0
M  V30 26586 H 2415.93 0.327502 -4.14609 0
M  V30 26587 H 2414.51 1.90064 -3.20827 0
M  V30 26588 N 2416.69 1.57047 0.131868 0
M  V30 26589 C 2417.66 1.98473 1.14634 0
M  V30 26590 C 2418.66 0.873171 1.35027 0
M  V30 26591 O 2419.85 1.13949 1.31762 0
M  V30 26592 C 2416.98 2.31378 2.50354 0
M  V30 26593 H 2418.17 2.89292 0.790589 0
M  V30 26594 H 2415.72 1.51717 0.375734 0
M  V30 26595 H 2416.46 1.43398 2.90873 0
M  V30 26596 H 2416.24 3.12436 2.3691 0
M  V30 26597 H 2417.73 2.64213 3.23391 0
M  V30 26598 N 2418.17 -0.401677 1.52395 0
M  V30 26599 C 2419.42 -1.14506 1.66046 0
M  V30 26600 C 2419.73 -1.91461 0.400249 0
M  V30 26601 O 2420.94 -2.68283 0.41668 0
M  V30 26602 C 2419.4 -2.08444 2.93392 0
M  V30 26603 C 2419 -1.36971 4.26548 0
M  V30 26604 C 2420.75 -2.82996 3.16407 0
M  V30 26605 C 2418.65 -2.29601 5.45011 0
M  V30 26606 H 2417.58 -0.431147 0.618569 0
M  V30 26607 H 2420.24 -0.408889 1.78886 0
M  V30 26608 H 2418.62 -2.85645 2.74268 0
M  V30 26609 H 2419.79 -0.650836 4.56181 0
M  V30 26610 H 2418.11 -0.744308 4.09694 0
M  V30 26611 H 2420.7 -3.52458 4.02091 0
M  V30 26612 H 2421.05 -3.46364 2.30949 0
M  V30 26613 H 2421.58 -2.12892 3.36038 0
M  V30 26614 H 2418.32 -1.70868 6.32838 0
M  V30 26615 H 2417.84 -2.9944 5.19707 0
M  V30 26616 H 2419.52 -2.89964 5.78385 0
M  V30 26617 N 2419.65 -1.43144 -0.659362 0
M  V30 26618 C 2420.6 -1.47825 -1.77246 0
M  V30 26619 C 2421.57 -0.328587 -1.62817 0
M  V30 26620 O 2422.75 -0.534871 -1.8315 0
M  V30 26621 C 2419.89 -1.40131 -3.15368 0
M  V30 26622 C 2419 -2.65255 -3.40975 0
M  V30 26623 C 2418.14 -2.49593 -4.6891 0
M  V30 26624 C 2417.18 -3.70015 -4.87602 0
M  V30 26625 N 2416.32 -3.532 -6.0679 0
M  V30 26626 H 2421.16 -2.42941 -1.7258 0
M  V30 26627 H 2418.69 -1.20599 -0.842275 0
M  V30 26628 H 2420.65 -1.33666 -3.95208 0
M  V30 26629 H 2419.28 -0.48602 -3.1912 0
M  V30 26630 H 2418.33 -2.82025 -2.55277 0
M  V30 26631 H 2419.64 -3.54724 -3.50674 0
M  V30 26632 H 2418.8 -2.408 -5.56866 0
M  V30 26633 H 2417.54 -1.57638 -4.61521 0
M  V30 26634 H 2416.54 -3.79222 -3.98083 0
M  V30 26635 H 2417.77 -4.6297 -4.96826 0
M  V30 26636 H 2415.71 -2.63975 -6.00544 0
M  V30 26637 H 2415.63 -4.36266 -6.1742 0
M  V30 26638 H 2416.9 -3.48248 -6.97383 0
M  V30 26639 N 2421.13 0.897149 -1.29572 0
M  V30 26640 C 2422.38 1.64462 -1.17459 0
M  V30 26641 C 2422.7 1.9307 0.273664 0
M  V30 26642 O 2421.97 1.55857 1.18682 0
M  V30 26643 H 2420.55 0.609614 -0.431717 0
M  V30 26644 H 2423.21 1.07559 -1.62533 0
M  V30 26645 H 2422.3 2.59995 -1.72652 0
M  V30 26646 N 2422.61 1.1209 1.10786 0
M  V30 26647 C 2424.02 0.856209 1.34689 0
M  V30 26648 C 2424.22 -0.515581 1.94792 0
M  V30 26649 O 2423.28 -1.26501 2.18526 0
M  V30 26650 C 2424.59 1.96974 2.27204 0
M  V30 26651 C 2426.14 2.0002 2.40751 0
M  V30 26652 C 2426.61 3.10596 3.36592 0
M  V30 26653 N 2428.1 3.10015 3.44159 0
M  V30 26654 C 2428.84 3.92214 4.18277 0
M  V30 26655 N 2428.34 4.84392 4.95314 0
M  V30 26656 N 2430.13 3.80365 4.13859 0
M  V30 26657 H 2422.28 2.00485 0.701405 0
M  V30 26658 H 2424.54 0.872223 0.37139 0
M  V30 26659 H 2424.25 2.95803 1.90246 0
M  V30 26660 H 2424.12 1.87178 3.27482 0
M  V30 26661 H 2426.51 1.01813 2.7698 0
M  V30 26662 H 2426.59 2.13891 1.40301 0
M  V30 26663 H 2426.23 4.09033 3.01089 0
M  V30 26664 H 2426.16 2.93964 4.36913 0
M  V30 26665 H 2428.66 2.43233 2.89216 0
M  V30 26666 H 2428.97 5.43632 5.49257 0
M  V30 26667 H 2427.31 4.88409 4.94451 0
M  V30 26668 H 2430.5 3.07689 3.52767 0
M  V30 26669 H 2430.68 4.44657 4.71364 0
M  V30 26670 N 2424.08 -1.28513 0.912254 0
M  V30 26671 C 2424.99 -2.31086 0.404547 0
M  V30 26672 C 2426.01 -1.66448 -0.50704 0
M  V30 26673 O 2427.19 -1.97517 -0.393589 0
M  V30 26674 C 2424.25 -3.44944 -0.348512 0
M  V30 26675 C 2423.31 -4.25141 0.596114 0
M  V30 26676 C 2422.54 -5.33563 -0.1211 0
M  V30 26677 O 2422.77 -5.54363 -1.34307 0
M  V30 26678 O 2421.7 -5.99447 0.542822 0
M  V30 26679 H 2425.53 -2.76519 1.25583 0
M  V30 26680 H 2423.11 -1.33179 0.677022 0
M  V30 26681 H 2424.99 -4.14233 -0.773877 0
M  V30 26682 H 2423.67 -3.01596 -1.17566 0
M  V30 26683 H 2422.58 -3.58446 1.07085 0
M  V30 26684 H 2423.91 -4.72164 1.39003 0
M  V30 26685 N 2425.56 -0.676073 -1.42362 0
M  V30 26686 C 2426.47 0.00149265 -2.346 0
M  V30 26687 C 2427.49 0.787458 -1.55162 0
M  V30 26688 O 2428.66 0.729488 -1.87724 0
M  V30 26689 C 2425.73 0.940239 -3.33707 0
M  V30 26690 C 2424.79 0.148664 -4.29043 0
M  V30 26691 C 2424.02 1.0427 -5.23415 0
M  V30 26692 O 2424.25 2.28222 -5.22753 0
M  V30 26693 O 2423.18 0.50282 -5.99796 0
M  V30 26694 H 2427.01 -0.758319 -2.9408 0
M  V30 26695 H 2424.59 -0.436314 -1.42887 0
M  V30 26696 H 2426.47 1.4791 -3.94589 0
M  V30 26697 H 2425.15 1.67988 -2.76698 0
M  V30 26698 H 2424.06 -0.434335 -3.7157 0
M  V30 26699 H 2425.39 -0.551891 -4.89096 0
M  V30 26700 N 2427.04 1.51915 -0.419488 0
M  V30 26701 C 2428 2.25874 0.389076 0
M  V30 26702 C 2429 1.28632 0.964901 0
M  V30 26703 O 2430.19 1.52491 0.842152 0
M  V30 26704 C 2427.33 3.03691 1.54869 0
M  V30 26705 H 2428.52 2.98781 -0.258851 0
M  V30 26706 H 2426.07 1.55348 -0.172236 0
M  V30 26707 H 2426.81 2.35158 2.23318 0
M  V30 26708 H 2426.59 3.75096 1.14217 0
M  V30 26709 H 2428.08 3.59762 2.1204 0
M  V30 26710 N 2428.52 0.150242 1.56882 0
M  V30 26711 C 2429.77 -0.500037 1.95403 0
M  V30 26712 C 2430.08 -1.65799 1.03779 0
M  V30 26713 O 2431.29 -2.37311 1.31893 0
M  V30 26714 C 2429.74 -0.940957 3.47382 0
M  V30 26715 C 2429.35 0.190237 4.47596 0
M  V30 26716 C 2431.09 -1.56084 3.94763 0
M  V30 26717 C 2429 -0.269134 5.90787 0
M  V30 26718 H 2427.93 -0.190575 0.729518 0
M  V30 26719 H 2430.58 0.235106 1.81988 0
M  V30 26720 H 2428.96 -1.73146 3.56141 0
M  V30 26721 H 2430.14 0.967236 4.50534 0
M  V30 26722 H 2428.45 0.718738 4.1015 0
M  V30 26723 H 2431.05 -1.91622 4.99185 0
M  V30 26724 H 2431.39 -2.45101 3.36499 0
M  V30 26725 H 2431.93 -0.83518 3.88934 0
M  V30 26726 H 2428.67 0.585736 6.52878 0
M  V30 26727 H 2428.19 -1.01194 5.91202 0
M  V30 26728 H 2429.86 -0.720063 6.42981 0
M  V30 26729 N 2430 -1.57115 -0.123538 0
M  V30 26730 C 2430.94 -2.00009 -1.15174 0
M  V30 26731 C 2431.91 -0.871479 -1.41402 0
M  V30 26732 O 2433.1 -1.13536 -1.53344 0
M  V30 26733 C 2430.24 -2.40565 -2.47431 0
M  V30 26734 C 2429.35 -3.66823 -2.28178 0
M  V30 26735 C 2428.49 -3.96379 -3.53634 0
M  V30 26736 C 2427.53 -5.15833 -3.29519 0
M  V30 26737 N 2426.66 -5.41283 -4.47166 0
M  V30 26738 H 2431.5 -2.87639 -0.778957 0
M  V30 26739 H 2429.04 -1.42289 -0.373141 0
M  V30 26740 H 2431 -2.62115 -3.24579 0
M  V30 26741 H 2429.63 -1.55983 -2.82611 0
M  V30 26742 H 2428.68 -3.52915 -1.41969 0
M  V30 26743 H 2429.99 -4.54124 -2.06332 0
M  V30 26744 H 2429.15 -4.18553 -4.39202 0
M  V30 26745 H 2427.88 -3.07545 -3.78507 0
M  V30 26746 H 2426.89 -4.93509 -2.42341 0
M  V30 26747 H 2428.11 -6.06241 -3.06021 0
M  V30 26748 H 2426.06 -4.55405 -4.72167 0
M  V30 26749 H 2425.98 -6.22899 -4.28408 0
M  V30 26750 H 2427.25 -5.67972 -5.3388 0
M  V30 26751 N 2431.47 0.393589 -1.52606 0
M  V30 26752 C 2432.41 1.49992 -1.73306 0
M  V30 26753 C 2433.42 1.50798 -0.6135 0
M  V30 26754 O 2434.61 1.54783 -0.889076 0
M  V30 26755 C 2431.71 2.88852 -1.7725 0
M  V30 26756 C 2430.88 3.12063 -3.06488 0
M  V30 26757 C 2429.94 4.30881 -3.0204 0
M  V30 26758 O 2428.97 4.27407 -3.75914 0
M  V30 26759 N 2430.17 5.36825 -2.20906 0
M  V30 26760 H 2432.93 1.32624 -2.68758 0
M  V30 26761 H 2430.49 0.583056 -1.51037 0
M  V30 26762 H 2432.49 3.66431 -1.71786 0
M  V30 26763 H 2431.06 2.99602 -0.892045 0
M  V30 26764 H 2430.28 2.2239 -3.25478 0
M  V30 26765 H 2431.56 3.24423 -3.91953 0
M  V30 26766 H 2430.96 5.425 -1.60345 0
M  V30 26767 H 2429.52 6.13087 -2.21286 0
M  V30 26768 N 2432.95 1.43492 0.651762 0
M  V30 26769 C 2433.88 1.51572 1.77618 0
M  V30 26770 C 2434.86 0.370282 1.66021 0
M  V30 26771 O 2436.05 0.587691 1.85094 0
M  V30 26772 C 2433.18 1.43971 3.16053 0
M  V30 26773 C 2432.13 2.5678 3.42415 0
M  V30 26774 C 2431.46 2.34232 4.80666 0
M  V30 26775 C 2432.76 3.99021 3.37016 0
M  V30 26776 H 2434.45 2.45684 1.71113 0
M  V30 26777 H 2432 1.18247 0.821804 0
M  V30 26778 H 2433.95 1.48228 3.9447 0
M  V30 26779 H 2432.68 0.463643 3.23292 0
M  V30 26780 H 2431.33 2.51878 2.6637 0
M  V30 26781 H 2430.98 1.34865 4.84583 0
M  V30 26782 H 2430.68 3.09852 4.99265 0
M  V30 26783 H 2432.21 2.40275 5.61338 0
M  V30 26784 H 2433.62 4.05402 4.05367 0
M  V30 26785 H 2432.02 4.74679 3.67151 0
M  V30 26786 H 2433.09 4.24054 2.35173 0
M  V30 26787 N 2434.43 -0.890264 1.30046 0
M  V30 26788 C 2435.85 -1.17266 1.08263 0
M  V30 26789 C 2436.05 -2.00864 -0.160028 0
M  V30 26790 O 2435.1 -2.37579 -0.855139 0
M  V30 26791 C 2436.42 -1.88446 2.34326 0
M  V30 26792 C 2437.96 -2.01232 2.39738 0
M  V30 26793 C 2438.44 -2.75824 3.6563 0
M  V30 26794 N 2439.93 -2.83373 3.66407 0
M  V30 26795 C 2440.66 -3.41649 4.60504 0
M  V30 26796 N 2440.16 -4.01016 5.6494 0
M  V30 26797 N 2441.95 -3.39413 4.48057 0
M  V30 26798 H 2434.1 -0.332726 2.09778 0
M  V30 26799 H 2436.37 -0.209932 0.924463 0
M  V30 26800 H 2436.07 -1.3446 3.24982 0
M  V30 26801 H 2435.95 -2.88863 2.42565 0
M  V30 26802 H 2438.33 -2.54391 1.49564 0
M  V30 26803 H 2438.42 -0.99919 2.35478 0
M  V30 26804 H 2438.06 -2.23339 4.5616 0
M  V30 26805 H 2437.99 -3.77502 3.67151 0
M  V30 26806 H 2440.48 -2.41217 2.909 0
M  V30 26807 H 2440.79 -4.43534 6.32849 0
M  V30 26808 H 2439.14 -3.99451 5.68739 0
M  V30 26809 H 2442.33 -2.92258 3.65654 0
M  V30 26810 H 2442.5 -3.84535 5.21572 0
M  V30 26811 N 2435.91 -1.12676 -1.1019 0
M  V30 26812 C 2436.86 -0.796944 -2.16604 0
M  V30 26813 C 2437.83 0.237447 -1.64394 0
M  V30 26814 O 2439.01 0.111451 -1.90474 0
M  V30 26815 C 2436.15 -0.26049 -3.44115 0
M  V30 26816 C 2435.26 -1.353 -4.10266 0
M  V30 26817 C 2434.4 -0.775713 -5.25506 0
M  V30 26818 C 2433.44 -1.84717 -5.83563 0
M  V30 26819 N 2432.57 -1.28841 -6.90177 0
M  V30 26820 H 2437.41 -1.7085 -2.4416 0
M  V30 26821 H 2434.95 -0.852971 -1.19845 0
M  V30 26822 H 2436.91 0.0686081 -4.17144 0
M  V30 26823 H 2435.54 0.614218 -3.16903 0
M  V30 26824 H 2434.59 -1.79883 -3.35181 0
M  V30 26825 H 2435.9 -2.16311 -4.49456 0
M  V30 26826 H 2435.06 -0.397434 -6.05397 0
M  V30 26827 H 2433.8 0.0655724 -4.87656 0
M  V30 26828 H 2432.8 -2.23461 -5.0234 0
M  V30 26829 H 2434.03 -2.69172 -6.23477 0
M  V30 26830 H 2431.97 -0.468996 -6.54321 0
M  V30 26831 H 2431.89 -2.03509 -7.28093 0
M  V30 26832 H 2433.16 -0.937447 -7.73842 0
M  V30 26833 N 2437.39 1.28028 -0.919057 0
M  V30 26834 C 2438.32 2.29532 -0.428622 0
M  V30 26835 C 2439.3 1.62382 0.506561 0
M  V30 26836 O 2440.48 1.89754 0.413162 0
M  V30 26837 C 2437.61 3.45754 0.327328 0
M  V30 26838 C 2436.57 4.24839 -0.519212 0
M  V30 26839 C 2435.89 5.3345 0.365393 0
M  V30 26840 C 2437.19 4.91061 -1.77923 0
M  V30 26841 H 2438.89 2.70805 -1.27692 0
M  V30 26842 H 2436.43 1.30185 -0.615451 0
M  V30 26843 H 2438.39 4.15856 0.681305 0
M  V30 26844 H 2437.11 3.03376 1.20957 0
M  V30 26845 H 2435.77 3.56472 -0.855779 0
M  V30 26846 H 2435.42 4.87314 1.24634 0
M  V30 26847 H 2435.12 5.87268 -0.197459 0
M  V30 26848 H 2436.64 6.06398 0.715134 0
M  V30 26849 H 2438.05 5.53496 -1.49384 0
M  V30 26850 H 2436.45 5.54898 -2.2849 0
M  V30 26851 H 2437.52 4.15251 -2.50389 0
M  V30 26852 N 2438.86 0.683613 1.42002 0
M  V30 26853 C 2439.8 -0.0282665 2.29183 0
M  V30 26854 C 2440.81 -0.756585 1.44151 0
M  V30 26855 O 2442 -0.609277 1.6778 0
M  V30 26856 C 2439.1 -1.06392 3.21767 0
M  V30 26857 C 2438.27 -0.407646 4.35496 0
M  V30 26858 C 2437.33 -1.34428 5.08739 0
M  V30 26859 O 2436.36 -0.841219 5.6295 0
M  V30 26860 N 2437.56 -2.67719 5.15079 0
M  V30 26861 H 2440.32 0.720156 2.90919 0
M  V30 26862 H 2437.88 0.528709 1.53024 0
M  V30 26863 H 2439.88 -1.69198 3.67633 0
M  V30 26864 H 2438.45 -1.71399 2.61421 0
M  V30 26865 H 2437.67 0.400081 3.92164 0
M  V30 26866 H 2438.95 0.049185 5.08776 0
M  V30 26867 H 2438.35 -3.1112 4.72462 0
M  V30 26868 H 2436.91 -3.2575 5.64562 0
M  V30 26869 N 2440.34 -1.5169 0.427538 0
M  V30 26870 C 2441.31 -2.26077 -0.377092 0
M  V30 26871 C 2442.31 -1.29142 -0.958066 0
M  V30 26872 O 2443.5 -1.52935 -0.834053 0
M  V30 26873 C 2440.63 -3.04508 -1.53256 0
M  V30 26874 H 2441.82 -2.98639 0.274693 0
M  V30 26875 H 2439.37 -1.55255 0.180472 0
M  V30 26876 H 2440.11 -2.36339 -2.22068 0
M  V30 26877 H 2439.89 -3.75696 -1.12226 0
M  V30 26878 H 2441.38 -3.60882 -2.10129 0
M  V30 26879 N 2441.82 -0.15856 -1.568 0
M  V30 26880 C 2442.75 0.807885 -2.1449 0
M  V30 26881 C 2443.77 1.20269 -1.09723 0
M  V30 26882 O 2444.96 1.14476 -1.36958 0
M  V30 26883 C 2442.06 2.09713 -2.66221 0
M  V30 26884 C 2441.23 1.86789 -3.95511 0
M  V30 26885 C 2440.29 2.99811 -4.32435 0
M  V30 26886 O 2439.31 2.70999 -5.00548 0
M  V30 26887 N 2440.52 4.27279 -3.92955 0
M  V30 26888 H 2443.28 0.314764 -2.98042 0
M  V30 26889 H 2440.84 0.0246408 -1.61881 0
M  V30 26890 H 2442.83 2.84393 -2.87929 0
M  V30 26891 H 2441.4 2.50253 -1.87329 0
M  V30 26892 H 2440.62 0.960823 -3.82311 0
M  V30 26893 H 2441.91 1.68824 -4.79975 0
M  V30 26894 H 2441.31 4.53551 -3.38095 0
M  V30 26895 H 2439.87 4.98702 -4.1969 0
M  V30 26896 N 2443.3 1.57178 0.115204 0
M  V30 26897 C 2444.23 1.95827 1.17162 0
M  V30 26898 C 2445.21 0.828487 1.3991 0
M  V30 26899 O 2446.39 1.087 1.54002 0
M  V30 26900 C 2443.52 2.25776 2.52474 0
M  V30 26901 C 2442.57 3.48314 2.4613 0
M  V30 26902 S 2443.4 5.00763 1.89727 0
M  V30 26903 C 2444.56 5.33868 3.26704 0
M  V30 26904 H 2444.79 2.85126 0.842053 0
M  V30 26905 H 2442.32 1.51003 0.32211 0
M  V30 26906 H 2444.28 2.43708 3.30328 0
M  V30 26907 H 2442.94 1.37084 2.82607 0
M  V30 26908 H 2442.13 3.66647 3.45813 0
M  V30 26909 H 2441.74 3.29787 1.76398 0
M  V30 26910 H 2444.03 5.29283 4.22926 0
M  V30 26911 H 2444.97 6.35071 3.13194 0
M  V30 26912 H 2445.38 4.61341 3.25308 0
M  V30 26913 N 2444.78 -0.38549 1.52813 0
M  V30 26914 C 2445.72 -1.4711 1.77841 0
M  V30 26915 C 2446.69 -1.54023 0.621784 0
M  V30 26916 O 2447.88 -1.70224 0.861876 0
M  V30 26917 C 2445.02 -2.84298 1.95623 0
M  V30 26918 C 2444.13 -2.86509 3.23321 0
M  V30 26919 C 2443.27 -4.15146 3.31401 0
M  V30 26920 C 2442.31 -4.11423 4.53208 0
M  V30 26921 N 2441.44 -5.31672 4.58551 0
M  V30 26922 H 2446.28 -1.25069 2.70484 0
M  V30 26923 H 2443.82 -0.606668 1.34007 0
M  V30 26924 H 2445.78 -3.63969 2.03918 0
M  V30 26925 H 2444.41 -3.04782 1.06337 0
M  V30 26926 H 2443.46 -1.99189 3.2408 0
M  V30 26927 H 2444.77 -2.79626 4.1305 0
M  V30 26928 H 2443.93 -5.03222 3.38898 0
M  V30 26929 H 2442.67 -4.24756 2.39652 0
M  V30 26930 H 2441.67 -3.21734 4.45833 0
M  V30 26931 H 2442.9 -4.03432 5.46278 0
M  V30 26932 H 2440.84 -5.41905 3.69695 0
M  V30 26933 H 2440.76 -5.26879 5.42157 0
M  V30 26934 H 2442.03 -6.21636 4.70307 0
M  V30 26935 N 2446.26 -1.43835 -0.644143 0
M  V30 26936 C 2447.53 -1.36409 -1.40186 0
M  V30 26937 C 2447.91 -0.0163495 -2.11094 0
M  V30 26938 O 2447.26 1.00059 -2.05428 0
M  V30 26939 C 2447.47 -2.55347 -2.37905 0
M  V30 26940 C 2448.82 -2.98837 -3.01631 0
M  V30 26941 O 2449.84 -2.55459 -2.48232 0
M  V30 26942 O 2448.7 -3.7401 -3.9847 0
M  V30 26943 H 2445.8 -0.539534 -0.626764 0
M  V30 26944 H 2448.34 -1.55901 -0.670289 0
M  V30 26945 H 2447.11 -3.45063 -1.84519 0
M  V30 26946 H 2446.74 -2.38001 -3.18498 0
M  V30 26947 N 2447.73 0.883355 -1.30517 0
M  V30 26948 C 2448.98 1.6353 -1.19433 0
M  V30 26949 C 2449.31 1.92879 0.250593 0
M  V30 26950 O 2448.56 1.54937 1.19553 0
M  V30 26951 C 2448.86 2.98205 -1.96999 0
M  V30 26952 C 2448.53 2.88402 -3.46605 0
M  V30 26953 C 2447.19 2.85435 -3.87402 0
M  V30 26954 C 2449.54 2.7641 -4.41867 0
M  V30 26955 C 2446.87 2.68318 -5.21749 0
M  V30 26956 C 2449.22 2.60831 -5.76324 0
M  V30 26957 C 2447.89 2.5624 -6.16358 0
M  V30 26958 H 2447.16 0.598398 -0.437036 0
M  V30 26959 H 2449.8 1.02693 -1.61637 0
M  V30 26960 H 2448.11 3.63002 -1.47435 0
M  V30 26961 H 2449.81 3.55351 -1.85814 0
M  V30 26962 H 2446.4 2.91521 -3.14187 0
M  V30 26963 H 2450.58 2.77767 -4.11289 0
M  V30 26964 H 2445.84 2.63179 -5.51857 0
M  V30 26965 H 2450.01 2.50527 -6.49776 0
M  V30 26966 H 2447.64 2.42735 -7.20405 0
M  V30 26967 N 2449.21 1.13259 1.09591 0
M  V30 26968 C 2450.14 0.766205 2.16014 0
M  V30 26969 C 2451.16 -0.211274 1.61423 0
M  V30 26970 O 2452.35 0.00867083 1.78498 0
M  V30 26971 C 2449.45 0.114722 3.38706 0
M  V30 26972 C 2448.62 1.12387 4.22715 0
M  V30 26973 C 2447.68 0.498393 5.23834 0
M  V30 26974 O 2446.7 1.15791 5.57298 0
M  V30 26975 N 2447.91 -0.730316 5.75888 0
M  V30 26976 H 2450.67 1.68197 2.48052 0
M  V30 26977 H 2448.23 1.02537 1.25291 0
M  V30 26978 H 2450.22 -0.31592 4.03465 0
M  V30 26979 H 2448.79 -0.703957 3.04571 0
M  V30 26980 H 2448.01 1.73186 3.54119 0
M  V30 26981 H 2449.3 1.80597 4.7567 0
M  V30 26982 H 2448.7 -1.28494 5.50913 0
M  V30 26983 H 2447.26 -1.10365 6.42388 0
M  V30 26984 N 2450.69 -1.27539 0.925834 0
M  V30 26985 C 2452.11 -1.4682 0.625793 0
M  V30 26986 C 2452.31 -1.83816 -0.825474 0
M  V30 26987 O 2451.36 -1.95047 -1.60353 0
M  V30 26988 C 2452.67 -2.5621 1.57406 0
M  V30 26989 C 2454.22 -2.70072 1.58209 0
M  V30 26990 C 2454.7 -3.82619 2.51728 0
M  V30 26991 N 2456.19 -3.8999 2.49924 0
M  V30 26992 C 2456.92 -4.76489 3.18976 0
M  V30 26993 N 2456.42 -5.67489 3.97401 0
M  V30 26994 N 2458.21 -4.70202 3.08004 0
M  V30 26995 H 2450.36 -1.01808 1.86411 0
M  V30 26996 H 2452.63 -0.50828 0.800222 0
M  V30 26997 H 2452.33 -2.35815 2.6093 0
M  V30 26998 H 2452.21 -3.5356 1.31434 0
M  V30 26999 H 2454.59 -2.8985 0.554175 0
M  V30 27000 H 2454.67 -1.73215 1.88229 0
M  V30 27001 H 2454.32 -3.63595 3.54628 0
M  V30 27002 H 2454.25 -4.78899 2.19004 0
M  V30 27003 H 2456.74 -3.24919 1.92966 0
M  V30 27004 H 2457.05 -6.30348 4.47081 0
M  V30 27005 H 2455.4 -5.67291 4.01505 0
M  V30 27006 H 2458.59 -3.98106 2.4623 0
M  V30 27007 H 2458.76 -5.37397 3.62089 0
M  V30 27008 N 2452.17 -0.691135 -1.41637 0
M  V30 27009 C 2453.08 -0.0233899 -2.34588 0
M  V30 27010 C 2454.09 0.770957 -1.55988 0
M  V30 27011 O 2455.27 0.709536 -1.88488 0
M  V30 27012 C 2452.33 0.904792 -3.34686 0
M  V30 27013 C 2451.4 0.10315 -4.29176 0
M  V30 27014 C 2450.63 0.987124 -5.24492 0
M  V30 27015 O 2450.85 2.22665 -5.25144 0
M  V30 27016 O 2449.79 0.439175 -6.00296 0
M  V30 27017 H 2453.61 -0.789468 -2.93259 0
M  V30 27018 H 2451.2 -0.451445 -1.42416 0
M  V30 27019 H 2453.08 1.43717 -3.96136 0
M  V30 27020 H 2451.75 1.65044 -2.78464 0
M  V30 27021 H 2450.66 -0.473721 -3.71089 0
M  V30 27022 H 2451.99 -0.603735 -4.88483 0
M  V30 27023 N 2453.65 1.51461 -0.435577 0
M  V30 27024 C 2454.58 2.30592 0.367336 0
M  V30 27025 C 2455.56 1.3593 1.0226 0
M  V30 27026 O 2456.74 1.64848 1.02658 0
M  V30 27027 C 2453.87 3.14667 1.46977 0
M  V30 27028 C 2452.83 4.17593 0.938088 0
M  V30 27029 C 2452.15 4.90177 2.13614 0
M  V30 27030 C 2453.45 5.22293 -0.0262539 0
M  V30 27031 H 2455.15 2.97963 -0.293022 0
M  V30 27032 H 2452.69 1.43295 -0.142365 0
M  V30 27033 H 2454.64 3.68804 2.03867 0
M  V30 27034 H 2453.37 2.45114 2.15839 0
M  V30 27035 H 2452.03 3.64504 0.391417 0
M  V30 27036 H 2451.68 4.17129 2.81091 0
M  V30 27037 H 2451.38 5.59775 1.78678 0
M  V30 27038 H 2452.9 5.47137 2.7106 0
M  V30 27039 H 2454.31 5.71513 0.452284 0
M  V30 27040 H 2452.71 5.99408 -0.288097 0
M  V30 27041 H 2453.78 4.75232 -0.963474 0
M  V30 27042 N 2455.12 0.166873 1.56714 0
M  V30 27043 C 2456.03 -0.777752 2.21333 0
M  V30 27044 C 2457.05 -1.25656 1.20361 0
M  V30 27045 O 2458.23 -1.30961 1.53007 0
M  V30 27046 C 2455.29 -1.99158 2.83791 0
M  V30 27047 C 2454.35 -1.56009 3.9995 0
M  V30 27048 C 2453.59 -2.71605 4.5942 0
M  V30 27049 O 2453.81 -3.88355 4.17776 0
M  V30 27050 O 2452.74 -2.45935 5.49363 0
M  V30 27051 H 2456.57 -0.257583 3.02606 0
M  V30 27052 H 2454.15 -0.061113 1.49275 0
M  V30 27053 H 2456.04 -2.70155 3.2341 0
M  V30 27054 H 2454.71 -2.50089 2.05517 0
M  V30 27055 H 2453.62 -0.819745 3.65008 0
M  V30 27056 H 2454.95 -1.09773 4.79803 0
M  V30 27057 N 2456.6 -1.57237 -0.106866 0
M  V30 27058 C 2457.88 -1.76478 -0.843495 0
M  V30 27059 C 2458.26 -0.745499 -1.97498 0
M  V30 27060 O 2457.61 0.228266 -2.27357 0
M  V30 27061 C 2457.82 -3.21875 -1.34897 0
M  V30 27062 C 2459.17 -3.84723 -1.79647 0
M  V30 27063 O 2460.19 -3.25552 -1.44548 0
M  V30 27064 O 2459.05 -4.88752 -2.44506 0
M  V30 27065 H 2456.14 -0.723024 -0.401455 0
M  V30 27066 H 2458.69 -1.69463 -0.0896629 0
M  V30 27067 H 2457.46 -3.87587 -0.537742 0
M  V30 27068 H 2457.08 -3.33477 -2.16516 0
M  V30 27069 N 2458.08 0.377381 -1.53015 0
M  V30 27070 C 2459.04 1.44441 -1.77959 0
M  V30 27071 C 2460.04 1.47086 -0.649789 0
M  V30 27072 O 2461.23 1.48053 -0.917923 0
M  V30 27073 C 2458.37 2.83648 -1.89094 0
M  V30 27074 H 2459.56 1.23602 -2.73245 0
M  V30 27075 H 2457.11 0.609819 -1.43913 0
M  V30 27076 H 2457.85 3.09816 -0.958347 0
M  V30 27077 H 2457.63 2.83128 -2.71258 0
M  V30 27078 H 2459.12 3.60942 -2.10026 0
M  V30 27079 N 2459.56 1.44175 0.636506 0
M  V30 27080 C 2460.97 1.27943 0.954081 0
M  V30 27081 C 2461.17 0.211283 2.00389 0
M  V30 27082 O 2460.23 -0.404651 2.49236 0
M  V30 27083 C 2461.54 2.64928 1.42246 0
M  V30 27084 C 2463.09 2.72594 1.53822 0
M  V30 27085 C 2463.57 4.10036 2.04045 0
M  V30 27086 N 2465.06 4.12185 2.11323 0
M  V30 27087 C 2465.79 5.15378 2.51343 0
M  V30 27088 N 2465.29 6.28935 2.90538 0
M  V30 27089 N 2467.08 5.02732 2.51429 0
M  V30 27090 H 2459.23 2.12321 -0.0578759 0
M  V30 27091 H 2461.5 0.947288 0.036724 0
M  V30 27092 H 2461.2 3.44138 0.725406 0
M  V30 27093 H 2461.08 2.91454 2.39446 0
M  V30 27094 H 2463.46 1.93706 2.22625 0
M  V30 27095 H 2463.54 2.49815 0.550111 0
M  V30 27096 H 2463.19 4.89398 1.35839 0
M  V30 27097 H 2463.12 4.30189 3.03718 0
M  V30 27098 H 2465.61 3.30225 1.83739 0
M  V30 27099 H 2465.92 7.03493 3.19872 0
M  V30 27100 H 2464.27 6.32382 2.88302 0
M  V30 27101 H 2467.46 4.13075 2.20196 0
M  V30 27102 H 2467.63 5.83279 2.82294 0
M  V30 27103 N 2461.04 -0.876421 1.30983 0
M  V30 27104 C 2462 -1.96457 1.18057 0
M  V30 27105 C 2463 -1.60427 0.109428 0
M  V30 27106 O 2464.19 -1.70477 0.358203 0
M  V30 27107 C 2461.32 -3.31121 0.810675 0
M  V30 27108 H 2462.51 -2.0935 2.14739 0
M  V30 27109 H 2460.07 -1.0639 1.14502 0
M  V30 27110 H 2460.8 -3.23928 -0.155265 0
M  V30 27111 H 2460.59 -3.58642 1.58487 0
M  V30 27112 H 2462.08 -4.1092 0.743948 0
M  V30 27113 N 2462.51 -1.13839 -1.08989 0
M  V30 27114 C 2463.74 -0.926618 -1.85549 0
M  V30 27115 C 2464.16 0.519534 -1.80783 0
M  V30 27116 O 2463.52 1.36903 -1.18858 0
M  V30 27117 C 2463.57 -1.42468 -3.31263 0
M  V30 27118 O 2462.67 -0.612861 -4.07821 0
M  V30 27119 H 2462.02 -0.331748 -0.575186 0
M  V30 27120 H 2464.55 -1.51416 -1.37602 0
M  V30 27121 H 2464.56 -1.43025 -3.8211 0
M  V30 27122 H 2463.23 -2.4776 -3.34048 0
M  V30 27123 H 2461.81 -0.675528 -3.6673 0
M  V30 27124 N 2463.99 1.27046 -0.932584 0
M  V30 27125 C 2465.41 1.46486 -0.63357 0
M  V30 27126 C 2465.61 1.84251 0.815714 0
M  V30 27127 O 2464.66 1.95895 1.59316 0
M  V30 27128 C 2465.98 2.55372 -1.58763 0
M  V30 27129 C 2467.53 2.69229 -1.59639 0
M  V30 27130 C 2468 3.81278 -2.53753 0
M  V30 27131 N 2469.49 3.88659 -2.51989 0
M  V30 27132 C 2470.23 4.74791 -3.21499 0
M  V30 27133 N 2469.72 5.65374 -4.00405 0
M  V30 27134 N 2471.52 4.68562 -3.10493 0
M  V30 27135 H 2463.67 1.00818 -1.86948 0
M  V30 27136 H 2465.93 0.50403 -0.802906 0
M  V30 27137 H 2465.64 2.34428 -2.62177 0
M  V30 27138 H 2465.51 3.52858 -1.33307 0
M  V30 27139 H 2467.9 2.89552 -0.569539 0
M  V30 27140 H 2467.98 1.72214 -1.89145 0
M  V30 27141 H 2467.62 3.61709 -3.56551 0
M  V30 27142 H 2467.55 4.77731 -2.21541 0
M  V30 27143 H 2470.04 3.23891 -1.94686 0
M  V30 27144 H 2470.36 6.27968 -4.50417 0
M  V30 27145 H 2468.7 5.65154 -4.04508 0
M  V30 27146 H 2471.89 3.96795 -2.48338 0
M  V30 27147 H 2472.06 5.35469 -3.64934 0
M  V30 27148 N 2465.47 0.698636 1.41269 0
M  V30 27149 C 2466.75 0.158796 1.94954 0
M  V30 27150 C 2467.13 -1.33185 1.63783 0
M  V30 27151 O 2466.48 -2.07977 0.94646 0
M  V30 27152 C 2466.69 0.45337 3.46043 0
M  V30 27153 C 2468.03 0.382781 4.22871 0
M  V30 27154 O 2469.06 0.388458 3.54075 0
M  V30 27155 O 2467.92 0.345559 5.45406 0
M  V30 27156 H 2465.01 0.0167651 0.82683 0
M  V30 27157 H 2467.56 0.775007 1.50969 0
M  V30 27158 H 2466.33 1.48505 3.62025 0
M  V30 27159 H 2465.95 -0.19366 3.97128 0
M  V30 27160 N 2466.95 -1.51228 0.443603 0
M  V30 27161 C 2467.86 -2.31653 -0.37068 0
M  V30 27162 C 2468.87 -1.40835 -1.02183 0
M  V30 27163 O 2470.05 -1.73905 -1.01583 0
M  V30 27164 C 2467.12 -3.14751 -1.4537 0
M  V30 27165 C 2466.18 -4.21356 -0.822025 0
M  V30 27166 C 2465.41 -5.00483 -1.85344 0
M  V30 27167 O 2465.63 -4.80322 -3.07648 0
M  V30 27168 O 2464.57 -5.84409 -1.44049 0
M  V30 27169 H 2468.39 -3.0235 0.286055 0
M  V30 27170 H 2465.98 -1.47973 0.206006 0
M  V30 27171 H 2467.86 -3.66394 -2.08166 0
M  V30 27172 H 2466.53 -2.46812 -2.09441 0
M  V30 27173 H 2465.44 -3.73775 -0.155843 0
M  V30 27174 H 2466.77 -4.91687 -0.22471 0
M  V30 27175 N 2468.43 -0.175182 -1.56623 0
M  V30 27176 C 2469.68 0.468887 -1.96174 0
M  V30 27177 C 2469.99 1.64127 -1.06404 0
M  V30 27178 O 2471.19 2.35182 -1.35652 0
M  V30 27179 C 2469.65 0.885572 -3.48835 0
M  V30 27180 C 2469.26 -0.261422 -4.47237 0
M  V30 27181 C 2471 1.49784 -3.97196 0
M  V30 27182 C 2468.91 0.17511 -5.91141 0
M  V30 27183 H 2467.84 0.178945 -0.732458 0
M  V30 27184 H 2470.49 -0.264029 -1.81591 0
M  V30 27185 H 2468.87 1.67458 -3.58851 0
M  V30 27186 H 2470.05 -1.03879 -4.48939 0
M  V30 27187 H 2468.36 -0.783898 -4.08955 0
M  V30 27188 H 2470.96 1.83656 -5.0217 0
M  V30 27189 H 2471.3 2.39716 -3.40355 0
M  V30 27190 H 2471.83 0.773199 -3.90213 0
M  V30 27191 H 2468.57 -0.689529 -6.51863 0
M  V30 27192 H 2468.09 0.917756 -5.92737 0
M  V30 27193 H 2469.77 0.617679 -6.44045 0
M  V30 27194 N 2469.91 1.57292 0.0985263 0
M  V30 27195 C 2471.15 1.85914 0.802645 0
M  V30 27196 C 2471.48 0.763217 1.789 0
M  V30 27197 O 2470.74 -0.243525 1.94179 0
M  V30 27198 C 2471.03 3.21108 1.56922 0
M  V30 27199 C 2470.7 4.45028 0.725298 0
M  V30 27200 C 2469.36 4.78672 0.492642 0
M  V30 27201 C 2471.71 5.21016 0.138401 0
M  V30 27202 C 2469.04 5.85732 -0.33683 0
M  V30 27203 C 2471.39 6.28952 -0.678375 0
M  V30 27204 C 2470.06 6.61113 -0.921155 0
M  V30 27205 H 2469.33 0.680306 0.293709 0
M  V30 27206 H 2471.98 1.91392 0.0642505 0
M  V30 27207 H 2470.28 3.11298 2.37909 0
M  V30 27208 H 2471.98 3.40481 2.11835 0
M  V30 27209 H 2468.57 4.18681 0.916741 0
M  V30 27210 H 2472.75 4.9536 0.305317 0
M  V30 27211 H 2468.01 6.09064 -0.533943 0
M  V30 27212 H 2472.18 6.87005 -1.14002 0
M  V30 27213 H 2469.81 7.43902 -1.56569 0
M  V30 27214 N 2471.38 -0.369261 1.53213 0
M  V30 27215 C 2472.35 -1.43495 1.78723 0
M  V30 27216 C 2473.35 -1.4674 0.65758 0
M  V30 27217 O 2474.54 -1.47565 0.925762 0
M  V30 27218 C 2471.67 -2.82641 1.90596 0
M  V30 27219 H 2472.86 -1.22151 2.73896 0
M  V30 27220 H 2470.41 -0.602178 1.44234 0
M  V30 27221 H 2471.15 -3.09304 0.974764 0
M  V30 27222 H 2470.93 -2.81685 2.72756 0
M  V30 27223 H 2472.42 -3.59823 2.11937 0
M  V30 27224 N 2472.86 -1.4451 -0.628851 0
M  V30 27225 C 2474.09 -1.509 -1.41552 0
M  V30 27226 C 2474.5 -0.134597 -1.8832 0
M  V30 27227 O 2473.86 0.859936 -1.6097 0
M  V30 27228 C 2473.91 -2.47561 -2.63431 0
M  V30 27229 O 2473.63 -3.79658 -2.18612 0
M  V30 27230 C 2475.13 -2.63438 -3.56533 0
M  V30 27231 H 2472.35 -0.511717 -0.434035 0
M  V30 27232 H 2474.9 -1.89496 -0.768861 0
M  V30 27233 H 2473.05 -2.12094 -3.24183 0
M  V30 27234 H 2473.47 -4.31866 -2.97644 0
M  V30 27235 H 2474.94 -3.35095 -4.38651 0
M  V30 27236 H 2475.42 -1.68745 -4.0549 0
M  V30 27237 H 2476.02 -2.99815 -3.01647 0
M  V30 27238 N 2474.34 0.869463 -1.31446 0
M  V30 27239 C 2475.3 1.95828 -1.19097 0
M  V30 27240 C 2476.3 1.60367 -0.117934 0
M  V30 27241 O 2477.49 1.70285 -0.367238 0
M  V30 27242 C 2474.62 3.30686 -0.828223 0
M  V30 27243 H 2475.82 2.08208 -2.15846 0
M  V30 27244 H 2473.37 1.05782 -1.15065 0
M  V30 27245 H 2474.11 3.24006 0.138085 0
M  V30 27246 H 2473.89 3.57797 -1.60387 0
M  V30 27247 H 2475.38 4.1052 -0.76573 0
M  V30 27248 N 2475.82 1.14415 1.08383 0
M  V30 27249 C 2476.76 0.831303 2.15309 0
M  V30 27250 C 2477.73 -0.211263 1.64751 0
M  V30 27251 O 2478.92 -0.0811339 1.90627 0
M  V30 27252 C 2476.06 0.315203 3.43658 0
M  V30 27253 C 2475.17 1.4181 4.08061 0
M  V30 27254 C 2474.31 0.859218 5.24205 0
M  V30 27255 C 2473.35 1.93977 5.80551 0
M  V30 27256 N 2472.48 1.39805 6.8804 0
M  V30 27257 H 2477.32 1.74713 2.41411 0
M  V30 27258 H 2474.86 0.871929 1.18473 0
M  V30 27259 H 2476.82 -0.0022355 4.172 0
M  V30 27260 H 2475.45 -0.563724 3.1784 0
M  V30 27261 H 2474.5 1.85193 3.32277 0
M  V30 27262 H 2475.81 2.23434 4.45958 0
M  V30 27263 H 2474.97 0.493697 6.04688 0
M  V30 27264 H 2473.71 0.0120177 4.87699 0
M  V30 27265 H 2472.71 2.31424 4.98721 0
M  V30 27266 H 2473.94 2.79057 6.19116 0
M  V30 27267 H 2471.88 0.573034 6.53492 0
M  V30 27268 H 2471.8 2.15067 7.24764 0
M  V30 27269 H 2473.07 1.06044 7.72253 0
M  V30 27270 N 2477.3 -1.26549 0.939309 0
M  V30 27271 C 2478.21 -2.30176 0.453473 0
M  V30 27272 C 2479.22 -1.67487 -0.47162 0
M  V30 27273 O 2480.4 -1.98307 -0.351605 0
M  V30 27274 C 2477.46 -3.45606 -0.275265 0
M  V30 27275 C 2476.52 -4.23781 0.686159 0
M  V30 27276 C 2475.76 -5.33699 -0.00789613 0
M  V30 27277 O 2475.98 -5.57087 -1.22518 0
M  V30 27278 O 2474.91 -5.98161 0.669851 0
M  V30 27279 H 2478.74 -2.73792 1.31421 0
M  V30 27280 H 2476.32 -1.31713 0.705119 0
M  V30 27281 H 2478.21 -4.15781 -0.685838 0
M  V30 27282 H 2476.88 -3.04022 -1.11142 0
M  V30 27283 H 2475.79 -3.56094 1.14664 0
M  V30 27284 H 2477.12 -4.69109 1.48987 0
M  V30 27285 N 2478.77 -0.706118 -1.40896 0
M  V30 27286 C 2479.72 -0.0362302 -2.32572 0
M  V30 27287 C 2480.72 0.75724 -1.51533 0
M  V30 27288 O 2481.92 0.661674 -1.67397 0
M  V30 27289 H 2478.3 0.00708613 -0.751967 0
M  V30 27290 H 2480.27 -0.826299 -2.86731 0
M  V30 27291 C 2479.02 0.878481 -3.36419 0
M  V30 27292 H 2478.34 0.277331 -3.98837 0
M  V30 27293 H 2479.78 1.31533 -4.03082 0
M  V30 27294 C 2478.24 1.99956 -2.71144 0
M  V30 27295 O 2478.77 3.08945 -2.56741 0
M  V30 27296 N 2476.97 1.78039 -2.29674 0
M  V30 27297 H 2476.52 0.893999 -2.41589 0
M  V30 27298 H 2476.48 2.53231 -1.86336 0
M  V30 27299 N 2480.25 1.50991 -0.451617 0
M  V30 27300 C 2481.16 2.31846 0.35839 0
M  V30 27301 C 2482.18 1.41375 1.01435 0
M  V30 27302 O 2483.35 1.74441 1.0066 0
M  V30 27303 C 2480.42 3.15518 1.43699 0
M  V30 27304 C 2479.48 4.21786 0.799668 0
M  V30 27305 C 2478.71 5.01459 1.82687 0
M  V30 27306 O 2478.94 4.81947 3.05096 0
M  V30 27307 O 2477.87 5.85164 1.40948 0
M  V30 27308 H 2481.7 3.02194 -0.302085 0
M  V30 27309 H 2479.28 1.47862 -0.213851 0
M  V30 27310 H 2481.16 3.67493 2.0622 0
M  V30 27311 H 2479.84 2.4792 2.08129 0
M  V30 27312 H 2478.74 3.73853 0.136018 0
M  V30 27313 H 2480.08 4.91799 0.198632 0
M  V30 27314 N 2481.73 0.183486 1.56528 0
M  V30 27315 C 2482.68 -0.742016 2.18547 0
M  V30 27316 C 2483.65 -1.21818 1.12914 0
M  V30 27317 O 2484.83 -1.28416 1.41117 0
M  V30 27318 C 2481.97 -1.96084 2.83981 0
M  V30 27319 C 2481.08 -1.52712 4.04108 0
M  V30 27320 C 2480.22 -2.70055 4.57432 0
M  V30 27321 C 2479.26 -2.23233 5.69942 0
M  V30 27322 N 2478.4 -3.33712 6.17722 0
M  V30 27323 H 2483.24 -0.20638 2.97284 0
M  V30 27324 H 2480.77 -0.0901313 1.46824 0
M  V30 27325 H 2482.73 -2.67589 3.20082 0
M  V30 27326 H 2481.36 -2.46998 2.07826 0
M  V30 27327 H 2480.41 -0.70837 3.73746 0
M  V30 27328 H 2481.72 -1.14352 4.85515 0
M  V30 27329 H 2480.88 -3.49699 4.95778 0
M  V30 27330 H 2479.62 -3.11683 3.75107 0
M  V30 27331 H 2478.62 -1.42039 5.31136 0
M  V30 27332 H 2479.85 -1.82649 6.54077 0
M  V30 27333 H 2477.79 -3.74892 5.38323 0
M  V30 27334 H 2477.71 -2.99483 6.94151 0
M  V30 27335 H 2478.98 -4.13604 6.60721 0
M  V30 27336 N 2483.21 -1.57342 -0.0901833 0
M  V30 27337 C 2484.15 -2.02407 -1.10905 0
M  V30 27338 C 2485.12 -0.901276 -1.39521 0
M  V30 27339 O 2486.31 -1.16763 -1.50901 0
M  V30 27340 C 2483.45 -2.4576 -2.42273 0
M  V30 27341 C 2482.56 -3.7158 -2.20346 0
M  V30 27342 C 2481.7 -4.03791 -3.45147 0
M  V30 27343 C 2480.74 -5.22707 -3.18503 0
M  V30 27344 N 2479.87 -5.50646 -4.35584 0
M  V30 27345 H 2484.71 -2.89227 -0.71777 0
M  V30 27346 H 2482.25 -1.43048 -0.342876 0
M  V30 27347 H 2484.21 -2.68941 -3.18946 0
M  V30 27348 H 2482.84 -1.61943 -2.79239 0
M  V30 27349 H 2481.89 -3.55847 -1.34452 0
M  V30 27350 H 2483.2 -4.58398 -1.96653 0
M  V30 27351 H 2482.36 -4.27775 -4.30225 0
M  V30 27352 H 2481.1 -3.15504 -3.71898 0
M  V30 27353 H 2480.1 -4.98538 -2.31818 0
M  V30 27354 H 2481.33 -6.12596 -2.93092 0
M  V30 27355 H 2479.27 -4.65318 -4.62401 0
M  V30 27356 H 2479.19 -6.31846 -4.15099 0
M  V30 27357 H 2480.46 -5.79169 -5.21712 0
M  V30 27358 N 2484.69 0.36113 -1.53407 0
M  V30 27359 C 2485.65 1.42545 -1.79481 0
M  V30 27360 C 2486.65 1.46389 -0.665353 0
M  V30 27361 O 2487.84 1.47071 -0.933575 0
M  V30 27362 C 2484.97 2.81626 -1.92092 0
M  V30 27363 H 2486.16 1.20696 -2.7454 0
M  V30 27364 H 2483.72 0.594521 -1.44552 0
M  V30 27365 H 2484.45 3.08783 -0.991153 0
M  V30 27366 H 2484.24 2.80235 -2.74246 0
M  V30 27367 H 2485.73 3.58694 -2.13842 0
M  V30 27368 N 2486.16 1.44842 0.621179 0
M  V30 27369 C 2487.11 1.52473 1.73265 0
M  V30 27370 C 2488.08 0.37164 1.61889 0
M  V30 27371 O 2489.27 0.583242 1.81667 0
M  V30 27372 C 2486.41 1.48443 3.11542 0
M  V30 27373 C 2485.52 2.74202 3.33822 0
M  V30 27374 C 2484.65 2.61937 4.62128 0
M  V30 27375 C 2483.69 3.82812 4.7762 0
M  V30 27376 N 2482.83 3.69164 5.97212 0
M  V30 27377 H 2487.67 2.47431 1.66078 0
M  V30 27378 H 2485.21 1.2279 0.810005 0
M  V30 27379 H 2487.17 1.44097 3.91525 0
M  V30 27380 H 2485.8 0.570458 3.17719 0
M  V30 27381 H 2484.85 2.88694 2.4771 0
M  V30 27382 H 2486.16 3.63896 3.41146 0
M  V30 27383 H 2485.31 2.5548 5.50286 0
M  V30 27384 H 2484.05 1.69819 4.57179 0
M  V30 27385 H 2483.06 3.89644 3.87889 0
M  V30 27386 H 2484.28 4.75979 4.84376 0
M  V30 27387 H 2482.23 2.79805 5.93334 0
M  V30 27388 H 2482.15 4.52483 6.05636 0
M  V30 27389 H 2483.41 3.66615 6.87905 0
M  V30 27390 N 2487.64 -0.862479 1.31905 0
M  V30 27391 C 2488.87 -1.65395 1.25137 0
M  V30 27392 C 2489.29 -1.87247 -0.178967 0
M  V30 27393 O 2488.65 -1.41962 -1.12768 0
M  V30 27394 C 2488.7 -2.99494 2.00837 0
M  V30 27395 O 2487.8 -3.89649 1.35082 0
M  V30 27396 H 2487.14 -0.504542 0.431664 0
M  V30 27397 H 2489.67 -1.07479 1.74096 0
M  V30 27398 H 2489.68 -3.49375 2.10715 0
M  V30 27399 H 2488.36 -2.8291 3.04852 0
M  V30 27400 H 2486.94 -3.48106 1.33702 0
M  V30 27401 N 2489.12 -1.14988 -1.07775 0
M  V30 27402 C 2490.05 -0.865595 -2.16863 0
M  V30 27403 C 2491.03 0.182053 -1.69123 0
M  V30 27404 O 2492.22 0.0373473 -1.94164 0
M  V30 27405 C 2489.35 -0.349373 -3.45538 0
M  V30 27406 C 2488.3 -1.3332 -4.06706 0
M  V30 27407 C 2487.63 -0.676011 -5.30409 0
M  V30 27408 C 2488.93 -2.69772 -4.47236 0
M  V30 27409 H 2490.62 -1.77782 -2.40902 0
M  V30 27410 H 2488.17 -0.856223 -1.15779 0
M  V30 27411 H 2490.12 -0.138057 -4.21174 0
M  V30 27412 H 2488.84 0.598306 -3.21073 0
M  V30 27413 H 2487.5 -1.53081 -3.33109 0
M  V30 27414 H 2487.15 0.277679 -5.02233 0
M  V30 27415 H 2486.85 -1.33254 -5.72291 0
M  V30 27416 H 2488.37 -0.474369 -6.08755 0
M  V30 27417 H 2489.79 -2.53882 -5.1402 0
M  V30 27418 H 2488.19 -3.31759 -5.00056 0
M  V30 27419 H 2489.26 -3.26162 -3.58812 0
M  V30 27420 N 2490.6 1.26049 -0.946007 0
M  V30 27421 C 2491.51 2.29932 -0.465673 0
M  V30 27422 C 2492.52 1.67734 0.462731 0
M  V30 27423 O 2493.7 1.98491 0.341083 0
M  V30 27424 C 2490.77 3.45747 0.256933 0
M  V30 27425 C 2489.83 4.23411 -0.708623 0
M  V30 27426 C 2489.06 5.33696 -0.0204074 0
M  V30 27427 O 2489.28 5.57729 1.19562 0
M  V30 27428 O 2488.22 5.97797 -0.701564 0
M  V30 27429 H 2492.04 2.73092 -1.32871 0
M  V30 27430 H 2489.63 1.31338 -0.712094 0
M  V30 27431 H 2491.51 4.16139 0.663779 0
M  V30 27432 H 2490.18 3.04607 1.09528 0
M  V30 27433 H 2489.09 3.55481 -1.16551 0
M  V30 27434 H 2490.42 4.68313 -1.51473 0
M  V30 27435 N 2492.08 0.71358 1.4052 0
M  V30 27436 C 2493.04 0.068475 2.29098 0
M  V30 27437 C 2494.04 -0.689446 1.4527 0
M  V30 27438 O 2495.23 -0.521648 1.66206 0
M  V30 27439 C 2492.36 -0.912966 3.28447 0
M  V30 27440 H 2493.55 0.848601 2.87643 0
M  V30 27441 H 2491.11 0.478116 1.48808 0
M  V30 27442 H 2491.84 -1.72022 2.74916 0
M  V30 27443 H 2491.63 -0.372403 3.90328 0
M  V30 27444 H 2493.12 -1.36158 3.9478 0
M  V30 27445 N 2493.55 -1.50749 0.459618 0
M  V30 27446 C 2494.83 -1.94942 -0.160336 0
M  V30 27447 C 2495.21 -1.39946 -1.58046 0
M  V30 27448 O 2494.56 -0.595668 -2.20599 0
M  V30 27449 C 2494.77 -3.48809 -0.115371 0
M  V30 27450 C 2496.12 -4.23467 -0.309952 0
M  V30 27451 O 2497.14 -3.5568 -0.192481 0
M  V30 27452 O 2496 -5.43766 -0.545935 0
M  V30 27453 H 2493.09 -0.818551 -0.11791 0
M  V30 27454 H 2495.64 -1.61562 0.519198 0
M  V30 27455 H 2494.41 -3.81355 0.876587 0
M  V30 27456 H 2494.04 -3.88693 -0.836859 0
M  V30 27457 N 2495.03 -0.191784 -1.56429 0
M  V30 27458 C 2495.96 0.725657 -2.21938 0
M  V30 27459 C 2496.94 1.22378 -1.18142 0
M  V30 27460 O 2498.13 1.27322 -1.46638 0
M  V30 27461 C 2495.26 1.94667 -2.87615 0
M  V30 27462 C 2494.21 1.58359 -3.97626 0
M  V30 27463 C 2493.54 2.88094 -4.50451 0
M  V30 27464 C 2494.84 0.796042 -5.16198 0
M  V30 27465 H 2496.53 0.179554 -2.98861 0
M  V30 27466 H 2494.08 0.0849212 -1.43749 0
M  V30 27467 H 2496.03 2.59367 -3.32124 0
M  V30 27468 H 2494.76 2.51725 -2.08092 0
M  V30 27469 H 2493.41 0.960185 -3.53802 0
M  V30 27470 H 2493.06 3.43235 -3.67694 0
M  V30 27471 H 2492.76 2.64547 -5.2468 0
M  V30 27472 H 2494.29 3.53789 -4.9766 0
M  V30 27473 H 2495.7 1.34608 -5.57273 0
M  V30 27474 H 2494.1 0.658823 -5.96473 0
M  V30 27475 H 2495.17 -0.203563 -4.84473 0
M  V30 27476 N 2496.51 1.57387 0.0818378 0
M  V30 27477 C 2497.44 1.98268 1.12982 0
M  V30 27478 C 2498.42 0.857978 1.38121 0
M  V30 27479 O 2499.61 1.11942 1.51661 0
M  V30 27480 C 2496.73 2.3108 2.47628 0
M  V30 27481 C 2495.78 3.53456 2.38686 0
M  V30 27482 S 2496.61 5.04675 1.79062 0
M  V30 27483 C 2497.77 5.40678 3.15306 0
M  V30 27484 H 2498 2.86848 0.781384 0
M  V30 27485 H 2495.53 1.51652 0.290007 0
M  V30 27486 H 2497.49 2.5066 3.25084 0
M  V30 27487 H 2496.15 1.43048 2.79636 0
M  V30 27488 H 2495.35 3.73899 3.37958 0
M  V30 27489 H 2494.95 3.33455 1.69363 0
M  V30 27490 H 2497.24 5.38135 4.11604 0
M  V30 27491 H 2498.18 6.41571 2.99653 0
M  V30 27492 H 2498.59 4.68137 3.15449 0
M  V30 27493 N 2497.99 -0.35299 1.53596 0
M  V30 27494 C 2498.92 -1.45345 1.77222 0
M  V30 27495 C 2499.93 -1.49118 0.653266 0
M  V30 27496 O 2501.12 -1.52371 0.929802 0
M  V30 27497 C 2498.22 -2.84051 1.84846 0
M  V30 27498 C 2497.4 -3.03828 3.14655 0
M  V30 27499 C 2496.45 -4.22721 3.13358 0
M  V30 27500 O 2495.48 -4.1729 3.87114 0
M  V30 27501 N 2496.68 -5.30779 2.35062 0
M  V30 27502 H 2499.45 -1.25452 2.7218 0
M  V30 27503 H 2497.01 -0.542806 1.52529 0
M  V30 27504 H 2499 -3.61747 1.81441 0
M  V30 27505 H 2497.57 -2.97131 0.971166 0
M  V30 27506 H 2496.79 -2.13683 3.3126 0
M  V30 27507 H 2498.08 -3.13917 4.00416 0
M  V30 27508 H 2497.48 -5.38058 1.74672 0
M  V30 27509 H 2496.03 -6.07004 2.37463 0
M  V30 27510 N 2499.47 -1.45169 -0.613489 0
M  V30 27511 C 2500.4 -1.56228 -1.73537 0
M  V30 27512 C 2501.38 -0.414169 -1.64981 0
M  V30 27513 O 2502.56 -0.636558 -1.83471 0
M  V30 27514 C 2499.69 -1.523 -3.12125 0
M  V30 27515 C 2498.65 -2.65768 -3.35487 0
M  V30 27516 C 2497.97 -2.46893 -4.74287 0
M  V30 27517 C 2499.27 -4.07816 -3.26318 0
M  V30 27518 H 2500.97 -2.50135 -1.64538 0
M  V30 27519 H 2498.51 -1.20384 -0.790164 0
M  V30 27520 H 2500.47 -1.58635 -3.90401 0
M  V30 27521 H 2499.19 -0.549195 -3.21949 0
M  V30 27522 H 2497.85 -2.58852 -2.59598 0
M  V30 27523 H 2497.5 -1.47665 -4.80837 0
M  V30 27524 H 2497.2 -3.22981 -4.90874 0
M  V30 27525 H 2498.72 -2.55073 -5.5477 0
M  V30 27526 H 2500.14 -4.16007 -3.94476 0
M  V30 27527 H 2498.53 -4.84247 -3.54437 0
M  V30 27528 H 2499.6 -4.3014 -2.23847 0
M  V30 27529 N 2500.95 0.855472 -1.32361 0
M  V30 27530 C 2501.88 1.97055 -1.17056 0
M  V30 27531 C 2502.89 1.62456 -0.105769 0
M  V30 27532 O 2504.08 1.74941 -0.35465 0
M  V30 27533 C 2501.18 3.30052 -0.769363 0
M  V30 27534 C 2500.35 3.92897 -1.92226 0
M  V30 27535 C 2499.41 5.04226 -1.50475 0
M  V30 27536 O 2498.44 5.24265 -2.21664 0
M  V30 27537 N 2499.64 5.79118 -0.40031 0
M  V30 27538 H 2502.4 2.10726 -2.13107 0
M  V30 27539 H 2499.97 1.03028 -1.24887 0
M  V30 27540 H 2501.96 4.01933 -0.472477 0
M  V30 27541 H 2500.53 3.1244 0.09997 0
M  V30 27542 H 2499.75 3.13813 -2.38569 0
M  V30 27543 H 2501.04 4.31619 -2.69411 0
M  V30 27544 H 2500.43 5.65373 0.19222 0
M  V30 27545 H 2498.99 6.51596 -0.163027 0
M  V30 27546 N 2502.42 1.15558 1.07164 0
M  V30 27547 C 2503.33 0.868154 2.17945 0
M  V30 27548 C 2504.35 -0.156266 1.73297 0
M  V30 27549 O 2505.53 0.0182681 2.01392 0
M  V30 27550 C 2502.59 0.36361 3.44788 0
M  V30 27551 C 2501.65 1.45216 4.03993 0
M  V30 27552 C 2500.88 0.9716 5.24782 0
M  V30 27553 O 2501.11 -0.182094 5.70109 0
M  V30 27554 O 2500.04 1.75613 5.75712 0
M  V30 27555 H 2503.87 1.79431 2.45027 0
M  V30 27556 H 2501.45 0.934845 1.16538 0
M  V30 27557 H 2503.33 0.0887854 4.21306 0
M  V30 27558 H 2502.01 -0.534652 3.19254 0
M  V30 27559 H 2500.92 1.78062 3.29006 0
M  V30 27560 H 2502.25 2.32541 4.33804 0
M  V30 27561 N 2503.9 -1.25546 0.952678 0
M  V30 27562 C 2505.18 -1.88455 0.523851 0
M  V30 27563 C 2505.56 -1.85974 -0.998838 0
M  V30 27564 O 2504.91 -1.32194 -1.86379 0
M  V30 27565 C 2505.12 -3.31269 1.09826 0
M  V30 27566 C 2506.46 -4.08049 1.17392 0
M  V30 27567 O 2507.49 -3.40383 1.04967 0
M  V30 27568 O 2506.35 -5.29085 1.36861 0
M  V30 27569 H 2503.44 -0.80881 0.172499 0
M  V30 27570 H 2505.99 -1.33631 1.04598 0
M  V30 27571 H 2504.76 -3.27495 2.14156 0
M  V30 27572 H 2504.38 -3.93647 0.55926 0
M  V30 27573 N 2505.38 -0.721022 -1.40139 0
M  V30 27574 C 2506.31 -0.0868031 -2.33339 0
M  V30 27575 C 2507.29 0.739596 -1.5318 0
M  V30 27576 O 2508.48 0.687417 -1.81627 0
M  V30 27577 C 2505.61 0.831668 -3.37195 0
M  V30 27578 C 2504.56 0.110483 -4.27857 0
M  V30 27579 C 2503.89 1.14503 -5.22296 0
M  V30 27580 C 2505.19 -1.03859 -5.1187 0
M  V30 27581 H 2506.88 -0.86527 -2.86624 0
M  V30 27582 H 2504.43 -0.41754 -1.37814 0
M  V30 27583 H 2506.38 1.28478 -4.01337 0
M  V30 27584 H 2505.1 1.64209 -2.82317 0
M  V30 27585 H 2503.76 -0.322861 -3.65176 0
M  V30 27586 H 2503.41 1.94865 -4.6372 0
M  V30 27587 H 2503.11 0.667344 -5.83798 0
M  V30 27588 H 2504.63 1.59814 -5.89315 0
M  V30 27589 H 2506.05 -0.664582 -5.69435 0
M  V30 27590 H 2504.44 -1.445 -5.82443 0
M  V30 27591 H 2505.51 -1.86676 -4.47527 0
M  V30 27592 N 2506.86 1.50503 -0.467606 0
M  V30 27593 C 2507.82 2.26997 0.317019 0
M  V30 27594 C 2508.82 1.31637 0.92349 0
M  V30 27595 O 2510.01 1.55093 0.793212 0
M  V30 27596 C 2507.14 3.08465 1.45129 0
M  V30 27597 H 2508.34 2.97806 -0.353775 0
M  V30 27598 H 2505.89 1.54722 -0.221572 0
M  V30 27599 H 2506.62 2.42144 2.15724 0
M  V30 27600 H 2506.41 3.7854 1.02225 0
M  V30 27601 H 2507.9 3.66326 2.00487 0
M  V30 27602 N 2508.34 0.200077 1.56325 0
M  V30 27603 C 2509.3 -0.705094 2.18085 0
M  V30 27604 C 2510.3 -1.13738 1.13668 0
M  V30 27605 O 2511.49 -1.04966 1.39025 0
M  V30 27606 C 2508.62 -1.96324 2.78693 0
M  V30 27607 H 2509.81 -0.16697 2.99435 0
M  V30 27608 H 2507.37 -0.049545 1.56221 0
M  V30 27609 H 2508.1 -2.54376 2.01155 0
M  V30 27610 H 2507.89 -1.66196 3.55136 0
M  V30 27611 H 2509.38 -2.60861 3.261 0
M  V30 27612 N 2509.81 -1.57429 -0.0734901 0
M  V30 27613 C 2510.78 -2.02591 -1.07189 0
M  V30 27614 C 2511.78 -0.922684 -1.31694 0
M  V30 27615 O 2512.97 -1.1876 -1.27443 0
M  V30 27616 C 2510.1 -2.4051 -2.41594 0
M  V30 27617 H 2511.29 -2.92027 -0.682676 0
M  V30 27618 H 2508.84 -1.53007 -0.319167 0
M  V30 27619 H 2509.58 -1.54095 -2.85351 0
M  V30 27620 H 2509.36 -3.21013 -2.25151 0
M  V30 27621 H 2510.85 -2.76033 -3.13362 0
M  V30 27622 N 2511.29 0.344839 -1.53781 0
M  V30 27623 C 2512.2 1.44687 -1.8467 0
M  V30 27624 C 2513.22 1.57633 -0.736732 0
M  V30 27625 O 2514.39 1.73134 -1.02891 0
M  V30 27626 C 2511.46 2.79692 -2.04874 0
M  V30 27627 C 2510.52 2.761 -3.28736 0
M  V30 27628 C 2509.75 4.04666 -3.47967 0
M  V30 27629 O 2509.98 5.01879 -2.71061 0
M  V30 27630 O 2508.91 4.09216 -4.4139 0
M  V30 27631 H 2512.74 1.21501 -2.78337 0
M  V30 27632 H 2510.32 0.536897 -1.39419 0
M  V30 27633 H 2512.2 3.59649 -2.19615 0
M  V30 27634 H 2510.88 3.02812 -1.14396 0
M  V30 27635 H 2509.78 1.94769 -3.19399 0
M  V30 27636 H 2511.12 2.57934 -4.19203 0
M  V30 27637 N 2512.77 1.45492 0.605781 0
M  V30 27638 C 2514.19 1.29938 0.926728 0
M  V30 27639 C 2514.39 0.253741 1.99896 0
M  V30 27640 O 2513.44 -0.351693 2.50039 0
M  V30 27641 C 2514.75 2.67885 1.36594 0
M  V30 27642 C 2516.3 2.75796 1.48006 0
M  V30 27643 C 2516.78 4.14272 1.95302 0
M  V30 27644 N 2518.27 4.16575 2.02533 0
M  V30 27645 C 2519 5.20593 2.40354 0
M  V30 27646 N 2518.5 6.34957 2.77132 0
M  V30 27647 N 2520.29 5.07952 2.40709 0
M  V30 27648 H 2512.44 2.12151 -0.102899 0
M  V30 27649 H 2514.71 0.947854 0.0166223 0
M  V30 27650 H 2514.41 3.45599 0.652246 0
M  V30 27651 H 2514.29 2.96467 2.3321 0
M  V30 27652 H 2516.67 1.98385 2.18466 0
M  V30 27653 H 2516.75 2.50925 0.496997 0
M  V30 27654 H 2516.4 4.92169 1.25428 0
M  V30 27655 H 2516.33 4.36535 2.94525 0
M  V30 27656 H 2518.82 3.34048 1.76693 0
M  V30 27657 H 2519.13 7.10119 3.04878 0
M  V30 27658 H 2517.48 6.38355 2.74823 0
M  V30 27659 H 2520.67 4.17653 2.11384 0
M  V30 27660 H 2520.84 5.89135 2.69858 0
M  V30 27661 N 2514.25 -0.848441 1.32813 0
M  V30 27662 C 2515.21 -1.93908 1.22198 0
M  V30 27663 C 2516.21 -1.60159 0.143432 0
M  V30 27664 O 2517.4 -1.69679 0.394283 0
M  V30 27665 C 2514.53 -3.29327 0.880728 0
M  V30 27666 H 2515.73 -2.04748 2.19131 0
M  V30 27667 H 2513.28 -1.03938 1.16733 0
M  V30 27668 H 2514.01 -3.24185 -0.0865206 0
M  V30 27669 H 2513.8 -3.552 1.66059 0
M  V30 27670 H 2515.29 -4.09249 0.830943 0
M  V30 27671 N 2515.73 -1.16125 -1.06549 0
M  V30 27672 C 2517.14 -0.905609 -1.31419 0
M  V30 27673 C 2517.34 0.44293 -1.96572 0
M  V30 27674 O 2516.4 1.18304 -2.23071 0
M  V30 27675 C 2517.71 -2.05271 -2.19737 0
M  V30 27676 C 2519.26 -2.08817 -2.33162 0
M  V30 27677 C 2519.73 -3.22874 -3.24833 0
M  V30 27678 N 2521.23 -3.22574 -3.32416 0
M  V30 27679 C 2521.96 -4.07467 -4.03433 0
M  V30 27680 N 2521.46 -5.02442 -4.76995 0
M  V30 27681 N 2523.25 -3.95463 -3.99457 0
M  V30 27682 H 2515.4 -2.0295 -0.626513 0
M  V30 27683 H 2517.66 -0.885406 -0.338762 0
M  V30 27684 H 2517.37 -3.0266 -1.79136 0
M  V30 27685 H 2517.24 -1.99203 -3.20309 0
M  V30 27686 H 2519.63 -1.12023 -2.73011 0
M  V30 27687 H 2519.71 -2.18951 -1.32266 0
M  V30 27688 H 2519.36 -4.19926 -2.857 0
M  V30 27689 H 2519.29 -3.09977 -4.25701 0
M  V30 27690 H 2521.78 -2.538 -2.79989 0
M  V30 27691 H 2522.09 -5.63643 -5.28703 0
M  V30 27692 H 2520.43 -5.06424 -4.75983 0
M  V30 27693 H 2523.63 -3.2057 -3.41105 0
M  V30 27694 H 2523.8 -4.61845 -4.54536 0
M  V30 27695 N 2517.2 1.25039 -0.959323 0
M  V30 27696 C 2518.15 2.25709 -0.482097 0
M  V30 27697 C 2519.12 1.59373 0.467911 0
M  V30 27698 O 2520.31 1.86975 0.380126 0
M  V30 27699 C 2517.45 3.44336 0.229562 0
M  V30 27700 C 2516.56 4.25294 -0.758231 0
M  V30 27701 C 2515.69 5.31195 -0.0235337 0
M  V30 27702 C 2514.73 6.03844 -1.00195 0
M  V30 27703 N 2513.87 7.01468 -0.297814 0
M  V30 27704 H 2518.71 2.65899 -1.34543 0
M  V30 27705 H 2516.25 1.30719 -0.674615 0
M  V30 27706 H 2518.21 4.11966 0.658784 0
M  V30 27707 H 2516.84 3.05007 1.05691 0
M  V30 27708 H 2515.89 3.57281 -1.30592 0
M  V30 27709 H 2517.2 4.75564 -1.50467 0
M  V30 27710 H 2516.35 6.04922 0.464095 0
M  V30 27711 H 2515.09 4.8181 0.755657 0
M  V30 27712 H 2514.1 5.28927 -1.50053 0
M  V30 27713 H 2515.32 6.55318 -1.78145 0
M  V30 27714 H 2513.27 6.54367 0.462553 0
M  V30 27715 H 2513.19 7.49579 -0.98326 0
M  V30 27716 H 2514.45 7.79319 0.168123 0
M  V30 27717 N 2518.68 0.728444 1.39755 0
M  V30 27718 C 2519.61 0.0446605 2.29156 0
M  V30 27719 C 2520.63 -0.710342 1.46485 0
M  V30 27720 O 2521.82 -0.55559 1.69633 0
M  V30 27721 C 2518.92 -0.961014 3.24989 0
M  V30 27722 C 2518.09 -0.26889 4.36573 0
M  V30 27723 C 2517.15 -1.18175 5.12758 0
M  V30 27724 O 2516.17 -0.661695 5.65341 0
M  V30 27725 N 2517.38 -2.51197 5.23336 0
M  V30 27726 H 2520.14 0.812345 2.88481 0
M  V30 27727 H 2517.7 0.577124 1.51264 0
M  V30 27728 H 2519.69 -1.57416 3.7283 0
M  V30 27729 H 2518.26 -1.62996 2.66742 0
M  V30 27730 H 2517.48 0.524643 3.90693 0
M  V30 27731 H 2518.77 0.211023 5.08362 0
M  V30 27732 H 2518.17 -2.95932 4.82121 0
M  V30 27733 H 2516.73 -3.07624 5.7464 0
M  V30 27734 N 2520.16 -1.50253 0.475581 0
M  V30 27735 C 2521.12 -2.27162 -0.304976 0
M  V30 27736 C 2522.12 -1.32125 -0.916496 0
M  V30 27737 O 2523.31 -1.55511 -0.784976 0
M  V30 27738 C 2520.45 -3.0923 -1.43491 0
M  V30 27739 H 2521.64 -2.97614 0.369564 0
M  V30 27740 H 2519.19 -1.54602 0.229774 0
M  V30 27741 H 2519.93 -2.43284 -2.14437 0
M  V30 27742 H 2519.71 -3.79077 -1.00217 0
M  V30 27743 H 2521.2 -3.67384 -1.98541 0
M  V30 27744 N 2521.64 -0.208365 -1.56217 0
M  V30 27745 C 2522.92 0.475201 -1.8974 0
M  V30 27746 C 2523.3 1.78699 -1.12383 0
M  V30 27747 O 2522.64 2.27349 -0.229019 0
M  V30 27748 C 2522.85 0.68104 -3.42291 0
M  V30 27749 C 2524.2 0.994434 -4.12791 0
M  V30 27750 O 2525.23 0.768296 -3.47816 0
M  V30 27751 O 2524.08 1.4229 -5.27651 0
M  V30 27752 H 2521.18 0.249447 -0.788483 0
M  V30 27753 H 2523.72 -0.249568 -1.67855 0
M  V30 27754 H 2522.5 -0.244791 -3.90534 0
M  V30 27755 H 2522.12 1.45778 -3.69911 0
M  V30 27756 N 2523.12 1.57465 0.0651402 0
M  V30 27757 C 2524.05 2.07184 1.0769 0
M  V30 27758 C 2525.03 0.966697 1.39961 0
M  V30 27759 O 2526.21 1.23982 1.49472 0
M  V30 27760 C 2523.34 2.52131 2.38845 0
M  V30 27761 C 2522.3 3.66582 2.2091 0
M  V30 27762 C 2521.62 3.97608 3.57508 0
M  V30 27763 C 2522.92 4.96383 1.62485 0
M  V30 27764 H 2524.62 2.91964 0.663148 0
M  V30 27765 H 2522.16 1.40455 0.317544 0
M  V30 27766 H 2524.12 2.85528 3.09923 0
M  V30 27767 H 2522.84 1.64389 2.82213 0
M  V30 27768 H 2521.5 3.33479 1.52273 0
M  V30 27769 H 2521.15 3.06986 3.98458 0
M  V30 27770 H 2520.85 4.74678 3.46345 0
M  V30 27771 H 2522.37 4.33506 4.30006 0
M  V30 27772 H 2523.78 5.27967 2.23435 0
M  V30 27773 H 2522.18 5.7782 1.61999 0
M  V30 27774 H 2523.25 4.81334 0.586956 0
M  V30 27775 N 2524.59 -0.336679 1.53962 0
M  V30 27776 C 2525.5 -1.43705 1.85435 0
M  V30 27777 C 2526.52 -1.5724 0.745081 0
M  V30 27778 O 2527.7 -1.72586 1.03807 0
M  V30 27779 C 2524.76 -2.78602 2.06354 0
M  V30 27780 C 2523.82 -2.74353 3.30196 0
M  V30 27781 C 2523.06 -4.02815 3.50108 0
M  V30 27782 O 2523.28 -5.00434 2.73719 0
M  V30 27783 O 2522.21 -4.0687 4.43554 0
M  V30 27784 H 2526.04 -1.20023 2.78977 0
M  V30 27785 H 2523.62 -0.529496 1.39702 0
M  V30 27786 H 2525.51 -3.58479 2.21519 0
M  V30 27787 H 2524.18 -3.02201 1.16 0
M  V30 27788 H 2523.09 -1.93072 3.20428 0
M  V30 27789 H 2524.42 -2.55707 4.20565 0
M  V30 27790 N 2526.07 -1.45812 -0.598057 0
M  V30 27791 C 2527.02 -1.5521 -1.70817 0
M  V30 27792 C 2527.99 -0.397348 -1.61277 0
M  V30 27793 O 2529.17 -0.612069 -1.80716 0
M  V30 27794 C 2526.31 -1.53381 -3.09141 0
M  V30 27795 C 2525.43 -2.79478 -3.29418 0
M  V30 27796 C 2524.56 -2.69256 -4.57902 0
M  V30 27797 C 2523.6 -3.90363 -4.7147 0
M  V30 27798 N 2522.74 -3.78618 -5.91264 0
M  V30 27799 H 2527.58 -2.50042 -1.62121 0
M  V30 27800 H 2525.12 -1.24063 -0.790367 0
M  V30 27801 H 2527.07 -1.50307 -3.89183 0
M  V30 27802 H 2525.7 -0.620932 -3.16772 0
M  V30 27803 H 2524.76 -2.92598 -2.43086 0
M  V30 27804 H 2526.07 -3.69278 -3.35314 0
M  V30 27805 H 2525.22 -2.64202 -5.46152 0
M  V30 27806 H 2523.96 -1.77071 -4.5442 0
M  V30 27807 H 2522.97 -3.95765 -3.81641 0
M  V30 27808 H 2524.19 -4.83625 -4.76743 0
M  V30 27809 H 2522.14 -2.89209 -5.88807 0
M  V30 27810 H 2522.05 -4.6206 -5.98361 0
M  V30 27811 H 2523.32 -3.77513 -6.81985 0
M  V30 27812 N 2527.55 0.841385 -1.33261 0
M  V30 27813 C 2528.46 1.98314 -1.25335 0
M  V30 27814 C 2529.48 1.73222 -0.164395 0
M  V30 27815 O 2530.65 1.97637 -0.387521 0
M  V30 27816 C 2527.72 3.32261 -0.990137 0
M  V30 27817 C 2526.78 3.70485 -2.16885 0
M  V30 27818 C 2526.01 4.98041 -1.9181 0
M  V30 27819 O 2526.23 5.6377 -0.867174 0
M  V30 27820 O 2525.17 5.3371 -2.78276 0
M  V30 27821 H 2528.99 2.0794 -2.21348 0
M  V30 27822 H 2526.58 0.974038 -1.13282 0
M  V30 27823 H 2528.46 4.12523 -0.860394 0
M  V30 27824 H 2527.14 3.23644 -0.0602724 0
M  V30 27825 H 2526.04 2.90744 -2.35412 0
M  V30 27826 H 2527.38 3.83765 -3.08197 0
M  V30 27827 N 2529.03 1.16688 1.05932 0
M  V30 27828 C 2529.94 0.891222 2.17012 0
M  V30 27829 C 2530.96 -0.137877 1.73453 0
M  V30 27830 O 2532.13 0.0396274 2.01361 0
M  V30 27831 C 2529.2 0.400159 3.44383 0
M  V30 27832 C 2528.26 1.49493 4.0243 0
M  V30 27833 C 2527.49 1.02721 5.23721 0
M  V30 27834 O 2527.71 -0.121616 5.7027 0
M  V30 27835 O 2526.65 1.81709 5.73817 0
M  V30 27836 H 2530.47 1.8202 2.4311 0
M  V30 27837 H 2528.06 0.947153 1.1554 0
M  V30 27838 H 2529.94 0.133466 4.21189 0
M  V30 27839 H 2528.62 -0.500761 3.19803 0
M  V30 27840 H 2527.52 1.81541 3.27099 0
M  V30 27841 H 2528.86 2.37129 4.31313 0
M  V30 27842 N 2530.51 -1.24529 0.96594 0
M  V30 27843 C 2531.44 -2.27783 0.513516 0
M  V30 27844 C 2532.42 -1.6415 -0.445945 0
M  V30 27845 O 2533.6 -1.91157 -0.342451 0
M  V30 27846 C 2530.73 -3.46731 -0.198778 0
M  V30 27847 C 2529.69 -4.22619 0.67653 0
M  V30 27848 C 2529.01 -5.34439 -0.167154 0
M  V30 27849 C 2530.31 -4.84119 1.96026 0
M  V30 27850 H 2532.01 -2.65879 1.37654 0
M  V30 27851 H 2529.55 -1.27811 0.663344 0
M  V30 27852 H 2531.51 -4.18098 -0.526493 0
M  V30 27853 H 2530.23 -3.07656 -1.09614 0
M  V30 27854 H 2528.89 -3.5305 0.987492 0
M  V30 27855 H 2528.54 -4.91604 -1.06462 0
M  V30 27856 H 2528.24 -5.86131 0.415284 0
M  V30 27857 H 2529.76 -6.08634 -0.489581 0
M  V30 27858 H 2531.18 -5.4757 1.69823 0
M  V30 27859 H 2529.57 -5.46036 2.48927 0
M  V30 27860 H 2530.64 -4.05672 2.65629 0
M  V30 27861 N 2531.99 -0.735845 -1.39367 0
M  V30 27862 C 2532.95 -0.104914 -2.2896 0
M  V30 27863 C 2533.95 0.666248 -1.46348 0
M  V30 27864 O 2535.14 0.49514 -1.67015 0
M  V30 27865 C 2532.27 0.860598 -3.29858 0
M  V30 27866 H 2533.46 -0.894255 -2.86257 0
M  V30 27867 H 2531.02 -0.50173 -1.48028 0
M  V30 27868 H 2531.75 1.67626 -2.77618 0
M  V30 27869 H 2531.54 0.310258 -3.90871 0
M  V30 27870 H 2533.03 1.2986 -3.96896 0
M  V30 27871 N 2533.46 1.49999 -0.483543 0
M  V30 27872 C 2534.37 2.32554 0.309131 0
M  V30 27873 C 2535.39 1.43495 0.984134 0
M  V30 27874 O 2536.57 1.76537 0.969367 0
M  V30 27875 C 2533.63 3.18495 1.36974 0
M  V30 27876 C 2532.69 4.23388 0.710021 0
M  V30 27877 C 2531.92 5.05221 1.72009 0
M  V30 27878 O 2532.15 4.8831 2.94805 0
M  V30 27879 O 2531.08 5.88022 1.28504 0
M  V30 27880 H 2534.91 3.01485 -0.366117 0
M  V30 27881 H 2532.49 1.47375 -0.245166 0
M  V30 27882 H 2534.37 3.71785 1.98379 0
M  V30 27883 H 2533.05 2.52279 2.02823 0
M  V30 27884 H 2531.96 3.74057 0.0566881 0
M  V30 27885 H 2533.29 4.9211 0.0942692 0
M  V30 27886 N 2534.94 0.216646 1.56104 0
M  V30 27887 C 2535.85 -0.706943 2.23695 0
M  V30 27888 C 2536.87 -1.21763 1.24297 0
M  V30 27889 O 2538.04 -1.26027 1.57096 0
M  V30 27890 C 2535.11 -1.90028 2.89983 0
M  V30 27891 C 2534.17 -1.43205 4.04711 0
M  V30 27892 C 2533.4 -2.56851 4.67828 0
M  V30 27893 O 2533.63 -3.74867 4.2992 0
M  V30 27894 O 2532.56 -2.28333 5.56909 0
M  V30 27895 H 2536.39 -0.161181 3.03272 0
M  V30 27896 H 2533.97 -0.0135914 1.49394 0
M  V30 27897 H 2535.85 -2.59729 3.31841 0
M  V30 27898 H 2534.53 -2.43424 2.1337 0
M  V30 27899 H 2533.43 -0.703205 3.67431 0
M  V30 27900 H 2534.77 -0.94453 4.83052 0
M  V30 27901 N 2536.42 -1.57498 -0.0567885 0
M  V30 27902 C 2537.35 -2.07752 -1.06589 0
M  V30 27903 C 2538.33 -0.974106 -1.39446 0
M  V30 27904 O 2539.52 -1.24773 -1.48813 0
M  V30 27905 C 2536.65 -2.53394 -2.37505 0
M  V30 27906 C 2535.6 -3.67749 -2.18963 0
M  V30 27907 C 2534.93 -3.99498 -3.55395 0
M  V30 27908 C 2536.23 -4.97238 -1.5985 0
M  V30 27909 H 2537.92 -2.92311 -0.647655 0
M  V30 27910 H 2535.47 -1.40622 -0.310091 0
M  V30 27911 H 2537.42 -2.87167 -3.08404 0
M  V30 27912 H 2536.14 -1.65883 -2.81337 0
M  V30 27913 H 2534.8 -3.34282 -1.50502 0
M  V30 27914 H 2534.45 -3.09095 -3.96824 0
M  V30 27915 H 2534.15 -4.76508 -3.43823 0
M  V30 27916 H 2535.67 -4.3578 -4.27701 0
M  V30 27917 H 2537.09 -5.29145 -2.20632 0
M  V30 27918 H 2535.48 -5.78671 -1.58932 0
M  V30 27919 H 2536.55 -4.81639 -0.561421 0
M  V30 27920 N 2537.9 0.328509 -1.54138 0
M  V30 27921 C 2538.86 1.38706 -1.82465 0
M  V30 27922 C 2539.86 1.44945 -0.696254 0
M  V30 27923 O 2541.05 1.45058 -0.964561 0
M  V30 27924 C 2538.18 2.77488 -1.98023 0
M  V30 27925 H 2539.38 1.14846 -2.77039 0
M  V30 27926 H 2536.93 0.563725 -1.4578 0
M  V30 27927 H 2537.66 3.06611 -1.05643 0
M  V30 27928 H 2537.45 2.74354 -2.80129 0
M  V30 27929 H 2538.94 3.54077 -2.21403 0
M  V30 27930 N 2539.38 1.46127 0.590316 0
M  V30 27931 C 2540.6 1.54835 1.37988 0
M  V30 27932 C 2541.03 0.187539 1.87163 0
M  V30 27933 O 2540.38 -0.830979 1.61135 0
M  V30 27934 C 2540.43 2.55102 2.54863 0
M  V30 27935 O 2539.54 2.08079 3.56057 0
M  V30 27936 H 2538.88 0.521311 0.411256 0
M  V30 27937 H 2541.41 1.91633 0.716785 0
M  V30 27938 H 2541.42 2.74466 3.01881 0
M  V30 27939 H 2540.09 3.53927 2.18423 0
M  V30 27940 H 2538.67 1.98669 3.15571 0
M  V30 27941 N 2540.85 -0.834306 1.33705 0
M  V30 27942 C 2542.08 -1.62703 1.28618 0
M  V30 27943 C 2542.5 -1.87584 -0.139209 0
M  V30 27944 O 2541.86 -1.44322 -1.09731 0
M  V30 27945 C 2541.91 -2.95167 2.07144 0
M  V30 27946 O 2541.01 -3.86696 1.43317 0
M  V30 27947 H 2540.35 -0.495272 0.442269 0
M  V30 27948 H 2542.88 -1.03762 1.76336 0
M  V30 27949 H 2542.89 -3.44827 2.18079 0
M  V30 27950 H 2541.57 -2.7638 3.10784 0
M  V30 27951 H 2540.15 -3.45192 1.41056 0
M  V30 27952 N 2542.33 -1.17248 -1.05312 0
M  V30 27953 C 2543.26 -0.9114 -2.14978 0
M  V30 27954 C 2544.24 0.146139 -1.69471 0
M  V30 27955 O 2545.43 -0.00384614 -1.942 0
M  V30 27956 C 2542.56 -0.422589 -3.44719 0
M  V30 27957 C 2541.51 -1.41917 -4.03786 0
M  V30 27958 C 2540.84 -0.788367 -5.28856 0
M  V30 27959 C 2542.14 -2.79198 -4.41413 0
M  V30 27960 H 2543.83 -1.82852 -2.37077 0
M  V30 27961 H 2541.38 -0.880589 -1.13937 0
M  V30 27962 H 2543.33 -0.227363 -4.20786 0
M  V30 27963 H 2542.05 0.530067 -3.2227 0
M  V30 27964 H 2540.71 -1.60112 -3.29787 0
M  V30 27965 H 2540.36 0.171085 -5.02709 0
M  V30 27966 H 2540.06 -1.45363 -5.69336 0
M  V30 27967 H 2541.59 -0.603389 -6.07611 0
M  V30 27968 H 2543 -2.64728 -5.08519 0
M  V30 27969 H 2541.4 -3.42291 -4.92907 0
M  V30 27970 H 2542.47 -3.337 -3.51813 0
M  V30 27971 N 2543.81 1.24015 -0.972531 0
M  V30 27972 C 2545.04 1.96804 -0.654452 0
M  V30 27973 C 2545.46 1.71601 0.770368 0
M  V30 27974 O 2544.82 0.982673 1.52359 0
M  V30 27975 C 2544.87 3.48103 -0.941092 0
M  V30 27976 O 2543.97 4.1239 -0.0290197 0
M  V30 27977 H 2543.31 0.616378 -0.24693 0
M  V30 27978 H 2545.84 1.57662 -1.30399 0
M  V30 27979 H 2545.85 3.98516 -0.87459 0
M  V30 27980 H 2544.53 3.65774 -1.97945 0
M  V30 27981 H 2543.1 3.72601 -0.149257 0
M  V30 27982 N 2545.29 0.743226 1.38974 0
M  V30 27983 C 2546.54 0.294205 1.99947 0
M  V30 27984 C 2546.86 -1.12492 1.59281 0
M  V30 27985 O 2546.13 -1.76746 0.844839 0
M  V30 27986 H 2544.71 0.105787 0.739472 0
M  V30 27987 H 2547.37 0.955016 1.69898 0
M  V30 27988 H 2546.47 0.349111 3.10141 0
M  V30 27989 N 2546.77 -1.4974 0.491491 0
M  V30 27990 C 2548.18 -1.58923 0.146863 0
M  V30 27991 C 2548.38 -1.49769 -1.34802 0
M  V30 27992 O 2547.44 -1.3667 -2.12314 0
M  V30 27993 C 2548.75 -2.92071 0.715208 0
M  V30 27994 C 2550.3 -3.05514 0.680461 0
M  V30 27995 C 2550.77 -4.41266 1.2267 0
M  V30 27996 N 2552.27 -4.47733 1.18699 0
M  V30 27997 C 2553 -5.51204 1.57994 0
M  V30 27998 N 2552.5 -6.61827 2.04835 0
M  V30 27999 N 2554.29 -5.41863 1.49469 0
M  V30 28000 H 2546.44 -1.53933 1.4635 0
M  V30 28001 H 2548.7 -0.728631 0.606466 0
M  V30 28002 H 2548.41 -3.04308 1.76322 0
M  V30 28003 H 2548.28 -3.76816 0.170246 0
M  V30 28004 H 2550.67 -2.92912 -0.358692 0
M  V30 28005 H 2550.75 -2.22476 1.26246 0
M  V30 28006 H 2550.4 -4.54619 2.26459 0
M  V30 28007 H 2550.33 -5.22929 0.620729 0
M  V30 28008 H 2552.82 -3.68362 0.84367 0
M  V30 28009 H 2553.13 -7.36866 2.32914 0
M  V30 28010 H 2551.47 -6.62892 2.08803 0
M  V30 28011 H 2554.67 -4.54331 1.127 0
M  V30 28012 H 2554.84 -6.22378 1.80417 0
M  V30 28013 N 2548.24 -0.224922 -1.55987 0
M  V30 28014 C 2549.19 0.700244 -2.21809 0
M  V30 28015 C 2550.19 1.19712 -1.19856 0
M  V30 28016 O 2551.39 1.15655 -1.37927 0
M  V30 28017 H 2547.77 0.244245 -0.71123 0
M  V30 28018 H 2549.74 0.121696 -2.98152 0
M  V30 28019 C 2548.49 1.89615 -2.91447 0
M  V30 28020 H 2547.81 1.52293 -3.69658 0
M  V30 28021 H 2549.25 2.52119 -3.40899 0
M  V30 28022 C 2547.71 2.75365 -1.94103 0
M  V30 28023 O 2548.24 3.74224 -1.4601 0
M  V30 28024 N 2546.45 2.41471 -1.61679 0
M  V30 28025 H 2545.99 1.61133 -2.00982 0
M  V30 28026 H 2545.95 2.99124 -0.968089 0
M  V30 28027 N 2549.72 1.57526 0.0484352 0
M  V30 28028 C 2550.69 2.04271 1.03952 0
M  V30 28029 C 2551.69 0.943519 1.30209 0
M  V30 28030 O 2552.88 1.20773 1.25537 0
M  V30 28031 C 2550.01 2.44323 2.37737 0
M  V30 28032 H 2551.2 2.93076 0.63613 0
M  V30 28033 H 2548.75 1.53495 0.294784 0
M  V30 28034 H 2549.49 1.58615 2.82863 0
M  V30 28035 H 2549.27 3.24555 2.20015 0
M  V30 28036 H 2550.76 2.80983 3.08931 0
M  V30 28037 N 2551.2 -0.32033 1.5431 0
M  V30 28038 C 2552.13 -1.39947 1.86915 0
M  V30 28039 C 2553.11 -1.53817 0.726238 0
M  V30 28040 O 2554.3 -1.67644 0.980262 0
M  V30 28041 C 2551.43 -2.76666 2.09936 0
M  V30 28042 C 2550.38 -2.77581 3.25781 0
M  V30 28043 C 2549.71 -4.17406 3.34181 0
M  V30 28044 C 2551.01 -2.4104 4.63354 0
M  V30 28045 H 2552.7 -1.12909 2.77294 0
M  V30 28046 H 2550.25 -0.541715 1.33422 0
M  V30 28047 H 2552.2 -3.52228 2.3133 0
M  V30 28048 H 2550.92 -3.05188 1.1631 0
M  V30 28049 H 2549.58 -2.04474 3.04279 0
M  V30 28050 H 2549.23 -4.43074 2.38106 0
M  V30 28051 H 2548.93 -4.18923 4.1204 0
M  V30 28052 H 2550.45 -4.94776 3.57812 0
M  V30 28053 H 2551.87 -3.06315 4.84607 0
M  V30 28054 H 2550.27 -2.53803 5.43787 0
M  V30 28055 H 2551.34 -1.36185 4.65383 0
M  V30 28056 N 2552.68 -1.46438 -0.582558 0
M  V30 28057 C 2553.61 -1.53046 -1.70615 0
M  V30 28058 C 2554.62 -0.418796 -1.57321 0
M  V30 28059 O 2555.81 -0.687165 -1.64743 0
M  V30 28060 C 2552.91 -1.3948 -3.08867 0
M  V30 28061 C 2552.09 -2.64768 -3.48162 0
M  V30 28062 C 2551.14 -2.45398 -4.65474 0
M  V30 28063 O 2550.17 -3.19122 -4.71328 0
M  V30 28064 N 2551.37 -1.51574 -5.60362 0
M  V30 28065 H 2554.14 -2.49926 -1.654 0
M  V30 28066 H 2551.7 -1.42496 -0.768542 0
M  V30 28067 H 2553.69 -1.24294 -3.8514 0
M  V30 28068 H 2552.26 -0.507812 -3.08448 0
M  V30 28069 H 2551.48 -2.94895 -2.61592 0
M  V30 28070 H 2552.77 -3.47997 -3.71182 0
M  V30 28071 H 2552.17 -0.907803 -5.58369 0
M  V30 28072 H 2550.72 -1.42351 -6.36066 0
M  V30 28073 N 2554.16 0.827204 -1.34146 0
M  V30 28074 C 2555.43 1.56863 -1.16847 0
M  V30 28075 C 2555.81 2.09485 0.260617 0
M  V30 28076 O 2555.16 1.90532 1.26134 0
M  V30 28077 C 2555.37 2.69336 -2.21943 0
M  V30 28078 C 2556.72 3.38216 -2.56701 0
M  V30 28079 O 2557.74 2.79589 -2.207 0
M  V30 28080 O 2556.6 4.44076 -3.18526 0
M  V30 28081 H 2553.7 0.692105 -0.452681 0
M  V30 28082 H 2556.24 0.868948 -1.45765 0
M  V30 28083 H 2555.01 2.28176 -3.17886 0
M  V30 28084 H 2554.64 3.46959 -1.94178 0
M  V30 28085 N 2555.63 1.17805 1.04688 0
M  V30 28086 C 2556.54 0.914189 2.16055 0
M  V30 28087 C 2557.56 -0.119472 1.73589 0
M  V30 28088 O 2558.74 0.0609822 2.01308 0
M  V30 28089 C 2555.8 0.436663 3.43939 0
M  V30 28090 C 2554.86 1.53753 4.00822 0
M  V30 28091 C 2554.1 1.0827 5.22603 0
M  V30 28092 O 2554.32 -0.0611242 5.70367 0
M  V30 28093 O 2553.25 1.87785 5.71857 0
M  V30 28094 H 2557.08 1.84588 2.41166 0
M  V30 28095 H 2554.66 0.959354 1.14528 0
M  V30 28096 H 2556.55 0.178131 4.21023 0
M  V30 28097 H 2555.22 -0.466813 3.20316 0
M  V30 28098 H 2554.13 1.85 3.25155 0
M  V30 28099 H 2555.46 2.4169 4.28774 0
M  V30 28100 N 2557.11 -1.23497 0.979094 0
M  V30 28101 C 2558.06 -2.24913 0.517944 0
M  V30 28102 C 2559.03 -1.60097 -0.442496 0
M  V30 28103 O 2560.21 -1.87556 -0.350332 0
M  V30 28104 C 2557.35 -3.44657 -0.174753 0
M  V30 28105 C 2556.47 -4.24034 0.825795 0
M  V30 28106 C 2555.6 -5.3109 0.108039 0
M  V30 28107 C 2554.64 -6.02173 1.09789 0
M  V30 28108 N 2553.78 -7.00906 0.409374 0
M  V30 28109 H 2558.62 -2.63725 1.38756 0
M  V30 28110 H 2556.16 -1.29629 0.695326 0
M  V30 28111 H 2558.11 -4.12962 -0.59316 0
M  V30 28112 H 2556.74 -3.0665 -1.00825 0
M  V30 28113 H 2555.8 -3.55158 1.3626 0
M  V30 28114 H 2557.11 -4.7311 1.58013 0
M  V30 28115 H 2556.26 -6.05584 -0.367798 0
M  V30 28116 H 2555 -4.82951 -0.678909 0
M  V30 28117 H 2554.01 -5.26473 1.58449 0
M  V30 28118 H 2555.23 -6.52401 1.88548 0
M  V30 28119 H 2553.18 -6.5502 -0.35839 0
M  V30 28120 H 2553.09 -7.47919 1.10239 0
M  V30 28121 H 2554.36 -7.79488 -0.0441187 0
M  V30 28122 N 2558.59 -0.750586 -1.38578 0
M  V30 28123 C 2560.01 -0.427851 -1.53758 0
M  V30 28124 C 2560.21 1.0594 -1.71403 0
M  V30 28125 O 2559.26 1.84546 -1.72334 0
M  V30 28126 C 2560.58 -1.22448 -2.7464 0
M  V30 28127 C 2562.12 -1.21425 -2.88487 0
M  V30 28128 C 2562.6 -1.99378 -4.12326 0
M  V30 28129 N 2564.09 -1.96623 -4.19397 0
M  V30 28130 C 2564.83 -2.53736 -5.14204 0
M  V30 28131 N 2564.32 -3.1955 -6.14703 0
M  V30 28132 N 2566.11 -2.43682 -5.06533 0
M  V30 28133 H 2558.27 -1.7145 -1.25374 0
M  V30 28134 H 2560.53 -0.726656 -0.608831 0
M  V30 28135 H 2560.23 -2.27752 -2.67996 0
M  V30 28136 H 2560.11 -0.839338 -3.67743 0
M  V30 28137 H 2562.5 -0.169284 -2.94614 0
M  V30 28138 H 2562.58 -1.63888 -1.96403 0
M  V30 28139 H 2562.22 -3.03884 -4.0696 0
M  V30 28140 H 2562.15 -1.54311 -5.03484 0
M  V30 28141 H 2564.64 -1.4869 -3.47419 0
M  V30 28142 H 2564.95 -3.60557 -6.83534 0
M  V30 28143 H 2563.3 -3.23644 -6.15045 0
M  V30 28144 H 2566.49 -1.91896 -4.26958 0
M  V30 28145 H 2566.66 -2.88489 -5.8024 0
M  V30 28146 N 2560.07 1.49477 -0.499425 0
M  V30 28147 C 2561.49 1.58843 -0.155289 0
M  V30 28148 C 2561.69 1.50482 1.34006 0
M  V30 28149 O 2560.74 1.37795 2.11587 0
M  V30 28150 C 2562.05 2.91687 -0.730688 0
M  V30 28151 C 2563.6 3.05149 -0.696653 0
M  V30 28152 C 2564.08 4.4061 -1.25009 0
M  V30 28153 N 2565.57 4.47097 -1.21072 0
M  V30 28154 C 2566.3 5.50358 -1.60915 0
M  V30 28155 N 2565.8 6.60731 -2.08342 0
M  V30 28156 N 2567.59 5.41063 -1.5234 0
M  V30 28157 H 2559.74 1.53155 -1.47164 0
M  V30 28158 H 2562.01 0.725404 -0.610321 0
M  V30 28159 H 2561.71 3.03369 -1.77933 0
M  V30 28160 H 2561.59 3.7672 -0.190227 0
M  V30 28161 H 2563.97 2.93098 0.343153 0
M  V30 28162 H 2564.05 2.21803 -1.27424 0
M  V30 28163 H 2563.7 4.53412 -2.28867 0
M  V30 28164 H 2563.63 5.22592 -0.648452 0
M  V30 28165 H 2566.12 3.67909 -0.863193 0
M  V30 28166 H 2566.43 7.3562 -2.36818 0
M  V30 28167 H 2564.78 6.61776 -2.12315 0
M  V30 28168 H 2567.97 4.53727 -1.15108 0
M  V30 28169 H 2568.14 6.21412 -1.83715 0
M  V30 28170 N 2561.55 0.233191 1.55865 0
M  V30 28171 C 2562.48 -0.666559 2.23784 0
M  V30 28172 C 2563.46 -1.19203 1.21345 0
M  V30 28173 O 2564.64 -1.23389 1.49962 0
M  V30 28174 C 2561.77 -1.86973 2.92675 0
M  V30 28175 C 2560.73 -1.47761 4.01685 0
M  V30 28176 C 2560.05 -2.7605 4.57931 0
M  V30 28177 C 2561.35 -0.658902 5.18127 0
M  V30 28178 H 2563.05 -0.100253 2.99232 0
M  V30 28179 H 2560.59 -0.0467787 1.43924 0
M  V30 28180 H 2562.55 -2.50471 3.38884 0
M  V30 28181 H 2561.27 -2.46119 2.14693 0
M  V30 28182 H 2559.93 -0.866043 3.56224 0
M  V30 28183 H 2559.58 -3.33365 3.76665 0
M  V30 28184 H 2559.28 -2.50543 5.31509 0
M  V30 28185 H 2560.8 -3.4047 5.06865 0
M  V30 28186 H 2562.22 -1.19785 5.60646 0
M  V30 28187 H 2560.61 -0.500447 5.9801 0
M  V30 28188 H 2561.68 0.331941 4.83763 0
M  V30 28189 N 2563.03 -1.57549 -0.0400806 0
M  V30 28190 C 2563.94 -2.09222 -1.06129 0
M  V30 28191 C 2564.95 -1.02843 -1.40354 0
M  V30 28192 O 2566.13 -1.34512 -1.49895 0
M  V30 28193 C 2563.19 -2.55223 -2.34654 0
M  V30 28194 C 2562.25 -3.76037 -2.0711 0
M  V30 28195 C 2561.49 -4.19834 -3.29507 0
M  V30 28196 O 2561.71 -3.6324 -4.39787 0
M  V30 28197 O 2560.64 -5.12367 -3.15854 0
M  V30 28198 H 2564.47 -2.96614 -0.652192 0
M  V30 28199 H 2562.05 -1.47184 -0.256343 0
M  V30 28200 H 2563.94 -2.85189 -3.10234 0
M  V30 28201 H 2562.61 -1.70946 -2.7488 0
M  V30 28202 H 2561.52 -3.51106 -1.29133 0
M  V30 28203 H 2562.85 -4.61264 -1.71746 0
M  V30 28204 N 2564.5 0.312142 -1.54478 0
M  V30 28205 C 2565.47 1.36763 -1.83925 0
M  V30 28206 C 2566.47 1.44198 -0.711588 0
M  V30 28207 O 2567.66 1.44027 -0.979892 0
M  V30 28208 C 2564.79 2.75373 -2.00955 0
M  V30 28209 H 2565.98 1.11901 -2.78241 0
M  V30 28210 H 2563.53 0.548232 -1.4637 0
M  V30 28211 H 2564.27 3.05473 -1.08889 0
M  V30 28212 H 2564.05 2.71368 -2.83023 0
M  V30 28213 H 2565.54 3.51709 -2.25146 0
M  V30 28214 N 2565.98 1.46745 0.574784 0
M  V30 28215 C 2567.4 1.31875 0.898958 0
M  V30 28216 C 2567.6 0.296085 1.99313 0
M  V30 28217 O 2566.65 -0.298577 2.50728 0
M  V30 28218 C 2567.97 2.70722 1.30881 0
M  V30 28219 C 2569.51 2.78873 1.42122 0
M  V30 28220 C 2569.99 4.18321 1.86471 0
M  V30 28221 N 2571.48 4.20777 1.93651 0
M  V30 28222 C 2572.22 5.25574 2.29258 0
M  V30 28223 N 2571.71 6.40692 2.63601 0
M  V30 28224 N 2573.5 5.12944 2.2988 0
M  V30 28225 H 2565.66 2.11885 -0.147876 0
M  V30 28226 H 2567.92 0.947994 -0.00348679 0
M  V30 28227 H 2567.62 3.46905 0.578792 0
M  V30 28228 H 2567.5 3.01347 2.26869 0
M  V30 28229 H 2569.89 2.02974 2.14209 0
M  V30 28230 H 2569.97 2.51923 0.443661 0
M  V30 28231 H 2569.61 4.94719 1.1496 0
M  V30 28232 H 2569.54 4.42684 2.85199 0
M  V30 28233 H 2572.03 3.37721 1.69568 0
M  V30 28234 H 2572.34 7.16426 2.89746 0
M  V30 28235 H 2570.69 6.44041 2.61221 0
M  V30 28236 H 2573.88 4.22043 2.02478 0
M  V30 28237 H 2574.05 5.94727 2.57301 0
M  V30 28238 N 2567.46 -0.820078 1.34583 0
M  V30 28239 C 2568.71 -1.57149 1.2644 0
M  V30 28240 C 2569.02 -1.94919 -0.163076 0
M  V30 28241 O 2570.23 -2.69013 -0.366675 0
M  V30 28242 C 2568.68 -2.83537 2.21663 0
M  V30 28243 C 2568.29 -2.53058 3.69683 0
M  V30 28244 C 2570.04 -3.61557 2.22434 0
M  V30 28245 C 2567.94 -3.75656 4.56767 0
M  V30 28246 H 2566.87 -0.589815 0.469718 0
M  V30 28247 H 2569.52 -0.902628 1.59765 0
M  V30 28248 H 2567.91 -3.52064 1.81293 0
M  V30 28249 H 2569.08 -1.92624 4.18608 0
M  V30 28250 H 2567.39 -1.88309 3.71387 0
M  V30 28251 H 2569.99 -4.52592 2.84718 0
M  V30 28252 H 2570.33 -3.97887 1.22441 0
M  V30 28253 H 2570.87 -2.99977 2.61264 0
M  V30 28254 H 2567.61 -3.44445 5.57708 0
M  V30 28255 H 2567.13 -4.35363 4.12576 0
M  V30 28256 H 2568.81 -4.43036 4.71517 0
M  V30 28257 N 2568.94 -1.18359 -1.04062 0
M  V30 28258 C 2569.9 -0.912744 -2.10242 0
M  V30 28259 C 2570.9 0.1019 -1.60477 0
M  V30 28260 O 2572.09 -0.131547 -1.73703 0
M  V30 28261 C 2569.22 -0.369446 -3.38892 0
M  V30 28262 H 2570.42 -1.8543 -2.35702 0
M  V30 28263 H 2567.97 -0.995615 -1.20487 0
M  V30 28264 H 2568.7 0.57872 -3.19095 0
M  V30 28265 H 2568.49 -1.10086 -3.76329 0
M  V30 28266 H 2569.98 -0.198648 -4.17127 0
M  V30 28267 N 2570.42 1.22976 -0.98563 0
M  V30 28268 C 2571.35 2.2394 -0.488194 0
M  V30 28269 C 2572.36 1.5748 0.412792 0
M  V30 28270 O 2573.55 1.77187 0.21609 0
M  V30 28271 C 2570.65 3.37456 0.312552 0
M  V30 28272 C 2569.82 4.335 -0.582818 0
M  V30 28273 C 2568.88 5.25941 0.164972 0
M  V30 28274 O 2567.91 5.67441 -0.447177 0
M  V30 28275 N 2569.11 5.62114 1.44943 0
M  V30 28276 H 2571.87 2.67251 -1.35635 0
M  V30 28277 H 2569.44 1.37201 -0.859501 0
M  V30 28278 H 2571.43 3.96279 0.821287 0
M  V30 28279 H 2570 2.93286 1.08175 0
M  V30 28280 H 2569.22 3.73103 -1.27232 0
M  V30 28281 H 2570.51 4.9462 -1.19284 0
M  V30 28282 H 2569.9 5.30356 1.96821 0
M  V30 28283 H 2568.46 6.23386 1.9035 0
M  V30 28284 N 2571.89 0.757924 1.38178 0
M  V30 28285 C 2572.82 0.148638 2.33026 0
M  V30 28286 C 2573.8 -0.698723 1.55087 0
M  V30 28287 O 2574.99 -0.63902 1.83385 0
M  V30 28288 C 2572.12 -0.741975 3.39282 0
M  V30 28289 C 2571.07 0.00299469 4.28 0
M  V30 28290 C 2570.4 -1.00615 5.25148 0
M  V30 28291 C 2571.7 1.17394 5.08936 0
M  V30 28292 H 2573.39 0.940959 2.84229 0
M  V30 28293 H 2570.94 0.453932 1.36658 0
M  V30 28294 H 2572.89 -1.17792 4.04602 0
M  V30 28295 H 2571.62 -1.56666 2.86571 0
M  V30 28296 H 2570.28 0.419568 3.64191 0
M  V30 28297 H 2569.92 -1.82502 4.68724 0
M  V30 28298 H 2569.62 -0.512325 5.85362 0
M  V30 28299 H 2571.15 -1.44133 5.93345 0
M  V30 28300 H 2572.56 0.815324 5.67473 0
M  V30 28301 H 2570.96 1.59892 5.78407 0
M  V30 28302 H 2572.03 1.98475 4.4242 0
M  V30 28303 N 2573.37 -1.4921 0.507345 0
M  V30 28304 C 2574.28 -2.33017 -0.272095 0
M  V30 28305 C 2575.3 -1.45042 -0.961181 0
M  V30 28306 O 2576.47 -1.78057 -0.941159 0
M  V30 28307 C 2573.54 -3.20634 -1.3189 0
M  V30 28308 C 2572.6 -4.24464 -0.642574 0
M  V30 28309 C 2571.83 -5.07894 -1.6395 0
M  V30 28310 O 2572.06 -4.92938 -2.86999 0
M  V30 28311 O 2570.99 -5.89992 -1.19133 0
M  V30 28312 H 2574.82 -3.00864 0.414035 0
M  V30 28313 H 2572.4 -1.46966 0.268581 0
M  V30 28314 H 2574.28 -3.74894 -1.92439 0
M  V30 28315 H 2572.96 -2.55473 -1.98784 0
M  V30 28316 H 2571.87 -3.741 0.00282828 0
M  V30 28317 H 2573.2 -4.92197 -0.0159668 0
M  V30 28318 N 2574.85 -0.241454 -1.55739 0
M  V30 28319 C 2575.76 0.671266 -2.24791 0
M  V30 28320 C 2576.78 1.1977 -1.26219 0
M  V30 28321 O 2577.95 1.23512 -1.59081 0
M  V30 28322 C 2575.02 1.85391 -2.9297 0
M  V30 28323 C 2574.08 1.36749 -4.06938 0
M  V30 28324 C 2573.31 2.49376 -4.71855 0
M  V30 28325 O 2573.53 3.6798 -4.35829 0
M  V30 28326 O 2572.47 2.19444 -5.60471 0
M  V30 28327 H 2576.29 0.112913 -3.0349 0
M  V30 28328 H 2573.88 -0.0101776 -1.49397 0
M  V30 28329 H 2575.76 2.54417 -3.35931 0
M  V30 28330 H 2574.44 2.39998 -2.17215 0
M  V30 28331 H 2573.34 0.644661 -3.68504 0
M  V30 28332 H 2574.68 0.867561 -4.84494 0
M  V30 28333 N 2576.33 1.57568 0.0317248 0
M  V30 28334 C 2577.24 2.09782 1.05018 0
M  V30 28335 C 2578.25 1.03586 1.39807 0
M  V30 28336 O 2579.43 1.35305 1.4918 0
M  V30 28337 C 2576.5 2.56463 2.33297 0
M  V30 28338 C 2575.56 3.7713 2.05113 0
M  V30 28339 C 2574.79 4.21576 3.27276 0
M  V30 28340 O 2575.01 3.65567 4.37855 0
M  V30 28341 O 2573.95 5.14035 3.13132 0
M  V30 28342 H 2577.77 2.96956 0.636453 0
M  V30 28343 H 2575.36 1.47318 0.248533 0
M  V30 28344 H 2577.24 2.86831 3.08717 0
M  V30 28345 H 2575.91 1.72401 2.7397 0
M  V30 28346 H 2574.82 3.51786 1.27269 0
M  V30 28347 H 2576.15 4.62168 1.69297 0
M  V30 28348 N 2577.81 -0.303946 1.54641 0
M  V30 28349 C 2578.74 -1.37957 1.88389 0
M  V30 28350 C 2579.72 -1.53038 0.742512 0
M  V30 28351 O 2580.9 -1.66595 0.997988 0
M  V30 28352 C 2578.03 -2.74424 2.12859 0
M  V30 28353 C 2576.99 -2.7411 3.28706 0
M  V30 28354 C 2576.31 -4.13838 3.38589 0
M  V30 28355 C 2577.61 -2.36112 4.65885 0
M  V30 28356 H 2579.31 -1.09961 2.78476 0
M  V30 28357 H 2576.85 -0.527533 1.33989 0
M  V30 28358 H 2578.81 -3.49754 2.35053 0
M  V30 28359 H 2577.53 -3.03937 1.1954 0
M  V30 28360 H 2576.19 -2.01235 3.06431 0
M  V30 28361 H 2575.84 -4.40524 2.42792 0
M  V30 28362 H 2575.54 -4.1453 4.1646 0
M  V30 28363 H 2577.06 -4.90953 3.6304 0
M  V30 28364 H 2578.47 -3.01158 4.87829 0
M  V30 28365 H 2576.87 -2.48021 5.46448 0
M  V30 28366 H 2577.94 -1.31241 4.66802 0
M  V30 28367 N 2579.28 -1.47047 -0.566994 0
M  V30 28368 C 2580.19 -1.61413 -1.70244 0
M  V30 28369 C 2581.21 -0.497186 -1.66745 0
M  V30 28370 O 2582.39 -0.763422 -1.8637 0
M  V30 28371 C 2579.45 -1.61566 -3.06753 0
M  V30 28372 C 2578.51 -2.84613 -3.21394 0
M  V30 28373 C 2577.75 -2.84749 -4.51391 0
M  V30 28374 O 2577.97 -1.94398 -5.36252 0
M  V30 28375 O 2576.9 -3.76491 -4.69615 0
M  V30 28376 H 2580.73 -2.5747 -1.61069 0
M  V30 28377 H 2578.31 -1.3002 -0.735871 0
M  V30 28378 H 2580.2 -1.64403 -3.88007 0
M  V30 28379 H 2578.87 -0.686739 -3.16331 0
M  V30 28380 H 2577.78 -2.87324 -2.39574 0
M  V30 28381 H 2579.11 -3.76766 -3.16714 0
M  V30 28382 N 2580.76 0.812929 -1.35016 0
M  V30 28383 C 2581.67 1.9561 -1.29514 0
M  V30 28384 C 2582.69 1.72834 -0.201101 0
M  V30 28385 O 2583.86 1.9677 -0.429355 0
M  V30 28386 C 2580.93 3.30086 -1.06039 0
M  V30 28387 C 2579.99 3.65802 -2.24695 0
M  V30 28388 C 2579.22 4.9386 -2.02331 0
M  V30 28389 O 2579.45 5.61803 -0.986563 0
M  V30 28390 O 2578.38 5.27687 -2.89534 0
M  V30 28391 H 2582.21 2.03198 -2.25709 0
M  V30 28392 H 2579.79 0.94979 -1.15323 0
M  V30 28393 H 2581.67 4.10605 -0.947702 0
M  V30 28394 H 2580.35 3.23443 -0.128909 0
M  V30 28395 H 2579.26 2.85685 -2.41526 0
M  V30 28396 H 2580.59 3.77141 -3.16268 0
M  V30 28397 N 2582.24 1.18909 1.03433 0
M  V30 28398 C 2583.15 0.937053 2.15073 0
M  V30 28399 C 2584.17 -0.101054 1.73706 0
M  V30 28400 O 2585.34 0.0823301 2.01232 0
M  V30 28401 C 2582.41 0.473118 3.43457 0
M  V30 28402 C 2581.47 1.57996 3.99169 0
M  V30 28403 C 2580.7 1.13806 5.21425 0
M  V30 28404 O 2580.92 -0.000625679 5.704 0
M  V30 28405 O 2579.86 1.9384 5.69833 0
M  V30 28406 H 2583.68 1.87136 2.39194 0
M  V30 28407 H 2581.27 0.971447 1.13504 0
M  V30 28408 H 2583.15 0.222776 4.20811 0
M  V30 28409 H 2581.83 -0.432813 3.20793 0
M  V30 28410 H 2580.73 1.88439 3.23174 0
M  V30 28411 H 2582.07 2.46224 4.26186 0
M  V30 28412 N 2583.72 -1.22452 0.992137 0
M  V30 28413 C 2584.65 -2.23678 0.500063 0
M  V30 28414 C 2585.66 -1.57696 -0.404435 0
M  V30 28415 O 2586.85 -1.77299 -0.206691 0
M  V30 28416 C 2583.95 -3.37617 -0.294651 0
M  V30 28417 C 2583.13 -4.33185 0.605799 0
M  V30 28418 C 2582.18 -5.26021 -0.137077 0
M  V30 28419 O 2581.21 -5.67196 0.477263 0
M  V30 28420 N 2582.41 -5.62874 -1.4196 0
M  V30 28421 H 2585.18 -2.66528 1.3705 0
M  V30 28422 H 2582.74 -1.36744 0.866765 0
M  V30 28423 H 2584.73 -3.96709 -0.80026 0
M  V30 28424 H 2583.3 -2.93856 -1.06618 0
M  V30 28425 H 2582.52 -3.72423 1.29209 0
M  V30 28426 H 2583.81 -4.9398 1.21905 0
M  V30 28427 H 2583.21 -5.31393 -1.94006 0
M  V30 28428 H 2581.76 -6.24387 -1.87041 0
M  V30 28429 N 2585.2 -0.765242 -1.37774 0
M  V30 28430 C 2586.44 -0.325978 -1.99454 0
M  V30 28431 C 2586.77 1.09944 -1.61051 0
M  V30 28432 O 2586.04 1.7538 -0.872851 0
M  V30 28433 H 2584.62 -0.117538 -0.737695 0
M  V30 28434 H 2587.28 -0.981924 -1.68358 0
M  V30 28435 H 2586.37 -0.398407 -3.09547 0
M  V30 28436 N 2586.67 1.48939 -0.515251 0
M  V30 28437 C 2587.62 2.31038 0.269074 0
M  V30 28438 C 2588.62 1.40294 0.949419 0
M  V30 28439 O 2589.82 1.57275 0.875482 0
M  V30 28440 H 2586.2 0.744543 0.105637 0
M  V30 28441 H 2588.17 2.95091 -0.443148 0
M  V30 28442 C 2586.92 3.21994 1.31207 0
M  V30 28443 H 2586.24 3.91756 0.797966 0
M  V30 28444 H 2587.68 3.82352 1.83257 0
M  V30 28445 C 2586.14 2.4258 2.33787 0
M  V30 28446 O 2586.67 2.14009 3.39946 0
M  V30 28447 N 2584.88 2.04343 2.06621 0
M  V30 28448 H 2584.42 2.27779 1.2031 0
M  V30 28449 H 2584.38 1.51519 2.7548 0
M  V30 28450 N 2588.15 0.249709 1.55609 0
M  V30 28451 C 2589.09 -0.68937 2.17538 0
M  V30 28452 C 2590.06 -1.17081 1.12831 0
M  V30 28453 O 2591.25 -1.24844 1.41232 0
M  V30 28454 C 2588.38 -1.9372 2.77831 0
M  V30 28455 C 2587.42 -1.59339 3.95618 0
M  V30 28456 S 2588.25 -0.693577 5.30989 0
M  V30 28457 C 2589.41 -1.95035 5.94737 0
M  V30 28458 H 2589.64 -0.163089 2.96852 0
M  V30 28459 H 2587.18 0.0341437 1.54362 0
M  V30 28460 H 2589.13 -2.65356 3.13204 0
M  V30 28461 H 2587.8 -2.43461 1.98458 0
M  V30 28462 H 2586.99 -2.52125 4.36405 0
M  V30 28463 H 2586.59 -0.957448 3.61537 0
M  V30 28464 H 2588.88 -2.89729 6.12424 0
M  V30 28465 H 2589.83 -1.58592 6.90112 0
M  V30 28466 H 2590.23 -2.10372 5.23836 0
M  V30 28467 N 2589.63 -1.57583 -0.0233682 0
M  V30 28468 C 2590.54 -2.10336 -1.03904 0
M  V30 28469 C 2591.56 -1.04326 -1.39256 0
M  V30 28470 O 2592.73 -1.36094 -1.4846 0
M  V30 28471 C 2589.8 -2.57697 -2.31933 0
M  V30 28472 C 2588.86 -3.78213 -2.0311 0
M  V30 28473 C 2588.09 -4.23306 -3.25036 0
M  V30 28474 O 2588.32 -3.67884 -4.3591 0
M  V30 28475 O 2587.25 -5.15688 -3.10402 0
M  V30 28476 H 2591.08 -2.9729 -0.620695 0
M  V30 28477 H 2588.66 -1.47448 -0.240717 0
M  V30 28478 H 2590.54 -2.88464 -3.07191 0
M  V30 28479 H 2589.22 -1.73852 -2.73052 0
M  V30 28480 H 2588.12 -3.52456 -1.25402 0
M  V30 28481 H 2589.46 -4.63059 -1.66844 0
M  V30 28482 N 2591.11 0.29574 -1.548 0
M  V30 28483 C 2592.07 1.34804 -1.85366 0
M  V30 28484 C 2593.07 1.43435 -0.726842 0
M  V30 28485 O 2594.26 1.4298 -0.995113 0
M  V30 28486 C 2591.39 2.73226 -2.03864 0
M  V30 28487 H 2592.59 1.08944 -2.79412 0
M  V30 28488 H 2590.14 0.532676 -1.46943 0
M  V30 28489 H 2590.88 3.04301 -1.12123 0
M  V30 28490 H 2590.66 2.68351 -2.85885 0
M  V30 28491 H 2592.15 3.49301 -2.28863 0
M  V30 28492 N 2592.59 1.47346 0.559187 0
M  V30 28493 C 2593.52 1.54223 1.68198 0
M  V30 28494 C 2594.5 0.394524 1.57741 0
M  V30 28495 O 2595.68 0.602042 1.78627 0
M  V30 28496 C 2592.81 1.4429 3.06428 0
M  V30 28497 C 2591.86 2.63538 3.35335 0
M  V30 28498 S 2592.69 4.25746 3.24808 0
M  V30 28499 C 2593.84 4.18363 4.65535 0
M  V30 28500 H 2594.08 2.49214 1.6211 0
M  V30 28501 H 2591.61 1.3552 0.739847 0
M  V30 28502 H 2593.57 1.39247 3.86161 0
M  V30 28503 H 2592.23 0.50687 3.09983 0
M  V30 28504 H 2591.42 2.52647 4.36103 0
M  V30 28505 H 2591.02 2.65693 2.63217 0
M  V30 28506 H 2593.32 3.86495 5.56442 0
M  V30 28507 H 2594.26 5.1921 4.81483 0
M  V30 28508 H 2594.67 3.49254 4.43489 0
M  V30 28509 N 2594.07 -0.805758 1.35445 0
M  V30 28510 C 2595.29 -1.59938 1.3204 0
M  V30 28511 C 2595.72 -1.87837 -0.0993885 0
M  V30 28512 O 2595.07 -1.46617 -1.06645 0
M  V30 28513 C 2595.12 -2.90707 2.13359 0
M  V30 28514 O 2594.23 -3.83569 1.51487 0
M  V30 28515 H 2593.57 -0.485779 0.452675 0
M  V30 28516 H 2596.1 -0.999987 1.78498 0
M  V30 28517 H 2596.11 -3.40124 2.25344 0
M  V30 28518 H 2594.78 -2.69726 3.16577 0
M  V30 28519 H 2593.36 -3.42122 1.48346 0
M  V30 28520 N 2595.54 -1.19456 -1.02801 0
M  V30 28521 C 2596.82 -0.907044 -1.73298 0
M  V30 28522 C 2597.2 0.587051 -2.02773 0
M  V30 28523 O 2596.55 1.54548 -1.68307 0
M  V30 28524 C 2596.76 -1.7679 -3.00909 0
M  V30 28525 C 2598.11 -2.00275 -3.744 0
M  V30 28526 O 2599.13 -1.73949 -3.10838 0
M  V30 28527 O 2597.99 -2.44669 -4.88671 0
M  V30 28528 H 2595.08 -0.338119 -0.754722 0
M  V30 28529 H 2597.63 -1.30273 -1.08752 0
M  V30 28530 H 2596.4 -2.78015 -2.75361 0
M  V30 28531 H 2596.02 -1.37155 -3.73195 0
M  V30 28532 N 2597.02 1.21924 -0.998617 0
M  V30 28533 C 2598.44 1.42921 -0.710328 0
M  V30 28534 C 2598.64 1.88316 0.7169 0
M  V30 28535 O 2597.69 2.04064 1.48708 0
M  V30 28536 C 2599.01 2.46597 -1.72076 0
M  V30 28537 C 2600.55 2.60389 -1.73686 0
M  V30 28538 C 2601.03 3.67291 -2.73607 0
M  V30 28539 N 2602.52 3.74755 -2.72236 0
M  V30 28540 C 2603.26 4.57081 -3.46214 0
M  V30 28541 N 2602.75 5.43354 -4.29812 0
M  V30 28542 N 2604.54 4.51445 -3.34894 0
M  V30 28543 H 2596.7 0.907666 -1.92029 0
M  V30 28544 H 2598.96 0.460761 -0.828495 0
M  V30 28545 H 2598.66 2.20201 -2.74234 0
M  V30 28546 H 2598.54 3.45296 -1.51824 0
M  V30 28547 H 2600.93 2.86126 -0.722223 0
M  V30 28548 H 2601.01 1.61946 -1.98008 0
M  V30 28549 H 2600.65 3.42301 -3.75223 0
M  V30 28550 H 2600.58 4.65316 -2.46553 0
M  V30 28551 H 2603.07 3.13116 -2.11581 0
M  V30 28552 H 2603.38 6.0321 -4.83071 0
M  V30 28553 H 2601.73 5.42917 -4.33897 0
M  V30 28554 H 2604.92 3.83073 -2.69022 0
M  V30 28555 H 2605.09 5.15372 -3.92805 0
M  V30 28556 N 2598.5 0.772537 1.37367 0
M  V30 28557 C 2599.75 0.337716 1.99968 0
M  V30 28558 C 2600.08 -1.08318 1.61185 0
M  V30 28559 O 2599.35 -1.74532 0.858426 0
M  V30 28560 C 2599.64 0.482184 3.56857 0
M  V30 28561 C 2599.49 1.94556 4.05547 0
M  V30 28562 C 2600.81 -0.113066 4.39955 0
M  V30 28563 H 2597.93 0.124183 0.726462 0
M  V30 28564 H 2600.57 0.975728 1.63032 0
M  V30 28565 H 2598.72 -0.0609678 3.88452 0
M  V30 28566 H 2600.39 2.54847 3.84513 0
M  V30 28567 H 2598.63 2.45409 3.5771 0
M  V30 28568 H 2599.31 1.99769 5.14584 0
M  V30 28569 H 2601.78 0.350383 4.14622 0
M  V30 28570 H 2600.66 0.0181479 5.48897 0
M  V30 28571 H 2600.92 -1.20346 4.25405 0
M  V30 28572 N 2599.98 -1.48664 0.523142 0
M  V30 28573 C 2601.39 -1.58576 0.180539 0
M  V30 28574 C 2601.59 -1.52595 -1.31595 0
M  V30 28575 O 2600.65 -1.41143 -2.09368 0
M  V30 28576 C 2601.96 -2.90488 0.777 0
M  V30 28577 C 2603.51 -3.04002 0.745111 0
M  V30 28578 C 2603.99 -4.38565 1.32003 0
M  V30 28579 N 2605.48 -4.45114 1.28169 0
M  V30 28580 C 2606.21 -5.47728 1.6965 0
M  V30 28581 N 2605.71 -6.57333 2.18828 0
M  V30 28582 N 2607.5 -5.38571 1.60929 0
M  V30 28583 H 2599.65 -1.50794 1.49582 0
M  V30 28584 H 2601.91 -0.715603 0.621785 0
M  V30 28585 H 2601.62 -3.005 1.82737 0
M  V30 28586 H 2601.49 -3.7637 0.250136 0
M  V30 28587 H 2603.88 -2.93607 -0.29648 0
M  V30 28588 H 2603.96 -2.19748 1.30937 0
M  V30 28589 H 2603.61 -4.49714 2.36051 0
M  V30 28590 H 2603.54 -5.21494 0.73151 0
M  V30 28591 H 2606.03 -3.6649 0.921615 0
M  V30 28592 H 2606.34 -7.31759 2.48491 0
M  V30 28593 H 2604.69 -6.58314 2.22817 0
M  V30 28594 H 2607.88 -4.51838 1.22312 0
M  V30 28595 H 2608.05 -6.18411 1.93578 0
M  V30 28596 N 2601.46 -0.257958 -1.55475 0
M  V30 28597 C 2602.4 0.6369 -2.21838 0
M  V30 28598 C 2603.37 1.16292 -1.18598 0
M  V30 28599 O 2604.56 1.21537 -1.47083 0
M  V30 28600 C 2601.7 1.82312 -2.93013 0
M  V30 28601 C 2600.81 1.33258 -4.10934 0
M  V30 28602 C 2599.95 2.47923 -4.69795 0
M  V30 28603 C 2598.98 1.95786 -5.79943 0
M  V30 28604 N 2598.12 3.03859 -6.32941 0
M  V30 28605 H 2602.96 0.0643067 -2.97931 0
M  V30 28606 H 2600.5 0.0199772 -1.47086 0
M  V30 28607 H 2602.46 2.52012 -3.32484 0
M  V30 28608 H 2601.09 2.36801 -2.19374 0
M  V30 28609 H 2600.14 0.529244 -3.767 0
M  V30 28610 H 2601.45 0.910568 -4.90418 0
M  V30 28611 H 2600.6 3.25647 -5.11898 0
M  V30 28612 H 2599.34 2.93431 -3.89551 0
M  V30 28613 H 2598.35 1.16536 -5.37308 0
M  V30 28614 H 2599.57 1.51234 -6.62046 0
M  V30 28615 H 2597.52 3.48781 -5.55597 0
M  V30 28616 H 2597.44 2.66023 -7.07649 0
M  V30 28617 H 2598.7 3.81609 -6.79702 0
M  V30 28618 N 2602.93 1.57593 0.0150108 0
M  V30 28619 C 2603.9 2.0643 0.99596 0
M  V30 28620 C 2604.9 0.970926 1.28178 0
M  V30 28621 O 2606.09 1.23409 1.22947 0
M  V30 28622 C 2603.22 2.49311 2.32502 0
M  V30 28623 H 2604.41 2.94359 0.573822 0
M  V30 28624 H 2601.97 1.54086 0.262159 0
M  V30 28625 H 2602.7 1.6458 2.79435 0
M  V30 28626 H 2602.49 3.29149 2.13081 0
M  V30 28627 H 2603.98 2.87473 3.02901 0
M  V30 28628 N 2604.41 -0.287527 1.54955 0
M  V30 28629 C 2605.64 -1.03964 1.78883 0
M  V30 28630 C 2606.06 -1.80461 0.554925 0
M  V30 28631 O 2605.41 -1.76193 -0.475645 0
M  V30 28632 C 2605.46 -2.00965 3.00492 0
M  V30 28633 O 2605.18 -1.27569 4.19115 0
M  V30 28634 C 2606.69 -2.88106 3.36912 0
M  V30 28635 H 2603.91 -0.30775 0.596264 0
M  V30 28636 H 2606.45 -0.322713 2.01938 0
M  V30 28637 H 2604.6 -2.6814 2.79606 0
M  V30 28638 H 2605.02 -1.92826 4.87769 0
M  V30 28639 H 2606.49 -3.51993 4.25211 0
M  V30 28640 H 2606.97 -3.57116 2.55665 0
M  V30 28641 H 2607.58 -2.26442 3.60005 0
M  V30 28642 N 2605.89 -1.47641 -0.551365 0
M  V30 28643 C 2606.82 -1.56631 -1.6733 0
M  V30 28644 C 2607.84 -0.452072 -1.56397 0
M  V30 28645 O 2609.02 -0.721954 -1.63248 0
M  V30 28646 C 2606.12 -1.46 -3.05839 0
M  V30 28647 C 2605.3 -2.72094 -3.42467 0
M  V30 28648 C 2604.36 -2.55217 -4.60164 0
M  V30 28649 O 2603.38 -3.29048 -4.64452 0
M  V30 28650 N 2604.58 -1.63426 -5.57021 0
M  V30 28651 H 2607.35 -2.53378 -1.60062 0
M  V30 28652 H 2604.91 -1.44094 -0.738144 0
M  V30 28653 H 2606.9 -1.32435 -3.82417 0
M  V30 28654 H 2605.47 -0.573125 -3.07301 0
M  V30 28655 H 2604.69 -3.00377 -2.55278 0
M  V30 28656 H 2605.98 -3.55792 -3.63717 0
M  V30 28657 H 2605.38 -1.02604 -5.56317 0
M  V30 28658 H 2603.94 -1.55811 -6.32903 0
M  V30 28659 N 2607.37 0.798563 -1.3587 0
M  V30 28660 C 2608.3 1.91913 -1.25308 0
M  V30 28661 C 2609.31 1.61861 -0.174577 0
M  V30 28662 O 2610.5 1.7328 -0.428529 0
M  V30 28663 C 2607.6 3.26491 -0.908657 0
M  V30 28664 C 2606.78 3.8439 -2.08718 0
M  V30 28665 C 2605.83 4.9739 -1.71726 0
M  V30 28666 O 2604.86 5.14391 -2.43701 0
M  V30 28667 N 2606.06 5.76899 -0.645574 0
M  V30 28668 H 2608.83 2.01498 -2.21853 0
M  V30 28669 H 2606.39 0.976385 -1.29145 0
M  V30 28670 H 2608.38 3.99567 -0.642525 0
M  V30 28671 H 2606.95 3.12583 -0.0326365 0
M  V30 28672 H 2606.17 3.03412 -2.51664 0
M  V30 28673 H 2607.46 4.19804 -2.87475 0
M  V30 28674 H 2606.86 5.6568 -0.0477474 0
M  V30 28675 H 2605.41 6.50318 -0.439244 0
M  V30 28676 N 2608.85 1.19999 1.02166 0
M  V30 28677 C 2609.81 0.946077 2.08763 0
M  V30 28678 C 2610.81 -0.0763563 1.60619 0
M  V30 28679 O 2612 0.159165 1.73471 0
M  V30 28680 C 2609.13 0.423314 3.38262 0
M  V30 28681 H 2610.32 1.89157 2.32722 0
M  V30 28682 H 2607.88 1.01466 1.18888 0
M  V30 28683 H 2608.61 -0.527881 3.19975 0
M  V30 28684 H 2608.4 1.1606 3.7453 0
M  V30 28685 H 2609.89 0.264985 4.16758 0
M  V30 28686 N 2610.32 -1.21392 1.00507 0
M  V30 28687 C 2611.23 -2.27448 0.574846 0
M  V30 28688 C 2612.25 -1.69751 -0.382176 0
M  V30 28689 O 2613.43 -1.99892 -0.245992 0
M  V30 28690 C 2610.49 -3.46579 -0.0916805 0
M  V30 28691 C 2609.55 -4.19548 0.909831 0
M  V30 28692 C 2608.79 -5.32991 0.275017 0
M  V30 28693 O 2609.01 -5.62798 -0.928155 0
M  V30 28694 O 2607.94 -5.93769 0.985982 0
M  V30 28695 H 2611.77 -2.66441 1.45749 0
M  V30 28696 H 2609.35 -1.27791 0.773946 0
M  V30 28697 H 2611.24 -4.18832 -0.464477 0
M  V30 28698 H 2609.91 -3.09486 -0.9487 0
M  V30 28699 H 2608.82 -3.49515 1.33379 0
M  V30 28700 H 2610.15 -4.60552 1.73644 0
M  V30 28701 N 2611.8 -0.779811 -1.36955 0
M  V30 28702 C 2612.73 -0.12968 -2.28833 0
M  V30 28703 C 2613.75 0.655485 -1.49021 0
M  V30 28704 O 2614.94 0.492249 -1.71578 0
M  V30 28705 C 2612.04 0.839734 -3.28332 0
M  V30 28706 C 2611.21 0.106673 -4.3727 0
M  V30 28707 C 2610.27 0.990626 -5.16791 0
M  V30 28708 O 2609.29 0.451416 -5.67407 0
M  V30 28709 N 2610.5 2.31601 -5.32298 0
M  V30 28710 H 2613.26 -0.918853 -2.85267 0
M  V30 28711 H 2610.82 -0.632868 -1.49018 0
M  V30 28712 H 2612.81 1.4347 -3.78416 0
M  V30 28713 H 2611.38 1.52983 -2.72607 0
M  V30 28714 H 2610.6 -0.669285 -3.88477 0
M  V30 28715 H 2611.89 -0.399553 -5.07229 0
M  V30 28716 H 2611.29 2.77834 -4.92772 0
M  V30 28717 H 2609.85 2.86085 -5.85661 0
M  V30 28718 N 2613.28 1.48384 -0.531019 0
M  V30 28719 C 2614.21 2.32462 0.219944 0
M  V30 28720 C 2615.19 1.42158 0.934086 0
M  V30 28721 O 2616.38 1.71043 0.919663 0
M  V30 28722 C 2613.51 3.23377 1.26668 0
M  V30 28723 C 2612.46 4.22714 0.670616 0
M  V30 28724 C 2611.79 5.0277 1.82008 0
M  V30 28725 C 2613.09 5.21069 -0.35836 0
M  V30 28726 H 2614.78 2.95496 -0.481922 0
M  V30 28727 H 2612.33 1.42099 -0.233207 0
M  V30 28728 H 2614.28 3.81023 1.79999 0
M  V30 28729 H 2613 2.58345 1.99814 0
M  V30 28730 H 2611.66 3.66256 0.158813 0
M  V30 28731 H 2611.31 4.34161 2.53994 0
M  V30 28732 H 2611.01 5.70005 1.42717 0
M  V30 28733 H 2612.53 5.63268 2.35716 0
M  V30 28734 H 2613.95 5.73233 0.0879074 0
M  V30 28735 H 2612.35 5.96362 -0.668715 0
M  V30 28736 H 2613.42 4.68142 -1.26375 0
M  V30 28737 N 2614.76 0.2662 1.55336 0
M  V30 28738 C 2615.98 -0.359625 2.04258 0
M  V30 28739 C 2616.41 -1.49342 1.14362 0
M  V30 28740 O 2615.77 -1.80756 0.1404 0
M  V30 28741 C 2615.81 -0.826573 3.50999 0
M  V30 28742 O 2614.92 -1.93459 3.64208 0
M  V30 28743 H 2614.26 -0.0757154 0.659669 0
M  V30 28744 H 2616.79 0.397896 2.00694 0
M  V30 28745 H 2616.8 -1.1247 3.92192 0
M  V30 28746 H 2615.47 0.00300343 4.159 0
M  V30 28747 H 2614.05 -1.63969 3.34916 0
M  V30 28748 N 2616.24 -1.57599 -0.0066531 0
M  V30 28749 C 2617.18 -2.09117 -1.01847 0
M  V30 28750 C 2618.18 -1.00971 -1.36019 0
M  V30 28751 O 2619.38 -1.19442 -1.34661 0
M  V30 28752 H 2615.76 -0.667637 -0.346071 0
M  V30 28753 H 2617.73 -2.9313 -0.558343 0
M  V30 28754 C 2616.48 -2.60433 -2.3037 0
M  V30 28755 H 2615.8 -3.43277 -2.04941 0
M  V30 28756 H 2617.24 -3.00166 -2.9946 0
M  V30 28757 C 2615.7 -1.51548 -3.0089 0
M  V30 28758 O 2616.23 -0.894553 -3.91613 0
M  V30 28759 N 2614.44 -1.24455 -2.62601 0
M  V30 28760 H 2613.98 -1.75133 -1.88908 0
M  V30 28761 H 2613.94 -0.518192 -3.101 0
M  V30 28762 N 2617.72 0.279305 -1.55105 0
M  V30 28763 C 2618.63 1.36724 -1.9064 0
M  V30 28764 C 2619.64 1.54367 -0.802926 0
M  V30 28765 O 2620.82 1.68615 -1.10141 0
M  V30 28766 C 2617.88 2.70751 -2.16552 0
M  V30 28767 C 2616.94 2.61909 -3.40151 0
M  V30 28768 C 2616.18 3.89544 -3.64817 0
M  V30 28769 O 2616.4 4.8993 -2.92103 0
M  V30 28770 O 2615.33 3.90127 -4.5835 0
M  V30 28771 H 2619.16 1.09586 -2.83239 0
M  V30 28772 H 2616.74 0.477281 -1.41571 0
M  V30 28773 H 2618.63 3.5001 -2.34671 0
M  V30 28774 H 2617.3 2.97688 -1.27136 0
M  V30 28775 H 2616.21 1.81046 -3.27373 0
M  V30 28776 H 2617.54 2.39922 -4.29765 0
M  V30 28777 N 2619.19 1.47931 0.543528 0
M  V30 28778 C 2620.12 1.6433 1.65885 0
M  V30 28779 C 2621.1 0.492412 1.62817 0
M  V30 28780 O 2622.29 0.72337 1.80225 0
M  V30 28781 C 2619.42 1.67019 3.04503 0
M  V30 28782 C 2618.37 2.81472 3.22425 0
M  V30 28783 C 2617.7 2.69241 4.61967 0
M  V30 28784 C 2619 4.22921 3.06489 0
M  V30 28785 H 2620.69 2.577 1.52417 0
M  V30 28786 H 2618.24 1.24017 0.731827 0
M  V30 28787 H 2620.19 1.77081 3.82388 0
M  V30 28788 H 2618.92 0.702176 3.18962 0
M  V30 28789 H 2617.58 2.70943 2.46953 0
M  V30 28790 H 2617.22 1.70438 4.73244 0
M  V30 28791 H 2616.92 3.46033 4.74905 0
M  V30 28792 H 2618.45 2.81251 5.41969 0
M  V30 28793 H 2619.86 4.34354 3.74178 0
M  V30 28794 H 2618.26 5.00606 3.30929 0
M  V30 28795 H 2619.33 4.4033 2.0307 0
M  V30 28796 N 2620.67 -0.791347 1.36292 0
M  V30 28797 C 2621.63 -1.88551 1.30312 0
M  V30 28798 C 2622.63 -1.59407 0.211232 0
M  V30 28799 O 2623.82 -1.67854 0.465895 0
M  V30 28800 C 2620.96 -3.25295 1.01961 0
M  V30 28801 H 2622.15 -1.95269 2.27618 0
M  V30 28802 H 2619.7 -0.988932 1.21037 0
M  V30 28803 H 2620.44 -3.2426 0.051055 0
M  V30 28804 H 2620.22 -3.47837 1.80974 0
M  V30 28805 H 2621.71 -4.05357 1.00377 0
M  V30 28806 N 2622.15 -1.2054 -1.01528 0
M  V30 28807 C 2623.38 -1.04202 -1.78744 0
M  V30 28808 C 2623.79 0.4087 -1.84323 0
M  V30 28809 O 2623.15 1.28374 -1.29716 0
M  V30 28810 C 2623.2 -1.6204 -3.23149 0
M  V30 28811 O 2622.92 -3.01435 -3.17913 0
M  V30 28812 C 2624.42 -1.50673 -4.16908 0
M  V30 28813 H 2621.64 -0.366488 -0.562074 0
M  V30 28814 H 2624.19 -1.59655 -1.27791 0
M  V30 28815 H 2622.34 -1.10704 -3.71246 0
M  V30 28816 H 2622.76 -3.28904 -4.08561 0
M  V30 28817 H 2624.23 -1.95901 -5.16069 0
M  V30 28818 H 2624.71 -0.45944 -4.3679 0
M  V30 28819 H 2625.31 -2.01207 -3.74694 0
M  V30 28820 N 2623.63 1.20858 -1.01149 0
M  V30 28821 C 2624.54 2.2714 -0.5869 0
M  V30 28822 C 2625.55 1.69951 0.373168 0
M  V30 28823 O 2626.73 2.0002 0.235388 0
M  V30 28824 C 2623.79 3.46623 0.0732993 0
M  V30 28825 C 2622.86 4.1906 -0.932068 0
M  V30 28826 C 2622.09 5.32838 -0.303279 0
M  V30 28827 O 2622.31 5.63282 0.898296 0
M  V30 28828 O 2621.25 5.93238 -1.01746 0
M  V30 28829 H 2625.07 2.65665 -1.4716 0
M  V30 28830 H 2622.66 1.27378 -0.780712 0
M  V30 28831 H 2624.54 4.19073 0.442259 0
M  V30 28832 H 2623.21 3.09984 0.932274 0
M  V30 28833 H 2622.12 3.48803 -1.3523 0
M  V30 28834 H 2623.45 4.59625 -1.76084 0
M  V30 28835 N 2625.11 0.787064 1.3654 0
M  V30 28836 C 2626.52 0.468467 1.5257 0
M  V30 28837 C 2626.72 -1.01358 1.74152 0
M  V30 28838 O 2625.78 -1.79912 1.77166 0
M  V30 28839 C 2627.09 1.29686 2.71297 0
M  V30 28840 C 2628.64 1.29032 2.85166 0
M  V30 28841 C 2629.11 2.1024 4.06895 0
M  V30 28842 N 2630.6 2.07673 4.14036 0
M  V30 28843 C 2631.34 2.6728 5.07296 0
M  V30 28844 N 2630.84 3.35735 6.06015 0
M  V30 28845 N 2632.63 2.57026 4.99894 0
M  V30 28846 H 2624.78 1.74714 1.20785 0
M  V30 28847 H 2627.04 0.742543 0.589351 0
M  V30 28848 H 2626.75 2.34777 2.61864 0
M  V30 28849 H 2626.62 0.936543 3.65388 0
M  V30 28850 H 2629.01 0.247336 2.94062 0
M  V30 28851 H 2629.09 1.69038 1.91989 0
M  V30 28852 H 2628.73 3.14567 3.9876 0
M  V30 28853 H 2628.66 1.67605 4.99215 0
M  V30 28854 H 2631.16 1.57849 3.43354 0
M  V30 28855 H 2631.47 3.78553 6.73734 0
M  V30 28856 H 2629.81 3.39837 6.06247 0
M  V30 28857 H 2633 2.03149 4.2172 0
M  V30 28858 H 2633.18 3.03772 5.72387 0
M  V30 28859 N 2626.58 -1.48101 0.53888 0
M  V30 28860 C 2627.81 -2.07397 0.0103059 0
M  V30 28861 C 2628.23 -1.39155 -1.2656 0
M  V30 28862 O 2627.59 -0.460417 -1.75356 0
M  V30 28863 C 2627.64 -3.60112 -0.187539 0
M  V30 28864 O 2626.74 -3.92864 -1.25426 0
M  V30 28865 H 2626.08 -0.662599 0.0431091 0
M  V30 28866 H 2628.61 -1.90384 0.749335 0
M  V30 28867 H 2628.62 -4.0596 -0.407446 0
M  V30 28868 H 2627.3 -4.09183 0.744458 0
M  V30 28869 H 2625.88 -3.58784 -1.0163 0
M  V30 28870 N 2628.06 -0.274434 -1.55192 0
M  V30 28871 C 2629.29 0.345907 -2.03988 0
M  V30 28872 C 2629.7 1.49518 -1.15282 0
M  V30 28873 O 2629.06 1.8168 -0.17279 0
M  V30 28874 C 2629.11 0.827569 -3.519 0
M  V30 28875 O 2628.83 -0.275932 -4.3723 0
M  V30 28876 C 2630.33 1.5158 -4.1658 0
M  V30 28877 H 2627.55 0.0789774 -0.666336 0
M  V30 28878 H 2630.1 -0.40633 -2.00423 0
M  V30 28879 H 2628.25 1.5299 -3.55911 0
M  V30 28880 H 2628.67 0.0942716 -5.24415 0
M  V30 28881 H 2630.14 1.80424 -5.21681 0
M  V30 28882 H 2630.62 2.44709 -3.64711 0
M  V30 28883 H 2631.22 0.857336 -4.16569 0
M  V30 28884 N 2629.54 1.576 -0.00170483 0
M  V30 28885 C 2630.5 2.07475 0.974009 0
M  V30 28886 C 2631.5 0.984466 1.27141 0
M  V30 28887 O 2632.69 1.24706 1.21631 0
M  V30 28888 C 2629.82 2.51763 2.29844 0
M  V30 28889 H 2631.02 2.94951 0.542569 0
M  V30 28890 H 2628.57 1.54355 0.245802 0
M  V30 28891 H 2629.31 1.67534 2.77674 0
M  V30 28892 H 2629.09 3.3139 2.09578 0
M  V30 28893 H 2630.58 2.9067 2.99835 0
M  V30 28894 N 2631.02 -0.271076 1.55251 0
M  V30 28895 C 2631.95 -1.35746 1.84677 0
M  V30 28896 C 2632.96 -1.45446 0.731392 0
M  V30 28897 O 2634.15 -1.47228 1.00926 0
M  V30 28898 C 2631.25 -2.73854 1.99643 0
M  V30 28899 C 2630.42 -2.86721 3.30317 0
M  V30 28900 C 2629.48 -4.05517 3.35325 0
M  V30 28901 O 2628.51 -3.96184 4.08689 0
M  V30 28902 N 2629.71 -5.17573 2.62867 0
M  V30 28903 H 2632.48 -1.10848 2.78447 0
M  V30 28904 H 2630.04 -0.461191 1.55192 0
M  V30 28905 H 2632.03 -3.51621 2.00362 0
M  V30 28906 H 2630.6 -2.91566 1.1273 0
M  V30 28907 H 2629.82 -1.95823 3.42121 0
M  V30 28908 H 2631.11 -2.92251 4.16493 0
M  V30 28909 H 2630.51 -5.28042 2.02948 0
M  V30 28910 H 2629.06 -5.93564 2.69305 0
M  V30 28911 N 2632.5 -1.48217 -0.535675 0
M  V30 28912 C 2633.44 -1.62315 -1.6408 0
M  V30 28913 C 2634.41 -0.465394 -1.59447 0
M  V30 28914 O 2635.6 -0.688167 -1.77958 0
M  V30 28915 C 2632.74 -1.66355 -3.02358 0
M  V30 28916 C 2631.85 -2.93198 -3.17268 0
M  V30 28917 C 2630.99 -2.88435 -4.4607 0
M  V30 28918 C 2630.03 -4.10008 -4.54489 0
M  V30 28919 N 2629.16 -4.03355 -5.74673 0
M  V30 28920 H 2634 -2.56693 -1.5137 0
M  V30 28921 H 2631.54 -1.27303 -0.737037 0
M  V30 28922 H 2633.5 -1.66679 -3.82458 0
M  V30 28923 H 2632.13 -0.754727 -3.13853 0
M  V30 28924 H 2631.18 -3.02645 -2.30457 0
M  V30 28925 H 2632.49 -3.83167 -3.1935 0
M  V30 28926 H 2631.65 -2.87128 -5.34455 0
M  V30 28927 H 2630.38 -1.96185 -4.465 0
M  V30 28928 H 2629.39 -4.11596 -3.64512 0
M  V30 28929 H 2630.61 -5.0341 -4.55801 0
M  V30 28930 H 2628.56 -3.13922 -5.76011 0
M  V30 28931 H 2628.48 -4.87023 -5.78225 0
M  V30 28932 H 2629.75 -4.06099 -6.6536 0
M  V30 28933 N 2633.97 0.784108 -1.3671 0
M  V30 28934 C 2634.92 1.91835 -1.31537 0
M  V30 28935 C 2635.92 1.6814 -0.206235 0
M  V30 28936 O 2637.12 1.76081 -0.37355 0
M  V30 28937 H 2633.5 0.630644 -0.409624 0
M  V30 28938 H 2635.47 1.93316 -2.27313 0
M  V30 28939 C 2634.22 3.28934 -1.12685 0
M  V30 28940 H 2633.54 3.47737 -1.9728 0
M  V30 28941 H 2634.98 4.08634 -1.13113 0
M  V30 28942 C 2633.44 3.3648 0.168221 0
M  V30 28943 O 2633.97 3.84702 1.15619 0
M  V30 28944 N 2632.18 2.89806 0.214711 0
M  V30 28945 H 2631.72 2.50755 -0.589896 0
M  V30 28946 H 2631.68 2.95236 1.08088 0
M  V30 28947 N 2635.45 1.21076 1.00888 0
M  V30 28948 C 2636.36 0.982462 2.13037 0
M  V30 28949 C 2637.38 -0.0641856 1.73882 0
M  V30 28950 O 2638.55 0.124996 2.01012 0
M  V30 28951 C 2635.62 0.545864 3.42376 0
M  V30 28952 C 2634.68 1.66427 3.95728 0
M  V30 28953 C 2633.91 1.24841 5.18893 0
M  V30 28954 O 2634.14 0.120365 5.70273 0
M  V30 28955 O 2633.07 2.05883 5.65593 0
M  V30 28956 H 2636.9 1.92167 2.35171 0
M  V30 28957 H 2634.48 0.995305 1.11418 0
M  V30 28958 H 2636.36 0.311986 4.20244 0
M  V30 28959 H 2635.04 -0.364671 3.21639 0
M  V30 28960 H 2633.95 1.95251 3.19105 0
M  V30 28961 H 2635.28 2.55209 4.20867 0
M  V30 28962 N 2636.93 -1.2032 1.01789 0
M  V30 28963 C 2638.16 -1.94239 0.727043 0
M  V30 28964 C 2638.58 -1.74342 -0.706148 0
M  V30 28965 O 2637.94 -1.03854 -1.48607 0
M  V30 28966 C 2637.99 -3.44371 1.06964 0
M  V30 28967 O 2637.09 -4.11998 0.182055 0
M  V30 28968 H 2636.43 -0.606788 0.269637 0
M  V30 28969 H 2638.96 -1.52714 1.36161 0
M  V30 28970 H 2638.97 -3.94995 1.02189 0
M  V30 28971 H 2637.65 -3.58175 2.11384 0
M  V30 28972 H 2636.22 -3.7179 0.287443 0
M  V30 28973 N 2638.41 -0.794293 -1.3612 0
M  V30 28974 C 2639.37 -0.201929 -2.28309 0
M  V30 28975 C 2640.37 0.603577 -1.49042 0
M  V30 28976 O 2641.56 0.423858 -1.68965 0
M  V30 28977 C 2638.69 0.719919 -3.33212 0
M  V30 28978 H 2639.89 -1.01486 -2.82207 0
M  V30 28979 H 2637.44 -0.564062 -1.45767 0
M  V30 28980 H 2638.17 1.55701 -2.84478 0
M  V30 28981 H 2637.96 0.144197 -3.91835 0
M  V30 28982 H 2639.45 1.12909 -4.02046 0
M  V30 28983 N 2639.89 1.47813 -0.546727 0
M  V30 28984 C 2641.3 1.58268 -0.205745 0
M  V30 28985 C 2641.5 1.54669 1.2915 0
M  V30 28986 O 2640.56 1.44456 2.07096 0
M  V30 28987 C 2641.87 2.89215 -0.823116 0
M  V30 28988 C 2643.42 3.02778 -0.793381 0
M  V30 28989 C 2643.89 4.3641 -1.38963 0
M  V30 28990 N 2645.39 4.43019 -1.35234 0
M  V30 28991 C 2646.12 5.4496 -1.78342 0
M  V30 28992 N 2645.62 6.53768 -2.29257 0
M  V30 28993 N 2647.41 5.35942 -1.69477 0
M  V30 28994 H 2639.56 1.48396 -1.51962 0
M  V30 28995 H 2641.82 0.70562 -0.633091 0
M  V30 28996 H 2641.53 2.97554 -1.87495 0
M  V30 28997 H 2641.4 3.75924 -0.309981 0
M  V30 28998 H 2643.79 2.94041 0.249732 0
M  V30 28999 H 2643.87 2.17637 -1.34416 0
M  V30 29000 H 2643.52 4.45901 -2.43176 0
M  V30 29001 H 2643.45 5.20265 -0.814383 0
M  V30 29002 H 2645.94 3.64977 -0.979804 0
M  V30 29003 H 2646.25 7.27714 -2.60102 0
M  V30 29004 H 2644.59 6.54686 -2.33262 0
M  V30 29005 H 2647.79 4.49835 -1.29485 0
M  V30 29006 H 2647.96 6.15253 -2.03392 0
M  V30 29007 N 2641.36 0.28266 1.55044 0
M  V30 29008 C 2642.3 -0.634886 2.20231 0
M  V30 29009 C 2643.31 -1.1117 1.18933 0
M  V30 29010 O 2644.5 -1.03231 1.45622 0
M  V30 29011 C 2641.6 -1.87894 2.82044 0
M  V30 29012 C 2640.77 -1.54769 4.09103 0
M  V30 29013 C 2639.83 -2.64499 4.54892 0
M  V30 29014 O 2638.86 -2.30366 5.205 0
M  V30 29015 N 2640.06 -3.94701 4.25666 0
M  V30 29016 H 2642.82 -0.0769285 2.99601 0
M  V30 29017 H 2640.38 0.104076 1.61565 0
M  V30 29018 H 2642.38 -2.60613 3.09617 0
M  V30 29019 H 2640.95 -2.34576 2.06623 0
M  V30 29020 H 2640.17 -0.653981 3.88737 0
M  V30 29021 H 2641.45 -1.30149 4.91873 0
M  V30 29022 H 2640.85 -4.2525 3.73067 0
M  V30 29023 H 2639.41 -4.63774 4.57992 0
M  V30 29024 N 2642.84 -1.57597 0.0100627 0
M  V30 29025 C 2643.77 -2.0592 -1.00645 0
M  V30 29026 C 2644.79 -0.978987 -1.30076 0
M  V30 29027 O 2645.98 -1.25558 -1.26875 0
M  V30 29028 C 2643.08 -2.4527 -2.33872 0
M  V30 29029 C 2642.25 -3.76144 -2.23236 0
M  V30 29030 C 2641.31 -4.02251 -3.39235 0
M  V30 29031 O 2640.33 -4.72777 -3.16972 0
M  V30 29032 N 2641.54 -3.50932 -4.62414 0
M  V30 29033 H 2644.3 -2.93749 -0.594281 0
M  V30 29034 H 2641.86 -1.60928 -0.177111 0
M  V30 29035 H 2643.85 -2.59841 -3.10265 0
M  V30 29036 H 2642.42 -1.62907 -2.66796 0
M  V30 29037 H 2641.64 -3.71553 -1.31689 0
M  V30 29038 H 2642.93 -4.61926 -2.13313 0
M  V30 29039 H 2642.33 -2.9384 -4.83399 0
M  V30 29040 H 2640.89 -3.70816 -5.3604 0
M  V30 29041 N 2644.32 0.262839 -1.55393 0
M  V30 29042 C 2645.25 1.32913 -1.9198 0
M  V30 29043 C 2646.23 1.51016 -0.782826 0
M  V30 29044 O 2647.42 1.6389 -1.04181 0
M  V30 29045 C 2644.55 2.68684 -2.2006 0
M  V30 29046 C 2643.5 2.65298 -3.35858 0
M  V30 29047 C 2642.83 4.04715 -3.49442 0
M  V30 29048 C 2644.13 2.23677 -4.71981 0
M  V30 29049 H 2645.82 1.02539 -2.81293 0
M  V30 29050 H 2643.37 0.491823 -1.35341 0
M  V30 29051 H 2645.32 3.43399 -2.44243 0
M  V30 29052 H 2644.04 3.00661 -1.27556 0
M  V30 29053 H 2642.7 1.9304 -3.11659 0
M  V30 29054 H 2642.35 4.33932 -2.54386 0
M  V30 29055 H 2642.05 4.03342 -4.27304 0
M  V30 29056 H 2643.57 4.81155 -3.75929 0
M  V30 29057 H 2644.99 2.88118 -4.95642 0
M  V30 29058 H 2643.39 2.33446 -5.52832 0
M  V30 29059 H 2644.46 1.18819 -4.70117 0
M  V30 29060 N 2645.8 1.48499 0.527807 0
M  V30 29061 C 2646.71 1.6587 1.65905 0
M  V30 29062 C 2647.72 0.541221 1.65369 0
M  V30 29063 O 2648.9 0.812566 1.84281 0
M  V30 29064 C 2645.97 1.69642 3.02361 0
M  V30 29065 C 2645.03 2.93034 3.13735 0
M  V30 29066 C 2644.26 2.96617 4.43683 0
M  V30 29067 O 2644.48 2.08547 5.30909 0
M  V30 29068 O 2643.42 3.8881 4.59468 0
M  V30 29069 H 2647.24 2.6165 1.54186 0
M  V30 29070 H 2644.83 1.31926 0.70114 0
M  V30 29071 H 2646.71 1.74632 3.83512 0
M  V30 29072 H 2645.38 0.770368 3.14399 0
M  V30 29073 H 2644.29 2.93575 2.31871 0
M  V30 29074 H 2645.62 3.85031 3.06614 0
M  V30 29075 N 2647.28 -0.776847 1.37123 0
M  V30 29076 C 2648.69 -1.07669 1.17812 0
M  V30 29077 C 2648.89 -2.01497 0.0107808 0
M  V30 29078 O 2647.95 -2.43971 -0.650714 0
M  V30 29079 C 2649.26 -1.67908 2.49454 0
M  V30 29080 C 2650.81 -1.80191 2.5593 0
M  V30 29081 C 2651.29 -2.43844 3.87691 0
M  V30 29082 N 2652.78 -2.513 3.89105 0
M  V30 29083 C 2653.51 -3.01392 4.87802 0
M  V30 29084 N 2653.01 -3.51695 5.96894 0
M  V30 29085 N 2654.8 -3.00219 4.7521 0
M  V30 29086 H 2646.95 -0.153741 2.11843 0
M  V30 29087 H 2649.21 -0.130828 0.938929 0
M  V30 29088 H 2648.92 -1.06433 3.35209 0
M  V30 29089 H 2648.79 -2.67266 2.66174 0
M  V30 29090 H 2651.18 -2.408 1.70586 0
M  V30 29091 H 2651.26 -0.796027 2.43099 0
M  V30 29092 H 2650.91 -1.83876 4.73447 0
M  V30 29093 H 2650.84 -3.45028 3.97823 0
M  V30 29094 H 2653.33 -2.15695 3.10297 0
M  V30 29095 H 2653.64 -3.88304 6.68162 0
M  V30 29096 H 2651.99 -3.49813 6.00546 0
M  V30 29097 H 2655.18 -2.60217 3.89108 0
M  V30 29098 H 2655.35 -3.38948 5.52285 0
M  V30 29099 N 2648.76 -1.2161 -1.00244 0
M  V30 29100 C 2649.69 -0.935438 -2.09242 0
M  V30 29101 C 2650.7 0.0823308 -1.62592 0
M  V30 29102 O 2651.89 -0.150487 -1.77865 0
M  V30 29103 C 2648.99 -0.383512 -3.36723 0
M  V30 29104 C 2648.16 -1.45623 -4.12447 0
M  V30 29105 C 2647.22 -0.913082 -5.18217 0
M  V30 29106 O 2646.25 -1.59711 -5.46334 0
M  V30 29107 N 2647.45 0.270377 -5.7987 0
M  V30 29108 H 2650.21 -1.87377 -2.33902 0
M  V30 29109 H 2647.78 -1.12169 -1.16746 0
M  V30 29110 H 2649.77 -0.0056927 -4.047 0
M  V30 29111 H 2648.34 0.459704 -3.09201 0
M  V30 29112 H 2647.56 -2.00778 -3.39237 0
M  V30 29113 H 2648.85 -2.17825 -4.59815 0
M  V30 29114 H 2648.24 0.843097 -5.59382 0
M  V30 29115 H 2646.8 0.58968 -6.49127 0
M  V30 29116 N 2650.23 1.19778 -1.02425 0
M  V30 29117 C 2651.18 2.24874 -0.594514 0
M  V30 29118 C 2652.18 1.65297 0.370569 0
M  V30 29119 O 2653.38 1.78397 0.239653 0
M  V30 29120 H 2649.76 0.731599 -0.173974 0
M  V30 29121 H 2651.73 2.58442 -1.49165 0
M  V30 29122 C 2650.48 3.47673 0.0435901 0
M  V30 29123 H 2649.8 3.938 -0.690032 0
M  V30 29124 H 2651.24 4.22885 0.307287 0
M  V30 29125 C 2649.7 3.11276 1.28876 0
M  V30 29126 O 2650.23 3.23508 2.3813 0
M  V30 29127 N 2648.43 2.65752 1.17576 0
M  V30 29128 H 2647.98 2.55999 0.286724 0
M  V30 29129 H 2647.94 2.4177 2.00984 0
M  V30 29130 N 2651.71 0.801501 1.35697 0
M  V30 29131 C 2652.66 0.206335 2.29876 0
M  V30 29132 C 2653.63 -0.656725 1.52566 0
M  V30 29133 O 2654.81 -0.602874 1.81025 0
M  V30 29134 C 2651.95 -0.643212 3.39053 0
M  V30 29135 C 2651.07 0.23972 4.31334 0
M  V30 29136 C 2650.2 -0.617347 5.276 0
M  V30 29137 C 2649.24 0.266298 6.1152 0
M  V30 29138 N 2648.38 -0.550448 6.99939 0
M  V30 29139 H 2653.22 1.01489 2.80186 0
M  V30 29140 H 2650.75 0.512022 1.37901 0
M  V30 29141 H 2652.71 -1.15087 4.01012 0
M  V30 29142 H 2651.34 -1.41708 2.90032 0
M  V30 29143 H 2650.39 0.865446 3.70424 0
M  V30 29144 H 2651.71 0.920071 4.90241 0
M  V30 29145 H 2650.86 -1.19034 5.94908 0
M  V30 29146 H 2649.6 -1.33128 4.69178 0
M  V30 29147 H 2648.6 0.851603 5.43165 0
M  V30 29148 H 2649.83 0.978018 6.72021 0
M  V30 29149 H 2647.78 -1.24845 6.44011 0
M  V30 29150 H 2647.69 0.0719648 7.55966 0
M  V30 29151 H 2648.96 -1.10688 7.71601 0
M  V30 29152 N 2653.19 -1.47521 0.554558 0
M  V30 29153 C 2654.1 -2.33764 -0.197824 0
M  V30 29154 C 2655.12 -1.48027 -0.91455 0
M  V30 29155 O 2656.29 -1.80961 -0.884036 0
M  V30 29156 C 2653.36 -3.24667 -1.21622 0
M  V30 29157 C 2652.42 -4.26293 -0.507208 0
M  V30 29158 C 2651.65 -5.12853 -1.47709 0
M  V30 29159 O 2651.87 -5.01819 -2.71171 0
M  V30 29160 O 2650.81 -5.93484 -1.00303 0
M  V30 29161 H 2654.63 -2.99395 0.509543 0
M  V30 29162 H 2652.22 -1.46037 0.315202 0
M  V30 29163 H 2654.1 -3.80826 -1.80415 0
M  V30 29164 H 2652.78 -2.61668 -1.90556 0
M  V30 29165 H 2651.68 -3.73902 0.121844 0
M  V30 29166 H 2653.02 -4.91999 0.14063 0
M  V30 29167 N 2654.67 -0.290879 -1.54892 0
M  V30 29168 C 2655.6 0.583044 -2.26104 0
M  V30 29169 C 2656.58 1.14617 -1.25686 0
M  V30 29170 O 2657.76 1.17739 -1.54439 0
M  V30 29171 C 2654.89 1.75982 -2.99412 0
M  V30 29172 C 2653.85 1.32751 -4.06892 0
M  V30 29173 C 2653.17 2.58864 -4.67861 0
M  V30 29174 C 2654.47 0.466148 -5.20216 0
M  V30 29175 H 2656.17 -0.0108741 -2.99398 0
M  V30 29176 H 2653.71 -0.00666999 -1.43998 0
M  V30 29177 H 2655.67 2.3772 -3.47947 0
M  V30 29178 H 2654.39 2.37981 -2.23679 0
M  V30 29179 H 2653.05 0.733236 -3.59192 0
M  V30 29180 H 2652.7 3.19156 -3.88778 0
M  V30 29181 H 2652.4 2.30644 -5.40442 0
M  V30 29182 H 2653.92 3.21424 -5.19152 0
M  V30 29183 H 2655.34 0.988948 -5.64706 0
M  V30 29184 H 2653.73 0.278155 -5.99455 0
M  V30 29185 H 2654.8 -0.511257 -4.82197 0
M  V30 29186 N 2656.15 1.57589 -0.0184203 0
M  V30 29187 C 2657.56 1.55983 0.33787 0
M  V30 29188 C 2657.76 1.02297 1.73602 0
M  V30 29189 O 2656.82 0.664938 2.43587 0
M  V30 29190 C 2658.13 3.00059 0.196253 0
M  V30 29191 C 2659.68 3.11835 0.26982 0
M  V30 29192 C 2660.15 4.5773 0.157117 0
M  V30 29193 N 2661.64 4.62703 0.214439 0
M  V30 29194 C 2662.38 5.73202 0.150854 0
M  V30 29195 N 2661.88 6.9279 0.0367994 0
M  V30 29196 N 2663.67 5.61729 0.204063 0
M  V30 29197 H 2655.82 1.9082 -0.932823 0
M  V30 29198 H 2658.08 0.877286 -0.359268 0
M  V30 29199 H 2657.79 3.43247 -0.766444 0
M  V30 29200 H 2657.66 3.64492 0.970844 0
M  V30 29201 H 2660.05 2.68566 1.22297 0
M  V30 29202 H 2660.13 2.50144 -0.534962 0
M  V30 29203 H 2659.77 5.01678 -0.792567 0
M  V30 29204 H 2659.7 5.17389 0.980626 0
M  V30 29205 H 2662.2 3.76682 0.303172 0
M  V30 29206 H 2662.51 7.728 -0.00531905 0
M  V30 29207 H 2660.85 6.95 0.00216644 0
M  V30 29208 H 2664.04 4.67192 0.291492 0
M  V30 29209 H 2664.22 6.47824 0.151046 0
M  V30 29210 N 2657.62 -0.254594 1.5553 0
M  V30 29211 C 2658.85 -1.00569 1.81385 0
M  V30 29212 C 2659.27 -1.7846 0.59445 0
M  V30 29213 O 2658.63 -1.75462 -0.456372 0
M  V30 29214 C 2658.68 -1.92539 3.04895 0
M  V30 29215 O 2657.78 -3.01596 2.81271 0
M  V30 29216 H 2657.12 -0.286576 0.598974 0
M  V30 29217 H 2659.65 -0.277917 2.02704 0
M  V30 29218 H 2659.66 -2.3415 3.34123 0
M  V30 29219 H 2658.34 -1.35263 3.9329 0
M  V30 29220 H 2656.92 -2.64169 2.6319 0
M  V30 29221 N 2659.1 -1.48777 -0.519925 0
M  V30 29222 C 2660.05 -1.64047 -1.6235 0
M  V30 29223 C 2661.02 -0.482279 -1.58944 0
M  V30 29224 O 2662.2 -0.707003 -1.77218 0
M  V30 29225 C 2659.34 -1.69552 -3.00576 0
M  V30 29226 C 2658.46 -2.96547 -3.1414 0
M  V30 29227 C 2657.59 -2.9315 -4.42986 0
M  V30 29228 C 2656.63 -4.14805 -4.50114 0
M  V30 29229 N 2655.77 -4.09428 -5.70363 0
M  V30 29230 H 2660.61 -2.58284 -1.48639 0
M  V30 29231 H 2658.14 -1.28078 -0.723493 0
M  V30 29232 H 2660.1 -1.70726 -3.80668 0
M  V30 29233 H 2658.73 -0.787973 -3.13035 0
M  V30 29234 H 2657.78 -3.05072 -2.27234 0
M  V30 29235 H 2659.1 -3.86533 -3.15268 0
M  V30 29236 H 2658.25 -2.92781 -5.3138 0
M  V30 29237 H 2656.99 -2.0091 -4.44395 0
M  V30 29238 H 2655.99 -4.15439 -3.60126 0
M  V30 29239 H 2657.22 -5.08216 -4.50436 0
M  V30 29240 H 2655.17 -3.20014 -5.72649 0
M  V30 29241 H 2655.08 -4.93129 -5.73027 0
M  V30 29242 H 2656.35 -4.13133 -6.61016 0
M  V30 29243 N 2660.58 0.769564 -1.37534 0
M  V30 29244 C 2661.51 1.8968 -1.36176 0
M  V30 29245 C 2662.49 1.68537 -0.23004 0
M  V30 29246 O 2663.68 1.89363 -0.430723 0
M  V30 29247 C 2660.81 3.26993 -1.17016 0
M  V30 29248 C 2659.76 3.62704 -2.27222 0
M  V30 29249 C 2659.09 4.98582 -1.93183 0
M  V30 29250 C 2660.39 3.69228 -3.69416 0
M  V30 29251 H 2662.08 1.91074 -2.30502 0
M  V30 29252 H 2659.63 0.917882 -1.10955 0
M  V30 29253 H 2661.58 4.05491 -1.14695 0
M  V30 29254 H 2660.3 3.26038 -0.191453 0
M  V30 29255 H 2658.96 2.86515 -2.28702 0
M  V30 29256 H 2658.61 4.9417 -0.938368 0
M  V30 29257 H 2658.31 5.23445 -2.66982 0
M  V30 29258 H 2659.83 5.79477 -1.92453 0
M  V30 29259 H 2661.25 4.37873 -3.70055 0
M  V30 29260 H 2659.64 4.05589 -4.42287 0
M  V30 29261 H 2660.71 2.69837 -4.02885 0
M  V30 29262 N 2662.06 1.22139 0.995977 0
M  V30 29263 C 2663.01 0.956078 2.06986 0
M  V30 29264 C 2663.99 -0.0921293 1.60636 0
M  V30 29265 O 2665.18 0.117989 1.76606 0
M  V30 29266 C 2662.31 0.532395 3.39147 0
M  V30 29267 C 2661.4 1.61516 3.92139 0
M  V30 29268 N 2661.79 2.84221 4.18392 0
M  V30 29269 C 2660.09 1.48613 4.20512 0
M  V30 29270 C 2660.79 3.54214 4.61419 0
M  V30 29271 N 2659.77 2.81677 4.64929 0
M  V30 29272 H 2663.57 1.8882 2.2522 0
M  V30 29273 H 2661.08 1.11847 1.17746 0
M  V30 29274 H 2663.08 0.323647 4.15642 0
M  V30 29275 H 2661.74 -0.392864 3.22315 0
M  V30 29276 H 2662.75 3.20678 4.06677 0
M  V30 29277 H 2659.43 0.626835 4.12768 0
M  V30 29278 H 2660.82 4.59324 4.90379 0
M  V30 29279 N 2663.54 -1.19233 1.03059 0
M  V30 29280 C 2664.45 -2.26178 0.622962 0
M  V30 29281 C 2665.46 -1.70523 -0.346083 0
M  V30 29282 O 2666.64 -2.00369 -0.203537 0
M  V30 29283 C 2663.7 -3.46695 -0.0181454 0
M  V30 29284 C 2662.76 -4.17524 0.998619 0
M  V30 29285 C 2662 -5.32288 0.388011 0
M  V30 29286 O 2662.22 -5.6464 -0.808569 0
M  V30 29287 O 2661.15 -5.91544 1.11171 0
M  V30 29288 H 2664.98 -2.6329 1.51368 0
M  V30 29289 H 2662.57 -1.2612 0.800878 0
M  V30 29290 H 2664.45 -4.19723 -0.375532 0
M  V30 29291 H 2663.12 -3.11428 -0.88284 0
M  V30 29292 H 2662.03 -3.46608 1.40762 0
M  V30 29293 H 2663.36 -4.56766 1.83374 0
M  V30 29294 N 2665.01 -0.808686 -1.3527 0
M  V30 29295 C 2665.95 -0.166034 -2.27595 0
M  V30 29296 C 2666.93 0.669215 -1.4819 0
M  V30 29297 O 2668.11 0.636041 -1.77445 0
M  V30 29298 C 2665.24 0.769447 -3.29844 0
M  V30 29299 C 2664.28 0.0135517 -4.26498 0
M  V30 29300 S 2665.12 -1.32393 -5.18876 0
M  V30 29301 C 2666.27 -0.392948 -6.24665 0
M  V30 29302 H 2666.5 -0.948805 -2.81753 0
M  V30 29303 H 2664.04 -0.603853 -1.42102 0
M  V30 29304 H 2666 1.30367 -3.89249 0
M  V30 29305 H 2664.66 1.52562 -2.74561 0
M  V30 29306 H 2663.85 0.724139 -4.98771 0
M  V30 29307 H 2663.45 -0.450778 -3.71273 0
M  V30 29308 H 2665.74 0.420981 -6.76191 0
M  V30 29309 H 2666.69 -1.08493 -6.99739 0
M  V30 29310 H 2667.09 0.0122916 -5.64499 0
M  V30 29311 N 2666.49 1.47225 -0.562374 0
M  V30 29312 C 2667.4 2.33866 0.185425 0
M  V30 29313 C 2668.42 1.4851 0.906687 0
M  V30 29314 O 2669.59 1.81427 0.874426 0
M  V30 29315 C 2666.66 3.25308 1.19899 0
M  V30 29316 C 2665.72 4.26556 0.484594 0
M  V30 29317 C 2664.95 5.13629 1.44987 0
M  V30 29318 O 2665.18 5.0325 2.68506 0
M  V30 29319 O 2664.11 5.94007 0.971538 0
M  V30 29320 H 2667.94 2.99121 -0.525413 0
M  V30 29321 H 2665.52 1.45868 -0.322942 0
M  V30 29322 H 2667.4 3.81778 1.78393 0
M  V30 29323 H 2666.08 2.62675 1.89165 0
M  V30 29324 H 2664.99 3.73832 -0.141671 0
M  V30 29325 H 2666.32 4.91918 -0.16672 0
M  V30 29326 N 2667.97 0.299089 1.54736 0
M  V30 29327 C 2669.22 -0.310135 1.99706 0
M  V30 29328 C 2669.54 -1.54557 1.18899 0
M  V30 29329 O 2668.81 -1.93823 0.284479 0
M  V30 29330 H 2667.39 -0.117583 0.737688 0
M  V30 29331 H 2670.05 0.409976 1.90539 0
M  V30 29332 H 2669.15 -0.583496 3.06597 0
M  V30 29333 N 2669.45 -1.57577 0.0267774 0
M  V30 29334 C 2670.41 -2.08998 -0.940879 0
M  V30 29335 C 2671.41 -1.00457 -1.25559 0
M  V30 29336 O 2672.6 -1.26625 -1.19632 0
M  V30 29337 C 2669.73 -2.55387 -2.2581 0
M  V30 29338 H 2670.93 -2.95777 -0.495576 0
M  V30 29339 H 2668.48 -1.54727 -0.221214 0
M  V30 29340 H 2669.21 -1.71931 -2.74973 0
M  V30 29341 H 2669 -3.34682 -2.0428 0
M  V30 29342 H 2670.49 -2.95403 -2.95173 0
M  V30 29343 N 2670.93 0.246342 -1.55663 0
M  V30 29344 C 2672.17 0.975747 -1.77784 0
M  V30 29345 C 2672.51 1.84952 -0.592136 0
M  V30 29346 O 2671.78 1.90139 0.409554 0
M  V30 29347 C 2672.06 1.83579 -3.09792 0
M  V30 29348 C 2671.92 0.990164 -4.38766 0
M  V30 29349 C 2673.24 2.81817 -3.38034 0
M  V30 29350 H 2670.35 0.353306 -0.646795 0
M  V30 29351 H 2673 0.246215 -1.88398 0
M  V30 29352 H 2671.15 2.45779 -3.00874 0
M  V30 29353 H 2672.82 0.386816 -4.59675 0
M  V30 29354 H 2671.06 0.29455 -4.32799 0
M  V30 29355 H 2671.73 1.62574 -5.27516 0
M  V30 29356 H 2674.21 2.29754 -3.46919 0
M  V30 29357 H 2673.08 3.39115 -4.31616 0
M  V30 29358 H 2673.35 3.58308 -2.58974 0
M  V30 29359 N 2672.4 1.4905 0.512027 0
M  V30 29360 C 2673.35 1.64905 1.61477 0
M  V30 29361 C 2674.32 0.490701 1.58686 0
M  V30 29362 O 2675.51 0.716391 1.7684 0
M  V30 29363 C 2672.65 1.71144 2.99673 0
M  V30 29364 C 2671.76 2.98209 3.12563 0
M  V30 29365 C 2670.89 2.95495 4.41425 0
M  V30 29366 C 2669.93 4.17187 4.47908 0
M  V30 29367 N 2669.07 4.12447 5.68183 0
M  V30 29368 H 2673.91 2.59069 1.47267 0
M  V30 29369 H 2671.45 1.2846 0.716691 0
M  V30 29370 H 2673.41 1.72742 3.79758 0
M  V30 29371 H 2672.04 0.804563 3.12613 0
M  V30 29372 H 2671.09 3.06273 2.25613 0
M  V30 29373 H 2672.4 3.88199 3.13214 0
M  V30 29374 H 2671.55 2.95595 5.29819 0
M  V30 29375 H 2670.29 2.03264 4.43323 0
M  V30 29376 H 2669.3 4.17343 3.57918 0
M  V30 29377 H 2670.52 5.10598 4.47735 0
M  V30 29378 H 2668.47 3.23046 5.70944 0
M  V30 29379 H 2668.39 4.96161 5.70404 0
M  V30 29380 H 2669.65 4.16633 6.58815 0
M  V30 29381 N 2673.88 -0.762259 1.3794 0
M  V30 29382 C 2675.11 -1.55657 1.37061 0
M  V30 29383 C 2675.53 -1.88058 -0.0395792 0
M  V30 29384 O 2674.89 -1.49935 -1.01927 0
M  V30 29385 C 2674.94 -2.83772 2.22499 0
M  V30 29386 O 2674.04 -3.78556 1.63613 0
M  V30 29387 H 2673.38 -0.471132 0.4679 0
M  V30 29388 H 2675.91 -0.942693 1.81589 0
M  V30 29389 H 2675.92 -3.32782 2.36051 0
M  V30 29390 H 2674.6 -2.59518 3.24997 0
M  V30 29391 H 2673.18 -3.3723 1.59156 0
M  V30 29392 N 2675.36 -1.22666 -0.989486 0
M  V30 29393 C 2676.31 -0.999769 -2.08022 0
M  V30 29394 C 2677.28 0.0796755 -1.65909 0
M  V30 29395 O 2678.46 -0.070605 -1.90669 0
M  V30 29396 C 2675.6 -0.587294 -3.40066 0
M  V30 29397 C 2674.72 -1.73788 -3.95502 0
M  V30 29398 C 2673.85 -1.27306 -5.15719 0
M  V30 29399 C 2672.89 -2.39497 -5.633 0
M  V30 29400 N 2672.03 -1.94038 -6.74754 0
M  V30 29401 H 2676.87 -1.93344 -2.26764 0
M  V30 29402 H 2674.4 -0.963317 -1.11169 0
M  V30 29403 H 2676.36 -0.3293 -4.15898 0
M  V30 29404 H 2674.99 0.30937 -3.21314 0
M  V30 29405 H 2674.04 -2.11011 -3.1651 0
M  V30 29406 H 2675.36 -2.58166 -4.26792 0
M  V30 29407 H 2674.51 -0.972652 -5.98853 0
M  V30 29408 H 2673.25 -0.39953 -4.86061 0
M  V30 29409 H 2672.25 -2.70323 -4.78754 0
M  V30 29410 H 2673.48 -3.27372 -5.94983 0
M  V30 29411 H 2671.42 -1.09052 -6.46872 0
M  V30 29412 H 2671.34 -2.7198 -7.05381 0
M  V30 29413 H 2672.61 -1.67076 -7.61384 0
M  V30 29414 N 2676.84 1.18685 -1.0369 0
M  V30 29415 C 2678.09 1.88571 -0.738063 0
M  V30 29416 C 2678.41 1.80121 0.733941 0
M  V30 29417 O 2677.67 1.19347 1.55096 0
M  V30 29418 C 2677.97 3.38568 -1.14483 0
M  V30 29419 C 2677.63 3.67221 -2.61647 0
M  V30 29420 C 2676.3 3.74751 -3.01852 0
M  V30 29421 C 2678.65 3.79907 -3.56819 0
M  V30 29422 C 2675.98 3.92443 -4.36125 0
M  V30 29423 C 2678.33 3.99114 -4.90806 0
M  V30 29424 C 2676.99 4.04879 -5.30688 0
M  V30 29425 H 2676.26 0.690029 -0.270076 0
M  V30 29426 H 2678.91 1.405 -1.30123 0
M  V30 29427 H 2677.21 3.88591 -0.500406 0
M  V30 29428 H 2678.91 3.90976 -0.891019 0
M  V30 29429 H 2675.5 3.61975 -2.29504 0
M  V30 29430 H 2679.69 3.73426 -3.26905 0
M  V30 29431 H 2674.94 3.95148 -4.66549 0
M  V30 29432 H 2679.12 4.07872 -5.64458 0
M  V30 29433 H 2676.74 4.1834 -6.34741 0
M  V30 29434 N 2678.32 0.815849 1.34839 0
M  V30 29435 C 2679.26 0.230705 2.29644 0
M  V30 29436 C 2680.23 -0.640506 1.53254 0
M  V30 29437 O 2681.42 -0.58364 1.81654 0
M  V30 29438 C 2678.56 -0.607215 3.39716 0
M  V30 29439 C 2677.67 0.285455 4.31056 0
M  V30 29440 C 2676.81 -0.561353 5.28226 0
M  V30 29441 C 2675.85 0.331143 6.11204 0
M  V30 29442 N 2674.98 -0.476179 7.00483 0
M  V30 29443 H 2679.82 1.04455 2.79094 0
M  V30 29444 H 2677.36 0.526619 1.3735 0
M  V30 29445 H 2679.32 -1.10828 4.0221 0
M  V30 29446 H 2677.95 -1.38624 2.91519 0
M  V30 29447 H 2677 0.904686 3.69486 0
M  V30 29448 H 2678.31 0.972016 4.89237 0
M  V30 29449 H 2677.47 -1.12718 5.96137 0
M  V30 29450 H 2676.21 -1.28145 4.70564 0
M  V30 29451 H 2675.21 0.909165 5.42231 0
M  V30 29452 H 2676.44 1.04924 6.70945 0
M  V30 29453 H 2674.38 -1.18008 6.45299 0
M  V30 29454 H 2674.3 0.152141 7.55847 0
M  V30 29455 H 2675.57 -1.02498 7.72732 0
M  V30 29456 N 2679.8 -1.46924 0.570174 0
M  V30 29457 C 2681.02 -2.07329 0.0542956 0
M  V30 29458 C 2681.45 -1.41809 -1.2358 0
M  V30 29459 O 2680.8 -0.49751 -1.7434 0
M  V30 29460 C 2680.85 -3.60429 -0.111112 0
M  V30 29461 O 2679.96 -3.95436 -1.17064 0
M  V30 29462 H 2679.3 -0.661536 0.0571541 0
M  V30 29463 H 2681.83 -1.88752 0.789549 0
M  V30 29464 H 2681.84 -4.06733 -0.321244 0
M  V30 29465 H 2680.51 -4.07512 0.831084 0
M  V30 29466 H 2679.09 -3.60859 -0.939966 0
M  V30 29467 N 2681.27 -0.307291 -1.54575 0
M  V30 29468 C 2682.5 0.302561 -2.04676 0
M  V30 29469 C 2682.92 1.47039 -1.18427 0
M  V30 29470 O 2682.27 1.81273 -0.211289 0
M  V30 29471 C 2682.32 0.752739 -3.53576 0
M  V30 29472 O 2682.05 -0.368613 -4.36547 0
M  V30 29473 C 2683.55 1.42709 -4.19701 0
M  V30 29474 H 2680.77 0.0648257 -0.667861 0
M  V30 29475 H 2683.31 -0.448751 -1.99516 0
M  V30 29476 H 2681.47 1.45406 -3.59076 0
M  V30 29477 H 2681.88 -0.0169859 -5.24497 0
M  V30 29478 H 2683.35 1.69318 -5.25391 0
M  V30 29479 H 2683.83 2.36918 -3.69819 0
M  V30 29480 H 2684.44 0.768782 -4.18294 0
M  V30 29481 N 2682.75 1.57561 -0.0351337 0
M  V30 29482 C 2684 1.91224 0.64157 0
M  V30 29483 C 2684.31 0.913791 1.72943 0
M  V30 29484 O 2685.52 1.14189 2.46319 0
M  V30 29485 C 2683.98 3.39572 1.19243 0
M  V30 29486 C 2683.58 4.47789 0.137538 0
M  V30 29487 C 2685.33 3.82294 1.8453 0
M  V30 29488 C 2683.23 5.87238 0.700375 0
M  V30 29489 H 2682.16 0.713632 0.243405 0
M  V30 29490 H 2684.82 1.8322 -0.101414 0
M  V30 29491 H 2683.2 3.42528 1.98722 0
M  V30 29492 H 2684.37 4.56401 -0.635233 0
M  V30 29493 H 2682.69 4.14307 -0.416928 0
M  V30 29494 H 2685.28 4.83838 2.27607 0
M  V30 29495 H 2685.63 3.17677 2.69048 0
M  V30 29496 H 2686.16 3.81786 1.11732 0
M  V30 29497 H 2682.9 6.55413 -0.106808 0
M  V30 29498 H 2682.42 5.82221 1.4415 0
M  V30 29499 H 2684.1 6.35995 1.18826 0
M  V30 29500 N 2684.23 -0.238084 1.55791 0
M  V30 29501 C 2685.19 -1.27832 1.90241 0
M  V30 29502 C 2686.19 -1.40639 0.779577 0
M  V30 29503 O 2687.38 -1.39188 1.04749 0
M  V30 29504 C 2684.51 -2.65471 2.13864 0
M  V30 29505 H 2685.71 -0.984984 2.83263 0
M  V30 29506 H 2683.26 -0.477772 1.48819 0
M  V30 29507 H 2684 -2.9993 1.23339 0
M  V30 29508 H 2683.78 -2.57555 2.95648 0
M  V30 29509 H 2685.27 -3.40566 2.4167 0
M  V30 29510 N 2685.71 -1.4932 -0.504115 0
M  V30 29511 C 2686.67 -1.65247 -1.58827 0
M  V30 29512 C 2687.67 -0.524412 -1.52008 0
M  V30 29513 O 2688.86 -0.790797 -1.55216 0
M  V30 29514 C 2685.99 -1.64692 -2.98478 0
M  V30 29515 H 2687.19 -2.61942 -1.46036 0
M  V30 29516 H 2684.74 -1.38304 -0.72812 0
M  V30 29517 H 2685.47 -0.695699 -3.1675 0
M  V30 29518 H 2685.26 -2.46612 -3.04836 0
M  V30 29519 H 2686.75 -1.79082 -3.77252 0
M  V30 29520 N 2687.19 0.754933 -1.38342 0
M  V30 29521 C 2688.12 1.88225 -1.3818 0
M  V30 29522 C 2689.1 1.68284 -0.247902 0
M  V30 29523 O 2690.28 1.88896 -0.450784 0
M  V30 29524 C 2687.41 3.25734 -1.20477 0
M  V30 29525 C 2686.37 3.60274 -2.31056 0
M  V30 29526 C 2685.69 4.96505 -1.9846 0
M  V30 29527 C 2686.99 3.65289 -3.73312 0
M  V30 29528 H 2688.69 1.88618 -2.32516 0
M  V30 29529 H 2686.23 0.906062 -1.11922 0
M  V30 29530 H 2688.18 4.04252 -1.18989 0
M  V30 29531 H 2686.91 3.25817 -0.226023 0
M  V30 29532 H 2685.57 2.84074 -2.31728 0
M  V30 29533 H 2685.22 4.93147 -0.990728 0
M  V30 29534 H 2684.92 5.20584 -2.72519 0
M  V30 29535 H 2686.44 5.77404 -1.98588 0
M  V30 29536 H 2687.85 4.33923 -3.74678 0
M  V30 29537 H 2686.25 4.00875 -4.46564 0
M  V30 29538 H 2687.32 2.65549 -4.05724 0
M  V30 29539 N 2688.66 1.23189 0.982967 0
M  V30 29540 C 2689.57 1.02743 2.10905 0
M  V30 29541 C 2690.59 -0.0272883 1.73979 0
M  V30 29542 O 2691.77 0.167605 2.00701 0
M  V30 29543 C 2688.83 0.618364 3.41141 0
M  V30 29544 C 2687.89 1.74784 3.92109 0
M  V30 29545 C 2687.12 1.35819 5.16129 0
M  V30 29546 O 2687.35 0.241301 5.69889 0
M  V30 29547 O 2686.28 2.17834 5.61099 0
M  V30 29548 H 2690.11 1.97112 2.31042 0
M  V30 29549 H 2687.69 1.01871 1.09282 0
M  V30 29550 H 2689.57 0.401056 4.19487 0
M  V30 29551 H 2688.25 -0.296364 3.2234 0
M  V30 29552 H 2687.16 2.01976 3.14891 0
M  V30 29553 H 2688.49 2.64079 4.15359 0
M  V30 29554 N 2690.14 -1.18133 1.04318 0
M  V30 29555 C 2691.1 -2.20059 0.640833 0
M  V30 29556 C 2692.1 -1.57918 -0.303096 0
M  V30 29557 O 2693.29 -1.73977 -0.0881549 0
M  V30 29558 C 2690.43 -3.40847 -0.0600881 0
M  V30 29559 H 2691.62 -2.57169 1.54285 0
M  V30 29560 H 2689.17 -1.32062 0.836027 0
M  V30 29561 H 2689.91 -3.09271 -0.975791 0
M  V30 29562 H 2689.69 -3.87193 0.618387 0
M  V30 29563 H 2691.18 -4.1631 -0.328009 0
M  V30 29564 N 2691.62 -0.822988 -1.34405 0
M  V30 29565 C 2692.57 -0.24288 -2.29518 0
M  V30 29566 C 2693.54 0.63237 -1.53591 0
M  V30 29567 O 2694.72 0.573998 -1.81961 0
M  V30 29568 C 2691.86 0.589191 -3.40033 0
M  V30 29569 C 2690.98 -0.308311 -4.30898 0
M  V30 29570 C 2690.11 0.533332 -5.28516 0
M  V30 29571 C 2689.15 -0.363551 -6.11019 0
M  V30 29572 N 2688.29 0.439024 -7.00726 0
M  V30 29573 H 2693.13 -1.05933 -2.78536 0
M  V30 29574 H 2690.66 -0.533896 -1.37069 0
M  V30 29575 H 2692.62 1.08693 -4.02792 0
M  V30 29576 H 2691.25 1.37076 -2.9225 0
M  V30 29577 H 2690.3 -0.924268 -3.69001 0
M  V30 29578 H 2691.62 -0.997948 -4.88715 0
M  V30 29579 H 2690.77 1.09555 -5.96727 0
M  V30 29580 H 2689.51 1.25647 -4.71237 0
M  V30 29581 H 2688.51 -0.937908 -5.41741 0
M  V30 29582 H 2689.74 -1.08481 -6.7038 0
M  V30 29583 H 2687.68 1.14584 -6.45915 0
M  V30 29584 H 2687.6 -0.192223 -7.55756 0
M  V30 29585 H 2688.87 0.983988 -7.73264 0
M  V30 29586 N 2693.1 1.4662 -0.577957 0
M  V30 29587 C 2694.35 2.01612 -0.0594635 0
M  V30 29588 C 2694.66 1.45558 1.3066 0
M  V30 29589 O 2695.87 1.92341 1.91618 0
M  V30 29590 C 2694.32 3.59857 -0.0557298 0
M  V30 29591 C 2693.93 4.24906 -1.41982 0
M  V30 29592 C 2695.67 4.22524 0.409069 0
M  V30 29593 C 2693.58 5.75216 -1.37407 0
M  V30 29594 H 2692.51 0.753774 -0.0184602 0
M  V30 29595 H 2695.16 1.68402 -0.728898 0
M  V30 29596 H 2693.54 3.90122 0.679774 0
M  V30 29597 H 2694.72 4.06256 -2.17468 0
M  V30 29598 H 2693.03 3.74313 -1.82425 0
M  V30 29599 H 2695.63 5.327 0.462017 0
M  V30 29600 H 2695.97 3.9113 1.42559 0
M  V30 29601 H 2696.51 3.96867 -0.272222 0
M  V30 29602 H 2693.25 6.11262 -2.36724 0
M  V30 29603 H 2692.77 5.96143 -0.661344 0
M  V30 29604 H 2694.44 6.37838 -1.08495 0
M  V30 29605 N 2694.58 0.315484 1.5441 0
M  V30 29606 C 2695.54 -0.541381 2.22714 0
M  V30 29607 C 2696.54 -1.04993 1.21792 0
M  V30 29608 O 2697.73 -0.943641 1.46428 0
M  V30 29609 C 2694.86 -1.75111 2.92488 0
M  V30 29610 H 2696.05 0.0556036 2.99848 0
M  V30 29611 H 2693.61 0.0664727 1.56159 0
M  V30 29612 H 2694.34 -2.38754 2.1947 0
M  V30 29613 H 2694.13 -1.39395 3.66485 0
M  V30 29614 H 2695.62 -2.35953 3.44552 0
M  V30 29615 N 2696.05 -1.5754 0.0434891 0
M  V30 29616 C 2696.99 -2.08009 -0.96255 0
M  V30 29617 C 2698 -1.00636 -1.2797 0
M  V30 29618 O 2699.19 -1.28221 -1.24183 0
M  V30 29619 C 2696.29 -2.50175 -2.28617 0
M  V30 29620 C 2695.46 -3.80795 -2.15207 0
M  V30 29621 C 2694.52 -4.09357 -3.30626 0
M  V30 29622 O 2693.55 -4.79394 -3.06872 0
M  V30 29623 N 2694.75 -3.60662 -4.54866 0
M  V30 29624 H 2697.51 -2.94943 -0.531839 0
M  V30 29625 H 2695.07 -1.61268 -0.142936 0
M  V30 29626 H 2697.07 -2.66364 -3.04684 0
M  V30 29627 H 2695.64 -1.6853 -2.6328 0
M  V30 29628 H 2694.86 -3.74263 -1.23778 0
M  V30 29629 H 2696.14 -4.66346 -2.03466 0
M  V30 29630 H 2695.54 -3.04028 -4.77057 0
M  V30 29631 H 2694.1 -3.82103 -5.28053 0
M  V30 29632 N 2697.53 0.229818 -1.55915 0
M  V30 29633 C 2698.46 1.28811 -1.94756 0
M  V30 29634 C 2699.44 1.49322 -0.814683 0
M  V30 29635 O 2700.63 1.61644 -1.07634 0
M  V30 29636 C 2697.76 2.63955 -2.2571 0
M  V30 29637 C 2696.71 2.58114 -3.4141 0
M  V30 29638 C 2696.04 3.97212 -3.57948 0
M  V30 29639 C 2697.34 2.13615 -4.76619 0
M  V30 29640 H 2699.03 0.965497 -2.83405 0
M  V30 29641 H 2696.58 0.463004 -1.36353 0
M  V30 29642 H 2698.53 3.38141 -2.51472 0
M  V30 29643 H 2697.26 2.97888 -1.33905 0
M  V30 29644 H 2695.91 1.86386 -3.15683 0
M  V30 29645 H 2695.56 4.28438 -2.63534 0
M  V30 29646 H 2695.26 3.94188 -4.35764 0
M  V30 29647 H 2696.79 4.73072 -3.8605 0
M  V30 29648 H 2698.2 2.7754 -5.01642 0
M  V30 29649 H 2696.6 2.21667 -5.57659 0
M  V30 29650 H 2697.67 1.0882 -4.72532 0
M  V30 29651 N 2699.01 1.49585 0.49619 0
M  V30 29652 C 2699.92 1.69352 1.62349 0
M  V30 29653 C 2700.94 0.576176 1.64183 0
M  V30 29654 O 2702.11 0.851472 1.82516 0
M  V30 29655 C 2699.18 1.76018 2.98695 0
M  V30 29656 C 2698.24 2.99623 3.07449 0
M  V30 29657 C 2697.47 3.05961 4.37291 0
M  V30 29658 O 2697.69 2.19762 5.26366 0
M  V30 29659 O 2696.63 3.98468 4.51117 0
M  V30 29660 H 2700.45 2.64861 1.48601 0
M  V30 29661 H 2698.04 1.33383 0.672999 0
M  V30 29662 H 2699.92 1.82728 3.79722 0
M  V30 29663 H 2698.6 0.836883 3.12695 0
M  V30 29664 H 2697.5 2.98428 2.25592 0
M  V30 29665 H 2698.84 3.91448 2.98378 0
M  V30 29666 N 2700.49 -0.747586 1.3874 0
M  V30 29667 C 2701.4 -1.89208 1.38699 0
M  V30 29668 C 2702.41 -1.71678 0.283333 0
M  V30 29669 O 2703.59 -1.94498 0.522748 0
M  V30 29670 C 2700.66 -3.24651 1.21667 0
M  V30 29671 C 2699.72 -3.54664 2.41892 0
M  V30 29672 C 2698.95 -4.83644 2.25663 0
M  V30 29673 O 2699.17 -5.56457 1.25348 0
M  V30 29674 O 2698.11 -5.13272 3.14381 0
M  V30 29675 H 2701.93 -1.92198 2.35146 0
M  V30 29676 H 2699.52 -0.893687 1.19723 0
M  V30 29677 H 2701.4 -4.05616 1.14253 0
M  V30 29678 H 2700.07 -3.2246 0.283081 0
M  V30 29679 H 2698.98 -2.73836 2.54882 0
M  V30 29680 H 2700.31 -3.61622 3.33902 0
M  V30 29681 N 2701.97 -1.23709 -0.97642 0
M  V30 29682 C 2702.9 -0.979611 -2.07211 0
M  V30 29683 C 2703.91 0.0478242 -1.6273 0
M  V30 29684 O 2705.1 -0.188181 -1.77505 0
M  V30 29685 C 2702.2 -0.454849 -3.35834 0
M  V30 29686 C 2701.37 -1.54338 -4.09266 0
M  V30 29687 C 2700.43 -1.0228 -5.16164 0
M  V30 29688 O 2699.46 -1.71263 -5.42824 0
M  V30 29689 N 2700.66 0.147317 -5.80313 0
M  V30 29690 H 2703.43 -1.92296 -2.29875 0
M  V30 29691 H 2700.99 -1.1462 -1.14341 0
M  V30 29692 H 2702.98 -0.0915342 -4.04596 0
M  V30 29693 H 2701.55 0.394014 -3.10107 0
M  V30 29694 H 2700.77 -2.07929 -3.34902 0
M  V30 29695 H 2702.06 -2.2753 -4.55091 0
M  V30 29696 H 2701.45 0.724254 -5.61045 0
M  V30 29697 H 2700.01 0.451858 -6.50232 0
M  V30 29698 N 2703.44 1.17579 -1.04943 0
M  V30 29699 C 2704.69 1.88055 -0.759145 0
M  V30 29700 C 2705.02 1.80682 0.711887 0
M  V30 29701 O 2704.3 1.2131 1.52033 0
M  V30 29702 C 2704.58 3.38185 -1.23706 0
M  V30 29703 C 2704.43 3.54322 -2.77084 0
M  V30 29704 C 2705.75 4.32124 -0.83409 0
M  V30 29705 H 2702.87 0.682863 -0.277249 0
M  V30 29706 H 2705.51 1.38284 -1.30298 0
M  V30 29707 H 2703.66 3.80704 -0.774404 0
M  V30 29708 H 2705.34 3.20836 -3.31455 0
M  V30 29709 H 2703.58 2.96684 -3.16482 0
M  V30 29710 H 2704.25 4.59698 -3.05585 0
M  V30 29711 H 2706.73 3.97432 -1.23235 0
M  V30 29712 H 2705.6 5.35709 -1.19613 0
M  V30 29713 H 2705.86 4.41322 0.262117 0
M  V30 29714 N 2704.92 0.830104 1.33967 0
M  V30 29715 C 2705.83 0.259248 2.33163 0
M  V30 29716 C 2706.85 -0.610135 1.62952 0
M  V30 29717 O 2708.02 -0.516335 1.94669 0
M  V30 29718 C 2705.09 -0.563537 3.42089 0
M  V30 29719 C 2704.15 0.329089 4.28037 0
M  V30 29720 C 2703.38 -0.454522 5.31761 0
M  V30 29721 O 2703.61 -1.68711 5.44879 0
M  V30 29722 O 2702.54 0.1669 6.01669 0
M  V30 29723 H 2706.37 1.08046 2.83831 0
M  V30 29724 H 2703.95 0.592414 1.37153 0
M  V30 29725 H 2705.83 -1.0314 4.08583 0
M  V30 29726 H 2704.51 -1.36196 2.93654 0
M  V30 29727 H 2703.42 0.844602 3.64441 0
M  V30 29728 H 2704.75 1.09205 4.79932 0
M  V30 29729 N 2706.4 -1.46311 0.585725 0
M  V30 29730 C 2707.33 -2.28463 -0.183647 0
M  V30 29731 C 2708.35 -1.38688 -0.852615 0
M  V30 29732 O 2709.54 -1.63261 -0.721672 0
M  V30 29733 C 2706.64 -3.1381 -1.27971 0
M  V30 29734 C 2705.81 -4.31728 -0.702088 0
M  V30 29735 C 2704.87 -4.9845 -1.68624 0
M  V30 29736 O 2703.89 -5.55947 -1.22111 0
M  V30 29737 N 2705.1 -4.95735 -3.02039 0
M  V30 29738 H 2707.86 -2.95134 0.521178 0
M  V30 29739 H 2705.42 -1.56257 0.423701 0
M  V30 29740 H 2707.41 -3.55311 -1.93743 0
M  V30 29741 H 2705.98 -2.49194 -1.88736 0
M  V30 29742 H 2705.2 -3.93975 0.13317 0
M  V30 29743 H 2706.49 -5.07938 -0.296012 0
M  V30 29744 H 2705.89 -4.50272 -3.42449 0
M  V30 29745 H 2704.45 -5.41167 -3.63292 0
M  V30 29746 N 2707.88 -0.323668 -1.54241 0
M  V30 29747 C 2708.79 0.551165 -2.28034 0
M  V30 29748 C 2709.81 1.12911 -1.3239 0
M  V30 29749 O 2710.98 1.14905 -1.65405 0
M  V30 29750 C 2708.05 1.696 -3.02385 0
M  V30 29751 C 2707.11 1.14986 -4.13614 0
M  V30 29752 C 2706.34 2.24013 -4.84411 0
M  V30 29753 O 2706.56 3.4436 -4.54722 0
M  V30 29754 O 2705.5 1.89426 -5.71315 0
M  V30 29755 H 2709.32 -0.0481193 -3.03662 0
M  V30 29756 H 2706.91 -0.0893551 -1.49133 0
M  V30 29757 H 2708.79 2.36252 -3.48945 0
M  V30 29758 H 2707.47 2.28147 -2.29632 0
M  V30 29759 H 2706.37 0.448419 -3.71403 0
M  V30 29760 H 2707.71 0.609522 -4.88411 0
M  V30 29761 N 2709.36 1.57515 -0.0518432 0
M  V30 29762 C 2710.32 2.10468 0.90751 0
M  V30 29763 C 2711.32 1.02442 1.23945 0
M  V30 29764 O 2712.51 1.28512 1.17602 0
M  V30 29765 C 2709.64 2.58948 2.21718 0
M  V30 29766 H 2710.84 2.96528 0.448457 0
M  V30 29767 H 2708.39 1.55059 0.19657 0
M  V30 29768 H 2709.12 1.76283 2.72203 0
M  V30 29769 H 2708.91 3.3789 1.98929 0
M  V30 29770 H 2710.4 3.00061 2.90436 0
M  V30 29771 N 2710.84 -0.221546 1.56035 0
M  V30 29772 C 2712.25 -0.571245 1.49027 0
M  V30 29773 C 2712.45 -1.87144 0.746944 0
M  V30 29774 O 2711.51 -2.50868 0.28661 0
M  V30 29775 C 2712.82 -0.65047 2.9358 0
M  V30 29776 C 2714.37 -0.741097 3.041 0
M  V30 29777 C 2714.84 -0.851668 4.50012 0
M  V30 29778 N 2716.33 -0.915888 4.54055 0
M  V30 29779 C 2717.07 -1.02115 5.64234 0
M  V30 29780 N 2716.57 -1.09036 6.84166 0
M  V30 29781 N 2718.36 -1.05629 5.52086 0
M  V30 29782 H 2710.51 0.631656 2.0279 0
M  V30 29783 H 2712.77 0.221618 0.921732 0
M  V30 29784 H 2712.48 0.235314 3.50912 0
M  V30 29785 H 2712.35 -1.51407 3.45479 0
M  V30 29786 H 2714.74 -1.61732 2.46833 0
M  V30 29787 H 2714.82 0.148173 2.5537 0
M  V30 29788 H 2714.46 0.020101 5.07896 0
M  V30 29789 H 2714.39 -1.75635 4.96447 0
M  V30 29790 H 2716.89 -0.872717 3.67685 0
M  V30 29791 H 2717.2 -1.17046 7.63885 0
M  V30 29792 H 2715.54 -1.0595 6.86877 0
M  V30 29793 H 2718.73 -0.998873 4.57318 0
M  V30 29794 H 2718.91 -1.13487 6.37985 0
M  V30 29795 N 2712.31 -1.49846 -0.48825 0
M  V30 29796 C 2713.22 -1.7021 -1.61448 0
M  V30 29797 C 2714.24 -0.584875 -1.63876 0
M  V30 29798 O 2715.42 -0.861139 -1.82061 0
M  V30 29799 C 2712.48 -1.77599 -2.97757 0
M  V30 29800 C 2711.54 -3.01249 -3.05856 0
M  V30 29801 C 2710.77 -3.08276 -4.35662 0
M  V30 29802 O 2711 -2.2255 -5.25193 0
M  V30 29803 O 2709.93 -4.00855 -4.48998 0
M  V30 29804 H 2713.76 -2.65645 -1.47194 0
M  V30 29805 H 2711.34 -1.33738 -0.665916 0
M  V30 29806 H 2713.22 -1.84739 -3.78747 0
M  V30 29807 H 2711.9 -0.853454 -3.12246 0
M  V30 29808 H 2710.81 -2.9962 -2.24006 0
M  V30 29809 H 2712.14 -3.93025 -2.96298 0
M  V30 29810 N 2713.79 0.740218 -1.39135 0
M  V30 29811 C 2714.74 1.85417 -1.37437 0
M  V30 29812 C 2715.71 1.64431 -0.234851 0
M  V30 29813 O 2716.89 1.85911 -0.429158 0
M  V30 29814 C 2714.03 3.22873 -1.2185 0
M  V30 29815 C 2713.15 3.55599 -2.45302 0
M  V30 29816 C 2712.28 4.82428 -2.22343 0
M  V30 29817 C 2711.32 5.07982 -3.41497 0
M  V30 29818 N 2710.46 6.26012 -3.17888 0
M  V30 29819 H 2715.3 1.86203 -2.32664 0
M  V30 29820 H 2712.83 0.909926 -1.1558 0
M  V30 29821 H 2714.79 4.02211 -1.10825 0
M  V30 29822 H 2713.42 3.21379 -0.302557 0
M  V30 29823 H 2712.47 2.71002 -2.6695 0
M  V30 29824 H 2713.79 3.70404 -3.34069 0
M  V30 29825 H 2712.94 5.69737 -2.0853 0
M  V30 29826 H 2711.68 4.69787 -1.30962 0
M  V30 29827 H 2710.68 4.19138 -3.55814 0
M  V30 29828 H 2711.91 5.22512 -4.33772 0
M  V30 29829 H 2709.86 6.14669 -2.29167 0
M  V30 29830 H 2709.77 6.4138 -4.00209 0
M  V30 29831 H 2711.04 7.16174 -3.07758 0
M  V30 29832 N 2715.27 1.24225 0.969846 0
M  V30 29833 C 2716.2 0.990586 2.06688 0
M  V30 29834 C 2717.21 -0.0391936 1.62753 0
M  V30 29835 O 2718.4 0.197592 1.77403 0
M  V30 29836 C 2715.5 0.472653 3.35588 0
M  V30 29837 C 2714.68 1.56507 4.08441 0
M  V30 29838 C 2713.74 1.05016 5.15614 0
M  V30 29839 O 2712.76 1.7414 5.41908 0
M  V30 29840 N 2713.96 -0.116539 5.80383 0
M  V30 29841 H 2716.73 1.93512 2.28852 0
M  V30 29842 H 2714.29 1.15225 1.13731 0
M  V30 29843 H 2716.28 0.11299 4.04542 0
M  V30 29844 H 2714.85 -0.377563 3.10311 0
M  V30 29845 H 2714.07 2.09702 3.33795 0
M  V30 29846 H 2715.36 2.2994 4.53878 0
M  V30 29847 H 2714.76 -0.69449 5.61421 0
M  V30 29848 H 2713.31 -0.417368 6.50462 0
M  V30 29849 N 2716.75 -1.1702 1.05565 0
M  V30 29850 C 2717.71 -2.19367 0.664137 0
M  V30 29851 C 2718.71 -1.5823 -0.28633 0
M  V30 29852 O 2719.9 -1.74061 -0.0696974 0
M  V30 29853 C 2717.03 -3.40892 -0.0239333 0
M  V30 29854 H 2718.23 -2.55518 1.57004 0
M  V30 29855 H 2715.78 -1.31168 0.849987 0
M  V30 29856 H 2716.51 -3.10289 -0.942934 0
M  V30 29857 H 2716.3 -3.86515 0.659419 0
M  V30 29858 H 2717.79 -4.16634 -0.283835 0
M  V30 29859 N 2718.23 -0.837197 -1.33524 0
M  V30 29860 C 2719.19 -0.274461 -2.27551 0
M  V30 29861 C 2720.19 0.555855 -1.50887 0
M  V30 29862 O 2721.38 0.369888 -1.70228 0
M  V30 29863 C 2718.51 0.613546 -3.35333 0
M  V30 29864 H 2719.7 -1.10413 -2.78835 0
M  V30 29865 H 2717.26 -0.610151 -1.43899 0
M  V30 29866 H 2717.99 1.46572 -2.89288 0
M  V30 29867 H 2717.78 0.0194652 -3.92095 0
M  V30 29868 H 2719.27 1.00061 -4.05435 0
M  V30 29869 N 2719.7 1.45999 -0.593476 0
M  V30 29870 C 2720.93 2.06708 -0.0891297 0
M  V30 29871 C 2721.35 1.44048 1.22048 0
M  V30 29872 O 2720.7 0.549581 1.74028 0
M  V30 29873 C 2720.75 3.61428 0.0719628 0
M  V30 29874 O 2720.48 4.21746 -1.18582 0
M  V30 29875 C 2721.98 4.39091 0.60941 0
M  V30 29876 H 2719.2 0.668095 -0.0623745 0
M  V30 29877 H 2721.74 1.87462 -0.817204 0
M  V30 29878 H 2719.9 3.80065 0.750302 0
M  V30 29879 H 2720.31 5.14752 -1.00649 0
M  V30 29880 H 2721.78 5.47903 0.671267 0
M  V30 29881 H 2722.26 4.07884 1.62871 0
M  V30 29882 H 2722.87 4.25286 -0.0344148 0
M  V30 29883 N 2721.18 0.331843 1.54067 0
M  V30 29884 C 2722.13 -0.530332 2.24624 0
M  V30 29885 C 2723.1 -1.10501 1.24011 0
M  V30 29886 O 2724.28 -1.14381 1.52714 0
M  V30 29887 C 2721.42 -1.68124 3.01377 0
M  V30 29888 C 2720.54 -1.135 4.16823 0
M  V30 29889 C 2719.67 -2.25226 4.81089 0
M  V30 29890 C 2718.71 -1.67893 5.88624 0
M  V30 29891 N 2717.85 -2.73315 6.46717 0
M  V30 29892 H 2722.69 0.077913 2.97898 0
M  V30 29893 H 2720.23 0.0502224 1.47014 0
M  V30 29894 H 2722.18 -2.35862 3.44129 0
M  V30 29895 H 2720.81 -2.26065 2.30423 0
M  V30 29896 H 2719.87 -0.348913 3.78796 0
M  V30 29897 H 2721.18 -0.675546 4.94204 0
M  V30 29898 H 2720.33 -3.00852 5.26852 0
M  V30 29899 H 2719.07 -2.74511 4.03107 0
M  V30 29900 H 2718.08 -0.907678 5.42256 0
M  V30 29901 H 2719.3 -1.19475 6.68508 0
M  V30 29902 H 2717.25 -3.21876 5.71605 0
M  V30 29903 H 2717.16 -2.31957 7.19536 0
M  V30 29904 H 2718.43 -3.48745 6.97135 0
M  V30 29905 N 2722.66 -1.57485 0.0601958 0
M  V30 29906 C 2723.89 -1.97778 -0.624381 0
M  V30 29907 C 2724.31 -0.937896 -1.63049 0
M  V30 29908 O 2723.67 0.0978527 -1.81036 0
M  V30 29909 C 2723.72 -3.37128 -1.27973 0
M  V30 29910 O 2722.82 -3.35692 -2.3955 0
M  V30 29911 H 2722.16 -0.644043 -0.16157 0
M  V30 29912 H 2724.69 -2.04178 0.131272 0
M  V30 29913 H 2724.7 -3.74056 -1.6293 0
M  V30 29914 H 2723.38 -4.12348 -0.542428 0
M  V30 29915 H 2721.95 -3.10521 -2.06473 0
M  V30 29916 N 2724.14 0.213268 -1.5615 0
M  V30 29917 C 2725.07 1.26738 -1.96111 0
M  V30 29918 C 2726.05 1.48449 -0.830475 0
M  V30 29919 O 2727.23 1.60493 -1.09342 0
M  V30 29920 C 2724.36 2.61547 -2.28497 0
M  V30 29921 C 2723.32 2.54479 -3.44129 0
M  V30 29922 C 2722.64 3.93393 -3.62141 0
M  V30 29923 C 2723.94 2.08548 -4.78858 0
M  V30 29924 H 2725.64 0.935384 -2.84413 0
M  V30 29925 H 2723.18 0.448516 -1.36837 0
M  V30 29926 H 2725.14 3.35455 -2.55045 0
M  V30 29927 H 2723.86 2.96451 -1.37057 0
M  V30 29928 H 2722.52 1.83027 -3.17642 0
M  V30 29929 H 2722.17 4.25619 -2.68063 0
M  V30 29930 H 2721.87 3.89544 -4.3992 0
M  V30 29931 H 2723.39 4.68951 -3.91046 0
M  V30 29932 H 2724.81 2.72204 -5.04557 0
M  V30 29933 H 2723.2 2.1574 -5.59979 0
M  V30 29934 H 2724.27 1.03802 -4.73659 0
M  V30 29935 N 2725.62 1.50103 0.480296 0
M  V30 29936 C 2726.56 1.68293 1.57943 0
M  V30 29937 C 2727.53 0.524251 1.5761 0
M  V30 29938 O 2728.72 0.75374 1.75281 0
M  V30 29939 C 2725.86 1.77462 2.95975 0
M  V30 29940 C 2724.97 3.04771 3.06167 0
M  V30 29941 C 2724.11 3.04792 4.35058 0
M  V30 29942 C 2723.15 4.26593 4.38958 0
M  V30 29943 N 2722.28 4.24406 5.59307 0
M  V30 29944 H 2727.12 2.62134 1.41738 0
M  V30 29945 H 2724.66 1.29951 0.689281 0
M  V30 29946 H 2726.62 1.80759 3.76008 0
M  V30 29947 H 2725.25 0.870691 3.10836 0
M  V30 29948 H 2724.3 3.10989 2.19066 0
M  V30 29949 H 2725.61 3.94756 3.04909 0
M  V30 29950 H 2724.77 3.06767 5.2343 0
M  V30 29951 H 2723.5 2.12622 4.38912 0
M  V30 29952 H 2722.51 4.24841 3.48985 0
M  V30 29953 H 2723.73 5.1998 4.36804 0
M  V30 29954 H 2721.68 3.35084 5.63963 0
M  V30 29955 H 2721.6 5.08148 5.59751 0
M  V30 29956 H 2722.87 4.30513 6.4983 0
M  V30 29957 N 2727.09 -0.732829 1.39526 0
M  V30 29958 C 2728.03 -1.85716 1.34322 0
M  V30 29959 C 2729.04 -1.60844 0.251604 0
M  V30 29960 O 2730.23 -1.71038 0.510715 0
M  V30 29961 C 2727.33 -3.21784 1.0634 0
M  V30 29962 C 2726.5 -3.73994 2.2682 0
M  V30 29963 C 2725.56 -4.8863 1.95261 0
M  V30 29964 O 2724.59 -5.02178 2.67966 0
M  V30 29965 N 2725.79 -5.73162 0.920085 0
M  V30 29966 H 2728.55 -1.90684 2.31214 0
M  V30 29967 H 2726.11 -0.913657 1.33656 0
M  V30 29968 H 2728.11 -3.96046 0.832432 0
M  V30 29969 H 2726.68 -3.12071 0.181737 0
M  V30 29970 H 2725.9 -2.91059 2.65854 0
M  V30 29971 H 2727.18 -4.0561 3.07177 0
M  V30 29972 H 2726.58 -5.64808 0.317586 0
M  V30 29973 H 2725.14 -6.47482 0.749019 0
M  V30 29974 N 2728.57 -1.24737 -0.963244 0
M  V30 29975 C 2729.52 -1.04367 -2.05855 0
M  V30 29976 C 2730.49 0.0444659 -1.6604 0
M  V30 29977 O 2731.67 -0.111033 -1.90477 0
M  V30 29978 C 2728.81 -0.659295 -3.38744 0
M  V30 29979 C 2727.93 -1.82138 -3.91727 0
M  V30 29980 C 2727.06 -1.38217 -5.12903 0
M  V30 29981 C 2726.1 -2.51392 -5.58094 0
M  V30 29982 N 2725.24 -2.08307 -6.70487 0
M  V30 29983 H 2730.08 -1.9811 -2.22612 0
M  V30 29984 H 2727.62 -0.986681 -1.09101 0
M  V30 29985 H 2729.57 -0.417444 -4.15106 0
M  V30 29986 H 2728.2 0.241145 -3.21898 0
M  V30 29987 H 2727.26 -2.17677 -3.11963 0
M  V30 29988 H 2728.57 -2.67161 -4.2122 0
M  V30 29989 H 2727.72 -1.09946 -5.96655 0
M  V30 29990 H 2726.46 -0.502541 -4.85104 0
M  V30 29991 H 2725.47 -2.80418 -4.72912 0
M  V30 29992 H 2726.69 -3.39919 -5.87905 0
M  V30 29993 H 2724.64 -1.22749 -6.44414 0
M  V30 29994 H 2724.55 -2.86881 -6.99453 0
M  V30 29995 H 2725.82 -1.83188 -7.57669 0
M  V30 29996 N 2730.05 1.16459 -1.06184 0
M  V30 29997 C 2731.33 1.82973 -0.691396 0
M  V30 29998 C 2731.71 1.94212 0.827343 0
M  V30 29999 O 2731.06 1.48437 1.7372 0
M  V30 30000 C 2731.27 3.20036 -1.39205 0
M  V30 30001 C 2732.61 3.95823 -1.53654 0
M  V30 30002 O 2733.64 3.2955 -1.35187 0
M  V30 30003 O 2732.5 5.14614 -1.83941 0
M  V30 30004 H 2729.59 0.789994 -0.244618 0
M  V30 30005 H 2732.14 1.23671 -1.16205 0
M  V30 30006 H 2730.91 3.06884 -2.42772 0
M  V30 30007 H 2730.53 3.87013 -0.911403 0
M  V30 30008 N 2731.53 0.844266 1.33079 0
M  V30 30009 C 2732.48 0.279364 2.29103 0
M  V30 30010 C 2733.45 -0.607855 1.54578 0
M  V30 30011 O 2734.63 -0.544977 1.82851 0
M  V30 30012 C 2731.77 -0.53502 3.40927 0
M  V30 30013 C 2730.88 0.376825 4.30353 0
M  V30 30014 C 2730.02 -0.449183 5.29297 0
M  V30 30015 C 2729.06 0.460713 6.10364 0
M  V30 30016 N 2728.19 -0.327489 7.01336 0
M  V30 30017 H 2733.03 1.10351 2.76815 0
M  V30 30018 H 2730.57 0.555635 1.36202 0
M  V30 30019 H 2732.53 -1.02271 4.04471 0
M  V30 30020 H 2731.16 -1.32409 2.94394 0
M  V30 30021 H 2730.21 0.982856 3.67483 0
M  V30 30022 H 2731.52 1.07557 4.87066 0
M  V30 30023 H 2730.68 -1.00048 5.98394 0
M  V30 30024 H 2729.42 -1.18134 4.73176 0
M  V30 30025 H 2728.42 1.02398 5.4018 0
M  V30 30026 H 2729.65 1.19132 6.68569 0
M  V30 30027 H 2727.59 -1.04293 6.47656 0
M  V30 30028 H 2727.51 0.312433 7.55354 0
M  V30 30029 H 2728.78 -0.860844 7.74732 0
M  V30 30030 N 2733.01 -1.45682 0.60121 0
M  V30 30031 C 2733.95 -2.30481 -0.121356 0
M  V30 30032 C 2734.92 -1.41725 -0.866207 0
M  V30 30033 O 2736.11 -1.7066 -0.85321 0
M  V30 30034 C 2733.25 -3.26523 -1.11698 0
M  V30 30035 C 2732.36 -4.30381 -0.373665 0
M  V30 30036 C 2731.5 -5.13536 -1.35845 0
M  V30 30037 C 2730.54 -6.09127 -0.602582 0
M  V30 30038 N 2729.67 -6.85085 -1.53633 0
M  V30 30039 H 2734.51 -2.91736 0.607783 0
M  V30 30040 H 2732.05 -1.43763 0.311527 0
M  V30 30041 H 2734.01 -3.80667 -1.70729 0
M  V30 30042 H 2732.64 -2.67036 -1.81361 0
M  V30 30043 H 2731.69 -3.78948 0.332028 0
M  V30 30044 H 2733 -4.9833 0.216388 0
M  V30 30045 H 2732.16 -5.72049 -2.02101 0
M  V30 30046 H 2730.89 -4.45591 -1.98243 0
M  V30 30047 H 2729.9 -5.49751 0.0736448 0
M  V30 30048 H 2731.12 -6.79098 0.016266 0
M  V30 30049 H 2729.07 -6.19833 -2.14808 0
M  V30 30050 H 2728.99 -7.49363 -0.999557 0
M  V30 30051 H 2730.26 -7.48143 -2.18867 0
M  V30 30052 N 2734.48 -0.340009 -1.53889 0
M  V30 30053 C 2735.41 0.510816 -2.27844 0
M  V30 30054 C 2736.4 1.1056 -1.29269 0
M  V30 30055 O 2737.58 1.12766 -1.58106 0
M  V30 30056 C 2734.71 1.66367 -3.0486 0
M  V30 30057 C 2733.66 1.19739 -4.10909 0
M  V30 30058 C 2732.99 2.43848 -4.75859 0
M  V30 30059 C 2734.29 0.30041 -5.21435 0
M  V30 30060 H 2735.98 -0.10612 -2.99212 0
M  V30 30061 H 2733.53 -0.0524786 -1.43904 0
M  V30 30062 H 2735.48 2.26531 -3.55333 0
M  V30 30063 H 2734.21 2.30745 -2.31137 0
M  V30 30064 H 2732.87 0.618591 -3.61343 0
M  V30 30065 H 2732.51 3.06626 -3.98735 0
M  V30 30066 H 2732.21 2.13333 -5.47506 0
M  V30 30067 H 2733.74 3.04744 -5.29115 0
M  V30 30068 H 2735.15 0.80879 -5.67566 0
M  V30 30069 H 2733.55 0.0873021 -6.00036 0
M  V30 30070 H 2734.62 -0.664406 -4.80327 0
M  V30 30071 N 2735.96 1.57451 -0.0685468 0
M  V30 30072 C 2736.91 2.12537 0.899824 0
M  V30 30073 C 2737.88 1.03705 1.29748 0
M  V30 30074 O 2739.07 1.3135 1.3839 0
M  V30 30075 C 2736.21 2.68884 2.16323 0
M  V30 30076 C 2735.32 3.9186 1.8185 0
M  V30 30077 C 2734.45 4.36462 3.02778 0
M  V30 30078 C 2733.49 5.52094 2.64307 0
M  V30 30079 N 2732.63 5.91669 3.77984 0
M  V30 30080 H 2737.47 2.9498 0.423191 0
M  V30 30081 H 2735.01 1.45772 0.197242 0
M  V30 30082 H 2736.96 2.9966 2.90275 0
M  V30 30083 H 2735.59 1.89211 2.61532 0
M  V30 30084 H 2734.65 3.67567 0.979743 0
M  V30 30085 H 2735.96 4.75855 1.49545 0
M  V30 30086 H 2735.11 4.68882 3.85012 0
M  V30 30087 H 2733.85 3.51314 3.38275 0
M  V30 30088 H 2732.86 5.19329 1.80494 0
M  V30 30089 H 2734.08 6.38971 2.29984 0
M  V30 30090 H 2732.03 5.09472 4.13249 0
M  V30 30091 H 2731.94 6.70396 3.49435 0
M  V30 30092 H 2733.21 6.28711 4.60807 0
M  V30 30093 N 2737.44 -0.204984 1.56261 0
M  V30 30094 C 2738.35 -1.27473 1.96946 0
M  V30 30095 C 2739.37 -1.5036 0.875662 0
M  V30 30096 O 2740.54 -1.63167 1.18061 0
M  V30 30097 C 2737.61 -2.60111 2.29223 0
M  V30 30098 C 2736.67 -2.45381 3.52259 0
M  V30 30099 C 2735.9 -3.71694 3.82987 0
M  V30 30100 O 2736.13 -4.75436 3.15146 0
M  V30 30101 O 2735.06 -3.67815 4.76441 0
M  V30 30102 H 2738.89 -0.959477 2.88145 0
M  V30 30103 H 2736.47 -0.409192 1.43687 0
M  V30 30104 H 2738.35 -3.38415 2.51104 0
M  V30 30105 H 2737.03 -2.91283 1.41195 0
M  V30 30106 H 2735.93 -1.65221 3.35638 0
M  V30 30107 H 2737.27 -2.19144 4.40723 0
M  V30 30108 N 2738.92 -1.50356 -0.472329 0
M  V30 30109 C 2740.17 -1.60524 -1.22127 0
M  V30 30110 C 2740.48 -0.3105 -1.9312 0
M  V30 30111 O 2741.69 -0.291076 -2.69935 0
M  V30 30112 C 2740.14 -2.83349 -2.21904 0
M  V30 30113 C 2739.75 -4.19694 -1.5672 0
M  V30 30114 C 2741.5 -3.02862 -2.97448 0
M  V30 30115 C 2739.4 -5.33707 -2.54775 0
M  V30 30116 H 2738.33 -0.597784 -0.459533 0
M  V30 30117 H 2740.98 -1.76784 -0.491891 0
M  V30 30118 H 2739.37 -2.60645 -2.98128 0
M  V30 30119 H 2740.54 -4.52648 -0.862928 0
M  V30 30120 H 2738.85 -4.05776 -0.934613 0
M  V30 30121 H 2741.45 -3.85212 -3.70831 0
M  V30 30122 H 2741.79 -2.14541 -3.56761 0
M  V30 30123 H 2742.33 -3.25741 -2.28336 0
M  V30 30124 H 2739.07 -6.24179 -2.00203 0
M  V30 30125 H 2738.59 -5.05173 -3.23358 0
M  V30 30126 H 2740.27 -5.64229 -3.16629 0
M  V30 30127 N 2740.4 0.725419 -1.39912 0
M  V30 30128 C 2741.33 1.85252 -1.42141 0
M  V30 30129 C 2742.31 1.6772 -0.283542 0
M  V30 30130 O 2743.49 1.87897 -0.49075 0
M  V30 30131 C 2740.62 3.23105 -1.27359 0
M  V30 30132 C 2739.58 3.55291 -2.38646 0
M  V30 30133 C 2738.9 4.92184 -2.08947 0
M  V30 30134 C 2740.2 3.57288 -3.80976 0
M  V30 30135 H 2741.9 1.83644 -2.36464 0
M  V30 30136 H 2739.44 0.882118 -1.13819 0
M  V30 30137 H 2741.4 4.01637 -1.27537 0
M  V30 30138 H 2740.12 3.25264 -0.295083 0
M  V30 30139 H 2738.78 2.79094 -2.37701 0
M  V30 30140 H 2738.43 4.90934 -1.09511 0
M  V30 30141 H 2738.13 5.14686 -2.835 0
M  V30 30142 H 2739.65 5.73061 -2.10791 0
M  V30 30143 H 2741.07 4.25878 -3.83798 0
M  V30 30144 H 2739.46 3.91312 -4.54967 0
M  V30 30145 H 2740.53 2.56883 -4.11265 0
M  V30 30146 N 2741.88 1.25246 0.956615 0
M  V30 30147 C 2742.81 1.07935 2.07056 0
M  V30 30148 C 2743.79 -0.0110062 1.70096 0
M  V30 30149 O 2744.97 0.158155 1.93555 0
M  V30 30150 C 2742.1 0.695184 3.40271 0
M  V30 30151 C 2741.06 1.73555 3.91232 0
M  V30 30152 C 2740.38 1.20613 5.20919 0
M  V30 30153 C 2741.68 3.13392 4.17831 0
M  V30 30154 H 2743.38 2.01113 2.21797 0
M  V30 30155 H 2740.92 0.968345 1.06579 0
M  V30 30156 H 2742.87 0.561023 4.17649 0
M  V30 30157 H 2741.6 -0.272298 3.25463 0
M  V30 30158 H 2740.26 1.85812 3.16021 0
M  V30 30159 H 2739.91 0.228934 5.02479 0
M  V30 30160 H 2739.61 1.90146 5.55984 0
M  V30 30161 H 2741.13 1.08432 6.00895 0
M  V30 30162 H 2742.54 3.043 4.85875 0
M  V30 30163 H 2740.94 3.80377 4.64148 0
M  V30 30164 H 2742.01 3.60601 3.24183 0
M  V30 30165 N 2743.35 -1.15894 1.068 0
M  V30 30166 C 2744.29 -2.20045 0.641302 0
M  V30 30167 C 2745.3 -1.59949 -0.303327 0
M  V30 30168 O 2746.49 -1.78255 -0.0935164 0
M  V30 30169 C 2743.59 -3.38807 -0.0793433 0
M  V30 30170 C 2742.76 -4.28455 0.880062 0
M  V30 30171 C 2741.82 -5.25828 0.19773 0
M  V30 30172 O 2740.85 -5.63012 0.837012 0
M  V30 30173 N 2742.05 -5.70763 -1.05876 0
M  V30 30174 H 2744.81 -2.57273 1.53723 0
M  V30 30175 H 2742.37 -1.30954 0.951974 0
M  V30 30176 H 2744.37 -4.00995 -0.546348 0
M  V30 30177 H 2742.94 -3.00042 -0.877141 0
M  V30 30178 H 2742.16 -3.63452 1.52632 0
M  V30 30179 H 2743.44 -4.85228 1.53073 0
M  V30 30180 H 2742.84 -5.42655 -1.59818 0
M  V30 30181 H 2741.4 -6.35018 -1.46954 0
M  V30 30182 N 2744.83 -0.851312 -1.32629 0
M  V30 30183 C 2746.08 -0.453729 -1.97659 0
M  V30 30184 C 2746.41 0.987366 -1.67227 0
M  V30 30185 O 2745.69 1.6923 -0.958722 0
M  V30 30186 C 2745.97 -0.689422 -3.53439 0
M  V30 30187 C 2745.82 -2.17869 -3.93514 0
M  V30 30188 C 2747.14 -0.143633 -4.39866 0
M  V30 30189 H 2744.26 -0.166327 -0.717986 0
M  V30 30190 H 2746.9 -1.06912 -1.57066 0
M  V30 30191 H 2745.05 -0.165615 -3.88147 0
M  V30 30192 H 2746.72 -2.76832 -3.69001 0
M  V30 30193 H 2744.97 -2.65847 -3.42794 0
M  V30 30194 H 2745.64 -2.29431 -5.02061 0
M  V30 30195 H 2748.11 -0.591523 -4.11874 0
M  V30 30196 H 2746.99 -0.33814 -5.47857 0
M  V30 30197 H 2747.25 0.95339 -4.31698 0
M  V30 30198 N 2746.31 1.45361 -0.608928 0
M  V30 30199 C 2747.22 2.34338 0.110928 0
M  V30 30200 C 2748.24 1.51319 0.858981 0
M  V30 30201 O 2749.41 1.84117 0.816264 0
M  V30 30202 C 2746.48 3.28958 1.09488 0
M  V30 30203 C 2745.54 4.27882 0.348643 0
M  V30 30204 C 2744.77 5.17981 1.28573 0
M  V30 30205 O 2744.99 5.11538 2.5236 0
M  V30 30206 O 2743.93 5.96798 0.782067 0
M  V30 30207 H 2747.75 2.97298 -0.62031 0
M  V30 30208 H 2745.34 1.44767 -0.369185 0
M  V30 30209 H 2747.22 3.8726 1.66156 0
M  V30 30210 H 2745.9 2.6856 1.80713 0
M  V30 30211 H 2744.8 3.73192 -0.260531 0
M  V30 30212 H 2746.14 4.91138 -0.323135 0
M  V30 30213 N 2747.79 0.348166 1.53706 0
M  V30 30214 C 2749.06 -0.302441 1.93248 0
M  V30 30215 C 2749.44 -1.67855 1.28015 0
M  V30 30216 O 2748.79 -2.24364 0.432779 0
M  V30 30217 C 2749 -0.370098 3.47032 0
M  V30 30218 C 2750.35 -0.618746 4.20067 0
M  V30 30219 O 2751.37 -0.452025 3.5332 0
M  V30 30220 O 2750.23 -0.942056 5.38319 0
M  V30 30221 H 2747.33 -0.177444 0.807739 0
M  V30 30222 H 2749.87 0.399679 1.64926 0
M  V30 30223 H 2748.65 0.595408 3.86744 0
M  V30 30224 H 2748.27 -1.11882 3.81534 0
M  V30 30225 N 2749.27 -1.57412 0.0768958 0
M  V30 30226 C 2750.18 -2.16518 -0.903169 0
M  V30 30227 C 2751.19 -1.12971 -1.32339 0
M  V30 30228 O 2752.37 -1.4526 -1.39504 0
M  V30 30229 C 2749.43 -2.71926 -2.15075 0
M  V30 30230 C 2748.49 -3.90364 -1.78646 0
M  V30 30231 C 2747.73 -4.4312 -2.97457 0
M  V30 30232 O 2747.95 -3.94862 -4.11632 0
M  V30 30233 O 2746.88 -5.34385 -2.76977 0
M  V30 30234 H 2750.71 -3.00635 -0.430374 0
M  V30 30235 H 2748.29 -1.4868 -0.146459 0
M  V30 30236 H 2750.18 -3.07416 -2.88224 0
M  V30 30237 H 2748.85 -1.90865 -2.61443 0
M  V30 30238 H 2747.76 -3.59717 -1.02733 0
M  V30 30239 H 2749.09 -4.72733 -1.37057 0
M  V30 30240 N 2750.74 0.196695 -1.56368 0
M  V30 30241 C 2752.16 0.547464 -1.49917 0
M  V30 30242 C 2752.36 1.85932 -0.776623 0
M  V30 30243 O 2751.42 2.5038 -0.326484 0
M  V30 30244 C 2752.73 0.603682 -2.94578 0
M  V30 30245 C 2754.28 0.692624 -3.0524 0
M  V30 30246 C 2754.75 0.779967 -4.5131 0
M  V30 30247 N 2756.24 0.843536 -4.55454 0
M  V30 30248 C 2756.98 0.931259 -5.65787 0
M  V30 30249 N 2756.47 0.981382 -6.85814 0
M  V30 30250 N 2758.27 0.968323 -5.53697 0
M  V30 30251 H 2750.42 -0.663838 -2.0176 0
M  V30 30252 H 2752.68 -0.236254 -0.918089 0
M  V30 30253 H 2752.39 -0.291111 -3.50493 0
M  V30 30254 H 2752.26 1.45892 -3.47844 0
M  V30 30255 H 2754.65 1.57785 -2.49375 0
M  V30 30256 H 2754.73 -0.188781 -2.55102 0
M  V30 30257 H 2754.37 -0.1009 -5.078 0
M  V30 30258 H 2754.3 1.67715 -4.99179 0
M  V30 30259 H 2756.79 0.814111 -3.69027 0
M  V30 30260 H 2757.11 1.04879 -7.6565 0
M  V30 30261 H 2755.45 0.950087 -6.88475 0
M  V30 30262 H 2758.64 0.925991 -4.5885 0
M  V30 30263 H 2758.82 1.03323 -6.3971 0
M  V30 30264 N 2752.22 1.50604 0.464349 0
M  V30 30265 C 2753.17 1.69959 1.56149 0
M  V30 30266 C 2754.14 0.540938 1.57045 0
M  V30 30267 O 2755.32 0.772289 1.74472 0
M  V30 30268 C 2752.46 1.80591 2.94076 0
M  V30 30269 C 2751.58 3.08002 3.02917 0
M  V30 30270 C 2750.71 3.09389 4.31801 0
M  V30 30271 C 2749.75 4.31225 4.34409 0
M  V30 30272 N 2748.89 4.30314 5.54774 0
M  V30 30273 H 2753.73 2.63623 1.3895 0
M  V30 30274 H 2751.27 1.30675 0.675459 0
M  V30 30275 H 2753.22 1.84737 3.7407 0
M  V30 30276 H 2751.85 0.903611 3.09895 0
M  V30 30277 H 2750.91 3.13295 2.15755 0
M  V30 30278 H 2752.22 3.97968 3.00705 0
M  V30 30279 H 2751.37 3.12301 5.20147 0
M  V30 30280 H 2750.11 2.17265 4.36632 0
M  V30 30281 H 2749.12 4.28518 3.44459 0
M  V30 30282 H 2750.34 5.24584 4.31264 0
M  V30 30283 H 2748.29 3.41047 5.60378 0
M  V30 30284 H 2748.2 5.14056 5.5433 0
M  V30 30285 H 2749.47 4.37381 6.45227 0
M  V30 30286 N 2753.7 -0.717989 1.40295 0
M  V30 30287 C 2754.63 -1.84153 1.3477 0
M  V30 30288 C 2755.61 -1.61125 0.218484 0
M  V30 30289 O 2756.8 -1.84169 0.401748 0
M  V30 30290 C 2753.92 -3.20449 1.09682 0
M  V30 30291 C 2752.97 -3.62308 2.25023 0
M  V30 30292 S 2753.8 -3.69701 3.87404 0
M  V30 30293 C 2754.96 -5.0876 3.64574 0
M  V30 30294 H 2755.19 -1.88558 2.29854 0
M  V30 30295 H 2752.72 -0.884532 1.26552 0
M  V30 30296 H 2754.68 -3.99143 0.95892 0
M  V30 30297 H 2753.34 -3.13679 0.162557 0
M  V30 30298 H 2752.54 -4.61264 2.03105 0
M  V30 30299 H 2752.14 -2.90865 2.35104 0
M  V30 30300 H 2754.43 -5.95606 3.22893 0
M  V30 30301 H 2755.37 -5.35712 4.63053 0
M  V30 30302 H 2755.78 -4.7924 2.98311 0
M  V30 30303 N 2755.18 -1.25752 -0.94996 0
M  V30 30304 C 2756.14 -1.06618 -2.02892 0
M  V30 30305 C 2757.14 -0.0174188 -1.60791 0
M  V30 30306 O 2758.33 -0.260033 -1.72248 0
M  V30 30307 C 2755.46 -0.61981 -3.35218 0
M  V30 30308 H 2756.66 -2.02403 -2.21298 0
M  V30 30309 H 2754.21 -1.08225 -1.1277 0
M  V30 30310 H 2754.94 0.340429 -3.22508 0
M  V30 30311 H 2754.73 -1.37698 -3.67126 0
M  V30 30312 H 2756.22 -0.507516 -4.14505 0
M  V30 30313 N 2756.66 1.15326 -1.07413 0
M  V30 30314 C 2757.57 2.2371 -0.706477 0
M  V30 30315 C 2758.58 1.7169 0.282556 0
M  V30 30316 O 2759.76 2.00986 0.129031 0
M  V30 30317 C 2756.82 3.46524 -0.110541 0
M  V30 30318 C 2755.88 4.1353 -1.15289 0
M  V30 30319 C 2755.12 5.30481 -0.585299 0
M  V30 30320 O 2755.34 5.67252 0.598449 0
M  V30 30321 O 2754.27 5.87011 -1.33049 0
M  V30 30322 H 2758.1 2.5749 -1.61035 0
M  V30 30323 H 2755.69 1.23061 -0.847135 0
M  V30 30324 H 2757.57 4.20828 0.219496 0
M  V30 30325 H 2756.24 3.1449 0.766648 0
M  V30 30326 H 2755.15 3.41144 -1.53529 0
M  V30 30327 H 2756.48 4.49645 -2.002 0
M  V30 30328 N 2758.13 0.858334 1.32176 0
M  V30 30329 C 2759.07 0.262875 2.27688 0
M  V30 30330 C 2760.08 -0.567487 1.52589 0
M  V30 30331 O 2761.27 -0.391377 1.74157 0
M  V30 30332 C 2758.37 -0.646879 3.32669 0
M  V30 30333 C 2757.54 0.148449 4.37148 0
M  V30 30334 C 2756.6 -0.687637 5.21688 0
M  V30 30335 O 2755.63 -0.119834 5.69074 0
M  V30 30336 N 2756.83 -2.00172 5.44896 0
M  V30 30337 H 2759.59 1.08361 2.79424 0
M  V30 30338 H 2757.15 0.718673 1.45075 0
M  V30 30339 H 2759.15 -1.21164 3.86137 0
M  V30 30340 H 2757.72 -1.36829 2.81063 0
M  V30 30341 H 2756.94 0.894639 3.83914 0
M  V30 30342 H 2758.22 0.694603 5.04036 0
M  V30 30343 H 2757.62 -2.48632 5.08133 0
M  V30 30344 H 2756.18 -2.51452 6.01344 0
M  V30 30345 N 2759.61 -1.45036 0.616628 0
M  V30 30346 C 2760.84 -2.0624 0.121827 0
M  V30 30347 C 2761.25 -1.4604 -1.20287 0
M  V30 30348 O 2760.59 -0.572273 -1.74559 0
M  V30 30349 C 2760.66 -3.59405 -0.0826713 0
M  V30 30350 C 2760.32 -4.4199 1.16161 0
M  V30 30351 C 2761.32 -4.76395 2.08191 0
M  V30 30352 C 2759 -4.82599 1.39297 0
M  V30 30353 C 2761 -5.50275 3.21678 0
M  V30 30354 C 2758.68 -5.5623 2.53083 0
M  V30 30355 C 2759.68 -5.89986 3.44101 0
M  V30 30356 O 2759.37 -6.62122 4.55906 0
M  V30 30357 H 2759.1 -0.672347 0.0701785 0
M  V30 30358 H 2761.65 -1.87127 0.84691 0
M  V30 30359 H 2759.88 -3.76953 -0.862746 0
M  V30 30360 H 2761.57 -4.02422 -0.530202 0
M  V30 30361 H 2762.34 -4.45573 1.91546 0
M  V30 30362 H 2758.22 -4.55754 0.693476 0
M  V30 30363 H 2761.76 -5.7654 3.92743 0
M  V30 30364 H 2757.66 -5.86468 2.69678 0
M  V30 30365 H 2758.43 -6.80579 4.54702 0
M  V30 30366 N 2761.09 -0.356312 -1.53519 0
M  V30 30367 C 2762.04 0.49453 -2.2544 0
M  V30 30368 C 2763.01 1.08514 -1.25753 0
M  V30 30369 O 2764.19 1.11937 -1.54515 0
M  V30 30370 C 2761.33 1.63308 -3.04014 0
M  V30 30371 C 2760.45 1.06854 -4.18576 0
M  V30 30372 C 2759.58 2.17544 -4.84611 0
M  V30 30373 C 2758.62 1.58507 -5.91221 0
M  V30 30374 N 2757.76 2.62991 -6.50984 0
M  V30 30375 H 2762.6 -0.125296 -2.97736 0
M  V30 30376 H 2760.13 -0.0736047 -1.46916 0
M  V30 30377 H 2762.09 2.30357 -3.47838 0
M  V30 30378 H 2760.72 2.2237 -2.3399 0
M  V30 30379 H 2759.77 0.288605 -3.79304 0
M  V30 30380 H 2761.09 0.596837 -4.95216 0
M  V30 30381 H 2760.24 2.92433 -5.31571 0
M  V30 30382 H 2758.98 2.68063 -4.07423 0
M  V30 30383 H 2757.98 0.821295 -5.43631 0
M  V30 30384 H 2759.21 1.08824 -6.70324 0
M  V30 30385 H 2757.15 3.12741 -5.76653 0
M  V30 30386 H 2757.07 2.20481 -7.23135 0
M  V30 30387 H 2758.34 3.3761 -7.02595 0
M  V30 30388 N 2762.57 1.57369 -0.0852427 0
M  V30 30389 C 2763.48 2.16994 0.891674 0
M  V30 30390 C 2764.49 1.13671 1.31738 0
M  V30 30391 O 2765.67 1.45998 1.38732 0
M  V30 30392 C 2762.74 2.73062 2.1363 0
M  V30 30393 C 2761.8 3.91306 1.76573 0
M  V30 30394 C 2761.03 4.44691 2.95103 0
M  V30 30395 O 2761.25 3.97039 4.09532 0
M  V30 30396 O 2760.19 5.35846 2.7414 0
M  V30 30397 H 2764.01 3.00859 0.414424 0
M  V30 30398 H 2761.6 1.48756 0.138572 0
M  V30 30399 H 2763.48 3.0894 2.8659 0
M  V30 30400 H 2762.15 1.92249 2.60427 0
M  V30 30401 H 2761.06 3.60257 1.00824 0
M  V30 30402 H 2762.39 4.73453 1.34548 0
M  V30 30403 N 2764.05 -0.188399 1.5647 0
M  V30 30404 C 2764.98 -1.25766 1.91613 0
M  V30 30405 C 2765.99 -1.41364 0.807461 0
M  V30 30406 O 2767.18 -1.41671 1.08589 0
M  V30 30407 C 2764.28 -2.62886 2.13879 0
M  V30 30408 C 2763.45 -2.68809 3.45051 0
M  V30 30409 C 2762.51 -3.87172 3.56349 0
M  V30 30410 O 2761.54 -3.73963 4.29116 0
M  V30 30411 N 2762.74 -5.02911 2.89932 0
M  V30 30412 H 2765.51 -0.959323 2.83931 0
M  V30 30413 H 2763.07 -0.378278 1.57419 0
M  V30 30414 H 2765.06 -3.40506 2.18718 0
M  V30 30415 H 2763.63 -2.8518 1.28027 0
M  V30 30416 H 2762.85 -1.77412 3.52021 0
M  V30 30417 H 2764.14 -2.69763 4.314 0
M  V30 30418 H 2763.53 -5.16542 2.30653 0
M  V30 30419 H 2762.09 -5.78454 3.0039 0
M  V30 30420 N 2765.53 -1.50848 -0.456355 0
M  V30 30421 C 2766.49 -1.70216 -1.5349 0
M  V30 30422 C 2767.49 -0.572507 -1.50263 0
M  V30 30423 O 2768.68 -0.839777 -1.52622 0
M  V30 30424 C 2765.81 -1.74105 -2.93088 0
M  V30 30425 H 2767 -2.66455 -1.37628 0
M  V30 30426 H 2764.56 -1.40551 -0.683751 0
M  V30 30427 H 2765.29 -0.796119 -3.14376 0
M  V30 30428 H 2765.08 -2.56185 -2.96836 0
M  V30 30429 H 2766.57 -1.90993 -3.71364 0
M  V30 30430 N 2767 0.710538 -1.40674 0
M  V30 30431 C 2767.91 1.85464 -1.43667 0
M  V30 30432 C 2768.93 1.70866 -0.328751 0
M  V30 30433 O 2770.11 1.93043 -0.574132 0
M  V30 30434 C 2767.17 3.21311 -1.30232 0
M  V30 30435 C 2766.23 3.48126 -2.5121 0
M  V30 30436 C 2765.46 4.77491 -2.38407 0
M  V30 30437 O 2765.69 5.52938 -1.40058 0
M  V30 30438 O 2764.62 5.04756 -3.27879 0
M  V30 30439 H 2768.45 1.85896 -2.40159 0
M  V30 30440 H 2766.03 0.86163 -1.2205 0
M  V30 30441 H 2767.91 4.02444 -1.24967 0
M  V30 30442 H 2766.59 3.21596 -0.368476 0
M  V30 30443 H 2765.5 2.66982 -2.62052 0
M  V30 30444 H 2766.83 3.52642 -3.43372 0
M  V30 30445 N 2768.48 1.26254 0.943277 0
M  V30 30446 C 2769.43 1.07629 2.04168 0
M  V30 30447 C 2770.4 -0.0180446 1.6609 0
M  V30 30448 O 2771.58 0.141322 1.90276 0
M  V30 30449 C 2768.72 0.713103 3.37652 0
M  V30 30450 C 2767.84 1.88347 3.88779 0
M  V30 30451 C 2766.97 1.46359 5.10639 0
M  V30 30452 C 2766.01 2.60239 5.54024 0
M  V30 30453 N 2765.15 2.18948 6.67088 0
M  V30 30454 H 2769.99 2.01627 2.19432 0
M  V30 30455 H 2767.52 1.00391 1.07517 0
M  V30 30456 H 2769.48 0.483431 4.1439 0
M  V30 30457 H 2768.11 -0.189903 3.22241 0
M  V30 30458 H 2767.16 2.22613 3.0846 0
M  V30 30459 H 2768.48 2.73828 4.16917 0
M  V30 30460 H 2767.63 1.19424 5.9483 0
M  V30 30461 H 2766.37 0.579653 4.84243 0
M  V30 30462 H 2765.37 2.87906 4.68391 0
M  V30 30463 H 2766.6 3.49229 5.82422 0
M  V30 30464 H 2764.55 1.32985 6.42379 0
M  V30 30465 H 2764.46 2.97973 6.94801 0
M  V30 30466 H 2765.73 1.95219 7.54659 0
M  V30 30467 N 2769.96 -1.14755 1.08024 0
M  V30 30468 C 2771.21 -1.85335 0.805946 0
M  V30 30469 C 2771.53 -1.83124 -0.67013 0
M  V30 30470 O 2770.8 -1.27693 -1.48565 0
M  V30 30471 H 2769.38 -0.686218 0.29515 0
M  V30 30472 H 2772.04 -1.39078 1.36541 0
M  V30 30473 H 2771.14 -2.90275 1.1466 0
M  V30 30474 N 2771.44 -0.865331 -1.31719 0
M  V30 30475 C 2772.39 -0.306715 -2.30569 0
M  V30 30476 C 2773.38 0.575696 -1.59318 0
M  V30 30477 O 2774.59 0.462312 -1.73962 0
M  V30 30478 H 2770.96 -0.0804965 -0.747679 0
M  V30 30479 H 2772.93 -1.15446 -2.75163 0
M  V30 30480 C 2771.68 0.480892 -3.44358 0
M  V30 30481 H 2771 -0.18883 -3.99354 0
M  V30 30482 H 2772.44 0.837168 -4.15653 0
M  V30 30483 C 2770.9 1.67034 -2.92577 0
M  V30 30484 O 2771.43 2.76958 -2.90959 0
M  V30 30485 N 2769.64 1.50093 -2.48838 0
M  V30 30486 H 2769.19 0.606694 -2.50354 0
M  V30 30487 H 2769.14 2.29819 -2.14548 0
M  V30 30488 N 2772.92 1.44707 -0.624311 0
M  V30 30489 C 2773.88 2.29078 0.0749235 0
M  V30 30490 C 2774.88 1.40674 0.77894 0
M  V30 30491 O 2776.07 1.62619 0.624563 0
M  V30 30492 C 2773.2 3.22095 1.11657 0
M  V30 30493 H 2774.39 2.92387 -0.667064 0
M  V30 30494 H 2771.95 1.51506 -0.384125 0
M  V30 30495 H 2772.68 2.63621 1.88877 0
M  V30 30496 H 2772.47 3.87235 0.615762 0
M  V30 30497 H 2773.96 3.85492 1.60578 0
M  V30 30498 N 2774.39 0.364449 1.53328 0
M  V30 30499 C 2775.81 0.0133446 1.59594 0
M  V30 30500 C 2776.01 -1.46863 1.37962 0
M  V30 30501 O 2775.07 -2.23008 1.18422 0
M  V30 30502 C 2776.38 0.468265 2.97032 0
M  V30 30503 C 2777.93 0.422388 3.10137 0
M  V30 30504 C 2778.4 0.853103 4.49985 0
M  V30 30505 N 2779.89 0.808117 4.56096 0
M  V30 30506 C 2780.63 1.11309 5.62493 0
M  V30 30507 N 2780.12 1.48728 6.76647 0
M  V30 30508 N 2781.92 1.03596 5.52471 0
M  V30 30509 H 2774.07 1.32954 1.65641 0
M  V30 30510 H 2776.33 0.543359 0.77683 0
M  V30 30511 H 2776.04 1.50236 3.17997 0
M  V30 30512 H 2775.91 -0.145709 3.76918 0
M  V30 30513 H 2778.3 -0.602572 2.88882 0
M  V30 30514 H 2778.38 1.07184 2.32261 0
M  V30 30515 H 2778.02 1.87617 4.71977 0
M  V30 30516 H 2777.95 0.180911 5.26289 0
M  V30 30517 H 2780.44 0.532427 3.7413 0
M  V30 30518 H 2780.76 1.70428 7.53773 0
M  V30 30519 H 2779.1 1.52593 6.78042 0
M  V30 30520 H 2782.29 0.742817 4.62169 0
M  V30 30521 H 2782.47 1.27697 6.35293 0
M  V30 30522 N 2775.87 -1.57322 0.0935872 0
M  V30 30523 C 2777.12 -1.94586 -0.57132 0
M  V30 30524 C 2777.45 -0.975395 -1.67928 0
M  V30 30525 O 2776.73 -0.00819625 -1.94498 0
M  V30 30526 C 2777.01 -3.4198 -1.12791 0
M  V30 30527 C 2776.86 -4.49793 -0.0251091 0
M  V30 30528 C 2778.18 -3.90654 -2.02675 0
M  V30 30529 H 2775.3 -0.707564 -0.20621 0
M  V30 30530 H 2777.94 -1.89291 0.163989 0
M  V30 30531 H 2776.09 -3.46623 -1.75455 0
M  V30 30532 H 2777.76 -4.57262 0.609059 0
M  V30 30533 H 2776.01 -4.29031 0.641475 0
M  V30 30534 H 2776.68 -5.50119 -0.455336 0
M  V30 30535 H 2779.15 -3.88154 -1.49918 0
M  V30 30536 H 2778.03 -4.94355 -2.38546 0
M  V30 30537 H 2778.29 -3.29859 -2.94356 0
M  V30 30538 N 2777.35 0.180099 -1.56568 0
M  V30 30539 C 2778.3 1.22309 -1.95727 0
M  V30 30540 C 2779.27 1.44452 -0.819936 0
M  V30 30541 O 2780.45 1.57337 -1.07934 0
M  V30 30542 C 2777.59 2.55943 -2.31489 0
M  V30 30543 C 2776.7 2.41254 -3.58358 0
M  V30 30544 C 2775.84 3.67694 -3.83373 0
M  V30 30545 C 2774.88 3.47901 -5.03619 0
M  V30 30546 N 2774.02 4.66389 -5.2481 0
M  V30 30547 H 2778.86 0.882148 -2.84644 0
M  V30 30548 H 2776.39 0.424195 -1.40851 0
M  V30 30549 H 2778.35 3.33818 -2.50243 0
M  V30 30550 H 2776.98 2.88051 -1.45694 0
M  V30 30551 H 2776.03 1.546 -3.47567 0
M  V30 30552 H 2777.34 2.2257 -4.4639 0
M  V30 30553 H 2776.5 4.54006 -4.02447 0
M  V30 30554 H 2775.24 3.89348 -2.93699 0
M  V30 30555 H 2774.24 2.59975 -4.84451 0
M  V30 30556 H 2775.47 3.27677 -5.94815 0
M  V30 30557 H 2773.41 4.88278 -4.38087 0
M  V30 30558 H 2773.33 4.50585 -6.07049 0
M  V30 30559 H 2774.6 5.54009 -5.48356 0
M  V30 30560 N 2778.83 1.51088 0.448349 0
M  V30 30561 C 2779.76 1.67786 1.56143 0
M  V30 30562 C 2780.77 0.558737 1.52912 0
M  V30 30563 O 2781.96 0.832698 1.57887 0
M  V30 30564 C 2779.06 1.66721 2.95055 0
M  V30 30565 C 2778.23 2.95039 3.2291 0
M  V30 30566 C 2777.29 2.8631 4.41489 0
M  V30 30567 O 2776.32 3.60261 4.40682 0
M  V30 30568 N 2777.52 2.0141 5.4444 0
M  V30 30569 H 2780.29 2.63802 1.42227 0
M  V30 30570 H 2777.85 1.48836 0.637127 0
M  V30 30571 H 2779.84 1.58464 3.72386 0
M  V30 30572 H 2778.41 0.783456 3.02623 0
M  V30 30573 H 2777.63 3.17249 2.3398 0
M  V30 30574 H 2778.92 3.80002 3.38343 0
M  V30 30575 H 2778.32 1.40683 5.47928 0
M  V30 30576 H 2776.87 1.9904 6.20666 0
M  V30 30577 N 2780.31 -0.703068 1.41049 0
M  V30 30578 C 2781.24 -1.82967 1.4507 0
M  V30 30579 C 2782.22 -1.67248 0.310189 0
M  V30 30580 O 2783.4 -1.87092 0.52058 0
M  V30 30581 C 2780.53 -3.21038 1.32484 0
M  V30 30582 C 2779.49 -3.5145 2.44268 0
M  V30 30583 C 2778.81 -4.88798 2.16751 0
M  V30 30584 C 2780.11 -3.51182 3.86612 0
M  V30 30585 H 2781.81 -1.79858 2.39356 0
M  V30 30586 H 2779.35 -0.863899 1.15208 0
M  V30 30587 H 2781.31 -3.99557 1.33911 0
M  V30 30588 H 2780.03 -3.24754 0.346792 0
M  V30 30589 H 2778.69 -2.75277 2.42111 0
M  V30 30590 H 2778.34 -4.8913 1.17307 0
M  V30 30591 H 2778.04 -5.10111 2.91652 0
M  V30 30592 H 2779.56 -5.69635 2.19882 0
M  V30 30593 H 2780.97 -4.19718 3.90525 0
M  V30 30594 H 2779.37 -3.84025 4.61134 0
M  V30 30595 H 2780.44 -2.50308 4.153 0
M  V30 30596 N 2781.78 -1.26752 -0.936569 0
M  V30 30597 C 2782.73 -1.0871 -2.03595 0
M  V30 30598 C 2783.7 0.00923623 -1.66097 0
M  V30 30599 O 2784.89 -0.151411 -1.90198 0
M  V30 30600 C 2782.03 -0.730999 -3.37269 0
M  V30 30601 C 2781.14 -1.90406 -3.87775 0
M  V30 30602 C 2780.27 -1.49065 -5.09856 0
M  V30 30603 C 2779.31 -2.63173 -5.52636 0
M  V30 30604 N 2778.45 -2.22482 -6.65917 0
M  V30 30605 H 2783.29 -2.02788 -2.1836 0
M  V30 30606 H 2780.83 -1.0096 -1.06984 0
M  V30 30607 H 2782.79 -0.505401 -4.14127 0
M  V30 30608 H 2781.42 0.172811 -3.22337 0
M  V30 30609 H 2780.47 -2.24246 -3.07275 0
M  V30 30610 H 2781.78 -2.76035 -4.15459 0
M  V30 30611 H 2780.93 -1.22577 -5.94188 0
M  V30 30612 H 2779.67 -0.605326 -4.83929 0
M  V30 30613 H 2778.68 -2.90386 -4.66858 0
M  V30 30614 H 2779.9 -3.52313 -5.80562 0
M  V30 30615 H 2777.85 -1.3639 -6.41665 0
M  V30 30616 H 2777.77 -3.01653 -6.93211 0
M  V30 30617 H 2779.03 -1.99218 -7.53613 0
M  V30 30618 N 2783.26 1.1418 -1.08631 0
M  V30 30619 C 2784.68 1.37259 -0.814387 0
M  V30 30620 C 2784.88 1.93115 0.575237 0
M  V30 30621 O 2783.93 2.14533 1.33161 0
M  V30 30622 C 2785.25 2.33154 -1.89894 0
M  V30 30623 C 2786.8 2.46788 -1.92522 0
M  V30 30624 C 2787.27 3.45984 -3.00098 0
M  V30 30625 N 2788.76 3.53529 -2.99285 0
M  V30 30626 C 2789.5 4.3014 -3.79166 0
M  V30 30627 N 2788.99 5.09975 -4.68932 0
M  V30 30628 N 2790.79 4.25359 -3.67458 0
M  V30 30629 H 2782.94 0.762723 -1.98233 0
M  V30 30630 H 2785.2 0.398036 -0.86039 0
M  V30 30631 H 2784.91 1.99252 -2.89813 0
M  V30 30632 H 2784.78 3.33083 -1.77019 0
M  V30 30633 H 2787.17 2.7998 -0.932474 0
M  V30 30634 H 2787.25 1.46812 -2.09475 0
M  V30 30635 H 2786.89 3.13524 -3.99581 0
M  V30 30636 H 2786.82 4.45746 -2.8039 0
M  V30 30637 H 2789.31 2.96559 -2.34225 0
M  V30 30638 H 2789.63 5.65715 -5.26485 0
M  V30 30639 H 2787.97 5.09236 -4.72973 0
M  V30 30640 H 2791.16 3.62062 -2.96696 0
M  V30 30641 H 2791.33 4.84815 -4.29952 0
M  V30 30642 N 2784.74 0.872304 1.31258 0
M  V30 30643 C 2785.67 0.28701 2.27396 0
M  V30 30644 C 2786.69 -0.551271 1.53182 0
M  V30 30645 O 2787.87 -0.372883 1.74562 0
M  V30 30646 C 2784.97 -0.611559 3.33336 0
M  V30 30647 C 2784.15 0.194806 4.36966 0
M  V30 30648 C 2783.21 -0.632266 5.22388 0
M  V30 30649 O 2782.23 -0.059469 5.69169 0
M  V30 30650 N 2783.43 -1.94382 5.46988 0
M  V30 30651 H 2786.2 1.11318 2.78259 0
M  V30 30652 H 2783.76 0.73402 1.44304 0
M  V30 30653 H 2785.75 -1.17061 3.874 0
M  V30 30654 H 2784.32 -1.33841 2.82499 0
M  V30 30655 H 2783.54 0.935308 3.82943 0
M  V30 30656 H 2784.83 0.748023 5.03271 0
M  V30 30657 H 2784.23 -2.43228 5.10741 0
M  V30 30658 H 2782.79 -2.4506 6.03977 0
M  V30 30659 N 2786.22 -1.44374 0.631976 0
M  V30 30660 C 2787.15 -2.33425 -0.0592832 0
M  V30 30661 C 2788.13 -1.48255 -0.833938 0
M  V30 30662 O 2789.31 -1.76972 -0.799651 0
M  V30 30663 C 2786.44 -3.31334 -1.0409 0
M  V30 30664 C 2785.4 -4.26329 -0.377824 0
M  V30 30665 C 2784.72 -5.14113 -1.46941 0
M  V30 30666 C 2786.02 -5.17363 0.716462 0
M  V30 30667 H 2787.72 -2.91474 0.684338 0
M  V30 30668 H 2785.26 -1.40155 0.330542 0
M  V30 30669 H 2787.22 -3.92517 -1.53324 0
M  V30 30670 H 2785.94 -2.71496 -1.81542 0
M  V30 30671 H 2784.6 -3.6648 0.0938698 0
M  V30 30672 H 2784.25 -4.50627 -2.23482 0
M  V30 30673 H 2783.95 -5.78482 -1.03111 0
M  V30 30674 H 2785.47 -5.78168 -1.96353 0
M  V30 30675 H 2786.89 -5.72476 0.307189 0
M  V30 30676 H 2785.28 -5.90339 1.07795 0
M  V30 30677 H 2786.35 -4.58325 1.58324 0
M  V30 30678 N 2787.7 -0.372575 -1.53133 0
M  V30 30679 C 2788.61 0.478339 -2.29672 0
M  V30 30680 C 2789.62 1.08642 -1.35915 0
M  V30 30681 O 2790.8 1.09585 -1.68977 0
M  V30 30682 C 2787.86 1.59894 -3.07627 0
M  V30 30683 C 2786.92 1.01769 -4.17063 0
M  V30 30684 C 2786.16 2.08489 -4.91292 0
M  V30 30685 O 2786.38 3.29719 -4.65448 0
M  V30 30686 O 2785.31 1.71154 -5.77053 0
M  V30 30687 H 2789.14 -0.144703 -3.03355 0
M  V30 30688 H 2786.73 -0.136755 -1.48773 0
M  V30 30689 H 2788.61 2.25031 -3.56285 0
M  V30 30690 H 2787.28 2.20726 -2.36774 0
M  V30 30691 H 2786.19 0.330033 -3.72641 0
M  V30 30692 H 2787.52 0.453829 -4.90103 0
M  V30 30693 N 2789.17 1.5727 -0.101929 0
M  V30 30694 C 2790.08 2.17927 0.868608 0
M  V30 30695 C 2791.1 1.15062 1.30525 0
M  V30 30696 O 2792.28 1.47461 1.37176 0
M  V30 30697 C 2789.34 2.75313 2.10722 0
M  V30 30698 C 2788.4 3.93157 1.72413 0
M  V30 30699 C 2787.64 4.47796 2.9037 0
M  V30 30700 O 2787.86 4.0136 4.05298 0
M  V30 30701 O 2786.79 5.38724 2.68441 0
M  V30 30702 H 2790.62 3.01282 0.382491 0
M  V30 30703 H 2788.2 1.48895 0.122786 0
M  V30 30704 H 2790.09 3.11963 2.83297 0
M  V30 30705 H 2788.76 1.95 2.58373 0
M  V30 30706 H 2787.67 3.61306 0.969975 0
M  V30 30707 H 2789 4.74853 1.29519 0
M  V30 30708 N 2790.65 -0.171793 1.56661 0
M  V30 30709 C 2791.62 -1.19648 1.95492 0
M  V30 30710 C 2792.62 -1.37206 0.838525 0
M  V30 30711 O 2793.81 -1.3462 1.10558 0
M  V30 30712 C 2790.94 -2.56162 2.24931 0
M  V30 30713 H 2792.13 -0.863956 2.87186 0
M  V30 30714 H 2789.68 -0.414223 1.50711 0
M  V30 30715 H 2790.42 -2.94429 1.35949 0
M  V30 30716 H 2790.2 -2.44784 3.06306 0
M  V30 30717 H 2791.69 -3.3001 2.55897 0
M  V30 30718 N 2792.13 -1.51324 -0.44033 0
M  V30 30719 C 2793.04 -1.75261 -1.55952 0
M  V30 30720 C 2794.06 -0.636715 -1.61932 0
M  V30 30721 O 2795.23 -0.918625 -1.7923 0
M  V30 30722 C 2792.3 -1.86982 -2.91956 0
M  V30 30723 C 2791.36 -3.10827 -2.96117 0
M  V30 30724 C 2790.59 -3.2198 -4.25634 0
M  V30 30725 O 2790.81 -2.39146 -5.17847 0
M  V30 30726 O 2789.75 -4.14937 -4.36017 0
M  V30 30727 H 2793.57 -2.70194 -1.38668 0
M  V30 30728 H 2791.16 -1.35789 -0.623031 0
M  V30 30729 H 2793.04 -1.96695 -3.72678 0
M  V30 30730 H 2791.72 -0.952361 -3.09373 0
M  V30 30731 H 2790.62 -3.06595 -2.14361 0
M  V30 30732 H 2791.96 -4.02252 -2.83644 0
M  V30 30733 N 2793.61 0.695578 -1.41419 0
M  V30 30734 C 2794.52 1.8393 -1.45626 0
M  V30 30735 C 2795.53 1.70508 -0.346855 0
M  V30 30736 O 2796.71 1.92423 -0.594574 0
M  V30 30737 C 2793.78 3.19911 -1.33633 0
M  V30 30738 C 2792.84 3.45442 -2.54888 0
M  V30 30739 C 2792.07 4.74936 -2.43458 0
M  V30 30740 O 2792.29 5.51421 -1.45914 0
M  V30 30741 O 2791.23 5.0125 -3.33215 0
M  V30 30742 H 2795.05 1.83338 -2.42118 0
M  V30 30743 H 2792.64 0.848637 -1.22957 0
M  V30 30744 H 2794.52 4.01096 -1.29228 0
M  V30 30745 H 2793.19 3.21187 -0.402564 0
M  V30 30746 H 2792.1 2.64188 -2.64869 0
M  V30 30747 H 2793.43 3.48981 -3.47093 0
M  V30 30748 N 2795.09 1.27247 0.929833 0
M  V30 30749 C 2796 1.11596 2.06358 0
M  V30 30750 C 2797.01 0.0465266 1.73938 0
M  V30 30751 O 2798.19 0.252579 1.9981 0
M  V30 30752 C 2795.25 0.762497 3.38211 0
M  V30 30753 C 2794.32 1.91257 3.84343 0
M  V30 30754 C 2793.55 1.57588 5.09904 0
M  V30 30755 O 2793.77 0.482793 5.68353 0
M  V30 30756 O 2792.71 2.41436 5.51355 0
M  V30 30757 H 2796.53 2.06734 2.22474 0
M  V30 30758 H 2794.12 1.06415 1.04863 0
M  V30 30759 H 2796 0.578614 4.17409 0
M  V30 30760 H 2794.67 -0.159382 3.23307 0
M  V30 30761 H 2793.58 2.1515 3.06041 0
M  V30 30762 H 2794.91 2.81458 4.03785 0
M  V30 30763 N 2796.57 -1.13603 1.09235 0
M  V30 30764 C 2797.79 -1.89222 0.849101 0
M  V30 30765 C 2798.22 -1.7848 -0.593844 0
M  V30 30766 O 2797.57 -1.13095 -1.41701 0
M  V30 30767 C 2797.62 -3.36871 1.28648 0
M  V30 30768 O 2796.73 -4.10006 0.443702 0
M  V30 30769 H 2796.07 -0.588412 0.30768 0
M  V30 30770 H 2798.6 -1.43745 1.45597 0
M  V30 30771 H 2798.61 -3.87697 1.27103 0
M  V30 30772 H 2797.28 -3.44007 2.33735 0
M  V30 30773 H 2795.86 -3.6921 0.523306 0
M  V30 30774 N 2798.04 -0.879253 -1.30793 0
M  V30 30775 C 2798.98 -0.299065 -2.2724 0
M  V30 30776 C 2799.99 0.543139 -1.53473 0
M  V30 30777 O 2801.18 0.36362 -1.74757 0
M  V30 30778 C 2798.28 0.593872 -3.33656 0
M  V30 30779 C 2797.45 -0.217977 -4.36857 0
M  V30 30780 C 2796.51 0.604554 -5.22716 0
M  V30 30781 O 2795.54 0.0292838 -5.69192 0
M  V30 30782 N 2796.74 1.91478 -5.48011 0
M  V30 30783 H 2799.5 -1.12793 -2.77665 0
M  V30 30784 H 2797.06 -0.741662 -1.43913 0
M  V30 30785 H 2799.06 1.15005 -3.88015 0
M  V30 30786 H 2797.63 1.32341 -2.83204 0
M  V30 30787 H 2796.85 -0.955603 -3.82442 0
M  V30 30788 H 2798.13 -0.774702 -5.02868 0
M  V30 30789 H 2797.53 2.40516 -5.12024 0
M  V30 30790 H 2796.09 2.41854 -6.05269 0
M  V30 30791 N 2799.52 1.44037 -0.639624 0
M  V30 30792 C 2800.94 1.56639 -0.305981 0
M  V30 30793 C 2801.14 1.62569 1.19052 0
M  V30 30794 O 2800.19 1.57334 1.9749 0
M  V30 30795 C 2801.51 2.83395 -1.00538 0
M  V30 30796 C 2803.05 2.97119 -0.984331 0
M  V30 30797 C 2803.53 4.26689 -1.66436 0
M  V30 30798 N 2805.02 4.33522 -1.63135 0
M  V30 30799 C 2805.76 5.32515 -2.12639 0
M  V30 30800 N 2805.25 6.37865 -2.70371 0
M  V30 30801 N 2807.04 5.24079 -2.03218 0
M  V30 30802 H 2799.2 1.38431 -1.61092 0
M  V30 30803 H 2801.46 0.66393 -0.676684 0
M  V30 30804 H 2801.16 2.85028 -2.06039 0
M  V30 30805 H 2801.04 3.73192 -0.548428 0
M  V30 30806 H 2803.43 2.95034 0.0622273 0
M  V30 30807 H 2803.51 2.08648 -1.47985 0
M  V30 30808 H 2803.15 4.29534 -2.71041 0
M  V30 30809 H 2803.08 5.14032 -1.1436 0
M  V30 30810 H 2805.57 3.58007 -1.20993 0
M  V30 30811 H 2805.88 7.09699 -3.05855 0
M  V30 30812 H 2804.23 6.38526 -2.74425 0
M  V30 30813 H 2807.42 4.40689 -1.5783 0
M  V30 30814 H 2807.59 6.01072 -2.42108 0
M  V30 30815 N 2801 0.380691 1.52933 0
M  V30 30816 C 2802.25 -0.205442 2.00651 0
M  V30 30817 C 2802.56 -1.4862 1.27167 0
M  V30 30818 O 2803.77 -2.15186 1.65551 0
M  V30 30819 C 2802.22 -0.416663 3.5748 0
M  V30 30820 C 2801.83 0.850346 4.39856 0
M  V30 30821 C 2803.58 -0.959629 4.13511 0
M  V30 30822 C 2801.48 0.607877 5.88268 0
M  V30 30823 H 2800.41 -0.0805482 0.749685 0
M  V30 30824 H 2803.06 0.501763 1.76507 0
M  V30 30825 H 2801.45 -1.1855 3.77838 0
M  V30 30826 H 2802.62 1.62314 4.31266 0
M  V30 30827 H 2800.93 1.31763 3.95003 0
M  V30 30828 H 2803.53 -1.1566 5.22041 0
M  V30 30829 H 2803.87 -1.9262 3.69057 0
M  V30 30830 H 2804.41 -0.250576 3.9701 0
M  V30 30831 H 2801.15 1.5452 6.37027 0
M  V30 30832 H 2800.67 -0.126141 5.99667 0
M  V30 30833 H 2802.35 0.239128 6.46558 0
M  V30 30834 N 2802.48 -1.57214 0.110268 0
M  V30 30835 C 2803.43 -2.16096 -0.860548 0
M  V30 30836 C 2804.42 -1.10783 -1.28155 0
M  V30 30837 O 2805.63 -1.29102 -1.2543 0
M  V30 30838 H 2802 -0.691468 -0.295594 0
M  V30 30839 H 2803.97 -2.96464 -0.339368 0
M  V30 30840 C 2802.72 -2.76803 -2.10417 0
M  V30 30841 H 2802.04 -3.57533 -1.78913 0
M  V30 30842 H 2803.48 -3.21552 -2.7637 0
M  V30 30843 C 2801.94 -1.73449 -2.8882 0
M  V30 30844 O 2802.47 -1.18258 -3.83898 0
M  V30 30845 N 2800.68 -1.43591 -2.52646 0
M  V30 30846 H 2800.23 -1.88663 -1.75397 0
M  V30 30847 H 2800.18 -0.746789 -3.05402 0
M  V30 30848 N 2803.96 0.163482 -1.5675 0
M  V30 30849 C 2804.92 1.1861 -1.96123 0
M  V30 30850 C 2805.92 1.36759 -0.845789 0
M  V30 30851 O 2807.11 1.34031 -1.11271 0
M  V30 30852 C 2804.24 2.54965 -2.26287 0
M  V30 30853 H 2805.43 0.848714 -2.8764 0
M  V30 30854 H 2802.99 0.406225 -1.50929 0
M  V30 30855 H 2803.72 2.93704 -1.37509 0
M  V30 30856 H 2803.51 2.43156 -3.07599 0
M  V30 30857 H 2805 3.28648 -2.57643 0
M  V30 30858 N 2805.43 1.51555 0.432299 0
M  V30 30859 C 2806.38 1.73813 1.54569 0
M  V30 30860 C 2807.38 0.604566 1.58245 0
M  V30 30861 O 2808.58 0.78607 1.61929 0
M  V30 30862 H 2804.96 0.549274 0.513617 0
M  V30 30863 H 2806.93 2.67135 1.32972 0
M  V30 30864 C 2805.68 1.88488 2.92177 0
M  V30 30865 H 2805 2.75121 2.90083 0
M  V30 30866 H 2806.44 2.08072 3.69435 0
M  V30 30867 C 2804.9 0.645967 3.30649 0
M  V30 30868 O 2805.43 -0.197022 4.01217 0
M  V30 30869 N 2803.63 0.488588 2.86463 0
M  V30 30870 H 2803.18 1.17566 2.29207 0
M  V30 30871 H 2803.14 -0.339101 3.12566 0
M  V30 30872 N 2806.91 -0.688069 1.41786 0
M  V30 30873 C 2808.33 -0.999586 1.2442 0
M  V30 30874 C 2808.53 -2.01021 0.138904 0
M  V30 30875 O 2807.58 -2.47616 -0.49424 0
M  V30 30876 C 2808.9 -1.51704 2.59627 0
M  V30 30877 C 2810.44 -1.6355 2.66872 0
M  V30 30878 C 2810.92 -2.18695 4.02413 0
M  V30 30879 N 2812.41 -2.26046 4.04299 0
M  V30 30880 C 2813.15 -2.69759 5.05982 0
M  V30 30881 N 2812.64 -3.13022 6.18052 0
M  V30 30882 N 2814.43 -2.6939 4.93341 0
M  V30 30883 H 2806.59 -0.0187054 2.12392 0
M  V30 30884 H 2808.85 -0.0708507 0.945349 0
M  V30 30885 H 2808.55 -0.848999 3.41299 0
M  V30 30886 H 2808.43 -2.49798 2.82632 0
M  V30 30887 H 2810.82 -2.29464 1.85554 0
M  V30 30888 H 2810.9 -0.639813 2.47669 0
M  V30 30889 H 2810.54 -1.53394 4.84183 0
M  V30 30890 H 2810.47 -3.19029 4.1896 0
M  V30 30891 H 2812.96 -1.95524 3.23386 0
M  V30 30892 H 2813.27 -3.45025 6.91504 0
M  V30 30893 H 2811.62 -3.10912 6.21577 0
M  V30 30894 H 2814.81 -2.34945 4.04869 0
M  V30 30895 H 2814.98 -3.03138 5.72723 0
M  V30 30896 N 2808.39 -1.27739 -0.923072 0
M  V30 30897 C 2809.81 -1.05243 -1.19983 0
M  V30 30898 C 2810.01 0.211095 -2.00391 0
M  V30 30899 O 2809.06 0.915325 -2.35325 0
M  V30 30900 C 2810.37 -2.29454 -1.94348 0
M  V30 30901 C 2811.92 -2.34539 -2.07268 0
M  V30 30902 C 2812.4 -3.58492 -2.8504 0
M  V30 30903 N 2813.89 -3.59077 -2.92606 0
M  V30 30904 C 2814.62 -4.5166 -3.53258 0
M  V30 30905 N 2814.12 -5.54552 -4.15264 0
M  V30 30906 N 2815.91 -4.39274 -3.50706 0
M  V30 30907 H 2808.06 -2.08863 -0.386005 0
M  V30 30908 H 2810.33 -0.918821 -0.233391 0
M  V30 30909 H 2810.03 -3.21455 -1.42687 0
M  V30 30910 H 2809.91 -2.35135 -2.94943 0
M  V30 30911 H 2812.29 -1.43042 -2.58115 0
M  V30 30912 H 2812.37 -2.32859 -1.05879 0
M  V30 30913 H 2812.02 -4.50329 -2.34876 0
M  V30 30914 H 2811.95 -3.57425 -3.86724 0
M  V30 30915 H 2814.44 -2.84667 -2.48542 0
M  V30 30916 H 2814.75 -6.21356 -4.59496 0
M  V30 30917 H 2813.1 -5.58389 -4.13796 0
M  V30 30918 H 2816.29 -3.58098 -3.01469 0
M  V30 30919 H 2816.46 -5.11617 -3.97684 0
M  V30 30920 N 2809.87 1.13022 -1.09836 0
M  V30 30921 C 2810.82 2.18562 -0.741561 0
M  V30 30922 C 2811.79 1.63737 0.279207 0
M  V30 30923 O 2812.97 1.90129 0.159889 0
M  V30 30924 C 2810.11 3.44667 -0.17283 0
M  V30 30925 C 2809.22 4.13576 -1.24815 0
M  V30 30926 C 2808.36 5.2731 -0.641724 0
M  V30 30927 C 2807.4 5.88075 -1.69806 0
M  V30 30928 N 2806.53 6.93232 -1.11235 0
M  V30 30929 H 2811.37 2.48429 -1.64581 0
M  V30 30930 H 2808.91 1.21977 -0.822195 0
M  V30 30931 H 2810.87 4.16834 0.174747 0
M  V30 30932 H 2809.5 3.15237 0.694669 0
M  V30 30933 H 2808.55 3.3965 -1.71294 0
M  V30 30934 H 2809.86 4.54816 -2.04803 0
M  V30 30935 H 2809.02 6.06212 -0.243235 0
M  V30 30936 H 2807.76 4.87331 0.189657 0
M  V30 30937 H 2806.76 5.07864 -2.10604 0
M  V30 30938 H 2807.99 6.30125 -2.53217 0
M  V30 30939 H 2805.93 6.55303 -0.302323 0
M  V30 30940 H 2805.85 7.33037 -1.84914 0
M  V30 30941 H 2807.12 7.75978 -0.740205 0
M  V30 30942 N 2811.35 0.886177 1.30325 0
M  V30 30943 C 2812.28 0.370068 2.30549 0
M  V30 30944 C 2813.26 -0.547722 1.6104 0
M  V30 30945 O 2814.44 -0.461319 1.88641 0
M  V30 30946 C 2811.57 -0.415214 3.44809 0
M  V30 30947 C 2810.53 0.410925 4.26023 0
M  V30 30948 C 2809.85 -0.501034 5.32347 0
M  V30 30949 C 2811.15 1.65368 4.9543 0
M  V30 30950 H 2812.85 1.20758 2.73967 0
M  V30 30951 H 2810.39 0.58212 1.31709 0
M  V30 30952 H 2812.35 -0.786917 4.13987 0
M  V30 30953 H 2811.07 -1.28639 3.00199 0
M  V30 30954 H 2809.73 0.764782 3.58534 0
M  V30 30955 H 2809.38 -1.36995 4.83985 0
M  V30 30956 H 2809.08 0.0479389 5.8758 0
M  V30 30957 H 2810.6 -0.869227 6.04381 0
M  V30 30958 H 2812.01 1.35249 5.57118 0
M  V30 30959 H 2810.41 2.14294 5.60534 0
M  V30 30960 H 2811.48 2.3974 4.21488 0
M  V30 30961 N 2812.82 -1.43695 0.647253 0
M  V30 30962 C 2813.76 -2.29036 -0.086583 0
M  V30 30963 C 2814.77 -1.42179 -0.793026 0
M  V30 30964 O 2815.96 -1.66175 -0.651778 0
M  V30 30965 C 2813.06 -3.18955 -1.14546 0
M  V30 30966 C 2812.23 -4.34318 -0.518345 0
M  V30 30967 C 2811.29 -5.05153 -1.47331 0
M  V30 30968 O 2810.32 -5.60626 -0.984214 0
M  V30 30969 N 2811.52 -5.08099 -2.80741 0
M  V30 30970 H 2814.28 -2.92657 0.645886 0
M  V30 30971 H 2811.84 -1.5432 0.489594 0
M  V30 30972 H 2813.84 -3.63208 -1.78499 0
M  V30 30973 H 2812.41 -2.56974 -1.77997 0
M  V30 30974 H 2811.63 -3.93056 0.300148 0
M  V30 30975 H 2812.91 -5.08737 -0.0803115 0
M  V30 30976 H 2812.31 -4.64392 -3.23043 0
M  V30 30977 H 2810.87 -5.56089 -3.40012 0
M  V30 30978 N 2814.3 -0.388796 -1.52729 0
M  V30 30979 C 2815.72 -0.038733 -1.59553 0
M  V30 30980 C 2815.92 1.4465 -1.40281 0
M  V30 30981 O 2814.97 2.21095 -1.21955 0
M  V30 30982 C 2816.29 -0.515461 -2.96249 0
M  V30 30983 C 2817.84 -0.471675 -3.09426 0
M  V30 30984 C 2818.31 -0.924584 -4.4857 0
M  V30 30985 N 2819.8 -0.880576 -4.54753 0
M  V30 30986 C 2820.54 -1.20244 -5.60651 0
M  V30 30987 N 2820.03 -1.59474 -6.74196 0
M  V30 30988 N 2821.83 -1.12372 -5.50753 0
M  V30 30989 H 2813.98 -1.35572 -1.63505 0
M  V30 30990 H 2816.24 -0.555649 -0.768087 0
M  V30 30991 H 2815.95 -1.55276 -3.15567 0
M  V30 30992 H 2815.82 0.0857258 -3.77103 0
M  V30 30993 H 2818.21 0.556537 -2.89805 0
M  V30 30994 H 2818.29 -1.10866 -2.30526 0
M  V30 30995 H 2817.93 -1.95102 -4.68932 0
M  V30 30996 H 2817.86 -0.264616 -5.25935 0
M  V30 30997 H 2820.35 -0.591881 -3.73236 0
M  V30 30998 H 2820.67 -1.82399 -7.50966 0
M  V30 30999 H 2819.01 -1.63361 -6.75528 0
M  V30 31000 H 2822.2 -0.81625 -4.60928 0
M  V30 31001 H 2822.37 -1.37788 -6.33181 0
M  V30 31002 N 2815.78 1.57153 -0.118604 0
M  V30 31003 C 2816.69 2.18836 0.845446 0
M  V30 31004 C 2817.71 1.1644 1.29297 0
M  V30 31005 O 2818.88 1.48908 1.35604 0
M  V30 31006 C 2815.95 2.77532 2.0779 0
M  V30 31007 C 2815.01 3.94963 1.68233 0
M  V30 31008 C 2814.24 4.5085 2.85604 0
M  V30 31009 O 2814.46 4.05636 4.01018 0
M  V30 31010 O 2813.4 5.4154 2.62712 0
M  V30 31011 H 2817.22 3.0167 0.350515 0
M  V30 31012 H 2814.81 1.49016 0.106987 0
M  V30 31013 H 2816.69 3.1495 2.79972 0
M  V30 31014 H 2815.37 1.9773 2.5629 0
M  V30 31015 H 2814.27 3.62315 0.931599 0
M  V30 31016 H 2815.61 4.762 1.24475 0
M  V30 31017 N 2817.26 -0.155167 1.56834 0
M  V30 31018 C 2818.19 -1.19372 2.0068 0
M  V30 31019 C 2819.17 -1.45265 0.884998 0
M  V30 31020 O 2820.35 -1.56324 1.15223 0
M  V30 31021 C 2817.48 -2.52886 2.38046 0
M  V30 31022 C 2816.44 -2.41531 3.53336 0
M  V30 31023 C 2815.76 -3.79681 3.76492 0
M  V30 31024 C 2817.06 -1.90631 4.86268 0
M  V30 31025 H 2818.76 -0.829182 2.87689 0
M  V30 31026 H 2816.3 -0.397421 1.38407 0
M  V30 31027 H 2818.26 -3.25758 2.67319 0
M  V30 31028 H 2816.98 -2.9116 1.47965 0
M  V30 31029 H 2815.64 -1.71112 3.24216 0
M  V30 31030 H 2815.29 -4.15377 2.83675 0
M  V30 31031 H 2814.99 -3.72948 4.54074 0
M  V30 31032 H 2816.51 -4.54115 4.08182 0
M  V30 31033 H 2817.93 -2.5329 5.14312 0
M  V30 31034 H 2816.32 -1.94808 5.676 0
M  V30 31035 H 2817.39 -0.861512 4.77185 0
M  V30 31036 N 2818.74 -1.51782 -0.424256 0
M  V30 31037 C 2820.01 -1.55648 -1.18462 0
M  V30 31038 C 2820.39 -0.328475 -2.08529 0
M  V30 31039 O 2819.74 0.685654 -2.1797 0
M  V30 31040 C 2819.95 -2.87734 -1.97509 0
M  V30 31041 C 2821.3 -3.40174 -2.541 0
M  V30 31042 O 2822.32 -2.89373 -2.07706 0
M  V30 31043 O 2821.18 -4.28847 -3.38752 0
M  V30 31044 H 2818.28 -0.626324 -0.540044 0
M  V30 31045 H 2820.82 -1.64102 -0.432263 0
M  V30 31046 H 2819.59 -3.68565 -1.31437 0
M  V30 31047 H 2819.22 -2.82503 -2.79782 0
M  V30 31048 N 2820.21 0.68054 -1.42149 0
M  V30 31049 C 2821.12 1.82375 -1.47568 0
M  V30 31050 C 2822.14 1.7013 -0.36492 0
M  V30 31051 O 2823.32 1.91782 -0.61495 0
M  V30 31052 C 2820.38 3.18476 -1.37018 0
M  V30 31053 C 2819.44 3.4272 -2.58538 0
M  V30 31054 C 2818.68 4.72327 -2.48481 0
M  V30 31055 O 2818.9 5.49842 -1.51755 0
M  V30 31056 O 2817.83 4.97688 -3.38512 0
M  V30 31057 H 2821.66 1.8076 -2.44049 0
M  V30 31058 H 2819.24 0.835548 -1.23851 0
M  V30 31059 H 2821.13 3.99703 -1.33475 0
M  V30 31060 H 2819.8 3.20742 -0.436608 0
M  V30 31061 H 2818.71 2.61364 -2.67656 0
M  V30 31062 H 2820.04 3.4528 -3.50775 0
M  V30 31063 N 2821.69 1.28226 0.916285 0
M  V30 31064 C 2822.66 1.1196 1.99994 0
M  V30 31065 C 2823.66 0.0600434 1.60688 0
M  V30 31066 O 2824.85 0.30561 1.71498 0
M  V30 31067 C 2821.98 0.70847 3.33457 0
M  V30 31068 H 2823.17 2.08199 2.15854 0
M  V30 31069 H 2820.72 1.11177 1.09861 0
M  V30 31070 H 2821.46 -0.254802 3.23297 0
M  V30 31071 H 2821.24 1.47384 3.63346 0
M  V30 31072 H 2822.73 0.617236 4.13013 0
M  V30 31073 N 2823.17 -1.12438 1.10433 0
M  V30 31074 C 2824.4 -1.8777 0.868905 0
M  V30 31075 C 2824.81 -1.79651 -0.580614 0
M  V30 31076 O 2824.17 -1.17039 -1.40029 0
M  V30 31077 C 2824.22 -3.36983 1.30861 0
M  V30 31078 O 2823.94 -3.44909 2.70129 0
M  V30 31079 C 2825.44 -4.29254 1.10707 0
M  V30 31080 H 2822.66 -0.594115 0.311879 0
M  V30 31081 H 2825.21 -1.4227 1.46899 0
M  V30 31082 H 2823.36 -3.80027 0.752192 0
M  V30 31083 H 2823.78 -4.37743 2.88931 0
M  V30 31084 H 2825.25 -5.32236 1.46387 0
M  V30 31085 H 2825.73 -4.39176 0.0456999 0
M  V30 31086 H 2826.33 -3.91991 1.64995 0
M  V30 31087 N 2824.65 -0.893076 -1.29853 0
M  V30 31088 C 2825.56 -0.370198 -2.31661 0
M  V30 31089 C 2826.58 0.531694 -1.65677 0
M  V30 31090 O 2827.75 0.422868 -1.96911 0
M  V30 31091 C 2824.82 0.39968 -3.44389 0
M  V30 31092 C 2823.88 -0.532936 -4.25979 0
M  V30 31093 C 2823.11 0.200294 -5.33324 0
M  V30 31094 O 2823.33 1.42522 -5.52308 0
M  V30 31095 O 2822.27 -0.453774 -6.00187 0
M  V30 31096 H 2826.09 -1.21465 -2.78352 0
M  V30 31097 H 2823.68 -0.657176 -1.3417 0
M  V30 31098 H 2825.56 0.835285 -4.13039 0
M  V30 31099 H 2824.24 1.2203 -2.99817 0
M  V30 31100 H 2823.14 -1.01752 -3.59996 0
M  V30 31101 H 2824.48 -1.31978 -4.74176 0
M  V30 31102 N 2826.13 1.4335 -0.654865 0
M  V30 31103 C 2827.35 2.0666 -0.175082 0
M  V30 31104 C 2827.78 1.48772 1.15102 0
M  V30 31105 O 2827.14 0.598309 1.71143 0
M  V30 31106 C 2827.18 3.60463 -0.0992178 0
M  V30 31107 O 2826.29 4.01589 0.938099 0
M  V30 31108 H 2825.63 0.657078 -0.0956263 0
M  V30 31109 H 2828.16 1.83828 -0.898254 0
M  V30 31110 H 2828.17 4.07914 0.0835603 0
M  V30 31111 H 2826.84 4.01973 -1.06726 0
M  V30 31112 H 2825.42 3.65725 0.727976 0
M  V30 31113 N 2827.61 0.39689 1.52521 0
M  V30 31114 C 2828.55 -0.44939 2.28218 0
M  V30 31115 C 2829.55 -1.05649 1.32418 0
M  V30 31116 O 2830.75 -0.996097 1.49926 0
M  V30 31117 H 2827.13 -0.163687 0.733969 0
M  V30 31118 H 2829.1 0.210419 2.97657 0
M  V30 31119 C 2827.85 -1.56049 3.10715 0
M  V30 31120 H 2827.17 -1.10266 3.84293 0
M  V30 31121 H 2828.61 -2.1267 3.66807 0
M  V30 31122 C 2827.07 -2.52087 2.23504 0
M  V30 31123 O 2827.6 -3.55679 1.86697 0
M  V30 31124 N 2825.81 -2.22006 1.87514 0
M  V30 31125 H 2825.35 -1.37798 2.17645 0
M  V30 31126 H 2825.31 -2.86512 1.29453 0
M  V30 31127 N 2829.08 -1.57088 0.126936 0
M  V30 31128 C 2829.99 -2.19282 -0.833828 0
M  V30 31129 C 2831.01 -1.17124 -1.28678 0
M  V30 31130 O 2832.19 -1.49625 -1.34812 0
M  V30 31131 C 2829.25 -2.7863 -2.06315 0
M  V30 31132 C 2828.31 -3.9585 -1.66136 0
M  V30 31133 C 2827.54 -4.52359 -2.83209 0
M  V30 31134 O 2827.77 -4.07757 -3.98861 0
M  V30 31135 O 2826.7 -5.42926 -2.59836 0
M  V30 31136 H 2830.53 -3.01852 -0.334511 0
M  V30 31137 H 2828.11 -1.49071 -0.0990829 0
M  V30 31138 H 2829.99 -3.1643 -2.78298 0
M  V30 31139 H 2828.67 -1.99086 -2.55238 0
M  V30 31140 H 2827.58 -3.62804 -0.912372 0
M  V30 31141 H 2828.91 -4.76854 -1.21948 0
M  V30 31142 N 2830.56 0.146848 -1.56914 0
M  V30 31143 C 2831.52 1.16523 -1.9737 0
M  V30 31144 C 2832.52 1.35854 -0.860247 0
M  V30 31145 O 2833.71 1.32844 -1.12686 0
M  V30 31146 C 2830.85 2.52551 -2.28978 0
M  V30 31147 H 2832.04 0.818158 -2.88524 0
M  V30 31148 H 2829.59 0.390194 -1.51351 0
M  V30 31149 H 2830.33 2.92229 -1.40616 0
M  V30 31150 H 2830.11 2.3988 -3.10161 0
M  V30 31151 H 2831.6 3.25897 -2.61115 0
M  V30 31152 N 2832.04 1.52005 0.4162 0
M  V30 31153 C 2832.97 1.69552 1.52733 0
M  V30 31154 C 2833.95 0.543077 1.53263 0
M  V30 31155 O 2835.13 0.769557 1.72076 0
M  V30 31156 C 2832.26 1.7284 2.9128 0
M  V30 31157 C 2831.31 2.94301 3.0869 0
M  V30 31158 S 2832.14 4.54767 2.8275 0
M  V30 31159 C 2833.3 4.60831 4.2354 0
M  V30 31160 H 2833.53 2.63531 1.37618 0
M  V30 31161 H 2831.06 1.41955 0.60731 0
M  V30 31162 H 2833.02 1.7542 3.71131 0
M  V30 31163 H 2831.68 0.80002 3.03741 0
M  V30 31164 H 2830.87 2.93063 4.10037 0
M  V30 31165 H 2830.48 2.89572 2.36694 0
M  V30 31166 H 2832.77 4.37772 5.1707 0
M  V30 31167 H 2833.71 5.62738 4.29803 0
M  V30 31168 H 2834.12 3.89934 4.08181 0
M  V30 31169 N 2833.52 -0.672992 1.42508 0
M  V30 31170 C 2834.77 -1.43021 1.42792 0
M  V30 31171 C 2835.09 -1.94946 0.0460081 0
M  V30 31172 O 2834.36 -1.73179 -0.915734 0
M  V30 31173 H 2832.94 -0.530739 0.525666 0
M  V30 31174 H 2835.6 -0.795081 1.77945 0
M  V30 31175 H 2834.69 -2.28233 2.12876 0
M  V30 31176 N 2835 -1.2871 -0.909472 0
M  V30 31177 C 2836.41 -1.0651 -1.1886 0
M  V30 31178 C 2836.61 0.189828 -2.00604 0
M  V30 31179 O 2835.67 0.890314 -2.36283 0
M  V30 31180 C 2836.98 -2.31503 -1.91903 0
M  V30 31181 C 2838.53 -2.36725 -2.04769 0
M  V30 31182 C 2839 -3.61495 -2.81221 0
M  V30 31183 N 2840.49 -3.6216 -2.88781 0
M  V30 31184 C 2841.23 -4.55381 -3.48447 0
M  V30 31185 N 2840.73 -5.58925 -4.09359 0
M  V30 31186 N 2842.52 -4.42969 -3.46027 0
M  V30 31187 H 2834.67 -2.09261 -0.363831 0
M  V30 31188 H 2836.93 -0.921245 -0.223633 0
M  V30 31189 H 2836.64 -3.2295 -1.39269 0
M  V30 31190 H 2836.51 -2.3825 -2.92432 0
M  V30 31191 H 2838.9 -1.45771 -2.56583 0
M  V30 31192 H 2838.98 -2.33969 -1.03404 0
M  V30 31193 H 2838.62 -4.52794 -2.30086 0
M  V30 31194 H 2838.55 -3.61506 -3.82911 0
M  V30 31195 H 2841.05 -2.87287 -2.45508 0
M  V30 31196 H 2841.36 -6.26195 -4.5288 0
M  V30 31197 H 2839.7 -5.62746 -4.0785 0
M  V30 31198 H 2842.89 -3.61275 -2.97654 0
M  V30 31199 H 2843.07 -5.15806 -3.92235 0
M  V30 31200 N 2836.47 1.1185 -1.11028 0
M  V30 31201 C 2837.38 2.21349 -0.777291 0
M  V30 31202 C 2838.4 1.72502 0.227791 0
M  V30 31203 O 2839.58 2.01295 0.0650233 0
M  V30 31204 C 2836.64 3.45997 -0.220729 0
M  V30 31205 C 2835.7 4.09653 -1.28387 0
M  V30 31206 C 2834.93 5.2835 -0.753771 0
M  V30 31207 O 2835.16 5.68869 0.417679 0
M  V30 31208 O 2834.09 5.82481 -1.51657 0
M  V30 31209 H 2837.92 2.52237 -1.69146 0
M  V30 31210 H 2835.5 1.20304 -0.885857 0
M  V30 31211 H 2837.38 4.21313 0.0855016 0
M  V30 31212 H 2836.06 3.1677 0.666207 0
M  V30 31213 H 2834.97 3.36087 -1.64305 0
M  V30 31214 H 2836.3 4.43048 -2.14404 0
M  V30 31215 N 2837.95 0.89995 1.29378 0
M  V30 31216 C 2839.2 0.526776 1.95839 0
M  V30 31217 C 2839.53 -0.924621 1.70776 0
M  V30 31218 O 2838.81 -1.65555 1.02087 0
M  V30 31219 C 2839.09 0.820123 3.50637 0
M  V30 31220 C 2838.94 2.32324 3.85156 0
M  V30 31221 C 2840.26 0.306787 4.39029 0
M  V30 31222 H 2837.38 0.19286 0.711319 0
M  V30 31223 H 2840.02 1.12668 1.5299 0
M  V30 31224 H 2838.17 0.309559 3.87265 0
M  V30 31225 H 2839.84 2.90337 3.58472 0
M  V30 31226 H 2838.09 2.78387 3.32691 0
M  V30 31227 H 2838.76 2.47907 4.932 0
M  V30 31228 H 2841.23 0.74398 4.09395 0
M  V30 31229 H 2840.11 0.54124 5.46225 0
M  V30 31230 H 2840.37 -0.792512 4.34939 0
M  V30 31231 N 2839.43 -1.43001 0.662458 0
M  V30 31232 C 2840.38 -2.32573 -0.0353041 0
M  V30 31233 C 2841.37 -1.49133 -0.803479 0
M  V30 31234 O 2842.58 -1.65284 -0.712836 0
M  V30 31235 H 2838.95 -0.751393 -0.0302062 0
M  V30 31236 H 2840.92 -2.89137 0.737737 0
M  V30 31237 C 2839.67 -3.33559 -0.981517 0
M  V30 31238 H 2839 -3.97796 -0.399845 0
M  V30 31239 H 2840.44 -3.98847 -1.43866 0
M  V30 31240 C 2838.9 -2.64867 -2.082 0
M  V30 31241 O 2839.43 -2.47119 -3.16694 0
M  V30 31242 N 2837.63 -2.24091 -1.85018 0
M  V30 31243 H 2837.18 -2.38726 -0.967867 0
M  V30 31244 H 2837.14 -1.78461 -2.58842 0
M  V30 31245 N 2840.91 -0.404973 -1.52308 0
M  V30 31246 C 2841.87 0.410612 -2.25492 0
M  V30 31247 C 2842.87 0.977132 -1.27706 0
M  V30 31248 O 2844.06 0.856665 -1.5168 0
M  V30 31249 C 2841.19 1.5776 -3.022 0
M  V30 31250 H 2842.39 -0.230329 -2.99014 0
M  V30 31251 H 2839.94 -0.157405 -1.55505 0
M  V30 31252 H 2840.67 2.25552 -2.33016 0
M  V30 31253 H 2840.46 1.17791 -3.73989 0
M  V30 31254 H 2841.95 2.15463 -3.57723 0
M  V30 31255 N 2842.39 1.57018 -0.135265 0
M  V30 31256 C 2843.32 2.19178 0.805196 0
M  V30 31257 C 2844.3 1.13654 1.26558 0
M  V30 31258 O 2845.48 1.41953 1.32526 0
M  V30 31259 C 2842.61 2.8041 2.04909 0
M  V30 31260 C 2841.57 3.91658 1.72591 0
M  V30 31261 C 2840.89 4.39772 3.04146 0
M  V30 31262 C 2842.19 5.12993 0.981619 0
M  V30 31263 H 2843.89 2.9802 0.287179 0
M  V30 31264 H 2841.43 1.4335 0.136689 0
M  V30 31265 H 2843.39 3.22558 2.71172 0
M  V30 31266 H 2842.11 1.98882 2.59063 0
M  V30 31267 H 2840.77 3.50111 1.08711 0
M  V30 31268 H 2840.42 3.55081 3.56267 0
M  V30 31269 H 2840.12 5.14801 2.8329 0
M  V30 31270 H 2841.64 4.84582 3.715 0
M  V30 31271 H 2843.05 5.52058 1.5461 0
M  V30 31272 H 2841.45 5.9371 0.873428 0
M  V30 31273 H 2842.52 4.84891 -0.028774 0
M  V30 31274 N 2843.86 -0.138524 1.5699 0
M  V30 31275 C 2844.81 -1.17077 1.98901 0
M  V30 31276 C 2845.78 -1.42227 0.857947 0
M  V30 31277 O 2846.97 -1.5442 1.12067 0
M  V30 31278 C 2844.11 -2.49716 2.38193 0
M  V30 31279 C 2843.22 -2.31668 3.64629 0
M  V30 31280 C 2842.35 -3.574 3.92987 0
M  V30 31281 C 2841.39 -3.34426 5.12665 0
M  V30 31282 N 2840.53 -4.5231 5.36991 0
M  V30 31283 H 2845.37 -0.806369 2.86883 0
M  V30 31284 H 2842.91 -0.386702 1.41926 0
M  V30 31285 H 2844.87 -3.27066 2.59006 0
M  V30 31286 H 2843.5 -2.84087 1.5328 0
M  V30 31287 H 2842.55 -1.4533 3.51544 0
M  V30 31288 H 2843.86 -2.10656 4.52134 0
M  V30 31289 H 2843.01 -4.43176 4.14343 0
M  V30 31290 H 2841.75 -3.81424 3.03919 0
M  V30 31291 H 2840.76 -2.47039 4.91174 0
M  V30 31292 H 2841.98 -3.11792 6.03293 0
M  V30 31293 H 2839.93 -4.76492 4.50879 0
M  V30 31294 H 2839.85 -4.34332 6.18782 0
M  V30 31295 H 2841.11 -5.39275 5.62852 0
M  V30 31296 N 2845.34 -1.52224 -0.408133 0
M  V30 31297 C 2846.57 -1.70474 -1.18124 0
M  V30 31298 C 2846.99 -0.413872 -1.8349 0
M  V30 31299 O 2846.35 0.628748 -1.70048 0
M  V30 31300 C 2846.4 -2.84217 -2.2193 0
M  V30 31301 O 2845.5 -2.49856 -3.28094 0
M  V30 31302 H 2844.84 -0.567476 -0.344771 0
M  V30 31303 H 2847.37 -1.98931 -0.478293 0
M  V30 31304 H 2847.38 -3.09158 -2.66243 0
M  V30 31305 H 2846.06 -3.77873 -1.73737 0
M  V30 31306 H 2844.64 -2.35589 -2.89054 0
M  V30 31307 N 2846.82 0.665425 -1.42863 0
M  V30 31308 C 2847.77 1.77871 -1.47073 0
M  V30 31309 C 2848.74 1.62955 -0.321682 0
M  V30 31310 O 2849.92 1.83375 -0.527102 0
M  V30 31311 C 2847.06 3.1596 -1.38793 0
M  V30 31312 C 2846.18 3.42096 -2.63807 0
M  V30 31313 C 2845.31 4.69964 -2.47603 0
M  V30 31314 C 2844.35 4.89166 -3.67944 0
M  V30 31315 N 2843.49 6.08282 -3.50625 0
M  V30 31316 H 2848.33 1.73608 -2.42207 0
M  V30 31317 H 2845.86 0.84738 -1.20241 0
M  V30 31318 H 2847.82 3.95771 -1.31989 0
M  V30 31319 H 2846.45 3.19323 -0.472487 0
M  V30 31320 H 2845.5 2.5647 -2.8094 0
M  V30 31321 H 2846.82 3.52175 -3.53234 0
M  V30 31322 H 2845.97 5.57882 -2.38437 0
M  V30 31323 H 2844.71 4.62185 -1.5568 0
M  V30 31324 H 2843.71 3.99687 -3.77532 0
M  V30 31325 H 2844.94 4.98784 -4.60859 0
M  V30 31326 H 2842.88 6.01658 -2.61427 0
M  V30 31327 H 2842.8 6.19264 -4.33645 0
M  V30 31328 H 2844.07 6.98853 -3.45289 0
M  V30 31329 N 2848.3 1.29191 0.902633 0
M  V30 31330 C 2849.23 1.1662 2.02292 0
M  V30 31331 C 2850.21 0.0611474 1.6999 0
M  V30 31332 O 2851.39 0.240106 1.9271 0
M  V30 31333 C 2848.52 0.838879 3.37016 0
M  V30 31334 C 2847.48 1.89993 3.83519 0
M  V30 31335 C 2846.8 1.42598 5.15335 0
M  V30 31336 C 2848.1 3.30832 4.04163 0
M  V30 31337 H 2849.8 2.10339 2.13067 0
M  V30 31338 H 2847.34 1.01268 1.02376 0
M  V30 31339 H 2849.3 0.737657 4.14893 0
M  V30 31340 H 2848.02 -0.134013 3.26325 0
M  V30 31341 H 2846.68 1.99048 3.07856 0
M  V30 31342 H 2846.33 0.441847 5.01056 0
M  V30 31343 H 2846.03 2.13556 5.47419 0
M  V30 31344 H 2847.55 1.3382 5.95755 0
M  V30 31345 H 2848.97 3.24634 4.72531 0
M  V30 31346 H 2847.36 3.99721 4.47597 0
M  V30 31347 H 2848.43 3.74026 3.08597 0
M  V30 31348 N 2849.78 -1.1126 1.1162 0
M  V30 31349 C 2851.19 -1.35051 0.850492 0
M  V30 31350 C 2851.39 -1.94572 -0.523833 0
M  V30 31351 O 2850.45 -2.17988 -1.27427 0
M  V30 31352 C 2851.76 -2.28037 1.96009 0
M  V30 31353 C 2853.31 -2.41597 1.98998 0
M  V30 31354 C 2853.78 -3.37906 3.09166 0
M  V30 31355 N 2855.28 -3.4547 3.08553 0
M  V30 31356 C 2856.01 -4.19936 3.90437 0
M  V30 31357 N 2855.51 -4.97363 4.82288 0
M  V30 31358 N 2857.3 -4.15467 3.78607 0
M  V30 31359 H 2849.45 -0.709897 2.00185 0
M  V30 31360 H 2851.71 -0.375084 0.870641 0
M  V30 31361 H 2851.42 -1.91498 2.94994 0
M  V30 31362 H 2851.29 -3.28272 1.85788 0
M  V30 31363 H 2853.68 -2.7741 1.00638 0
M  V30 31364 H 2853.76 -1.41207 2.13294 0
M  V30 31365 H 2853.41 -3.0282 4.07753 0
M  V30 31366 H 2853.34 -4.38155 2.92109 0
M  V30 31367 H 2855.83 -2.90245 2.42005 0
M  V30 31368 H 2856.14 -5.51557 5.41299 0
M  V30 31369 H 2854.48 -4.96517 4.86309 0
M  V30 31370 H 2857.68 -3.54069 3.06191 0
M  V30 31371 H 2857.85 -4.73245 4.42655 0
M  V30 31372 N 2851.25 -0.906798 -1.28899 0
M  V30 31373 C 2852.67 -0.603928 -1.47732 0
M  V30 31374 C 2852.87 0.85267 -1.8257 0
M  V30 31375 O 2851.93 1.6323 -1.92645 0
M  V30 31376 C 2853.24 -1.53585 -2.58519 0
M  V30 31377 C 2854.79 -1.54182 -2.72391 0
M  V30 31378 C 2855.26 -2.4602 -3.86314 0
M  V30 31379 N 2856.75 -2.44107 -3.93657 0
M  V30 31380 C 2857.49 -3.11868 -4.81172 0
M  V30 31381 N 2856.98 -3.88933 -5.73326 0
M  V30 31382 N 2858.78 -3.0099 -4.74723 0
M  V30 31383 H 2850.93 -1.84879 -1.04564 0
M  V30 31384 H 2853.19 -0.792588 -0.520104 0
M  V30 31385 H 2852.9 -2.574 -2.39662 0
M  V30 31386 H 2852.77 -1.26171 -3.55472 0
M  V30 31387 H 2855.16 -0.511086 -2.90641 0
M  V30 31388 H 2855.24 -1.85637 -1.7599 0
M  V30 31389 H 2854.88 -3.49191 -3.68819 0
M  V30 31390 H 2854.81 -2.11871 -4.82098 0
M  V30 31391 H 2857.3 -1.88121 -3.27748 0
M  V30 31392 H 2857.62 -4.37674 -6.36915 0
M  V30 31393 H 2855.96 -3.93039 -5.73189 0
M  V30 31394 H 2859.15 -2.40293 -4.01717 0
M  V30 31395 H 2859.33 -3.54072 -5.42713 0
M  V30 31396 N 2852.73 1.42648 -0.670032 0
M  V30 31397 C 2853.98 2.01205 -0.189945 0
M  V30 31398 C 2854.3 1.53223 1.20614 0
M  V30 31399 O 2853.57 0.751888 1.80896 0
M  V30 31400 H 2852.15 0.743968 -0.067232 0
M  V30 31401 H 2854.81 1.7463 -0.865473 0
M  V30 31402 H 2853.91 3.11536 -0.187536 0
M  V30 31403 N 2854.21 0.413044 1.52091 0
M  V30 31404 C 2855.16 -0.425159 2.28681 0
M  V30 31405 C 2856.15 -1.04239 1.33531 0
M  V30 31406 O 2857.36 -0.980139 1.50974 0
M  V30 31407 H 2853.73 -0.155893 0.735664 0
M  V30 31408 H 2855.71 0.241978 2.97417 0
M  V30 31409 C 2854.45 -1.52745 3.12353 0
M  V30 31410 H 2853.78 -1.06184 3.85441 0
M  V30 31411 H 2855.22 -2.08768 3.69042 0
M  V30 31412 C 2853.68 -2.49702 2.26165 0
M  V30 31413 O 2854.21 -3.53678 1.90459 0
M  V30 31414 N 2852.41 -2.20005 1.89858 0
M  V30 31415 H 2851.96 -1.35482 2.19095 0
M  V30 31416 H 2851.92 -2.85123 1.32485 0
M  V30 31417 N 2855.69 -1.56945 0.143591 0
M  V30 31418 C 2856.6 -2.20154 -0.810524 0
M  V30 31419 C 2857.62 -1.18482 -1.27428 0
M  V30 31420 O 2858.79 -1.51046 -1.33218 0
M  V30 31421 C 2855.86 -2.80803 -2.03349 0
M  V30 31422 C 2854.92 -3.9759 -1.61929 0
M  V30 31423 C 2854.15 -4.55337 -2.78395 0
M  V30 31424 O 2854.37 -4.11965 -3.94514 0
M  V30 31425 O 2853.31 -5.45651 -2.54063 0
M  V30 31426 H 2857.13 -3.0219 -0.302477 0
M  V30 31427 H 2854.72 -1.49168 -0.0832663 0
M  V30 31428 H 2856.6 -3.19364 -2.74926 0
M  V30 31429 H 2855.28 -2.01782 -2.53112 0
M  V30 31430 H 2854.18 -3.63751 -0.87384 0
M  V30 31431 H 2855.52 -4.7812 -1.16884 0
M  V30 31432 N 2857.17 0.130197 -1.57061 0
M  V30 31433 C 2858.4 0.854423 -1.88434 0
M  V30 31434 C 2858.81 1.73963 -0.733639 0
M  V30 31435 O 2858.17 1.80084 0.295997 0
M  V30 31436 C 2858.22 1.69718 -3.19183 0
M  V30 31437 O 2857.94 0.847629 -4.29822 0
M  V30 31438 C 2859.44 2.52754 -3.64184 0
M  V30 31439 H 2856.66 0.24621 -0.624197 0
M  V30 31440 H 2859.2 0.117944 -2.0416 0
M  V30 31441 H 2857.36 2.38654 -3.05161 0
M  V30 31442 H 2857.77 1.42783 -5.04691 0
M  V30 31443 H 2859.25 3.07435 -4.58462 0
M  V30 31444 H 2859.72 3.29587 -2.90291 0
M  V30 31445 H 2860.33 1.8908 -3.80958 0
M  V30 31446 N 2858.65 1.52438 0.400055 0
M  V30 31447 C 2859.87 1.71098 1.17218 0
M  V30 31448 C 2860.3 0.423597 1.83268 0
M  V30 31449 O 2859.65 -0.619721 1.70379 0
M  V30 31450 C 2859.7 2.8539 2.2042 0
M  V30 31451 O 2858.81 2.51592 3.26765 0
M  V30 31452 H 2858.15 0.569297 0.341756 0
M  V30 31453 H 2860.68 1.99182 0.467737 0
M  V30 31454 H 2860.69 3.10566 2.646 0
M  V30 31455 H 2859.36 3.78789 1.7173 0
M  V30 31456 H 2857.94 2.37119 2.878 0
M  V30 31457 N 2860.12 -0.657839 1.43214 0
M  V30 31458 C 2861.37 -1.41778 1.44586 0
M  V30 31459 C 2861.7 -1.94379 0.0684549 0
M  V30 31460 O 2860.95 -1.72414 -0.925842 0
M  V30 31461 C 2861.25 -2.61943 2.43147 0
M  V30 31462 C 2860.92 -2.27787 3.89132 0
M  V30 31463 C 2859.58 -2.18184 4.28893 0
M  V30 31464 C 2861.93 -2.00367 4.81147 0
M  V30 31465 C 2859.26 -1.7931 5.58628 0
M  V30 31466 C 2861.61 -1.62992 6.11242 0
M  V30 31467 C 2860.28 -1.51911 6.49984 0
M  V30 31468 H 2859.55 -0.518804 0.529078 0
M  V30 31469 H 2862.19 -0.748546 1.76264 0
M  V30 31470 H 2860.5 -3.33978 2.04857 0
M  V30 31471 H 2862.2 -3.20149 2.41466 0
M  V30 31472 H 2858.79 -2.3617 3.57661 0
M  V30 31473 H 2862.97 -2.0671 4.51204 0
M  V30 31474 H 2858.23 -1.69313 5.87489 0
M  V30 31475 H 2862.4 -1.40805 6.82017 0
M  V30 31476 H 2860.03 -1.21559 7.50418 0
M  V30 31477 N 2861.6 -1.29668 -0.895769 0
M  V30 31478 C 2862.85 -1.18042 -1.64906 0
M  V30 31479 C 2863.18 0.266648 -1.92361 0
M  V30 31480 O 2862.46 1.19211 -1.53684 0
M  V30 31481 C 2862.74 -1.99824 -2.9957 0
M  V30 31482 C 2862.59 -3.52692 -2.79156 0
M  V30 31483 C 2863.91 -1.82768 -4.00355 0
M  V30 31484 H 2861.03 -0.430175 -0.59843 0
M  V30 31485 H 2863.67 -1.59184 -1.03733 0
M  V30 31486 H 2861.82 -1.64865 -3.51784 0
M  V30 31487 H 2863.49 -3.97654 -2.33814 0
M  V30 31488 H 2861.74 -3.77418 -2.13864 0
M  V30 31489 H 2862.41 -4.05193 -3.74864 0
M  V30 31490 H 2864.88 -2.1331 -3.57265 0
M  V30 31491 H 2863.76 -2.42334 -4.92509 0
M  V30 31492 H 2864.02 -0.783916 -4.35094 0
M  V30 31493 N 2863.08 1.10667 -1.12208 0
M  V30 31494 C 2864.49 1.64084 -0.890685 0
M  V30 31495 C 2864.84 1.87571 0.575469 0
M  V30 31496 O 2863.97 1.61589 1.43937 0
M  V30 31497 C 2864.56 2.98083 -1.61035 0
M  V30 31498 C 2863.12 3.48376 -1.42516 0
M  V30 31499 C 2862.27 2.2303 -1.64782 0
M  V30 31500 H 2865.22 0.941987 -1.2772 0
M  V30 31501 H 2865.24 3.65437 -1.06 0
M  V30 31502 H 2864.75 2.80957 -2.6774 0
M  V30 31503 H 2862.85 3.70651 -0.380562 0
M  V30 31504 H 2862.97 4.26647 -2.17966 0
M  V30 31505 H 2861.33 2.31053 -1.07175 0
M  V30 31506 H 2862.11 2.08438 -2.72779 0
M  V30 31507 N 2864.56 0.913621 1.28416 0
M  V30 31508 C 2865.78 0.561934 1.99642 0
M  V30 31509 C 2866.21 -0.849578 1.67821 0
M  V30 31510 O 2865.57 -1.56777 0.910531 0
M  V30 31511 C 2865.61 0.777684 3.52114 0
M  V30 31512 O 2864.72 -0.163385 4.12076 0
M  V30 31513 H 2864.06 0.217909 0.627226 0
M  V30 31514 H 2866.59 1.22902 1.63573 0
M  V30 31515 H 2866.6 0.687737 4.02162 0
M  V30 31516 H 2865.27 1.80667 3.7461 0
M  V30 31517 H 2863.85 -0.0247172 3.72892 0
M  V30 31518 N 2866.04 -1.4229 0.677588 0
M  V30 31519 C 2867.45 -1.55773 0.347403 0
M  V30 31520 C 2867.65 -1.65669 -1.147 0
M  V30 31521 O 2866.71 -1.62515 -1.93249 0
M  V30 31522 C 2868.02 -2.8063 1.08016 0
M  V30 31523 C 2869.57 -2.94405 1.06276 0
M  V30 31524 C 2870.04 -4.22126 1.7769 0
M  V30 31525 N 2871.53 -4.29044 1.74572 0
M  V30 31526 C 2872.27 -5.2669 2.26683 0
M  V30 31527 N 2871.77 -6.30472 2.87187 0
M  V30 31528 N 2873.56 -5.18507 2.17041 0
M  V30 31529 H 2865.71 -1.34111 1.64706 0
M  V30 31530 H 2867.97 -0.645755 0.694049 0
M  V30 31531 H 2867.68 -2.79465 2.13523 0
M  V30 31532 H 2867.55 -3.71607 0.64718 0
M  V30 31533 H 2869.94 -2.95096 0.0160177 0
M  V30 31534 H 2870.02 -2.04651 1.53465 0
M  V30 31535 H 2869.66 -4.22196 2.82334 0
M  V30 31536 H 2869.59 -5.1082 1.27949 0
M  V30 31537 H 2872.09 -3.54673 1.30443 0
M  V30 31538 H 2872.4 -7.0134 3.24564 0
M  V30 31539 H 2870.74 -6.31026 2.91258 0
M  V30 31540 H 2873.93 -4.3635 1.69459 0
M  V30 31541 H 2874.11 -5.94442 2.57959 0
M  V30 31542 N 2867.51 -0.421104 -1.5187 0
M  V30 31543 C 2868.93 -0.0725678 -1.59435 0
M  V30 31544 C 2869.13 1.41641 -1.43318 0
M  V30 31545 O 2868.19 2.18459 -1.26618 0
M  V30 31546 C 2869.5 -0.578184 -2.95089 0
M  V30 31547 C 2871.05 -0.537203 -3.08356 0
M  V30 31548 C 2871.52 -1.01952 -4.46508 0
M  V30 31549 N 2873.01 -0.976837 -4.52783 0
M  V30 31550 C 2873.75 -1.32109 -5.57974 0
M  V30 31551 N 2873.24 -1.73739 -6.70661 0
M  V30 31552 N 2875.04 -1.24029 -5.48246 0
M  V30 31553 H 2867.19 -1.3901 -1.60593 0
M  V30 31554 H 2869.45 -0.571816 -0.756128 0
M  V30 31555 H 2869.16 -1.61935 -3.12202 0
M  V30 31556 H 2869.03 0.00571743 -3.772 0
M  V30 31557 H 2871.42 0.49494 -2.9092 0
M  V30 31558 H 2871.5 -1.15731 -2.28123 0
M  V30 31559 H 2871.14 -2.05005 -4.64688 0
M  V30 31560 H 2871.07 -0.376116 -5.25255 0
M  V30 31561 H 2873.56 -0.670916 -3.71897 0
M  V30 31562 H 2873.88 -1.98287 -7.46929 0
M  V30 31563 H 2872.22 -1.77653 -6.71911 0
M  V30 31564 H 2875.41 -0.913836 -4.59093 0
M  V30 31565 H 2875.59 -1.51187 -6.30116 0
M  V30 31566 N 2868.99 1.56866 -0.151912 0
M  V30 31567 C 2870.22 2.01082 0.508009 0
M  V30 31568 C 2870.64 1.03136 1.57304 0
M  V30 31569 O 2870 0.00786277 1.81298 0
M  V30 31570 C 2870.05 3.44016 1.081 0
M  V30 31571 O 2869.15 3.49088 2.19571 0
M  V30 31572 H 2868.49 0.652367 0.123745 0
M  V30 31573 H 2871.02 2.03066 -0.250091 0
M  V30 31574 H 2871.03 3.82919 1.40844 0
M  V30 31575 H 2869.71 4.14809 0.301095 0
M  V30 31576 H 2868.29 3.22031 1.88017 0
M  V30 31577 N 2870.47 -0.121866 1.57128 0
M  V30 31578 C 2871.72 -0.828516 1.84337 0
M  V30 31579 C 2872.04 -1.8055 0.736663 0
M  V30 31580 O 2871.31 -1.94429 -0.239585 0
M  V30 31581 H 2869.89 -0.308958 0.680113 0
M  V30 31582 H 2872.55 -0.109871 1.9459 0
M  V30 31583 H 2871.65 -1.37549 2.80155 0
M  V30 31584 N 2871.95 -1.52648 -0.391965 0
M  V30 31585 C 2873.2 -1.67216 -1.13504 0
M  V30 31586 C 2873.52 -0.413073 -1.90575 0
M  V30 31587 O 2872.79 0.572465 -1.87349 0
M  V30 31588 H 2871.37 -0.616379 -0.422002 0
M  V30 31589 H 2874.03 -1.89752 -0.444986 0
M  V30 31590 H 2873.13 -2.52122 -1.8396 0
M  V30 31591 N 2873.43 0.650235 -1.43561 0
M  V30 31592 C 2874.84 0.966246 -1.27027 0
M  V30 31593 C 2875.04 2.00582 -0.192152 0
M  V30 31594 O 2874.1 2.48839 0.428415 0
M  V30 31595 C 2875.41 1.44767 -2.63558 0
M  V30 31596 C 2876.96 1.56416 -2.71114 0
M  V30 31597 C 2877.43 2.07949 -4.0807 0
M  V30 31598 N 2878.93 2.15247 -4.1015 0
M  V30 31599 C 2879.66 2.56249 -5.12956 0
M  V30 31600 N 2879.16 2.96526 -6.26134 0
M  V30 31601 N 2880.95 2.56215 -5.0031 0
M  V30 31602 H 2873.1 -0.0376131 -2.12367 0
M  V30 31603 H 2875.36 0.0457616 -0.946895 0
M  V30 31604 H 2875.07 0.758211 -3.4343 0
M  V30 31605 H 2874.94 2.42216 -2.89156 0
M  V30 31606 H 2877.33 2.24463 -1.91573 0
M  V30 31607 H 2877.41 0.573923 -2.49278 0
M  V30 31608 H 2877.06 1.40503 -4.88079 0
M  V30 31609 H 2876.99 3.07809 -4.27272 0
M  V30 31610 H 2879.48 1.86882 -3.28456 0
M  V30 31611 H 2879.79 3.2657 -7.00408 0
M  V30 31612 H 2878.13 2.94323 -6.29602 0
M  V30 31613 H 2881.33 2.24128 -4.10956 0
M  V30 31614 H 2881.5 2.87847 -5.80558 0
M  V30 31615 N 2874.9 1.30141 0.88888 0
M  V30 31616 C 2876.32 1.08387 1.17151 0
M  V30 31617 C 2876.52 -0.15789 2.0088 0
M  V30 31618 O 2875.58 -0.852611 2.3767 0
M  V30 31619 C 2876.89 2.34527 1.88196 0
M  V30 31620 C 2878.44 2.39952 2.00977 0
M  V30 31621 C 2878.91 3.65923 2.75435 0
M  V30 31622 N 2880.4 3.66708 2.82983 0
M  V30 31623 C 2881.14 4.60867 3.41158 0
M  V30 31624 N 2880.63 5.65367 4.00415 0
M  V30 31625 N 2882.43 4.48418 3.38936 0
M  V30 31626 H 2874.58 2.09813 0.330493 0
M  V30 31627 H 2876.84 0.924686 0.208948 0
M  V30 31628 H 2876.55 3.25125 1.34114 0
M  V30 31629 H 2876.42 2.42873 2.88605 0
M  V30 31630 H 2878.81 1.49835 2.54231 0
M  V30 31631 H 2878.89 2.35584 0.996684 0
M  V30 31632 H 2878.53 4.56398 2.22853 0
M  V30 31633 H 2878.46 3.67552 3.77111 0
M  V30 31634 H 2880.95 2.91157 2.40907 0
M  V30 31635 H 2881.27 6.3332 4.4286 0
M  V30 31636 H 2879.61 5.69164 3.98846 0
M  V30 31637 H 2882.8 3.65965 2.91869 0
M  V30 31638 H 2882.98 5.21981 3.83979 0
M  V30 31639 N 2876.38 -1.1007 1.12794 0
M  V30 31640 C 2877.63 -1.82379 0.886889 0
M  V30 31641 C 2877.96 -1.85156 -0.585728 0
M  V30 31642 O 2877.24 -1.31495 -1.43315 0
M  V30 31643 C 2877.52 -3.28859 1.46709 0
M  V30 31644 C 2877.37 -3.34393 3.00835 0
M  V30 31645 C 2878.69 -4.25351 1.12979 0
M  V30 31646 H 2875.81 -0.662142 0.323631 0
M  V30 31647 H 2878.45 -1.28979 1.39515 0
M  V30 31648 H 2876.6 -3.74464 1.03482 0
M  V30 31649 H 2878.27 -2.9724 3.52769 0
M  V30 31650 H 2876.52 -2.74177 3.36169 0
M  V30 31651 H 2877.19 -4.37554 3.36527 0
M  V30 31652 H 2879.66 -3.87999 1.5032 0
M  V30 31653 H 2878.54 -5.26196 1.56232 0
M  V30 31654 H 2878.8 -4.4208 0.0425229 0
M  V30 31655 N 2877.86 -0.920419 -1.2793 0
M  V30 31656 C 2879.11 -0.552901 -1.93974 0
M  V30 31657 C 2879.42 0.909004 -1.73195 0
M  V30 31658 O 2880.63 1.38498 -2.33518 0
M  V30 31659 C 2879.08 -0.938008 -3.47461 0
M  V30 31660 C 2878.69 -2.4201 -3.77008 0
M  V30 31661 C 2880.44 -0.641394 -4.19626 0
M  V30 31662 C 2878.34 -2.74498 -5.23836 0
M  V30 31663 H 2877.27 -0.203059 -0.726143 0
M  V30 31664 H 2879.92 -1.12024 -1.45337 0
M  V30 31665 H 2878.31 -0.299386 -3.94867 0
M  V30 31666 H 2879.48 -3.10601 -3.40387 0
M  V30 31667 H 2877.8 -2.68785 -3.18031 0
M  V30 31668 H 2880.39 -0.860714 -5.27727 0
M  V30 31669 H 2880.74 0.421095 -4.14165 0
M  V30 31670 H 2881.27 -1.23878 -3.7802 0
M  V30 31671 H 2878.01 -3.79627 -5.34381 0
M  V30 31672 H 2877.53 -2.1055 -5.6163 0
M  V30 31673 H 2879.21 -2.61855 -5.91643 0
M  V30 31674 N 2879.34 1.41929 -0.685124 0
M  V30 31675 C 2880.25 2.34596 -0.0134453 0
M  V30 31676 C 2881.26 1.5566 0.777562 0
M  V30 31677 O 2882.44 1.88185 0.71752 0
M  V30 31678 C 2879.51 3.34299 0.918972 0
M  V30 31679 C 2878.57 4.29128 0.121342 0
M  V30 31680 C 2877.8 5.24069 1.00935 0
M  V30 31681 O 2878.02 5.24196 2.24889 0
M  V30 31682 O 2876.96 6.00104 0.464618 0
M  V30 31683 H 2880.78 2.93591 -0.777029 0
M  V30 31684 H 2878.37 1.42606 -0.445404 0
M  V30 31685 H 2880.25 3.95523 1.45395 0
M  V30 31686 H 2878.92 2.77762 1.66223 0
M  V30 31687 H 2877.83 3.71286 -0.457986 0
M  V30 31688 H 2879.16 4.88735 -0.583023 0
M  V30 31689 N 2880.82 0.429152 1.51644 0
M  V30 31690 C 2881.76 -0.400881 2.29119 0
M  V30 31691 C 2882.76 -1.02817 1.34629 0
M  V30 31692 O 2883.96 -0.964071 1.52005 0
M  V30 31693 H 2880.34 -0.148082 0.737276 0
M  V30 31694 H 2882.31 0.27351 2.97144 0
M  V30 31695 C 2881.06 -1.49423 3.13955 0
M  V30 31696 H 2880.38 -1.0209 3.86546 0
M  V30 31697 H 2881.82 -2.04842 3.71235 0
M  V30 31698 C 2880.28 -2.47289 2.28801 0
M  V30 31699 O 2880.81 -3.51638 1.94199 0
M  V30 31700 N 2879.02 -2.17979 1.92181 0
M  V30 31701 H 2878.56 -1.33151 2.20519 0
M  V30 31702 H 2878.52 -2.83702 1.35502 0
M  V30 31703 N 2882.29 -1.56783 0.160229 0
M  V30 31704 C 2883.26 -2.1622 -0.760367 0
M  V30 31705 C 2884.26 -1.10737 -1.16593 0
M  V30 31706 O 2885.45 -1.36308 -1.0847 0
M  V30 31707 C 2882.58 -2.73606 -2.03353 0
M  V30 31708 H 2883.77 -2.98913 -0.24312 0
M  V30 31709 H 2881.33 -1.56045 -0.0892864 0
M  V30 31710 H 2882.06 -1.94616 -2.59413 0
M  V30 31711 H 2881.85 -3.50791 -1.7518 0
M  V30 31712 H 2883.34 -3.19356 -2.69075 0
M  V30 31713 N 2883.77 0.113531 -1.57191 0
M  V30 31714 C 2885.05 0.850968 -1.76119 0
M  V30 31715 C 2885.43 1.97812 -0.73712 0
M  V30 31716 O 2884.78 2.27258 0.237902 0
M  V30 31717 C 2884.99 1.3626 -3.21301 0
M  V30 31718 C 2886.34 1.81276 -3.83958 0
M  V30 31719 O 2887.36 1.45927 -3.24937 0
M  V30 31720 O 2886.22 2.46576 -4.87711 0
M  V30 31721 H 2883.31 0.404516 -0.721315 0
M  V30 31722 H 2885.86 0.0968458 -1.69423 0
M  V30 31723 H 2884.63 0.554167 -3.87356 0
M  V30 31724 H 2884.25 2.17928 -3.32556 0
M  V30 31725 N 2885.25 1.52854 0.383864 0
M  V30 31726 C 2886.5 1.67816 1.12616 0
M  V30 31727 C 2886.82 0.423174 1.90353 0
M  V30 31728 O 2886.09 -0.562521 1.8765 0
M  V30 31729 H 2884.67 0.618609 0.418727 0
M  V30 31730 H 2887.33 1.89985 0.434917 0
M  V30 31731 H 2886.43 2.53094 1.8262 0
M  V30 31732 N 2886.73 -0.642612 1.43904 0
M  V30 31733 C 2887.95 -1.43481 1.4976 0
M  V30 31734 C 2888.38 -1.87717 0.119944 0
M  V30 31735 O 2887.74 -1.58034 -0.88853 0
M  V30 31736 C 2887.79 -2.63894 2.45749 0
M  V30 31737 O 2886.89 -3.63327 1.95108 0
M  V30 31738 H 2886.23 -0.429782 0.506146 0
M  V30 31739 H 2888.76 -0.785404 1.88925 0
M  V30 31740 H 2888.77 -3.1158 2.63405 0
M  V30 31741 H 2887.45 -2.3104 3.45822 0
M  V30 31742 H 2886.02 -3.22528 1.87163 0
M  V30 31743 N 2888.21 -1.30611 -0.881966 0
M  V30 31744 C 2889.12 -1.19178 -2.02074 0
M  V30 31745 C 2890.13 -0.11105 -1.73645 0
M  V30 31746 O 2891.31 -0.326563 -1.98735 0
M  V30 31747 C 2888.37 -0.887496 -3.35148 0
M  V30 31748 C 2887.44 -2.0539 -3.76979 0
M  V30 31749 C 2886.67 -1.76404 -5.03704 0
M  V30 31750 O 2886.89 -0.693401 -5.6617 0
M  V30 31751 O 2885.83 -2.61733 -5.42014 0
M  V30 31752 H 2889.65 -2.14849 -2.14648 0
M  V30 31753 H 2887.24 -1.10233 -1.00841 0
M  V30 31754 H 2889.12 -0.733133 -4.14974 0
M  V30 31755 H 2887.79 0.0392785 -3.23676 0
M  V30 31756 H 2886.7 -2.2636 -2.97845 0
M  V30 31757 H 2888.03 -2.9625 -3.93061 0
M  V30 31758 N 2889.69 1.0947 -1.13376 0
M  V30 31759 C 2890.6 2.1965 -0.824068 0
M  V30 31760 C 2891.61 1.72947 0.191149 0
M  V30 31761 O 2892.79 2.01388 0.022311 0
M  V30 31762 C 2889.85 3.45451 -0.29407 0
M  V30 31763 C 2888.91 4.06837 -1.37047 0
M  V30 31764 C 2888.15 5.26633 -0.865672 0
M  V30 31765 O 2888.37 5.69627 0.29692 0
M  V30 31766 O 2887.3 5.79133 -1.63978 0
M  V30 31767 H 2891.13 2.48592 -1.74458 0
M  V30 31768 H 2888.71 1.18397 -0.911176 0
M  V30 31769 H 2890.6 4.214 -0.00388446 0
M  V30 31770 H 2889.27 3.18112 0.598865 0
M  V30 31771 H 2888.18 3.32527 -1.71397 0
M  V30 31772 H 2889.51 4.38401 -2.23754 0
M  V30 31773 N 2891.16 0.92719 1.2744 0
M  V30 31774 C 2892.07 0.431488 2.30598 0
M  V30 31775 C 2893.09 -0.48758 1.67029 0
M  V30 31776 O 2894.27 -0.370512 1.97963 0
M  V30 31777 C 2891.33 -0.308231 3.45327 0
M  V30 31778 C 2890.39 0.64569 4.24416 0
M  V30 31779 C 2889.62 -0.0588226 5.33668 0
M  V30 31780 O 2889.85 -1.27828 5.55892 0
M  V30 31781 O 2888.78 0.612743 5.98773 0
M  V30 31782 H 2892.61 1.28802 2.75034 0
M  V30 31783 H 2890.19 0.692518 1.3238 0
M  V30 31784 H 2892.07 -0.725482 4.15108 0
M  V30 31785 H 2890.75 -1.14038 3.02947 0
M  V30 31786 H 2889.66 1.11261 3.57172 0
M  V30 31787 H 2890.99 1.44504 4.7051 0
M  V30 31788 N 2892.64 -1.41564 0.692641 0
M  V30 31789 C 2893.87 -2.05603 0.231315 0
M  V30 31790 C 2894.28 -1.52113 -1.11835 0
M  V30 31791 O 2893.64 -0.66816 -1.69829 0
M  V30 31792 C 2893.69 -3.61065 0.177189 0
M  V30 31793 O 2893.41 -4.12576 1.47353 0
M  V30 31794 C 2894.91 -4.42246 -0.305482 0
M  V30 31795 H 2892.13 -0.662211 0.10825 0
M  V30 31796 H 2894.68 -1.81387 0.944401 0
M  V30 31797 H 2892.83 -3.84331 -0.486701 0
M  V30 31798 H 2893.25 -5.06596 1.3587 0
M  V30 31799 H 2894.72 -5.51226 -0.292233 0
M  V30 31800 H 2895.2 -4.18135 -1.34386 0
M  V30 31801 H 2895.8 -4.24039 0.327304 0
M  V30 31802 N 2894.12 -0.437188 -1.51415 0
M  V30 31803 C 2895.4 0.189258 -1.94682 0
M  V30 31804 C 2895.78 1.60106 -1.37584 0
M  V30 31805 O 2895.12 2.21459 -0.562854 0
M  V30 31806 C 2895.33 0.167139 -3.486 0
M  V30 31807 C 2896.68 0.372782 -4.2296 0
M  V30 31808 O 2897.71 0.24526 -3.55355 0
M  V30 31809 O 2896.57 0.626598 -5.42896 0
M  V30 31810 H 2893.66 0.130049 -0.816711 0
M  V30 31811 H 2896.21 -0.495156 -1.62315 0
M  V30 31812 H 2894.98 -0.819878 -3.82614 0
M  V30 31813 H 2894.6 0.894469 -3.87408 0
M  V30 31814 N 2895.6 1.56696 -0.168541 0
M  V30 31815 C 2896.83 2.01172 0.483468 0
M  V30 31816 C 2897.24 1.04875 1.56992 0
M  V30 31817 O 2896.6 0.0491658 1.82434 0
M  V30 31818 C 2896.65 3.45476 1.06434 0
M  V30 31819 O 2896.37 4.38095 0.0212604 0
M  V30 31820 C 2897.87 4.05339 1.79485 0
M  V30 31821 H 2895.09 0.659445 0.123991 0
M  V30 31822 H 2897.63 2.02717 -0.269455 0
M  V30 31823 H 2895.79 3.44715 1.76778 0
M  V30 31824 H 2896.2 5.22568 0.449745 0
M  V30 31825 H 2897.68 5.08242 2.15392 0
M  V30 31826 H 2898.15 3.47273 2.68883 0
M  V30 31827 H 2898.76 4.09795 1.1379 0
M  V30 31828 N 2897.08 -0.105193 1.57249 0
M  V30 31829 C 2898.49 -0.459127 1.52853 0
M  V30 31830 C 2898.69 -1.81088 0.883706 0
M  V30 31831 O 2897.75 -2.48051 0.471908 0
M  V30 31832 C 2899.06 -0.430908 2.97596 0
M  V30 31833 C 2900.61 -0.513482 3.08759 0
M  V30 31834 C 2901.08 -0.515514 4.5509 0
M  V30 31835 N 2902.57 -0.576558 4.59598 0
M  V30 31836 C 2903.31 -0.599804 5.70254 0
M  V30 31837 N 2902.81 -0.579863 6.90369 0
M  V30 31838 N 2904.6 -0.643855 5.584 0
M  V30 31839 H 2896.75 0.780341 1.97546 0
M  V30 31840 H 2899.01 0.289379 0.902753 0
M  V30 31841 H 2898.72 0.494964 3.482 0
M  V30 31842 H 2898.59 -1.25363 3.55758 0
M  V30 31843 H 2900.98 -1.42977 2.5815 0
M  V30 31844 H 2901.06 0.337192 2.53568 0
M  V30 31845 H 2900.7 0.39679 5.06348 0
M  V30 31846 H 2900.63 -1.38326 5.08108 0
M  V30 31847 H 2903.13 -0.597573 3.73145 0
M  V30 31848 H 2903.44 -0.600606 7.70463 0
M  V30 31849 H 2901.78 -0.54707 6.92844 0
M  V30 31850 H 2904.97 -0.656893 4.63468 0
M  V30 31851 H 2905.15 -0.658503 6.44645 0
M  V30 31852 N 2898.55 -1.53055 -0.375752 0
M  V30 31853 C 2899.83 -1.59338 -1.1345 0
M  V30 31854 C 2900.21 -0.394651 -2.07378 0
M  V30 31855 O 2899.56 0.615962 -2.20041 0
M  V30 31856 C 2899.77 -2.93872 -1.88255 0
M  V30 31857 C 2901.12 -3.48086 -2.43149 0
M  V30 31858 O 2902.14 -2.95834 -1.98395 0
M  V30 31859 O 2901 -4.39407 -3.24937 0
M  V30 31860 H 2898.09 -0.643188 -0.519845 0
M  V30 31861 H 2900.64 -1.65394 -0.379836 0
M  V30 31862 H 2899.41 -3.7256 -1.19645 0
M  V30 31863 H 2899.04 -2.91261 -2.70653 0
M  V30 31864 N 2900.03 0.634971 -1.44242 0
M  V30 31865 C 2901 1.729 -1.5046 0
M  V30 31866 C 2902 1.56071 -0.387085 0
M  V30 31867 O 2903.19 1.61637 -0.649559 0
M  V30 31868 C 2900.32 3.11948 -1.37483 0
M  V30 31869 H 2901.51 1.68763 -2.4791 0
M  V30 31870 H 2899.06 0.848287 -1.31278 0
M  V30 31871 H 2899.8 3.21684 -0.411116 0
M  V30 31872 H 2899.58 3.25569 -2.18511 0
M  V30 31873 H 2901.07 3.9169 -1.44806 0
M  V30 31874 N 2901.51 1.31076 0.875027 0
M  V30 31875 C 2902.79 1.11116 1.60974 0
M  V30 31876 C 2903.17 -0.335969 2.08409 0
M  V30 31877 O 2902.52 -1.32921 1.85861 0
M  V30 31878 C 2902.73 2.12089 2.77163 0
M  V30 31879 C 2904.07 2.44341 3.4725 0
M  V30 31880 O 2905.1 2.10477 2.87364 0
M  V30 31881 O 2903.96 3.02309 4.55271 0
M  V30 31882 H 2901.05 0.427436 0.707974 0
M  V30 31883 H 2903.6 1.42537 0.920932 0
M  V30 31884 H 2902.37 3.09453 2.39488 0
M  V30 31885 H 2901.99 1.81544 3.53734 0
M  V30 31886 N 2902.99 -1.08867 1.13955 0
M  V30 31887 C 2904.24 -1.8116 0.904842 0
M  V30 31888 C 2904.56 -1.85997 -0.568791 0
M  V30 31889 O 2903.82 -1.32826 -1.43721 0
M  V30 31890 C 2904.12 -3.26886 1.44501 0
M  V30 31891 C 2903.78 -3.42173 2.93647 0
M  V30 31892 C 2902.45 -3.46053 3.34367 0
M  V30 31893 C 2904.8 -3.46239 3.89574 0
M  V30 31894 C 2902.13 -3.51583 4.69687 0
M  V30 31895 C 2904.48 -3.53304 5.24746 0
M  V30 31896 C 2903.14 -3.55455 5.64985 0
M  V30 31897 H 2902.41 -0.662911 0.331105 0
M  V30 31898 H 2905.06 -1.28214 1.42244 0
M  V30 31899 H 2903.36 -3.82508 0.848236 0
M  V30 31900 H 2905.06 -3.81366 1.23941 0
M  V30 31901 H 2901.65 -3.39842 2.61162 0
M  V30 31902 H 2905.83 -3.42477 3.59198 0
M  V30 31903 H 2901.09 -3.51539 5.00231 0
M  V30 31904 H 2905.26 -3.55395 5.98888 0
M  V30 31905 H 2902.89 -3.59493 6.69827 0
M  V30 31906 N 2904.47 -0.933936 -1.26946 0
M  V30 31907 C 2905.41 -0.428503 -2.28619 0
M  V30 31908 C 2906.41 0.490436 -1.62145 0
M  V30 31909 O 2907.61 0.369449 -1.76168 0
M  V30 31910 H 2903.99 -0.120016 -0.742361 0
M  V30 31911 H 2905.96 -1.29869 -2.68657 0
M  V30 31912 C 2904.71 0.297679 -3.46423 0
M  V30 31913 H 2904.03 -0.400253 -3.97791 0
M  V30 31914 H 2905.47 0.615663 -4.19506 0
M  V30 31915 C 2903.93 1.5129 -3.0102 0
M  V30 31916 O 2904.46 2.61146 -3.05231 0
M  V30 31917 N 2902.67 1.36692 -2.56444 0
M  V30 31918 H 2902.21 0.473134 -2.53218 0
M  V30 31919 H 2902.17 2.18123 -2.26428 0
M  V30 31920 N 2905.94 1.41194 -0.700139 0
M  V30 31921 C 2907.19 2.00757 -0.232581 0
M  V30 31922 C 2907.51 1.55747 1.17337 0
M  V30 31923 O 2906.78 0.790089 1.79261 0
M  V30 31924 H 2905.36 0.742375 -0.0829976 0
M  V30 31925 H 2908.03 1.72755 -0.902319 0
M  V30 31926 H 2907.12 3.11068 -0.253575 0
M  V30 31927 N 2907.42 0.445212 1.51181 0
M  V30 31928 C 2908.65 -0.117055 2.06569 0
M  V30 31929 C 2909.07 -1.35779 1.31185 0
M  V30 31930 O 2908.42 -1.78634 0.373637 0
M  V30 31931 C 2908.47 -0.431345 3.58917 0
M  V30 31932 O 2908.19 0.760153 4.31455 0
M  V30 31933 C 2909.7 -1.04342 4.30845 0
M  V30 31934 H 2906.92 -0.00443256 0.670985 0
M  V30 31935 H 2909.46 0.626559 1.94665 0
M  V30 31936 H 2907.61 -1.12487 3.7071 0
M  V30 31937 H 2908.03 0.48914 5.22214 0
M  V30 31938 H 2909.5 -1.21328 5.38501 0
M  V30 31939 H 2909.98 -2.0266 3.89648 0
M  V30 31940 H 2910.59 -0.389055 4.23517 0
M  V30 31941 N 2908.9 -1.56605 0.176849 0
M  V30 31942 C 2909.85 -2.1823 -0.751274 0
M  V30 31943 C 2910.82 -1.12397 -1.22295 0
M  V30 31944 O 2912 -1.40571 -1.29013 0
M  V30 31945 C 2909.14 -2.83147 -1.97286 0
M  V30 31946 C 2908.26 -4.03457 -1.54424 0
M  V30 31947 C 2907.39 -4.56283 -2.71992 0
M  V30 31948 C 2906.43 -5.6899 -2.25647 0
M  V30 31949 N 2905.57 -6.16302 -3.36327 0
M  V30 31950 H 2910.41 -2.97194 -0.21898 0
M  V30 31951 H 2907.94 -1.46784 -0.0963545 0
M  V30 31952 H 2909.9 -3.18944 -2.68943 0
M  V30 31953 H 2908.53 -2.06778 -2.47877 0
M  V30 31954 H 2907.58 -3.73443 -0.724207 0
M  V30 31955 H 2908.9 -4.85026 -1.16409 0
M  V30 31956 H 2908.05 -4.94291 -3.51797 0
M  V30 31957 H 2906.79 -3.73782 -3.1327 0
M  V30 31958 H 2905.79 -5.30529 -1.44289 0
M  V30 31959 H 2907.02 -6.53296 -1.8542 0
M  V30 31960 H 2904.96 -5.36729 -3.77171 0
M  V30 31961 H 2904.88 -6.92876 -3.02423 0
M  V30 31962 H 2906.15 -6.58961 -4.16401 0
M  V30 31963 N 2910.38 0.0968524 -1.57302 0
M  V30 31964 C 2911.34 1.10185 -2.00978 0
M  V30 31965 C 2912.34 1.33049 -0.903033 0
M  V30 31966 O 2913.53 1.29192 -1.16855 0
M  V30 31967 C 2910.66 2.45138 -2.36897 0
M  V30 31968 H 2911.86 0.725952 -2.90981 0
M  V30 31969 H 2909.41 0.341845 -1.52516 0
M  V30 31970 H 2910.14 2.87607 -1.49842 0
M  V30 31971 H 2909.93 2.29891 -3.17636 0
M  V30 31972 H 2911.42 3.17425 -2.71351 0
M  V30 31973 N 2911.86 1.53252 0.36763 0
M  V30 31974 C 2913.08 1.73546 1.13562 0
M  V30 31975 C 2913.51 0.462376 1.82329 0
M  V30 31976 O 2912.86 -0.583442 1.71656 0
M  V30 31977 C 2912.91 2.90001 2.14317 0
M  V30 31978 O 2912.02 2.58467 3.21355 0
M  V30 31979 H 2911.36 0.576418 0.329604 0
M  V30 31980 H 2913.89 2.00129 0.425382 0
M  V30 31981 H 2913.9 3.16108 2.57953 0
M  V30 31982 H 2912.57 3.82347 1.63657 0
M  V30 31983 H 2911.15 2.4317 2.82706 0
M  V30 31984 N 2913.34 -0.627313 1.44577 0
M  V30 31985 C 2914.25 -1.76773 1.54235 0
M  V30 31986 C 2915.26 -1.68659 0.427811 0
M  V30 31987 O 2916.44 -1.89368 0.685705 0
M  V30 31988 C 2913.5 -3.13171 1.48744 0
M  V30 31989 C 2912.56 -3.32888 2.71079 0
M  V30 31990 C 2911.8 -4.62779 2.6584 0
M  V30 31991 O 2912.02 -5.43831 1.72057 0
M  V30 31992 O 2910.95 -4.84781 3.5675 0
M  V30 31993 H 2914.78 -1.71577 2.50589 0
M  V30 31994 H 2912.36 -0.789006 1.26866 0
M  V30 31995 H 2914.25 -3.94474 1.48218 0
M  V30 31996 H 2912.92 -3.18901 0.555348 0
M  V30 31997 H 2911.83 -2.5125 2.77172 0
M  V30 31998 H 2913.16 -3.32023 3.63348 0
M  V30 31999 O 2914.85 -1.41916 -0.770846 0
M  V30 32000 H 2915.54 -1.31922 -1.41832 0
M  V30 END ATOM
M  V30 BEGIN BOND
M  V30 END BOND
M  V30 END CTAB
M  END
$$$$
