drugbank_target|P35858 Insulin-like growth factor-binding protein complex acid labile subunit (DB01593; DB09130; DB14487; DB14533; DB14548)
 OpenBabel12092121073D

  0  0  0     0  0            999 V3000
M  V30 BEGIN CTAB
M  V30 COUNTS 9369 9467 0 0 0
M  V30 BEGIN ATOM
M  V30 1 H -0.908 1.98254 -0.117106 0
M  V30 2 N 0 1.576 0 0
M  V30 3 C 0.933 2.03868 1.02534 0
M  V30 4 C 1.911 0.928543 1.3348 0
M  V30 5 O 3.095 1.19667 1.45644 0
M  V30 6 C 0.222 2.43627 2.35294 0
M  V30 7 C -0.732 3.65373 2.2001 0
M  V30 8 S 0.101 5.13292 1.52614 0
M  V30 9 C 1.257 5.56322 2.86805 0
M  V30 10 H 1.49 2.90518 0.631377 0
M  V30 11 H -0.977 1.52953 0.210867 0
M  V30 12 H 0.981 2.67203 3.11629 0
M  V30 13 H -0.358 1.57376 2.7183 0
M  V30 14 H -1.165 3.90944 3.18086 0
M  V30 15 H -1.563 3.418 1.51819 0
M  V30 16 H 0.729 5.58782 3.83104 0
M  V30 17 H 1.672 6.56266 2.65933 0
M  V30 18 H 2.08 4.83886 2.90714 0
M  V30 19 N 1.4781 -0.272755 1.55222 0
M  V30 20 C 2.4411 -1.32041 1.87344 0
M  V30 21 C 3.4411 -1.42342 0.74803 0
M  V30 22 O 4.6311 -1.41488 1.0162 0
M  V30 23 C 1.7631 -2.70173 2.07893 0
M  V30 24 H 2.9561 -1.04789 2.80997 0
M  V30 25 H 0.5091 -0.51083 1.47717 0
M  V30 26 H 1.2441 -3.02605 1.16622 0
M  V30 27 H 1.0291 -2.64082 2.89833 0
M  V30 28 H 2.5191 -3.45869 2.34017 0
M  V30 29 N 2.9562 -1.48159 -0.537278 0
M  V30 30 C 3.8862 -1.65029 -1.6519 0
M  V30 31 C 4.8672 -0.499281 -1.62607 0
M  V30 32 O 6.0522 -0.730972 -1.79918 0
M  V30 33 C 3.1822 -1.68303 -3.03795 0
M  V30 34 C 2.1362 -2.8283 -3.21234 0
M  V30 35 C 1.4622 -2.71189 -4.60826 0
M  V30 36 C 2.7622 -4.24211 -3.04701 0
M  V30 37 H 4.4562 -2.58341 -1.51328 0
M  V30 38 H 2.0022 -1.24325 -0.726585 0
M  V30 39 H 3.9552 -1.78693 -3.81637 0
M  V30 40 H 2.6792 -0.715635 -3.18663 0
M  V30 41 H 1.3382 -2.71983 -2.45807 0
M  V30 42 H 0.9862 -1.72435 -4.7252 0
M  V30 43 H 0.6862 -3.48035 -4.7344 0
M  V30 44 H 2.2102 -2.83537 -5.40777 0
M  V30 45 H 3.6242 -4.3593 -3.72341 0
M  V30 46 H 2.0212 -5.01998 -3.28813 0
M  V30 47 H 3.0912 -4.41184 -2.01209 0
M  V30 48 N 4.4343 0.785586 -1.36625 0
M  V30 49 C 5.8503 1.08419 -1.17122 0
M  V30 50 C 6.0503 2.015 0.00208491 0
M  V30 51 O 5.1063 2.43551 0.666278 0
M  V30 52 C 6.4193 1.69498 -2.48377 0
M  V30 53 C 7.9673 1.81821 -2.54775 0
M  V30 54 C 8.4423 2.46315 -3.86126 0
M  V30 55 N 9.9333 2.53779 -3.87492 0
M  V30 56 C 10.6683 3.045 -4.85868 0
M  V30 57 N 10.1643 3.55499 -5.94637 0
M  V30 58 N 11.9573 3.03247 -4.73284 0
M  V30 59 H 4.1083 0.167264 -2.1174 0
M  V30 60 H 6.3713 0.13682 -0.938075 0
M  V30 61 H 6.0773 1.08571 -3.34522 0
M  V30 62 H 5.9513 2.6896 -2.64462 0
M  V30 63 H 8.3383 2.41884 -1.69045 0
M  V30 64 H 8.4193 0.811532 -2.42586 0
M  V30 65 H 8.0633 1.86895 -4.72263 0
M  V30 66 H 7.9933 3.47561 -3.95612 0
M  V30 67 H 10.4843 2.17672 -3.08913 0
M  V30 68 H 10.7973 3.92562 -6.65669 0
M  V30 69 H 9.1423 3.5364 -5.98301 0
M  V30 70 H 12.3333 2.62696 -3.87438 0
M  V30 71 H 12.5063 3.42467 -5.50109 0
M  V30 72 N 5.9124 1.20967 1.01018 0
M  V30 73 C 6.8594 0.964281 2.09691 0
M  V30 74 C 7.8294 -0.107853 1.65749 0
M  V30 75 O 9.0144 0.0381987 1.90762 0
M  V30 76 C 6.1544 0.52943 3.41015 0
M  V30 77 C 5.2674 1.67043 3.98398 0
M  V30 78 C 4.4024 1.18525 5.17808 0
M  V30 79 C 3.4414 2.29892 5.67288 0
M  V30 80 N 2.5784 1.82546 6.77954 0
M  V30 81 H 7.4184 1.89463 2.30017 0
M  V30 82 H 4.9554 0.944289 1.1279 0
M  V30 83 H 6.9134 0.258588 4.16398 0
M  V30 84 H 5.5434 -0.363919 3.20742 0
M  V30 85 H 4.5954 2.05603 3.20049 0
M  V30 86 H 5.9074 2.50877 4.31117 0
M  V30 87 H 5.0614 0.870762 6.00419 0
M  V30 88 H 3.8004 0.316887 4.86669 0
M  V30 89 H 2.8054 2.6215 4.83278 0
M  V30 90 H 4.0304 3.17216 6.00459 0
M  V30 91 H 1.9764 0.980454 6.48632 0
M  V30 92 H 1.8934 2.59956 7.09901 0
M  V30 93 H 3.1614 1.54115 7.64113 0
M  V30 94 N 7.3905 -1.2043 1.01659 0
M  V30 95 C 8.6385 -1.89423 0.704522 0
M  V30 96 C 8.9595 -1.79231 -0.768197 0
M  V30 97 O 8.2295 -1.1947 -1.55254 0
M  V30 98 H 6.8095 -0.701178 0.257602 0
M  V30 99 H 9.4715 -1.4626 1.28818 0
M  V30 100 H 8.5675 -2.96052 0.987916 0
M  V30 101 N 8.8686 -0.792821 -1.36206 0
M  V30 102 C 10.1166 -0.366062 -1.98757 0
M  V30 103 C 10.4376 1.0668 -1.63231 0
M  V30 104 O 9.7076 1.73587 -0.907978 0
M  V30 105 H 8.2876 -0.132364 -0.735179 0
M  V30 106 H 10.9496 -1.01562 -1.66347 0
M  V30 107 H 10.0456 -0.460638 -3.08682 0
M  V30 108 N 10.3467 1.47872 -0.545128 0
M  V30 109 C 11.2767 2.32661 0.197793 0
M  V30 110 C 12.2577 1.43041 0.920504 0
M  V30 111 O 13.4427 1.71912 0.90333 0
M  V30 112 C 10.5727 3.24569 1.23582 0
M  V30 113 C 9.5267 4.23333 0.630323 0
M  V30 114 C 8.8527 5.0448 1.77211 0
M  V30 115 C 10.1527 5.20704 -0.407974 0
M  V30 116 H 11.8467 2.95024 -0.510045 0
M  V30 117 H 9.3927 1.4187 -0.246731 0
M  V30 118 H 11.3457 3.8272 1.76362 0
M  V30 119 H 10.0697 2.60236 1.97344 0
M  V30 120 H 8.7287 3.6639 0.123922 0
M  V30 121 H 8.3767 4.36561 2.49847 0
M  V30 122 H 8.0767 5.71339 1.37281 0
M  V30 123 H 9.6007 5.65487 2.3034 0
M  V30 124 H 11.0147 5.7329 0.033305 0
M  V30 125 H 9.4117 5.95699 -0.725486 0
M  V30 126 H 10.4817 4.66917 -1.30828 0
M  V30 127 N 11.8248 0.280983 1.55075 0
M  V30 128 C 12.7878 -0.590896 2.21452 0
M  V30 129 C 13.7878 -1.07682 1.19421 0
M  V30 130 O 14.9778 -0.97605 1.44288 0
M  V30 131 C 12.1098 -1.81587 2.88511 0
M  V30 132 H 13.3028 -0.0112554 2.99898 0
M  V30 133 H 10.8558 0.0316438 1.56268 0
M  V30 134 H 11.5908 -2.43587 2.14093 0
M  V30 135 H 11.3758 -1.4753 3.63287 0
M  V30 136 H 12.8658 -2.43575 3.39206 0
M  V30 137 N 13.3029 -1.57598 0.00835791 0
M  V30 138 C 14.2329 -2.1198 -0.979113 0
M  V30 139 C 15.2139 -1.03091 -1.35301 0
M  V30 140 O 16.3989 -1.30818 -1.43528 0
M  V30 141 C 13.5289 -2.62995 -2.26828 0
M  V30 142 C 12.4829 -3.76485 -2.03576 0
M  V30 143 C 11.8089 -4.13846 -3.38579 0
M  V30 144 C 13.1089 -5.0342 -1.39161 0
M  V30 145 H 14.8029 -2.94738 -0.526281 0
M  V30 146 H 12.3489 -1.41783 -0.251704 0
M  V30 147 H 14.3019 -2.99669 -2.96271 0
M  V30 148 H 13.0259 -1.7737 -2.7424 0
M  V30 149 H 11.6849 -3.40217 -1.36557 0
M  V30 150 H 11.3329 -3.25232 -3.83709 0
M  V30 151 H 11.0329 -4.90312 -3.23834 0
M  V30 152 H 12.5569 -4.53086 -4.09323 0
M  V30 153 H 13.9709 -5.37812 -1.98573 0
M  V30 154 H 12.3679 -5.84746 -1.34878 0
M  V30 155 H 13.4379 -4.83548 -0.361868 0
M  V30 156 N 14.781 0.264519 -1.55364 0
M  V30 157 C 15.744 1.31046 -1.88042 0
M  V30 158 C 16.744 1.41943 -0.755569 0
M  V30 159 O 17.934 1.40947 -1.02369 0
M  V30 160 C 15.066 2.69067 -2.09323 0
M  V30 161 H 16.259 1.03297 -2.81549 0
M  V30 162 H 13.812 0.502989 -1.47986 0
M  V30 163 H 14.547 3.01982 -1.18226 0
M  V30 164 H 14.332 2.62542 -2.91229 0
M  V30 165 H 15.822 3.44623 -2.35848 0
M  V30 166 N 16.2591 1.48442 0.529413 0
M  V30 167 C 17.1891 1.65902 1.64313 0
M  V30 168 C 18.1701 0.507897 1.6234 0
M  V30 169 O 19.3551 0.740503 1.79528 0
M  V30 170 C 16.4851 1.69911 3.02898 0
M  V30 171 C 15.4391 2.8453 3.19729 0
M  V30 172 C 14.7651 2.73629 4.59381 0
M  V30 173 C 16.0651 4.25821 3.02447 0
M  V30 174 H 17.7591 2.5914 1.49955 0
M  V30 175 H 15.3051 1.24709 0.719982 0
M  V30 176 H 17.2581 1.80715 3.80684 0
M  V30 177 H 15.9821 0.732524 3.18279 0
M  V30 178 H 14.6411 2.73283 2.44361 0
M  V30 179 H 14.2891 1.74938 4.71599 0
M  V30 180 H 13.9891 3.50541 4.71588 0
M  V30 181 H 15.5131 2.86401 5.39265 0
M  V30 182 H 16.9271 4.37898 3.70024 0
M  V30 183 H 15.3241 5.03735 3.26146 0
M  V30 184 H 16.3941 4.42244 1.98867 0
M  V30 185 N 17.7372 -0.778329 1.37039 0
M  V30 186 C 18.6672 -1.90546 1.34962 0
M  V30 187 C 19.6482 -1.68681 0.219274 0
M  V30 188 O 20.8332 -1.89634 0.418624 0
M  V30 189 C 17.9632 -3.27734 1.14925 0
M  V30 190 C 16.9172 -3.64147 2.24902 0
M  V30 191 C 16.2432 -4.99806 1.89996 0
M  V30 192 C 17.5432 -3.71579 3.67051 0
M  V30 193 H 19.2372 -1.92541 2.29277 0
M  V30 194 H 16.7832 -0.924948 1.10366 0
M  V30 195 H 18.7362 -4.06215 1.12104 0
M  V30 196 H 17.4602 -3.26154 0.170631 0
M  V30 197 H 16.1192 -2.8797 2.26868 0
M  V30 198 H 15.7672 -4.94759 0.906796 0
M  V30 199 H 15.4672 -5.25139 2.63634 0
M  V30 200 H 16.9912 -5.80694 1.88749 0
M  V30 201 H 18.4052 -4.40227 3.67251 0
M  V30 202 H 16.8022 -4.08405 4.39688 0
M  V30 203 H 17.8722 -2.72404 4.01154 0
M  V30 204 N 19.2153 -1.21501 -1.00376 0
M  V30 205 C 20.1453 -0.999478 -2.11028 0
M  V30 206 C 21.1263 0.0759671 -1.6993 0
M  V30 207 O 22.3113 -0.0841106 -1.94018 0
M  V30 208 C 19.4413 -0.564709 -3.42678 0
M  V30 209 C 18.3953 -1.58486 -3.97576 0
M  V30 210 C 17.7213 -1.00628 -5.25146 0
M  V30 211 C 19.0213 -2.97204 -4.29496 0
M  V30 212 H 20.7153 -1.92495 -2.29317 0
M  V30 213 H 18.2613 -0.92693 -1.102 0
M  V30 214 H 20.2143 -0.401091 -4.19487 0
M  V30 215 H 18.9383 0.396411 -3.24185 0
M  V30 216 H 17.5973 -1.73606 -3.22888 0
M  V30 217 H 17.2453 -0.0368439 -5.02987 0
M  V30 218 H 16.9453 -1.68771 -5.62841 0
M  V30 219 H 18.4693 -0.854015 -6.04598 0
M  V30 220 H 19.8833 -2.8552 -4.97143 0
M  V30 221 H 18.2803 -3.62372 -4.78338 0
M  V30 222 H 19.3503 -3.47956 -3.3772 0
M  V30 223 N 20.6934 1.19889 -1.02296 0
M  V30 224 C 21.6234 2.25141 -0.619174 0
M  V30 225 C 22.6044 1.66051 0.368915 0
M  V30 226 O 23.7894 1.92546 0.252941 0
M  V30 227 C 20.9194 3.4728 0.0368783 0
M  V30 228 C 19.8734 4.19005 -0.872865 0
M  V30 229 C 19.1994 5.34637 -0.0822402 0
M  V30 230 C 20.4994 4.74452 -2.18387 0
M  V30 231 H 22.1934 2.59171 -1.49903 0
M  V30 232 H 19.7394 1.24579 -0.722222 0
M  V30 233 H 21.6924 4.20098 0.330958 0
M  V30 234 H 20.4164 3.12433 0.95149 0
M  V30 235 H 19.0754 3.48061 -1.15105 0
M  V30 236 H 18.7234 4.96034 0.83422 0
M  V30 237 H 18.4234 5.83557 -0.688149 0
M  V30 238 H 19.9474 6.10255 0.205238 0
M  V30 239 H 21.3614 5.39055 -1.95172 0
M  V30 240 H 19.7584 5.33834 -2.74119 0
M  V30 241 H 20.8284 3.92844 -2.84257 0
M  V30 242 N 22.1715 0.800033 1.35784 0
M  V30 243 C 23.3965 0.388511 2.03729 0
M  V30 244 C 23.8215 -0.990481 1.5991 0
M  V30 245 O 23.1795 -1.64013 0.772612 0
M  V30 246 C 23.2275 0.4726 3.5749 0
M  V30 247 O 22.3315 -0.51646 4.09153 0
M  V30 248 H 21.6725 0.163271 0.643614 0
M  V30 249 H 24.2025 1.0841 1.73518 0
M  V30 250 H 24.2125 0.34003 4.06581 0
M  V30 251 H 22.8875 1.47848 3.88734 0
M  V30 252 H 21.4645 -0.344673 3.71304 0
M  V30 253 N 23.6496 -1.47581 0.552962 0
M  V30 254 C 24.8956 -2.03369 0.0355807 0
M  V30 255 C 25.2506 -1.42016 -1.29805 0
M  V30 256 O 24.5436 -0.564917 -1.83083 0
M  V30 257 C 24.7376 -3.57199 -0.119728 0
M  V30 258 C 24.5666 -4.33468 1.1973 0
M  V30 259 C 23.3366 -4.7353 1.76345 0
M  V30 260 C 25.5346 -4.68866 2.11351 0
M  V30 261 N 23.5166 -5.34426 3.02097 0
M  V30 262 C 24.8876 -5.3002 3.21681 0
M  V30 263 C 26.9426 -4.50795 2.11397 0
M  V30 264 C 25.6456 -5.75011 4.32151 0
M  V30 265 C 27.6716 -4.96782 3.20876 0
M  V30 266 C 27.0336 -5.57981 4.29926 0
M  V30 267 H 23.1326 -0.780058 0.0550806 0
M  V30 268 H 25.7166 -1.80117 0.739315 0
M  V30 269 H 23.8876 -3.80227 -0.792579 0
M  V30 270 H 25.6196 -3.99627 -0.638792 0
M  V30 271 H 22.3746 -4.55352 1.30196 0
M  V30 272 H 22.7986 -5.69421 3.66182 0
M  V30 273 H 27.4406 -4.0284 1.28372 0
M  V30 274 H 25.1586 -6.21959 5.15938 0
M  V30 275 H 28.7446 -4.84573 3.21994 0
M  V30 276 H 27.6246 -5.92918 5.13243 0
M  V30 277 N 25.1277 -0.289203 -1.54924 0
M  V30 278 C 26.3737 0.323998 -2.00195 0
M  V30 279 C 26.7067 1.54441 -1.17735 0
M  V30 280 O 25.9817 1.92875 -0.250878 0
M  V30 281 C 26.2647 0.692276 -3.53383 0
M  V30 282 C 26.1177 -0.536457 -4.46589 0
M  V30 283 C 27.4367 1.52335 -4.12895 0
M  V30 284 H 24.5557 0.116289 -0.727768 0
M  V30 285 H 27.1977 -0.398954 -1.85764 0
M  V30 286 H 25.3477 1.30822 -3.65811 0
M  V30 287 H 27.0197 -1.17499 -4.46085 0
M  V30 288 H 25.2627 -1.17192 -4.1767 0
M  V30 289 H 25.9337 -0.234806 -5.515 0
M  V30 290 H 28.4097 1.00302 -4.0383 0
M  V30 291 H 27.2857 1.74982 -5.20262 0
M  V30 292 H 27.5467 2.50886 -3.64018 0
M  V30 293 N 26.6058 1.57591 -0.0167156 0
M  V30 294 C 27.5688 2.08393 0.954204 0
M  V30 295 C 28.5688 0.996531 1.26198 0
M  V30 296 O 29.7588 1.25858 1.20438 0
M  V30 297 C 26.8908 2.5394 2.27436 0
M  V30 298 H 28.0838 2.95455 0.514451 0
M  V30 299 H 25.6368 1.54582 0.231089 0
M  V30 300 H 26.3718 1.70171 2.76066 0
M  V30 301 H 26.1568 3.33371 2.06412 0
M  V30 302 H 27.6468 2.93512 2.97053 0
M  V30 303 N 28.0839 -0.256276 1.55502 0
M  V30 304 C 29.0139 -1.32102 1.92539 0
M  V30 305 C 29.9949 -1.50684 0.789194 0
M  V30 306 O 31.1799 -1.63449 1.04872 0
M  V30 307 C 28.3099 -2.67752 2.21192 0
M  V30 308 C 27.2639 -2.63878 3.36975 0
M  V30 309 C 26.5899 -4.03236 3.51147 0
M  V30 310 C 27.8899 -2.21682 4.72921 0
M  V30 311 H 29.5839 -1.01351 2.81724 0
M  V30 312 H 27.1299 -0.486105 1.35547 0
M  V30 313 H 29.0829 -3.42365 2.45691 0
M  V30 314 H 27.8069 -3.0012 1.28824 0
M  V30 315 H 26.4659 -1.91722 3.12471 0
M  V30 316 H 26.1139 -4.32854 2.56216 0
M  V30 317 H 25.8139 -4.01535 4.29003 0
M  V30 318 H 27.3379 -4.79563 3.77957 0
M  V30 319 H 28.7519 -2.86023 4.96854 0
M  V30 320 H 27.1489 -2.3111 5.53812 0
M  V30 321 H 28.2189 -1.16833 4.70615 0
M  V30 322 N 29.562 -1.4872 -0.521534 0
M  V30 323 C 30.81 -1.56857 -1.27437 0
M  V30 324 C 31.131 -0.247982 -1.93417 0
M  V30 325 O 30.401 0.731151 -1.81744 0
M  V30 326 H 28.981 -0.577885 -0.473347 0
M  V30 327 H 31.643 -1.85233 -0.606205 0
M  V30 328 H 30.739 -2.35402 -2.0492 0
M  V30 329 N 31.0401 0.771051 -1.3745 0
M  V30 330 C 32.4511 1.34737 -1.29239 0
M  V30 331 C 32.8021 1.96109 0.0596908 0
M  V30 332 O 31.9271 1.93865 0.961534 0
M  V30 333 C 32.5221 2.44973 -2.34037 0
M  V30 334 C 31.0811 2.98372 -2.29458 0
M  V30 335 C 30.2281 1.71595 -2.17831 0
M  V30 336 H 33.1791 0.571256 -1.48062 0
M  V30 337 H 33.2001 3.24471 -1.98744 0
M  V30 338 H 32.7121 2.00276 -3.32432 0
M  V30 339 H 30.8131 3.47443 -1.34589 0
M  V30 340 H 30.9261 3.53939 -3.229 0
M  V30 341 H 29.2901 1.94547 -1.64388 0
M  V30 342 H 30.0731 1.29001 -3.18141 0
M  V30 343 N 32.5182 1.22032 0.997298 0
M  V30 344 C 33.9342 0.979326 1.26021 0
M  V30 345 C 34.1342 -0.32972 1.98784 0
M  V30 346 O 33.1902 -1.05345 2.29475 0
M  V30 347 C 34.5032 2.17509 2.07631 0
M  V30 348 C 36.0512 2.21817 2.2083 0
M  V30 349 C 36.5262 3.40933 3.05825 0
M  V30 350 N 38.0172 3.41067 3.13412 0
M  V30 351 C 38.7522 4.29885 3.79455 0
M  V30 352 N 38.2482 5.28914 4.47462 0
M  V30 353 N 40.0412 4.17673 3.76173 0
M  V30 354 H 32.1922 2.06202 0.509352 0
M  V30 355 H 34.4552 0.90334 0.287541 0
M  V30 356 H 34.1612 3.12415 1.61524 0
M  V30 357 H 34.0352 2.17206 3.08385 0
M  V30 358 H 36.4222 1.27462 2.66153 0
M  V30 359 H 36.5032 2.2616 1.1952 0
M  V30 360 H 36.1472 4.35586 2.61203 0
M  V30 361 H 36.0772 3.33829 4.07266 0
M  V30 362 H 38.5682 2.69406 2.65007 0
M  V30 363 H 38.8812 5.92973 4.95583 0
M  V30 364 H 37.2262 5.32831 4.46224 0
M  V30 365 H 40.4172 3.39564 3.22202 0
M  V30 366 H 40.5902 4.87098 4.27363 0
M  V30 367 N 33.9963 -1.19345 1.0293 0
M  V30 368 C 35.2213 -1.93538 0.745511 0
M  V30 369 C 35.6463 -1.75007 -0.689511 0
M  V30 370 O 35.0043 -1.05265 -1.47611 0
M  V30 371 C 35.0523 -3.43336 1.10239 0
M  V30 372 O 34.1563 -4.11806 0.221289 0
M  V30 373 H 33.4973 -0.604193 0.275404 0
M  V30 374 H 36.0273 -1.5141 1.37609 0
M  V30 375 H 36.0373 -3.94004 1.05947 0
M  V30 376 H 34.7123 -3.56146 2.14786 0
M  V30 377 H 33.2893 -3.715 0.322842 0
M  V30 378 N 35.4744 -0.807222 -1.35358 0
M  V30 379 C 36.4044 -0.232509 -2.3234 0
M  V30 380 C 37.3854 0.642386 -1.57504 0
M  V30 381 O 38.5704 0.572526 -1.85569 0
M  V30 382 C 35.7004 0.619238 -3.41735 0
M  V30 383 C 34.6544 -0.157215 -4.27711 0
M  V30 384 C 33.9804 0.816273 -5.28433 0
M  V30 385 C 35.2804 -1.35656 -5.04376 0
M  V30 386 H 36.9744 -1.04276 -2.80654 0
M  V30 387 H 34.5204 -0.50288 -1.34934 0
M  V30 388 H 36.4734 1.03137 -4.08584 0
M  V30 389 H 35.1974 1.46239 -2.92031 0
M  V30 390 H 33.8564 -0.550525 -3.62443 0
M  V30 391 H 33.5044 1.65494 -4.74996 0
M  V30 392 H 33.2044 0.301067 -5.86828 0
M  V30 393 H 34.7284 1.22659 -5.98153 0
M  V30 394 H 36.1424 -1.01927 -5.64166 0
M  V30 395 H 34.5394 -1.8063 -5.7227 0
M  V30 396 H 35.6094 -2.14288 -4.34981 0
M  V30 397 N 36.9525 1.47285 -0.560781 0
M  V30 398 C 37.8625 2.33846 0.187954 0
M  V30 399 C 38.8785 1.48412 0.908293 0
M  V30 400 O 40.0545 1.81332 0.876388 0
M  V30 401 C 37.1195 3.25178 1.2025 0
M  V30 402 C 36.1805 4.26504 0.489208 0
M  V30 403 C 35.4135 5.13472 1.45542 0
M  V30 404 O 35.6365 5.02959 2.6905 0
M  V30 405 O 34.5705 5.93902 0.977963 0
M  V30 406 H 38.3965 2.99177 -0.522177 0
M  V30 407 H 35.9815 1.45903 -0.321364 0
M  V30 408 H 37.8635 3.81584 1.78805 0
M  V30 409 H 36.5385 2.6247 1.89449 0
M  V30 410 H 35.4455 3.73847 -0.137627 0
M  V30 411 H 36.7785 4.91935 -0.161399 0
M  V30 412 N 38.4306 0.297415 1.54768 0
M  V30 413 C 39.6786 -0.312295 1.99673 0
M  V30 414 C 39.9996 -1.54686 1.18732 0
M  V30 415 O 39.2696 -1.93854 0.282382 0
M  V30 416 H 37.8496 -0.118381 0.73756 0
M  V30 417 H 40.5116 0.407915 1.90583 0
M  V30 418 H 39.6076 -0.586813 3.06534 0
M  V30 419 N 39.9087 -1.5758 0.0250728 0
M  V30 420 C 40.8717 -2.08896 -0.943139 0
M  V30 421 C 41.8717 -1.00321 -1.25668 0
M  V30 422 O 43.0617 -1.26495 -1.19769 0
M  V30 423 C 40.1937 -2.55143 -2.26086 0
M  V30 424 H 41.3867 -2.95723 -0.498775 0
M  V30 425 H 38.9397 -1.54703 -0.222888 0
M  V30 426 H 39.6747 -1.71633 -2.75159 0
M  V30 427 H 39.4597 -3.34461 -2.04641 0
M  V30 428 H 40.9497 -2.95083 -2.95492 0
M  V30 429 N 41.3868 0.248026 -1.55636 0
M  V30 430 C 42.6638 0.998988 -1.68165 0
M  V30 431 C 43.0438 2.03409 -0.564621 0
M  V30 432 O 42.3918 2.24378 0.432076 0
M  V30 433 C 42.6018 1.63334 -3.0842 0
M  V30 434 C 43.9498 2.13562 -3.66983 0
M  V30 435 O 44.9738 1.73277 -3.11213 0
M  V30 436 O 43.8328 2.87526 -4.64749 0
M  V30 437 H 40.9268 0.464933 -0.683935 0
M  V30 438 H 43.4728 0.241902 -1.67967 0
M  V30 439 H 42.2448 0.884583 -3.8117 0
M  V30 440 H 41.8678 2.45666 -3.12624 0
M  V30 441 N 42.8649 1.48995 0.513639 0
M  V30 442 C 44.2759 1.5119 1.09537 0
M  V30 443 C 44.6269 0.290906 1.94031 0
M  V30 444 O 43.7519 -0.60049 2.07902 0
M  V30 445 C 44.3469 2.73964 1.99322 0
M  V30 446 C 42.9059 2.78978 2.52682 0
M  V30 447 C 42.0529 2.44934 1.30009 0
M  V30 448 H 45.0039 1.55875 0.298125 0
M  V30 449 H 45.0249 2.53409 2.83838 0
M  V30 450 H 44.5369 3.62813 1.37799 0
M  V30 451 H 42.6379 1.94378 3.1788 0
M  V30 452 H 42.7509 3.8083 2.90698 0
M  V30 453 H 41.1149 1.9644 1.62122 0
M  V30 454 H 41.8979 3.36043 0.702131 0
M  V30 455 N 44.343 -0.763751 1.37857 0
M  V30 456 C 45.591 -1.51957 1.33243 0
M  V30 457 C 45.912 -1.94835 -0.0801709 0
M  V30 458 O 45.182 -1.66894 -1.02582 0
M  V30 459 H 43.762 -0.563626 0.49024 0
M  V30 460 H 46.424 -0.908504 1.7243 0
M  V30 461 H 45.52 -2.41523 1.97669 0
M  V30 462 N 45.8211 -1.22559 -0.990812 0
M  V30 463 C 47.0491 -1.07779 -1.76611 0
M  V30 464 C 47.4641 0.371513 -1.85109 0
M  V30 465 O 46.8211 1.25737 -1.32274 0
M  V30 466 C 46.8721 -1.68512 -3.19822 0
M  V30 467 O 46.5931 -3.07774 -3.1178 0
M  V30 468 C 48.0941 -1.59035 -4.13791 0
M  V30 469 H 45.3141 -0.377729 -0.554583 0
M  V30 470 H 47.8581 -1.62195 -1.24551 0
M  V30 471 H 46.0131 -1.18154 -3.68942 0
M  V30 472 H 46.4271 -3.37062 -4.01858 0
M  V30 473 H 47.9011 -2.0625 -5.1202 0
M  V30 474 H 48.3781 -0.547273 -4.35777 0
M  V30 475 H 48.9841 -2.08709 -3.70568 0
M  V30 476 N 47.2992 1.18797 -1.03562 0
M  V30 477 C 48.7102 1.70322 -0.764676 0
M  V30 478 C 49.0612 1.82708 0.714996 0
M  V30 479 O 48.1862 1.50299 1.55689 0
M  V30 480 C 48.7812 3.09356 -1.38145 0
M  V30 481 C 47.3402 3.58114 -1.15895 0
M  V30 482 C 46.4872 2.34798 -1.4753 0
M  V30 483 H 49.4382 1.03543 -1.20268 0
M  V30 484 H 49.4592 3.72378 -0.781977 0
M  V30 485 H 48.9712 3.00309 -2.45837 0
M  V30 486 H 47.0722 3.72464 -0.100544 0
M  V30 487 H 47.1852 4.4184 -1.8524 0
M  V30 488 H 45.5492 2.38464 -0.894829 0
M  V30 489 H 46.3322 2.28375 -2.56319 0
M  V30 490 N 48.7773 0.814389 1.34928 0
M  V30 491 C 50.0253 0.397636 1.9815 0
M  V30 492 C 50.3463 -1.04069 1.64908 0
M  V30 493 O 49.6163 -1.72121 0.93548 0
M  V30 494 H 48.1963 0.144043 0.732981 0
M  V30 495 H 50.8583 1.04195 1.6471 0
M  V30 496 H 49.9543 0.509688 3.0791 0
M  V30 497 N 50.2554 -1.46986 0.568584 0
M  V30 498 C 51.1654 -2.33942 -0.17555 0
M  V30 499 C 52.1814 -1.48891 -0.90041 0
M  V30 500 O 53.3574 -1.81794 -0.86676 0
M  V30 501 C 50.4224 -3.25811 -1.18524 0
M  V30 502 C 49.4834 -4.26757 -0.466582 0
M  V30 503 C 48.7164 -5.14236 -1.42817 0
M  V30 504 O 48.9394 -5.04379 -2.66379 0
M  V30 505 O 47.8734 -5.94412 -0.946453 0
M  V30 506 H 51.6994 -2.98896 0.538036 0
M  V30 507 H 49.2844 -1.4573 0.329097 0
M  V30 508 H 51.1664 -3.82527 -1.76779 0
M  V30 509 H 49.8414 -2.63471 -1.88055 0
M  V30 510 H 48.7484 -3.73769 0.157451 0
M  V30 511 H 50.0814 -4.91843 0.187485 0
M  V30 512 N 51.7335 -0.305618 -1.54608 0
M  V30 513 C 52.6965 0.555591 -2.22364 0
M  V30 514 C 53.6965 1.05768 -1.21119 0
M  V30 515 O 54.8865 0.952972 -1.45822 0
M  V30 516 C 52.0185 1.76974 -2.91364 0
M  V30 517 H 53.2115 -0.0364572 -2.99878 0
M  V30 518 H 50.7645 -0.0565007 -1.56198 0
M  V30 519 H 51.4995 2.40151 -2.17941 0
M  V30 520 H 51.2845 1.41732 -3.65588 0
M  V30 521 H 52.7745 2.38148 -3.43038 0
M  V30 522 N 53.2116 1.57565 -0.0334293 0
M  V30 523 C 54.1216 2.13943 0.962572 0
M  V30 524 C 55.1376 1.09276 1.35406 0
M  V30 525 O 56.3136 1.41355 1.4346 0
M  V30 526 C 53.3786 2.65887 2.22497 0
M  V30 527 C 52.4396 3.85286 1.8935 0
M  V30 528 C 51.6726 4.34743 3.09571 0
M  V30 529 O 51.8956 3.83352 4.22371 0
M  V30 530 O 50.8296 5.26538 2.91618 0
M  V30 531 H 54.6556 2.99333 0.513169 0
M  V30 532 H 52.2406 1.4822 0.18743 0
M  V30 533 H 54.1226 2.99346 2.96598 0
M  V30 534 H 52.7976 1.83578 2.6661 0
M  V30 535 H 51.7046 3.56746 1.1262 0
M  V30 536 H 53.0376 4.68771 1.5005 0
M  V30 537 N 54.6897 -0.239769 1.55765 0
M  V30 538 C 55.9377 -0.964892 1.77579 0
M  V30 539 C 56.2587 -1.85582 0.598699 0
M  V30 540 O 55.5287 -1.92075 -0.385226 0
M  V30 541 H 54.1087 -0.359265 0.654933 0
M  V30 542 H 56.7707 -0.256001 1.93211 0
M  V30 543 H 55.8667 -1.58243 2.69009 0
M  V30 544 N 56.1678 -1.49265 -0.50573 0
M  V30 545 C 57.5788 -1.51769 -1.08734 0
M  V30 546 C 57.9298 -0.301192 -1.93874 0
M  V30 547 O 57.0548 0.589456 -2.08217 0
M  V30 548 C 57.6498 -2.75017 -1.97867 0
M  V30 549 C 56.2088 -2.80314 -2.51199 0
M  V30 550 C 55.3558 -2.4562 -1.28709 0
M  V30 551 H 58.3068 -1.56031 -0.289855 0
M  V30 552 H 58.3278 -2.5491 -2.82491 0
M  V30 553 H 57.8398 -3.63539 -1.35873 0
M  V30 554 H 55.9408 -1.96061 -3.16845 0
M  V30 555 H 56.0538 -3.82366 -2.88675 0
M  V30 556 H 54.4178 -1.97297 -1.61078 0
M  V30 557 H 55.2008 -3.36411 -0.6843 0
M  V30 558 N 57.6459 0.756429 -1.3826 0
M  V30 559 C 58.6089 1.85176 -1.35065 0
M  V30 560 C 59.6089 1.58818 -0.251703 0
M  V30 561 O 60.7989 1.66615 -0.508433 0
M  V30 562 C 57.9309 3.22596 -1.10201 0
M  V30 563 H 59.1239 1.89417 -2.3251 0
M  V30 564 H 56.6769 0.95783 -1.23512 0
M  V30 565 H 57.4119 3.24025 -0.133504 0
M  V30 566 H 57.1969 3.43122 -1.89762 0
M  V30 567 H 58.6869 4.02673 -1.10654 0
M  V30 568 N 59.124 1.23083 0.984299 0
M  V30 569 C 60.364 1.07226 1.74017 0
M  V30 570 C 60.728 -0.384766 1.88105 0
M  V30 571 O 61.929 -0.664411 2.60459 0
M  V30 572 C 60.2 1.77348 3.10294 0
M  V30 573 S 61.759 1.77014 4.01512 0
M  V30 574 H 58.577 0.383819 0.598502 0
M  V30 575 H 61.179 1.56158 1.17622 0
M  V30 576 H 59.883 2.82506 2.97689 0
M  V30 577 H 59.414 1.28682 3.71759 0
M  V30 578 H 61.429 0.825956 4.89277 0
M  V30 579 N 60.6021 -1.18246 1.0419 0
M  V30 580 C 62.0131 -1.69914 0.773698 0
M  V30 581 C 62.3641 -1.83085 -0.705297 0
M  V30 582 O 61.4891 -1.51123 -1.5489 0
M  V30 583 C 62.0841 -3.08619 1.39784 0
M  V30 584 C 60.6431 -3.57494 1.17792 0
M  V30 585 C 59.7901 -2.34013 1.48773 0
M  V30 586 H 62.7411 -1.02904 1.20816 0
M  V30 587 H 62.7621 -3.71958 0.801714 0
M  V30 588 H 62.2741 -2.99001 2.47426 0
M  V30 589 H 60.3751 -3.72406 0.120295 0
M  V30 590 H 60.4881 -4.40852 1.87581 0
M  V30 591 H 58.8521 -2.37986 0.907463 0
M  V30 592 H 59.6351 -2.27013 2.57527 0
M  V30 593 N 62.0802 -0.821533 -1.34494 0
M  V30 594 C 63.0432 -0.247847 -2.27856 0
M  V30 595 C 64.0432 0.573453 -1.50227 0
M  V30 596 O 65.2332 0.389759 -1.69784 0
M  V30 597 C 62.3652 0.652698 -3.34593 0
M  V30 598 H 63.5582 -1.07146 -2.80107 0
M  V30 599 H 61.1112 -0.593291 -1.44602 0
M  V30 600 H 61.8462 1.49943 -2.87555 0
M  V30 601 H 61.6312 0.065292 -3.92046 0
M  V30 602 H 63.1212 1.04793 -4.04238 0
M  V30 603 N 63.5583 1.46682 -0.576371 0
M  V30 604 C 64.5213 2.28707 0.150239 0
M  V30 605 C 65.5213 1.38035 0.824794 0
M  V30 606 O 66.7113 1.60476 0.677719 0
M  V30 607 C 63.8433 3.18248 1.22192 0
M  V30 608 H 65.0363 2.94423 -0.570521 0
M  V30 609 H 62.5893 1.52688 -0.334078 0
M  V30 610 H 63.3243 2.57265 1.97447 0
M  V30 611 H 63.1093 3.85 0.742812 0
M  V30 612 H 64.5993 3.80001 1.73172 0
M  V30 613 N 65.0364 0.313813 1.54444 0
M  V30 614 C 66.2764 -0.292389 2.02298 0
M  V30 615 C 66.6404 -1.50105 1.19719 0
M  V30 616 O 67.8414 -2.17947 1.5733 0
M  V30 617 C 66.1124 -0.627682 3.51845 0
M  V30 618 S 67.6714 -1.21493 4.21646 0
M  V30 619 H 64.4894 -0.0890247 0.705405 0
M  V30 620 H 67.0914 0.444668 1.90376 0
M  V30 621 H 65.7954 0.260265 4.09574 0
M  V30 622 H 65.3264 -1.39519 3.67829 0
M  V30 623 H 67.3414 -2.5022 4.28491 0
M  V30 624 N 66.5145 -1.57545 0.0417849 0
M  V30 625 C 67.7605 -1.92601 -0.635021 0
M  V30 626 C 68.0935 -0.919627 -1.71045 0
M  V30 627 O 67.3685 0.0557892 -1.9442 0
M  V30 628 C 67.6515 -3.38085 -1.23979 0
M  V30 629 C 67.5045 -4.49467 -0.173057 0
M  V30 630 C 68.8235 -3.83776 -2.15416 0
M  V30 631 H 65.9425 -0.700397 -0.229374 0
M  V30 632 H 68.5845 -1.89728 0.101633 0
M  V30 633 H 66.7345 -3.40664 -1.86762 0
M  V30 634 H 68.4065 -4.59018 0.458312 0
M  V30 635 H 66.6495 -4.30909 0.499996 0
M  V30 636 H 67.3205 -5.48323 -0.636054 0
M  V30 637 H 69.7965 -3.83013 -1.62605 0
M  V30 638 H 68.6725 -4.8624 -2.54679 0
M  V30 639 H 68.9335 -3.19998 -3.05047 0
M  V30 640 N 67.9926 0.231505 -1.5589 0
M  V30 641 C 69.2326 0.964533 -1.80211 0
M  V30 642 C 69.5966 1.81926 -0.613744 0
M  V30 643 O 70.7976 2.58526 -0.736045 0
M  V30 644 C 69.0686 1.78956 -3.09369 0
M  V30 645 S 70.6276 2.57959 -3.54969 0
M  V30 646 H 67.4456 0.324173 -0.632798 0
M  V30 647 H 70.0476 0.230985 -1.94131 0
M  V30 648 H 68.7516 1.15161 -3.93911 0
M  V30 649 H 68.2826 2.56559 -2.9823 0
M  V30 650 H 70.2976 3.81309 -3.17519 0
M  V30 651 N 69.4707 1.49531 0.497807 0
M  V30 652 C 70.6957 1.63159 1.28039 0
M  V30 653 C 71.1207 0.30418 1.85624 0
M  V30 654 O 70.4787 -0.728618 1.66015 0
M  V30 655 C 70.5267 2.70537 2.38416 0
M  V30 656 O 69.6307 2.29931 3.42353 0
M  V30 657 H 68.9717 0.546001 0.377861 0
M  V30 658 H 71.5017 1.9574 0.59558 0
M  V30 659 H 71.5117 2.92802 2.84132 0
M  V30 660 H 70.1867 3.6689 1.95869 0
M  V30 661 H 68.7637 2.18009 3.02533 0
M  V30 662 N 70.9488 -0.749086 1.3866 0
M  V30 663 C 72.1788 -1.53611 1.38157 0
M  V30 664 C 72.5868 -1.89177 -0.0293595 0
M  V30 665 O 71.9298 -1.53606 -1.00752 0
M  V30 666 C 71.9918 -2.86087 2.17702 0
M  V30 667 C 71.6558 -2.73034 3.66472 0
M  V30 668 C 72.6528 -2.42526 4.59866 0
M  V30 669 C 70.3378 -2.90345 4.09884 0
M  V30 670 C 72.3318 -2.29492 5.94653 0
M  V30 671 C 70.0188 -2.7693 5.4475 0
M  V30 672 C 71.0168 -2.46547 6.36949 0
M  V30 673 O 70.7048 -2.33199 7.69333 0
M  V30 674 H 70.4368 -0.481773 0.474205 0
M  V30 675 H 72.9908 -0.934465 1.82912 0
M  V30 676 H 71.2208 -3.48458 1.67672 0
M  V30 677 H 72.9098 -3.47625 2.09551 0
M  V30 678 H 73.6758 -2.28816 4.27631 0
M  V30 679 H 69.5548 -3.1299 3.38464 0
M  V30 680 H 73.0988 -2.05698 6.66584 0
M  V30 681 H 68.9958 -2.90215 5.76581 0
M  V30 682 H 69.7638 -2.48376 7.79905 0
M  V30 683 N 72.4269 -1.23603 -0.977757 0
M  V30 684 C 73.7039 -0.977897 -1.69401 0
M  V30 685 C 74.0839 0.502738 -2.05026 0
M  V30 686 O 73.4319 1.47459 -1.74551 0
M  V30 687 C 73.6419 -1.89077 -2.93345 0
M  V30 688 C 74.9899 -2.15579 -3.65802 0
M  V30 689 O 76.0139 -1.86648 -3.03383 0
M  V30 690 O 74.8729 -2.64658 -4.78141 0
M  V30 691 H 71.9669 -0.369025 -0.740101 0
M  V30 692 H 74.5129 -1.34657 -1.03274 0
M  V30 693 H 73.2849 -2.89158 -2.63634 0
M  V30 694 H 72.9079 -1.52463 -3.67207 0
M  V30 695 N 73.905 1.17692 -1.04816 0
M  V30 696 C 75.182 1.83768 -0.669963 0
M  V30 697 C 75.562 1.93232 0.849986 0
M  V30 698 O 74.91 1.46397 1.75443 0
M  V30 699 C 75.12 3.21641 -1.35455 0
M  V30 700 C 76.468 3.97592 -1.49017 0
M  V30 701 O 77.492 3.31107 -1.31326 0
M  V30 702 O 76.351 5.16729 -1.77914 0
M  V30 703 H 73.445 0.792799 -0.235368 0
M  V30 704 H 75.991 1.25021 -1.14751 0
M  V30 705 H 74.763 3.097 -2.39168 0
M  V30 706 H 74.386 3.88052 -0.866107 0
M  V30 707 N 75.3831 0.828654 1.34056 0
M  V30 708 C 76.6601 0.341809 1.9259 0
M  V30 709 C 77.0401 -1.17158 1.75605 0
M  V30 710 O 76.3881 -1.98132 1.13824 0
M  V30 711 C 76.5981 0.777453 3.4023 0
M  V30 712 C 77.9461 0.779579 4.17382 0
M  V30 713 O 78.9701 0.7204 3.48839 0
M  V30 714 O 77.8291 0.857996 5.39723 0
M  V30 715 H 74.9231 0.0946085 0.821571 0
M  V30 716 H 77.4691 0.913827 1.42994 0
M  V30 717 H 76.2411 1.8196 3.46419 0
M  V30 718 H 75.8641 0.181444 3.97186 0
M  V30 719 N 76.8612 -1.46375 0.584142 0
M  V30 720 C 77.8242 -2.28784 -0.138108 0
M  V30 721 C 78.8242 -1.38471 -0.817462 0
M  V30 722 O 80.0142 -1.60833 -0.669199 0
M  V30 723 C 77.1462 -3.18892 -1.20503 0
M  V30 724 H 78.3392 -2.94117 0.586127 0
M  V30 725 H 75.8922 -1.52509 0.342171 0
M  V30 726 H 76.6272 -2.58309 -1.96079 0
M  V30 727 H 76.4122 -3.85388 -0.722384 0
M  V30 728 H 77.9022 -3.80914 -1.71155 0
M  V30 729 N 78.3393 -0.321999 -1.54275 0
M  V30 730 C 79.6163 0.335232 -1.92706 0
M  V30 731 C 79.9963 1.70006 -1.25145 0
M  V30 732 O 79.3443 2.25067 -0.394596 0
M  V30 733 C 79.5543 0.429008 -3.46353 0
M  V30 734 C 80.9023 0.690029 -4.18956 0
M  V30 735 O 81.9263 0.511992 -3.52501 0
M  V30 736 O 80.7853 1.03338 -5.36641 0
M  V30 737 H 77.8793 0.191143 -0.804608 0
M  V30 738 H 80.4253 -0.3716 -1.65581 0
M  V30 739 H 79.1973 -0.529611 -3.87699 0
M  V30 740 H 78.8203 1.18348 -3.79578 0
M  V30 741 N 79.8174 1.5752 -0.0501392 0
M  V30 742 C 80.7274 2.14952 0.939827 0
M  V30 743 C 81.7434 1.10706 1.34239 0
M  V30 744 O 82.9194 1.42869 1.41952 0
M  V30 745 C 79.9844 2.68232 2.19665 0
M  V30 746 C 79.0454 3.87272 1.85253 0
M  V30 747 C 78.2784 4.38002 3.04943 0
M  V30 748 O 78.5014 3.87811 4.18281 0
M  V30 749 O 77.4354 5.29602 2.86017 0
M  V30 750 H 81.2614 2.9986 0.481392 0
M  V30 751 H 78.8464 1.4841 0.171699 0
M  V30 752 H 80.7284 3.02475 2.93406 0
M  V30 753 H 79.4034 1.86395 2.64648 0
M  V30 754 H 78.3104 3.5792 1.0883 0
M  V30 755 H 79.6434 4.70336 1.4507 0
M  V30 756 N 81.2955 -0.223234 1.56011 0
M  V30 757 C 82.2255 -1.27988 1.95298 0
M  V30 758 C 83.2065 -1.48976 0.820979 0
M  V30 759 O 84.3915 -1.61188 1.08315 0
M  V30 760 C 81.5215 -2.63 2.26822 0
M  V30 761 C 80.4755 -2.56671 3.42497 0
M  V30 762 C 79.8015 -3.95697 3.59622 0
M  V30 763 C 81.1015 -2.11601 4.77517 0
M  V30 764 H 82.7955 -0.953525 2.8381 0
M  V30 765 H 80.3415 -0.457244 1.36548 0
M  V30 766 H 82.2945 -3.37077 2.52898 0
M  V30 767 H 81.0185 -2.9732 1.35161 0
M  V30 768 H 79.6775 -1.85051 3.16467 0
M  V30 769 H 79.3255 -4.27322 2.6534 0
M  V30 770 H 79.0255 -3.92345 4.37424 0
M  V30 771 H 80.5495 -4.71438 3.88044 0
M  V30 772 H 81.9635 -2.7542 5.02809 0
M  V30 773 H 80.3605 -2.19311 5.5859 0
M  V30 774 H 81.4305 -1.06824 4.72987 0
M  V30 775 N 82.7736 -1.49793 -0.48987 0
M  V30 776 C 83.9986 -1.63836 -1.27172 0
M  V30 777 C 84.4236 -0.31402 -1.8546 0
M  V30 778 O 83.7816 0.719803 -1.66399 0
M  V30 779 C 83.8296 -2.71797 -2.36978 0
M  V30 780 O 82.9336 -2.31744 -3.41128 0
M  V30 781 H 82.2746 -0.547997 -0.37496 0
M  V30 782 H 84.8046 -1.96053 -0.585191 0
M  V30 783 H 84.8146 -2.94305 -2.82575 0
M  V30 784 H 83.4896 -3.67923 -1.93921 0
M  V30 785 H 82.0666 -2.1961 -3.01373 0
M  V30 786 N 84.2517 0.741722 -1.39055 0
M  V30 787 C 85.4977 1.50336 -1.36113 0
M  V30 788 C 85.8307 1.94148 0.0450796 0
M  V30 789 O 85.1057 1.66301 1.00868 0
M  V30 790 C 85.3887 2.74773 -2.32749 0
M  V30 791 C 85.2417 2.37023 -3.82283 0
M  V30 792 C 86.5607 3.76846 -2.27322 0
M  V30 793 H 83.6797 0.545351 -0.495743 0
M  V30 794 H 86.3217 0.848624 -1.69995 0
M  V30 795 H 84.4717 3.30639 -2.03986 0
M  V30 796 H 86.1437 1.8684 -4.21768 0
M  V30 797 H 84.3867 1.69334 -3.99385 0
M  V30 798 H 85.0577 3.26104 -4.45376 0
M  V30 799 H 87.5337 3.30548 -2.5274 0
M  V30 800 H 86.4097 4.6159 -2.97028 0
M  V30 801 H 86.6707 4.23286 -1.27599 0
M  V30 802 N 85.7298 1.2412 0.971189 0
M  V30 803 C 86.9768 1.07881 1.71371 0
M  V30 804 C 87.3048 -0.382901 1.90694 0
M  V30 805 O 86.5598 -1.29945 1.46331 0
M  V30 806 C 86.8588 1.75983 3.11071 0
M  V30 807 C 86.5248 3.25909 3.11599 0
M  V30 808 C 85.1868 3.66813 3.11451 0
M  V30 809 C 87.5388 4.21771 3.062 0
M  V30 810 C 84.8668 5.02021 3.03631 0
M  V30 811 C 87.2188 5.56982 2.99923 0
M  V30 812 C 85.8828 5.97237 2.98102 0
M  V30 813 H 85.1528 0.394764 0.62709 0
M  V30 814 H 87.7998 1.54176 1.13587 0
M  V30 815 H 86.1048 1.22072 3.72298 0
M  V30 816 H 87.8018 1.60887 3.6731 0
M  V30 817 H 84.3918 2.93353 3.12477 0
M  V30 818 H 88.5758 3.91172 3.05447 0
M  V30 819 H 83.8318 5.32411 3.0058 0
M  V30 820 H 88.0058 6.30969 2.94704 0
M  V30 821 H 85.6328 7.01967 2.91798 0
M  V30 822 N 87.2079 -1.17134 1.05439 0
M  V30 823 C 88.4479 -1.89137 0.77502 0
M  V30 824 C 88.8119 -1.79345 -0.685526 0
M  V30 825 O 90.0129 -2.46188 -1.0791 0
M  V30 826 C 88.2839 -3.35003 1.2453 0
M  V30 827 S 89.8429 -4.24952 1.09367 0
M  V30 828 H 86.6609 -0.652949 0.281387 0
M  V30 829 H 89.2629 -1.4145 1.34953 0
M  V30 830 H 87.9669 -3.39666 2.30338 0
M  V30 831 H 87.4979 -3.87736 0.665166 0
M  V30 832 H 89.5129 -4.96196 0.0193397 0
M  V30 833 N 88.686 -0.835752 -1.33615 0
M  V30 834 C 89.911 -0.442389 -2.02627 0
M  V30 835 C 90.336 0.947735 -1.62479 0
M  V30 836 O 89.694 1.61907 -0.815826 0
M  V30 837 C 89.742 -0.567216 -3.56111 0
M  V30 838 O 88.846 0.407799 -4.10379 0
M  V30 839 H 88.187 -0.180278 -0.639059 0
M  V30 840 H 90.717 -1.12972 -1.70583 0
M  V30 841 H 90.727 -0.447708 -4.05536 0
M  V30 842 H 89.402 -1.58103 -3.84677 0
M  V30 843 H 87.979 0.246107 -3.72087 0
M  V30 844 N 90.1641 1.46063 -0.591896 0
M  V30 845 C 91.3891 2.07226 -0.0850314 0
M  V30 846 C 91.8141 1.43625 1.21463 0
M  V30 847 O 91.1721 0.523305 1.73583 0
M  V30 848 C 91.2201 3.60554 0.0576567 0
M  V30 849 O 90.3241 3.97128 1.11188 0
M  V30 850 H 89.6651 0.660615 -0.0669568 0
M  V30 851 H 92.1951 1.8756 -0.81745 0
M  V30 852 H 92.2051 4.07165 0.2609 0
M  V30 853 H 90.8801 4.06235 -0.891416 0
M  V30 854 H 89.4571 3.62213 0.886356 0
M  V30 855 N 91.6422 0.330177 1.54103 0
M  V30 856 C 93.0582 -0.0222371 1.59585 0
M  V30 857 C 93.2582 -1.49902 1.34654 0
M  V30 858 O 92.3142 -2.25592 1.13421 0
M  V30 859 C 93.6272 0.401932 2.98002 0
M  V30 860 C 95.1752 0.353145 3.11001 0
M  V30 861 C 95.6502 0.752576 4.51775 0
M  V30 862 N 97.1412 0.706239 4.57784 0
M  V30 863 C 97.8762 0.987417 5.64834 0
M  V30 864 N 97.3722 1.33607 6.79795 0
M  V30 865 N 99.1652 0.91254 5.54643 0
M  V30 866 H 91.3162 1.29228 1.68564 0
M  V30 867 H 93.5792 0.525906 0.78875 0
M  V30 868 H 93.2852 1.4311 3.21267 0
M  V30 869 H 93.1592 -0.229699 3.765 0
M  V30 870 H 95.5462 -0.666822 2.87467 0
M  V30 871 H 95.6272 1.0198 2.34593 0
M  V30 872 H 95.2712 1.77049 4.76042 0
M  V30 873 H 95.2012 0.0635409 5.26562 0
M  V30 874 H 97.6922 0.44889 3.75224 0
M  V30 875 H 98.0052 1.53582 7.57385 0
M  V30 876 H 96.3502 1.37439 6.81275 0
M  V30 877 H 99.5412 0.639601 4.6371 0
M  V30 878 H 99.7142 1.13503 6.37982 0
M  V30 879 N 93.1203 -1.57491 0.0584922 0
M  V30 880 C 94.0683 -2.13148 -0.931168 0
M  V30 881 C 95.0623 -1.06507 -1.31729 0
M  V30 882 O 96.2683 -1.24906 -1.29609 0
M  V30 883 H 92.6433 -0.68137 -0.31818 0
M  V30 884 H 94.6143 -2.95187 -0.436707 0
M  V30 885 C 93.3633 -2.69732 -2.19408 0
M  V30 886 H 92.6863 -3.51454 -1.90578 0
M  V30 887 H 94.1263 -3.12287 -2.86798 0
M  V30 888 C 92.5853 -1.63855 -2.94369 0
M  V30 889 O 93.1153 -1.05565 -3.87581 0
M  V30 890 N 91.3213 -1.35202 -2.57233 0
M  V30 891 H 90.8683 -1.82791 -1.81508 0
M  V30 892 H 90.8263 -0.645922 -3.07693 0
M  V30 893 N 94.5984 0.214957 -1.56127 0
M  V30 894 C 95.5284 1.2695 -1.95974 0
M  V30 895 C 96.5094 1.48539 -0.828868 0
M  V30 896 O 97.6944 1.60611 -1.09168 0
M  V30 897 C 94.8244 2.61794 -2.28214 0
M  V30 898 C 93.7784 2.54851 -3.43853 0
M  V30 899 C 93.1044 3.93785 -3.61715 0
M  V30 900 C 94.4044 2.09065 -4.78632 0
M  V30 901 H 96.0984 0.93846 -2.84312 0
M  V30 902 H 93.6444 0.449996 -1.36788 0
M  V30 903 H 95.5974 3.35731 -2.54682 0
M  V30 904 H 94.3214 2.96599 -1.36736 0
M  V30 905 H 92.9804 1.8337 -3.17444 0
M  V30 906 H 92.6284 4.25908 -2.67602 0
M  V30 907 H 92.3284 3.90019 -4.39498 0
M  V30 908 H 93.8524 4.69374 -3.90539 0
M  V30 909 H 95.2664 2.7275 -5.04262 0
M  V30 910 H 93.6634 2.16346 -5.59745 0
M  V30 911 H 94.7334 1.04315 -4.73547 0
M  V30 912 N 96.0765 1.50051 0.48192 0
M  V30 913 C 97.3045 1.64237 1.25832 0
M  V30 914 C 97.7195 0.321336 1.86045 0
M  V30 915 O 97.0765 -0.695478 1.68729 0
M  V30 916 C 97.1275 2.72548 2.37487 0
M  V30 917 O 96.8485 3.99529 1.79745 0
M  V30 918 C 98.3495 2.9761 3.28547 0
M  V30 919 H 95.5695 0.55237 0.380957 0
M  V30 920 H 98.1135 1.96207 0.576467 0
M  V30 921 H 96.2685 2.43303 3.01467 0
M  V30 922 H 96.6825 4.59342 2.5319 0
M  V30 923 H 98.1565 3.77084 4.03127 0
M  V30 924 H 98.6335 2.0826 3.86684 0
M  V30 925 H 99.2395 3.28345 2.70314 0
M  V30 926 N 97.5546 -0.734337 1.39446 0
M  V30 927 C 98.9706 -1.03997 1.21065 0
M  V30 928 C 99.1706 -2.01369 0.0727019 0
M  V30 929 O 98.2266 -2.45856 -0.575426 0
M  V30 930 C 99.5396 -1.60163 2.54496 0
M  V30 931 C 101.088 -1.7224 2.61347 0
M  V30 932 C 101.563 -2.31814 3.95002 0
M  V30 933 N 103.054 -2.39223 3.96644 0
M  V30 934 C 103.789 -2.86258 4.96834 0
M  V30 935 N 103.285 -3.33184 6.07421 0
M  V30 936 N 105.078 -2.85473 4.84213 0
M  V30 937 H 97.2286 -0.0885624 2.12215 0
M  V30 938 H 99.4916 -0.10191 0.942506 0
M  V30 939 H 99.1976 -0.960811 3.38321 0
M  V30 940 H 99.0716 -2.5896 2.74262 0
M  V30 941 H 101.459 -2.35443 1.77906 0
M  V30 942 H 101.54 -0.720939 2.4543 0
M  V30 943 H 101.184 -1.69238 4.78875 0
M  V30 944 H 101.114 -3.32638 4.08239 0
M  V30 945 H 103.605 -2.06057 3.16779 0
M  V30 946 H 103.918 -3.67586 6.7978 0
M  V30 947 H 102.263 -3.31191 6.11013 0
M  V30 948 H 105.454 -2.48136 3.96921 0
M  V30 949 H 105.627 -3.21814 5.62441 0
M  V30 950 N 99.0327 -1.24633 -0.964593 0
M  V30 951 C 99.9627 -1.06611 -2.07741 0
M  V30 952 C 100.944 0.0218666 -1.70086 0
M  V30 953 O 102.129 -0.145793 -1.93652 0
M  V30 954 C 99.2587 -0.673444 -3.40708 0
M  V30 955 C 98.2127 -1.71054 -3.92332 0
M  V30 956 C 97.5387 -1.17285 -5.21678 0
M  V30 957 C 98.8387 -3.10718 -4.19824 0
M  V30 958 H 100.533 -1.99693 -2.23076 0
M  V30 959 H 98.0787 -0.96152 -1.07195 0
M  V30 960 H 100.032 -0.534345 -4.17998 0
M  V30 961 H 98.7557 0.293073 -3.25282 0
M  V30 962 H 97.4147 -1.83791 -3.17201 0
M  V30 963 H 97.0627 -0.196847 -5.02615 0
M  V30 964 H 96.7627 -1.86592 -5.57187 0
M  V30 965 H 98.2867 -1.04593 -6.01575 0
M  V30 966 H 99.7007 -3.01192 -4.87808 0
M  V30 967 H 98.0977 -3.77406 -4.66567 0
M  V30 968 H 99.1677 -3.58524 -3.26479 0
M  V30 969 N 100.511 1.16574 -1.06058 0
M  V30 970 C 101.922 1.68662 -0.800632 0
M  V30 971 C 102.273 1.84184 0.67608 0
M  V30 972 O 101.398 1.53568 1.52466 0
M  V30 973 C 101.993 3.06356 -1.44676 0
M  V30 974 C 100.552 3.55575 -1.23465 0
M  V30 975 C 99.6988 2.31616 -1.52477 0
M  V30 976 H 102.65 1.00969 -1.22438 0
M  V30 977 H 102.671 3.70636 -0.860788 0
M  V30 978 H 102.183 2.95027 -2.52152 0
M  V30 979 H 100.284 3.72167 -0.179527 0
M  V30 980 H 100.397 4.37812 -1.94571 0
M  V30 981 H 98.7608 2.36512 -0.945209 0
M  V30 982 H 99.5438 2.22887 -2.61106 0
M  V30 983 N 101.989 0.842826 1.3317 0
M  V30 984 C 103.266 0.362216 1.92217 0
M  V30 985 C 103.646 -1.15289 1.76838 0
M  V30 986 O 102.994 -1.96914 1.15919 0
M  V30 987 C 103.204 0.813495 3.39387 0
M  V30 988 C 104.552 0.823804 4.16532 0
M  V30 989 O 105.576 0.757358 3.48055 0
M  V30 990 O 104.435 0.915193 5.38782 0
M  V30 991 H 101.529 0.103317 0.820521 0
M  V30 992 H 104.075 0.928942 1.42017 0
M  V30 993 H 102.847 1.85624 3.4447 0
M  V30 994 H 102.47 0.223561 3.96971 0
M  V30 995 N 103.467 -1.45747 0.599634 0
M  V30 996 C 104.715 -2.01893 0.0915472 0
M  V30 997 C 105.036 -1.47155 -1.27946 0
M  V30 998 O 104.306 -0.66273 -1.84349 0
M  V30 999 H 102.886 -0.746363 0.0308524 0
M  V30 1000 H 105.548 -1.78645 0.779237 0
M  V30 1001 H 104.644 -3.1208 0.0353086 0
M  V30 1002 N 104.945 -0.338344 -1.53925 0
M  V30 1003 C 106.191 0.260143 -2.01125 0
M  V30 1004 C 106.524 1.50617 -1.22589 0
M  V30 1005 O 105.799 1.91979 -0.312113 0
M  V30 1006 C 106.082 0.579499 -3.55407 0
M  V30 1007 C 105.935 -0.678264 -4.44657 0
M  V30 1008 C 107.254 1.39122 -4.17532 0
M  V30 1009 H 104.373 0.0930772 -0.731099 0
M  V30 1010 H 107.015 -0.457852 -1.84401 0
M  V30 1011 H 105.165 1.19118 -3.69788 0
M  V30 1012 H 106.837 -1.31631 -4.42121 0
M  V30 1013 H 105.08 -1.3042 -4.13731 0
M  V30 1014 H 105.751 -0.410143 -5.50474 0
M  V30 1015 H 108.227 0.874035 -4.06817 0
M  V30 1016 H 107.103 1.58342 -5.25565 0
M  V30 1017 H 107.364 2.39178 -3.71815 0
M  V30 1018 N 106.423 1.57458 -0.0668435 0
M  V30 1019 C 107.834 1.80776 0.466558 0
M  V30 1020 C 108.185 0.980361 1.69951 0
M  V30 1021 O 107.31 0.201441 2.1546 0
M  V30 1022 C 107.905 3.27881 0.85321 0
M  V30 1023 C 106.464 3.52062 1.3315 0
M  V30 1024 C 105.611 2.75513 0.314264 0
M  V30 1025 H 108.562 1.5598 -0.292588 0
M  V30 1026 H 108.583 3.39659 1.715 0
M  V30 1027 H 108.095 3.88075 -0.0443439 0
M  V30 1028 H 106.196 2.97167 2.24772 0
M  V30 1029 H 106.309 4.60762 1.31285 0
M  V30 1030 H 104.673 2.42123 0.790492 0
M  V30 1031 H 105.456 3.38442 -0.575477 0
M  V30 1032 N 107.901 -0.206675 1.56239 0
M  V30 1033 C 109.149 -0.927007 1.79586 0
M  V30 1034 C 109.47 -1.8427 0.637929 0
M  V30 1035 O 108.74 -1.92849 -0.344398 0
M  V30 1036 H 107.32 -0.345292 0.662407 0
M  V30 1037 H 109.982 -0.21496 1.93711 0
M  V30 1038 H 109.078 -1.52501 2.72305 0
M  V30 1039 N 109.379 -1.50304 -0.473955 0
M  V30 1040 C 110.627 -1.60832 -1.22382 0
M  V30 1041 C 110.948 -0.30939 -1.9253 0
M  V30 1042 O 110.218 0.67296 -1.83978 0
M  V30 1043 H 108.798 -0.592652 -0.454723 0
M  V30 1044 H 111.46 -1.87068 -0.546968 0
M  V30 1045 H 110.556 -2.41803 -1.97327 0
M  V30 1046 N 110.857 0.726932 -1.39834 0
M  V30 1047 C 112.085 1.51613 -1.40787 0
M  V30 1048 C 112.5 1.88799 -0.00451505 0
M  V30 1049 O 111.857 1.54662 0.968809 0
M  V30 1050 C 111.908 2.79863 -2.28821 0
M  V30 1051 O 111.629 2.44253 -3.63692 0
M  V30 1052 C 113.13 3.73837 -2.38245 0
M  V30 1053 H 110.35 0.468264 -0.480593 0
M  V30 1054 H 112.894 0.897607 -1.83748 0
M  V30 1055 H 111.049 3.38027 -1.89252 0
M  V30 1056 H 111.463 3.26695 -4.1033 0
M  V30 1057 H 112.937 4.60699 -3.04073 0
M  V30 1058 H 113.414 4.16153 -1.40403 0
M  V30 1059 H 114.02 3.21589 -2.78317 0
M  V30 1060 N 112.336 1.25143 0.95797 0
M  V30 1061 C 113.268 1.01023 2.05735 0
M  V30 1062 C 114.281 -0.0236902 1.62783 0
M  V30 1063 O 115.47 0.21448 1.77207 0
M  V30 1064 C 112.57 0.504595 3.35122 0
M  V30 1065 C 111.743 1.6039 4.06932 0
M  V30 1066 C 110.802 1.09922 5.14591 0
M  V30 1067 O 109.828 1.79293 5.40225 0
M  V30 1068 N 111.03 -0.0612545 5.80468 0
M  V30 1069 H 113.795 1.95683 2.26998 0
M  V30 1070 H 111.356 1.16303 1.12629 0
M  V30 1071 H 113.348 0.151516 4.04416 0
M  V30 1072 H 111.918 -0.347989 3.10657 0
M  V30 1073 H 111.138 2.12872 3.31782 0
M  V30 1074 H 112.426 2.34252 4.51667 0
M  V30 1075 H 111.824 -0.640985 5.62057 0
M  V30 1076 H 110.381 -0.355395 6.5083 0
M  V30 1077 N 113.814 -1.1601 1.06675 0
M  V30 1078 C 114.777 -2.18724 0.685001 0
M  V30 1079 C 115.777 -1.58496 -0.271246 0
M  V30 1080 O 116.967 -1.74119 -0.0531156 0
M  V30 1081 C 114.099 -3.40899 0.00853648 0
M  V30 1082 H 115.292 -2.54011 1.59431 0
M  V30 1083 H 112.845 -1.30352 0.862441 0
M  V30 1084 H 113.58 -3.11173 -0.913337 0
M  V30 1085 H 113.365 -3.8587 0.696204 0
M  V30 1086 H 114.855 -4.16886 -0.24414 0
M  V30 1087 N 115.292 -0.849877 -1.32721 0
M  V30 1088 C 116.222 -0.306308 -2.31482 0
M  V30 1089 C 117.203 0.591952 -1.59468 0
M  V30 1090 O 118.388 0.513199 -1.87296 0
M  V30 1091 C 115.518 0.510204 -3.43532 0
M  V30 1092 C 114.472 -0.293209 -4.26994 0
M  V30 1093 C 113.798 0.647743 -5.30762 0
M  V30 1094 C 115.098 -1.51634 -4.99804 0
M  V30 1095 H 116.792 -1.13153 -2.77195 0
M  V30 1096 H 114.338 -0.545553 -1.33266 0
M  V30 1097 H 116.291 0.900856 -4.11658 0
M  V30 1098 H 115.015 1.36874 -2.96535 0
M  V30 1099 H 113.674 -0.665555 -3.60508 0
M  V30 1100 H 113.322 1.50299 -4.8002 0
M  V30 1101 H 113.022 0.11422 -5.87489 0
M  V30 1102 H 114.546 1.03567 -6.01753 0
M  V30 1103 H 115.96 -1.19824 -5.60638 0
M  V30 1104 H 114.357 -1.98745 -5.66234 0
M  V30 1105 H 115.427 -2.28018 -4.27943 0
M  V30 1106 N 116.77 1.45427 -0.607355 0
M  V30 1107 C 118.016 2.03097 -0.111035 0
M  V30 1108 C 118.371 1.46735 1.24445 0
M  V30 1109 O 117.664 0.632478 1.8086 0
M  V30 1110 C 117.858 3.57398 -0.0129263 0
M  V30 1111 C 117.687 4.28726 -1.35735 0
M  V30 1112 C 116.457 4.66659 -1.93798 0
M  V30 1113 C 118.655 4.60699 -2.28607 0
M  V30 1114 N 116.637 5.22845 -3.21723 0
M  V30 1115 C 118.008 5.17716 -3.41131 0
M  V30 1116 C 120.063 4.42638 -2.27982 0
M  V30 1117 C 118.766 5.58576 -4.53194 0
M  V30 1118 C 120.792 4.84531 -3.39093 0
M  V30 1119 C 120.154 5.4164 -4.50339 0
M  V30 1120 H 116.253 0.777476 -0.083994 0
M  V30 1121 H 118.837 1.77249 -0.805655 0
M  V30 1122 H 117.008 3.82907 0.650914 0
M  V30 1123 H 118.74 4.01722 0.490033 0
M  V30 1124 H 115.495 4.50207 -1.47007 0
M  V30 1125 H 115.919 5.55438 -3.87063 0
M  V30 1126 H 120.561 3.97798 -1.43235 0
M  V30 1127 H 118.279 6.02382 -5.38667 0
M  V30 1128 H 121.865 4.72289 -3.39757 0
M  V30 1129 H 120.745 5.73461 -5.34895 0
M  V30 1130 N 118.248 0.346503 1.53744 0
M  V30 1131 C 119.178 -0.501193 2.28058 0
M  V30 1132 C 120.159 -1.10014 1.29734 0
M  V30 1133 O 121.344 -1.12097 1.58581 0
M  V30 1134 C 118.474 -1.65078 3.05559 0
M  V30 1135 C 117.428 -1.18003 4.11411 0
M  V30 1136 C 116.754 -2.41837 4.76884 0
M  V30 1137 C 118.054 -0.278394 5.21558 0
M  V30 1138 H 119.748 0.11875 2.99164 0
M  V30 1139 H 117.294 0.0585531 1.43881 0
M  V30 1140 H 119.247 -2.25028 3.56287 0
M  V30 1141 H 117.971 -2.29767 2.32109 0
M  V30 1142 H 116.63 -0.603331 3.61601 0
M  V30 1143 H 116.278 -3.0494 4.00026 0
M  V30 1144 H 115.978 -2.1102 5.48402 0
M  V30 1145 H 117.502 -3.02508 5.30397 0
M  V30 1146 H 118.916 -0.784823 5.67903 0
M  V30 1147 H 117.313 -0.0619707 6.00068 0
M  V30 1148 H 118.383 0.684677 4.80042 0
M  V30 1149 N 119.726 -1.57421 0.075193 0
M  V30 1150 C 121.003 -1.85029 -0.634329 0
M  V30 1151 C 121.383 -0.968305 -1.87582 0
M  V30 1152 O 120.731 -0.0354749 -2.28472 0
M  V30 1153 C 120.941 -3.35286 -0.968742 0
M  V30 1154 C 122.289 -4.02875 -1.34077 0
M  V30 1155 O 123.313 -3.40051 -1.06037 0
M  V30 1156 O 122.172 -5.13691 -1.86506 0
M  V30 1157 H 119.266 -0.7645 -0.315387 0
M  V30 1158 H 121.812 -1.69366 0.106382 0
M  V30 1159 H 120.584 -3.91203 -0.0871376 0
M  V30 1160 H 120.207 -3.56223 -1.7661 0
M  V30 1161 N 121.204 0.198386 -1.56346 0
M  V30 1162 C 122.452 0.91747 -1.80075 0
M  V30 1163 C 122.773 1.83929 -0.647692 0
M  V30 1164 O 122.043 1.93029 0.334166 0
M  V30 1165 H 120.623 0.341774 -0.664228 0
M  V30 1166 H 123.285 0.204684 -1.93822 0
M  V30 1167 H 122.381 1.51055 -2.7311 0
M  V30 1168 N 122.682 1.50554 0.465978 0
M  V30 1169 C 123.63 1.70324 1.58406 0
M  V30 1170 C 124.624 0.569139 1.59553 0
M  V30 1171 O 125.83 0.749776 1.63641 0
M  V30 1172 H 122.205 0.537688 0.525734 0
M  V30 1173 H 124.176 2.64104 1.38894 0
M  V30 1174 C 122.925 1.81928 2.96307 0
M  V30 1175 H 122.248 2.68586 2.96144 0
M  V30 1176 H 123.688 1.99784 3.73982 0
M  V30 1177 C 122.147 0.572095 3.32007 0
M  V30 1178 O 122.677 -0.286416 4.00678 0
M  V30 1179 N 120.883 0.424606 2.87481 0
M  V30 1180 H 120.43 1.12427 2.31771 0
M  V30 1181 H 120.388 -0.408697 3.11732 0
M  V30 1182 N 124.16 -0.719506 1.40217 0
M  V30 1183 C 125.108 -1.85493 1.40339 0
M  V30 1184 C 126.102 -1.66995 0.284415 0
M  V30 1185 O 127.308 -1.74148 0.455252 0
M  V30 1186 H 123.683 -0.610857 0.438586 0
M  V30 1187 H 125.654 -1.82506 2.36081 0
M  V30 1188 C 124.403 -3.23321 1.27901 0
M  V30 1189 H 123.726 -3.38159 2.1328 0
M  V30 1190 H 125.166 -4.02914 1.32045 0
M  V30 1191 C 123.625 -3.36898 -0.0111355 0
M  V30 1192 O 124.155 -3.89674 -0.975538 0
M  V30 1193 N 122.361 -2.90492 -0.0793393 0
M  V30 1194 H 121.908 -2.47731 0.706183 0
M  V30 1195 H 121.866 -2.99955 -0.942038 0
M  V30 1196 N 125.638 -1.25649 -0.95132 0
M  V30 1197 C 126.568 -1.08808 -2.06599 0
M  V30 1198 C 127.549 0.00382547 -1.701 0
M  V30 1199 O 128.734 -0.166325 -1.93486 0
M  V30 1200 C 125.864 -0.709542 -3.39975 0
M  V30 1201 C 124.818 -1.75206 -3.90496 0
M  V30 1202 C 124.144 -1.22811 -5.20405 0
M  V30 1203 C 125.444 -3.15153 -4.16504 0
M  V30 1204 H 127.138 -2.02048 -2.20946 0
M  V30 1205 H 124.684 -0.972835 -1.06169 0
M  V30 1206 H 126.637 -0.578649 -4.17408 0
M  V30 1207 H 125.361 0.258556 -3.25575 0
M  V30 1208 H 124.02 -1.87145 -3.15234 0
M  V30 1209 H 123.668 -0.250145 -5.02378 0
M  V30 1210 H 123.368 -1.92492 -5.55176 0
M  V30 1211 H 124.892 -1.10968 -6.00432 0
M  V30 1212 H 126.306 -3.06349 -4.84586 0
M  V30 1213 H 124.703 -3.82333 -4.62538 0
M  V30 1214 H 125.773 -3.61966 -3.22658 0
M  V30 1215 N 127.117 1.15442 -1.07289 0
M  V30 1216 C 128.342 1.90638 -0.816828 0
M  V30 1217 C 128.767 1.77445 0.624083 0
M  V30 1218 O 128.125 1.10671 1.43602 0
M  V30 1219 C 128.173 3.39008 -1.22906 0
M  V30 1220 O 127.277 4.10701 -0.373975 0
M  V30 1221 H 126.618 0.593555 -0.297638 0
M  V30 1222 H 129.148 1.46198 -1.43134 0
M  V30 1223 H 129.158 3.89801 -1.20497 0
M  V30 1224 H 127.833 3.47929 -2.27856 0
M  V30 1225 H 126.41 3.70046 -0.460499 0
M  V30 1226 N 128.595 0.856903 1.32268 0
M  V30 1227 C 129.82 0.474569 2.01897 0
M  V30 1228 C 130.245 -0.921766 1.63967 0
M  V30 1229 O 129.603 -1.60589 0.84148 0
M  V30 1230 C 129.651 0.623799 3.55164 0
M  V30 1231 O 128.755 -0.342459 4.10976 0
M  V30 1232 H 128.096 0.190422 0.63611 0
M  V30 1233 H 130.626 1.15672 1.68764 0
M  V30 1234 H 130.636 0.512169 4.04773 0
M  V30 1235 H 129.311 1.64202 3.82113 0
M  V30 1236 H 127.888 -0.18688 3.72431 0
M  V30 1237 N 130.073 -1.45103 0.615059 0
M  V30 1238 C 131.319 -2.02483 0.113347 0
M  V30 1239 C 131.652 -1.48146 -1.25564 0
M  V30 1240 O 130.927 -0.659104 -1.82992 0
M  V30 1241 C 131.21 -3.60005 0.0825278 0
M  V30 1242 C 131.063 -4.2466 1.48271 0
M  V30 1243 C 132.382 -4.35972 -0.601401 0
M  V30 1244 H 129.501 -0.735764 0.0426632 0
M  V30 1245 H 132.143 -1.72868 0.788461 0
M  V30 1246 H 130.293 -3.85367 -0.492378 0
M  V30 1247 H 131.965 -4.10458 2.10527 0
M  V30 1248 H 130.208 -3.82772 2.04127 0
M  V30 1249 H 130.879 -5.336 1.41332 0
M  V30 1250 H 133.355 -4.15947 -0.112666 0
M  V30 1251 H 132.231 -5.45697 -0.592097 0
M  V30 1252 H 132.492 -4.09391 -1.66887 0
M  V30 1253 N 131.551 -0.354651 -1.53558 0
M  V30 1254 C 132.962 0.126902 -1.86268 0
M  V30 1255 C 133.313 1.49075 -1.27558 0
M  V30 1256 O 132.438 2.08105 -0.5934 0
M  V30 1257 C 133.033 0.237046 -3.3797 0
M  V30 1258 C 131.592 0.662842 -3.70518 0
M  V30 1259 C 130.739 -0.196652 -2.76602 0
M  V30 1260 H 133.69 -0.573849 -1.47962 0
M  V30 1261 H 133.711 1.06259 -3.65362 0
M  V30 1262 H 133.223 -0.755725 -3.80671 0
M  V30 1263 H 131.324 1.66424 -3.33367 0
M  V30 1264 H 131.437 0.445034 -4.77029 0
M  V30 1265 H 129.801 0.332763 -2.52517 0
M  V30 1266 H 130.584 -1.18676 -3.22135 0
M  V30 1267 N 133.029 1.57378 -0.0835403 0
M  V30 1268 C 134.44 1.81261 0.447358 0
M  V30 1269 C 134.791 0.998331 1.68902 0
M  V30 1270 O 133.916 0.224282 2.15235 0
M  V30 1271 C 134.511 3.28767 0.818386 0
M  V30 1272 C 133.07 3.53455 1.29409 0
M  V30 1273 C 132.217 2.75831 0.285024 0
M  V30 1274 H 135.168 1.5566 -0.309115 0
M  V30 1275 H 135.189 3.41459 1.67887 0
M  V30 1276 H 134.701 3.88006 -0.0855019 0
M  V30 1277 H 132.802 2.99534 2.21608 0
M  V30 1278 H 132.915 4.62128 1.2639 0
M  V30 1279 H 131.279 2.42947 0.764767 0
M  V30 1280 H 132.062 3.37813 -0.611341 0
M  V30 1281 N 134.507 -0.190092 1.56449 0
M  V30 1282 C 135.47 -1.21925 1.9408 0
M  V30 1283 C 136.47 -1.38176 0.822431 0
M  V30 1284 O 137.66 -1.35903 1.08977 0
M  V30 1285 C 134.792 -2.58773 2.21922 0
M  V30 1286 H 135.985 -0.897464 2.86157 0
M  V30 1287 H 133.538 -0.43181 1.50217 0
M  V30 1288 H 134.273 -2.95998 1.32499 0
M  V30 1289 H 134.058 -2.48348 3.03424 0
M  V30 1290 H 135.548 -3.32978 2.52022 0
M  V30 1291 N 135.985 -1.50799 -0.457987 0
M  V30 1292 C 136.948 -1.7005 -1.53674 0
M  V30 1293 C 137.948 -0.570881 -1.50325 0
M  V30 1294 O 139.138 -0.838126 -1.52712 0
M  V30 1295 C 136.27 -1.73788 -2.93276 0
M  V30 1296 H 137.463 -2.66306 -1.37917 0
M  V30 1297 H 135.016 -1.40477 -0.685271 0
M  V30 1298 H 135.751 -0.792717 -3.14462 0
M  V30 1299 H 135.536 -2.55864 -2.97113 0
M  V30 1300 H 137.026 -1.90591 -3.71571 0
M  V30 1301 N 137.463 0.71206 -1.40597 0
M  V30 1302 C 138.71 1.47197 -1.39065 0
M  V30 1303 C 139.038 1.94499 0.00583891 0
M  V30 1304 O 138.293 1.68752 0.99102 0
M  V30 1305 C 138.592 2.71039 -2.32965 0
M  V30 1306 C 138.258 2.42484 -3.80148 0
M  V30 1307 C 136.92 2.34406 -4.20247 0
M  V30 1308 C 139.272 2.18598 -4.73143 0
M  V30 1309 C 136.6 2.00516 -5.51371 0
M  V30 1310 C 138.952 1.8622 -6.0457 0
M  V30 1311 C 137.616 1.76626 -6.43708 0
M  V30 1312 H 136.886 0.538634 -0.508876 0
M  V30 1313 H 139.533 0.815325 -1.73276 0
M  V30 1314 H 137.838 3.41558 -1.91951 0
M  V30 1315 H 139.535 3.29138 -2.29061 0
M  V30 1316 H 136.125 2.49659 -3.4838 0
M  V30 1317 H 140.309 2.23793 -4.42979 0
M  V30 1318 H 135.565 1.91628 -5.80593 0
M  V30 1319 H 139.739 1.66752 -6.76141 0
M  V30 1320 H 137.366 1.50133 -7.45228 0
M  V30 1321 N 138.941 1.26152 0.944643 0
M  V30 1322 C 139.873 1.03199 2.04652 0
M  V30 1323 C 140.886 -0.00642356 1.62799 0
M  V30 1324 O 142.075 0.233263 1.76969 0
M  V30 1325 C 139.175 0.540111 3.34568 0
M  V30 1326 C 138.348 1.64697 4.05208 0
M  V30 1327 C 137.407 1.15374 5.13396 0
M  V30 1328 O 136.433 1.85013 5.38293 0
M  V30 1329 N 137.635 0.00031529 5.805 0
M  V30 1330 H 140.4 1.9808 2.2491 0
M  V30 1331 H 137.961 1.17491 1.11389 0
M  V30 1332 H 139.953 0.194401 4.04233 0
M  V30 1333 H 138.523 -0.315021 3.11009 0
M  V30 1334 H 137.743 2.16379 3.29506 0
M  V30 1335 H 139.031 2.3903 4.49157 0
M  V30 1336 H 138.429 -0.581336 5.62705 0
M  V30 1337 H 136.986 -0.286346 6.51171 0
M  V30 1338 N 140.419 -1.14872 1.07899 0
M  V30 1339 C 141.367 -2.21857 0.698727 0
M  V30 1340 C 142.361 -1.66845 -0.293086 0
M  V30 1341 O 143.567 -1.79321 -0.156204 0
M  V30 1342 H 139.942 -0.722691 0.207899 0
M  V30 1343 H 141.913 -2.51205 1.61054 0
M  V30 1344 C 140.662 -3.47498 0.11858 0
M  V30 1345 H 139.985 -3.90154 0.872914 0
M  V30 1346 H 141.425 -4.23858 -0.109759 0
M  V30 1347 C 139.884 -3.16947 -1.1422 0
M  V30 1348 O 140.414 -3.3426 -2.22785 0
M  V30 1349 N 138.62 -2.70946 -1.05055 0
M  V30 1350 H 138.167 -2.57058 -0.167038 0
M  V30 1351 H 138.125 -2.50879 -1.89491 0
M  V30 1352 N 141.898 -0.863906 -1.31812 0
M  V30 1353 C 142.828 -0.330843 -2.31144 0
M  V30 1354 C 143.809 0.575005 -1.60087 0
M  V30 1355 O 144.994 0.493304 -1.8783 0
M  V30 1356 C 142.124 0.47374 -3.44054 0
M  V30 1357 C 141.078 -0.338481 -4.26659 0
M  V30 1358 C 140.404 0.591412 -5.31419 0
M  V30 1359 C 141.704 -1.56926 -4.98168 0
M  V30 1360 H 143.398 -1.16086 -2.75979 0
M  V30 1361 H 140.944 -0.559657 -1.32679 0
M  V30 1362 H 142.897 0.857143 -4.12591 0
M  V30 1363 H 141.621 1.33721 -2.9797 0
M  V30 1364 H 140.28 -0.703754 -3.59782 0
M  V30 1365 H 139.928 1.45199 -4.81587 0
M  V30 1366 H 139.628 0.0519022 -5.87577 0
M  V30 1367 H 141.152 0.97179 -6.02817 0
M  V30 1368 H 142.566 -1.25764 -5.59336 0
M  V30 1369 H 140.963 -2.04739 -5.64094 0
M  V30 1370 H 142.033 -2.32544 -4.25501 0
M  V30 1371 N 143.376 1.44774 -0.622745 0
M  V30 1372 C 144.601 2.06999 -0.128968 0
M  V30 1373 C 145.026 1.4617 1.1839 0
M  V30 1374 O 144.384 0.560007 1.72434 0
M  V30 1375 C 144.432 3.60595 -0.0188351 0
M  V30 1376 O 143.536 3.99398 1.02739 0
M  V30 1377 H 142.877 0.659047 -0.0809544 0
M  V30 1378 H 145.407 1.85784 -0.85705 0
M  V30 1379 H 145.417 4.07627 0.174476 0
M  V30 1380 H 144.092 4.04252 -0.977384 0
M  V30 1381 H 142.669 3.64011 0.809326 0
M  V30 1382 N 144.854 0.36279 1.53368 0
M  V30 1383 C 146.079 -0.231226 2.06107 0
M  V30 1384 C 146.504 -1.419 1.23474 0
M  V30 1385 O 145.862 -1.79524 0.253128 0
M  V30 1386 C 145.91 -0.605523 3.5548 0
M  V30 1387 O 145.014 -1.70312 3.7559 0
M  V30 1388 H 144.355 -0.034327 0.663112 0
M  V30 1389 H 146.885 0.522584 1.97814 0
M  V30 1390 H 146.895 -0.877314 3.98456 0
M  V30 1391 H 145.57 0.263004 4.15068 0
M  V30 1392 H 144.147 -1.4271 3.44512 0
M  V30 1393 N 146.332 -1.57332 0.0918853 0
M  V30 1394 C 147.262 -2.16872 -0.865371 0
M  V30 1395 C 148.243 -1.10118 -1.29646 0
M  V30 1396 O 149.428 -1.38242 -1.36392 0
M  V30 1397 C 146.558 -2.74649 -2.12569 0
M  V30 1398 C 145.512 -3.86747 -1.83333 0
M  V30 1399 C 144.838 -4.31212 -3.16166 0
M  V30 1400 C 146.138 -5.10089 -1.1228 0
M  V30 1401 H 147.832 -2.97114 -0.369307 0
M  V30 1402 H 145.378 -1.42918 -0.176194 0
M  V30 1403 H 147.331 -3.14952 -2.7997 0
M  V30 1404 H 146.055 -1.91657 -2.64452 0
M  V30 1405 H 144.714 -3.46978 -1.18331 0
M  V30 1406 H 144.362 -3.45115 -3.6593 0
M  V30 1407 H 144.062 -5.06788 -2.97388 0
M  V30 1408 H 145.586 -4.74146 -3.84731 0
M  V30 1409 H 147 -5.47582 -1.69785 0
M  V30 1410 H 145.397 -5.91073 -1.03693 0
M  V30 1411 H 146.467 -4.84786 -0.105041 0
M  V30 1412 N 147.81 0.181792 -1.56548 0
M  V30 1413 C 149.058 0.89832 -1.81038 0
M  V30 1414 C 149.379 1.83232 -0.667164 0
M  V30 1415 O 148.649 1.93372 0.313673 0
M  V30 1416 H 147.229 0.33471 -0.667816 0
M  V30 1417 H 149.891 0.184116 -1.94028 0
M  V30 1418 H 148.987 1.4815 -2.74696 0
M  V30 1419 N 149.288 1.51039 0.449983 0
M  V30 1420 C 150.535 1.63081 1.20045 0
M  V30 1421 C 150.863 0.341024 1.91487 0
M  V30 1422 O 150.118 -0.674276 1.83717 0
M  V30 1423 C 150.417 2.77556 2.25161 0
M  V30 1424 C 150.083 4.17289 1.70823 0
M  V30 1425 C 148.745 4.55305 1.55725 0
M  V30 1426 C 151.097 5.04536 1.3074 0
M  V30 1427 C 148.425 5.78287 0.989999 0
M  V30 1428 C 150.777 6.28085 0.754482 0
M  V30 1429 C 149.441 6.64885 0.590308 0
M  V30 1430 H 148.711 0.596755 0.439277 0
M  V30 1431 H 151.358 1.85037 0.49333 0
M  V30 1432 H 149.663 2.49771 3.01863 0
M  V30 1433 H 151.36 2.84073 2.83026 0
M  V30 1434 H 147.95 3.8731 1.83546 0
M  V30 1435 H 152.134 4.75782 1.41229 0
M  V30 1436 H 147.39 6.05456 0.850451 0
M  V30 1437 H 151.564 6.95038 0.435324 0
M  V30 1438 H 149.191 7.60055 0.14862 0
M  V30 1439 N 150.766 -0.704594 1.40972 0
M  V30 1440 C 151.696 -1.83124 1.44872 0
M  V30 1441 C 152.677 -1.67281 0.30838 0
M  V30 1442 O 153.862 -1.87149 0.518556 0
M  V30 1443 C 150.992 -3.21181 1.32136 0
M  V30 1444 C 149.946 -3.51714 2.43888 0
M  V30 1445 C 149.272 -4.89032 2.16222 0
M  V30 1446 C 150.572 -3.516 3.86232 0
M  V30 1447 H 152.266 -1.80117 2.39161 0
M  V30 1448 H 149.812 -0.865145 1.15114 0
M  V30 1449 H 151.765 -3.99702 1.33479 0
M  V30 1450 H 150.489 -3.24791 0.343279 0
M  V30 1451 H 149.148 -2.75539 2.41813 0
M  V30 1452 H 148.796 -4.89256 1.16778 0
M  V30 1453 H 148.496 -5.10426 2.911 0
M  V30 1454 H 150.02 -5.69873 2.19265 0
M  V30 1455 H 151.434 -4.2014 3.9007 0
M  V30 1456 H 149.831 -3.84523 4.60719 0
M  V30 1457 H 150.901 -2.50757 4.15029 0
M  V30 1458 N 152.244 -1.26651 -0.937939 0
M  V30 1459 C 153.192 -1.08308 -2.05845 0
M  V30 1460 C 154.186 -0.0090757 -1.69398 0
M  V30 1461 O 155.392 -0.166007 -1.79233 0
M  V30 1462 H 151.767 -0.333416 -0.674046 0
M  V30 1463 H 153.738 -2.03261 -2.18467 0
M  V30 1464 C 152.487 -0.736229 -3.39816 0
M  V30 1465 H 151.81 -1.55453 -3.6834 0
M  V30 1466 H 153.25 -0.64769 -4.19024 0
M  V30 1467 C 151.709 0.558824 -3.32233 0
M  V30 1468 O 152.239 1.59621 -3.68624 0
M  V30 1469 N 150.445 0.550657 -2.85335 0
M  V30 1470 H 149.992 -0.293943 -2.55917 0
M  V30 1471 H 149.95 1.41726 -2.80644 0
M  V30 1472 N 153.722 1.14298 -1.08507 0
M  V30 1473 C 154.652 2.21542 -0.737646 0
M  V30 1474 C 155.633 1.67773 0.280377 0
M  V30 1475 O 156.818 1.93616 0.150521 0
M  V30 1476 C 153.948 3.46988 -0.147259 0
M  V30 1477 C 152.902 4.13789 -1.09374 0
M  V30 1478 C 152.228 5.33449 -0.365524 0
M  V30 1479 C 153.528 4.62208 -2.4323 0
M  V30 1480 H 155.222 2.5086 -1.6343 0
M  V30 1481 H 152.768 1.20576 -0.787243 0
M  V30 1482 H 154.721 4.21262 0.107808 0
M  V30 1483 H 153.445 3.17037 0.784538 0
M  V30 1484 H 152.104 3.4147 -1.33393 0
M  V30 1485 H 151.752 4.99759 0.57011 0
M  V30 1486 H 151.452 5.79088 -0.996512 0
M  V30 1487 H 152.976 6.10485 -0.118534 0
M  V30 1488 H 154.39 5.27952 -2.23472 0
M  V30 1489 H 152.787 5.18553 -3.02031 0
M  V30 1490 H 153.857 3.77224 -3.04681 0
M  V30 1491 N 155.201 0.870884 1.31352 0
M  V30 1492 C 156.133 0.28455 2.27427 0
M  V30 1493 C 157.146 -0.552927 1.53123 0
M  V30 1494 O 158.335 -0.374771 1.74521 0
M  V30 1495 C 155.435 -0.615164 3.3327 0
M  V30 1496 C 154.608 0.190079 4.36987 0
M  V30 1497 C 153.667 -0.637917 5.22319 0
M  V30 1498 O 152.693 -0.065626 5.69162 0
M  V30 1499 N 153.895 -1.94973 5.46778 0
M  V30 1500 H 156.66 1.11017 2.7838 0
M  V30 1501 H 154.221 0.732458 1.44384 0
M  V30 1502 H 156.213 -1.1748 3.87273 0
M  V30 1503 H 154.783 -1.34146 2.82354 0
M  V30 1504 H 154.003 0.931165 3.83044 0
M  V30 1505 H 155.291 0.742579 5.03352 0
M  V30 1506 H 154.689 -2.4378 5.10478 0
M  V30 1507 H 153.246 -2.45713 6.03712 0
M  V30 1508 N 156.679 -1.44442 0.630414 0
M  V30 1509 C 157.927 -2.01653 0.134351 0
M  V30 1510 C 158.248 -1.49836 -1.24796 0
M  V30 1511 O 157.518 -0.701684 -1.82902 0
M  V30 1512 H 156.098 -0.74554 0.0466769 0
M  V30 1513 H 158.76 -1.76952 0.816955 0
M  V30 1514 H 157.856 -3.11935 0.101498 0
M  V30 1515 N 158.157 -0.370918 -1.53173 0
M  V30 1516 C 159.405 0.216673 -2.00935 0
M  V30 1517 C 159.726 1.48845 -1.25977 0
M  V30 1518 O 158.996 1.92286 -0.374551 0
M  V30 1519 H 157.576 0.0830565 -0.742368 0
M  V30 1520 H 160.238 -0.49838 -1.8842 0
M  V30 1521 H 159.334 0.439893 -3.08984 0
M  V30 1522 N 159.635 1.57281 -0.100228 0
M  V30 1523 C 160.567 2.11342 0.886972 0
M  V30 1524 C 161.58 1.05182 1.24261 0
M  V30 1525 O 162.769 1.32613 1.19483 0
M  V30 1526 C 159.869 2.5825 2.19454 0
M  V30 1527 C 159.042 3.88302 2.01346 0
M  V30 1528 C 158.101 4.21004 3.15661 0
M  V30 1529 O 157.127 4.9014 2.89398 0
M  V30 1530 N 158.329 3.76818 4.41575 0
M  V30 1531 H 161.094 2.96668 0.425216 0
M  V30 1532 H 158.655 1.61678 0.0847334 0
M  V30 1533 H 160.647 2.7717 2.94888 0
M  V30 1534 H 159.217 1.77907 2.57037 0
M  V30 1535 H 158.437 3.7848 1.10212 0
M  V30 1536 H 159.725 4.73375 1.8653 0
M  V30 1537 H 159.123 3.2102 4.65792 0
M  V30 1538 H 157.68 4.00882 5.13942 0
M  V30 1539 N 161.113 -0.173488 1.56642 0
M  V30 1540 C 162.043 -1.2171 1.99271 0
M  V30 1541 C 163.024 -1.46289 0.867959 0
M  V30 1542 O 164.209 -1.5766 1.13388 0
M  V30 1543 C 161.339 -2.55651 2.35074 0
M  V30 1544 C 160.293 -2.45645 3.50489 0
M  V30 1545 C 159.619 -3.84056 3.72028 0
M  V30 1546 C 160.919 -1.96302 4.84007 0
M  V30 1547 H 162.613 -0.86275 2.867 0
M  V30 1548 H 160.159 -0.413571 1.37933 0
M  V30 1549 H 162.112 -3.2886 2.63494 0
M  V30 1550 H 160.836 -2.92869 1.44552 0
M  V30 1551 H 159.495 -1.7489 3.22194 0
M  V30 1552 H 159.143 -4.18664 2.788 0
M  V30 1553 H 158.843 -3.7823 4.49684 0
M  V30 1554 H 160.367 -4.58854 4.02846 0
M  V30 1555 H 161.781 -2.59284 5.11317 0
M  V30 1556 H 160.178 -2.01429 5.65284 0
M  V30 1557 H 161.248 -0.917226 4.76146 0
M  V30 1558 N 162.591 -1.51276 -0.441967 0
M  V30 1559 C 163.839 -1.63392 -1.18943 0
M  V30 1560 C 164.16 -0.350159 -1.9183 0
M  V30 1561 O 163.43 0.633784 -1.85364 0
M  V30 1562 H 162.01 -0.602164 -0.442049 0
M  V30 1563 H 164.672 -1.88186 -0.507165 0
M  V30 1564 H 163.768 -2.45934 -1.92154 0
M  V30 1565 N 164.069 0.697108 -1.41344 0
M  V30 1566 C 165.294 1.49096 -1.44171 0
M  V30 1567 C 165.719 1.88038 -0.0481568 0
M  V30 1568 O 165.077 1.54525 0.948243 0
M  V30 1569 C 165.125 2.73088 -2.3549 0
M  V30 1570 O 164.229 3.70514 -1.81088 0
M  V30 1571 H 163.57 0.448801 -0.489361 0
M  V30 1572 H 166.1 0.856992 -1.85787 0
M  V30 1573 H 166.11 3.21413 -2.51312 0
M  V30 1574 H 164.785 2.44081 -3.36745 0
M  V30 1575 H 163.362 3.29441 -1.74708 0
M  V30 1576 N 165.547 1.27147 0.931209 0
M  V30 1577 C 166.477 1.12081 2.04842 0
M  V30 1578 C 167.458 0.0232364 1.70084 0
M  V30 1579 O 168.643 0.197085 1.93197 0
M  V30 1580 C 165.773 0.76354 3.38803 0
M  V30 1581 C 164.727 1.81396 3.87659 0
M  V30 1582 C 164.053 1.31075 5.18385 0
M  V30 1583 C 165.353 3.21739 4.11438 0
M  V30 1584 H 167.047 2.05537 2.17703 0
M  V30 1585 H 164.593 0.989603 1.04608 0
M  V30 1586 H 166.546 0.644982 4.16435 0
M  V30 1587 H 165.27 -0.206727 3.25945 0
M  V30 1588 H 163.929 1.92136 3.12217 0
M  V30 1589 H 163.577 0.330037 5.01916 0
M  V30 1590 H 163.277 2.013 5.52044 0
M  V30 1591 H 164.801 1.20506 5.98591 0
M  V30 1592 H 166.215 3.14019 4.79651 0
M  V30 1593 H 164.612 3.89644 4.56397 0
M  V30 1594 H 165.682 3.67054 3.16859 0
M  V30 1595 N 167.025 -1.13721 1.09112 0
M  V30 1596 C 167.935 -2.22638 0.73957 0
M  V30 1597 C 168.951 -1.72091 -0.257068 0
M  V30 1598 O 170.127 -2.01155 -0.0992154 0
M  V30 1599 C 167.192 -3.46322 0.16191 0
M  V30 1600 C 166.253 -4.11775 1.21408 0
M  V30 1601 C 165.486 -5.29555 0.663891 0
M  V30 1602 O 165.709 -5.68077 -0.514274 0
M  V30 1603 O 164.643 -5.84973 1.41738 0
M  V30 1604 H 168.469 -2.55074 1.64836 0
M  V30 1605 H 166.054 -1.21791 0.865289 0
M  V30 1606 H 167.936 -4.21107 -0.157073 0
M  V30 1607 H 166.611 -3.15593 -0.719932 0
M  V30 1608 H 165.518 -3.3883 1.58571 0
M  V30 1609 H 166.851 -4.46627 2.06845 0
M  V30 1610 N 168.503 -0.877838 -1.30888 0
M  V30 1611 C 169.914 -0.544193 -1.78593 0
M  V30 1612 C 170.265 0.939301 -1.72254 0
M  V30 1613 O 169.39 1.7337 -1.29505 0
M  V30 1614 C 169.985 -0.98105 -3.24285 0
M  V30 1615 C 168.544 -0.698935 -3.69854 0
M  V30 1616 C 167.691 -1.168 -2.51502 0
M  V30 1617 H 170.642 -1.06278 -1.17859 0
M  V30 1618 H 170.663 -0.307009 -3.79259 0
M  V30 1619 H 170.175 -2.06079 -3.28866 0
M  V30 1620 H 168.276 0.369112 -3.70767 0
M  V30 1621 H 168.389 -1.28148 -4.61644 0
M  V30 1622 H 166.753 -0.587535 -2.47831 0
M  V30 1623 H 167.536 -2.25533 -2.58824 0
M  V30 1624 N 169.982 1.44106 -0.638065 0
M  V30 1625 C 170.914 2.28976 0.101205 0
M  V30 1626 C 171.927 1.4167 0.802088 0
M  V30 1627 O 173.116 1.65755 0.662375 0
M  V30 1628 C 170.216 3.18217 1.16581 0
M  V30 1629 C 169.389 4.33978 0.546066 0
M  V30 1630 C 168.448 5.04202 1.50554 0
M  V30 1631 O 167.474 5.59986 1.01999 0
M  V30 1632 N 168.676 5.06296 2.8398 0
M  V30 1633 H 171.441 2.93064 -0.627186 0
M  V30 1634 H 169.002 1.54629 -0.479731 0
M  V30 1635 H 170.994 3.62061 1.80815 0
M  V30 1636 H 169.564 2.55833 1.79634 0
M  V30 1637 H 168.784 3.93239 -0.275046 0
M  V30 1638 H 170.072 5.08675 0.112793 0
M  V30 1639 H 169.47 4.62319 3.26002 0
M  V30 1640 H 168.027 5.53907 3.43556 0
M  V30 1641 N 171.46 0.379036 1.52974 0
M  V30 1642 C 172.423 -0.448865 2.24762 0
M  V30 1643 C 173.423 -0.998689 1.26027 0
M  V30 1644 O 174.613 -0.882313 1.50203 0
M  V30 1645 C 171.745 -1.62872 2.99476 0
M  V30 1646 H 172.938 0.179491 2.99362 0
M  V30 1647 H 170.491 0.13096 1.5575 0
M  V30 1648 H 171.226 -2.29479 2.29151 0
M  V30 1649 H 171.011 -1.24128 3.71934 0
M  V30 1650 H 172.501 -2.2151 3.5401 0
M  V30 1651 N 172.938 -1.57226 0.108567 0
M  V30 1652 C 173.868 -2.17778 -0.84232 0
M  V30 1653 C 174.849 -1.11487 -1.2847 0
M  V30 1654 O 176.034 -1.39681 -1.34918 0
M  V30 1655 C 173.164 -2.76888 -2.09644 0
M  V30 1656 C 172.118 -3.88669 -1.79221 0
M  V30 1657 C 171.444 -4.34541 -3.11574 0
M  V30 1658 C 172.744 -5.11251 -1.06864 0
M  V30 1659 H 174.438 -2.97489 -0.337774 0
M  V30 1660 H 171.984 -1.43097 -0.161025 0
M  V30 1661 H 173.937 -3.17904 -2.76614 0
M  V30 1662 H 172.661 -1.94451 -2.62405 0
M  V30 1663 H 171.32 -3.48213 -1.14644 0
M  V30 1664 H 170.968 -3.48977 -3.62249 0
M  V30 1665 H 170.668 -5.09914 -2.91996 0
M  V30 1666 H 172.192 -4.782 -3.7968 0
M  V30 1667 H 173.606 -5.49352 -1.63968 0
M  V30 1668 H 172.003 -5.9214 -0.974178 0
M  V30 1669 H 173.073 -4.8487 -0.0536168 0
M  V30 1670 N 174.416 0.165178 -1.56732 0
M  V30 1671 C 175.346 1.20651 -1.99914 0
M  V30 1672 C 176.327 1.45827 -0.875705 0
M  V30 1673 O 177.512 1.57057 -1.14223 0
M  V30 1674 C 174.642 2.54401 -2.36427 0
M  V30 1675 C 173.596 2.43782 -3.51787 0
M  V30 1676 C 172.922 3.82078 -3.7406 0
M  V30 1677 C 174.222 1.93732 -4.85041 0
M  V30 1678 H 175.916 0.847534 -2.87154 0
M  V30 1679 H 173.462 0.40625 -1.38151 0
M  V30 1680 H 175.415 3.27458 -2.65234 0
M  V30 1681 H 174.139 2.92098 -1.46103 0
M  V30 1682 H 172.798 1.73178 -3.23117 0
M  V30 1683 H 172.446 4.17179 -2.81017 0
M  V30 1684 H 172.146 3.7584 -4.51684 0
M  V30 1685 H 173.67 4.56712 -4.05274 0
M  V30 1686 H 175.084 2.56569 -5.12684 0
M  V30 1687 H 173.481 1.98428 -5.66345 0
M  V30 1688 H 174.551 0.891962 -4.76626 0
M  V30 1689 N 175.894 1.51508 0.433938 0
M  V30 1690 C 177.142 1.6402 1.18075 0
M  V30 1691 C 177.463 0.360328 1.91642 0
M  V30 1692 O 176.733 -0.623945 1.85698 0
M  V30 1693 H 175.313 0.6045 0.43885 0
M  V30 1694 H 177.975 1.88452 0.497178 0
M  V30 1695 H 177.071 2.46949 1.90847 0
M  V30 1696 N 177.372 -0.689602 1.41712 0
M  V30 1697 C 178.302 -1.81577 1.46806 0
M  V30 1698 C 179.283 -1.66945 0.326105 0
M  V30 1699 O 180.468 -1.86588 0.538377 0
M  V30 1700 C 177.598 -3.19762 1.35535 0
M  V30 1701 C 176.552 -3.49107 2.47605 0
M  V30 1702 C 175.878 -4.86711 2.21397 0
M  V30 1703 C 177.178 -3.47483 3.89939 0
M  V30 1704 H 178.872 -1.7757 2.41058 0
M  V30 1705 H 176.418 -0.852887 1.16025 0
M  V30 1706 H 178.371 -3.98263 1.3771 0
M  V30 1707 H 177.095 -3.24409 0.377708 0
M  V30 1708 H 175.754 -2.72959 2.44722 0
M  V30 1709 H 175.402 -4.8799 1.21961 0
M  V30 1710 H 175.102 -5.0731 2.96497 0
M  V30 1711 H 176.626 -5.67515 2.25297 0
M  V30 1712 H 178.04 -4.1598 3.94505 0
M  V30 1713 H 176.437 -3.79615 4.64771 0
M  V30 1714 H 177.507 -2.46341 4.17665 0
M  V30 1715 N 178.85 -1.27639 -0.924453 0
M  V30 1716 C 179.76 -1.12466 -2.05885 0
M  V30 1717 C 180.776 -0.053869 -1.73917 0
M  V30 1718 O 181.952 -0.261012 -1.99702 0
M  V30 1719 C 179.017 -0.776768 -3.37886 0
M  V30 1720 C 178.078 -1.92878 -3.83532 0
M  V30 1721 C 177.311 -1.59739 -5.09234 0
M  V30 1722 O 177.534 -0.506782 -5.68144 0
M  V30 1723 O 176.468 -2.43761 -5.50331 0
M  V30 1724 H 180.294 -2.07671 -2.21599 0
M  V30 1725 H 177.879 -1.06857 -1.04413 0
M  V30 1726 H 179.761 -0.596229 -4.17161 0
M  V30 1727 H 178.436 0.145732 -3.23372 0
M  V30 1728 H 177.343 -2.1644 -3.0513 0
M  V30 1729 H 178.676 -2.8316 -4.02593 0
M  V30 1730 N 180.328 1.1314 -1.09713 0
M  V30 1731 C 181.276 2.20717 -0.733934 0
M  V30 1732 C 182.27 1.6729 0.266506 0
M  V30 1733 O 183.476 1.79547 0.127656 0
M  V30 1734 H 179.851 0.719292 -0.21937 0
M  V30 1735 H 181.822 2.48611 -1.6503 0
M  V30 1736 C 180.571 3.47265 -0.173849 0
M  V30 1737 H 179.894 3.88716 -0.934873 0
M  V30 1738 H 181.334 4.23979 0.0423126 0
M  V30 1739 C 179.793 3.18724 1.09164 0
M  V30 1740 O 180.323 3.37762 2.17439 0
M  V30 1741 N 178.529 2.72583 1.00732 0
M  V30 1742 H 178.076 2.57291 0.126121 0
M  V30 1743 H 178.034 2.53862 1.85476 0
M  V30 1744 N 181.806 0.884767 1.30421 0
M  V30 1745 C 182.736 0.367574 2.30589 0
M  V30 1746 C 183.717 -0.549464 1.60981 0
M  V30 1747 O 184.902 -0.46336 1.88591 0
M  V30 1748 C 182.032 -0.418944 3.44764 0
M  V30 1749 C 180.986 0.406316 4.26067 0
M  V30 1750 C 180.312 -0.506793 5.32293 0
M  V30 1751 C 181.612 1.64832 4.95608 0
M  V30 1752 H 183.306 1.20462 2.74097 0
M  V30 1753 H 180.852 0.580695 1.31772 0
M  V30 1754 H 182.805 -0.791395 4.13902 0
M  V30 1755 H 181.529 -1.28964 3.0006 0
M  V30 1756 H 180.188 0.760903 3.58617 0
M  V30 1757 H 179.836 -1.37519 4.83836 0
M  V30 1758 H 179.536 0.0415828 5.87585 0
M  V30 1759 H 181.06 -0.875764 6.04287 0
M  V30 1760 H 182.474 1.34646 5.57264 0
M  V30 1761 H 180.871 2.13688 5.60765 0
M  V30 1762 H 181.941 2.39284 4.21748 0
M  V30 1763 N 183.284 -1.43765 0.645699 0
M  V30 1764 C 184.524 -2.03776 0.159542 0
M  V30 1765 C 184.888 -1.49792 -1.2011 0
M  V30 1766 O 186.089 -2.01398 -1.78023 0
M  V30 1767 C 184.36 -3.57036 0.161251 0
M  V30 1768 S 185.919 -4.3804 -0.258159 0
M  V30 1769 H 182.737 -0.707717 0.0682454 0
M  V30 1770 H 185.339 -1.75941 0.852352 0
M  V30 1771 H 184.043 -3.9383 1.15439 0
M  V30 1772 H 183.574 -3.89503 -0.552339 0
M  V30 1773 H 185.589 -4.7302 -1.49889 0
M  V30 1774 N 184.763 -0.387143 -1.52771 0
M  V30 1775 C 185.713 0.465942 -2.23188 0
M  V30 1776 C 186.697 1.03138 -1.23496 0
M  V30 1777 O 187.889 0.957845 -1.48843 0
M  V30 1778 C 185.018 1.59384 -3.04059 0
M  V30 1779 C 184.104 1.04024 -4.11144 0
M  V30 1780 N 184.495 0.211416 -5.05358 0
M  V30 1781 C 182.793 1.31295 -4.26237 0
M  V30 1782 C 183.494 -0.0941698 -5.81624 0
M  V30 1783 N 182.47 0.509207 -5.4121 0
M  V30 1784 H 186.272 -0.173856 -2.93385 0
M  V30 1785 H 183.786 -0.19633 -1.61209 0
M  V30 1786 H 185.783 2.21738 -3.53041 0
M  V30 1787 H 184.443 2.23648 -2.35397 0
M  V30 1788 H 185.454 -0.151151 -5.17679 0
M  V30 1789 H 182.131 1.95679 -3.68803 0
M  V30 1790 H 183.521 -0.765572 -6.67524 0
M  V30 1791 N 186.241 1.57166 -0.116904 0
M  V30 1792 C 187.171 2.18222 0.830759 0
M  V30 1793 C 188.152 1.12167 1.27877 0
M  V30 1794 O 189.337 1.40394 1.34176 0
M  V30 1795 C 186.467 2.77996 2.08172 0
M  V30 1796 C 185.421 3.89614 1.77157 0
M  V30 1797 C 184.747 4.36187 3.09265 0
M  V30 1798 C 186.047 5.1181 1.04151 0
M  V30 1799 H 187.741 2.97664 0.321992 0
M  V30 1800 H 185.287 1.4318 0.153434 0
M  V30 1801 H 187.24 3.19366 2.74924 0
M  V30 1802 H 185.964 1.9584 2.6137 0
M  V30 1803 H 184.623 3.48816 1.12796 0
M  V30 1804 H 184.271 3.50893 3.60393 0
M  V30 1805 H 183.971 5.11455 2.89288 0
M  V30 1806 H 185.495 4.80207 3.77139 0
M  V30 1807 H 186.909 5.50214 1.61052 0
M  V30 1808 H 185.306 5.92648 0.942762 0
M  V30 1809 H 186.376 4.84892 0.0279022 0
M  V30 1810 N 187.719 -0.156864 1.56817 0
M  V30 1811 C 188.669 -1.19891 1.93934 0
M  V30 1812 C 189.653 -1.39061 0.809372 0
M  V30 1813 O 190.845 -1.40789 1.07273 0
M  V30 1814 C 187.974 -2.53493 2.31508 0
M  V30 1815 C 187.06 -2.37957 3.51052 0
M  V30 1816 N 187.451 -1.92158 4.67877 0
M  V30 1817 C 185.749 -2.68739 3.55943 0
M  V30 1818 C 186.45 -1.8943 5.49992 0
M  V30 1819 N 185.426 -2.32375 4.91429 0
M  V30 1820 H 189.228 -0.836746 2.81737 0
M  V30 1821 H 186.742 -0.365012 1.58245 0
M  V30 1822 H 188.739 -3.28811 2.56299 0
M  V30 1823 H 187.399 -2.905 1.45051 0
M  V30 1824 H 188.41 -1.62274 4.91821 0
M  V30 1825 H 185.087 -3.09687 2.80001 0
M  V30 1826 H 186.477 -1.55596 6.53636 0
M  V30 1827 N 189.197 -1.51736 -0.425897 0
M  V30 1828 C 190.127 -1.76827 -1.52494 0
M  V30 1829 C 191.108 -0.618524 -1.58456 0
M  V30 1830 O 192.293 -0.862416 -1.74 0
M  V30 1831 C 189.423 -1.90374 -2.90474 0
M  V30 1832 C 188.377 -3.0588 -2.99369 0
M  V30 1833 C 187.703 -3.04625 -4.3944 0
M  V30 1834 C 189.003 -4.45644 -2.72394 0
M  V30 1835 H 190.697 -2.68855 -1.31748 0
M  V30 1836 H 188.243 -1.29372 -0.632362 0
M  V30 1837 H 190.196 -2.0651 -3.6733 0
M  V30 1838 H 188.92 -0.95004 -3.12477 0
M  V30 1839 H 187.579 -2.89467 -2.24954 0
M  V30 1840 H 187.227 -2.0701 -4.58428 0
M  V30 1841 H 186.927 -3.82195 -4.46319 0
M  V30 1842 H 188.451 -3.22869 -5.18255 0
M  V30 1843 H 189.865 -4.62348 -3.38979 0
M  V30 1844 H 188.262 -5.25006 -2.9067 0
M  V30 1845 H 189.332 -4.54893 -1.67929 0
M  V30 1846 N 190.675 0.682077 -1.42076 0
M  V30 1847 C 191.585 1.82535 -1.47371 0
M  V30 1848 C 192.601 1.7017 -0.363079 0
M  V30 1849 O 193.777 1.91848 -0.612875 0
M  V30 1850 C 190.842 3.18624 -1.36674 0
M  V30 1851 C 189.903 3.42999 -2.58167 0
M  V30 1852 C 189.136 4.72595 -2.4797 0
M  V30 1853 O 189.359 5.50006 -1.5116 0
M  V30 1854 O 188.293 4.98054 -3.37974 0
M  V30 1855 H 192.119 1.81023 -2.43853 0
M  V30 1856 H 189.704 0.836887 -1.2376 0
M  V30 1857 H 191.586 3.99847 -1.33043 0
M  V30 1858 H 190.261 3.20789 -0.433138 0
M  V30 1859 H 189.168 2.61653 -2.67373 0
M  V30 1860 H 190.501 3.45659 -3.50401 0
M  V30 1861 N 192.153 1.28127 0.917671 0
M  V30 1862 C 193.569 1.05749 1.19538 0
M  V30 1863 C 193.769 -0.202633 2.00479 0
M  V30 1864 O 192.825 -0.905382 2.3571 0
M  V30 1865 C 194.138 2.30273 1.93378 0
M  V30 1866 C 195.686 2.35412 2.06277 0
M  V30 1867 C 196.161 3.59692 2.83524 0
M  V30 1868 N 197.652 3.60309 2.91087 0
M  V30 1869 C 198.387 4.53147 3.51348 0
M  V30 1870 N 197.883 5.563 4.12919 0
M  V30 1871 N 199.676 4.40751 3.48849 0
M  V30 1872 H 191.827 2.09024 0.377184 0
M  V30 1873 H 194.09 0.919798 0.22951 0
M  V30 1874 H 193.796 3.22055 1.41328 0
M  V30 1875 H 193.67 2.36378 2.93947 0
M  V30 1876 H 196.057 1.4413 2.57508 0
M  V30 1877 H 196.138 2.33304 1.04895 0
M  V30 1878 H 195.782 4.51316 2.32973 0
M  V30 1879 H 195.712 3.59054 3.85211 0
M  V30 1880 H 198.203 2.85714 2.47338 0
M  V30 1881 H 198.516 6.2329 4.56869 0
M  V30 1882 H 196.861 5.60131 4.11435 0
M  V30 1883 H 200.052 3.59367 2.99955 0
M  V30 1884 H 200.225 5.13291 3.9552 0
M  V30 1885 N 193.631 -1.12557 1.10312 0
M  V30 1886 C 194.579 -2.20325 0.745629 0
M  V30 1887 C 195.573 -1.67429 -0.25763 0
M  V30 1888 O 196.779 -1.79612 -0.118132 0
M  V30 1889 H 193.154 -0.718118 0.223182 0
M  V30 1890 H 195.125 -2.47733 1.66346 0
M  V30 1891 C 193.874 -3.47168 0.192262 0
M  V30 1892 H 193.197 -3.88215 0.955475 0
M  V30 1893 H 194.637 -4.23995 -0.0198274 0
M  V30 1894 C 193.096 -3.19298 -1.07472 0
M  V30 1895 O 193.626 -3.3891 -2.15645 0
M  V30 1896 N 191.832 -2.73113 -0.992847 0
M  V30 1897 H 191.379 -2.57354 -0.112474 0
M  V30 1898 H 191.337 -2.54842 -1.84127 0
M  V30 1899 N 195.109 -0.891671 -1.2995 0
M  V30 1900 C 196.041 -0.320695 -2.26945 0
M  V30 1901 C 197.054 0.528497 -1.53983 0
M  V30 1902 O 198.243 0.346959 -1.75096 0
M  V30 1903 C 195.343 0.562066 -3.34207 0
M  V30 1904 C 194.516 -0.259576 -4.36629 0
M  V30 1905 C 193.575 0.554739 -5.23268 0
M  V30 1906 O 192.601 -0.0249311 -5.69195 0
M  V30 1907 N 193.803 1.8625 -5.4981 0
M  V30 1908 H 196.568 -1.15432 -2.76578 0
M  V30 1909 H 194.129 -0.755336 -1.432 0
M  V30 1910 H 196.121 1.11304 -3.89093 0
M  V30 1911 H 194.691 1.29637 -2.84452 0
M  V30 1912 H 193.911 -0.991986 -3.81514 0
M  V30 1913 H 195.199 -0.822564 -5.02107 0
M  V30 1914 H 194.597 2.35628 -5.14292 0
M  V30 1915 H 193.154 2.36078 -6.07545 0
M  V30 1916 N 196.587 1.43421 -0.653314 0
M  V30 1917 C 197.517 2.33487 0.0246656 0
M  V30 1918 C 198.498 1.49475 0.811863 0
M  V30 1919 O 199.683 1.78139 0.773322 0
M  V30 1920 C 196.813 3.32841 0.99166 0
M  V30 1921 C 195.767 4.26842 0.314568 0
M  V30 1922 C 195.093 5.16236 1.39302 0
M  V30 1923 C 196.393 5.16243 -0.793095 0
M  V30 1924 H 198.087 2.90427 -0.727481 0
M  V30 1925 H 195.633 1.39649 -0.351287 0
M  V30 1926 H 197.586 3.94747 1.47487 0
M  V30 1927 H 196.31 2.74158 1.77497 0
M  V30 1928 H 194.969 3.663 -0.148199 0
M  V30 1929 H 194.617 4.53891 2.16776 0
M  V30 1930 H 194.317 5.79948 0.945223 0
M  V30 1931 H 195.841 5.81015 1.87759 0
M  V30 1932 H 197.255 5.71958 -0.392039 0
M  V30 1933 H 195.652 5.88676 -1.16536 0
M  V30 1934 H 196.722 4.55927 -1.65103 0
M  V30 1935 N 198.065 0.39524 1.52563 0
M  V30 1936 C 199.481 0.0454682 1.59535 0
M  V30 1937 C 199.681 -1.44056 1.4089 0
M  V30 1938 O 198.737 -2.20579 1.22888 0
M  V30 1939 C 200.05 0.527963 2.96029 0
M  V30 1940 C 201.598 0.484733 3.09224 0
M  V30 1941 C 202.073 0.943512 4.48176 0
M  V30 1942 N 203.564 0.899765 4.54377 0
M  V30 1943 C 204.299 1.22609 5.60138 0
M  V30 1944 N 203.795 1.62319 6.73516 0
M  V30 1945 N 205.588 1.14696 5.50274 0
M  V30 1946 H 197.739 1.36261 1.62931 0
M  V30 1947 H 200.002 0.558887 0.765735 0
M  V30 1948 H 199.708 1.56607 3.14908 0
M  V30 1949 H 199.582 -0.0698056 3.77135 0
M  V30 1950 H 201.969 -0.544298 2.90037 0
M  V30 1951 H 202.05 1.11838 2.30056 0
M  V30 1952 H 201.694 1.9708 4.68104 0
M  V30 1953 H 201.624 0.286817 5.25818 0
M  V30 1954 H 204.115 0.607632 3.72983 0
M  V30 1955 H 204.428 1.85567 7.5019 0
M  V30 1956 H 202.773 1.66211 6.74833 0
M  V30 1957 H 205.964 0.835701 4.6058 0
M  V30 1958 H 206.137 1.40459 6.32594 0
M  V30 1959 N 199.544 -1.57102 0.125237 0
M  V30 1960 C 200.769 -2.0019 -0.542101 0
M  V30 1961 C 201.194 -1.00449 -1.59034 0
M  V30 1962 O 200.552 0.0229423 -1.81285 0
M  V30 1963 C 200.6 -3.42129 -1.13929 0
M  V30 1964 O 199.704 -3.45307 -2.2547 0
M  V30 1965 H 199.045 -0.650171 -0.134812 0
M  V30 1966 H 201.575 -2.03461 0.215553 0
M  V30 1967 H 201.585 -3.80471 -1.4733 0
M  V30 1968 H 200.26 -4.14237 -0.371531 0
M  V30 1969 H 198.837 -3.1879 -1.93462 0
M  V30 1970 N 201.022 0.148545 -1.56898 0
M  V30 1971 C 201.952 1.18524 -2.01182 0
M  V30 1972 C 202.933 1.4489 -0.891123 0
M  V30 1973 O 204.118 1.55836 -1.15882 0
M  V30 1974 C 201.248 2.51879 -2.39112 0
M  V30 1975 C 200.202 2.40038 -3.54353 0
M  V30 1976 C 199.528 3.78089 -3.78091 0
M  V30 1977 C 200.828 1.88577 -4.87069 0
M  V30 1978 H 202.522 0.817029 -2.88036 0
M  V30 1979 H 200.068 0.391575 -1.38574 0
M  V30 1980 H 202.021 3.24627 -2.68692 0
M  V30 1981 H 200.745 2.90532 -1.49193 0
M  V30 1982 H 199.404 1.69742 -3.24936 0
M  V30 1983 H 199.052 4.14175 -2.85426 0
M  V30 1984 H 198.752 3.71028 -4.55645 0
M  V30 1985 H 200.276 4.52387 -4.10095 0
M  V30 1986 H 201.69 2.51117 -5.15377 0
M  V30 1987 H 200.087 1.9241 -5.68417 0
M  V30 1988 H 201.157 0.84136 -4.77545 0
M  V30 1989 N 202.5 1.5196 0.417844 0
M  V30 1990 C 203.463 1.74065 1.49111 0
M  V30 1991 C 204.463 0.610537 1.48758 0
M  V30 1992 O 205.653 0.87832 1.50437 0
M  V30 1993 C 202.785 1.81502 2.88565 0
M  V30 1994 H 203.978 2.69869 1.30807 0
M  V30 1995 H 201.531 1.42244 0.647785 0
M  V30 1996 H 202.266 0.875813 3.1225 0
M  V30 1997 H 202.051 2.63651 2.90225 0
M  V30 1998 H 203.541 2.00376 3.66387 0
M  V30 1999 N 203.978 -0.674533 1.42435 0
M  V30 2000 C 204.908 -1.80009 1.48724 0
M  V30 2001 C 205.889 -1.6659 0.343793 0
M  V30 2002 O 207.074 -1.86007 0.558137 0
M  V30 2003 C 204.204 -3.18306 1.38919 0
M  V30 2004 C 203.158 -3.46461 2.51294 0
M  V30 2005 C 202.484 -4.84335 2.26547 0
M  V30 2006 C 203.784 -3.43328 3.93603 0
M  V30 2007 H 205.478 -1.75004 2.42928 0
M  V30 2008 H 203.024 -0.840533 1.16923 0
M  V30 2009 H 204.977 -3.9678 1.41927 0
M  V30 2010 H 203.701 -3.2399 0.412094 0
M  V30 2011 H 202.36 -2.70348 2.47604 0
M  V30 2012 H 202.008 -4.86669 1.2713 0
M  V30 2013 H 201.708 -5.04136 3.01861 0
M  V30 2014 H 203.232 -5.65094 2.31304 0
M  V30 2015 H 204.646 -4.11772 3.98894 0
M  V30 2016 H 203.043 -3.74664 4.68771 0
M  V30 2017 H 204.113 -2.41897 4.20255 0
M  V30 2018 N 205.456 -1.28612 -0.910864 0
M  V30 2019 C 206.704 -1.15705 -1.65701 0
M  V30 2020 C 207.025 0.29416 -1.92769 0
M  V30 2021 O 206.295 1.20331 -1.54588 0
M  V30 2022 H 204.875 -0.425216 -0.614167 0
M  V30 2023 H 207.537 -1.61381 -1.0928 0
M  V30 2024 H 206.633 -1.6988 -2.61815 0
M  V30 2025 N 206.934 1.1197 -1.10907 0
M  V30 2026 C 208.162 1.87402 -0.876824 0
M  V30 2027 C 208.577 1.79894 0.573025 0
M  V30 2028 O 207.934 1.17629 1.39534 0
M  V30 2029 C 207.985 3.36428 -1.32282 0
M  V30 2030 O 207.706 3.43765 -2.71582 0
M  V30 2031 C 209.207 4.28783 -1.12518 0
M  V30 2032 H 206.427 0.592793 -0.314384 0
M  V30 2033 H 208.971 1.41649 -1.47499 0
M  V30 2034 H 207.126 3.79706 -0.768229 0
M  V30 2035 H 207.54 4.3652 -2.90776 0
M  V30 2036 H 209.014 5.31613 -1.48633 0
M  V30 2037 H 209.491 4.39153 -0.0642394 0
M  V30 2038 H 210.097 3.91291 -1.66648 0
M  V30 2039 N 208.412 0.89855 1.29475 0
M  V30 2040 C 209.659 0.523882 1.95606 0
M  V30 2041 C 209.987 -0.929608 1.70847 0
M  V30 2042 O 209.242 -1.67401 1.01367 0
M  V30 2043 C 209.541 0.761398 3.49195 0
M  V30 2044 C 209.207 2.19207 3.94029 0
M  V30 2045 C 207.869 2.58326 4.05982 0
M  V30 2046 C 210.221 3.12379 4.17216 0
M  V30 2047 C 207.549 3.898 4.38489 0
M  V30 2048 C 209.901 4.43401 4.51197 0
M  V30 2049 C 208.565 4.82394 4.61359 0
M  V30 2050 H 207.835 0.191702 0.715773 0
M  V30 2051 H 210.482 1.13699 1.54094 0
M  V30 2052 H 208.787 0.0653622 3.91745 0
M  V30 2053 H 210.484 0.450904 3.98457 0
M  V30 2054 H 207.074 1.87846 3.85242 0
M  V30 2055 H 211.258 2.83371 4.07449 0
M  V30 2056 H 206.514 4.19734 4.44559 0
M  V30 2057 H 210.688 5.15623 4.68087 0
M  V30 2058 H 208.315 5.84306 4.86303 0
M  V30 2059 N 209.89 -1.43072 0.660911 0
M  V30 2060 C 210.853 -2.29194 -0.0166406 0
M  V30 2061 C 211.853 -1.42609 -0.742912 0
M  V30 2062 O 213.043 -1.64155 -0.583004 0
M  V30 2063 C 210.175 -3.24831 -1.0343 0
M  V30 2064 H 211.368 -2.90596 0.741208 0
M  V30 2065 H 208.921 -1.5048 0.422532 0
M  V30 2066 H 209.656 -2.68339 -1.82111 0
M  V30 2067 H 209.441 -3.88676 -0.517082 0
M  V30 2068 H 210.931 -3.89451 -1.50723 0
M  V30 2069 N 211.368 -0.403325 -1.52352 0
M  V30 2070 C 212.318 0.442244 -2.2367 0
M  V30 2071 C 213.302 1.01823 -1.24583 0
M  V30 2072 O 214.494 0.942005 -1.49851 0
M  V30 2073 C 211.623 1.5615 -3.05732 0
M  V30 2074 C 210.709 0.996575 -4.12225 0
M  V30 2075 N 211.1 0.157804 -5.05554 0
M  V30 2076 C 209.398 1.26767 -4.27605 0
M  V30 2077 C 210.099 -0.155853 -5.81491 0
M  V30 2078 N 209.075 0.451775 -5.41719 0
M  V30 2079 H 212.877 -0.204964 -2.93184 0
M  V30 2080 H 210.391 -0.213418 -1.60992 0
M  V30 2081 H 212.388 2.17981 -3.55373 0
M  V30 2082 H 211.048 2.21139 -2.37755 0
M  V30 2083 H 212.059 -0.206049 -5.1749 0
M  V30 2084 H 208.736 1.91757 -3.70858 0
M  V30 2085 H 210.126 -0.836329 -6.66675 0
M  V30 2086 N 212.846 1.57033 -0.133567 0
M  V30 2087 C 214.074 2.00044 0.528195 0
M  V30 2088 C 214.489 1.01349 1.59291 0
M  V30 2089 O 213.846 0.00848369 1.82498 0
M  V30 2090 C 213.897 3.43018 1.1411 0
M  V30 2091 O 213.618 4.37939 0.11892 0
M  V30 2092 C 215.119 4.01237 1.88477 0
M  V30 2093 H 212.339 0.656517 0.138661 0
M  V30 2094 H 214.883 2.03267 -0.224196 0
M  V30 2095 H 213.038 3.40688 1.84418 0
M  V30 2096 H 213.452 5.21436 0.56613 0
M  V30 2097 H 214.926 5.03314 2.26669 0
M  V30 2098 H 215.403 3.41193 2.76558 0
M  V30 2099 H 216.009 4.07156 1.22898 0
M  V30 2100 N 214.325 -0.140222 1.56975 0
M  V30 2101 C 215.736 -0.699596 1.73097 0
M  V30 2102 C 216.087 -1.8134 0.749022 0
M  V30 2103 O 215.212 -2.16241 -0.0828503 0
M  V30 2104 C 215.807 -1.27582 3.1386 0
M  V30 2105 C 214.366 -1.78169 3.31561 0
M  V30 2106 C 213.513 -0.672855 2.69013 0
M  V30 2107 H 216.464 0.0855115 1.58469 0
M  V30 2108 H 216.485 -2.14561 3.14235 0
M  V30 2109 H 215.997 -0.464955 3.85305 0
M  V30 2110 H 214.098 -2.61801 2.65124 0
M  V30 2111 H 214.211 -1.90574 4.39566 0
M  V30 2112 H 212.575 -1.10118 2.29665 0
M  V30 2113 H 213.358 0.126679 3.43066 0
M  V30 2114 N 215.803 -1.52179 -0.40978 0
M  V30 2115 C 216.766 -1.74853 -1.48186 0
M  V30 2116 C 217.766 -0.618417 -1.48433 0
M  V30 2117 O 218.956 -0.886286 -1.49969 0
M  V30 2118 C 216.088 -1.8303 -2.87598 0
M  V30 2119 H 217.281 -2.70559 -1.29374 0
M  V30 2120 H 214.834 -1.42586 -0.640233 0
M  V30 2121 H 215.569 -0.89236 -3.11781 0
M  V30 2122 H 215.354 -2.65187 -2.88822 0
M  V30 2123 H 216.844 -2.02316 -3.65319 0
M  V30 2124 N 217.281 0.66697 -1.42791 0
M  V30 2125 C 218.211 1.79218 -1.49677 0
M  V30 2126 C 219.192 1.66405 -0.352623 0
M  V30 2127 O 220.377 1.85708 -0.567993 0
M  V30 2128 C 217.507 3.17565 -1.40605 0
M  V30 2129 C 216.461 3.45124 -2.53127 0
M  V30 2130 C 215.787 4.83127 -2.29112 0
M  V30 2131 C 217.087 3.41236 -3.95418 0
M  V30 2132 H 218.781 1.73713 -2.43853 0
M  V30 2133 H 216.327 0.83432 -1.17367 0
M  V30 2134 H 218.28 3.96022 -1.44029 0
M  V30 2135 H 217.004 3.23767 -0.429271 0
M  V30 2136 H 215.663 2.69031 -2.49034 0
M  V30 2137 H 215.311 4.85988 -1.29709 0
M  V30 2138 H 215.011 5.02528 -3.04531 0
M  V30 2139 H 216.535 5.63859 -2.34297 0
M  V30 2140 H 217.949 4.09651 -4.01073 0
M  V30 2141 H 216.346 3.72173 -4.70752 0
M  V30 2142 H 217.416 2.39665 -4.21532 0
M  V30 2143 N 218.759 1.29093 0.90403 0
M  V30 2144 C 219.722 1.1386 1.98919 0
M  V30 2145 C 220.722 0.0753457 1.60623 0
M  V30 2146 O 221.912 0.321931 1.71199 0
M  V30 2147 C 219.044 0.740198 3.32767 0
M  V30 2148 H 220.237 2.10246 2.13861 0
M  V30 2149 H 217.79 1.12218 1.08797 0
M  V30 2150 H 218.525 -0.223997 3.23525 0
M  V30 2151 H 218.31 1.50838 3.61926 0
M  V30 2152 H 219.8 0.656546 4.12407 0
M  V30 2153 N 220.237 -1.11381 1.11499 0
M  V30 2154 C 221.462 -1.87475 0.887019 0
M  V30 2155 C 221.887 -1.79639 -0.557796 0
M  V30 2156 O 221.245 -1.15924 -1.39396 0
M  V30 2157 C 221.293 -3.34213 1.35403 0
M  V30 2158 O 220.397 -4.0903 0.526146 0
M  V30 2159 H 219.738 -0.582099 0.319463 0
M  V30 2160 H 222.268 -1.40785 1.48461 0
M  V30 2161 H 222.278 -3.8506 1.34881 0
M  V30 2162 H 220.953 -3.39232 2.40612 0
M  V30 2163 H 219.53 -3.68082 0.597522 0
M  V30 2164 N 221.715 -0.905404 -1.28997 0
M  V30 2165 C 222.645 -0.404212 -2.29975 0
M  V30 2166 C 223.626 0.523784 -1.61835 0
M  V30 2167 O 224.811 0.433298 -1.89304 0
M  V30 2168 C 221.941 0.364042 -3.45387 0
M  V30 2169 C 220.895 -0.474048 -4.25367 0
M  V30 2170 C 220.221 0.422045 -5.33032 0
M  V30 2171 C 221.521 -1.72696 -4.92923 0
M  V30 2172 H 223.215 -1.24807 -2.72146 0
M  V30 2173 H 220.761 -0.601585 -1.30832 0
M  V30 2174 H 222.714 0.725447 -4.15109 0
M  V30 2175 H 221.438 1.24174 -3.02074 0
M  V30 2176 H 220.097 -0.81786 -3.57361 0
M  V30 2177 H 219.745 1.29804 -4.85963 0
M  V30 2178 H 219.445 -0.135057 -5.87445 0
M  V30 2179 H 220.969 0.779517 -6.05604 0
M  V30 2180 H 222.383 -1.43495 -5.55051 0
M  V30 2181 H 220.78 -2.22582 -5.57295 0
M  V30 2182 H 221.85 -2.45964 -4.17887 0
M  V30 2183 N 223.193 1.4272 -0.668489 0
M  V30 2184 C 224.441 2.01226 -0.187769 0
M  V30 2185 C 224.762 1.53092 1.2078 0
M  V30 2186 O 224.032 0.74993 1.80977 0
M  V30 2187 H 222.612 0.744041 -0.0664272 0
M  V30 2188 H 225.274 1.74723 -0.863583 0
M  V30 2189 H 224.37 3.11556 -0.184166 0
M  V30 2190 N 224.671 0.411399 1.52136 0
M  V30 2191 C 225.601 -0.404015 2.29978 0
M  V30 2192 C 226.582 -1.04412 1.34284 0
M  V30 2193 O 227.767 -1.0527 1.63192 0
M  V30 2194 C 224.897 -1.5197 3.12286 0
M  V30 2195 C 223.851 -1.00448 4.16046 0
M  V30 2196 C 223.177 -2.21393 4.86712 0
M  V30 2197 C 224.477 -0.0569336 5.22269 0
M  V30 2198 H 226.171 0.245529 2.98392 0
M  V30 2199 H 223.717 0.119525 1.43503 0
M  V30 2200 H 225.67 -2.09715 3.6551 0
M  V30 2201 H 224.394 -2.19716 2.41646 0
M  V30 2202 H 223.053 -0.449421 3.63835 0
M  V30 2203 H 222.701 -2.87699 4.12599 0
M  V30 2204 H 222.401 -1.87571 5.56858 0
M  V30 2205 H 223.925 -2.7974 5.4275 0
M  V30 2206 H 225.339 -0.54325 5.7072 0
M  V30 2207 H 223.736 0.192594 5.99791 0
M  V30 2208 H 224.806 0.887663 4.76706 0
M  V30 2209 N 226.149 -1.5696 0.141893 0
M  V30 2210 C 227.374 -2.00754 -0.520838 0
M  V30 2211 C 227.799 -1.0213 -1.57959 0
M  V30 2212 O 227.157 0.00371324 -1.813 0
M  V30 2213 C 227.205 -3.43318 -1.10294 0
M  V30 2214 O 226.309 -3.47679 -2.21795 0
M  V30 2215 H 225.65 -0.651564 -0.127908 0
M  V30 2216 H 228.18 -2.03221 0.23712 0
M  V30 2217 H 228.19 -3.82012 -1.43287 0
M  V30 2218 H 226.865 -4.14608 -0.327574 0
M  V30 2219 H 225.442 -3.20824 -1.9007 0
M  V30 2220 N 227.627 0.131896 -1.57047 0
M  V30 2221 C 228.575 1.18146 -2.0036 0
M  V30 2222 C 229.569 1.43614 -0.898406 0
M  V30 2223 O 230.775 1.43729 -1.08361 0
M  V30 2224 H 227.15 0.398042 -0.638018 0
M  V30 2225 H 229.121 0.789564 -2.87765 0
M  V30 2226 C 227.87 2.50341 -2.41298 0
M  V30 2227 H 227.193 2.31578 -3.25902 0
M  V30 2228 H 228.633 3.22371 -2.75414 0
M  V30 2229 C 227.092 3.11984 -1.27153 0
M  V30 2230 O 227.622 3.97484 -0.580459 0
M  V30 2231 N 225.828 2.71662 -1.03189 0
M  V30 2232 H 225.375 2.02231 -1.59564 0
M  V30 2233 H 225.333 3.13238 -0.270077 0
M  V30 2234 N 229.106 1.52395 0.401703 0
M  V30 2235 C 230.054 1.7689 1.51039 0
M  V30 2236 C 231.048 0.636298 1.56996 0
M  V30 2237 O 232.254 0.818507 1.60314 0
M  V30 2238 H 228.629 0.559502 0.502456 0
M  V30 2239 H 230.6 2.69757 1.27568 0
M  V30 2240 C 229.349 1.94331 2.88324 0
M  V30 2241 H 228.672 2.80905 2.84486 0
M  V30 2242 H 230.112 2.15466 3.65172 0
M  V30 2243 C 228.571 0.712396 3.29282 0
M  V30 2244 O 229.101 -0.116218 4.01532 0
M  V30 2245 N 227.307 0.546154 2.85422 0
M  V30 2246 H 226.854 1.22156 2.26794 0
M  V30 2247 H 226.812 -0.276113 3.13185 0
M  V30 2248 N 230.584 -0.659388 1.43143 0
M  V30 2249 C 232 -0.974337 1.26407 0
M  V30 2250 C 232.2 -2.007 0.179341 0
M  V30 2251 O 231.256 -2.4856 -0.444295 0
M  V30 2252 C 232.569 -1.46447 2.62628 0
M  V30 2253 C 234.117 -1.58144 2.7011 0
M  V30 2254 C 234.592 -2.1055 4.06734 0
M  V30 2255 N 236.083 -2.17861 4.08767 0
M  V30 2256 C 236.818 -2.59519 5.1131 0
M  V30 2257 N 236.314 -3.00518 6.24228 0
M  V30 2258 N 238.107 -2.59404 4.98664 0
M  V30 2259 H 230.258 0.0240528 2.12386 0
M  V30 2260 H 232.521 -0.0518065 0.946583 0
M  V30 2261 H 232.227 -0.780123 3.42939 0
M  V30 2262 H 232.101 -2.44058 2.87603 0
M  V30 2263 H 234.488 -2.25682 1.90136 0
M  V30 2264 H 234.569 -0.589828 2.48907 0
M  V30 2265 H 234.213 -1.43616 4.87172 0
M  V30 2266 H 234.143 -3.10531 4.25298 0
M  V30 2267 H 236.634 -1.88975 3.27257 0
M  V30 2268 H 236.947 -3.31036 6.98309 0
M  V30 2269 H 235.292 -2.98337 6.2771 0
M  V30 2270 H 238.483 -2.26747 4.09516 0
M  V30 2271 H 238.656 -2.91548 5.78709 0
M  V30 2272 N 232.062 -1.29571 -0.897171 0
M  V30 2273 C 232.992 -1.17473 -2.01798 0
M  V30 2274 C 233.973 -0.068323 -1.69963 0
M  V30 2275 O 235.158 -0.248239 -1.92607 0
M  V30 2276 C 232.288 -0.853099 -3.36659 0
M  V30 2277 C 231.242 -1.9161 -3.82713 0
M  V30 2278 C 230.568 -1.44773 -5.14728 0
M  V30 2279 C 231.868 -3.32535 -4.02763 0
M  V30 2280 H 233.562 -2.11237 -2.12177 0
M  V30 2281 H 231.108 -1.01699 -1.01948 0
M  V30 2282 H 233.061 -0.755165 -4.14578 0
M  V30 2283 H 231.785 0.120236 -3.26379 0
M  V30 2284 H 230.444 -2.00346 -3.07013 0
M  V30 2285 H 230.092 -0.462995 -5.00865 0
M  V30 2286 H 229.792 -2.15865 -5.46513 0
M  V30 2287 H 231.316 -1.36334 -5.95185 0
M  V30 2288 H 232.73 -3.26626 -4.71156 0
M  V30 2289 H 231.127 -4.01607 -4.45905 0
M  V30 2290 H 232.197 -3.75326 -3.07016 0
M  V30 2291 N 233.54 1.10788 -1.12088 0
M  V30 2292 C 234.765 1.87002 -0.896949 0
M  V30 2293 C 235.19 1.79933 0.548261 0
M  V30 2294 O 234.548 1.16662 1.38779 0
M  V30 2295 C 234.596 3.3349 -1.37174 0
M  V30 2296 O 233.7 4.08745 -0.547831 0
M  V30 2297 H 233.041 0.580397 -0.322545 0
M  V30 2298 H 235.571 1.39996 -1.49206 0
M  V30 2299 H 235.581 3.84339 -1.36922 0
M  V30 2300 H 234.256 3.37951 -2.42408 0
M  V30 2301 H 232.833 3.6776 -0.617034 0
M  V30 2302 N 235.018 0.912232 1.28515 0
M  V30 2303 C 236.434 0.610159 1.47476 0
M  V30 2304 C 236.634 -0.844955 1.82928 0
M  V30 2305 O 235.69 -1.62416 1.93332 0
M  V30 2306 C 237.003 1.54675 2.57868 0
M  V30 2307 C 238.551 1.55331 2.71738 0
M  V30 2308 C 239.026 2.47649 3.85272 0
M  V30 2309 N 240.517 2.45767 3.92623 0
M  V30 2310 C 241.252 3.13896 4.79851 0
M  V30 2311 N 240.748 3.9135 5.71679 0
M  V30 2312 N 242.541 3.02991 4.73448 0
M  V30 2313 H 234.692 1.85318 1.03783 0
M  V30 2314 H 236.955 0.794777 0.516753 0
M  V30 2315 H 236.661 2.5841 2.38574 0
M  V30 2316 H 236.535 1.27671 3.54937 0
M  V30 2317 H 238.922 0.52335 2.90422 0
M  V30 2318 H 239.003 1.86378 1.75205 0
M  V30 2319 H 238.647 3.50745 3.67342 0
M  V30 2320 H 238.577 2.13904 4.81199 0
M  V30 2321 H 241.068 1.89503 3.26951 0
M  V30 2322 H 241.381 4.40359 6.35062 0
M  V30 2323 H 239.726 3.95455 5.71524 0
M  V30 2324 H 242.917 2.41987 4.007 0
M  V30 2325 H 243.09 3.5636 5.41213 0
M  V30 2326 N 236.496 -1.42363 0.676048 0
M  V30 2327 C 237.426 -2.33497 0.0124832 0
M  V30 2328 C 238.407 -1.50748 -0.787981 0
M  V30 2329 O 239.592 -1.79346 -0.744884 0
M  V30 2330 C 236.722 -3.34377 -0.938582 0
M  V30 2331 C 235.676 -4.27289 -0.246622 0
M  V30 2332 C 235.002 -5.18386 -1.31071 0
M  V30 2333 C 236.302 -5.14916 0.875125 0
M  V30 2334 H 237.996 -2.89233 0.773593 0
M  V30 2335 H 235.542 -1.39073 0.37346 0
M  V30 2336 H 237.495 -3.97044 -1.41188 0
M  V30 2337 H 236.219 -2.76947 -1.73113 0
M  V30 2338 H 234.878 -3.66018 0.206456 0
M  V30 2339 H 234.526 -4.57282 -2.09528 0
M  V30 2340 H 234.226 -5.81378 -0.852839 0
M  V30 2341 H 235.75 -5.83929 -1.78492 0
M  V30 2342 H 237.164 -5.71262 0.482983 0
M  V30 2343 H 235.561 -5.86747 1.25887 0
M  V30 2344 H 236.631 -4.53242 1.72335 0
M  V30 2345 N 237.974 -0.419461 -1.51915 0
M  V30 2346 C 238.884 0.407528 -2.31033 0
M  V30 2347 C 239.9 1.04413 -1.3919 0
M  V30 2348 O 241.076 1.0434 -1.72265 0
M  V30 2349 C 238.141 1.50365 -3.12396 0
M  V30 2350 C 237.202 0.889029 -4.19994 0
M  V30 2351 C 236.435 1.93291 -4.97468 0
M  V30 2352 O 236.658 3.15259 -4.75361 0
M  V30 2353 O 235.592 1.53339 -5.8204 0
M  V30 2354 H 239.418 -0.237865 -3.02767 0
M  V30 2355 H 237.003 -0.182413 -1.48282 0
M  V30 2356 H 238.885 2.13975 -3.63032 0
M  V30 2357 H 237.56 2.13345 -2.43445 0
M  V30 2358 H 236.467 0.215353 -3.7348 0
M  V30 2359 H 237.8 0.302991 -4.91267 0
M  V30 2360 N 239.452 1.56882 -0.150215 0
M  V30 2361 C 240.729 1.87844 0.545327 0
M  V30 2362 C 241.109 1.0567 1.82749 0
M  V30 2363 O 240.457 0.144442 2.28043 0
M  V30 2364 C 240.667 3.39526 0.80767 0
M  V30 2365 C 242.015 4.08814 1.14703 0
M  V30 2366 O 243.039 3.44723 0.896917 0
M  V30 2367 O 241.898 5.22004 1.61784 0
M  V30 2368 H 238.992 0.778677 0.278553 0
M  V30 2369 H 241.538 1.68666 -0.187068 0
M  V30 2370 H 240.31 3.91173 -0.0996096 0
M  V30 2371 H 239.933 3.64243 1.59413 0
M  V30 2372 N 240.93 -0.123565 1.57115 0
M  V30 2373 C 242.178 -0.83051 1.84247 0
M  V30 2374 C 242.499 -1.80629 0.73471 0
M  V30 2375 O 241.769 -1.94403 -0.241688 0
M  V30 2376 H 240.349 -0.309694 0.679778 0
M  V30 2377 H 243.011 -0.111976 1.94578 0
M  V30 2378 H 242.107 -1.37852 2.80006 0
M  V30 2379 N 242.408 -1.52605 -0.393616 0
M  V30 2380 C 243.338 -1.80022 -1.48709 0
M  V30 2381 C 244.319 -0.651995 -1.57108 0
M  V30 2382 O 245.504 -0.89913 -1.72132 0
M  V30 2383 C 242.634 -1.96492 -2.86371 0
M  V30 2384 C 241.588 -3.12161 -2.92813 0
M  V30 2385 C 240.914 -3.13877 -4.3288 0
M  V30 2386 C 242.214 -4.51322 -2.6288 0
M  V30 2387 H 243.908 -2.71589 -1.26015 0
M  V30 2388 H 241.454 -1.30684 -0.604778 0
M  V30 2389 H 243.407 -2.14255 -3.62867 0
M  V30 2390 H 242.131 -1.01611 -3.10391 0
M  V30 2391 H 240.79 -2.94173 -2.18764 0
M  V30 2392 H 240.438 -2.16687 -4.53933 0
M  V30 2393 H 240.138 -3.91576 -4.38112 0
M  V30 2394 H 241.662 -3.33789 -5.1129 0
M  V30 2395 H 243.076 -4.69435 -3.29096 0
M  V30 2396 H 241.473 -5.31053 -2.79468 0
M  V30 2397 H 242.543 -4.58353 -1.58242 0
M  V30 2398 N 243.887 0.651787 -1.4349 0
M  V30 2399 C 245.134 1.41167 -1.45183 0
M  V30 2400 C 245.462 1.94349 -0.0766601 0
M  V30 2401 O 244.717 1.72804 0.918555 0
M  V30 2402 C 245.016 2.60914 -2.44251 0
M  V30 2403 C 244.682 2.26142 -3.9009 0
M  V30 2404 C 243.344 2.16371 -4.2981 0
M  V30 2405 C 245.696 1.98334 -4.81989 0
M  V30 2406 C 243.024 1.7695 -5.5938 0
M  V30 2407 C 245.376 1.6041 -6.11924 0
M  V30 2408 C 244.04 1.49166 -6.5062 0
M  V30 2409 H 243.31 0.516566 -0.531263 0
M  V30 2410 H 245.957 0.741099 -1.76579 0
M  V30 2411 H 244.262 3.3311 -2.06265 0
M  V30 2412 H 245.959 3.19127 -2.42815 0
M  V30 2413 H 242.549 2.34658 -3.58655 0
M  V30 2414 H 246.733 2.04803 -4.52072 0
M  V30 2415 H 241.989 1.66831 -5.88198 0
M  V30 2416 H 246.163 1.37925 -6.82605 0
M  V30 2417 H 243.79 1.1839 -7.50925 0
M  V30 2418 N 245.365 1.30045 0.890287 0
M  V30 2419 C 246.275 1.17885 2.02831 0
M  V30 2420 C 247.291 0.0999609 1.73713 0
M  V30 2421 O 248.467 0.313867 1.98939 0
M  V30 2422 C 245.532 0.866079 3.35708 0
M  V30 2423 C 244.593 2.02979 3.78283 0
M  V30 2424 C 243.826 1.73184 5.0482 0
M  V30 2425 O 244.049 0.657237 5.66601 0
M  V30 2426 O 242.983 2.58267 5.43674 0
M  V30 2427 H 246.809 2.13474 2.16015 0
M  V30 2428 H 244.394 1.09587 1.01543 0
M  V30 2429 H 246.276 0.706623 4.15433 0
M  V30 2430 H 244.951 -0.0599443 3.23644 0
M  V30 2431 H 243.858 2.24454 2.99285 0
M  V30 2432 H 245.191 2.93734 3.94944 0
M  V30 2433 N 246.843 -1.10192 1.12674 0
M  V30 2434 C 248.091 -1.81845 0.881861 0
M  V30 2435 C 248.412 -1.85737 -0.593867 0
M  V30 2436 O 247.682 -1.33724 -1.4316 0
M  V30 2437 H 246.262 -0.673432 0.323261 0
M  V30 2438 H 248.924 -1.33316 1.42172 0
M  V30 2439 H 248.02 -2.85288 1.2656 0
M  V30 2440 N 248.321 -0.919034 -1.28029 0
M  V30 2441 C 249.251 -0.428581 -2.29533 0
M  V30 2442 C 250.232 0.50659 -1.62381 0
M  V30 2443 O 251.417 0.413195 -1.89753 0
M  V30 2444 C 248.547 0.327388 -3.45753 0
M  V30 2445 C 247.501 -0.519137 -4.2484 0
M  V30 2446 C 246.827 0.365486 -5.33449 0
M  V30 2447 C 248.127 -1.77914 -4.91064 0
M  V30 2448 H 249.821 -1.27687 -2.70807 0
M  V30 2449 H 247.367 -0.615428 -1.30186 0
M  V30 2450 H 249.32 0.681378 -4.15855 0
M  V30 2451 H 248.044 1.20963 -3.03374 0
M  V30 2452 H 246.703 -0.855717 -3.56473 0
M  V30 2453 H 246.351 1.24642 -4.87312 0
M  V30 2454 H 246.051 -0.197356 -5.87268 0
M  V30 2455 H 247.575 0.715241 -6.06396 0
M  V30 2456 H 248.989 -1.49374 -5.53498 0
M  V30 2457 H 247.386 -2.2848 -5.54903 0
M  V30 2458 H 248.456 -2.50382 -4.15255 0
M  V30 2459 N 249.799 1.42003 -0.683588 0
M  V30 2460 C 251.047 2.01015 -0.209101 0
M  V30 2461 C 251.368 1.54365 1.19149 0
M  V30 2462 O 250.638 0.769083 1.80172 0
M  V30 2463 H 249.218 0.743294 -0.074315 0
M  V30 2464 H 251.88 1.73798 -0.882066 0
M  V30 2465 H 250.976 3.11343 -0.2172 0
M  V30 2466 N 251.277 0.427512 1.51691 0
M  V30 2467 C 252.502 -0.143601 2.06902 0
M  V30 2468 C 252.927 -1.36536 1.29382 0
M  V30 2469 O 252.285 -1.78289 0.329043 0
M  V30 2470 C 252.333 -0.454207 3.57728 0
M  V30 2471 O 251.437 -1.54228 3.82475 0
M  V30 2472 H 250.778 -0.00617128 0.663971 0
M  V30 2473 H 253.308 0.606014 1.95419 0
M  V30 2474 H 253.318 -0.707525 4.01818 0
M  V30 2475 H 251.993 0.438812 4.13579 0
M  V30 2476 H 250.57 -1.2797 3.50254 0
M  V30 2477 N 252.755 -1.56801 0.158532 0
M  V30 2478 C 253.685 -2.20347 -0.772609 0
M  V30 2479 C 254.666 -1.15518 -1.24859 0
M  V30 2480 O 255.851 -1.43902 -1.30406 0
M  V30 2481 C 252.981 -2.83417 -2.00729 0
M  V30 2482 C 251.935 -3.94174 -1.66765 0
M  V30 2483 C 251.261 -4.44233 -2.97592 0
M  V30 2484 C 252.561 -5.14392 -0.905447 0
M  V30 2485 H 254.255 -2.98413 -0.242959 0
M  V30 2486 H 251.801 -1.43537 -0.115419 0
M  V30 2487 H 253.754 -3.26543 -2.6636 0
M  V30 2488 H 252.478 -2.02701 -2.56086 0
M  V30 2489 H 251.137 -3.51684 -1.03508 0
M  V30 2490 H 250.785 -3.60325 -3.50963 0
M  V30 2491 H 250.485 -5.18945 -2.75626 0
M  V30 2492 H 252.009 -4.90037 -3.64274 0
M  V30 2493 H 253.423 -5.5429 -1.46408 0
M  V30 2494 H 251.82 -5.9494 -0.7853 0
M  V30 2495 H 252.89 -4.84795 0.100668 0
M  V30 2496 N 254.233 0.115231 -1.57178 0
M  V30 2497 C 255.479 0.818565 -1.86202 0
M  V30 2498 C 255.834 1.77316 -0.746785 0
M  V30 2499 O 255.127 1.89923 0.25291 0
M  V30 2500 C 255.321 1.60324 -3.19423 0
M  V30 2501 C 255.15 0.726138 -4.43799 0
M  V30 2502 C 253.92 0.379535 -5.03873 0
M  V30 2503 C 256.118 0.0420774 -5.14283 0
M  V30 2504 N 254.1 -0.507841 -6.11796 0
M  V30 2505 C 255.471 -0.704152 -6.15988 0
M  V30 2506 C 257.526 -0.0339486 -4.97888 0
M  V30 2507 C 256.229 -1.51927 -7.03072 0
M  V30 2508 C 258.255 -0.835906 -5.85463 0
M  V30 2509 C 257.617 -1.57031 -6.86673 0
M  V30 2510 H 253.716 0.276343 -0.731545 0
M  V30 2511 H 256.3 0.0821032 -1.94527 0
M  V30 2512 H 254.471 2.31072 -3.12186 0
M  V30 2513 H 256.203 2.2522 -3.36241 0
M  V30 2514 H 252.958 0.722634 -4.68054 0
M  V30 2515 H 253.382 -0.94349 -6.70393 0
M  V30 2516 H 258.024 0.519496 -4.19596 0
M  V30 2517 H 255.742 -2.08386 -7.80769 0
M  V30 2518 H 259.328 -0.89714 -5.74841 0
M  V30 2519 H 258.208 -2.18088 -7.53264 0
M  V30 2520 N 255.711 1.52812 0.385517 0
M  V30 2521 C 256.988 1.5861 1.14465 0
M  V30 2522 C 257.368 0.381402 2.07626 0
M  V30 2523 O 256.716 -0.629999 2.19643 0
M  V30 2524 C 256.926 2.92664 1.90128 0
M  V30 2525 C 258.274 3.46526 2.45367 0
M  V30 2526 O 259.298 2.94562 2.0028 0
M  V30 2527 O 258.157 4.37323 3.27736 0
M  V30 2528 H 255.251 0.639855 0.523941 0
M  V30 2529 H 257.797 1.65149 0.390389 0
M  V30 2530 H 256.569 3.71788 1.22022 0
M  V30 2531 H 256.192 2.89527 2.72507 0
M  V30 2532 N 257.189 -0.644168 1.43834 0
M  V30 2533 C 258.119 -1.76814 1.52509 0
M  V30 2534 C 259.1 -1.65823 0.379052 0
M  V30 2535 O 260.285 -1.84781 0.597466 0
M  V30 2536 C 257.415 -3.15288 1.4564 0
M  V30 2537 C 256.369 -3.41053 2.58586 0
M  V30 2538 C 255.695 -4.79421 2.36769 0
M  V30 2539 C 256.995 -3.34902 4.00797 0
M  V30 2540 H 258.689 -1.69812 2.46586 0
M  V30 2541 H 256.235 -0.815542 1.1868 0
M  V30 2542 H 258.188 -3.93681 1.50311 0
M  V30 2543 H 256.912 -3.23043 0.480725 0
M  V30 2544 H 255.571 -2.65035 2.53282 0
M  V30 2545 H 255.219 -4.83863 1.37424 0
M  V30 2546 H 254.919 -4.9762 3.12487 0
M  V30 2547 H 256.443 -5.6006 2.43238 0
M  V30 2548 H 257.857 -4.03218 4.07539 0
M  V30 2549 H 256.254 -3.64637 4.76613 0
M  V30 2550 H 257.324 -2.32928 4.25291 0
M  V30 2551 N 258.668 -1.30515 -0.883378 0
M  V30 2552 C 259.616 -1.16941 -2.01066 0
M  V30 2553 C 260.61 -0.0809148 -1.69207 0
M  V30 2554 O 261.816 -0.241877 -1.78367 0
M  V30 2555 H 258.191 -0.361705 -0.659298 0
M  V30 2556 H 260.162 -2.12344 -2.09649 0
M  V30 2557 C 258.911 -0.879694 -3.36388 0
M  V30 2558 H 258.234 -1.70936 -3.61415 0
M  V30 2559 H 259.674 -0.82483 -4.159 0
M  V30 2560 C 258.133 0.417409 -3.34304 0
M  V30 2561 O 258.663 1.43843 -3.75063 0
M  V30 2562 N 256.869 0.429141 -2.87414 0
M  V30 2563 H 256.416 -0.402222 -2.5444 0
M  V30 2564 H 256.374 1.29696 -2.86403 0
M  V30 2565 N 260.146 1.09593 -1.13257 0
M  V30 2566 C 261.076 2.18214 -0.830946 0
M  V30 2567 C 262.057 1.68812 0.208966 0
M  V30 2568 O 263.242 1.9408 0.0682666 0
M  V30 2569 C 260.372 3.46051 -0.294296 0
M  V30 2570 C 259.326 4.08778 -1.26826 0
M  V30 2571 C 258.652 5.31419 -0.591449 0
M  V30 2572 C 259.952 4.51476 -2.62615 0
M  V30 2573 H 261.646 2.43703 -1.73923 0
M  V30 2574 H 259.192 1.17128 -0.837675 0
M  V30 2575 H 261.145 4.2134 -0.0709606 0
M  V30 2576 H 259.869 3.20079 0.649366 0
M  V30 2577 H 258.528 3.35505 -1.47756 0
M  V30 2578 H 258.176 5.01727 0.357633 0
M  V30 2579 H 257.876 5.74341 -1.24123 0
M  V30 2580 H 259.4 6.09433 -0.377355 0
M  V30 2581 H 260.814 5.17999 -2.45663 0
M  V30 2582 H 259.211 5.05277 -3.23752 0
M  V30 2583 H 260.281 3.63962 -3.20406 0
M  V30 2584 N 261.624 0.925811 1.2754 0
M  V30 2585 C 262.872 0.564138 1.94067 0
M  V30 2586 C 263.193 -0.897188 1.73134 0
M  V30 2587 O 262.463 -1.63573 1.07799 0
M  V30 2588 H 261.043 0.205645 0.718136 0
M  V30 2589 H 263.705 1.1778 1.55287 0
M  V30 2590 H 262.801 0.76881 3.02483 0
M  V30 2591 N 263.102 -1.41638 0.69111 0
M  V30 2592 C 264.348 -2.02104 0.229258 0
M  V30 2593 C 264.703 -1.53741 -1.15678 0
M  V30 2594 O 263.996 -0.736849 -1.76865 0
M  V30 2595 C 264.19 -3.56714 0.221277 0
M  V30 2596 C 264.019 -4.20083 1.605 0
M  V30 2597 C 262.789 -4.54566 2.20676 0
M  V30 2598 C 264.987 -4.46587 2.55078 0
M  V30 2599 N 262.969 -5.03199 3.5166 0
M  V30 2600 C 264.34 -4.96946 3.70735 0
M  V30 2601 C 266.395 -4.28593 2.53401 0
M  V30 2602 C 265.098 -5.31203 4.8499 0
M  V30 2603 C 267.124 -4.63936 3.66765 0
M  V30 2604 C 266.486 -5.14463 4.81152 0
M  V30 2605 H 262.585 -0.771256 0.12918 0
M  V30 2606 H 265.169 -1.72251 0.907626 0
M  V30 2607 H 263.34 -3.86051 -0.426562 0
M  V30 2608 H 265.072 -4.03896 -0.254983 0
M  V30 2609 H 261.827 -4.4087 1.73005 0
M  V30 2610 H 262.251 -5.31926 4.18789 0
M  V30 2611 H 266.893 -3.88771 1.66184 0
M  V30 2612 H 264.611 -5.69951 5.72871 0
M  V30 2613 H 268.197 -4.51677 3.66714 0
M  V30 2614 H 267.077 -5.41299 5.67419 0
M  V30 2615 N 264.58 -0.43555 -1.51462 0
M  V30 2616 C 265.528 0.391205 -2.29287 0
M  V30 2617 C 266.522 1.02247 -1.35062 0
M  V30 2618 O 267.728 0.957646 -1.52411 0
M  V30 2619 H 264.103 0.144968 -0.737895 0
M  V30 2620 H 266.074 -0.286051 -2.97026 0
M  V30 2621 C 264.823 1.48096 -3.14583 0
M  V30 2622 H 264.146 1.00457 -3.86973 0
M  V30 2623 H 265.586 2.03273 -3.72097 0
M  V30 2624 C 264.045 2.46321 -2.29843 0
M  V30 2625 O 264.575 3.50815 -1.95682 0
M  V30 2626 N 262.781 2.17166 -1.931 0
M  V30 2627 H 262.328 1.32218 -2.21079 0
M  V30 2628 H 262.286 2.83127 -1.36698 0
M  V30 2629 N 266.058 1.56714 -0.166846 0
M  V30 2630 C 267.283 2.01557 0.488833 0
M  V30 2631 C 267.708 1.0463 1.56314 0
M  V30 2632 O 267.066 0.0251304 1.81283 0
M  V30 2633 C 267.114 3.4503 1.04818 0
M  V30 2634 O 266.218 3.51163 2.16236 0
M  V30 2635 H 265.559 0.653516 0.117526 0
M  V30 2636 H 268.089 2.02818 -0.269421 0
M  V30 2637 H 268.099 3.84243 1.37191 0
M  V30 2638 H 266.774 4.15077 0.261572 0
M  V30 2639 H 265.351 3.23807 1.84942 0
M  V30 2640 N 267.536 -0.106894 1.57237 0
M  V30 2641 C 268.466 -1.13148 2.04254 0
M  V30 2642 C 269.447 -1.42476 0.929224 0
M  V30 2643 O 270.632 -1.52709 1.19973 0
M  V30 2644 C 267.762 -2.4545 2.45706 0
M  V30 2645 C 266.716 -2.30558 3.60592 0
M  V30 2646 C 266.042 -3.67931 3.87983 0
M  V30 2647 C 267.342 -1.75597 4.91897 0
M  V30 2648 H 269.036 -0.740374 2.90101 0
M  V30 2649 H 266.582 -0.354696 1.39563 0
M  V30 2650 H 268.535 -3.17389 2.77205 0
M  V30 2651 H 267.259 -2.86475 1.56843 0
M  V30 2652 H 265.918 -1.61067 3.29322 0
M  V30 2653 H 265.566 -4.06462 2.96306 0
M  V30 2654 H 265.266 -3.58817 4.65322 0
M  V30 2655 H 266.79 -4.41356 4.21945 0
M  V30 2656 H 268.204 -2.37364 5.21854 0
M  V30 2657 H 266.601 -1.77272 5.73319 0
M  V30 2658 H 267.671 -0.714451 4.79608 0
M  V30 2659 N 269.014 -1.53014 -0.377408 0
M  V30 2660 C 269.977 -1.77957 -1.44444 0
M  V30 2661 C 270.977 -0.649763 -1.47087 0
M  V30 2662 O 272.167 -0.917897 -1.48055 0
M  V30 2663 C 269.299 -1.89089 -2.83651 0
M  V30 2664 H 270.492 -2.73243 -1.23606 0
M  V30 2665 H 268.045 -1.43912 -0.609844 0
M  V30 2666 H 268.78 -0.958293 -3.09818 0
M  V30 2667 H 268.565 -2.71254 -2.83132 0
M  V30 2668 H 270.055 -2.1002 -3.60945 0
M  V30 2669 N 270.492 0.636531 -1.44174 0
M  V30 2670 C 271.738 1.39826 -1.4689 0
M  V30 2671 C 272.071 1.93947 -0.0990585 0
M  V30 2672 O 271.346 1.73325 0.882544 0
M  V30 2673 C 271.629 2.56751 -2.5249 0
M  V30 2674 C 271.482 2.08014 -3.98811 0
M  V30 2675 C 272.801 3.58946 -2.54649 0
M  V30 2676 H 269.92 0.507075 -0.53483 0
M  V30 2677 H 272.562 0.720188 -1.75822 0
M  V30 2678 H 270.712 3.14597 -2.2795 0
M  V30 2679 H 272.384 1.5504 -4.34466 0
M  V30 2680 H 270.627 1.39242 -4.10846 0
M  V30 2681 H 271.298 2.92169 -4.68339 0
M  V30 2682 H 273.774 3.1089 -2.76563 0
M  V30 2683 H 272.65 4.38286 -3.3045 0
M  V30 2684 H 272.911 4.12655 -1.58646 0
M  V30 2685 N 271.97 1.30982 0.876444 0
M  V30 2686 C 272.9 1.20668 1.99903 0
M  V30 2687 C 273.881 0.095354 1.69833 0
M  V30 2688 O 275.066 0.27885 1.92188 0
M  V30 2689 C 272.196 0.90655 3.3526 0
M  V30 2690 C 271.15 1.97675 3.79617 0
M  V30 2691 C 270.476 1.52943 5.1236 0
M  V30 2692 C 271.776 3.389 3.97422 0
M  V30 2693 H 273.47 2.14586 2.0879 0
M  V30 2694 H 271.016 1.03308 1.00317 0
M  V30 2695 H 272.969 0.821025 4.13324 0
M  V30 2696 H 271.693 -0.0682969 3.26529 0
M  V30 2697 H 270.352 2.05205 3.03787 0
M  V30 2698 H 270 0.54262 5.00065 0
M  V30 2699 H 269.7 2.24532 5.43009 0
M  V30 2700 H 271.224 1.45786 5.92941 0
M  V30 2701 H 272.638 3.34081 4.659 0
M  V30 2702 H 271.035 4.0865 4.3946 0
M  V30 2703 H 272.105 3.80163 3.01006 0
M  V30 2704 N 273.449 -1.08991 1.13837 0
M  V30 2705 C 274.86 -1.62746 0.914917 0
M  V30 2706 C 275.211 -1.88403 -0.547594 0
M  V30 2707 O 274.336 -1.63706 -1.41525 0
M  V30 2708 C 274.931 -2.95662 1.65437 0
M  V30 2709 C 273.49 -3.46225 1.47666 0
M  V30 2710 C 272.637 -2.20562 1.6807 0
M  V30 2711 H 275.588 -0.922946 1.29102 0
M  V30 2712 H 275.609 -3.63825 1.11407 0
M  V30 2713 H 275.121 -2.76956 2.71877 0
M  V30 2714 H 273.222 -3.70046 0.435478 0
M  V30 2715 H 273.335 -4.23368 2.24268 0
M  V30 2716 H 271.699 -2.29439 1.10589 0
M  V30 2717 H 272.482 -2.0437 2.7584 0
M  V30 2718 N 274.927 -0.932562 -1.27047 0
M  V30 2719 C 276.204 -0.49377 -1.89265 0
M  V30 2720 C 276.584 1.02833 -1.8436 0
M  V30 2721 O 275.932 1.88461 -1.29209 0
M  V30 2722 C 276.142 -1.04536 -3.32976 0
M  V30 2723 C 277.49 -1.10879 -4.09867 0
M  V30 2724 O 278.514 -0.995327 -3.42011 0
M  V30 2725 O 277.373 -1.28417 -5.31198 0
M  V30 2726 H 274.467 -0.159596 -0.811454 0
M  V30 2727 H 277.013 -1.02457 -1.3528 0
M  V30 2728 H 275.785 -2.08913 -3.30864 0
M  V30 2729 H 275.408 -0.496494 -3.94488 0
M  V30 2730 N 276.405 1.4127 -0.698611 0
M  V30 2731 C 277.368 2.29158 -0.044132 0
M  V30 2732 C 278.368 1.44529 0.704841 0
M  V30 2733 O 279.558 1.65643 0.539276 0
M  V30 2734 C 276.69 3.27459 0.947809 0
M  V30 2735 H 277.883 2.88529 -0.817994 0
M  V30 2736 H 275.436 1.49307 -0.46228 0
M  V30 2737 H 276.171 2.73073 1.74933 0
M  V30 2738 H 275.956 3.8991 0.41385 0
M  V30 2739 H 277.446 3.93311 1.40344 0
M  V30 2740 N 277.883 0.443576 1.51229 0
M  V30 2741 C 278.846 -0.353132 2.26463 0
M  V30 2742 C 279.846 -0.944338 1.3015 0
M  V30 2743 O 281.036 -0.817813 1.5381 0
M  V30 2744 C 278.168 -1.50023 3.06114 0
M  V30 2745 H 279.361 0.3063 2.98332 0
M  V30 2746 H 276.914 0.196902 1.55055 0
M  V30 2747 H 277.649 -2.19553 2.38677 0
M  V30 2748 H 277.434 -1.08241 3.76864 0
M  V30 2749 H 278.924 -2.06296 3.63087 0
M  V30 2750 N 279.361 -1.56624 0.175154 0
M  V30 2751 C 280.608 -1.96999 -0.468811 0
M  V30 2752 C 280.936 -1.06129 -1.62994 0
M  V30 2753 O 280.191 -0.0961771 -1.95464 0
M  V30 2754 C 280.49 -3.43419 -0.989864 0
M  V30 2755 C 280.156 -4.50866 0.0557687 0
M  V30 2756 C 278.818 -4.79975 0.343134 0
M  V30 2757 C 281.17 -5.15551 0.765308 0
M  V30 2758 C 278.498 -5.71066 1.34536 0
M  V30 2759 C 280.85 -6.07724 1.75654 0
M  V30 2760 C 279.514 -6.35199 2.05132 0
M  V30 2761 H 278.784 -0.720869 -0.17155 0
M  V30 2762 H 281.431 -1.89616 0.267924 0
M  V30 2763 H 279.736 -3.47772 -1.80449 0
M  V30 2764 H 281.433 -3.72002 -1.49719 0
M  V30 2765 H 278.023 -4.28229 -0.178381 0
M  V30 2766 H 282.207 -4.9317 0.556513 0
M  V30 2767 H 277.463 -5.90635 1.57988 0
M  V30 2768 H 281.637 -6.56912 2.31169 0
M  V30 2769 H 279.264 -7.05584 2.8294 0
M  V30 2770 N 280.839 0.0985539 -1.57292 0
M  V30 2771 C 282.255 0.45267 -1.53046 0
M  V30 2772 C 282.455 1.80713 -0.891342 0
M  V30 2773 O 281.511 2.4785 -0.482375 0
M  V30 2774 C 282.824 0.418341 -2.97776 0
M  V30 2775 C 284.372 0.500443 -3.08973 0
M  V30 2776 C 284.847 0.496297 -4.55303 0
M  V30 2777 N 286.338 0.557151 -4.59837 0
M  V30 2778 C 287.073 0.575726 -5.70502 0
M  V30 2779 N 286.569 0.550714 -6.90608 0
M  V30 2780 N 288.362 0.620277 -5.58667 0
M  V30 2781 H 280.513 -0.788673 -1.97215 0
M  V30 2782 H 282.776 -0.293188 -0.901524 0
M  V30 2783 H 282.482 -0.509659 -3.47988 0
M  V30 2784 H 282.356 1.2386 -3.56284 0
M  V30 2785 H 284.743 1.41886 -2.58751 0
M  V30 2786 H 284.824 -0.347894 -2.53423 0
M  V30 2787 H 284.468 -0.418162 -5.06176 0
M  V30 2788 H 284.398 1.3618 -5.08687 0
M  V30 2789 H 286.889 0.581816 -3.73394 0
M  V30 2790 H 287.202 0.568075 -7.70709 0
M  V30 2791 H 285.547 0.517816 -6.93068 0
M  V30 2792 H 288.738 0.637322 -4.63741 0
M  V30 2793 H 288.911 0.631283 -6.44918 0
M  V30 2794 N 282.317 1.53212 0.369288 0
M  V30 2795 C 283.565 1.68881 1.11012 0
M  V30 2796 C 283.886 0.441285 1.89941 0
M  V30 2797 O 283.156 -0.544623 1.88177 0
M  V30 2798 H 281.736 0.622569 0.412816 0
M  V30 2799 H 284.398 1.90391 0.416802 0
M  V30 2800 H 283.494 2.54822 1.80201 0
M  V30 2801 N 283.795 -0.628877 1.44509 0
M  V30 2802 C 284.725 -1.75187 1.54376 0
M  V30 2803 C 285.706 -1.65411 0.396618 0
M  V30 2804 O 286.891 -1.84137 0.617031 0
M  V30 2805 C 284.021 -3.13725 1.48976 0
M  V30 2806 C 282.975 -3.38291 2.62189 0
M  V30 2807 C 282.301 -4.76883 2.41841 0
M  V30 2808 C 283.601 -3.30632 4.04326 0
M  V30 2809 H 285.295 -1.67187 2.48373 0
M  V30 2810 H 282.841 -0.802909 1.19538 0
M  V30 2811 H 284.794 -3.92064 1.54478 0
M  V30 2812 H 283.518 -3.22515 0.514961 0
M  V30 2813 H 282.177 -2.62334 2.56079 0
M  V30 2814 H 281.825 -4.82378 1.42548 0
M  V30 2815 H 281.525 -4.94278 3.17747 0
M  V30 2816 H 283.049 -5.57449 2.49165 0
M  V30 2817 H 284.463 -3.98873 4.11793 0
M  V30 2818 H 282.86 -3.59561 4.80454 0
M  V30 2819 H 283.93 -2.28404 4.27738 0
M  V30 2820 N 285.273 -1.31445 -0.869486 0
M  V30 2821 C 286.521 -1.20918 -1.61936 0
M  V30 2822 C 286.842 0.232683 -1.93607 0
M  V30 2823 O 286.112 1.15352 -1.58338 0
M  V30 2824 H 284.692 -0.44454 -0.600328 0
M  V30 2825 H 287.354 -1.64776 -1.0409 0
M  V30 2826 H 286.45 -1.78124 -2.56278 0
M  V30 2827 N 286.751 1.08385 -1.14413 0
M  V30 2828 C 287.976 1.85057 -0.936413 0
M  V30 2829 C 288.401 1.81055 0.509971 0
M  V30 2830 O 287.759 1.1958 1.36273 0
M  V30 2831 C 287.807 3.30505 -1.44217 0
M  V30 2832 O 286.911 4.07491 -0.634409 0
M  V30 2833 H 286.252 0.573425 -0.334784 0
M  V30 2834 H 288.782 1.36799 -1.52142 0
M  V30 2835 H 288.792 3.81348 -1.45043 0
M  V30 2836 H 287.467 3.32734 -2.49522 0
M  V30 2837 H 286.044 3.66368 -0.694902 0
M  V30 2838 N 288.23 0.939286 1.26551 0
M  V30 2839 C 289.16 0.465044 2.28822 0
M  V30 2840 C 290.141 -0.480692 1.63167 0
M  V30 2841 O 291.326 -0.382955 1.90387 0
M  V30 2842 C 288.456 -0.27234 3.46231 0
M  V30 2843 C 287.41 0.58666 4.2396 0
M  V30 2844 C 286.736 -0.280573 5.33963 0
M  V30 2845 C 288.036 1.85704 4.88171 0
M  V30 2846 H 289.73 1.31979 2.68741 0
M  V30 2847 H 287.276 0.636061 1.29191 0
M  V30 2848 H 289.229 -0.615133 4.16886 0
M  V30 2849 H 287.953 -1.16121 3.0526 0
M  V30 2850 H 286.612 0.91232 3.55067 0
M  V30 2851 H 286.26 -1.16874 4.89234 0
M  V30 2852 H 285.96 0.29076 5.8688 0
M  V30 2853 H 287.484 -0.618678 6.07458 0
M  V30 2854 H 288.898 1.58161 5.51052 0
M  V30 2855 H 287.295 2.37279 5.51197 0
M  V30 2856 H 288.365 2.56957 4.11219 0
M  V30 2857 N 289.708 -1.40897 0.706093 0
M  V30 2858 C 291.124 -1.55042 0.37869 0
M  V30 2859 C 291.324 -1.67944 -1.11342 0
M  V30 2860 O 290.38 -1.66372 -1.89938 0
M  V30 2861 C 291.693 -2.78398 1.13643 0
M  V30 2862 C 293.241 -2.92206 1.12181 0
M  V30 2863 C 293.716 -4.18463 1.86152 0
M  V30 2864 N 295.207 -4.25443 1.83173 0
M  V30 2865 C 295.942 -5.2202 2.37239 0
M  V30 2866 N 295.438 -6.24563 2.99821 0
M  V30 2867 N 297.231 -5.14033 2.27435 0
M  V30 2868 H 289.382 -1.30769 1.67372 0
M  V30 2869 H 291.645 -0.631653 0.706907 0
M  V30 2870 H 291.351 -2.7511 2.19106 0
M  V30 2871 H 291.225 -3.70228 0.721853 0
M  V30 2872 H 293.612 -2.95004 0.0754171 0
M  V30 2873 H 293.693 -2.01521 1.57554 0
M  V30 2874 H 293.337 -4.16427 2.90776 0
M  V30 2875 H 293.267 -5.08141 1.38206 0
M  V30 2876 H 295.758 -3.51976 1.37556 0
M  V30 2877 H 296.071 -6.94665 3.38616 0
M  V30 2878 H 294.416 -6.25035 3.03902 0
M  V30 2879 H 297.607 -4.3285 1.78208 0
M  V30 2880 H 297.78 -5.89129 2.69873 0
M  V30 2881 N 291.186 -0.45159 -1.50991 0
M  V30 2882 C 292.096 0.358431 -2.31846 0
M  V30 2883 C 293.112 1.01438 -1.41373 0
M  V30 2884 O 294.288 1.00663 -1.74439 0
M  V30 2885 C 291.353 1.43704 -3.15515 0
M  V30 2886 C 290.414 0.799742 -4.21785 0
M  V30 2887 C 289.647 1.82696 -5.01456 0
M  V30 2888 O 289.87 3.05105 -4.81941 0
M  V30 2889 O 288.804 1.40958 -5.85162 0
M  V30 2890 H 292.63 -0.302032 -3.02194 0
M  V30 2891 H 290.215 -0.213825 -1.47862 0
M  V30 2892 H 292.097 2.06227 -3.67489 0
M  V30 2893 H 290.772 2.08133 -2.47916 0
M  V30 2894 H 289.679 0.136084 -3.73852 0
M  V30 2895 H 291.012 0.198718 -4.91799 0
M  V30 2896 N 292.664 1.56529 -0.183458 0
M  V30 2897 C 293.594 2.21549 0.737456 0
M  V30 2898 C 294.575 1.17489 1.23005 0
M  V30 2899 O 295.76 1.45959 1.281 0
M  V30 2900 C 292.89 2.86575 1.96194 0
M  V30 2901 C 291.844 3.96778 1.60473 0
M  V30 2902 C 291.17 4.48911 2.90487 0
M  V30 2903 C 292.47 5.15767 0.823497 0
M  V30 2904 H 294.164 2.98761 0.195453 0
M  V30 2905 H 291.71 1.43702 0.0925686 0
M  V30 2906 H 293.663 3.30739 2.61131 0
M  V30 2907 H 292.387 2.06749 2.52828 0
M  V30 2908 H 291.046 3.53286 0.978997 0
M  V30 2909 H 290.694 3.65862 3.45186 0
M  V30 2910 H 290.394 5.23265 2.67335 0
M  V30 2911 H 291.918 4.95771 3.56432 0
M  V30 2912 H 293.332 5.56549 1.37571 0
M  V30 2913 H 291.729 5.96114 0.690551 0
M  V30 2914 H 292.799 4.84574 -0.177782 0
M  V30 2915 N 294.142 -0.090211 1.57342 0
M  V30 2916 C 295.388 -0.793982 1.86611 0
M  V30 2917 C 295.721 -1.78142 0.773252 0
M  V30 2918 O 294.996 -1.93271 -0.218304 0
M  V30 2919 C 295.279 -1.51839 3.26523 0
M  V30 2920 C 295.132 -0.548609 4.46442 0
M  V30 2921 C 296.451 -2.46779 3.64401 0
M  V30 2922 H 293.57 -0.287186 0.678744 0
M  V30 2923 H 296.212 -0.0575076 1.89913 0
M  V30 2924 H 294.362 -2.14617 3.23839 0
M  V30 2925 H 296.034 0.0725513 4.61243 0
M  V30 2926 H 294.277 0.137614 4.33582 0
M  V30 2927 H 294.948 -1.09271 5.41076 0
M  V30 2928 H 297.424 -1.94089 3.68061 0
M  V30 2929 H 296.3 -2.94479 4.63221 0
M  V30 2930 H 296.561 -3.30758 2.93346 0
M  V30 2931 N 295.62 -1.53406 -0.361157 0
M  V30 2932 C 296.55 -1.83136 -1.44857 0
M  V30 2933 C 297.531 -0.685174 -1.5569 0
M  V30 2934 O 298.716 -0.93544 -1.70186 0
M  V30 2935 C 295.846 -2.02522 -2.82138 0
M  V30 2936 C 294.8 -3.18302 -2.86126 0
M  V30 2937 C 294.126 -3.22989 -4.26125 0
M  V30 2938 C 295.426 -4.56796 -2.53248 0
M  V30 2939 H 297.12 -2.74201 -1.20226 0
M  V30 2940 H 294.666 -1.31938 -0.576922 0
M  V30 2941 H 296.619 -2.21904 -3.58241 0
M  V30 2942 H 295.343 -1.08172 -3.08166 0
M  V30 2943 H 294.002 -2.98747 -2.12475 0
M  V30 2944 H 293.65 -2.26267 -4.49235 0
M  V30 2945 H 293.35 -4.00781 -4.29708 0
M  V30 2946 H 294.874 -3.44559 -5.04094 0
M  V30 2947 H 296.288 -4.7631 -3.19064 0
M  V30 2948 H 294.685 -5.36862 -2.68141 0
M  V30 2949 H 295.755 -4.61606 -1.48484 0
M  V30 2950 N 297.098 0.621204 -1.44841 0
M  V30 2951 C 298.061 1.71459 -1.521 0
M  V30 2952 C 299.061 1.55696 -0.401933 0
M  V30 2953 O 300.251 1.61011 -0.664925 0
M  V30 2954 C 297.383 3.10624 -1.40447 0
M  V30 2955 H 298.576 1.66394 -2.49506 0
M  V30 2956 H 296.129 0.835745 -1.3208 0
M  V30 2957 H 296.864 3.21277 -0.441737 0
M  V30 2958 H 296.649 3.23473 -2.21602 0
M  V30 2959 H 298.139 3.90293 -1.4853 0
M  V30 2960 N 298.576 1.31904 0.862503 0
M  V30 2961 C 299.824 1.21776 1.61292 0
M  V30 2962 C 300.145 -0.222413 1.93727 0
M  V30 2963 O 299.415 -1.1451 1.58947 0
M  V30 2964 H 297.995 0.447717 0.597962 0
M  V30 2965 H 300.657 1.65326 1.03215 0
M  V30 2966 H 299.753 1.7948 2.5533 0
M  V30 2967 N 300.054 -1.07777 1.14986 0
M  V30 2968 C 301.002 -2.16964 0.838406 0
M  V30 2969 C 301.996 -1.68372 -0.186386 0
M  V30 2970 O 303.202 -1.79951 -0.0418465 0
M  V30 2971 H 299.577 -0.708006 0.253439 0
M  V30 2972 H 301.548 -2.40454 1.76704 0
M  V30 2973 C 300.297 -3.4604 0.339335 0
M  V30 2974 H 299.62 -3.83813 1.11927 0
M  V30 2975 H 301.06 -4.23698 0.160021 0
M  V30 2976 C 299.519 -3.23569 -0.938325 0
M  V30 2977 O 300.049 -3.47752 -2.01077 0
M  V30 2978 N 298.255 -2.77079 -0.876117 0
M  V30 2979 H 297.802 -2.576 -0.00322037 0
M  V30 2980 H 297.76 -2.62422 -1.73153 0
M  V30 2981 N 301.532 -0.945985 -1.26051 0
M  V30 2982 C 302.948 -0.649045 -1.45807 0
M  V30 2983 C 303.148 0.796158 -1.85104 0
M  V30 2984 O 302.204 1.57233 -1.97571 0
M  V30 2985 C 303.517 -1.61458 -2.53677 0
M  V30 2986 C 305.065 -1.62481 -2.67524 0
M  V30 2987 C 305.54 -2.57776 -3.7857 0
M  V30 2988 N 307.031 -2.5609 -3.85969 0
M  V30 2989 C 307.766 -3.26508 -4.7136 0
M  V30 2990 N 307.262 -4.0637 -5.61102 0
M  V30 2991 N 309.055 -3.15437 -4.65248 0
M  V30 2992 H 301.206 -1.88005 -0.988328 0
M  V30 2993 H 303.469 -0.808198 -0.4955 0
M  V30 2994 H 303.175 -2.64644 -2.31638 0
M  V30 2995 H 303.049 -1.37036 -3.51427 0
M  V30 2996 H 305.436 -0.600167 -2.88933 0
M  V30 2997 H 305.517 -1.90958 -1.70202 0
M  V30 2998 H 305.161 -3.60361 -3.57913 0
M  V30 2999 H 305.091 -2.26587 -4.75359 0
M  V30 3000 H 307.582 -1.98105 -3.21812 0
M  V30 3001 H 307.895 -4.57042 -6.23164 0
M  V30 3002 H 306.24 -4.10469 -5.60839 0
M  V30 3003 H 309.431 -2.52525 -3.94143 0
M  V30 3004 H 309.604 -3.70584 -5.31575 0
M  V30 3005 N 303.011 1.40521 -0.713556 0
M  V30 3006 C 303.941 2.33381 -0.0743864 0
M  V30 3007 C 304.922 1.52784 0.747735 0
M  V30 3008 O 306.107 1.81258 0.697071 0
M  V30 3009 C 303.237 3.36748 0.849598 0
M  V30 3010 C 302.191 4.27793 0.133247 0
M  V30 3011 C 301.517 5.21679 1.17281 0
M  V30 3012 C 302.817 5.12415 -1.01134 0
M  V30 3013 H 304.511 2.87081 -0.850007 0
M  V30 3014 H 302.057 1.38034 -0.410201 0
M  V30 3015 H 304.01 4.00648 1.30612 0
M  V30 3016 H 302.734 2.81439 1.65709 0
M  V30 3017 H 301.393 3.65342 -0.303426 0
M  V30 3018 H 301.041 4.62677 1.9733 0
M  V30 3019 H 300.741 5.83435 0.698397 0
M  V30 3020 H 302.265 5.88456 1.62947 0
M  V30 3021 H 303.679 5.69781 -0.634274 0
M  V30 3022 H 302.076 5.83203 -1.41399 0
M  V30 3023 H 303.146 4.48514 -1.84292 0
M  V30 3024 N 304.489 0.459591 1.5075 0
M  V30 3025 C 305.452 -0.329093 2.26825 0
M  V30 3026 C 306.452 -0.930481 1.31144 0
M  V30 3027 O 307.642 -0.801453 1.54669 0
M  V30 3028 C 304.774 -1.46768 3.07688 0
M  V30 3029 H 305.967 0.337924 2.9799 0
M  V30 3030 H 303.52 0.213336 1.54837 0
M  V30 3031 H 304.255 -2.17009 2.40993 0
M  V30 3032 H 304.04 -1.04238 3.77991 0
M  V30 3033 H 305.53 -2.02433 3.65254 0
M  V30 3034 N 305.967 -1.56429 0.191757 0
M  V30 3035 C 307.197 -2.01574 -0.452928 0
M  V30 3036 C 307.605 -1.07107 -1.55964 0
M  V30 3037 O 306.948 -0.067534 -1.83576 0
M  V30 3038 C 307.01 -3.43121 -1.07278 0
M  V30 3039 C 306.674 -4.56879 -0.105214 0
M  V30 3040 C 307.671 -5.15379 0.684149 0
M  V30 3041 C 305.356 -5.023 0.00489824 0
M  V30 3042 C 307.35 -6.17746 1.57062 0
M  V30 3043 C 305.037 -6.04511 0.894935 0
M  V30 3044 C 306.035 -6.62108 1.67637 0
M  V30 3045 O 305.723 -7.62335 2.55149 0
M  V30 3046 H 305.455 -0.665554 -0.118379 0
M  V30 3047 H 308.009 -2.03245 0.296737 0
M  V30 3048 H 306.239 -3.38425 -1.87097 0
M  V30 3049 H 307.928 -3.72093 -1.62177 0
M  V30 3050 H 308.694 -4.81157 0.609365 0
M  V30 3051 H 304.573 -4.57168 -0.593156 0
M  V30 3052 H 308.117 -6.6263 2.181 0
M  V30 3053 H 304.014 -6.38157 0.970847 0
M  V30 3054 H 304.782 -7.79741 2.48892 0
M  V30 3055 N 307.445 0.0818655 -1.57387 0
M  V30 3056 C 308.375 1.09885 -2.06028 0
M  V30 3057 C 309.356 1.4098 -0.951774 0
M  V30 3058 O 310.541 1.50781 -1.22387 0
M  V30 3059 C 307.671 2.4151 -2.4958 0
M  V30 3060 C 306.625 2.24792 -3.64215 0
M  V30 3061 C 305.951 3.61712 -3.93787 0
M  V30 3062 C 307.251 1.67749 -4.94629 0
M  V30 3063 H 308.945 0.694128 -2.91243 0
M  V30 3064 H 306.491 0.332448 -1.4011 0
M  V30 3065 H 308.444 3.12939 -2.82219 0
M  V30 3066 H 307.168 2.83943 -1.61381 0
M  V30 3067 H 305.827 1.55807 -3.31843 0
M  V30 3068 H 305.475 4.01697 -3.02735 0
M  V30 3069 H 305.175 3.51368 -4.70971 0
M  V30 3070 H 306.699 4.34587 -4.28913 0
M  V30 3071 H 308.113 2.29032 -5.25564 0
M  V30 3072 H 306.51 1.68128 -5.76067 0
M  V30 3073 H 307.58 0.638059 -4.80684 0
M  V30 3074 N 308.923 1.53595 0.353017 0
M  V30 3075 C 309.855 1.77219 1.45348 0
M  V30 3076 C 310.868 0.65324 1.49119 0
M  V30 3077 O 312.057 0.929775 1.52373 0
M  V30 3078 C 309.157 1.84841 2.84055 0
M  V30 3079 C 308.33 3.14649 3.03833 0
M  V30 3080 C 307.389 3.13351 4.22727 0
M  V30 3081 O 306.415 3.87107 4.17297 0
M  V30 3082 N 307.617 2.35052 5.30783 0
M  V30 3083 H 310.382 2.72178 1.25457 0
M  V30 3084 H 307.943 1.52528 0.542833 0
M  V30 3085 H 309.935 1.81435 3.61751 0
M  V30 3086 H 308.505 0.971114 2.97133 0
M  V30 3087 H 307.725 3.31256 2.13689 0
M  V30 3088 H 309.013 4.00411 3.13925 0
M  V30 3089 H 308.411 1.74663 5.38061 0
M  V30 3090 H 306.968 2.37453 6.07009 0
M  V30 3091 N 310.401 -0.613514 1.45168 0
M  V30 3092 C 311.812 -1.19539 1.43413 0
M  V30 3093 C 312.163 -1.95558 0.158632 0
M  V30 3094 O 311.288 -2.0335 -0.740119 0
M  V30 3095 C 311.883 -2.17445 2.59813 0
M  V30 3096 C 310.442 -2.71022 2.61197 0
M  V30 3097 C 309.589 -1.46323 2.35552 0
M  V30 3098 H 312.54 -0.403163 1.53494 0
M  V30 3099 H 312.561 -3.00373 2.33574 0
M  V30 3100 H 312.073 -1.62089 3.52631 0
M  V30 3101 H 310.174 -3.30332 1.7237 0
M  V30 3102 H 310.287 -3.15859 3.60236 0
M  V30 3103 H 308.651 -1.75072 1.84992 0
M  V30 3104 H 309.434 -0.92844 3.30507 0
M  V30 3105 N 311.879 -1.3236 -0.855495 0
M  V30 3106 C 312.842 -1.21164 -1.94556 0
M  V30 3107 C 313.842 -0.134908 -1.60233 0
M  V30 3108 O 315.032 -0.385249 -1.69887 0
M  V30 3109 C 312.164 -0.863192 -3.29791 0
M  V30 3110 H 313.357 -2.18038 -2.05911 0
M  V30 3111 H 310.91 -1.16179 -1.04557 0
M  V30 3112 H 311.645 0.103769 -3.24134 0
M  V30 3113 H 311.43 -1.64166 -3.56078 0
M  V30 3114 H 312.92 -0.809156 -4.09686 0
M  V30 3115 N 313.357 1.07166 -1.15556 0
M  V30 3116 C 314.287 2.16403 -0.877046 0
M  V30 3117 C 315.268 1.69217 0.173111 0
M  V30 3118 O 316.453 1.94181 0.027084 0
M  V30 3119 C 313.583 3.45349 -0.367632 0
M  V30 3120 C 312.537 4.05995 -1.35468 0
M  V30 3121 C 311.863 5.30045 -0.704038 0
M  V30 3122 C 313.163 4.45804 -2.72132 0
M  V30 3123 H 314.857 2.39959 -1.79053 0
M  V30 3124 H 312.403 1.15325 -0.862331 0
M  V30 3125 H 314.356 4.21095 -0.160317 0
M  V30 3126 H 313.08 3.21385 0.581326 0
M  V30 3127 H 311.739 3.32296 -1.54839 0
M  V30 3128 H 311.387 5.02373 0.251128 0
M  V30 3129 H 311.087 5.71579 -1.36277 0
M  V30 3130 H 312.611 6.08495 -0.50654 0
M  V30 3131 H 314.025 5.12671 -2.56595 0
M  V30 3132 H 312.422 4.98296 -3.34397 0
M  V30 3133 H 313.492 3.57083 -3.28054 0
M  V30 3134 N 314.835 0.952656 1.25548 0
M  V30 3135 C 316.082 0.606373 1.93208 0
M  V30 3136 C 316.41 -0.85631 1.74636 0
M  V30 3137 O 315.665 -1.62951 1.08376 0
M  V30 3138 C 315.964 0.908818 3.45652 0
M  V30 3139 C 315.63 2.35722 3.84378 0
M  V30 3140 C 314.292 2.75312 3.9466 0
M  V30 3141 C 316.644 3.29793 4.03591 0
M  V30 3142 C 313.972 4.08047 4.21562 0
M  V30 3143 C 316.324 4.62138 4.31985 0
M  V30 3144 C 314.988 5.01528 4.40484 0
M  V30 3145 H 314.258 0.221888 0.706998 0
M  V30 3146 H 316.905 1.20132 1.49133 0
M  V30 3147 H 315.21 0.231456 3.91116 0
M  V30 3148 H 316.907 0.619498 3.96186 0
M  V30 3149 H 313.497 2.04017 3.76928 0
M  V30 3150 H 317.681 3.00397 3.95064 0
M  V30 3151 H 312.937 4.38212 4.26357 0
M  V30 3152 H 317.111 5.35012 4.45797 0
M  V30 3153 H 314.738 6.04406 4.61083 0
M  V30 3154 N 316.313 -1.40141 0.720998 0
M  V30 3155 C 317.538 -2.05618 0.271258 0
M  V30 3156 C 317.963 -1.53978 -1.08039 0
M  V30 3157 O 317.321 -0.677463 -1.68167 0
M  V30 3158 C 317.369 -3.59609 0.267197 0
M  V30 3159 O 316.473 -4.05526 -0.749814 0
M  V30 3160 H 315.814 -0.651904 0.126162 0
M  V30 3161 H 318.344 -1.79439 0.982997 0
M  V30 3162 H 318.354 -4.0786 0.106744 0
M  V30 3163 H 317.029 -3.96559 1.25354 0
M  V30 3164 H 315.606 -3.68722 -0.556644 0
M  V30 3165 N 317.792 -0.46758 -1.50504 0
M  V30 3166 C 319.04 0.0884469 -2.01906 0
M  V30 3167 C 319.361 1.40532 -1.35188 0
M  V30 3168 O 318.631 1.89515 -0.496079 0
M  V30 3169 H 317.211 0.0356765 -0.746148 0
M  V30 3170 H 319.873 -0.6172 -1.84869 0
M  V30 3171 H 318.969 0.2425 -3.11156 0
M  V30 3172 N 319.27 1.56325 -0.20005 0
M  V30 3173 C 320.2 2.22318 0.713916 0
M  V30 3174 C 321.181 1.18788 1.21752 0
M  V30 3175 O 322.366 1.47309 1.26545 0
M  V30 3176 C 319.496 2.88639 1.93144 0
M  V30 3177 C 318.45 3.98457 1.56255 0
M  V30 3178 C 317.776 4.51967 2.85709 0
M  V30 3179 C 319.076 5.16612 0.768747 0
M  V30 3180 H 320.77 2.98952 0.163755 0
M  V30 3181 H 318.316 1.43792 0.0773219 0
M  V30 3182 H 320.269 3.33491 2.57608 0
M  V30 3183 H 318.993 2.09419 2.50621 0
M  V30 3184 H 317.652 3.54305 0.941471 0
M  V30 3185 H 317.3 3.69503 3.41287 0
M  V30 3186 H 317 5.26071 2.6177 0
M  V30 3187 H 318.524 4.99523 3.51154 0
M  V30 3188 H 319.938 5.57977 1.3166 0
M  V30 3189 H 318.335 5.96812 0.627286 0
M  V30 3190 H 319.405 4.84358 -0.229168 0
M  V30 3191 N 320.748 -0.0735177 1.57428 0
M  V30 3192 C 321.711 -1.07192 2.02589 0
M  V30 3193 C 322.711 -1.31695 0.922661 0
M  V30 3194 O 323.901 -1.27445 1.18758 0
M  V30 3195 C 321.033 -2.41599 2.40506 0
M  V30 3196 H 322.226 -0.682727 2.92025 0
M  V30 3197 H 319.779 -0.319193 1.53006 0
M  V30 3198 H 320.514 -2.85354 1.5409 0
M  V30 3199 H 320.299 -2.25156 3.21009 0
M  V30 3200 H 321.789 -3.13367 2.76027 0
M  V30 3201 N 322.226 -1.5378 -0.344866 0
M  V30 3202 C 323.136 -1.84667 -1.4469 0
M  V30 3203 C 324.152 -0.736704 -1.57635 0
M  V30 3204 O 325.328 -1.02888 -1.73136 0
M  V30 3205 C 322.393 -2.04869 -2.79696 0
M  V30 3206 C 321.454 -3.28731 -2.76106 0
M  V30 3207 C 320.687 -3.4796 -4.04673 0
M  V30 3208 O 320.91 -2.71052 -5.01883 0
M  V30 3209 O 319.844 -4.41383 -4.09224 0
M  V30 3210 H 323.67 -2.78334 -1.21506 0
M  V30 3211 H 321.255 -1.39418 -0.536921 0
M  V30 3212 H 323.137 -2.19609 -3.59652 0
M  V30 3213 H 321.812 -1.14391 -3.02814 0
M  V30 3214 H 320.719 -3.19396 -1.94774 0
M  V30 3215 H 322.052 -4.19198 -2.57941 0
M  V30 3216 N 323.704 0.605807 -1.45491 0
M  V30 3217 C 324.634 1.72709 -1.57143 0
M  V30 3218 C 325.615 1.6476 -0.422884 0
M  V30 3219 O 326.8 1.83132 -0.646247 0
M  V30 3220 C 323.93 3.11316 -1.53948 0
M  V30 3221 C 322.884 3.34077 -2.67537 0
M  V30 3222 C 322.21 4.72975 -2.49397 0
M  V30 3223 C 323.51 3.24158 -4.09535 0
M  V30 3224 H 325.204 1.63214 -2.51001 0
M  V30 3225 H 322.75 0.78379 -1.208 0
M  V30 3226 H 324.703 3.89557 -1.60696 0
M  V30 3227 H 323.427 3.21655 -0.566205 0
M  V30 3228 H 322.086 2.58227 -2.6022 0
M  V30 3229 H 321.734 4.8005 -1.50205 0
M  V30 3230 H 321.434 4.8916 -3.25571 0
M  V30 3231 H 322.958 5.53414 -2.58002 0
M  V30 3232 H 324.372 3.92271 -4.18086 0
M  V30 3233 H 322.769 3.51872 -4.86113 0
M  V30 3234 H 323.839 2.2157 -4.31317 0
M  V30 3235 N 325.182 1.32811 0.848464 0
M  V30 3236 C 326.598 1.11937 1.13764 0
M  V30 3237 C 326.798 -0.0960789 2.01271 0
M  V30 3238 O 325.854 -0.779165 2.40178 0
M  V30 3239 C 327.167 2.402 1.809 0
M  V30 3240 C 328.715 2.46016 1.93508 0
M  V30 3241 C 329.19 3.74215 2.64059 0
M  V30 3242 N 330.681 3.75232 2.71579 0
M  V30 3243 C 331.416 4.71134 3.26833 0
M  V30 3244 N 330.912 5.77406 3.8285 0
M  V30 3245 N 332.705 4.58623 3.24995 0
M  V30 3246 H 324.856 2.1073 0.265855 0
M  V30 3247 H 327.119 0.930671 0.180431 0
M  V30 3248 H 326.825 3.29093 1.24058 0
M  V30 3249 H 326.699 2.51628 2.81004 0
M  V30 3250 H 329.086 1.57577 2.49506 0
M  V30 3251 H 329.167 2.38536 0.923811 0
M  V30 3252 H 328.811 4.63031 2.08722 0
M  V30 3253 H 328.741 3.78968 3.65637 0
M  V30 3254 H 331.232 2.98423 2.31845 0
M  V30 3255 H 331.545 6.46632 4.23187 0
M  V30 3256 H 329.89 5.81152 3.81165 0
M  V30 3257 H 333.081 3.74762 2.80484 0
M  V30 3258 H 333.254 5.33535 3.67756 0
M  V30 3259 N 326.66 -1.06551 1.16123 0
M  V30 3260 C 327.57 -2.17484 0.879662 0
M  V30 3261 C 328.586 -1.73377 -0.147104 0
M  V30 3262 O 329.762 -2.01379 0.0289128 0
M  V30 3263 C 326.827 -3.44591 0.381829 0
M  V30 3264 C 325.888 -4.0322 1.4735 0
M  V30 3265 C 325.121 -5.24261 0.999324 0
M  V30 3266 O 325.344 -5.70198 -0.151957 0
M  V30 3267 O 324.278 -5.74775 1.78653 0
M  V30 3268 H 328.104 -2.44075 1.80724 0
M  V30 3269 H 325.689 -1.16042 0.940992 0
M  V30 3270 H 327.571 -4.21254 0.111053 0
M  V30 3271 H 326.246 -3.19532 -0.51777 0
M  V30 3272 H 325.153 -3.2806 1.79798 0
M  V30 3273 H 326.486 -4.32568 2.34831 0
M  V30 3274 N 328.138 -0.959301 -1.25041 0
M  V30 3275 C 329.068 -0.501388 -2.28053 0
M  V30 3276 C 330.049 0.454673 -1.63911 0
M  V30 3277 O 331.234 0.352618 -1.90972 0
M  V30 3278 C 328.364 0.217224 -3.4662 0
M  V30 3279 C 327.318 -0.654034 -4.22973 0
M  V30 3280 C 326.644 0.195589 -5.34342 0
M  V30 3281 C 327.944 -1.93447 -4.85155 0
M  V30 3282 H 329.638 -1.36238 -2.66608 0
M  V30 3283 H 327.184 -0.656534 -1.28163 0
M  V30 3284 H 329.137 0.548732 -4.17812 0
M  V30 3285 H 327.861 1.1125 -3.07068 0
M  V30 3286 H 326.52 -0.968693 -3.5357 0
M  V30 3287 H 326.168 1.09076 -4.91031 0
M  V30 3288 H 325.868 -0.384091 -5.86343 0
M  V30 3289 H 327.392 0.521958 -6.08365 0
M  V30 3290 H 328.806 -1.66908 -5.48466 0
M  V30 3291 H 327.203 -2.46018 -5.47353 0
M  V30 3292 H 328.273 -2.63466 -4.07079 0
M  V30 3293 N 329.616 1.39756 -0.72842 0
M  V30 3294 C 330.893 1.94574 -0.200079 0
M  V30 3295 C 331.273 1.66569 1.29684 0
M  V30 3296 O 330.621 0.990326 2.05924 0
M  V30 3297 C 330.831 3.45004 -0.526608 0
M  V30 3298 C 332.179 4.21965 -0.472318 0
M  V30 3299 O 333.203 3.53173 -0.463413 0
M  V30 3300 O 332.062 5.44552 -0.461075 0
M  V30 3301 H 329.156 0.826289 -0.0342851 0
M  V30 3302 H 331.702 1.49293 -0.806829 0
M  V30 3303 H 330.474 3.58796 -1.56144 0
M  V30 3304 H 330.097 3.97449 0.109449 0
M  V30 3305 N 331.094 0.475555 1.50254 0
M  V30 3306 C 332.024 -0.30611 2.31485 0
M  V30 3307 C 333.005 -0.986228 1.38591 0
M  V30 3308 O 334.19 -0.982541 1.67511 0
M  V30 3309 C 331.32 -1.38588 3.1845 0
M  V30 3310 C 330.274 -0.827115 4.19932 0
M  V30 3311 C 329.6 -2.00551 4.95665 0
M  V30 3312 C 330.9 0.16463 5.2204 0
M  V30 3313 H 332.594 0.371866 2.97082 0
M  V30 3314 H 330.14 0.180282 1.42867 0
M  V30 3315 H 332.093 -1.94023 3.74076 0
M  V30 3316 H 330.817 -2.09269 2.50747 0
M  V30 3317 H 329.476 -0.294702 3.65414 0
M  V30 3318 H 329.124 -2.6994 4.2443 0
M  V30 3319 H 328.824 -1.63784 5.64313 0
M  V30 3320 H 330.348 -2.56468 5.54127 0
M  V30 3321 H 331.762 -0.300699 5.72511 0
M  V30 3322 H 330.159 0.446813 5.98434 0
M  V30 3323 H 331.229 1.08905 4.72512 0
M  V30 3324 N 332.573 -1.56217 0.208337 0
M  V30 3325 C 333.798 -2.02782 -0.435222 0
M  V30 3326 C 334.223 -1.08738 -1.53485 0
M  V30 3327 O 333.581 -0.0731855 -1.81152 0
M  V30 3328 C 333.629 -3.47687 -0.956335 0
M  V30 3329 O 332.733 -3.56773 -2.06849 0
M  V30 3330 H 332.074 -0.656403 -0.100158 0
M  V30 3331 H 334.604 -2.02033 0.3231 0
M  V30 3332 H 334.614 -3.87745 -1.26955 0
M  V30 3333 H 333.289 -4.15624 -0.15143 0
M  V30 3334 H 331.866 -3.28597 -1.76292 0
M  V30 3335 N 334.051 0.0651679 -1.57465 0
M  V30 3336 C 335.467 0.420105 -1.53972 0
M  V30 3337 C 335.667 1.78782 -0.929474 0
M  V30 3338 O 334.723 2.46771 -0.534839 0
M  V30 3339 C 336.036 0.355084 -2.98596 0
M  V30 3340 C 337.584 0.434792 -3.09965 0
M  V30 3341 C 338.059 0.399609 -4.56253 0
M  V30 3342 N 339.55 0.459488 -4.60915 0
M  V30 3343 C 340.285 0.454584 -5.71595 0
M  V30 3344 N 339.781 0.404102 -6.9162 0
M  V30 3345 N 341.574 0.501635 -5.59857 0
M  V30 3346 H 333.725 -0.830328 -1.95498 0
M  V30 3347 H 335.988 -0.312244 -0.895102 0
M  V30 3348 H 335.694 -0.583357 -3.46828 0
M  V30 3349 H 335.568 1.16275 -3.58831 0
M  V30 3350 H 337.955 1.36366 -2.61703 0
M  V30 3351 H 338.036 -0.40157 -2.52628 0
M  V30 3352 H 337.68 -0.525436 -5.05175 0
M  V30 3353 H 337.61 1.25359 -5.11461 0
M  V30 3354 H 340.101 0.502482 -3.74544 0
M  V30 3355 H 340.414 0.404468 -7.71741 0
M  V30 3356 H 338.759 0.37069 -6.94011 0
M  V30 3357 H 341.95 0.538812 -4.64989 0
M  V30 3358 H 342.123 0.494345 -6.46112 0
M  V30 3359 N 335.529 1.53961 0.336706 0
M  V30 3360 C 336.477 1.83136 1.43401 0
M  V30 3361 C 337.471 0.702313 1.54156 0
M  V30 3362 O 338.677 0.885765 1.56698 0
M  V30 3363 H 335.052 0.580309 0.478273 0
M  V30 3364 H 337.023 2.74925 1.16012 0
M  V30 3365 C 335.772 2.06385 2.79822 0
M  V30 3366 H 335.095 2.92718 2.72316 0
M  V30 3367 H 336.535 2.30761 3.55704 0
M  V30 3368 C 334.994 0.851414 3.25964 0
M  V30 3369 O 335.524 0.0541904 4.01663 0
M  V30 3370 N 333.73 0.66672 2.82848 0
M  V30 3371 H 333.277 1.31665 2.21409 0
M  V30 3372 H 333.235 -0.143032 3.14074 0
M  V30 3373 N 337.007 -0.598083 1.45811 0
M  V30 3374 C 337.97 -1.69018 1.54808 0
M  V30 3375 C 338.97 -1.55037 0.426652 0
M  V30 3376 O 340.16 -1.59932 0.690456 0
M  V30 3377 C 337.292 -3.0835 1.45371 0
M  V30 3378 H 338.485 -1.62403 2.52121 0
M  V30 3379 H 336.038 -0.814626 1.33392 0
M  V30 3380 H 336.773 -3.20534 0.492793 0
M  V30 3381 H 336.558 -3.19907 2.26721 0
M  V30 3382 H 338.048 -3.8788 1.54721 0
M  V30 3383 N 338.485 -1.33259 -0.841409 0
M  V30 3384 C 339.415 -1.25926 -1.96634 0
M  V30 3385 C 340.396 -0.140349 -1.6952 0
M  V30 3386 O 341.581 -0.329707 -1.91381 0
M  V30 3387 C 338.711 -0.99512 -3.32738 0
M  V30 3388 C 337.665 -2.0767 -3.74242 0
M  V30 3389 C 336.991 -1.66474 -5.08125 0
M  V30 3390 C 338.291 -3.49318 -3.88297 0
M  V30 3391 H 339.985 -2.20046 -2.03027 0
M  V30 3392 H 337.531 -1.05931 -0.975425 0
M  V30 3393 H 339.484 -0.930323 -4.11002 0
M  V30 3394 H 338.208 -0.0183004 -3.26595 0
M  V30 3395 H 336.867 -2.13187 -2.98239 0
M  V30 3396 H 336.515 -0.675012 -4.9845 0
M  V30 3397 H 336.215 -2.3885 -5.36865 0
M  V30 3398 H 337.739 -1.61455 -5.88867 0
M  V30 3399 H 339.153 -3.46316 -4.56879 0
M  V30 3400 H 337.55 -4.20158 -4.28471 0
M  V30 3401 H 338.62 -3.8801 -2.9082 0
M  V30 3402 N 339.963 1.05934 -1.16686 0
M  V30 3403 C 341.379 1.30938 -0.912542 0
M  V30 3404 C 341.579 1.96803 0.432533 0
M  V30 3405 O 340.635 2.23693 1.17123 0
M  V30 3406 C 341.948 2.18649 -2.06429 0
M  V30 3407 C 343.496 2.32055 -2.10047 0
M  V30 3408 C 343.971 3.23122 -3.24586 0
M  V30 3409 N 345.462 3.30706 -3.24327 0
M  V30 3410 C 346.197 4.01273 -4.09594 0
M  V30 3411 N 345.693 4.74332 -5.04956 0
M  V30 3412 N 347.486 3.97361 -3.97569 0
M  V30 3413 H 339.637 0.615777 -2.03278 0
M  V30 3414 H 341.9 0.334077 -0.887185 0
M  V30 3415 H 341.606 1.77534 -3.03603 0
M  V30 3416 H 341.48 3.19252 -2.00894 0
M  V30 3417 H 343.867 2.72415 -1.13464 0
M  V30 3418 H 343.948 1.31107 -2.19647 0
M  V30 3419 H 343.592 2.83477 -4.2143 0
M  V30 3420 H 343.522 4.24057 -3.12223 0
M  V30 3421 H 346.013 2.78644 -2.55276 0
M  V30 3422 H 346.326 5.25716 -5.6643 0
M  V30 3423 H 344.671 4.733 -5.08933 0
M  V30 3424 H 347.862 3.39405 -3.22369 0
M  V30 3425 H 348.035 4.52089 -4.64241 0
M  V30 3426 N 341.441 0.965919 1.2453 0
M  V30 3427 C 342.404 0.499547 2.2369 0
M  V30 3428 C 343.404 -0.40294 1.5567 0
M  V30 3429 O 344.594 -0.19865 1.73064 0
M  V30 3430 C 341.726 -0.276792 3.39774 0
M  V30 3431 H 342.919 1.37613 2.66463 0
M  V30 3432 H 340.472 0.750324 1.37112 0
M  V30 3433 H 341.207 -1.17055 3.02438 0
M  V30 3434 H 340.992 0.370826 3.90343 0
M  V30 3435 H 342.482 -0.592175 4.1338 0
M  V30 3436 N 342.919 -1.39368 0.735821 0
M  V30 3437 C 344.168 -1.99733 0.281004 0
M  V30 3438 C 344.481 -1.59055 -1.13846 0
M  V30 3439 O 345.687 -2.12262 -1.69284 0
M  V30 3440 C 344.143 -3.57057 0.451462 0
M  V30 3441 C 343.751 -4.06697 1.87886 0
M  V30 3442 C 345.495 -4.2446 0.0584616 0
M  V30 3443 C 343.402 -5.56598 1.99883 0
M  V30 3444 H 342.332 -0.747163 0.101311 0
M  V30 3445 H 344.983 -1.59357 0.909819 0
M  V30 3446 H 343.365 -3.95234 -0.246263 0
M  V30 3447 H 344.539 -3.79853 2.60861 0
M  V30 3448 H 342.854 -3.5196 2.22515 0
M  V30 3449 H 345.451 -5.34549 0.127099 0
M  V30 3450 H 345.794 -4.04444 -0.986433 0
M  V30 3451 H 346.327 -3.9146 0.707374 0
M  V30 3452 H 343.066 -5.81494 3.02564 0
M  V30 3453 H 342.586 -5.85242 1.31346 0
M  V30 3454 H 344.265 -6.22022 1.78039 0
M  V30 3455 N 344.397 -0.483516 -1.5 0
M  V30 3456 C 345.344 0.304164 -2.28787 0
M  V30 3457 C 346.314 0.976114 -1.34392 0
M  V30 3458 O 347.499 0.986156 -1.63339 0
M  V30 3459 C 344.639 1.37298 -3.16612 0
M  V30 3460 C 343.752 0.714561 -4.26049 0
M  V30 3461 C 342.887 1.76232 -5.01114 0
M  V30 3462 C 341.926 1.08483 -6.0241 0
M  V30 3463 N 341.063 2.076 -6.70706 0
M  V30 3464 H 345.903 -0.373981 -2.95644 0
M  V30 3465 H 343.44 -0.196275 -1.45785 0
M  V30 3466 H 345.398 2.00445 -3.65893 0
M  V30 3467 H 344.028 2.02012 -2.51776 0
M  V30 3468 H 343.08 -0.0297798 -3.80388 0
M  V30 3469 H 344.392 0.180383 -4.98474 0
M  V30 3470 H 343.546 2.46929 -5.54176 0
M  V30 3471 H 342.285 2.33033 -4.28424 0
M  V30 3472 H 341.29 0.363545 -5.48597 0
M  V30 3473 H 342.515 0.523551 -6.77079 0
M  V30 3474 H 340.461 2.63394 -6.00799 0
M  V30 3475 H 340.378 1.59201 -7.39047 0
M  V30 3476 H 341.646 2.77639 -7.2838 0
M  V30 3477 N 345.875 1.56104 -0.216619 0
M  V30 3478 C 346.838 2.18819 0.681962 0
M  V30 3479 C 347.838 1.14866 1.12528 0
M  V30 3480 O 349.028 1.40128 1.03488 0
M  V30 3481 C 346.16 2.80756 1.93362 0
M  V30 3482 H 347.353 2.99595 0.135254 0
M  V30 3483 H 344.906 1.56265 0.0330003 0
M  V30 3484 H 345.641 2.03837 2.52232 0
M  V30 3485 H 345.426 3.56876 1.62426 0
M  V30 3486 H 346.916 3.28844 2.57393 0
M  V30 3487 N 347.353 -0.0568162 1.57498 0
M  V30 3488 C 348.301 -1.08452 2.05769 0
M  V30 3489 C 349.295 -1.39164 0.965903 0
M  V30 3490 O 350.501 -1.38395 1.15095 0
M  V30 3491 H 346.876 -0.367148 0.656282 0
M  V30 3492 H 348.847 -0.651368 2.91204 0
M  V30 3493 C 347.596 -2.38543 2.52968 0
M  V30 3494 H 346.919 -2.15765 3.36579 0
M  V30 3495 H 348.359 -3.08863 2.90481 0
M  V30 3496 C 346.818 -3.05562 1.41893 0
M  V30 3497 O 347.348 -3.94262 0.769442 0
M  V30 3498 N 345.554 -2.6643 1.16032 0
M  V30 3499 H 345.101 -1.94387 1.6903 0
M  V30 3500 H 345.059 -3.11593 0.419219 0
M  V30 3501 N 348.832 -1.54138 -0.328536 0
M  V30 3502 C 350.078 -1.7236 -1.06865 0
M  V30 3503 C 350.411 -0.493231 -1.87832 0
M  V30 3504 O 349.686 0.5098 -1.877 0
M  V30 3505 C 349.969 -2.99621 -1.99747 0
M  V30 3506 C 349.822 -4.32899 -1.22143 0
M  V30 3507 C 351.141 -3.22615 -2.99345 0
M  V30 3508 H 348.26 -0.627151 -0.387105 0
M  V30 3509 H 350.902 -1.86827 -0.345767 0
M  V30 3510 H 349.052 -2.87418 -2.61387 0
M  V30 3511 H 350.724 -4.56978 -0.630017 0
M  V30 3512 H 348.967 -4.30628 -0.523628 0
M  V30 3513 H 349.638 -5.18154 -1.90318 0
M  V30 3514 H 352.114 -3.34248 -2.47826 0
M  V30 3515 H 350.99 -4.13027 -3.61524 0
M  V30 3516 H 351.251 -2.3961 -3.71536 0
M  V30 3517 N 350.31 0.590341 -1.46126 0
M  V30 3518 C 351.557 1.34882 -1.5104 0
M  V30 3519 C 351.885 1.93849 -0.159021 0
M  V30 3520 O 351.14 1.76544 0.844436 0
M  V30 3521 C 351.439 2.5032 -2.55097 0
M  V30 3522 C 351.105 2.09394 -3.99331 0
M  V30 3523 C 349.767 1.97947 -4.38601 0
M  V30 3524 C 352.119 1.77712 -4.89967 0
M  V30 3525 C 349.447 1.53065 -5.66381 0
M  V30 3526 C 351.799 1.34312 -6.18177 0
M  V30 3527 C 350.463 1.21436 -6.56361 0
M  V30 3528 H 349.733 0.493568 -0.552695 0
M  V30 3529 H 352.38 0.665539 -1.79563 0
M  V30 3530 H 350.685 3.24062 -2.20207 0
M  V30 3531 H 352.382 3.08541 -2.56132 0
M  V30 3532 H 348.972 2.19235 -3.68285 0
M  V30 3533 H 353.156 1.85445 -4.60352 0
M  V30 3534 H 348.412 1.41733 -5.94745 0
M  V30 3535 H 352.586 1.08849 -6.87841 0
M  V30 3536 H 350.213 0.864345 -7.5527 0
M  V30 3537 N 351.788 1.33704 0.83433 0
M  V30 3538 C 353.034 1.25603 1.59222 0
M  V30 3539 C 353.367 -0.176659 1.93395 0
M  V30 3540 O 352.642 -1.11915 1.59076 0
M  V30 3541 C 352.925 2.13576 2.89926 0
M  V30 3542 C 352.778 3.65326 2.62406 0
M  V30 3543 C 354.097 2.01238 3.91397 0
M  V30 3544 H 351.216 0.457613 0.577719 0
M  V30 3545 H 353.858 1.63848 0.961972 0
M  V30 3546 H 352.008 1.8109 3.43713 0
M  V30 3547 H 353.68 4.08124 2.15017 0
M  V30 3548 H 351.923 3.8698 1.96033 0
M  V30 3549 H 352.594 4.22232 3.55562 0
M  V30 3550 H 355.07 2.29738 3.46929 0
M  V30 3551 H 353.946 2.65036 4.80673 0
M  V30 3552 H 354.207 0.985951 4.30966 0
M  V30 3553 N 353.266 -1.05314 1.17247 0
M  V30 3554 C 354.198 -2.13023 0.845812 0
M  V30 3555 C 355.211 -1.62096 -0.151246 0
M  V30 3556 O 356.4 -1.78343 0.0748818 0
M  V30 3557 C 353.5 -3.38047 0.240292 0
M  V30 3558 C 352.673 -4.18255 1.27991 0
M  V30 3559 C 351.732 -5.21625 0.692375 0
M  V30 3560 O 350.758 -5.52619 1.36385 0
M  V30 3561 N 351.96 -5.78201 -0.516178 0
M  V30 3562 H 354.725 -2.41642 1.77283 0
M  V30 3563 H 352.286 -1.21401 1.07115 0
M  V30 3564 H 354.278 -4.04359 -0.16603 0
M  V30 3565 H 352.848 -3.06972 -0.590487 0
M  V30 3566 H 352.068 -3.47451 1.86203 0
M  V30 3567 H 353.356 -4.68643 1.98119 0
M  V30 3568 H 352.754 -5.55301 -1.07969 0
M  V30 3569 H 351.311 -6.4604 -0.86458 0
M  V30 3570 N 354.744 -0.972509 -1.24016 0
M  V30 3571 C 355.674 -0.525548 -2.27509 0
M  V30 3572 C 356.655 0.437262 -1.64384 0
M  V30 3573 O 357.84 0.332343 -1.91335 0
M  V30 3574 C 354.97 0.180448 -3.46831 0
M  V30 3575 C 353.924 -0.698859 -4.22256 0
M  V30 3576 C 353.25 0.138903 -5.3452 0
M  V30 3577 C 354.55 -1.98582 -4.83076 0
M  V30 3578 H 356.244 -1.39058 -2.65148 0
M  V30 3579 H 353.79 -0.67009 -1.27459 0
M  V30 3580 H 355.743 0.504387 -4.18371 0
M  V30 3581 H 354.467 1.07987 -3.08231 0
M  V30 3582 H 353.126 -1.00614 -3.52523 0
M  V30 3583 H 352.774 1.03862 -4.9216 0
M  V30 3584 H 352.474 -0.446259 -5.85903 0
M  V30 3585 H 353.998 0.457404 -6.08884 0
M  V30 3586 H 355.412 -1.72715 -5.46665 0
M  V30 3587 H 353.809 -2.5181 -5.44713 0
M  V30 3588 H 354.879 -2.67769 -4.04262 0
M  V30 3589 N 356.222 1.38976 -0.743202 0
M  V30 3590 C 357.633 1.83123 -0.363732 0
M  V30 3591 C 357.984 1.6205 1.10609 0
M  V30 3592 O 357.109 1.11606 1.854 0
M  V30 3593 C 357.704 3.32439 -0.653408 0
M  V30 3594 C 356.263 3.74974 -0.327338 0
M  V30 3595 C 355.41 2.61878 -0.911875 0
M  V30 3596 H 358.361 1.27852 -0.940191 0
M  V30 3597 H 358.382 3.80432 0.0720031 0
M  V30 3598 H 357.894 3.47745 -1.72323 0
M  V30 3599 H 355.995 3.65252 0.736314 0
M  V30 3600 H 356.108 4.72106 -0.815631 0
M  V30 3601 H 354.472 2.52448 -0.337944 0
M  V30 3602 H 355.255 2.79987 -1.98651 0
M  V30 3603 N 357.7 0.491464 1.49741 0
M  V30 3604 C 359.116 0.146835 1.58923 0
M  V30 3605 C 359.316 -1.34804 1.49767 0
M  V30 3606 O 358.372 -2.12317 1.36667 0
M  V30 3607 C 359.685 0.715157 2.92072 0
M  V30 3608 C 361.233 0.680407 3.05515 0
M  V30 3609 C 361.708 1.22663 4.41269 0
M  V30 3610 N 363.199 1.18691 4.47735 0
M  V30 3611 C 363.934 1.57984 5.51207 0
M  V30 3612 N 363.43 2.04824 6.6183 0
M  V30 3613 N 365.223 1.49459 5.41866 0
M  V30 3614 H 357.374 1.46347 1.53936 0
M  V30 3615 H 359.637 0.606453 0.728642 0
M  V30 3616 H 359.343 1.76317 3.04311 0
M  V30 3617 H 359.217 0.17018 3.76816 0
M  V30 3618 H 361.604 -0.358743 2.92911 0
M  V30 3619 H 361.685 1.26242 2.22478 0
M  V30 3620 H 361.329 2.26451 4.54623 0
M  V30 3621 H 361.259 0.620637 5.2293 0
M  V30 3622 H 363.75 0.843605 3.68364 0
M  V30 3623 H 364.063 2.32901 7.3687 0
M  V30 3624 H 362.408 2.08791 6.62896 0
M  V30 3625 H 365.599 1.12692 4.54333 0
M  V30 3626 H 365.772 1.80406 6.22381 0
M  V30 3627 N 359.178 -1.55987 0.224894 0
M  V30 3628 C 360.108 -2.23426 -0.678457 0
M  V30 3629 C 361.089 -1.20709 -1.19847 0
M  V30 3630 O 362.274 -1.49304 -1.24186 0
M  V30 3631 C 359.404 -2.91676 -1.88527 0
M  V30 3632 C 358.358 -4.00893 -1.49896 0
M  V30 3633 C 357.684 -4.56455 -2.78483 0
M  V30 3634 C 358.984 -5.17769 -0.686461 0
M  V30 3635 H 360.678 -2.99175 -0.116173 0
M  V30 3636 H 358.224 -1.43897 -0.054436 0
M  V30 3637 H 360.177 -3.37547 -2.5227 0
M  V30 3638 H 358.901 -2.1338 -2.47258 0
M  V30 3639 H 357.56 -3.55758 -0.884985 0
M  V30 3640 H 357.208 -3.74886 -3.35365 0
M  V30 3641 H 356.908 -5.30169 -2.53368 0
M  V30 3642 H 358.432 -5.05047 -3.43162 0
M  V30 3643 H 359.846 -5.60001 -1.22767 0
M  V30 3644 H 358.243 -5.97735 -0.532259 0
M  V30 3645 H 359.313 -4.83932 0.306196 0
M  V30 3646 N 360.656 0.0484629 -1.57525 0
M  V30 3647 C 361.588 1.08222 -2.02041 0
M  V30 3648 C 362.601 1.33621 -0.930012 0
M  V30 3649 O 363.79 1.3145 -1.20761 0
M  V30 3650 C 360.89 2.42818 -2.36416 0
M  V30 3651 C 360.063 2.37049 -3.67596 0
M  V30 3652 C 359.122 3.53937 -3.89378 0
M  V30 3653 O 358.148 3.34308 -4.60681 0
M  V30 3654 N 359.35 4.75126 -3.3352 0
M  V30 3655 H 362.115 0.702946 -2.9134 0
M  V30 3656 H 359.676 0.236745 -1.6016 0
M  V30 3657 H 361.668 3.197 -2.48141 0
M  V30 3658 H 360.238 2.72661 -1.52888 0
M  V30 3659 H 359.458 1.45395 -3.66407 0
M  V30 3660 H 360.746 2.30318 -4.53686 0
M  V30 3661 H 360.144 4.93976 -2.75688 0
M  V30 3662 H 358.701 5.49439 -3.50656 0
M  V30 3663 N 362.134 1.5431 0.320358 0
M  V30 3664 C 363.081 1.83918 1.39438 0
M  V30 3665 C 364.051 0.686525 1.51248 0
M  V30 3666 O 365.236 0.933269 1.66417 0
M  V30 3667 C 362.376 2.075 2.75749 0
M  V30 3668 C 361.489 3.35177 2.72544 0
M  V30 3669 C 360.624 3.48704 4.00723 0
M  V30 3670 C 359.663 4.70244 3.91838 0
M  V30 3671 N 358.8 4.80679 5.11754 0
M  V30 3672 H 363.64 2.75544 1.13489 0
M  V30 3673 H 361.177 1.36459 0.549309 0
M  V30 3674 H 363.135 2.19166 3.54996 0
M  V30 3675 H 361.765 1.19163 3 0
M  V30 3676 H 360.817 3.32233 1.85271 0
M  V30 3677 H 362.129 4.24534 2.61863 0
M  V30 3678 H 361.283 3.59928 4.88402 0
M  V30 3679 H 360.022 2.57445 4.14214 0
M  V30 3680 H 359.027 4.59072 3.02544 0
M  V30 3681 H 360.252 5.6289 3.7991 0
M  V30 3682 H 358.198 3.92337 5.25745 0
M  V30 3683 H 358.115 5.64007 5.0342 0
M  V30 3684 H 359.383 4.96239 6.01138 0
M  V30 3685 N 363.613 -0.582584 1.46437 0
M  V30 3686 C 364.543 -1.70187 1.59871 0
M  V30 3687 C 365.524 -1.64066 0.449042 0
M  V30 3688 O 366.709 -1.82081 0.6753 0
M  V30 3689 C 363.839 -3.08827 1.58881 0
M  V30 3690 C 362.793 -3.29779 2.72819 0
M  V30 3691 C 362.119 -4.68947 2.5689 0
M  V30 3692 C 363.419 -3.17601 4.1464 0
M  V30 3693 H 365.113 -1.592 2.53566 0
M  V30 3694 H 362.659 -0.764472 1.22032 0
M  V30 3695 H 364.612 -3.86951 1.66873 0
M  V30 3696 H 363.336 -3.20713 0.617306 0
M  V30 3697 H 361.995 -2.54054 2.64296 0
M  V30 3698 H 361.643 -4.77599 1.57823 0
M  V30 3699 H 361.343 -4.83919 3.33312 0
M  V30 3700 H 362.867 -5.4924 2.66773 0
M  V30 3701 H 364.281 -3.8557 4.24274 0
M  V30 3702 H 362.678 -3.44094 4.9165 0
M  V30 3703 H 363.748 -2.14681 4.34788 0
M  V30 3704 N 365.091 -1.34144 -0.827227 0
M  V30 3705 C 366.321 -1.29138 -1.61267 0
M  V30 3706 C 366.729 0.137597 -1.88699 0
M  V30 3707 O 366.072 1.09379 -1.47587 0
M  V30 3708 C 366.134 -2.0097 -2.9808 0
M  V30 3709 C 365.798 -3.50242 -2.93563 0
M  V30 3710 C 366.795 -4.4523 -2.68452 0
M  V30 3711 C 364.48 -3.92592 -3.13331 0
M  V30 3712 C 366.474 -5.80542 -2.63154 0
M  V30 3713 C 364.161 -5.28005 -3.07658 0
M  V30 3714 C 365.159 -6.21792 -2.82602 0
M  V30 3715 O 364.847 -7.54723 -2.76853 0
M  V30 3716 H 364.579 -0.445851 -0.508127 0
M  V30 3717 H 367.133 -1.77263 -1.03763 0
M  V30 3718 H 365.363 -1.47451 -3.57484 0
M  V30 3719 H 367.052 -1.89309 -3.5905 0
M  V30 3720 H 367.818 -4.13832 -2.52919 0
M  V30 3721 H 363.697 -3.19994 -3.31851 0
M  V30 3722 H 367.241 -6.53717 -2.43516 0
M  V30 3723 H 363.138 -5.59023 -3.22743 0
M  V30 3724 H 363.906 -7.64409 -2.92611 0
M  V30 3725 N 366.569 1.04691 -1.17803 0
M  V30 3726 C 367.499 2.14494 -0.92275 0
M  V30 3727 C 368.48 1.69546 0.137179 0
M  V30 3728 O 369.665 1.94195 -0.0141108 0
M  V30 3729 C 366.795 3.44491 -0.440803 0
M  V30 3730 C 365.749 4.03031 -1.4405 0
M  V30 3731 C 365.075 5.28432 -0.81631 0
M  V30 3732 C 366.375 4.39932 -2.81527 0
M  V30 3733 H 368.069 2.36107 -1.84103 0
M  V30 3734 H 365.615 1.1347 -0.886599 0
M  V30 3735 H 367.568 4.2066 -0.249602 0
M  V30 3736 H 366.292 3.22546 0.513025 0
M  V30 3737 H 364.951 3.28937 -1.61853 0
M  V30 3738 H 364.599 5.02792 0.144511 0
M  V30 3739 H 364.299 5.68559 -1.48371 0
M  V30 3740 H 365.823 6.07284 -0.635496 0
M  V30 3741 H 367.237 5.07113 -2.67412 0
M  V30 3742 H 365.634 4.9109 -3.44892 0
M  V30 3743 H 366.704 3.50045 -3.35554 0
M  V30 3744 N 368.047 0.979072 1.23499 0
M  V30 3745 C 369.324 0.563674 1.87302 0
M  V30 3746 C 369.704 -0.959199 1.88049 0
M  V30 3747 O 369.052 -1.83535 1.36114 0
M  V30 3748 C 369.262 1.16822 3.28867 0
M  V30 3749 C 370.61 1.26014 4.0547 0
M  V30 3750 O 371.634 1.12158 3.38082 0
M  V30 3751 O 370.493 1.48044 5.26066 0
M  V30 3752 H 367.587 0.189602 0.804972 0
M  V30 3753 H 370.133 1.07407 1.31384 0
M  V30 3754 H 368.905 2.21049 3.22883 0
M  V30 3755 H 368.528 0.642564 3.92373 0
M  V30 3756 N 369.525 -1.3858 0.750561 0
M  V30 3757 C 370.941 -1.53759 0.427824 0
M  V30 3758 C 371.141 -1.71401 -1.05943 0
M  V30 3759 O 370.197 -1.72331 -1.84549 0
M  V30 3760 C 371.51 -2.74642 1.22443 0
M  V30 3761 C 373.058 -2.88489 1.2142 0
M  V30 3762 C 373.533 -4.12329 1.9937 0
M  V30 3763 N 375.024 -4.194 1.96616 0
M  V30 3764 C 375.759 -5.14209 2.53727 0
M  V30 3765 N 375.255 -6.14709 3.19539 0
M  V30 3766 N 377.048 -5.06537 2.43673 0
M  V30 3767 H 369.199 -1.25377 1.71447 0
M  V30 3768 H 371.462 -0.608844 0.726645 0
M  V30 3769 H 371.168 -2.68 2.27747 0
M  V30 3770 H 371.042 -3.67745 0.839273 0
M  V30 3771 H 373.429 -2.94614 0.169232 0
M  V30 3772 H 373.51 -1.96406 1.63885 0
M  V30 3773 H 373.154 -4.06966 3.03877 0
M  V30 3774 H 373.084 -5.03486 1.54302 0
M  V30 3775 H 375.575 -3.47421 1.48684 0
M  V30 3776 H 375.888 -6.8354 3.60545 0
M  V30 3777 H 374.233 -6.1505 3.23633 0
M  V30 3778 H 377.424 -4.26962 1.91889 0
M  V30 3779 H 377.597 -5.80245 2.88479 0
M  V30 3780 N 371.003 -0.499398 -1.49478 0
M  V30 3781 C 371.951 0.293604 -2.3074 0
M  V30 3782 C 372.945 0.96427 -1.39277 0
M  V30 3783 O 374.151 0.892141 -1.56336 0
M  V30 3784 H 370.526 0.113541 -0.743379 0
M  V30 3785 H 372.497 -0.411772 -2.95545 0
M  V30 3786 C 371.246 1.3462 -3.20582 0
M  V30 3787 H 370.569 0.83954 -3.90886 0
M  V30 3788 H 372.009 1.87308 -3.80384 0
M  V30 3789 C 370.468 2.36351 -2.40083 0
M  V30 3790 O 370.998 3.422 -2.10385 0
M  V30 3791 N 369.204 2.0878 -2.02137 0
M  V30 3792 H 368.751 1.22723 -2.26488 0
M  V30 3793 H 368.709 2.77075 -1.48583 0
M  V30 3794 N 372.481 1.55866 -0.233164 0
M  V30 3795 C 373.411 2.23783 0.666599 0
M  V30 3796 C 374.392 1.21343 1.19205 0
M  V30 3797 O 375.577 1.4996 1.23392 0
M  V30 3798 C 372.707 2.92671 1.86978 0
M  V30 3799 C 371.661 4.01682 1.47768 0
M  V30 3800 C 370.987 4.57926 2.76058 0
M  V30 3801 C 372.287 5.18126 0.658993 0
M  V30 3802 H 373.981 2.99232 0.100306 0
M  V30 3803 H 371.527 1.43924 0.046804 0
M  V30 3804 H 373.48 3.3888 2.50476 0
M  V30 3805 H 372.204 2.14688 2.46123 0
M  V30 3806 H 370.863 3.56222 0.866106 0
M  V30 3807 H 370.511 3.76659 3.33372 0
M  V30 3808 H 370.211 5.31505 2.50552 0
M  V30 3809 H 371.735 5.06859 3.40479 0
M  V30 3810 H 373.149 5.60644 1.19795 0
M  V30 3811 H 371.546 5.98009 0.500552 0
M  V30 3812 H 372.616 4.83763 -0.331856 0
M  V30 3813 N 373.959 -0.0401083 1.57549 0
M  V30 3814 C 375.208 -0.732108 1.87944 0
M  V30 3815 C 375.521 -1.77107 0.830206 0
M  V30 3816 O 376.727 -2.51488 1.02302 0
M  V30 3817 C 375.183 -1.35315 3.33494 0
M  V30 3818 C 374.791 -0.351105 4.46622 0
M  V30 3819 C 376.535 -2.02566 3.73051 0
M  V30 3820 C 374.442 -0.979859 5.83226 0
M  V30 3821 H 373.372 -0.277188 0.701201 0
M  V30 3822 H 376.023 0.0138501 1.83495 0
M  V30 3823 H 374.405 -2.14844 3.32653 0
M  V30 3824 H 375.579 0.416674 4.58912 0
M  V30 3825 H 373.894 0.218708 4.15825 0
M  V30 3826 H 376.491 -2.50441 4.72423 0
M  V30 3827 H 376.834 -2.83904 3.04474 0
M  V30 3828 H 377.367 -1.29827 3.76018 0
M  V30 3829 H 374.106 -0.206135 6.55176 0
M  V30 3830 H 373.626 -1.71774 5.74677 0
M  V30 3831 H 375.305 -1.49046 6.29599 0
M  V30 3832 N 375.437 -1.54477 -0.31217 0
M  V30 3833 C 376.4 -1.83923 -1.36766 0
M  V30 3834 C 377.4 -0.711563 -1.44199 0
M  V30 3835 O 378.59 -0.979866 -1.44029 0
M  V30 3836 C 375.722 -2.0095 -2.75376 0
M  V30 3837 H 376.915 -2.78239 -1.11906 0
M  V30 3838 H 374.468 -1.46369 -0.548257 0
M  V30 3839 H 375.203 -1.08883 -3.05475 0
M  V30 3840 H 374.988 -2.83018 -2.71373 0
M  V30 3841 H 376.478 -2.2514 -3.51713 0
M  V30 3842 N 376.915 0.57481 -1.46744 0
M  V30 3843 C 377.878 1.66533 -1.57478 0
M  V30 3844 C 378.878 1.54338 -0.451263 0
M  V30 3845 O 380.068 1.58814 -0.715813 0
M  V30 3846 C 377.2 3.05999 -1.50259 0
M  V30 3847 H 378.393 1.58372 -2.54673 0
M  V30 3848 H 375.946 0.793301 -1.34672 0
M  V30 3849 H 376.681 3.19709 -0.543725 0
M  V30 3850 H 376.466 3.16259 -2.31781 0
M  V30 3851 H 377.956 3.8537 -1.60872 0
M  V30 3852 N 378.394 1.34581 0.820102 0
M  V30 3853 C 379.64 1.27285 1.57881 0
M  V30 3854 C 379.973 -0.156137 1.93571 0
M  V30 3855 O 379.248 -1.10222 1.60254 0
M  V30 3856 C 379.531 2.16639 2.87645 0
M  V30 3857 C 379.384 3.68088 2.58517 0
M  V30 3858 C 380.703 2.05378 3.8924 0
M  V30 3859 H 377.822 0.463714 0.572833 0
M  V30 3860 H 380.464 1.64859 0.944539 0
M  V30 3861 H 378.614 1.84725 3.41773 0
M  V30 3862 H 380.286 4.10382 2.10676 0
M  V30 3863 H 378.529 3.89038 1.91917 0
M  V30 3864 H 379.2 4.2598 3.51063 0
M  V30 3865 H 381.676 2.33404 3.44473 0
M  V30 3866 H 380.552 2.7012 4.77835 0
M  V30 3867 H 380.813 1.0316 4.29896 0
M  V30 3868 N 379.872 -1.04064 1.18357 0
M  V30 3869 C 380.835 -2.10243 0.912707 0
M  V30 3870 C 381.835 -1.60477 -0.101928 0
M  V30 3871 O 383.025 -1.73703 0.131517 0
M  V30 3872 C 380.157 -3.38893 0.369387 0
M  V30 3873 H 381.35 -2.35706 1.85426 0
M  V30 3874 H 378.903 -1.20489 0.995594 0
M  V30 3875 H 379.638 -3.19094 -0.578776 0
M  V30 3876 H 379.423 -3.76331 1.1008 0
M  V30 3877 H 380.913 -4.17128 0.198575 0
M  V30 3878 N 381.35 -0.985608 -1.22978 0
M  V30 3879 C 382.761 -0.693593 -1.73338 0
M  V30 3880 C 383.112 0.789935 -1.79595 0
M  V30 3881 O 382.237 1.61771 -1.43733 0
M  V30 3882 C 382.832 -1.25235 -3.14804 0
M  V30 3883 C 381.391 -1.00987 -3.626 0
M  V30 3884 C 380.538 -1.37695 -2.40698 0
M  V30 3885 H 383.489 -1.15884 -1.08428 0
M  V30 3886 H 383.51 -0.627329 -3.75293 0
M  V30 3887 H 383.022 -2.33209 -3.10218 0
M  V30 3888 H 381.123 0.0535565 -3.72562 0
M  V30 3889 H 381.236 -1.66812 -4.49122 0
M  V30 3890 H 379.6 -0.795459 -2.4196 0
M  V30 3891 H 380.383 -2.46657 -2.38779 0
M  V30 3892 N 382.828 1.3818 -0.7579 0
M  V30 3893 C 384.076 1.99624 -0.315361 0
M  V30 3894 C 384.397 1.60464 1.10799 0
M  V30 3895 O 383.667 0.863507 1.75842 0
M  V30 3896 H 382.247 0.73831 -0.113611 0
M  V30 3897 H 384.909 1.68878 -0.972952 0
M  V30 3898 H 384.005 3.09754 -0.381931 0
M  V30 3899 N 384.306 0.507319 1.49211 0
M  V30 3900 C 385.269 -0.256763 2.27757 0
M  V30 3901 C 386.269 -0.888287 1.34038 0
M  V30 3902 O 387.459 -0.751841 1.5714 0
M  V30 3903 C 384.591 -1.36905 3.12202 0
M  V30 3904 H 385.784 0.432557 2.96764 0
M  V30 3905 H 383.337 0.262488 1.5408 0
M  V30 3906 H 384.072 -2.09233 2.47775 0
M  V30 3907 H 383.857 -0.921599 3.81115 0
M  V30 3908 H 385.347 -1.9071 3.7151 0
M  V30 3909 N 385.784 -1.5574 0.241426 0
M  V30 3910 C 387.031 -1.9881 -0.384836 0
M  V30 3911 C 387.359 -1.12947 -1.58346 0
M  V30 3912 O 386.614 -0.178993 -1.9488 0
M  V30 3913 C 386.913 -3.47308 -0.843317 0
M  V30 3914 C 386.579 -4.50223 0.246946 0
M  V30 3915 C 385.241 -4.78088 0.546399 0
M  V30 3916 C 387.593 -5.11841 0.983282 0
M  V30 3917 C 384.921 -5.64846 1.58636 0
M  V30 3918 C 387.273 -5.99727 2.01272 0
M  V30 3919 C 385.937 -6.25927 2.31888 0
M  V30 3920 H 385.207 -0.727496 -0.140821 0
M  V30 3921 H 387.854 -1.8831 0.348106 0
M  V30 3922 H 386.159 -3.55112 -1.65537 0
M  V30 3923 H 387.856 -3.78017 -1.33806 0
M  V30 3924 H 384.446 -4.286 0.00340639 0
M  V30 3925 H 388.63 -4.90366 0.765182 0
M  V30 3926 H 383.886 -5.83403 1.82896 0
M  V30 3927 H 388.06 -6.46517 2.58823 0
M  V30 3928 H 385.687 -6.92949 3.12611 0
M  V30 3929 N 387.262 0.0317525 -1.57568 0
M  V30 3930 C 388.192 1.03274 -2.0942 0
M  V30 3931 C 389.173 1.3788 -0.996143 0
M  V30 3932 O 390.358 1.46811 -1.27122 0
M  V30 3933 C 387.488 2.33448 -2.57137 0
M  V30 3934 C 386.442 2.13091 -3.71182 0
M  V30 3935 C 385.768 3.49001 -4.05095 0
M  V30 3936 C 387.068 1.51928 -4.99715 0
M  V30 3937 H 388.762 0.60112 -2.93303 0
M  V30 3938 H 386.308 0.287705 -1.41097 0
M  V30 3939 H 388.261 3.03802 -2.92032 0
M  V30 3940 H 386.985 2.78665 -1.70333 0
M  V30 3941 H 385.644 1.45171 -3.36632 0
M  V30 3942 H 385.292 3.91862 -3.15362 0
M  V30 3943 H 384.992 3.36207 -4.81911 0
M  V30 3944 H 386.516 4.20721 -4.42522 0
M  V30 3945 H 387.93 2.12196 -5.32584 0
M  V30 3946 H 386.327 1.49716 -5.81124 0
M  V30 3947 H 387.397 0.484811 -4.8247 0
M  V30 3948 N 388.74 1.54641 0.303973 0
M  V30 3949 C 389.988 1.73437 1.0375 0
M  V30 3950 C 390.309 0.521449 1.87899 0
M  V30 3951 O 389.579 -0.46432 1.90318 0
M  V30 3952 H 388.159 0.639518 0.386039 0
M  V30 3953 H 390.821 1.91988 0.335675 0
M  V30 3954 H 389.917 2.62235 1.69231 0
M  V30 3955 N 390.218 -0.567019 1.47046 0
M  V30 3956 C 391.148 -1.68482 1.61667 0
M  V30 3957 C 392.129 -1.6358 0.466418 0
M  V30 3958 O 393.314 -1.81354 0.694574 0
M  V30 3959 C 390.444 -3.07124 1.62148 0
M  V30 3960 C 389.398 -3.26867 2.76301 0
M  V30 3961 C 388.724 -4.66196 2.61849 0
M  V30 3962 C 390.024 -3.13186 4.17986 0
M  V30 3963 H 391.718 -1.56502 2.5524 0
M  V30 3964 H 389.264 -0.751486 1.22836 0
M  V30 3965 H 391.217 -3.8516 1.70968 0
M  V30 3966 H 389.941 -3.2004 0.651287 0
M  V30 3967 H 388.6 -2.51237 2.66975 0
M  V30 3968 H 388.248 -4.75898 1.62879 0
M  V30 3969 H 387.948 -4.80356 3.38425 0
M  V30 3970 H 389.472 -5.46379 2.72584 0
M  V30 3971 H 390.886 -3.81049 4.2834 0
M  V30 3972 H 389.283 -3.3886 4.95272 0
M  V30 3973 H 390.353 -2.10057 4.3704 0
M  V30 3974 N 391.696 -1.35014 -0.812953 0
M  V30 3975 C 392.643 -1.27412 -1.92444 0
M  V30 3976 C 393.613 -0.14733 -1.65445 0
M  V30 3977 O 394.798 -0.329974 -1.87925 0
M  V30 3978 C 391.938 -1.04558 -3.28879 0
M  V30 3979 C 391.051 -2.26101 -3.68106 0
M  V30 3980 C 390.186 -1.96449 -4.9354 0
M  V30 3981 C 389.225 -3.14081 -5.25376 0
M  V30 3982 N 388.362 -2.84246 -6.41988 0
M  V30 3983 H 393.202 -2.22463 -1.98278 0
M  V30 3984 H 390.739 -1.10593 -0.969933 0
M  V30 3985 H 392.697 -0.893413 -4.07522 0
M  V30 3986 H 391.327 -0.131719 -3.22531 0
M  V30 3987 H 390.379 -2.52204 -2.84775 0
M  V30 3988 H 391.691 -3.13959 -3.87597 0
M  V30 3989 H 390.845 -1.78026 -5.79993 0
M  V30 3990 H 389.584 -1.05867 -4.76071 0
M  V30 3991 H 388.589 -3.33089 -4.37415 0
M  V30 3992 H 389.814 -4.05455 -5.44778 0
M  V30 3993 H 387.76 -1.96252 -6.25956 0
M  V30 3994 H 387.677 -3.65637 -6.61699 0
M  V30 3995 H 388.945 -2.6935 -7.31485 0
M  V30 3996 N 393.175 1.03435 -1.18907 0
M  V30 3997 C 394.138 2.09756 -0.923844 0
M  V30 3998 C 395.138 1.60528 0.093416 0
M  V30 3999 O 396.328 1.73631 -0.140727 0
M  V30 4000 C 393.46 3.38692 -0.387354 0
M  V30 4001 H 394.653 2.34719 -1.86674 0
M  V30 4002 H 392.206 1.19959 -1.00197 0
M  V30 4003 H 392.941 3.19396 0.561845 0
M  V30 4004 H 392.726 3.75742 -1.12074 0
M  V30 4005 H 394.216 4.17016 -0.220694 0
M  V30 4006 N 394.653 0.992116 1.22453 0
M  V30 4007 C 395.583 0.561677 2.26644 0
M  V30 4008 C 396.564 -0.411055 1.65059 0
M  V30 4009 O 397.749 -0.301861 1.9184 0
M  V30 4010 C 394.879 -0.125247 3.47074 0
M  V30 4011 C 393.833 0.765948 4.21091 0
M  V30 4012 C 393.159 -0.0538484 5.34673 0
M  V30 4013 C 394.459 2.06242 4.79856 0
M  V30 4014 H 396.153 1.43259 2.62902 0
M  V30 4015 H 393.699 0.690283 1.26377 0
M  V30 4016 H 395.652 -0.437764 4.1912 0
M  V30 4017 H 394.376 -1.03069 3.0991 0
M  V30 4018 H 393.035 1.0621 3.50878 0
M  V30 4019 H 392.683 -0.960188 4.9375 0
M  V30 4020 H 392.383 0.539415 5.85119 0
M  V30 4021 H 393.907 -0.360477 6.09535 0
M  V30 4022 H 395.321 1.8139 5.43848 0
M  V30 4023 H 393.718 2.60444 5.40638 0
M  V30 4024 H 394.788 2.74167 3.99951 0
M  V30 4025 N 396.131 -1.37776 0.765217 0
M  V30 4026 C 397.547 -1.53297 0.444108 0
M  V30 4027 C 397.747 -1.72515 -1.04119 0
M  V30 4028 O 396.803 -1.74278 -1.82711 0
M  V30 4029 C 398.116 -2.73328 1.25349 0
M  V30 4030 C 399.664 -2.87185 1.24473 0
M  V30 4031 C 400.139 -4.10191 2.03733 0
M  V30 4032 N 401.63 -4.17291 2.01053 0
M  V30 4033 C 402.365 -5.11488 2.59166 0
M  V30 4034 N 401.861 -6.11285 3.26041 0
M  V30 4035 N 403.654 -5.03924 2.49032 0
M  V30 4036 H 395.805 -1.23552 1.72768 0
M  V30 4037 H 398.068 -0.601103 0.733062 0
M  V30 4038 H 397.774 -2.6557 2.30577 0
M  V30 4039 H 397.648 -3.66834 0.87823 0
M  V30 4040 H 400.035 -2.94418 0.20047 0
M  V30 4041 H 400.116 -1.94657 1.65959 0
M  V30 4042 H 399.76 -4.0372 3.08176 0
M  V30 4043 H 399.69 -5.01821 1.59633 0
M  V30 4044 H 402.181 -3.45825 1.5236 0
M  V30 4045 H 402.494 -6.79678 3.67774 0
M  V30 4046 H 400.839 -6.11583 3.30138 0
M  V30 4047 H 404.03 -4.24902 1.96407 0
M  V30 4048 H 404.203 -5.77152 2.94617 0
M  V30 4049 N 397.609 -0.515225 -1.4894 0
M  V30 4050 C 398.855 0.016187 -2.03394 0
M  V30 4051 C 399.21 1.33377 -1.38666 0
M  V30 4052 O 398.503 1.84461 -0.518141 0
M  V30 4053 C 398.697 0.210595 -3.56779 0
M  V30 4054 C 398.526 -1.08659 -4.36375 0
M  V30 4055 C 397.296 -1.64237 -4.77864 0
M  V30 4056 C 399.494 -1.9935 -4.74093 0
M  V30 4057 N 397.476 -2.88398 -5.41941 0
M  V30 4058 C 398.847 -3.08088 -5.38035 0
M  V30 4059 C 400.902 -1.99856 -4.56029 0
M  V30 4060 C 399.605 -4.17377 -5.85823 0
M  V30 4061 C 401.631 -3.08129 -5.04787 0
M  V30 4062 C 400.993 -4.15586 -5.68742 0
M  V30 4063 H 397.092 -0.0352107 -0.781207 0
M  V30 4064 H 399.676 -0.693237 -1.8194 0
M  V30 4065 H 397.847 0.889088 -3.78087 0
M  V30 4066 H 399.579 0.740287 -3.97872 0
M  V30 4067 H 396.334 -1.18566 -4.58518 0
M  V30 4068 H 396.758 -3.51572 -5.78555 0
M  V30 4069 H 401.4 -1.18079 -4.05977 0
M  V30 4070 H 399.118 -4.99943 -6.34888 0
M  V30 4071 H 402.704 -3.09557 -4.92611 0
M  V30 4072 H 401.584 -4.97987 -6.05787 0
M  V30 4073 N 399.087 1.5561 -0.249682 0
M  V30 4074 C 400.017 2.24477 0.642826 0
M  V30 4075 C 400.998 1.22601 1.17911 0
M  V30 4076 O 402.183 1.5126 1.21795 0
M  V30 4077 C 399.313 2.94638 1.83863 0
M  V30 4078 C 398.267 4.03227 1.435 0
M  V30 4079 C 397.593 4.60828 2.71186 0
M  V30 4080 C 398.893 5.18796 0.604002 0
M  V30 4081 H 400.587 2.99321 0.0685625 0
M  V30 4082 H 398.133 1.43965 0.0315363 0
M  V30 4083 H 400.086 3.41517 2.46868 0
M  V30 4084 H 398.81 2.17287 2.43832 0
M  V30 4085 H 397.469 3.57121 0.828275 0
M  V30 4086 H 397.117 3.80174 3.29358 0
M  V30 4087 H 396.817 5.34132 2.44901 0
M  V30 4088 H 398.341 5.10442 3.35084 0
M  V30 4089 H 399.755 5.61883 1.13842 0
M  V30 4090 H 398.152 5.98506 0.437097 0
M  V30 4091 H 399.222 4.83384 -0.383147 0
M  V30 4092 N 400.565 -0.0233959 1.57583 0
M  V30 4093 C 401.842 -0.748794 1.807 0
M  V30 4094 C 402.222 -1.9327 0.849106 0
M  V30 4095 O 401.57 -2.28247 -0.107468 0
M  V30 4096 C 401.78 -1.17651 3.28571 0
M  V30 4097 C 403.128 -1.59008 3.93702 0
M  V30 4098 O 404.152 -1.27094 3.32755 0
M  V30 4099 O 403.011 -2.18264 5.01022 0
M  V30 4100 H 400.105 -0.362578 0.743281 0
M  V30 4101 H 402.651 0.000261958 1.697 0
M  V30 4102 H 401.423 -0.331603 3.89892 0
M  V30 4103 H 401.046 -1.98541 3.44481 0
M  V30 4104 N 402.043 -1.548 -0.295768 0
M  V30 4105 C 402.973 -1.89115 -1.36959 0
M  V30 4106 C 403.954 -0.75059 -1.52644 0
M  V30 4107 O 405.139 -1.00678 -1.66065 0
M  V30 4108 C 402.269 -2.14307 -2.73295 0
M  V30 4109 C 401.223 -3.30151 -2.72368 0
M  V30 4110 C 400.549 -3.40772 -4.12042 0
M  V30 4111 C 401.849 -4.67126 -2.33646 0
M  V30 4112 H 403.543 -2.79053 -1.08488 0
M  V30 4113 H 401.089 -1.34266 -0.520443 0
M  V30 4114 H 403.042 -2.36898 -3.48507 0
M  V30 4115 H 401.766 -1.21145 -3.03301 0
M  V30 4116 H 400.425 -3.0749 -1.99613 0
M  V30 4117 H 400.073 -2.45117 -4.39234 0
M  V30 4118 H 399.773 -4.18645 -4.12322 0
M  V30 4119 H 401.297 -3.6563 -4.89027 0
M  V30 4120 H 402.711 -4.89414 -2.98575 0
M  V30 4121 H 401.108 -5.47751 -2.45129 0
M  V30 4122 H 402.178 -4.67489 -1.28772 0
M  V30 4123 N 403.521 0.559213 -1.47345 0
M  V30 4124 C 404.746 1.34676 -1.57725 0
M  V30 4125 C 405.171 1.86723 -0.227164 0
M  V30 4126 O 404.529 1.6286 0.796642 0
M  V30 4127 C 404.577 2.49399 -2.60447 0
M  V30 4128 O 403.681 3.51567 -2.15578 0
M  V30 4129 H 403.022 0.400115 -0.52991 0
M  V30 4130 H 405.552 0.676009 -1.93109 0
M  V30 4131 H 405.562 2.95996 -2.80803 0
M  V30 4132 H 404.237 2.10873 -3.58477 0
M  V30 4133 H 402.814 3.11289 -2.05313 0
M  V30 4134 N 404.999 1.35443 0.805782 0
M  V30 4135 C 405.949 1.24972 1.90699 0
M  V30 4136 C 406.933 0.144806 1.60247 0
M  V30 4137 O 408.125 0.376102 1.72958 0
M  V30 4138 C 405.254 1.02475 3.27649 0
M  V30 4139 C 404.34 2.17361 3.64164 0
M  V30 4140 N 404.731 3.42591 3.72109 0
M  V30 4141 C 403.029 2.08765 3.94123 0
M  V30 4142 C 403.73 4.18144 4.04389 0
M  V30 4143 N 402.706 3.4691 4.18515 0
M  V30 4144 H 406.508 2.19852 1.95044 0
M  V30 4145 H 404.022 1.27928 1.00041 0
M  V30 4146 H 406.019 0.930617 4.06381 0
M  V30 4147 H 404.679 0.0848009 3.24589 0
M  V30 4148 H 405.69 3.76932 3.55166 0
M  V30 4149 H 402.367 1.22629 3.99084 0
M  V30 4150 H 403.757 5.26367 4.17597 0
M  V30 4151 N 406.477 -1.02803 1.19454 0
M  V30 4152 C 407.425 -2.13213 0.929673 0
M  V30 4153 C 408.419 -1.69011 -0.114806 0
M  V30 4154 O 409.625 -1.79967 0.0345147 0
M  V30 4155 H 406 -0.69662 0.28324 0
M  V30 4156 H 407.971 -2.32744 1.86743 0
M  V30 4157 C 406.72 -3.4429 0.485797 0
M  V30 4158 H 406.043 -3.7872 1.28105 0
M  V30 4159 H 407.483 -4.22638 0.339582 0
M  V30 4160 C 405.942 -3.27258 -0.800244 0
M  V30 4161 O 406.472 -3.55967 -1.86146 0
M  V30 4162 N 404.678 -2.80545 -0.75781 0
M  V30 4163 H 404.225 -2.57382 0.106039 0
M  V30 4164 H 404.183 -2.6953 -1.61867 0
M  V30 4165 N 407.956 -0.998596 -1.21925 0
M  V30 4166 C 409.372 -0.710303 -1.42923 0
M  V30 4167 C 409.572 0.716933 -1.88314 0
M  V30 4168 O 408.628 1.48712 -2.04062 0
M  V30 4169 C 409.941 -1.72072 -2.466 0
M  V30 4170 C 411.489 -1.73681 -2.60392 0
M  V30 4171 C 411.964 -2.73601 -3.67296 0
M  V30 4172 N 413.455 -2.7223 -3.7476 0
M  V30 4173 C 414.19 -3.46206 -4.57087 0
M  V30 4174 N 413.686 -4.29802 -5.43362 0
M  V30 4175 N 415.479 -3.34886 -4.51451 0
M  V30 4176 H 407.63 -1.92028 -0.9077 0
M  V30 4177 H 409.893 -0.828487 -0.460775 0
M  V30 4178 H 409.599 -2.74231 -2.20206 0
M  V30 4179 H 409.473 -1.51818 -3.45299 0
M  V30 4180 H 411.86 -0.722173 -2.86127 0
M  V30 4181 H 411.941 -1.98005 -1.61949 0
M  V30 4182 H 411.585 -3.75217 -3.42307 0
M  V30 4183 H 411.515 -2.46545 -4.65321 0
M  V30 4184 H 414.006 -2.11576 -3.1312 0
M  V30 4185 H 414.319 -4.83061 -6.03218 0
M  V30 4186 H 412.664 -4.33887 -5.42925 0
M  V30 4187 H 415.855 -2.69015 -3.83078 0
M  V30 4188 H 416.028 -3.92796 -5.15379 0
M  V30 4189 N 409.434 1.37368 -0.772513 0
M  V30 4190 C 410.68 1.99969 -0.337681 0
M  V30 4191 C 411.013 1.61184 1.08321 0
M  V30 4192 O 410.288 0.858395 1.74533 0
M  V30 4193 C 410.571 3.56858 -0.482121 0
M  V30 4194 C 410.424 4.0555 -1.94549 0
M  V30 4195 C 411.743 4.39955 0.113143 0
M  V30 4196 H 408.862 0.726464 -0.124171 0
M  V30 4197 H 411.504 1.63034 -0.975699 0
M  V30 4198 H 409.654 3.88452 0.0610361 0
M  V30 4199 H 411.326 3.84518 -2.54841 0
M  V30 4200 H 409.569 3.57715 -2.45403 0
M  V30 4201 H 410.24 5.14587 -1.9976 0
M  V30 4202 H 412.716 4.14623 -0.35031 0
M  V30 4203 H 411.592 5.48897 -0.0180514 0
M  V30 4204 H 411.853 4.25403 1.20354 0
M  V30 4205 N 410.912 0.523116 1.48665 0
M  V30 4206 C 411.875 -0.232592 2.28017 0
M  V30 4207 C 412.875 -0.874021 1.34972 0
M  V30 4208 O 414.065 -0.735132 1.57929 0
M  V30 4209 C 411.197 -1.33586 3.13636 0
M  V30 4210 H 412.39 0.464008 2.96289 0
M  V30 4211 H 409.943 0.278816 1.53793 0
M  V30 4212 H 410.678 -2.06593 2.4998 0
M  V30 4213 H 410.463 -0.881125 3.82071 0
M  V30 4214 H 411.953 -1.86759 3.73511 0
M  V30 4215 N 412.39 -1.55475 0.257931 0
M  V30 4216 C 413.638 -1.98813 -0.363009 0
M  V30 4217 C 413.959 -1.14757 -1.57657 0
M  V30 4218 O 413.229 -0.232956 -1.9451 0
M  V30 4219 H 411.809 -0.734308 -0.137113 0
M  V30 4220 H 414.471 -1.9156 0.359281 0
M  V30 4221 H 413.567 -3.04941 -0.664634 0
M  V30 4222 N 413.868 0.0150385 -1.57593 0
M  V30 4223 C 414.798 1.01047 -2.10503 0
M  V30 4224 C 415.779 1.36816 -1.01071 0
M  V30 4225 O 416.964 1.45455 -1.28672 0
M  V30 4226 C 414.094 2.30708 -2.59598 0
M  V30 4227 C 413.048 2.09142 -3.73421 0
M  V30 4228 C 412.374 3.44685 -4.08774 0
M  V30 4229 C 413.674 1.46619 -5.01298 0
M  V30 4230 H 415.368 0.569978 -2.93925 0
M  V30 4231 H 412.914 0.272724 -1.41394 0
M  V30 4232 H 414.867 3.00687 -2.95238 0
M  V30 4233 H 413.591 2.76843 -1.73279 0
M  V30 4234 H 412.25 1.41592 -3.38153 0
M  V30 4235 H 411.898 3.88495 -3.195 0
M  V30 4236 H 411.598 3.31077 -4.8545 0
M  V30 4237 H 413.122 4.16004 -4.4696 0
M  V30 4238 H 414.536 2.06535 -5.34805 0
M  V30 4239 H 412.933 1.43544 -5.82679 0
M  V30 4240 H 414.003 0.433611 -4.82957 0
M  V30 4241 N 415.346 1.54954 0.287554 0
M  V30 4242 C 416.276 1.89839 1.35954 0
M  V30 4243 C 417.257 0.758675 1.52244 0
M  V30 4244 O 418.442 1.01557 1.65529 0
M  V30 4245 C 415.572 2.15753 2.72154 0
M  V30 4246 C 414.526 3.3159 2.70614 0
M  V30 4247 C 413.852 3.42952 4.10229 0
M  V30 4248 C 415.152 4.68359 2.31165 0
M  V30 4249 H 416.846 2.79625 1.07007 0
M  V30 4250 H 414.392 1.3454 0.513316 0
M  V30 4251 H 416.345 2.38743 3.47246 0
M  V30 4252 H 415.069 1.22752 3.02654 0
M  V30 4253 H 413.728 3.08545 1.97979 0
M  V30 4254 H 413.376 2.47443 4.37928 0
M  V30 4255 H 413.076 4.20826 4.10097 0
M  V30 4256 H 414.6 3.68218 4.87081 0
M  V30 4257 H 416.014 4.9099 2.95976 0
M  V30 4258 H 414.411 5.49044 2.42221 0
M  V30 4259 H 415.481 4.68165 1.26291 0
M  V30 4260 N 416.824 -0.551391 1.4764 0
M  V30 4261 C 417.734 -1.68525 1.63207 0
M  V30 4262 C 418.75 -1.6621 0.514815 0
M  V30 4263 O 419.926 -1.85551 0.783113 0
M  V30 4264 C 416.991 -3.05025 1.64805 0
M  V30 4265 C 416.052 -3.18362 2.88 0
M  V30 4266 C 415.285 -4.4835 2.89513 0
M  V30 4267 O 415.508 -5.34163 2.00065 0
M  V30 4268 O 414.442 -4.65602 3.81443 0
M  V30 4269 H 418.268 -1.58333 2.59161 0
M  V30 4270 H 415.853 -0.722063 1.30792 0
M  V30 4271 H 417.735 -3.86245 1.68502 0
M  V30 4272 H 416.41 -3.15587 0.720197 0
M  V30 4273 H 415.317 -2.36518 2.89845 0
M  V30 4274 H 416.65 -3.12707 3.80099 0
M  V30 4275 N 418.302 -1.35869 -0.798587 0
M  V30 4276 C 419.579 -1.20145 -1.54352 0
M  V30 4277 C 419.959 0.216161 -2.0999 0
M  V30 4278 O 419.307 1.22068 -1.93162 0
M  V30 4279 C 419.517 -2.27602 -2.64572 0
M  V30 4280 C 420.865 -2.63811 -3.32699 0
M  V30 4281 O 421.889 -2.26576 -2.74849 0
M  V30 4282 O 420.748 -3.27866 -4.37226 0
M  V30 4283 H 417.842 -0.467248 -0.682355 0
M  V30 4284 H 420.388 -1.47574 -0.837859 0
M  V30 4285 H 419.16 -3.2265 -2.21388 0
M  V30 4286 H 418.783 -2.01488 -3.42766 0
M  V30 4287 N 419.78 1.02168 -1.19998 0
M  V30 4288 C 421.008 1.79296 -1.03249 0
M  V30 4289 C 421.423 1.84103 0.418502 0
M  V30 4290 O 420.78 1.29031 1.29063 0
M  V30 4291 C 420.831 3.24007 -1.60319 0
M  V30 4292 O 420.552 3.19512 -2.99739 0
M  V30 4293 C 422.053 4.17704 -1.48453 0
M  V30 4294 H 419.273 0.564016 -0.363493 0
M  V30 4295 H 421.817 1.28639 -1.58973 0
M  V30 4296 H 419.972 3.7183 -1.08727 0
M  V30 4297 H 420.386 4.10306 -3.26725 0
M  V30 4298 H 421.86 5.17104 -1.93153 0
M  V30 4299 H 422.337 4.37029 -0.436193 0
M  V30 4300 H 422.943 3.7576 -1.99211 0
M  V30 4301 N 421.258 1.00505 1.21394 0
M  V30 4302 C 422.505 0.687774 1.90462 0
M  V30 4303 C 422.833 -0.78147 1.7811 0
M  V30 4304 O 422.088 -1.58208 1.1519 0
M  V30 4305 C 422.387 1.0546 3.41486 0
M  V30 4306 C 422.053 2.51812 3.74034 0
M  V30 4307 C 420.715 2.91804 3.82628 0
M  V30 4308 C 423.067 3.46614 3.8924 0
M  V30 4309 C 420.395 4.2556 4.03876 0
M  V30 4310 C 422.747 4.80044 4.11995 0
M  V30 4311 C 421.411 5.19759 4.18816 0
M  V30 4312 H 420.681 0.251674 0.696951 0
M  V30 4313 H 423.328 1.26349 1.43903 0
M  V30 4314 H 421.633 0.397133 3.89782 0
M  V30 4315 H 423.33 0.786976 3.93202 0
M  V30 4316 H 419.92 2.1982 3.67936 0
M  V30 4317 H 424.104 3.16883 3.81967 0
M  V30 4318 H 419.36 4.55901 4.07387 0
M  V30 4319 H 423.534 5.53439 4.22704 0
M  V30 4320 H 421.161 6.23418 4.35033 0
M  V30 4321 N 422.737 -1.36956 0.779787 0
M  V30 4322 C 424.148 -1.82094 0.412156 0
M  V30 4323 C 424.499 -1.64926 -1.06273 0
M  V30 4324 O 423.624 -1.16483 -1.82375 0
M  V30 4325 C 424.219 -3.3059 0.741319 0
M  V30 4326 C 422.778 -3.73974 0.426641 0
M  V30 4327 C 421.925 -2.59368 0.980987 0
M  V30 4328 H 424.876 -1.25314 0.973758 0
M  V30 4329 H 424.897 -3.80489 0.028887 0
M  V30 4330 H 424.409 -3.43054 1.81482 0
M  V30 4331 H 422.51 -3.67076 -0.639215 0
M  V30 4332 H 422.623 -4.69778 0.940515 0
M  V30 4333 H 420.987 -2.51463 0.404757 0
M  V30 4334 H 421.77 -2.74621 2.06005 0
M  V30 4335 N 424.215 -0.530993 -1.48385 0
M  V30 4336 C 425.463 0.00273189 -2.021 0
M  V30 4337 C 425.784 1.34672 -1.41027 0
M  V30 4338 O 425.054 1.8724 -0.576012 0
M  V30 4339 H 423.634 0.00399774 -0.746989 0
M  V30 4340 H 426.296 -0.695054 -1.82085 0
M  V30 4341 H 425.392 0.11031 -3.11905 0
M  V30 4342 N 425.693 1.55336 -0.266172 0
M  V30 4343 C 426.623 2.25146 0.618981 0
M  V30 4344 C 427.604 1.23845 1.16604 0
M  V30 4345 O 428.789 1.52544 1.20183 0
M  V30 4346 C 425.919 2.96572 1.80728 0
M  V30 4347 C 424.873 4.04726 1.39215 0
M  V30 4348 C 424.199 4.63678 2.66283 0
M  V30 4349 C 425.499 5.19407 0.548942 0
M  V30 4350 H 427.193 2.99377 0.0368116 0
M  V30 4351 H 424.739 1.43991 0.0162651 0
M  V30 4352 H 426.692 3.44116 2.43232 0
M  V30 4353 H 425.416 2.19861 2.41514 0
M  V30 4354 H 424.075 3.57979 0.790351 0
M  V30 4355 H 423.723 3.83646 3.25308 0
M  V30 4356 H 423.423 5.367 2.39222 0
M  V30 4357 H 424.947 5.13967 3.29651 0
M  V30 4358 H 426.361 5.63059 1.07876 0
M  V30 4359 H 424.758 5.98936 0.373593 0
M  V30 4360 H 425.828 4.8295 -0.434394 0
M  V30 4361 N 427.171 -0.0066808 1.57599 0
M  V30 4362 C 428.101 -0.999296 2.11036 0
M  V30 4363 C 429.082 -1.36278 1.01795 0
M  V30 4364 O 430.267 -1.4477 1.29442 0
M  V30 4365 C 427.397 -2.29328 2.60818 0
M  V30 4366 C 426.351 -2.07159 3.74525 0
M  V30 4367 C 425.677 -3.42512 4.10596 0
M  V30 4368 C 426.977 -1.43959 5.02069 0
M  V30 4369 H 428.671 -0.554382 2.94223 0
M  V30 4370 H 426.217 -0.265221 1.41536 0
M  V30 4371 H 428.17 -2.99117 2.96828 0
M  V30 4372 H 426.894 -2.7592 1.74745 0
M  V30 4373 H 425.553 -1.39797 3.38899 0
M  V30 4374 H 425.201 -3.86795 3.21556 0
M  V30 4375 H 424.901 -3.28498 4.87199 0
M  V30 4376 H 426.425 -4.13628 4.4916 0
M  V30 4377 H 427.839 -2.03696 5.35893 0
M  V30 4378 H 426.236 -1.40452 5.83432 0
M  V30 4379 H 427.306 -0.407992 4.83181 0
M  V30 4380 N 428.649 -1.55105 -0.279332 0
M  V30 4381 C 429.897 -1.75066 -1.00977 0
M  V30 4382 C 430.218 -0.551276 -1.87045 0
M  V30 4383 O 429.488 0.433984 -1.91032 0
M  V30 4384 H 428.068 -0.645578 -0.375816 0
M  V30 4385 H 430.73 -1.92497 -0.305089 0
M  V30 4386 H 429.826 -2.64894 -1.65038 0
M  V30 4387 N 430.127 0.543554 -1.4793 0
M  V30 4388 C 431.057 1.65888 -1.64327 0
M  V30 4389 C 432.038 1.62818 -0.492383 0
M  V30 4390 O 433.223 1.80226 -0.723338 0
M  V30 4391 C 430.353 3.04506 -1.67013 0
M  V30 4392 C 429.307 3.2243 -2.81466 0
M  V30 4393 C 428.633 4.61972 -2.69233 0
M  V30 4394 C 429.933 3.06496 -4.22915 0
M  V30 4395 H 431.627 1.52421 -2.57698 0
M  V30 4396 H 429.173 0.731849 -1.24016 0
M  V30 4397 H 431.126 3.82391 -1.77074 0
M  V30 4398 H 429.85 3.18964 -0.70212 0
M  V30 4399 H 428.509 2.46957 -2.70938 0
M  V30 4400 H 428.157 4.73247 -1.7043 0
M  V30 4401 H 427.857 4.74911 -3.46025 0
M  V30 4402 H 429.381 5.41974 -2.81242 0
M  V30 4403 H 430.795 3.74186 -4.34348 0
M  V30 4404 H 429.192 3.30938 -5.006 0
M  V30 4405 H 430.262 2.03077 -4.40327 0
M  V30 4406 N 431.605 1.3629 0.791371 0
M  V30 4407 C 433.021 1.16661 1.08914 0
M  V30 4408 C 433.221 -0.0106266 2.01497 0
M  V30 4409 O 432.277 -0.676596 2.43266 0
M  V30 4410 C 433.59 2.47656 1.70549 0
M  V30 4411 C 435.138 2.54002 1.82899 0
M  V30 4412 C 435.613 3.85078 2.47949 0
M  V30 4413 N 437.104 3.86413 2.5542 0
M  V30 4414 C 437.839 4.84572 3.06557 0
M  V30 4415 N 437.335 5.93124 3.58016 0
M  V30 4416 N 439.128 4.71994 3.05251 0
M  V30 4417 H 431.279 2.11668 0.176238 0
M  V30 4418 H 433.542 0.937486 0.140796 0
M  V30 4419 H 433.248 3.34059 1.09989 0
M  V30 4420 H 433.122 2.63319 2.70079 0
M  V30 4421 H 435.509 1.68018 2.42598 0
M  V30 4422 H 435.59 2.42239 0.821808 0
M  V30 4423 H 435.234 4.71467 1.88895 0
M  V30 4424 H 435.164 3.94135 3.49235 0
M  V30 4425 H 437.655 3.07988 2.18979 0
M  V30 4426 H 437.968 6.63999 3.95381 0
M  V30 4427 H 436.313 5.96796 3.56173 0
M  V30 4428 H 439.504 3.86321 2.64336 0
M  V30 4429 H 439.677 5.48653 3.44796 0
M  V30 4430 N 433.083 -1.0153 1.20538 0
M  V30 4431 C 434.329 -1.75408 1.01783 0
M  V30 4432 C 434.662 -1.88943 -0.448814 0
M  V30 4433 O 433.937 -1.4162 -1.33319 0
M  V30 4434 C 434.22 -3.17255 1.70356 0
M  V30 4435 C 434.073 -3.11508 3.24473 0
M  V30 4436 C 435.392 -4.15955 1.43769 0
M  V30 4437 H 432.511 -0.636713 0.371167 0
M  V30 4438 H 435.153 -1.18436 1.4857 0
M  V30 4439 H 433.303 -3.65898 1.30578 0
M  V30 4440 H 434.975 -2.70658 3.73553 0
M  V30 4441 H 433.218 -2.4887 3.55311 0
M  V30 4442 H 433.889 -4.11784 3.67611 0
M  V30 4443 H 436.365 -3.75973 1.7828 0
M  V30 4444 H 435.241 -5.13368 1.94279 0
M  V30 4445 H 435.502 -4.40586 0.365564 0
M  V30 4446 N 434.561 -1.01147 -1.20859 0
M  V30 4447 C 435.491 -0.597663 -2.25722 0
M  V30 4448 C 436.472 0.384744 -1.65692 0
M  V30 4449 O 437.657 0.271303 -1.92296 0
M  V30 4450 C 434.787 0.0700149 -3.47229 0
M  V30 4451 C 433.741 -0.832843 -4.19819 0
M  V30 4452 C 433.067 -0.0312202 -5.34691 0
M  V30 4453 C 434.367 -2.1385 -4.76514 0
M  V30 4454 H 436.061 -1.47423 -2.60589 0
M  V30 4455 H 433.607 -0.710301 -1.25263 0
M  V30 4456 H 435.56 0.37103 -4.19763 0
M  V30 4457 H 434.284 0.981259 -3.11511 0
M  V30 4458 H 432.943 -1.11778 -3.49144 0
M  V30 4459 H 432.591 0.881515 -4.95215 0
M  V30 4460 H 432.291 -0.632434 -5.84187 0
M  V30 4461 H 433.815 0.26346 -6.10031 0
M  V30 4462 H 435.229 -1.9002 -5.40893 0
M  V30 4463 H 433.626 -2.69012 -5.36426 0
M  V30 4464 H 434.696 -2.80495 -3.95538 0
M  V30 4465 N 436.039 1.36541 -0.78704 0
M  V30 4466 C 437.455 1.52571 -0.46844 0
M  V30 4467 C 437.655 1.7415 1.01361 0
M  V30 4468 O 436.711 1.77163 1.79915 0
M  V30 4469 C 438.024 2.71299 -1.29682 0
M  V30 4470 C 439.572 2.85169 -1.29027 0
M  V30 4471 C 440.047 4.06898 -2.10233 0
M  V30 4472 N 441.538 4.1404 -2.07666 0
M  V30 4473 C 442.273 5.07301 -2.67271 0
M  V30 4474 N 441.769 6.06021 -3.35724 0
M  V30 4475 N 443.562 4.99898 -2.57018 0
M  V30 4476 H 435.713 1.20788 -1.74711 0
M  V30 4477 H 437.976 0.589364 -0.742532 0
M  V30 4478 H 437.682 2.61868 -2.34773 0
M  V30 4479 H 437.556 3.6539 -0.936479 0
M  V30 4480 H 439.943 2.94062 -0.247284 0
M  V30 4481 H 440.024 1.91992 -1.69035 0
M  V30 4482 H 439.668 3.98766 -3.1456 0
M  V30 4483 H 439.598 4.99218 -1.67597 0
M  V30 4484 H 442.089 3.43357 -1.57843 0
M  V30 4485 H 442.402 6.73741 -3.78541 0
M  V30 4486 H 440.747 6.06253 -3.39826 0
M  V30 4487 H 443.938 4.21724 -2.03142 0
M  V30 4488 H 444.111 5.72392 -3.03761 0
M  V30 4489 N 437.518 0.538854 1.48102 0
M  V30 4490 C 438.448 -0.207654 2.32575 0
M  V30 4491 C 439.429 -0.926559 1.4265 0
M  V30 4492 O 440.614 -0.91061 1.71527 0
M  V30 4493 C 437.744 -1.24957 3.24042 0
M  V30 4494 C 436.698 -0.648263 4.23062 0
M  V30 4495 C 436.024 -1.79348 5.03725 0
M  V30 4496 C 437.324 0.385897 5.20872 0
M  V30 4497 H 439.018 0.497534 2.95237 0
M  V30 4498 H 436.564 0.240715 1.41974 0
M  V30 4499 H 438.517 -1.77983 3.81969 0
M  V30 4500 H 437.241 -1.98446 2.59397 0
M  V30 4501 H 435.9 -0.139452 3.66335 0
M  V30 4502 H 435.548 -2.51696 4.35498 0
M  V30 4503 H 435.248 -1.39702 5.70751 0
M  V30 4504 H 436.772 -2.32735 5.64506 0
M  V30 4505 H 438.186 -0.057607 5.73271 0
M  V30 4506 H 436.583 0.700227 5.96001 0
M  V30 4507 H 437.653 1.28848 4.67468 0
M  V30 4508 N 438.996 -1.55193 0.274407 0
M  V30 4509 C 440.221 -2.04446 -0.348824 0
M  V30 4510 C 440.646 -1.15149 -1.48735 0
M  V30 4511 O 440.004 -0.149952 -1.80679 0
M  V30 4512 C 440.052 -3.51431 -0.808009 0
M  V30 4513 O 439.156 -3.65225 -1.91531 0
M  V30 4514 H 438.497 -0.66006 -0.0722276 0
M  V30 4515 H 441.027 -2.00481 0.408498 0
M  V30 4516 H 441.037 -3.92781 -1.10395 0
M  V30 4517 H 439.712 -4.15892 0.0249865 0
M  V30 4518 H 438.289 -3.35778 -1.62196 0
M  V30 4519 N 440.474 -0.00167713 -1.576 0
M  V30 4520 C 441.424 0.997744 -2.0501 0
M  V30 4521 C 442.408 1.30214 -0.94515 0
M  V30 4522 O 443.6 1.29284 -1.20891 0
M  V30 4523 C 440.729 2.2892 -2.55833 0
M  V30 4524 C 439.815 2.01437 -3.73208 0
M  V30 4525 N 440.206 1.44119 -4.84833 0
M  V30 4526 C 438.504 2.31571 -3.8117 0
M  V30 4527 C 439.205 1.33145 -5.66257 0
M  V30 4528 N 438.181 1.81763 -5.12312 0
M  V30 4529 H 441.983 0.549098 -2.88725 0
M  V30 4530 H 439.497 0.20398 -1.61114 0
M  V30 4531 H 441.494 3.01361 -2.88075 0
M  V30 4532 H 440.154 2.74436 -1.73537 0
M  V30 4533 H 441.165 1.11978 -5.0565 0
M  V30 4534 H 437.842 2.7995 -3.09732 0
M  V30 4535 H 439.232 0.890567 -6.65972 0
M  V30 4536 N 441.952 1.55251 0.271103 0
M  V30 4537 C 442.9 1.89054 1.35504 0
M  V30 4538 C 443.894 0.767064 1.51038 0
M  V30 4539 O 445.1 0.951429 1.528 0
M  V30 4540 H 441.475 0.600072 0.45323 0
M  V30 4541 H 443.446 2.79598 1.04247 0
M  V30 4542 C 442.195 2.18068 2.70817 0
M  V30 4543 H 441.518 3.04005 2.59656 0
M  V30 4544 H 442.958 2.4564 3.45597 0
M  V30 4545 C 441.417 0.988901 3.2206 0
M  V30 4546 O 441.947 0.224501 4.01072 0
M  V30 4547 N 440.153 0.786085 2.79766 0
M  V30 4548 H 439.7 1.40937 2.15626 0
M  V30 4549 H 439.658 -0.00969349 3.14399 0
M  V30 4550 N 443.43 -0.535701 1.48216 0
M  V30 4551 C 444.393 -1.623 1.61838 0
M  V30 4552 C 445.393 -1.53087 0.492024 0
M  V30 4553 O 446.583 -1.5686 0.757668 0
M  V30 4554 C 443.715 -3.01907 1.58319 0
M  V30 4555 H 444.908 -1.51564 2.58783 0
M  V30 4556 H 442.461 -0.757317 1.36727 0
M  V30 4557 H 443.196 -3.18155 0.628299 0
M  V30 4558 H 442.981 -3.10003 2.40085 0
M  V30 4559 H 444.471 -3.80969 1.71033 0
M  V30 4560 N 444.908 -1.36708 -0.784132 0
M  V30 4561 C 446.157 -1.30559 -1.53744 0
M  V30 4562 C 446.47 0.111374 -1.95283 0
M  V30 4563 O 447.676 0.29527 -2.6989 0
M  V30 4564 C 446.132 -2.29098 -2.77565 0
M  V30 4565 C 445.74 -3.76258 -2.43174 0
M  V30 4566 C 447.484 -2.31936 -3.55536 0
M  V30 4567 C 445.391 -4.6656 -3.63422 0
M  V30 4568 H 444.321 -0.48518 -0.577162 0
M  V30 4569 H 446.972 -1.62101 -0.859981 0
M  V30 4570 H 445.354 -1.90557 -3.47137 0
M  V30 4571 H 446.528 -4.23565 -1.81465 0
M  V30 4572 H 444.843 -3.76246 -1.78403 0
M  V30 4573 H 447.44 -2.9661 -4.44889 0
M  V30 4574 H 447.783 -1.3294 -3.94503 0
M  V30 4575 H 448.316 -2.6912 -2.92949 0
M  V30 4576 H 445.055 -5.66638 -3.29547 0
M  V30 4577 H 444.575 -4.23966 -4.24279 0
M  V30 4578 H 446.254 -4.8309 -4.30387 0
M  V30 4579 N 446.386 1.0089 -1.21074 0
M  V30 4580 C 447.349 2.0775 -0.968129 0
M  V30 4581 C 448.349 1.6069 0.0593445 0
M  V30 4582 O 449.539 1.73293 -0.177525 0
M  V30 4583 C 446.671 3.37794 -0.459108 0
M  V30 4584 H 447.864 2.30707 -1.9161 0
M  V30 4585 H 445.417 1.17807 -1.02719 0
M  V30 4586 H 446.152 3.20516 0.49397 0
M  V30 4587 H 445.937 3.7328 -1.20019 0
M  V30 4588 H 447.427 4.16454 -0.309099 0
M  V30 4589 N 447.864 1.01787 1.20321 0
M  V30 4590 C 449.089 0.727009 1.9424 0
M  V30 4591 C 449.514 -0.706179 1.74341 0
M  V30 4592 O 448.872 -1.48609 1.03852 0
M  V30 4593 C 448.92 1.06958 3.44372 0
M  V30 4594 O 448.024 0.181983 4.11998 0
M  V30 4595 H 447.365 0.269626 0.606793 0
M  V30 4596 H 449.895 1.36158 1.52716 0
M  V30 4597 H 449.905 1.02182 3.94997 0
M  V30 4598 H 448.58 2.11378 3.58179 0
M  V30 4599 H 447.157 0.287378 3.71791 0
M  V30 4600 N 449.342 -1.36122 0.79427 0
M  V30 4601 C 450.272 -2.32551 0.210328 0
M  V30 4602 C 451.253 -1.56884 -0.657386 0
M  V30 4603 O 452.438 -1.85014 -0.590207 0
M  V30 4604 C 449.568 -3.41128 -0.651819 0
M  V30 4605 C 448.522 -4.27842 0.116395 0
M  V30 4606 C 447.848 -5.2763 -0.86666 0
M  V30 4607 C 449.148 -5.05647 1.30837 0
M  V30 4608 H 450.842 -2.81636 1.01594 0
M  V30 4609 H 448.388 -1.35407 0.489981 0
M  V30 4610 H 450.341 -4.07581 -1.07031 0
M  V30 4611 H 449.065 -2.90622 -1.49019 0
M  V30 4612 H 447.724 -3.62952 0.515915 0
M  V30 4613 H 447.372 -4.73395 -1.70019 0
M  V30 4614 H 447.072 -5.86514 -0.35705 0
M  V30 4615 H 448.596 -5.96955 -1.28361 0
M  V30 4616 H 450.01 -5.65113 0.965393 0
M  V30 4617 H 448.407 -5.73967 1.75161 0
M  V30 4618 H 449.477 -4.37006 2.10128 0
M  V30 4619 N 450.82 -0.546701 -1.47814 0
M  V30 4620 C 452.236 -0.205717 -1.58269 0
M  V30 4621 C 452.436 1.29153 -1.54667 0
M  V30 4622 O 451.492 2.07098 -1.44453 0
M  V30 4623 C 452.805 -0.823065 -2.89216 0
M  V30 4624 C 454.353 -0.793328 -3.02779 0
M  V30 4625 C 454.828 -1.38955 -4.36412 0
M  V30 4626 N 456.319 -1.35227 -4.43021 0
M  V30 4627 C 457.054 -1.78333 -5.44963 0
M  V30 4628 N 456.55 -2.29246 -6.53772 0
M  V30 4629 N 458.343 -1.69467 -5.35945 0
M  V30 4630 H 450.494 -1.5196 -1.48398 0
M  V30 4631 H 452.757 -0.633078 -0.705632 0
M  V30 4632 H 452.463 -1.8749 -2.97558 0
M  V30 4633 H 452.337 -0.309915 -3.75925 0
M  V30 4634 H 454.724 0.249784 -2.94041 0
M  V30 4635 H 454.805 -1.34412 -2.17639 0
M  V30 4636 H 454.449 -2.43168 -4.45906 0
M  V30 4637 H 454.379 -0.814291 -5.20266 0
M  V30 4638 H 456.87 -0.979739 -3.64979 0
M  V30 4639 H 457.183 -2.60089 -7.27718 0
M  V30 4640 H 455.528 -2.3325 -6.5469 0
M  V30 4641 H 458.719 -1.29477 -4.49837 0
M  V30 4642 H 458.892 -2.03381 -6.15256 0
M  V30 4643 N 452.299 1.55045 -0.282633 0
M  V30 4644 C 453.71 1.85473 0.213655 0
M  V30 4645 C 454.061 1.20465 1.54863 0
M  V30 4646 O 453.186 0.495676 2.10647 0
M  V30 4647 C 453.781 3.36496 0.394445 0
M  V30 4648 C 452.34 3.67022 0.834961 0
M  V30 4649 C 451.487 2.77218 -0.0674081 0
M  V30 4650 H 454.438 1.50478 -0.504202 0
M  V30 4651 H 454.459 3.60007 1.23186 0
M  V30 4652 H 453.971 3.83782 -0.577326 0
M  V30 4653 H 452.072 3.25241 1.81794 0
M  V30 4654 H 452.185 4.74433 0.667075 0
M  V30 4655 H 450.549 2.5069 0.450196 0
M  V30 4656 H 451.332 3.2732 -1.0352 0
M  V30 4657 N 453.777 0.010035 1.57597 0
M  V30 4658 C 455.193 -0.346164 1.55801 0
M  V30 4659 C 455.393 -1.74144 1.01371 0
M  V30 4660 O 454.449 -2.43938 0.651968 0
M  V30 4661 C 455.762 -0.212216 2.9995 0
M  V30 4662 C 457.31 -0.286409 3.11687 0
M  V30 4663 C 457.785 -0.18147 4.5764 0
M  V30 4664 N 459.276 -0.239056 4.62583 0
M  V30 4665 C 460.011 -0.181351 5.73113 0
M  V30 4666 N 459.507 -0.073661 6.92761 0
M  V30 4667 N 461.3 -0.233949 5.61613 0
M  V30 4668 H 453.451 0.922657 1.91313 0
M  V30 4669 H 455.714 0.354595 0.879185 0
M  V30 4670 H 455.42 0.748169 3.4365 0
M  V30 4671 H 455.294 -0.990224 3.6397 0
M  V30 4672 H 457.681 -1.23724 2.67911 0
M  V30 4673 H 457.762 0.521645 2.50425 0
M  V30 4674 H 457.406 0.765863 5.02093 0
M  V30 4675 H 457.336 -1.00814 5.1686 0
M  V30 4676 H 459.827 -0.32321 3.76515 0
M  V30 4677 H 460.14 -0.0358003 7.72792 0
M  V30 4678 H 458.485 -0.0391461 6.94989 0
M  V30 4679 H 461.676 -0.316347 4.6703 0
M  V30 4680 H 461.849 -0.185514 6.47734 0
M  V30 4681 N 455.255 -1.55392 -0.262866 0
M  V30 4682 C 456.483 -1.80513 -1.01108 0
M  V30 4683 C 456.898 -0.583533 -1.79556 0
M  V30 4684 O 456.255 0.447585 -1.76926 0
M  V30 4685 C 456.306 -3.03648 -1.96164 0
M  V30 4686 O 456.027 -4.2109 -1.20893 0
M  V30 4687 C 457.528 -3.41448 -2.82715 0
M  V30 4688 H 454.748 -0.601079 -0.298236 0
M  V30 4689 H 457.292 -2.02425 -0.290582 0
M  V30 4690 H 455.447 -2.83832 -2.63663 0
M  V30 4691 H 455.861 -4.90771 -1.85051 0
M  V30 4692 H 457.335 -4.30751 -3.45192 0
M  V30 4693 H 457.812 -2.61308 -3.53008 0
M  V30 4694 H 458.418 -3.63559 -2.20693 0
M  V30 4695 N 456.733 0.527833 -1.48498 0
M  V30 4696 C 457.98 1.28354 -1.56625 0
M  V30 4697 C 458.308 1.93 -0.241096 0
M  V30 4698 O 457.563 1.79967 0.768798 0
M  V30 4699 C 457.862 2.39275 -2.65485 0
M  V30 4700 C 457.528 1.92268 -4.07853 0
M  V30 4701 C 456.19 1.79166 -4.46602 0
M  V30 4702 C 458.542 1.56771 -4.97064 0
M  V30 4703 C 455.87 1.28905 -5.72364 0
M  V30 4704 C 458.222 1.07972 -6.23318 0
M  V30 4705 C 456.886 0.934887 -6.60921 0
M  V30 4706 H 456.156 0.469682 -0.573131 0
M  V30 4707 H 458.803 0.588781 -1.82224 0
M  V30 4708 H 457.108 3.1443 -2.33754 0
M  V30 4709 H 458.805 2.974 -2.68988 0
M  V30 4710 H 455.395 2.03417 -3.77252 0
M  V30 4711 H 459.579 1.65753 -4.67803 0
M  V30 4712 H 454.835 1.16381 -6.00221 0
M  V30 4713 H 459.009 0.795775 -6.91838 0
M  V30 4714 H 456.636 0.543231 -7.58257 0
M  V30 4715 N 458.211 1.37122 0.776871 0
M  V30 4716 C 459.158 1.3247 1.88998 0
M  V30 4717 C 460.128 0.191143 1.64997 0
M  V30 4718 O 461.313 0.379683 1.86984 0
M  V30 4719 C 458.453 1.13241 3.25992 0
M  V30 4720 C 457.566 2.35782 3.61982 0
M  V30 4721 C 456.701 2.09465 4.88158 0
M  V30 4722 C 455.74 3.279 5.16864 0
M  V30 4723 N 454.877 3.01167 6.34226 0
M  V30 4724 H 459.717 2.27642 1.9231 0
M  V30 4725 H 457.254 1.13125 0.94027 0
M  V30 4726 H 459.212 1.00115 4.0501 0
M  V30 4727 H 457.842 0.217186 3.22069 0
M  V30 4728 H 456.894 2.59666 2.77989 0
M  V30 4729 H 458.206 3.24125 3.79137 0
M  V30 4730 H 457.36 1.93341 5.75069 0
M  V30 4731 H 456.099 1.18452 4.73097 0
M  V30 4732 H 455.104 3.44569 4.2843 0
M  V30 4733 H 456.329 4.19757 5.33836 0
M  V30 4734 H 454.275 2.12779 6.20533 0
M  V30 4735 H 454.192 3.83052 6.51772 0
M  V30 4736 H 455.46 2.88649 7.24087 0
M  V30 4737 N 459.689 -1.00246 1.21608 0
M  V30 4738 C 460.966 -1.71336 0.943568 0
M  V30 4739 C 461.346 -2.03972 -0.543943 0
M  V30 4740 O 460.694 -1.71545 -1.50946 0
M  V30 4741 C 460.904 -2.97094 1.83128 0
M  V30 4742 C 462.252 -3.70071 2.08165 0
M  V30 4743 O 463.276 -3.07081 1.80498 0
M  V30 4744 O 462.135 -4.83376 2.54971 0
M  V30 4745 H 459.229 -0.747386 0.354039 0
M  V30 4746 H 461.775 -1.05967 1.32549 0
M  V30 4747 H 460.547 -2.69407 2.83788 0
M  V30 4748 H 460.17 -3.70204 1.45034 0
M  V30 4749 N 461.167 -1.02423 -1.1978 0
M  V30 4750 C 462.097 -0.62157 -2.25075 0
M  V30 4751 C 463.078 0.367148 -1.6609 0
M  V30 4752 O 464.263 0.250892 -1.92573 0
M  V30 4753 C 461.393 0.0331826 -3.47284 0
M  V30 4754 C 460.347 -0.877323 -4.18912 0
M  V30 4755 C 459.673 -0.0879296 -5.34628 0
M  V30 4756 C 460.973 -2.18892 -4.74219 0
M  V30 4757 H 462.667 -1.50179 -2.59011 0
M  V30 4758 H 460.213 -0.723547 -1.24502 0
M  V30 4759 H 462.166 0.326488 -4.20133 0
M  V30 4760 H 460.89 0.948164 -3.12534 0
M  V30 4761 H 459.549 -1.15475 -3.47938 0
M  V30 4762 H 459.197 0.828941 -4.96123 0
M  V30 4763 H 458.897 -0.694359 -5.83483 0
M  V30 4764 H 460.421 0.198743 -6.10276 0
M  V30 4765 H 461.835 -1.95746 -5.38847 0
M  V30 4766 H 460.232 -2.74686 -5.33542 0
M  V30 4767 H 461.302 -2.84674 -3.92541 0
M  V30 4768 N 462.645 1.35699 -0.801477 0
M  V30 4769 C 463.595 2.2728 -0.181073 0
M  V30 4770 C 464.579 1.47533 0.642098 0
M  V30 4771 O 465.771 1.69785 0.500193 0
M  V30 4772 C 462.9 3.36626 0.673612 0
M  V30 4773 C 461.986 4.23802 -0.159008 0
M  V30 4774 N 462.377 4.90879 -1.2195 0
M  V30 4775 C 460.675 4.45959 0.0602005 0
M  V30 4776 C 461.376 5.5546 -1.72738 0
M  V30 4777 N 460.352 5.33663 -1.03465 0
M  V30 4778 H 464.154 2.76632 -0.992582 0
M  V30 4779 H 461.668 1.49166 -0.642127 0
M  V30 4780 H 463.665 4.01179 1.13408 0
M  V30 4781 H 462.325 2.88828 1.48353 0
M  V30 4782 H 463.336 4.92497 -1.60209 0
M  V30 4783 H 460.013 4.08969 0.839664 0
M  V30 4784 H 461.403 6.18991 -2.61342 0
M  V30 4785 N 464.123 0.554532 1.47522 0
M  V30 4786 C 465.37 0.029479 2.02479 0
M  V30 4787 C 465.698 -1.31929 1.42916 0
M  V30 4788 O 464.953 -1.87112 0.573385 0
M  V30 4789 C 465.252 -0.115927 3.57212 0
M  V30 4790 C 464.918 1.16161 4.3568 0
M  V30 4791 C 463.58 1.51168 4.56839 0
M  V30 4792 C 465.932 2.0083 4.80954 0
M  V30 4793 C 463.26 2.70696 5.2052 0
M  V30 4794 C 465.612 3.19559 5.45953 0
M  V30 4795 C 464.276 3.54882 5.65345 0
M  V30 4796 H 463.546 0.0107871 0.740921 0
M  V30 4797 H 466.193 0.725506 1.77225 0
M  V30 4798 H 464.498 -0.894902 3.81443 0
M  V30 4799 H 466.195 -0.53749 3.97381 0
M  V30 4800 H 462.785 0.879026 4.19489 0
M  V30 4801 H 466.969 1.75093 4.64388 0
M  V30 4802 H 462.225 2.98236 5.33728 0
M  V30 4803 H 466.399 3.85456 5.79997 0
M  V30 4804 H 464.026 4.47596 6.1446 0
M  V30 4805 N 465.601 -1.54893 0.290851 0
M  V30 4806 C 466.531 -2.26103 -0.583084 0
M  V30 4807 C 467.512 -1.25684 -1.14619 0
M  V30 4808 O 468.697 -1.54436 -1.17741 0
M  V30 4809 C 465.827 -2.99409 -1.75987 0
M  V30 4810 C 464.781 -4.0689 -1.32758 0
M  V30 4811 C 464.107 -4.67856 -2.58872 0
M  V30 4812 C 465.407 -5.20215 -0.46624 0
M  V30 4813 H 467.101 -2.99398 0.0108214 0
M  V30 4814 H 464.647 -1.43998 0.00664468 0
M  V30 4815 H 466.6 -3.47943 -2.37727 0
M  V30 4816 H 465.324 -2.23675 -2.37985 0
M  V30 4817 H 463.983 -3.59191 -0.733299 0
M  V30 4818 H 463.631 -3.88772 -3.19163 0
M  V30 4819 H 463.331 -5.40438 -2.30653 0
M  V30 4820 H 464.855 -5.19147 -3.21433 0
M  V30 4821 H 466.269 -5.64704 -0.989047 0
M  V30 4822 H 464.666 -5.99455 -0.27826 0
M  V30 4823 H 465.736 -4.82198 0.511173 0
M  V30 4824 N 467.08 -0.0183926 -1.57589 0
M  V30 4825 C 467.99 0.982943 -2.13015 0
M  V30 4826 C 469.006 1.36443 -1.07979 0
M  V30 4827 O 470.182 1.44802 -1.3998 0
M  V30 4828 C 467.247 2.25024 -2.63752 0
M  V30 4829 C 466.308 1.93018 -3.83461 0
M  V30 4830 C 465.541 3.13706 -4.31769 0
M  V30 4831 O 465.764 4.2601 -3.79305 0
M  V30 4832 O 464.698 2.96629 -5.23732 0
M  V30 4833 H 468.524 0.541709 -2.9883 0
M  V30 4834 H 466.109 0.201565 -1.48034 0
M  V30 4835 H 467.991 2.99441 -2.96502 0
M  V30 4836 H 466.666 2.68349 -1.81026 0
M  V30 4837 H 465.573 1.16019 -3.55655 0
M  V30 4838 H 466.906 1.54516 -4.67317 0
M  V30 4839 N 468.558 1.5553 0.254621 0
M  V30 4840 C 469.468 1.92789 1.33677 0
M  V30 4841 C 470.484 0.827356 1.53071 0
M  V30 4842 O 471.66 1.12807 1.66843 0
M  V30 4843 C 468.725 2.20827 2.67275 0
M  V30 4844 C 467.786 3.4427 2.5647 0
M  V30 4845 C 467.019 3.70961 3.83697 0
M  V30 4846 O 467.242 2.99852 4.85227 0
M  V30 4847 O 466.176 4.64491 3.82794 0
M  V30 4848 H 470.002 2.84945 1.05071 0
M  V30 4849 H 467.587 1.42312 0.454723 0
M  V30 4850 H 469.469 2.40204 3.46237 0
M  V30 4851 H 468.144 1.31851 2.9563 0
M  V30 4852 H 467.051 3.30209 1.75821 0
M  V30 4853 H 468.384 4.33524 2.33062 0
M  V30 4854 N 470.036 -0.519951 1.48776 0
M  V30 4855 C 470.966 -1.63253 1.66945 0
M  V30 4856 C 471.947 -1.62014 0.518224 0
M  V30 4857 O 473.132 -1.79053 0.751919 0
M  V30 4858 C 470.262 -3.0181 1.71836 0
M  V30 4859 C 469.216 -3.17911 2.8656 0
M  V30 4860 C 468.542 -4.5763 2.76548 0
M  V30 4861 C 469.842 -2.99729 4.27738 0
M  V30 4862 H 471.536 -1.48302 2.6009 0
M  V30 4863 H 469.082 -0.712026 1.25165 0
M  V30 4864 H 471.035 -3.79525 1.83135 0
M  V30 4865 H 469.759 -3.17806 0.752775 0
M  V30 4866 H 468.418 -2.42616 2.74833 0
M  V30 4867 H 468.066 -4.70476 1.77937 0
M  V30 4868 H 467.766 -4.69346 3.53536 0
M  V30 4869 H 469.29 -5.37431 2.89828 0
M  V30 4870 H 470.704 -3.67228 4.40246 0
M  V30 4871 H 469.101 -3.22932 5.05801 0
M  V30 4872 H 470.171 -1.96047 4.43502 0
M  V30 4873 N 471.514 -1.37532 -0.769588 0
M  V30 4874 C 472.446 -1.29347 -1.89214 0
M  V30 4875 C 473.459 -0.208842 -1.61455 0
M  V30 4876 O 474.648 -0.465158 -1.72333 0
M  V30 4877 C 471.748 -0.977649 -3.24492 0
M  V30 4878 C 470.921 -2.16817 -3.7988 0
M  V30 4879 C 469.98 -1.82229 -4.93639 0
M  V30 4880 O 469.006 -2.54548 -5.09111 0
M  V30 4881 N 470.208 -0.767696 -5.75401 0
M  V30 4882 H 472.973 -2.26073 -1.96751 0
M  V30 4883 H 470.534 -1.31185 -0.948795 0
M  V30 4884 H 472.526 -0.727065 -3.98115 0
M  V30 4885 H 471.096 -0.0988777 -3.12444 0
M  V30 4886 H 470.316 -2.58038 -2.9801 0
M  V30 4887 H 471.604 -2.96308 -4.13617 0
M  V30 4888 H 471.002 -0.167626 -5.65452 0
M  V30 4889 H 469.559 -0.576973 -6.49241 0
M  V30 4890 N 472.992 0.995999 -1.22138 0
M  V30 4891 C 473.922 2.10387 -1.01289 0
M  V30 4892 C 474.903 1.69975 0.0651454 0
M  V30 4893 O 476.088 1.9396 -0.0964628 0
M  V30 4894 C 473.218 3.42312 -0.586517 0
M  V30 4895 C 472.172 3.96558 -1.61014 0
M  V30 4896 C 471.498 5.24494 -1.0397 0
M  V30 4897 C 472.798 4.27595 -2.99933 0
M  V30 4898 H 474.492 2.28086 -1.93951 0
M  V30 4899 H 472.038 1.09607 -0.933928 0
M  V30 4900 H 473.991 4.19223 -0.427793 0
M  V30 4901 H 472.715 3.24431 0.375761 0
M  V30 4902 H 471.374 3.21776 -1.75658 0
M  V30 4903 H 471.022 5.02953 -0.0688703 0
M  V30 4904 H 470.722 5.61755 -1.72352 0
M  V30 4905 H 472.246 6.04042 -0.892494 0
M  V30 4906 H 473.66 4.95315 -2.8868 0
M  V30 4907 H 472.057 4.76021 -3.6541 0
M  V30 4908 H 473.127 3.35498 -3.50099 0
M  V30 4909 N 474.47 1.03057 1.19235 0
M  V30 4910 C 475.718 0.726581 1.88587 0
M  V30 4911 C 476.039 -0.747227 1.80115 0
M  V30 4912 O 475.309 -1.53849 1.21274 0
M  V30 4913 H 473.889 0.265768 0.698124 0
M  V30 4914 H 476.551 1.30516 1.44746 0
M  V30 4915 H 475.647 1.0224 2.94879 0
M  V30 4916 N 475.948 -1.35272 0.808662 0
M  V30 4917 C 476.898 -2.27181 0.193124 0
M  V30 4918 C 477.882 -1.47871 -0.634265 0
M  V30 4919 O 479.074 -1.70048 -0.491182 0
M  V30 4920 C 476.203 -3.36979 -0.655751 0
M  V30 4921 C 475.289 -4.23712 0.181481 0
M  V30 4922 N 475.68 -4.90225 1.24551 0
M  V30 4923 C 473.978 -4.45985 -0.0365493 0
M  V30 4924 C 474.679 -5.54537 1.75682 0
M  V30 4925 N 473.655 -5.33107 1.06294 0
M  V30 4926 H 477.457 -2.76101 1.00724 0
M  V30 4927 H 474.971 -1.48823 0.650029 0
M  V30 4928 H 476.968 -4.01774 -1.11279 0
M  V30 4929 H 475.628 -2.89611 -1.46819 0
M  V30 4930 H 476.639 -4.91641 1.62818 0
M  V30 4931 H 473.316 -4.09409 -0.817964 0
M  V30 4932 H 474.706 -6.17597 2.64621 0
M  V30 4933 N 477.426 -0.562348 -1.47226 0
M  V30 4934 C 478.374 0.195476 -2.31777 0
M  V30 4935 C 479.368 0.90433 -1.43242 0
M  V30 4936 O 480.574 0.825031 -1.59979 0
M  V30 4937 H 476.949 0.0819095 -0.747526 0
M  V30 4938 H 478.92 -0.536753 -2.93533 0
M  V30 4939 C 477.669 1.20902 -3.26003 0
M  V30 4940 H 476.992 0.672997 -3.94095 0
M  V30 4941 H 478.432 1.71006 -3.87986 0
M  V30 4942 C 476.891 2.25955 -2.49891 0
M  V30 4943 O 477.421 3.32969 -2.2471 0
M  V30 4944 N 475.627 2.00019 -2.1081 0
M  V30 4945 H 475.174 1.13006 -2.31489 0
M  V30 4946 H 475.132 2.70523 -1.60201 0
M  V30 4947 N 478.904 1.54736 -0.299062 0
M  V30 4948 C 480.32 1.59507 0.0543849 0
M  V30 4949 C 480.52 1.31606 1.52585 0
M  V30 4950 O 479.576 1.08853 2.27832 0
M  V30 4951 C 480.889 2.98751 -0.34181 0
M  V30 4952 C 482.437 3.1165 -0.290414 0
M  V30 4953 C 482.912 4.53199 -0.661402 0
M  V30 4954 N 484.403 4.59114 -0.613863 0
M  V30 4955 C 485.138 5.66709 -0.873417 0
M  V30 4956 N 484.634 6.82349 -1.19884 0
M  V30 4957 N 486.427 5.56369 -0.800608 0
M  V30 4958 H 478.578 1.71133 -1.25806 0
M  V30 4959 H 480.841 0.799186 -0.509908 0
M  V30 4960 H 480.547 3.24085 -1.36608 0
M  V30 4961 H 480.421 3.75961 0.305508 0
M  V30 4962 H 482.808 2.86066 0.724605 0
M  V30 4963 H 482.889 2.366 -0.972327 0
M  V30 4964 H 482.533 4.79513 -1.67422 0
M  V30 4965 H 482.463 5.26583 0.0425612 0
M  V30 4966 H 484.954 3.76053 -0.3732 0
M  V30 4967 H 485.267 7.60326 -1.38291 0
M  V30 4968 H 483.612 6.83906 -1.23685 0
M  V30 4969 H 486.803 4.64904 -0.546045 0
M  V30 4970 H 486.976 6.40139 -1.00626 0
M  V30 4971 N 480.382 0.0267497 1.57577 0
M  V30 4972 C 481.631 -0.651736 1.9088 0
M  V30 4973 C 481.944 -1.73427 0.904576 0
M  V30 4974 O 483.15 -2.46923 1.12877 0
M  V30 4975 C 481.606 -1.21048 3.38933 0
M  V30 4976 C 481.214 -0.161362 4.47709 0
M  V30 4977 C 482.958 -1.86562 3.81307 0
M  V30 4978 C 480.865 -0.731611 5.86857 0
M  V30 4979 H 479.795 -0.247198 0.712326 0
M  V30 4980 H 482.446 0.0916641 1.83271 0
M  V30 4981 H 480.828 -2.00542 3.41466 0
M  V30 4982 H 482.002 0.61094 4.56732 0
M  V30 4983 H 480.317 0.394877 4.14523 0
M  V30 4984 H 482.914 -2.30178 4.8262 0
M  V30 4985 H 483.257 -2.70735 3.16241 0
M  V30 4986 H 483.79 -1.13762 3.81186 0
M  V30 4987 H 480.529 0.0719329 6.55461 0
M  V30 4988 H 480.049 -1.47245 5.81445 0
M  V30 4989 H 481.728 -1.22208 6.35354 0
M  V30 4990 N 481.861 -1.55662 -0.24637 0
M  V30 4991 C 483.277 -1.48098 -0.594907 0
M  V30 4992 C 483.477 -0.717044 -1.8831 0
M  V30 4993 O 482.533 -0.246618 -2.51293 0
M  V30 4994 C 483.846 -2.92507 -0.697146 0
M  V30 4995 C 485.394 -3.02881 -0.789436 0
M  V30 4996 C 485.869 -4.48598 -0.923232 0
M  V30 4997 N 487.36 -4.52538 -0.988088 0
M  V30 4998 C 488.095 -5.62536 -1.11089 0
M  V30 4999 N 487.591 -6.82342 -1.19919 0
M  V30 5000 N 489.384 -5.50334 -1.14408 0
M  V30 5001 H 481.535 -2.0377 0.599278 0
M  V30 5002 H 483.798 -0.925145 0.20691 0
M  V30 5003 H 483.504 -3.51242 0.179396 0
M  V30 5004 H 483.378 -3.43024 -1.5689 0
M  V30 5005 H 485.765 -2.44226 -1.65643 0
M  V30 5006 H 485.846 -2.55574 0.107482 0
M  V30 5007 H 485.49 -5.07864 -0.0607927 0
M  V30 5008 H 485.42 -4.93587 -1.8352 0
M  V30 5009 H 487.911 -3.66248 -0.931167 0
M  V30 5010 H 488.224 -7.61924 -1.29197 0
M  V30 5011 H 486.569 -6.85102 -1.16876 0
M  V30 5012 H 489.76 -4.5567 -1.07158 0
M  V30 5013 H 489.933 -6.36096 -1.23634 0
M  V30 5014 N 483.339 0.512053 -1.4905 0
M  V30 5015 C 484.271 1.63121 -1.6101 0
M  V30 5016 C 485.284 1.55145 -0.493352 0
M  V30 5017 O 486.473 1.61278 -0.764955 0
M  V30 5018 C 483.573 3.01863 -1.54052 0
M  V30 5019 C 482.746 3.35138 -2.81072 0
M  V30 5020 C 481.805 4.5324 -2.67319 0
M  V30 5021 O 480.831 4.55571 -3.41238 0
M  V30 5022 N 482.033 5.52495 -1.78127 0
M  V30 5023 H 484.798 1.53292 -2.5753 0
M  V30 5024 H 482.359 0.699706 -1.45999 0
M  V30 5025 H 484.351 3.78774 -1.42521 0
M  V30 5026 H 482.921 3.05675 -0.654345 0
M  V30 5027 H 482.141 2.4723 -3.07036 0
M  V30 5028 H 483.429 3.54162 -3.65304 0
M  V30 5029 H 482.827 5.53403 -1.17308 0
M  V30 5030 H 481.384 6.28553 -1.72525 0
M  V30 5031 N 484.817 1.37938 0.762283 0
M  V30 5032 C 485.747 1.37176 1.88958 0
M  V30 5033 C 486.728 0.238945 1.68413 0
M  V30 5034 O 487.913 0.440726 1.89133 0
M  V30 5035 C 485.043 1.18742 3.2637 0
M  V30 5036 C 483.997 2.29136 3.61498 0
M  V30 5037 C 483.323 1.95816 4.97554 0
M  V30 5038 C 484.623 3.71363 3.6727 0
M  V30 5039 H 486.317 2.31509 1.89853 0
M  V30 5040 H 483.863 1.11438 0.912005 0
M  V30 5041 H 485.816 1.16837 4.04879 0
M  V30 5042 H 484.54 0.208683 3.25933 0
M  V30 5043 H 483.199 2.30213 2.85303 0
M  V30 5044 H 482.847 0.964475 4.93667 0
M  V30 5045 H 482.547 2.69745 5.22026 0
M  V30 5046 H 484.071 1.95513 5.78452 0
M  V30 5047 H 485.485 3.72364 4.35911 0
M  V30 5048 H 483.882 4.44425 4.03245 0
M  V30 5049 H 484.952 4.04305 2.67704 0
M  V30 5050 N 486.295 -0.989507 1.22664 0
M  V30 5051 C 487.258 -2.06183 1.00106 0
M  V30 5052 C 488.258 -1.60765 -0.0337726 0
M  V30 5053 O 489.448 -1.72989 0.205072 0
M  V30 5054 C 486.58 -3.37021 0.51279 0
M  V30 5055 H 487.773 -2.27629 1.95256 0
M  V30 5056 H 485.326 -1.16158 1.0458 0
M  V30 5057 H 486.061 -3.21261 -0.442917 0
M  V30 5058 H 485.846 -3.71323 1.25942 0
M  V30 5059 H 487.336 -4.1591 0.375315 0
M  V30 5060 N 487.773 -1.03688 -1.18687 0
M  V30 5061 C 488.683 -0.634908 -2.25845 0
M  V30 5062 C 489.699 0.337065 -1.70704 0
M  V30 5063 O 490.875 0.192943 -2.00474 0
M  V30 5064 C 487.94 -0.000180054 -3.467 0
M  V30 5065 C 487.001 -1.02067 -4.1699 0
M  V30 5066 C 486.234 -0.41614 -5.32075 0
M  V30 5067 O 486.457 0.778712 -5.65059 0
M  V30 5068 O 485.391 -1.14296 -5.90948 0
M  V30 5069 H 489.217 -1.52757 -2.62486 0
M  V30 5070 H 486.802 -0.807533 -1.25695 0
M  V30 5071 H 488.684 0.353342 -4.19916 0
M  V30 5072 H 487.359 0.866367 -3.11891 0
M  V30 5073 H 486.266 -1.42592 -3.45859 0
M  V30 5074 H 487.599 -1.85786 -4.5579 0
M  V30 5075 N 489.251 1.34841 -0.815825 0
M  V30 5076 C 490.667 1.51543 -0.500697 0
M  V30 5077 C 490.867 1.76261 0.976444 0
M  V30 5078 O 489.923 1.8094 1.76117 0
M  V30 5079 C 491.236 2.68487 -1.35407 0
M  V30 5080 C 492.784 2.82368 -1.35046 0
M  V30 5081 C 493.259 4.02347 -2.18816 0
M  V30 5082 N 494.75 4.09542 -2.16402 0
M  V30 5083 C 495.485 5.01517 -2.77971 0
M  V30 5084 N 494.981 5.98763 -3.48503 0
M  V30 5085 N 496.774 4.94334 -2.67563 0
M  V30 5086 H 488.925 1.17055 -1.77234 0
M  V30 5087 H 491.188 0.573481 -0.754866 0
M  V30 5088 H 490.894 2.56829 -2.40274 0
M  V30 5089 H 490.768 3.63321 -1.01377 0
M  V30 5090 H 493.155 2.93471 -0.309604 0
M  V30 5091 H 493.236 1.88363 -1.73069 0
M  V30 5092 H 492.88 3.92004 -3.22948 0
M  V30 5093 H 492.81 4.95551 -1.78148 0
M  V30 5094 H 495.301 3.39932 -1.65091 0
M  V30 5095 H 495.614 6.6556 -3.92747 0
M  V30 5096 H 493.959 5.98909 -3.52609 0
M  V30 5097 H 497.15 4.1732 -2.12041 0
M  V30 5098 H 497.323 5.6582 -3.15834 0
M  V30 5099 N 490.729 0.570148 1.46925 0
M  V30 5100 C 491.954 0.0542592 2.07329 0
M  V30 5101 C 492.379 -1.23582 1.41806 0
M  V30 5102 O 491.737 -1.74341 0.497479 0
M  V30 5103 C 491.785 -0.111175 3.60429 0
M  V30 5104 O 490.889 -1.17071 3.95434 0
M  V30 5105 H 490.23 0.0571425 0.661537 0
M  V30 5106 H 492.76 0.789516 1.88753 0
M  V30 5107 H 492.77 -0.321315 4.06733 0
M  V30 5108 H 491.445 0.831012 4.07513 0
M  V30 5109 H 490.022 -0.940029 3.60857 0
M  V30 5110 N 492.207 -1.54576 0.307264 0
M  V30 5111 C 493.454 -2.00263 -0.300167 0
M  V30 5112 C 493.782 -1.19561 -1.53413 0
M  V30 5113 O 493.037 -0.261487 -1.93945 0
M  V30 5114 C 493.336 -3.50572 -0.695253 0
M  V30 5115 C 493.002 -4.48771 0.437679 0
M  V30 5116 C 491.664 -4.7534 0.748681 0
M  V30 5117 C 494.016 -5.0721 1.19949 0
M  V30 5118 C 491.344 -5.5761 1.8245 0
M  V30 5119 C 493.696 -5.90651 2.26527 0
M  V30 5120 C 492.36 -6.15528 2.58227 0
M  V30 5121 H 491.63 -0.732814 -0.109839 0
M  V30 5122 H 494.277 -1.86664 0.427661 0
M  V30 5123 H 492.582 -3.61814 -1.50326 0
M  V30 5124 H 494.279 -3.83352 -1.17653 0
M  V30 5125 H 490.869 -4.282 0.185187 0
M  V30 5126 H 495.053 -4.86679 0.972474 0
M  V30 5127 H 490.309 -5.75121 2.07476 0
M  V30 5128 H 494.483 -6.34957 2.86011 0
M  V30 5129 H 492.11 -6.79066 3.4172 0
M  V30 5130 N 493.685 -0.035106 -1.57561 0
M  V30 5131 C 494.595 0.960295 -2.14046 0
M  V30 5132 C 495.611 1.3529 -1.0942 0
M  V30 5133 O 496.787 1.43309 -1.41508 0
M  V30 5134 C 493.852 2.22214 -2.66124 0
M  V30 5135 C 492.913 1.8894 -3.85487 0
M  V30 5136 C 492.146 3.09109 -4.35072 0
M  V30 5137 O 492.369 4.21963 -3.83802 0
M  V30 5138 O 491.303 2.91058 -5.26848 0
M  V30 5139 H 495.129 0.509983 -2.99387 0
M  V30 5140 H 492.714 0.185853 -1.48239 0
M  V30 5141 H 494.596 2.96279 -2.99661 0
M  V30 5142 H 493.271 2.66414 -1.83862 0
M  V30 5143 H 492.178 1.12241 -3.56865 0
M  V30 5144 H 493.511 1.49551 -4.6893 0
M  V30 5145 N 495.163 1.55791 0.238111 0
M  V30 5146 C 496.411 1.77681 0.963001 0
M  V30 5147 C 496.732 0.600674 1.85518 0
M  V30 5148 O 496.002 -0.383182 1.92116 0
M  V30 5149 H 494.582 0.655315 0.358568 0
M  V30 5150 H 497.244 1.93239 0.253945 0
M  V30 5151 H 496.34 2.69177 1.57956 0
M  V30 5152 N 496.642 -0.504142 1.49319 0
M  V30 5153 C 497.572 -1.61473 1.68667 0
M  V30 5154 C 498.553 -1.61455 0.535378 0
M  V30 5155 O 499.738 -1.78245 0.770868 0
M  V30 5156 C 496.868 -2.99971 1.75028 0
M  V30 5157 C 495.822 -3.14854 2.89916 0
M  V30 5158 C 495.148 -4.54671 2.81387 0
M  V30 5159 C 496.448 -2.95176 4.30893 0
M  V30 5160 H 498.142 -1.45535 2.61648 0
M  V30 5161 H 495.688 -0.698711 1.25913 0
M  V30 5162 H 497.641 -3.77562 1.8715 0
M  V30 5163 H 496.365 -3.1699 0.786441 0
M  V30 5164 H 495.024 -2.39687 2.77391 0
M  V30 5165 H 494.672 -4.68562 1.82917 0
M  V30 5166 H 494.372 -4.6557 3.58494 0
M  V30 5167 H 495.896 -5.34327 2.95512 0
M  V30 5168 H 497.31 -3.62538 4.44116 0
M  V30 5169 H 495.707 -3.17549 5.09198 0
M  V30 5170 H 496.777 -1.91332 4.45556 0
M  V30 5171 N 498.12 -1.38341 -0.754957 0
M  V30 5172 C 499.368 -1.34208 -1.51105 0
M  V30 5173 C 499.689 0.0677634 -1.94882 0
M  V30 5174 O 498.959 1.01517 -1.67544 0
M  V30 5175 H 497.539 -0.493819 -0.560493 0
M  V30 5176 H 500.201 -1.73005 -0.897507 0
M  V30 5177 H 499.297 -1.99203 -2.4026 0
M  V30 5178 N 499.598 0.982988 -1.23187 0
M  V30 5179 C 500.53 2.07729 -0.968572 0
M  V30 5180 C 501.543 1.62702 0.0564821 0
M  V30 5181 O 502.732 1.77603 -0.178733 0
M  V30 5182 C 499.832 3.36071 -0.436974 0
M  V30 5183 C 499.005 4.10081 -1.52159 0
M  V30 5184 C 498.064 5.16701 -0.99532 0
M  V30 5185 O 497.09 5.43727 -1.68373 0
M  V30 5186 N 498.292 5.80226 0.178192 0
M  V30 5187 H 501.057 2.30894 -1.9107 0
M  V30 5188 H 498.618 1.14949 -1.1401 0
M  V30 5189 H 500.61 4.04639 -0.0700051 0
M  V30 5190 H 499.18 3.09893 0.410509 0
M  V30 5191 H 498.4 3.36004 -2.06144 0
M  V30 5192 H 499.688 4.56295 -2.25105 0
M  V30 5193 H 499.086 5.60651 0.754096 0
M  V30 5194 H 497.643 6.49982 0.486449 0
M  V30 5195 N 501.076 1.04316 1.18135 0
M  V30 5196 C 502.006 0.657299 2.24058 0
M  V30 5197 C 502.987 -0.340678 1.66654 0
M  V30 5198 O 504.172 -0.220223 1.92947 0
M  V30 5199 C 501.302 0.0220715 3.47293 0
M  V30 5200 C 500.256 0.943857 4.17463 0
M  V30 5201 C 499.582 0.172973 5.3442 0
M  V30 5202 C 500.882 2.26409 4.70677 0
M  V30 5203 H 502.576 1.5428 2.56589 0
M  V30 5204 H 500.122 0.743263 1.23335 0
M  V30 5205 H 502.075 -0.259607 4.206 0
M  V30 5206 H 500.799 -0.898323 3.14003 0
M  V30 5207 H 499.458 1.20996 3.46057 0
M  V30 5208 H 499.106 -0.749907 4.97379 0
M  V30 5209 H 498.806 0.787098 5.82304 0
M  V30 5210 H 500.33 -0.101628 6.10515 0
M  V30 5211 H 501.744 2.04294 5.35665 0
M  V30 5212 H 500.141 2.8314 5.29105 0
M  V30 5213 H 501.211 2.90883 3.87962 0
M  V30 5214 N 502.554 -1.34406 0.822964 0
M  V30 5215 C 503.464 -2.33298 0.246838 0
M  V30 5216 C 504.48 -1.62625 -0.618797 0
M  V30 5217 O 505.656 -1.94391 -0.526685 0
M  V30 5218 C 502.721 -3.41785 -0.581731 0
M  V30 5219 C 501.782 -4.28206 0.306309 0
M  V30 5220 C 501.015 -5.31512 -0.48281 0
M  V30 5221 O 501.238 -5.43973 -1.71607 0
M  V30 5222 O 500.172 -6.01749 0.134884 0
M  V30 5223 H 503.998 -2.84401 1.06534 0
M  V30 5224 H 501.583 -1.37466 0.585108 0
M  V30 5225 H 503.465 -4.08028 -1.05313 0
M  V30 5226 H 502.14 -2.92925 -1.37756 0
M  V30 5227 H 501.047 -3.64885 0.825199 0
M  V30 5228 H 502.38 -4.80507 1.06649 0
M  V30 5229 N 504.032 -0.577932 -1.46621 0
M  V30 5230 C 505.278 -0.0617793 -2.02706 0
M  V30 5231 C 505.611 1.29294 -1.44903 0
M  V30 5232 O 504.886 1.8461 -0.61232 0
M  V30 5233 C 505.169 0.00911824 -3.60099 0
M  V30 5234 C 505.022 -1.37416 -4.28295 0
M  V30 5235 C 506.341 0.712159 -4.343 0
M  V30 5236 H 503.46 -0.0239246 -0.736612 0
M  V30 5237 H 506.102 -0.744211 -1.74818 0
M  V30 5238 H 504.252 0.590292 -3.83989 0
M  V30 5239 H 505.924 -2.00013 -4.15683 0
M  V30 5240 H 504.167 -1.94319 -3.87843 0
M  V30 5241 H 504.838 -1.27707 -5.37024 0
M  V30 5242 H 507.314 0.218486 -4.15526 0
M  V30 5243 H 506.19 0.730782 -5.44014 0
M  V30 5244 H 506.451 1.77251 -4.05012 0
M  V30 5245 N 505.51 1.54411 -0.315457 0
M  V30 5246 C 506.44 2.27002 0.547039 0
M  V30 5247 C 507.421 1.27492 1.12605 0
M  V30 5248 O 508.606 1.5629 1.15269 0
M  V30 5249 C 505.736 3.02171 1.71201 0
M  V30 5250 C 504.69 4.0895 1.26268 0
M  V30 5251 C 504.016 4.71915 2.51396 0
M  V30 5252 C 505.316 5.20891 0.383419 0
M  V30 5253 H 507.01 2.99343 -0.0584517 0
M  V30 5254 H 504.556 1.4397 -0.0295527 0
M  V30 5255 H 506.509 3.51681 2.32161 0
M  V30 5256 H 505.233 2.27433 2.34397 0
M  V30 5257 H 503.892 3.60312 0.676062 0
M  V30 5258 H 503.54 3.93801 3.12937 0
M  V30 5259 H 503.24 5.44039 2.22026 0
M  V30 5260 H 504.764 5.24195 3.13133 0
M  V30 5261 H 506.178 5.66206 0.899082 0
M  V30 5262 H 504.575 5.99821 0.182857 0
M  V30 5263 H 505.645 4.81324 -0.587821 0
M  V30 5264 N 506.988 0.0434614 1.5754 0
M  V30 5265 C 508.216 -0.641835 1.96693 0
M  V30 5266 C 508.631 -1.64832 0.920652 0
M  V30 5267 O 507.988 -1.82247 -0.095993 0
M  V30 5268 C 508.039 -1.33557 3.35924 0
M  V30 5269 O 507.76 -0.369403 4.3654 0
M  V30 5270 C 509.261 -2.11135 3.89791 0
M  V30 5271 H 506.481 -0.176013 0.647503 0
M  V30 5272 H 509.025 0.107478 2.04217 0
M  V30 5273 H 507.18 -2.03617 3.29574 0
M  V30 5274 H 507.594 -0.863674 5.1734 0
M  V30 5275 H 509.068 -2.55107 4.89514 0
M  V30 5276 H 509.545 -2.95634 3.24803 0
M  V30 5277 H 510.151 -1.46002 3.99454 0
M  V30 5278 N 508.466 -1.55915 -0.229846 0
M  V30 5279 C 509.396 -1.94754 -1.28815 0
M  V30 5280 C 510.377 -0.814657 -1.49323 0
M  V30 5281 O 511.562 -1.07631 -1.61645 0
M  V30 5282 C 508.692 -2.25705 -2.63959 0
M  V30 5283 C 507.646 -3.41406 -2.5812 0
M  V30 5284 C 506.972 -3.57941 -3.97218 0
M  V30 5285 C 508.272 -4.76616 -2.13623 0
M  V30 5286 H 509.966 -2.83404 -0.965547 0
M  V30 5287 H 507.512 -1.36353 -0.463028 0
M  V30 5288 H 509.465 -2.51467 -3.38146 0
M  V30 5289 H 508.189 -1.339 -2.9789 0
M  V30 5290 H 506.848 -3.1568 -1.86391 0
M  V30 5291 H 506.496 -2.63526 -4.28443 0
M  V30 5292 H 506.196 -4.35757 -3.94195 0
M  V30 5293 H 507.72 -3.86042 -4.73079 0
M  V30 5294 H 509.134 -5.01637 -2.77549 0
M  V30 5295 H 507.531 -5.57655 -2.21677 0
M  V30 5296 H 508.601 -4.7253 -1.08829 0
M  V30 5297 N 509.944 0.496216 -1.49584 0
M  V30 5298 C 511.221 1.25755 -1.49816 0
M  V30 5299 C 511.601 2.09859 -0.228572 0
M  V30 5300 O 510.949 2.14449 0.788908 0
M  V30 5301 C 511.159 2.11017 -2.7798 0
M  V30 5302 C 512.507 2.70047 -3.27658 0
M  V30 5303 O 513.531 2.21281 -2.79129 0
M  V30 5304 O 512.39 3.58834 -4.1219 0
M  V30 5305 H 509.484 0.569322 -0.599834 0
M  V30 5306 H 512.03 0.510094 -1.61852 0
M  V30 5307 H 510.802 1.48879 -3.61871 0
M  V30 5308 H 510.425 2.92947 -2.68827 0
M  V30 5309 N 511.423 1.38739 0.74761 0
M  V30 5310 C 512.373 1.32948 1.85226 0
M  V30 5311 C 513.357 0.212642 1.59489 0
M  V30 5312 O 514.549 0.449121 1.71207 0
M  V30 5313 C 511.678 1.16279 3.23008 0
M  V30 5314 C 510.764 2.32611 3.54617 0
M  V30 5315 N 511.155 3.58065 3.57244 0
M  V30 5316 C 509.453 2.25293 3.84914 0
M  V30 5317 C 510.154 4.34919 3.8629 0
M  V30 5318 N 509.13 3.64348 4.03425 0
M  V30 5319 H 512.932 2.27927 1.85544 0
M  V30 5320 H 510.446 1.32056 0.945253 0
M  V30 5321 H 512.443 1.10214 4.02068 0
M  V30 5322 H 511.103 0.222394 3.23937 0
M  V30 5323 H 512.114 3.91656 3.3886 0
M  V30 5324 H 508.791 1.39446 3.93524 0
M  V30 5325 H 510.181 5.43605 3.94896 0
M  V30 5326 N 512.901 -0.976442 1.23707 0
M  V30 5327 C 513.849 -2.09078 1.01927 0
M  V30 5328 C 514.843 -1.69345 -0.0430193 0
M  V30 5329 O 516.049 -1.79659 0.110814 0
M  V30 5330 H 512.424 -0.68398 0.312531 0
M  V30 5331 H 514.395 -2.24614 1.96447 0
M  V30 5332 C 513.144 -3.41919 0.631385 0
M  V30 5333 H 512.467 -3.72946 1.44053 0
M  V30 5334 H 513.907 -4.20817 0.518532 0
M  V30 5335 C 512.366 -3.30357 -0.660723 0
M  V30 5336 O 512.896 -3.63542 -1.70881 0
M  V30 5337 N 511.102 -2.83507 -0.638139 0
M  V30 5338 H 510.649 -2.567 0.215108 0
M  V30 5339 H 510.607 -2.76153 -1.50289 0
M  V30 5340 N 514.379 -1.04941 -1.1758 0
M  V30 5341 C 515.311 -0.606174 -2.21039 0
M  V30 5342 C 516.324 0.328763 -1.59446 0
M  V30 5343 O 517.513 0.121895 -1.78083 0
M  V30 5344 C 514.613 0.133294 -3.38638 0
M  V30 5345 C 513.786 -0.811711 -4.29802 0
M  V30 5346 C 512.845 -0.113958 -5.26077 0
M  V30 5347 O 511.871 -0.747237 -5.64274 0
M  V30 5348 N 513.073 1.14953 -5.69004 0
M  V30 5349 H 515.838 -1.49606 -2.59689 0
M  V30 5350 H 513.399 -0.930997 -1.32454 0
M  V30 5351 H 515.391 0.610144 -4.00074 0
M  V30 5352 H 513.961 0.924816 -2.98607 0
M  V30 5353 H 513.181 -1.46824 -3.65837 0
M  V30 5354 H 514.469 -1.45326 -4.87604 0
M  V30 5355 H 513.867 1.68441 -5.40041 0
M  V30 5356 H 512.424 1.57049 -6.32597 0
M  V30 5357 N 515.857 1.33968 -0.830081 0
M  V30 5358 C 516.787 2.31911 -0.271911 0
M  V30 5359 C 517.768 1.58571 0.61556 0
M  V30 5360 O 518.953 1.86514 0.540946 0
M  V30 5361 C 516.083 3.42737 0.561146 0
M  V30 5362 C 515.037 4.27383 -0.229789 0
M  V30 5363 C 514.363 5.29742 0.726463 0
M  V30 5364 C 515.663 5.02 -1.44197 0
M  V30 5365 H 517.357 2.78844 -1.09025 0
M  V30 5366 H 514.903 1.34061 -0.52571 0
M  V30 5367 H 516.856 4.10276 0.961867 0
M  V30 5368 H 515.58 2.94471 1.41261 0
M  V30 5369 H 514.239 3.61456 -0.611964 0
M  V30 5370 H 513.887 4.77736 1.57408 0
M  V30 5371 H 513.587 5.87255 0.20142 0
M  V30 5372 H 515.111 6.00149 1.12489 0
M  V30 5373 H 516.525 5.62355 -1.11488 0
M  V30 5374 H 514.922 5.69122 -1.90317 0
M  V30 5375 H 515.992 4.31281 -2.2164 0
M  V30 5376 N 517.335 0.585699 1.46312 0
M  V30 5377 C 518.267 -0.183687 2.28463 0
M  V30 5378 C 519.28 -0.85264 1.38686 0
M  V30 5379 O 520.469 -0.721701 1.6326 0
M  V30 5380 C 517.569 -1.27977 3.13808 0
M  V30 5381 C 516.742 -0.702164 4.31727 0
M  V30 5382 C 515.801 -1.68633 4.98447 0
M  V30 5383 O 514.827 -1.22121 5.55945 0
M  V30 5384 N 516.029 -3.02047 4.95729 0
M  V30 5385 H 518.794 0.521127 2.95134 0
M  V30 5386 H 516.355 0.423673 1.56258 0
M  V30 5387 H 518.347 -1.9375 3.55307 0
M  V30 5388 H 516.917 -1.8874 2.4919 0
M  V30 5389 H 516.137 0.1331 3.93975 0
M  V30 5390 H 517.425 -0.296101 5.07938 0
M  V30 5391 H 516.823 -3.42457 4.50266 0
M  V30 5392 H 515.38 -3.63301 5.41161 0
M  V30 5393 N 518.813 -1.54241 0.323641 0
M  V30 5394 C 519.723 -2.28033 -0.551205 0
M  V30 5395 C 520.739 -1.32388 -1.12913 0
M  V30 5396 O 521.915 -1.65403 -1.14908 0
M  V30 5397 C 518.98 -3.02382 -1.69606 0
M  V30 5398 C 518.041 -4.13612 -1.14993 0
M  V30 5399 C 517.274 -4.84407 -2.24022 0
M  V30 5400 O 517.497 -4.54716 -3.44368 0
M  V30 5401 O 516.431 -5.71312 -1.89436 0
M  V30 5402 H 520.257 -3.03662 0.048066 0
M  V30 5403 H 517.842 -1.49133 0.0893289 0
M  V30 5404 H 519.724 -3.48941 -2.36259 0
M  V30 5405 H 518.399 -2.29628 -2.28151 0
M  V30 5406 H 517.306 -3.71402 -0.448484 0
M  V30 5407 H 518.639 -4.8841 -0.609608 0
M  V30 5408 N 520.291 -0.0518155 -1.57515 0
M  V30 5409 C 521.537 0.622745 -1.93002 0
M  V30 5410 C 521.87 1.70456 -0.930499 0
M  V30 5411 O 521.145 1.94452 0.0434086 0
M  V30 5412 C 521.428 1.21824 -3.38867 0
M  V30 5413 C 521.281 0.144434 -4.49568 0
M  V30 5414 C 522.6 2.12968 -3.8514 0
M  V30 5415 H 519.719 0.22491 -0.701844 0
M  V30 5416 H 522.361 -0.113711 -1.89659 0
M  V30 5417 H 520.511 1.8459 -3.41846 0
M  V30 5418 H 522.183 -0.48753 -4.58717 0
M  V30 5419 H 520.426 -0.527424 -4.30582 0
M  V30 5420 H 521.097 0.601127 -5.48717 0
M  V30 5421 H 523.573 1.60163 -3.8404 0
M  V30 5422 H 522.449 2.51578 -4.87852 0
M  V30 5423 H 522.71 3.03004 -3.21934 0
M  V30 5424 N 521.769 1.56035 0.221574 0
M  V30 5425 C 522.716 1.92413 1.27459 0
M  V30 5426 C 523.686 0.781323 1.46576 0
M  V30 5427 O 524.871 1.03721 1.60145 0
M  V30 5428 C 522.011 2.24617 2.61995 0
M  V30 5429 C 521.124 3.51831 2.50677 0
M  V30 5430 C 520.259 3.73482 3.77736 0
M  V30 5431 C 519.298 4.94211 3.6114 0
M  V30 5432 N 518.435 5.12252 4.80148 0
M  V30 5433 H 523.275 2.82203 0.957355 0
M  V30 5434 H 520.812 1.39676 0.461415 0
M  V30 5435 H 522.77 2.41298 3.40339 0
M  V30 5436 H 521.4 1.38 2.91815 0
M  V30 5437 H 520.452 3.43343 1.63767 0
M  V30 5438 H 521.764 4.40328 2.34334 0
M  V30 5439 H 520.918 3.9026 4.64523 0
M  V30 5440 H 519.657 2.83266 3.97003 0
M  V30 5441 H 518.662 4.77384 2.72736 0
M  V30 5442 H 519.887 5.85912 3.43343 0
M  V30 5443 H 517.833 4.24978 4.99729 0
M  V30 5444 H 517.75 5.94881 4.66532 0
M  V30 5445 H 519.018 5.33465 5.68362 0
M  V30 5446 N 523.247 -0.488276 1.49845 0
M  V30 5447 C 524.21 -1.57069 1.66919 0
M  V30 5448 C 525.21 -1.51445 0.540479 0
M  V30 5449 O 526.4 -1.5437 0.807188 0
M  V30 5450 C 523.532 -2.96718 1.67844 0
M  V30 5451 H 524.725 -1.43254 2.63474 0
M  V30 5452 H 522.278 -0.713435 1.39068 0
M  V30 5453 H 523.013 -3.15996 0.7292 0
M  V30 5454 H 522.798 -3.02208 2.49826 0
M  V30 5455 H 524.288 -3.75335 1.83066 0
M  V30 5456 N 524.725 -1.39134 -0.740242 0
M  V30 5457 C 525.973 -1.35803 -1.49673 0
M  V30 5458 C 526.294 0.0470897 -1.94943 0
M  V30 5459 O 525.564 0.997347 -1.68611 0
M  V30 5460 H 524.144 -0.499736 -0.555224 0
M  V30 5461 H 526.806 -1.73947 -0.879107 0
M  V30 5462 H 525.902 -2.0174 -2.38133 0
M  V30 5463 N 526.204 0.969867 -1.24223 0
M  V30 5464 C 527.167 2.04564 -1.03373 0
M  V30 5465 C 528.167 1.60798 0.00819206 0
M  V30 5466 O 529.357 1.72641 -0.232567 0
M  V30 5467 C 526.489 3.36163 -0.566343 0
M  V30 5468 H 527.682 2.24494 -1.98853 0
M  V30 5469 H 525.235 1.1448 -1.06415 0
M  V30 5470 H 525.97 3.21925 0.391751 0
M  V30 5471 H 525.755 3.69273 -1.31834 0
M  V30 5472 H 527.245 4.1526 -0.441435 0
M  V30 5473 N 527.682 1.05563 1.17022 0
M  V30 5474 C 528.929 0.767937 1.87374 0
M  V30 5475 C 529.257 -0.705224 1.81265 0
M  V30 5476 O 528.512 -1.5318 1.21796 0
M  V30 5477 C 528.811 1.19849 3.36706 0
M  V30 5478 C 528.477 2.6745 3.63017 0
M  V30 5479 C 527.139 3.0777 3.69907 0
M  V30 5480 C 529.491 3.62811 3.74189 0
M  V30 5481 C 526.819 4.42307 3.85463 0
M  V30 5482 C 529.171 4.97087 3.91264 0
M  V30 5483 C 527.835 5.37055 3.96394 0
M  V30 5484 H 527.105 0.281008 0.68565 0
M  V30 5485 H 529.752 1.32339 1.38415 0
M  V30 5486 H 528.057 0.562096 3.87747 0
M  V30 5487 H 529.754 0.953038 3.8951 0
M  V30 5488 H 526.344 2.35228 3.58282 0
M  V30 5489 H 530.528 3.32798 3.68183 0
M  V30 5490 H 525.784 4.72769 3.87684 0
M  V30 5491 H 529.958 5.70869 3.9885 0
M  V30 5492 H 527.585 6.41308 4.082 0
M  V30 5493 N 529.16 -1.33526 0.837174 0
M  V30 5494 C 530.09 -2.31764 0.284206 0
M  V30 5495 C 531.071 -1.58896 -0.607142 0
M  V30 5496 O 532.256 -1.86798 -0.531047 0
M  V30 5497 C 529.386 -3.43029 -0.542962 0
M  V30 5498 C 528.34 -4.27255 0.252451 0
M  V30 5499 C 527.666 -5.3012 -0.69836 0
M  V30 5500 C 528.966 -5.01229 1.46858 0
M  V30 5501 H 530.66 -2.78262 1.10502 0
M  V30 5502 H 528.206 -1.3378 0.532812 0
M  V30 5503 H 530.159 -4.1078 -0.940096 0
M  V30 5504 H 528.883 -2.95216 -1.39697 0
M  V30 5505 H 527.542 -3.61127 0.631124 0
M  V30 5506 H 527.19 -4.78564 -1.54872 0
M  V30 5507 H 526.89 -5.87353 -0.170274 0
M  V30 5508 H 528.414 -6.00737 -1.09305 0
M  V30 5509 H 529.828 -5.61756 1.14469 0
M  V30 5510 H 528.225 -5.68104 1.93333 0
M  V30 5511 H 529.295 -4.301 2.23924 0
M  V30 5512 N 530.638 -0.59345 -1.46 0
M  V30 5513 C 531.886 -0.082988 -2.0193 0
M  V30 5514 C 532.207 1.28569 -1.46612 0
M  V30 5515 O 531.477 1.84629 -0.654909 0
M  V30 5516 H 530.057 -0.0276882 -0.746487 0
M  V30 5517 H 532.719 -0.771657 -1.78973 0
M  V30 5518 H 531.815 -0.022079 -3.12092 0
M  V30 5519 N 532.116 1.54067 -0.331816 0
M  V30 5520 C 533.046 2.27569 0.522932 0
M  V30 5521 C 534.027 1.28679 1.11247 0
M  V30 5522 O 535.212 1.57504 1.13605 0
M  V30 5523 C 532.342 3.0397 1.67987 0
M  V30 5524 C 531.296 4.10267 1.21924 0
M  V30 5525 C 530.622 4.74555 2.46377 0
M  V30 5526 C 531.922 5.21268 0.32815 0
M  V30 5527 H 533.616 2.99264 -0.0901977 0
M  V30 5528 H 531.162 1.4393 -0.044821 0
M  V30 5529 H 533.115 3.54123 2.28418 0
M  V30 5530 H 531.839 2.29906 2.31971 0
M  V30 5531 H 530.498 3.61009 0.637809 0
M  V30 5532 H 530.146 3.97098 3.08743 0
M  V30 5533 H 529.846 5.46363 2.16243 0
M  V30 5534 H 531.37 5.27487 3.07555 0
M  V30 5535 H 532.784 5.67128 0.838978 0
M  V30 5536 H 531.181 5.99982 0.119228 0
M  V30 5537 H 532.251 4.80673 -0.638839 0
M  V30 5538 N 533.594 0.0601682 1.57485 0
M  V30 5539 C 534.822 -0.620937 1.97363 0
M  V30 5540 C 535.237 -1.63846 0.938082 0
M  V30 5541 O 534.594 -1.82339 -0.0766578 0
M  V30 5542 C 534.645 -1.29987 3.37321 0
M  V30 5543 O 534.366 -0.323081 4.36907 0
M  V30 5544 C 535.867 -2.06989 3.92008 0
M  V30 5545 H 533.087 -0.169135 0.649334 0
M  V30 5546 H 535.631 0.129132 2.04092 0
M  V30 5547 H 533.786 -2.0011 3.31715 0
M  V30 5548 H 534.2 -0.808754 5.18227 0
M  V30 5549 H 535.674 -2.49901 4.92192 0
M  V30 5550 H 536.151 -2.92173 3.2792 0
M  V30 5551 H 536.757 -1.41757 4.0098 0
M  V30 5552 N 535.072 -1.5615 -0.213296 0
M  V30 5553 C 536.02 -1.93953 -1.28394 0
M  V30 5554 C 537.014 -0.822592 -1.48087 0
M  V30 5555 O 538.22 -1.00748 -1.49164 0
M  V30 5556 H 534.595 -0.61648 -0.430646 0
M  V30 5557 H 536.566 -2.83275 -0.937977 0
M  V30 5558 C 535.315 -2.27969 -2.62537 0
M  V30 5559 H 534.638 -3.13432 -2.48194 0
M  V30 5560 H 536.078 -2.58297 -3.36242 0
M  V30 5561 C 534.537 -1.10775 -3.18167 0
M  V30 5562 O 535.067 -0.373201 -3.99963 0
M  V30 5563 N 533.273 -0.889377 -2.76656 0
M  V30 5564 H 532.82 -1.48843 -2.10246 0
M  V30 5565 H 532.778 -0.107 -3.14218 0
M  V30 5566 N 536.55 0.480323 -1.50102 0
M  V30 5567 C 537.796 1.23489 -1.60867 0
M  V30 5568 C 538.129 1.91809 -0.303827 0
M  V30 5569 O 537.404 1.81694 0.694092 0
M  V30 5570 C 537.687 2.28578 -2.78252 0
M  V30 5571 C 537.54 1.64624 -4.18592 0
M  V30 5572 C 538.859 3.2997 -2.91218 0
M  V30 5573 H 535.978 0.447605 -0.585507 0
M  V30 5574 H 538.62 0.530005 -1.82458 0
M  V30 5575 H 536.77 2.88697 -2.59974 0
M  V30 5576 H 538.442 1.08173 -4.48438 0
M  V30 5577 H 536.685 0.949645 -4.23278 0
M  V30 5578 H 537.356 2.40946 -4.96638 0
M  V30 5579 H 539.832 2.79864 -3.07921 0
M  V30 5580 H 538.708 4.00839 -3.74993 0
M  V30 5581 H 538.969 3.93541 -2.0144 0
M  V30 5582 N 538.028 1.39524 0.732853 0
M  V30 5583 C 538.991 1.38189 1.82857 0
M  V30 5584 C 539.991 0.278624 1.58368 0
M  V30 5585 O 541.181 0.536639 1.65728 0
M  V30 5586 C 538.313 1.15661 3.2068 0
M  V30 5587 H 539.506 2.35692 1.85444 0
M  V30 5588 H 537.059 1.2512 0.936728 0
M  V30 5589 H 537.794 0.188482 3.23752 0
M  V30 5590 H 537.579 1.95559 3.39852 0
M  V30 5591 H 539.069 1.17472 4.00737 0
M  V30 5592 N 539.506 -0.963266 1.24736 0
M  V30 5593 C 540.752 -1.70933 1.09131 0
M  V30 5594 C 541.085 -1.90676 -0.368273 0
M  V30 5595 O 540.36 -1.47147 -1.27193 0
M  V30 5596 C 540.643 -3.09744 1.83658 0
M  V30 5597 C 540.496 -2.97465 3.37394 0
M  V30 5598 C 541.815 -4.09483 1.61282 0
M  V30 5599 H 538.934 -0.620398 0.397838 0
M  V30 5600 H 541.576 -1.12028 1.53459 0
M  V30 5601 H 539.726 -3.60031 1.4598 0
M  V30 5602 H 541.398 -2.54571 3.84696 0
M  V30 5603 H 539.641 -2.33576 3.65547 0
M  V30 5604 H 540.312 -3.95822 3.84745 0
M  V30 5605 H 542.788 -3.68073 1.94066 0
M  V30 5606 H 541.664 -5.04666 2.15878 0
M  V30 5607 H 541.925 -4.38639 0.552102 0
M  V30 5608 N 540.985 -1.06182 -1.16461 0
M  V30 5609 C 541.918 -0.615859 -2.19733 0
M  V30 5610 C 542.896 0.360766 -1.58547 0
M  V30 5611 O 544.08 0.270009 -1.86556 0
M  V30 5612 C 541.207 0.097312 -3.3856 0
M  V30 5613 C 540.253 -0.835889 -4.18229 0
M  V30 5614 S 541.086 -2.33052 -4.82128 0
M  V30 5615 C 542.242 -1.62881 -6.04335 0
M  V30 5616 H 542.475 -1.49079 -2.57221 0
M  V30 5617 H 540.008 -0.874692 -1.27234 0
M  V30 5618 H 541.966 0.502563 -4.07412 0
M  V30 5619 H 540.627 0.948418 -2.99439 0
M  V30 5620 H 539.82 -0.283426 -5.03202 0
M  V30 5621 H 539.422 -1.18097 -3.54865 0
M  V30 5622 H 541.714 -0.933764 -6.71034 0
M  V30 5623 H 542.657 -2.45641 -6.64128 0
M  V30 5624 H 543.065 -1.11189 -5.53441 0
M  V30 5625 N 542.463 1.3308 -0.844243 0
M  V30 5626 C 543.411 2.31028 -0.269954 0
M  V30 5627 C 544.405 1.58381 0.600997 0
M  V30 5628 O 545.611 1.73203 0.48996 0
M  V30 5629 H 541.986 0.748866 -0.0685782 0
M  V30 5630 H 543.957 2.76967 -1.11049 0
M  V30 5631 C 542.706 3.43549 0.535676 0
M  V30 5632 H 542.029 3.99604 -0.125202 0
M  V30 5633 H 543.469 4.14267 0.903262 0
M  V30 5634 C 541.928 2.8988 1.71672 0
M  V30 5635 O 542.458 2.86511 2.81557 0
M  V30 5636 N 540.664 2.46416 1.54037 0
M  V30 5637 H 540.211 2.49356 0.64649 0
M  V30 5638 H 540.169 2.1086 2.33207 0
M  V30 5639 N 543.941 0.601185 1.45683 0
M  V30 5640 C 544.871 -0.108824 2.33246 0
M  V30 5641 C 545.852 -0.865223 1.46451 0
M  V30 5642 O 547.037 -0.83704 1.75235 0
M  V30 5643 C 544.167 -1.11101 3.2905 0
M  V30 5644 C 543.121 -0.468244 4.25431 0
M  V30 5645 C 542.447 -1.57822 5.10878 0
M  V30 5646 C 543.747 0.606469 5.18767 0
M  V30 5647 H 545.441 0.622306 2.92861 0
M  V30 5648 H 542.987 0.300714 1.40825 0
M  V30 5649 H 544.94 -1.61622 3.89174 0
M  V30 5650 H 543.664 -1.87265 2.67581 0
M  V30 5651 H 542.323 0.0160484 3.66596 0
M  V30 5652 H 541.971 -2.32998 4.45781 0
M  V30 5653 H 541.671 -1.15369 5.76163 0
M  V30 5654 H 543.195 -2.08583 5.73869 0
M  V30 5655 H 544.609 0.185589 5.73 0
M  V30 5656 H 543.006 0.952381 5.92494 0
M  V30 5657 H 544.076 1.48559 4.61582 0
M  V30 5658 N 545.419 -1.53889 0.339982 0
M  V30 5659 C 546.644 -2.05741 -0.261798 0
M  V30 5660 C 547.069 -1.21354 -1.43718 0
M  V30 5661 O 546.427 -0.22645 -1.7988 0
M  V30 5662 C 546.475 -3.54542 -0.658228 0
M  V30 5663 O 545.579 -3.7302 -1.75869 0
M  V30 5664 H 544.92 -0.662529 -0.0441672 0
M  V30 5665 H 547.45 -1.98568 0.493161 0
M  V30 5666 H 547.46 -3.9711 -0.936368 0
M  V30 5667 H 546.135 -4.15412 0.201358 0
M  V30 5668 H 544.712 -3.42355 -1.47809 0
M  V30 5669 N 546.897 -0.0685191 -1.57451 0
M  V30 5670 C 548.145 0.60016 -1.92983 0
M  V30 5671 C 548.466 1.70348 -0.949028 0
M  V30 5672 O 547.736 1.959 0.00335647 0
M  V30 5673 H 546.316 0.224682 -0.712409 0
M  V30 5674 H 548.978 -0.125605 -1.94495 0
M  V30 5675 H 548.074 1.02759 -2.94698 0
M  V30 5676 N 548.375 1.56261 0.205012 0
M  V30 5677 C 549.323 1.94631 1.27364 0
M  V30 5678 C 550.317 0.830434 1.47649 0
M  V30 5679 O 551.523 1.01538 1.48627 0
M  V30 5680 H 547.898 0.618755 0.427371 0
M  V30 5681 H 549.869 2.83768 0.922941 0
M  V30 5682 C 548.618 2.29358 2.61324 0
M  V30 5683 H 547.941 3.14744 2.46528 0
M  V30 5684 H 549.381 2.60076 3.34868 0
M  V30 5685 C 547.84 1.12461 3.17575 0
M  V30 5686 O 548.37 0.394407 3.99759 0
M  V30 5687 N 546.576 0.904036 2.7618 0
M  V30 5688 H 546.123 1.49956 2.09454 0
M  V30 5689 H 546.081 0.123662 3.14157 0
M  V30 5690 N 549.853 -0.472356 1.50355 0
M  V30 5691 C 551.093 -1.23439 1.62918 0
M  V30 5692 C 551.457 -1.89284 0.321801 0
M  V30 5693 O 552.658 -2.66854 0.322852 0
M  V30 5694 C 550.929 -2.25119 2.7759 0
M  V30 5695 S 552.488 -3.10278 3.10279 0
M  V30 5696 H 549.306 -0.41911 0.574341 0
M  V30 5697 H 551.908 -0.531621 1.88133 0
M  V30 5698 H 550.612 -1.75324 3.71066 0
M  V30 5699 H 550.143 -3.00026 2.54457 0
M  V30 5700 H 552.158 -4.26257 2.54007 0
M  V30 5701 N 551.331 -1.39911 -0.725443 0
M  V30 5702 C 552.261 -1.42138 -1.85254 0
M  V30 5703 C 553.242 -0.283513 -1.67721 0
M  V30 5704 O 554.427 -0.490717 -1.87898 0
M  V30 5705 C 551.557 -1.27354 -3.23107 0
M  V30 5706 C 550.511 -2.3864 -3.55296 0
M  V30 5707 C 549.837 -2.08939 -4.92188 0
M  V30 5708 C 551.137 -3.8097 -3.57295 0
M  V30 5709 H 552.831 -2.36461 -1.83648 0
M  V30 5710 H 550.377 -1.13817 -0.882138 0
M  V30 5711 H 552.33 -1.2753 -4.01639 0
M  V30 5712 H 551.054 -0.295025 -3.25265 0
M  V30 5713 H 549.713 -2.37696 -2.79099 0
M  V30 5714 H 549.361 -1.09502 -4.90936 0
M  V30 5715 H 549.061 -2.83491 -5.14691 0
M  V30 5716 H 550.585 -2.10781 -5.73065 0
M  V30 5717 H 551.999 -3.8379 -4.25885 0
M  V30 5718 H 550.396 -4.5496 -3.9132 0
M  V30 5719 H 551.466 -4.11261 -2.5689 0
M  V30 5720 N 552.809 0.956637 -1.25245 0
M  V30 5721 C 554.225 1.22733 -1.02023 0
M  V30 5722 C 554.425 1.99761 0.264186 0
M  V30 5723 O 553.481 2.32814 0.977436 0
M  V30 5724 C 554.794 2.00367 -2.24217 0
M  V30 5725 C 556.342 2.13418 -2.28958 0
M  V30 5726 C 556.817 2.9445 -3.50803 0
M  V30 5727 N 558.308 3.02029 -3.51187 0
M  V30 5728 C 559.043 3.65116 -4.42129 0
M  V30 5729 N 558.539 4.2983 -5.43339 0
M  V30 5730 N 560.332 3.62237 -4.29815 0
M  V30 5731 H 552.483 0.441282 -2.07765 0
M  V30 5732 H 554.746 0.257686 -0.912306 0
M  V30 5733 H 554.452 1.51165 -3.17556 0
M  V30 5734 H 554.326 3.01077 -2.27228 0
M  V30 5735 H 556.713 2.61819 -1.36143 0
M  V30 5736 H 556.794 1.1202 -2.29968 0
M  V30 5737 H 556.438 2.46741 -4.43939 0
M  V30 5738 H 556.368 3.9607 -3.47039 0
M  V30 5739 H 558.859 2.56007 -2.77973 0
M  V30 5740 H 559.172 4.75819 -6.08947 0
M  V30 5741 H 557.517 4.28465 -5.47214 0
M  V30 5742 H 560.708 3.10863 -3.49974 0
M  V30 5743 H 560.881 4.11117 -5.00886 0
M  V30 5744 N 554.287 1.06798 1.15896 0
M  V30 5745 C 555.235 0.677525 2.22514 0
M  V30 5746 C 556.229 -0.308994 1.66558 0
M  V30 5747 O 557.435 -0.173308 1.79164 0
M  V30 5748 H 553.81 0.200994 0.724642 0
M  V30 5749 H 555.781 1.5865 2.52731 0
M  V30 5750 C 554.53 0.0854153 3.47595 0
M  V30 5751 H 553.853 0.835645 3.90969 0
M  V30 5752 H 555.293 -0.150199 4.23734 0
M  V30 5753 C 553.752 -1.1724 3.15843 0
M  V30 5754 O 554.282 -2.25965 3.32119 0
M  V30 5755 N 552.488 -1.07636 2.69931 0
M  V30 5756 H 552.035 -0.191559 2.56887 0
M  V30 5757 H 551.993 -1.91876 2.4906 0
M  V30 5758 N 555.766 -1.3263 0.851289 0
M  V30 5759 C 556.696 -2.31449 0.308771 0
M  V30 5760 C 557.677 -1.59531 -0.590255 0
M  V30 5761 O 558.862 -1.87351 -0.511205 0
M  V30 5762 C 555.992 -3.43586 -0.506548 0
M  V30 5763 C 554.946 -4.26963 0.297753 0
M  V30 5764 C 554.272 -5.30831 -0.642094 0
M  V30 5765 C 555.572 -4.99643 1.52166 0
M  V30 5766 H 557.266 -2.77074 1.13447 0
M  V30 5767 H 554.812 -1.33207 0.546971 0
M  V30 5768 H 556.765 -4.11754 -0.896474 0
M  V30 5769 H 555.489 -2.96681 -1.36558 0
M  V30 5770 H 554.148 -3.60437 0.669391 0
M  V30 5771 H 553.796 -4.8018 -1.49788 0
M  V30 5772 H 553.496 -5.87501 -0.107968 0
M  V30 5773 H 555.02 -6.01862 -1.02927 0
M  V30 5774 H 556.434 -5.6051 1.20421 0
M  V30 5775 H 554.831 -5.66022 1.99347 0
M  V30 5776 H 555.901 -4.27701 2.28474 0
M  V30 5777 N 557.244 -0.608902 -1.45362 0
M  V30 5778 C 558.655 -0.189511 -1.85736 0
M  V30 5779 C 559.006 1.2539 -1.50903 0
M  V30 5780 O 558.131 1.95094 -0.936347 0
M  V30 5781 C 558.726 -0.33716 -3.37118 0
M  V30 5782 C 557.285 0.0275487 -3.7639 0
M  V30 5783 C 556.432 -0.660983 -2.69307 0
M  V30 5784 H 559.383 -0.815499 -1.36144 0
M  V30 5785 H 559.404 0.430257 -3.7806 0
M  V30 5786 H 558.916 -1.38779 -3.62439 0
M  V30 5787 H 557.017 1.0773 -3.56686 0
M  V30 5788 H 557.13 -0.367018 -4.77692 0
M  V30 5789 H 555.494 -0.0984958 -2.54509 0
M  V30 5790 H 556.277 -1.71377 -2.97464 0
M  V30 5791 N 558.722 1.53707 -0.348139 0
M  V30 5792 C 559.632 2.28881 0.514857 0
M  V30 5793 C 560.648 1.34168 1.10793 0
M  V30 5794 O 561.824 1.6721 1.12262 0
M  V30 5795 C 558.889 3.05042 1.64774 0
M  V30 5796 C 557.95 4.15389 1.08398 0
M  V30 5797 C 557.183 4.87909 2.16287 0
M  V30 5798 O 557.406 4.60137 3.3709 0
M  V30 5799 O 556.34 5.74254 1.80323 0
M  V30 5800 H 560.166 3.03547 -0.0963699 0
M  V30 5801 H 557.751 1.48972 -0.113043 0
M  V30 5802 H 559.633 3.52656 2.30677 0
M  V30 5803 H 558.308 2.33228 2.24469 0
M  V30 5804 H 557.215 3.72068 0.389341 0
M  V30 5805 H 558.548 4.89318 0.531829 0
M  V30 5806 N 560.2 0.0768682 1.57412 0
M  V30 5807 C 561.132 -0.918248 2.10002 0
M  V30 5808 C 562.145 -1.25808 1.03325 0
M  V30 5809 O 563.334 -1.21438 1.30824 0
M  V30 5810 C 560.434 -2.23263 2.54964 0
M  V30 5811 C 559.607 -2.07088 3.8527 0
M  V30 5812 C 558.666 -3.21876 4.16272 0
M  V30 5813 O 557.692 -2.96643 4.8579 0
M  V30 5814 N 558.894 -4.4712 3.70221 0
M  V30 5815 H 561.659 -0.469209 2.96004 0
M  V30 5816 H 559.22 -0.108725 1.61535 0
M  V30 5817 H 561.212 -2.9897 2.72762 0
M  V30 5818 H 559.782 -2.59649 1.74072 0
M  V30 5819 H 559.002 -1.15818 3.76802 0
M  V30 5820 H 560.29 -1.93537 4.70554 0
M  V30 5821 H 559.688 -4.70506 3.1407 0
M  V30 5822 H 558.245 -5.19837 3.93209 0
M  V30 5823 N 561.678 -1.56367 -0.196722 0
M  V30 5824 C 562.924 -1.80796 -0.918725 0
M  V30 5825 C 563.257 -0.650645 -1.82976 0
M  V30 5826 O 562.532 0.348889 -1.91345 0
M  V30 5827 C 562.815 -3.15472 -1.73636 0
M  V30 5828 C 562.668 -4.41693 -0.85015 0
M  V30 5829 C 563.987 -3.46824 -2.70927 0
M  V30 5830 H 561.106 -0.657702 -0.332561 0
M  V30 5831 H 563.748 -1.89086 -0.186186 0
M  V30 5832 H 561.898 -3.08536 -2.36088 0
M  V30 5833 H 563.57 -4.60673 -0.240459 0
M  V30 5834 H 561.813 -4.33517 -0.156785 0
M  V30 5835 H 562.484 -5.32419 -1.45719 0
M  V30 5836 H 564.96 -3.54049 -2.18607 0
M  V30 5837 H 563.836 -4.4218 -3.25219 0
M  V30 5838 H 564.097 -2.70236 -3.49893 0
M  V30 5839 N 563.156 0.464375 -1.50603 0
M  V30 5840 C 564.403 1.21596 -1.61928 0
M  V30 5841 C 564.731 1.91804 -0.322737 0
M  V30 5842 O 563.986 1.83065 0.691776 0
M  V30 5843 C 564.285 2.278 -2.75394 0
M  V30 5844 C 563.951 1.74797 -4.1564 0
M  V30 5845 C 562.613 1.60063 -4.53799 0
M  V30 5846 C 564.965 1.35548 -5.03266 0
M  V30 5847 C 562.293 1.04514 -5.77316 0
M  V30 5848 C 564.645 0.814381 -6.27336 0
M  V30 5849 C 563.309 0.653726 -6.64291 0
M  V30 5850 H 562.579 0.444951 -0.592536 0
M  V30 5851 H 565.226 0.510964 -1.84557 0
M  V30 5852 H 563.531 3.04233 -2.46879 0
M  V30 5853 H 565.228 2.85723 -2.81359 0
M  V30 5854 H 561.818 1.87234 -3.8554 0
M  V30 5855 H 566.002 1.45763 -4.74412 0
M  V30 5856 H 561.258 0.908186 -6.04617 0
M  V30 5857 H 565.432 0.501626 -6.94591 0
M  V30 5858 H 563.059 0.22114 -7.59878 0
M  V30 5859 N 564.634 1.40294 0.718013 0
M  V30 5860 C 566.05 1.2227 1.02577 0
M  V30 5861 C 566.25 0.0961976 2.0127 0
M  V30 5862 O 565.306 -0.546695 2.46511 0
M  V30 5863 C 566.619 2.56348 1.57182 0
M  V30 5864 C 568.167 2.6334 1.69178 0
M  V30 5865 C 568.642 3.9768 2.27188 0
M  V30 5866 N 570.133 3.99409 2.34578 0
M  V30 5867 C 570.868 5.00141 2.8044 0
M  V30 5868 N 570.364 6.11268 3.26073 0
M  V30 5869 N 572.157 4.87511 2.79802 0
M  V30 5870 H 564.308 2.12304 0.0637899 0
M  V30 5871 H 566.571 0.943632 0.0909036 0
M  V30 5872 H 566.277 3.3942 0.921262 0
M  V30 5873 H 566.151 2.77266 2.55741 0
M  V30 5874 H 568.538 1.80641 2.33351 0
M  V30 5875 H 568.619 2.46255 0.692247 0
M  V30 5876 H 568.263 4.80817 1.63638 0
M  V30 5877 H 568.193 4.12093 3.27852 0
M  V30 5878 H 570.684 3.19162 2.02346 0
M  V30 5879 H 570.997 6.84023 3.59628 0
M  V30 5880 H 569.342 6.14837 3.24038 0
M  V30 5881 H 572.533 3.9979 2.43487 0
M  V30 5882 H 572.706 5.66158 3.15228 0
M  V30 5883 N 566.112 -0.949982 1.2575 0
M  V30 5884 C 567.36 -1.6918 1.10555 0
M  V30 5885 C 567.681 -1.91773 -0.353298 0
M  V30 5886 O 566.951 -1.50814 -1.25027 0
M  V30 5887 H 565.531 -0.626952 0.406129 0
M  V30 5888 H 568.193 -1.1419 1.57945 0
M  V30 5889 H 567.289 -2.66915 1.61749 0
M  V30 5890 N 567.59 -1.07411 -1.15328 0
M  V30 5891 C 568.52 -0.716472 -2.22236 0
M  V30 5892 C 569.501 0.296373 -1.67498 0
M  V30 5893 O 570.686 0.168989 -1.93463 0
M  V30 5894 C 567.816 -0.114142 -3.47112 0
M  V30 5895 C 566.77 -1.05421 -4.14814 0
M  V30 5896 C 566.096 -0.314604 -5.33774 0
M  V30 5897 C 567.396 -2.38808 -4.64508 0
M  V30 5898 H 569.09 -1.61029 -2.52408 0
M  V30 5899 H 566.636 -0.775702 -1.21321 0
M  V30 5900 H 568.589 0.148001 -4.2114 0
M  V30 5901 H 567.313 0.814755 -3.16274 0
M  V30 5902 H 565.972 -1.30128 -3.42728 0
M  V30 5903 H 565.62 0.617772 -4.99192 0
M  V30 5904 H 565.32 -0.941209 -5.80013 0
M  V30 5905 H 566.844 -0.0602747 -6.1057 0
M  V30 5906 H 568.258 -2.18424 -5.3006 0
M  V30 5907 H 566.655 -2.97069 -5.21412 0
M  V30 5908 H 567.725 -3.01067 -3.80114 0
M  V30 5909 N 569.068 1.32177 -0.85831 0
M  V30 5910 C 570.316 1.96735 -0.462568 0
M  V30 5911 C 570.637 1.6824 0.985911 0
M  V30 5912 O 569.907 0.991564 1.68952 0
M  V30 5913 H 568.487 0.727849 -0.168064 0
M  V30 5914 H 571.149 1.61195 -1.09554 0
M  V30 5915 H 570.245 3.06068 -0.610647 0
M  V30 5916 N 570.547 0.616602 1.45037 0
M  V30 5917 C 571.494 -0.0969439 2.30596 0
M  V30 5918 C 572.464 -0.851151 1.42635 0
M  V30 5919 O 573.649 -0.835092 1.71554 0
M  V30 5920 C 570.789 -1.08234 3.27688 0
M  V30 5921 C 569.902 -0.328072 4.30752 0
M  V30 5922 C 569.037 -1.30399 5.14946 0
M  V30 5923 C 568.076 -0.538049 6.09731 0
M  V30 5924 N 567.213 -1.46371 6.86673 0
M  V30 5925 H 572.053 0.63864 2.91076 0
M  V30 5926 H 569.59 0.326733 1.43425 0
M  V30 5927 H 571.548 -1.66688 3.82454 0
M  V30 5928 H 570.178 -1.78523 2.68941 0
M  V30 5929 H 569.23 0.372136 3.78575 0
M  V30 5930 H 570.542 0.269142 4.98073 0
M  V30 5931 H 569.696 -1.96032 5.74157 0
M  V30 5932 H 568.435 -1.93514 4.47665 0
M  V30 5933 H 567.44 0.131852 5.49642 0
M  V30 5934 H 568.665 0.0881732 6.79043 0
M  V30 5935 H 566.611 -2.08233 6.22073 0
M  V30 5936 H 566.528 -0.920152 7.50379 0
M  V30 5937 H 567.796 -2.10932 7.50418 0
M  V30 5938 N 572.025 -1.5352 0.356285 0
M  V30 5939 C 572.955 -2.28372 -0.486661 0
M  V30 5940 C 573.936 -1.30432 -1.09185 0
M  V30 5941 O 575.121 -1.59291 -1.11085 0
M  V30 5942 C 572.251 -3.06604 -1.63129 0
M  V30 5943 C 571.205 -4.12154 -1.15381 0
M  V30 5944 C 570.531 -4.78415 -2.38796 0
M  V30 5945 C 571.831 -5.21724 -0.245179 0
M  V30 5946 H 573.525 -2.99083 0.137797 0
M  V30 5947 H 571.071 -1.43841 0.0677134 0
M  V30 5948 H 573.024 -3.57712 -2.22755 0
M  V30 5949 H 571.748 -2.33568 -2.28284 0
M  V30 5950 H 570.407 -3.61978 -0.580294 0
M  V30 5951 H 570.055 -4.01959 -3.02387 0
M  V30 5952 H 569.755 -5.49734 -2.07524 0
M  V30 5953 H 571.279 -5.32313 -2.99125 0
M  V30 5954 H 572.693 -5.68391 -0.748646 0
M  V30 5955 H 571.09 -6.00095 -0.0237608 0
M  V30 5956 H 572.16 -4.79596 0.715229 0
M  V30 5957 N 573.503 -0.0852151 -1.57369 0
M  V30 5958 C 574.453 0.88767 -2.10011 0
M  V30 5959 C 575.437 1.25021 -1.01285 0
M  V30 5960 O 576.629 1.22694 -1.27574 0
M  V30 5961 C 573.758 2.15037 -2.67608 0
M  V30 5962 C 572.844 1.81371 -3.83361 0
M  V30 5963 N 573.235 1.18216 -4.91791 0
M  V30 5964 C 571.533 2.11041 -3.92909 0
M  V30 5965 C 572.234 1.02941 -5.72519 0
M  V30 5966 N 571.21 1.54351 -5.21226 0
M  V30 5967 H 575.012 0.395279 -2.9123 0
M  V30 5968 H 572.526 0.11829 -1.61969 0
M  V30 5969 H 574.523 2.85667 -3.03644 0
M  V30 5970 H 573.183 2.64851 -1.8784 0
M  V30 5971 H 574.194 0.850168 -5.10874 0
M  V30 5972 H 570.871 2.63138 -3.24136 0
M  V30 5973 H 572.261 0.536298 -6.69756 0
M  V30 5974 N 574.981 1.5647 0.188427 0
M  V30 5975 C 576.206 1.85486 0.927891 0
M  V30 5976 C 576.631 0.669575 1.75779 0
M  V30 5977 O 575.989 -0.381573 1.77239 0
M  V30 5978 C 576.037 3.12784 1.7944 0
M  V30 5979 O 575.141 2.93805 2.894 0
M  V30 5980 H 574.482 0.610585 0.260925 0
M  V30 5981 H 577.012 2.037 0.191729 0
M  V30 5982 H 577.022 3.43749 2.19774 0
M  V30 5983 H 575.697 3.98671 1.18468 0
M  V30 5984 H 574.274 2.74153 2.52774 0
M  V30 5985 N 576.459 -0.456382 1.50847 0
M  V30 5986 C 577.389 -1.56025 1.73719 0
M  V30 5987 C 578.37 -1.5967 0.586473 0
M  V30 5988 O 579.555 -1.75702 0.827185 0
M  V30 5989 C 576.685 -2.94251 1.84483 0
M  V30 5990 C 575.639 -3.05471 2.99786 0
M  V30 5991 C 574.965 -4.45489 2.95709 0
M  V30 5992 C 576.265 -2.81318 4.40065 0
M  V30 5993 H 577.959 -1.37138 2.66146 0
M  V30 5994 H 575.505 -0.658299 1.28072 0
M  V30 5995 H 577.458 -3.71417 1.99067 0
M  V30 5996 H 576.182 -3.14328 0.886891 0
M  V30 5997 H 574.841 -2.30741 2.84876 0
M  V30 5998 H 574.489 -4.62505 1.97732 0
M  V30 5999 H 574.189 -4.53929 3.73125 0
M  V30 6000 H 575.713 -5.24655 3.12362 0
M  V30 6001 H 577.127 -3.48226 4.55425 0
M  V30 6002 H 575.524 -3.01188 5.19043 0
M  V30 6003 H 576.594 -1.7706 4.51418 0
M  V30 6004 N 577.937 -1.40673 -0.710563 0
M  V30 6005 C 578.887 -1.37812 -1.81636 0
M  V30 6006 C 579.871 -0.254853 -1.58869 0
M  V30 6007 O 581.063 -0.494356 -1.69956 0
M  V30 6008 C 578.192 -1.24802 -3.19811 0
M  V30 6009 C 577.278 -2.41931 -3.48325 0
M  V30 6010 N 577.669 -3.67411 -3.47625 0
M  V30 6011 C 575.967 -2.35419 -3.78806 0
M  V30 6012 C 576.668 -4.45008 -3.74623 0
M  V30 6013 N 575.644 -3.74916 -3.93623 0
M  V30 6014 H 579.446 -2.32766 -1.79436 0
M  V30 6015 H 576.96 -1.34516 -0.909909 0
M  V30 6016 H 578.957 -1.20835 -3.99004 0
M  V30 6017 H 577.617 -0.308202 -3.23234 0
M  V30 6018 H 578.628 -4.00503 -3.28356 0
M  V30 6019 H 575.305 -1.4983 -3.89689 0
M  V30 6020 H 576.695 -5.53884 -3.80344 0
M  V30 6021 N 579.415 0.9433 -1.26252 0
M  V30 6022 C 580.345 2.05902 -1.10122 0
M  V30 6023 C 581.326 1.70099 -0.00700552 0
M  V30 6024 O 582.511 1.93377 -0.178641 0
M  V30 6025 C 579.641 3.39516 -0.731175 0
M  V30 6026 C 578.595 3.89372 -1.77688 0
M  V30 6027 C 577.921 5.19613 -1.26122 0
M  V30 6028 C 579.221 4.14489 -3.17799 0
M  V30 6029 H 580.915 2.19655 -2.03451 0
M  V30 6030 H 578.461 1.05548 -0.979576 0
M  V30 6031 H 580.414 4.17031 -0.605215 0
M  V30 6032 H 579.138 3.25733 0.23782 0
M  V30 6033 H 577.797 3.14036 -1.89148 0
M  V30 6034 H 577.445 5.02208 -0.282128 0
M  V30 6035 H 577.145 5.53939 -1.96023 0
M  V30 6036 H 578.669 5.99713 -1.14789 0
M  V30 6037 H 580.083 4.82625 -3.09428 0
M  V30 6038 H 578.48 4.60094 -3.85271 0
M  V30 6039 H 579.55 3.20347 -3.64014 0
M  V30 6040 N 580.893 1.08022 1.14757 0
M  V30 6041 C 581.803 0.718292 2.23333 0
M  V30 6042 C 582.819 -0.273477 1.71837 0
M  V30 6043 O 583.995 -0.118406 2.01052 0
M  V30 6044 C 581.06 0.128855 3.4646 0
M  V30 6045 C 580.121 1.17473 4.12915 0
M  V30 6046 C 579.354 0.61333 5.30164 0
M  V30 6047 O 579.577 -0.568458 5.6756 0
M  V30 6048 O 578.511 1.3615 5.86299 0
M  V30 6049 H 582.337 1.62394 2.56636 0
M  V30 6050 H 579.922 0.853628 1.22611 0
M  V30 6051 H 581.804 -0.197249 4.20938 0
M  V30 6052 H 580.479 -0.750014 3.14891 0
M  V30 6053 H 579.386 1.5533 3.40328 0
M  V30 6054 H 580.719 2.02574 4.48581 0
M  V30 6055 N 582.371 -1.3172 0.865308 0
M  V30 6056 C 583.619 -1.96487 0.472995 0
M  V30 6057 C 583.94 -1.68761 -0.976975 0
M  V30 6058 O 583.21 -1.00051 -1.68424 0
M  V30 6059 H 581.79 -0.726947 0.171922 0
M  V30 6060 H 584.452 -1.60612 1.10407 0
M  V30 6061 H 583.548 -3.0574 0.62687 0
M  V30 6062 N 583.85 -0.624285 -1.44708 0
M  V30 6063 C 585.075 -0.131171 -2.06985 0
M  V30 6064 C 585.5 1.18234 -1.46295 0
M  V30 6065 O 584.858 1.72375 -0.561842 0
M  V30 6066 C 584.906 -0.0226724 -3.60593 0
M  V30 6067 O 584.01 1.02314 -3.99507 0
M  V30 6068 H 583.351 -0.0816556 -0.65896 0
M  V30 6069 H 585.88 -0.859027 -1.85693 0
M  V30 6070 H 585.891 0.170138 -4.07645 0
M  V30 6071 H 584.566 -0.981685 -4.04148 0
M  V30 6072 H 583.143 0.805452 -3.64097 0
M  V30 6073 N 585.328 1.53329 -0.364422 0
M  V30 6074 C 586.568 2.0315 0.22572 0
M  V30 6075 C 586.932 1.24589 1.46087 0
M  V30 6076 O 588.133 1.64411 2.12656 0
M  V30 6077 C 586.404 3.53718 0.511663 0
M  V30 6078 S 587.963 4.25412 1.07564 0
M  V30 6079 H 584.781 0.70795 0.0657843 0
M  V30 6080 H 587.383 1.88811 -0.507019 0
M  V30 6081 H 586.087 4.08497 -0.394784 0
M  V30 6082 H 585.618 3.72217 1.27351 0
M  V30 6083 H 587.633 4.36486 2.35997 0
M  V30 6084 N 586.806 0.0935595 1.57322 0
M  V30 6085 C 587.736 -0.863062 2.16964 0
M  V30 6086 C 588.717 -1.29528 1.10256 0
M  V30 6087 O 589.902 -1.36245 1.38387 0
M  V30 6088 C 587.032 -2.12276 2.74875 0
M  V30 6089 C 585.986 -1.82921 3.86942 0
M  V30 6090 C 585.312 -3.15707 4.31548 0
M  V30 6091 C 586.612 -1.11737 5.10208 0
M  V30 6092 H 588.306 -0.366145 2.97153 0
M  V30 6093 H 585.852 -0.174673 1.42937 0
M  V30 6094 H 587.805 -2.79634 3.1525 0
M  V30 6095 H 586.529 -2.64248 1.91938 0
M  V30 6096 H 585.188 -1.17961 3.47103 0
M  V30 6097 H 584.836 -3.65563 3.45504 0
M  V30 6098 H 584.536 -2.96849 5.07104 0
M  V30 6099 H 586.06 -3.84226 4.74555 0
M  V30 6100 H 587.474 -1.69203 5.47762 0
M  V30 6101 H 585.871 -1.03064 5.91183 0
M  V30 6102 H 586.941 -0.0998818 4.84797 0
M  V30 6103 N 588.284 -1.56567 -0.180126 0
M  V30 6104 C 589.532 -1.81133 -0.896392 0
M  V30 6105 C 589.853 -0.669114 -1.83161 0
M  V30 6106 O 589.123 0.311616 -1.93406 0
M  V30 6107 H 587.703 -0.668172 -0.333999 0
M  V30 6108 H 590.365 -1.94048 -0.182051 0
M  V30 6109 H 589.461 -2.74854 -1.47857 0
M  V30 6110 N 589.762 0.448376 -1.51087 0
M  V30 6111 C 591.178 0.783984 -1.39017 0
M  V30 6112 C 591.378 1.96087 -0.463904 0
M  V30 6113 O 590.434 2.52357 0.0850534 0
M  V30 6114 C 591.747 1.07471 -2.80839 0
M  V30 6115 C 593.295 1.17981 -2.89913 0
M  V30 6116 C 593.77 1.50354 -4.32617 0
M  V30 6117 N 595.261 1.57301 -4.35673 0
M  V30 6118 C 595.996 1.839 -5.4311 0
M  V30 6119 N 595.492 2.08365 -6.60724 0
M  V30 6120 N 597.285 1.8559 -5.30578 0
M  V30 6121 H 589.436 -0.326881 -2.0987 0
M  V30 6122 H 591.699 -0.0838006 -0.944289 0
M  V30 6123 H 591.405 0.282768 -3.50561 0
M  V30 6124 H 591.279 2.00519 -3.19487 0
M  V30 6125 H 593.666 1.9624 -2.20395 0
M  V30 6126 H 593.747 0.228603 -2.54776 0
M  V30 6127 H 593.391 0.726273 -5.0268 0
M  V30 6128 H 593.321 2.46663 -4.65258 0
M  V30 6129 H 595.812 1.40342 -3.50874 0
M  V30 6130 H 596.125 2.27999 -7.38401 0
M  V30 6131 H 594.47 2.0571 -6.63859 0
M  V30 6132 H 597.661 1.65989 -4.37682 0
M  V30 6133 H 597.834 2.05983 -6.1439 0
M  V30 6134 N 591.24 1.41047 0.703093 0
M  V30 6135 C 592.489 1.39301 1.4587 0
M  V30 6136 C 592.802 0.00267077 1.956 0
M  V30 6137 O 594.008 -0.137414 2.71152 0
M  V30 6138 C 592.464 2.44891 2.63735 0
M  V30 6139 C 592.072 3.89796 2.20824 0
M  V30 6140 C 593.816 2.5227 3.41409 0
M  V30 6141 C 591.723 4.86955 3.35602 0
M  V30 6142 H 590.653 0.518005 0.547893 0
M  V30 6143 H 593.304 1.66839 0.764009 0
M  V30 6144 H 591.686 2.10472 3.35436 0
M  V30 6145 H 592.86 4.33424 1.56461 0
M  V30 6146 H 591.175 3.86008 1.56163 0
M  V30 6147 H 593.772 3.22044 4.26839 0
M  V30 6148 H 594.115 1.55714 3.86081 0
M  V30 6149 H 594.648 2.85742 2.7676 0
M  V30 6150 H 591.387 5.84888 2.9595 0
M  V30 6151 H 590.907 4.47982 3.98839 0
M  V30 6152 H 592.586 5.07361 4.01489 0
M  V30 6153 N 592.718 -0.936591 1.26751 0
M  V30 6154 C 594.134 -1.21095 1.03963 0
M  V30 6155 C 594.334 -2.00156 -0.232372 0
M  V30 6156 O 593.39 -2.3434 -0.940274 0
M  V30 6157 C 594.703 -1.96775 2.27377 0
M  V30 6158 C 596.251 -2.09749 2.32324 0
M  V30 6159 C 596.726 -2.88832 3.55443 0
M  V30 6160 N 598.217 -2.96404 3.55948 0
M  V30 6161 C 598.952 -3.58036 4.47881 0
M  V30 6162 N 598.448 -4.21132 5.50109 0
M  V30 6163 N 600.241 -3.55353 4.35523 0
M  V30 6164 H 592.392 -0.408173 2.08441 0
M  V30 6165 H 594.655 -0.243139 0.91629 0
M  V30 6166 H 594.361 -1.46094 3.19921 0
M  V30 6167 H 594.235 -2.97424 2.31989 0
M  V30 6168 H 596.622 -2.5962 1.40291 0
M  V30 6169 H 596.703 -1.08347 2.31721 0
M  V30 6170 H 596.347 -2.39647 4.47808 0
M  V30 6171 H 596.277 -3.90499 3.53296 0
M  V30 6172 H 598.768 -2.51552 2.82011 0
M  V30 6173 H 599.081 -4.66071 6.16439 0
M  V30 6174 H 597.426 -4.19705 5.53961 0
M  V30 6175 H 600.617 -3.05256 3.54875 0
M  V30 6176 H 600.79 -4.03097 5.07363 0
M  V30 6177 N 594.196 -1.08629 -1.14182 0
M  V30 6178 C 595.607 -0.838003 -1.66836 0
M  V30 6179 C 595.958 0.634885 -1.85644 0
M  V30 6180 O 595.083 1.49008 -1.56926 0
M  V30 6181 C 595.678 -1.51465 -3.03058 0
M  V30 6182 C 594.237 -1.31355 -3.52736 0
M  V30 6183 C 593.384 -1.57599 -2.28162 0
M  V30 6184 H 596.335 -1.24656 -0.982165 0
M  V30 6185 H 596.356 -0.943134 -3.68626 0
M  V30 6186 H 595.868 -2.58661 -2.89337 0
M  V30 6187 H 593.969 -0.262384 -3.71675 0
M  V30 6188 H 594.082 -2.04275 -4.33369 0
M  V30 6189 H 592.446 -0.997659 -2.34348 0
M  V30 6190 H 593.229 -2.66006 -2.17015 0
M  V30 6191 N 595.674 1.31259 -0.872281 0
M  V30 6192 C 596.624 2.26 -0.301295 0
M  V30 6193 C 597.608 1.50729 0.562991 0
M  V30 6194 O 598.8 1.72198 0.40949 0
M  V30 6195 C 595.929 3.39724 0.494227 0
M  V30 6196 C 595.015 4.22363 -0.383432 0
M  V30 6197 N 595.406 4.83724 -1.47799 0
M  V30 6198 C 593.704 4.45652 -0.176278 0
M  V30 6199 C 594.405 5.45523 -2.01939 0
M  V30 6200 N 593.381 5.27428 -1.31608 0
M  V30 6201 H 597.183 2.70981 -1.13782 0
M  V30 6202 H 594.697 1.45552 -0.720294 0
M  V30 6203 H 596.694 4.06626 0.919828 0
M  V30 6204 H 595.354 2.96286 1.32834 0
M  V30 6205 H 596.365 4.83313 -1.8609 0
M  V30 6206 H 593.042 4.12845 0.621698 0
M  V30 6207 H 594.432 6.04268 -2.93786 0
M  V30 6208 N 597.152 0.631951 1.44375 0
M  V30 6209 C 598.38 0.143867 2.06399 0
M  V30 6210 C 598.795 -1.18188 1.47231 0
M  V30 6211 O 598.152 -1.72511 0.595498 0
M  V30 6212 C 598.203 0.0238253 3.61492 0
M  V30 6213 O 597.924 1.29715 4.18456 0
M  V30 6214 C 599.425 -0.492856 4.40552 0
M  V30 6215 H 596.645 0.0800542 0.666207 0
M  V30 6216 H 599.189 0.866586 1.85231 0
M  V30 6217 H 597.344 -0.649338 3.81919 0
M  V30 6218 H 597.758 1.14252 5.11905 0
M  V30 6219 H 599.232 -0.525861 5.49489 0
M  V30 6220 H 599.709 -1.52006 4.12057 0
M  V30 6221 H 600.315 0.147085 4.25046 0
M  V30 6222 N 598.631 -1.53133 0.372548 0
M  V30 6223 C 599.878 -2.01356 -0.214959 0
M  V30 6224 C 600.206 -1.2596 -1.48204 0
M  V30 6225 O 599.461 -0.343511 -1.92662 0
M  V30 6226 C 599.76 -3.53206 -0.545938 0
M  V30 6227 C 599.426 -4.46511 0.627624 0
M  V30 6228 C 598.088 -4.71737 0.949615 0
M  V30 6229 C 600.44 -5.01666 1.41353 0
M  V30 6230 C 597.768 -5.4937 2.05936 0
M  V30 6231 C 600.12 -5.80511 2.51375 0
M  V30 6232 C 598.784 -6.04022 2.84101 0
M  V30 6233 H 598.054 -0.736813 -0.078659 0
M  V30 6234 H 600.701 -1.84682 0.506447 0
M  V30 6235 H 599.006 -3.67864 -1.34845 0
M  V30 6236 H 600.703 -3.87997 -1.01287 0
M  V30 6237 H 597.293 -4.27029 0.366635 0
M  V30 6238 H 601.477 -4.82117 1.17802 0
M  V30 6239 H 596.733 -5.65803 2.31682 0
M  V30 6240 H 600.907 -6.22255 3.12684 0
M  V30 6241 H 598.534 -6.63962 3.70214 0
M  V30 6242 N 600.109 -0.101901 -1.5727 0
M  V30 6243 C 601.337 0.568392 -1.98939 0
M  V30 6244 C 601.752 1.61301 -0.981194 0
M  V30 6245 O 601.109 1.82478 0.0282869 0
M  V30 6246 C 601.16 1.20997 -3.40649 0
M  V30 6247 O 600.881 0.207129 -4.3761 0
M  V30 6248 C 602.382 1.96523 -3.97358 0
M  V30 6249 H 599.602 0.15186 -0.65359 0
M  V30 6250 H 602.146 -0.183198 -2.03678 0
M  V30 6251 H 600.301 1.91245 -3.36904 0
M  V30 6252 H 600.715 0.671071 -5.20189 0
M  V30 6253 H 602.189 2.36764 -4.98645 0
M  V30 6254 H 602.666 2.83376 -3.35552 0
M  V30 6255 H 603.272 1.31076 -4.04598 0
M  V30 6256 N 601.587 1.56661 0.17182 0
M  V30 6257 C 602.835 1.81606 0.886774 0
M  V30 6258 C 603.156 0.678818 1.82803 0
M  V30 6259 O 602.426 -0.301354 1.93568 0
M  V30 6260 H 601.006 0.669934 0.330451 0
M  V30 6261 H 603.668 1.94142 0.171757 0
M  V30 6262 H 602.764 2.75634 1.46398 0
M  V30 6263 N 603.065 -0.440357 1.51323 0
M  V30 6264 C 603.995 -1.54174 1.75364 0
M  V30 6265 C 604.976 -1.59039 0.603375 0
M  V30 6266 O 606.161 -1.74815 0.845774 0
M  V30 6267 C 603.291 -2.92277 1.87593 0
M  V30 6268 C 602.245 -3.02274 3.03009 0
M  V30 6269 C 601.571 -4.42327 3.00418 0
M  V30 6270 C 602.871 -2.76634 4.43024 0
M  V30 6271 H 604.565 -1.34307 2.67585 0
M  V30 6272 H 602.111 -0.644678 1.28763 0
M  V30 6273 H 604.064 -3.69284 2.02995 0
M  V30 6274 H 602.788 -3.13369 0.920179 0
M  V30 6275 H 601.447 -2.27706 2.87307 0
M  V30 6276 H 601.095 -4.60382 2.02626 0
M  V30 6277 H 600.795 -4.49946 3.77918 0
M  V30 6278 H 602.319 -5.21312 3.17909 0
M  V30 6279 H 603.733 -3.43376 4.59093 0
M  V30 6280 H 602.13 -2.95666 5.22208 0
M  V30 6281 H 603.2 -1.72262 4.5327 0
M  V30 6282 N 604.543 -1.41418 -0.695603 0
M  V30 6283 C 605.768 -1.44329 -1.48942 0
M  V30 6284 C 606.193 -0.0501579 -1.88033 0
M  V30 6285 O 605.551 0.946598 -1.54626 0
M  V30 6286 C 605.599 -2.3578 -2.72837 0
M  V30 6287 O 604.703 -1.81482 -3.70322 0
M  V30 6288 H 604.044 -0.489838 -0.44828 0
M  V30 6289 H 606.574 -1.85878 -0.855014 0
M  V30 6290 H 606.584 -2.51654 -3.21145 0
M  V30 6291 H 605.259 -3.37005 -2.43722 0
M  V30 6292 H 603.836 -1.75058 -3.29255 0
M  V30 6293 N 606.021 0.929856 -1.27246 0
M  V30 6294 C 607.269 1.674 -1.13233 0
M  V30 6295 C 607.59 1.92311 0.322744 0
M  V30 6296 O 606.86 1.52784 1.22612 0
M  V30 6297 H 605.44 0.620411 -0.416052 0
M  V30 6298 H 608.102 1.11663 -1.59741 0
M  V30 6299 H 607.198 2.64308 -1.65975 0
M  V30 6300 N 607.499 1.09233 1.13605 0
M  V30 6301 C 608.429 0.751738 2.21068 0
M  V30 6302 C 609.41 -0.269688 1.67948 0
M  V30 6303 O 610.595 -0.13819 1.93708 0
M  V30 6304 C 607.725 0.16935 3.46887 0
M  V30 6305 C 606.679 1.12007 4.13084 0
M  V30 6306 C 606.005 0.399483 5.33206 0
M  V30 6307 C 607.305 2.46168 4.6065 0
M  V30 6308 H 608.999 1.65024 2.49815 0
M  V30 6309 H 606.545 0.794905 1.20072 0
M  V30 6310 H 608.498 -0.0809824 4.21322 0
M  V30 6311 H 607.222 -0.764335 3.1753 0
M  V30 6312 H 605.881 1.35564 3.40614 0
M  V30 6313 H 605.529 -0.538277 5.00112 0
M  V30 6314 H 605.229 1.03337 5.78442 0
M  V30 6315 H 606.753 0.157403 6.10397 0
M  V30 6316 H 608.167 2.26829 5.26518 0
M  V30 6317 H 606.564 3.05326 5.1662 0
M  V30 6318 H 607.634 3.07076 3.75276 0
M  V30 6319 N 608.977 -1.30795 0.87923 0
M  V30 6320 C 610.393 -1.48981 0.57243 0
M  V30 6321 C 610.593 -1.80719 -0.891236 0
M  V30 6322 O 609.649 -1.89136 -1.67283 0
M  V30 6323 C 610.962 -2.61721 1.48063 0
M  V30 6324 C 612.51 -2.75603 1.48365 0
M  V30 6325 C 612.985 -3.91449 2.37763 0
M  V30 6326 N 614.476 -3.98751 2.35695 0
M  V30 6327 C 615.211 -4.87684 3.01583 0
M  V30 6328 N 614.707 -5.81454 3.76674 0
M  V30 6329 N 616.5 -4.81005 2.90844 0
M  V30 6330 H 608.651 -1.08465 1.82617 0
M  V30 6331 H 610.914 -0.536813 0.781368 0
M  V30 6332 H 610.62 -2.45073 2.52254 0
M  V30 6333 H 610.494 -3.58071 1.18596 0
M  V30 6334 H 612.881 -2.9166 0.44927 0
M  V30 6335 H 612.962 -1.79891 1.81859 0
M  V30 6336 H 612.606 -3.76149 3.41283 0
M  V30 6337 H 612.536 -4.86487 2.01589 0
M  V30 6338 H 615.027 -3.31668 1.81121 0
M  V30 6339 H 615.34 -6.46063 4.24054 0
M  V30 6340 H 613.685 -5.81403 3.80782 0
M  V30 6341 H 616.876 -4.06728 2.31711 0
M  V30 6342 H 617.049 -5.50107 3.42471 0
M  V30 6343 N 610.455 -0.639598 -1.44038 0
M  V30 6344 C 611.871 -0.305953 -1.5664 0
M  V30 6345 C 612.071 1.19055 -1.62567 0
M  V30 6346 O 611.127 1.97492 -1.57331 0
M  V30 6347 C 612.44 -1.00533 -2.83397 0
M  V30 6348 C 613.988 -0.984278 -2.97121 0
M  V30 6349 C 614.463 -1.66428 -4.26691 0
M  V30 6350 N 615.954 -1.63127 -4.33525 0
M  V30 6351 C 616.689 -2.12629 -5.32519 0
M  V30 6352 N 616.185 -2.70359 -6.3787 0
M  V30 6353 N 617.978 -2.03208 -5.24083 0
M  V30 6354 H 610.129 -1.6109 -1.38434 0
M  V30 6355 H 612.392 -0.676672 -0.663942 0
M  V30 6356 H 612.098 -2.06034 -2.85032 0
M  V30 6357 H 611.972 -0.548362 -3.73193 0
M  V30 6358 H 614.359 0.0622792 -2.95034 0
M  V30 6359 H 614.44 -1.47981 -2.08651 0
M  V30 6360 H 614.084 -2.71034 -4.29538 0
M  V30 6361 H 614.014 -1.14351 -5.14034 0
M  V30 6362 H 616.505 -1.20987 -3.58009 0
M  V30 6363 H 616.818 -3.05842 -7.09704 0
M  V30 6364 H 615.163 -2.74414 -6.38531 0
M  V30 6365 H 618.354 -1.57823 -4.40692 0
M  V30 6366 H 618.527 -2.42097 -6.01077 0
M  V30 6367 N 611.933 1.52934 -0.380664 0
M  V30 6368 C 612.863 2.29118 0.450268 0
M  V30 6369 C 613.844 1.32153 1.07096 0
M  V30 6370 O 615.029 1.61038 1.08537 0
M  V30 6371 C 612.159 3.09161 1.58231 0
M  V30 6372 C 611.113 4.13938 1.0881 0
M  V30 6373 C 610.439 4.82153 2.31155 0
M  V30 6374 C 611.739 5.22048 0.162146 0
M  V30 6375 H 613.433 2.98826 -0.185361 0
M  V30 6376 H 610.979 1.43715 -0.0905886 0
M  V30 6377 H 612.932 3.61211 2.17036 0
M  V30 6378 H 611.656 2.3717 2.2454 0
M  V30 6379 H 610.315 3.62855 0.522633 0
M  V30 6380 H 609.963 4.06719 2.95953 0
M  V30 6381 H 609.663 5.52966 1.98752 0
M  V30 6382 H 611.187 5.37004 2.90618 0
M  V30 6383 H 612.601 5.6951 0.658126 0
M  V30 6384 H 610.998 6.00057 -0.0717122 0
M  V30 6385 H 612.068 4.78398 -0.791438 0
M  V30 6386 N 613.412 0.11024 1.57214 0
M  V30 6387 C 614.659 -0.54987 1.94891 0
M  V30 6388 C 614.987 -1.67243 0.992984 0
M  V30 6389 O 614.242 -1.95694 0.0152703 0
M  V30 6390 C 614.541 -1.13102 3.39032 0
M  V30 6391 C 614.207 -0.130713 4.5071 0
M  V30 6392 C 612.869 0.14437 4.80983 0
M  V30 6393 C 615.221 0.551472 5.18274 0
M  V30 6394 C 612.549 1.10807 5.76141 0
M  V30 6395 C 614.901 1.50375 6.14467 0
M  V30 6396 C 613.565 1.78691 6.43138 0
M  V30 6397 H 612.835 -0.201212 0.713158 0
M  V30 6398 H 615.482 0.189288 1.90562 0
M  V30 6399 H 613.787 -1.94675 3.40013 0
M  V30 6400 H 615.484 -1.64973 3.65493 0
M  V30 6401 H 612.074 -0.355301 4.27125 0
M  V30 6402 H 616.258 0.35211 4.95049 0
M  V30 6403 H 611.514 1.3343 5.96663 0
M  V30 6404 H 615.688 2.03808 6.65909 0
M  V30 6405 H 613.315 2.53522 7.1668 0
M  V30 6406 N 614.89 -1.56749 -0.16351 0
M  V30 6407 C 615.82 -2.00042 -1.20438 0
M  V30 6408 C 616.801 -0.877256 -1.45733 0
M  V30 6409 O 617.986 -1.1439 -1.56935 0
M  V30 6410 C 615.116 -2.36697 -2.54149 0
M  V30 6411 C 614.07 -3.52046 -2.43408 0
M  V30 6412 C 613.396 -3.74466 -3.81679 0
M  V30 6413 C 614.696 -4.85247 -1.93216 0
M  V30 6414 H 616.39 -2.87244 -0.844477 0
M  V30 6415 H 613.936 -1.38194 -0.40478 0
M  V30 6416 H 615.889 -2.65582 -3.27176 0
M  V30 6417 H 614.613 -1.46414 -2.91943 0
M  V30 6418 H 613.272 -3.23301 -1.72834 0
M  V30 6419 H 612.92 -2.81461 -4.1688 0
M  V30 6420 H 612.62 -4.52084 -3.75359 0
M  V30 6421 H 614.144 -4.0576 -4.5628 0
M  V30 6422 H 615.558 -5.12957 -2.56023 0
M  V30 6423 H 613.955 -5.66556 -1.97825 0
M  V30 6424 H 615.025 -4.7672 -0.88689 0
M  V30 6425 N 616.368 0.432326 -1.51554 0
M  V30 6426 C 617.315 1.52512 -1.7323 0
M  V30 6427 C 618.285 1.55863 -0.5741 0
M  V30 6428 O 619.47 1.72796 -0.809093 0
M  V30 6429 C 616.61 2.90183 -1.86783 0
M  V30 6430 C 615.723 2.96322 -3.14352 0
M  V30 6431 C 614.858 4.25147 -3.18471 0
M  V30 6432 C 613.897 4.25172 -4.40335 0
M  V30 6433 N 613.034 5.45529 -4.41975 0
M  V30 6434 H 617.874 1.33332 -2.66508 0
M  V30 6435 H 615.411 0.647613 -1.32077 0
M  V30 6436 H 617.369 3.70071 -1.92623 0
M  V30 6437 H 615.999 3.0791 -0.969087 0
M  V30 6438 H 615.051 2.09066 -3.17798 0
M  V30 6439 H 616.363 2.92203 -4.04251 0
M  V30 6440 H 615.517 5.13411 -3.23255 0
M  V30 6441 H 614.256 4.31929 -2.2647 0
M  V30 6442 H 613.261 3.353 -4.35723 0
M  V30 6443 H 614.486 4.20049 -5.33606 0
M  V30 6444 H 612.432 5.53024 -3.52847 0
M  V30 6445 H 612.349 5.43311 -5.25689 0
M  V30 6446 H 613.617 6.35812 -4.50958 0
M  V30 6447 N 617.846 1.41785 0.688094 0
M  V30 6448 C 619.123 1.32031 1.44316 0
M  V30 6449 C 619.503 -0.0486079 2.11044 0
M  V30 6450 O 618.851 -1.06332 2.02252 0
M  V30 6451 C 619.061 2.47906 2.45649 0
M  V30 6452 C 620.409 2.89415 3.10683 0
M  V30 6453 O 621.433 2.477 2.55975 0
M  V30 6454 O 620.292 3.61573 4.09789 0
M  V30 6455 H 617.386 0.519994 0.643067 0
M  V30 6456 H 619.932 1.53765 0.71794 0
M  V30 6457 H 618.704 3.39222 1.95048 0
M  V30 6458 H 618.327 2.28089 3.25671 0
M  V30 6459 N 619.324 -0.923095 1.27737 0
M  V30 6460 C 620.272 -2.04567 1.10703 0
M  V30 6461 C 621.266 -1.69375 0.0288445 0
M  V30 6462 O 622.472 -1.79027 0.186913 0
M  V30 6463 H 618.847 -0.670109 0.34126 0
M  V30 6464 H 620.818 -2.1608 2.05796 0
M  V30 6465 C 619.567 -3.38934 0.775837 0
M  V30 6466 H 618.89 -3.66501 1.59741 0
M  V30 6467 H 620.33 -4.18239 0.696548 0
M  V30 6468 C 618.789 -3.32863 -0.520012 0
M  V30 6469 O 619.319 -3.70462 -1.55308 0
M  V30 6470 N 617.525 -2.85958 -0.51732 0
M  V30 6471 H 617.072 -2.55557 0.32379 0
M  V30 6472 H 617.03 -2.82279 -1.38441 0
M  V30 6473 N 620.802 -1.09834 -1.13024 0
M  V30 6474 C 622.05 -0.835297 -1.8403 0
M  V30 6475 C 622.371 0.640944 -1.84165 0
M  V30 6476 O 621.641 1.46517 -1.30037 0
M  V30 6477 H 620.221 -0.306018 -0.681441 0
M  V30 6478 H 622.883 -1.38734 -1.36891 0
M  V30 6479 H 621.979 -1.19258 -2.88416 0
M  V30 6480 N 622.28 1.30327 -0.886154 0
M  V30 6481 C 623.21 2.30549 -0.370028 0
M  V30 6482 C 624.191 1.61039 0.547751 0
M  V30 6483 O 625.376 1.8864 0.461353 0
M  V30 6484 C 622.506 3.44808 0.415275 0
M  V30 6485 C 621.46 4.26024 -0.41085 0
M  V30 6486 C 620.786 5.32347 0.501128 0
M  V30 6487 C 622.086 4.95433 -1.65359 0
M  V30 6488 H 623.78 2.73969 -1.20754 0
M  V30 6489 H 621.326 1.3171 -0.582097 0
M  V30 6490 H 623.279 4.13986 0.78699 0
M  V30 6491 H 622.003 3.00197 1.28644 0
M  V30 6492 H 620.662 3.58535 -0.764719 0
M  V30 6493 H 620.31 4.83982 1.37004 0
M  V30 6494 H 620.01 5.87581 -0.0478356 0
M  V30 6495 H 621.534 6.0438 0.869333 0
M  V30 6496 H 622.948 5.5712 -1.35239 0
M  V30 6497 H 621.345 5.60537 -2.14284 0
M  V30 6498 H 622.415 4.21493 -2.39733 0
M  V30 6499 N 623.758 0.647228 1.43697 0
M  V30 6500 C 625.004 0.158422 2.0218 0
M  V30 6501 C 625.337 -1.22233 1.50907 0
M  V30 6502 O 624.612 -1.81478 0.699702 0
M  V30 6503 C 624.895 0.1627 3.59732 0
M  V30 6504 C 624.748 1.57694 4.21251 0
M  V30 6505 C 626.067 -0.504138 4.37203 0
M  V30 6506 H 623.186 0.059042 0.734631 0
M  V30 6507 H 625.828 0.826772 1.71069 0
M  V30 6508 H 623.978 -0.406414 3.86368 0
M  V30 6509 H 625.65 2.19618 4.05667 0
M  V30 6510 H 623.893 2.12603 3.7813 0
M  V30 6511 H 624.564 1.53183 5.3032 0
M  V30 6512 H 627.04 -0.0199841 4.16095 0
M  V30 6513 H 625.916 -0.470394 5.46881 0
M  V30 6514 H 626.177 -1.57726 4.13007 0
M  V30 6515 N 625.236 -1.5273 0.388769 0
M  V30 6516 C 626.484 -2.01174 -0.193208 0
M  V30 6517 C 626.805 -1.27705 -1.47365 0
M  V30 6518 O 626.075 -0.396966 -1.91836 0
M  V30 6519 H 624.655 -0.743287 -0.0743871 0
M  V30 6520 H 627.317 -1.87826 0.520336 0
M  V30 6521 H 626.413 -3.09477 -0.403803 0
M  V30 6522 N 626.714 -0.118576 -1.57153 0
M  V30 6523 C 627.963 0.539339 -1.94355 0
M  V30 6524 C 628.276 1.67858 -1.00415 0
M  V30 6525 O 629.482 2.39922 -1.27081 0
M  V30 6526 C 627.938 1.01082 -3.45414 0
M  V30 6527 C 627.546 -0.0999402 -4.47889 0
M  V30 6528 C 629.29 1.64013 -3.91535 0
M  V30 6529 C 627.197 0.388212 -5.90124 0
M  V30 6530 H 626.127 0.205247 -0.725527 0
M  V30 6531 H 628.778 -0.19836 -1.82425 0
M  V30 6532 H 627.16 1.80292 -3.52577 0
M  V30 6533 H 628.334 -0.876189 -4.52393 0
M  V30 6534 H 626.649 -0.635885 -4.11516 0
M  V30 6535 H 629.246 2.01649 -4.95219 0
M  V30 6536 H 629.589 2.51836 -3.31488 0
M  V30 6537 H 630.122 0.913439 -3.87171 0
M  V30 6538 H 626.861 -0.453963 -6.53926 0
M  V30 6539 H 626.381 1.13095 -5.89041 0
M  V30 6540 H 628.06 0.849574 -6.41398 0
M  V30 6541 N 628.193 1.56834 0.155195 0
M  V30 6542 C 629.103 2.009 1.21146 0
M  V30 6543 C 630.119 0.923029 1.475 0
M  V30 6544 O 631.295 1.23189 1.59331 0
M  V30 6545 C 628.36 2.37378 2.52691 0
M  V30 6546 C 627.421 3.59883 2.34057 0
M  V30 6547 C 626.654 3.94612 3.59329 0
M  V30 6548 O 626.877 3.30104 4.65175 0
M  V30 6549 O 625.811 4.87895 3.52479 0
M  V30 6550 H 629.637 2.9105 0.867371 0
M  V30 6551 H 627.222 1.44916 0.363298 0
M  V30 6552 H 629.104 2.61737 3.3026 0
M  V30 6553 H 627.779 1.50385 2.86646 0
M  V30 6554 H 626.686 3.40722 1.54465 0
M  V30 6555 H 628.019 4.47468 2.0502 0
M  V30 6556 N 629.671 -0.424282 1.51781 0
M  V30 6557 C 630.581 -1.54087 1.76902 0
M  V30 6558 C 631.597 -1.61249 0.653826 0
M  V30 6559 O 632.773 -1.78247 0.937552 0
M  V30 6560 C 629.838 -2.8996 1.90063 0
M  V30 6561 C 628.899 -2.92809 3.13945 0
M  V30 6562 C 628.132 -4.22201 3.26469 0
M  V30 6563 O 628.355 -5.15286 2.44616 0
M  V30 6564 O 627.289 -4.31599 4.1953 0
M  V30 6565 H 631.115 -1.358 2.71647 0
M  V30 6566 H 628.7 -0.608618 1.36441 0
M  V30 6567 H 630.582 -3.70575 2.0063 0
M  V30 6568 H 629.257 -3.08347 0.985067 0
M  V30 6569 H 628.164 -2.11102 3.08847 0
M  V30 6570 H 629.497 -2.79369 4.05233 0
M  V30 6571 N 631.149 -1.42148 -0.680565 0
M  V30 6572 C 632.081 -1.41119 -1.80605 0
M  V30 6573 C 633.094 -0.311099 -1.598 0
M  V30 6574 O 634.283 -0.573813 -1.69026 0
M  V30 6575 C 631.383 -1.18204 -3.17618 0
M  V30 6576 C 630.556 -2.40537 -3.65322 0
M  V30 6577 C 629.615 -2.13254 -4.8105 0
M  V30 6578 O 628.641 -2.8641 -4.91892 0
M  V30 6579 N 629.843 -1.13208 -5.69354 0
M  V30 6580 H 632.608 -2.38128 -1.81975 0
M  V30 6581 H 630.169 -1.36953 -0.863446 0
M  V30 6582 H 632.161 -0.97878 -3.92686 0
M  V30 6583 H 630.731 -0.29738 -3.11182 0
M  V30 6584 H 629.951 -2.76468 -2.80996 0
M  V30 6585 H 631.239 -3.22012 -3.93936 0
M  V30 6586 H 630.637 -0.526893 -5.63241 0
M  V30 6587 H 629.194 -0.988699 -6.44258 0
M  V30 6588 N 632.627 0.916307 -1.28225 0
M  V30 6589 C 633.852 1.7043 -1.18188 0
M  V30 6590 C 634.277 1.86346 0.256274 0
M  V30 6591 O 633.635 1.37175 1.18544 0
M  V30 6592 C 633.683 3.07546 -1.88275 0
M  V30 6593 O 632.787 3.94904 -1.18848 0
M  V30 6594 H 632.128 0.521967 -0.410423 0
M  V30 6595 H 634.658 1.14589 -1.69501 0
M  V30 6596 H 634.668 3.57793 -1.96082 0
M  V30 6597 H 633.343 2.95279 -2.92887 0
M  V30 6598 H 631.92 3.53339 -1.19187 0
M  V30 6599 N 634.105 1.10431 1.1244 0
M  V30 6600 C 635.035 0.775143 2.20258 0
M  V30 6601 C 636.016 -0.25186 1.68225 0
M  V30 6602 O 637.201 -0.117637 1.93843 0
M  V30 6603 C 634.331 0.206133 3.46688 0
M  V30 6604 C 633.285 1.16382 4.11873 0
M  V30 6605 C 632.611 0.456014 5.32752 0
M  V30 6606 C 633.911 2.5104 4.58013 0
M  V30 6607 H 635.605 1.67665 2.4805 0
M  V30 6608 H 633.151 0.807595 1.19222 0
M  V30 6609 H 635.104 -0.036291 4.21384 0
M  V30 6610 H 633.828 -0.730614 3.18323 0
M  V30 6611 H 632.487 1.39169 3.39157 0
M  V30 6612 H 632.135 -0.485203 5.00654 0
M  V30 6613 H 631.835 1.09466 5.77314 0
M  V30 6614 H 633.359 0.222135 6.10196 0
M  V30 6615 H 634.773 2.32401 5.24083 0
M  V30 6616 H 633.17 3.10789 5.13352 0
M  V30 6617 H 634.24 3.11039 3.71998 0
M  V30 6618 N 635.583 -1.29855 0.893053 0
M  V30 6619 C 636.829 -1.96488 0.52574 0
M  V30 6620 C 637.184 -1.69164 -0.916594 0
M  V30 6621 O 636.477 -0.990405 -1.64017 0
M  V30 6622 C 636.671 -3.49515 0.746588 0
M  V30 6623 C 636.5 -3.91715 2.20884 0
M  V30 6624 C 635.27 -4.16915 2.85499 0
M  V30 6625 C 637.468 -4.03934 3.18342 0
M  V30 6626 N 635.45 -4.45634 4.22236 0
M  V30 6627 C 636.821 -4.36629 4.40176 0
M  V30 6628 C 638.876 -3.86387 3.14021 0
M  V30 6629 C 637.579 -4.53605 5.58243 0
M  V30 6630 C 639.605 -4.04569 4.31367 0
M  V30 6631 C 638.967 -4.37617 5.5197 0
M  V30 6632 H 635.066 -0.743657 0.241863 0
M  V30 6633 H 637.65 -1.56927 1.15248 0
M  V30 6634 H 635.821 -3.88113 0.149281 0
M  V30 6635 H 637.553 -4.03224 0.345372 0
M  V30 6636 H 634.308 -4.10423 2.36326 0
M  V30 6637 H 634.732 -4.64114 4.92876 0
M  V30 6638 H 639.374 -3.59906 2.21873 0
M  V30 6639 H 637.092 -4.78925 6.50889 0
M  V30 6640 H 640.678 -3.92452 4.29503 0
M  V30 6641 H 639.558 -4.51395 6.41258 0
M  V30 6642 N 637.061 -0.65484 -1.43351 0
M  V30 6643 C 638.309 -0.168559 -2.01396 0
M  V30 6644 C 638.63 1.22235 -1.51933 0
M  V30 6645 O 637.9 1.81685 -0.732627 0
M  V30 6646 H 636.48 -0.0593244 -0.744641 0
M  V30 6647 H 639.142 -0.846871 -1.75539 0
M  V30 6648 H 638.238 -0.154428 -3.11718 0
M  V30 6649 N 638.539 1.52521 -0.396863 0
M  V30 6650 C 639.469 2.29582 0.425941 0
M  V30 6651 C 640.45 1.33281 1.05689 0
M  V30 6652 O 641.635 1.62181 1.06823 0
M  V30 6653 C 638.765 3.10821 1.54943 0
M  V30 6654 C 637.719 4.15069 1.04413 0
M  V30 6655 C 637.045 4.84578 2.26028 0
M  V30 6656 C 638.345 5.22191 0.106767 0
M  V30 6657 H 640.039 2.98612 -0.217045 0
M  V30 6658 H 637.585 1.43611 -0.105826 0
M  V30 6659 H 639.538 3.63492 2.13193 0
M  V30 6660 H 638.262 2.39538 2.22011 0
M  V30 6661 H 636.921 3.63389 0.484118 0
M  V30 6662 H 636.569 4.09835 2.91623 0
M  V30 6663 H 636.269 5.55043 1.92876 0
M  V30 6664 H 637.793 5.40056 2.84906 0
M  V30 6665 H 639.207 5.70176 0.597685 0
M  V30 6666 H 637.604 5.99947 -0.135352 0
M  V30 6667 H 638.674 4.77531 -0.842134 0
M  V30 6668 N 640.017 0.126909 1.57088 0
M  V30 6669 C 640.98 -0.806097 2.14557 0
M  V30 6670 C 641.98 -1.18918 1.08236 0
M  V30 6671 O 643.17 -1.11339 1.33975 0
M  V30 6672 C 640.302 -2.09116 2.69227 0
M  V30 6673 H 641.495 -0.306522 2.98329 0
M  V30 6674 H 639.048 -0.122393 1.5582 0
M  V30 6675 H 639.783 -2.63486 1.89065 0
M  V30 6676 H 639.568 -1.82588 3.46993 0
M  V30 6677 H 641.058 -2.75794 3.13572 0
M  V30 6678 N 641.495 -1.56914 -0.146875 0
M  V30 6679 C 642.405 -2.0154 -1.20079 0
M  V30 6680 C 643.421 -0.930838 -1.47008 0
M  V30 6681 O 644.597 -1.24032 -1.58676 0
M  V30 6682 C 641.662 -2.38715 -2.51428 0
M  V30 6683 C 640.723 -3.6112 -2.32145 0
M  V30 6684 C 639.956 -3.96512 -3.57231 0
M  V30 6685 O 640.179 -3.32566 -4.63418 0
M  V30 6686 O 639.113 -4.89758 -3.49887 0
M  V30 6687 H 642.939 -2.91506 -0.851924 0
M  V30 6688 H 640.524 -1.45106 -0.355607 0
M  V30 6689 H 642.406 -2.63485 -3.28867 0
M  V30 6690 H 641.081 -1.51903 -2.85845 0
M  V30 6691 H 639.988 -3.41536 -1.52656 0
M  V30 6692 H 641.321 -4.48549 -2.02644 0
M  V30 6693 N 642.974 0.416227 -1.52004 0
M  V30 6694 C 643.904 1.51365 -1.77795 0
M  V30 6695 C 644.885 1.58059 -0.628601 0
M  V30 6696 O 646.07 1.73447 -0.873478 0
M  V30 6697 C 643.2 2.89256 -1.92219 0
M  V30 6698 C 642.154 2.97415 -3.0778 0
M  V30 6699 C 641.48 4.37492 -3.07417 0
M  V30 6700 C 642.78 2.69551 -4.47369 0
M  V30 6701 H 644.474 1.30033 -2.69688 0
M  V30 6702 H 642.02 0.624112 -1.29772 0
M  V30 6703 H 643.973 3.66008 -2.08845 0
M  V30 6704 H 642.697 3.11866 -0.969917 0
M  V30 6705 H 641.356 2.23107 -2.90893 0
M  V30 6706 H 641.004 4.571 -2.09925 0
M  V30 6707 H 640.704 4.43877 -3.85029 0
M  V30 6708 H 642.228 5.16188 -3.26162 0
M  V30 6709 H 643.642 3.36028 -4.64497 0
M  V30 6710 H 642.039 2.87321 -5.26846 0
M  V30 6711 H 643.109 1.65029 -4.55953 0
M  V30 6712 N 644.452 1.42507 0.673017 0
M  V30 6713 C 645.382 1.48916 1.79851 0
M  V30 6714 C 646.363 0.345566 1.66553 0
M  V30 6715 O 647.548 0.560116 1.85947 0
M  V30 6716 C 644.678 1.39258 3.18158 0
M  V30 6717 C 643.632 2.51662 3.46194 0
M  V30 6718 C 642.958 2.27062 4.84094 0
M  V30 6719 C 644.258 3.93968 3.42909 0
M  V30 6720 H 645.952 2.43114 1.74745 0
M  V30 6721 H 643.498 1.17013 0.839288 0
M  V30 6722 H 645.451 1.42349 3.96629 0
M  V30 6723 H 644.175 0.415542 3.23946 0
M  V30 6724 H 642.834 2.47891 2.70084 0
M  V30 6725 H 642.482 1.27648 4.86534 0
M  V30 6726 H 642.182 3.02398 5.03815 0
M  V30 6727 H 643.706 2.31905 5.64847 0
M  V30 6728 H 645.12 3.99332 4.11347 0
M  V30 6729 H 643.517 4.6917 3.74165 0
M  V30 6730 H 644.587 4.20512 2.41449 0
M  V30 6731 N 645.93 -0.909495 1.28709 0
M  V30 6732 C 646.84 -2.04558 1.14861 0
M  V30 6733 C 647.856 -1.73842 0.0741621 0
M  V30 6734 O 649.032 -1.99383 0.2843 0
M  V30 6735 C 646.097 -3.36957 0.816148 0
M  V30 6736 C 645.158 -3.81255 1.97341 0
M  V30 6737 C 644.391 -5.07335 1.65671 0
M  V30 6738 O 644.614 -5.67514 0.573053 0
M  V30 6739 O 643.548 -5.47449 2.50167 0
M  V30 6740 H 647.374 -2.19161 2.10243 0
M  V30 6741 H 644.959 -1.03159 1.08068 0
M  V30 6742 H 646.841 -4.16436 0.644873 0
M  V30 6743 H 645.516 -3.2352 -0.107983 0
M  V30 6744 H 644.423 -3.02584 2.19986 0
M  V30 6745 H 645.756 -3.99261 2.87839 0
M  V30 6746 N 647.408 -1.11026 -1.11852 0
M  V30 6747 C 648.338 -0.786812 -2.19844 0
M  V30 6748 C 649.319 0.242935 -1.68356 0
M  V30 6749 O 650.504 0.107355 -1.93903 0
M  V30 6750 C 647.634 -0.224516 -3.46574 0
M  V30 6751 C 646.588 -1.18564 -4.1125 0
M  V30 6752 C 645.914 -0.484261 -5.32503 0
M  V30 6753 C 647.214 -2.53465 -4.56676 0
M  V30 6754 H 648.908 -1.68978 -2.47158 0
M  V30 6755 H 646.454 -0.813906 -1.18792 0
M  V30 6756 H 648.407 0.0139435 -4.21398 0
M  V30 6757 H 647.131 0.713722 -3.18706 0
M  V30 6758 H 645.79 -1.40966 -3.38414 0
M  V30 6759 H 645.438 0.458646 -5.00905 0
M  V30 6760 H 645.138 -1.12526 -5.76725 0
M  V30 6761 H 646.662 -0.254492 -6.10069 0
M  V30 6762 H 648.076 -2.35177 -5.22843 0
M  V30 6763 H 646.473 -3.13507 -5.11697 0
M  V30 6764 H 647.543 -3.13008 -3.70343 0
M  V30 6765 N 648.886 1.2938 -0.899927 0
M  V30 6766 C 650.163 1.9046 -0.445443 0
M  V30 6767 C 650.543 1.81683 1.07492 0
M  V30 6768 O 649.891 1.24371 1.91688 0
M  V30 6769 C 650.101 3.35529 -0.960279 0
M  V30 6770 C 651.449 4.12556 -1.00412 0
M  V30 6771 O 652.473 3.44434 -0.907965 0
M  V30 6772 O 651.332 5.34294 -1.14857 0
M  V30 6773 H 648.426 0.815253 -0.138893 0
M  V30 6774 H 650.972 1.37844 -0.989808 0
M  V30 6775 H 649.744 3.36074 -2.00425 0
M  V30 6776 H 649.367 3.95624 -0.395939 0
M  V30 6777 N 650.364 0.662433 1.43002 0
M  V30 6778 C 651.294 -0.00979809 2.33498 0
M  V30 6779 C 652.275 -0.802329 1.49989 0
M  V30 6780 O 653.46 -0.761964 1.78627 0
M  V30 6781 C 650.59 -0.970446 3.33466 0
M  V30 6782 C 649.544 -0.287383 4.27034 0
M  V30 6783 C 648.87 -1.36012 5.17112 0
M  V30 6784 C 650.17 0.82595 5.15728 0
M  V30 6785 H 651.864 0.745959 2.89958 0
M  V30 6786 H 649.41 0.360172 1.39423 0
M  V30 6787 H 651.363 -1.44971 3.95679 0
M  V30 6788 H 650.087 -1.75748 2.75282 0
M  V30 6789 H 648.746 0.17152 3.66199 0
M  V30 6790 H 648.394 -2.13882 4.55262 0
M  V30 6791 H 648.094 -0.908276 5.80538 0
M  V30 6792 H 649.618 -1.84056 5.82199 0
M  V30 6793 H 651.032 0.42845 5.71697 0
M  V30 6794 H 649.429 1.20282 5.87922 0
M  V30 6795 H 650.499 1.68003 4.54866 0
M  V30 6796 N 651.842 -1.52309 0.404946 0
M  V30 6797 C 653.07 -2.06185 -0.171818 0
M  V30 6798 C 653.485 -1.27536 -1.39212 0
M  V30 6799 O 652.842 -0.326112 -1.79563 0
M  V30 6800 C 652.893 -3.57647 -0.526417 0
M  V30 6801 O 652.614 -4.3332 0.645417 0
M  V30 6802 C 654.115 -4.27925 -1.15736 0
M  V30 6803 H 651.335 -0.670632 -0.0222328 0
M  V30 6804 H 653.879 -1.96259 0.574692 0
M  V30 6805 H 652.034 -3.67595 -1.22282 0
M  V30 6806 H 652.448 -5.23328 0.35042 0
M  V30 6807 H 653.922 -5.35093 -1.35572 0
M  V30 6808 H 654.399 -3.84134 -2.12926 0
M  V30 6809 H 655.005 -4.22335 -0.501281 0
M  V30 6810 N 653.32 -0.135238 -1.57019 0
M  V30 6811 C 654.545 0.529343 -2.00531 0
M  V30 6812 C 654.97 1.58391 -1.01459 0
M  V30 6813 O 654.328 1.81296 0.0113986 0
M  V30 6814 C 654.376 1.11748 -3.42848 0
M  V30 6815 O 653.48 2.23267 -3.46736 0
M  V30 6816 H 652.821 0.130669 -0.651016 0
M  V30 6817 H 655.351 -0.228503 -2.0332 0
M  V30 6818 H 655.361 1.44905 -3.81401 0
M  V30 6819 H 654.036 0.345147 -4.14465 0
M  V30 6820 H 652.613 1.91428 -3.20015 0
M  V30 6821 N 654.798 1.5699 0.138552 0
M  V30 6822 C 655.746 1.99858 1.18994 0
M  V30 6823 C 656.74 0.89231 1.43994 0
M  V30 6824 O 657.946 1.0775 1.44187 0
M  V30 6825 H 654.321 0.636325 0.400743 0
M  V30 6826 H 656.292 2.87427 0.801755 0
M  V30 6827 C 655.041 2.40235 2.51361 0
M  V30 6828 H 654.364 3.24917 2.32957 0
M  V30 6829 H 655.804 2.74045 3.23535 0
M  V30 6830 C 654.263 1.25829 3.1252 0
M  V30 6831 O 654.793 0.563604 3.97727 0
M  V30 6832 N 652.999 1.02036 2.72097 0
M  V30 6833 H 652.546 1.58705 2.02905 0
M  V30 6834 H 652.504 0.256796 3.1335 0
M  V30 6835 N 656.276 -0.40816 1.52223 0
M  V30 6836 C 657.208 -1.51642 1.71864 0
M  V30 6837 C 658.221 -1.51378 0.599056 0
M  V30 6838 O 659.41 -1.55626 0.874239 0
M  V30 6839 C 656.51 -2.90534 1.74481 0
M  V30 6840 C 655.683 -3.14979 3.03491 0
M  V30 6841 C 654.742 -4.33749 2.97907 0
M  V30 6842 O 653.768 -4.30982 3.71811 0
M  V30 6843 N 654.97 -5.38912 2.15764 0
M  V30 6844 H 657.735 -1.35188 2.67478 0
M  V30 6845 H 655.296 -0.597468 1.50472 0
M  V30 6846 H 657.288 -3.68056 1.68275 0
M  V30 6847 H 655.858 -3.00441 0.863363 0
M  V30 6848 H 655.078 -2.25492 3.23337 0
M  V30 6849 H 656.366 -3.28156 3.88833 0
M  V30 6850 H 655.764 -5.44008 1.55152 0
M  V30 6851 H 654.321 -6.15174 2.15415 0
M  V30 6852 N 657.755 -1.42862 -0.66545 0
M  V30 6853 C 658.685 -1.49867 -1.79059 0
M  V30 6854 C 659.666 -0.354394 -1.66367 0
M  V30 6855 O 660.851 -0.569969 -1.85647 0
M  V30 6856 C 657.981 -1.40943 -3.17415 0
M  V30 6857 C 656.935 -2.53495 -3.44854 0
M  V30 6858 C 656.261 -2.29626 -4.82883 0
M  V30 6859 C 657.561 -3.95781 -3.40815 0
M  V30 6860 H 659.255 -2.44037 -1.73453 0
M  V30 6861 H 656.801 -1.17456 -0.833071 0
M  V30 6862 H 658.754 -1.4445 -3.95869 0
M  V30 6863 H 657.478 -0.432716 -3.23721 0
M  V30 6864 H 656.137 -2.4932 -2.68766 0
M  V30 6865 H 655.785 -1.30226 -4.8585 0
M  V30 6866 H 655.485 -3.05065 -5.02204 0
M  V30 6867 H 657.009 -2.34897 -5.63609 0
M  V30 6868 H 658.423 -4.01508 -4.09224 0
M  V30 6869 H 656.82 -4.71148 -3.71672 0
M  V30 6870 H 657.89 -4.21786 -2.39216 0
M  V30 6871 N 659.233 0.902656 -1.29189 0
M  V30 6872 C 660.461 1.68639 -1.19869 0
M  V30 6873 C 660.876 1.87254 0.241121 0
M  V30 6874 O 660.233 1.40745 1.16177 0
M  V30 6875 C 660.284 3.07251 -1.90471 0
M  V30 6876 O 660.005 2.89488 -3.28829 0
M  V30 6877 C 661.506 4.01653 -1.8759 0
M  V30 6878 H 658.726 0.526802 -0.415596 0
M  V30 6879 H 661.27 1.12901 -1.7051 0
M  V30 6880 H 659.425 3.59774 -1.43672 0
M  V30 6881 H 659.839 3.77296 -3.64346 0
M  V30 6882 H 661.313 4.96339 -2.4156 0
M  V30 6883 H 661.79 4.30881 -0.850756 0
M  V30 6884 H 662.396 3.55061 -2.34119 0
M  V30 6885 N 660.711 1.11618 1.11262 0
M  V30 6886 C 661.661 0.745274 2.15475 0
M  V30 6887 C 662.645 -0.251585 1.58921 0
M  V30 6888 O 663.837 -0.0584093 1.76904 0
M  V30 6889 C 660.966 0.192128 3.42762 0
M  V30 6890 C 660.052 1.21676 4.0627 0
M  V30 6891 N 660.443 2.41158 4.44608 0
M  V30 6892 C 658.741 1.06013 4.33217 0
M  V30 6893 C 659.442 3.0652 4.94389 0
M  V30 6894 N 658.418 2.33994 4.9066 0
M  V30 6895 H 662.22 1.65462 2.42898 0
M  V30 6896 H 659.734 0.995695 1.28295 0
M  V30 6897 H 661.731 -0.0917339 4.16799 0
M  V30 6898 H 660.391 -0.711778 3.16802 0
M  V30 6899 H 661.402 2.786 4.3658 0
M  V30 6900 H 658.079 0.212809 4.16957 0
M  V30 6901 H 659.469 4.08225 5.33669 0
M  V30 6902 N 662.189 -1.289 0.906776 0
M  V30 6903 C 663.119 -2.29932 0.406659 0
M  V30 6904 C 664.1 -1.6189 -0.522061 0
M  V30 6905 O 665.285 -1.8935 -0.431283 0
M  V30 6906 C 662.415 -3.45425 -0.360366 0
M  V30 6907 C 661.369 -4.25316 0.478574 0
M  V30 6908 C 660.695 -5.33076 -0.416373 0
M  V30 6909 C 661.995 -4.92739 1.7322 0
M  V30 6910 H 663.689 -2.72013 1.25097 0
M  V30 6911 H 661.235 -1.30768 0.602977 0
M  V30 6912 H 663.188 -4.15186 -0.721029 0
M  V30 6913 H 661.912 -3.02206 -1.23852 0
M  V30 6914 H 660.571 -3.57273 0.821662 0
M  V30 6915 H 660.219 -4.86101 -1.29287 0
M  V30 6916 H 659.919 -5.8743 0.141309 0
M  V30 6917 H 661.443 -6.05686 -0.773072 0
M  V30 6918 H 662.857 -5.54898 1.44086 0
M  V30 6919 H 661.254 -5.57057 2.23175 0
M  V30 6920 H 662.324 -4.17625 2.46408 0
M  V30 6921 N 663.667 -0.670007 -1.42649 0
M  V30 6922 C 665.078 -0.268118 -1.84765 0
M  V30 6923 C 665.429 1.18877 -1.56086 0
M  V30 6924 O 664.554 1.90947 -1.01825 0
M  V30 6925 C 665.149 -0.47984 -3.35385 0
M  V30 6926 C 663.708 -0.132116 -3.76168 0
M  V30 6927 C 662.855 -0.774611 -2.66261 0
M  V30 6928 H 665.806 -0.872509 -1.32563 0
M  V30 6929 H 665.827 0.269522 -3.79544 0
M  V30 6930 H 665.339 -1.54026 -3.56227 0
M  V30 6931 H 663.44 0.92505 -3.60934 0
M  V30 6932 H 663.553 -0.569294 -4.75706 0
M  V30 6933 H 661.917 -0.206353 -2.53863 0
M  V30 6934 H 662.7 -1.83839 -2.89928 0
M  V30 6935 N 665.145 1.52092 -0.413018 0
M  V30 6936 C 666.095 2.23947 0.427993 0
M  V30 6937 C 667.079 1.25229 1.01027 0
M  V30 6938 O 668.271 1.50448 0.932444 0
M  V30 6939 C 665.4 3.0672 1.542 0
M  V30 6940 C 664.486 4.12851 0.970307 0
M  V30 6941 N 664.877 5.05644 0.125611 0
M  V30 6942 C 663.175 4.28404 1.24042 0
M  V30 6943 C 663.876 5.8138 -0.192876 0
M  V30 6944 N 662.852 5.41996 0.417273 0
M  V30 6945 H 666.654 2.93048 -0.223628 0
M  V30 6946 H 664.168 1.60852 -0.223664 0
M  V30 6947 H 666.165 3.56754 2.15714 0
M  V30 6948 H 664.825 2.39159 2.19621 0
M  V30 6949 H 665.836 5.17348 -0.238995 0
M  V30 6950 H 662.513 3.72071 1.89391 0
M  V30 6951 H 663.903 6.66129 -0.878762 0
M  V30 6952 N 666.623 0.143563 1.56945 0
M  V30 6953 C 668.039 -0.212877 1.58174 0
M  V30 6954 C 668.239 -1.64926 1.15766 0
M  V30 6955 O 667.295 -2.37535 0.856361 0
M  V30 6956 C 668.608 0.0427573 3.0067 0
M  V30 6957 C 670.156 -0.0212221 3.12993 0
M  V30 6958 C 670.631 0.207036 4.57532 0
M  V30 6959 N 672.122 0.153845 4.62944 0
M  V30 6960 C 672.857 0.305018 5.72588 0
M  V30 6961 N 672.353 0.513722 6.90893 0
M  V30 6962 N 674.146 0.242862 5.61575 0
M  V30 6963 H 666.297 1.08148 1.82805 0
M  V30 6964 H 668.56 0.427831 0.84597 0
M  V30 6965 H 668.266 1.03672 3.36073 0
M  V30 6966 H 668.14 -0.678195 3.71053 0
M  V30 6967 H 670.527 -1.00574 2.77433 0
M  V30 6968 H 670.608 0.732004 2.45103 0
M  V30 6969 H 670.252 1.18863 4.93795 0
M  V30 6970 H 670.182 -0.566473 5.23544 0
M  V30 6971 H 672.673 -0.00294866 3.779 0
M  V30 6972 H 672.986 0.619273 7.70315 0
M  V30 6973 H 671.331 0.550001 6.9282 0
M  V30 6974 H 674.522 0.0806015 4.68031 0
M  V30 6975 H 674.695 0.364112 6.46976 0
M  V30 6976 N 668.101 -1.57061 -0.130224 0
M  V30 6977 C 669.031 -2.02552 -1.16168 0
M  V30 6978 C 670.012 -0.907971 -1.4384 0
M  V30 6979 O 671.197 -1.17693 -1.54473 0
M  V30 6980 C 668.327 -2.42035 -2.49071 0
M  V30 6981 C 667.281 -3.5713 -2.35886 0
M  V30 6982 C 666.607 -3.82478 -3.7365 0
M  V30 6983 C 667.907 -4.89236 -1.8288 0
M  V30 6984 H 669.601 -2.8897 -0.783359 0
M  V30 6985 H 667.147 -1.39021 -0.375376 0
M  V30 6986 H 669.1 -2.72462 -3.21469 0
M  V30 6987 H 667.824 -1.52573 -2.88771 0
M  V30 6988 H 666.483 -3.26895 -1.65938 0
M  V30 6989 H 666.131 -2.9024 -4.10816 0
M  V30 6990 H 665.831 -4.59944 -3.65685 0
M  V30 6991 H 667.355 -4.15347 -4.47571 0
M  V30 6992 H 668.769 -5.18272 -2.45085 0
M  V30 6993 H 667.166 -5.70624 -1.85763 0
M  V30 6994 H 668.236 -4.78494 -0.785571 0
M  V30 6995 N 669.579 0.400081 -1.52437 0
M  V30 6996 C 670.826 1.14619 -1.6694 0
M  V30 6997 C 671.154 1.90262 -0.403797 0
M  V30 6998 O 670.409 1.85835 0.61351 0
M  V30 6999 C 670.708 2.15914 -2.84808 0
M  V30 7000 C 670.374 1.57011 -4.2268 0
M  V30 7001 C 669.036 1.40672 -4.60179 0
M  V30 7002 C 671.388 1.14081 -5.08562 0
M  V30 7003 C 668.716 0.799335 -5.81229 0
M  V30 7004 C 671.068 0.547573 -6.30226 0
M  V30 7005 C 669.732 0.371389 -6.66466 0
M  V30 7006 H 669.002 0.419419 -0.610875 0
M  V30 7007 H 671.649 0.432227 -1.86558 0
M  V30 7008 H 669.954 2.93488 -2.59561 0
M  V30 7009 H 671.651 2.73533 -2.93225 0
M  V30 7010 H 668.241 1.70713 -3.93135 0
M  V30 7011 H 672.425 1.2551 -4.80168 0
M  V30 7012 H 667.681 0.65093 -6.07925 0
M  V30 7013 H 671.855 0.206575 -6.96094 0
M  V30 7014 H 669.482 -0.10135 -7.60132 0
M  V30 7015 N 671.057 1.43213 0.657864 0
M  V30 7016 C 671.989 1.43974 1.78337 0
M  V30 7017 C 673.002 0.336482 1.59285 0
M  V30 7018 O 674.191 0.600631 1.68091 0
M  V30 7019 C 671.291 1.23242 3.15697 0
M  V30 7020 C 670.464 2.46319 3.61449 0
M  V30 7021 C 669.523 2.2088 4.77597 0
M  V30 7022 O 668.549 2.942 4.87273 0
M  V30 7023 N 669.751 1.22251 5.67481 0
M  V30 7024 H 672.516 2.40993 1.78164 0
M  V30 7025 H 670.077 1.3831 0.841549 0
M  V30 7026 H 672.069 1.04113 3.91079 0
M  V30 7027 H 670.639 0.346849 3.1067 0
M  V30 7028 H 669.859 2.80904 2.76563 0
M  V30 7029 H 671.147 3.28239 3.88763 0
M  V30 7030 H 670.545 0.616433 5.62331 0
M  V30 7031 H 669.102 1.09107 6.42603 0
M  V30 7032 N 672.536 -0.895792 1.29666 0
M  V30 7033 C 673.784 -1.64339 1.17631 0
M  V30 7034 C 674.105 -1.93099 -0.271643 0
M  V30 7035 O 673.375 -1.55981 -1.18518 0
M  V30 7036 H 671.955 -0.609162 0.432354 0
M  V30 7037 H 674.617 -1.07389 1.62646 0
M  V30 7038 H 673.713 -2.59815 1.72924 0
M  V30 7039 N 674.014 -1.12206 -1.10668 0
M  V30 7040 C 674.944 -0.810086 -2.18997 0
M  V30 7041 C 675.925 0.225065 -1.68604 0
M  V30 7042 O 677.11 0.086783 -1.94006 0
M  V30 7043 C 674.24 -0.261262 -3.46316 0
M  V30 7044 C 673.194 -1.2292 -4.09969 0
M  V30 7045 C 672.52 -0.540713 -5.31959 0
M  V30 7046 C 673.82 -2.58295 -4.53962 0
M  V30 7047 H 675.514 -1.7159 -2.45352 0
M  V30 7048 H 673.06 -0.82646 -1.17922 0
M  V30 7049 H 675.013 -0.0307522 -4.21389 0
M  V30 7050 H 673.737 0.679879 -3.19445 0
M  V30 7051 H 672.396 -1.44548 -3.369 0
M  V30 7052 H 672.044 0.405492 -5.01363 0
M  V30 7053 H 671.744 -1.18637 -5.75499 0
M  V30 7054 H 673.268 -0.319184 -6.09765 0
M  V30 7055 H 674.682 -2.40709 -5.20319 0
M  V30 7056 H 673.079 -3.18916 -5.08343 0
M  V30 7057 H 674.149 -3.16918 -3.67002 0
M  V30 7058 N 675.492 1.28418 -0.913599 0
M  V30 7059 C 676.74 1.94596 -0.545594 0
M  V30 7060 C 677.061 1.7227 0.913668 0
M  V30 7061 O 676.331 1.06233 1.64595 0
M  V30 7062 H 674.911 0.720065 -0.198783 0
M  V30 7063 H 677.573 1.56404 -1.16292 0
M  V30 7064 H 676.669 3.03202 -0.739911 0
M  V30 7065 N 676.97 0.677563 1.42291 0
M  V30 7066 C 677.917 0.000947061 2.308 0
M  V30 7067 C 678.887 -0.789889 1.46116 0
M  V30 7068 O 680.072 -0.761578 1.74942 0
M  V30 7069 C 677.212 -0.942387 3.31984 0
M  V30 7070 C 676.325 -0.14508 4.31756 0
M  V30 7071 C 675.46 -1.08442 5.20013 0
M  V30 7072 C 674.499 -0.278958 6.11464 0
M  V30 7073 N 673.636 -1.17115 6.92263 0
M  V30 7074 H 678.476 0.761521 2.88106 0
M  V30 7075 H 676.013 0.38727 1.41911 0
M  V30 7076 H 677.971 -1.50317 3.89179 0
M  V30 7077 H 676.601 -1.66956 2.76271 0
M  V30 7078 H 675.653 0.532368 3.76656 0
M  V30 7079 H 676.965 0.48015 4.96484 0
M  V30 7080 H 676.119 -1.71504 5.81955 0
M  V30 7081 H 674.858 -1.74353 4.55469 0
M  V30 7082 H 673.863 0.364856 5.48588 0
M  V30 7083 H 675.088 0.376099 6.78058 0
M  V30 7084 H 673.034 -1.81661 6.30345 0
M  V30 7085 H 672.951 -0.601063 7.53607 0
M  V30 7086 H 674.219 -1.78915 7.58689 0
M  V30 7087 N 678.448 -1.51871 0.421078 0
M  V30 7088 C 679.378 -2.30231 -0.389363 0
M  V30 7089 C 680.359 -1.34946 -1.03555 0
M  V30 7090 O 681.544 -1.63859 -1.04229 0
M  V30 7091 C 678.674 -3.13247 -1.49979 0
M  V30 7092 C 677.628 -4.16677 -0.977966 0
M  V30 7093 C 676.954 -4.88112 -2.1829 0
M  V30 7094 C 678.254 -5.22295 -0.0236775 0
M  V30 7095 H 679.948 -2.98229 0.264524 0
M  V30 7096 H 677.494 -1.43424 0.12866 0
M  V30 7097 H 679.447 -3.66838 -2.07383 0
M  V30 7098 H 678.171 -2.4304 -2.18173 0
M  V30 7099 H 676.83 -3.64114 -0.426245 0
M  V30 7100 H 676.478 -4.14423 -2.85066 0
M  V30 7101 H 676.178 -5.58041 -1.84021 0
M  V30 7102 H 677.702 -5.44521 -2.76278 0
M  V30 7103 H 679.116 -5.71055 -0.506899 0
M  V30 7104 H 677.513 -5.99656 0.230782 0
M  V30 7105 H 678.583 -4.76131 0.917999 0
M  V30 7106 N 679.926 -0.151884 -1.56866 0
M  V30 7107 C 680.836 0.798876 -2.20579 0
M  V30 7108 C 681.852 1.268 -1.19154 0
M  V30 7109 O 683.028 1.32418 -1.51748 0
M  V30 7110 C 680.093 2.01861 -2.81874 0
M  V30 7111 C 679.154 1.59825 -3.9844 0
M  V30 7112 C 678.387 2.75984 -4.56802 0
M  V30 7113 O 678.61 3.92331 -4.14044 0
M  V30 7114 O 677.544 2.51175 -5.46987 0
M  V30 7115 H 681.37 0.2865 -3.02346 0
M  V30 7116 H 678.955 0.0753806 -1.4921 0
M  V30 7117 H 680.837 2.73235 -3.20813 0
M  V30 7118 H 679.512 2.52042 -2.03117 0
M  V30 7119 H 678.419 0.854601 -3.64208 0
M  V30 7120 H 679.752 1.14355 -4.78731 0
M  V30 7121 N 681.404 1.57128 0.121893 0
M  V30 7122 C 682.634 1.88609 0.843227 0
M  V30 7123 C 683.042 0.740917 1.74089 0
M  V30 7124 O 682.385 -0.297426 1.81276 0
M  V30 7125 C 682.447 3.15073 1.73117 0
M  V30 7126 C 682.111 4.45742 1.0081 0
M  V30 7127 C 683.108 5.18719 0.350255 0
M  V30 7128 C 680.793 4.92444 0.99014 0
M  V30 7129 C 682.787 6.36617 -0.315889 0
M  V30 7130 C 680.474 6.10261 0.320196 0
M  V30 7131 C 681.472 6.82194 -0.331666 0
M  V30 7132 O 681.16 7.97769 -0.990927 0
M  V30 7133 H 680.892 0.628919 0.247865 0
M  V30 7134 H 683.446 2.05096 0.111725 0
M  V30 7135 H 681.676 2.9466 2.50424 0
M  V30 7136 H 683.365 3.32597 2.32667 0
M  V30 7137 H 684.131 4.83693 0.35577 0
M  V30 7138 H 680.01 4.36361 1.48695 0
M  V30 7139 H 683.554 6.92701 -0.825272 0
M  V30 7140 H 679.451 6.44743 0.312433 0
M  V30 7141 H 680.219 8.13591 -0.895113 0
M  V30 7142 N 682.882 -0.391992 1.52647 0
M  V30 7143 C 683.812 -1.48517 1.8018 0
M  V30 7144 C 684.793 -1.57039 0.653667 0
M  V30 7145 O 685.978 -1.72036 0.900962 0
M  V30 7146 C 683.108 -2.86161 1.96797 0
M  V30 7147 C 682.062 -2.92481 3.12472 0
M  V30 7148 C 681.388 -4.32546 3.14338 0
M  V30 7149 C 682.688 -2.624 4.51601 0
M  V30 7150 H 684.382 -1.25726 2.71723 0
M  V30 7151 H 681.928 -0.603387 1.30749 0
M  V30 7152 H 683.881 -3.62639 2.14641 0
M  V30 7153 H 682.605 -3.10283 1.01941 0
M  V30 7154 H 681.264 -2.18451 2.94406 0
M  V30 7155 H 680.912 -4.53703 2.1717 0
M  V30 7156 H 680.612 -4.37695 3.92042 0
M  V30 7157 H 682.136 -5.10934 3.34333 0
M  V30 7158 H 683.55 -3.28596 4.69785 0
M  V30 7159 H 681.947 -2.78903 5.3135 0
M  V30 7160 H 683.017 -1.57754 4.58521 0
M  V30 7161 N 684.36 -1.4356 -0.65026 0
M  V30 7162 C 685.29 -1.51758 -1.77459 0
M  V30 7163 C 686.271 -0.372019 -1.65982 0
M  V30 7164 O 687.456 -0.589627 -1.85033 0
M  V30 7165 C 684.586 -1.44302 -3.15902 0
M  V30 7166 C 683.54 -2.57138 -3.42146 0
M  V30 7167 C 682.866 -2.34735 -4.8042 0
M  V30 7168 C 684.166 -3.99373 -3.36598 0
M  V30 7169 H 685.86 -2.45863 -1.70855 0
M  V30 7170 H 683.406 -1.18333 -0.820566 0
M  V30 7171 H 685.359 -1.48641 -3.94314 0
M  V30 7172 H 684.083 -0.467026 -3.23244 0
M  V30 7173 H 682.742 -2.52157 -2.66106 0
M  V30 7174 H 682.39 -1.35372 -4.84441 0
M  V30 7175 H 682.09 -3.10375 -4.9894 0
M  V30 7176 H 683.614 -2.40862 -5.61086 0
M  V30 7177 H 685.028 -4.05826 -4.04942 0
M  V30 7178 H 683.425 -4.75063 -3.66654 0
M  V30 7179 H 684.495 -4.243 -2.34729 0
M  V30 7180 N 685.838 0.888903 -1.30139 0
M  V30 7181 C 686.768 2.01046 -1.18755 0
M  V30 7182 C 687.749 1.69916 -0.0791438 0
M  V30 7183 O 688.934 1.92445 -0.260498 0
M  V30 7184 C 686.064 3.36109 -0.874518 0
M  V30 7185 C 685.018 3.81486 -1.94043 0
M  V30 7186 C 684.344 5.13796 -1.48047 0
M  V30 7187 C 685.644 4.00637 -3.35093 0
M  V30 7188 H 687.338 2.10828 -2.12584 0
M  V30 7189 H 684.884 1.01298 -1.02346 0
M  V30 7190 H 686.837 4.14089 -0.781548 0
M  V30 7191 H 685.561 3.26449 0.0994519 0
M  V30 7192 H 684.22 3.05731 -2.02297 0
M  V30 7193 H 683.868 5.0056 -0.494878 0
M  V30 7194 H 683.568 5.45127 -2.19341 0
M  V30 7195 H 685.092 5.94305 -1.40121 0
M  V30 7196 H 686.506 4.69067 -3.2962 0
M  V30 7197 H 684.903 4.43339 -4.04438 0
M  V30 7198 H 685.973 3.0462 -3.77273 0
M  V30 7199 N 687.317 1.12792 1.10072 0
M  V30 7200 C 688.542 0.908838 1.86427 0
M  V30 7201 C 688.967 -0.536793 1.80278 0
M  V30 7202 O 688.325 -1.38033 1.17543 0
M  V30 7203 C 688.373 1.39295 3.3261 0
M  V30 7204 O 687.477 0.573846 4.08388 0
M  V30 7205 H 686.818 0.326234 0.578331 0
M  V30 7206 H 689.348 1.50094 1.39043 0
M  V30 7207 H 689.358 1.39366 3.83459 0
M  V30 7208 H 688.033 2.44555 3.36401 0
M  V30 7209 H 686.61 0.640438 3.67359 0
M  V30 7210 N 688.795 -1.27931 0.920396 0
M  V30 7211 C 690.211 -1.47085 0.619537 0
M  V30 7212 C 690.411 -1.83463 -0.833291 0
M  V30 7213 O 689.467 -1.94363 -1.61181 0
M  V30 7214 C 690.78 -2.56878 1.56314 0
M  V30 7215 C 692.328 -2.70743 1.57058 0
M  V30 7216 C 692.803 -3.83687 2.50097 0
M  V30 7217 N 694.294 -3.9105 2.48262 0
M  V30 7218 C 695.029 -4.77842 3.16945 0
M  V30 7219 N 694.525 -5.69176 3.94982 0
M  V30 7220 N 696.318 -4.71509 3.06 0
M  V30 7221 H 688.469 -1.02601 1.85975 0
M  V30 7222 H 690.732 -0.511682 0.798051 0
M  V30 7223 H 690.438 -2.36923 2.59923 0
M  V30 7224 H 690.312 -3.54117 1.29928 0
M  V30 7225 H 692.699 -2.90083 0.541832 0
M  V30 7226 H 692.78 -1.74015 1.8749 0
M  V30 7227 H 692.424 -3.65101 3.53077 0
M  V30 7228 H 692.354 -4.79827 2.16964 0
M  V30 7229 H 694.845 -3.25738 1.91581 0
M  V30 7230 H 695.158 -6.32245 4.44394 0
M  V30 7231 H 693.503 -5.68995 3.99086 0
M  V30 7232 H 696.694 -3.99151 2.44533 0
M  V30 7233 H 696.867 -5.38933 3.59799 0
M  V30 7234 N 690.273 -0.685099 -1.4193 0
M  V30 7235 C 691.221 -0.00165985 -2.326 0
M  V30 7236 C 692.215 0.779678 -1.50391 0
M  V30 7237 O 693.421 0.68648 -1.66395 0
M  V30 7238 H 689.796 0.0182616 -0.751778 0
M  V30 7239 H 691.767 -0.783592 -2.87928 0
M  V30 7240 C 690.516 0.928385 -3.35077 0
M  V30 7241 H 689.839 0.336578 -3.98381 0
M  V30 7242 H 691.279 1.37509 -4.01083 0
M  V30 7243 C 689.738 2.03964 -2.68142 0
M  V30 7244 O 690.268 3.12727 -2.5212 0
M  V30 7245 N 688.474 1.81433 -2.27003 0
M  V30 7246 H 688.021 0.929807 -2.40234 0
M  V30 7247 H 687.979 2.55973 -1.82552 0
M  V30 7248 N 691.751 1.51645 -0.429126 0
M  V30 7249 C 693.167 1.59394 -0.080994 0
M  V30 7250 C 693.367 1.44064 1.40882 0
M  V30 7251 O 692.423 1.27771 2.17786 0
M  V30 7252 C 693.736 2.94779 -0.593773 0
M  V30 7253 C 695.284 3.08067 -0.553494 0
M  V30 7254 C 695.759 4.45963 -1.04311 0
M  V30 7255 N 697.25 4.5226 -1.00076 0
M  V30 7256 C 697.985 5.57268 -1.35056 0
M  V30 7257 N 697.481 6.69734 -1.77282 0
M  V30 7258 N 699.274 5.47582 -1.26925 0
M  V30 7259 H 691.425 1.59856 -1.39857 0
M  V30 7260 H 693.688 0.753095 -0.575805 0
M  V30 7261 H 693.394 3.11342 -1.63583 0
M  V30 7262 H 693.268 3.77197 -0.0142202 0
M  V30 7263 H 695.655 2.91177 0.479556 0
M  V30 7264 H 695.736 2.27508 -1.16935 0
M  V30 7265 H 695.38 4.63598 -2.07459 0
M  V30 7266 H 695.31 5.25049 -0.403873 0
M  V30 7267 H 697.801 3.71537 -0.690564 0
M  V30 7268 H 698.114 7.4587 -2.02232 0
M  V30 7269 H 696.459 6.70963 -1.81202 0
M  V30 7270 H 699.65 4.58604 -0.93809 0
M  V30 7271 H 699.823 6.29308 -1.54516 0
M  V30 7272 N 693.229 0.160201 1.56784 0
M  V30 7273 C 694.159 -0.770264 2.2043 0
M  V30 7274 C 695.14 -1.24736 1.15651 0
M  V30 7275 O 696.325 -1.30253 1.44041 0
M  V30 7276 C 693.455 -2.00427 2.83631 0
M  V30 7277 C 692.409 -1.66345 3.94352 0
M  V30 7278 C 691.735 -2.97119 4.4455 0
M  V30 7279 C 693.035 -0.899972 5.14488 0
M  V30 7280 H 694.729 -0.239783 2.98438 0
M  V30 7281 H 692.275 -0.113891 1.43549 0
M  V30 7282 H 694.228 -2.66012 3.26827 0
M  V30 7283 H 692.952 -2.5587 2.02973 0
M  V30 7284 H 691.611 -1.03133 3.51794 0
M  V30 7285 H 691.259 -3.5058 3.60698 0
M  V30 7286 H 690.959 -2.75073 5.19238 0
M  V30 7287 H 692.483 -3.63753 4.90425 0
M  V30 7288 H 693.897 -1.45818 5.54446 0
M  V30 7289 H 692.294 -0.778968 5.95023 0
M  V30 7290 H 693.364 0.105827 4.84785 0
M  V30 7291 N 694.707 -1.5719 -0.113559 0
M  V30 7292 C 695.67 -1.99796 -1.12314 0
M  V30 7293 C 696.67 -0.888847 -1.34001 0
M  V30 7294 O 697.86 -1.15476 -1.30426 0
M  V30 7295 C 694.992 -2.34279 -2.47641 0
M  V30 7296 H 696.185 -2.90193 -0.756825 0
M  V30 7297 H 693.738 -1.52144 -0.358029 0
M  V30 7298 H 694.473 -1.46778 -2.89183 0
M  V30 7299 H 694.258 -3.15175 -2.33253 0
M  V30 7300 H 695.748 -2.67963 -3.2029 0
M  V30 7301 N 696.185 0.383891 -1.52853 0
M  V30 7302 C 697.095 1.49343 -1.80925 0
M  V30 7303 C 698.111 1.59458 -0.696348 0
M  V30 7304 O 699.287 1.75698 -0.984481 0
M  V30 7305 C 696.352 2.84819 -1.97684 0
M  V30 7306 C 695.413 2.84382 -3.21598 0
M  V30 7307 C 694.646 4.13397 -3.37548 0
M  V30 7308 O 694.869 5.08619 -2.58192 0
M  V30 7309 O 693.803 4.20325 -4.30826 0
M  V30 7310 H 697.629 1.2855 -2.75152 0
M  V30 7311 H 695.214 0.572229 -1.38007 0
M  V30 7312 H 697.096 3.65125 -2.10385 0
M  V30 7313 H 695.771 3.05627 -1.06647 0
M  V30 7314 H 694.678 2.0284 -3.14336 0
M  V30 7315 H 696.011 2.68526 -4.12498 0
M  V30 7316 N 697.663 1.43903 0.642637 0
M  V30 7317 C 698.593 1.52697 1.76652 0
M  V30 7318 C 699.574 0.380816 1.65782 0
M  V30 7319 O 700.759 0.599432 1.84717 0
M  V30 7320 C 697.889 1.45975 3.15133 0
M  V30 7321 C 696.843 2.58949 3.40778 0
M  V30 7322 C 696.169 2.37279 4.79169 0
M  V30 7323 C 697.469 4.01153 3.34475 0
M  V30 7324 H 699.163 2.46766 1.69549 0
M  V30 7325 H 696.709 1.18767 0.814279 0
M  V30 7326 H 698.662 1.5073 3.93521 0
M  V30 7327 H 697.386 0.484162 3.22991 0
M  V30 7328 H 696.045 2.53564 2.64765 0
M  V30 7329 H 695.693 1.37939 4.83717 0
M  V30 7330 H 695.393 3.13016 4.97287 0
M  V30 7331 H 696.917 2.43834 5.59801 0
M  V30 7332 H 698.331 4.07968 4.02784 0
M  V30 7333 H 696.728 4.77001 3.64129 0
M  V30 7334 H 697.798 4.25539 2.32475 0
M  V30 7335 N 699.141 -0.881989 1.30609 0
M  V30 7336 C 700.552 -1.44956 1.17664 0
M  V30 7337 C 700.903 -1.94945 -0.221531 0
M  V30 7338 O 700.028 -1.85257 -1.11844 0
M  V30 7339 C 700.623 -2.63474 2.12995 0
M  V30 7340 C 699.182 -3.16312 2.04019 0
M  V30 7341 C 698.329 -1.89008 2.02907 0
M  V30 7342 H 701.28 -0.691645 1.42835 0
M  V30 7343 H 701.301 -3.39783 1.71253 0
M  V30 7344 H 700.813 -2.2706 3.14746 0
M  V30 7345 H 698.914 -3.57376 1.0542 0
M  V30 7346 H 699.027 -3.79409 2.9255 0
M  V30 7347 H 697.391 -2.07465 1.47751 0
M  V30 7348 H 698.174 -1.54848 3.06394 0
M  V30 7349 N 700.619 -1.13374 -1.09472 0
M  V30 7350 C 701.582 -0.813639 -2.14272 0
M  V30 7351 C 702.582 0.176677 -1.59826 0
M  V30 7352 O 703.772 -0.0503441 -1.74127 0
M  V30 7353 C 700.904 -0.210897 -3.40247 0
M  V30 7354 H 702.097 -1.74229 -2.44099 0
M  V30 7355 H 699.65 -0.938304 -1.25002 0
M  V30 7356 H 700.385 0.726998 -3.16046 0
M  V30 7357 H 700.17 -0.924048 -3.81056 0
M  V30 7358 H 701.66 -0.00377603 -4.176 0
M  V30 7359 N 702.098 1.27442 -0.927168 0
M  V30 7360 C 703.375 1.89473 -0.485742 0
M  V30 7361 C 703.755 1.83922 1.03614 0
M  V30 7362 O 703.103 1.28409 1.89007 0
M  V30 7363 C 703.313 3.33417 -1.03123 0
M  V30 7364 C 704.661 4.10333 -1.0914 0
M  V30 7365 O 705.685 3.4243 -0.98082 0
M  V30 7366 O 704.544 5.31737 -1.26165 0
M  V30 7367 H 701.638 0.812124 -0.156154 0
M  V30 7368 H 704.184 1.35713 -1.01882 0
M  V30 7369 H 702.956 3.31747 -2.07508 0
M  V30 7370 H 702.579 3.94695 -0.479767 0
M  V30 7371 N 703.576 0.692616 1.41565 0
M  V30 7372 C 704.539 0.0344174 2.29174 0
M  V30 7373 C 705.539 -0.710961 1.44229 0
M  V30 7374 O 706.729 -0.546293 1.65412 0
M  V30 7375 C 703.861 -0.961682 3.27054 0
M  V30 7376 H 705.054 0.805755 2.88873 0
M  V30 7377 H 702.607 0.455947 1.49502 0
M  V30 7378 H 703.342 -1.76089 2.72329 0
M  V30 7379 H 703.127 -0.430375 3.89731 0
M  V30 7380 H 704.617 -1.4201 3.92712 0
M  V30 7381 N 705.054 -1.51416 0.437162 0
M  V30 7382 C 705.984 -2.30631 -0.364922 0
M  V30 7383 C 706.965 -1.36037 -1.02118 0
M  V30 7384 O 708.15 -1.64956 -1.02485 0
M  V30 7385 C 705.28 -3.1482 -1.46648 0
M  V30 7386 C 704.234 -4.17691 -0.933717 0
M  V30 7387 C 703.56 -4.904 -2.13101 0
M  V30 7388 C 704.86 -5.2229 0.0317201 0
M  V30 7389 H 706.554 -2.97932 0.29614 0
M  V30 7390 H 704.1 -1.4328 0.143865 0
M  V30 7391 H 706.053 -3.69017 -2.03481 0
M  V30 7392 H 704.777 -2.4534 -2.15583 0
M  V30 7393 H 703.436 -3.64545 -0.387602 0
M  V30 7394 H 703.084 -4.17423 -2.80654 0
M  V30 7395 H 702.784 -5.59962 -1.78092 0
M  V30 7396 H 704.308 -5.4742 -2.70487 0
M  V30 7397 H 705.722 -5.7156 -0.446302 0
M  V30 7398 H 704.119 -5.99378 0.29437 0
M  V30 7399 H 705.189 -4.75131 0.968447 0
M  V30 7400 N 706.532 -0.168513 -1.56696 0
M  V30 7401 C 707.78 0.476216 -1.96409 0
M  V30 7402 C 708.101 1.63968 -1.05544 0
M  V30 7403 O 707.371 1.95525 -0.121235 0
M  V30 7404 H 705.951 0.178921 -0.725256 0
M  V30 7405 H 708.613 -0.249042 -1.93302 0
M  V30 7406 H 707.709 0.838094 -3.00637 0
M  V30 7407 N 708.01 1.57248 0.105221 0
M  V30 7408 C 709.421 1.74612 0.660865 0
M  V30 7409 C 709.772 0.789231 1.79626 0
M  V30 7410 O 708.897 -0.0346611 2.16372 0
M  V30 7411 C 709.492 3.16624 1.20559 0
M  V30 7412 C 708.051 3.35447 1.7074 0
M  V30 7413 C 707.198 2.70445 0.612764 0
M  V30 7414 H 710.149 1.5824 -0.12079 0
M  V30 7415 H 710.17 3.18937 2.07508 0
M  V30 7416 H 709.682 3.86245 0.379012 0
M  V30 7417 H 707.783 2.7089 2.5583 0
M  V30 7418 H 707.896 4.43702 1.80736 0
M  V30 7419 H 706.26 2.32061 1.04975 0
M  V30 7420 H 707.043 3.42699 -0.203066 0
M  V30 7421 N 709.488 -0.375779 1.53054 0
M  V30 7422 C 710.418 -1.46598 1.81745 0
M  V30 7423 C 711.399 -1.56337 0.670286 0
M  V30 7424 O 712.584 -1.71071 0.919158 0
M  V30 7425 C 709.714 -2.84058 1.99821 0
M  V30 7426 C 708.668 -2.8915 3.15557 0
M  V30 7427 C 707.994 -4.29187 3.18908 0
M  V30 7428 C 709.294 -2.57595 4.54359 0
M  V30 7429 H 710.988 -1.22837 2.73041 0
M  V30 7430 H 708.534 -0.589485 1.31381 0
M  V30 7431 H 710.487 -3.60342 2.18475 0
M  V30 7432 H 709.211 -3.09184 1.05226 0
M  V30 7433 H 707.87 -2.15316 2.96706 0
M  V30 7434 H 707.518 -4.51374 2.2197 0
M  V30 7435 H 707.218 -4.33512 3.96662 0
M  V30 7436 H 708.742 -5.07359 3.39734 0
M  V30 7437 H 710.156 -3.23595 4.73243 0
M  V30 7438 H 708.553 -2.73252 5.34279 0
M  V30 7439 H 709.623 -1.52882 4.60169 0
M  V30 7440 N 710.966 -1.44241 -0.634997 0
M  V30 7441 C 711.898 -1.46793 -1.76024 0
M  V30 7442 C 712.911 -0.361781 -1.58729 0
M  V30 7443 O 714.1 -0.627297 -1.67114 0
M  V30 7444 C 711.2 -1.28248 -3.13697 0
M  V30 7445 C 710.373 -2.52038 -3.57485 0
M  V30 7446 C 709.432 -2.2845 -4.74022 0
M  V30 7447 O 708.458 -3.01915 -4.82531 0
M  V30 7448 N 709.66 -1.31264 -5.65464 0
M  V30 7449 H 712.425 -2.43797 -1.74307 0
M  V30 7450 H 709.986 -1.39631 -0.819438 0
M  V30 7451 H 711.978 -1.10321 -3.89373 0
M  V30 7452 H 710.548 -0.39623 -3.10079 0
M  V30 7453 H 709.768 -2.85268 -2.72059 0
M  V30 7454 H 711.056 -3.34382 -3.83492 0
M  V30 7455 H 710.454 -0.705817 -5.6128 0
M  V30 7456 H 709.011 -1.19316 -6.40786 0
M  V30 7457 N 712.444 0.87505 -1.31075 0
M  V30 7458 C 713.86 1.15997 -1.09622 0
M  V30 7459 C 714.06 2.01036 0.136611 0
M  V30 7460 O 713.116 2.38559 0.827397 0
M  V30 7461 C 714.429 1.85702 -2.36506 0
M  V30 7462 C 715.977 1.98425 -2.42067 0
M  V30 7463 C 716.452 2.71544 -3.68819 0
M  V30 7464 N 717.943 2.79084 -3.69684 0
M  V30 7465 C 718.678 3.36259 -4.64454 0
M  V30 7466 N 718.174 3.94406 -5.69575 0
M  V30 7467 N 719.967 3.34169 -4.51982 0
M  V30 7468 H 712.118 0.308258 -2.10151 0
M  V30 7469 H 714.381 0.199145 -0.926847 0
M  V30 7470 H 714.087 1.30663 -3.26527 0
M  V30 7471 H 713.961 2.86017 -2.45915 0
M  V30 7472 H 716.348 2.5263 -1.52518 0
M  V30 7473 H 716.429 0.971682 -2.36626 0
M  V30 7474 H 716.073 2.18008 -4.58732 0
M  V30 7475 H 716.003 3.73198 -3.71525 0
M  V30 7476 H 718.494 2.3781 -2.93691 0
M  V30 7477 H 718.807 4.36129 -6.37974 0
M  V30 7478 H 717.152 3.92797 -5.73355 0
M  V30 7479 H 720.343 2.87977 -3.69035 0
M  V30 7480 H 720.516 3.78431 -5.26017 0
M  V30 7481 N 713.922 1.13953 1.08869 0
M  V30 7482 C 714.885 0.824991 2.13838 0
M  V30 7483 C 715.885 -0.168198 1.59918 0
M  V30 7484 O 717.075 0.0595778 1.74098 0
M  V30 7485 C 714.207 0.228938 3.4013 0
M  V30 7486 H 715.4 1.75521 2.43171 0
M  V30 7487 H 712.953 0.94492 1.24503 0
M  V30 7488 H 713.688 -0.710227 3.16427 0
M  V30 7489 H 713.473 0.944243 3.80561 0
M  V30 7490 H 714.963 0.0259223 4.17592 0
M  V30 7491 N 715.4 -1.26948 0.933913 0
M  V30 7492 C 716.647 -1.94087 0.577625 0
M  V30 7493 C 716.975 -1.73345 -0.88214 0
M  V30 7494 O 716.23 -1.05945 -1.64542 0
M  V30 7495 C 716.529 -3.46963 0.857406 0
M  V30 7496 C 716.195 -3.87834 2.2999 0
M  V30 7497 C 714.857 -3.98704 2.69423 0
M  V30 7498 C 717.209 -4.08442 3.23766 0
M  V30 7499 C 714.537 -4.27573 4.01744 0
M  V30 7500 C 716.889 -4.38798 4.55675 0
M  V30 7501 C 715.553 -4.47881 4.94934 0
M  V30 7502 H 714.823 -0.710215 0.211368 0
M  V30 7503 H 717.47 -1.50899 1.17905 0
M  V30 7504 H 715.775 -3.91416 0.173369 0
M  V30 7505 H 717.472 -3.97062 0.560615 0
M  V30 7506 H 714.062 -3.79916 1.98399 0
M  V30 7507 H 718.246 -3.99479 2.94499 0
M  V30 7508 H 713.502 -4.32815 4.31834 0
M  V30 7509 H 717.676 -4.5369 5.28335 0
M  V30 7510 H 715.303 -4.70005 5.97495 0
M  V30 7511 N 716.879 -0.700114 -1.41195 0
M  V30 7512 C 718.125 -0.242122 -2.01954 0
M  V30 7513 C 718.48 1.14697 -1.54475 0
M  V30 7514 O 717.773 1.76392 -0.748095 0
M  V30 7515 C 717.967 -0.243986 -3.56566 0
M  V30 7516 C 717.796 -1.63172 -4.19053 0
M  V30 7517 C 716.566 -2.23566 -4.53152 0
M  V30 7518 C 718.764 -2.57916 -4.44954 0
M  V30 7519 N 716.746 -3.54856 -5.00949 0
M  V30 7520 C 718.117 -3.73892 -4.94576 0
M  V30 7521 C 720.172 -2.56125 -4.26971 0
M  V30 7522 C 718.875 -4.88363 -5.28104 0
M  V30 7523 C 720.901 -3.69712 -4.61592 0
M  V30 7524 C 720.263 -4.84418 -5.11389 0
M  V30 7525 H 716.362 -0.134088 -0.770418 0
M  V30 7526 H 718.946 -0.918576 -1.71669 0
M  V30 7527 H 717.117 0.401971 -3.86314 0
M  V30 7528 H 718.849 0.229261 -4.0405 0
M  V30 7529 H 715.604 -1.75809 -4.39759 0
M  V30 7530 H 716.028 -4.22167 -5.29249 0
M  V30 7531 H 720.67 -1.68656 -3.87705 0
M  V30 7532 H 718.388 -5.76488 -5.66292 0
M  V30 7533 H 721.974 -3.69583 -4.49332 0
M  V30 7534 H 720.854 -5.70855 -5.37675 0
M  V30 7535 N 718.357 1.51182 -0.445186 0
M  V30 7536 C 719.287 2.30821 0.352686 0
M  V30 7537 C 720.268 1.36576 1.01395 0
M  V30 7538 O 721.453 1.65497 1.01609 0
M  V30 7539 C 718.583 3.15593 1.44976 0
M  V30 7540 C 717.537 4.1818 0.911553 0
M  V30 7541 C 716.863 4.91523 2.10497 0
M  V30 7542 C 718.163 5.22266 -0.059418 0
M  V30 7543 H 719.857 2.97771 -0.311936 0
M  V30 7544 H 717.403 1.43201 -0.151461 0
M  V30 7545 H 719.356 3.70091 2.01521 0
M  V30 7546 H 718.08 2.4648 2.14278 0
M  V30 7547 H 716.739 3.64746 0.368264 0
M  V30 7548 H 716.387 4.18906 2.78437 0
M  V30 7549 H 716.087 5.60898 1.7512 0
M  V30 7550 H 717.611 5.48847 2.6758 0
M  V30 7551 H 719.025 5.71789 0.415985 0
M  V30 7552 H 717.422 5.99213 -0.326152 0
M  V30 7553 H 718.492 4.7461 -0.993631 0
M  V30 7554 N 719.835 0.176821 1.56605 0
M  V30 7555 C 721.112 -0.513365 1.88743 0
M  V30 7556 C 721.492 -1.80929 1.08757 0
M  V30 7557 O 720.84 -2.27765 0.183127 0
M  V30 7558 C 721.05 -0.749925 3.40848 0
M  V30 7559 C 722.398 -1.07747 4.10701 0
M  V30 7560 O 723.422 -0.838277 3.46196 0
M  V30 7561 O 722.281 -1.52901 5.24675 0
M  V30 7562 H 719.375 -0.265296 0.783292 0
M  V30 7563 H 721.921 0.215669 1.68324 0
M  V30 7564 H 720.693 0.16599 3.90948 0
M  V30 7565 H 720.316 -1.53208 3.66897 0
M  V30 7566 N 721.313 -1.57302 -0.09688 0
M  V30 7567 C 722.559 -1.86273 -0.801885 0
M  V30 7568 C 722.892 -0.765694 -1.78468 0
M  V30 7569 O 722.167 0.226495 -1.93177 0
M  V30 7570 C 722.45 -3.25876 -1.53221 0
M  V30 7571 C 722.303 -4.46205 -0.567529 0
M  V30 7572 C 723.622 -3.63352 -2.48321 0
M  V30 7573 H 720.741 -0.67752 -0.29006 0
M  V30 7574 H 723.383 -1.89887 -0.0655577 0
M  V30 7575 H 721.533 -3.22926 -2.15988 0
M  V30 7576 H 723.205 -4.6127 0.0529982 0
M  V30 7577 H 721.448 -4.33636 0.119233 0
M  V30 7578 H 722.119 -5.40608 -1.11564 0
M  V30 7579 H 724.595 -3.67234 -1.95648 0
M  V30 7580 H 723.471 -4.61968 -2.9644 0
M  V30 7581 H 723.732 -2.91941 -3.31998 0
M  V30 7582 N 722.791 0.367657 -1.53252 0
M  V30 7583 C 724.016 1.13566 -1.73544 0
M  V30 7584 C 724.441 1.82329 -0.462344 0
M  V30 7585 O 723.799 1.71655 0.583472 0
M  V30 7586 C 723.847 2.14322 -2.89997 0
M  V30 7587 O 722.951 3.21359 -2.58461 0
M  V30 7588 H 722.292 0.329614 -0.576412 0
M  V30 7589 H 724.822 0.425417 -2.00128 0
M  V30 7590 H 724.832 2.57958 -3.16104 0
M  V30 7591 H 723.507 1.63664 -3.82344 0
M  V30 7592 H 722.084 2.8271 -2.43165 0
M  V30 7593 N 724.269 1.44576 0.627338 0
M  V30 7594 C 725.219 1.48168 1.73293 0
M  V30 7595 C 726.203 0.347045 1.57113 0
M  V30 7596 O 727.395 0.592605 1.66785 0
M  V30 7597 C 724.524 1.43236 3.11991 0
M  V30 7598 C 723.61 2.61828 3.33627 0
M  V30 7599 N 724.001 3.87053 3.25612 0
M  V30 7600 C 722.299 2.57104 3.64436 0
M  V30 7601 C 723 4.66093 3.48041 0
M  V30 7602 N 721.976 3.97228 3.71095 0
M  V30 7603 H 725.778 2.42832 1.6556 0
M  V30 7604 H 723.292 1.39592 0.829934 0
M  V30 7605 H 725.289 1.43893 3.91281 0
M  V30 7606 H 723.949 0.496133 3.20887 0
M  V30 7607 H 724.96 4.18966 3.04447 0
M  V30 7608 H 721.637 1.72295 3.8029 0
M  V30 7609 H 723.027 5.75117 3.47404 0
M  V30 7610 N 725.747 -0.868086 1.31537 0
M  V30 7611 C 726.695 -1.99688 1.1928 0
M  V30 7612 C 727.689 -1.69101 0.100656 0
M  V30 7613 O 728.895 -1.78073 0.262677 0
M  V30 7614 H 725.27 -0.655032 0.369374 0
M  V30 7615 H 727.241 -2.07157 2.14776 0
M  V30 7616 C 725.99 -3.35338 0.918892 0
M  V30 7617 H 725.313 -3.59396 1.75142 0
M  V30 7618 H 726.753 -4.14909 0.873311 0
M  V30 7619 C 725.212 -3.34769 -0.378366 0
M  V30 7620 O 725.742 -3.76716 -1.39456 0
M  V30 7621 N 723.948 -2.87895 -0.39557 0
M  V30 7622 H 723.495 -2.53954 0.431889 0
M  V30 7623 H 723.453 -2.87897 -1.26344 0
M  V30 7624 N 727.225 -1.14528 -1.08264 0
M  V30 7625 C 728.641 -0.885976 -1.3275 0
M  V30 7626 C 728.841 0.472096 -1.95892 0
M  V30 7627 O 727.897 1.21606 -2.21288 0
M  V30 7628 C 729.21 -2.01982 -2.22764 0
M  V30 7629 C 730.758 -2.05329 -2.36239 0
M  V30 7630 C 731.233 -3.1801 -3.29596 0
M  V30 7631 N 732.724 -3.17598 -3.37173 0
M  V30 7632 C 733.459 -4.01426 -4.09444 0
M  V30 7633 N 732.955 -4.95297 -4.8441 0
M  V30 7634 N 734.748 -3.89482 -4.0529 0
M  V30 7635 H 726.899 -2.01996 -0.656607 0
M  V30 7636 H 729.162 -0.880274 -0.351884 0
M  V30 7637 H 728.868 -2.99964 -1.83615 0
M  V30 7638 H 728.742 -1.94421 -3.23234 0
M  V30 7639 H 731.129 -1.07953 -2.74646 0
M  V30 7640 H 731.21 -2.1696 -1.35506 0
M  V30 7641 H 730.854 -4.15633 -2.9191 0
M  V30 7642 H 730.784 -3.03616 -4.30261 0
M  V30 7643 H 733.275 -2.4961 -2.83731 0
M  V30 7644 H 733.588 -5.55723 -5.37021 0
M  V30 7645 H 731.933 -4.99293 -4.83457 0
M  V30 7646 H 735.124 -3.15465 -3.45832 0
M  V30 7647 H 735.297 -4.55039 -4.6135 0
M  V30 7648 N 728.703 1.26451 -0.940633 0
M  V30 7649 C 729.633 2.28773 -0.467479 0
M  V30 7650 C 730.614 1.63218 0.478955 0
M  V30 7651 O 731.799 1.90427 0.380929 0
M  V30 7652 C 728.929 3.46259 0.268656 0
M  V30 7653 C 727.883 4.23898 -0.591171 0
M  V30 7654 C 727.209 5.33993 0.274891 0
M  V30 7655 C 728.509 4.87974 -1.86223 0
M  V30 7656 H 730.203 2.68601 -1.32265 0
M  V30 7657 H 727.749 1.29123 -0.637436 0
M  V30 7658 H 729.702 4.16951 0.610696 0
M  V30 7659 H 728.426 3.05383 1.15796 0
M  V30 7660 H 727.085 3.54969 -0.916098 0
M  V30 7661 H 726.733 4.89358 1.16353 0
M  V30 7662 H 726.433 5.86849 -0.297006 0
M  V30 7663 H 727.957 6.07523 0.612213 0
M  V30 7664 H 729.371 5.50883 -1.58747 0
M  V30 7665 H 727.768 5.50945 -2.37866 0
M  V30 7666 H 728.838 4.10945 -2.57394 0
M  V30 7667 N 730.181 0.707592 1.40822 0
M  V30 7668 C 731.091 0.0507246 2.34545 0
M  V30 7669 C 732.107 -0.752727 1.56876 0
M  V30 7670 O 733.283 -0.687524 1.89302 0
M  V30 7671 C 730.348 -0.865731 3.35717 0
M  V30 7672 C 729.409 -0.0531313 4.29267 0
M  V30 7673 C 728.642 -0.925939 5.25606 0
M  V30 7674 O 728.865 -2.16531 5.27703 0
M  V30 7675 O 727.799 -0.369194 6.00767 0
M  V30 7676 H 731.625 0.823587 2.9232 0
M  V30 7677 H 729.21 0.46801 1.4188 0
M  V30 7678 H 731.092 -1.39091 3.97783 0
M  V30 7679 H 729.767 -1.61788 2.80368 0
M  V30 7680 H 728.674 0.516931 3.70511 0
M  V30 7681 H 730.007 0.660617 4.87747 0
M  V30 7682 N 731.66 -1.50943 0.453197 0
M  V30 7683 C 732.623 -2.26684 -0.338705 0
M  V30 7684 C 733.623 -1.30748 -0.936032 0
M  V30 7685 O 734.813 -1.54327 -0.808002 0
M  V30 7686 C 731.945 -3.07063 -1.48071 0
M  V30 7687 H 733.138 -2.98131 0.325289 0
M  V30 7688 H 730.691 -1.54926 0.206771 0
M  V30 7689 H 731.426 -2.4007 -2.18029 0
M  V30 7690 H 731.211 -3.77545 -1.0584 0
M  V30 7691 H 732.701 -3.64393 -2.0398 0
M  V30 7692 N 733.138 -0.185124 -1.56509 0
M  V30 7693 C 734.068 0.735098 -2.21627 0
M  V30 7694 C 735.049 1.2288 -1.1762 0
M  V30 7695 O 736.234 1.27945 -1.46095 0
M  V30 7696 C 733.364 1.95889 -2.86783 0
M  V30 7697 C 732.318 1.6005 -3.96948 0
M  V30 7698 C 731.644 2.90009 -4.4922 0
M  V30 7699 C 732.944 0.818008 -5.15855 0
M  V30 7700 H 734.638 0.192274 -2.98782 0
M  V30 7701 H 732.184 0.0910393 -1.43712 0
M  V30 7702 H 734.137 2.60779 -3.31017 0
M  V30 7703 H 732.861 2.52608 -2.07018 0
M  V30 7704 H 731.52 0.975237 -3.5339 0
M  V30 7705 H 731.168 3.44797 -3.6623 0
M  V30 7706 H 730.868 2.66778 -5.23549 0
M  V30 7707 H 732.392 3.55904 -4.9615 0
M  V30 7708 H 733.806 1.36979 -5.56695 0
M  V30 7709 H 732.203 0.684207 -5.96187 0
M  V30 7710 H 733.273 -0.182939 -4.84555 0
M  V30 7711 N 734.616 1.57351 0.0885366 0
M  V30 7712 C 736.027 1.75303 0.642308 0
M  V30 7713 C 736.378 0.808238 1.78779 0
M  V30 7714 O 735.503 -0.01171 2.16397 0
M  V30 7715 C 736.098 3.17885 1.17194 0
M  V30 7716 C 734.657 3.37239 1.67172 0
M  V30 7717 C 733.804 2.7108 0.584045 0
M  V30 7718 H 736.755 1.58103 -0.137567 0
M  V30 7719 H 736.776 3.2112 2.04114 0
M  V30 7720 H 736.288 3.86625 0.338024 0
M  V30 7721 H 734.389 2.73588 2.52943 0
M  V30 7722 H 734.502 4.45594 1.76019 0
M  V30 7723 H 732.866 2.33161 1.02508 0
M  V30 7724 H 733.649 3.42464 -0.239403 0
M  V30 7725 N 736.094 -0.359525 1.53444 0
M  V30 7726 C 737.042 -1.46104 1.80987 0
M  V30 7727 C 738.036 -1.55181 0.679351 0
M  V30 7728 O 739.242 -1.57995 0.862405 0
M  V30 7729 H 735.617 -0.486835 0.573145 0
M  V30 7730 H 737.588 -1.2008 2.73173 0
M  V30 7731 C 736.337 -2.82855 2.02208 0
M  V30 7732 H 735.66 -2.76631 2.88644 0
M  V30 7733 H 737.1 -3.59091 2.25455 0
M  V30 7734 C 735.559 -3.27192 0.802931 0
M  V30 7735 O 736.089 -4.017 -0.00544286 0
M  V30 7736 N 734.295 -2.83807 0.624657 0
M  V30 7737 H 733.842 -2.23339 1.28364 0
M  V30 7738 H 733.8 -3.13828 -0.189641 0
M  V30 7739 N 737.572 -1.44907 -0.619662 0
M  V30 7740 C 738.797 -1.52021 -1.41083 0
M  V30 7741 C 739.222 -0.14976 -1.87503 0
M  V30 7742 O 738.58 0.863303 -1.59426 0
M  V30 7743 C 738.628 -2.49911 -2.59955 0
M  V30 7744 O 737.732 -2.00857 -3.60181 0
M  V30 7745 H 737.073 -0.512912 -0.421684 0
M  V30 7746 H 739.603 -1.90149 -0.755282 0
M  V30 7747 H 739.613 -2.68323 -3.07354 0
M  V30 7748 H 738.288 -3.4945 -2.25516 0
M  V30 7749 H 736.865 -1.92265 -3.19513 0
M  V30 7750 N 739.05 0.861098 -1.31996 0
M  V30 7751 C 739.98 1.98482 -1.22993 0
M  V30 7752 C 740.961 1.6971 -0.115168 0
M  V30 7753 O 742.146 1.91849 -0.30126 0
M  V30 7754 C 739.276 3.34179 -0.945615 0
M  V30 7755 C 738.23 3.77284 -2.02091 0
M  V30 7756 C 737.556 5.1054 -1.58912 0
M  V30 7757 C 738.856 3.93439 -3.43515 0
M  V30 7758 H 740.55 2.06271 -2.17008 0
M  V30 7759 H 738.096 0.991043 -1.04472 0
M  V30 7760 H 740.049 4.12338 -0.869206 0
M  V30 7761 H 738.773 3.26586 0.0301849 0
M  V30 7762 H 737.432 3.01371 -2.08737 0
M  V30 7763 H 737.08 4.99397 -0.600942 0
M  V30 7764 H 736.78 5.40352 -2.30854 0
M  V30 7765 H 738.304 5.91199 -1.52696 0
M  V30 7766 H 739.718 4.6197 -3.39495 0
M  V30 7767 H 738.115 4.34661 -4.13751 0
M  V30 7768 H 739.185 2.96548 -3.8365 0
M  V30 7769 N 740.528 1.15101 1.07655 0
M  V30 7770 C 741.458 0.867864 2.16773 0
M  V30 7771 C 742.439 -0.180283 1.69142 0
M  V30 7772 O 743.624 -0.0353152 1.94168 0
M  V30 7773 C 740.754 0.35299 3.45501 0
M  V30 7774 C 739.708 1.33746 4.06566 0
M  V30 7775 C 739.034 0.681562 5.30338 0
M  V30 7776 C 740.334 2.7024 4.46954 0
M  V30 7777 H 742.028 1.78034 2.40716 0
M  V30 7778 H 739.574 0.857435 1.15689 0
M  V30 7779 H 741.527 0.142465 4.21159 0
M  V30 7780 H 740.251 -0.594945 3.21135 0
M  V30 7781 H 738.91 1.53429 3.32949 0
M  V30 7782 H 738.558 -0.272422 5.02262 0
M  V30 7783 H 738.258 1.33853 5.72151 0
M  V30 7784 H 739.782 0.48074 6.08705 0
M  V30 7785 H 741.196 2.5442 5.13754 0
M  V30 7786 H 739.593 3.32282 4.99709 0
M  V30 7787 H 740.663 3.26537 3.58471 0
M  V30 7788 N 742.006 -1.2595 0.947325 0
M  V30 7789 C 742.969 -2.24407 0.466285 0
M  V30 7790 C 743.969 -1.55054 -0.426005 0
M  V30 7791 O 745.159 -1.7275 -0.224319 0
M  V30 7792 C 742.291 -3.39326 -0.327201 0
M  V30 7793 H 743.484 -2.68477 1.33642 0
M  V30 7794 H 741.037 -1.38211 0.729887 0
M  V30 7795 H 741.772 -3.00667 -1.21532 0
M  V30 7796 H 741.557 -3.9085 0.312839 0
M  V30 7797 H 743.047 -4.12455 -0.653477 0
M  V30 7798 N 743.484 -0.715051 -1.40445 0
M  V30 7799 C 744.895 -0.326763 -1.83818 0
M  V30 7800 C 745.246 1.13851 -1.59789 0
M  V30 7801 O 744.371 1.87611 -1.07848 0
M  V30 7802 C 744.966 -0.586297 -3.33688 0
M  V30 7803 C 743.525 -0.251724 -3.75557 0
M  V30 7804 C 742.672 -0.858928 -2.63662 0
M  V30 7805 H 745.623 -0.914241 -1.2972 0
M  V30 7806 H 745.644 0.148636 -3.8021 0
M  V30 7807 H 745.156 -1.65281 -3.51146 0
M  V30 7808 H 743.257 0.809754 -3.63695 0
M  V30 7809 H 743.37 -0.720348 -4.73654 0
M  V30 7810 H 741.734 -0.287013 -2.53078 0
M  V30 7811 H 742.517 -1.9297 -2.83932 0
M  V30 7812 N 744.962 1.50701 -0.461195 0
M  V30 7813 C 745.892 2.31182 0.328184 0
M  V30 7814 C 746.873 1.37644 0.999408 0
M  V30 7815 O 748.058 1.66565 0.99848 0
M  V30 7816 C 745.188 3.17113 1.41621 0
M  V30 7817 C 744.142 4.19124 0.867148 0
M  V30 7818 C 743.468 4.93728 2.05272 0
M  V30 7819 C 744.768 5.22174 -0.114808 0
M  V30 7820 H 746.462 2.97423 -0.343501 0
M  V30 7821 H 744.008 1.43033 -0.166641 0
M  V30 7822 H 745.961 3.72208 1.97584 0
M  V30 7823 H 744.685 2.48739 2.11652 0
M  V30 7824 H 743.344 3.65116 0.329557 0
M  V30 7825 H 742.992 4.21835 2.73978 0
M  V30 7826 H 742.692 5.62724 1.69161 0
M  V30 7827 H 744.216 5.51654 2.61744 0
M  V30 7828 H 745.63 5.72198 0.355316 0
M  V30 7829 H 744.027 5.98833 -0.389689 0
M  V30 7830 H 745.097 4.7353 -1.04391 0
M  V30 7831 N 746.441 0.193421 1.56409 0
M  V30 7832 C 747.689 -0.444908 1.97142 0
M  V30 7833 C 748.01 -1.62268 1.08139 0
M  V30 7834 O 747.28 -1.95307 0.152326 0
M  V30 7835 H 745.86 -0.16736 0.728011 0
M  V30 7836 H 748.522 0.279763 1.92882 0
M  V30 7837 H 747.618 -0.790159 3.01932 0
M  V30 7838 N 747.919 -1.57396 -0.0801906 0
M  V30 7839 C 749.335 -1.53564 -0.434778 0
M  V30 7840 C 749.535 -0.912372 -1.79661 0
M  V30 7841 O 748.591 -0.511268 -2.4727 0
M  V30 7842 C 749.904 -2.98244 -0.383561 0
M  V30 7843 C 751.452 -3.09536 -0.46435 0
M  V30 7844 C 751.927 -4.55851 -0.443128 0
M  V30 7845 N 753.418 -4.60456 -0.503448 0
M  V30 7846 C 754.153 -5.71135 -0.509106 0
M  V30 7847 N 753.649 -6.91203 -0.47008 0
M  V30 7848 N 755.442 -5.59353 -0.555035 0
M  V30 7849 H 747.593 -1.96281 0.811635 0
M  V30 7850 H 749.856 -0.898041 0.303689 0
M  V30 7851 H 749.562 -3.47369 0.550236 0
M  V30 7852 H 749.436 -3.57705 -1.19694 0
M  V30 7853 H 751.823 -2.6039 -1.38857 0
M  V30 7854 H 751.904 -2.53 0.377445 0
M  V30 7855 H 751.548 -5.05653 0.477207 0
M  V30 7856 H 751.478 -5.10242 -1.30234 0
M  V30 7857 H 753.969 -3.74048 -0.538199 0
M  V30 7858 H 754.282 -7.7132 -0.478091 0
M  V30 7859 H 752.627 -6.93625 -0.436897 0
M  V30 7860 H 755.818 -4.64453 -0.583158 0
M  V30 7861 H 755.991 -6.4561 -0.555976 0
M  V30 7862 N 749.397 0.351382 -1.53633 0
M  V30 7863 C 750.327 1.43688 -1.84055 0
M  V30 7864 C 751.308 1.55251 -0.695073 0
M  V30 7865 O 752.493 1.69587 -0.946257 0
M  V30 7866 C 749.623 2.80843 -2.04315 0
M  V30 7867 C 748.577 2.84094 -3.20117 0
M  V30 7868 C 747.903 4.2406 -3.25696 0
M  V30 7869 C 749.203 2.50334 -4.58399 0
M  V30 7870 H 750.897 1.18478 -2.74961 0
M  V30 7871 H 748.443 0.568509 -1.32303 0
M  V30 7872 H 750.396 3.56821 -2.2418 0
M  V30 7873 H 749.12 3.07471 -1.10132 0
M  V30 7874 H 747.779 2.10568 -3.00094 0
M  V30 7875 H 747.427 4.47785 -2.29123 0
M  V30 7876 H 747.127 4.27147 -4.03509 0
M  V30 7877 H 748.651 5.0189 -3.47762 0
M  V30 7878 H 750.065 3.16025 -4.78332 0
M  V30 7879 H 748.462 2.64717 -5.38558 0
M  V30 7880 H 749.532 1.45542 -4.62543 0
M  V30 7881 N 750.875 1.45233 0.611969 0
M  V30 7882 C 752.291 1.29542 0.932251 0
M  V30 7883 C 752.491 0.24523 2.00002 0
M  V30 7884 O 751.547 -0.362333 2.49887 0
M  V30 7885 C 752.86 2.67301 1.37733 0
M  V30 7886 C 754.408 2.75163 1.49178 0
M  V30 7887 C 754.883 4.13437 1.97064 0
M  V30 7888 N 756.374 4.15709 2.04304 0
M  V30 7889 C 757.109 5.19566 2.42568 0
M  V30 7890 N 756.605 6.33771 2.79832 0
M  V30 7891 N 758.398 5.06923 2.42869 0
M  V30 7892 H 750.549 2.12192 -0.0938679 0
M  V30 7893 H 752.812 0.947775 0.0206569 0
M  V30 7894 H 752.518 3.45318 0.666951 0
M  V30 7895 H 752.392 2.95472 2.3447 0
M  V30 7896 H 754.779 1.97453 2.19309 0
M  V30 7897 H 754.86 2.50712 0.507674 0
M  V30 7898 H 754.504 4.91631 1.27521 0
M  V30 7899 H 754.434 4.35277 2.9638 0
M  V30 7900 H 756.925 3.33293 1.78113 0
M  V30 7901 H 757.238 7.08815 3.07898 0
M  V30 7902 H 755.583 6.37179 2.77538 0
M  V30 7903 H 758.774 4.1675 2.1316 0
M  V30 7904 H 758.947 5.87981 2.72364 0
M  V30 7905 N 752.353 -0.854086 1.3245 0
M  V30 7906 C 753.583 -1.63836 1.25862 0
M  V30 7907 C 753.991 -1.88383 -0.175588 0
M  V30 7908 O 753.334 -1.45353 -1.1233 0
M  V30 7909 C 753.396 -3.02068 1.94923 0
M  V30 7910 C 753.06 -3.0056 3.44257 0
M  V30 7911 C 754.057 -2.77368 4.39731 0
M  V30 7912 C 751.742 -3.21177 3.862 0
M  V30 7913 C 753.736 -2.74797 5.75122 0
M  V30 7914 C 751.423 -3.18234 5.217 0
M  V30 7915 C 752.421 -2.95072 6.15972 0
M  V30 7916 O 752.109 -2.92003 7.48992 0
M  V30 7917 H 751.841 -0.517007 0.435523 0
M  V30 7918 H 754.395 -1.07314 1.75137 0
M  V30 7919 H 752.625 -3.60382 1.40219 0
M  V30 7920 H 754.314 -3.62791 1.82037 0
M  V30 7921 H 755.08 -2.61205 4.08653 0
M  V30 7922 H 750.959 -3.38231 3.13243 0
M  V30 7923 H 754.503 -2.56638 6.48678 0
M  V30 7924 H 750.4 -3.33941 5.52407 0
M  V30 7925 H 751.168 -3.07953 7.58358 0
M  V30 7926 N 753.831 -1.1567 -1.07043 0
M  V30 7927 C 754.761 -0.879348 -2.16309 0
M  V30 7928 C 755.742 0.171311 -1.69235 0
M  V30 7929 O 756.927 0.0250175 -1.94184 0
M  V30 7930 C 754.057 -0.371307 -3.45309 0
M  V30 7931 C 753.011 -1.359 -4.05851 0
M  V30 7932 C 752.337 -0.709678 -5.29969 0
M  V30 7933 C 753.637 -2.72606 -4.45514 0
M  V30 7934 H 755.331 -1.79308 -2.39768 0
M  V30 7935 H 752.877 -0.863558 -1.15233 0
M  V30 7936 H 754.83 -0.164798 -4.21078 0
M  V30 7937 H 753.554 0.577906 -3.21446 0
M  V30 7938 H 752.213 -1.55193 -3.32131 0
M  V30 7939 H 751.861 0.245782 -5.02399 0
M  V30 7940 H 751.561 -1.36886 -5.71433 0
M  V30 7941 H 753.085 -0.513015 -6.08441 0
M  V30 7942 H 754.499 -2.57141 -5.12398 0
M  V30 7943 H 752.896 -3.34927 -4.97939 0
M  V30 7944 H 753.966 -3.28434 -3.56734 0
M  V30 7945 N 755.309 1.25446 -0.953992 0
M  V30 7946 C 756.534 1.97755 -0.625129 0
M  V30 7947 C 756.959 1.70437 0.795787 0
M  V30 7948 O 756.317 0.95992 1.53803 0
M  V30 7949 C 756.365 3.49463 -0.889251 0
M  V30 7950 O 755.469 4.12387 0.0322757 0
M  V30 7951 H 754.81 0.61998 -0.237742 0
M  V30 7952 H 757.34 1.59582 -1.28041 0
M  V30 7953 H 757.35 3.99772 -0.815263 0
M  V30 7954 H 756.025 3.68676 -1.92487 0
M  V30 7955 H 754.602 3.72782 -0.0938625 0
M  V30 7956 N 756.787 0.722489 1.40064 0
M  V30 7957 C 757.717 0.0892452 2.33329 0
M  V30 7958 C 758.698 -0.737992 1.53257 0
M  V30 7959 O 759.883 -0.685516 1.81698 0
M  V30 7960 C 757.013 -0.828139 3.37282 0
M  V30 7961 C 755.967 -0.106005 4.27869 0
M  V30 7962 C 755.293 -1.13957 5.22415 0
M  V30 7963 C 756.593 1.04395 5.11761 0
M  V30 7964 H 758.287 0.868269 2.86534 0
M  V30 7965 H 755.833 0.418982 1.3777 0
M  V30 7966 H 757.786 -1.28058 4.01471 0
M  V30 7967 H 756.51 -1.63914 2.82489 0
M  V30 7968 H 755.169 0.326683 3.65142 0
M  V30 7969 H 754.817 -1.9438 4.63924 0
M  V30 7970 H 754.517 -0.661233 5.83868 0
M  V30 7971 H 756.041 -1.59197 5.89482 0
M  V30 7972 H 757.455 0.670541 5.69365 0
M  V30 7973 H 755.852 1.4511 5.82291 0
M  V30 7974 H 756.922 1.87144 4.47331 0
M  V30 7975 N 758.265 -1.50454 0.469181 0
M  V30 7976 C 759.681 -1.59124 0.123226 0
M  V30 7977 C 759.881 -1.47749 -1.37013 0
M  V30 7978 O 758.937 -1.335 -2.14322 0
M  V30 7979 C 760.25 -2.93101 0.67172 0
M  V30 7980 C 761.798 -3.06491 0.634978 0
M  V30 7981 C 762.273 -4.43041 1.16098 0
M  V30 7982 N 763.764 -4.49448 1.12031 0
M  V30 7983 C 764.499 -5.53491 1.49784 0
M  V30 7984 N 763.995 -6.64798 1.94976 0
M  V30 7985 N 765.788 -5.44025 1.41399 0
M  V30 7986 H 757.939 -1.56091 1.44046 0
M  V30 7987 H 760.202 -0.737564 0.59557 0
M  V30 7988 H 759.908 -3.06895 1.7178 0
M  V30 7989 H 759.782 -3.77027 0.114222 0
M  V30 7990 H 762.169 -2.92346 -0.402187 0
M  V30 7991 H 762.25 -2.24328 1.22926 0
M  V30 7992 H 761.894 -4.57935 2.19677 0
M  V30 7993 H 761.824 -5.23794 0.542939 0
M  V30 7994 H 764.315 -3.69575 0.788828 0
M  V30 7995 H 764.628 -7.40246 2.21936 0
M  V30 7996 H 762.973 -6.65923 1.98927 0
M  V30 7997 H 766.164 -4.55955 1.05935 0
M  V30 7998 H 766.337 -6.2499 1.71147 0
M  V30 7999 N 759.743 -0.201713 -1.56304 0
M  V30 8000 C 760.691 0.733133 -2.20744 0
M  V30 8001 C 761.685 1.2148 -1.18064 0
M  V30 8002 O 762.891 1.17692 -1.36193 0
M  V30 8003 H 759.266 0.254789 -0.707521 0
M  V30 8004 H 761.237 0.165996 -2.97938 0
M  V30 8005 C 759.986 1.93925 -2.88597 0
M  V30 8006 H 759.309 1.5777 -3.67353 0
M  V30 8007 H 760.749 2.57158 -3.37114 0
M  V30 8008 C 759.208 2.78219 -1.89989 0
M  V30 8009 O 759.738 3.76353 -1.40432 0
M  V30 8010 N 757.944 2.43847 -1.58072 0
M  V30 8011 H 757.491 1.64103 -1.98565 0
M  V30 8012 H 757.449 3.0053 -0.923524 0
M  V30 8013 N 761.222 1.57436 0.0718424 0
M  V30 8014 C 762.17 2.04725 1.10411 0
M  V30 8015 C 763.164 0.952579 1.4008 0
M  V30 8016 O 764.37 1.13769 1.39487 0
M  V30 8017 H 760.745 0.652749 0.373393 0
M  V30 8018 H 762.716 2.90569 0.679126 0
M  V30 8019 C 761.465 2.5068 2.40946 0
M  V30 8020 H 760.788 3.34505 2.18967 0
M  V30 8021 H 762.228 2.87521 3.11621 0
M  V30 8022 C 760.687 1.38971 3.06902 0
M  V30 8023 O 761.217 0.731786 3.94978 0
M  V30 8024 N 759.423 1.13485 2.67525 0
M  V30 8025 H 758.97 1.67168 1.95991 0
M  V30 8026 H 758.928 0.389467 3.11978 0
M  V30 8027 N 762.7 -0.34323 1.53817 0
M  V30 8028 C 763.925 -1.1079 1.75329 0
M  V30 8029 C 764.35 -1.81571 0.491293 0
M  V30 8030 O 763.708 -1.72561 -0.556089 0
M  V30 8031 C 763.756 -2.09681 2.9337 0
M  V30 8032 O 762.86 -3.17207 2.63541 0
M  V30 8033 H 762.201 -0.320402 0.581583 0
M  V30 8034 H 764.731 -0.393525 2.0078 0
M  V30 8035 H 764.741 -2.52897 3.20168 0
M  V30 8036 H 763.416 -1.5756 3.84899 0
M  V30 8037 H 761.993 -2.78806 2.47632 0
M  V30 8038 N 764.178 -1.45556 -0.604258 0
M  V30 8039 C 765.108 -1.57327 -1.72541 0
M  V30 8040 C 766.089 -0.424637 -1.64714 0
M  V30 8041 O 767.274 -0.648196 -1.83063 0
M  V30 8042 C 764.404 -1.54279 -3.11152 0
M  V30 8043 C 763.358 -2.67893 -3.33792 0
M  V30 8044 C 762.684 -2.499 -4.72709 0
M  V30 8045 C 763.984 -4.0988 -3.23722 0
M  V30 8046 H 765.678 -2.51175 -1.62947 0
M  V30 8047 H 763.224 -1.20884 -0.782504 0
M  V30 8048 H 765.177 -1.6111 -3.89386 0
M  V30 8049 H 763.901 -0.569627 -3.21594 0
M  V30 8050 H 762.56 -2.60495 -2.57949 0
M  V30 8051 H 762.208 -1.50715 -4.79889 0
M  V30 8052 H 761.908 -3.26091 -4.88813 0
M  V30 8053 H 763.432 -2.5859 -5.5314 0
M  V30 8054 H 764.846 -4.18503 -3.91826 0
M  V30 8055 H 763.243 -4.86487 -3.51355 0
M  V30 8056 H 764.313 -4.31553 -2.21111 0
M  V30 8057 N 765.656 0.84705 -1.32902 0
M  V30 8058 C 767.072 1.13645 -1.12058 0
M  V30 8059 C 767.272 2.01281 0.093937 0
M  V30 8060 O 766.328 2.4026 0.776608 0
M  V30 8061 C 767.641 1.80644 -2.40392 0
M  V30 8062 C 769.189 1.93246 -2.46221 0
M  V30 8063 C 769.664 2.6366 -3.74496 0
M  V30 8064 N 771.155 2.71179 -3.75521 0
M  V30 8065 C 771.89 3.26332 -4.71482 0
M  V30 8066 N 771.386 3.82236 -5.77813 0
M  V30 8067 N 773.179 3.24507 -4.58968 0
M  V30 8068 H 765.33 0.263612 -2.10758 0
M  V30 8069 H 767.593 0.17944 -0.930863 0
M  V30 8070 H 767.299 1.23708 -3.29225 0
M  V30 8071 H 767.173 2.80736 -2.51926 0
M  V30 8072 H 769.56 2.49338 -1.57843 0
M  V30 8073 H 769.641 0.921272 -2.38634 0
M  V30 8074 H 769.285 2.08229 -4.63253 0
M  V30 8075 H 769.215 3.65234 -3.79357 0
M  V30 8076 H 771.706 2.31527 -2.9867 0
M  V30 8077 H 772.019 4.22499 -6.47082 0
M  V30 8078 H 770.364 3.80546 -5.81558 0
M  V30 8079 H 773.555 2.80085 -3.7506 0
M  V30 8080 H 773.728 3.67188 -5.33926 0
M  V30 8081 N 767.134 1.16236 1.06428 0
M  V30 8082 C 768.362 0.967184 1.82902 0
M  V30 8083 C 768.777 -0.484601 1.82475 0
M  V30 8084 O 768.134 -1.33631 1.24294 0
M  V30 8085 C 768.185 1.48534 3.29576 0
M  V30 8086 O 767.906 2.88026 3.3011 0
M  V30 8087 C 769.407 1.33298 4.22784 0
M  V30 8088 H 766.627 0.342923 0.576754 0
M  V30 8089 H 769.171 1.54232 1.34286 0
M  V30 8090 H 767.326 0.952513 3.75508 0
M  V30 8091 H 767.74 3.11721 4.21818 0
M  V30 8092 H 769.214 1.74385 5.23731 0
M  V30 8093 H 769.691 0.278356 4.38317 0
M  V30 8094 H 770.297 1.85535 3.82697 0
M  V30 8095 N 768.612 -1.24939 0.960631 0
M  V30 8096 C 769.859 -1.92818 0.618663 0
M  V30 8097 C 770.187 -1.75177 -0.845173 0
M  V30 8098 O 769.442 -1.09412 -1.62258 0
M  V30 8099 C 769.741 -3.45066 0.930809 0
M  V30 8100 C 769.407 -3.82869 2.38164 0
M  V30 8101 C 768.069 -3.92899 2.7782 0
M  V30 8102 C 770.421 -4.01483 3.32356 0
M  V30 8103 C 767.749 -4.18955 4.10723 0
M  V30 8104 C 770.101 -4.29033 4.6488 0
M  V30 8105 C 768.765 -4.37282 5.04322 0
M  V30 8106 H 768.035 -0.705571 0.226385 0
M  V30 8107 H 770.682 -1.48365 1.21079 0
M  V30 8108 H 768.987 -3.9096 0.256355 0
M  V30 8109 H 770.684 -3.95783 0.644712 0
M  V30 8110 H 767.274 -3.75622 2.06413 0
M  V30 8111 H 771.458 -3.93143 3.02907 0
M  V30 8112 H 766.714 -4.23558 4.40918 0
M  V30 8113 H 770.888 -4.42381 5.3784 0
M  V30 8114 H 768.515 -4.57225 6.0733 0
M  V30 8115 N 770.09 -0.729906 -1.39679 0
M  V30 8116 C 771.318 -0.285709 -2.04918 0
M  V30 8117 C 771.733 1.07765 -1.55023 0
M  V30 8118 O 771.09 1.67999 -0.712923 0
M  V30 8119 C 771.141 -0.272793 -3.60469 0
M  V30 8120 O 770.862 -1.58233 -4.08527 0
M  V30 8121 C 772.363 0.188199 -4.429 0
M  V30 8122 H 769.583 -0.125758 -0.65911 0
M  V30 8123 H 772.127 -0.992129 -1.78821 0
M  V30 8124 H 770.282 0.384699 -3.85485 0
M  V30 8125 H 770.696 -1.49245 -5.02818 0
M  V30 8126 H 772.17 0.14608 -5.51807 0
M  V30 8127 H 772.647 1.2326 -4.21549 0
M  V30 8128 H 773.253 -0.439541 -4.23023 0
M  V30 8129 N 771.568 1.50203 -0.477153 0
M  V30 8130 C 772.979 1.86685 -0.0235041 0
M  V30 8131 C 773.33 1.39148 1.38319 0
M  V30 8132 O 772.455 0.759051 2.02651 0
M  V30 8133 C 773.05 3.38781 -0.0358767 0
M  V30 8134 C 771.609 3.74652 0.362327 0
M  V30 8135 C 770.756 2.7412 -0.41875 0
M  V30 8136 H 773.707 1.4286 -0.691133 0
M  V30 8137 H 773.728 3.72732 0.764924 0
M  V30 8138 H 773.24 3.73349 -1.05981 0
M  V30 8139 H 771.341 3.45686 1.39039 0
M  V30 8140 H 771.454 4.79063 0.059457 0
M  V30 8141 H 769.818 2.54376 0.128341 0
M  V30 8142 H 770.601 3.11532 -1.44231 0
M  V30 8143 N 773.046 0.209999 1.56195 0
M  V30 8144 C 773.978 -0.736967 2.17029 0
M  V30 8145 C 774.991 -1.16599 1.13616 0
M  V30 8146 O 776.18 -1.09914 1.40646 0
M  V30 8147 C 773.28 -2.00852 2.72969 0
M  V30 8148 C 772.453 -1.73691 4.01435 0
M  V30 8149 C 771.512 -2.85439 4.42053 0
M  V30 8150 O 770.538 -2.54405 5.09183 0
M  V30 8151 N 771.74 -4.14135 4.06783 0
M  V30 8152 H 774.505 -0.216656 2.98916 0
M  V30 8153 H 772.066 0.0285672 1.61875 0
M  V30 8154 H 774.058 -2.74778 2.97118 0
M  V30 8155 H 772.628 -2.43963 1.95451 0
M  V30 8156 H 771.848 -0.834676 3.85262 0
M  V30 8157 H 773.136 -1.52961 4.85263 0
M  V30 8158 H 772.534 -4.42196 3.52816 0
M  V30 8159 H 771.091 -4.84642 4.35851 0
M  V30 8160 N 774.524 -1.57472 -0.0634922 0
M  V30 8161 C 775.935 -1.76303 -0.614337 0
M  V30 8162 C 776.286 -0.836578 -1.77471 0
M  V30 8163 O 775.411 -0.0227184 -2.16388 0
M  V30 8164 C 776.006 -3.19709 -1.12122 0
M  V30 8165 C 774.565 -3.39856 -1.61786 0
M  V30 8166 C 773.712 -2.71975 -0.540845 0
M  V30 8167 H 776.663 -1.57864 0.162702 0
M  V30 8168 H 776.684 -3.24326 -1.98979 0
M  V30 8169 H 776.196 -3.87114 -0.276472 0
M  V30 8170 H 774.297 -2.77578 -2.48558 0
M  V30 8171 H 774.41 -4.48338 -1.68908 0
M  V30 8172 H 772.774 -2.34763 -0.987854 0
M  V30 8173 H 773.557 -3.4204 0.293856 0
M  V30 8174 N 776.003 0.335068 -1.53997 0
M  V30 8175 C 777.414 0.910191 -1.6301 0
M  V30 8176 C 777.765 1.89271 -0.516809 0
M  V30 8177 O 776.89 2.13516 0.352123 0
M  V30 8178 C 777.485 1.65761 -2.9548 0
M  V30 8179 C 776.044 2.18163 -3.06728 0
M  V30 8180 C 775.191 1.00338 -2.5851 0
M  V30 8181 H 778.142 0.112965 -1.58297 0
M  V30 8182 H 778.163 2.52107 -2.84995 0
M  V30 8183 H 777.675 0.94227 -3.76488 0
M  V30 8184 H 775.776 2.92847 -2.30372 0
M  V30 8185 H 775.889 2.43952 -4.1234 0
M  V30 8186 H 774.253 1.37925 -2.14124 0
M  V30 8187 H 775.036 0.30254 -3.41964 0
M  V30 8188 N 777.481 1.45874 0.596531 0
M  V30 8189 C 778.729 1.5017 1.35253 0
M  V30 8190 C 779.05 0.149246 1.94428 0
M  V30 8191 O 778.32 -0.82268 1.77789 0
M  V30 8192 H 776.9 0.553052 0.502138 0
M  V30 8193 H 779.562 1.81908 0.699671 0
M  V30 8194 H 778.658 2.24671 2.16632 0
M  V30 8195 N 778.959 -0.83999 1.33349 0
M  V30 8196 C 779.889 -1.965 1.26135 0
M  V30 8197 C 780.87 -1.69505 0.142152 0
M  V30 8198 O 782.055 -1.91346 0.331743 0
M  V30 8199 C 779.185 -3.32632 0.99866 0
M  V30 8200 C 778.139 -3.74021 2.08068 0
M  V30 8201 C 777.465 -5.07947 1.67014 0
M  V30 8202 C 778.765 -3.87925 3.49731 0
M  V30 8203 H 780.459 -2.02793 2.20262 0
M  V30 8204 H 778.005 -0.974297 1.06035 0
M  V30 8205 H 779.958 -4.10903 0.934696 0
M  V30 8206 H 778.682 -3.26593 0.0217759 0
M  V30 8207 H 777.341 -2.98012 2.13505 0
M  V30 8208 H 776.989 -4.98378 0.680316 0
M  V30 8209 H 776.689 -5.36611 2.39422 0
M  V30 8210 H 778.213 -5.88695 1.62082 0
M  V30 8211 H 779.627 -4.5651 3.46802 0
M  V30 8212 H 778.024 -4.28023 4.20614 0
M  V30 8213 H 779.094 -2.90407 3.88319 0
M  V30 8214 N 780.437 -1.16799 -1.0581 0
M  V30 8215 C 781.347 -0.893492 -2.16919 0
M  V30 8216 C 782.363 0.136061 -1.73467 0
M  V30 8217 O 783.539 -0.0417348 -2.01357 0
M  V30 8218 C 780.604 -0.403763 -3.44341 0
M  V30 8219 C 779.665 -1.49914 -4.02274 0
M  V30 8220 C 778.898 -1.03269 -5.23614 0
M  V30 8221 O 779.121 0.115647 -5.70283 0
M  V30 8222 O 778.055 -1.8231 -5.73626 0
M  V30 8223 H 781.881 -1.82274 -2.42919 0
M  V30 8224 H 779.466 -0.948361 -1.1544 0
M  V30 8225 H 781.348 -0.137874 -4.21174 0
M  V30 8226 H 780.023 0.497413 -3.19855 0
M  V30 8227 H 778.93 -1.81883 -3.26909 0
M  V30 8228 H 780.263 -2.3758 -4.31064 0
M  V30 8229 N 781.915 1.24427 -0.967243 0
M  V30 8230 C 783.331 1.44684 -0.6737 0
M  V30 8231 C 783.531 1.86429 0.764625 0
M  V30 8232 O 782.587 2.00211 1.53857 0
M  V30 8233 C 783.9 2.509 -1.6574 0
M  V30 8234 C 785.448 2.64728 -1.66998 0
M  V30 8235 C 785.923 3.7414 -2.64165 0
M  V30 8236 N 787.414 3.81567 -2.62604 0
M  V30 8237 C 788.149 4.6575 -3.34462 0
M  V30 8238 N 787.645 5.54124 -4.15835 0
M  V30 8239 N 789.438 4.59827 -3.23288 0
M  V30 8240 H 781.589 0.956276 -1.89655 0
M  V30 8241 H 783.852 0.48171 -0.816492 0
M  V30 8242 H 783.558 2.27113 -2.68538 0
M  V30 8243 H 783.432 3.4905 -1.42981 0
M  V30 8244 H 785.819 2.87872 -0.649121 0
M  V30 8245 H 785.9 1.66936 -1.93819 0
M  V30 8246 H 785.544 3.51745 -3.66384 0
M  V30 8247 H 785.474 4.71444 -2.34623 0
M  V30 8248 H 787.965 3.18403 -2.03539 0
M  V30 8249 H 788.278 6.15316 -4.67553 0
M  V30 8250 H 786.623 5.53791 -4.19929 0
M  V30 8251 H 789.814 3.898 -2.59179 0
M  V30 8252 H 789.987 5.25208 -3.79553 0
M  V30 8253 N 783.393 0.737304 1.3929 0
M  V30 8254 C 784.323 0.113988 2.33222 0
M  V30 8255 C 785.304 -0.721695 1.54031 0
M  V30 8256 O 786.489 -0.666206 1.82415 0
M  V30 8257 C 783.619 -0.792319 3.38141 0
M  V30 8258 C 782.573 -0.0606178 4.27957 0
M  V30 8259 C 781.899 -1.08409 5.23595 0
M  V30 8260 C 783.199 1.09817 5.10625 0
M  V30 8261 H 784.893 0.898611 2.85596 0
M  V30 8262 H 782.439 0.433571 1.37318 0
M  V30 8263 H 784.392 -1.23793 4.02807 0
M  V30 8264 H 783.116 -1.60908 2.84211 0
M  V30 8265 H 781.775 0.365393 3.64775 0
M  V30 8266 H 781.423 -1.89449 4.6596 0
M  V30 8267 H 781.123 -0.599269 5.84536 0
M  V30 8268 H 782.647 -1.52936 5.91137 0
M  V30 8269 H 784.061 0.730892 5.68622 0
M  V30 8270 H 782.458 1.51278 5.80719 0
M  V30 8271 H 783.528 1.91878 4.45321 0
M  V30 8272 N 784.871 -1.49948 0.485112 0
M  V30 8273 C 786.117 -2.0332 -0.0571625 0
M  V30 8274 C 786.472 -1.35951 -1.36144 0
M  V30 8275 O 785.765 -0.480871 -1.85467 0
M  V30 8276 C 785.959 -3.56282 -0.282434 0
M  V30 8277 C 785.788 -4.38476 0.998455 0
M  V30 8278 C 784.558 -4.81076 1.54576 0
M  V30 8279 C 786.756 -4.78013 1.89758 0
M  V30 8280 N 784.738 -5.47641 2.77421 0
M  V30 8281 C 786.109 -5.44133 2.97186 0
M  V30 8282 C 788.164 -4.59963 1.90627 0
M  V30 8283 C 786.867 -5.94113 4.0549 0
M  V30 8284 C 788.893 -5.10893 2.97897 0
M  V30 8285 C 788.255 -5.77 4.04043 0
M  V30 8286 H 784.354 -0.781758 0.0194642 0
M  V30 8287 H 786.938 -1.833 0.65644 0
M  V30 8288 H 785.109 -3.76219 -0.965083 0
M  V30 8289 H 786.841 -3.96299 -0.820298 0
M  V30 8290 H 783.596 -4.60814 1.09304 0
M  V30 8291 H 784.02 -5.85521 3.39844 0
M  V30 8292 H 788.662 -4.08274 1.09875 0
M  V30 8293 H 786.38 -6.44832 4.8705 0
M  V30 8294 H 789.966 -4.98748 2.9957 0
M  V30 8295 H 788.846 -6.15698 4.85681 0
M  V30 8296 N 786.349 -0.21828 -1.56081 0
M  V30 8297 C 787.279 0.687922 -2.23136 0
M  V30 8298 C 788.26 1.20357 -1.202 0
M  V30 8299 O 789.445 1.24817 -1.48776 0
M  V30 8300 C 786.575 1.89762 -2.90874 0
M  V30 8301 C 785.529 1.51595 -4.00254 0
M  V30 8302 C 784.855 2.80415 -4.55271 0
M  V30 8303 C 786.155 0.708404 -5.17474 0
M  V30 8304 H 787.849 0.128854 -2.99123 0
M  V30 8305 H 785.395 0.0605354 -1.43873 0
M  V30 8306 H 787.348 2.53699 -3.36474 0
M  V30 8307 H 786.072 2.4816 -2.1233 0
M  V30 8308 H 784.731 0.900058 -3.55379 0
M  V30 8309 H 784.379 3.36951 -3.73461 0
M  V30 8310 H 784.079 2.55613 -5.2909 0
M  V30 8311 H 785.603 3.453 -5.03587 0
M  V30 8312 H 787.017 1.2514 -5.59476 0
M  V30 8313 H 785.414 0.557593 -5.97504 0
M  V30 8314 H 786.484 -0.285679 -4.84058 0
M  V30 8315 N 787.827 1.57504 0.0551401 0
M  V30 8316 C 788.737 2.08198 1.08124 0
M  V30 8317 C 789.753 1.01496 1.41331 0
M  V30 8318 O 790.929 1.33073 1.51174 0
M  V30 8319 C 787.994 2.52968 2.37083 0
M  V30 8320 C 787.055 3.7404 2.10696 0
M  V30 8321 C 786.288 4.16665 3.33505 0
M  V30 8322 O 786.511 3.59019 4.4324 0
M  V30 8323 O 785.445 5.09324 3.20737 0
M  V30 8324 H 789.271 2.95977 0.680518 0
M  V30 8325 H 786.856 1.46933 0.270401 0
M  V30 8326 H 788.738 2.82211 3.12946 0
M  V30 8327 H 787.413 1.6831 2.76502 0
M  V30 8328 H 786.32 3.49855 1.32484 0
M  V30 8329 H 787.653 4.59601 1.76148 0
M  V30 8330 N 789.305 -0.326896 1.54172 0
M  V30 8331 C 790.553 -1.06313 1.71878 0
M  V30 8332 C 790.874 -1.88652 0.493498 0
M  V30 8333 O 790.144 -1.89608 -0.492522 0
M  V30 8334 H 788.724 -0.39549 0.633716 0
M  V30 8335 H 791.386 -0.364139 1.91468 0
M  V30 8336 H 790.482 -1.73105 2.59694 0
M  V30 8337 N 790.784 -1.46188 -0.588786 0
M  V30 8338 C 791.732 -1.56653 -1.71938 0
M  V30 8339 C 792.726 -0.435354 -1.6371 0
M  V30 8340 O 793.932 -0.611996 -1.69277 0
M  V30 8341 H 790.307 -0.492408 -0.568365 0
M  V30 8342 H 792.278 -2.51724 -1.60242 0
M  V30 8343 C 791.027 -1.56822 -3.10326 0
M  V30 8344 H 790.35 -2.43198 -3.17325 0
M  V30 8345 H 791.79 -1.68199 -3.89211 0
M  V30 8346 C 790.249 -0.295802 -3.35599 0
M  V30 8347 O 790.779 0.616515 -3.96941 0
M  V30 8348 N 788.985 -0.185609 -2.90007 0
M  V30 8349 H 788.532 -0.928914 -2.40269 0
M  V30 8350 H 788.49 0.664883 -3.07289 0
M  V30 8351 N 792.262 0.832906 -1.33792 0
M  V30 8352 C 793.673 1.40489 -1.22963 0
M  V30 8353 C 794.024 1.95633 0.149026 0
M  V30 8354 O 793.149 1.8928 1.04891 0
M  V30 8355 C 793.744 2.55387 -2.22627 0
M  V30 8356 C 792.303 3.08522 -2.15618 0
M  V30 8357 C 791.45 1.81347 -2.09782 0
M  V30 8358 H 794.401 0.638156 -1.45304 0
M  V30 8359 H 794.422 3.33193 -1.83746 0
M  V30 8360 H 793.934 2.15222 -3.22957 0
M  V30 8361 H 792.035 3.53217 -1.18611 0
M  V30 8362 H 792.148 3.6829 -3.0643 0
M  V30 8363 H 790.512 2.01839 -1.55349 0
M  V30 8364 H 791.295 1.43369 -3.1193 0
M  V30 8365 N 793.74 1.17359 1.05189 0
M  V30 8366 C 794.986 0.973414 1.78595 0
M  V30 8367 C 795.341 -0.492713 1.85984 0
M  V30 8368 O 794.634 -1.361 1.3486 0
M  V30 8369 C 794.828 1.54821 3.22126 0
M  V30 8370 C 794.657 3.06871 3.28725 0
M  V30 8371 C 793.427 3.75602 3.38011 0
M  V30 8372 C 795.625 4.04467 3.17665 0
M  V30 8373 N 793.607 5.15257 3.33741 0
M  V30 8374 C 794.978 5.30574 3.20766 0
M  V30 8375 C 797.033 3.96138 3.01627 0
M  V30 8376 C 795.736 6.49319 3.09479 0
M  V30 8377 C 797.762 5.14467 2.91681 0
M  V30 8378 C 797.124 6.3946 2.95416 0
M  V30 8379 H 793.223 0.410092 0.665844 0
M  V30 8380 H 795.807 1.48944 1.25395 0
M  V30 8381 H 793.978 1.05853 3.73697 0
M  V30 8382 H 795.71 1.28467 3.83768 0
M  V30 8383 H 792.465 3.26282 3.43273 0
M  V30 8384 H 792.889 5.88263 3.35076 0
M  V30 8385 H 797.531 3.00345 2.97578 0
M  V30 8386 H 795.249 7.45322 3.12283 0
M  V30 8387 H 798.835 5.09803 2.80343 0
M  V30 8388 H 797.715 7.29483 2.87792 0
M  V30 8389 N 795.218 -1.23913 0.973828 0
M  V30 8390 C 796.495 -1.87539 0.555729 0
M  V30 8391 C 796.875 -1.87641 -0.967162 0
M  V30 8392 O 796.223 -1.35335 -1.84111 0
M  V30 8393 C 796.433 -3.29359 1.15427 0
M  V30 8394 C 797.781 -4.06 1.24294 0
M  V30 8395 O 798.805 -3.38554 1.10723 0
M  V30 8396 O 797.664 -5.26689 1.45813 0
M  V30 8397 H 794.758 -0.805769 0.186188 0
M  V30 8398 H 797.304 -1.31838 1.06849 0
M  V30 8399 H 796.076 -3.23817 2.19678 0
M  V30 8400 H 795.699 -3.92642 0.625925 0
M  V30 8401 N 796.696 -0.74468 -1.38897 0
M  V30 8402 C 797.936 -0.301691 -2.02161 0
M  V30 8403 C 798.3 1.09338 -1.57826 0
M  V30 8404 O 799.501 1.63499 -2.13358 0
M  V30 8405 C 797.772 -0.410601 -3.55034 0
M  V30 8406 S 799.331 -0.0488802 -4.38773 0
M  V30 8407 H 796.149 -0.117583 -0.70121 0
M  V30 8408 H 798.751 -0.973334 -1.69548 0
M  V30 8409 H 797.455 -1.42705 -3.8479 0
M  V30 8410 H 796.986 0.278531 -3.92413 0
M  V30 8411 H 799.001 1.16434 -4.82346 0
M  V30 8412 N 798.174 1.49689 -0.493057 0
M  V30 8413 C 799.422 2.02027 0.0541642 0
M  V30 8414 C 799.743 1.37554 1.38217 0
M  V30 8415 O 799.013 0.528174 1.88646 0
M  V30 8416 H 797.593 0.746646 0.0230069 0
M  V30 8417 H 800.255 1.83795 -0.648489 0
M  V30 8418 H 799.351 3.11523 0.189652 0
M  V30 8419 N 799.652 0.226554 1.55963 0
M  V30 8420 C 800.892 -0.405574 2.00336 0
M  V30 8421 C 801.256 -1.56593 1.11097 0
M  V30 8422 O 802.457 -2.26441 1.44838 0
M  V30 8423 C 800.728 -0.82435 3.47763 0
M  V30 8424 S 802.287 -1.44988 4.14154 0
M  V30 8425 H 799.105 -0.128512 0.699289 0
M  V30 8426 H 801.707 0.337017 1.92573 0
M  V30 8427 H 800.411 0.0297636 4.10389 0
M  V30 8428 H 799.942 -1.59963 3.5941 0
M  V30 8429 H 801.957 -2.73897 4.13757 0
M  V30 8430 N 801.13 -1.57531 -0.0467866 0
M  V30 8431 C 802.541 -1.76945 -0.595603 0
M  V30 8432 C 802.892 -0.855354 -1.76573 0
M  V30 8433 O 802.017 -0.045668 -2.16352 0
M  V30 8434 C 802.612 -3.20881 -1.08725 0
M  V30 8435 C 801.171 -3.41553 -1.58172 0
M  V30 8436 C 800.318 -2.72533 -0.511968 0
M  V30 8437 H 803.269 -1.57682 0.179436 0
M  V30 8438 H 803.29 -3.26419 -1.95528 0
M  V30 8439 H 802.802 -3.87385 -0.235398 0
M  V30 8440 H 800.903 -2.80199 -2.456 0
M  V30 8441 H 801.016 -4.50104 -1.64143 0
M  V30 8442 H 799.38 -2.35797 -0.962899 0
M  V30 8443 H 800.163 -3.41709 0.330117 0
M  V30 8444 N 802.608 0.318715 -1.54344 0
M  V30 8445 C 803.538 1.39751 -1.87061 0
M  V30 8446 C 804.519 1.53741 -0.727848 0
M  V30 8447 O 805.704 1.67541 -0.982016 0
M  V30 8448 C 802.834 2.76446 -2.10226 0
M  V30 8449 C 801.788 2.77239 -3.26071 0
M  V30 8450 C 801.114 4.17056 -3.34617 0
M  V30 8451 C 802.414 2.40555 -4.63606 0
M  V30 8452 H 804.108 1.12619 -2.77412 0
M  V30 8453 H 801.654 0.540318 -1.33479 0
M  V30 8454 H 803.607 3.51985 -2.31699 0
M  V30 8455 H 802.331 3.05066 -1.16629 0
M  V30 8456 H 800.99 2.04155 -3.04493 0
M  V30 8457 H 800.638 4.42824 -2.3857 0
M  V30 8458 H 800.338 4.18492 -4.12478 0
M  V30 8459 H 801.862 4.94401 -3.5833 0
M  V30 8460 H 803.276 3.05808 -4.84927 0
M  V30 8461 H 801.673 2.53234 -5.44052 0
M  V30 8462 H 802.743 1.35698 -4.65526 0
M  V30 8463 N 804.086 1.46499 0.581025 0
M  V30 8464 C 805.033 1.5719 1.68997 0
M  V30 8465 C 806.003 0.416114 1.60803 0
M  V30 8466 O 807.188 0.633086 1.79991 0
M  V30 8467 C 804.328 1.56973 3.07333 0
M  V30 8468 C 803.441 2.83298 3.26139 0
M  V30 8469 C 802.576 2.74574 4.54734 0
M  V30 8470 C 801.615 3.9583 4.66889 0
M  V30 8471 N 800.752 3.85482 5.86811 0
M  V30 8472 H 805.592 2.51914 1.59196 0
M  V30 8473 H 803.129 1.24975 0.775857 0
M  V30 8474 H 805.087 1.54832 3.87405 0
M  V30 8475 H 803.717 0.657803 3.16027 0
M  V30 8476 H 802.769 2.95411 2.3966 0
M  V30 8477 H 804.081 3.7316 3.30988 0
M  V30 8478 H 803.235 2.70548 5.43036 0
M  V30 8479 H 801.974 1.82354 4.52325 0
M  V30 8480 H 800.979 4.00186 3.77003 0
M  V30 8481 H 802.204 4.89148 4.71075 0
M  V30 8482 H 800.15 2.96051 5.85397 0
M  V30 8483 H 800.067 4.69002 5.92936 0
M  V30 8484 H 801.335 3.85434 6.7754 0
M  V30 8485 N 805.565 -0.825799 1.34232 0
M  V30 8486 C 806.528 -1.91808 1.25468 0
M  V30 8487 C 807.528 -1.59893 0.170567 0
M  V30 8488 O 808.718 -1.68986 0.422996 0
M  V30 8489 C 805.85 -3.27786 0.93644 0
M  V30 8490 H 807.043 -2.01003 2.22571 0
M  V30 8491 H 804.596 -1.01944 1.18479 0
M  V30 8492 H 805.331 -3.24285 -0.0315408 0
M  V30 8493 H 805.116 -3.52333 1.72057 0
M  V30 8494 H 806.606 -4.07782 0.900214 0
M  V30 8495 N 807.043 -1.17915 -1.04565 0
M  V30 8496 C 807.973 -0.925033 -2.14395 0
M  V30 8497 C 808.954 0.135375 -1.6956 0
M  V30 8498 O 810.139 -0.0161774 -1.94193 0
M  V30 8499 C 807.269 -0.444469 -3.44444 0
M  V30 8500 C 806.223 -1.44478 -4.02877 0
M  V30 8501 C 805.549 -0.821933 -5.28345 0
M  V30 8502 C 806.849 -2.81995 -4.39632 0
M  V30 8503 H 808.543 -1.84354 -2.35911 0
M  V30 8504 H 806.089 -0.887806 -1.13375 0
M  V30 8505 H 808.042 -0.254078 -4.20633 0
M  V30 8506 H 806.766 0.509592 -3.226 0
M  V30 8507 H 805.425 -1.62203 -3.28764 0
M  V30 8508 H 805.073 0.139161 -5.02807 0
M  V30 8509 H 804.773 -1.48976 -5.68401 0
M  V30 8510 H 806.297 -0.641959 -6.07216 0
M  V30 8511 H 807.711 -2.67952 -5.06828 0
M  V30 8512 H 806.108 -3.45414 -4.90723 0
M  V30 8513 H 807.178 -3.35927 -3.49687 0
M  V30 8514 N 808.521 1.23394 -0.980386 0
M  V30 8515 C 809.937 1.43961 -0.689008 0
M  V30 8516 C 810.137 1.87229 0.744809 0
M  V30 8517 O 809.193 2.01831 1.51725 0
M  V30 8518 C 810.506 2.49128 -1.68392 0
M  V30 8519 C 812.054 2.62941 -1.69796 0
M  V30 8520 C 812.529 3.71317 -2.68118 0
M  V30 8521 N 814.02 3.7876 -2.66636 0
M  V30 8522 C 814.755 4.62176 -3.39383 0
M  V30 8523 N 814.251 5.49682 -4.21688 0
M  V30 8524 N 816.044 4.56372 -3.28147 0
M  V30 8525 H 808.195 0.936106 -1.90659 0
M  V30 8526 H 810.458 0.473023 -0.821555 0
M  V30 8527 H 810.164 2.24252 -2.70931 0
M  V30 8528 H 810.038 3.47514 -1.46675 0
M  V30 8529 H 812.425 2.87168 -0.679617 0
M  V30 8530 H 812.506 1.64871 -1.95579 0
M  V30 8531 H 812.15 3.4784 -3.70095 0
M  V30 8532 H 812.08 4.68929 -2.3961 0
M  V30 8533 H 814.571 3.16226 -2.06904 0
M  V30 8534 H 814.884 6.10323 -4.74053 0
M  V30 8535 H 813.229 5.49306 -4.25779 0
M  V30 8536 H 816.42 3.87029 -2.63299 0
M  V30 8537 H 816.593 5.21153 -3.85102 0
M  V30 8538 N 809.999 0.752036 1.385 0
M  V30 8539 C 811.276 0.233075 1.94206 0
M  V30 8540 C 811.656 -1.26838 1.68746 0
M  V30 8541 O 811.004 -2.04214 1.02513 0
M  V30 8542 C 811.214 0.58509 3.44061 0
M  V30 8543 C 812.562 0.543871 4.21102 0
M  V30 8544 O 813.586 0.523291 3.52335 0
M  V30 8545 O 812.445 0.553436 5.4369 0
M  V30 8546 H 809.539 0.0483049 0.825588 0
M  V30 8547 H 812.085 0.832053 1.47902 0
M  V30 8548 H 810.857 1.62212 3.56094 0
M  V30 8549 H 810.48 -0.0419738 3.97578 0
M  V30 8550 N 811.477 -1.49425 0.500989 0
M  V30 8551 C 812.724 -2.02453 -0.0435355 0
M  V30 8552 C 813.052 -1.38067 -1.36995 0
M  V30 8553 O 812.307 -0.505557 -1.89057 0
M  V30 8554 C 812.606 -3.56562 -0.24463 0
M  V30 8555 C 812.272 -4.39585 1.00379 0
M  V30 8556 C 810.934 -4.61992 1.346 0
M  V30 8557 C 813.286 -4.87881 1.83361 0
M  V30 8558 C 810.614 -5.2994 2.51755 0
M  V30 8559 C 812.966 -5.57119 2.99669 0
M  V30 8560 C 811.63 -5.77771 3.3427 0
M  V30 8561 H 810.9 -0.740829 -0.0159308 0
M  V30 8562 H 813.547 -1.79725 0.661143 0
M  V30 8563 H 811.852 -3.77969 -1.03183 0
M  V30 8564 H 813.549 -3.95185 -0.6804 0
M  V30 8565 H 810.139 -4.22385 0.727225 0
M  V30 8566 H 814.323 -4.70398 1.58237 0
M  V30 8567 H 809.579 -5.44133 2.788 0
M  V30 8568 H 813.753 -5.93516 3.64296 0
M  V30 8569 H 811.38 -6.30197 4.25154 0
M  V30 8570 N 812.955 -0.234822 -1.55841 0
M  V30 8571 C 813.918 0.656378 -2.196 0
M  V30 8572 C 814.918 1.11179 -1.16171 0
M  V30 8573 O 816.108 1.01845 -1.41326 0
M  V30 8574 C 813.24 1.90072 -2.82993 0
M  V30 8575 H 814.433 0.100281 -2.99732 0
M  V30 8576 H 811.986 0.0147613 -1.56293 0
M  V30 8577 H 812.721 2.49836 -2.06767 0
M  V30 8578 H 812.506 1.5825 -3.58747 0
M  V30 8579 H 813.996 2.53538 -3.31826 0
M  V30 8580 N 814.433 1.57553 0.0384317 0
M  V30 8581 C 815.363 2.0898 1.04161 0
M  V30 8582 C 816.344 0.99029 1.38301 0
M  V30 8583 O 817.529 1.26499 1.47349 0
M  V30 8584 C 814.659 2.56145 2.34536 0
M  V30 8585 C 813.613 3.70275 2.14663 0
M  V30 8586 C 812.939 4.03612 3.50715 0
M  V30 8587 C 814.239 4.99067 1.54045 0
M  V30 8588 H 815.933 2.93046 0.613548 0
M  V30 8589 H 813.479 1.40973 0.293684 0
M  V30 8590 H 815.432 2.90741 3.05037 0
M  V30 8591 H 814.156 1.6915 2.79385 0
M  V30 8592 H 812.815 3.36013 1.46597 0
M  V30 8593 H 812.463 3.13698 3.93195 0
M  V30 8594 H 812.163 4.80482 3.38247 0
M  V30 8595 H 813.687 4.40735 4.22593 0
M  V30 8596 H 815.101 5.3168 2.14451 0
M  V30 8597 H 813.498 5.80484 1.52178 0
M  V30 8598 H 814.568 4.8226 0.505259 0
M  V30 8599 N 815.911 -0.310526 1.54511 0
M  V30 8600 C 816.843 -1.40405 1.8116 0
M  V30 8601 C 817.856 -1.47261 0.694114 0
M  V30 8602 O 819.045 -1.49751 0.971441 0
M  V30 8603 C 816.145 -2.78849 1.92604 0
M  V30 8604 C 815.318 -2.95041 3.22908 0
M  V30 8605 C 814.377 -4.13925 3.24889 0
M  V30 8606 O 813.403 -4.06463 3.98467 0
M  V30 8607 N 814.605 -5.24099 2.496 0
M  V30 8608 H 817.37 -1.17903 2.75534 0
M  V30 8609 H 814.931 -0.500564 1.53967 0
M  V30 8610 H 816.923 -3.5661 1.91342 0
M  V30 8611 H 815.493 -2.94342 1.05268 0
M  V30 8612 H 814.713 -2.04472 3.37023 0
M  V30 8613 H 816.001 -3.02763 4.08916 0
M  V30 8614 H 815.399 -5.33039 1.89435 0
M  V30 8615 H 813.956 -6.0023 2.54102 0
M  V30 8616 N 817.389 -1.46805 -0.573248 0
M  V30 8617 C 818.337 -1.58468 -1.70267 0
M  V30 8618 C 819.331 -0.452694 -1.63239 0
M  V30 8619 O 820.537 -0.629915 -1.68618 0
M  V30 8620 H 816.912 -0.498408 -0.56311 0
M  V30 8621 H 818.883 -2.5341 -1.57563 0
M  V30 8622 C 817.632 -1.60104 -3.08645 0
M  V30 8623 H 816.955 -2.4655 -3.14727 0
M  V30 8624 H 818.395 -1.72318 -3.87405 0
M  V30 8625 C 816.854 -0.33138 -3.35266 0
M  V30 8626 O 817.384 0.57438 -3.97572 0
M  V30 8627 N 815.59 -0.216358 -2.89793 0
M  V30 8628 H 815.137 -0.954345 -2.3927 0
M  V30 8629 H 815.095 0.632253 -3.07977 0
M  V30 8630 N 818.867 0.818669 -1.34668 0
M  V30 8631 C 820.278 1.39177 -1.24446 0
M  V30 8632 C 820.629 1.9578 0.128268 0
M  V30 8633 O 819.754 1.90382 1.02877 0
M  V30 8634 C 820.349 2.53012 -2.25323 0
M  V30 8635 C 818.908 3.06218 -2.18878 0
M  V30 8636 C 818.055 1.79112 -2.11694 0
M  V30 8637 H 821.006 0.622709 -1.45973 0
M  V30 8638 H 821.027 3.31226 -1.8727 0
M  V30 8639 H 820.539 2.11784 -3.25221 0
M  V30 8640 H 818.64 3.51939 -1.22351 0
M  V30 8641 H 818.753 3.65019 -3.10319 0
M  V30 8642 H 817.117 2.0018 -1.57481 0
M  V30 8643 H 817.9 1.40053 -3.13433 0
M  V30 8644 N 820.346 1.18468 1.03938 0
M  V30 8645 C 821.571 1.00638 1.81347 0
M  V30 8646 C 821.996 -0.440477 1.8287 0
M  V30 8647 O 821.354 -1.31609 1.24695 0
M  V30 8648 C 821.402 1.5673 3.24759 0
M  V30 8649 O 820.506 0.789517 4.04772 0
M  V30 8650 H 819.847 0.356432 0.560225 0
M  V30 8651 H 822.377 1.57253 1.30891 0
M  V30 8652 H 822.387 1.59496 3.75533 0
M  V30 8653 H 821.062 2.62043 3.22965 0
M  V30 8654 H 819.639 0.834267 3.63448 0
M  V30 8655 N 821.824 -1.22873 0.986916 0
M  V30 8656 C 822.787 -2.2281 0.537442 0
M  V30 8657 C 823.787 -1.56331 -0.37646 0
M  V30 8658 O 824.977 -1.73376 -0.169247 0
M  V30 8659 C 822.109 -3.40195 -0.219082 0
M  V30 8660 H 823.302 -2.64089 1.42116 0
M  V30 8661 H 820.855 -1.35819 0.773488 0
M  V30 8662 H 821.59 -3.04381 -1.11905 0
M  V30 8663 H 821.375 -3.89657 0.437026 0
M  V30 8664 H 822.865 -4.14326 -0.521926 0
M  V30 8665 N 823.302 -0.75937 -1.38099 0
M  V30 8666 C 824.548 -0.318584 -2.00282 0
M  V30 8667 C 824.881 1.09854 -1.60143 0
M  V30 8668 O 824.156 1.75344 -0.841702 0
M  V30 8669 C 824.439 -0.448047 -3.57302 0
M  V30 8670 C 824.292 -1.9067 -4.07388 0
M  V30 8671 C 825.611 0.155119 -4.39827 0
M  V30 8672 H 822.73 -0.117233 -0.727616 0
M  V30 8673 H 825.372 -0.960097 -1.63958 0
M  V30 8674 H 823.522 0.0981003 -3.88376 0
M  V30 8675 H 825.194 -2.5116 -3.86932 0
M  V30 8676 H 823.437 -2.41979 -3.6004 0
M  V30 8677 H 824.108 -1.94841 -5.1647 0
M  V30 8678 H 826.584 -0.31073 -4.14938 0
M  V30 8679 H 825.46 0.0343264 -5.48889 0
M  V30 8680 H 825.721 1.24407 -4.24235 0
M  V30 8681 N 824.78 1.49157 -0.508906 0
M  V30 8682 C 826.191 1.86593 -0.0630975 0
M  V30 8683 C 826.542 1.42051 1.35337 0
M  V30 8684 O 825.667 0.801866 2.00995 0
M  V30 8685 C 826.262 3.38629 -0.107729 0
M  V30 8686 C 824.821 3.75336 0.282776 0
M  V30 8687 C 823.968 2.7317 -0.4768 0
M  V30 8688 H 826.919 1.41362 -0.72128 0
M  V30 8689 H 826.94 3.74271 0.685689 0
M  V30 8690 H 826.452 3.71017 -1.13876 0
M  V30 8691 H 824.553 3.48558 1.31675 0
M  V30 8692 H 824.666 4.79081 -0.0421728 0
M  V30 8693 H 823.03 2.54591 0.0743552 0
M  V30 8694 H 823.813 3.08403 -1.50807 0
M  V30 8695 N 826.258 0.243083 1.55714 0
M  V30 8696 C 827.674 -0.111853 1.59208 0
M  V30 8697 C 827.874 -1.5723 1.2602 0
M  V30 8698 O 826.93 -2.31608 1.00569 0
M  V30 8699 C 828.243 0.233885 2.99789 0
M  V30 8700 C 829.791 0.177873 3.12494 0
M  V30 8701 C 830.266 0.49759 4.55289 0
M  V30 8702 N 831.757 0.447949 4.61029 0
M  V30 8703 C 832.492 0.668545 5.69489 0
M  V30 8704 N 831.988 0.952064 6.86227 0
M  V30 8705 N 833.781 0.599512 5.58894 0
M  V30 8706 H 825.932 1.19554 1.75558 0
M  V30 8707 H 828.195 0.480765 0.817049 0
M  V30 8708 H 827.901 1.24835 3.28799 0
M  V30 8709 H 827.775 -0.440846 3.74615 0
M  V30 8710 H 830.162 -0.827263 2.83267 0
M  V30 8711 H 830.243 0.886399 2.39951 0
M  V30 8712 H 829.887 1.50026 4.85237 0
M  V30 8713 H 829.817 -0.232371 5.26087 0
M  V30 8714 H 832.308 0.237388 3.77154 0
M  V30 8715 H 832.621 1.10791 7.64817 0
M  V30 8716 H 830.966 0.989496 6.8792 0
M  V30 8717 H 834.157 0.378088 4.66571 0
M  V30 8718 H 834.33 0.774828 6.43351 0
M  V30 8719 N 827.736 -1.57571 -0.0300757 0
M  V30 8720 C 828.983 -1.89226 -0.721091 0
M  V30 8721 C 829.311 -0.840244 -1.75414 0
M  V30 8722 O 828.566 0.158906 -1.95054 0
M  V30 8723 C 828.865 -3.27624 -1.42818 0
M  V30 8724 C 828.531 -4.4776 -0.531208 0
M  V30 8725 C 827.193 -4.8036 -0.28415 0
M  V30 8726 C 829.545 -5.21125 0.0881582 0
M  V30 8727 C 826.873 -5.83715 0.591065 0
M  V30 8728 C 829.225 -6.2541 0.95107 0
M  V30 8729 C 827.889 -6.56486 1.2076 0
M  V30 8730 H 827.159 -0.692428 -0.263866 0
M  V30 8731 H 829.806 -1.91491 0.0189874 0
M  V30 8732 H 828.111 -3.21343 -2.24155 0
M  V30 8733 H 829.808 -3.49365 -1.96838 0
M  V30 8734 H 826.398 -4.2227 -0.73392 0
M  V30 8735 H 830.582 -4.96219 -0.0897496 0
M  V30 8736 H 825.838 -6.06168 0.798132 0
M  V30 8737 H 830.012 -6.81402 1.43751 0
M  V30 8738 H 827.639 -7.36395 1.88751 0
M  V30 8739 N 829.214 0.302327 -1.54673 0
M  V30 8740 C 830.46 1.03924 -1.74149 0
M  V30 8741 C 830.793 1.86968 -0.525041 0
M  V30 8742 O 830.068 1.88538 0.477868 0
M  V30 8743 C 830.351 1.94633 -3.02969 0
M  V30 8744 C 830.204 1.14778 -4.34909 0
M  V30 8745 C 831.523 2.93826 -3.27649 0
M  V30 8746 H 828.642 0.376405 -0.633631 0
M  V30 8747 H 831.284 0.314007 -1.87387 0
M  V30 8748 H 829.434 2.56471 -2.91813 0
M  V30 8749 H 831.106 0.552363 -4.57981 0
M  V30 8750 H 829.349 0.450462 -4.31455 0
M  V30 8751 H 830.02 1.81495 -5.21309 0
M  V30 8752 H 832.496 2.42117 -3.38406 0
M  V30 8753 H 831.372 3.54462 -4.19104 0
M  V30 8754 H 831.633 3.67416 -2.45882 0
M  V30 8755 N 830.692 1.47107 0.565454 0
M  V30 8756 C 831.624 1.55024 1.6882 0
M  V30 8757 C 832.637 0.4371 1.56822 0
M  V30 8758 O 833.826 0.706315 1.63931 0
M  V30 8759 C 830.926 1.43069 3.0722 0
M  V30 8760 C 830.099 2.68807 3.45053 0
M  V30 8761 C 829.158 2.50806 4.62583 0
M  V30 8762 O 828.184 3.24593 4.67577 0
M  V30 8763 N 829.386 1.58093 5.58558 0
M  V30 8764 H 832.151 2.51836 1.62477 0
M  V30 8765 H 829.712 1.43382 0.751885 0
M  V30 8766 H 831.704 1.28773 3.83666 0
M  V30 8767 H 830.274 0.543721 3.07835 0
M  V30 8768 H 829.494 2.97923 2.58138 0
M  V30 8769 H 830.782 3.52298 3.67101 0
M  V30 8770 H 830.18 0.972807 5.57273 0
M  V30 8771 H 828.737 1.49753 6.34364 0
M  V30 8772 N 832.17 -0.811516 1.35101 0
M  V30 8773 C 833.133 -1.90467 1.27495 0
M  V30 8774 C 834.133 -1.59703 0.187516 0
M  V30 8775 O 835.323 -1.68528 0.440896 0
M  V30 8776 C 832.455 -3.26774 0.971154 0
M  V30 8777 H 833.648 -1.98631 2.2469 0
M  V30 8778 H 831.201 -1.00681 1.19553 0
M  V30 8779 H 831.936 -3.243 0.0028557 0
M  V30 8780 H 831.721 -3.50488 1.75785 0
M  V30 8781 H 833.211 -4.06804 0.943414 0
M  V30 8782 N 833.648 -1.19017 -1.03309 0
M  V30 8783 C 834.897 -0.984542 -1.76039 0
M  V30 8784 C 835.21 0.485937 -1.89468 0
M  V30 8785 O 836.416 0.810278 -2.59127 0
M  V30 8786 C 834.872 -1.71261 -3.1654 0
M  V30 8787 C 834.48 -3.22291 -3.11179 0
M  V30 8788 C 836.224 -1.59007 -3.93595 0
M  V30 8789 C 834.131 -3.87704 -4.46587 0
M  V30 8790 H 833.061 -0.364749 -0.659905 0
M  V30 8791 H 835.712 -1.4247 -1.15649 0
M  V30 8792 H 834.094 -1.20025 -3.77373 0
M  V30 8793 H 835.268 -3.80611 -2.59753 0
M  V30 8794 H 833.583 -3.34772 -2.47622 0
M  V30 8795 H 836.18 -2.05232 -4.93745 0
M  V30 8796 H 836.523 -0.543534 -4.12736 0
M  V30 8797 H 837.056 -2.07564 -3.39355 0
M  V30 8798 H 833.795 -4.92437 -4.3265 0
M  V30 8799 H 833.315 -3.34172 -4.98085 0
M  V30 8800 H 834.994 -3.91008 -5.15482 0
M  V30 8801 N 835.127 1.22348 -0.993418 0
M  V30 8802 C 836.367 1.92835 -0.677779 0
M  V30 8803 C 836.731 1.75624 0.775893 0
M  V30 8804 O 837.932 2.40379 1.20297 0
M  V30 8805 C 836.203 3.40906 -1.07322 0
M  V30 8806 S 837.762 4.29966 -0.876032 0
M  V30 8807 H 834.58 0.666421 -0.247799 0
M  V30 8808 H 837.182 1.48133 -1.27581 0
M  V30 8809 H 835.886 3.50946 -2.12756 0
M  V30 8810 H 835.417 3.90618 -0.467015 0
M  V30 8811 H 837.432 4.95652 0.233162 0
M  V30 8812 N 836.605 0.766683 1.37694 0
M  V30 8813 C 837.515 0.150158 2.34119 0
M  V30 8814 C 838.531 -0.685513 1.59927 0
M  V30 8815 O 839.707 -0.606616 1.92047 0
M  V30 8816 C 836.772 -0.722562 3.39087 0
M  V30 8817 C 835.833 0.128983 4.29106 0
M  V30 8818 C 835.066 -0.702178 5.29061 0
M  V30 8819 O 835.289 -1.93954 5.36412 0
M  V30 8820 O 834.223 -0.114056 6.01792 0
M  V30 8821 H 838.049 0.946829 2.88563 0
M  V30 8822 H 835.634 0.527765 1.39768 0
M  V30 8823 H 837.516 -1.22095 4.03325 0
M  V30 8824 H 836.191 -1.49751 2.86978 0
M  V30 8825 H 835.098 0.673612 3.67985 0
M  V30 8826 H 836.431 0.866892 4.84506 0
M  V30 8827 N 838.083 -1.48885 0.516809 0
M  V30 8828 C 839.331 -2.02088 -0.0220166 0
M  V30 8829 C 839.652 -1.39735 -1.36011 0
M  V30 8830 O 838.922 -0.558119 -1.87781 0
M  V30 8831 H 837.502 -0.746917 -0.0111255 0
M  V30 8832 H 840.164 -1.8274 0.677647 0
M  V30 8833 H 839.26 -3.11786 -0.140067 0
M  V30 8834 N 839.561 -0.251338 -1.55583 0
M  V30 8835 C 840.838 0.422729 -1.90977 0
M  V30 8836 C 841.218 1.75534 -1.17265 0
M  V30 8837 O 840.566 2.26632 -0.291588 0
M  V30 8838 C 840.776 0.586448 -3.44037 0
M  V30 8839 C 842.124 0.880294 -4.15375 0
M  V30 8840 O 843.148 0.672148 -3.49801 0
M  V30 8841 O 842.007 1.27694 -5.31372 0
M  V30 8842 H 839.101 0.227622 -0.795058 0
M  V30 8843 H 841.647 -0.295733 -1.67103 0
M  V30 8844 H 840.419 -0.352327 -3.89711 0
M  V30 8845 H 840.042 1.35528 -3.73789 0
M  V30 8846 N 841.039 1.57585 0.0217189 0
M  V30 8847 C 842.316 1.80779 0.74687 0
M  V30 8848 C 842.696 0.851163 1.9318 0
M  V30 8849 O 842.044 -0.105039 2.28258 0
M  V30 8850 C 842.254 3.28696 1.17302 0
M  V30 8851 C 843.602 3.93871 1.58589 0
M  V30 8852 O 844.626 3.3289 1.2674 0
M  V30 8853 O 843.485 5.01254 2.1773 0
M  V30 8854 H 840.579 0.743666 0.361786 0
M  V30 8855 H 843.125 1.697 -0.00206785 0
M  V30 8856 H 841.897 3.89927 0.327453 0
M  V30 8857 H 841.52 3.44692 1.98174 0
M  V30 8858 N 842.517 -0.29412 1.54831 0
M  V30 8859 C 843.757 -1.03635 1.76179 0
M  V30 8860 C 844.121 -1.84251 0.539953 0
M  V30 8861 O 845.322 -2.61282 0.631295 0
M  V30 8862 C 843.593 -1.91275 3.01909 0
M  V30 8863 S 845.152 -2.7205 3.44288 0
M  V30 8864 H 841.97 -0.349403 0.619224 0
M  V30 8865 H 844.572 -0.309006 1.93042 0
M  V30 8866 H 843.276 -1.30937 3.88952 0
M  V30 8867 H 842.807 -2.68365 2.87652 0
M  V30 8868 H 844.822 -3.93791 3.01899 0
M  V30 8869 N 843.995 -1.47404 -0.557645 0
M  V30 8870 C 844.927 -1.55917 -1.67995 0
M  V30 8871 C 845.94 -0.445411 -1.56588 0
M  V30 8872 O 847.129 -0.714999 -1.63554 0
M  V30 8873 C 844.229 -1.44697 -3.06457 0
M  V30 8874 C 843.402 -2.70633 -3.43622 0
M  V30 8875 C 842.461 -2.53256 -4.61246 0
M  V30 8876 O 841.487 -3.27068 -4.65849 0
M  V30 8877 N 842.689 -1.61053 -5.57711 0
M  V30 8878 H 845.454 -2.52694 -1.61139 0
M  V30 8879 H 843.015 -1.43778 -0.744271 0
M  V30 8880 H 845.007 -1.30806 -3.82978 0
M  V30 8881 H 843.577 -0.560039 -3.07542 0
M  V30 8882 H 842.797 -2.99288 -2.56555 0
M  V30 8883 H 844.085 -3.5424 -3.65228 0
M  V30 8884 H 843.483 -1.00235 -5.56749 0
M  V30 8885 H 842.04 -1.53115 -6.33561 0
M  V30 8886 N 845.473 0.80434 -1.35529 0
M  V30 8887 C 846.884 1.37849 -1.25915 0
M  V30 8888 C 847.235 1.95905 0.107495 0
M  V30 8889 O 846.36 1.91462 1.00852 0
M  V30 8890 C 846.955 2.50608 -2.27994 0
M  V30 8891 C 845.514 3.03879 -2.22114 0
M  V30 8892 C 844.661 1.76856 -2.13582 0
M  V30 8893 H 847.612 0.607192 -1.46625 0
M  V30 8894 H 847.633 3.29221 -1.90772 0
M  V30 8895 H 847.145 2.08323 -3.27449 0
M  V30 8896 H 845.246 3.50622 -1.26077 0
M  V30 8897 H 845.359 3.61707 -3.14173 0
M  V30 8898 H 843.723 1.98498 -1.59595 0
M  V30 8899 H 844.506 1.36721 -3.14901 0
M  V30 8900 N 846.951 1.19563 1.02676 0
M  V30 8901 C 848.362 1.00158 1.57561 0
M  V30 8902 C 848.713 -0.444922 1.91089 0
M  V30 8903 O 847.838 -1.32466 1.71119 0
M  V30 8904 C 848.433 1.81181 2.86284 0
M  V30 8905 C 846.992 1.66171 3.37734 0
M  V30 8906 C 846.139 1.7975 2.11152 0
M  V30 8907 H 849.09 1.33904 0.85179 0
M  V30 8908 H 849.111 1.30916 3.57269 0
M  V30 8909 H 848.623 2.86454 2.6185 0
M  V30 8910 H 846.724 0.634927 3.6715 0
M  V30 8911 H 846.837 2.46832 4.10622 0
M  V30 8912 H 845.201 1.22833 2.23123 0
M  V30 8913 H 845.984 2.86487 1.89157 0
M  V30 8914 N 848.429 -1.21819 0.999893 0
M  V30 8915 C 849.392 -2.22227 0.561044 0
M  V30 8916 C 850.392 -1.56722 -0.359858 0
M  V30 8917 O 851.582 -1.73546 -0.150848 0
M  V30 8918 C 848.714 -3.40409 -0.182987 0
M  V30 8919 H 849.907 -2.62567 1.44909 0
M  V30 8920 H 847.46 -1.34991 0.78785 0
M  V30 8921 H 848.195 -3.05551 -1.08671 0
M  V30 8922 H 847.98 -3.89171 0.47833 0
M  V30 8923 H 849.47 -4.14856 -0.477952 0
M  V30 8924 N 849.908 -0.773975 -1.37286 0
M  V30 8925 C 851.138 -0.350249 -2.03609 0
M  V30 8926 C 851.546 1.03313 -1.58502 0
M  V30 8927 O 850.889 1.67118 -0.7627 0
M  V30 8928 C 850.951 -0.317215 -3.58098 0
M  V30 8929 C 850.615 -1.64556 -4.26345 0
M  V30 8930 C 851.612 -2.59839 -4.50311 0
M  V30 8931 C 849.297 -1.92061 -4.64131 0
M  V30 8932 C 851.291 -3.80833 -5.11122 0
M  V30 8933 C 848.978 -3.13325 -5.24663 0
M  V30 8934 C 849.976 -4.0753 -5.48095 0
M  V30 8935 O 849.664 -5.26658 -6.0736 0
M  V30 8936 H 849.396 -0.144456 -0.660385 0
M  V30 8937 H 851.95 -1.0496 -1.76557 0
M  V30 8938 H 850.18 0.438528 -3.84205 0
M  V30 8939 H 851.869 0.0797428 -4.05822 0
M  V30 8940 H 852.635 -2.39872 -4.21529 0
M  V30 8941 H 848.514 -1.19562 -4.45226 0
M  V30 8942 H 852.058 -4.54377 -5.29327 0
M  V30 8943 H 847.955 -3.33177 -5.52869 0
M  V30 8944 H 848.723 -5.27513 -6.25837 0
M  V30 8945 N 851.386 1.48609 -0.524698 0
M  V30 8946 C 852.614 2.06899 0.00742946 0
M  V30 8947 C 853.029 1.38196 1.28637 0
M  V30 8948 O 852.386 0.467771 1.76403 0
M  V30 8949 C 852.437 3.60699 0.240548 0
M  V30 8950 O 852.158 4.26821 -0.987715 0
M  V30 8951 C 853.659 4.35769 0.813652 0
M  V30 8952 H 850.879 0.670278 -0.0311294 0
M  V30 8953 H 853.423 1.91071 -0.728832 0
M  V30 8954 H 851.578 3.76149 0.926845 0
M  V30 8955 H 851.992 5.18889 -0.765175 0
M  V30 8956 H 853.466 5.44174 0.926219 0
M  V30 8957 H 853.943 3.9984 1.81728 0
M  V30 8958 H 854.549 4.24983 0.164086 0
M  V30 8959 N 852.864 0.259585 1.55447 0
M  V30 8960 C 854.094 -0.364863 2.03353 0
M  V30 8961 C 854.502 -1.5116 1.13786 0
M  V30 8962 O 853.845 -1.83109 0.147283 0
M  V30 8963 C 853.907 -0.922587 3.4746 0
M  V30 8964 C 853.571 0.0935207 4.56904 0
M  V30 8965 C 854.568 0.907571 5.11917 0
M  V30 8966 C 852.253 0.223276 5.01804 0
M  V30 8967 C 854.247 1.83771 6.10333 0
M  V30 8968 C 851.934 1.15691 6.00049 0
M  V30 8969 C 852.932 1.96264 6.54194 0
M  V30 8970 O 852.62 2.88052 7.50521 0
M  V30 8971 H 852.352 -0.0893313 0.670072 0
M  V30 8972 H 854.906 0.384821 2.01763 0
M  V30 8973 H 853.136 -1.72206 3.4624 0
M  V30 8974 H 854.825 -1.45846 3.78792 0
M  V30 8975 H 855.591 0.817979 4.78052 0
M  V30 8976 H 851.47 -0.393834 4.59315 0
M  V30 8977 H 855.014 2.46703 6.52521 0
M  V30 8978 H 850.911 1.24738 6.33333 0
M  V30 8979 H 851.679 2.82557 7.68182 0
M  V30 8980 N 854.342 -1.57594 -0.0133615 0
M  V30 8981 C 855.29 -2.08682 -1.02736 0
M  V30 8982 C 856.284 -1.00391 -1.36448 0
M  V30 8983 O 857.49 -1.18868 -1.35168 0
M  V30 8984 H 853.865 -0.666158 -0.34891 0
M  V30 8985 H 855.836 -2.9289 -0.570815 0
M  V30 8986 C 854.585 -2.5945 -2.31476 0
M  V30 8987 H 853.908 -3.42401 -2.06401 0
M  V30 8988 H 855.348 -2.98888 -3.00735 0
M  V30 8989 C 853.807 -1.50266 -3.01533 0
M  V30 8990 O 854.337 -0.877875 -3.9199 0
M  V30 8991 N 852.543 -1.23336 -2.63129 0
M  V30 8992 H 852.09 -1.74327 -1.89652 0
M  V30 8993 H 852.048 -0.504987 -3.10318 0
M  V30 8994 N 855.82 0.285905 -1.54985 0
M  V30 8995 C 856.768 1.37302 -1.87752 0
M  V30 8996 C 857.762 1.51763 -0.752616 0
M  V30 8997 O 858.968 1.53701 -0.936805 0
M  V30 8998 H 855.343 0.458935 -0.59572 0
M  V30 8999 H 857.314 1.0691 -2.78591 0
M  V30 9000 C 856.063 2.72885 -2.15474 0
M  V30 9001 H 855.386 2.62545 -3.01513 0
M  V30 9002 H 856.826 3.47925 -2.42331 0
M  V30 9003 C 855.285 3.22989 -0.958124 0
M  V30 9004 O 855.815 4.01268 -0.186219 0
M  V30 9005 N 854.021 2.80503 -0.759354 0
M  V30 9006 H 853.568 2.16961 -1.38874 0
M  V30 9007 H 853.526 3.14375 0.0396937 0
M  V30 9008 N 857.298 1.47698 0.54982 0
M  V30 9009 C 858.547 1.53961 1.30303 0
M  V30 9010 C 858.86 0.209731 1.94472 0
M  V30 9011 O 860.066 0.150418 2.71083 0
M  V30 9012 C 858.522 2.71436 2.36328 0
M  V30 9013 C 858.13 4.10983 1.78316 0
M  V30 9014 C 859.874 2.86996 3.12783 0
M  V30 9015 C 857.781 5.19747 2.82164 0
M  V30 9016 H 856.711 0.573098 0.489975 0
M  V30 9017 H 859.362 1.73989 0.583089 0
M  V30 9018 H 857.744 2.44801 3.11269 0
M  V30 9019 H 858.918 4.47552 1.09697 0
M  V30 9020 H 857.233 4.00371 1.1442 0
M  V30 9021 H 859.83 3.65422 3.90347 0
M  V30 9022 H 860.173 1.95712 3.67427 0
M  V30 9023 H 860.706 3.13436 2.44954 0
M  V30 9024 H 857.445 6.12932 2.32366 0
M  V30 9025 H 856.965 4.87688 3.49171 0
M  V30 9026 H 858.644 5.47014 3.4552 0
M  V30 9027 N 858.776 -0.797141 1.35954 0
M  V30 9028 C 860.004 -1.5858 1.32891 0
M  V30 9029 C 860.419 -1.88578 -0.0915564 0
M  V30 9030 O 859.776 -1.49532 -1.04625 0
M  V30 9031 C 859.827 -2.91143 2.14284 0
M  V30 9032 O 859.548 -2.62442 3.50793 0
M  V30 9033 C 861.049 -3.85476 2.18914 0
M  V30 9034 H 858.269 -0.492111 0.456144 0
M  V30 9035 H 860.813 -0.98994 1.78943 0
M  V30 9036 H 858.968 -3.47219 1.71807 0
M  V30 9037 H 859.382 -3.4715 3.93175 0
M  V30 9038 H 860.856 -4.75574 2.80238 0
M  V30 9039 H 861.333 -4.22758 1.19047 0
M  V30 9040 H 861.939 -3.35334 2.61593 0
M  V30 9041 N 860.254 -1.20106 -1.0204 0
M  V30 9042 C 861.494 -1.02013 -1.77123 0
M  V30 9043 C 861.858 0.440439 -1.8688 0
M  V30 9044 O 863.059 0.74144 -2.58372 0
M  V30 9045 C 861.33 -1.68058 -3.15423 0
M  V30 9046 S 862.889 -1.65016 -4.0659 0
M  V30 9047 H 859.707 -0.365882 -0.609632 0
M  V30 9048 H 862.309 -1.52597 -1.22206 0
M  V30 9049 H 861.013 -2.73544 -3.05944 0
M  V30 9050 H 860.544 -1.17589 -3.75415 0
M  V30 9051 H 862.559 -0.680341 -4.91514 0
M  V30 9052 N 861.732 1.21287 -1.00634 0
M  V30 9053 C 862.695 2.21927 -0.572821 0
M  V30 9054 C 863.695 1.5691 0.351541 0
M  V30 9055 O 864.885 1.73623 0.141643 0
M  V30 9056 C 862.017 3.40501 0.164932 0
M  V30 9057 H 863.21 2.61795 -1.463 0
M  V30 9058 H 860.763 1.34571 -0.794998 0
M  V30 9059 H 861.498 3.06123 1.07049 0
M  V30 9060 H 861.283 3.88912 -0.498962 0
M  V30 9061 H 862.773 4.15103 0.455945 0
M  V30 9062 N 863.21 0.781244 1.36873 0
M  V30 9063 C 864.435 0.360398 2.04245 0
M  V30 9064 C 864.86 -1.01242 1.58529 0
M  V30 9065 O 864.218 -1.65063 0.749936 0
M  V30 9066 C 864.266 0.42329 3.58107 0
M  V30 9067 O 863.37 -0.572796 4.08403 0
M  V30 9068 H 862.711 0.154386 0.645803 0
M  V30 9069 H 865.241 1.06008 1.74996 0
M  V30 9070 H 865.251 0.283967 4.07011 0
M  V30 9071 H 863.926 1.42477 3.90734 0
M  V30 9072 H 862.503 -0.395809 3.70793 0
M  V30 9073 N 864.689 -1.48329 0.532571 0
M  V30 9074 C 866.1 -1.86469 0.0927749 0
M  V30 9075 C 866.451 -1.44186 -1.3306 0
M  V30 9076 O 865.576 -0.833741 -1.99694 0
M  V30 9077 C 866.171 -3.38414 0.161588 0
M  V30 9078 C 864.73 -3.75739 -0.223028 0
M  V30 9079 C 863.877 -2.72377 0.520199 0
M  V30 9080 H 866.828 -1.40197 0.743678 0
M  V30 9081 H 866.849 -3.75314 -0.626059 0
M  V30 9082 H 866.361 -3.69159 1.19765 0
M  V30 9083 H 864.462 -3.50608 -1.26113 0
M  V30 9084 H 864.575 -4.78954 0.118385 0
M  V30 9085 H 862.939 -2.54678 -0.0338425 0
M  V30 9086 H 863.722 -3.05965 1.55694 0
M  V30 9087 N 866.167 -0.267825 -1.55308 0
M  V30 9088 C 867.578 0.231344 -1.85261 0
M  V30 9089 C 867.929 1.56006 -1.18982 0
M  V30 9090 O 867.054 2.1111 -0.475554 0
M  V30 9091 C 867.649 0.426537 -3.36104 0
M  V30 9092 C 866.208 0.869945 -3.66209 0
M  V30 9093 C 865.355 -0.0409522 -2.7727 0
M  V30 9094 H 868.306 -0.489821 -1.50952 0
M  V30 9095 H 868.327 1.26616 -3.58816 0
M  V30 9096 H 867.839 -0.540678 -3.84315 0
M  V30 9097 H 865.94 1.84889 -3.23492 0
M  V30 9098 H 866.053 0.712316 -4.73775 0
M  V30 9099 H 864.417 0.474097 -2.50249 0
M  V30 9100 H 865.2 -1.00392 -3.28293 0
M  V30 9101 N 867.645 1.57599 0.00500368 0
M  V30 9102 C 868.555 2.11532 1.01446 0
M  V30 9103 C 869.571 1.05941 1.3803 0
M  V30 9104 O 870.747 1.37815 1.46864 0
M  V30 9105 C 867.812 2.60382 2.28915 0
M  V30 9106 C 866.873 3.80554 1.98689 0
M  V30 9107 C 866.106 4.27064 3.20081 0
M  V30 9108 O 866.329 3.72939 4.31593 0
M  V30 9109 O 865.263 5.1927 3.04371 0
M  V30 9110 H 869.089 2.97993 0.586011 0
M  V30 9111 H 866.674 1.47718 0.223519 0
M  V30 9112 H 868.556 2.92024 3.03809 0
M  V30 9113 H 867.231 1.77022 2.71007 0
M  V30 9114 H 866.138 3.53893 1.21286 0
M  V30 9115 H 867.471 4.64972 1.61437 0
M  V30 9116 N 869.123 -0.277682 1.55134 0
M  V30 9117 C 870.369 -1.0114 1.7578 0
M  V30 9118 C 870.702 -1.86109 0.554719 0
M  V30 9119 O 869.977 -1.89275 -0.447813 0
M  V30 9120 C 870.26 -1.89789 3.06027 0
M  V30 9121 C 870.113 -1.07844 4.3668 0
M  V30 9122 C 871.432 -2.88577 3.32282 0
M  V30 9123 H 868.551 -0.366277 0.639539 0
M  V30 9124 H 871.193 -0.284155 1.87863 0
M  V30 9125 H 869.343 -2.51796 2.95856 0
M  V30 9126 H 871.015 -0.479432 4.58802 0
M  V30 9127 H 869.258 -0.381764 4.32117 0
M  V30 9128 H 869.929 -1.73179 5.24131 0
M  V30 9129 H 872.405 -2.36702 3.42215 0
M  V30 9130 H 871.281 -3.47749 4.2469 0
M  V30 9131 H 871.542 -3.63458 2.51696 0
M  V30 9132 N 870.601 -1.47988 -0.541979 0
M  V30 9133 C 871.847 -1.55623 -1.30036 0
M  V30 9134 C 872.18 -0.224254 -1.92901 0
M  V30 9135 O 871.455 0.768629 -1.78668 0
M  V30 9136 C 871.738 -2.68562 -2.39888 0
M  V30 9137 C 871.591 -4.11426 -1.81792 0
M  V30 9138 C 872.91 -2.77325 -3.41729 0
M  V30 9139 H 870.029 -0.566498 -0.471433 0
M  V30 9140 H 872.671 -1.8011 -0.604998 0
M  V30 9141 H 870.821 -2.47814 -2.992 0
M  V30 9142 H 872.493 -4.43581 -1.26624 0
M  V30 9143 H 870.736 -4.18989 -1.12386 0
M  V30 9144 H 871.407 -4.8625 -2.61276 0
M  V30 9145 H 873.883 -2.96085 -2.92357 0
M  V30 9146 H 872.759 -3.58097 -4.16002 0
M  V30 9147 H 873.02 -1.84995 -4.01534 0
M  V30 9148 N 872.079 0.78992 -1.36375 0
M  V30 9149 C 873.327 1.54472 -1.30319 0
M  V30 9150 C 873.648 1.94647 0.117338 0
M  V30 9151 O 872.918 1.64906 1.05748 0
M  V30 9152 H 871.498 0.572879 -0.479394 0
M  V30 9153 H 874.16 0.941245 -1.70665 0
M  V30 9154 H 873.256 2.45252 -1.93024 0
M  V30 9155 N 873.557 1.20646 1.01402 0
M  V30 9156 C 874.487 0.98155 2.11867 0
M  V30 9157 C 875.468 -0.0903712 1.6986 0
M  V30 9158 O 876.653 0.0676586 1.94082 0
M  V30 9159 C 873.783 0.535636 3.43145 0
M  V30 9160 C 872.737 1.55109 3.98905 0
M  V30 9161 C 872.063 0.961725 5.2598 0
M  V30 9162 C 873.363 2.93552 4.32001 0
M  V30 9163 H 875.057 1.90544 2.3094 0
M  V30 9164 H 872.603 0.917554 1.10982 0
M  V30 9165 H 874.556 0.365512 4.19812 0
M  V30 9166 H 873.28 -0.423882 3.23838 0
M  V30 9167 H 871.939 1.70862 3.24348 0
M  V30 9168 H 871.587 -0.00580108 5.03 0
M  V30 9169 H 871.287 1.63993 5.64252 0
M  V30 9170 H 872.811 0.802726 6.053 0
M  V30 9171 H 874.225 2.81295 4.99546 0
M  V30 9172 H 872.622 3.58303 4.81393 0
M  V30 9173 H 873.692 3.4508 3.40658 0
M  V30 9174 N 875.035 -1.20752 1.01276 0
M  V30 9175 C 876.312 -1.85676 0.615112 0
M  V30 9176 C 876.692 -1.90623 -0.906976 0
M  V30 9177 O 876.04 -1.41124 -1.79712 0
M  V30 9178 C 876.25 -3.2552 1.25847 0
M  V30 9179 C 877.598 -4.0184 1.37148 0
M  V30 9180 O 878.622 -3.3486 1.21438 0
M  V30 9181 O 877.481 -5.21783 1.62495 0
M  V30 9182 H 874.575 -0.799437 0.211729 0
M  V30 9183 H 877.121 -1.28372 1.10989 0
M  V30 9184 H 875.893 -3.16664 2.29869 0
M  V30 9185 H 875.516 -3.90452 0.750524 0
M  V30 9186 N 876.513 -0.788492 -1.36457 0
M  V30 9187 C 877.443 -0.200468 -2.32638 0
M  V30 9188 C 878.424 0.664031 -1.56603 0
M  V30 9189 O 879.609 0.598045 -1.84762 0
M  V30 9190 C 876.739 0.666274 -3.40849 0
M  V30 9191 C 875.693 -0.0982574 -4.27887 0
M  V30 9192 C 875.019 0.889018 -5.27258 0
M  V30 9193 C 876.319 -1.28692 -5.06197 0
M  V30 9194 H 878.013 -1.00399 -2.82065 0
M  V30 9195 H 875.559 -0.484237 -1.35614 0
M  V30 9196 H 877.512 1.08757 -4.07124 0
M  V30 9197 H 876.236 1.50249 -2.89987 0
M  V30 9198 H 874.895 -0.500525 -3.63167 0
M  V30 9199 H 874.543 1.72024 -4.7267 0
M  V30 9200 H 874.243 0.381909 -5.86358 0
M  V30 9201 H 875.767 1.30891 -5.96406 0
M  V30 9202 H 877.181 -0.941429 -5.65517 0
M  V30 9203 H 875.578 -1.72726 -5.74705 0
M  V30 9204 H 876.648 -2.08273 -4.37893 0
M  V30 9205 N 877.991 1.48044 -0.54043 0
M  V30 9206 C 879.407 1.58354 -0.199006 0
M  V30 9207 C 879.607 1.54118 1.29807 0
M  V30 9208 O 878.663 1.43573 2.07709 0
M  V30 9209 C 879.976 2.89563 -0.810797 0
M  V30 9210 C 881.524 3.03113 -0.780486 0
M  V30 9211 C 881.999 4.36997 -1.37104 0
M  V30 9212 N 883.49 4.43591 -1.33347 0
M  V30 9213 C 884.225 5.45714 -1.76021 0
M  V30 9214 N 883.721 6.54738 -2.26473 0
M  V30 9215 N 885.514 5.36659 -1.67194 0
M  V30 9216 H 877.665 1.49041 -1.51329 0
M  V30 9217 H 879.928 0.708309 -0.630081 0
M  V30 9218 H 879.634 2.9835 -1.86227 0
M  V30 9219 H 879.508 3.76053 -0.293977 0
M  V30 9220 H 881.895 2.93932 0.262246 0
M  V30 9221 H 881.976 2.18207 -1.33489 0
M  V30 9222 H 881.62 4.46932 -2.41276 0
M  V30 9223 H 881.55 5.20607 -0.792229 0
M  V30 9224 H 884.041 3.65391 -0.964259 0
M  V30 9225 H 884.354 7.28814 -2.57002 0
M  V30 9226 H 882.699 6.55673 -2.30473 0
M  V30 9227 H 885.89 4.50382 -1.27569 0
M  V30 9228 H 886.063 6.16113 -2.00771 0
M  V30 9229 N 879.47 0.276058 1.55163 0
M  V30 9230 C 880.747 -0.392292 1.91626 0
M  V30 9231 C 881.127 -1.73646 1.20043 0
M  V30 9232 O 880.475 -2.26139 0.327606 0
M  V30 9233 C 880.685 -0.531641 3.44927 0
M  V30 9234 C 882.033 -0.8141 4.16722 0
M  V30 9235 O 883.057 -0.616413 3.50826 0
M  V30 9236 O 881.916 -1.19224 5.33337 0
M  V30 9237 H 879.01 -0.214945 0.798579 0
M  V30 9238 H 881.556 0.32228 1.66612 0
M  V30 9239 H 880.328 0.414282 3.89101 0
M  V30 9240 H 879.951 -1.29564 3.75897 0
M  V30 9241 N 880.948 -1.576 0.00335426 0
M  V30 9242 C 881.878 -2.11668 -0.985839 0
M  V30 9243 C 882.859 -1.02661 -1.35627 0
M  V30 9244 O 884.044 -1.30361 -1.43943 0
M  V30 9245 C 881.174 -2.62273 -2.27662 0
M  V30 9246 C 880.128 -3.75837 -2.0477 0
M  V30 9247 C 879.454 -4.12769 -3.39891 0
M  V30 9248 C 880.754 -5.02975 -1.40759 0
M  V30 9249 H 882.448 -2.9457 -0.535637 0
M  V30 9250 H 879.994 -1.41702 -0.256204 0
M  V30 9251 H 881.947 -2.98727 -2.97221 0
M  V30 9252 H 880.671 -1.76498 -2.74802 0
M  V30 9253 H 879.33 -3.39782 -1.37636 0
M  V30 9254 H 878.978 -3.24013 -3.8474 0
M  V30 9255 H 878.678 -4.89281 -3.25389 0
M  V30 9256 H 880.202 -4.51784 -4.1076 0
M  V30 9257 H 881.616 -5.37179 -2.00279 0
M  V30 9258 H 880.013 -5.84315 -1.36734 0
M  V30 9259 H 881.083 -4.83431 -0.377218 0
M  V30 9260 N 882.426 0.269451 -1.5528 0
M  V30 9261 C 883.651 1.02299 -1.80415 0
M  V30 9262 C 884.076 1.7902 -0.577363 0
M  V30 9263 O 883.434 1.75018 0.473125 0
M  V30 9264 C 883.482 1.95445 -3.0304 0
M  V30 9265 O 882.586 3.04271 -2.78375 0
M  V30 9266 H 881.927 0.292289 -0.596207 0
M  V30 9267 H 884.457 0.297282 -2.02429 0
M  V30 9268 H 884.467 2.37333 -3.31869 0
M  V30 9269 H 883.142 1.39017 -3.91978 0
M  V30 9270 H 881.719 2.66673 -2.60653 0
M  V30 9271 N 883.904 1.48273 0.534124 0
M  V30 9272 C 884.814 1.65162 1.66609 0
M  V30 9273 C 885.83 0.534177 1.65598 0
M  V30 9274 O 887.006 0.804715 1.84625 0
M  V30 9275 C 884.071 1.68354 3.03081 0
M  V30 9276 C 883.132 2.91696 3.1498 0
M  V30 9277 C 882.365 2.94725 4.44941 0
M  V30 9278 O 882.588 2.06285 5.31792 0
M  V30 9279 O 881.522 3.8685 4.61119 0
M  V30 9280 H 885.348 2.60991 1.55298 0
M  V30 9281 H 882.933 1.31626 0.706749 0
M  V30 9282 H 884.815 1.72998 3.84252 0
M  V30 9283 H 883.49 0.756978 3.14725 0
M  V30 9284 H 882.397 2.92586 2.33119 0
M  V30 9285 H 883.73 3.83722 3.0825 0
M  V30 9286 N 885.382 -0.782676 1.36792 0
M  V30 9287 C 886.345 -1.8772 1.31507 0
M  V30 9288 C 887.345 -1.59269 0.221349 0
M  V30 9289 O 888.535 -1.67555 0.476544 0
M  V30 9290 C 885.667 -3.24641 1.04025 0
M  V30 9291 H 886.86 -1.9382 2.28853 0
M  V30 9292 H 884.413 -0.981226 1.21662 0
M  V30 9293 H 885.148 -3.24221 0.0716439 0
M  V30 9294 H 884.933 -3.46681 1.8318 0
M  V30 9295 H 886.423 -4.04711 1.02949 0
M  V30 9296 N 886.86 -1.21182 -1.00761 0
M  V30 9297 C 887.81 -0.936247 -2.0789 0
M  V30 9298 C 888.794 0.107482 -1.60541 0
M  V30 9299 O 889.986 -0.1011 -1.76711 0
M  V30 9300 C 887.115 -0.499949 -3.3964 0
M  V30 9301 C 886.201 -1.5776 -3.93666 0
M  V30 9302 N 886.592 -2.80208 -4.2109 0
M  V30 9303 C 884.89 -1.44586 -4.21913 0
M  V30 9304 C 885.591 -3.49787 -4.64784 0
M  V30 9305 N 884.567 -2.7722 -4.676 0
M  V30 9306 H 888.369 -1.86659 -2.27015 0
M  V30 9307 H 885.883 -1.10716 -1.1881 0
M  V30 9308 H 887.88 -0.283897 -4.15932 0
M  V30 9309 H 886.54 0.423659 -3.21924 0
M  V30 9310 H 887.551 -3.16776 -4.09724 0
M  V30 9311 H 884.228 -0.587346 -4.13348 0
M  V30 9312 H 885.618 -4.54615 -4.94747 0
M  V30 9313 N 888.338 1.20213 -1.01915 0
M  V30 9314 C 889.585 1.89647 -0.709955 0
M  V30 9315 C 889.913 1.7901 0.760631 0
M  V30 9316 O 889.168 1.17028 1.56853 0
M  V30 9317 C 889.467 3.40232 -1.09438 0
M  V30 9318 C 889.133 3.7107 -2.5616 0
M  V30 9319 C 887.795 3.79196 -2.96249 0
M  V30 9320 C 890.147 3.85169 -3.51133 0
M  V30 9321 C 887.475 3.98882 -4.30244 0
M  V30 9322 C 889.827 4.06365 -4.8482 0
M  V30 9323 C 888.491 4.12722 -5.24611 0
M  V30 9324 H 887.761 0.693967 -0.259791 0
M  V30 9325 H 890.408 1.42419 -1.2802 0
M  V30 9326 H 888.713 3.89292 -0.442596 0
M  V30 9327 H 890.41 3.92257 -0.832811 0
M  V30 9328 H 887 3.65346 -2.24099 0
M  V30 9329 H 891.184 3.78243 -3.21319 0
M  V30 9330 H 886.44 4.02039 -4.60624 0
M  V30 9331 H 890.614 4.16216 -5.58334 0
M  V30 9332 H 888.241 4.27728 -6.28453 0
M  V30 9333 N 889.816 0.795718 1.36037 0
M  V30 9334 C 890.779 0.204318 2.28287 0
M  V30 9335 C 891.779 -0.602017 1.49105 0
M  V30 9336 O 892.969 -0.422089 1.69009 0
M  V30 9337 C 890.101 -0.716431 3.33287 0
M  V30 9338 H 891.294 1.01781 2.821 0
M  V30 9339 H 888.847 0.565588 1.45708 0
M  V30 9340 H 889.582 -1.55403 2.84641 0
M  V30 9341 H 889.367 -0.140096 3.9185 0
M  V30 9342 H 890.857 -1.12488 4.02164 0
M  V30 9343 N 891.294 -1.47756 0.548274 0
M  V30 9344 C 892.705 -1.8636 0.112547 0
M  V30 9345 C 893.056 -1.45589 -1.31523 0
M  V30 9346 O 892.181 -0.854874 -1.98799 0
M  V30 9347 C 892.776 -3.38224 0.197473 0
M  V30 9348 C 891.335 -3.75954 -0.183163 0
M  V30 9349 C 890.482 -2.7181 0.549059 0
M  V30 9350 H 893.433 -1.394 0.758506 0
M  V30 9351 H 893.454 -3.75957 -0.586217 0
M  V30 9352 H 892.966 -3.67868 1.23673 0
M  V30 9353 H 891.067 -3.51926 -1.22387 0
M  V30 9354 H 891.18 -4.78801 0.169178 0
M  V30 9355 H 889.544 -2.54699 -0.00682862 0
M  V30 9356 H 890.327 -3.04296 1.5893 0
M  V30 9357 N 892.772 -0.284283 -1.55015 0
M  V30 9358 C 894.012 0.330942 -2.01703 0
M  V30 9359 C 894.376 1.52362 -1.16832 0
M  V30 9360 O 895.577 2.20909 -1.53142 0
M  V30 9361 C 893.848 0.694712 -3.50583 0
M  V30 9362 S 895.407 1.29517 -4.1925 0
M  V30 9363 H 892.225 0.10247 -0.703577 0
M  V30 9364 H 894.827 -0.408257 -1.9119 0
M  V30 9365 H 893.531 -0.182056 -4.09996 0
M  V30 9366 H 893.062 1.46513 -3.65099 0
M  V30 9367 H 895.077 2.58352 -4.23638 0
M  V30 9368 O 894.289 1.608 -0.150255 0
M  V30 9369 H 894.98 1.88563 0.443155 0
M  V30 END ATOM
M  V30 BEGIN BOND
M  V30 END BOND
M  V30 END CTAB
M  END
$$$$
