drugbank_target|P35913 Rod cGMP-specific 3',5'-cyclic phosphodiesterase subunit beta (DB00201; DB09283)
 OpenBabel12092121013D

  0  0  0     0  0            999 V3000
M  V30 BEGIN CTAB
M  V30 COUNTS 13711 13858 0 0 0
M  V30 BEGIN ATOM
M  V30 1 H -0.908 1.98254 -0.117106 0
M  V30 2 N 0 1.576 0 0
M  V30 3 C 0.933 2.03868 1.02534 0
M  V30 4 C 1.911 0.928543 1.3348 0
M  V30 5 O 3.095 1.19667 1.45644 0
M  V30 6 C 0.222 2.43627 2.35294 0
M  V30 7 C -0.732 3.65373 2.2001 0
M  V30 8 S 0.101 5.13292 1.52614 0
M  V30 9 C 1.257 5.56322 2.86805 0
M  V30 10 H 1.49 2.90518 0.631377 0
M  V30 11 H -0.977 1.52953 0.210867 0
M  V30 12 H 0.981 2.67203 3.11629 0
M  V30 13 H -0.358 1.57376 2.7183 0
M  V30 14 H -1.165 3.90944 3.18086 0
M  V30 15 H -1.563 3.418 1.51819 0
M  V30 16 H 0.729 5.58782 3.83104 0
M  V30 17 H 1.672 6.56266 2.65933 0
M  V30 18 H 2.08 4.83886 2.90714 0
M  V30 19 N 1.4781 -0.272755 1.55222 0
M  V30 20 C 2.7031 -1.02683 1.80197 0
M  V30 21 C 3.1281 -1.79142 0.573551 0
M  V30 22 O 2.4861 -1.74917 -0.476849 0
M  V30 23 C 2.5341 -1.9609 3.02624 0
M  V30 24 O 1.6381 -3.04863 2.77727 0
M  V30 25 H 0.9791 -0.293557 0.595584 0
M  V30 26 H 3.5091 -0.30159 2.02365 0
M  V30 27 H 3.5191 -2.38039 3.31363 0
M  V30 28 H 2.1941 -1.39851 3.91682 0
M  V30 29 H 0.7711 -2.67228 2.60084 0
M  V30 30 N 2.9562 -1.48159 -0.537278 0
M  V30 31 C 3.8862 -1.65029 -1.6519 0
M  V30 32 C 4.8672 -0.499281 -1.62607 0
M  V30 33 O 6.0522 -0.730972 -1.79918 0
M  V30 34 C 3.1822 -1.68303 -3.03795 0
M  V30 35 C 2.1362 -2.8283 -3.21234 0
M  V30 36 C 1.4622 -2.71189 -4.60826 0
M  V30 37 C 2.7622 -4.24211 -3.04701 0
M  V30 38 H 4.4562 -2.58341 -1.51328 0
M  V30 39 H 2.0022 -1.24325 -0.726585 0
M  V30 40 H 3.9552 -1.78693 -3.81637 0
M  V30 41 H 2.6792 -0.715635 -3.18663 0
M  V30 42 H 1.3382 -2.71983 -2.45807 0
M  V30 43 H 0.9862 -1.72435 -4.7252 0
M  V30 44 H 0.6862 -3.48035 -4.7344 0
M  V30 45 H 2.2102 -2.83537 -5.40777 0
M  V30 46 H 3.6242 -4.3593 -3.72341 0
M  V30 47 H 2.0212 -5.01998 -3.28813 0
M  V30 48 H 3.0912 -4.41184 -2.01209 0
M  V30 49 N 4.4343 0.785586 -1.36625 0
M  V30 50 C 5.6593 1.57963 -1.34397 0
M  V30 51 C 6.0843 1.87964 0.071526 0
M  V30 52 O 5.4423 1.48182 1.0446 0
M  V30 53 C 5.4903 2.87511 -2.17646 0
M  V30 54 O 4.5943 3.81281 -1.57158 0
M  V30 55 H 3.9353 0.479014 -0.459828 0
M  V30 56 H 6.4653 0.973411 -1.79961 0
M  V30 57 H 6.4753 3.36745 -2.30362 0
M  V30 58 H 5.1503 2.65002 -3.20541 0
M  V30 59 H 3.7273 3.39885 -1.53403 0
M  V30 60 N 5.9124 1.20967 1.01018 0
M  V30 61 C 6.8224 0.980157 2.13143 0
M  V30 62 C 7.8384 -0.0660665 1.73875 0
M  V30 63 O 9.0144 0.122821 2.01025 0
M  V30 64 C 6.0794 0.54216 3.42435 0
M  V30 65 C 5.1404 1.65999 3.95908 0
M  V30 66 C 4.3734 1.2428 5.19028 0
M  V30 67 O 4.5964 0.114196 5.70286 0
M  V30 68 O 3.5304 2.05271 5.65816 0
M  V30 69 H 7.3564 1.91913 2.35379 0
M  V30 70 H 4.9414 0.994099 1.11526 0
M  V30 71 H 6.8234 0.30744 4.20277 0
M  V30 72 H 5.4984 -0.36815 3.216 0
M  V30 73 H 4.4054 1.94906 3.19316 0
M  V30 74 H 5.7384 2.54753 4.21143 0
M  V30 75 N 7.3905 -1.2043 1.01659 0
M  V30 76 C 8.3005 -2.2689 0.596484 0
M  V30 77 C 9.3165 -1.70107 -0.36599 0
M  V30 78 O 10.4925 -2.00117 -0.226942 0
M  V30 79 C 7.5575 -3.4665 -0.0586659 0
M  V30 80 C 6.6185 -4.18662 0.949751 0
M  V30 81 C 5.8515 -5.32705 0.32577 0
M  V30 82 O 6.0745 -5.63656 -0.874509 0
M  V30 83 O 5.0085 -5.92803 1.04249 0
M  V30 84 H 8.8345 -2.65041 1.4828 0
M  V30 85 H 6.4195 -1.27048 0.786082 0
M  V30 86 H 8.3015 -4.19256 -0.424564 0
M  V30 87 H 6.9765 -3.10375 -0.91918 0
M  V30 88 H 5.8835 -3.48229 1.36702 0
M  V30 89 H 7.2165 -4.58878 1.78023 0
M  V30 90 N 8.8686 -0.792821 -1.36206 0
M  V30 91 C 9.8006 -0.151469 -2.28699 0
M  V30 92 C 10.8136 0.641262 -1.49638 0
M  V30 93 O 12.0026 0.475885 -1.72039 0
M  V30 94 C 9.1026 0.808424 -3.29117 0
M  V30 95 C 8.2756 0.0650202 -4.37352 0
M  V30 96 C 7.3346 0.941358 -5.17711 0
M  V30 97 O 6.3606 0.397352 -5.67811 0
M  V30 98 N 7.5626 2.2652 -5.3448 0
M  V30 99 H 10.3276 -0.945982 -2.84379 0
M  V30 100 H 7.8886 -0.647032 -1.48409 0
M  V30 101 H 9.8806 1.3986 -3.79765 0
M  V30 102 H 8.4506 1.5038 -2.74052 0
M  V30 103 H 7.6706 -0.706255 -3.87822 0
M  V30 104 H 8.9586 -0.447847 -5.06825 0
M  V30 105 H 8.3566 2.73128 -4.95396 0
M  V30 106 H 6.9136 2.80493 -5.88359 0
M  V30 107 N 10.3467 1.47872 -0.545128 0
M  V30 108 C 11.3097 2.28337 0.198717 0
M  V30 109 C 12.3097 1.36255 0.853888 0
M  V30 110 O 13.4997 1.59003 0.711606 0
M  V30 111 C 10.6317 3.15585 1.28915 0
M  V30 112 H 11.8247 2.95567 -0.507941 0
M  V30 113 H 9.3777 1.53362 -0.301616 0
M  V30 114 H 10.1127 2.53019 2.02859 0
M  V30 115 H 9.8977 3.83337 0.824309 0
M  V30 116 H 11.3877 3.76243 1.81194 0
M  V30 117 N 11.8248 0.280983 1.55075 0
M  V30 118 C 13.2408 -0.0729964 1.59433 0
M  V30 119 C 13.4408 -1.5411 1.29817 0
M  V30 120 O 12.4968 -2.29086 1.06187 0
M  V30 121 C 13.8098 0.306921 2.9913 0
M  V30 122 C 15.3578 0.254023 3.11968 0
M  V30 123 C 15.8328 0.608467 4.5394 0
M  V30 124 N 17.3238 0.560241 4.59799 0
M  V30 125 C 18.0588 0.80722 5.6769 0
M  V30 126 N 17.5548 1.11912 6.83701 0
M  V30 127 N 19.3478 0.735623 5.57266 0
M  V30 128 H 11.4988 1.238 1.7259 0
M  V30 129 H 13.7618 0.500547 0.805082 0
M  V30 130 H 13.4678 1.32816 3.25657 0
M  V30 131 H 13.3418 -0.349363 3.75579 0
M  V30 132 H 15.7288 -0.75794 2.852 0
M  V30 133 H 15.8098 0.944649 2.37718 0
M  V30 134 H 15.4538 1.61814 4.81434 0
M  V30 135 H 15.3838 -0.104013 5.26497 0
M  V30 136 H 17.8748 0.329288 3.76463 0
M  V30 137 H 18.1878 1.29409 7.61888 0
M  V30 138 H 16.5328 1.15695 6.85303 0
M  V30 139 H 19.7238 0.491752 4.6551 0
M  V30 140 H 19.8968 0.931482 6.4127 0
M  V30 141 N 13.3029 -1.57598 0.00835791 0
M  V30 142 C 14.5279 -1.95617 -0.689103 0
M  V30 143 C 14.9529 -0.883753 -1.66046 0
M  V30 144 O 14.3109 0.157352 -1.80616 0
M  V30 145 C 14.3589 -3.32736 -1.38994 0
M  V30 146 O 13.4629 -3.27631 -2.50463 0
M  V30 147 H 12.8039 -0.638379 -0.182668 0
M  V30 148 H 15.3339 -2.045 0.064036 0
M  V30 149 H 15.3439 -3.68494 -1.75147 0
M  V30 150 H 14.0189 -4.1034 -0.677778 0
M  V30 151 H 12.5959 -3.03561 -2.16576 0
M  V30 152 N 14.781 0.264519 -1.55364 0
M  V30 153 C 16.028 0.994986 -1.7637 0
M  V30 154 C 16.356 1.85976 -0.5695 0
M  V30 155 O 15.611 1.90509 0.44776 0
M  V30 156 C 15.91 1.9004 -3.02687 0
M  V30 157 C 15.576 1.19243 -4.34847 0
M  V30 158 C 14.238 0.996709 -4.70764 0
M  V30 159 C 16.59 0.689296 -5.16622 0
M  V30 160 C 13.918 0.285261 -5.86006 0
M  V30 161 C 16.27 -0.00860079 -6.32599 0
M  V30 162 C 14.934 -0.215963 -6.67151 0
M  V30 163 H 14.204 0.364091 -0.645383 0
M  V30 164 H 16.851 0.266543 -1.89636 0
M  V30 165 H 15.156 2.69533 -2.84357 0
M  V30 166 H 16.853 2.46695 -3.16137 0
M  V30 167 H 13.443 1.3549 -4.06621 0
M  V30 168 H 17.627 0.828108 -4.89342 0
M  V30 169 H 12.883 0.113961 -6.11294 0
M  V30 170 H 17.057 -0.406186 -6.95214 0
M  V30 171 H 14.684 -0.769217 -7.56298 0
M  V30 172 N 16.2591 1.48442 0.529413 0
M  V30 173 C 17.1891 1.65902 1.64313 0
M  V30 174 C 18.1701 0.507897 1.6234 0
M  V30 175 O 19.3551 0.740503 1.79528 0
M  V30 176 C 16.4851 1.69911 3.02898 0
M  V30 177 C 15.4391 2.8453 3.19729 0
M  V30 178 C 14.7651 2.73629 4.59381 0
M  V30 179 C 16.0651 4.25821 3.02447 0
M  V30 180 H 17.7591 2.5914 1.49955 0
M  V30 181 H 15.3051 1.24709 0.719982 0
M  V30 182 H 17.2581 1.80715 3.80684 0
M  V30 183 H 15.9821 0.732524 3.18279 0
M  V30 184 H 14.6411 2.73283 2.44361 0
M  V30 185 H 14.2891 1.74938 4.71599 0
M  V30 186 H 13.9891 3.50541 4.71588 0
M  V30 187 H 15.5131 2.86401 5.39265 0
M  V30 188 H 16.9271 4.37898 3.70024 0
M  V30 189 H 15.3241 5.03735 3.26146 0
M  V30 190 H 16.3941 4.42244 1.98867 0
M  V30 191 N 17.7372 -0.778329 1.37039 0
M  V30 192 C 19.0142 -1.52551 1.22424 0
M  V30 193 C 19.3942 -2.10288 -0.184964 0
M  V30 194 O 18.7422 -1.94953 -1.19187 0
M  V30 195 C 18.9522 -2.61164 2.31504 0
M  V30 196 C 20.3002 -3.28746 2.68721 0
M  V30 197 O 21.3242 -2.71455 2.30631 0
M  V30 198 O 20.1832 -4.3231 3.3432 0
M  V30 199 H 17.2772 -0.675343 0.477326 0
M  V30 200 H 19.8232 -0.815859 1.48801 0
M  V30 201 H 18.5952 -2.16574 3.25901 0
M  V30 202 H 18.2182 -3.39737 2.06554 0
M  V30 203 N 19.2153 -1.21501 -1.00376 0
M  V30 204 C 20.1473 -0.933174 -2.09343 0
M  V30 205 C 21.1603 0.0840896 -1.62583 0
M  V30 206 O 22.3493 -0.148563 -1.77881 0
M  V30 207 C 19.4493 -0.379869 -3.36764 0
M  V30 208 C 18.6223 -1.45176 -4.12605 0
M  V30 209 C 17.6813 -0.907476 -5.18316 0
M  V30 210 O 16.7073 -1.5912 -5.46507 0
M  V30 211 N 17.9093 0.276649 -5.7984 0
M  V30 212 H 20.6743 -1.87124 -2.34104 0
M  V30 213 H 18.2353 -1.12043 -1.16867 0
M  V30 214 H 20.2273 -0.00131488 -4.047 0
M  V30 215 H 18.7973 0.463048 -3.09151 0
M  V30 216 H 18.0173 -2.00411 -3.39454 0
M  V30 217 H 19.3053 -2.17328 -4.6005 0
M  V30 218 H 18.7033 0.849147 -5.59291 0
M  V30 219 H 17.2603 0.596702 -6.49063 0
M  V30 220 N 20.6934 1.19889 -1.02296 0
M  V30 221 C 21.6414 2.24938 -0.592081 0
M  V30 222 C 22.6354 1.65257 0.372357 0
M  V30 223 O 23.8414 1.78371 0.241583 0
M  V30 224 H 20.2164 0.731787 -0.173182 0
M  V30 225 H 22.1874 2.58603 -1.48885 0
M  V30 226 C 20.9364 3.47668 0.047351 0
M  V30 227 H 20.2594 3.93875 -0.685772 0
M  V30 228 H 21.6994 4.22852 0.311862 0
M  V30 229 C 20.1584 3.11136 1.29212 0
M  V30 230 O 20.6884 3.2325 2.38479 0
M  V30 231 N 18.8944 2.65625 1.17863 0
M  V30 232 H 18.4414 2.55968 0.289493 0
M  V30 233 H 18.3994 2.41553 2.01245 0
M  V30 234 N 22.1715 0.800033 1.35784 0
M  V30 235 C 23.5825 0.439142 1.81462 0
M  V30 236 C 23.9335 -1.03813 1.66485 0
M  V30 237 O 23.0585 -1.80626 1.19177 0
M  V30 238 C 23.6535 0.790314 3.29453 0
M  V30 239 C 22.2125 0.482111 3.733 0
M  V30 240 C 21.3595 1.01938 2.57883 0
M  V30 241 H 24.3105 0.992254 1.23855 0
M  V30 242 H 24.3315 0.0853677 3.80404 0
M  V30 243 H 23.8435 1.86554 3.40322 0
M  V30 244 H 21.9445 -0.584652 3.67984 0
M  V30 245 H 22.0575 1.01015 4.6833 0
M  V30 246 H 20.4215 0.442043 2.50835 0
M  V30 247 H 21.2045 2.10059 2.71533 0
M  V30 248 N 23.6496 -1.47581 0.552962 0
M  V30 249 C 24.9266 -1.95563 -0.0381515 0
M  V30 250 C 25.3066 -1.49552 -1.48988 0
M  V30 251 O 24.6546 -0.732414 -2.16444 0
M  V30 252 C 24.8646 -3.48848 0.102919 0
M  V30 253 C 26.2126 -4.24577 -0.0446082 0
M  V30 254 O 27.2366 -3.56187 0.0302548 0
M  V30 255 O 26.0956 -5.46116 -0.204923 0
M  V30 256 H 23.1896 -0.824321 -0.0665067 0
M  V30 257 H 25.7356 -1.58001 0.619186 0
M  V30 258 H 24.5076 -3.75129 1.11328 0
M  V30 259 H 24.1306 -3.93165 -0.592224 0
M  V30 260 N 25.1277 -0.289203 -1.54924 0
M  V30 261 C 26.3747 0.323519 -1.99899 0
M  V30 262 C 26.7027 1.54797 -1.17762 0
M  V30 263 O 25.9577 1.94237 -0.238835 0
M  V30 264 C 26.2567 0.736119 -3.49737 0
M  V30 265 C 25.9227 -0.385276 -4.49251 0
M  V30 266 C 24.5847 -0.693156 -4.76181 0
M  V30 267 C 26.9367 -1.14021 -5.08575 0
M  V30 268 C 24.2647 -1.7593 -5.59701 0
M  V30 269 C 26.6167 -2.19619 -5.93254 0
M  V30 270 C 25.2807 -2.51026 -6.185 0
M  V30 271 H 24.5507 0.118384 -0.731482 0
M  V30 272 H 27.1977 -0.405847 -1.8715 0
M  V30 273 H 25.5027 1.54539 -3.60035 0
M  V30 274 H 27.1997 1.22118 -3.81953 0
M  V30 275 H 23.7897 -0.135202 -4.28387 0
M  V30 276 H 27.9737 -0.915611 -4.87781 0
M  V30 277 H 23.2297 -2.0075 -5.77503 0
M  V30 278 H 27.4037 -2.78581 -6.38252 0
M  V30 279 H 25.0307 -3.33772 -6.83008 0
M  V30 280 N 26.6058 1.57591 -0.0167156 0
M  V30 281 C 27.5688 2.08393 0.954204 0
M  V30 282 C 28.5688 0.996531 1.26198 0
M  V30 283 O 29.7588 1.25858 1.20438 0
M  V30 284 C 26.8908 2.5394 2.27436 0
M  V30 285 H 28.0838 2.95455 0.514451 0
M  V30 286 H 25.6368 1.54582 0.231089 0
M  V30 287 H 26.3718 1.70171 2.76066 0
M  V30 288 H 26.1568 3.33371 2.06412 0
M  V30 289 H 27.6468 2.93512 2.97053 0
M  V30 290 N 28.0839 -0.256276 1.55502 0
M  V30 291 C 29.4999 -0.604325 1.47716 0
M  V30 292 C 29.6999 -1.88763 0.705039 0
M  V30 293 O 28.7559 -2.51445 0.230613 0
M  V30 294 C 30.0689 -0.715756 2.92057 0
M  V30 295 C 31.6169 -0.808706 3.02372 0
M  V30 296 C 32.0919 -0.951777 4.48001 0
M  V30 297 N 33.5829 -1.01688 4.519 0
M  V30 298 C 34.3179 -1.14668 5.61817 0
M  V30 299 N 33.8139 -1.24261 6.81565 0
M  V30 300 N 35.6069 -1.1791 5.49594 0
M  V30 301 H 27.7579 0.586291 2.04148 0
M  V30 302 H 30.0209 0.201015 0.926443 0
M  V30 303 H 29.7269 0.157027 3.51349 0
M  V30 304 H 29.6009 -1.59071 3.42018 0
M  V30 305 H 31.9879 -1.67195 2.43166 0
M  V30 306 H 32.0689 0.0912063 2.55637 0
M  V30 307 H 31.7129 -0.0931291 5.07815 0
M  V30 308 H 31.6429 -1.86659 4.92408 0
M  V30 309 H 34.1339 -0.954468 3.65648 0
M  V30 310 H 34.4469 -1.34046 7.61086 0
M  V30 311 H 32.7919 -1.21236 6.84344 0
M  V30 312 H 35.9829 -1.10057 4.54978 0
M  V30 313 H 36.1559 -1.27681 6.35296 0
M  V30 314 N 29.562 -1.4872 -0.521534 0
M  V30 315 C 30.494 -1.59968 -1.64143 0
M  V30 316 C 31.507 -0.483463 -1.55456 0
M  V30 317 O 32.696 -0.75467 -1.61762 0
M  V30 318 C 29.796 -1.52127 -3.02838 0
M  V30 319 C 28.969 -2.78932 -3.36921 0
M  V30 320 C 28.028 -2.64428 -4.54933 0
M  V30 321 O 27.054 -3.38331 -4.57735 0
M  V30 322 N 28.256 -1.74606 -5.53618 0
M  V30 323 H 31.021 -2.56548 -1.54929 0
M  V30 324 H 28.582 -1.45551 -0.708988 0
M  V30 325 H 30.574 -1.40106 -3.79674 0
M  V30 326 H 29.144 -0.634868 -3.06085 0
M  V30 327 H 28.364 -3.05455 -2.4918 0
M  V30 328 H 29.652 -3.63041 -3.56481 0
M  V30 329 H 29.05 -1.13782 -5.54139 0
M  V30 330 H 27.607 -1.6852 -6.29638 0
M  V30 331 N 31.0401 0.771051 -1.3745 0
M  V30 332 C 32.2701 1.55789 -1.35696 0
M  V30 333 C 32.6781 1.89107 0.0594523 0
M  V30 334 O 32.0211 1.51984 1.03183 0
M  V30 335 C 32.0831 2.89515 -2.13123 0
M  V30 336 C 31.7471 2.78829 -3.62082 0
M  V30 337 C 32.7441 2.49812 -4.5595 0
M  V30 338 C 30.4291 2.9683 -4.05213 0
M  V30 339 C 32.4231 2.38923 -5.90927 0
M  V30 340 C 30.1101 2.85562 -5.40276 0
M  V30 341 C 31.1081 2.56649 -6.32946 0
M  V30 342 O 30.7961 2.45408 -7.65526 0
M  V30 343 H 30.5281 0.489257 -0.466481 0
M  V30 344 H 33.0821 0.963446 -1.81403 0
M  V30 345 H 31.3121 3.51081 -1.62107 0
M  V30 346 H 33.0011 3.50915 -2.03994 0
M  V30 347 H 33.7671 2.3559 -4.23937 0
M  V30 348 H 29.6461 3.18335 -3.33442 0
M  V30 349 H 33.1901 2.16277 -6.63227 0
M  V30 350 H 29.0871 2.99351 -5.71891 0
M  V30 351 H 29.8551 2.60753 -7.75855 0
M  V30 352 N 32.5182 1.22032 0.997298 0
M  V30 353 C 33.7652 1.04222 1.73621 0
M  V30 354 C 34.0932 -0.423264 1.89839 0
M  V30 355 O 33.3482 -1.3302 1.43542 0
M  V30 356 C 33.6472 1.69345 3.14733 0
M  V30 357 C 33.3132 3.19226 3.18442 0
M  V30 358 C 31.9752 3.60124 3.19161 0
M  V30 359 C 34.3272 4.15181 3.15078 0
M  V30 360 C 31.6552 4.95467 3.14212 0
M  V30 361 C 34.0072 5.50495 3.1167 0
M  V30 362 C 32.6712 5.90779 3.10703 0
M  V30 363 H 31.9412 0.381374 0.635323 0
M  V30 364 H 34.5882 1.51732 1.16831 0
M  V30 365 H 32.8932 1.14147 3.74803 0
M  V30 366 H 34.5902 1.53059 3.7064 0
M  V30 367 H 31.1802 2.86659 3.18629 0
M  V30 368 H 35.3642 3.84605 3.13676 0
M  V30 369 H 30.6202 5.25916 3.11805 0
M  V30 370 H 34.7942 6.24576 3.08022 0
M  V30 371 H 32.4212 6.9562 3.06622 0
M  V30 372 N 33.9963 -1.19345 1.0293 0
M  V30 373 C 35.2443 -1.88665 0.724574 0
M  V30 374 C 35.5653 -1.80036 -0.749144 0
M  V30 375 O 34.8353 -1.2111 -1.53978 0
M  V30 376 H 33.4153 -0.698406 0.265025 0
M  V30 377 H 36.0773 -1.44885 1.30362 0
M  V30 378 H 35.1733 -2.94987 1.01926 0
M  V30 379 N 35.4744 -0.807222 -1.35358 0
M  V30 380 C 36.4214 -0.216037 -2.29787 0
M  V30 381 C 37.3914 0.650278 -1.52842 0
M  V30 382 O 38.5764 0.595227 -1.81278 0
M  V30 383 C 35.7164 0.628893 -3.39321 0
M  V30 384 C 34.8294 -0.257927 -4.31229 0
M  V30 385 C 33.9644 0.595069 -5.27856 0
M  V30 386 C 33.0034 -0.292111 -6.11403 0
M  V30 387 N 32.1404 0.520895 -7.00165 0
M  V30 388 H 36.9804 -1.02671 -2.79755 0
M  V30 389 H 34.5174 -0.517839 -1.37684 0
M  V30 390 H 36.4754 1.13393 -4.01494 0
M  V30 391 H 35.1054 1.40482 -2.90628 0
M  V30 392 H 34.1574 -0.881076 -3.70056 0
M  V30 393 H 35.4694 -0.940759 -4.89848 0
M  V30 394 H 34.6234 1.16522 -5.95405 0
M  V30 395 H 33.3624 1.31146 -4.69736 0
M  V30 396 H 32.3674 -0.874525 -5.428 0
M  V30 397 H 33.5924 -1.00638 -6.71602 0
M  V30 398 H 31.5384 1.22125 -6.44532 0
M  V30 399 H 31.4554 -0.103877 -7.55929 0
M  V30 400 H 32.7234 1.0743 -7.72062 0
M  V30 401 N 36.9525 1.47285 -0.560781 0
M  V30 402 C 37.8995 2.30058 0.18491 0
M  V30 403 C 38.8695 1.39281 0.904986 0
M  V30 404 O 40.0545 1.68241 0.899979 0
M  V30 405 C 37.1945 3.23317 1.20666 0
M  V30 406 C 36.3075 4.29186 0.492285 0
M  V30 407 C 35.4425 5.09592 1.49964 0
M  V30 408 C 34.4815 6.07232 0.770439 0
M  V30 409 N 33.6185 6.80584 1.72479 0
M  V30 410 H 38.4585 2.93302 -0.527048 0
M  V30 411 H 35.9955 1.44568 -0.271738 0
M  V30 412 H 37.9535 3.75811 1.81168 0
M  V30 413 H 36.5835 2.61929 1.88661 0
M  V30 414 H 35.6355 3.7972 -0.227333 0
M  V30 415 H 36.9475 4.98738 -0.0787929 0
M  V30 416 H 36.1015 5.66254 2.17809 0
M  V30 417 H 34.8405 4.3995 2.10464 0
M  V30 418 H 33.8455 5.49745 0.0780846 0
M  V30 419 H 35.0705 6.78884 0.171134 0
M  V30 420 H 33.0165 6.1367 2.3183 0
M  V30 421 H 32.9335 7.46319 1.20596 0
M  V30 422 H 34.2015 7.41818 2.39428 0
M  V30 423 N 38.4306 0.297415 1.54768 0
M  V30 424 C 39.3606 -0.573494 2.26348 0
M  V30 425 C 40.3416 -1.14085 1.26169 0
M  V30 426 O 41.5266 -1.17086 1.54934 0
M  V30 427 C 38.6566 -1.74716 3.00153 0
M  V30 428 C 37.6106 -1.31032 4.07449 0
M  V30 429 C 36.9366 -2.56887 4.68949 0
M  V30 430 C 38.2366 -0.444183 5.20408 0
M  V30 431 H 39.9306 0.0235131 2.99391 0
M  V30 432 H 37.4766 0.0127488 1.43994 0
M  V30 433 H 39.4296 -2.3625 3.48947 0
M  V30 434 H 38.1536 -2.37035 2.24682 0
M  V30 435 H 36.8126 -0.718066 3.59499 0
M  V30 436 H 36.4606 -3.17512 3.90122 0
M  V30 437 H 36.1606 -2.2836 5.41411 0
M  V30 438 H 37.6846 -3.19229 5.20505 0
M  V30 439 H 39.0986 -0.9651 5.65118 0
M  V30 440 H 37.4956 -0.252846 5.99567 0
M  V30 441 H 38.5656 0.531609 4.81977 0
M  V30 442 N 39.9087 -1.5758 0.0250728 0
M  V30 443 C 41.1337 -1.96337 -0.668317 0
M  V30 444 C 41.5587 -0.901314 -1.651 0
M  V30 445 O 40.9167 0.138187 -1.80773 0
M  V30 446 C 40.9647 -3.34191 -1.35457 0
M  V30 447 O 40.0687 -3.30269 -2.46974 0
M  V30 448 H 39.4097 -0.640281 -0.175887 0
M  V30 449 H 41.9397 -2.0442 0.0857224 0
M  V30 450 H 41.9497 -3.70331 -1.71228 0
M  V30 451 H 40.6247 -4.11036 -0.634218 0
M  V30 452 H 39.2017 -3.05841 -2.13344 0
M  V30 453 N 41.3868 0.248026 -1.55636 0
M  V30 454 C 42.7978 0.817177 -1.67866 0
M  V30 455 C 43.1488 1.86069 -0.622322 0
M  V30 456 O 42.2738 2.15157 0.231618 0
M  V30 457 C 42.8688 1.489 -3.04326 0
M  V30 458 C 41.4278 2.00587 -3.185 0
M  V30 459 C 40.5748 0.856573 -2.63739 0
M  V30 460 H 43.5258 0.0238579 -1.58682 0
M  V30 461 H 43.5468 2.35698 -2.98708 0
M  V30 462 H 43.0588 0.729279 -3.81186 0
M  V30 463 H 41.1598 2.79443 -2.4646 0
M  V30 464 H 41.2728 2.20402 -4.25393 0
M  V30 465 H 39.6368 1.25678 -2.21534 0
M  V30 466 H 40.4198 0.109953 -3.43124 0
M  V30 467 N 42.8649 1.48995 0.513639 0
M  V30 468 C 43.7749 1.67443 1.64317 0
M  V30 469 C 44.7909 0.556947 1.64846 0
M  V30 470 O 45.9669 0.830082 1.83498 0
M  V30 471 C 43.0319 1.72515 3.00732 0
M  V30 472 C 42.0929 2.96009 3.1093 0
M  V30 473 C 41.3259 3.00829 4.40837 0
M  V30 474 O 41.5489 2.13594 5.28898 0
M  V30 475 O 40.4829 3.93168 4.55744 0
M  V30 476 H 44.3089 2.63106 1.51687 0
M  V30 477 H 41.8939 1.32588 0.688543 0
M  V30 478 H 43.7759 1.78277 3.81831 0
M  V30 479 H 42.4509 0.800278 3.13651 0
M  V30 480 H 41.3579 2.9577 2.29065 0
M  V30 481 H 42.6909 3.87934 3.02933 0
M  V30 482 N 44.343 -0.763751 1.37857 0
M  V30 483 C 45.291 -1.89864 1.34367 0
M  V30 484 C 46.285 -1.67816 0.231143 0
M  V30 485 O 47.491 -1.75508 0.399617 0
M  V30 486 H 43.866 -0.624501 0.41893 0
M  V30 487 H 45.837 -1.89925 2.30155 0
M  V30 488 C 44.586 -3.27227 1.1755 0
M  V30 489 H 43.909 -3.44773 2.02414 0
M  V30 490 H 45.349 -4.06911 1.1916 0
M  V30 491 C 43.808 -3.36692 -0.118311 0
M  V30 492 O 44.338 -3.86374 -1.09902 0
M  V30 493 N 42.544 -2.90092 -0.171717 0
M  V30 494 H 42.091 -2.49853 0.627012 0
M  V30 495 H 42.049 -2.96806 -1.03699 0
M  V30 496 N 45.8211 -1.22559 -0.990812 0
M  V30 497 C 47.0671 -1.05297 -1.73322 0
M  V30 498 C 47.4001 0.410655 -1.89808 0
M  V30 499 O 46.6751 1.30439 -1.44277 0
M  V30 500 C 46.9581 -1.76713 -3.13759 0
M  V30 501 C 46.8111 -3.30684 -3.04907 0
M  V30 502 C 48.1301 -1.52121 -4.12974 0
M  V30 503 H 45.2491 -0.38392 -0.629106 0
M  V30 504 H 47.8911 -1.50926 -1.15418 0
M  V30 505 H 46.0411 -1.37924 -3.63193 0
M  V30 506 H 47.7131 -3.7893 -2.63077 0
M  V30 507 H 45.9561 -3.60253 -2.41661 0
M  V30 508 H 46.6271 -3.75833 -4.04294 0
M  V30 509 H 49.1031 -1.85819 -3.72304 0
M  V30 510 H 47.9791 -2.04582 -5.0935 0
M  V30 511 H 48.2401 -0.454257 -4.3976 0
M  V30 512 N 47.2992 1.18797 -1.03562 0
M  V30 513 C 48.2622 2.20464 -0.626769 0
M  V30 514 C 49.2622 1.57721 0.313173 0
M  V30 515 O 50.4522 1.73917 0.0992615 0
M  V30 516 C 47.5842 3.40802 0.0818498 0
M  V30 517 H 48.7772 2.58149 -1.5264 0
M  V30 518 H 46.3302 1.32593 -0.827578 0
M  V30 519 H 47.0652 3.08642 0.995518 0
M  V30 520 H 46.8502 3.8758 -0.593652 0
M  V30 521 H 48.3402 4.16092 0.354584 0
M  V30 522 N 48.7773 0.814389 1.34928 0
M  V30 523 C 49.7403 0.235759 2.27984 0
M  V30 524 C 50.7403 -0.581412 1.49921 0
M  V30 525 O 51.9303 -0.398758 1.69575 0
M  V30 526 C 49.0623 -0.670433 3.34242 0
M  V30 527 H 50.2553 1.05659 2.80671 0
M  V30 528 H 47.8083 0.585614 1.44915 0
M  V30 529 H 48.5433 -1.51466 2.86755 0
M  V30 530 H 48.3283 -0.0860822 3.92005 0
M  V30 531 H 49.8183 -1.06935 4.03676 0
M  V30 532 N 50.2554 -1.46986 0.568584 0
M  V30 533 C 51.2184 -2.28624 -0.162366 0
M  V30 534 C 52.2184 -1.37596 -0.832103 0
M  V30 535 O 53.4084 -1.60115 -0.68622 0
M  V30 536 C 50.5404 -3.17596 -1.23878 0
M  V30 537 H 51.7334 -2.94722 0.554899 0
M  V30 538 H 49.2864 -1.52863 0.325976 0
M  V30 539 H 50.0214 -2.56214 -1.98808 0
M  V30 540 H 49.8064 -3.846 -0.763219 0
M  V30 541 H 51.2964 -3.79078 -1.75185 0
M  V30 542 N 51.7335 -0.305618 -1.54608 0
M  V30 543 C 52.9735 0.303114 -2.0214 0
M  V30 544 C 53.3375 1.50737 -1.18921 0
M  V30 545 O 54.5385 2.18778 -1.56172 0
M  V30 546 C 52.8095 0.646332 -3.51507 0
M  V30 547 S 54.3685 1.23727 -4.20995 0
M  V30 548 H 51.1865 0.0927643 -0.704923 0
M  V30 549 H 53.7885 -0.434566 -1.90609 0
M  V30 550 H 52.4925 -0.238541 -4.09706 0
M  V30 551 H 52.0235 1.41468 -3.67084 0
M  V30 552 H 54.0385 2.52489 -4.27158 0
M  V30 553 N 53.2116 1.57565 -0.0334293 0
M  V30 554 C 54.1216 2.13943 0.962572 0
M  V30 555 C 55.1376 1.09276 1.35406 0
M  V30 556 O 56.3136 1.41355 1.4346 0
M  V30 557 C 53.3786 2.65887 2.22497 0
M  V30 558 C 52.4396 3.85286 1.8935 0
M  V30 559 C 51.6726 4.34743 3.09571 0
M  V30 560 O 51.8956 3.83352 4.22371 0
M  V30 561 O 50.8296 5.26538 2.91618 0
M  V30 562 H 54.6556 2.99333 0.513169 0
M  V30 563 H 52.2406 1.4822 0.18743 0
M  V30 564 H 54.1226 2.99346 2.96598 0
M  V30 565 H 52.7976 1.83578 2.6661 0
M  V30 566 H 51.7046 3.56746 1.1262 0
M  V30 567 H 53.0376 4.68771 1.5005 0
M  V30 568 N 54.6897 -0.239769 1.55765 0
M  V30 569 C 55.9667 -0.990056 1.68693 0
M  V30 570 C 56.3467 -2.03107 0.5754 0
M  V30 571 O 55.6947 -2.24604 -0.42017 0
M  V30 572 C 55.9047 -1.61696 3.09282 0
M  V30 573 C 57.2527 -2.11613 3.6811 0
M  V30 574 O 58.2767 -1.71624 3.12127 0
M  V30 575 O 57.1357 -2.85057 4.66267 0
M  V30 576 H 54.2297 -0.461299 0.686391 0
M  V30 577 H 56.7757 -0.232991 1.68093 0
M  V30 578 H 55.5477 -0.864357 3.81634 0
M  V30 579 H 55.1707 -2.44005 3.13923 0
M  V30 580 N 56.1678 -1.49265 -0.50573 0
M  V30 581 C 57.4158 -1.582 -1.25766 0
M  V30 582 C 57.7368 -0.268482 -1.93143 0
M  V30 583 O 57.0068 0.711833 -1.8251 0
M  V30 584 H 55.5868 -0.582873 -0.467191 0
M  V30 585 H 58.2488 -1.85865 -0.586525 0
M  V30 586 H 57.3448 -2.37563 -2.02412 0
M  V30 587 N 57.6459 0.756429 -1.3826 0
M  V30 588 C 58.8859 1.52833 -1.35725 0
M  V30 589 C 59.2499 1.91926 0.0534106 0
M  V30 590 O 60.4509 2.68028 0.203613 0
M  V30 591 C 58.7219 2.74919 -2.28373 0
M  V30 592 S 60.2809 3.64817 -2.43832 0
M  V30 593 H 57.0989 0.523043 -0.481608 0
M  V30 594 H 59.7009 0.888212 -1.74158 0
M  V30 595 H 58.4049 2.44304 -3.29763 0
M  V30 596 H 57.9359 3.43878 -1.91079 0
M  V30 597 H 59.9509 4.676 -1.66027 0
M  V30 598 N 59.124 1.23083 0.984299 0
M  V30 599 C 60.535 1.05609 1.5396 0
M  V30 600 C 60.886 -0.377793 1.92528 0
M  V30 601 O 60.011 -1.26398 1.75649 0
M  V30 602 C 60.606 1.91087 2.7977 0
M  V30 603 C 59.165 1.77885 3.31713 0
M  V30 604 C 58.312 1.87028 2.04733 0
M  V30 605 H 61.263 1.36802 0.804419 0
M  V30 606 H 61.284 1.43336 3.5247 0
M  V30 607 H 60.796 2.9544 2.51668 0
M  V30 608 H 58.897 0.762995 3.64704 0
M  V30 609 H 59.01 2.61047 4.01735 0
M  V30 610 H 57.374 1.30565 2.18689 0
M  V30 611 H 58.157 2.92929 1.79017 0
M  V30 612 N 60.6021 -1.18246 1.0419 0
M  V30 613 C 62.0131 -1.69914 0.773698 0
M  V30 614 C 62.3641 -1.83085 -0.705297 0
M  V30 615 O 61.4891 -1.51123 -1.5489 0
M  V30 616 C 62.0841 -3.08619 1.39784 0
M  V30 617 C 60.6431 -3.57494 1.17792 0
M  V30 618 C 59.7901 -2.34013 1.48773 0
M  V30 619 H 62.7411 -1.02904 1.20816 0
M  V30 620 H 62.7621 -3.71958 0.801714 0
M  V30 621 H 62.2741 -2.99001 2.47426 0
M  V30 622 H 60.3751 -3.72406 0.120295 0
M  V30 623 H 60.4881 -4.40852 1.87581 0
M  V30 624 H 58.8521 -2.37986 0.907463 0
M  V30 625 H 59.6351 -2.27013 2.57527 0
M  V30 626 N 62.0802 -0.821533 -1.34494 0
M  V30 627 C 63.3572 -0.33159 -1.92769 0
M  V30 628 C 63.7372 1.18088 -1.74981 0
M  V30 629 O 63.0852 1.98733 -1.12772 0
M  V30 630 C 63.2952 -0.759398 -3.40638 0
M  V30 631 C 64.6432 -0.757433 -4.1779 0
M  V30 632 O 65.6672 -0.70189 -3.49216 0
M  V30 633 O 64.5262 -0.829361 -5.4017 0
M  V30 634 H 61.6202 -0.0902502 -0.822061 0
M  V30 635 H 64.1662 -0.906231 -1.43477 0
M  V30 636 H 62.9382 -1.8012 -3.47379 0
M  V30 637 H 62.5612 -0.160378 -3.97276 0
M  V30 638 N 63.5583 1.46682 -0.576371 0
M  V30 639 C 64.7983 2.04306 -0.0621356 0
M  V30 640 C 65.1623 1.4389 1.2712 0
M  V30 641 O 66.3633 1.92675 1.87429 0
M  V30 642 C 64.6343 3.57399 0.00927922 0
M  V30 643 S 66.1933 4.36309 0.466859 0
M  V30 644 H 63.0113 0.710167 -0.0344016 0
M  V30 645 H 65.6133 1.79807 -0.767437 0
M  V30 646 H 64.3173 3.98889 -0.965178 0
M  V30 647 H 63.8483 3.86424 0.737547 0
M  V30 648 H 65.8633 4.6533 1.72287 0
M  V30 649 N 65.0364 0.313813 1.54444 0
M  V30 650 C 66.3134 -0.345447 1.92525 0
M  V30 651 C 66.6934 -1.70667 1.24242 0
M  V30 652 O 66.0414 -2.25273 0.382654 0
M  V30 653 C 66.2514 -0.44737 3.46121 0
M  V30 654 C 67.5994 -0.712238 4.18584 0
M  V30 655 O 68.6234 -0.530678 3.52225 0
M  V30 656 O 67.4824 -1.06183 5.36085 0
M  V30 657 H 64.5764 -0.195407 0.803583 0
M  V30 658 H 67.1224 0.362813 1.65776 0
M  V30 659 H 65.8944 0.509043 3.87975 0
M  V30 660 H 65.5174 -1.20359 3.78945 0
M  V30 661 N 66.5145 -1.57545 0.0417849 0
M  V30 662 C 67.7395 -1.97035 -0.647455 0
M  V30 663 C 68.1645 -0.918775 -1.64135 0
M  V30 664 O 67.5225 0.119006 -1.80909 0
M  V30 665 C 67.5705 -3.35609 -1.31905 0
M  V30 666 O 66.6745 -3.3287 -2.43457 0
M  V30 667 H 66.0155 -0.64211 -0.169086 0
M  V30 668 H 68.5455 -2.04318 0.107399 0
M  V30 669 H 68.5555 -3.72126 -1.67291 0
M  V30 670 H 67.2305 -4.11685 -0.590586 0
M  V30 671 H 65.8075 -3.08087 -2.10088 0
M  V30 672 N 67.9926 0.231505 -1.5589 0
M  V30 673 C 68.9226 1.29022 -1.94617 0
M  V30 674 C 69.9036 1.4941 -0.813067 0
M  V30 675 O 71.0886 1.6176 -1.07459 0
M  V30 676 C 68.2186 2.64199 -2.25424 0
M  V30 677 C 67.1726 2.58484 -3.41131 0
M  V30 678 C 66.4986 3.97599 -3.57518 0
M  V30 679 C 67.7986 2.1413 -4.76388 0
M  V30 680 H 69.4926 0.968563 -2.83301 0
M  V30 681 H 67.0386 0.464479 -1.36303 0
M  V30 682 H 68.9916 3.38413 -2.51107 0
M  V30 683 H 67.7156 2.98032 -1.33583 0
M  V30 684 H 66.3746 1.86727 -3.15481 0
M  V30 685 H 66.0226 4.28723 -2.6307 0
M  V30 686 H 65.7226 3.94659 -4.35337 0
M  V30 687 H 67.2466 4.7349 -3.85538 0
M  V30 688 H 68.6606 2.78083 -5.01341 0
M  V30 689 H 67.0576 2.2227 -5.57419 0
M  V30 690 H 68.1276 1.09331 -4.72414 0
M  V30 691 N 69.4707 1.49531 0.497807 0
M  V30 692 C 70.8867 1.36365 0.829266 0
M  V30 693 C 71.0867 0.399184 1.97506 0
M  V30 694 O 70.1427 -0.167977 2.51941 0
M  V30 695 C 71.4557 2.77153 1.16647 0
M  V30 696 C 73.0037 2.85877 1.27449 0
M  V30 697 C 73.4787 4.2744 1.64497 0
M  V30 698 N 74.9697 4.30265 1.7154 0
M  V30 699 C 75.7047 5.3677 2.01656 0
M  V30 700 N 75.2007 6.53516 2.29976 0
M  V30 701 N 76.9937 5.24189 2.02934 0
M  V30 702 H 69.1447 2.10831 -0.257703 0
M  V30 703 H 71.4077 0.946534 -0.0527091 0
M  V30 704 H 71.1137 3.49442 0.397872 0
M  V30 705 H 70.9877 3.12722 2.10915 0
M  V30 706 H 73.3747 2.13824 2.0338 0
M  V30 707 H 73.4557 2.53887 0.312244 0
M  V30 708 H 73.0997 5.00021 0.891151 0
M  V30 709 H 73.0297 4.56896 2.61827 0
M  V30 710 H 75.5207 3.4607 1.51802 0
M  V30 711 H 75.8337 7.30506 2.52153 0
M  V30 712 H 74.1787 6.56737 2.27425 0
M  V30 713 H 77.3697 4.31988 1.80289 0
M  V30 714 H 77.5427 6.07286 2.26071 0
M  V30 715 N 70.9488 -0.749086 1.3866 0
M  V30 716 C 72.2258 -1.4992 1.25632 0
M  V30 717 C 72.6058 -2.10633 -0.140317 0
M  V30 718 O 71.9538 -1.97437 -1.15025 0
M  V30 719 C 72.1638 -2.56195 2.36992 0
M  V30 720 C 73.5118 -3.22972 2.75634 0
M  V30 721 O 74.5358 -2.66502 2.36337 0
M  V30 722 O 73.3948 -4.25122 3.43415 0
M  V30 723 H 70.4888 -0.665067 0.491544 0
M  V30 724 H 73.0348 -0.784113 1.50498 0
M  V30 725 H 71.8068 -2.09612 3.30422 0
M  V30 726 H 71.4298 -3.35279 2.13714 0
M  V30 727 N 72.4269 -1.23603 -0.977757 0
M  V30 728 C 73.3569 -1.04401 -2.0886 0
M  V30 729 C 74.3379 0.0399052 -1.70053 0
M  V30 730 O 75.5229 -0.125246 -1.93796 0
M  V30 731 C 72.6529 -0.637269 -3.41403 0
M  V30 732 C 71.6069 -1.66883 -3.94124 0
M  V30 733 C 70.9329 -1.11745 -5.22893 0
M  V30 734 C 72.2329 -3.06247 -4.23096 0
M  V30 735 H 73.9269 -1.97316 -2.25182 0
M  V30 736 H 71.4729 -0.950096 -1.08209 0
M  V30 737 H 73.4259 -0.48998 -4.18542 0
M  V30 738 H 72.1499 0.327557 -3.24953 0
M  V30 739 H 70.8089 -1.80416 -3.19133 0
M  V30 740 H 70.4569 -0.143527 -5.02795 0
M  V30 741 H 70.1569 -1.80672 -5.59134 0
M  V30 742 H 71.6809 -0.982067 -6.02651 0
M  V30 743 H 73.0949 -2.96001 -4.90975 0
M  V30 744 H 71.4919 -3.72436 -4.70544 0
M  V30 745 H 72.5619 -3.55041 -3.30263 0
M  V30 746 N 73.905 1.17692 -1.04816 0
M  V30 747 C 75.145 1.89545 -0.764979 0
M  V30 748 C 75.509 1.78979 0.695028 0
M  V30 749 O 76.71 2.45613 1.09215 0
M  V30 750 C 74.981 3.35659 -1.22751 0
M  V30 751 S 76.54 4.25526 -1.07112 0
M  V30 752 H 73.358 0.654432 -0.27792 0
M  V30 753 H 75.96 1.42163 -1.34201 0
M  V30 754 H 74.664 3.40882 -2.28533 0
M  V30 755 H 74.195 3.88083 -0.644594 0
M  V30 756 H 76.21 4.962 0.00697508 0
M  V30 757 N 75.3831 0.828654 1.34056 0
M  V30 758 C 76.3151 0.212052 2.28217 0
M  V30 759 C 77.3281 -0.601362 1.51286 0
M  V30 760 O 78.5171 -0.430104 1.73241 0
M  V30 761 C 75.6171 -0.72088 3.31144 0
M  V30 762 C 74.7901 0.0509587 4.3737 0
M  V30 763 C 73.8491 -0.803766 5.20025 0
M  V30 764 O 72.8751 -0.246667 5.68665 0
M  V30 765 N 74.0771 -2.1227 5.40298 0
M  V30 766 H 76.8421 1.02105 2.81771 0
M  V30 767 H 74.4031 0.686153 1.46641 0
M  V30 768 H 76.3951 -1.29742 3.8334 0
M  V30 769 H 74.9651 -1.43061 2.77943 0
M  V30 770 H 74.1851 0.808831 3.85813 0
M  V30 771 H 75.4731 0.582065 5.0546 0
M  V30 772 H 74.8711 -2.59898 5.02464 0
M  V30 773 H 73.4281 -2.64796 5.95589 0
M  V30 774 N 76.8612 -1.46375 0.584142 0
M  V30 775 C 78.1072 -2.02678 0.0703716 0
M  V30 776 C 78.4402 -1.4545 -1.28678 0
M  V30 777 O 77.7152 -0.62014 -1.84349 0
M  V30 778 C 77.9982 -3.60099 0.00614674 0
M  V30 779 C 77.8512 -4.27709 1.3923 0
M  V30 780 C 79.1702 -4.34598 -0.693742 0
M  V30 781 H 76.2892 -0.736504 0.027047 0
M  V30 782 H 78.9312 -1.74501 0.751615 0
M  V30 783 H 77.0812 -3.84236 -0.574009 0
M  V30 784 H 78.7532 -4.14832 2.01773 0
M  V30 785 H 76.9962 -3.87016 1.95962 0
M  V30 786 H 77.6672 -5.36478 1.29982 0
M  V30 787 H 80.1432 -4.15615 -0.200869 0
M  V30 788 H 79.0192 -5.44318 -0.707714 0
M  V30 789 H 79.2802 -4.05759 -1.75533 0
M  V30 790 N 78.3393 -0.321999 -1.54275 0
M  V30 791 C 79.2493 0.553631 -2.27974 0
M  V30 792 C 80.2653 1.13054 -1.32268 0
M  V30 793 O 81.4413 1.15084 -1.6528 0
M  V30 794 C 78.5063 1.69927 -3.02201 0
M  V30 795 C 77.5673 1.15433 -4.1349 0
M  V30 796 C 76.8003 2.24537 -4.84168 0
M  V30 797 O 77.0233 3.44852 -4.5435 0
M  V30 798 O 75.9573 1.90044 -5.7111 0
M  V30 799 H 79.7833 -0.0448345 -3.03667 0
M  V30 800 H 77.3683 -0.0877418 -1.49142 0
M  V30 801 H 79.2503 2.3663 -3.48689 0
M  V30 802 H 77.9253 2.28395 -2.29385 0
M  V30 803 H 76.8323 0.452436 -3.71354 0
M  V30 804 H 78.1653 0.614805 -4.88345 0
M  V30 805 N 79.8174 1.5752 -0.0501392 0
M  V30 806 C 80.7274 2.14952 0.939827 0
M  V30 807 C 81.7434 1.10706 1.34239 0
M  V30 808 O 82.9194 1.42869 1.41952 0
M  V30 809 C 79.9844 2.68232 2.19665 0
M  V30 810 C 79.0454 3.87272 1.85253 0
M  V30 811 C 78.2784 4.38002 3.04943 0
M  V30 812 O 78.5014 3.87811 4.18281 0
M  V30 813 O 77.4354 5.29602 2.86017 0
M  V30 814 H 81.2614 2.9986 0.481392 0
M  V30 815 H 78.8464 1.4841 0.171699 0
M  V30 816 H 80.7284 3.02475 2.93406 0
M  V30 817 H 79.4034 1.86395 2.64648 0
M  V30 818 H 78.3104 3.5792 1.0883 0
M  V30 819 H 79.6434 4.70336 1.4507 0
M  V30 820 N 81.2955 -0.223234 1.56011 0
M  V30 821 C 82.5205 -0.968978 1.83373 0
M  V30 822 C 82.9455 -1.77227 0.630254 0
M  V30 823 O 82.3035 -1.76345 -0.420959 0
M  V30 824 C 82.3515 -1.86363 3.08709 0
M  V30 825 O 81.4555 -2.95873 2.87285 0
M  V30 826 H 80.7965 -0.274461 0.604622 0
M  V30 827 H 83.3265 -0.237056 2.03222 0
M  V30 828 H 83.3365 -2.27376 3.38768 0
M  V30 829 H 82.0115 -1.27319 3.95933 0
M  V30 830 H 80.5885 -2.58818 2.68454 0
M  V30 831 N 82.7736 -1.49793 -0.48987 0
M  V30 832 C 84.0016 -1.63568 -1.26701 0
M  V30 833 C 84.4166 -0.311465 -1.86213 0
M  V30 834 O 83.7736 0.704416 -1.68357 0
M  V30 835 C 83.8246 -2.71284 -2.38929 0
M  V30 836 O 83.5456 -3.9857 -1.81861 0
M  V30 837 C 85.0466 -2.95864 -3.3012 0
M  V30 838 H 82.2666 -0.550342 -0.383881 0
M  V30 839 H 84.8106 -1.95898 -0.586864 0
M  V30 840 H 82.9656 -2.417 -3.02753 0
M  V30 841 H 83.3796 -4.57993 -2.55622 0
M  V30 842 H 84.8536 -3.74941 -4.05121 0
M  V30 843 H 85.3306 -2.06206 -3.87783 0
M  V30 844 H 85.9366 -3.26907 -2.72051 0
M  V30 845 N 84.2517 0.741722 -1.39055 0
M  V30 846 C 85.2147 1.83733 -1.37021 0
M  V30 847 C 86.2147 1.58542 -0.268534 0
M  V30 848 O 87.4047 1.66067 -0.526076 0
M  V30 849 C 84.5367 3.2141 -1.13617 0
M  V30 850 H 85.7297 1.86941 -2.34506 0
M  V30 851 H 83.2827 0.944676 -1.24521 0
M  V30 852 H 84.0177 3.23865 -0.167863 0
M  V30 853 H 83.8027 3.4109 -1.93391 0
M  V30 854 H 85.2927 4.01477 -1.14918 0
M  V30 855 N 85.7298 1.2412 0.971189 0
M  V30 856 C 86.6598 1.05508 2.08304 0
M  V30 857 C 87.6408 -0.0308864 1.70072 0
M  V30 858 O 88.8258 0.135521 1.93727 0
M  V30 859 C 85.9558 0.655365 3.4106 0
M  V30 860 C 84.9098 1.68971 3.93234 0
M  V30 861 C 84.2358 1.14516 5.22293 0
M  V30 862 C 85.5358 3.08487 4.21465 0
M  V30 863 H 87.2298 1.98507 2.24132 0
M  V30 864 H 84.7758 0.955821 1.07704 0
M  V30 865 H 86.7288 0.51217 4.18276 0
M  V30 866 H 85.4528 -0.31032 3.25122 0
M  V30 867 H 84.1118 1.82106 3.18171 0
M  V30 868 H 83.7598 0.170189 5.02712 0
M  V30 869 H 83.4598 1.83635 5.58168 0
M  V30 870 H 84.9838 1.01401 6.02121 0
M  V30 871 H 86.3978 2.98601 4.89398 0
M  V30 872 H 84.7948 3.74926 4.68562 0
M  V30 873 H 85.8648 3.56787 3.28376 0
M  V30 874 N 87.2079 -1.17134 1.05439 0
M  V30 875 C 88.1379 -2.2342 0.678649 0
M  V30 876 C 89.1189 -1.66971 -0.32476 0
M  V30 877 O 90.3039 -1.93149 -0.201802 0
M  V30 878 C 87.4339 -3.47256 0.0552099 0
M  V30 879 C 86.3879 -4.16543 0.98365 0
M  V30 880 C 85.7139 -5.34231 0.223961 0
M  V30 881 C 87.0139 -4.68495 2.3089 0
M  V30 882 H 88.7079 -2.55105 1.56722 0
M  V30 883 H 86.2539 -1.2262 0.754998 0
M  V30 884 H 88.2069 -4.20828 -0.21946 0
M  V30 885 H 86.9309 -3.14846 -0.868319 0
M  V30 886 H 85.5899 -3.44887 1.24293 0
M  V30 887 H 85.2379 -4.98071 -0.702412 0
M  V30 888 H 84.9379 -5.81527 0.842627 0
M  V30 889 H 86.4619 -6.10585 -0.0433671 0
M  V30 890 H 87.8759 -5.33691 2.09396 0
M  V30 891 H 86.2729 -5.26379 2.88176 0
M  V30 892 H 87.3429 -3.85169 2.94572 0
M  V30 893 N 88.686 -0.835752 -1.33615 0
M  V30 894 C 89.596 -0.269088 -2.33052 0
M  V30 895 C 90.612 0.603251 -1.63208 0
M  V30 896 O 91.788 0.508112 -1.94885 0
M  V30 897 C 88.853 0.549091 -3.42324 0
M  V30 898 C 87.914 -0.347156 -4.27894 0
M  V30 899 C 87.147 0.43207 -5.31948 0
M  V30 900 O 87.37 1.66409 -5.45586 0
M  V30 901 O 86.304 -0.192298 -6.01593 0
M  V30 902 H 90.13 -1.09243 -2.83372 0
M  V30 903 H 87.715 -0.598198 -1.36901 0
M  V30 904 H 89.597 1.01414 -4.09015 0
M  V30 905 H 88.272 1.34955 -2.94226 0
M  V30 906 H 87.179 -0.859979 -3.64081 0
M  V30 907 H 88.512 -1.1123 -4.79467 0
M  V30 908 N 90.1641 1.46063 -0.591896 0
M  V30 909 C 91.0941 2.33172 0.123673 0
M  V30 910 C 92.0751 1.45897 0.87453 0
M  V30 911 O 93.2601 1.74698 0.848181 0
M  V30 912 C 90.3901 3.28336 1.13194 0
M  V30 913 C 89.3441 4.25124 0.495324 0
M  V30 914 C 88.6701 5.09863 1.61071 0
M  V30 915 C 89.9701 5.19143 -0.573425 0
M  V30 916 H 91.6641 2.93252 -0.603646 0
M  V30 917 H 89.2101 1.41014 -0.291741 0
M  V30 918 H 91.1631 3.88137 1.64097 0
M  V30 919 H 89.8871 2.66383 1.88965 0
M  V30 920 H 88.5461 3.66599 0.00729452 0
M  V30 921 H 88.1941 4.44288 2.35832 0
M  V30 922 H 87.8941 5.75417 1.19035 0
M  V30 923 H 89.4181 5.72529 2.12233 0
M  V30 924 H 90.8321 5.73106 -0.1491 0
M  V30 925 H 89.2291 5.93089 -0.914636 0
M  V30 926 H 90.2991 4.62519 -1.45617 0
M  V30 927 N 91.6422 0.330177 1.54103 0
M  V30 928 C 92.8882 -0.270806 2.00984 0
M  V30 929 C 93.2212 -1.51265 1.21789 0
M  V30 930 O 92.4962 -1.92142 0.301927 0
M  V30 931 C 92.7792 -0.598339 3.55094 0
M  V30 932 C 92.6322 0.654674 4.4501 0
M  V30 933 C 93.9512 -1.41334 4.16789 0
M  V30 934 H 91.0702 -0.0969531 0.730595 0
M  V30 935 H 93.7122 0.448066 1.84641 0
M  V30 936 H 91.8622 -1.21078 3.69151 0
M  V30 937 H 93.5342 1.29285 4.42813 0
M  V30 938 H 91.7772 1.28224 4.14416 0
M  V30 939 H 92.4482 0.380944 5.50684 0
M  V30 940 H 94.9242 -0.895597 4.06347 0
M  V30 941 H 93.8002 -1.61127 5.24718 0
M  V30 942 H 94.0612 -2.41146 3.70541 0
M  V30 943 N 93.1203 -1.57491 0.0584922 0
M  V30 944 C 94.0523 -2.08916 -0.942694 0
M  V30 945 C 95.0653 -1.0185 -1.27006 0
M  V30 946 O 96.2543 -1.29398 -1.22957 0
M  V30 947 C 93.3543 -2.52341 -2.26224 0
M  V30 948 C 92.5273 -3.82827 -2.1157 0
M  V30 949 C 91.5863 -4.12487 -3.26712 0
M  V30 950 O 90.6123 -4.82295 -3.02292 0
M  V30 951 N 91.8143 -3.64978 -4.5141 0
M  V30 952 H 94.5793 -2.95437 -0.503722 0
M  V30 953 H 92.1403 -1.61397 -0.12757 0
M  V30 954 H 94.1323 -2.69254 -3.02133 0
M  V30 955 H 92.7023 -1.7103 -2.61663 0
M  V30 956 H 91.9223 -3.75425 -1.20208 0
M  V30 957 H 93.2103 -4.68263 -1.99015 0
M  V30 958 H 92.6083 -3.08558 -4.7414 0
M  V30 959 H 91.1653 -3.87115 -5.2439 0
M  V30 960 N 94.5984 0.214957 -1.56127 0
M  V30 961 C 95.8754 0.963093 -1.70247 0
M  V30 962 C 96.2554 2.02166 -0.60764 0
M  V30 963 O 95.6034 2.25244 0.384385 0
M  V30 964 C 95.8134 1.56756 -3.11815 0
M  V30 965 C 97.1614 2.0573 -3.7143 0
M  V30 966 O 98.1854 1.66637 -3.14818 0
M  V30 967 O 97.0444 2.77603 -4.70743 0
M  V30 968 H 94.1384 0.450321 -0.693643 0
M  V30 969 H 96.6844 0.206219 -1.68442 0
M  V30 970 H 95.4564 0.803533 -3.82961 0
M  V30 971 H 95.0794 2.3898 -3.17765 0
M  V30 972 N 96.0765 1.50051 0.48192 0
M  V30 973 C 97.0095 1.62749 1.59963 0
M  V30 974 C 97.9875 0.475903 1.5548 0
M  V30 975 O 99.1715 0.693986 1.7526 0
M  V30 976 C 96.2985 1.60008 2.98522 0
M  V30 977 C 95.3445 2.80596 3.21198 0
M  V30 978 S 96.1775 4.42038 3.02262 0
M  V30 979 C 97.3335 4.41973 4.43182 0
M  V30 980 H 97.5665 2.57296 1.4895 0
M  V30 981 H 95.0995 1.39179 0.668477 0
M  V30 982 H 97.0575 1.59112 3.78409 0
M  V30 983 H 95.7185 0.667153 3.06933 0
M  V30 984 H 94.9115 2.74952 4.22395 0
M  V30 985 H 94.5135 2.79003 2.49065 0
M  V30 986 H 96.8055 4.14868 5.35622 0
M  V30 987 H 97.7485 5.43512 4.53873 0
M  V30 988 H 98.1565 3.71812 4.24755 0
M  V30 989 N 97.5546 -0.734337 1.39446 0
M  V30 990 C 98.4866 -1.85861 1.34121 0
M  V30 991 C 99.4996 -1.60871 0.249864 0
M  V30 992 O 100.689 -1.71093 0.508865 0
M  V30 993 C 97.7886 -3.21899 1.05991 0
M  V30 994 C 96.9616 -3.74239 2.26415 0
M  V30 995 C 96.0206 -4.88841 1.94733 0
M  V30 996 O 95.0466 -5.02468 2.67422 0
M  V30 997 N 96.2486 -5.73261 0.913884 0
M  V30 998 H 99.0136 -1.90934 2.31007 0
M  V30 999 H 96.5746 -0.915102 1.33557 0
M  V30 1000 H 98.5666 -3.96136 0.828147 0
M  V30 1001 H 97.1366 -3.12091 0.178361 0
M  V30 1002 H 96.3566 -2.91347 2.65539 0
M  V30 1003 H 97.6446 -4.05942 3.06738 0
M  V30 1004 H 97.0426 -5.64842 0.311476 0
M  V30 1005 H 95.5996 -6.47563 0.742015 0
M  V30 1006 N 99.0327 -1.24633 -0.964593 0
M  V30 1007 C 99.9427 -1.05859 -2.09359 0
M  V30 1008 C 100.959 0.00148855 -1.74 0
M  V30 1009 O 102.135 -0.197346 -2.00431 0
M  V30 1010 C 99.1997 -0.668879 -3.40187 0
M  V30 1011 C 98.2607 -1.80578 -3.89474 0
M  V30 1012 C 97.4937 -1.43457 -5.14058 0
M  V30 1013 O 97.7167 -0.325775 -5.69469 0
M  V30 1014 O 96.6507 -2.2613 -5.57807 0
M  V30 1015 H 100.477 -2.00516 -2.28094 0
M  V30 1016 H 98.0617 -1.03481 -1.0776 0
M  V30 1017 H 99.9437 -0.463211 -4.18846 0
M  V30 1018 H 98.6187 0.248536 -3.22744 0
M  V30 1019 H 97.5257 -2.06623 -3.11862 0
M  V30 1020 H 98.8587 -2.70208 -4.11398 0
M  V30 1021 N 100.511 1.16574 -1.06058 0
M  V30 1022 C 101.736 1.91493 -0.796562 0
M  V30 1023 C 102.161 1.76773 0.642868 0
M  V30 1024 O 101.519 1.09142 1.44768 0
M  V30 1025 C 101.567 3.40293 -1.19303 0
M  V30 1026 O 100.671 4.11074 -0.330394 0
M  V30 1027 H 100.012 0.596678 -0.291326 0
M  V30 1028 H 102.542 1.47708 -1.41575 0
M  V30 1029 H 102.552 3.91057 -1.16356 0
M  V30 1030 H 101.227 3.50326 -2.24153 0
M  V30 1031 H 99.8038 3.70513 -0.421225 0
M  V30 1032 N 101.989 0.842826 1.3317 0
M  V30 1033 C 103.238 0.436738 1.96915 0
M  V30 1034 C 103.551 -1.01025 1.67491 0
M  V30 1035 O 104.757 -1.5212 2.24881 0
M  V30 1036 C 103.213 0.730021 3.52418 0
M  V30 1037 C 102.821 2.19195 3.90714 0
M  V30 1038 C 104.565 0.391076 4.22695 0
M  V30 1039 C 102.472 2.42907 5.39212 0
M  V30 1040 H 101.402 0.15958 0.736919 0
M  V30 1041 H 104.053 1.03196 1.51733 0
M  V30 1042 H 102.435 0.0643755 3.95948 0
M  V30 1043 H 103.609 2.8984 3.58231 0
M  V30 1044 H 101.924 2.49425 3.33431 0
M  V30 1045 H 104.521 0.545817 5.31907 0
M  V30 1046 H 104.864 -0.666294 4.10933 0
M  V30 1047 H 105.397 1.01212 3.84709 0
M  V30 1048 H 102.136 3.47224 5.55982 0
M  V30 1049 H 101.656 1.76827 5.73142 0
M  V30 1050 H 103.335 2.2626 6.06148 0
M  V30 1051 N 103.467 -1.45747 0.599634 0
M  V30 1052 C 104.415 -2.322 -0.136426 0
M  V30 1053 C 105.409 -1.45497 -0.867583 0
M  V30 1054 O 106.615 -1.62027 -0.78405 0
M  V30 1055 H 102.99 -0.749368 -0.0628588 0
M  V30 1056 H 104.961 -2.92072 0.611281 0
M  V30 1057 C 103.71 -3.28974 -1.12567 0
M  V30 1058 H 103.033 -3.9568 -0.572484 0
M  V30 1059 H 104.473 -3.92212 -1.61077 0
M  V30 1060 C 102.932 -2.55561 -2.19523 0
M  V30 1061 O 103.462 -2.33111 -3.27143 0
M  V30 1062 N 101.668 -2.15832 -1.94589 0
M  V30 1063 H 101.215 -2.3429 -1.07078 0
M  V30 1064 H 101.173 -1.67034 -2.66359 0
M  V30 1065 N 104.945 -0.338344 -1.53925 0
M  V30 1066 C 105.878 0.563758 -2.21127 0
M  V30 1067 C 106.856 1.10433 -1.19345 0
M  V30 1068 O 108.04 1.16557 -1.48144 0
M  V30 1069 C 105.167 1.77505 -2.88461 0
M  V30 1070 C 104.213 1.3644 -4.04087 0
M  V30 1071 S 105.046 0.388593 -5.34088 0
M  V30 1072 C 106.202 1.60683 -6.04923 0
M  V30 1073 H 106.435 -0.00704546 -2.97299 0
M  V30 1074 H 103.968 -0.122418 -1.53914 0
M  V30 1075 H 105.926 2.46999 -3.27875 0
M  V30 1076 H 104.587 2.31706 -2.12064 0
M  V30 1077 H 103.78 2.26739 -4.50117 0
M  V30 1078 H 103.382 0.748998 -3.66423 0
M  V30 1079 H 105.674 2.54209 -6.28 0
M  V30 1080 H 106.617 1.18842 -6.98056 0
M  V30 1081 H 107.025 1.80052 -5.35015 0
M  V30 1082 N 106.423 1.57458 -0.0668435 0
M  V30 1083 C 107.333 2.15937 0.916975 0
M  V30 1084 C 108.349 1.12123 1.33058 0
M  V30 1085 O 109.525 1.44366 1.40429 0
M  V30 1086 C 106.59 2.70547 2.16807 0
M  V30 1087 C 105.651 3.89215 1.81135 0
M  V30 1088 C 104.884 4.41211 3.0028 0
M  V30 1089 O 105.107 3.92225 4.14144 0
M  V30 1090 O 104.041 5.32605 2.80384 0
M  V30 1091 H 107.867 3.00354 0.449561 0
M  V30 1092 H 105.452 1.48584 0.155949 0
M  V30 1093 H 107.334 3.0557 2.90181 0
M  V30 1094 H 106.009 1.89192 2.62656 0
M  V30 1095 H 104.916 3.59054 1.05028 0
M  V30 1096 H 106.249 4.71848 1.40073 0
M  V30 1097 N 107.901 -0.206675 1.56239 0
M  V30 1098 C 109.317 -0.557025 1.49564 0
M  V30 1099 C 109.517 -1.86424 0.764735 0
M  V30 1100 O 108.573 -2.50584 0.310491 0
M  V30 1101 C 109.886 -0.622478 2.94186 0
M  V30 1102 C 111.434 -0.712099 3.04792 0
M  V30 1103 C 111.909 -0.808767 4.50803 0
M  V30 1104 N 113.4 -0.8726 4.54907 0
M  V30 1105 C 114.135 -0.967365 5.65181 0
M  V30 1106 N 113.631 -1.02515 6.85173 0
M  V30 1107 N 115.424 -1.00366 5.53067 0
M  V30 1108 H 107.575 0.650943 2.02179 0
M  V30 1109 H 109.838 0.230387 0.919579 0
M  V30 1110 H 109.544 0.268727 3.50672 0
M  V30 1111 H 109.418 -1.4811 3.46905 0
M  V30 1112 H 111.805 -1.59374 2.48363 0
M  V30 1113 H 111.886 0.172489 2.55218 0
M  V30 1114 H 111.53 0.0684754 5.07854 0
M  V30 1115 H 111.46 -1.70899 4.98098 0
M  V30 1116 H 113.951 -0.837657 3.68499 0
M  V30 1117 H 114.264 -1.09765 7.64965 0
M  V30 1118 H 112.609 -0.994026 6.87855 0
M  V30 1119 H 115.8 -0.95527 4.58249 0
M  V30 1120 H 115.973 -1.07405 6.39037 0
M  V30 1121 N 109.379 -1.50304 -0.473955 0
M  V30 1122 C 110.625 -1.61389 -1.22806 0
M  V30 1123 C 110.958 -0.311955 -1.91678 0
M  V30 1124 O 110.233 0.686384 -1.81986 0
M  V30 1125 C 110.516 -2.79219 -2.27396 0
M  V30 1126 C 110.369 -4.19286 -1.62848 0
M  V30 1127 C 111.688 -2.92614 -3.28732 0
M  V30 1128 H 108.807 -0.587399 -0.445119 0
M  V30 1129 H 111.449 -1.82681 -0.522265 0
M  V30 1130 H 109.599 -2.61195 -2.87592 0
M  V30 1131 H 111.271 -4.48892 -1.06271 0
M  V30 1132 H 109.514 -4.23677 -0.931693 0
M  V30 1133 H 110.185 -4.97655 -2.38838 0
M  V30 1134 H 112.661 -3.09105 -2.78556 0
M  V30 1135 H 111.537 -3.76688 -3.99246 0
M  V30 1136 H 111.798 -2.03107 -3.92683 0
M  V30 1137 N 110.857 0.726932 -1.39834 0
M  V30 1138 C 112.103 1.48884 -1.377 0
M  V30 1139 C 112.436 1.94185 0.0244852 0
M  V30 1140 O 111.711 1.67361 0.990986 0
M  V30 1141 C 111.994 2.72288 -2.3565 0
M  V30 1142 C 111.847 2.32956 -3.84775 0
M  V30 1143 C 113.166 3.74414 -2.31306 0
M  V30 1144 H 110.285 0.540062 -0.5015 0
M  V30 1145 H 112.927 0.830547 -1.70886 0
M  V30 1146 H 111.077 3.28457 -2.07481 0
M  V30 1147 H 112.749 1.82356 -4.23726 0
M  V30 1148 H 110.992 1.65088 -4.01159 0
M  V30 1149 H 111.663 3.21362 -4.4881 0
M  V30 1150 H 114.139 3.27849 -2.56231 0
M  V30 1151 H 113.015 4.58414 -3.01907 0
M  V30 1152 H 113.276 4.21909 -1.32081 0
M  V30 1153 N 112.336 1.25143 0.95797 0
M  V30 1154 C 113.583 1.09692 1.70217 0
M  V30 1155 C 113.911 -0.362654 1.91089 0
M  V30 1156 O 113.166 -1.28386 1.47701 0
M  V30 1157 C 113.465 1.79272 3.09187 0
M  V30 1158 C 113.131 3.29196 3.08125 0
M  V30 1159 C 111.793 3.70096 3.07543 0
M  V30 1160 C 114.145 4.24995 3.0171 0
M  V30 1161 C 111.473 5.05213 2.9829 0
M  V30 1162 C 113.825 5.60132 2.93999 0
M  V30 1163 C 112.489 6.00365 2.9175 0
M  V30 1164 H 111.759 0.401393 0.622868 0
M  V30 1165 H 114.406 1.55372 1.11945 0
M  V30 1166 H 112.711 1.26014 3.70982 0
M  V30 1167 H 114.408 1.64773 3.65583 0
M  V30 1168 H 110.998 2.96651 3.09348 0
M  V30 1169 H 115.182 3.9439 3.01281 0
M  V30 1170 H 110.438 5.35569 2.94916 0
M  V30 1171 H 114.612 6.3406 2.87996 0
M  V30 1172 H 112.239 7.05023 2.84336 0
M  V30 1173 N 113.814 -1.1601 1.06675 0
M  V30 1174 C 114.761 -2.20525 0.680967 0
M  V30 1175 C 115.731 -1.62904 -0.324283 0
M  V30 1176 O 116.916 -1.89615 -0.212294 0
M  V30 1177 C 114.056 -3.45013 0.0776551 0
M  V30 1178 C 113.169 -4.16863 1.13355 0
M  V30 1179 C 112.304 -5.2888 0.49597 0
M  V30 1180 C 111.343 -5.92537 1.53513 0
M  V30 1181 N 110.48 -6.96038 0.920631 0
M  V30 1182 H 115.32 -2.52876 1.57663 0
M  V30 1183 H 112.857 -1.24199 0.788223 0
M  V30 1184 H 114.815 -4.16193 -0.289704 0
M  V30 1185 H 113.445 -3.132 -0.781393 0
M  V30 1186 H 112.497 -3.44248 1.61857 0
M  V30 1187 H 113.809 -4.60294 1.92174 0
M  V30 1188 H 112.963 -6.06653 0.0758604 0
M  V30 1189 H 111.702 -4.86622 -0.324062 0
M  V30 1190 H 110.707 -5.13482 1.9651 0
M  V30 1191 H 111.932 -6.36873 2.35733 0
M  V30 1192 H 109.878 -6.55888 0.12138 0
M  V30 1193 H 109.795 -7.3786 1.64616 0
M  V30 1194 H 111.063 -7.77725 0.525795 0
M  V30 1195 N 115.292 -0.849877 -1.32721 0
M  V30 1196 C 116.538 -0.451591 -1.97708 0
M  V30 1197 C 116.871 0.989175 -1.6712 0
M  V30 1198 O 116.146 1.69334 -0.956891 0
M  V30 1199 C 116.429 -0.685598 -3.53513 0
M  V30 1200 C 116.282 -2.17444 -3.93749 0
M  V30 1201 C 117.601 -0.138874 -4.39881 0
M  V30 1202 H 114.72 -0.16555 -0.718166 0
M  V30 1203 H 117.362 -1.06742 -1.57182 0
M  V30 1204 H 115.512 -0.161416 -3.88165 0
M  V30 1205 H 117.184 -2.76433 -3.693 0
M  V30 1206 H 115.427 -2.65476 -3.43081 0
M  V30 1207 H 116.098 -2.28888 -5.02309 0
M  V30 1208 H 118.574 -0.587068 -4.11938 0
M  V30 1209 H 117.45 -0.332213 -5.47894 0
M  V30 1210 H 117.711 0.95806 -4.31594 0
M  V30 1211 N 116.77 1.45427 -0.607355 0
M  V30 1212 C 117.7 2.3329 0.0989352 0
M  V30 1213 C 118.681 1.46816 0.859007 0
M  V30 1214 O 119.866 1.75588 0.829604 0
M  V30 1215 C 116.996 3.29518 1.09705 0
M  V30 1216 C 115.95 4.25626 0.450206 0
M  V30 1217 C 115.276 5.11542 1.55655 0
M  V30 1218 C 116.576 5.18505 -0.628455 0
M  V30 1219 H 118.27 2.92595 -0.634716 0
M  V30 1220 H 115.816 1.40696 -0.306681 0
M  V30 1221 H 117.769 3.89855 1.59971 0
M  V30 1222 H 116.493 2.68372 1.86129 0
M  V30 1223 H 115.152 3.66586 -0.0315886 0
M  V30 1224 H 114.8 4.46765 2.31107 0
M  V30 1225 H 114.5 5.76647 1.12925 0
M  V30 1226 H 116.024 5.74748 2.06148 0
M  V30 1227 H 117.438 5.72916 -0.209877 0
M  V30 1228 H 115.835 5.92085 -0.977489 0
M  V30 1229 H 116.905 4.60948 -1.50514 0
M  V30 1230 N 118.248 0.346503 1.53744 0
M  V30 1231 C 119.664 -0.00530975 1.59599 0
M  V30 1232 C 119.864 -1.48465 1.36236 0
M  V30 1233 O 118.92 -2.24376 1.15808 0
M  V30 1234 C 120.233 0.433516 2.97559 0
M  V30 1235 C 121.781 0.386111 3.10609 0
M  V30 1236 C 122.256 0.800451 4.50951 0
M  V30 1237 N 123.747 0.754753 4.5701 0
M  V30 1238 C 124.482 1.04727 5.63755 0
M  V30 1239 N 123.978 1.4081 6.7834 0
M  V30 1240 N 125.771 0.971316 5.53644 0
M  V30 1241 H 117.922 1.31009 1.67184 0
M  V30 1242 H 120.185 0.534242 0.783128 0
M  V30 1243 H 119.891 1.46509 3.19731 0
M  V30 1244 H 119.765 -0.189753 3.76722 0
M  V30 1245 H 122.152 -0.636295 2.88158 0
M  V30 1246 H 122.233 1.04462 2.33498 0
M  V30 1247 H 121.877 1.82088 4.74137 0
M  V30 1248 H 121.807 0.119386 5.26465 0
M  V30 1249 H 124.298 0.488662 3.74727 0
M  V30 1250 H 124.611 1.61607 7.55714 0
M  V30 1251 H 122.956 1.44657 6.79779 0
M  V30 1252 H 126.147 0.688748 4.63005 0
M  V30 1253 H 126.32 1.20263 6.36742 0
M  V30 1254 N 119.726 -1.57421 0.075193 0
M  V30 1255 C 121.142 -1.57099 -0.281444 0
M  V30 1256 C 121.342 -1.08486 -1.69803 0
M  V30 1257 O 120.398 -0.752279 -2.41033 0
M  V30 1258 C 121.711 -3.00571 -0.0880041 0
M  V30 1259 C 123.259 -3.12605 -0.157281 0
M  V30 1260 C 123.734 -4.57999 0.0079207 0
M  V30 1261 N 125.225 -4.63176 -0.0475725 0
M  V30 1262 C 125.96 -5.73373 0.0557876 0
M  V30 1263 N 125.456 -6.92473 0.21286 0
M  V30 1264 N 127.249 -5.621 -0.00152098 0
M  V30 1265 H 119.4 -1.87335 1.00098 0
M  V30 1266 H 121.663 -0.86377 0.390646 0
M  V30 1267 H 121.369 -3.40262 0.889629 0
M  V30 1268 H 121.243 -3.67754 -0.838875 0
M  V30 1269 H 123.63 -2.72798 -1.1254 0
M  V30 1270 H 123.711 -2.48053 0.62475 0
M  V30 1271 H 123.355 -4.98496 0.972824 0
M  V30 1272 H 123.285 -5.20586 -0.793556 0
M  V30 1273 H 125.776 -3.7753 -0.167244 0
M  V30 1274 H 126.089 -7.72279 0.283781 0
M  V30 1275 H 124.434 -6.94556 0.248267 0
M  V30 1276 H 127.625 -4.67938 -0.122958 0
M  V30 1277 H 127.798 -6.47948 0.0824844 0
M  V30 1278 N 121.204 0.198386 -1.56346 0
M  V30 1279 C 122.134 1.24865 -1.9731 0
M  V30 1280 C 123.115 1.47651 -0.844576 0
M  V30 1281 O 124.3 1.59444 -1.10866 0
M  V30 1282 C 121.43 2.59358 -2.30977 0
M  V30 1283 C 120.384 2.5119 -3.46537 0
M  V30 1284 C 119.71 3.89926 -3.65871 0
M  V30 1285 C 121.01 2.03977 -4.80823 0
M  V30 1286 H 122.704 0.908252 -2.85291 0
M  V30 1287 H 120.25 0.435462 -1.37258 0
M  V30 1288 H 122.203 3.33011 -2.58228 0
M  V30 1289 H 120.927 2.95132 -1.39874 0
M  V30 1290 H 119.586 1.79993 -3.19371 0
M  V30 1291 H 119.234 4.23046 -2.72105 0
M  V30 1292 H 118.934 3.85336 -4.4361 0
M  V30 1293 H 120.458 4.65205 -3.95495 0
M  V30 1294 H 121.872 2.67386 -5.07127 0
M  V30 1295 H 120.269 2.10397 -5.62008 0
M  V30 1296 H 121.339 0.992861 -4.74626 0
M  V30 1297 N 122.682 1.50554 0.465978 0
M  V30 1298 C 123.922 1.63439 1.22747 0
M  V30 1299 C 124.286 0.329822 1.89146 0
M  V30 1300 O 125.487 0.334161 2.66715 0
M  V30 1301 C 123.758 2.78542 2.2394 0
M  V30 1302 S 125.317 3.11591 3.0896 0
M  V30 1303 H 122.135 0.576113 0.416672 0
M  V30 1304 H 124.737 1.88357 0.523641 0
M  V30 1305 H 123.441 3.71805 1.7375 0
M  V30 1306 H 122.972 2.55726 2.98944 0
M  V30 1307 H 124.987 2.55811 4.25176 0
M  V30 1308 N 124.16 -0.719506 1.40217 0
M  V30 1309 C 125.388 -1.50864 1.41589 0
M  V30 1310 C 125.803 -1.88794 0.0145275 0
M  V30 1311 O 125.16 -1.55174 -0.960594 0
M  V30 1312 C 125.211 -2.78646 2.30302 0
M  V30 1313 O 124.932 -2.42321 3.64983 0
M  V30 1314 C 126.433 -3.72569 2.40224 0
M  V30 1315 H 123.653 -0.465709 0.48307 0
M  V30 1316 H 126.197 -0.88785 1.84221 0
M  V30 1317 H 124.352 -3.37019 1.91042 0
M  V30 1318 H 124.766 -3.24514 4.12057 0
M  V30 1319 H 126.24 -4.5908 3.06512 0
M  V30 1320 H 126.717 -4.15403 1.42608 0
M  V30 1321 H 127.323 -3.20109 2.80019 0
M  V30 1322 N 125.638 -1.25649 -0.95132 0
M  V30 1323 C 126.568 -1.08808 -2.06599 0
M  V30 1324 C 127.549 0.00382547 -1.701 0
M  V30 1325 O 128.734 -0.166325 -1.93486 0
M  V30 1326 C 125.864 -0.709542 -3.39975 0
M  V30 1327 C 124.818 -1.75206 -3.90496 0
M  V30 1328 C 124.144 -1.22811 -5.20405 0
M  V30 1329 C 125.444 -3.15153 -4.16504 0
M  V30 1330 H 127.138 -2.02048 -2.20946 0
M  V30 1331 H 124.684 -0.972835 -1.06169 0
M  V30 1332 H 126.637 -0.578649 -4.17408 0
M  V30 1333 H 125.361 0.258556 -3.25575 0
M  V30 1334 H 124.02 -1.87145 -3.15234 0
M  V30 1335 H 123.668 -0.250145 -5.02378 0
M  V30 1336 H 123.368 -1.92492 -5.55176 0
M  V30 1337 H 124.892 -1.10968 -6.00432 0
M  V30 1338 H 126.306 -3.06349 -4.84586 0
M  V30 1339 H 124.703 -3.82333 -4.62538 0
M  V30 1340 H 125.773 -3.61966 -3.22658 0
M  V30 1341 N 127.117 1.15442 -1.07289 0
M  V30 1342 C 128.047 2.22312 -0.714107 0
M  V30 1343 C 129.028 1.67467 0.298155 0
M  V30 1344 O 130.213 1.93445 0.171048 0
M  V30 1345 C 127.343 3.47124 -0.110448 0
M  V30 1346 C 126.297 4.14926 -1.04979 0
M  V30 1347 C 125.623 5.33807 -0.308924 0
M  V30 1348 C 126.923 4.64762 -2.38314 0
M  V30 1349 H 128.617 2.5258 -1.6076 0
M  V30 1350 H 126.163 1.21404 -0.77441 0
M  V30 1351 H 128.116 4.21124 0.152482 0
M  V30 1352 H 126.84 3.16187 0.81812 0
M  V30 1353 H 125.499 3.42866 -1.29764 0
M  V30 1354 H 125.147 4.99126 0.623084 0
M  V30 1355 H 124.847 5.80113 -0.935036 0
M  V30 1356 H 126.371 6.10576 -0.0537771 0
M  V30 1357 H 127.785 5.30292 -2.1786 0
M  V30 1358 H 126.182 5.21728 -2.96514 0
M  V30 1359 H 127.252 3.80434 -3.00663 0
M  V30 1360 N 128.595 0.856903 1.32268 0
M  V30 1361 C 129.527 0.260412 2.27716 0
M  V30 1362 C 130.54 -0.569137 1.52528 0
M  V30 1363 O 131.729 -0.39326 1.74114 0
M  V30 1364 C 128.829 -0.650477 3.32599 0
M  V30 1365 C 128.002 0.14372 4.37164 0
M  V30 1366 C 127.061 -0.69328 5.21613 0
M  V30 1367 O 126.087 -0.12599 5.69061 0
M  V30 1368 N 127.289 -2.00761 5.44679 0
M  V30 1369 H 130.054 1.08059 2.79541 0
M  V30 1370 H 127.615 0.717103 1.45152 0
M  V30 1371 H 129.607 -1.21581 3.86005 0
M  V30 1372 H 128.177 -1.37133 2.80915 0
M  V30 1373 H 127.397 0.890486 3.8401 0
M  V30 1374 H 128.685 0.68915 5.04111 0
M  V30 1375 H 128.083 -2.49181 5.07863 0
M  V30 1376 H 126.64 -2.52103 6.01072 0
M  V30 1377 N 130.073 -1.45103 0.615059 0
M  V30 1378 C 131.036 -2.29025 -0.0895485 0
M  V30 1379 C 132.036 -1.40174 -0.787906 0
M  V30 1380 O 133.226 -1.62217 -0.634933 0
M  V30 1381 C 130.358 -3.21376 -1.13711 0
M  V30 1382 H 131.551 -2.92807 0.648382 0
M  V30 1383 H 129.104 -1.51749 0.374444 0
M  V30 1384 H 129.839 -2.6241 -1.90556 0
M  V30 1385 H 129.624 -3.86834 -0.640475 0
M  V30 1386 H 131.114 -3.84459 -1.63036 0
M  V30 1387 N 131.551 -0.354651 -1.53558 0
M  V30 1388 C 132.828 0.294281 -1.93374 0
M  V30 1389 C 133.208 1.67313 -1.28723 0
M  V30 1390 O 132.556 2.24179 -0.442247 0
M  V30 1391 C 132.766 0.355445 -3.47185 0
M  V30 1392 C 134.114 0.601007 -4.20325 0
M  V30 1393 O 135.138 0.437106 -3.53508 0
M  V30 1394 O 133.997 0.919322 -5.38712 0
M  V30 1395 H 131.091 0.174033 -0.808481 0
M  V30 1396 H 133.637 -0.406638 -1.64756 0
M  V30 1397 H 132.409 -0.611729 -3.86489 0
M  V30 1398 H 132.032 1.1027 -3.82003 0
M  V30 1399 N 133.029 1.57378 -0.0835403 0
M  V30 1400 C 134.445 1.57246 0.273109 0
M  V30 1401 C 134.645 1.09385 1.69225 0
M  V30 1402 O 133.701 0.765051 2.40631 0
M  V30 1403 C 135.014 3.00614 0.0720628 0
M  V30 1404 C 136.562 3.12684 0.1407 0
M  V30 1405 C 137.037 4.57989 -0.0322094 0
M  V30 1406 N 138.528 4.63194 0.0230085 0
M  V30 1407 C 139.263 5.73335 -0.0861941 0
M  V30 1408 N 138.759 6.9235 -0.24958 0
M  V30 1409 N 140.552 5.62093 -0.0282886 0
M  V30 1410 H 132.703 1.86801 -1.0109 0
M  V30 1411 H 134.966 0.861687 -0.395222 0
M  V30 1412 H 134.672 3.39786 -0.907662 0
M  V30 1413 H 134.546 3.68193 0.81936 0
M  V30 1414 H 136.933 2.73391 1.11092 0
M  V30 1415 H 137.014 2.47719 -0.637896 0
M  V30 1416 H 136.658 4.97973 -0.999247 0
M  V30 1417 H 136.588 5.21 0.765937 0
M  V30 1418 H 139.079 3.77613 0.14722 0
M  V30 1419 H 139.392 7.72117 -0.324733 0
M  V30 1420 H 137.737 6.94415 -0.285097 0
M  V30 1421 H 140.928 4.67997 0.0981408 0
M  V30 1422 H 141.101 6.47895 -0.116845 0
M  V30 1423 N 134.507 -0.190092 1.56449 0
M  V30 1424 C 135.747 -0.916414 1.82705 0
M  V30 1425 C 136.111 -1.80235 0.661763 0
M  V30 1426 O 137.312 -2.56484 0.80433 0
M  V30 1427 C 135.583 -1.70691 3.14005 0
M  V30 1428 S 137.142 -2.48457 3.61683 0
M  V30 1429 H 133.96 -0.307281 0.64117 0
M  V30 1430 H 136.562 -0.179433 1.94675 0
M  V30 1431 H 135.266 -1.04677 3.96826 0
M  V30 1432 H 134.797 -2.48562 3.04927 0
M  V30 1433 H 136.812 -3.72756 3.27517 0
M  V30 1434 N 135.985 -1.50799 -0.457987 0
M  V30 1435 C 137.21 -1.66496 -1.23668 0
M  V30 1436 C 137.635 -0.353288 -1.84752 0
M  V30 1437 O 136.993 0.684346 -1.67888 0
M  V30 1438 C 137.041 -2.76763 -2.3116 0
M  V30 1439 O 136.145 -2.38928 -3.36136 0
M  V30 1440 H 135.486 -0.555828 -0.363252 0
M  V30 1441 H 138.016 -1.9725 -0.543474 0
M  V30 1442 H 138.026 -3.00232 -2.76269 0
M  V30 1443 H 136.701 -3.71954 -1.86073 0
M  V30 1444 H 135.278 -2.25953 -2.96647 0
M  V30 1445 N 137.463 0.71206 -1.40597 0
M  V30 1446 C 138.393 1.83889 -1.43899 0
M  V30 1447 C 139.374 1.67442 -0.299504 0
M  V30 1448 O 140.559 1.87421 -0.508624 0
M  V30 1449 C 137.689 3.21877 -1.30431 0
M  V30 1450 C 136.643 3.53002 -2.42019 0
M  V30 1451 C 135.969 4.90172 -2.13626 0
M  V30 1452 C 137.269 3.53643 -3.84362 0
M  V30 1453 H 138.963 1.81383 -2.38203 0
M  V30 1454 H 136.509 0.871237 -1.14654 0
M  V30 1455 H 138.462 4.00404 -1.31357 0
M  V30 1456 H 137.186 3.24968 -0.326049 0
M  V30 1457 H 135.845 2.76818 -2.40349 0
M  V30 1458 H 135.493 4.89869 -1.14182 0
M  V30 1459 H 135.193 5.11962 -2.88389 0
M  V30 1460 H 136.717 5.71028 -2.1624 0
M  V30 1461 H 138.131 4.22203 -3.87837 0
M  V30 1462 H 136.528 3.86961 -4.58673 0
M  V30 1463 H 137.598 2.52954 -4.13693 0
M  V30 1464 N 138.941 1.26152 0.944643 0
M  V30 1465 C 140.188 1.11492 1.69044 0
M  V30 1466 C 140.516 -0.342366 1.91463 0
M  V30 1467 O 139.771 -1.26812 1.49054 0
M  V30 1468 C 140.07 1.82541 3.07268 0
M  V30 1469 C 139.736 3.32445 3.04616 0
M  V30 1470 C 138.398 3.73337 3.036 0
M  V30 1471 C 140.75 4.28171 2.97185 0
M  V30 1472 C 138.078 5.08348 2.92915 0
M  V30 1473 C 140.43 5.63218 2.88041 0
M  V30 1474 C 139.094 6.03426 2.85366 0
M  V30 1475 H 138.364 0.407977 0.618576 0
M  V30 1476 H 141.011 1.56551 1.10291 0
M  V30 1477 H 139.316 1.29941 3.69625 0
M  V30 1478 H 141.013 1.68642 3.63815 0
M  V30 1479 H 137.603 2.99915 3.06185 0
M  V30 1480 H 141.787 3.97563 2.97081 0
M  V30 1481 H 137.043 5.38667 2.89219 0
M  V30 1482 H 141.217 6.37078 2.81254 0
M  V30 1483 H 138.844 7.07999 2.76842 0
M  V30 1484 N 140.419 -1.14872 1.07899 0
M  V30 1485 C 141.352 -2.18794 0.64841 0
M  V30 1486 C 142.33 -1.59065 -0.337189 0
M  V30 1487 O 143.514 -1.86936 -0.242284 0
M  V30 1488 C 140.641 -3.38667 -0.0470417 0
M  V30 1489 C 139.687 -4.16942 0.897884 0
M  V30 1490 S 140.52 -4.78615 2.40183 0
M  V30 1491 C 141.676 -6.0185 1.71834 0
M  V30 1492 H 141.909 -2.5498 1.52881 0
M  V30 1493 H 139.442 -1.25922 0.893484 0
M  V30 1494 H 141.4 -4.08113 -0.442027 0
M  V30 1495 H 140.061 -3.00814 -0.903861 0
M  V30 1496 H 139.254 -5.02726 0.358096 0
M  V30 1497 H 138.856 -3.53073 1.23352 0
M  V30 1498 H 141.148 -6.69574 1.03328 0
M  V30 1499 H 142.091 -6.60408 2.55473 0
M  V30 1500 H 142.499 -5.5173 1.19392 0
M  V30 1501 N 141.898 -0.863906 -1.31812 0
M  V30 1502 C 143.128 -0.485406 -2.00817 0
M  V30 1503 C 143.536 0.925007 -1.65046 0
M  V30 1504 O 142.879 1.61653 -0.872574 0
M  V30 1505 C 142.941 -0.555589 -3.55181 0
M  V30 1506 C 142.605 -1.92654 -4.14407 0
M  V30 1507 C 143.602 -2.89324 -4.31958 0
M  V30 1508 C 141.287 -2.2262 -4.50273 0
M  V30 1509 C 143.281 -4.14108 -4.84555 0
M  V30 1510 C 140.968 -3.47654 -5.02573 0
M  V30 1511 C 141.966 -4.43214 -5.19664 0
M  V30 1512 O 141.654 -5.66033 -5.70843 0
M  V30 1513 H 141.386 -0.188224 -0.649267 0
M  V30 1514 H 143.94 -1.16514 -1.69156 0
M  V30 1515 H 142.17 0.181037 -3.86276 0
M  V30 1516 H 143.859 -0.19138 -4.05449 0
M  V30 1517 H 144.625 -2.6748 -4.04573 0
M  V30 1518 H 140.504 -1.4902 -4.3625 0
M  V30 1519 H 144.048 -4.88703 -4.9781 0
M  V30 1520 H 139.945 -3.69345 -5.29391 0
M  V30 1521 H 140.713 -5.6812 -5.89222 0
M  V30 1522 N 143.376 1.44774 -0.622745 0
M  V30 1523 C 144.792 1.56986 -0.287652 0
M  V30 1524 C 144.992 1.61167 1.20944 0
M  V30 1525 O 144.048 1.55015 1.99315 0
M  V30 1526 C 145.361 2.84551 -0.972188 0
M  V30 1527 C 146.909 2.9825 -0.949536 0
M  V30 1528 C 147.384 4.28605 -1.61437 0
M  V30 1529 N 148.875 4.35399 -1.58057 0
M  V30 1530 C 149.61 5.34964 -2.064 0
M  V30 1531 N 149.106 6.40981 -2.62897 0
M  V30 1532 N 150.899 5.26419 -1.97078 0
M  V30 1533 H 143.05 1.40304 -1.59463 0
M  V30 1534 H 145.313 0.671794 -0.668878 0
M  V30 1535 H 145.019 2.87417 -2.02693 0
M  V30 1536 H 144.893 3.73807 -0.504771 0
M  V30 1537 H 147.28 2.94941 0.0967067 0
M  V30 1538 H 147.361 2.10364 -1.45536 0
M  V30 1539 H 147.005 4.32672 -2.66002 0
M  V30 1540 H 146.935 5.15334 -1.08344 0
M  V30 1541 H 149.426 3.59397 -1.16801 0
M  V30 1542 H 149.739 7.13225 -2.97539 0
M  V30 1543 H 148.084 6.4169 -2.66943 0
M  V30 1544 H 151.275 4.42504 -1.52669 0
M  V30 1545 H 151.448 6.03861 -2.35066 0
M  V30 1546 N 144.854 0.36279 1.53368 0
M  V30 1547 C 145.786 -0.519668 2.23231 0
M  V30 1548 C 146.799 -1.04844 1.24546 0
M  V30 1549 O 147.988 -0.955296 1.50786 0
M  V30 1550 C 145.088 -1.72995 2.9142 0
M  V30 1551 C 144.261 -1.33316 4.16588 0
M  V30 1552 C 143.32 -2.40521 4.68013 0
M  V30 1553 O 142.346 -2.03027 5.3176 0
M  V30 1554 N 143.548 -3.72065 4.45587 0
M  V30 1555 H 146.313 0.078751 2.99597 0
M  V30 1556 H 143.874 0.187833 1.60807 0
M  V30 1557 H 145.866 -2.44184 3.22733 0
M  V30 1558 H 144.436 -2.2353 2.18525 0
M  V30 1559 H 143.656 -0.451236 3.91609 0
M  V30 1560 H 144.944 -1.04432 4.97967 0
M  V30 1561 H 144.342 -4.05304 3.94646 0
M  V30 1562 H 142.899 -4.39366 4.81457 0
M  V30 1563 N 146.332 -1.57332 0.0918853 0
M  V30 1564 C 147.748 -1.57389 -0.264766 0
M  V30 1565 C 147.948 -1.10281 -1.68643 0
M  V30 1566 O 147.004 -0.777801 -2.40222 0
M  V30 1567 C 148.317 -3.00648 -0.0561195 0
M  V30 1568 C 149.865 -3.12754 -0.124116 0
M  V30 1569 C 150.34 -4.57965 0.0564972 0
M  V30 1570 N 151.831 -4.632 0.00155611 0
M  V30 1571 C 152.566 -5.73281 0.116598 0
M  V30 1572 N 152.062 -6.92208 0.286294 0
M  V30 1573 N 153.855 -5.6207 0.0580973 0
M  V30 1574 H 146.006 -1.86262 1.02079 0
M  V30 1575 H 148.269 -0.859579 0.399786 0
M  V30 1576 H 147.975 -3.393 0.925669 0
M  V30 1577 H 147.849 -3.68623 -0.799823 0
M  V30 1578 H 150.236 -2.73976 -1.09641 0
M  V30 1579 H 150.317 -2.47377 0.651024 0
M  V30 1580 H 149.961 -4.97436 1.02564 0
M  V30 1581 H 149.891 -5.21399 -0.738297 0
M  V30 1582 H 152.382 -3.77686 -0.127192 0
M  V30 1583 H 152.695 -7.71934 0.365676 0
M  V30 1584 H 151.04 -6.94254 0.32192 0
M  V30 1585 H 154.231 -4.68043 -0.0733204 0
M  V30 1586 H 154.404 -6.47824 0.151203 0
M  V30 1587 N 147.81 0.181792 -1.56548 0
M  V30 1588 C 148.758 1.24461 -1.965 0
M  V30 1589 C 149.752 1.464 -0.852261 0
M  V30 1590 O 150.958 1.47103 -1.03733 0
M  V30 1591 H 147.333 0.418138 -0.625031 0
M  V30 1592 H 149.304 0.880714 -2.85107 0
M  V30 1593 C 148.053 2.57891 -2.33212 0
M  V30 1594 H 147.376 2.41829 -3.18369 0
M  V30 1595 H 148.816 3.3097 -2.65019 0
M  V30 1596 C 147.275 3.15871 -1.17163 0
M  V30 1597 O 147.805 3.9913 -0.453708 0
M  V30 1598 N 146.011 2.74808 -0.944936 0
M  V30 1599 H 145.558 2.07205 -1.53049 0
M  V30 1600 H 145.516 3.13939 -0.170286 0
M  V30 1601 N 149.288 1.51039 0.449983 0
M  V30 1602 C 150.536 1.62759 1.19808 0
M  V30 1603 C 150.857 0.339981 1.92013 0
M  V30 1604 O 150.127 -0.643606 1.85026 0
M  V30 1605 H 148.707 0.599811 0.445237 0
M  V30 1606 H 151.369 1.87914 0.517138 0
M  V30 1607 H 150.465 2.44911 1.93455 0
M  V30 1608 N 150.766 -0.704594 1.40972 0
M  V30 1609 C 152.012 -1.46675 1.40051 0
M  V30 1610 C 152.345 -1.94199 0.00641102 0
M  V30 1611 O 151.62 -1.68916 -0.964235 0
M  V30 1612 C 151.903 -2.68505 2.39952 0
M  V30 1613 C 151.756 -2.26805 3.88432 0
M  V30 1614 C 153.075 -3.70686 2.37233 0
M  V30 1615 H 150.194 -0.532015 0.510028 0
M  V30 1616 H 152.836 -0.803255 1.72185 0
M  V30 1617 H 150.986 -3.25114 2.1268 0
M  V30 1618 H 152.658 -1.75592 4.26574 0
M  V30 1619 H 150.901 -1.58685 4.03734 0
M  V30 1620 H 151.572 -3.14181 4.53866 0
M  V30 1621 H 154.048 -3.23731 2.61415 0
M  V30 1622 H 152.924 -4.53553 3.09162 0
M  V30 1623 H 153.185 -4.19754 1.38777 0
M  V30 1624 N 152.244 -1.26651 -0.937939 0
M  V30 1625 C 153.207 -1.08546 -2.01867 0
M  V30 1626 C 154.207 -0.0327327 -1.60767 0
M  V30 1627 O 155.397 -0.276427 -1.71993 0
M  V30 1628 C 152.529 -0.651711 -3.34613 0
M  V30 1629 H 153.722 -2.04502 -2.1936 0
M  V30 1630 H 151.275 -1.09294 -1.11734 0
M  V30 1631 H 152.01 0.309696 -3.22818 0
M  V30 1632 H 151.795 -1.41189 -3.65798 0
M  V30 1633 H 153.285 -0.546973 -4.14002 0
M  V30 1634 N 153.722 1.14298 -1.08507 0
M  V30 1635 C 154.632 2.23027 -0.727753 0
M  V30 1636 C 155.648 1.71952 0.26619 0
M  V30 1637 O 156.824 2.011 0.109882 0
M  V30 1638 C 153.889 3.46403 -0.143541 0
M  V30 1639 C 152.95 4.12413 -1.19223 0
M  V30 1640 C 152.183 5.29899 -0.635798 0
M  V30 1641 O 152.406 5.67796 0.544393 0
M  V30 1642 O 151.34 5.85717 -1.38634 0
M  V30 1643 H 155.166 2.55945 -1.63481 0
M  V30 1644 H 152.751 1.22248 -0.858817 0
M  V30 1645 H 154.633 4.21018 0.179404 0
M  V30 1646 H 153.308 3.15206 0.736659 0
M  V30 1647 H 152.215 3.39667 -1.56772 0
M  V30 1648 H 153.548 4.47718 -2.04474 0
M  V30 1649 N 155.201 0.870884 1.31352 0
M  V30 1650 C 156.131 0.343096 2.30966 0
M  V30 1651 C 157.112 -0.566507 1.60389 0
M  V30 1652 O 158.297 -0.483336 1.88089 0
M  V30 1653 C 155.427 -0.455487 3.443 0
M  V30 1654 C 154.381 0.361103 4.26474 0
M  V30 1655 C 153.707 -0.563221 5.31725 0
M  V30 1656 C 155.007 1.59566 4.97329 0
M  V30 1657 H 156.701 1.17548 2.75359 0
M  V30 1658 H 154.247 0.566686 1.32381 0
M  V30 1659 H 156.2 -0.83525 4.13039 0
M  V30 1660 H 154.924 -1.32139 2.98675 0
M  V30 1661 H 153.583 0.722825 3.59403 0
M  V30 1662 H 153.231 -1.42643 4.82351 0
M  V30 1663 H 152.931 -0.0207409 5.87596 0
M  V30 1664 H 154.455 -0.939808 6.03324 0
M  V30 1665 H 155.869 1.28728 5.58661 0
M  V30 1666 H 154.266 2.07728 5.63 0
M  V30 1667 H 155.336 2.34798 4.24262 0
M  V30 1668 N 156.679 -1.44442 0.630414 0
M  V30 1669 C 157.642 -2.29107 -0.0652523 0
M  V30 1670 C 158.642 -1.41002 -0.772995 0
M  V30 1671 O 159.832 -1.62881 -0.617692 0
M  V30 1672 C 156.964 -3.22564 -1.10296 0
M  V30 1673 H 158.157 -2.92103 0.679401 0
M  V30 1674 H 155.71 -1.51343 0.390517 0
M  V30 1675 H 156.445 -2.64416 -1.87762 0
M  V30 1676 H 156.23 -3.87491 -0.59941 0
M  V30 1677 H 157.72 -3.86167 -1.5895 0
M  V30 1678 N 158.157 -0.370918 -1.53173 0
M  V30 1679 C 159.385 0.217704 -2.05751 0
M  V30 1680 C 159.8 1.42018 -1.24404 0
M  V30 1681 O 159.157 1.80245 -0.286033 0
M  V30 1682 C 159.208 0.605954 -3.56385 0
M  V30 1683 O 158.929 -0.548734 -4.3465 0
M  V30 1684 C 160.43 1.2524 -4.25241 0
M  V30 1685 H 157.65 0.0371659 -0.66997 0
M  V30 1686 H 160.194 -0.530832 -1.9749 0
M  V30 1687 H 158.349 1.3044 -3.6478 0
M  V30 1688 H 158.763 -0.23376 -5.23979 0
M  V30 1689 H 160.237 1.47458 -5.3194 0
M  V30 1690 H 160.714 2.2143 -3.79296 0
M  V30 1691 H 161.32 0.595233 -4.21114 0
M  V30 1692 N 159.635 1.57281 -0.100228 0
M  V30 1693 C 161.051 1.57527 0.256416 0
M  V30 1694 C 161.251 1.11173 1.68056 0
M  V30 1695 O 160.307 0.79053 2.39806 0
M  V30 1696 C 161.62 3.00673 0.0401747 0
M  V30 1697 C 163.168 3.12815 0.107528 0
M  V30 1698 C 163.643 4.57929 -0.0807834 0
M  V30 1699 N 165.134 4.63193 -0.0261207 0
M  V30 1700 C 165.869 5.73212 -0.146999 0
M  V30 1701 N 165.365 6.92047 -0.322999 0
M  V30 1702 N 167.158 5.62031 -0.0879044 0
M  V30 1703 H 159.309 1.85718 -1.03065 0
M  V30 1704 H 161.572 0.857446 -0.404339 0
M  V30 1705 H 161.278 3.38804 -0.943649 0
M  V30 1706 H 161.152 3.69042 0.780262 0
M  V30 1707 H 163.539 2.74554 1.08186 0
M  V30 1708 H 163.62 2.47028 -0.664134 0
M  V30 1709 H 163.264 4.96886 -1.05201 0
M  V30 1710 H 163.194 5.21783 0.710635 0
M  V30 1711 H 165.685 3.77748 0.107161 0
M  V30 1712 H 165.998 7.7173 -0.406608 0
M  V30 1713 H 164.343 6.94074 -0.358733 0
M  V30 1714 H 167.534 4.68075 0.048498 0
M  V30 1715 H 167.707 6.47734 -0.185557 0
M  V30 1716 N 161.113 -0.173488 1.56642 0
M  V30 1717 C 162.043 -1.2171 1.99271 0
M  V30 1718 C 163.024 -1.46289 0.867959 0
M  V30 1719 O 164.209 -1.5766 1.13388 0
M  V30 1720 C 161.339 -2.55651 2.35074 0
M  V30 1721 C 160.293 -2.45645 3.50489 0
M  V30 1722 C 159.619 -3.84056 3.72028 0
M  V30 1723 C 160.919 -1.96302 4.84007 0
M  V30 1724 H 162.613 -0.86275 2.867 0
M  V30 1725 H 160.159 -0.413571 1.37933 0
M  V30 1726 H 162.112 -3.2886 2.63494 0
M  V30 1727 H 160.836 -2.92869 1.44552 0
M  V30 1728 H 159.495 -1.7489 3.22194 0
M  V30 1729 H 159.143 -4.18664 2.788 0
M  V30 1730 H 158.843 -3.7823 4.49684 0
M  V30 1731 H 160.367 -4.58854 4.02846 0
M  V30 1732 H 161.781 -2.59284 5.11317 0
M  V30 1733 H 160.178 -2.01429 5.65284 0
M  V30 1734 H 161.248 -0.917226 4.76146 0
M  V30 1735 N 162.591 -1.51276 -0.441967 0
M  V30 1736 C 163.838 -1.63715 -1.19179 0
M  V30 1737 C 164.166 -0.351175 -1.91303 0
M  V30 1738 O 163.421 0.664524 -1.84072 0
M  V30 1739 C 163.72 -2.78746 -2.23686 0
M  V30 1740 C 163.386 -4.18189 -1.68607 0
M  V30 1741 C 162.048 -4.56125 -1.53308 0
M  V30 1742 C 164.4 -5.05222 -1.28062 0
M  V30 1743 C 161.728 -5.78804 -0.959317 0
M  V30 1744 C 164.08 -6.28476 -0.721162 0
M  V30 1745 C 162.744 -6.65188 -0.55504 0
M  V30 1746 H 162.014 -0.599076 -0.436106 0
M  V30 1747 H 164.661 -1.85296 -0.48351 0
M  V30 1748 H 162.966 -2.51369 -3.00535 0
M  V30 1749 H 164.663 -2.8557 -2.81515 0
M  V30 1750 H 161.253 -3.88277 -1.8149 0
M  V30 1751 H 165.437 -4.76524 -1.38704 0
M  V30 1752 H 160.693 -6.05899 -0.81833 0
M  V30 1753 H 164.867 -6.95259 -0.398458 0
M  V30 1754 H 162.494 -7.60123 -0.108311 0
M  V30 1755 N 164.069 0.697108 -1.41344 0
M  V30 1756 C 165.294 1.49096 -1.44171 0
M  V30 1757 C 165.719 1.88038 -0.0481568 0
M  V30 1758 O 165.077 1.54525 0.948243 0
M  V30 1759 C 165.125 2.73088 -2.3549 0
M  V30 1760 O 164.229 3.70514 -1.81088 0
M  V30 1761 H 163.57 0.448801 -0.489361 0
M  V30 1762 H 166.1 0.856992 -1.85787 0
M  V30 1763 H 166.11 3.21413 -2.51312 0
M  V30 1764 H 164.785 2.44081 -3.36745 0
M  V30 1765 H 163.362 3.29441 -1.74708 0
M  V30 1766 N 165.547 1.27147 0.931209 0
M  V30 1767 C 166.793 1.13446 1.68101 0
M  V30 1768 C 167.126 -0.319628 1.91552 0
M  V30 1769 O 166.401 -1.23407 1.50336 0
M  V30 1770 C 166.684 1.91482 3.0497 0
M  V30 1771 C 166.537 3.44855 2.88782 0
M  V30 1772 C 167.856 1.71651 4.05246 0
M  V30 1773 H 164.975 0.413498 0.610072 0
M  V30 1774 H 167.617 1.56261 1.08086 0
M  V30 1775 H 165.767 1.55095 3.56199 0
M  V30 1776 H 167.439 3.9105 2.44698 0
M  V30 1777 H 165.682 3.71373 2.24198 0
M  V30 1778 H 166.353 3.94694 3.85902 0
M  V30 1779 H 168.829 2.0337 3.63015 0
M  V30 1780 H 167.705 2.28651 4.99009 0
M  V30 1781 H 167.966 0.663555 4.37092 0
M  V30 1782 N 167.025 -1.13721 1.09112 0
M  V30 1783 C 167.957 -2.1871 0.685467 0
M  V30 1784 C 168.97 -1.60527 -0.271068 0
M  V30 1785 O 170.159 -1.78407 -0.0576148 0
M  V30 1786 C 167.259 -3.38898 -0.0111255 0
M  V30 1787 C 166.432 -4.26597 0.966131 0
M  V30 1788 C 165.491 -5.25324 0.303539 0
M  V30 1789 O 164.517 -5.61213 0.950177 0
M  V30 1790 N 165.719 -5.72779 -0.943651 0
M  V30 1791 H 168.484 -2.54126 1.58871 0
M  V30 1792 H 166.045 -1.29012 0.978143 0
M  V30 1793 H 168.037 -4.02014 -0.465517 0
M  V30 1794 H 166.607 -3.01747 -0.816565 0
M  V30 1795 H 165.827 -3.60306 1.59917 0
M  V30 1796 H 167.115 -4.82048 1.6281 0
M  V30 1797 H 166.513 -5.45762 -1.48862 0
M  V30 1798 H 165.07 -6.37847 -1.34142 0
M  V30 1799 N 168.503 -0.877838 -1.30888 0
M  V30 1800 C 169.914 -0.544193 -1.78593 0
M  V30 1801 C 170.265 0.939301 -1.72254 0
M  V30 1802 O 169.39 1.7337 -1.29505 0
M  V30 1803 C 169.985 -0.98105 -3.24285 0
M  V30 1804 C 168.544 -0.698935 -3.69854 0
M  V30 1805 C 167.691 -1.168 -2.51502 0
M  V30 1806 H 170.642 -1.06278 -1.17859 0
M  V30 1807 H 170.663 -0.307009 -3.79259 0
M  V30 1808 H 170.175 -2.06079 -3.28866 0
M  V30 1809 H 168.276 0.369112 -3.70767 0
M  V30 1810 H 168.389 -1.28148 -4.61644 0
M  V30 1811 H 166.753 -0.587535 -2.47831 0
M  V30 1812 H 167.536 -2.25533 -2.58824 0
M  V30 1813 N 169.982 1.44106 -0.638065 0
M  V30 1814 C 171.259 1.95453 -0.0759321 0
M  V30 1815 C 171.639 1.57984 1.40015 0
M  V30 1816 O 170.987 0.857361 2.11806 0
M  V30 1817 C 171.197 3.47655 -0.306132 0
M  V30 1818 C 172.545 4.24114 -0.203008 0
M  V30 1819 O 173.569 3.55405 -0.237871 0
M  V30 1820 O 172.428 5.46381 -0.113827 0
M  V30 1821 H 169.522 0.826797 0.0183332 0
M  V30 1822 H 172.068 1.54122 -0.710251 0
M  V30 1823 H 170.84 3.68 -1.3301 0
M  V30 1824 H 170.463 3.95949 0.361991 0
M  V30 1825 N 171.46 0.379036 1.52974 0
M  V30 1826 C 172.685 -0.209353 2.06341 0
M  V30 1827 C 173.11 -1.40583 1.24972 0
M  V30 1828 O 172.468 -1.79246 0.272155 0
M  V30 1829 C 172.516 -0.567786 3.56102 0
M  V30 1830 O 171.62 -1.66318 3.77375 0
M  V30 1831 H 170.961 -0.0272919 0.663439 0
M  V30 1832 H 173.491 0.543536 1.97248 0
M  V30 1833 H 173.501 -0.835003 3.99364 0
M  V30 1834 H 172.176 0.307013 4.14765 0
M  V30 1835 H 170.753 -1.39048 3.46006 0
M  V30 1836 N 172.938 -1.57226 0.108567 0
M  V30 1837 C 174.184 -1.95121 -0.552761 0
M  V30 1838 C 174.517 -0.991345 -1.66991 0
M  V30 1839 O 173.792 -0.0267211 -1.94482 0
M  V30 1840 C 174.075 -3.43039 -1.09528 0
M  V30 1841 C 173.928 -4.49797 0.0177332 0
M  V30 1842 C 175.247 -3.92567 -1.98945 0
M  V30 1843 H 172.366 -0.709496 -0.199461 0
M  V30 1844 H 175.008 -1.89126 0.182011 0
M  V30 1845 H 173.158 -3.48279 -1.72146 0
M  V30 1846 H 174.83 -4.56661 0.652584 0
M  V30 1847 H 173.073 -4.284 0.682309 0
M  V30 1848 H 173.744 -5.50528 -0.402919 0
M  V30 1849 H 176.22 -3.89565 -1.46214 0
M  V30 1850 H 175.096 -4.96605 -2.33827 0
M  V30 1851 H 175.357 -3.32648 -2.91201 0
M  V30 1852 N 174.416 0.165178 -1.56732 0
M  V30 1853 C 175.346 1.20651 -1.99914 0
M  V30 1854 C 176.327 1.45827 -0.875705 0
M  V30 1855 O 177.512 1.57057 -1.14223 0
M  V30 1856 C 174.642 2.54401 -2.36427 0
M  V30 1857 C 173.596 2.43782 -3.51787 0
M  V30 1858 C 172.922 3.82078 -3.7406 0
M  V30 1859 C 174.222 1.93732 -4.85041 0
M  V30 1860 H 175.916 0.847534 -2.87154 0
M  V30 1861 H 173.462 0.40625 -1.38151 0
M  V30 1862 H 175.415 3.27458 -2.65234 0
M  V30 1863 H 174.139 2.92098 -1.46103 0
M  V30 1864 H 172.798 1.73178 -3.23117 0
M  V30 1865 H 172.446 4.17179 -2.81017 0
M  V30 1866 H 172.146 3.7584 -4.51684 0
M  V30 1867 H 173.67 4.56712 -4.05274 0
M  V30 1868 H 175.084 2.56569 -5.12684 0
M  V30 1869 H 173.481 1.98428 -5.66345 0
M  V30 1870 H 174.551 0.891962 -4.76626 0
M  V30 1871 N 175.894 1.51508 0.433938 0
M  V30 1872 C 176.804 1.75917 1.5521 0
M  V30 1873 C 177.82 0.643545 1.61662 0
M  V30 1874 O 178.996 0.926183 1.7884 0
M  V30 1875 C 176.061 1.88213 2.91164 0
M  V30 1876 C 175.122 3.12074 2.94802 0
M  V30 1877 C 174.355 3.23774 4.24271 0
M  V30 1878 O 174.578 2.4133 5.16833 0
M  V30 1879 O 173.512 4.16774 4.34262 0
M  V30 1880 H 177.338 2.70777 1.37527 0
M  V30 1881 H 174.923 1.36051 0.617293 0
M  V30 1882 H 176.805 1.98267 3.71845 0
M  V30 1883 H 175.48 0.965413 3.08968 0
M  V30 1884 H 174.387 3.07497 2.13065 0
M  V30 1885 H 175.72 4.03446 2.81943 0
M  V30 1886 N 177.372 -0.689602 1.41712 0
M  V30 1887 C 178.649 -1.44457 1.31877 0
M  V30 1888 C 179.029 -2.11039 -0.0508537 0
M  V30 1889 O 178.377 -2.02138 -1.06547 0
M  V30 1890 C 178.587 -2.45913 2.47645 0
M  V30 1891 C 179.935 -3.10991 2.89084 0
M  V30 1892 O 180.959 -2.56238 2.47428 0
M  V30 1893 O 179.818 -4.10174 3.61137 0
M  V30 1894 H 176.912 -0.64362 0.519309 0
M  V30 1895 H 179.458 -0.719576 1.53689 0
M  V30 1896 H 178.23 -1.95409 3.39015 0
M  V30 1897 H 177.853 -3.25913 2.27742 0
M  V30 1898 N 178.85 -1.27639 -0.924453 0
M  V30 1899 C 180.09 -1.15407 -1.68703 0
M  V30 1900 C 180.454 0.294581 -1.89727 0
M  V30 1901 O 181.655 0.539385 -2.63333 0
M  V30 1902 C 179.926 -1.9195 -3.0148 0
M  V30 1903 S 181.485 -1.95969 -3.92609 0
M  V30 1904 H 178.303 -0.411937 -0.579507 0
M  V30 1905 H 180.905 -1.61592 -1.10038 0
M  V30 1906 H 179.609 -2.96387 -2.83871 0
M  V30 1907 H 179.14 -1.46272 -3.65196 0
M  V30 1908 H 181.155 -1.05846 -4.84779 0
M  V30 1909 N 180.328 1.1314 -1.09713 0
M  V30 1910 C 181.258 2.20748 -0.761102 0
M  V30 1911 C 182.239 1.68061 0.262566 0
M  V30 1912 O 183.424 1.93765 0.129977 0
M  V30 1913 C 180.554 3.46812 -0.184054 0
M  V30 1914 C 179.508 4.12606 -1.13757 0
M  V30 1915 C 178.834 5.33031 -0.422083 0
M  V30 1916 C 180.134 4.59603 -2.48118 0
M  V30 1917 H 181.828 2.49113 -1.66082 0
M  V30 1918 H 179.374 1.19734 -0.799987 0
M  V30 1919 H 181.327 4.21353 0.0631215 0
M  V30 1920 H 180.051 3.17851 0.750868 0
M  V30 1921 H 178.71 3.40036 -1.37007 0
M  V30 1922 H 178.358 5.00335 0.517072 0
M  V30 1923 H 178.058 5.77999 -1.05788 0
M  V30 1924 H 179.582 6.10325 -0.183277 0
M  V30 1925 H 180.996 5.25552 -2.29059 0
M  V30 1926 H 179.393 5.15321 -3.07514 0
M  V30 1927 H 180.463 3.73971 -3.08665 0
M  V30 1928 N 181.806 0.884767 1.30421 0
M  V30 1929 C 183.052 0.503851 1.96441 0
M  V30 1930 C 183.385 -0.944518 1.69684 0
M  V30 1931 O 182.66 -1.66737 1.00145 0
M  V30 1932 C 182.943 0.779085 3.51571 0
M  V30 1933 C 182.796 2.27807 3.87846 0
M  V30 1934 C 184.115 0.255452 4.39358 0
M  V30 1935 H 181.234 0.184533 0.713524 0
M  V30 1936 H 183.876 1.10872 1.54297 0
M  V30 1937 H 182.026 0.264274 3.876 0
M  V30 1938 H 183.698 2.86127 3.61841 0
M  V30 1939 H 181.941 2.74479 3.35922 0
M  V30 1940 H 182.612 2.42125 4.96064 0
M  V30 1941 H 185.088 0.696079 4.10236 0
M  V30 1942 H 183.964 0.477361 5.4682 0
M  V30 1943 H 184.225 -0.843293 4.33983 0
M  V30 1944 N 183.284 -1.43765 0.645699 0
M  V30 1945 C 184.695 -1.85193 0.236719 0
M  V30 1946 C 185.046 -1.54045 -1.21509 0
M  V30 1947 O 184.171 -0.985694 -1.92647 0
M  V30 1948 C 184.766 -3.36151 0.422845 0
M  V30 1949 C 183.325 -3.76338 0.0682492 0
M  V30 1950 C 182.472 -2.67538 0.729306 0
M  V30 1951 H 185.423 -1.34025 0.849883 0
M  V30 1952 H 185.444 -3.79032 -0.333904 0
M  V30 1953 H 184.956 -3.5879 1.47958 0
M  V30 1954 H 183.057 -3.59312 -0.986179 0
M  V30 1955 H 183.17 -4.76603 0.488469 0
M  V30 1956 H 181.534 -2.54176 0.163235 0
M  V30 1957 H 182.317 -2.93006 1.78892 0
M  V30 1958 N 184.763 -0.387143 -1.52771 0
M  V30 1959 C 186.174 0.0873634 -1.86495 0
M  V30 1960 C 186.525 1.46336 -1.30691 0
M  V30 1961 O 185.65 2.068 -0.637409 0
M  V30 1962 C 186.245 0.165305 -3.38396 0
M  V30 1963 C 184.804 0.584101 -3.7184 0
M  V30 1964 C 183.951 -0.255279 -2.76122 0
M  V30 1965 H 186.902 -0.605104 -1.46711 0
M  V30 1966 H 186.923 0.984848 -3.67534 0
M  V30 1967 H 186.435 -0.836301 -3.78982 0
M  V30 1968 H 184.536 1.59315 -3.36823 0
M  V30 1969 H 184.649 0.343749 -4.77865 0
M  V30 1970 H 183.013 0.279126 -2.53166 0
M  V30 1971 H 183.796 -1.25482 -3.19545 0
M  V30 1972 N 186.241 1.57166 -0.116904 0
M  V30 1973 C 187.518 1.86645 0.585049 0
M  V30 1974 C 187.898 1.0177 1.84949 0
M  V30 1975 O 187.246 0.0960379 2.28298 0
M  V30 1976 C 187.456 3.37736 0.879507 0
M  V30 1977 C 188.804 4.06289 1.23348 0
M  V30 1978 O 189.828 3.42743 0.969836 0
M  V30 1979 O 188.687 5.18455 1.7282 0
M  V30 1980 H 185.781 0.772593 0.295007 0
M  V30 1981 H 188.327 1.69025 -0.151249 0
M  V30 1982 H 187.099 3.91296 -0.0166136 0
M  V30 1983 H 186.722 3.6078 1.67103 0
M  V30 1984 N 187.719 -0.156864 1.56817 0
M  V30 1985 C 188.944 -0.890331 1.87318 0
M  V30 1986 C 189.369 -1.74394 0.704855 0
M  V30 1987 O 188.727 -1.77972 -0.345786 0
M  V30 1988 C 188.775 -1.73102 3.16336 0
M  V30 1989 O 187.879 -2.83422 2.99576 0
M  V30 1990 H 187.22 -0.24857 0.615718 0
M  V30 1991 H 189.75 -0.150649 2.04045 0
M  V30 1992 H 189.76 -2.12803 3.48107 0
M  V30 1993 H 188.435 -1.10412 4.00976 0
M  V30 1994 H 187.012 -2.47199 2.7919 0
M  V30 1995 N 189.197 -1.51736 -0.425897 0
M  V30 1996 C 190.107 -1.76738 -1.54275 0
M  V30 1997 C 191.123 -0.65211 -1.61318 0
M  V30 1998 O 192.299 -0.935654 -1.78346 0
M  V30 1999 C 189.364 -1.89755 -2.90162 0
M  V30 2000 C 188.425 -3.13633 -2.93143 0
M  V30 2001 C 187.658 -3.2602 -4.22548 0
M  V30 2002 O 187.881 -2.44067 -5.15546 0
M  V30 2003 O 186.815 -4.19071 -4.32046 0
M  V30 2004 H 190.641 -2.71502 -1.36089 0
M  V30 2005 H 188.226 -1.36376 -0.610069 0
M  V30 2006 H 190.108 -2.00236 -3.70788 0
M  V30 2007 H 188.783 -0.981785 -3.08452 0
M  V30 2008 H 187.69 -3.08622 -2.11431 0
M  V30 2009 H 189.023 -4.04936 -2.798 0
M  V30 2010 N 190.675 0.682077 -1.42076 0
M  V30 2011 C 191.924 1.43786 -1.41451 0
M  V30 2012 C 192.237 1.95574 -0.0317074 0
M  V30 2013 O 193.443 2.71326 0.0971462 0
M  V30 2014 C 191.899 2.60071 -2.48779 0
M  V30 2015 C 191.507 2.15013 -3.93031 0
M  V30 2016 C 193.251 3.37626 -2.57311 0
M  V30 2017 C 191.158 3.28336 -4.91883 0
M  V30 2018 H 190.088 0.540143 -0.526082 0
M  V30 2019 H 192.739 0.739157 -1.67955 0
M  V30 2020 H 191.121 3.32275 -2.15429 0
M  V30 2021 H 192.295 1.5001 -4.35699 0
M  V30 2022 H 190.61 1.50416 -3.88284 0
M  V30 2023 H 193.207 4.22012 -3.28345 0
M  V30 2024 H 193.55 3.83727 -1.61429 0
M  V30 2025 H 194.083 2.72488 -2.89819 0
M  V30 2026 H 190.822 2.87234 -5.89217 0
M  V30 2027 H 190.342 3.92145 -4.53853 0
M  V30 2028 H 192.021 3.93913 -5.13265 0
M  V30 2029 N 192.153 1.28127 0.917671 0
M  V30 2030 C 193.399 1.15223 1.66888 0
M  V30 2031 C 193.732 -0.299293 1.9188 0
M  V30 2032 O 193.007 -1.21805 1.51637 0
M  V30 2033 C 193.29 1.94706 3.02922 0
M  V30 2034 C 193.143 3.47898 2.85109 0
M  V30 2035 C 194.462 1.75939 4.03402 0
M  V30 2036 H 191.581 0.419946 0.605652 0
M  V30 2037 H 194.223 1.57398 1.06423 0
M  V30 2038 H 192.373 1.58864 3.54534 0
M  V30 2039 H 194.045 3.93624 2.40537 0
M  V30 2040 H 192.288 3.7373 2.20246 0
M  V30 2041 H 192.959 3.98765 3.81694 0
M  V30 2042 H 195.435 2.07209 3.60837 0
M  V30 2043 H 194.311 2.33931 4.96556 0
M  V30 2044 H 194.572 0.709877 4.36364 0
M  V30 2045 N 193.631 -1.12557 1.10312 0
M  V30 2046 C 194.878 -1.84038 0.844759 0
M  V30 2047 C 195.206 -1.84026 -0.629668 0
M  V30 2048 O 194.461 -1.28026 -1.48013 0
M  V30 2049 C 194.76 -3.31462 1.33669 0
M  V30 2050 C 194.426 -3.51647 2.82232 0
M  V30 2051 C 193.088 -3.56864 3.22802 0
M  V30 2052 C 195.44 -3.58867 3.77974 0
M  V30 2053 C 192.768 -3.66844 4.57867 0
M  V30 2054 C 195.12 -3.70375 5.1284 0
M  V30 2055 C 193.784 -3.73848 5.52986 0
M  V30 2056 H 193.054 -0.673444 0.309119 0
M  V30 2057 H 195.701 -1.32824 1.37949 0
M  V30 2058 H 194.006 -3.85091 0.721949 0
M  V30 2059 H 195.703 -3.85236 1.11329 0
M  V30 2060 H 192.293 -3.48249 2.49842 0
M  V30 2061 H 196.477 -3.54107 3.47738 0
M  V30 2062 H 191.733 -3.67804 4.88396 0
M  V30 2063 H 195.907 -3.74904 5.86873 0
M  V30 2064 H 193.534 -3.81333 6.57639 0
M  V30 2065 N 195.109 -0.891671 -1.2995 0
M  V30 2066 C 196.52 -0.563104 -1.78006 0
M  V30 2067 C 196.871 0.920978 -1.73241 0
M  V30 2068 O 195.996 1.71987 -1.31337 0
M  V30 2069 C 196.591 -1.01539 -3.23226 0
M  V30 2070 C 195.15 -0.738124 -3.69092 0
M  V30 2071 C 194.297 -1.19461 -2.50249 0
M  V30 2072 H 197.248 -1.07522 -1.16725 0
M  V30 2073 H 197.269 -0.347217 -3.78912 0
M  V30 2074 H 196.781 -2.09555 -3.26662 0
M  V30 2075 H 194.882 0.329766 -3.71138 0
M  V30 2076 H 194.995 -1.33037 -4.60259 0
M  V30 2077 H 193.359 -0.613787 -2.47194 0
M  V30 2078 H 194.142 -2.28265 -2.56417 0
M  V30 2079 N 196.587 1.43421 -0.653314 0
M  V30 2080 C 197.517 2.33487 0.0246656 0
M  V30 2081 C 198.498 1.49475 0.811863 0
M  V30 2082 O 199.683 1.78139 0.773322 0
M  V30 2083 C 196.813 3.32841 0.99166 0
M  V30 2084 C 195.767 4.26842 0.314568 0
M  V30 2085 C 195.093 5.16236 1.39302 0
M  V30 2086 C 196.393 5.16243 -0.793095 0
M  V30 2087 H 198.087 2.90427 -0.727481 0
M  V30 2088 H 195.633 1.39649 -0.351287 0
M  V30 2089 H 197.586 3.94747 1.47487 0
M  V30 2090 H 196.31 2.74158 1.77497 0
M  V30 2091 H 194.969 3.663 -0.148199 0
M  V30 2092 H 194.617 4.53891 2.16776 0
M  V30 2093 H 194.317 5.79948 0.945223 0
M  V30 2094 H 195.841 5.81015 1.87759 0
M  V30 2095 H 197.255 5.71958 -0.392039 0
M  V30 2096 H 195.652 5.88676 -1.16536 0
M  V30 2097 H 196.722 4.55927 -1.65103 0
M  V30 2098 N 198.065 0.39524 1.52563 0
M  V30 2099 C 199.342 -0.242908 1.94086 0
M  V30 2100 C 199.722 -1.63841 1.33114 0
M  V30 2101 O 199.07 -2.22928 0.501529 0
M  V30 2102 C 199.28 -0.26327 3.48006 0
M  V30 2103 C 200.628 -0.489354 4.21771 0
M  V30 2104 O 201.652 -0.343226 3.54543 0
M  V30 2105 O 200.511 -0.776169 5.4096 0
M  V30 2106 H 197.605 -0.152536 0.812811 0
M  V30 2107 H 200.151 0.450178 1.6362 0
M  V30 2108 H 198.923 0.713985 3.84731 0
M  V30 2109 H 198.546 -1.00103 3.84792 0
M  V30 2110 N 199.544 -1.57102 0.125237 0
M  V30 2111 C 200.793 -1.94582 -0.531095 0
M  V30 2112 C 201.106 -1.01126 -1.6743 0
M  V30 2113 O 202.312 -1.28097 -2.39381 0
M  V30 2114 C 200.768 -3.45839 -0.996164 0
M  V30 2115 C 200.376 -4.47842 0.118926 0
M  V30 2116 C 202.12 -3.92227 -1.62352 0
M  V30 2117 C 200.027 -5.90284 -0.363192 0
M  V30 2118 H 198.957 -0.726391 -0.20217 0
M  V30 2119 H 201.608 -1.82339 0.206092 0
M  V30 2120 H 199.99 -3.53338 -1.78796 0
M  V30 2121 H 201.164 -4.52018 0.895358 0
M  V30 2122 H 199.479 -4.11243 0.653324 0
M  V30 2123 H 202.076 -4.96069 -1.99548 0
M  V30 2124 H 202.419 -3.32552 -2.50429 0
M  V30 2125 H 202.952 -3.87554 -0.897019 0
M  V30 2126 H 199.691 -6.53728 0.481679 0
M  V30 2127 H 199.211 -5.89515 -1.10597 0
M  V30 2128 H 200.89 -6.41752 -0.822377 0
M  V30 2129 N 201.022 0.148545 -1.56898 0
M  V30 2130 C 202.27 0.859717 -1.82902 0
M  V30 2131 C 202.591 1.81775 -0.70588 0
M  V30 2132 O 201.861 1.93994 0.272586 0
M  V30 2133 H 200.441 0.320469 -0.674766 0
M  V30 2134 H 203.103 0.142918 -1.94375 0
M  V30 2135 H 202.199 1.4229 -2.77777 0
M  V30 2136 N 202.5 1.5196 0.417844 0
M  V30 2137 C 203.746 1.65836 1.16732 0
M  V30 2138 C 204.079 0.382881 1.90388 0
M  V30 2139 O 203.354 -0.618368 1.84408 0
M  V30 2140 C 203.637 2.87466 2.16876 0
M  V30 2141 C 203.49 4.25041 1.47174 0
M  V30 2142 C 204.809 3.04613 3.17646 0
M  V30 2143 H 201.928 0.603515 0.423011 0
M  V30 2144 H 204.57 1.84494 0.454105 0
M  V30 2145 H 202.72 2.71689 2.777 0
M  V30 2146 H 204.392 4.52527 0.895376 0
M  V30 2147 H 202.635 4.26843 0.773806 0
M  V30 2148 H 203.306 5.06176 2.20204 0
M  V30 2149 H 205.782 3.1923 2.66892 0
M  V30 2150 H 204.658 3.91247 3.8499 0
M  V30 2151 H 204.919 2.17541 3.84874 0
M  V30 2152 N 203.978 -0.674533 1.42435 0
M  V30 2153 C 205.224 -1.43671 1.43131 0
M  V30 2154 C 205.557 -1.94142 0.0476021 0
M  V30 2155 O 204.832 -1.70924 -0.928188 0
M  V30 2156 C 205.115 -2.63355 2.45594 0
M  V30 2157 C 204.968 -2.18514 3.93156 0
M  V30 2158 C 206.287 -3.65571 2.45043 0
M  V30 2159 H 203.406 -0.521077 0.521198 0
M  V30 2160 H 206.048 -0.766551 1.7385 0
M  V30 2161 H 204.198 -3.2053 2.19528 0
M  V30 2162 H 205.87 -1.66504 4.30202 0
M  V30 2163 H 204.113 -1.50086 4.07009 0
M  V30 2164 H 204.784 -3.04484 4.60428 0
M  V30 2165 H 207.26 -3.18113 2.68223 0
M  V30 2166 H 206.136 -4.46893 3.18713 0
M  V30 2167 H 206.397 -4.16716 1.47649 0
M  V30 2168 N 205.456 -1.28612 -0.910864 0
M  V30 2169 C 206.704 -1.15705 -1.65701 0
M  V30 2170 C 207.025 0.29416 -1.92769 0
M  V30 2171 O 206.295 1.20331 -1.54588 0
M  V30 2172 H 204.875 -0.425216 -0.614167 0
M  V30 2173 H 207.537 -1.61381 -1.0928 0
M  V30 2174 H 206.633 -1.6988 -2.61815 0
M  V30 2175 N 206.934 1.1197 -1.10907 0
M  V30 2176 C 207.884 2.15946 -0.731538 0
M  V30 2177 C 208.868 1.58758 0.261699 0
M  V30 2178 O 210.06 1.76863 0.0696722 0
M  V30 2179 C 207.189 3.42877 -0.170299 0
M  V30 2180 C 206.275 4.07037 -1.19087 0
M  V30 2181 N 206.666 4.46135 -2.38322 0
M  V30 2182 C 204.964 4.33884 -1.03252 0
M  V30 2183 C 205.665 4.96331 -3.03366 0
M  V30 2184 N 204.641 4.9214 -2.30865 0
M  V30 2185 H 208.443 2.43947 -1.63912 0
M  V30 2186 H 205.957 1.28927 -0.987505 0
M  V30 2187 H 207.954 4.16732 0.118271 0
M  V30 2188 H 206.614 3.16343 0.731935 0
M  V30 2189 H 207.625 4.38345 -2.75815 0
M  V30 2190 H 204.302 4.17084 -0.186256 0
M  V30 2191 H 205.692 5.36257 -4.04818 0
M  V30 2192 N 208.412 0.89855 1.29475 0
M  V30 2193 C 209.658 0.524658 1.95896 0
M  V30 2194 C 209.991 -0.926468 1.70676 0
M  V30 2195 O 209.266 -1.65665 1.01908 0
M  V30 2196 C 209.549 0.81633 3.50725 0
M  V30 2197 C 209.402 2.31907 3.85408 0
M  V30 2198 C 210.721 0.302038 4.39062 0
M  V30 2199 H 207.84 0.19209 0.711527 0
M  V30 2200 H 210.482 1.12502 1.53112 0
M  V30 2201 H 208.632 0.305369 3.87298 0
M  V30 2202 H 210.304 2.89949 3.58786 0
M  V30 2203 H 208.547 2.78027 3.32992 0
M  V30 2204 H 209.218 2.47373 4.93468 0
M  V30 2205 H 211.694 0.739551 4.09475 0
M  V30 2206 H 210.57 0.535331 5.46283 0
M  V30 2207 H 210.831 -0.797216 4.34853 0
M  V30 2208 N 209.89 -1.43072 0.660911 0
M  V30 2209 C 210.853 -2.29194 -0.0166406 0
M  V30 2210 C 211.853 -1.42609 -0.742912 0
M  V30 2211 O 213.043 -1.64155 -0.583004 0
M  V30 2212 C 210.175 -3.24831 -1.0343 0
M  V30 2213 H 211.368 -2.90596 0.741208 0
M  V30 2214 H 208.921 -1.5048 0.422532 0
M  V30 2215 H 209.656 -2.68339 -1.82111 0
M  V30 2216 H 209.441 -3.88676 -0.517082 0
M  V30 2217 H 210.931 -3.89451 -1.50723 0
M  V30 2218 N 211.368 -0.403325 -1.52352 0
M  V30 2219 C 212.3 0.4603 -2.2453 0
M  V30 2220 C 213.313 1.01505 -1.27282 0
M  V30 2221 O 214.502 0.914982 -1.53266 0
M  V30 2222 C 211.602 1.65208 -2.95905 0
M  V30 2223 C 210.775 1.22224 -4.19976 0
M  V30 2224 C 209.834 2.28028 -4.74226 0
M  V30 2225 O 208.86 1.88857 -5.36956 0
M  V30 2226 N 210.062 3.6012 -4.55295 0
M  V30 2227 H 212.827 -0.158156 -2.99282 0
M  V30 2228 H 210.388 -0.230402 -1.60252 0
M  V30 2229 H 212.38 2.35541 -3.29093 0
M  V30 2230 H 210.95 2.17658 -2.24374 0
M  V30 2231 H 210.17 0.34725 -3.92668 0
M  V30 2232 H 211.458 0.911924 -5.00561 0
M  V30 2233 H 210.856 3.94698 -4.05253 0
M  V30 2234 H 209.413 4.26447 -4.92936 0
M  V30 2235 N 212.846 1.57033 -0.133567 0
M  V30 2236 C 214.074 2.00044 0.528195 0
M  V30 2237 C 214.489 1.01349 1.59291 0
M  V30 2238 O 213.846 0.00848369 1.82498 0
M  V30 2239 C 213.897 3.43018 1.1411 0
M  V30 2240 O 213.618 4.37939 0.11892 0
M  V30 2241 C 215.119 4.01237 1.88477 0
M  V30 2242 H 212.339 0.656517 0.138661 0
M  V30 2243 H 214.883 2.03267 -0.224196 0
M  V30 2244 H 213.038 3.40688 1.84418 0
M  V30 2245 H 213.452 5.21436 0.56613 0
M  V30 2246 H 214.926 5.03314 2.26669 0
M  V30 2247 H 215.403 3.41193 2.76558 0
M  V30 2248 H 216.009 4.07156 1.22898 0
M  V30 2249 N 214.325 -0.140222 1.56975 0
M  V30 2250 C 215.272 -1.17292 1.98774 0
M  V30 2251 C 216.242 -1.4232 0.856408 0
M  V30 2252 O 217.427 -1.54541 1.119 0
M  V30 2253 C 214.567 -2.49973 2.37923 0
M  V30 2254 C 213.68 -2.32062 3.64378 0
M  V30 2255 C 212.815 -3.57825 3.926 0
M  V30 2256 C 211.854 -3.3498 5.12303 0
M  V30 2257 N 210.991 -4.52891 5.36502 0
M  V30 2258 H 215.831 -0.809472 2.86795 0
M  V30 2259 H 213.368 -0.388237 1.41884 0
M  V30 2260 H 215.326 -3.27346 2.58652 0
M  V30 2261 H 213.956 -2.84252 1.52972 0
M  V30 2262 H 213.008 -1.45711 3.51387 0
M  V30 2263 H 214.32 -2.11145 4.51906 0
M  V30 2264 H 213.474 -4.43624 4.13863 0
M  V30 2265 H 212.213 -3.81753 3.03506 0
M  V30 2266 H 211.218 -2.4757 4.90906 0
M  V30 2267 H 212.443 -3.12444 6.02956 0
M  V30 2268 H 210.389 -4.76979 4.50363 0
M  V30 2269 H 210.306 -4.35001 6.18312 0
M  V30 2270 H 211.574 -5.39884 5.62268 0
M  V30 2271 N 215.803 -1.52179 -0.40978 0
M  V30 2272 C 216.75 -1.75475 -1.49924 0
M  V30 2273 C 217.72 -0.597175 -1.54994 0
M  V30 2274 O 218.905 -0.834655 -1.71575 0
M  V30 2275 C 216.045 -1.9107 -2.87378 0
M  V30 2276 C 215.158 -3.18717 -2.91622 0
M  V30 2277 C 214.293 -3.24747 -4.20372 0
M  V30 2278 C 213.332 -4.46598 -4.18588 0
M  V30 2279 N 212.469 -4.50025 -5.38908 0
M  V30 2280 H 217.309 -2.68458 -1.29361 0
M  V30 2281 H 214.846 -1.33024 -0.627934 0
M  V30 2282 H 216.804 -1.98096 -3.6717 0
M  V30 2283 H 215.434 -1.01469 -3.06437 0
M  V30 2284 H 214.486 -3.20866 -2.04326 0
M  V30 2285 H 215.798 -4.08544 -2.86169 0
M  V30 2286 H 214.952 -3.30841 -5.08556 0
M  V30 2287 H 213.691 -2.32857 -4.28519 0
M  V30 2288 H 212.696 -4.40652 -3.28794 0
M  V30 2289 H 213.921 -5.39783 -4.12081 0
M  V30 2290 H 211.867 -3.61017 -5.47725 0
M  V30 2291 H 211.784 -5.33697 -5.35447 0
M  V30 2292 H 213.052 -4.60347 -6.29048 0
M  V30 2293 N 217.281 0.66697 -1.42791 0
M  V30 2294 C 218.214 1.79177 -1.41318 0
M  V30 2295 C 219.192 1.60234 -0.276401 0
M  V30 2296 O 220.376 1.82602 -0.46785 0
M  V30 2297 C 217.503 3.16289 -1.21157 0
M  V30 2298 C 216.549 3.53964 -2.37932 0
M  V30 2299 S 217.382 3.55501 -4.00474 0
M  V30 2300 C 218.538 4.95292 -3.8267 0
M  V30 2301 H 218.771 1.80153 -2.365 0
M  V30 2302 H 216.304 0.838357 -1.29657 0
M  V30 2303 H 218.262 3.95428 -1.10212 0
M  V30 2304 H 216.923 3.1289 -0.275481 0
M  V30 2305 H 216.116 4.53646 -2.19594 0
M  V30 2306 H 215.718 2.82204 -2.45432 0
M  V30 2307 H 218.01 5.83584 -3.44145 0
M  V30 2308 H 218.953 5.18679 -4.82055 0
M  V30 2309 H 219.361 4.68179 -3.15386 0
M  V30 2310 N 218.759 1.29093 0.90403 0
M  V30 2311 C 220.005 1.16986 1.65656 0
M  V30 2312 C 220.338 -0.278925 1.92186 0
M  V30 2313 O 219.613 -1.2019 1.5292 0
M  V30 2314 C 219.896 1.97908 3.0084 0
M  V30 2315 C 219.749 3.50903 2.81403 0
M  V30 2316 C 221.068 1.80208 4.01513 0
M  V30 2317 H 218.187 0.426346 0.601164 0
M  V30 2318 H 220.829 1.58518 1.04747 0
M  V30 2319 H 218.979 1.62616 3.52829 0
M  V30 2320 H 220.651 3.96153 2.36348 0
M  V30 2321 H 218.894 3.76045 2.1627 0
M  V30 2322 H 219.565 4.02791 3.77443 0
M  V30 2323 H 222.041 2.11025 3.58619 0
M  V30 2324 H 220.917 2.39184 4.94047 0
M  V30 2325 H 221.178 0.756119 4.35586 0
M  V30 2326 N 220.237 -1.11381 1.11499 0
M  V30 2327 C 221.185 -2.19522 0.768956 0
M  V30 2328 C 222.179 -1.67693 -0.239857 0
M  V30 2329 O 223.385 -1.79727 -0.0990755 0
M  V30 2330 H 219.76 -0.715711 0.230786 0
M  V30 2331 H 221.731 -2.45954 1.68964 0
M  V30 2332 C 220.48 -3.46945 0.229073 0
M  V30 2333 H 219.803 -3.8718 0.996596 0
M  V30 2334 H 221.243 -4.23993 0.0251441 0
M  V30 2335 C 219.702 -3.2042 -1.04079 0
M  V30 2336 O 220.232 -3.41178 -2.12038 0
M  V30 2337 N 218.438 -2.74151 -0.963823 0
M  V30 2338 H 217.985 -2.57459 -0.0851722 0
M  V30 2339 H 217.943 -2.56781 -1.81414 0
M  V30 2340 N 221.715 -0.905404 -1.28997 0
M  V30 2341 C 222.961 -0.535039 -1.95615 0
M  V30 2342 C 223.294 0.917404 -1.71165 0
M  V30 2343 O 222.569 1.65123 -1.02785 0
M  V30 2344 C 222.852 -0.834918 -3.50287 0
M  V30 2345 C 222.705 -2.33948 -3.84172 0
M  V30 2346 C 224.024 -0.325318 -4.38896 0
M  V30 2347 H 221.143 -0.195861 -0.710498 0
M  V30 2348 H 223.785 -1.13313 -1.52513 0
M  V30 2349 H 221.935 -0.325904 -3.87131 0
M  V30 2350 H 223.607 -2.91847 -3.57243 0
M  V30 2351 H 221.85 -2.79789 -3.31513 0
M  V30 2352 H 222.521 -2.49987 -4.92149 0
M  V30 2353 H 224.997 -0.761256 -4.09077 0
M  V30 2354 H 223.873 -0.564295 -5.45992 0
M  V30 2355 H 224.134 0.774144 -4.35269 0
M  V30 2356 N 223.193 1.4272 -0.668489 0
M  V30 2357 C 224.103 2.34596 0.0139753 0
M  V30 2358 C 225.119 1.5474 0.795703 0
M  V30 2359 O 226.295 1.87334 0.739466 0
M  V30 2360 C 223.36 3.33202 0.957982 0
M  V30 2361 C 222.421 4.28957 0.17149 0
M  V30 2362 C 221.654 5.22853 1.07053 0
M  V30 2363 O 221.877 5.21531 2.31001 0
M  V30 2364 O 220.811 5.9952 0.534727 0
M  V30 2365 H 224.637 2.9448 -0.742661 0
M  V30 2366 H 222.222 1.43117 -0.428705 0
M  V30 2367 H 224.104 3.93796 1.50008 0
M  V30 2368 H 222.779 2.758 1.69458 0
M  V30 2369 H 221.686 3.71796 -0.414558 0
M  V30 2370 H 223.019 4.89383 -0.52586 0
M  V30 2371 N 224.671 0.411399 1.52136 0
M  V30 2372 C 225.948 -0.222308 1.94333 0
M  V30 2373 C 226.328 -1.6242 1.34844 0
M  V30 2374 O 225.676 -2.22384 0.525145 0
M  V30 2375 C 225.886 -0.226345 3.48265 0
M  V30 2376 C 227.234 -0.444592 4.22266 0
M  V30 2377 O 228.258 -0.305602 3.54887 0
M  V30 2378 O 227.117 -0.718749 5.41753 0
M  V30 2379 H 224.211 -0.143907 0.814383 0
M  V30 2380 H 226.757 0.467506 1.63133 0
M  V30 2381 H 225.529 0.75475 3.83952 0
M  V30 2382 H 225.152 -0.960163 3.85832 0
M  V30 2383 N 226.149 -1.5696 0.141893 0
M  V30 2384 C 227.395 -1.9625 -0.511248 0
M  V30 2385 C 227.728 -1.02654 -1.64851 0
M  V30 2386 O 227.003 -0.0679676 -1.94381 0
M  V30 2387 C 227.286 -3.45285 -1.02227 0
M  V30 2388 C 227.139 -4.49658 0.113138 0
M  V30 2389 C 228.458 -3.96698 -1.90574 0
M  V30 2390 H 225.577 -0.713567 -0.184367 0
M  V30 2391 H 228.219 -1.88698 0.222087 0
M  V30 2392 H 226.369 -3.51852 -1.64719 0
M  V30 2393 H 228.041 -4.55174 0.749302 0
M  V30 2394 H 226.284 -4.26857 0.773026 0
M  V30 2395 H 226.955 -5.51258 -0.286053 0
M  V30 2396 H 229.431 -3.92578 -1.37918 0
M  V30 2397 H 228.307 -5.01453 -2.2324 0
M  V30 2398 H 228.568 -3.3875 -2.84079 0
M  V30 2399 N 227.627 0.131896 -1.57047 0
M  V30 2400 C 228.59 1.14638 -1.98471 0
M  V30 2401 C 229.59 1.35029 -0.873148 0
M  V30 2402 O 230.78 1.31764 -1.13946 0
M  V30 2403 C 227.912 2.50358 -2.31373 0
M  V30 2404 H 229.105 0.79064 -2.8929 0
M  V30 2405 H 226.658 0.375761 -1.51716 0
M  V30 2406 H 227.393 2.90876 -1.43393 0
M  V30 2407 H 227.178 2.36915 -3.12432 0
M  V30 2408 H 228.668 3.23395 -2.64207 0
M  V30 2409 N 229.106 1.52395 0.401703 0
M  V30 2410 C 230.016 1.7917 1.51444 0
M  V30 2411 C 231.032 0.677691 1.6026 0
M  V30 2412 O 232.208 0.963909 1.76835 0
M  V30 2413 C 229.273 1.94347 2.87107 0
M  V30 2414 C 228.334 3.18257 2.88116 0
M  V30 2415 C 227.567 3.32701 4.17308 0
M  V30 2416 O 227.79 2.52238 5.11598 0
M  V30 2417 O 226.724 4.25891 4.25324 0
M  V30 2418 H 230.55 2.73633 1.31752 0
M  V30 2419 H 228.135 1.3733 0.588296 0
M  V30 2420 H 230.017 2.06109 3.67555 0
M  V30 2421 H 228.692 1.03073 3.06851 0
M  V30 2422 H 227.599 3.11947 2.06494 0
M  V30 2423 H 228.932 4.09336 2.73322 0
M  V30 2424 N 230.584 -0.659388 1.43143 0
M  V30 2425 C 231.824 -1.43121 1.45931 0
M  V30 2426 C 232.188 -1.91838 0.0789298 0
M  V30 2427 O 233.389 -2.68794 -0.018491 0
M  V30 2428 C 231.66 -2.58534 2.46769 0
M  V30 2429 S 233.219 -3.47154 2.68384 0
M  V30 2430 H 230.037 -0.488624 0.516496 0
M  V30 2431 H 232.639 -0.766128 1.79863 0
M  V30 2432 H 231.343 -2.21007 3.45809 0
M  V30 2433 H 230.874 -3.29898 2.14315 0
M  V30 2434 H 232.889 -4.55051 1.97845 0
M  V30 2435 N 232.062 -1.29571 -0.897171 0
M  V30 2436 C 233.473 -1.15964 -1.46319 0
M  V30 2437 C 233.824 0.244267 -1.94674 0
M  V30 2438 O 232.949 1.13998 -1.83939 0
M  V30 2439 C 233.544 -2.09906 -2.65942 0
M  V30 2440 C 232.103 -2.00314 -3.18671 0
M  V30 2441 C 231.25 -2.00687 -1.91363 0
M  V30 2442 H 234.201 -1.42019 -0.708268 0
M  V30 2443 H 234.222 -1.67276 -3.41759 0
M  V30 2444 H 233.734 -3.12075 -2.30718 0
M  V30 2445 H 231.835 -1.01242 -3.58582 0
M  V30 2446 H 231.948 -2.88102 -3.82798 0
M  V30 2447 H 230.312 -1.45319 -2.09175 0
M  V30 2448 H 231.095 -3.04566 -1.58413 0
M  V30 2449 N 233.54 1.10788 -1.12088 0
M  V30 2450 C 234.49 2.15158 -0.754401 0
M  V30 2451 C 235.474 1.59026 0.244846 0
M  V30 2452 O 236.666 1.76927 0.0509097 0
M  V30 2453 C 233.795 3.42677 -0.206657 0
M  V30 2454 C 232.881 4.05751 -1.23398 0
M  V30 2455 N 233.272 4.43582 -2.43041 0
M  V30 2456 C 231.57 4.32764 -1.07848 0
M  V30 2457 C 232.271 4.93085 -3.08613 0
M  V30 2458 N 231.247 4.89664 -2.36072 0
M  V30 2459 H 235.049 2.42195 -1.6649 0
M  V30 2460 H 232.563 1.27872 -1.00112 0
M  V30 2461 H 234.56 4.16834 0.0740646 0
M  V30 2462 H 233.22 3.17101 0.698342 0
M  V30 2463 H 234.231 4.35395 -2.80449 0
M  V30 2464 H 230.908 4.16863 -0.230483 0
M  V30 2465 H 232.298 5.31933 -4.10483 0
M  V30 2466 N 235.018 0.912232 1.28515 0
M  V30 2467 C 236.265 0.544599 1.95039 0
M  V30 2468 C 236.593 -0.911435 1.71823 0
M  V30 2469 O 235.848 -1.66317 1.03137 0
M  V30 2470 C 236.147 0.798392 3.48368 0
M  V30 2471 C 235.813 2.23374 3.91682 0
M  V30 2472 C 234.475 2.62617 4.03219 0
M  V30 2473 C 236.827 3.16786 4.13879 0
M  V30 2474 C 234.155 3.94429 4.3433 0
M  V30 2475 C 236.507 4.48161 4.46469 0
M  V30 2476 C 235.171 4.8726 4.56217 0
M  V30 2477 H 234.441 0.199283 0.7137 0
M  V30 2478 H 237.088 1.15327 1.52879 0
M  V30 2479 H 235.393 0.106908 3.91654 0
M  V30 2480 H 237.09 0.493141 3.97956 0
M  V30 2481 H 233.68 1.91922 3.83228 0
M  V30 2482 H 237.864 2.87677 4.0442 0
M  V30 2483 H 233.12 4.24426 4.40082 0
M  V30 2484 H 237.294 5.20559 4.62592 0
M  V30 2485 H 234.921 5.89431 4.80078 0
M  V30 2486 N 236.496 -1.42363 0.676048 0
M  V30 2487 C 237.721 -2.06377 0.205705 0
M  V30 2488 C 238.146 -1.50463 -1.12883 0
M  V30 2489 O 237.504 -0.623619 -1.70237 0
M  V30 2490 C 237.552 -3.60277 0.152655 0
M  V30 2491 O 236.656 -4.02935 -0.87845 0
M  V30 2492 H 235.997 -0.655588 0.105359 0
M  V30 2493 H 238.527 -1.82475 0.925412 0
M  V30 2494 H 238.537 -4.07993 -0.0230675 0
M  V30 2495 H 237.212 -4.00346 1.12675 0
M  V30 2496 H 235.789 -3.66764 -0.673668 0
M  V30 2497 N 237.974 -0.419461 -1.51915 0
M  V30 2498 C 239.199 0.154572 -2.06823 0
M  V30 2499 C 239.624 1.3722 -1.28656 0
M  V30 2500 O 238.982 1.78461 -0.319583 0
M  V30 2501 C 239.03 0.473172 -3.57482 0
M  V30 2502 O 238.134 1.56255 -3.81652 0
M  V30 2503 H 237.475 0.0096924 -0.663929 0
M  V30 2504 H 240.005 -0.595642 -1.95738 0
M  V30 2505 H 240.015 0.728825 -4.01438 0
M  V30 2506 H 238.69 -0.416873 -4.13805 0
M  V30 2507 H 237.267 1.29825 -3.49571 0
M  V30 2508 N 239.452 1.56882 -0.150215 0
M  V30 2509 C 240.699 1.96228 0.500093 0
M  V30 2510 C 241.027 1.03522 1.64661 0
M  V30 2511 O 240.282 0.0650683 1.95592 0
M  V30 2512 C 240.581 3.41801 1.04437 0
M  V30 2513 C 240.247 4.50897 0.0159671 0
M  V30 2514 C 238.909 4.8046 -0.266731 0
M  V30 2515 C 241.261 5.16703 -0.683192 0
M  V30 2516 C 238.589 5.73135 -1.25434 0
M  V30 2517 C 240.941 6.10441 -1.65964 0
M  V30 2518 C 239.605 6.38382 -1.95 0
M  V30 2519 H 238.875 0.718048 0.182997 0
M  V30 2520 H 241.522 1.90019 -0.237724 0
M  V30 2521 H 239.827 3.44857 1.85959 0
M  V30 2522 H 241.524 3.69573 1.55618 0
M  V30 2523 H 238.114 4.27891 0.246485 0
M  V30 2524 H 242.298 4.93993 -0.477983 0
M  V30 2525 H 237.554 5.93074 -1.48571 0
M  V30 2526 H 241.728 6.60507 -2.20689 0
M  V30 2527 H 239.355 7.09996 -2.71679 0
M  V30 2528 N 240.93 -0.123565 1.57115 0
M  V30 2529 C 241.893 -1.13583 1.99076 0
M  V30 2530 C 242.893 -1.34564 0.880296 0
M  V30 2531 O 244.083 -1.31158 1.14644 0
M  V30 2532 C 241.215 -2.49128 2.32698 0
M  V30 2533 H 242.408 -0.775287 2.89706 0
M  V30 2534 H 239.961 -0.36771 1.51913 0
M  V30 2535 H 240.696 -2.90111 1.44934 0
M  V30 2536 H 240.481 -2.35255 3.13684 0
M  V30 2537 H 241.971 -3.2199 2.65918 0
M  V30 2538 N 242.408 -1.52605 -0.393616 0
M  V30 2539 C 243.685 -1.58001 -1.15304 0
M  V30 2540 C 244.065 -0.370385 -2.07825 0
M  V30 2541 O 243.413 0.641638 -2.19306 0
M  V30 2542 C 243.623 -2.91652 -1.91677 0
M  V30 2543 C 244.971 -3.4522 -2.47201 0
M  V30 2544 O 245.995 -2.93495 -2.01839 0
M  V30 2545 O 244.854 -4.35579 -3.3005 0
M  V30 2546 H 241.948 -0.637068 -0.527327 0
M  V30 2547 H 244.494 -1.64939 -0.399141 0
M  V30 2548 H 243.266 -3.71136 -1.23992 0
M  V30 2549 H 242.889 -2.88077 -2.74039 0
M  V30 2550 N 243.887 0.651787 -1.4349 0
M  V30 2551 C 244.797 1.79368 -1.5121 0
M  V30 2552 C 245.813 1.69361 -0.399093 0
M  V30 2553 O 246.989 1.90505 -0.653431 0
M  V30 2554 C 244.054 3.15653 -1.43401 0
M  V30 2555 C 243.115 3.37446 -2.65384 0
M  V30 2556 C 242.348 4.67229 -2.57939 0
M  V30 2557 O 242.571 5.46676 -1.62792 0
M  V30 2558 O 241.505 4.90773 -3.48462 0
M  V30 2559 H 245.331 1.7581 -2.47638 0
M  V30 2560 H 242.916 0.810447 -1.25507 0
M  V30 2561 H 244.798 3.96935 -1.41494 0
M  V30 2562 H 243.473 3.19798 -0.501085 0
M  V30 2563 H 242.38 2.55923 -2.72863 0
M  V30 2564 H 243.713 3.38148 -3.57654 0
M  V30 2565 N 245.365 1.30045 0.890287 0
M  V30 2566 C 246.295 1.18541 2.01172 0
M  V30 2567 C 247.276 0.0773356 1.69924 0
M  V30 2568 O 248.461 0.25845 1.92473 0
M  V30 2569 C 245.591 0.870941 3.36202 0
M  V30 2570 C 244.545 1.93637 3.81692 0
M  V30 2571 C 243.871 1.475 5.13953 0
M  V30 2572 C 245.171 3.34666 4.00994 0
M  V30 2573 H 246.865 2.12359 2.11054 0
M  V30 2574 H 244.411 1.02238 1.01407 0
M  V30 2575 H 246.364 0.777141 4.14172 0
M  V30 2576 H 245.088 -0.102926 3.26438 0
M  V30 2577 H 243.747 2.01972 3.05946 0
M  V30 2578 H 243.395 0.489551 5.00612 0
M  V30 2579 H 243.095 2.1876 5.4536 0
M  V30 2580 H 244.619 1.39489 5.94454 0
M  V30 2581 H 246.033 3.2912 4.69417 0
M  V30 2582 H 244.43 4.03966 4.43769 0
M  V30 2583 H 245.5 3.76949 3.05021 0
M  V30 2584 N 246.843 -1.10192 1.12674 0
M  V30 2585 C 248.071 -1.85983 0.906527 0
M  V30 2586 C 248.486 -1.80783 -0.544333 0
M  V30 2587 O 247.843 -1.19834 -1.37645 0
M  V30 2588 C 247.894 -3.34281 1.37618 0
M  V30 2589 O 247.615 -3.39401 2.77017 0
M  V30 2590 C 249.116 -4.26938 1.19325 0
M  V30 2591 H 246.336 -0.587716 0.323775 0
M  V30 2592 H 248.88 -1.39284 1.49734 0
M  V30 2593 H 247.035 -3.78436 0.828539 0
M  V30 2594 H 247.449 -4.31838 2.97684 0
M  V30 2595 H 248.923 -5.29181 1.57071 0
M  V30 2596 H 249.4 -4.38995 0.134097 0
M  V30 2597 H 250.006 -3.8859 1.72852 0
M  V30 2598 N 248.321 -0.919034 -1.28029 0
M  V30 2599 C 249.598 -0.473668 -1.89778 0
M  V30 2600 C 249.978 1.04783 -1.83259 0
M  V30 2601 O 249.326 1.8982 -1.27202 0
M  V30 2602 C 249.536 -1.00998 -3.34066 0
M  V30 2603 C 250.884 -1.06525 -4.1102 0
M  V30 2604 O 251.908 -0.958996 -3.43048 0
M  V30 2605 O 250.767 -1.22776 -5.3253 0
M  V30 2606 H 247.861 -0.15098 -0.813101 0
M  V30 2607 H 250.407 -1.01016 -1.36359 0
M  V30 2608 H 249.179 -2.05392 -3.33061 0
M  V30 2609 H 248.802 -0.454626 -3.94992 0
M  V30 2610 N 249.799 1.42003 -0.683588 0
M  V30 2611 C 251.029 2.05448 -0.217866 0
M  V30 2612 C 251.437 1.51491 1.13346 0
M  V30 2613 O 250.78 0.653048 1.717 0
M  V30 2614 C 250.842 3.59399 -0.0850118 0
M  V30 2615 C 250.506 4.36093 -1.36645 0
M  V30 2616 C 251.503 4.66169 -2.30179 0
M  V30 2617 C 249.188 4.75578 -1.61649 0
M  V30 2618 C 251.182 5.34676 -3.46988 0
M  V30 2619 C 248.869 5.43824 -2.78745 0
M  V30 2620 C 249.867 5.73299 -3.71238 0
M  V30 2621 O 249.555 6.40142 -4.86285 0
M  V30 2622 H 249.287 0.668344 -0.101454 0
M  V30 2623 H 251.841 1.82974 -0.933248 0
M  V30 2624 H 250.071 3.80566 0.686031 0
M  V30 2625 H 251.76 4.04457 0.341973 0
M  V30 2626 H 252.526 4.36156 -2.12115 0
M  V30 2627 H 248.405 4.52025 -0.905243 0
M  V30 2628 H 251.949 5.57599 -4.19201 0
M  V30 2629 H 247.846 5.73254 -2.96732 0
M  V30 2630 H 248.614 6.58636 -4.85944 0
M  V30 2631 N 251.277 0.427512 1.51691 0
M  V30 2632 C 252.224 -0.388867 2.275 0
M  V30 2633 C 253.194 -1.02532 1.30677 0
M  V30 2634 O 254.379 -1.0461 1.59566 0
M  V30 2635 C 251.519 -1.48954 3.11298 0
M  V30 2636 C 250.632 -0.872194 4.23104 0
M  V30 2637 C 249.767 -1.94709 4.94228 0
M  V30 2638 C 248.806 -1.30766 5.97969 0
M  V30 2639 N 247.943 -2.32349 6.62539 0
M  V30 2640 H 252.783 0.263997 2.96828 0
M  V30 2641 H 250.32 0.142033 1.46413 0
M  V30 2642 H 252.278 -2.13887 3.58201 0
M  V30 2643 H 250.908 -2.11217 2.44105 0
M  V30 2644 H 249.96 -0.111419 3.80237 0
M  V30 2645 H 251.272 -0.365264 4.97461 0
M  V30 2646 H 250.426 -2.67327 5.44629 0
M  V30 2647 H 249.165 -2.48773 4.1948 0
M  V30 2648 H 248.17 -0.566902 5.4687 0
M  V30 2649 H 249.395 -0.774483 6.74669 0
M  V30 2650 H 247.341 -2.85511 5.90609 0
M  V30 2651 H 247.258 -1.8652 7.3263 0
M  V30 2652 H 248.526 -3.04481 7.17574 0
M  V30 2653 N 252.755 -1.56801 0.158532 0
M  V30 2654 C 253.983 -2.00859 -0.496303 0
M  V30 2655 C 254.398 -1.03871 -1.57659 0
M  V30 2656 O 253.755 -0.0375165 -1.82461 0
M  V30 2657 C 253.806 -3.4479 -1.08638 0
M  V30 2658 O 253.527 -4.38072 -0.0492322 0
M  V30 2659 C 255.028 -4.04185 -1.8207 0
M  V30 2660 H 252.248 -0.65864 -0.128199 0
M  V30 2661 H 254.792 -2.02885 0.256506 0
M  V30 2662 H 252.947 -3.43579 -1.78975 0
M  V30 2663 H 253.361 -5.2227 -0.483102 0
M  V30 2664 H 254.835 -5.06857 -2.18633 0
M  V30 2665 H 255.312 -3.45549 -2.71095 0
M  V30 2666 H 255.918 -4.0906 -1.16405 0
M  V30 2667 N 254.233 0.115231 -1.57178 0
M  V30 2668 C 255.18 1.14115 -2.00615 0
M  V30 2669 C 256.15 1.40939 -0.878941 0
M  V30 2670 O 257.335 1.52741 -1.14345 0
M  V30 2671 C 254.475 2.46156 -2.4187 0
M  V30 2672 C 253.588 2.26236 -3.68024 0
M  V30 2673 C 252.723 3.51534 -3.98243 0
M  V30 2674 C 251.762 3.26787 -5.17568 0
M  V30 2675 N 250.899 4.44298 -5.43639 0
M  V30 2676 H 255.739 0.763743 -2.88047 0
M  V30 2677 H 253.276 0.365615 -1.42484 0
M  V30 2678 H 255.234 3.23189 -2.63827 0
M  V30 2679 H 253.864 2.81783 -1.57475 0
M  V30 2680 H 252.916 1.40102 -3.5366 0
M  V30 2681 H 254.228 2.03929 -4.55208 0
M  V30 2682 H 253.382 4.36984 -4.20868 0
M  V30 2683 H 252.121 3.76876 -3.09541 0
M  V30 2684 H 251.126 2.39729 -4.94783 0
M  V30 2685 H 252.351 3.02812 -6.0785 0
M  V30 2686 H 250.297 4.69754 -4.57895 0
M  V30 2687 H 250.214 4.25109 -6.25154 0
M  V30 2688 H 251.482 5.3087 -5.70786 0
M  V30 2689 N 255.711 1.52812 0.385517 0
M  V30 2690 C 256.659 1.78482 1.49155 0
M  V30 2691 C 257.653 0.652914 1.56312 0
M  V30 2692 O 258.859 0.835464 1.59436 0
M  V30 2693 H 255.234 0.5648 0.496493 0
M  V30 2694 H 257.205 2.71095 1.24699 0
M  V30 2695 C 255.954 1.97378 2.86247 0
M  V30 2696 H 255.277 2.83907 2.81491 0
M  V30 2697 H 256.717 2.19327 3.62866 0
M  V30 2698 C 255.176 0.74728 3.28508 0
M  V30 2699 O 255.706 -0.0736232 4.01633 0
M  V30 2700 N 253.912 0.576396 2.84826 0
M  V30 2701 H 253.459 1.24555 2.25486 0
M  V30 2702 H 253.417 -0.24288 3.1346 0
M  V30 2703 N 257.189 -0.644168 1.43834 0
M  V30 2704 C 258.122 -1.76906 1.44151 0
M  V30 2705 C 259.1 -1.59774 0.301857 0
M  V30 2706 O 260.284 -1.81834 0.496841 0
M  V30 2707 C 257.411 -3.14321 1.26174 0
M  V30 2708 C 256.457 -3.50134 2.43533 0
M  V30 2709 S 257.29 -3.49085 4.06079 0
M  V30 2710 C 258.446 -4.89142 3.90501 0
M  V30 2711 H 258.679 -1.76368 2.39336 0
M  V30 2712 H 256.212 -0.817624 1.30974 0
M  V30 2713 H 258.17 -3.93625 1.16489 0
M  V30 2714 H 256.831 -3.12412 0.325224 0
M  V30 2715 H 256.024 -4.50095 2.26783 0
M  V30 2716 H 255.626 -2.78264 2.4989 0
M  V30 2717 H 257.918 -5.78036 3.53385 0
M  V30 2718 H 258.861 -5.10945 4.90246 0
M  V30 2719 H 259.269 -4.63102 3.22795 0
M  V30 2720 N 258.668 -1.30515 -0.883378 0
M  V30 2721 C 259.598 -1.19607 -2.00541 0
M  V30 2722 C 260.579 -0.086346 -1.69881 0
M  V30 2723 O 261.764 -0.268654 -1.92333 0
M  V30 2724 C 258.894 -0.888758 -3.35736 0
M  V30 2725 C 257.848 -1.95659 -3.8066 0
M  V30 2726 C 257.174 -1.50224 -5.13164 0
M  V30 2727 C 258.474 -3.36788 -3.99213 0
M  V30 2728 H 260.168 -2.13476 -2.09925 0
M  V30 2729 H 257.714 -1.02775 -1.00863 0
M  V30 2730 H 259.667 -0.799094 -4.13754 0
M  V30 2731 H 258.391 0.0856125 -3.26488 0
M  V30 2732 H 257.05 -2.03591 -3.04871 0
M  V30 2733 H 256.698 -0.516092 -5.00345 0
M  V30 2734 H 256.398 -2.2165 -5.44192 0
M  V30 2735 H 257.922 -1.42639 -5.93706 0
M  V30 2736 H 259.336 -3.31605 -4.67665 0
M  V30 2737 H 257.733 -4.06314 -4.41621 0
M  V30 2738 H 258.803 -3.78561 -3.03017 0
M  V30 2739 N 260.146 1.09593 -1.13257 0
M  V30 2740 C 261.109 2.14359 -0.811358 0
M  V30 2741 C 262.109 1.59808 0.178377 0
M  V30 2742 O 263.299 1.74132 -0.0484911 0
M  V30 2743 C 260.431 3.40269 -0.207276 0
M  V30 2744 H 261.624 2.44284 -1.73969 0
M  V30 2745 H 259.177 1.25102 -0.936973 0
M  V30 2746 H 259.912 3.15969 0.73036 0
M  V30 2747 H 259.697 3.81154 -0.919992 0
M  V30 2748 H 261.187 4.176 0.000667944 0
M  V30 2749 N 261.624 0.925811 1.2754 0
M  V30 2750 C 262.852 0.581509 1.9856 0
M  V30 2751 C 263.267 -0.840041 1.69082 0
M  V30 2752 O 262.624 -1.55805 0.950312 0
M  V30 2753 C 262.675 0.795589 3.52637 0
M  V30 2754 O 262.396 2.16121 3.81082 0
M  V30 2755 C 263.897 0.459744 4.4091 0
M  V30 2756 H 261.117 0.220538 0.633722 0
M  V30 2757 H 263.661 1.24232 1.6244 0
M  V30 2758 H 261.816 0.18161 3.86974 0
M  V30 2759 H 262.23 2.2098 4.75676 0
M  V30 2760 H 263.704 0.660244 5.48037 0
M  V30 2761 H 264.181 -0.604625 4.35018 0
M  V30 2762 H 264.787 1.05178 4.12089 0
M  V30 2763 N 263.102 -1.41638 0.69111 0
M  V30 2764 C 264.513 -1.84346 0.295517 0
M  V30 2765 C 264.864 -1.57833 -1.16547 0
M  V30 2766 O 263.989 -1.04648 -1.89414 0
M  V30 2767 C 264.584 -3.34636 0.529575 0
M  V30 2768 C 263.143 -3.7593 0.187944 0
M  V30 2769 C 262.29 -2.65082 0.814052 0
M  V30 2770 H 265.241 -1.31253 0.892092 0
M  V30 2771 H 265.262 -3.79903 -0.213148 0
M  V30 2772 H 264.774 -3.53901 1.59297 0
M  V30 2773 H 262.875 -3.62268 -0.871367 0
M  V30 2774 H 262.988 -4.74808 0.63985 0
M  V30 2775 H 261.352 -2.53528 0.244017 0
M  V30 2776 H 262.135 -2.87167 1.88123 0
M  V30 2777 N 264.58 -0.43555 -1.51462 0
M  V30 2778 C 265.829 0.133007 -2.01261 0
M  V30 2779 C 266.142 1.43942 -1.32439 0
M  V30 2780 O 267.348 2.09081 -1.73198 0
M  V30 2781 C 265.804 0.287581 -3.58749 0
M  V30 2782 C 265.412 -1.00829 -4.36506 0
M  V30 2783 C 267.156 0.810004 -4.167 0
M  V30 2784 C 265.063 -0.819454 -5.85695 0
M  V30 2785 H 263.993 0.0534822 -0.752101 0
M  V30 2786 H 266.644 -0.565038 -1.74584 0
M  V30 2787 H 265.026 1.04859 -3.81865 0
M  V30 2788 H 266.2 -1.77749 -4.25138 0
M  V30 2789 H 264.515 -1.45911 -3.89999 0
M  V30 2790 H 267.112 0.967743 -5.2587 0
M  V30 2791 H 267.455 1.79196 -3.75758 0
M  V30 2792 H 267.988 0.107357 -3.97655 0
M  V30 2793 H 264.727 -1.77374 -6.31046 0
M  V30 2794 H 264.247 -0.0900208 -5.99732 0
M  V30 2795 H 265.926 -0.471949 -6.45276 0
M  V30 2796 N 266.058 1.56714 -0.166846 0
M  V30 2797 C 266.991 2.13577 0.80375 0
M  V30 2798 C 267.969 1.06464 1.22899 0
M  V30 2799 O 269.153 1.34413 1.32157 0
M  V30 2800 C 266.28 2.67168 2.0818 0
M  V30 2801 C 265.326 3.86612 1.80093 0
M  V30 2802 S 266.159 5.26565 0.97416 0
M  V30 2803 C 267.315 5.83558 2.26297 0
M  V30 2804 H 267.548 2.9557 0.320267 0
M  V30 2805 H 265.081 1.54326 0.0477555 0
M  V30 2806 H 267.039 2.98692 2.8159 0
M  V30 2807 H 265.7 1.85269 2.53642 0
M  V30 2808 H 264.893 4.22422 2.7491 0
M  V30 2809 H 264.495 3.55951 1.14781 0
M  V30 2810 H 266.787 5.962 3.21795 0
M  V30 2811 H 267.73 6.80731 1.94962 0
M  V30 2812 H 268.138 5.11944 2.37853 0
M  V30 2813 N 267.536 -0.106894 1.57237 0
M  V30 2814 C 268.484 -1.14944 2.02215 0
M  V30 2815 C 269.478 -1.42167 0.92114 0
M  V30 2816 O 270.684 -1.41987 1.10634 0
M  V30 2817 H 267.059 -0.387841 0.64427 0
M  V30 2818 H 269.03 -0.743683 2.88984 0
M  V30 2819 C 267.779 -2.4647 2.4525 0
M  V30 2820 H 267.102 -2.26363 3.29545 0
M  V30 2821 H 268.542 -3.17948 2.80508 0
M  V30 2822 C 267.001 -3.09921 1.321 0
M  V30 2823 O 267.531 -3.9651 0.643622 0
M  V30 2824 N 265.737 -2.69986 1.07497 0
M  V30 2825 H 265.284 -1.99667 1.62761 0
M  V30 2826 H 265.242 -3.12769 0.319876 0
M  V30 2827 N 269.014 -1.53014 -0.377408 0
M  V30 2828 C 270.262 -1.6829 -1.11906 0
M  V30 2829 C 270.583 -0.431206 -1.90173 0
M  V30 2830 O 269.853 0.554595 -1.87886 0
M  V30 2831 H 268.433 -0.620371 -0.416112 0
M  V30 2832 H 271.095 -1.90167 -0.426893 0
M  V30 2833 H 270.191 -2.53862 -1.8155 0
M  V30 2834 N 270.492 0.636531 -1.44174 0
M  V30 2835 C 271.439 1.74875 -1.50624 0
M  V30 2836 C 272.409 1.62275 -0.35442 0
M  V30 2837 O 273.594 1.82276 -0.563908 0
M  V30 2838 C 270.734 3.13102 -1.45125 0
M  V30 2839 C 269.847 3.36717 -2.7064 0
M  V30 2840 C 268.982 4.64885 -2.57013 0
M  V30 2841 C 268.021 4.8166 -3.77717 0
M  V30 2842 N 267.158 6.01101 -3.62798 0
M  V30 2843 H 271.998 1.68697 -2.45653 0
M  V30 2844 H 269.535 0.823004 -1.21922 0
M  V30 2845 H 271.493 3.93034 -1.39929 0
M  V30 2846 H 270.123 3.18308 -0.536671 0
M  V30 2847 H 269.175 2.50763 -2.86046 0
M  V30 2848 H 270.487 3.44993 -3.60252 0
M  V30 2849 H 269.641 5.52969 -2.49619 0
M  V30 2850 H 268.38 4.58957 -1.64953 0
M  V30 2851 H 267.385 3.92007 -3.85501 0
M  V30 2852 H 268.61 4.89406 -4.70807 0
M  V30 2853 H 266.556 5.96273 -2.73486 0
M  V30 2854 H 266.473 6.10409 -4.46023 0
M  V30 2855 H 267.741 6.91761 -3.59286 0
M  V30 2856 N 271.97 1.30982 0.876444 0
M  V30 2857 C 273.247 1.10942 1.61094 0
M  V30 2858 C 273.627 -0.338223 2.08373 0
M  V30 2859 O 272.975 -1.33122 1.85717 0
M  V30 2860 C 273.185 2.11789 2.77392 0
M  V30 2861 C 274.533 2.43965 3.47514 0
M  V30 2862 O 275.557 2.10166 2.87591 0
M  V30 2863 O 274.416 3.01817 4.55597 0
M  V30 2864 H 271.51 0.42667 0.708436 0
M  V30 2865 H 274.056 1.42438 0.922474 0
M  V30 2866 H 272.828 3.09194 2.39823 0
M  V30 2867 H 272.451 1.81161 3.5393 0
M  V30 2868 N 273.449 -1.08991 1.13837 0
M  V30 2869 C 274.695 -1.81526 0.90422 0
M  V30 2870 C 275.028 -1.85706 -0.568066 0
M  V30 2871 O 274.303 -1.32855 -1.42056 0
M  V30 2872 C 274.586 -3.27447 1.49835 0
M  V30 2873 C 274.439 -3.31512 3.04006 0
M  V30 2874 C 275.758 -4.24256 1.17025 0
M  V30 2875 H 272.877 -0.659029 0.329923 0
M  V30 2876 H 275.519 -1.27644 1.40737 0
M  V30 2877 H 273.669 -3.73462 1.07044 0
M  V30 2878 H 275.341 -2.93867 3.55584 0
M  V30 2879 H 273.584 -2.70963 3.38765 0
M  V30 2880 H 274.255 -4.34329 3.40679 0
M  V30 2881 H 276.731 -3.86549 1.54009 0
M  V30 2882 H 275.607 -5.24684 1.61237 0
M  V30 2883 H 275.868 -4.42019 0.0846274 0
M  V30 2884 N 274.927 -0.932562 -1.27047 0
M  V30 2885 C 276.173 -0.576412 -1.94436 0
M  V30 2886 C 276.506 0.880891 -1.73072 0
M  V30 2887 O 275.781 1.62905 -1.06264 0
M  V30 2888 C 276.064 -0.909031 -3.48437 0
M  V30 2889 C 275.917 -2.42044 -3.79123 0
M  V30 2890 C 277.236 -0.418341 -4.38107 0
M  V30 2891 H 274.355 -0.210888 -0.706184 0
M  V30 2892 H 276.997 -1.16522 -1.50075 0
M  V30 2893 H 275.147 -0.407947 -3.86352 0
M  V30 2894 H 276.819 -2.99359 -3.50973 0
M  V30 2895 H 275.062 -2.86758 -3.25503 0
M  V30 2896 H 275.733 -2.6037 -4.86736 0
M  V30 2897 H 278.209 -0.847856 -4.0737 0
M  V30 2898 H 277.085 -0.679981 -5.44672 0
M  V30 2899 H 277.346 0.681642 -4.36814 0
M  V30 2900 N 276.405 1.4127 -0.698611 0
M  V30 2901 C 277.368 2.29158 -0.044132 0
M  V30 2902 C 278.368 1.44529 0.704841 0
M  V30 2903 O 279.558 1.65643 0.539276 0
M  V30 2904 C 276.69 3.27459 0.947809 0
M  V30 2905 H 277.883 2.88529 -0.817994 0
M  V30 2906 H 275.436 1.49307 -0.46228 0
M  V30 2907 H 276.171 2.73073 1.74933 0
M  V30 2908 H 275.956 3.8991 0.41385 0
M  V30 2909 H 277.446 3.93311 1.40344 0
M  V30 2910 N 277.883 0.443576 1.51229 0
M  V30 2911 C 279.129 -0.120975 2.02439 0
M  V30 2912 C 279.462 -1.41815 1.32674 0
M  V30 2913 O 278.737 -1.89373 0.443622 0
M  V30 2914 C 279.02 -0.333291 3.58554 0
M  V30 2915 C 278.873 0.982968 4.38928 0
M  V30 2916 C 280.192 -1.10028 4.26124 0
M  V30 2917 H 277.311 -0.0424923 0.735774 0
M  V30 2918 H 279.953 0.583794 1.80809 0
M  V30 2919 H 278.103 -0.933614 3.77115 0
M  V30 2920 H 279.775 1.61775 4.32003 0
M  V30 2921 H 278.018 1.58611 4.03763 0
M  V30 2922 H 278.689 0.788379 5.46341 0
M  V30 2923 H 281.165 -0.591711 4.11871 0
M  V30 2924 H 280.041 -1.21761 5.35225 0
M  V30 2925 H 280.302 -2.12996 3.87408 0
M  V30 2926 N 279.361 -1.56624 0.175154 0
M  V30 2927 C 280.61 -1.96173 -0.468921 0
M  V30 2928 C 280.923 -1.06401 -1.64128 0
M  V30 2929 O 282.129 -1.35648 -2.35185 0
M  V30 2930 C 280.585 -3.48833 -0.885633 0
M  V30 2931 C 280.193 -4.47237 0.261343 0
M  V30 2932 C 281.937 -3.97194 -1.49791 0
M  V30 2933 C 279.844 -5.9114 -0.175214 0
M  V30 2934 H 278.774 -0.732455 -0.178958 0
M  V30 2935 H 281.425 -1.81591 0.263997 0
M  V30 2936 H 279.807 -3.58848 -1.67464 0
M  V30 2937 H 280.981 -4.4894 1.03871 0
M  V30 2938 H 279.296 -4.08956 0.783827 0
M  V30 2939 H 281.893 -5.02167 -1.83665 0
M  V30 2940 H 282.236 -3.40351 -2.39722 0
M  V30 2941 H 282.769 -3.90212 -0.773267 0
M  V30 2942 H 279.508 -6.51865 0.689414 0
M  V30 2943 H 279.028 -5.92735 -0.91786 0
M  V30 2944 H 280.707 -6.44044 -0.617792 0
M  V30 2945 N 280.839 0.0985539 -1.57292 0
M  V30 2946 C 281.772 1.15082 -1.97057 0
M  V30 2947 C 282.75 1.39025 -0.843255 0
M  V30 2948 O 283.934 1.52842 -1.10325 0
M  V30 2949 C 281.061 2.50069 -2.28437 0
M  V30 2950 C 280.107 2.42428 -3.509 0
M  V30 2951 S 280.94 1.84414 -5.02744 0
M  V30 2952 C 282.096 3.21032 -5.37298 0
M  V30 2953 H 282.329 0.811815 -2.86002 0
M  V30 2954 H 279.862 0.306102 -1.51335 0
M  V30 2955 H 281.82 3.27729 -2.47192 0
M  V30 2956 H 280.481 2.8114 -1.40069 0
M  V30 2957 H 279.674 3.41911 -3.70288 0
M  V30 2958 H 279.276 1.72896 -3.31637 0
M  V30 2959 H 281.568 4.17297 -5.33731 0
M  V30 2960 H 282.511 3.06452 -6.38352 0
M  V30 2961 H 282.919 3.20404 -4.64759 0
M  V30 2962 N 282.317 1.53212 0.369288 0
M  V30 2963 C 283.28 1.7872 1.43498 0
M  V30 2964 C 284.28 0.657554 1.46741 0
M  V30 2965 O 285.47 0.925736 1.47566 0
M  V30 2966 C 282.602 1.90591 2.82645 0
M  V30 2967 H 283.795 2.73894 1.22156 0
M  V30 2968 H 281.348 1.44233 0.602203 0
M  V30 2969 H 282.083 0.974709 3.09306 0
M  V30 2970 H 281.868 2.72751 2.8169 0
M  V30 2971 H 283.358 2.11931 3.59826 0
M  V30 2972 N 283.795 -0.628877 1.44509 0
M  V30 2973 C 285.041 -1.39045 1.47629 0
M  V30 2974 C 285.374 -1.93892 0.109343 0
M  V30 2975 O 284.649 -1.7379 -0.87334 0
M  V30 2976 C 284.932 -2.55408 2.53848 0
M  V30 2977 C 284.785 -2.05896 3.99909 0
M  V30 2978 C 286.104 -3.5759 2.56549 0
M  V30 2979 H 283.223 -0.504232 0.537512 0
M  V30 2980 H 285.865 -0.710854 1.76201 0
M  V30 2981 H 284.015 -3.13384 2.29615 0
M  V30 2982 H 285.687 -1.52734 4.35282 0
M  V30 2983 H 283.93 -1.37061 4.11578 0
M  V30 2984 H 284.601 -2.89681 4.69882 0
M  V30 2985 H 287.077 -3.09419 2.78207 0
M  V30 2986 H 285.953 -4.36527 3.32769 0
M  V30 2987 H 286.214 -4.11808 1.60832 0
M  V30 2988 N 285.273 -1.31445 -0.869486 0
M  V30 2989 C 286.221 -1.19067 -1.99814 0
M  V30 2990 C 287.215 -0.0988569 -1.69111 0
M  V30 2991 O 288.421 -0.260781 -1.78101 0
M  V30 2992 H 284.796 -0.368677 -0.655425 0
M  V30 2993 H 286.767 -2.14555 -2.07385 0
M  V30 2994 C 285.516 -0.915323 -3.35436 0
M  V30 2995 H 284.839 -1.74759 -3.59582 0
M  V30 2996 H 286.279 -0.868895 -4.15001 0
M  V30 2997 C 284.738 0.381928 -3.34728 0
M  V30 2998 O 285.268 1.39857 -3.76567 0
M  V30 2999 N 283.474 0.398633 -2.87853 0
M  V30 3000 H 283.021 -0.429186 -2.54 0
M  V30 3001 H 282.979 1.26651 -2.87762 0
M  V30 3002 N 286.751 1.08385 -1.14413 0
M  V30 3003 C 287.698 2.15311 -0.831265 0
M  V30 3004 C 288.668 1.64751 0.211292 0
M  V30 3005 O 289.853 1.90627 0.0811674 0
M  V30 3006 C 286.993 3.43658 -0.315143 0
M  V30 3007 C 286.106 4.08064 -1.41802 0
M  V30 3008 C 285.241 5.24207 -0.859126 0
M  V30 3009 C 284.28 5.80554 -1.93967 0
M  V30 3010 N 283.417 6.88042 -1.39793 0
M  V30 3011 H 288.257 2.41415 -1.74708 0
M  V30 3012 H 285.794 1.18474 -0.871909 0
M  V30 3013 H 287.752 4.172 0.00230884 0
M  V30 3014 H 286.382 3.17839 0.56378 0
M  V30 3015 H 285.434 3.3228 -1.85187 0
M  V30 3016 H 286.746 4.45962 -2.23427 0
M  V30 3017 H 285.9 6.04689 -0.49359 0
M  V30 3018 H 284.639 4.87699 -0.011932 0
M  V30 3019 H 283.644 4.98725 -2.31415 0
M  V30 3020 H 284.869 6.19121 -2.79046 0
M  V30 3021 H 282.815 6.53493 -0.572919 0
M  V30 3022 H 282.732 7.24767 -2.15054 0
M  V30 3023 H 284 7.72255 -1.0603 0
M  V30 3024 N 288.23 0.939286 1.26551 0
M  V30 3025 C 289.16 0.465044 2.28822 0
M  V30 3026 C 290.141 -0.480692 1.63167 0
M  V30 3027 O 291.326 -0.382955 1.90387 0
M  V30 3028 C 288.456 -0.27234 3.46231 0
M  V30 3029 C 287.41 0.58666 4.2396 0
M  V30 3030 C 286.736 -0.280573 5.33963 0
M  V30 3031 C 288.036 1.85704 4.88171 0
M  V30 3032 H 289.73 1.31979 2.68741 0
M  V30 3033 H 287.276 0.636061 1.29191 0
M  V30 3034 H 289.229 -0.615133 4.16886 0
M  V30 3035 H 287.953 -1.16121 3.0526 0
M  V30 3036 H 286.612 0.91232 3.55067 0
M  V30 3037 H 286.26 -1.16874 4.89234 0
M  V30 3038 H 285.96 0.29076 5.8688 0
M  V30 3039 H 287.484 -0.618678 6.07458 0
M  V30 3040 H 288.898 1.58161 5.51052 0
M  V30 3041 H 287.295 2.37279 5.51197 0
M  V30 3042 H 288.365 2.56957 4.11219 0
M  V30 3043 N 289.708 -1.40897 0.706093 0
M  V30 3044 C 290.656 -2.32572 0.0361893 0
M  V30 3045 C 291.65 -1.51532 -0.757266 0
M  V30 3046 O 292.856 -1.67396 -0.661703 0
M  V30 3047 H 289.231 -0.751966 -0.00709935 0
M  V30 3048 H 291.202 -2.86733 0.826249 0
M  V30 3049 C 289.951 -3.36418 -0.87854 0
M  V30 3050 H 289.274 -3.98836 -0.277401 0
M  V30 3051 H 290.714 -4.0308 -1.3154 0
M  V30 3052 C 289.173 -2.71141 -1.99961 0
M  V30 3053 O 289.703 -2.56735 -3.0895 0
M  V30 3054 N 287.909 -2.29671 -1.78043 0
M  V30 3055 H 287.456 -2.41588 -0.894042 0
M  V30 3056 H 287.414 -1.86332 -2.53235 0
M  V30 3057 N 291.186 -0.45159 -1.50991 0
M  V30 3058 C 292.434 0.109857 -2.01801 0
M  V30 3059 C 292.755 1.41958 -1.3369 0
M  V30 3060 O 292.025 1.9003 -0.475951 0
M  V30 3061 H 290.605 0.0435884 -0.745727 0
M  V30 3062 H 293.267 -0.597557 -1.85514 0
M  V30 3063 H 292.363 0.275489 -3.10882 0
M  V30 3064 N 292.664 1.56529 -0.183458 0
M  V30 3065 C 294.075 1.83739 0.331177 0
M  V30 3066 C 294.426 1.10373 1.62211 0
M  V30 3067 O 293.551 0.36071 2.13373 0
M  V30 3068 C 294.146 3.33306 0.607646 0
M  V30 3069 C 292.705 3.60969 1.06668 0
M  V30 3070 C 291.852 2.77086 0.109029 0
M  V30 3071 H 294.803 1.53379 -0.407484 0
M  V30 3072 H 294.824 3.51444 1.45832 0
M  V30 3073 H 294.336 3.86677 -0.332086 0
M  V30 3074 H 292.437 3.13021 2.0211 0
M  V30 3075 H 292.55 4.69231 0.967447 0
M  V30 3076 H 290.914 2.47319 0.608714 0
M  V30 3077 H 291.697 3.33241 -0.82494 0
M  V30 3078 N 294.142 -0.090211 1.57342 0
M  V30 3079 C 295.389 -0.792807 1.86335 0
M  V30 3080 C 295.717 -1.78494 0.772662 0
M  V30 3081 O 294.972 -1.94305 -0.233258 0
M  V30 3082 C 295.271 -1.55222 3.21933 0
M  V30 3083 C 294.937 -0.701765 4.45406 0
M  V30 3084 C 293.599 -0.467334 4.78925 0
M  V30 3085 C 295.951 -0.11086 5.21082 0
M  V30 3086 C 293.279 0.367785 5.85546 0
M  V30 3087 C 295.631 0.711609 6.28585 0
M  V30 3088 C 294.295 0.956086 6.60617 0
M  V30 3089 H 293.565 -0.290109 0.681849 0
M  V30 3090 H 296.212 -0.0541332 1.91423 0
M  V30 3091 H 294.517 -2.3626 3.12551 0
M  V30 3092 H 296.214 -2.10032 3.41595 0
M  V30 3093 H 292.804 -0.894598 4.1916 0
M  V30 3094 H 296.988 -0.279129 4.95514 0
M  V30 3095 H 292.244 0.566128 6.08773 0
M  V30 3096 H 296.418 1.17632 6.86393 0
M  V30 3097 H 294.045 1.60499 7.43064 0
M  V30 3098 N 295.62 -1.53406 -0.361157 0
M  V30 3099 C 296.867 -1.69802 -1.10333 0
M  V30 3100 C 297.195 -0.452087 -1.89173 0
M  V30 3101 O 296.45 0.566017 -1.87336 0
M  V30 3102 C 296.749 -2.90211 -2.08596 0
M  V30 3103 C 296.415 -4.26539 -1.46203 0
M  V30 3104 C 295.077 -4.6361 -1.28915 0
M  V30 3105 C 297.429 -5.113 -1.01101 0
M  V30 3106 C 294.757 -5.83075 -0.651157 0
M  V30 3107 C 297.109 -6.31415 -0.387007 0
M  V30 3108 C 295.773 -6.67195 -0.201657 0
M  V30 3109 H 295.043 -0.621351 -0.403737 0
M  V30 3110 H 297.69 -1.87598 -0.384609 0
M  V30 3111 H 295.995 -2.66946 -2.86788 0
M  V30 3112 H 297.692 -3.00091 -2.65982 0
M  V30 3113 H 294.282 -3.97352 -1.60653 0
M  V30 3114 H 298.466 -4.83206 -1.13249 0
M  V30 3115 H 293.722 -6.09385 -0.496006 0
M  V30 3116 H 297.896 -6.96394 -0.0293563 0
M  V30 3117 H 295.523 -7.59628 0.294766 0
M  V30 3118 N 297.098 0.621204 -1.44841 0
M  V30 3119 C 298.326 1.40752 -1.51646 0
M  V30 3120 C 298.741 1.88246 -0.144549 0
M  V30 3121 O 298.098 1.61422 0.851416 0
M  V30 3122 C 298.149 2.62119 -2.4895 0
M  V30 3123 O 297.87 2.16602 -3.80808 0
M  V30 3124 C 299.371 3.55135 -2.65319 0
M  V30 3125 H 296.591 0.431325 -0.514004 0
M  V30 3126 H 299.135 0.758835 -1.899 0
M  V30 3127 H 297.29 3.23058 -2.13805 0
M  V30 3128 H 297.704 2.95358 -4.33433 0
M  V30 3129 H 299.178 4.36874 -3.37409 0
M  V30 3130 H 299.655 4.04592 -1.70886 0
M  V30 3131 H 300.261 3.00058 -3.01405 0
M  V30 3132 N 298.576 1.31904 0.862503 0
M  V30 3133 C 299.801 1.25135 1.65397 0
M  V30 3134 C 300.226 -0.179 1.87246 0
M  V30 3135 O 299.584 -1.1277 1.4196 0
M  V30 3136 C 299.632 2.00832 2.99498 0
M  V30 3137 O 298.736 1.35075 3.89652 0
M  V30 3138 H 298.077 0.431655 0.504549 0
M  V30 3139 H 300.607 1.74094 1.07483 0
M  V30 3140 H 300.617 2.10709 3.49379 0
M  V30 3141 H 299.292 3.04847 2.82916 0
M  V30 3142 H 297.869 1.33696 3.48109 0
M  V30 3143 N 300.054 -1.07777 1.14986 0
M  V30 3144 C 300.964 -2.18404 0.856546 0
M  V30 3145 C 301.98 -1.73211 -0.165485 0
M  V30 3146 O 303.156 -2.01399 0.00755219 0
M  V30 3147 C 300.221 -3.44977 0.34526 0
M  V30 3148 C 299.282 -4.0476 1.43065 0
M  V30 3149 C 298.515 -5.25291 0.943663 0
M  V30 3150 O 298.738 -5.70004 -0.212426 0
M  V30 3151 O 297.672 -5.76638 1.72547 0
M  V30 3152 H 301.498 -2.45978 1.78125 0
M  V30 3153 H 299.083 -1.17033 0.928631 0
M  V30 3154 H 300.965 -4.21348 0.0663671 0
M  V30 3155 H 299.64 -3.18965 -0.551631 0
M  V30 3156 H 298.547 -3.29949 1.76309 0
M  V30 3157 H 299.88 -4.35035 2.30229 0
M  V30 3158 N 301.532 -0.945985 -1.26051 0
M  V30 3159 C 302.809 -0.513816 -1.88731 0
M  V30 3160 C 303.189 1.00872 -1.8544 0
M  V30 3161 O 302.537 1.8708 -1.312 0
M  V30 3162 C 302.747 -1.08062 -3.31849 0
M  V30 3163 C 304.095 -1.1522 -4.08668 0
M  V30 3164 O 305.119 -1.03155 -3.40936 0
M  V30 3165 O 303.978 -1.34044 -5.29806 0
M  V30 3166 H 301.072 -0.168193 -0.809716 0
M  V30 3167 H 303.618 -1.03886 -1.34186 0
M  V30 3168 H 302.39 -2.1241 -3.2863 0
M  V30 3169 H 302.013 -0.538307 -3.93939 0
M  V30 3170 N 303.011 1.40521 -0.713556 0
M  V30 3171 C 303.921 2.34522 -0.0606667 0
M  V30 3172 C 304.937 1.57193 0.74607 0
M  V30 3173 O 306.113 1.89591 0.679493 0
M  V30 3174 C 303.178 3.36081 0.851491 0
M  V30 3175 C 302.239 4.29286 0.0349339 0
M  V30 3176 C 301.472 5.25994 0.903649 0
M  V30 3177 O 301.695 5.28616 2.14292 0
M  V30 3178 O 300.629 6.00918 0.343723 0
M  V30 3179 H 304.455 2.91968 -0.835972 0
M  V30 3180 H 302.04 1.41681 -0.47402 0
M  V30 3181 H 303.922 3.98369 1.37404 0
M  V30 3182 H 302.597 2.81052 1.60598 0
M  V30 3183 H 301.504 3.70289 -0.532633 0
M  V30 3184 H 302.837 4.87462 -0.681287 0
M  V30 3185 N 304.489 0.459591 1.5075 0
M  V30 3186 C 305.766 -0.160371 1.94941 0
M  V30 3187 C 306.146 -1.58048 1.39943 0
M  V30 3188 O 305.494 -2.206 0.595629 0
M  V30 3189 C 305.704 -0.115432 3.48809 0
M  V30 3190 C 307.052 -0.310026 4.23467 0
M  V30 3191 O 308.076 -0.192543 3.55679 0
M  V30 3192 O 306.935 -0.546031 5.43765 0
M  V30 3193 H 304.029 -0.117925 0.818549 0
M  V30 3194 H 306.575 0.519169 1.61563 0
M  V30 3195 H 305.347 0.87652 3.81357 0
M  V30 3196 H 304.97 -0.836928 3.88692 0
M  V30 3197 N 305.967 -1.56429 0.191757 0
M  V30 3198 C 307.213 -1.97777 -0.448554 0
M  V30 3199 C 307.546 -1.07847 -1.61501 0
M  V30 3200 O 306.821 -0.129774 -1.94067 0
M  V30 3201 C 307.104 -3.48362 -0.911906 0
M  V30 3202 C 306.957 -4.4907 0.256136 0
M  V30 3203 C 308.276 -4.02561 -1.77857 0
M  V30 3204 H 305.395 -0.719071 -0.161572 0
M  V30 3205 H 308.037 -1.87896 0.282007 0
M  V30 3206 H 306.187 -3.56914 -1.53442 0
M  V30 3207 H 307.859 -4.5256 0.893733 0
M  V30 3208 H 306.102 -4.24181 0.908436 0
M  V30 3209 H 306.773 -5.51889 -0.11053 0
M  V30 3210 H 309.249 -3.96767 -1.25359 0
M  V30 3211 H 308.125 -5.08301 -2.07174 0
M  V30 3212 H 308.386 -3.47616 -2.73158 0
M  V30 3213 N 307.445 0.0818655 -1.57387 0
M  V30 3214 C 308.692 0.782914 -1.86753 0
M  V30 3215 C 309.02 1.78082 -0.782118 0
M  V30 3216 O 308.275 1.94426 0.22295 0
M  V30 3217 C 308.574 1.53513 -3.22752 0
M  V30 3218 C 308.24 0.678134 -4.45771 0
M  V30 3219 C 306.902 0.441929 -4.79166 0
M  V30 3220 C 309.254 0.0832243 -5.21134 0
M  V30 3221 C 306.582 -0.398833 -5.85343 0
M  V30 3222 C 308.934 -0.744935 -6.28199 0
M  V30 3223 C 307.598 -0.991107 -6.60101 0
M  V30 3224 H 306.868 0.286489 -0.683378 0
M  V30 3225 H 309.515 0.0439808 -1.91449 0
M  V30 3226 H 307.82 2.34599 -3.138 0
M  V30 3227 H 309.517 2.08218 -3.42705 0
M  V30 3228 H 306.107 0.872357 -4.19628 0
M  V30 3229 H 310.291 0.252847 -4.95655 0
M  V30 3230 H 305.547 -0.598405 -6.08465 0
M  V30 3231 H 309.721 -1.21271 -6.8576 0
M  V30 3232 H 307.348 -1.64437 -7.42202 0
M  V30 3233 N 308.923 1.53595 0.353017 0
M  V30 3234 C 309.853 1.83902 1.43883 0
M  V30 3235 C 310.834 0.693421 1.55324 0
M  V30 3236 O 312.019 0.944452 1.69687 0
M  V30 3237 C 309.149 2.04016 2.8106 0
M  V30 3238 C 308.103 3.19814 2.84434 0
M  V30 3239 C 307.429 3.25244 4.24406 0
M  V30 3240 C 308.729 4.58133 2.50822 0
M  V30 3241 H 310.423 2.74835 1.1877 0
M  V30 3242 H 307.969 1.32242 0.569917 0
M  V30 3243 H 309.922 2.238 3.57059 0
M  V30 3244 H 308.646 1.09804 3.07588 0
M  V30 3245 H 307.305 2.9987 2.10887 0
M  V30 3246 H 306.953 2.28646 4.48029 0
M  V30 3247 H 306.653 4.03054 4.27576 0
M  V30 3248 H 308.177 3.47228 5.0226 0
M  V30 3249 H 309.591 4.77995 3.16534 0
M  V30 3250 H 307.988 5.38276 2.6529 0
M  V30 3251 H 309.058 4.62387 1.46034 0
M  V30 3252 N 310.401 -0.613514 1.45168 0
M  V30 3253 C 311.348 -1.72456 1.53387 0
M  V30 3254 C 312.318 -1.6169 0.380191 0
M  V30 3255 O 313.503 -1.81356 0.592836 0
M  V30 3256 C 310.643 -3.10753 1.50088 0
M  V30 3257 C 309.756 -3.32368 2.75963 0
M  V30 3258 C 308.891 -4.60737 2.64376 0
M  V30 3259 C 307.93 -4.7559 3.85332 0
M  V30 3260 N 307.067 -5.95253 3.72315 0
M  V30 3261 H 311.907 -1.64768 2.48305 0
M  V30 3262 H 309.444 -0.803503 1.23216 0
M  V30 3263 H 311.402 -3.90758 1.46164 0
M  V30 3264 H 310.032 -3.17413 0.587243 0
M  V30 3265 H 309.084 -2.4618 2.89999 0
M  V30 3266 H 310.396 -3.39218 3.65695 0
M  V30 3267 H 309.55 -5.48928 2.58385 0
M  V30 3268 H 308.289 -4.56275 1.72233 0
M  V30 3269 H 307.294 -3.85824 3.91688 0
M  V30 3270 H 308.519 -4.81854 4.78533 0
M  V30 3271 H 306.465 -5.91847 2.82937 0
M  V30 3272 H 306.382 -6.03236 4.55677 0
M  V30 3273 H 307.65 -6.85958 3.70246 0
M  V30 3274 N 311.879 -1.3236 -0.855495 0
M  V30 3275 C 313.109 -1.25688 -1.6397 0
M  V30 3276 C 313.517 0.177592 -1.88365 0
M  V30 3277 O 312.86 1.12485 -1.45234 0
M  V30 3278 C 312.922 -1.94602 -3.02275 0
M  V30 3279 C 312.586 -3.43937 -3.00926 0
M  V30 3280 C 313.583 -4.39435 -2.77835 0
M  V30 3281 C 311.268 -3.85858 -3.21588 0
M  V30 3282 C 313.262 -5.74829 -2.75409 0
M  V30 3283 C 310.949 -5.21361 -3.18789 0
M  V30 3284 C 311.947 -6.15658 -2.95727 0
M  V30 3285 O 311.635 -7.48681 -2.928 0
M  V30 3286 H 311.367 -0.434972 -0.51747 0
M  V30 3287 H 313.921 -1.75023 -1.075 0
M  V30 3288 H 312.151 -1.39836 -3.60531 0
M  V30 3289 H 313.84 -1.81651 -3.62985 0
M  V30 3290 H 314.606 -4.08374 -2.6164 0
M  V30 3291 H 310.485 -3.12883 -3.38564 0
M  V30 3292 H 314.029 -6.48404 -2.57328 0
M  V30 3293 H 309.926 -5.52052 -3.34528 0
M  V30 3294 H 310.694 -7.5803 -3.0876 0
M  V30 3295 N 313.357 1.07166 -1.15556 0
M  V30 3296 C 314.287 2.16403 -0.877046 0
M  V30 3297 C 315.268 1.69217 0.173111 0
M  V30 3298 O 316.453 1.94181 0.027084 0
M  V30 3299 C 313.583 3.45349 -0.367632 0
M  V30 3300 C 312.537 4.05995 -1.35468 0
M  V30 3301 C 311.863 5.30045 -0.704038 0
M  V30 3302 C 313.163 4.45804 -2.72132 0
M  V30 3303 H 314.857 2.39959 -1.79053 0
M  V30 3304 H 312.403 1.15325 -0.862331 0
M  V30 3305 H 314.356 4.21095 -0.160317 0
M  V30 3306 H 313.08 3.21385 0.581326 0
M  V30 3307 H 311.739 3.32296 -1.54839 0
M  V30 3308 H 311.387 5.02373 0.251128 0
M  V30 3309 H 311.087 5.71579 -1.36277 0
M  V30 3310 H 312.611 6.08495 -0.50654 0
M  V30 3311 H 314.025 5.12671 -2.56595 0
M  V30 3312 H 312.422 4.98296 -3.34397 0
M  V30 3313 H 313.492 3.57083 -3.28054 0
M  V30 3314 N 314.835 0.952656 1.25548 0
M  V30 3315 C 315.783 0.462354 2.27958 0
M  V30 3316 C 316.777 -0.46634 1.62855 0
M  V30 3317 O 317.983 -0.343287 1.76696 0
M  V30 3318 H 314.358 0.13101 0.7405 0
M  V30 3319 H 316.329 1.33839 2.66702 0
M  V30 3320 C 315.078 -0.24628 3.46827 0
M  V30 3321 H 314.401 0.459192 3.97154 0
M  V30 3322 H 315.841 -0.553393 4.20373 0
M  V30 3323 C 314.3 -1.4681 3.0323 0
M  V30 3324 O 314.83 -2.56591 3.09069 0
M  V30 3325 N 313.036 -1.32874 2.58443 0
M  V30 3326 H 312.583 -0.435536 2.53891 0
M  V30 3327 H 312.541 -2.14742 2.29637 0
M  V30 3328 N 316.313 -1.40141 0.720998 0
M  V30 3329 C 317.56 -2.00787 0.262842 0
M  V30 3330 C 317.888 -1.5718 -1.14563 0
M  V30 3331 O 317.143 -0.785391 -1.79249 0
M  V30 3332 C 317.442 -3.56165 0.296892 0
M  V30 3333 C 317.108 -4.19373 1.65641 0
M  V30 3334 C 315.77 -4.36352 2.02855 0
M  V30 3335 C 318.122 -4.54578 2.54968 0
M  V30 3336 C 315.45 -4.8582 3.28931 0
M  V30 3337 C 317.802 -5.05447 3.80402 0
M  V30 3338 C 316.466 -5.20635 4.17726 0
M  V30 3339 H 315.736 -0.734731 0.0961807 0
M  V30 3340 H 318.383 -1.67673 0.925093 0
M  V30 3341 H 316.688 -3.8922 -0.448932 0
M  V30 3342 H 318.385 -4.00929 -0.0755208 0
M  V30 3343 H 314.975 -4.06549 1.35704 0
M  V30 3344 H 319.159 -4.41091 2.27491 0
M  V30 3345 H 314.415 -4.95764 3.57811 0
M  V30 3346 H 318.589 -5.31663 4.49786 0
M  V30 3347 H 316.216 -5.58728 5.15487 0
M  V30 3348 N 317.792 -0.46758 -1.50504 0
M  V30 3349 C 318.755 0.317059 -2.26996 0
M  V30 3350 C 319.755 0.923513 -1.31635 0
M  V30 3351 O 320.945 0.793239 -1.55091 0
M  V30 3352 C 318.077 1.45134 -3.08462 0
M  V30 3353 H 319.27 -0.353723 -2.97807 0
M  V30 3354 H 316.823 -0.221545 -1.54722 0
M  V30 3355 H 317.558 2.15728 -2.4214 0
M  V30 3356 H 317.343 1.02232 -3.78538 0
M  V30 3357 H 318.833 2.00493 -3.66323 0
M  V30 3358 N 319.27 1.56325 -0.20005 0
M  V30 3359 C 320.498 2.02105 0.442874 0
M  V30 3360 C 320.913 1.08014 1.5485 0
M  V30 3361 O 320.27 0.0858797 1.82298 0
M  V30 3362 C 320.321 3.47549 0.994583 0
M  V30 3363 O 320.042 4.38049 -0.0669322 0
M  V30 3364 C 321.543 4.0887 1.7129 0
M  V30 3365 H 318.763 0.661807 0.110691 0
M  V30 3366 H 321.307 2.02134 -0.310207 0
M  V30 3367 H 319.462 3.48204 1.69803 0
M  V30 3368 H 319.876 5.23368 0.344462 0
M  V30 3369 H 321.35 5.12475 2.05118 0
M  V30 3370 H 321.827 3.52615 2.61838 0
M  V30 3371 H 322.433 4.12002 1.05518 0
M  V30 3372 N 320.748 -0.0735177 1.57428 0
M  V30 3373 C 321.678 -1.0879 2.06608 0
M  V30 3374 C 322.659 -1.40473 0.959237 0
M  V30 3375 O 323.844 -1.5013 1.23185 0
M  V30 3376 C 320.974 -2.40183 2.50857 0
M  V30 3377 C 319.928 -2.22858 3.65402 0
M  V30 3378 C 319.254 -3.59619 3.957 0
M  V30 3379 C 320.554 -1.65123 4.95511 0
M  V30 3380 H 322.248 -0.678673 2.91607 0
M  V30 3381 H 319.794 -0.325013 1.40284 0
M  V30 3382 H 321.747 -3.11437 2.83874 0
M  V30 3383 H 320.471 -2.83083 1.62885 0
M  V30 3384 H 319.13 -1.54045 3.32664 0
M  V30 3385 H 318.778 -4.00086 3.04861 0
M  V30 3386 H 318.478 -3.48866 4.72828 0
M  V30 3387 H 320.002 -4.32306 4.31212 0
M  V30 3388 H 321.416 -2.26241 5.26771 0
M  V30 3389 H 319.813 -1.65071 5.7695 0
M  V30 3390 H 320.883 -0.612559 4.81015 0
M  V30 3391 N 322.226 -1.5378 -0.344866 0
M  V30 3392 C 323.456 -1.74646 -1.10374 0
M  V30 3393 C 323.864 -0.48491 -1.8288 0
M  V30 3394 O 323.207 0.553062 -1.75177 0
M  V30 3395 C 323.269 -2.87145 -2.16306 0
M  V30 3396 C 322.933 -4.26795 -1.63386 0
M  V30 3397 C 323.93 -5.08412 -1.08688 0
M  V30 3398 C 321.615 -4.73276 -1.68272 0
M  V30 3399 C 323.609 -6.34609 -0.595792 0
M  V30 3400 C 321.296 -5.99446 -1.18776 0
M  V30 3401 C 322.294 -6.79946 -0.645215 0
M  V30 3402 O 321.982 -8.03745 -0.157626 0
M  V30 3403 H 321.714 -0.587112 -0.335075 0
M  V30 3404 H 324.268 -2.01403 -0.403252 0
M  V30 3405 H 322.498 -2.55909 -2.89909 0
M  V30 3406 H 324.187 -2.95992 -2.77747 0
M  V30 3407 H 324.953 -4.73666 -1.04236 0
M  V30 3408 H 320.832 -4.10677 -2.09442 0
M  V30 3409 H 324.376 -6.97389 -0.171654 0
M  V30 3410 H 320.273 -6.33687 -1.22928 0
M  V30 3411 H 321.041 -8.18038 -0.275037 0
M  V30 3412 N 323.704 0.605807 -1.45491 0
M  V30 3413 C 324.634 1.72709 -1.57143 0
M  V30 3414 C 325.615 1.6476 -0.422884 0
M  V30 3415 O 326.8 1.83132 -0.646247 0
M  V30 3416 C 323.93 3.11316 -1.53948 0
M  V30 3417 C 322.884 3.34077 -2.67537 0
M  V30 3418 C 322.21 4.72975 -2.49397 0
M  V30 3419 C 323.51 3.24158 -4.09535 0
M  V30 3420 H 325.204 1.63214 -2.51001 0
M  V30 3421 H 322.75 0.78379 -1.208 0
M  V30 3422 H 324.703 3.89557 -1.60696 0
M  V30 3423 H 323.427 3.21655 -0.566205 0
M  V30 3424 H 322.086 2.58227 -2.6022 0
M  V30 3425 H 321.734 4.8005 -1.50205 0
M  V30 3426 H 321.434 4.8916 -3.25571 0
M  V30 3427 H 322.958 5.53414 -2.58002 0
M  V30 3428 H 324.372 3.92271 -4.18086 0
M  V30 3429 H 322.769 3.51872 -4.86113 0
M  V30 3430 H 323.839 2.2157 -4.31317 0
M  V30 3431 N 325.182 1.32811 0.848464 0
M  V30 3432 C 326.129 1.22265 1.95755 0
M  V30 3433 C 327.099 0.103413 1.65778 0
M  V30 3434 O 328.284 0.280033 1.88734 0
M  V30 3435 C 325.424 0.958014 3.31536 0
M  V30 3436 C 324.537 2.16262 3.73971 0
M  V30 3437 C 323.672 1.83295 4.98575 0
M  V30 3438 C 322.711 3.00041 5.33518 0
M  V30 3439 N 321.848 2.67125 6.49299 0
M  V30 3440 H 326.688 2.17128 2.04107 0
M  V30 3441 H 324.225 1.07982 0.998913 0
M  V30 3442 H 326.183 0.785052 4.09747 0
M  V30 3443 H 324.813 0.046159 3.22767 0
M  V30 3444 H 323.865 2.44565 2.91362 0
M  V30 3445 H 325.177 3.03572 3.95785 0
M  V30 3446 H 324.331 1.62586 5.84509 0
M  V30 3447 H 323.07 0.932078 4.7871 0
M  V30 3448 H 322.075 3.21374 4.46093 0
M  V30 3449 H 323.3 3.90869 5.55336 0
M  V30 3450 H 321.246 1.79586 6.3094 0
M  V30 3451 H 321.163 3.47965 6.71161 0
M  V30 3452 H 322.431 2.49861 7.3837 0
M  V30 3453 N 326.66 -1.06551 1.16123 0
M  V30 3454 C 327.909 -1.78687 0.935622 0
M  V30 3455 C 328.222 -1.88056 -0.538001 0
M  V30 3456 O 329.428 -2.56794 -0.88143 0
M  V30 3457 C 327.884 -3.21143 1.62466 0
M  V30 3458 C 327.492 -3.19949 3.13587 0
M  V30 3459 C 329.236 -3.9783 1.48092 0
M  V30 3460 C 327.143 -4.57108 3.75241 0
M  V30 3461 H 326.073 -0.669712 0.346412 0
M  V30 3462 H 328.724 -1.19534 1.39226 0
M  V30 3463 H 327.106 -3.80539 1.09572 0
M  V30 3464 H 328.28 -2.70151 3.73303 0
M  V30 3465 H 326.595 -2.5676 3.27816 0
M  V30 3466 H 329.192 -4.99217 1.91538 0
M  V30 3467 H 329.535 -4.14078 0.429507 0
M  V30 3468 H 330.068 -3.4495 1.98127 0
M  V30 3469 H 326.807 -4.46065 4.80319 0
M  V30 3470 H 326.327 -5.07111 3.20309 0
M  V30 3471 H 328.006 -5.26069 3.76644 0
M  V30 3472 N 328.138 -0.959301 -1.25041 0
M  V30 3473 C 329.368 -0.63303 -1.96663 0
M  V30 3474 C 329.776 0.800031 -1.71453 0
M  V30 3475 O 329.119 1.54736 -0.99008 0
M  V30 3476 C 329.181 -0.817523 -3.50081 0
M  V30 3477 C 328.845 -2.22863 -3.98975 0
M  V30 3478 C 329.842 -3.20569 -4.09306 0
M  V30 3479 C 327.527 -2.55407 -4.32519 0
M  V30 3480 C 329.521 -4.4891 -4.52503 0
M  V30 3481 C 327.208 -3.83976 -4.754 0
M  V30 3482 C 328.206 -4.8054 -4.85356 0
M  V30 3483 O 327.894 -6.06817 -5.27284 0
M  V30 3484 H 327.626 -0.235866 -0.633516 0
M  V30 3485 H 330.18 -1.2874 -1.60047 0
M  V30 3486 H 328.41 -0.105992 -3.86555 0
M  V30 3487 H 330.099 -0.491604 -4.02912 0
M  V30 3488 H 330.865 -2.96753 -3.83618 0
M  V30 3489 H 326.744 -1.8097 -4.23994 0
M  V30 3490 H 330.288 -5.24283 -4.60188 0
M  V30 3491 H 326.185 -4.07596 -5.00535 0
M  V30 3492 H 326.953 -6.10262 -5.45457 0
M  V30 3493 N 329.616 1.39756 -0.72842 0
M  V30 3494 C 330.566 2.2792 -0.0603424 0
M  V30 3495 C 331.55 1.43922 0.719399 0
M  V30 3496 O 332.742 1.66895 0.589489 0
M  V30 3497 C 329.871 3.32582 0.851104 0
M  V30 3498 C 328.957 4.24049 0.0658641 0
M  V30 3499 N 329.348 4.96653 -0.957578 0
M  V30 3500 C 327.646 4.45013 0.296509 0
M  V30 3501 C 328.347 5.63836 -1.43052 0
M  V30 3502 N 327.323 5.38397 -0.750315 0
M  V30 3503 H 331.125 2.81504 -0.84455 0
M  V30 3504 H 328.639 1.5236 -0.562155 0
M  V30 3505 H 330.636 3.94603 1.34514 0
M  V30 3506 H 329.296 2.80558 1.63454 0
M  V30 3507 H 330.307 5.00297 -1.33877 0
M  V30 3508 H 326.984 4.03943 1.05527 0
M  V30 3509 H 328.374 6.31974 -2.28163 0
M  V30 3510 N 331.094 0.475555 1.50254 0
M  V30 3511 C 332.024 -0.30611 2.31485 0
M  V30 3512 C 333.005 -0.986228 1.38591 0
M  V30 3513 O 334.19 -0.982541 1.67511 0
M  V30 3514 C 331.32 -1.38588 3.1845 0
M  V30 3515 C 330.274 -0.827115 4.19932 0
M  V30 3516 C 329.6 -2.00551 4.95665 0
M  V30 3517 C 330.9 0.16463 5.2204 0
M  V30 3518 H 332.594 0.371866 2.97082 0
M  V30 3519 H 330.14 0.180282 1.42867 0
M  V30 3520 H 332.093 -1.94023 3.74076 0
M  V30 3521 H 330.817 -2.09269 2.50747 0
M  V30 3522 H 329.476 -0.294702 3.65414 0
M  V30 3523 H 329.124 -2.6994 4.2443 0
M  V30 3524 H 328.824 -1.63784 5.64313 0
M  V30 3525 H 330.348 -2.56468 5.54127 0
M  V30 3526 H 331.762 -0.300699 5.72511 0
M  V30 3527 H 330.159 0.446813 5.98434 0
M  V30 3528 H 331.229 1.08905 4.72512 0
M  V30 3529 N 332.573 -1.56217 0.208337 0
M  V30 3530 C 333.798 -2.02782 -0.435222 0
M  V30 3531 C 334.223 -1.08738 -1.53485 0
M  V30 3532 O 333.581 -0.0731855 -1.81152 0
M  V30 3533 C 333.629 -3.47687 -0.956335 0
M  V30 3534 O 332.733 -3.56773 -2.06849 0
M  V30 3535 H 332.074 -0.656403 -0.100158 0
M  V30 3536 H 334.604 -2.02033 0.3231 0
M  V30 3537 H 334.614 -3.87745 -1.26955 0
M  V30 3538 H 333.289 -4.15624 -0.15143 0
M  V30 3539 H 331.866 -3.28597 -1.76292 0
M  V30 3540 N 334.051 0.0651679 -1.57465 0
M  V30 3541 C 335.281 0.774683 -1.91526 0
M  V30 3542 C 335.689 1.71305 -0.803196 0
M  V30 3543 O 335.032 1.82231 0.231881 0
M  V30 3544 C 335.094 1.61645 -3.21109 0
M  V30 3545 C 334.758 0.846753 -4.49087 0
M  V30 3546 C 335.755 0.163024 -5.19644 0
M  V30 3547 C 333.44 0.811966 -4.95694 0
M  V30 3548 C 335.434 -0.54519 -6.35064 0
M  V30 3549 C 333.121 0.0999836 -6.11018 0
M  V30 3550 C 334.119 -0.577388 -6.80555 0
M  V30 3551 O 333.807 -1.27789 -7.93678 0
M  V30 3552 H 333.539 0.225031 -0.637446 0
M  V30 3553 H 336.093 0.0377134 -2.05365 0
M  V30 3554 H 334.323 2.39638 -3.03497 0
M  V30 3555 H 336.012 2.20525 -3.40769 0
M  V30 3556 H 336.778 0.181163 -4.84662 0
M  V30 3557 H 332.657 1.32867 -4.41438 0
M  V30 3558 H 336.201 -1.07446 -6.89276 0
M  V30 3559 H 332.098 0.0797945 -6.45451 0
M  V30 3560 H 332.866 -1.18784 -8.09835 0
M  V30 3561 N 335.529 1.53961 0.336706 0
M  V30 3562 C 336.459 1.85417 1.41925 0
M  V30 3563 C 337.44 0.709856 1.5458 0
M  V30 3564 O 338.625 0.962396 1.68676 0
M  V30 3565 C 335.755 2.06985 2.78881 0
M  V30 3566 C 334.709 3.22813 2.81026 0
M  V30 3567 C 334.035 3.29727 4.20932 0
M  V30 3568 C 335.335 4.60767 2.45949 0
M  V30 3569 H 337.029 2.76079 1.15848 0
M  V30 3570 H 334.575 1.32839 0.555859 0
M  V30 3571 H 336.528 2.27575 3.54665 0
M  V30 3572 H 335.252 1.13061 3.06406 0
M  V30 3573 H 333.911 3.0209 2.07695 0
M  V30 3574 H 333.559 2.33385 4.45579 0
M  V30 3575 H 333.259 4.07566 4.23277 0
M  V30 3576 H 334.783 3.52536 4.98549 0
M  V30 3577 H 336.197 4.81325 3.11446 0
M  V30 3578 H 334.594 5.4106 2.59566 0
M  V30 3579 H 335.664 4.6391 1.41122 0
M  V30 3580 N 337.007 -0.598083 1.45811 0
M  V30 3581 C 337.957 -1.70272 1.51629 0
M  V30 3582 C 338.941 -1.56382 0.378629 0
M  V30 3583 O 340.133 -1.65557 0.626087 0
M  V30 3584 C 337.262 -3.09042 1.49493 0
M  V30 3585 C 336.348 -3.28284 2.68496 0
M  V30 3586 N 336.739 -3.17748 3.93535 0
M  V30 3587 C 335.037 -3.59182 2.64394 0
M  V30 3588 C 335.738 -3.38579 4.7301 0
M  V30 3589 N 334.714 -3.63016 4.04624 0
M  V30 3590 H 338.516 -1.60634 2.46118 0
M  V30 3591 H 336.03 -0.801642 1.41235 0
M  V30 3592 H 338.027 -3.88302 1.51747 0
M  V30 3593 H 336.687 -3.19823 0.560683 0
M  V30 3594 H 337.698 -2.95944 4.25014 0
M  V30 3595 H 334.375 -3.76742 1.79922 0
M  V30 3596 H 335.765 -3.35747 5.82 0
M  V30 3597 N 338.485 -1.33259 -0.841409 0
M  V30 3598 C 339.433 -1.23279 -1.97244 0
M  V30 3599 C 340.427 -0.134706 -1.68864 0
M  V30 3600 O 341.633 -0.298501 -1.77508 0
M  V30 3601 H 338.008 -0.382497 -0.647457 0
M  V30 3602 H 339.979 -2.18906 -2.02787 0
M  V30 3603 C 338.728 -0.986268 -3.33419 0
M  V30 3604 H 338.051 -1.82347 -3.55794 0
M  V30 3605 H 339.491 -0.956728 -4.13065 0
M  V30 3606 C 337.95 0.310842 -3.35463 0
M  V30 3607 O 338.48 1.31838 -3.79449 0
M  V30 3608 N 336.686 0.337485 -2.88634 0
M  V30 3609 H 336.233 -0.482967 -2.53032 0
M  V30 3610 H 336.191 1.20518 -2.90384 0
M  V30 3611 N 339.963 1.05934 -1.16686 0
M  V30 3612 C 341.203 1.80382 -0.961345 0
M  V30 3613 C 341.567 1.85331 0.501643 0
M  V30 3614 O 342.768 2.55795 0.825986 0
M  V30 3615 C 341.039 3.20777 -1.57596 0
M  V30 3616 S 342.598 4.11795 -1.51559 0
M  V30 3617 H 339.416 0.621332 -0.345641 0
M  V30 3618 H 342.018 1.27157 -1.48497 0
M  V30 3619 H 340.722 3.14773 -2.63337 0
M  V30 3620 H 340.253 3.79078 -1.05182 0
M  V30 3621 H 342.268 4.93485 -0.518374 0
M  V30 3622 N 341.441 0.965919 1.2453 0
M  V30 3623 C 342.351 0.502154 2.29163 0
M  V30 3624 C 343.367 -0.436017 1.68448 0
M  V30 3625 O 344.543 -0.309497 1.99008 0
M  V30 3626 C 341.608 -0.201956 3.46111 0
M  V30 3627 C 340.669 0.775821 4.22232 0
M  V30 3628 C 339.902 0.105217 5.33596 0
M  V30 3629 O 340.125 -1.10683 5.59558 0
M  V30 3630 O 339.059 0.796475 5.96607 0
M  V30 3631 H 342.885 1.37194 2.70946 0
M  V30 3632 H 340.47 0.732875 1.30189 0
M  V30 3633 H 342.352 -0.597564 4.17142 0
M  V30 3634 H 341.027 -1.04673 3.06309 0
M  V30 3635 H 339.934 1.22185 3.53584 0
M  V30 3636 H 341.267 1.58896 4.65846 0
M  V30 3637 N 342.919 -1.39368 0.735821 0
M  V30 3638 C 344.147 -2.04795 0.294393 0
M  V30 3639 C 344.562 -1.55478 -1.07107 0
M  V30 3640 O 343.919 -0.720038 -1.67695 0
M  V30 3641 C 343.97 -3.6035 0.288071 0
M  V30 3642 O 343.691 -4.07852 1.59963 0
M  V30 3643 C 345.192 -4.42976 -0.169422 0
M  V30 3644 H 342.412 -0.658571 0.128551 0
M  V30 3645 H 344.956 -1.78399 0.999701 0
M  V30 3646 H 343.111 -3.85645 -0.368355 0
M  V30 3647 H 343.525 -5.02181 1.51375 0
M  V30 3648 H 344.999 -5.51864 -0.122687 0
M  V30 3649 H 345.476 -4.22068 -1.21472 0
M  V30 3650 H 346.082 -4.22832 0.457469 0
M  V30 3651 N 344.397 -0.483516 -1.5 0
M  V30 3652 C 345.813 -0.138404 -1.58999 0
M  V30 3653 C 346.013 1.35597 -1.4905 0
M  V30 3654 O 345.069 2.13039 -1.35539 0
M  V30 3655 C 346.382 -0.699658 -2.92447 0
M  V30 3656 C 347.93 -0.664195 -3.05872 0
M  V30 3657 C 348.405 -1.20321 -4.41913 0
M  V30 3658 N 349.896 -1.16315 -4.48358 0
M  V30 3659 C 350.631 -1.55058 -5.52037 0
M  V30 3660 N 350.127 -2.01311 -6.62907 0
M  V30 3661 N 351.92 -1.46584 -5.42651 0
M  V30 3662 H 344.071 -1.45529 -1.5471 0
M  V30 3663 H 346.334 -0.60258 -0.731848 0
M  V30 3664 H 346.04 -1.747 -3.05242 0
M  V30 3665 H 345.914 -0.150194 -3.76901 0
M  V30 3666 H 348.301 0.374272 -2.92717 0
M  V30 3667 H 348.382 -1.25061 -2.23144 0
M  V30 3668 H 348.026 -2.24037 -4.55818 0
M  V30 3669 H 347.956 -0.592896 -5.23252 0
M  V30 3670 H 350.447 -0.824058 -3.68806 0
M  V30 3671 H 350.76 -2.2899 -7.38095 0
M  V30 3672 H 349.105 -2.05273 -6.63994 0
M  V30 3673 H 352.296 -1.10281 -4.54924 0
M  V30 3674 H 352.469 -1.77103 -6.23329 0
M  V30 3675 N 345.875 1.56104 -0.216619 0
M  V30 3676 C 347.291 1.58995 0.13886 0
M  V30 3677 C 347.491 1.23333 1.59346 0
M  V30 3678 O 346.547 0.966234 2.33281 0
M  V30 3679 C 347.86 3.00143 -0.182968 0
M  V30 3680 C 349.408 3.12751 -0.124807 0
M  V30 3681 C 349.883 4.56068 -0.420241 0
M  V30 3682 N 351.374 4.61723 -0.369634 0
M  V30 3683 C 352.109 5.70542 -0.571789 0
M  V30 3684 N 351.605 6.87744 -0.835453 0
M  V30 3685 N 353.398 5.59831 -0.504563 0
M  V30 3686 H 345.549 1.77562 -1.16557 0
M  V30 3687 H 347.812 0.825091 -0.466828 0
M  V30 3688 H 347.518 3.30871 -1.19237 0
M  V30 3689 H 347.392 3.73813 0.504367 0
M  V30 3690 H 349.779 2.81822 0.875223 0
M  V30 3691 H 349.86 2.41421 -0.845544 0
M  V30 3692 H 349.504 4.87713 -1.41769 0
M  V30 3693 H 349.434 5.25617 0.321631 0
M  V30 3694 H 351.925 3.77502 -0.173338 0
M  V30 3695 H 352.238 7.66587 -0.977938 0
M  V30 3696 H 350.583 6.895 -0.872592 0
M  V30 3697 H 353.774 4.67145 -0.298842 0
M  V30 3698 H 353.947 6.44573 -0.665519 0
M  V30 3699 N 347.353 -0.0568162 1.57498 0
M  V30 3700 C 348.601 -0.751617 1.87604 0
M  V30 3701 C 348.922 -1.77351 0.81066 0
M  V30 3702 O 348.192 -1.95254 -0.159018 0
M  V30 3703 H 346.772 -0.280583 0.692302 0
M  V30 3704 H 349.434 -0.0293483 1.94878 0
M  V30 3705 H 348.53 -1.25852 2.856 0
M  V30 3706 N 348.832 -1.54138 -0.328536 0
M  V30 3707 C 349.764 -1.79509 -1.4251 0
M  V30 3708 C 350.777 -0.67688 -1.48061 0
M  V30 3709 O 351.966 -0.953898 -1.50874 0
M  V30 3710 C 349.066 -1.89337 -2.81078 0
M  V30 3711 C 348.239 -3.19443 -2.98789 0
M  V30 3712 C 347.298 -3.20036 -4.17688 0
M  V30 3713 O 346.324 -3.93697 -4.11086 0
M  V30 3714 N 347.526 -2.43467 -5.26976 0
M  V30 3715 H 350.291 -2.74139 -1.21111 0
M  V30 3716 H 347.852 -1.53373 -0.518499 0
M  V30 3717 H 349.844 -1.87167 -3.58818 0
M  V30 3718 H 348.414 -1.01826 -2.95551 0
M  V30 3719 H 347.634 -3.34614 -2.08391 0
M  V30 3720 H 348.922 -4.05354 -3.07515 0
M  V30 3721 H 348.32 -1.83201 -5.35214 0
M  V30 3722 H 346.877 -2.4708 -6.03154 0
M  V30 3723 N 350.31 0.590341 -1.46126 0
M  V30 3724 C 351.556 1.35082 -1.51264 0
M  V30 3725 C 351.889 1.93534 -0.160711 0
M  V30 3726 O 351.164 1.76045 0.826956 0
M  V30 3727 C 351.447 2.48588 -2.6053 0
M  V30 3728 C 351.3 1.95221 -4.05227 0
M  V30 3729 C 352.619 3.50662 -2.6594 0
M  V30 3730 H 349.738 0.489803 -0.550692 0
M  V30 3731 H 352.38 0.663887 -1.78024 0
M  V30 3732 H 350.53 3.07186 -2.37843 0
M  V30 3733 H 352.202 1.41139 -4.39178 0
M  V30 3734 H 350.445 1.26101 -4.15068 0
M  V30 3735 H 351.116 2.77121 -4.77397 0
M  V30 3736 H 353.592 3.01934 -2.86313 0
M  V30 3737 H 352.468 4.27551 -3.44226 0
M  V30 3738 H 352.729 4.07399 -1.71694 0
M  V30 3739 N 351.788 1.33704 0.83433 0
M  V30 3740 C 352.718 1.26967 1.95963 0
M  V30 3741 C 353.699 0.149337 1.69443 0
M  V30 3742 O 354.884 0.339852 1.91203 0
M  V30 3743 C 352.014 1.01275 3.32206 0
M  V30 3744 C 350.968 2.09652 3.73136 0
M  V30 3745 C 350.294 1.69166 5.07235 0
M  V30 3746 C 351.594 3.51372 3.86439 0
M  V30 3747 H 353.288 2.2112 2.01857 0
M  V30 3748 H 350.834 1.06447 0.969793 0
M  V30 3749 H 352.787 0.952106 4.10503 0
M  V30 3750 H 351.511 0.0356203 3.26581 0
M  V30 3751 H 350.17 2.14766 2.97104 0
M  V30 3752 H 349.818 0.701437 4.98085 0
M  V30 3753 H 349.518 2.41694 5.35591 0
M  V30 3754 H 351.042 1.64576 5.88003 0
M  V30 3755 H 352.456 3.48734 4.55036 0
M  V30 3756 H 350.853 4.22425 4.26236 0
M  V30 3757 H 351.923 3.89546 2.88759 0
M  V30 3758 N 353.266 -1.05314 1.17247 0
M  V30 3759 C 354.196 -2.1498 0.911362 0
M  V30 3760 C 355.177 -1.69471 -0.146169 0
M  V30 3761 O 356.362 -1.942 0.003812 0
M  V30 3762 C 353.492 -3.4472 0.422528 0
M  V30 3763 C 352.446 -4.03789 1.4191 0
M  V30 3764 C 351.772 -5.28858 0.788274 0
M  V30 3765 C 353.072 -4.41418 2.7919 0
M  V30 3766 H 354.766 -2.3708 1.82848 0
M  V30 3767 H 352.312 -1.13938 0.880569 0
M  V30 3768 H 354.265 -4.20787 0.227289 0
M  V30 3769 H 352.989 -3.22269 -0.530123 0
M  V30 3770 H 351.648 -3.2979 1.60106 0
M  V30 3771 H 351.296 -5.02709 -0.171173 0
M  V30 3772 H 350.996 -5.69338 1.45353 0
M  V30 3773 H 352.52 -6.07612 0.603282 0
M  V30 3774 H 353.934 -5.08524 2.64719 0
M  V30 3775 H 352.331 -4.92913 3.42282 0
M  V30 3776 H 353.401 -3.51819 3.33693 0
M  V30 3777 N 354.744 -0.972509 -1.24016 0
M  V30 3778 C 355.99 -0.647583 -1.92816 0
M  V30 3779 C 356.345 0.809015 -1.74564 0
M  V30 3780 O 355.638 1.57502 -1.09103 0
M  V30 3781 C 355.832 -0.963694 -3.44162 0
M  V30 3782 C 355.661 -2.44947 -3.77135 0
M  V30 3783 C 354.431 -3.11012 -3.98246 0
M  V30 3784 C 356.629 -3.42978 -3.83237 0
M  V30 3785 N 354.611 -4.49277 -4.18358 0
M  V30 3786 C 355.982 -4.66619 -4.08248 0
M  V30 3787 C 358.037 -3.37569 -3.65994 0
M  V30 3788 C 356.74 -5.85516 -4.17808 0
M  V30 3789 C 358.766 -4.55822 -3.76802 0
M  V30 3790 C 358.128 -5.78256 -4.02243 0
M  V30 3791 H 354.227 -0.287894 -0.727077 0
M  V30 3792 H 356.811 -1.24835 -1.49413 0
M  V30 3793 H 354.982 -0.391692 -3.8642 0
M  V30 3794 H 356.714 -0.596849 -4.00275 0
M  V30 3795 H 353.469 -2.61529 -3.94841 0
M  V30 3796 H 353.893 -5.20935 -4.32384 0
M  V30 3797 H 358.535 -2.43945 -3.45327 0
M  V30 3798 H 356.253 -6.79564 -4.37285 0
M  V30 3799 H 359.839 -4.53204 -3.64825 0
M  V30 3800 H 358.719 -6.68231 -4.10411 0
M  V30 3801 N 356.222 1.38976 -0.743202 0
M  V30 3802 C 357.447 2.05161 -0.303936 0
M  V30 3803 C 357.872 1.55677 1.05576 0
M  V30 3804 O 357.23 0.704131 1.67068 0
M  V30 3805 C 357.278 3.59138 -0.324373 0
M  V30 3806 O 356.382 4.06668 0.685204 0
M  V30 3807 H 355.723 0.649815 -0.136518 0
M  V30 3808 H 358.253 1.77852 -1.01142 0
M  V30 3809 H 358.263 4.07639 -0.171618 0
M  V30 3810 H 356.938 3.94515 -1.31647 0
M  V30 3811 H 355.515 3.69561 0.497913 0
M  V30 3812 N 357.7 0.491464 1.49741 0
M  V30 3813 C 358.663 -0.280906 2.27472 0
M  V30 3814 C 359.663 -0.902454 1.33088 0
M  V30 3815 O 360.853 -0.768465 1.56334 0
M  V30 3816 C 357.985 -1.40209 3.10732 0
M  V30 3817 H 359.178 0.401056 2.97206 0
M  V30 3818 H 356.731 0.246131 1.5435 0
M  V30 3819 H 357.466 -2.11849 2.45541 0
M  V30 3820 H 357.251 -0.961969 3.80117 0
M  V30 3821 H 358.741 -1.9464 3.69466 0
M  V30 3822 N 359.178 -1.55987 0.224894 0
M  V30 3823 C 360.126 -2.21808 -0.700283 0
M  V30 3824 C 361.12 -1.19854 -1.19714 0
M  V30 3825 O 362.326 -1.37925 -1.15658 0
M  V30 3826 H 358.701 -0.711226 -0.244258 0
M  V30 3827 H 360.672 -2.98152 -0.121749 0
M  V30 3828 C 359.421 -2.91444 -1.8962 0
M  V30 3829 H 358.744 -3.69655 -1.52299 0
M  V30 3830 H 360.184 -3.40894 -2.52125 0
M  V30 3831 C 358.643 -1.94098 -2.75368 0
M  V30 3832 O 359.173 -1.46004 -3.74227 0
M  V30 3833 N 357.379 -1.61675 -2.41474 0
M  V30 3834 H 356.926 -2.00979 -1.61137 0
M  V30 3835 H 356.884 -0.968036 -2.99126 0
M  V30 3836 N 360.656 0.0484629 -1.57525 0
M  V30 3837 C 361.603 1.05504 -2.05275 0
M  V30 3838 C 362.573 1.37084 -0.937927 0
M  V30 3839 O 363.758 1.47754 -1.2072 0
M  V30 3840 C 360.898 2.35676 -2.52093 0
M  V30 3841 C 360.011 2.10423 -3.77288 0
M  V30 3842 C 359.146 3.34327 -4.12794 0
M  V30 3843 C 358.185 3.04542 -5.30962 0
M  V30 3844 N 357.322 4.20841 -5.61994 0
M  V30 3845 H 362.162 0.640885 -2.91027 0
M  V30 3846 H 359.699 0.304854 -1.43906 0
M  V30 3847 H 361.657 3.11709 -2.77297 0
M  V30 3848 H 360.287 2.7485 -1.69285 0
M  V30 3849 H 359.339 1.24976 -3.59284 0
M  V30 3850 H 360.651 1.84438 -4.63448 0
M  V30 3851 H 359.805 4.1874 -4.39024 0
M  V30 3852 H 358.544 3.63408 -3.25247 0
M  V30 3853 H 357.549 2.18528 -5.04505 0
M  V30 3854 H 358.774 2.76758 -6.20146 0
M  V30 3855 H 356.72 4.4991 -4.77406 0
M  V30 3856 H 356.637 3.98212 -6.42622 0
M  V30 3857 H 357.905 5.06184 -5.92789 0
M  V30 3858 N 362.134 1.5431 0.320358 0
M  V30 3859 C 363.38 1.72924 1.05949 0
M  V30 3860 C 363.713 0.503185 1.87568 0
M  V30 3861 O 362.988 -0.499839 1.87968 0
M  V30 3862 C 363.271 3.00676 1.98156 0
M  V30 3863 C 363.124 4.3354 1.19845 0
M  V30 3864 C 364.443 3.24198 2.9763 0
M  V30 3865 H 361.562 0.629195 0.383774 0
M  V30 3866 H 364.204 1.87008 0.335854 0
M  V30 3867 H 362.354 2.888 2.59859 0
M  V30 3868 H 364.026 4.57305 0.605773 0
M  V30 3869 H 362.269 4.309 0.500784 0
M  V30 3870 H 362.94 5.19156 1.87567 0
M  V30 3871 H 365.416 3.35557 2.4605 0
M  V30 3872 H 364.292 4.14938 3.59329 0
M  V30 3873 H 364.553 2.41577 3.7026 0
M  V30 3874 N 363.613 -0.582584 1.46437 0
M  V30 3875 C 364.86 -1.34079 1.51753 0
M  V30 3876 C 365.188 -1.93762 0.169299 0
M  V30 3877 O 364.443 -1.76989 -0.835062 0
M  V30 3878 C 364.742 -2.48964 2.56421 0
M  V30 3879 C 364.408 -2.07273 4.00436 0
M  V30 3880 C 363.07 -1.95618 4.39644 0
M  V30 3881 C 365.422 -1.75111 4.90903 0
M  V30 3882 C 362.75 -1.5006 5.67185 0
M  V30 3883 C 365.102 -1.31032 6.18881 0
M  V30 3884 C 363.766 -1.17954 6.56996 0
M  V30 3885 H 363.036 -0.49063 0.555304 0
M  V30 3886 H 365.683 -0.656007 1.79913 0
M  V30 3887 H 363.988 -3.22889 2.21923 0
M  V30 3888 H 365.685 -3.07178 2.57765 0
M  V30 3889 H 362.275 -2.17279 3.69443 0
M  V30 3890 H 366.459 -1.83001 4.61329 0
M  V30 3891 H 361.715 -1.38577 5.95488 0
M  V30 3892 H 365.889 -1.052 6.88408 0
M  V30 3893 H 363.516 -0.824279 7.55718 0
M  V30 3894 N 365.091 -1.34144 -0.827227 0
M  V30 3895 C 366.001 -1.27428 -1.96975 0
M  V30 3896 C 367.017 -0.182728 -1.73038 0
M  V30 3897 O 368.193 -0.408426 -1.97215 0
M  V30 3898 C 365.258 -1.02526 -3.31194 0
M  V30 3899 C 364.319 -2.20796 -3.68168 0
M  V30 3900 C 363.552 -1.97073 -4.95982 0
M  V30 3901 O 363.775 -0.926822 -5.6282 0
M  V30 3902 O 362.709 -2.83912 -5.30733 0
M  V30 3903 H 366.535 -2.23537 -2.05584 0
M  V30 3904 H 364.12 -1.14307 -0.961989 0
M  V30 3905 H 366.002 -0.904026 -4.11589 0
M  V30 3906 H 364.677 -0.0945389 -3.23562 0
M  V30 3907 H 363.584 -2.38477 -2.88235 0
M  V30 3908 H 364.917 -3.12243 -3.8048 0
M  V30 3909 N 366.569 1.04691 -1.17803 0
M  V30 3910 C 367.479 2.16057 -0.914151 0
M  V30 3911 C 368.495 1.73589 0.119503 0
M  V30 3912 O 369.671 2.01308 -0.0609468 0
M  V30 3913 C 366.736 3.4394 -0.436603 0
M  V30 3914 C 365.797 4.00825 -1.53746 0
M  V30 3915 C 365.03 5.22604 -1.0826 0
M  V30 3916 O 365.253 5.70367 0.0612244 0
M  V30 3917 O 364.187 5.7186 -1.87775 0
M  V30 3918 H 368.013 2.41169 -1.84584 0
M  V30 3919 H 365.598 1.1453 -0.959334 0
M  V30 3920 H 367.48 4.21024 -0.178057 0
M  V30 3921 H 366.155 3.20316 0.466869 0
M  V30 3922 H 365.062 3.25158 -1.84995 0
M  V30 3923 H 366.395 4.28778 -2.41683 0
M  V30 3924 N 368.047 0.979072 1.23499 0
M  V30 3925 C 368.977 0.537606 2.27227 0
M  V30 3926 C 369.958 -0.428539 1.64613 0
M  V30 3927 O 371.143 -0.322191 1.91509 0
M  V30 3928 C 368.273 -0.162052 3.46922 0
M  V30 3929 C 367.227 0.721242 4.21879 0
M  V30 3930 C 366.553 -0.110555 5.34586 0
M  V30 3931 C 367.853 2.01141 4.82016 0
M  V30 3932 H 369.547 1.40462 2.64406 0
M  V30 3933 H 367.093 0.67684 1.27102 0
M  V30 3934 H 369.046 -0.482192 4.18632 0
M  V30 3935 H 367.77 -1.06351 3.08799 0
M  V30 3936 H 366.429 1.02482 3.51984 0
M  V30 3937 H 366.077 -1.0125 4.92704 0
M  V30 3938 H 365.777 0.477325 5.85658 0
M  V30 3939 H 367.301 -0.425107 6.09118 0
M  V30 3940 H 368.715 1.75612 5.45741 0
M  V30 3941 H 367.112 2.54695 5.43369 0
M  V30 3942 H 368.182 2.69909 4.02836 0
M  V30 3943 N 369.525 -1.3858 0.750561 0
M  V30 3944 C 370.753 -2.04471 0.316098 0
M  V30 3945 C 371.168 -1.56606 -1.05452 0
M  V30 3946 O 370.525 -0.737784 -1.66922 0
M  V30 3947 C 370.576 -3.60025 0.326275 0
M  V30 3948 O 370.297 -4.06133 1.6428 0
M  V30 3949 C 371.798 -4.43131 -0.122429 0
M  V30 3950 H 369.018 -0.65717 0.135528 0
M  V30 3951 H 371.562 -1.77329 1.01857 0
M  V30 3952 H 369.717 -3.86014 -0.327431 0
M  V30 3953 H 370.131 -5.00547 1.56693 0
M  V30 3954 H 371.605 -5.51963 -0.0641473 0
M  V30 3955 H 372.082 -4.23333 -1.16988 0
M  V30 3956 H 372.688 -4.22323 0.50229 0
M  V30 3957 N 371.003 -0.499398 -1.49478 0
M  V30 3958 C 372.28 0.108629 -1.95298 0
M  V30 3959 C 372.66 1.54282 -1.44084 0
M  V30 3960 O 372.008 2.18944 -0.653908 0
M  V30 3961 C 372.218 0.0229111 -3.48992 0
M  V30 3962 C 373.566 0.197643 -4.2414 0
M  V30 3963 O 374.59 0.0981735 -3.56065 0
M  V30 3964 O 373.449 0.401669 -5.45022 0
M  V30 3965 H 370.543 0.096181 -0.821388 0
M  V30 3966 H 373.089 -0.561822 -1.6013 0
M  V30 3967 H 371.861 -0.977321 -3.78899 0
M  V30 3968 H 371.484 0.733579 -3.90774 0
M  V30 3969 N 372.481 1.55866 -0.233164 0
M  V30 3970 C 373.73 1.97779 0.39579 0
M  V30 3971 C 374.043 1.12419 1.60066 0
M  V30 3972 O 375.249 1.44283 2.29988 0
M  V30 3973 C 373.705 3.5188 0.755556 0
M  V30 3974 C 373.313 4.45959 -0.427152 0
M  V30 3975 C 375.057 4.02479 1.34946 0
M  V30 3976 C 372.964 5.91383 -0.0443043 0
M  V30 3977 H 371.894 0.738592 0.15165 0
M  V30 3978 H 374.545 1.80486 -0.331212 0
M  V30 3979 H 372.927 3.64816 1.5403 0
M  V30 3980 H 374.101 4.44776 -1.20462 0
M  V30 3981 H 372.416 4.05765 -0.935068 0
M  V30 3982 H 375.013 5.08637 1.649 0
M  V30 3983 H 375.356 3.49014 2.26925 0
M  V30 3984 H 375.889 3.92813 0.62791 0
M  V30 3985 H 372.628 6.48857 -0.930874 0
M  V30 3986 H 372.148 5.95734 0.697238 0
M  V30 3987 H 373.827 6.45893 0.378334 0
M  V30 3988 N 373.959 -0.0401083 1.57549 0
M  V30 3989 C 374.869 -1.06133 2.0922 0
M  V30 3990 C 375.885 -1.40356 1.0284 0
M  V30 3991 O 377.061 -1.49897 1.34509 0
M  V30 3992 C 374.126 -2.34658 2.55218 0
M  V30 3993 C 373.187 -2.07117 3.76033 0
M  V30 3994 C 372.42 -3.29514 4.19829 0
M  V30 3995 O 372.643 -4.39794 3.63232 0
M  V30 3996 O 371.577 -3.15863 5.12362 0
M  V30 3997 H 375.403 -0.652244 2.96613 0
M  V30 3998 H 372.988 -0.256368 1.47184 0
M  V30 3999 H 374.87 -3.10239 2.85184 0
M  V30 4000 H 373.545 -2.74883 1.70941 0
M  V30 4001 H 372.452 -1.29139 3.51104 0
M  V30 4002 H 373.785 -1.71754 4.61261 0
M  V30 4003 N 375.437 -1.54477 -0.31217 0
M  V30 4004 C 376.853 -1.45442 -0.657185 0
M  V30 4005 C 377.053 -0.63653 -1.91182 0
M  V30 4006 O 376.109 -0.139815 -2.52113 0
M  V30 4007 C 377.422 -2.89287 -0.82058 0
M  V30 4008 C 378.97 -2.9926 -0.917188 0
M  V30 4009 C 379.445 -4.44279 -1.11267 0
M  V30 4010 N 380.936 -4.4794 -1.17914 0
M  V30 4011 C 381.671 -5.57318 -1.34848 0
M  V30 4012 N 381.167 -6.76642 -1.48752 0
M  V30 4013 N 382.96 -5.44986 -1.37647 0
M  V30 4014 H 375.111 -2.06129 0.512313 0
M  V30 4015 H 377.374 -0.933088 0.167485 0
M  V30 4016 H 377.08 -3.51687 0.0302604 0
M  V30 4017 H 376.954 -3.36061 -1.71298 0
M  V30 4018 H 379.341 -2.36981 -1.75852 0
M  V30 4019 H 379.422 -2.558 -0.00101257 0
M  V30 4020 H 379.066 -5.07149 -0.27614 0
M  V30 4021 H 378.996 -4.85359 -2.04289 0
M  V30 4022 H 381.487 -3.61969 -1.08567 0
M  V30 4023 H 381.8 -7.55758 -1.61397 0
M  V30 4024 H 380.145 -6.79529 -1.45828 0
M  V30 4025 H 383.336 -4.50715 -1.26388 0
M  V30 4026 H 383.509 -6.3028 -1.50501 0
M  V30 4027 N 376.915 0.57481 -1.46744 0
M  V30 4028 C 377.847 1.69804 -1.53946 0
M  V30 4029 C 378.86 1.57098 -0.427106 0
M  V30 4030 O 380.049 1.64378 -0.695863 0
M  V30 4031 C 377.149 3.08125 -1.4111 0
M  V30 4032 C 376.322 3.46757 -2.66605 0
M  V30 4033 C 375.381 4.6417 -2.47855 0
M  V30 4034 O 374.407 4.69634 -3.21609 0
M  V30 4035 N 375.609 5.59553 -1.54534 0
M  V30 4036 H 378.374 1.64077 -2.50796 0
M  V30 4037 H 375.935 0.761 -1.429 0
M  V30 4038 H 377.927 3.84478 -1.26328 0
M  V30 4039 H 376.497 3.08175 -0.524109 0
M  V30 4040 H 375.717 2.6003 -2.96274 0
M  V30 4041 H 377.005 3.69337 -3.49954 0
M  V30 4042 H 376.403 5.57881 -0.937304 0
M  V30 4043 H 374.96 6.35304 -1.45711 0
M  V30 4044 N 378.394 1.34581 0.820102 0
M  V30 4045 C 379.641 1.27096 1.57648 0
M  V30 4046 C 379.969 -0.158317 1.93855 0
M  V30 4047 O 379.224 -1.12028 1.60463 0
M  V30 4048 C 379.523 2.10997 2.8847 0
M  V30 4049 C 379.189 3.59966 2.71543 0
M  V30 4050 C 377.851 4.00575 2.66634 0
M  V30 4051 C 380.203 4.54548 2.55021 0
M  V30 4052 C 377.531 5.33953 2.43128 0
M  V30 4053 C 379.883 5.88109 2.33047 0
M  V30 4054 C 378.547 6.27878 2.26552 0
M  V30 4055 H 377.817 0.465078 0.576874 0
M  V30 4056 H 380.464 1.6635 0.948671 0
M  V30 4057 H 378.769 1.6458 3.55557 0
M  V30 4058 H 380.466 2.0255 3.46084 0
M  V30 4059 H 377.056 3.27733 2.76205 0
M  V30 4060 H 381.24 4.24069 2.57835 0
M  V30 4061 H 376.496 5.63781 2.3656 0
M  V30 4062 H 380.67 6.60985 2.19251 0
M  V30 4063 H 378.297 7.31162 2.081 0
M  V30 4064 N 379.872 -1.04064 1.18357 0
M  V30 4065 C 380.822 -2.10393 0.878561 0
M  V30 4066 C 381.806 -1.60183 -0.151713 0
M  V30 4067 O 382.998 -1.76923 0.0523303 0
M  V30 4068 C 380.127 -3.4089 0.406096 0
M  V30 4069 C 379.213 -3.97866 1.46844 0
M  V30 4070 N 379.604 -4.28657 2.68489 0
M  V30 4071 C 377.902 -4.2574 1.32896 0
M  V30 4072 C 378.603 -4.74253 3.36836 0
M  V30 4073 N 377.579 -4.75068 2.64219 0
M  V30 4074 H 381.381 -2.32076 1.80327 0
M  V30 4075 H 378.895 -1.21818 1.07397 0
M  V30 4076 H 380.892 -4.16557 0.169088 0
M  V30 4077 H 379.552 -3.20633 -0.512275 0
M  V30 4078 H 380.563 -4.18304 3.05356 0
M  V30 4079 H 377.24 -4.1481 0.473134 0
M  V30 4080 H 378.63 -5.07096 4.40798 0
M  V30 4081 N 381.35 -0.985608 -1.22978 0
M  V30 4082 C 382.297 -0.529825 -2.24636 0
M  V30 4083 C 383.267 0.434028 -1.60329 0
M  V30 4084 O 384.452 0.340414 -1.87739 0
M  V30 4085 C 381.592 0.156533 -3.44745 0
M  V30 4086 C 380.705 -0.848197 -4.23591 0
M  V30 4087 C 379.84 -0.136109 -5.31026 0
M  V30 4088 C 378.879 -1.1297 -6.01585 0
M  V30 4089 N 378.016 -0.446415 -7.00679 0
M  V30 4090 H 382.856 -1.40148 -2.62988 0
M  V30 4091 H 380.393 -0.702168 -1.29259 0
M  V30 4092 H 382.351 0.571324 -4.1327 0
M  V30 4093 H 380.981 0.992025 -3.07179 0
M  V30 4094 H 380.033 -1.38135 -3.54433 0
M  V30 4095 H 381.345 -1.60512 -4.72268 0
M  V30 4096 H 380.499 0.335784 -6.0577 0
M  V30 4097 H 379.238 0.653373 -4.83304 0
M  V30 4098 H 378.243 -1.6123 -5.25628 0
M  V30 4099 H 379.468 -1.91993 -6.51395 0
M  V30 4100 H 377.414 0.323763 -6.55201 0
M  V30 4101 H 377.331 -1.1419 -7.47326 0
M  V30 4102 H 378.599 0.00291697 -7.795 0
M  V30 4103 N 382.828 1.3818 -0.7579 0
M  V30 4104 C 383.791 2.28764 -0.141286 0
M  V30 4105 C 384.791 1.47388 0.642907 0
M  V30 4106 O 385.981 1.67781 0.468536 0
M  V30 4107 C 383.113 3.31184 0.808069 0
M  V30 4108 H 384.306 2.848 -0.939633 0
M  V30 4109 H 381.859 1.47212 -0.525191 0
M  V30 4110 H 382.594 2.80247 1.63193 0
M  V30 4111 H 382.379 3.91314 0.248104 0
M  V30 4112 H 383.869 3.98909 1.23536 0
M  V30 4113 N 384.306 0.507319 1.49211 0
M  V30 4114 C 385.553 -0.0349529 2.0247 0
M  V30 4115 C 385.881 -1.36409 1.38647 0
M  V30 4116 O 385.136 -1.88841 0.513566 0
M  V30 4117 C 385.435 -0.229513 3.56662 0
M  V30 4118 C 385.101 1.02241 4.39156 0
M  V30 4119 C 383.763 1.36557 4.61417 0
M  V30 4120 C 386.115 1.85428 4.871 0
M  V30 4121 C 383.443 2.53999 5.28868 0
M  V30 4122 C 385.795 3.02028 5.55843 0
M  V30 4123 C 384.459 3.36717 5.76349 0
M  V30 4124 H 383.729 -0.0127902 0.74089 0
M  V30 4125 H 386.376 0.668756 1.79443 0
M  V30 4126 H 384.681 -1.0158 3.78403 0
M  V30 4127 H 386.378 -0.663641 3.9547 0
M  V30 4128 H 382.968 0.745124 4.22073 0
M  V30 4129 H 387.152 1.6023 4.69723 0
M  V30 4130 H 382.408 2.81105 5.42946 0
M  V30 4131 H 386.582 3.66808 5.91967 0
M  V30 4132 H 384.209 4.27821 6.28389 0
M  V30 4133 N 385.784 -1.5574 0.241426 0
M  V30 4134 C 387.014 -2.02913 -0.38857 0
M  V30 4135 C 387.422 -1.12014 -1.52478 0
M  V30 4136 O 386.765 -0.125903 -1.83268 0
M  V30 4137 C 386.827 -3.4636 -0.963075 0
M  V30 4138 C 386.491 -4.56982 0.0401916 0
M  V30 4139 C 387.488 -5.12941 0.847766 0
M  V30 4140 C 385.173 -5.0203 0.164699 0
M  V30 4141 C 387.167 -6.12437 1.76636 0
M  V30 4142 C 384.854 -6.01358 1.0868 0
M  V30 4143 C 385.852 -6.5644 1.88616 0
M  V30 4144 O 385.54 -7.53831 2.79273 0
M  V30 4145 H 385.272 -0.668983 -0.0971452 0
M  V30 4146 H 387.826 -2.02198 0.361248 0
M  V30 4147 H 386.056 -3.44206 -1.76235 0
M  V30 4148 H 387.745 -3.77065 -1.50257 0
M  V30 4149 H 388.511 -4.78974 0.762133 0
M  V30 4150 H 384.39 -4.58824 -0.447411 0
M  V30 4151 H 387.934 -6.55355 2.39071 0
M  V30 4152 H 383.831 -6.34746 1.17338 0
M  V30 4153 H 384.599 -7.71428 2.73572 0
M  V30 4154 N 387.262 0.0317525 -1.57568 0
M  V30 4155 C 388.49 0.734949 -1.93407 0
M  V30 4156 C 388.905 1.69036 -0.84096 0
M  V30 4157 O 388.262 1.81582 0.182836 0
M  V30 4158 C 388.313 1.49432 -3.29169 0
M  V30 4159 O 388.034 0.577261 -4.3428 0
M  V30 4160 C 389.535 2.29492 -3.79273 0
M  V30 4161 H 386.755 0.206706 -0.638368 0
M  V30 4162 H 389.299 -0.00992046 -2.04498 0
M  V30 4163 H 387.454 2.1911 -3.19483 0
M  V30 4164 H 387.868 1.10952 -5.1263 0
M  V30 4165 H 389.342 2.78172 -4.76785 0
M  V30 4166 H 389.819 3.10794 -3.10328 0
M  V30 4167 H 390.425 1.64894 -3.92033 0
M  V30 4168 N 388.74 1.54641 0.303973 0
M  V30 4169 C 389.986 1.74038 1.04109 0
M  V30 4170 C 390.319 0.523051 1.87024 0
M  V30 4171 O 389.594 -0.479874 1.88487 0
M  V30 4172 C 389.877 3.02761 1.94955 0
M  V30 4173 C 389.73 4.34787 1.1524 0
M  V30 4174 C 391.049 3.27336 2.94175 0
M  V30 4175 H 388.168 0.63323 0.377079 0
M  V30 4176 H 390.81 1.87354 0.316001 0
M  V30 4177 H 388.96 2.9154 2.56782 0
M  V30 4178 H 390.632 4.57922 0.557236 0
M  V30 4179 H 388.875 4.31407 0.455053 0
M  V30 4180 H 389.546 5.21116 1.8205 0
M  V30 4181 H 392.022 3.38148 2.42477 0
M  V30 4182 H 390.898 4.18726 3.54908 0
M  V30 4183 H 391.159 2.45491 3.67677 0
M  V30 4184 N 390.218 -0.567019 1.47046 0
M  V30 4185 C 391.634 -0.891975 1.32348 0
M  V30 4186 C 391.834 -1.99154 0.306616 0
M  V30 4187 O 390.89 -2.50883 -0.28532 0
M  V30 4188 C 392.203 -1.29449 2.7141 0
M  V30 4189 C 393.751 -1.40646 2.79621 0
M  V30 4190 C 394.226 -1.84257 4.19301 0
M  V30 4191 N 395.717 -1.91424 4.21795 0
M  V30 4192 C 396.452 -2.26476 5.26779 0
M  V30 4193 N 395.948 -2.60211 6.42077 0
M  V30 4194 N 397.741 -2.27166 5.14152 0
M  V30 4195 H 389.892 0.159074 2.11803 0
M  V30 4196 H 392.155 0.00849752 0.947962 0
M  V30 4197 H 391.861 -0.560448 3.47206 0
M  V30 4198 H 391.735 -2.25273 3.02542 0
M  V30 4199 H 394.122 -2.13133 2.04104 0
M  V30 4200 H 394.203 -0.430339 2.52154 0
M  V30 4201 H 393.847 -1.12343 4.95319 0
M  V30 4202 H 393.777 -2.82855 4.44185 0
M  V30 4203 H 396.268 -1.6778 3.38612 0
M  V30 4204 H 396.581 -2.85956 7.17948 0
M  V30 4205 H 394.926 -2.57813 6.45413 0
M  V30 4206 H 398.117 -2.00244 4.23107 0
M  V30 4207 H 398.29 -2.54154 5.96079 0
M  V30 4208 N 391.696 -1.35014 -0.812953 0
M  V30 4209 C 392.659 -1.27292 -1.90602 0
M  V30 4210 C 393.659 -0.185817 -1.59723 0
M  V30 4211 O 394.849 -0.439102 -1.68575 0
M  V30 4212 C 391.981 -0.967676 -3.26877 0
M  V30 4213 H 393.174 -2.24479 -1.9887 0
M  V30 4214 H 390.727 -1.19446 -1.00808 0
M  V30 4215 H 391.462 0.0005954 -3.243 0
M  V30 4216 H 391.247 -1.75412 -3.50675 0
M  V30 4217 H 392.737 -0.939085 -4.06904 0
M  V30 4218 N 393.175 1.03435 -1.18907 0
M  V30 4219 C 394.405 1.8012 -1.01195 0
M  V30 4220 C 394.813 1.8395 0.442613 0
M  V30 4221 O 394.156 1.27836 1.31923 0
M  V30 4222 C 394.218 3.26792 -1.49823 0
M  V30 4223 C 393.882 3.46609 -2.97844 0
M  V30 4224 C 394.879 3.37278 -3.95651 0
M  V30 4225 C 392.564 3.73001 -3.36416 0
M  V30 4226 C 394.558 3.54054 -5.30023 0
M  V30 4227 C 392.245 3.89423 -4.70949 0
M  V30 4228 C 393.243 3.79951 -5.67562 0
M  V30 4229 O 392.931 3.95895 -6.99659 0
M  V30 4230 H 392.663 0.573865 -0.357289 0
M  V30 4231 H 395.217 1.31207 -1.58031 0
M  V30 4232 H 393.447 3.76703 -0.873578 0
M  V30 4233 H 395.136 3.85055 -1.28404 0
M  V30 4234 H 395.902 3.16846 -3.67197 0
M  V30 4235 H 391.781 3.79469 -2.61772 0
M  V30 4236 H 395.325 3.46577 -6.05417 0
M  V30 4237 H 391.222 4.09351 -4.99101 0
M  V30 4238 H 391.99 4.13019 -7.06653 0
M  V30 4239 N 394.653 0.992116 1.22453 0
M  V30 4240 C 395.583 0.561677 2.26644 0
M  V30 4241 C 396.564 -0.411055 1.65059 0
M  V30 4242 O 397.749 -0.301861 1.9184 0
M  V30 4243 C 394.879 -0.125247 3.47074 0
M  V30 4244 C 393.833 0.765948 4.21091 0
M  V30 4245 C 393.159 -0.0538484 5.34673 0
M  V30 4246 C 394.459 2.06242 4.79856 0
M  V30 4247 H 396.153 1.43259 2.62902 0
M  V30 4248 H 393.699 0.690283 1.26377 0
M  V30 4249 H 395.652 -0.437764 4.1912 0
M  V30 4250 H 394.376 -1.03069 3.0991 0
M  V30 4251 H 393.035 1.0621 3.50878 0
M  V30 4252 H 392.683 -0.960188 4.9375 0
M  V30 4253 H 392.383 0.539415 5.85119 0
M  V30 4254 H 393.907 -0.360477 6.09535 0
M  V30 4255 H 395.321 1.8139 5.43848 0
M  V30 4256 H 393.718 2.60444 5.40638 0
M  V30 4257 H 394.788 2.74167 3.99951 0
M  V30 4258 N 396.131 -1.37776 0.765217 0
M  V30 4259 C 397.079 -2.32209 0.134798 0
M  V30 4260 C 398.073 -1.54607 -0.692315 0
M  V30 4261 O 399.279 -1.70052 -0.590109 0
M  V30 4262 H 395.654 -0.751591 0.0248005 0
M  V30 4263 H 397.625 -2.8297 0.947119 0
M  V30 4264 C 396.374 -3.39841 -0.735063 0
M  V30 4265 H 395.697 -3.99654 -0.107991 0
M  V30 4266 H 397.137 -4.08296 -1.14326 0
M  V30 4267 C 395.596 -2.79378 -1.88281 0
M  V30 4268 O 396.126 -2.69608 -2.97783 0
M  V30 4269 N 394.332 -2.37016 -1.68142 0
M  V30 4270 H 393.879 -2.45162 -0.790772 0
M  V30 4271 H 393.837 -1.96905 -2.45104 0
M  V30 4272 N 397.609 -0.515225 -1.4894 0
M  V30 4273 C 398.849 0.0223983 -2.04388 0
M  V30 4274 C 399.213 1.32961 -1.38511 0
M  V30 4275 O 400.414 1.95236 -1.8476 0
M  V30 4276 C 398.685 0.157056 -3.57055 0
M  V30 4277 S 400.244 0.646875 -4.34006 0
M  V30 4278 H 397.062 -0.00500662 -0.710982 0
M  V30 4279 H 399.664 -0.69243 -1.82827 0
M  V30 4280 H 398.368 -0.799412 -4.02539 0
M  V30 4281 H 397.899 0.896704 -3.83044 0
M  V30 4282 H 399.914 1.91381 -4.57808 0
M  V30 4283 N 399.087 1.5561 -0.249682 0
M  V30 4284 C 399.997 2.25143 0.659375 0
M  V30 4285 C 401.013 1.2685 1.19101 0
M  V30 4286 O 402.189 1.59732 1.22669 0
M  V30 4287 C 399.254 2.93945 1.8384 0
M  V30 4288 C 398.315 4.07655 1.34596 0
M  V30 4289 C 397.548 4.73167 2.46878 0
M  V30 4290 O 397.771 4.37768 3.65671 0
M  V30 4291 O 396.705 5.61623 2.16478 0
M  V30 4292 H 400.531 3.03545 0.0968698 0
M  V30 4293 H 398.116 1.49389 -0.018074 0
M  V30 4294 H 399.998 3.37271 2.52638 0
M  V30 4295 H 398.673 2.18481 2.38847 0
M  V30 4296 H 397.58 3.68839 0.625174 0
M  V30 4297 H 398.913 4.84946 0.841941 0
M  V30 4298 N 400.565 -0.0233959 1.57583 0
M  V30 4299 C 401.981 -0.379134 1.55031 0
M  V30 4300 C 402.181 -1.76255 0.976548 0
M  V30 4301 O 401.237 -2.45266 0.600078 0
M  V30 4302 C 402.55 -0.275792 2.99433 0
M  V30 4303 C 404.098 -0.352458 3.11009 0
M  V30 4304 C 404.573 -0.278501 4.57152 0
M  V30 4305 N 406.064 -0.337123 4.61972 0
M  V30 4306 C 406.799 -0.302876 5.726 0
M  V30 4307 N 406.295 -0.220589 6.92449 0
M  V30 4308 N 408.088 -0.353023 5.6099 0
M  V30 4309 H 400.239 0.881869 1.93227 0
M  V30 4310 H 402.502 0.335867 0.886509 0
M  V30 4311 H 402.208 0.675108 3.4516 0
M  V30 4312 H 402.082 -1.06721 3.61788 0
M  V30 4313 H 404.469 -1.29379 2.65226 0
M  V30 4314 H 404.55 0.468409 2.51475 0
M  V30 4315 H 404.194 0.659189 5.03604 0
M  V30 4316 H 404.124 -1.11755 5.14605 0
M  V30 4317 H 406.615 -0.403002 3.75745 0
M  V30 4318 H 406.928 -0.199713 7.72542 0
M  V30 4319 H 405.273 -0.186555 6.9475 0
M  V30 4320 H 408.464 -0.415339 4.66254 0
M  V30 4321 H 408.637 -0.322866 6.47195 0
M  V30 4322 N 402.043 -1.548 -0.295768 0
M  V30 4323 C 403.273 -1.78069 -1.04762 0
M  V30 4324 C 403.681 -0.542847 -1.81245 0
M  V30 4325 O 403.024 0.497051 -1.76848 0
M  V30 4326 C 403.086 -2.93881 -2.07061 0
M  V30 4327 C 402.75 -4.31777 -1.49725 0
M  V30 4328 C 403.747 -5.11613 -0.924581 0
M  V30 4329 C 401.432 -4.78389 -1.5313 0
M  V30 4330 C 403.426 -6.36184 -0.393594 0
M  V30 4331 C 401.113 -6.02921 -0.996447 0
M  V30 4332 C 402.111 -6.81654 -0.428569 0
M  V30 4333 O 401.799 -8.0384 0.0981593 0
M  V30 4334 H 401.531 -0.597475 -0.316226 0
M  V30 4335 H 404.085 -2.02584 -0.338973 0
M  V30 4336 H 402.315 -2.65003 -2.81621 0
M  V30 4337 H 404.004 -3.04679 -2.6819 0
M  V30 4338 H 404.77 -4.76743 -0.891136 0
M  V30 4339 H 400.649 -4.17132 -1.9627 0
M  V30 4340 H 404.193 -6.97582 0.0503014 0
M  V30 4341 H 400.09 -6.37277 -1.02706 0
M  V30 4342 H 400.858 -8.18499 -0.0146455 0
M  V30 4343 N 403.521 0.559213 -1.47345 0
M  V30 4344 C 404.746 1.34676 -1.57725 0
M  V30 4345 C 405.171 1.86723 -0.227164 0
M  V30 4346 O 404.529 1.6286 0.796642 0
M  V30 4347 C 404.577 2.49399 -2.60447 0
M  V30 4348 O 403.681 3.51567 -2.15578 0
M  V30 4349 H 403.022 0.400115 -0.52991 0
M  V30 4350 H 405.552 0.676009 -1.93109 0
M  V30 4351 H 405.562 2.95996 -2.80803 0
M  V30 4352 H 404.237 2.10873 -3.58477 0
M  V30 4353 H 402.814 3.11289 -2.05313 0
M  V30 4354 N 404.999 1.35443 0.805782 0
M  V30 4355 C 406.245 1.28952 1.56522 0
M  V30 4356 C 406.578 -0.135597 1.93726 0
M  V30 4357 O 405.853 -1.08516 1.61414 0
M  V30 4358 C 406.136 2.19678 2.85331 0
M  V30 4359 C 405.989 3.7081 2.54598 0
M  V30 4360 C 407.308 2.09495 3.8704 0
M  V30 4361 H 404.427 0.469764 0.567883 0
M  V30 4362 H 407.069 1.65851 0.927001 0
M  V30 4363 H 405.219 1.8834 3.39795 0
M  V30 4364 H 406.891 4.12593 2.06312 0
M  V30 4365 H 405.134 3.91051 1.8778 0
M  V30 4366 H 405.805 4.29679 3.46525 0
M  V30 4367 H 408.281 2.37045 3.41978 0
M  V30 4368 H 407.157 2.75173 4.74943 0
M  V30 4369 H 407.418 1.07714 4.28777 0
M  V30 4370 N 406.477 -1.02803 1.19454 0
M  V30 4371 C 407.725 -1.75869 0.995722 0
M  V30 4372 C 408.046 -1.89138 -0.474543 0
M  V30 4373 O 407.316 -1.42558 -1.34366 0
M  V30 4374 H 405.896 -0.651511 0.365435 0
M  V30 4375 H 408.558 -1.24004 1.50363 0
M  V30 4376 H 407.654 -2.76661 1.44447 0
M  V30 4377 N 407.956 -0.998596 -1.21925 0
M  V30 4378 C 408.886 -0.573688 -2.26343 0
M  V30 4379 C 409.867 0.402296 -1.65274 0
M  V30 4380 O 411.052 0.291683 -1.91997 0
M  V30 4381 C 408.182 0.106839 -3.47136 0
M  V30 4382 C 407.136 -0.788269 -4.20678 0
M  V30 4383 C 406.462 0.0254927 -5.34694 0
M  V30 4384 C 407.762 -2.08784 -4.78755 0
M  V30 4385 H 409.456 -1.44651 -2.62138 0
M  V30 4386 H 407.002 -0.696975 -1.26009 0
M  V30 4387 H 408.955 0.415531 -4.19346 0
M  V30 4388 H 407.679 1.01424 -3.10452 0
M  V30 4389 H 406.338 -1.08069 -3.50309 0
M  V30 4390 H 405.986 0.933989 -4.94253 0
M  V30 4391 H 405.686 -0.570437 -5.84825 0
M  V30 4392 H 407.21 0.328147 -6.09718 0
M  V30 4393 H 408.624 -1.84272 -5.42878 0
M  V30 4394 H 407.021 -2.63307 -5.39249 0
M  V30 4395 H 408.091 -2.76284 -3.98491 0
M  V30 4396 N 409.434 1.37368 -0.772513 0
M  V30 4397 C 410.364 2.32856 -0.173304 0
M  V30 4398 C 411.345 1.55818 0.682262 0
M  V30 4399 O 412.53 1.84052 0.619566 0
M  V30 4400 C 409.66 3.40048 0.706007 0
M  V30 4401 C 408.614 4.27973 -0.0483144 0
M  V30 4402 C 407.94 5.26184 0.950491 0
M  V30 4403 C 409.24 5.07665 -1.22776 0
M  V30 4404 H 410.934 2.83217 -0.971002 0
M  V30 4405 H 408.48 1.3617 -0.468377 0
M  V30 4406 H 410.433 4.05827 1.13501 0
M  V30 4407 H 409.157 2.88214 1.53623 0
M  V30 4408 H 407.816 3.63726 -0.458107 0
M  V30 4409 H 407.464 4.7063 1.77529 0
M  V30 4410 H 407.164 5.85872 0.450314 0
M  V30 4411 H 408.688 5.94838 1.37842 0
M  V30 4412 H 410.102 5.66578 -0.875366 0
M  V30 4413 H 408.499 5.76681 -1.66007 0
M  V30 4414 H 409.569 4.40294 -2.03149 0
M  V30 4415 N 410.912 0.523116 1.48665 0
M  V30 4416 C 412.189 -0.0775449 1.95446 0
M  V30 4417 C 412.569 -1.5197 1.4652 0
M  V30 4418 O 411.917 -2.17876 0.688657 0
M  V30 4419 C 412.127 0.0326135 3.48985 0
M  V30 4420 C 413.475 -0.130141 4.24401 0
M  V30 4421 O 414.499 -0.0415142 3.56176 0
M  V30 4422 O 413.358 -0.31491 5.45592 0
M  V30 4423 H 410.452 -0.0831012 0.822814 0
M  V30 4424 H 412.998 0.587227 1.59216 0
M  V30 4425 H 411.77 1.03748 3.77296 0
M  V30 4426 H 411.393 -0.671317 3.91892 0
M  V30 4427 N 412.39 -1.55475 0.257931 0
M  V30 4428 C 413.323 -2.179 -0.677862 0
M  V30 4429 C 414.301 -1.13448 -1.16483 0
M  V30 4430 O 415.485 -1.41889 -1.24095 0
M  V30 4431 C 412.612 -2.78851 -1.92249 0
M  V30 4432 C 411.658 -3.96454 -1.57246 0
M  V30 4433 S 412.491 -5.31349 -0.665501 0
M  V30 4434 C 413.647 -5.9576 -1.91889 0
M  V30 4435 H 413.88 -2.96934 -0.147396 0
M  V30 4436 H 411.413 -1.54342 0.0423023 0
M  V30 4437 H 413.371 -3.14602 -2.63697 0
M  V30 4438 H 412.032 -1.99742 -2.42409 0
M  V30 4439 H 411.225 -4.37731 -2.49814 0
M  V30 4440 H 410.827 -3.62038 -0.938325 0
M  V30 4441 H 413.119 -6.13947 -2.86487 0
M  V30 4442 H 414.062 -6.9094 -1.54942 0
M  V30 4443 H 414.47 -5.2494 -2.076 0
M  V30 4444 N 413.868 0.0150385 -1.57593 0
M  V30 4445 C 415.096 0.714395 -1.94175 0
M  V30 4446 C 415.511 1.68135 -0.858841 0
M  V30 4447 O 414.868 1.81766 0.163567 0
M  V30 4448 C 414.919 1.45933 -3.30735 0
M  V30 4449 O 414.64 0.531167 -4.34868 0
M  V30 4450 C 416.141 2.25456 -3.81686 0
M  V30 4451 H 413.361 0.199923 -0.640525 0
M  V30 4452 H 415.905 -0.0316096 -2.04476 0
M  V30 4453 H 414.06 2.15709 -3.21789 0
M  V30 4454 H 414.474 1.05509 -5.13778 0
M  V30 4455 H 415.948 2.731 -4.79709 0
M  V30 4456 H 416.425 3.07485 -3.13607 0
M  V30 4457 H 417.031 1.60727 -3.9376 0
M  V30 4458 N 415.346 1.54954 0.287554 0
M  V30 4459 C 416.293 1.86834 1.35505 0
M  V30 4460 C 417.263 0.718452 1.49758 0
M  V30 4461 O 418.448 0.968358 1.644 0
M  V30 4462 C 415.588 2.13303 2.71286 0
M  V30 4463 C 414.701 3.40883 2.65373 0
M  V30 4464 C 413.836 3.57125 3.93236 0
M  V30 4465 C 412.875 4.78449 3.81776 0
M  V30 4466 N 412.012 4.91426 5.01443 0
M  V30 4467 H 416.852 2.77889 1.07619 0
M  V30 4468 H 414.389 1.37593 0.520241 0
M  V30 4469 H 416.347 2.26646 3.50267 0
M  V30 4470 H 414.977 1.25499 2.97405 0
M  V30 4471 H 414.029 3.36088 1.78182 0
M  V30 4472 H 415.341 4.29993 2.52799 0
M  V30 4473 H 414.495 3.70207 4.80658 0
M  V30 4474 H 413.234 2.66173 4.0866 0
M  V30 4475 H 412.239 4.65386 2.92738 0
M  V30 4476 H 413.464 5.70822 3.67884 0
M  V30 4477 H 411.41 4.03401 5.17304 0
M  V30 4478 H 411.327 5.74559 4.91343 0
M  V30 4479 H 412.595 5.08879 5.90477 0
M  V30 4480 N 416.824 -0.551391 1.4764 0
M  V30 4481 C 417.734 -1.68525 1.63207 0
M  V30 4482 C 418.75 -1.6621 0.514815 0
M  V30 4483 O 419.926 -1.85551 0.783113 0
M  V30 4484 C 416.991 -3.05025 1.64805 0
M  V30 4485 C 416.052 -3.18362 2.88 0
M  V30 4486 C 415.285 -4.4835 2.89513 0
M  V30 4487 O 415.508 -5.34163 2.00065 0
M  V30 4488 O 414.442 -4.65602 3.81443 0
M  V30 4489 H 418.268 -1.58333 2.59161 0
M  V30 4490 H 415.853 -0.722063 1.30792 0
M  V30 4491 H 417.735 -3.86245 1.68502 0
M  V30 4492 H 416.41 -3.15587 0.720197 0
M  V30 4493 H 415.317 -2.36518 2.89845 0
M  V30 4494 H 416.65 -3.12707 3.80099 0
M  V30 4495 N 418.302 -1.35869 -0.798587 0
M  V30 4496 C 419.249 -1.29446 -1.91082 0
M  V30 4497 C 420.219 -0.16487 -1.6528 0
M  V30 4498 O 421.404 -0.349888 -1.87564 0
M  V30 4499 C 418.544 -1.0804 -3.27752 0
M  V30 4500 C 417.657 -2.29993 -3.65687 0
M  V30 4501 C 416.792 -2.01673 -4.91428 0
M  V30 4502 C 415.831 -3.19636 -5.22015 0
M  V30 4503 N 414.968 -2.91039 -6.38937 0
M  V30 4504 H 419.808 -2.24553 -1.95907 0
M  V30 4505 H 417.345 -1.11615 -0.958148 0
M  V30 4506 H 419.303 -0.936586 -4.06551 0
M  V30 4507 H 417.933 -0.16592 -3.22373 0
M  V30 4508 H 416.985 -2.55211 -2.82085 0
M  V30 4509 H 418.297 -3.18052 -3.84245 0
M  V30 4510 H 417.451 -1.84168 -5.78072 0
M  V30 4511 H 416.19 -1.10911 -4.74921 0
M  V30 4512 H 415.195 -3.37709 -4.33858 0
M  V30 4513 H 416.42 -4.11211 -5.40447 0
M  V30 4514 H 414.366 -2.0288 -6.2384 0
M  V30 4515 H 414.283 -3.72635 -6.57784 0
M  V30 4516 H 415.551 -2.77093 -7.28587 0
M  V30 4517 N 419.78 1.02168 -1.19998 0
M  V30 4518 C 420.69 2.14069 -0.959774 0
M  V30 4519 C 421.706 1.73804 0.082655 0
M  V30 4520 O 422.882 2.01133 -0.103633 0
M  V30 4521 C 419.947 3.42936 -0.509459 0
M  V30 4522 C 419.008 3.97474 -1.62213 0
M  V30 4523 C 418.241 5.2019 -1.19321 0
M  V30 4524 O 418.464 5.70369 -0.0597726 0
M  V30 4525 O 417.398 5.67749 -1.99863 0
M  V30 4526 H 421.224 2.37199 -1.89658 0
M  V30 4527 H 418.809 1.12469 -0.983411 0
M  V30 4528 H 420.691 4.20551 -0.267322 0
M  V30 4529 H 419.366 3.21234 0.398821 0
M  V30 4530 H 418.273 3.21161 -1.9185 0
M  V30 4531 H 419.606 4.23555 -2.50723 0
M  V30 4532 N 421.258 1.00505 1.21394 0
M  V30 4533 C 422.505 0.687774 1.90462 0
M  V30 4534 C 422.833 -0.78147 1.7811 0
M  V30 4535 O 422.088 -1.58208 1.1519 0
M  V30 4536 C 422.387 1.0546 3.41486 0
M  V30 4537 C 422.053 2.51812 3.74034 0
M  V30 4538 C 420.715 2.91804 3.82628 0
M  V30 4539 C 423.067 3.46614 3.8924 0
M  V30 4540 C 420.395 4.2556 4.03876 0
M  V30 4541 C 422.747 4.80044 4.11995 0
M  V30 4542 C 421.411 5.19759 4.18816 0
M  V30 4543 H 420.681 0.251674 0.696951 0
M  V30 4544 H 423.328 1.26349 1.43903 0
M  V30 4545 H 421.633 0.397133 3.89782 0
M  V30 4546 H 423.33 0.786976 3.93202 0
M  V30 4547 H 419.92 2.1982 3.67936 0
M  V30 4548 H 424.104 3.16883 3.81967 0
M  V30 4549 H 419.36 4.55901 4.07387 0
M  V30 4550 H 423.534 5.53439 4.22704 0
M  V30 4551 H 421.161 6.23418 4.35033 0
M  V30 4552 N 422.737 -1.36956 0.779787 0
M  V30 4553 C 423.984 -1.99491 0.347766 0
M  V30 4554 C 424.312 -1.61898 -1.07793 0
M  V30 4555 O 423.567 -0.86071 -1.75756 0
M  V30 4556 C 423.866 -3.54585 0.447686 0
M  V30 4557 C 423.532 -4.1197 1.83279 0
M  V30 4558 C 422.194 -4.27356 2.2118 0
M  V30 4559 C 424.546 -4.43354 2.74019 0
M  V30 4560 C 421.874 -4.71432 3.4924 0
M  V30 4561 C 424.226 -4.88858 4.01497 0
M  V30 4562 C 422.89 -5.0245 4.39432 0
M  V30 4563 H 422.16 -0.729991 0.127257 0
M  V30 4564 H 424.807 -1.63599 0.995376 0
M  V30 4565 H 423.112 -3.90773 -0.283447 0
M  V30 4566 H 424.809 -4.00888 0.0945948 0
M  V30 4567 H 421.399 -4.00428 1.52825 0
M  V30 4568 H 425.583 -4.31045 2.45995 0
M  V30 4569 H 420.839 -4.80141 3.78516 0
M  V30 4570 H 425.013 -5.12108 4.71931 0
M  V30 4571 H 422.64 -5.36362 5.38721 0
M  V30 4572 N 424.215 -0.530993 -1.48385 0
M  V30 4573 C 425.492 0.0671788 -1.95485 0
M  V30 4574 C 425.872 1.51191 -1.47324 0
M  V30 4575 O 425.22 2.17507 -0.700202 0
M  V30 4576 C 425.43 -0.0511206 -3.48963 0
M  V30 4577 C 426.778 0.107632 -4.24464 0
M  V30 4578 O 427.802 0.0226248 -3.56193 0
M  V30 4579 O 426.661 0.285972 -5.45751 0
M  V30 4580 H 423.755 0.0787365 -0.823243 0
M  V30 4581 H 426.301 -0.595662 -1.58902 0
M  V30 4582 H 425.073 -1.05747 -3.7674 0
M  V30 4583 H 424.696 0.650525 -3.92242 0
M  V30 4584 N 425.693 1.55336 -0.266172 0
M  V30 4585 C 426.939 1.99692 0.353681 0
M  V30 4586 C 427.272 1.1543 1.56172 0
M  V30 4587 O 426.547 0.222218 1.93226 0
M  V30 4588 C 426.83 3.52316 0.74466 0
M  V30 4589 C 426.683 4.47337 -0.470101 0
M  V30 4590 C 428.002 4.10588 1.58447 0
M  V30 4591 H 425.121 0.725961 0.12708 0
M  V30 4592 H 427.763 1.86336 -0.371333 0
M  V30 4593 H 425.913 3.63829 1.36239 0
M  V30 4594 H 427.585 4.4778 -1.10864 0
M  V30 4595 H 425.828 4.19364 -1.10978 0
M  V30 4596 H 426.499 5.51788 -0.15291 0
M  V30 4597 H 428.975 4.02297 1.06286 0
M  V30 4598 H 427.851 5.17607 1.82686 0
M  V30 4599 H 428.112 3.60253 2.56262 0
M  V30 4600 N 427.171 -0.0066808 1.57599 0
M  V30 4601 C 428.417 -0.68835 1.91398 0
M  V30 4602 C 428.772 -1.7175 0.86716 0
M  V30 4603 O 428.065 -1.91215 -0.121475 0
M  V30 4604 C 428.259 -1.37939 3.29708 0
M  V30 4605 C 428.088 -0.418689 4.47747 0
M  V30 4606 C 426.858 -0.031526 5.0529 0
M  V30 4607 C 429.056 0.312301 5.13351 0
M  V30 4608 N 427.038 0.928088 6.06844 0
M  V30 4609 C 428.409 1.12682 6.09674 0
M  V30 4610 C 430.464 0.376853 4.96472 0
M  V30 4611 C 429.167 2 6.90936 0
M  V30 4612 C 431.193 1.23723 5.78314 0
M  V30 4613 C 430.555 2.03962 6.74225 0
M  V30 4614 H 426.654 -0.225292 0.748844 0
M  V30 4615 H 429.238 0.0520973 1.9463 0
M  V30 4616 H 427.409 -2.09017 3.27363 0
M  V30 4617 H 429.141 -2.01522 3.50957 0
M  V30 4618 H 425.896 -0.398485 4.71921 0
M  V30 4619 H 426.32 1.40307 6.62301 0
M  V30 4620 H 430.962 -0.22921 4.22178 0
M  V30 4621 H 428.68 2.61676 7.64559 0
M  V30 4622 H 432.266 1.291 5.67296 0
M  V30 4623 H 431.146 2.69461 7.36451 0
M  V30 4624 N 428.649 -1.55105 -0.279332 0
M  V30 4625 C 429.874 -1.7976 -1.03446 0
M  V30 4626 C 430.299 -0.565952 -1.79384 0
M  V30 4627 O 429.657 0.484259 -1.74713 0
M  V30 4628 C 429.705 -3.0179 -1.97371 0
M  V30 4629 O 428.809 -2.76432 -3.06038 0
M  V30 4630 H 428.15 -0.594334 -0.29608 0
M  V30 4631 H 430.68 -2.02235 -0.310165 0
M  V30 4632 H 430.69 -3.30351 -2.39441 0
M  V30 4633 H 429.365 -3.91085 -1.4151 0
M  V30 4634 H 427.942 -2.58949 -2.68328 0
M  V30 4635 N 430.127 0.543554 -1.4793 0
M  V30 4636 C 431.373 1.30201 -1.55485 0
M  V30 4637 C 431.706 1.92925 -0.222201 0
M  V30 4638 O 430.981 1.78586 0.77053 0
M  V30 4639 C 431.264 2.40174 -2.68307 0
M  V30 4640 C 431.117 1.8223 -4.11233 0
M  V30 4641 C 432.436 3.42024 -2.76961 0
M  V30 4642 H 429.555 0.472036 -0.565996 0
M  V30 4643 H 432.197 0.606914 -1.80046 0
M  V30 4644 H 430.347 2.99463 -2.47495 0
M  V30 4645 H 432.019 1.27096 -4.43446 0
M  V30 4646 H 430.262 1.12832 -4.18869 0
M  V30 4647 H 430.933 2.61793 -4.85972 0
M  V30 4648 H 433.409 2.92672 -2.95774 0
M  V30 4649 H 432.285 4.16383 -3.57654 0
M  V30 4650 H 432.546 4.0173 -1.84568 0
M  V30 4651 N 431.605 1.3629 0.791371 0
M  V30 4652 C 432.535 1.33137 1.91825 0
M  V30 4653 C 433.516 0.203168 1.68882 0
M  V30 4654 O 434.701 0.400509 1.90025 0
M  V30 4655 C 431.831 1.11793 3.28816 0
M  V30 4656 C 430.785 2.21417 3.66277 0
M  V30 4657 C 430.111 1.85218 5.01596 0
M  V30 4658 C 431.411 3.63489 3.75064 0
M  V30 4659 H 433.105 2.2743 1.9472 0
M  V30 4660 H 430.651 1.09479 0.935437 0
M  V30 4661 H 432.604 1.08222 4.07266 0
M  V30 4662 H 431.328 0.139501 3.26302 0
M  V30 4663 H 429.987 2.2411 2.90121 0
M  V30 4664 H 429.635 0.859544 4.95602 0
M  V30 4665 H 429.335 2.58611 5.27631 0
M  V30 4666 H 430.859 1.832 5.82469 0
M  V30 4667 H 432.273 3.63034 4.43711 0
M  V30 4668 H 430.67 4.35771 4.12582 0
M  V30 4669 H 431.74 3.98536 2.76219 0
M  V30 4670 N 433.083 -1.0153 1.20538 0
M  V30 4671 C 434.016 -2.09759 0.898695 0
M  V30 4672 C 434.994 -1.61909 -0.149733 0
M  V30 4673 O 436.178 -1.88486 -0.0230293 0
M  V30 4674 C 433.305 -3.36913 0.347512 0
M  V30 4675 C 432.351 -4.03655 1.37713 0
M  V30 4676 S 433.184 -4.47402 2.94265 0
M  V30 4677 C 434.34 -5.77756 2.40726 0
M  V30 4678 H 434.573 -2.3545 1.81523 0
M  V30 4679 H 432.106 -1.14665 1.03399 0
M  V30 4680 H 434.064 -4.10484 0.0360518 0
M  V30 4681 H 432.725 -3.09291 -0.547546 0
M  V30 4682 H 431.918 -4.9514 0.940872 0
M  V30 4683 H 431.52 -3.36313 1.63614 0
M  V30 4684 H 433.812 -6.52994 1.80569 0
M  V30 4685 H 434.755 -6.2618 3.30612 0
M  V30 4686 H 435.163 -5.34081 1.82806 0
M  V30 4687 N 434.561 -1.01147 -1.20859 0
M  V30 4688 C 435.809 -0.696486 -1.89719 0
M  V30 4689 C 436.13 0.775788 -1.78904 0
M  V30 4690 O 435.4 1.55759 -1.18811 0
M  V30 4691 H 433.98 -0.254628 -0.702263 0
M  V30 4692 H 436.642 -1.28197 -1.46804 0
M  V30 4693 H 435.738 -0.975357 -2.96468 0
M  V30 4694 N 436.039 1.36541 -0.78704 0
M  V30 4695 C 436.949 2.3387 -0.184896 0
M  V30 4696 C 437.965 1.60927 0.661697 0
M  V30 4697 O 439.141 1.92927 0.57804 0
M  V30 4698 C 436.206 3.40122 0.672145 0
M  V30 4699 C 435.267 4.28867 -0.19267 0
M  V30 4700 C 434.5 5.30045 0.623561 0
M  V30 4701 O 434.723 5.39232 1.8597 0
M  V30 4702 O 433.657 6.01895 0.0247068 0
M  V30 4703 H 437.483 2.87126 -0.989562 0
M  V30 4704 H 435.068 1.38969 -0.548455 0
M  V30 4705 H 436.95 4.05093 1.16094 0
M  V30 4706 H 435.625 2.89169 1.45474 0
M  V30 4707 H 434.532 3.66945 -0.728166 0
M  V30 4708 H 435.865 4.83165 -0.938722 0
M  V30 4709 N 437.518 0.538854 1.48102 0
M  V30 4710 C 438.743 0.0102694 2.07397 0
M  V30 4711 C 439.168 -1.26562 1.39153 0
M  V30 4712 O 438.526 -1.75357 0.460387 0
M  V30 4713 C 438.574 -0.187602 3.60112 0
M  V30 4714 O 437.678 -1.25432 3.92862 0
M  V30 4715 H 437.019 0.0430975 0.6626 0
M  V30 4716 H 439.549 0.749301 1.90385 0
M  V30 4717 H 439.559 -0.407517 4.0596 0
M  V30 4718 H 438.234 0.744386 4.09184 0
M  V30 4719 H 436.811 -1.01636 3.58782 0
M  V30 4720 N 438.996 -1.55193 0.274407 0
M  V30 4721 C 439.928 -2.1989 -0.646595 0
M  V30 4722 C 440.941 -1.1834 -1.11801 0
M  V30 4723 O 442.13 -1.4507 -1.04004 0
M  V30 4724 C 439.23 -2.8104 -1.89393 0
M  V30 4725 C 438.403 -4.08274 -1.56943 0
M  V30 4726 C 437.462 -4.53478 -2.66916 0
M  V30 4727 O 436.488 -5.19267 -2.33132 0
M  V30 4728 N 437.69 -4.2356 -3.9696 0
M  V30 4729 H 440.455 -2.99556 -0.0928686 0
M  V30 4730 H 438.016 -1.61618 0.0954783 0
M  V30 4731 H 440.008 -3.08226 -2.62257 0
M  V30 4732 H 438.578 -2.05372 -2.35672 0
M  V30 4733 H 437.798 -3.88384 -0.674655 0
M  V30 4734 H 439.086 -4.91173 -1.32764 0
M  V30 4735 H 438.484 -3.70799 -4.27229 0
M  V30 4736 H 437.041 -4.55518 -4.66205 0
M  V30 4737 N 440.474 -0.00167713 -1.576 0
M  V30 4738 C 441.885 0.54091 -1.78693 0
M  V30 4739 C 442.236 1.7386 -0.909247 0
M  V30 4740 O 441.361 2.16109 -0.112176 0
M  V30 4741 C 441.956 0.98806 -3.24072 0
M  V30 4742 C 440.515 1.47594 -3.46256 0
M  V30 4743 C 439.662 0.42792 -2.73978 0
M  V30 4744 H 442.613 -0.22784 -1.57056 0
M  V30 4745 H 442.634 1.85398 -3.32277 0
M  V30 4746 H 442.146 0.116164 -3.87926 0
M  V30 4747 H 440.247 2.36868 -2.87618 0
M  V30 4748 H 440.36 1.50225 -4.54939 0
M  V30 4749 H 438.724 0.889934 -2.38647 0
M  V30 4750 H 439.507 -0.435038 -3.40532 0
M  V30 4751 N 441.952 1.55251 0.271103 0
M  V30 4752 C 443.182 1.79713 1.01916 0
M  V30 4753 C 443.59 0.571613 1.80359 0
M  V30 4754 O 442.933 -0.468853 1.77616 0
M  V30 4755 C 442.995 2.97138 2.02359 0
M  V30 4756 C 442.659 4.34104 1.42837 0
M  V30 4757 C 443.656 5.13019 0.843071 0
M  V30 4758 C 441.341 4.80765 1.455 0
M  V30 4759 C 443.335 6.36729 0.292333 0
M  V30 4760 C 441.022 6.0443 0.900402 0
M  V30 4761 C 442.02 6.8225 0.32007 0
M  V30 4762 O 441.708 8.03582 -0.226031 0
M  V30 4763 H 441.44 0.602431 0.306681 0
M  V30 4764 H 443.994 2.03097 0.306701 0
M  V30 4765 H 442.224 2.6945 2.77369 0
M  V30 4766 H 443.913 3.08907 2.63309 0
M  V30 4767 H 444.679 4.781 0.815178 0
M  V30 4768 H 440.558 4.20202 1.89609 0
M  V30 4769 H 444.102 6.97414 -0.161274 0
M  V30 4770 H 439.999 6.3883 0.925541 0
M  V30 4771 H 440.767 8.18418 -0.115572 0
M  V30 4772 N 443.43 -0.535701 1.48216 0
M  V30 4773 C 444.655 -1.32149 1.59848 0
M  V30 4774 C 445.08 -1.86338 0.256842 0
M  V30 4775 O 444.438 -1.64107 -0.770632 0
M  V30 4776 C 444.486 -2.45224 2.64381 0
M  V30 4777 O 443.59 -3.48093 2.21144 0
M  V30 4778 H 442.931 -0.391634 0.536208 0
M  V30 4779 H 445.461 -0.645202 1.94161 0
M  V30 4780 H 445.471 -2.91491 2.85476 0
M  V30 4781 H 444.146 -2.05143 3.61786 0
M  V30 4782 H 442.723 -3.07984 2.10239 0
M  V30 4783 N 444.908 -1.36708 -0.784132 0
M  V30 4784 C 446.156 -1.30972 -1.53918 0
M  V30 4785 C 446.477 0.109086 -1.94695 0
M  V30 4786 O 445.747 1.05048 -1.65353 0
M  V30 4787 H 444.327 -0.481819 -0.570841 0
M  V30 4788 H 446.989 -1.71063 -0.934002 0
M  V30 4789 H 446.085 -1.94061 -2.44431 0
M  V30 4790 N 446.386 1.0089 -1.21074 0
M  V30 4791 C 447.797 1.56056 -1.02486 0
M  V30 4792 C 448.148 1.91728 0.416506 0
M  V30 4793 O 447.273 1.73066 1.29912 0
M  V30 4794 C 447.868 2.83563 -1.85411 0
M  V30 4795 C 446.427 3.3523 -1.71166 0
M  V30 4796 C 445.574 2.0846 -1.82865 0
M  V30 4797 H 448.525 0.831818 -1.35154 0
M  V30 4798 H 448.546 3.55286 -1.36205 0
M  V30 4799 H 448.058 2.57569 -2.9031 0
M  V30 4800 H 446.159 3.66167 -0.689361 0
M  V30 4801 H 446.272 4.06913 -2.52901 0
M  V30 4802 H 444.636 2.21275 -1.26132 0
M  V30 4803 H 445.419 1.84883 -2.89263 0
M  V30 4804 N 447.864 1.01787 1.20321 0
M  V30 4805 C 449.28 0.732951 1.41774 0
M  V30 4806 C 449.48 -0.686883 1.89431 0
M  V30 4807 O 448.536 -1.45446 2.06402 0
M  V30 4808 C 449.849 1.75973 2.43832 0
M  V30 4809 C 451.397 1.77802 2.57596 0
M  V30 4810 C 451.872 2.7941 3.62897 0
M  V30 4811 N 453.363 2.78157 3.70382 0
M  V30 4812 C 454.098 3.53434 4.51521 0
M  V30 4813 N 453.594 4.38392 5.36455 0
M  V30 4814 N 455.387 3.42026 4.46066 0
M  V30 4815 H 447.538 1.93447 0.877035 0
M  V30 4816 H 449.801 0.835712 0.447536 0
M  V30 4817 H 449.507 2.77699 2.15815 0
M  V30 4818 H 449.381 1.57292 3.4284 0
M  V30 4819 H 451.768 0.767602 2.84942 0
M  V30 4820 H 451.849 2.00557 1.58779 0
M  V30 4821 H 451.493 3.80616 3.36295 0
M  V30 4822 H 451.423 2.53916 4.61339 0
M  V30 4823 H 453.914 2.16531 3.09714 0
M  V30 4824 H 454.227 4.92596 5.95457 0
M  V30 4825 H 452.572 4.4247 5.35953 0
M  V30 4826 H 455.763 2.75075 3.78749 0
M  V30 4827 H 455.936 4.00946 5.09064 0
M  V30 4828 N 449.342 -1.36122 0.79427 0
M  V30 4829 C 450.57 -2.03362 0.380989 0
M  V30 4830 C 450.985 -1.59881 -1.00416 0
M  V30 4831 O 450.342 -0.790515 -1.6449 0
M  V30 4832 C 450.393 -3.58804 0.440649 0
M  V30 4833 O 450.114 -4.007 1.77118 0
M  V30 4834 C 451.615 -4.43296 0.0186117 0
M  V30 4835 H 448.835 -0.652526 0.156367 0
M  V30 4836 H 451.379 -1.73998 1.07447 0
M  V30 4837 H 449.534 -3.8686 -0.204458 0
M  V30 4838 H 449.948 -4.95309 1.72538 0
M  V30 4839 H 451.422 -5.51887 0.111488 0
M  V30 4840 H 451.899 -4.2684 -1.03461 0
M  V30 4841 H 452.505 -4.20512 0.636395 0
M  V30 4842 N 450.82 -0.546701 -1.47814 0
M  V30 4843 C 452.231 -0.110564 -1.86372 0
M  V30 4844 C 452.582 1.31678 -1.45449 0
M  V30 4845 O 451.707 1.98889 -0.852758 0
M  V30 4846 C 452.302 -0.193873 -3.38245 0
M  V30 4847 C 450.861 0.187164 -3.75934 0
M  V30 4848 C 450.008 -0.546166 -2.71868 0
M  V30 4849 H 452.959 -0.757022 -1.39481 0
M  V30 4850 H 452.98 0.590218 -3.75895 0
M  V30 4851 H 452.492 -1.23282 -3.67999 0
M  V30 4852 H 450.593 1.22762 -3.51796 0
M  V30 4853 H 450.706 -0.164083 -4.78819 0
M  V30 4854 H 449.07 0.00953904 -2.54698 0
M  V30 4855 H 449.853 -1.58606 -3.04465 0
M  V30 4856 N 452.299 1.55045 -0.282633 0
M  V30 4857 C 453.576 1.9179 0.384166 0
M  V30 4858 C 453.956 1.20778 1.73136 0
M  V30 4859 O 453.304 0.33719 2.25998 0
M  V30 4860 C 453.514 3.45149 0.517014 0
M  V30 4861 C 454.862 4.17064 0.796427 0
M  V30 4862 O 455.886 3.51084 0.601535 0
M  V30 4863 O 454.745 5.33837 1.16962 0
M  V30 4864 H 451.839 0.799483 0.211558 0
M  V30 4865 H 454.385 1.66474 -0.32934 0
M  V30 4866 H 453.157 3.88922 -0.430772 0
M  V30 4867 H 452.78 3.76443 1.2797 0
M  V30 4868 N 453.777 0.010035 1.57597 0
M  V30 4869 C 455.025 -0.671371 1.90623 0
M  V30 4870 C 455.346 -1.73753 0.885151 0
M  V30 4871 O 454.616 -1.95752 -0.0760611 0
M  V30 4872 H 453.196 -0.250968 0.703579 0
M  V30 4873 H 455.858 0.0533325 1.94827 0
M  V30 4874 H 454.954 -1.13626 2.90681 0
M  V30 4875 N 455.255 -1.55392 -0.262866 0
M  V30 4876 C 456.671 -1.47459 -0.610582 0
M  V30 4877 C 456.871 -0.697031 -1.8906 0
M  V30 4878 O 455.927 -0.219952 -2.5154 0
M  V30 4879 C 457.24 -2.91751 -0.728131 0
M  V30 4880 C 458.788 -3.02027 -0.821517 0
M  V30 4881 C 459.263 -4.47594 -0.97076 0
M  V30 4882 N 460.754 -4.51465 -1.03603 0
M  V30 4883 C 461.489 -5.61326 -1.17049 0
M  V30 4884 N 460.985 -6.81032 -1.2715 0
M  V30 4885 N 462.778 -5.49089 -1.20239 0
M  V30 4886 H 454.929 -2.04395 0.577632 0
M  V30 4887 H 457.192 -0.927287 0.197086 0
M  V30 4888 H 456.898 -3.51413 0.142132 0
M  V30 4889 H 456.772 -3.4134 -1.6052 0
M  V30 4890 H 459.159 -2.42456 -1.68224 0
M  V30 4891 H 459.24 -2.55674 0.0803688 0
M  V30 4892 H 458.884 -5.07771 -0.114655 0
M  V30 4893 H 458.814 -4.91613 -1.88745 0
M  V30 4894 H 461.305 -3.6524 -0.96996 0
M  V30 4895 H 461.618 -7.60511 -1.37271 0
M  V30 4896 H 459.963 -6.83824 -1.24136 0
M  V30 4897 H 463.154 -4.54507 -1.11985 0
M  V30 4898 H 463.327 -6.34749 -1.30373 0
M  V30 4899 N 456.733 0.527833 -1.48498 0
M  V30 4900 C 457.643 1.65907 -1.65867 0
M  V30 4901 C 458.659 1.6537 -0.541192 0
M  V30 4902 O 459.835 1.84282 -0.812534 0
M  V30 4903 C 456.9 3.02364 -1.69637 0
M  V30 4904 C 455.961 3.1374 -2.93028 0
M  V30 4905 C 455.194 4.43688 -2.96609 0
M  V30 4906 O 455.417 5.30913 -2.08538 0
M  V30 4907 O 454.351 4.59475 -3.88802 0
M  V30 4908 H 458.177 1.5419 -2.61647 0
M  V30 4909 H 455.762 0.701163 -1.31924 0
M  V30 4910 H 457.644 3.83515 -1.74625 0
M  V30 4911 H 456.319 3.14401 -0.770312 0
M  V30 4912 H 455.226 2.31877 -2.93571 0
M  V30 4913 H 456.559 3.06621 -3.85026 0
M  V30 4914 N 458.211 1.37122 0.776871 0
M  V30 4915 C 459.46 1.31373 1.53049 0
M  V30 4916 C 459.773 -0.101016 1.95339 0
M  V30 4917 O 460.979 -0.280953 2.70042 0
M  V30 4918 C 459.435 2.30567 2.76346 0
M  V30 4919 C 459.043 3.77543 2.41175 0
M  V30 4920 C 460.787 2.33818 3.54301 0
M  V30 4921 C 458.694 4.68481 3.60943 0
M  V30 4922 H 457.624 0.488234 0.574581 0
M  V30 4923 H 460.275 1.62554 0.851372 0
M  V30 4924 H 458.657 1.92396 3.46121 0
M  V30 4925 H 459.831 4.24521 1.79216 0
M  V30 4926 H 458.146 3.77187 1.76405 0
M  V30 4927 H 460.743 2.98965 4.4331 0
M  V30 4928 H 461.086 1.3503 3.93793 0
M  V30 4929 H 461.619 2.7067 2.91518 0
M  V30 4930 H 458.358 5.68378 3.26537 0
M  V30 4931 H 457.878 4.2621 4.22025 0
M  V30 4932 H 459.557 4.85366 4.27819 0
M  V30 4933 N 459.689 -1.00246 1.21608 0
M  V30 4934 C 460.935 -1.74319 1.03638 0
M  V30 4935 C 461.268 -1.89408 -0.428749 0
M  V30 4936 O 460.543 -1.43026 -1.3181 0
M  V30 4937 C 460.826 -3.15431 1.73711 0
M  V30 4938 C 460.679 -3.08049 3.27759 0
M  V30 4939 C 461.998 -4.14407 1.48173 0
M  V30 4940 H 459.117 -0.632741 0.377899 0
M  V30 4941 H 461.759 -1.16853 1.49818 0
M  V30 4942 H 459.909 -3.64493 1.34452 0
M  V30 4943 H 461.581 -2.66681 3.76403 0
M  V30 4944 H 459.824 -2.45088 3.57931 0
M  V30 4945 H 460.495 -4.07862 3.71958 0
M  V30 4946 H 462.971 -3.74061 1.82258 0
M  V30 4947 H 461.847 -5.11279 1.99713 0
M  V30 4948 H 462.108 -4.40174 0.412273 0
M  V30 4949 N 461.167 -1.02423 -1.1978 0
M  V30 4950 C 462.414 -0.717988 -1.89344 0
M  V30 4951 C 462.742 0.753036 -1.79331 0
M  V30 4952 O 461.997 1.56355 -1.17692 0
M  V30 4953 C 462.296 -1.1088 -3.39765 0
M  V30 4954 C 461.962 -2.57731 -3.6998 0
M  V30 4955 C 460.624 -2.97854 -3.77937 0
M  V30 4956 C 462.976 -3.52763 -3.83677 0
M  V30 4957 C 460.304 -4.31931 -3.97054 0
M  V30 4958 C 462.656 -4.86538 -4.04306 0
M  V30 4959 C 461.32 -5.26356 -4.10494 0
M  V30 4960 H 460.59 -0.26273 -0.692859 0
M  V30 4961 H 463.237 -1.28623 -1.41875 0
M  V30 4962 H 461.542 -0.459094 -3.89101 0
M  V30 4963 H 463.239 -0.849432 -3.919 0
M  V30 4964 H 459.829 -2.25646 -3.64393 0
M  V30 4965 H 464.013 -3.2292 -3.76877 0
M  V30 4966 H 459.269 -4.62324 -4.00083 0
M  V30 4967 H 463.443 -5.60093 -4.13846 0
M  V30 4968 H 461.07 -6.3026 -4.2506 0
M  V30 4969 N 462.645 1.35699 -0.801477 0
M  V30 4970 C 463.875 2.02862 -0.3912 0
M  V30 4971 C 464.283 1.60552 1.00099 0
M  V30 4972 O 463.626 0.796215 1.65548 0
M  V30 4973 C 463.688 3.57386 -0.389299 0
M  V30 4974 C 463.352 4.22943 -1.73113 0
M  V30 4975 C 464.349 4.44984 -2.68859 0
M  V30 4976 C 462.034 4.60167 -2.01373 0
M  V30 4977 C 464.028 5.03345 -3.91053 0
M  V30 4978 C 461.715 5.18243 -3.23832 0
M  V30 4979 C 462.713 5.39773 -4.1849 0
M  V30 4980 O 462.401 5.96626 -5.38788 0
M  V30 4981 H 462.133 0.657341 -0.157732 0
M  V30 4982 H 464.687 1.74407 -1.08496 0
M  V30 4983 H 462.917 3.85011 0.361031 0
M  V30 4984 H 464.606 4.059 -0.0020365 0
M  V30 4985 H 465.372 4.1661 -2.48316 0
M  V30 4986 H 461.251 4.42726 -1.28508 0
M  V30 4987 H 464.795 5.20065 -4.64949 0
M  V30 4988 H 460.692 5.46044 -3.44248 0
M  V30 4989 H 461.46 6.15082 -5.40015 0
M  V30 4990 N 464.123 0.554532 1.47522 0
M  V30 4991 C 465.07 -0.19466 2.29978 0
M  V30 4992 C 466.04 -0.910882 1.38896 0
M  V30 4993 O 467.225 -0.907102 1.67858 0
M  V30 4994 C 464.365 -1.22035 3.22802 0
M  V30 4995 C 463.478 -0.510474 4.28973 0
M  V30 4996 C 462.613 -1.52123 5.08952 0
M  V30 4997 C 461.652 -0.796173 6.069 0
M  V30 4998 N 460.789 -1.75363 6.79847 0
M  V30 4999 H 465.629 0.51461 2.93523 0
M  V30 5000 H 463.166 0.265607 1.44682 0
M  V30 5001 H 465.124 -1.8276 3.7504 0
M  V30 5002 H 463.754 -1.89769 2.61127 0
M  V30 5003 H 462.806 0.211234 3.79813 0
M  V30 5004 H 464.118 0.0576503 4.98767 0
M  V30 5005 H 463.272 -2.20207 5.65326 0
M  V30 5006 H 462.011 -2.12327 4.39054 0
M  V30 5007 H 461.016 -0.101388 5.49707 0
M  V30 5008 H 462.241 -0.199911 6.78806 0
M  V30 5009 H 460.187 -2.3443 6.12682 0
M  V30 5010 H 460.104 -1.23759 7.45801 0
M  V30 5011 H 461.372 -2.4257 7.40797 0
M  V30 5012 N 465.601 -1.54893 0.290851 0
M  V30 5013 C 466.847 -2.0023 -0.321867 0
M  V30 5014 C 467.18 -1.179 -1.54316 0
M  V30 5015 O 466.455 -0.25293 -1.92848 0
M  V30 5016 C 466.738 -3.53456 -0.688515 0
M  V30 5017 C 466.591 -4.46532 0.541209 0
M  V30 5018 C 467.91 -4.13057 -1.51895 0
M  V30 5019 H 465.029 -0.727891 -0.115515 0
M  V30 5020 H 467.671 -1.85722 0.400931 0
M  V30 5021 H 465.821 -3.6595 -1.30433 0
M  V30 5022 H 467.493 -4.4596 1.17973 0
M  V30 5023 H 465.736 -4.17545 1.17636 0
M  V30 5024 H 466.407 -5.51475 0.240675 0
M  V30 5025 H 468.883 -4.03937 -0.99872 0
M  V30 5026 H 467.759 -5.20448 -1.74429 0
M  V30 5027 H 468.02 -3.64284 -2.50498 0
M  V30 5028 N 467.08 -0.0183926 -1.57589 0
M  V30 5029 C 468.329 0.66185 -1.90532 0
M  V30 5030 C 468.642 1.73904 -0.895366 0
M  V30 5031 O 469.848 2.47518 -1.11566 0
M  V30 5032 C 468.304 1.22844 -3.38286 0
M  V30 5033 C 467.912 0.185103 -4.47617 0
M  V30 5034 C 469.656 1.88581 -3.80312 0
M  V30 5035 C 467.563 0.762723 -5.86461 0
M  V30 5036 H 466.493 0.250972 -0.711006 0
M  V30 5037 H 469.144 -0.0819435 -1.83317 0
M  V30 5038 H 467.526 2.0235 -3.40398 0
M  V30 5039 H 468.7 -0.58671 -4.5705 0
M  V30 5040 H 467.015 -0.372889 -4.14727 0
M  V30 5041 H 469.612 2.32735 -4.81392 0
M  V30 5042 H 469.955 2.72408 -3.14801 0
M  V30 5043 H 470.488 1.15782 -3.80578 0
M  V30 5044 H 467.227 -0.0371713 -6.55489 0
M  V30 5045 H 466.747 1.50327 -5.80656 0
M  V30 5046 H 468.426 1.25576 -6.34697 0
M  V30 5047 N 468.558 1.5553 0.254621 0
M  V30 5048 C 469.835 1.6774 1.00611 0
M  V30 5049 C 470.215 0.555993 2.03647 0
M  V30 5050 O 469.563 -0.441583 2.24193 0
M  V30 5051 C 469.773 3.07725 1.6464 0
M  V30 5052 C 471.121 3.66074 2.15116 0
M  V30 5053 O 472.145 3.10476 1.74595 0
M  V30 5054 O 471.004 4.63526 2.89493 0
M  V30 5055 H 468.098 0.681958 0.467828 0
M  V30 5056 H 470.644 1.67863 0.24902 0
M  V30 5057 H 469.416 3.80792 0.900734 0
M  V30 5058 H 469.039 3.1158 2.46989 0
M  V30 5059 N 470.036 -0.519951 1.48776 0
M  V30 5060 C 471.266 -1.29783 1.60748 0
M  V30 5061 C 471.674 -1.87253 0.27072 0
M  V30 5062 O 471.017 -1.67628 -0.751438 0
M  V30 5063 C 471.079 -2.47984 2.60277 0
M  V30 5064 C 470.743 -2.11526 4.051 0
M  V30 5065 C 471.74 -1.66608 4.92481 0
M  V30 5066 C 469.425 -2.21742 4.50706 0
M  V30 5067 C 471.419 -1.32384 6.23501 0
M  V30 5068 C 469.106 -1.87129 5.81744 0
M  V30 5069 C 470.104 -1.42523 6.67964 0
M  V30 5070 O 469.792 -1.0837 7.96562 0
M  V30 5071 H 469.524 -0.400562 0.544542 0
M  V30 5072 H 472.078 -0.632879 1.95407 0
M  V30 5073 H 470.308 -3.17493 2.2076 0
M  V30 5074 H 471.997 -3.10036 2.61978 0
M  V30 5075 H 472.763 -1.58178 4.58481 0
M  V30 5076 H 468.642 -2.55415 3.83776 0
M  V30 5077 H 472.186 -0.974949 6.90754 0
M  V30 5078 H 468.083 -1.95204 6.15277 0
M  V30 5079 H 468.851 -1.21681 8.09405 0
M  V30 5080 N 471.514 -1.37532 -0.769588 0
M  V30 5081 C 472.76 -1.33057 -1.53048 0
M  V30 5082 C 473.093 0.0841865 -1.94017 0
M  V30 5083 O 472.368 1.04198 -1.64235 0
M  V30 5084 C 472.651 -2.27166 -2.79406 0
M  V30 5085 C 472.504 -3.77429 -2.44677 0
M  V30 5086 C 473.823 -2.19683 -3.81349 0
M  V30 5087 H 470.942 -0.484655 -0.555228 0
M  V30 5088 H 473.584 -1.68251 -0.882702 0
M  V30 5089 H 471.734 -1.97283 -3.34682 0
M  V30 5090 H 473.406 -4.17918 -1.953 0
M  V30 5091 H 471.649 -3.95892 -1.77346 0
M  V30 5092 H 472.32 -4.38716 -3.35011 0
M  V30 5093 H 474.796 -2.46029 -3.35573 0
M  V30 5094 H 473.672 -2.87668 -4.67481 0
M  V30 5095 H 473.933 -1.19045 -4.25771 0
M  V30 5096 N 472.992 0.995999 -1.22138 0
M  V30 5097 C 473.922 2.10387 -1.01289 0
M  V30 5098 C 474.903 1.69975 0.0651454 0
M  V30 5099 O 476.088 1.9396 -0.0964628 0
M  V30 5100 C 473.218 3.42312 -0.586517 0
M  V30 5101 C 472.172 3.96558 -1.61014 0
M  V30 5102 C 471.498 5.24494 -1.0397 0
M  V30 5103 C 472.798 4.27595 -2.99933 0
M  V30 5104 H 474.492 2.28086 -1.93951 0
M  V30 5105 H 472.038 1.09607 -0.933928 0
M  V30 5106 H 473.991 4.19223 -0.427793 0
M  V30 5107 H 472.715 3.24431 0.375761 0
M  V30 5108 H 471.374 3.21776 -1.75658 0
M  V30 5109 H 471.022 5.02953 -0.0688703 0
M  V30 5110 H 470.722 5.61755 -1.72352 0
M  V30 5111 H 472.246 6.04042 -0.892494 0
M  V30 5112 H 473.66 4.95315 -2.8868 0
M  V30 5113 H 472.057 4.76021 -3.6541 0
M  V30 5114 H 473.127 3.35498 -3.50099 0
M  V30 5115 N 474.47 1.03057 1.19235 0
M  V30 5116 C 475.42 0.583386 2.2041 0
M  V30 5117 C 476.404 -0.368776 1.56617 0
M  V30 5118 O 477.596 -0.189471 1.75983 0
M  V30 5119 C 474.725 -0.0626534 3.43243 0
M  V30 5120 C 473.811 0.91205 4.14177 0
M  V30 5121 N 474.202 2.07514 4.61272 0
M  V30 5122 C 472.5 0.735859 4.39888 0
M  V30 5123 C 473.201 2.69003 5.15764 0
M  V30 5124 N 472.177 1.96954 5.06666 0
M  V30 5125 H 475.979 1.46988 2.54503 0
M  V30 5126 H 473.493 0.897785 1.35328 0
M  V30 5127 H 475.49 -0.400653 4.1497 0
M  V30 5128 H 474.15 -0.944813 3.1065 0
M  V30 5129 H 475.161 2.45448 4.56043 0
M  V30 5130 H 471.838 -0.0970656 4.17387 0
M  V30 5131 H 473.228 3.67514 5.6248 0
M  V30 5132 N 475.948 -1.35272 0.808662 0
M  V30 5133 C 477.196 -1.98316 0.389233 0
M  V30 5134 C 477.517 -1.64465 -1.04767 0
M  V30 5135 O 476.787 -0.928175 -1.72516 0
M  V30 5136 H 475.367 -0.733585 0.140935 0
M  V30 5137 H 478.029 -1.6515 1.03496 0
M  V30 5138 H 477.125 -3.08123 0.496631 0
M  V30 5139 N 477.426 -0.562348 -1.47226 0
M  V30 5140 C 478.373 0.182461 -2.30078 0
M  V30 5141 C 479.343 0.903503 -1.39377 0
M  V30 5142 O 480.528 0.898188 -1.68337 0
M  V30 5143 C 477.668 1.20322 -3.23445 0
M  V30 5144 C 476.781 0.487717 -4.29238 0
M  V30 5145 C 475.916 1.49422 -5.09752 0
M  V30 5146 C 474.955 0.763976 -6.07314 0
M  V30 5147 N 474.092 1.71755 -6.80768 0
M  V30 5148 H 478.932 -0.530169 -2.93246 0
M  V30 5149 H 476.469 -0.273276 -1.44539 0
M  V30 5150 H 478.427 1.80768 -3.76004 0
M  V30 5151 H 477.057 1.88382 -2.6213 0
M  V30 5152 H 476.109 -0.231374 -3.79696 0
M  V30 5153 H 477.421 -0.0841003 -4.98729 0
M  V30 5154 H 476.575 2.17206 -5.66486 0
M  V30 5155 H 475.314 2.09995 -4.40174 0
M  V30 5156 H 474.319 0.0722344 -5.49753 0
M  V30 5157 H 475.544 0.16391 -6.78902 0
M  V30 5158 H 473.49 2.31177 -6.13916 0
M  V30 5159 H 473.407 1.19802 -7.46447 0
M  V30 5160 H 474.675 2.38638 -7.42073 0
M  V30 5161 N 478.904 1.54736 -0.299062 0
M  V30 5162 C 479.814 2.27127 0.587413 0
M  V30 5163 C 480.83 1.30575 1.15005 0
M  V30 5164 O 482.006 1.63554 1.17525 0
M  V30 5165 C 479.071 2.99645 1.74395 0
M  V30 5166 C 478.132 4.11731 1.21559 0
M  V30 5167 C 477.365 4.80781 2.317 0
M  V30 5168 O 477.588 4.4918 3.51558 0
M  V30 5169 O 476.522 5.68226 1.98501 0
M  V30 5170 H 480.348 3.037 0.000250109 0
M  V30 5171 H 477.933 1.49256 -0.0655919 0
M  V30 5172 H 479.815 3.45138 2.4178 0
M  V30 5173 H 478.49 2.25969 2.31775 0
M  V30 5174 H 477.397 3.70641 0.507514 0
M  V30 5175 H 478.73 4.87379 0.687233 0
M  V30 5176 N 480.382 0.0267497 1.57577 0
M  V30 5177 C 481.292 -0.971633 2.13533 0
M  V30 5178 C 482.308 -1.35868 1.08701 0
M  V30 5179 O 483.484 -1.44058 1.40746 0
M  V30 5180 C 480.549 -2.23622 2.64941 0
M  V30 5181 C 479.61 -1.90982 3.8448 0
M  V30 5182 C 478.843 -3.11411 4.33427 0
M  V30 5183 O 479.066 -4.23992 3.81558 0
M  V30 5184 O 478 -2.93848 5.25297 0
M  V30 5185 H 481.826 -0.525853 2.99113 0
M  V30 5186 H 479.411 -0.193712 1.48139 0
M  V30 5187 H 481.293 -2.97864 2.98086 0
M  V30 5188 H 479.968 -2.67386 1.82446 0
M  V30 5189 H 478.875 -1.14132 3.56265 0
M  V30 5190 H 480.208 -1.52036 4.6813 0
M  V30 5191 N 481.861 -1.55662 -0.24637 0
M  V30 5192 C 483.11 -1.7672 -0.972254 0
M  V30 5193 C 483.423 -0.59078 -1.86465 0
M  V30 5194 O 484.629 -0.684391 -2.62732 0
M  V30 5195 C 483.085 -3.12869 -1.7788 0
M  V30 5196 C 482.693 -4.38161 -0.933768 0
M  V30 5197 C 484.437 -3.43265 -2.49738 0
M  V30 5198 C 482.344 -5.6534 -1.73623 0
M  V30 5199 H 481.274 -0.658795 -0.366749 0
M  V30 5200 H 483.925 -1.82092 -0.226902 0
M  V30 5201 H 482.307 -3.01606 -2.56612 0
M  V30 5202 H 483.481 -4.60413 -0.188736 0
M  V30 5203 H 481.796 -4.15102 -0.328488 0
M  V30 5204 H 484.393 -4.35501 -3.10231 0
M  V30 5205 H 484.736 -2.64614 -3.2138 0
M  V30 5206 H 485.269 -3.55746 -1.78016 0
M  V30 5207 H 482.008 -6.46814 -1.06354 0
M  V30 5208 H 481.528 -5.47188 -2.45653 0
M  V30 5209 H 483.207 -6.04616 -2.30323 0
M  V30 5210 N 483.339 0.512053 -1.4905 0
M  V30 5211 C 484.286 1.6148 -1.64902 0
M  V30 5212 C 485.256 1.58687 -0.490673 0
M  V30 5213 O 486.441 1.76842 -0.71636 0
M  V30 5214 C 483.581 2.99676 -1.71139 0
M  V30 5215 C 482.694 3.12568 -2.98203 0
M  V30 5216 C 481.829 4.4143 -2.95487 0
M  V30 5217 C 480.868 4.47916 -4.17179 0
M  V30 5218 N 480.005 5.68191 -4.12437 0
M  V30 5219 H 484.845 1.47271 -2.59066 0
M  V30 5220 H 482.382 0.716713 -1.28459 0
M  V30 5221 H 484.34 3.79761 -1.72736 0
M  V30 5222 H 482.97 3.12614 -0.804508 0
M  V30 5223 H 482.022 2.25618 -3.06269 0
M  V30 5224 H 483.334 3.1322 -3.88194 0
M  V30 5225 H 482.488 5.29825 -2.95585 0
M  V30 5226 H 481.227 4.43326 -2.03256 0
M  V30 5227 H 480.232 3.57925 -4.17337 0
M  V30 5228 H 481.457 4.47744 -5.1059 0
M  V30 5229 H 479.403 5.7095 -3.23036 0
M  V30 5230 H 479.32 5.70413 -4.96151 0
M  V30 5231 H 480.588 6.58823 -4.16621 0
M  V30 5232 N 484.817 1.37938 0.762283 0
M  V30 5233 C 486.063 1.33866 1.52341 0
M  V30 5234 C 486.396 -0.0738961 1.94059 0
M  V30 5235 O 485.671 -1.03326 1.64785 0
M  V30 5236 C 485.954 2.28644 2.78197 0
M  V30 5237 C 485.807 3.78722 2.42672 0
M  V30 5238 C 487.126 2.21702 3.80179 0
M  V30 5239 H 484.245 0.487593 0.55265 0
M  V30 5240 H 486.887 1.68717 0.873767 0
M  V30 5241 H 485.037 1.99055 3.33631 0
M  V30 5242 H 486.709 4.18948 1.93081 0
M  V30 5243 H 484.952 3.96827 1.75244 0
M  V30 5244 H 485.623 4.40486 3.3268 0
M  V30 5245 H 488.099 2.47805 3.34263 0
M  V30 5246 H 486.975 2.90143 4.65949 0
M  V30 5247 H 487.236 1.21301 4.25133 0
M  V30 5248 N 486.295 -0.989507 1.22664 0
M  V30 5249 C 487.544 -1.72375 1.04737 0
M  V30 5250 C 487.857 -1.91096 -0.417316 0
M  V30 5251 O 489.063 -2.6188 -0.716334 0
M  V30 5252 C 487.519 -3.10161 1.82561 0
M  V30 5253 C 487.127 -2.99358 3.333 0
M  V30 5254 C 488.871 -3.87607 1.73093 0
M  V30 5255 C 486.778 -4.32319 4.03552 0
M  V30 5256 H 485.708 -0.646326 0.388302 0
M  V30 5257 H 488.359 -1.10437 1.46546 0
M  V30 5258 H 486.741 -3.728 1.33552 0
M  V30 5259 H 487.915 -2.45863 3.89728 0
M  V30 5260 H 486.23 -2.35392 3.43481 0
M  V30 5261 H 488.827 -4.86025 2.22899 0
M  V30 5262 H 489.17 -4.10509 0.691976 0
M  V30 5263 H 489.703 -3.31652 2.19663 0
M  V30 5264 H 486.442 -4.14616 5.07714 0
M  V30 5265 H 485.962 -4.85714 3.51911 0
M  V30 5266 H 487.641 -5.01051 4.09337 0
M  V30 5267 N 487.773 -1.03688 -1.18687 0
M  V30 5268 C 489.184 -0.766488 -1.70241 0
M  V30 5269 C 489.535 0.713052 -1.82784 0
M  V30 5270 O 488.66 1.55529 -1.50465 0
M  V30 5271 C 489.255 -1.38475 -3.09209 0
M  V30 5272 C 487.814 -1.16276 -3.5799 0
M  V30 5273 C 486.961 -1.4778 -2.34641 0
M  V30 5274 H 489.912 -1.20378 -1.03415 0
M  V30 5275 H 489.933 -0.785939 -3.72295 0
M  V30 5276 H 489.445 -2.46157 -3.00048 0
M  V30 5277 H 487.546 -0.104508 -3.72453 0
M  V30 5278 H 487.659 -1.8571 -4.41643 0
M  V30 5279 H 486.023 -0.897366 -2.38368 0
M  V30 5280 H 486.806 -2.56562 -2.28102 0
M  V30 5281 N 489.251 1.34841 -0.815825 0
M  V30 5282 C 490.479 2.0273 -0.413294 0
M  V30 5283 C 490.894 1.61459 0.978599 0
M  V30 5284 O 490.251 0.816584 1.63212 0
M  V30 5285 C 490.302 3.58058 -0.497676 0
M  V30 5286 O 490.023 3.97832 -1.8347 0
M  V30 5287 C 491.524 4.4321 -0.0891339 0
M  V30 5288 H 488.744 0.649956 -0.166728 0
M  V30 5289 H 491.288 1.72267 -1.10201 0
M  V30 5290 H 489.443 3.87136 0.142886 0
M  V30 5291 H 489.857 4.92501 -1.80396 0
M  V30 5292 H 491.331 5.5164 -0.199274 0
M  V30 5293 H 491.808 4.28432 0.966571 0
M  V30 5294 H 492.414 4.19446 -0.703214 0
M  V30 5295 N 490.729 0.570148 1.46925 0
M  V30 5296 C 492.14 0.1402 1.86173 0
M  V30 5297 C 492.491 -1.29347 1.47526 0
M  V30 5298 O 491.616 -1.97508 0.884292 0
M  V30 5299 C 492.211 0.247661 3.37894 0
M  V30 5300 C 490.77 -0.127332 3.76185 0
M  V30 5301 C 489.917 0.589349 2.70965 0
M  V30 5302 H 492.868 0.779117 1.38259 0
M  V30 5303 H 492.889 -0.530341 3.76786 0
M  V30 5304 H 492.401 1.29121 3.65991 0
M  V30 5305 H 490.502 -1.17149 3.53704 0
M  V30 5306 H 490.615 0.240238 4.78497 0
M  V30 5307 H 488.979 0.0309824 2.54681 0
M  V30 5308 H 489.762 1.6343 3.01903 0
M  V30 5309 N 492.207 -1.54576 0.307264 0
M  V30 5310 C 493.432 -2.05139 -0.305379 0
M  V30 5311 C 493.857 -1.18278 -1.46259 0
M  V30 5312 O 493.215 -0.188243 -1.8032 0
M  V30 5313 C 493.263 -3.53066 -0.733283 0
M  V30 5314 O 492.367 -3.69206 -1.83741 0
M  V30 5315 H 491.708 -0.661444 -0.0582105 0
M  V30 5316 H 494.238 -1.99569 0.450931 0
M  V30 5317 H 494.248 -3.95034 -1.02039 0
M  V30 5318 H 492.923 -4.15746 0.113198 0
M  V30 5319 H 491.5 -3.39143 -1.55037 0
M  V30 5320 N 493.685 -0.035106 -1.57561 0
M  V30 5321 C 494.648 0.929819 -2.09492 0
M  V30 5322 C 495.648 1.25026 -1.01119 0
M  V30 5323 O 496.838 1.18961 -1.27255 0
M  V30 5324 C 493.97 2.24457 -2.56577 0
M  V30 5325 H 495.163 0.479935 -2.96035 0
M  V30 5326 H 492.716 0.213033 -1.54841 0
M  V30 5327 H 493.451 2.74061 -1.73382 0
M  V30 5328 H 493.236 2.02508 -3.35757 0
M  V30 5329 H 494.726 2.93607 -2.96959 0
M  V30 5330 N 495.163 1.55791 0.238111 0
M  V30 5331 C 496.44 1.68798 0.98826 0
M  V30 5332 C 496.82 0.577562 2.03045 0
M  V30 5333 O 496.168 -0.41778 2.24648 0
M  V30 5334 C 496.378 3.09454 1.61367 0
M  V30 5335 C 497.726 3.68335 2.11221 0
M  V30 5336 O 498.75 3.1231 1.71292 0
M  V30 5337 O 497.609 4.6657 2.84561 0
M  V30 5338 H 494.703 0.686881 0.460568 0
M  V30 5339 H 497.249 1.68118 0.231202 0
M  V30 5340 H 496.021 3.81726 0.860295 0
M  V30 5341 H 495.644 3.14182 2.4367 0
M  V30 5342 N 496.642 -0.504142 1.49319 0
M  V30 5343 C 497.592 -1.60284 1.62151 0
M  V30 5344 C 498.576 -1.53657 0.477315 0
M  V30 5345 O 499.768 -1.6124 0.730108 0
M  V30 5346 C 496.897 -2.98909 1.68844 0
M  V30 5347 C 495.983 -3.10544 2.8883 0
M  V30 5348 N 496.374 -2.92078 4.12946 0
M  V30 5349 C 494.672 -3.4164 2.86702 0
M  V30 5350 C 495.373 -3.07812 4.93585 0
M  V30 5351 N 494.349 -3.36549 4.26891 0
M  V30 5352 H 498.151 -1.44656 2.55835 0
M  V30 5353 H 495.665 -0.710198 1.46048 0
M  V30 5354 H 497.662 -3.77865 1.76134 0
M  V30 5355 H 496.322 -3.15609 0.762943 0
M  V30 5356 H 497.333 -2.68316 4.42975 0
M  V30 5357 H 494.01 -3.64537 2.03517 0
M  V30 5358 H 495.4 -2.98054 6.02174 0
M  V30 5359 N 498.12 -1.38341 -0.754957 0
M  V30 5360 C 499.366 -1.35678 -1.51536 0
M  V30 5361 C 499.721 0.0533985 -1.92326 0
M  V30 5362 O 499.014 1.01573 -1.6246 0
M  V30 5363 C 499.208 -2.2452 -2.78075 0
M  V30 5364 C 499.037 -3.74035 -2.49655 0
M  V30 5365 C 497.807 -4.43066 -2.42942 0
M  V30 5366 C 500.005 -4.665 -2.16523 0
M  V30 5367 N 497.987 -5.78026 -2.06783 0
M  V30 5368 C 499.358 -5.89962 -1.90644 0
M  V30 5369 C 501.413 -4.54718 -2.02821 0
M  V30 5370 C 500.116 -7.0296 -1.52444 0
M  V30 5371 C 502.142 -5.67618 -1.66023 0
M  V30 5372 C 501.504 -6.90141 -1.41015 0
M  V30 5373 H 497.603 -0.551764 -0.554148 0
M  V30 5374 H 500.187 -1.73716 -0.879258 0
M  V30 5375 H 498.358 -1.88673 -3.39496 0
M  V30 5376 H 500.09 -2.12993 -3.44116 0
M  V30 5377 H 496.845 -3.96264 -2.59367 0
M  V30 5378 H 497.269 -6.49394 -1.91353 0
M  V30 5379 H 501.911 -3.60546 -2.20831 0
M  V30 5380 H 499.629 -7.97051 -1.33174 0
M  V30 5381 H 503.215 -5.6048 -1.56055 0
M  V30 5382 H 502.095 -7.76021 -1.12965 0
M  V30 5383 N 499.598 0.982988 -1.23187 0
M  V30 5384 C 500.561 2.05649 -1.01198 0
M  V30 5385 C 501.561 1.6078 0.0252464 0
M  V30 5386 O 502.751 1.72878 -0.214243 0
M  V30 5387 C 499.883 3.36744 -0.530656 0
M  V30 5388 H 501.076 2.2659 -1.96461 0
M  V30 5389 H 498.629 1.15602 -1.05195 0
M  V30 5390 H 499.364 3.21492 0.425873 0
M  V30 5391 H 499.149 3.7065 -1.2791 0
M  V30 5392 H 500.639 4.15705 -0.397366 0
M  V30 5393 N 501.076 1.04316 1.18135 0
M  V30 5394 C 502.006 0.657299 2.24058 0
M  V30 5395 C 502.987 -0.340678 1.66654 0
M  V30 5396 O 504.172 -0.220223 1.92947 0
M  V30 5397 C 501.302 0.0220715 3.47293 0
M  V30 5398 C 500.256 0.943857 4.17463 0
M  V30 5399 C 499.582 0.172973 5.3442 0
M  V30 5400 C 500.882 2.26409 4.70677 0
M  V30 5401 H 502.576 1.5428 2.56589 0
M  V30 5402 H 500.122 0.743263 1.23335 0
M  V30 5403 H 502.075 -0.259607 4.206 0
M  V30 5404 H 500.799 -0.898323 3.14003 0
M  V30 5405 H 499.458 1.20996 3.46057 0
M  V30 5406 H 499.106 -0.749907 4.97379 0
M  V30 5407 H 498.806 0.787098 5.82304 0
M  V30 5408 H 500.33 -0.101628 6.10515 0
M  V30 5409 H 501.744 2.04294 5.35665 0
M  V30 5410 H 500.141 2.8314 5.29105 0
M  V30 5411 H 501.211 2.90883 3.87962 0
M  V30 5412 N 502.554 -1.34406 0.822964 0
M  V30 5413 C 503.517 -2.2783 0.250271 0
M  V30 5414 C 504.517 -1.50288 -0.571854 0
M  V30 5415 O 505.707 -1.69825 -0.387952 0
M  V30 5416 C 502.839 -3.34663 -0.649137 0
M  V30 5417 H 504.032 -2.79992 1.07444 0
M  V30 5418 H 501.585 -1.44539 0.594829 0
M  V30 5419 H 502.32 -2.87714 -1.49637 0
M  V30 5420 H 502.105 -3.92052 -0.0611199 0
M  V30 5421 H 503.595 -4.04349 -1.04363 0
M  V30 5422 N 504.032 -0.577932 -1.46621 0
M  V30 5423 C 505.257 -0.0652536 -2.07297 0
M  V30 5424 C 505.682 1.22828 -1.4246 0
M  V30 5425 O 505.04 1.74075 -0.506718 0
M  V30 5426 C 505.088 0.0920589 -3.60482 0
M  V30 5427 O 504.192 1.14972 -3.96049 0
M  V30 5428 H 503.533 -0.06065 -0.661224 0
M  V30 5429 H 506.063 -0.799515 -1.88332 0
M  V30 5430 H 506.073 0.299741 -4.06897 0
M  V30 5431 H 504.748 -0.852612 -4.07067 0
M  V30 5432 H 503.325 0.920879 -3.61351 0
M  V30 5433 N 505.51 1.54411 -0.315457 0
M  V30 5434 C 506.758 2.00023 0.288971 0
M  V30 5435 C 507.079 1.20529 1.5329 0
M  V30 5436 O 506.349 0.304986 1.93511 0
M  V30 5437 H 504.929 0.738891 0.109766 0
M  V30 5438 H 507.591 1.90094 -0.430129 0
M  V30 5439 H 506.687 3.07198 0.550999 0
M  V30 5440 N 506.988 0.0434614 1.5754 0
M  V30 5441 C 507.918 -0.931651 2.14109 0
M  V30 5442 C 508.899 -1.32971 1.06079 0
M  V30 5443 O 510.084 -1.40579 1.33982 0
M  V30 5444 C 507.214 -2.20914 2.67982 0
M  V30 5445 C 506.168 -1.95139 3.80926 0
M  V30 5446 C 505.494 -3.29276 4.21285 0
M  V30 5447 C 506.794 -1.27913 5.06395 0
M  V30 5448 H 508.488 -0.460497 2.95837 0
M  V30 5449 H 506.034 -0.220058 1.42309 0
M  V30 5450 H 507.987 -2.89522 3.06194 0
M  V30 5451 H 506.711 -2.70221 1.83434 0
M  V30 5452 H 505.37 -1.28945 3.43175 0
M  V30 5453 H 505.018 -3.76369 3.33699 0
M  V30 5454 H 504.718 -3.12831 4.97404 0
M  V30 5455 H 506.242 -3.99129 4.62091 0
M  V30 5456 H 507.656 -1.86544 5.42102 0
M  V30 5457 H 506.053 -1.2182 5.87605 0
M  V30 5458 H 507.123 -0.254066 4.84234 0
M  V30 5459 N 508.466 -1.55915 -0.229846 0
M  V30 5460 C 509.877 -1.68809 -0.797531 0
M  V30 5461 C 510.228 -0.643995 -1.8533 0
M  V30 5462 O 509.353 0.206492 -2.15413 0
M  V30 5463 C 509.948 -3.06043 -1.45338 0
M  V30 5464 C 508.507 -3.20819 -1.96856 0
M  V30 5465 C 507.654 -2.6472 -0.825736 0
M  V30 5466 H 510.605 -1.58699 -0.00533733 0
M  V30 5467 H 510.626 -3.01438 -2.32196 0
M  V30 5468 H 510.138 -3.82012 -0.684743 0
M  V30 5469 H 508.239 -2.49704 -2.76548 0
M  V30 5470 H 508.352 -4.27937 -2.15423 0
M  V30 5471 H 506.716 -2.22985 -1.23084 0
M  V30 5472 H 507.499 -3.43229 -0.0699019 0
M  V30 5473 N 509.944 0.496216 -1.49584 0
M  V30 5474 C 511.169 1.27865 -1.63295 0
M  V30 5475 C 511.594 1.85592 -0.306156 0
M  V30 5476 O 510.952 1.66092 0.726851 0
M  V30 5477 C 511 2.38128 -2.7079 0
M  V30 5478 O 510.104 3.42108 -2.30296 0
M  V30 5479 H 509.445 0.377279 -0.546403 0
M  V30 5480 H 511.975 0.593497 -1.95803 0
M  V30 5481 H 511.985 2.8382 -2.93104 0
M  V30 5482 H 510.66 1.95479 -3.67098 0
M  V30 5483 H 509.237 3.02301 -2.18331 0
M  V30 5484 N 511.423 1.38739 0.74761 0
M  V30 5485 C 512.653 1.3832 1.53464 0
M  V30 5486 C 513.061 -0.0273464 1.8918 0
M  V30 5487 O 512.404 -1.00588 1.53713 0
M  V30 5488 C 512.466 2.18007 2.85855 0
M  V30 5489 C 512.13 3.66762 2.72644 0
M  V30 5490 C 513.127 4.60124 2.42037 0
M  V30 5491 C 510.812 4.10193 2.89909 0
M  V30 5492 C 512.806 5.94897 2.28859 0
M  V30 5493 C 510.493 5.45045 2.7635 0
M  V30 5494 C 511.491 6.37211 2.45869 0
M  V30 5495 O 511.179 7.69581 2.3238 0
M  V30 5496 H 510.911 0.474718 0.481268 0
M  V30 5497 H 513.465 1.83012 0.932518 0
M  V30 5498 H 511.695 1.68043 3.48279 0
M  V30 5499 H 513.384 2.09921 3.47402 0
M  V30 5500 H 514.15 4.27874 2.28361 0
M  V30 5501 H 510.029 3.38797 3.1263 0
M  V30 5502 H 513.573 6.66802 2.04989 0
M  V30 5503 H 509.47 5.76889 2.89601 0
M  V30 5504 H 510.238 7.80169 2.47546 0
M  V30 5505 N 512.901 -0.976442 1.23707 0
M  V30 5506 C 514.147 -1.72081 1.07312 0
M  V30 5507 C 514.48 -1.90275 -0.388476 0
M  V30 5508 O 513.755 -1.4579 -1.28746 0
M  V30 5509 C 514.038 -3.11675 1.80363 0
M  V30 5510 C 513.891 -3.01027 3.3422 0
M  V30 5511 C 515.21 -4.1117 1.5693 0
M  V30 5512 H 512.329 -0.624583 0.391236 0
M  V30 5513 H 514.971 -1.13649 1.52263 0
M  V30 5514 H 513.121 -3.61559 1.42153 0
M  V30 5515 H 514.793 -2.58637 3.81975 0
M  V30 5516 H 513.036 -2.3744 3.63049 0
M  V30 5517 H 513.707 -3.9988 3.80525 0
M  V30 5518 H 516.183 -3.7011 1.90151 0
M  V30 5519 H 515.059 -5.06928 2.10513 0
M  V30 5520 H 515.32 -4.392 0.505548 0
M  V30 5521 N 514.379 -1.04941 -1.1758 0
M  V30 5522 C 515.342 -0.652456 -2.19717 0
M  V30 5523 C 516.342 0.294745 -1.58076 0
M  V30 5524 O 517.532 0.0789579 -1.74021 0
M  V30 5525 C 514.664 0.0420712 -3.40874 0
M  V30 5526 H 515.857 -1.55642 -2.5635 0
M  V30 5527 H 513.41 -0.842995 -1.31618 0
M  V30 5528 H 514.145 0.95943 -3.09783 0
M  V30 5529 H 513.93 -0.638844 -3.86861 0
M  V30 5530 H 515.42 0.306 -4.16477 0
M  V30 5531 N 515.857 1.33968 -0.830081 0
M  V30 5532 C 516.767 2.33164 -0.259207 0
M  V30 5533 C 517.783 1.62951 0.610164 0
M  V30 5534 O 518.959 1.94668 0.516369 0
M  V30 5535 C 516.024 3.42088 0.563598 0
M  V30 5536 C 515.085 4.28037 -0.329014 0
M  V30 5537 C 514.318 5.3176 0.454616 0
M  V30 5538 O 514.541 5.44876 1.6872 0
M  V30 5539 O 513.475 6.01669 -0.166794 0
M  V30 5540 H 517.301 2.83832 -1.08041 0
M  V30 5541 H 514.886 1.37154 -0.59239 0
M  V30 5542 H 516.768 4.08581 1.03147 0
M  V30 5543 H 515.443 2.93651 1.36201 0
M  V30 5544 H 514.35 3.64443 -0.844538 0
M  V30 5545 H 515.683 4.79934 -1.09196 0
M  V30 5546 N 517.335 0.585699 1.46312 0
M  V30 5547 C 518.56 0.0762461 2.0726 0
M  V30 5548 C 518.985 -1.22071 1.43109 0
M  V30 5549 O 518.343 -1.73804 0.515942 0
M  V30 5550 C 518.391 -0.0729404 3.60526 0
M  V30 5551 O 517.495 -1.1287 3.96654 0
M  V30 5552 H 516.836 0.0641558 0.660893 0
M  V30 5553 H 519.366 0.809492 1.87905 0
M  V30 5554 H 519.376 -0.278158 4.07051 0
M  V30 5555 H 518.051 0.874188 4.06609 0
M  V30 5556 H 516.628 -0.901703 3.61834 0
M  V30 5557 N 518.813 -1.54241 0.323641 0
M  V30 5558 C 520.061 -2.00174 -0.278359 0
M  V30 5559 C 520.382 -1.2134 -1.52648 0
M  V30 5560 O 519.652 -0.315244 -1.93347 0
M  V30 5561 H 518.232 -0.739463 -0.105845 0
M  V30 5562 H 520.894 -1.89864 0.440204 0
M  V30 5563 H 519.99 -3.07486 -0.5347 0
M  V30 5564 N 520.291 -0.0518155 -1.57515 0
M  V30 5565 C 521.538 0.621823 -1.92716 0
M  V30 5566 C 521.866 1.70813 -0.930229 0
M  V30 5567 O 521.121 1.95616 0.0573708 0
M  V30 5568 C 521.42 1.25607 -3.34601 0
M  V30 5569 C 521.086 0.297901 -4.49915 0
M  V30 5570 C 519.748 0.034243 -4.81188 0
M  V30 5571 C 522.1 -0.358738 -5.19964 0
M  V30 5572 C 519.428 -0.893479 -5.79857 0
M  V30 5573 C 521.78 -1.27466 -6.19625 0
M  V30 5574 C 520.444 -1.54698 -6.49326 0
M  V30 5575 H 519.714 0.227541 -0.705199 0
M  V30 5576 H 522.361 -0.118432 -1.91133 0
M  V30 5577 H 520.666 2.07161 -3.32553 0
M  V30 5578 H 522.363 1.78424 -3.59118 0
M  V30 5579 H 518.953 0.513581 -4.25512 0
M  V30 5580 H 523.137 -0.168133 -4.96015 0
M  V30 5581 H 518.393 -1.11193 -6.01204 0
M  V30 5582 H 522.567 -1.78953 -6.73015 0
M  V30 5583 H 520.194 -2.26748 -7.25596 0
M  V30 5584 N 521.769 1.56035 0.221574 0
M  V30 5585 C 523.018 1.78245 0.944016 0
M  V30 5586 C 523.331 0.620371 1.85501 0
M  V30 5587 O 524.537 0.726103 2.6161 0
M  V30 5588 C 522.993 3.15659 1.7288 0
M  V30 5589 C 522.601 4.39591 0.863942 0
M  V30 5590 C 524.345 3.47195 2.44246 0
M  V30 5591 C 522.252 5.6803 1.64607 0
M  V30 5592 H 521.182 0.664547 0.356222 0
M  V30 5593 H 523.833 1.8243 0.197904 0
M  V30 5594 H 522.215 3.0565 2.51781 0
M  V30 5595 H 523.389 4.60655 0.115464 0
M  V30 5596 H 521.704 4.15572 0.262407 0
M  V30 5597 H 524.301 4.40381 3.03263 0
M  V30 5598 H 524.644 2.69693 3.1713 0
M  V30 5599 H 525.177 3.58533 1.72334 0
M  V30 5600 H 521.916 6.48425 0.960507 0
M  V30 5601 H 521.436 5.51027 2.36917 0
M  V30 5602 H 523.115 6.08203 2.20675 0
M  V30 5603 N 523.247 -0.488276 1.49845 0
M  V30 5604 C 524.487 -1.2516 1.61599 0
M  V30 5605 C 524.851 -1.89615 0.301706 0
M  V30 5606 O 526.052 -2.67182 0.29453 0
M  V30 5607 C 524.323 -2.2805 2.75187 0
M  V30 5608 S 525.882 -3.13552 3.0697 0
M  V30 5609 H 522.7 -0.425178 0.569864 0
M  V30 5610 H 525.302 -0.551545 1.87559 0
M  V30 5611 H 524.006 -1.7925 3.69185 0
M  V30 5612 H 523.537 -3.02708 2.5126 0
M  V30 5613 H 525.552 -4.28927 2.49471 0
M  V30 5614 N 524.725 -1.39134 -0.740242 0
M  V30 5615 C 525.673 -1.3757 -1.87556 0
M  V30 5616 C 526.667 -0.259593 -1.67399 0
M  V30 5617 O 527.873 -0.429349 -1.74804 0
M  V30 5618 H 524.248 -0.42947 -0.6173 0
M  V30 5619 H 526.219 -2.33345 -1.85991 0
M  V30 5620 C 524.968 -1.23087 -3.25184 0
M  V30 5621 H 524.291 -2.08237 -3.41288 0
M  V30 5622 H 525.731 -1.26049 -4.0483 0
M  V30 5623 C 524.19 0.0611471 -3.36845 0
M  V30 5624 O 524.72 1.03328 -3.88183 0
M  V30 5625 N 522.926 0.122454 -2.90342 0
M  V30 5626 H 522.473 -0.669329 -2.48752 0
M  V30 5627 H 522.431 0.986463 -2.98523 0
M  V30 5628 N 526.204 0.969867 -1.24223 0
M  V30 5629 C 527.453 1.70687 -1.07466 0
M  V30 5630 C 527.766 1.91736 0.386861 0
M  V30 5631 O 528.972 2.62986 0.674581 0
M  V30 5632 C 527.428 3.07217 -1.87472 0
M  V30 5633 C 527.036 2.94018 -3.3802 0
M  V30 5634 C 528.78 3.84804 -1.79237 0
M  V30 5635 C 526.687 4.25844 -4.10379 0
M  V30 5636 H 525.617 0.640067 -0.398536 0
M  V30 5637 H 528.268 1.08092 -1.48285 0
M  V30 5638 H 526.65 3.70628 -1.39466 0
M  V30 5639 H 527.824 2.39632 -3.9359 0
M  V30 5640 H 526.139 2.29898 -3.47183 0
M  V30 5641 H 528.736 4.82417 -2.30603 0
M  V30 5642 H 529.079 4.09356 -0.757197 0
M  V30 5643 H 529.612 3.28115 -2.24912 0
M  V30 5644 H 526.351 4.06486 -5.14246 0
M  V30 5645 H 525.871 4.80054 -3.59594 0
M  V30 5646 H 527.55 4.94475 -4.17257 0
M  V30 5647 N 527.682 1.05563 1.17022 0
M  V30 5648 C 528.615 0.604197 2.20056 0
M  V30 5649 C 529.593 -0.369169 1.58354 0
M  V30 5650 O 530.777 -0.279898 1.8641 0
M  V30 5651 C 527.904 -0.115265 3.38504 0
M  V30 5652 C 526.95 0.813698 4.18666 0
M  V30 5653 S 527.783 2.30492 4.83357 0
M  V30 5654 C 528.939 1.59674 6.0519 0
M  V30 5655 H 529.172 1.47713 2.58008 0
M  V30 5656 H 526.705 0.867932 1.27696 0
M  V30 5657 H 528.663 -0.524162 4.0714 0
M  V30 5658 H 527.324 -0.964284 2.98932 0
M  V30 5659 H 526.517 0.256736 5.03346 0
M  V30 5660 H 526.119 1.16213 3.55486 0
M  V30 5661 H 528.411 0.898164 6.7152 0
M  V30 5662 H 529.354 2.42115 6.65422 0
M  V30 5663 H 529.762 1.08252 5.54023 0
M  V30 5664 N 529.16 -1.33526 0.837174 0
M  V30 5665 C 530.108 -2.31168 0.257698 0
M  V30 5666 C 531.102 -1.5806 -0.609388 0
M  V30 5667 O 532.308 -1.72941 -0.499139 0
M  V30 5668 H 528.683 -0.74922 0.0646058 0
M  V30 5669 H 530.654 -2.77552 1.09578 0
M  V30 5670 C 529.403 -3.4326 -0.553887 0
M  V30 5671 H 528.726 -3.99665 0.104008 0
M  V30 5672 H 530.166 -4.13782 -0.925219 0
M  V30 5673 C 528.625 -2.88965 -1.73207 0
M  V30 5674 O 529.155 -2.85013 -2.83073 0
M  V30 5675 N 527.361 -2.45596 -1.55342 0
M  V30 5676 H 526.908 -2.49009 -0.659705 0
M  V30 5677 H 526.866 -2.0962 -2.34322 0
M  V30 5678 N 530.638 -0.59345 -1.46 0
M  V30 5679 C 531.601 0.123538 -2.28867 0
M  V30 5680 C 532.601 0.808628 -1.38989 0
M  V30 5681 O 533.791 0.658945 -1.61256 0
M  V30 5682 C 530.923 1.1847 -3.19653 0
M  V30 5683 H 532.116 -0.604843 -2.93737 0
M  V30 5684 H 529.669 -0.351875 -1.52288 0
M  V30 5685 H 530.404 1.94431 -2.59552 0
M  V30 5686 H 530.189 0.69783 -3.8584 0
M  V30 5687 H 531.679 1.68726 -3.81997 0
M  V30 5688 N 532.116 1.54067 -0.331816 0
M  V30 5689 C 533.341 2.05599 0.272705 0
M  V30 5690 C 533.766 1.2059 1.44359 0
M  V30 5691 O 533.124 0.216907 1.79998 0
M  V30 5692 C 533.172 3.54188 0.677021 0
M  V30 5693 O 532.276 3.72082 1.77844 0
M  V30 5694 H 531.617 0.662286 0.0476801 0
M  V30 5695 H 534.147 1.98826 -0.482624 0
M  V30 5696 H 534.157 3.96608 0.957415 0
M  V30 5697 H 532.832 4.15513 -0.179325 0
M  V30 5698 H 531.409 3.41566 1.49622 0
M  V30 5699 N 533.594 0.0601682 1.57485 0
M  V30 5700 C 534.557 -0.896373 2.10945 0
M  V30 5701 C 535.557 -1.23402 1.03095 0
M  V30 5702 O 536.747 -1.16921 1.29132 0
M  V30 5703 C 533.879 -2.20346 2.60116 0
M  V30 5704 H 535.072 -0.432778 2.96761 0
M  V30 5705 H 532.625 -0.188372 1.55161 0
M  V30 5706 H 533.36 -2.71268 1.7772 0
M  V30 5707 H 533.145 -1.9714 3.38937 0
M  V30 5708 H 534.635 -2.88846 3.01592 0
M  V30 5709 N 535.072 -1.5615 -0.213296 0
M  V30 5710 C 536.349 -1.70349 -0.961281 0
M  V30 5711 C 536.729 -0.609791 -2.02101 0
M  V30 5712 O 536.077 0.381987 -2.25285 0
M  V30 5713 C 536.287 -3.11982 -1.56424 0
M  V30 5714 C 537.635 -3.71649 -2.05334 0
M  V30 5715 O 538.659 -3.14995 -1.66302 0
M  V30 5716 O 537.518 -4.71038 -2.77102 0
M  V30 5717 H 534.612 -0.694121 -0.449582 0
M  V30 5718 H 537.158 -1.68464 -0.204426 0
M  V30 5719 H 535.93 -3.83046 -0.799457 0
M  V30 5720 H 535.553 -3.18019 -2.38641 0
M  V30 5721 N 536.55 0.480323 -1.50102 0
M  V30 5722 C 537.46 1.60547 -1.71061 0
M  V30 5723 C 538.476 1.63564 -0.593529 0
M  V30 5724 O 539.652 1.81604 -0.870751 0
M  V30 5725 C 536.717 2.96814 -1.79171 0
M  V30 5726 C 535.778 3.04259 -3.02861 0
M  V30 5727 C 535.011 4.34027 -3.10574 0
M  V30 5728 O 535.234 5.24009 -2.25323 0
M  V30 5729 O 534.168 4.46873 -4.03223 0
M  V30 5730 H 537.994 1.45788 -2.6642 0
M  V30 5731 H 535.579 0.658838 -1.34088 0
M  V30 5732 H 537.461 3.77765 -1.86738 0
M  V30 5733 H 536.136 3.11791 -0.869947 0
M  V30 5734 H 535.043 2.22419 -3.008 0
M  V30 5735 H 536.376 2.94216 -3.94586 0
M  V30 5736 N 538.028 1.39524 0.732853 0
M  V30 5737 C 538.961 1.32806 1.85574 0
M  V30 5738 C 539.939 0.201354 1.61348 0
M  V30 5739 O 541.123 0.38216 1.84585 0
M  V30 5740 C 538.25 1.06271 3.21596 0
M  V30 5741 C 537.296 2.21161 3.64678 0
M  V30 5742 S 538.129 3.83454 3.73796 0
M  V30 5743 C 539.285 3.59149 5.12604 0
M  V30 5744 H 539.518 2.27838 1.9099 0
M  V30 5745 H 537.051 1.25605 0.897927 0
M  V30 5746 H 539.009 0.916461 4.00139 0
M  V30 5747 H 537.67 0.129223 3.13834 0
M  V30 5748 H 536.863 1.98193 4.63396 0
M  V30 5749 H 536.465 2.32 2.93346 0
M  V30 5750 H 538.757 3.16547 5.99003 0
M  V30 5751 H 539.7 4.57335 5.40602 0
M  V30 5752 H 540.108 2.93203 4.82382 0
M  V30 5753 N 539.506 -0.963266 1.24736 0
M  V30 5754 C 540.753 -1.7068 1.0897 0
M  V30 5755 C 541.081 -1.90934 -0.370751 0
M  V30 5756 O 540.336 -1.47155 -1.29011 0
M  V30 5757 C 540.635 -3.09944 1.7796 0
M  V30 5758 C 540.301 -3.09518 3.27887 0
M  V30 5759 C 538.963 -3.09109 3.68789 0
M  V30 5760 C 541.315 -3.03509 4.23712 0
M  V30 5761 C 538.643 -3.00429 5.03944 0
M  V30 5762 C 540.995 -2.96371 5.5888 0
M  V30 5763 C 539.659 -2.94293 5.99123 0
M  V30 5764 H 538.929 -0.624564 0.398749 0
M  V30 5765 H 541.576 -1.12603 1.54896 0
M  V30 5766 H 539.881 -3.71513 1.2444 0
M  V30 5767 H 541.578 -3.66278 1.63222 0
M  V30 5768 H 538.168 -3.10603 2.95337 0
M  V30 5769 H 542.352 -3.0295 3.93109 0
M  V30 5770 H 537.608 -2.97183 5.34314 0
M  V30 5771 H 541.782 -2.90681 6.32833 0
M  V30 5772 H 539.409 -2.87322 7.03811 0
M  V30 5773 N 540.985 -1.06182 -1.16461 0
M  V30 5774 C 541.932 -0.671613 -2.20812 0
M  V30 5775 C 542.902 0.331186 -1.62765 0
M  V30 5776 O 544.087 0.22033 -1.89524 0
M  V30 5777 C 541.227 -0.063029 -3.45042 0
M  V30 5778 C 540.34 -1.11587 -4.1734 0
M  V30 5779 C 539.475 -0.473546 -5.29085 0
M  V30 5780 C 538.514 -1.51 -5.93182 0
M  V30 5781 N 537.651 -0.891118 -6.96422 0
M  V30 5782 H 542.491 -1.56589 -2.53542 0
M  V30 5783 H 540.028 -0.782951 -1.24532 0
M  V30 5784 H 541.986 0.307344 -4.16066 0
M  V30 5785 H 540.616 0.794663 -3.12866 0
M  V30 5786 H 539.668 -1.60396 -3.44931 0
M  V30 5787 H 540.98 -1.90221 -4.61104 0
M  V30 5788 H 540.134 -0.0501432 -6.06679 0
M  V30 5789 H 538.873 0.344687 -4.8648 0
M  V30 5790 H 537.878 -1.94331 -5.14311 0
M  V30 5791 H 539.103 -2.33031 -6.37866 0
M  V30 5792 H 537.049 -0.0935753 -6.55933 0
M  V30 5793 H 536.966 -1.61486 -7.38551 0
M  V30 5794 H 538.234 -0.492822 -7.77941 0
M  V30 5795 N 542.463 1.3308 -0.844243 0
M  V30 5796 C 543.71 1.97605 -0.44255 0
M  V30 5797 C 544.038 1.66856 0.999458 0
M  V30 5798 O 543.293 0.943586 1.7145 0
M  V30 5799 C 543.592 3.52045 -0.616354 0
M  V30 5800 C 543.258 4.02757 -2.02726 0
M  V30 5801 C 541.92 4.16316 -2.41317 0
M  V30 5802 C 544.272 4.29776 -2.9486 0
M  V30 5803 C 541.6 4.54232 -3.71335 0
M  V30 5804 C 543.952 4.69146 -4.24364 0
M  V30 5805 C 542.616 4.80911 -4.62904 0
M  V30 5806 H 541.886 0.723088 -0.161941 0
M  V30 5807 H 544.533 1.58663 -1.0723 0
M  V30 5808 H 542.838 3.91681 0.0966812 0
M  V30 5809 H 544.535 3.99981 -0.285756 0
M  V30 5810 H 541.125 3.9268 -1.71756 0
M  V30 5811 H 545.309 4.18818 -2.6628 0
M  V30 5812 H 540.565 4.61535 -4.00993 0
M  V30 5813 H 544.739 4.89008 -4.95827 0
M  V30 5814 H 542.366 5.10048 -5.63698 0
M  V30 5815 N 543.941 0.601185 1.45683 0
M  V30 5816 C 544.873 -0.159446 2.28645 0
M  V30 5817 C 545.886 -0.837882 1.39583 0
M  V30 5818 O 547.075 -0.704344 1.64016 0
M  V30 5819 C 544.175 -1.24641 3.15147 0
M  V30 5820 C 543.348 -0.656334 4.32448 0
M  V30 5821 C 542.407 -1.63337 5.00208 0
M  V30 5822 O 541.433 -1.16217 5.57209 0
M  V30 5823 N 542.635 -2.96773 4.98905 0
M  V30 5824 H 545.4 0.5524 2.94565 0
M  V30 5825 H 542.961 0.440223 1.558 0
M  V30 5826 H 544.953 -1.8997 3.57342 0
M  V30 5827 H 543.523 -1.86087 2.51178 0
M  V30 5828 H 542.743 0.174879 3.93812 0
M  V30 5829 H 544.031 -0.242211 5.08223 0
M  V30 5830 H 543.429 -3.37662 4.53873 0
M  V30 5831 H 541.986 -3.57541 5.44984 0
M  V30 5832 N 545.419 -1.53889 0.339982 0
M  V30 5833 C 546.329 -2.28604 -0.526988 0
M  V30 5834 C 547.345 -1.33578 -1.11503 0
M  V30 5835 O 548.521 -1.66612 -1.13148 0
M  V30 5836 C 545.586 -3.04164 -1.66389 0
M  V30 5837 C 544.647 -4.14809 -1.10599 0
M  V30 5838 C 543.88 -4.86756 -2.18871 0
M  V30 5839 O 544.103 -4.58343 -3.39526 0
M  V30 5840 O 543.037 -5.73289 -1.83366 0
M  V30 5841 H 546.863 -3.03594 0.0802707 0
M  V30 5842 H 544.448 -1.4903 0.105141 0
M  V30 5843 H 546.33 -3.51427 -2.32544 0
M  V30 5844 H 545.005 -2.32035 -2.25703 0
M  V30 5845 H 543.912 -3.71857 -0.409067 0
M  V30 5846 H 545.245 -4.89029 -0.557771 0
M  V30 5847 N 546.897 -0.0685191 -1.57451 0
M  V30 5848 C 548.145 0.60016 -1.92983 0
M  V30 5849 C 548.466 1.70348 -0.949028 0
M  V30 5850 O 547.736 1.959 0.00335647 0
M  V30 5851 H 546.316 0.224682 -0.712409 0
M  V30 5852 H 548.978 -0.125605 -1.94495 0
M  V30 5853 H 548.074 1.02759 -2.94698 0
M  V30 5854 N 548.375 1.56261 0.205012 0
M  V30 5855 C 549.338 1.92908 1.23771 0
M  V30 5856 C 550.338 0.809208 1.38955 0
M  V30 5857 O 551.528 1.07676 1.36936 0
M  V30 5858 C 548.66 2.19442 2.60879 0
M  V30 5859 H 549.853 2.85287 0.924728 0
M  V30 5860 H 547.406 1.49798 0.446125 0
M  V30 5861 H 548.141 1.29668 2.97248 0
M  V30 5862 H 547.926 3.0104 2.51232 0
M  V30 5863 H 549.416 2.48833 3.35368 0
M  V30 5864 N 549.853 -0.472356 1.50355 0
M  V30 5865 C 550.783 -1.57859 1.72055 0
M  V30 5866 C 551.764 -1.60283 0.569505 0
M  V30 5867 O 552.949 -1.7657 0.808503 0
M  V30 5868 C 550.079 -2.96191 1.81351 0
M  V30 5869 C 549.033 -3.08633 2.96529 0
M  V30 5870 C 548.359 -4.486 2.90968 0
M  V30 5871 C 549.659 -2.85969 4.37057 0
M  V30 5872 H 551.353 -1.39953 2.64676 0
M  V30 5873 H 548.899 -0.671846 1.27367 0
M  V30 5874 H 550.852 -3.73507 1.95117 0
M  V30 5875 H 549.576 -3.15251 0.853502 0
M  V30 5876 H 548.235 -2.33749 2.82413 0
M  V30 5877 H 547.883 -4.64577 1.92815 0
M  V30 5878 H 547.583 -4.57861 3.68289 0
M  V30 5879 H 549.107 -5.27938 3.0678 0
M  V30 5880 H 550.521 -3.53036 4.51706 0
M  V30 5881 H 548.918 -3.06677 5.15819 0
M  V30 5882 H 549.988 -1.81838 4.49514 0
M  V30 5883 N 551.331 -1.39911 -0.725443 0
M  V30 5884 C 552.608 -1.28158 -1.47766 0
M  V30 5885 C 552.988 0.104545 -2.10841 0
M  V30 5886 O 552.336 1.11657 -1.99361 0
M  V30 5887 C 552.546 -2.41306 -2.52135 0
M  V30 5888 C 553.894 -2.81076 -3.18247 0
M  V30 5889 O 554.918 -2.40827 -2.62452 0
M  V30 5890 O 553.777 -3.50581 -4.19231 0
M  V30 5891 H 550.871 -0.502761 -0.656628 0
M  V30 5892 H 553.417 -1.51808 -0.758456 0
M  V30 5893 H 552.189 -3.33932 -2.03974 0
M  V30 5894 H 551.812 -2.19374 -3.31603 0
M  V30 5895 N 552.809 0.956637 -1.25245 0
M  V30 5896 C 554.086 1.67716 -1.00651 0
M  V30 5897 C 554.466 2.0585 0.467866 0
M  V30 5898 O 553.814 1.77029 1.44475 0
M  V30 5899 C 554.024 2.90093 -1.94028 0
M  V30 5900 C 555.372 3.6209 -2.21756 0
M  V30 5901 O 556.396 3.00171 -1.9177 0
M  V30 5902 O 555.255 4.7358 -2.72735 0
M  V30 5903 H 552.349 0.733731 -0.381533 0
M  V30 5904 H 554.895 1.00974 -1.3639 0
M  V30 5905 H 553.667 2.58689 -2.93591 0
M  V30 5906 H 553.29 3.64566 -1.58674 0
M  V30 5907 N 554.287 1.06798 1.15896 0
M  V30 5908 C 555.512 0.808739 1.90982 0
M  V30 5909 C 555.937 -0.6316 1.77179 0
M  V30 5910 O 555.295 -1.4407 1.10061 0
M  V30 5911 C 555.343 1.21468 3.39526 0
M  V30 5912 O 554.447 0.356562 4.10856 0
M  V30 5913 H 553.788 0.29512 0.594811 0
M  V30 5914 H 556.318 1.42513 1.46804 0
M  V30 5915 H 556.328 1.18844 3.90308 0
M  V30 5916 H 555.003 2.26379 3.48891 0
M  V30 5917 H 553.58 0.444808 3.70238 0
M  V30 5918 N 555.766 -1.3263 0.851289 0
M  V30 5919 C 557.014 -1.96978 0.452128 0
M  V30 5920 C 557.335 -1.67715 -0.99482 0
M  V30 5921 O 556.605 -0.98259 -1.69476 0
M  V30 5922 H 555.185 -0.72873 0.164202 0
M  V30 5923 H 557.847 -1.61774 1.08698 0
M  V30 5924 H 556.943 -3.06387 0.594407 0
M  V30 5925 N 557.244 -0.608902 -1.45362 0
M  V30 5926 C 558.49 -0.113196 -2.03085 0
M  V30 5927 C 558.845 1.24288 -1.46868 0
M  V30 5928 O 558.138 1.80792 -0.634402 0
M  V30 5929 C 558.332 -0.0167296 -3.57396 0
M  V30 5930 C 558.161 -1.36191 -4.28581 0
M  V30 5931 C 556.931 -1.94295 -4.66452 0
M  V30 5932 C 559.129 -2.29097 -4.60455 0
M  V30 5933 N 557.111 -3.2228 -5.22503 0
M  V30 5934 C 558.482 -3.41681 -5.17353 0
M  V30 5935 C 560.537 -2.28453 -4.42395 0
M  V30 5936 C 559.24 -4.53789 -5.58093 0
M  V30 5937 C 561.266 -3.39608 -4.8417 0
M  V30 5938 C 560.628 -4.50915 -5.41161 0
M  V30 5939 H 556.727 -0.0848213 -0.777386 0
M  V30 5940 H 559.311 -0.807541 -1.77163 0
M  V30 5941 H 557.482 0.646839 -3.82976 0
M  V30 5942 H 559.214 0.485757 -4.01774 0
M  V30 5943 H 555.969 -1.47486 -4.5005 0
M  V30 5944 H 556.393 -3.87654 -5.55025 0
M  V30 5945 H 561.035 -1.43658 -3.97646 0
M  V30 5946 H 558.753 -5.39307 -6.01808 0
M  V30 5947 H 562.339 -3.40259 -4.71927 0
M  V30 5948 H 561.219 -5.35505 -5.72891 0
M  V30 5949 N 558.722 1.53707 -0.348139 0
M  V30 5950 C 559.652 2.28111 0.498766 0
M  V30 5951 C 560.633 1.29851 1.09876 0
M  V30 5952 O 561.818 1.587 1.11928 0
M  V30 5953 C 558.948 3.05735 1.64753 0
M  V30 5954 C 557.902 4.11537 1.17565 0
M  V30 5955 C 557.228 4.77142 2.4133 0
M  V30 5956 C 558.528 5.21587 0.272844 0
M  V30 5957 H 560.222 2.99152 -0.121934 0
M  V30 5958 H 557.768 1.43875 -0.0600842 0
M  V30 5959 H 559.721 3.56526 2.24649 0
M  V30 5960 H 558.445 2.32354 2.2952 0
M  V30 5961 H 557.104 3.61665 0.599483 0
M  V30 5962 H 556.752 4.0035 3.04514 0
M  V30 5963 H 556.452 5.48626 2.10436 0
M  V30 5964 H 557.976 5.30719 3.01943 0
M  V30 5965 H 559.39 5.67986 0.778779 0
M  V30 5966 H 557.787 6.00074 0.0555849 0
M  V30 5967 H 558.857 4.79969 -0.689785 0
M  V30 5968 N 560.2 0.0768682 1.57412 0
M  V30 5969 C 561.449 -0.590679 1.92857 0
M  V30 5970 C 561.762 -1.70461 0.959293 0
M  V30 5971 O 562.968 -2.43207 1.20675 0
M  V30 5972 C 561.424 -1.10204 3.42612 0
M  V30 5973 C 561.032 -0.0188447 4.47996 0
M  V30 5974 C 562.776 -1.74336 3.87049 0
M  V30 5975 C 560.683 -0.544536 5.88888 0
M  V30 5976 H 559.613 -0.224411 0.71983 0
M  V30 5977 H 562.264 0.149924 1.82887 0
M  V30 5978 H 560.646 -1.89577 3.47673 0
M  V30 5979 H 561.82 0.755936 4.54557 0
M  V30 5980 H 560.135 0.526555 4.13057 0
M  V30 5981 H 562.732 -2.14708 4.89699 0
M  V30 5982 H 563.075 -2.60537 3.24694 0
M  V30 5983 H 563.608 -1.01577 3.84613 0
M  V30 5984 H 560.347 0.280426 6.549 0
M  V30 5985 H 559.867 -1.28673 5.85836 0
M  V30 5986 H 561.546 -1.01933 6.3892 0
M  V30 5987 N 561.678 -1.56367 -0.196722 0
M  V30 5988 C 562.625 -1.94417 -1.24382 0
M  V30 5989 C 563.595 -0.804543 -1.45315 0
M  V30 5990 O 564.78 -1.06256 -1.58475 0
M  V30 5991 C 561.92 -2.28757 -2.58388 0
M  V30 5992 C 561.033 -3.55775 -2.45047 0
M  V30 5993 C 560.168 -3.79445 -3.71746 0
M  V30 5994 C 559.207 -4.99894 -3.53231 0
M  V30 5995 N 558.344 -5.19826 -4.71938 0
M  V30 5996 H 563.184 -2.83691 -0.912338 0
M  V30 5997 H 560.721 -1.40392 -0.439135 0
M  V30 5998 H 562.679 -2.46682 -3.36457 0
M  V30 5999 H 561.309 -1.42625 -2.89582 0
M  V30 6000 H 560.361 -3.45905 -1.58284 0
M  V30 6001 H 561.673 -4.44 -2.27299 0
M  V30 6002 H 560.827 -3.97601 -4.58256 0
M  V30 6003 H 559.566 -2.89546 -3.92446 0
M  V30 6004 H 558.571 -4.81662 -2.65107 0
M  V30 6005 H 559.796 -5.913 -3.33978 0
M  V30 6006 H 557.742 -4.32875 -4.92905 0
M  V30 6007 H 557.659 -6.02228 -4.57009 0
M  V30 6008 H 558.927 -5.42439 -5.59803 0
M  V30 6009 N 563.156 0.464375 -1.50603 0
M  V30 6010 C 564.104 1.58224 -1.70493 0
M  V30 6011 C 565.098 1.59492 -0.570836 0
M  V30 6012 O 566.304 1.63561 -0.751517 0
M  V30 6013 H 562.679 0.525161 -0.538247 0
M  V30 6014 H 564.65 1.38613 -2.64252 0
M  V30 6015 C 563.399 2.96113 -1.82243 0
M  V30 6016 H 562.722 2.95858 -2.68901 0
M  V30 6017 H 564.162 3.73769 -2.00182 0
M  V30 6018 C 562.621 3.31946 -0.575628 0
M  V30 6019 O 563.151 4.00708 0.282152 0
M  V30 6020 N 561.357 2.87436 -0.427665 0
M  V30 6021 H 560.904 2.31652 -1.12674 0
M  V30 6022 H 560.862 3.11776 0.405379 0
M  V30 6023 N 564.634 1.40294 0.718013 0
M  V30 6024 C 565.88 1.38645 1.48005 0
M  V30 6025 C 566.213 -0.0121202 1.94196 0
M  V30 6026 O 565.488 -0.980309 1.67989 0
M  V30 6027 C 565.771 2.37379 2.70782 0
M  V30 6028 C 565.624 3.8625 2.30501 0
M  V30 6029 C 566.943 2.33685 3.72933 0
M  V30 6030 H 564.062 0.504928 0.536858 0
M  V30 6031 H 566.704 1.71411 0.819649 0
M  V30 6032 H 564.854 2.09568 3.27129 0
M  V30 6033 H 566.526 4.24879 1.79655 0
M  V30 6034 H 564.769 4.02202 1.6253 0
M  V30 6035 H 565.44 4.50847 3.18498 0
M  V30 6036 H 567.916 2.58314 3.2621 0
M  V30 6037 H 566.792 3.0482 4.56482 0
M  V30 6038 H 567.053 1.34765 4.21059 0
M  V30 6039 N 566.112 -0.949982 1.2575 0
M  V30 6040 C 567.042 -2.06483 1.09028 0
M  V30 6041 C 568.023 -1.701 -0.00201532 0
M  V30 6042 O 569.208 -1.93469 0.168383 0
M  V30 6043 C 566.338 -3.39899 0.71316 0
M  V30 6044 C 565.292 -3.90309 1.75621 0
M  V30 6045 C 564.618 -5.20274 1.23365 0
M  V30 6046 C 565.918 -4.16169 3.15596 0
M  V30 6047 H 567.612 -2.20731 2.02283 0
M  V30 6048 H 565.158 -1.06066 0.973964 0
M  V30 6049 H 567.111 -4.17346 0.58309 0
M  V30 6050 H 565.835 -3.25602 -0.255091 0
M  V30 6051 H 564.494 -3.15035 1.8748 0
M  V30 6052 H 564.142 -5.02351 0.255491 0
M  V30 6053 H 563.842 -5.54971 1.93082 0
M  V30 6054 H 565.366 -6.00314 1.11607 0
M  V30 6055 H 566.78 -4.84259 3.06864 0
M  V30 6056 H 565.177 -4.62131 3.82825 0
M  V30 6057 H 566.247 -3.22273 3.6231 0
M  V30 6058 N 567.59 -1.07411 -1.15328 0
M  V30 6059 C 568.815 -0.818856 -1.90551 0
M  V30 6060 C 569.24 0.622194 -1.77512 0
M  V30 6061 O 568.598 1.43484 -1.10824 0
M  V30 6062 C 568.646 -1.23267 -3.38877 0
M  V30 6063 O 567.75 -0.378345 -4.10661 0
M  V30 6064 H 567.091 -0.29827 -0.593238 0
M  V30 6065 H 569.621 -1.43289 -1.46046 0
M  V30 6066 H 569.631 -1.20912 -3.89672 0
M  V30 6067 H 568.306 -2.28226 -3.47686 0
M  V30 6068 H 566.883 -0.464437 -3.69996 0
M  V30 6069 N 569.068 1.32177 -0.85831 0
M  V30 6070 C 570.001 2.26823 -0.25035 0
M  V30 6071 C 570.979 1.50571 0.61378 0
M  V30 6072 O 572.163 1.79682 0.569777 0
M  V30 6073 C 569.29 3.32472 0.646556 0
M  V30 6074 C 568.336 4.26255 -0.144675 0
M  V30 6075 S 569.169 5.13608 -1.5155 0
M  V30 6076 C 570.325 6.22778 -0.624408 0
M  V30 6077 H 570.558 2.7804 -1.05267 0
M  V30 6078 H 568.091 1.39764 -0.656152 0
M  V30 6079 H 570.049 3.93817 1.15837 0
M  V30 6080 H 568.71 2.80031 1.42272 0
M  V30 6081 H 567.903 5.01114 0.538613 0
M  V30 6082 H 567.505 3.69346 -0.588198 0
M  V30 6083 H 569.797 6.77287 0.169846 0
M  V30 6084 H 570.74 6.95233 -1.34376 0
M  V30 6085 H 571.148 5.64156 -0.197128 0
M  V30 6086 N 570.547 0.616602 1.45037 0
M  V30 6087 C 571.958 0.199359 1.85633 0
M  V30 6088 C 572.309 -1.24588 1.51566 0
M  V30 6089 O 571.434 -1.94594 0.94668 0
M  V30 6090 C 572.029 0.355033 3.36935 0
M  V30 6091 C 570.588 -0.00758748 3.76399 0
M  V30 6092 C 569.735 0.675256 2.68953 0
M  V30 6093 H 572.686 0.822708 1.3571 0
M  V30 6094 H 572.707 -0.410201 3.78282 0
M  V30 6095 H 572.219 1.40699 3.61698 0
M  V30 6096 H 570.32 -1.05837 3.57252 0
M  V30 6097 H 570.433 0.392346 4.77491 0
M  V30 6098 H 568.797 0.111992 2.54454 0
M  V30 6099 H 569.58 1.72952 2.96551 0
M  V30 6100 N 572.025 -1.5352 0.356285 0
M  V30 6101 C 573.274 -2.00298 -0.237373 0
M  V30 6102 C 573.587 -1.24784 -1.50627 0
M  V30 6103 O 574.793 -1.62103 -2.17795 0
M  V30 6104 C 573.249 -3.56771 -0.473545 0
M  V30 6105 C 572.857 -4.41154 0.780183 0
M  V30 6106 C 574.601 -4.1193 -1.02537 0
M  V30 6107 C 572.508 -5.89161 0.514108 0
M  V30 6108 H 571.438 -0.748307 -0.092478 0
M  V30 6109 H 574.089 -1.77283 0.473588 0
M  V30 6110 H 572.471 -3.75902 -1.24553 0
M  V30 6111 H 573.645 -4.33797 1.55425 0
M  V30 6112 H 571.96 -3.97052 1.25455 0
M  V30 6113 H 574.557 -5.20133 -1.2396 0
M  V30 6114 H 574.9 -3.65943 -1.98473 0
M  V30 6115 H 575.433 -3.96561 -0.313775 0
M  V30 6116 H 572.172 -6.39408 1.44355 0
M  V30 6117 H 571.692 -5.9939 -0.221632 0
M  V30 6118 H 573.371 -6.46857 0.136122 0
M  V30 6119 N 573.503 -0.0852151 -1.57369 0
M  V30 6120 C 574.749 0.581666 -1.94279 0
M  V30 6121 C 575.082 1.68444 -0.966446 0
M  V30 6122 O 574.357 1.945 0.00215277 0
M  V30 6123 C 574.64 1.14609 -3.41375 0
M  V30 6124 C 574.493 0.0490414 -4.49773 0
M  V30 6125 C 575.812 2.04751 -3.8957 0
M  V30 6126 H 572.931 0.209972 -0.706456 0
M  V30 6127 H 575.573 -0.153915 -1.89376 0
M  V30 6128 H 573.723 1.77297 -3.45685 0
M  V30 6129 H 575.395 -0.584721 -4.57579 0
M  V30 6130 H 573.638 -0.618638 -4.29366 0
M  V30 6131 H 574.309 0.484601 -5.49869 0
M  V30 6132 H 576.785 1.51981 -3.87351 0
M  V30 6133 H 575.661 2.41173 -4.93079 0
M  V30 6134 H 575.922 2.96107 -3.28288 0
M  V30 6135 N 574.981 1.5647 0.188427 0
M  V30 6136 C 575.929 1.95971 1.25293 0
M  V30 6137 C 576.923 0.846047 1.4676 0
M  V30 6138 O 578.129 1.03109 1.47542 0
M  V30 6139 H 574.504 0.623253 0.420784 0
M  V30 6140 H 576.475 2.84731 0.892792 0
M  V30 6141 C 575.224 2.32116 2.58877 0
M  V30 6142 H 574.547 3.17341 2.43176 0
M  V30 6143 H 575.987 2.63613 3.3209 0
M  V30 6144 C 574.446 1.15823 3.16365 0
M  V30 6145 O 574.976 0.436785 3.99318 0
M  V30 6146 N 573.182 0.933278 2.75206 0
M  V30 6147 H 572.729 1.52169 2.07852 0
M  V30 6148 H 572.687 0.156976 3.14008 0
M  V30 6149 N 576.459 -0.456382 1.50847 0
M  V30 6150 C 577.406 -1.55249 1.70782 0
M  V30 6151 C 578.376 -1.56757 0.549231 0
M  V30 6152 O 579.561 -1.74061 0.7815 0
M  V30 6153 C 576.701 -2.93118 1.82143 0
M  V30 6154 C 575.814 -3.01285 3.09598 0
M  V30 6155 C 574.949 -4.30159 3.11667 0
M  V30 6156 C 573.988 -4.32124 4.33515 0
M  V30 6157 N 573.125 -5.52492 4.3324 0
M  V30 6158 H 577.965 -1.37555 2.64353 0
M  V30 6159 H 575.502 -0.668543 1.3103 0
M  V30 6160 H 577.46 -3.73088 1.86711 0
M  V30 6161 H 576.09 -3.09413 0.919978 0
M  V30 6162 H 575.142 -2.14096 3.14431 0
M  V30 6163 H 576.454 -2.98597 3.99551 0
M  V30 6164 H 575.608 -5.18489 3.15046 0
M  V30 6165 H 574.347 -4.35477 2.1957 0
M  V30 6166 H 573.352 -3.42189 4.30333 0
M  V30 6167 H 574.577 -4.28485 5.26856 0
M  V30 6168 H 572.523 -5.58567 3.44004 0
M  V30 6169 H 572.44 -5.51605 5.16979 0
M  V30 6170 H 573.708 -6.42906 4.40786 0
M  V30 6171 N 577.937 -1.40673 -0.710563 0
M  V30 6172 C 578.884 -1.41336 -1.82463 0
M  V30 6173 C 579.854 -0.269648 -1.63897 0
M  V30 6174 O 581.039 -0.468463 -1.8496 0
M  V30 6175 C 578.179 -1.28665 -3.20218 0
M  V30 6176 C 577.292 -2.52784 -3.5032 0
M  V30 6177 C 576.427 -2.32517 -4.77608 0
M  V30 6178 C 575.466 -3.52187 -5.0063 0
M  V30 6179 N 574.603 -3.31084 -6.19135 0
M  V30 6180 H 579.443 -2.36558 -1.8123 0
M  V30 6181 H 576.98 -1.17483 -0.885226 0
M  V30 6182 H 578.938 -1.19324 -3.99772 0
M  V30 6183 H 577.568 -0.370602 -3.20666 0
M  V30 6184 H 576.62 -2.72634 -2.65283 0
M  V30 6185 H 577.932 -3.41845 -3.63241 0
M  V30 6186 H 577.086 -2.20558 -5.65189 0
M  V30 6187 H 575.825 -1.40889 -4.66906 0
M  V30 6188 H 574.83 -3.64617 -4.11502 0
M  V30 6189 H 576.055 -4.44749 -5.13201 0
M  V30 6190 H 574.001 -2.42143 -6.09674 0
M  V30 6191 H 573.918 -4.13713 -6.32754 0
M  V30 6192 H 575.186 -3.22868 -7.0949 0
M  V30 6193 N 579.415 0.9433 -1.26252 0
M  V30 6194 C 580.325 2.07532 -1.09397 0
M  V30 6195 C 581.341 1.73977 -0.0280449 0
M  V30 6196 O 582.517 2.00067 -0.231337 0
M  V30 6197 C 579.582 3.39002 -0.726523 0
M  V30 6198 C 578.643 3.86353 -1.87163 0
M  V30 6199 C 577.876 5.11549 -1.52162 0
M  V30 6200 O 578.099 5.68834 -0.422385 0
M  V30 6201 O 577.033 5.53889 -2.35565 0
M  V30 6202 H 580.859 2.24658 -2.04359 0
M  V30 6203 H 578.444 1.05988 -1.05295 0
M  V30 6204 H 580.326 4.18 -0.534236 0
M  V30 6205 H 579.001 3.2312 0.193721 0
M  V30 6206 H 577.908 3.0831 -2.11886 0
M  V30 6207 H 579.241 4.06752 -2.77152 0
M  V30 6208 N 580.893 1.08022 1.14757 0
M  V30 6209 C 581.803 0.718292 2.23333 0
M  V30 6210 C 582.819 -0.273477 1.71837 0
M  V30 6211 O 583.995 -0.118406 2.01052 0
M  V30 6212 C 581.06 0.128855 3.4646 0
M  V30 6213 C 580.121 1.17473 4.12915 0
M  V30 6214 C 579.354 0.61333 5.30164 0
M  V30 6215 O 579.577 -0.568458 5.6756 0
M  V30 6216 O 578.511 1.3615 5.86299 0
M  V30 6217 H 582.337 1.62394 2.56636 0
M  V30 6218 H 579.922 0.853628 1.22611 0
M  V30 6219 H 581.804 -0.197249 4.20938 0
M  V30 6220 H 580.479 -0.750014 3.14891 0
M  V30 6221 H 579.386 1.5533 3.40328 0
M  V30 6222 H 580.719 2.02574 4.48581 0
M  V30 6223 N 582.371 -1.3172 0.865308 0
M  V30 6224 C 583.62 -1.96145 0.470098 0
M  V30 6225 C 583.933 -1.69182 -0.981674 0
M  V30 6226 O 585.139 -2.27431 -1.48281 0
M  V30 6227 C 583.595 -3.51129 0.789732 0
M  V30 6228 C 583.203 -3.86938 2.25795 0
M  V30 6229 C 584.947 -4.2197 0.462765 0
M  V30 6230 C 582.854 -5.35012 2.52024 0
M  V30 6231 H 581.784 -0.734105 0.172065 0
M  V30 6232 H 584.435 -1.49959 1.05757 0
M  V30 6233 H 582.817 -3.95781 0.131571 0
M  V30 6234 H 583.991 -3.5326 2.95879 0
M  V30 6235 H 582.306 -3.29149 2.55049 0
M  V30 6236 H 584.903 -5.30904 0.636019 0
M  V30 6237 H 585.246 -4.12005 -0.59645 0
M  V30 6238 H 585.779 -3.82936 1.07727 0
M  V30 6239 H 582.518 -5.50008 3.56611 0
M  V30 6240 H 582.038 -5.70058 1.8653 0
M  V30 6241 H 583.717 -6.0222 2.36515 0
M  V30 6242 N 583.85 -0.624285 -1.44708 0
M  V30 6243 C 585.096 -0.126237 -2.02407 0
M  V30 6244 C 585.428 1.24618 -1.48943 0
M  V30 6245 O 584.704 1.82569 -0.670742 0
M  V30 6246 C 584.986 -0.105449 -3.59946 0
M  V30 6247 C 584.84 -1.50972 -4.23707 0
M  V30 6248 C 586.159 0.573629 -4.36346 0
M  V30 6249 H 583.278 -0.0473472 -0.735478 0
M  V30 6250 H 585.92 -0.799452 -1.72362 0
M  V30 6251 H 584.07 0.46783 -3.85673 0
M  V30 6252 H 585.742 -2.13136 -4.0911 0
M  V30 6253 H 583.985 -2.0656 -3.81465 0
M  V30 6254 H 584.656 -1.44727 -5.32689 0
M  V30 6255 H 587.132 0.0861787 -4.16011 0
M  V30 6256 H 586.008 0.557338 -5.46063 0
M  V30 6257 H 586.269 1.64276 -4.10446 0
M  V30 6258 N 585.328 1.53329 -0.364422 0
M  V30 6259 C 586.576 2.00842 0.225189 0
M  V30 6260 C 586.897 1.25345 1.49378 0
M  V30 6261 O 586.167 0.366396 1.92443 0
M  V30 6262 H 584.747 0.742009 0.0862027 0
M  V30 6263 H 587.409 1.8863 -0.490389 0
M  V30 6264 H 586.505 3.08795 0.452987 0
M  V30 6265 N 586.806 0.0935595 1.57322 0
M  V30 6266 C 588.052 -0.571355 1.94585 0
M  V30 6267 C 588.385 -1.67929 0.975366 0
M  V30 6268 O 587.66 -1.94498 0.00816206 0
M  V30 6269 C 587.943 -1.12797 3.41978 0
M  V30 6270 C 587.796 -0.0251881 4.49793 0
M  V30 6271 C 589.115 -2.02682 3.90651 0
M  V30 6272 H 586.234 -0.206223 0.70756 0
M  V30 6273 H 588.876 0.163956 1.89291 0
M  V30 6274 H 587.026 -1.75461 3.4662 0
M  V30 6275 H 588.698 0.608979 4.57263 0
M  V30 6276 H 586.941 0.641399 4.29032 0
M  V30 6277 H 587.612 -0.455433 5.50118 0
M  V30 6278 H 590.088 -1.49925 3.88152 0
M  V30 6279 H 588.964 -2.38555 4.94351 0
M  V30 6280 H 589.225 -2.94362 3.29854 0
M  V30 6281 N 588.284 -1.56567 -0.180126 0
M  V30 6282 C 589.247 -1.94852 -1.20686 0
M  V30 6283 C 590.247 -0.831212 -1.3765 0
M  V30 6284 O 591.437 -1.09841 -1.35206 0
M  V30 6285 C 588.569 -2.23565 -2.57355 0
M  V30 6286 H 589.762 -2.86722 -0.879225 0
M  V30 6287 H 587.315 -1.50489 -0.422237 0
M  V30 6288 H 588.05 -1.34381 -2.95148 0
M  V30 6289 H 587.835 -3.04999 -2.46411 0
M  V30 6290 H 589.325 -2.54137 -3.31367 0
M  V30 6291 N 589.762 0.448376 -1.51087 0
M  V30 6292 C 590.99 1.22143 -1.66999 0
M  V30 6293 C 591.405 1.85283 -0.362699 0
M  V30 6294 O 590.762 1.70236 0.65772 0
M  V30 6295 C 590.813 2.31357 -2.7777 0
M  V30 6296 O 590.534 1.70801 -4.03434 0
M  V30 6297 C 592.035 3.21836 -3.04855 0
M  V30 6298 H 589.255 0.368558 -0.560719 0
M  V30 6299 H 591.799 0.532618 -1.97442 0
M  V30 6300 H 589.954 2.95973 -2.49958 0
M  V30 6301 H 590.368 2.42895 -4.64868 0
M  V30 6302 H 591.842 3.94627 -3.85971 0
M  V30 6303 H 592.319 3.81949 -2.16821 0
M  V30 6304 H 592.925 2.62933 -3.34285 0
M  V30 6305 N 591.24 1.41047 0.703093 0
M  V30 6306 C 592.487 1.4 1.46309 0
M  V30 6307 C 592.815 0.00654574 1.94499 0
M  V30 6308 O 592.07 -0.980255 1.6938 0
M  V30 6309 C 592.369 2.34686 2.6955 0
M  V30 6310 C 592.035 3.81684 2.40058 0
M  V30 6311 C 590.697 4.21731 2.31725 0
M  V30 6312 C 593.049 4.74525 2.15581 0
M  V30 6313 C 590.377 5.52637 1.97001 0
M  V30 6314 C 592.729 6.05744 1.82366 0
M  V30 6315 C 591.393 6.44819 1.72524 0
M  V30 6316 H 590.663 0.512295 0.535382 0
M  V30 6317 H 593.31 1.73792 0.804275 0
M  V30 6318 H 591.615 1.94122 3.40329 0
M  V30 6319 H 593.312 2.31152 3.27673 0
M  V30 6320 H 589.902 3.49963 2.47435 0
M  V30 6321 H 594.086 4.44395 2.20968 0
M  V30 6322 H 589.342 5.81802 1.87928 0
M  V30 6323 H 593.516 6.77189 1.62444 0
M  V30 6324 H 591.143 7.46168 1.45385 0
M  V30 6325 N 592.718 -0.936591 1.26751 0
M  V30 6326 C 593.948 -1.71509 1.15188 0
M  V30 6327 C 594.356 -1.86885 -0.295037 0
M  V30 6328 O 593.699 -1.37915 -1.21347 0
M  V30 6329 C 593.761 -3.13853 1.75318 0
M  V30 6330 C 593.425 -3.21845 3.24445 0
M  V30 6331 C 594.422 -3.04771 4.21201 0
M  V30 6332 C 592.107 -3.45088 3.64992 0
M  V30 6333 C 594.101 -3.10816 5.56482 0
M  V30 6334 C 591.788 -3.50767 5.00405 0
M  V30 6335 C 592.786 -3.33648 5.9596 0
M  V30 6336 O 592.474 -3.39045 7.28906 0
M  V30 6337 H 592.206 -0.543658 0.401761 0
M  V30 6338 H 594.76 -1.18234 1.67958 0
M  V30 6339 H 592.99 -3.6857 1.17016 0
M  V30 6340 H 594.679 -3.73634 1.58596 0
M  V30 6341 H 595.445 -2.86665 3.91214 0
M  V30 6342 H 591.324 -3.57467 2.91098 0
M  V30 6343 H 594.868 -2.97372 6.31043 0
M  V30 6344 H 590.765 -3.68396 5.30052 0
M  V30 6345 H 591.533 -3.55558 7.37238 0
M  V30 6346 N 594.196 -1.08629 -1.14182 0
M  V30 6347 C 595.144 -0.71284 -2.21408 0
M  V30 6348 C 596.138 0.282457 -1.67029 0
M  V30 6349 O 597.344 0.144783 -1.79417 0
M  V30 6350 H 593.719 -0.212497 -0.721352 0
M  V30 6351 H 595.69 -1.6265 -2.50175 0
M  V30 6352 C 594.439 -0.140704 -3.47415 0
M  V30 6353 H 593.762 -0.897739 -3.8959 0
M  V30 6354 H 595.202 0.0827677 -4.23919 0
M  V30 6355 C 593.661 1.122 -3.17668 0
M  V30 6356 O 594.191 2.20652 -3.35672 0
M  V30 6357 N 592.397 1.03328 -2.71609 0
M  V30 6358 H 591.944 0.150666 -2.57159 0
M  V30 6359 H 591.902 1.8789 -2.52081 0
M  V30 6360 N 595.674 1.31259 -0.872281 0
M  V30 6361 C 597.09 1.49283 -0.564521 0
M  V30 6362 C 597.29 1.80243 0.900807 0
M  V30 6363 O 596.346 1.88246 1.68284 0
M  V30 6364 C 597.659 2.62503 -1.46673 0
M  V30 6365 C 599.207 2.76386 -1.46901 0
M  V30 6366 C 599.682 3.92705 -2.35684 0
M  V30 6367 N 601.173 3.99995 -2.33577 0
M  V30 6368 C 601.908 4.89276 -2.98992 0
M  V30 6369 N 601.404 5.83443 -3.73585 0
M  V30 6370 N 603.197 4.82541 -2.88289 0
M  V30 6371 H 595.348 1.09432 -1.82039 0
M  V30 6372 H 597.611 0.540949 -0.77851 0
M  V30 6373 H 597.317 2.46407 -2.50951 0
M  V30 6374 H 597.191 3.58695 -1.16696 0
M  V30 6375 H 599.578 2.91894 -0.433796 0
M  V30 6376 H 599.659 1.80853 -1.80903 0
M  V30 6377 H 599.303 3.77954 -3.39283 0
M  V30 6378 H 599.233 4.87549 -1.99006 0
M  V30 6379 H 601.724 3.32624 -1.7936 0
M  V30 6380 H 602.037 6.48303 -4.20622 0
M  V30 6381 H 600.382 5.83415 -3.77694 0
M  V30 6382 H 603.573 4.07951 -2.2955 0
M  V30 6383 H 603.746 5.51916 -3.39549 0
M  V30 6384 N 597.152 0.631951 1.44375 0
M  V30 6385 C 598.099 -0.0724807 2.30686 0
M  V30 6386 C 599.069 -0.835975 1.43529 0
M  V30 6387 O 600.254 -0.816849 1.7243 0
M  V30 6388 C 597.394 -1.04753 3.28817 0
M  V30 6389 C 596.507 -0.282367 4.31076 0
M  V30 6390 C 595.642 -1.2493 5.163 0
M  V30 6391 C 594.681 -0.473349 6.10267 0
M  V30 6392 N 593.818 -1.39079 6.88187 0
M  V30 6393 H 598.658 0.669477 2.90383 0
M  V30 6394 H 596.195 0.341927 1.43071 0
M  V30 6395 H 598.153 -1.62623 3.842 0
M  V30 6396 H 596.783 -1.75661 2.70819 0
M  V30 6397 H 595.835 0.412268 3.78159 0
M  V30 6398 H 597.147 0.321955 4.9776 0
M  V30 6399 H 596.301 -1.89931 5.76204 0
M  V30 6400 H 595.04 -1.88755 4.49692 0
M  V30 6401 H 594.045 0.190142 5.49471 0
M  V30 6402 H 595.27 0.16019 6.78911 0
M  V30 6403 H 593.216 -2.01623 6.24247 0
M  V30 6404 H 593.133 -0.840513 7.51313 0
M  V30 6405 H 594.401 -2.02961 7.52613 0
M  V30 6406 N 598.631 -1.53133 0.372548 0
M  V30 6407 C 599.908 -1.93704 -0.271693 0
M  V30 6408 C 600.288 -1.30667 -1.65799 0
M  V30 6409 O 599.636 -0.46838 -2.23648 0
M  V30 6410 C 599.846 -3.47576 -0.314903 0
M  V30 6411 C 601.194 -4.20998 -0.551912 0
M  V30 6412 O 602.218 -3.53994 -0.39582 0
M  V30 6413 O 601.077 -5.39748 -0.85639 0
M  V30 6414 H 598.171 -0.810457 -0.164586 0
M  V30 6415 H 600.717 -1.6427 0.425838 0
M  V30 6416 H 599.489 -3.85749 0.656792 0
M  V30 6417 H 599.112 -3.83264 -1.05804 0
M  V30 6418 N 600.109 -0.101901 -1.5727 0
M  V30 6419 C 601.357 0.559091 -1.94213 0
M  V30 6420 C 601.678 1.68297 -0.984948 0
M  V30 6421 O 600.948 1.95863 -0.0381975 0
M  V30 6422 H 599.528 0.20952 -0.717015 0
M  V30 6423 H 602.19 -0.166831 -1.94185 0
M  V30 6424 H 601.286 0.96485 -2.96811 0
M  V30 6425 N 601.587 1.56661 0.17182 0
M  V30 6426 C 602.534 1.96371 1.21273 0
M  V30 6427 C 603.504 0.82756 1.44016 0
M  V30 6428 O 604.689 1.08764 1.56764 0
M  V30 6429 C 601.829 2.32838 2.54716 0
M  V30 6430 C 600.942 3.59628 2.39356 0
M  V30 6431 C 600.077 3.85311 3.65662 0
M  V30 6432 C 599.116 5.0545 3.45234 0
M  V30 6433 N 598.253 5.27268 4.63608 0
M  V30 6434 H 603.093 2.85106 0.86709 0
M  V30 6435 H 600.63 1.41073 0.416744 0
M  V30 6436 H 602.588 2.52004 3.3249 0
M  V30 6437 H 601.218 1.47214 2.87277 0
M  V30 6438 H 600.27 3.4838 1.52761 0
M  V30 6439 H 601.582 4.4756 2.20207 0
M  V30 6440 H 600.736 4.04841 4.51872 0
M  V30 6441 H 599.475 2.95753 3.8779 0
M  V30 6442 H 598.48 4.85819 2.5741 0
M  V30 6443 H 599.705 5.96538 3.24529 0
M  V30 6444 H 597.651 4.40662 4.85956 0
M  V30 6445 H 597.568 6.09422 4.4737 0
M  V30 6446 H 598.836 5.51277 5.51103 0
M  V30 6447 N 603.065 -0.440357 1.51323 0
M  V30 6448 C 604.476 -1.02032 1.56353 0
M  V30 6449 C 604.827 -1.92382 0.385197 0
M  V30 6450 O 603.952 -2.10583 -0.498373 0
M  V30 6451 C 604.547 -1.85723 2.83359 0
M  V30 6452 C 603.106 -2.38774 2.90971 0
M  V30 6453 C 602.253 -1.17908 2.50984 0
M  V30 6454 H 605.204 -0.221744 1.57143 0
M  V30 6455 H 605.225 -2.71141 2.66951 0
M  V30 6456 H 604.737 -1.19939 3.69102 0
M  V30 6457 H 602.838 -3.08021 2.09651 0
M  V30 6458 H 602.951 -2.71778 3.94555 0
M  V30 6459 H 601.315 -1.52347 2.04114 0
M  V30 6460 H 602.098 -0.537393 3.39068 0
M  V30 6461 N 604.543 -1.41418 -0.695603 0
M  V30 6462 C 605.79 -1.40774 -1.45564 0
M  V30 6463 C 606.118 -0.0168604 -1.94493 0
M  V30 6464 O 605.373 0.971259 -1.69897 0
M  V30 6465 C 605.672 -2.36112 -2.68302 0
M  V30 6466 C 605.338 -3.82952 -2.38031 0
M  V30 6467 C 604 -4.22954 -2.29486 0
M  V30 6468 C 606.352 -4.75662 -2.13061 0
M  V30 6469 C 603.68 -5.53674 -1.94067 0
M  V30 6470 C 606.032 -6.06702 -1.79151 0
M  V30 6471 C 604.696 -6.45725 -1.69102 0
M  V30 6472 H 603.966 -0.515128 -0.532658 0
M  V30 6473 H 606.613 -1.74216 -0.795047 0
M  V30 6474 H 604.918 -1.95924 -3.39295 0
M  V30 6475 H 606.615 -2.32887 -3.26442 0
M  V30 6476 H 603.205 -3.5127 -2.45576 0
M  V30 6477 H 607.389 -4.45561 -2.18608 0
M  V30 6478 H 602.645 -5.8279 -1.8484 0
M  V30 6479 H 606.819 -6.78041 -1.5885 0
M  V30 6480 H 604.446 -7.46929 -1.41426 0
M  V30 6481 N 606.021 0.929856 -1.27246 0
M  V30 6482 C 607.298 1.65544 -1.04186 0
M  V30 6483 C 607.678 2.06796 0.424097 0
M  V30 6484 O 607.026 1.80053 1.40688 0
M  V30 6485 C 607.236 2.85912 -2.00138 0
M  V30 6486 C 608.584 3.57305 -2.29387 0
M  V30 6487 O 609.608 2.96036 -1.98094 0
M  V30 6488 O 608.467 4.67688 -2.82719 0
M  V30 6489 H 605.561 0.725473 -0.397011 0
M  V30 6490 H 608.107 0.980583 -1.38501 0
M  V30 6491 H 606.879 2.52403 -2.99013 0
M  V30 6492 H 606.502 3.61118 -1.66371 0
M  V30 6493 N 607.499 1.09233 1.13605 0
M  V30 6494 C 608.409 0.741939 2.22559 0
M  V30 6495 C 609.425 -0.255236 1.72118 0
M  V30 6496 O 610.601 -0.0970747 2.01166 0
M  V30 6497 C 607.666 0.165595 3.46304 0
M  V30 6498 C 606.727 1.21846 4.11645 0
M  V30 6499 C 605.96 0.669526 5.29484 0
M  V30 6500 O 606.183 -0.508228 5.68131 0
M  V30 6501 O 605.117 1.42361 5.84822 0
M  V30 6502 H 608.943 1.65107 2.54899 0
M  V30 6503 H 606.528 0.866584 1.21699 0
M  V30 6504 H 608.41 -0.152592 4.21124 0
M  V30 6505 H 607.085 -0.716573 3.15669 0
M  V30 6506 H 605.992 1.58931 3.38662 0
M  V30 6507 H 607.325 2.07321 4.46407 0
M  V30 6508 N 608.977 -1.30795 0.87923 0
M  V30 6509 C 609.909 -2.27241 0.299025 0
M  V30 6510 C 610.922 -1.53472 -0.543166 0
M  V30 6511 O 612.111 -1.74756 -0.363651 0
M  V30 6512 C 609.211 -3.33655 -0.593931 0
M  V30 6513 C 608.384 -4.36857 0.2179 0
M  V30 6514 C 607.443 -5.22715 -0.604646 0
M  V30 6515 O 606.469 -5.69192 -0.0293838 0
M  V30 6516 N 607.671 -5.48008 -1.91488 0
M  V30 6517 H 610.436 -2.77667 1.12788 0
M  V30 6518 H 607.997 -1.43914 0.741637 0
M  V30 6519 H 609.989 -3.88013 -1.15012 0
M  V30 6520 H 608.559 -2.83202 -1.32346 0
M  V30 6521 H 607.779 -3.82444 0.955536 0
M  V30 6522 H 609.067 -5.02869 0.774614 0
M  V30 6523 H 608.465 -5.1202 -2.40525 0
M  V30 6524 H 607.022 -6.05264 -2.41864 0
M  V30 6525 N 610.455 -0.639598 -1.44038 0
M  V30 6526 C 611.732 -0.078012 -1.95444 0
M  V30 6527 C 612.112 1.39847 -1.58133 0
M  V30 6528 O 611.46 2.11714 -0.859614 0
M  V30 6529 C 611.67 -0.309832 -3.47622 0
M  V30 6530 C 613.018 -0.207521 -4.24093 0
M  V30 6531 O 614.042 -0.241653 -3.55379 0
M  V30 6532 O 612.901 -0.119641 -5.46369 0
M  V30 6533 H 609.995 0.0174534 -0.826816 0
M  V30 6534 H 612.541 -0.711891 -1.54046 0
M  V30 6535 H 611.313 -1.33401 -3.67858 0
M  V30 6536 H 610.936 0.357777 -3.95987 0
M  V30 6537 N 611.933 1.52934 -0.380664 0
M  V30 6538 C 612.843 2.29921 0.466192 0
M  V30 6539 C 613.859 1.36488 1.07922 0
M  V30 6540 O 615.035 1.69553 1.0869 0
M  V30 6541 C 612.1 3.08468 1.58266 0
M  V30 6542 C 611.161 4.17595 0.995627 0
M  V30 6543 C 610.394 4.92387 2.05889 0
M  V30 6544 O 610.617 4.67184 3.27254 0
M  V30 6545 O 609.551 5.77949 1.68102 0
M  V30 6546 H 613.377 3.03274 -0.160735 0
M  V30 6547 H 610.962 1.48698 -0.144617 0
M  V30 6548 H 612.844 3.57469 2.23145 0
M  V30 6549 H 611.519 2.37937 2.19471 0
M  V30 6550 H 610.426 3.72811 0.310332 0
M  V30 6551 H 611.759 4.90336 0.427918 0
M  V30 6552 N 613.412 0.11024 1.57214 0
M  V30 6553 C 614.658 -0.550684 1.9518 0
M  V30 6554 C 614.991 -1.66885 0.993122 0
M  V30 6555 O 614.266 -1.94479 0.0287907 0
M  V30 6556 C 614.549 -1.09163 3.43155 0
M  V30 6557 C 614.402 0.0225198 4.49794 0
M  V30 6558 C 615.721 -1.98527 3.92778 0
M  V30 6559 H 612.84 -0.198706 0.709708 0
M  V30 6560 H 615.482 0.184024 1.89107 0
M  V30 6561 H 613.632 -1.71775 3.48462 0
M  V30 6562 H 615.304 0.657443 4.56591 0
M  V30 6563 H 613.547 0.686868 4.28328 0
M  V30 6564 H 614.218 -0.39706 5.5057 0
M  V30 6565 H 616.694 -1.458 3.8972 0
M  V30 6566 H 615.57 -2.33298 4.96853 0
M  V30 6567 H 615.831 -2.90846 3.32958 0
M  V30 6568 N 614.89 -1.56749 -0.16351 0
M  V30 6569 C 615.82 -2.00042 -1.20438 0
M  V30 6570 C 616.801 -0.877256 -1.45733 0
M  V30 6571 O 617.986 -1.1439 -1.56935 0
M  V30 6572 C 615.116 -2.36697 -2.54149 0
M  V30 6573 C 614.07 -3.52046 -2.43408 0
M  V30 6574 C 613.396 -3.74466 -3.81679 0
M  V30 6575 C 614.696 -4.85247 -1.93216 0
M  V30 6576 H 616.39 -2.87244 -0.844477 0
M  V30 6577 H 613.936 -1.38194 -0.40478 0
M  V30 6578 H 615.889 -2.65582 -3.27176 0
M  V30 6579 H 614.613 -1.46414 -2.91943 0
M  V30 6580 H 613.272 -3.23301 -1.72834 0
M  V30 6581 H 612.92 -2.81461 -4.1688 0
M  V30 6582 H 612.62 -4.52084 -3.75359 0
M  V30 6583 H 614.144 -4.0576 -4.5628 0
M  V30 6584 H 615.558 -5.12957 -2.56023 0
M  V30 6585 H 613.955 -5.66556 -1.97825 0
M  V30 6586 H 615.025 -4.7672 -0.88689 0
M  V30 6587 N 616.368 0.432326 -1.51554 0
M  V30 6588 C 617.301 1.54525 -1.6792 0
M  V30 6589 C 618.279 1.53831 -0.526764 0
M  V30 6590 O 619.463 1.72884 -0.751233 0
M  V30 6591 C 616.59 2.931 -1.69736 0
M  V30 6592 C 615.636 3.11799 -2.91005 0
M  V30 6593 S 616.469 2.87565 -4.51737 0
M  V30 6594 C 617.625 4.28412 -4.56305 0
M  V30 6595 H 617.858 1.4041 -2.62054 0
M  V30 6596 H 615.391 0.622357 -1.41301 0
M  V30 6597 H 617.349 3.72974 -1.71467 0
M  V30 6598 H 616.01 3.04574 -0.767705 0
M  V30 6599 H 615.203 4.13127 -2.8869 0
M  V30 6600 H 614.805 2.39757 -2.87041 0
M  V30 6601 H 617.097 5.21692 -4.32254 0
M  V30 6602 H 618.04 4.35758 -5.58141 0
M  V30 6603 H 618.448 4.12301 -3.85576 0
M  V30 6604 N 617.846 1.41785 0.688094 0
M  V30 6605 C 618.756 1.46596 1.83158 0
M  V30 6606 C 619.772 0.355862 1.70322 0
M  V30 6607 O 620.948 0.604737 1.92106 0
M  V30 6608 C 618.013 1.35322 3.192 0
M  V30 6609 C 617.074 2.56711 3.4409 0
M  V30 6610 C 616.307 2.45965 4.73642 0
M  V30 6611 O 616.53 1.48827 5.50642 0
M  V30 6612 O 615.464 3.35859 4.99482 0
M  V30 6613 H 619.29 2.43083 1.82056 0
M  V30 6614 H 616.875 1.23404 0.842126 0
M  V30 6615 H 618.757 1.31347 4.00407 0
M  V30 6616 H 617.432 0.419536 3.2097 0
M  V30 6617 H 616.339 2.66262 2.62784 0
M  V30 6618 H 617.672 3.48933 3.47141 0
M  V30 6619 N 619.324 -0.923095 1.27737 0
M  V30 6620 C 620.549 -1.71054 1.17283 0
M  V30 6621 C 620.974 -1.86208 -0.266153 0
M  V30 6622 O 620.332 -1.36545 -1.1927 0
M  V30 6623 C 620.38 -3.0854 1.86642 0
M  V30 6624 O 619.484 -3.95528 1.16752 0
M  V30 6625 H 618.825 -0.524136 0.407649 0
M  V30 6626 H 621.355 -1.15487 1.6889 0
M  V30 6627 H 621.365 -3.58828 1.94182 0
M  V30 6628 H 620.04 -2.96828 2.91317 0
M  V30 6629 H 618.617 -3.53967 1.17312 0
M  V30 6630 N 620.802 -1.09834 -1.13024 0
M  V30 6631 C 621.732 -0.763451 -2.20666 0
M  V30 6632 C 622.713 0.260778 -1.68089 0
M  V30 6633 O 623.898 0.127915 -1.93778 0
M  V30 6634 C 621.028 -0.187744 -3.46792 0
M  V30 6635 C 619.982 -1.14196 -4.12484 0
M  V30 6636 C 619.308 -0.427755 -5.32986 0
M  V30 6637 C 620.608 -2.48607 -4.59338 0
M  V30 6638 H 622.302 -1.66347 -2.48936 0
M  V30 6639 H 619.848 -0.801261 -1.19649 0
M  V30 6640 H 621.801 0.0586375 -4.21359 0
M  V30 6641 H 620.525 0.747485 -3.17931 0
M  V30 6642 H 619.184 -1.37369 -3.3989 0
M  V30 6643 H 618.832 0.511747 -5.0039 0
M  V30 6644 H 618.532 -1.06403 -5.77886 0
M  V30 6645 H 620.056 -0.189772 -6.10305 0
M  V30 6646 H 621.47 -2.29618 -5.25308 0
M  V30 6647 H 619.867 -3.08062 -5.14993 0
M  V30 6648 H 620.937 -3.09062 -3.73642 0
M  V30 6649 N 622.28 1.30327 -0.886154 0
M  V30 6650 C 623.508 2.00254 -0.520176 0
M  V30 6651 C 623.923 1.66419 0.891637 0
M  V30 6652 O 623.28 0.901951 1.58654 0
M  V30 6653 C 623.331 3.54916 -0.686775 0
M  V30 6654 O 623.052 3.87547 -2.04301 0
M  V30 6655 C 624.553 4.42115 -0.323945 0
M  V30 6656 H 621.773 0.640204 -0.200947 0
M  V30 6657 H 624.317 1.66183 -1.19178 0
M  V30 6658 H 622.472 3.8735 -0.0625273 0
M  V30 6659 H 622.886 4.82247 -2.06249 0
M  V30 6660 H 624.36 5.49808 -0.491407 0
M  V30 6661 H 624.837 4.32953 0.73811 0
M  V30 6662 H 625.443 4.15129 -0.924565 0
M  V30 6663 N 623.758 0.647228 1.43697 0
M  V30 6664 C 624.69 -0.0866232 2.29036 0
M  V30 6665 C 625.703 -0.793051 1.42178 0
M  V30 6666 O 626.892 -0.651807 1.66174 0
M  V30 6667 C 623.992 -1.14552 3.18953 0
M  V30 6668 C 623.165 -0.518422 4.34317 0
M  V30 6669 C 622.224 -1.4734 5.05151 0
M  V30 6670 O 621.25 -0.984312 5.60625 0
M  V30 6671 N 622.452 -2.8075 5.08094 0
M  V30 6672 H 625.217 0.645834 2.92659 0
M  V30 6673 H 622.778 0.489567 1.54321 0
M  V30 6674 H 624.77 -1.78505 3.63205 0
M  V30 6675 H 623.34 -1.78001 2.56971 0
M  V30 6676 H 622.56 0.300079 3.93056 0
M  V30 6677 H 623.848 -0.080401 5.08736 0
M  V30 6678 H 623.246 -3.23052 4.64386 0
M  V30 6679 H 621.803 -3.40022 5.56083 0
M  V30 6680 N 625.236 -1.5273 0.388769 0
M  V30 6681 C 626.483 -2.01573 -0.19359 0
M  V30 6682 C 626.811 -1.27525 -1.46859 0
M  V30 6683 O 626.066 -0.363926 -1.92286 0
M  V30 6684 C 626.365 -3.53765 -0.508445 0
M  V30 6685 C 626.031 -4.4582 0.674947 0
M  V30 6686 C 624.693 -4.70703 0.999596 0
M  V30 6687 C 627.045 -5.00138 1.46666 0
M  V30 6688 C 624.373 -5.47155 2.11751 0
M  V30 6689 C 626.725 -5.77812 2.57518 0
M  V30 6690 C 625.389 -6.00975 2.90492 0
M  V30 6691 H 624.659 -0.737606 -0.0708397 0
M  V30 6692 H 627.306 -1.84134 0.526006 0
M  V30 6693 H 625.611 -3.69274 -1.30936 0
M  V30 6694 H 627.308 -3.8905 -0.971664 0
M  V30 6695 H 623.898 -4.26616 0.411906 0
M  V30 6696 H 628.082 -4.8084 1.22909 0
M  V30 6697 H 623.338 -5.63314 2.3767 0
M  V30 6698 H 627.512 -6.18904 3.19267 0
M  V30 6699 H 625.139 -6.59998 3.77236 0
M  V30 6700 N 626.714 -0.118576 -1.57153 0
M  V30 6701 C 627.644 0.828436 -2.1831 0
M  V30 6702 C 628.625 1.27758 -1.12303 0
M  V30 6703 O 629.81 1.34026 -1.40537 0
M  V30 6704 C 626.94 2.07876 -2.78217 0
M  V30 6705 C 625.894 1.76742 -3.89803 0
M  V30 6706 C 625.22 3.08801 -4.36516 0
M  V30 6707 C 626.52 1.03606 -5.11921 0
M  V30 6708 H 628.214 0.318824 -2.97698 0
M  V30 6709 H 625.76 0.151911 -1.43196 0
M  V30 6710 H 627.713 2.74584 -3.19659 0
M  V30 6711 H 626.437 2.61161 -1.96118 0
M  V30 6712 H 625.096 1.12424 -3.48936 0
M  V30 6713 H 624.744 3.6002 -3.51276 0
M  V30 6714 H 624.444 2.88743 -5.11763 0
M  V30 6715 H 625.968 3.76627 -4.80608 0
M  V30 6716 H 627.382 1.60467 -5.50385 0
M  V30 6717 H 625.779 0.936454 -5.92748 0
M  V30 6718 H 626.849 0.0227421 -4.84895 0
M  V30 6719 N 628.193 1.56834 0.155195 0
M  V30 6720 C 629.441 1.82536 0.867462 0
M  V30 6721 C 629.762 0.698168 1.82073 0
M  V30 6722 O 629.032 -0.280807 1.93877 0
M  V30 6723 H 627.612 0.673401 0.323327 0
M  V30 6724 H 630.274 1.94313 0.151156 0
M  V30 6725 H 629.37 2.77171 1.43466 0
M  V30 6726 N 629.671 -0.424282 1.51781 0
M  V30 6727 C 630.917 -1.17117 1.66298 0
M  V30 6728 C 631.272 -1.88595 0.380767 0
M  V30 6729 O 630.565 -1.81151 -0.624094 0
M  V30 6730 C 630.759 -2.20418 2.81337 0
M  V30 6731 C 630.588 -1.59081 4.20622 0
M  V30 6732 C 629.358 -1.37007 4.86371 0
M  V30 6733 C 631.556 -1.05992 5.0326 0
M  V30 6734 N 629.538 -0.714049 6.09733 0
M  V30 6735 C 630.909 -0.529933 6.17731 0
M  V30 6736 C 632.964 -0.952927 4.88696 0
M  V30 6737 C 631.667 0.0965457 7.19235 0
M  V30 6738 C 633.693 -0.340325 5.9042 0
M  V30 6739 C 633.055 0.179057 7.04172 0
M  V30 6740 H 629.154 -0.41577 0.662314 0
M  V30 6741 H 631.738 -0.46579 1.89046 0
M  V30 6742 H 629.909 -2.8833 2.60231 0
M  V30 6743 H 631.641 -2.8736 2.84968 0
M  V30 6744 H 628.396 -1.63543 4.44467 0
M  V30 6745 H 628.82 -0.403101 6.75799 0
M  V30 6746 H 633.462 -1.34033 4.00993 0
M  V30 6747 H 631.18 0.496044 8.06576 0
M  V30 6748 H 634.766 -0.259266 5.81222 0
M  V30 6749 H 633.646 0.645626 7.81538 0
M  V30 6750 N 631.149 -1.42148 -0.680565 0
M  V30 6751 C 632.374 -1.45901 -1.47403 0
M  V30 6752 C 632.799 -0.0700985 -1.87969 0
M  V30 6753 O 632.157 0.930145 -1.55621 0
M  V30 6754 C 632.205 -2.38661 -2.70321 0
M  V30 6755 O 631.309 -1.85399 -3.68376 0
M  V30 6756 H 630.65 -0.494565 -0.443059 0
M  V30 6757 H 633.18 -1.86774 -0.835251 0
M  V30 6758 H 633.19 -2.55046 -3.18458 0
M  V30 6759 H 631.865 -3.39571 -2.40134 0
M  V30 6760 H 630.442 -1.78541 -3.2738 0
M  V30 6761 N 632.627 0.916307 -1.28225 0
M  V30 6762 C 633.873 1.66765 -1.154 0
M  V30 6763 C 634.206 1.91912 0.297251 0
M  V30 6764 O 633.481 1.51766 1.21644 0
M  V30 6765 C 633.764 3.02715 -1.95028 0
M  V30 6766 C 633.617 2.84738 -3.48201 0
M  V30 6767 C 634.936 4.03215 -1.76369 0
M  V30 6768 H 632.055 0.605205 -0.42059 0
M  V30 6769 H 634.697 1.06255 -1.57512 0
M  V30 6770 H 632.847 3.54365 -1.59242 0
M  V30 6771 H 634.519 2.40118 -3.9388 0
M  V30 6772 H 632.762 2.19848 -3.73964 0
M  V30 6773 H 633.433 3.8127 -3.99171 0
M  V30 6774 H 635.909 3.60617 -2.07593 0
M  V30 6775 H 634.785 4.96306 -2.34459 0
M  V30 6776 H 635.046 4.36288 -0.71452 0
M  V30 6777 N 634.105 1.10431 1.1244 0
M  V30 6778 C 635.038 0.696987 2.17296 0
M  V30 6779 C 636.016 -0.301673 1.59777 0
M  V30 6780 O 637.2 -0.200583 1.8743 0
M  V30 6781 C 634.327 0.0284094 3.38688 0
M  V30 6782 C 633.373 0.990536 4.14838 0
M  V30 6783 S 634.206 2.50785 4.73146 0
M  V30 6784 C 635.362 1.85198 5.97873 0
M  V30 6785 H 635.595 1.58523 2.51511 0
M  V30 6786 H 633.128 0.921312 1.239 0
M  V30 6787 H 635.086 -0.351009 4.08997 0
M  V30 6788 H 633.747 -0.836629 3.02753 0
M  V30 6789 H 632.94 0.469991 5.01804 0
M  V30 6790 H 632.542 1.31186 3.50237 0
M  V30 6791 H 634.834 1.18217 6.67106 0
M  V30 6792 H 635.777 2.7012 6.54554 0
M  V30 6793 H 636.185 1.31653 5.48933 0
M  V30 6794 N 635.583 -1.29855 0.893053 0
M  V30 6795 C 636.531 -2.29867 0.355512 0
M  V30 6796 C 637.525 -1.60502 -0.541801 0
M  V30 6797 O 638.731 -1.74902 -0.425339 0
M  V30 6798 H 635.106 -0.745805 0.0963247 0
M  V30 6799 H 637.077 -2.72655 1.21252 0
M  V30 6800 C 635.826 -3.453 -0.407801 0
M  V30 6801 H 635.149 -3.98864 0.273426 0
M  V30 6802 H 636.589 -4.17334 -0.748887 0
M  V30 6803 C 635.048 -2.96051 -1.60795 0
M  V30 6804 O 635.578 -2.96763 -2.7073 0
M  V30 6805 N 633.784 -2.51963 -1.44786 0
M  V30 6806 H 633.331 -2.51583 -0.553498 0
M  V30 6807 H 633.289 -2.1937 -2.2522 0
M  V30 6808 N 637.061 -0.65484 -1.43351 0
M  V30 6809 C 638.289 -0.176685 -2.06144 0
M  V30 6810 C 638.704 1.15831 -1.49093 0
M  V30 6811 O 638.061 1.71542 -0.622868 0
M  V30 6812 C 638.112 -0.0813326 -3.61408 0
M  V30 6813 O 637.833 -1.36355 -4.1634 0
M  V30 6814 C 639.334 0.422706 -4.4128 0
M  V30 6815 H 636.554 -0.0906429 -0.66485 0
M  V30 6816 H 639.098 -0.895945 -1.83829 0
M  V30 6817 H 637.253 0.588496 -3.82904 0
M  V30 6818 H 637.667 -1.22381 -5.10023 0
M  V30 6819 H 639.141 0.438375 -5.50257 0
M  V30 6820 H 639.618 1.45432 -4.14423 0
M  V30 6821 H 640.224 -0.214687 -4.24758 0
M  V30 6822 N 638.539 1.52521 -0.396863 0
M  V30 6823 C 639.816 1.94112 0.240842 0
M  V30 6824 C 640.196 1.33288 1.637 0
M  V30 6825 O 639.544 0.503901 2.22875 0
M  V30 6826 C 639.754 3.48033 0.259567 0
M  V30 6827 C 641.102 4.21822 0.484866 0
M  V30 6828 O 642.126 3.54579 0.339453 0
M  V30 6829 O 640.985 5.41042 0.770412 0
M  V30 6830 H 638.079 0.812973 0.151671 0
M  V30 6831 H 640.625 1.63572 -0.451918 0
M  V30 6832 H 639.397 3.84655 -0.718078 0
M  V30 6833 H 639.02 3.84899 0.996937 0
M  V30 6834 N 640.017 0.126909 1.57088 0
M  V30 6835 C 641.245 -0.53667 1.99819 0
M  V30 6836 C 641.66 -1.5972 1.00673 0
M  V30 6837 O 641.017 -1.825 0.000747365 0
M  V30 6838 C 641.068 -1.15563 3.42531 0
M  V30 6839 O 640.789 -0.137483 4.37884 0
M  V30 6840 C 642.29 -1.90176 4.00435 0
M  V30 6841 H 639.51 -0.141443 0.655923 0
M  V30 6842 H 642.054 0.215578 2.03361 0
M  V30 6843 H 640.209 -1.85861 3.39904 0
M  V30 6844 H 640.623 -0.588229 5.21191 0
M  V30 6845 H 642.097 -2.28801 5.02349 0
M  V30 6846 H 642.574 -2.78002 3.40017 0
M  V30 6847 H 643.18 -1.24623 4.06632 0
M  V30 6848 N 641.495 -1.56914 -0.146875 0
M  V30 6849 C 642.725 -1.87243 -0.873126 0
M  V30 6850 C 643.133 -0.713127 -1.75246 0
M  V30 6851 O 642.476 0.326228 -1.8078 0
M  V30 6852 C 642.538 -3.12279 -1.78107 0
M  V30 6853 C 642.202 -4.44082 -1.07889 0
M  V30 6854 C 643.199 -5.18096 -0.432734 0
M  V30 6855 C 640.884 -4.90807 -1.06836 0
M  V30 6856 C 642.878 -6.37039 0.214569 0
M  V30 6857 C 640.565 -6.09674 -0.417243 0
M  V30 6858 C 641.563 -6.82636 0.223093 0
M  V30 6859 O 641.251 -7.99245 0.863884 0
M  V30 6860 H 640.983 -0.624896 -0.257839 0
M  V30 6861 H 643.537 -2.04892 -0.14434 0
M  V30 6862 H 641.767 -2.90639 -2.5508 0
M  V30 6863 H 643.456 -3.28854 -2.37929 0
M  V30 6864 H 644.222 -4.83066 -0.432677 0
M  V30 6865 H 640.101 -4.3394 -1.55618 0
M  V30 6866 H 643.645 -6.93927 0.714965 0
M  V30 6867 H 639.542 -6.44165 -0.414967 0
M  V30 6868 H 640.31 -8.14912 0.765564 0
M  V30 6869 N 642.974 0.416227 -1.52004 0
M  V30 6870 C 644.251 1.17637 -1.56272 0
M  V30 6871 C 644.631 2.08352 -0.339493 0
M  V30 6872 O 643.979 2.1833 0.674124 0
M  V30 6873 C 644.189 1.95986 -2.88774 0
M  V30 6874 C 645.537 2.52299 -3.41512 0
M  V30 6875 O 646.561 2.06174 -2.90467 0
M  V30 6876 O 645.42 3.3648 -4.30631 0
M  V30 6877 H 642.514 0.536726 -0.629169 0
M  V30 6878 H 645.06 0.423583 -1.64329 0
M  V30 6879 H 643.832 1.29487 -3.69254 0
M  V30 6880 H 643.455 2.78285 -2.83978 0
M  V30 6881 N 644.452 1.42507 0.673017 0
M  V30 6882 C 645.399 1.46124 1.78651 0
M  V30 6883 C 646.369 0.313007 1.63124 0
M  V30 6884 O 647.554 0.517337 1.83653 0
M  V30 6885 C 644.694 1.3711 3.16694 0
M  V30 6886 C 643.807 2.61983 3.43495 0
M  V30 6887 C 642.942 2.45098 4.71275 0
M  V30 6888 C 641.981 3.65336 4.91117 0
M  V30 6889 N 641.118 3.47383 6.10139 0
M  V30 6890 H 645.958 2.4128 1.74895 0
M  V30 6891 H 643.495 1.19788 0.853766 0
M  V30 6892 H 645.453 1.29881 3.96468 0
M  V30 6893 H 644.083 0.45549 3.1957 0
M  V30 6894 H 643.135 2.79571 2.57961 0
M  V30 6895 H 644.447 3.51355 3.5405 0
M  V30 6896 H 643.601 2.35466 5.59143 0
M  V30 6897 H 642.34 1.53219 4.63007 0
M  V30 6898 H 641.345 3.754 4.0169 0
M  V30 6899 H 642.57 4.58199 5.01229 0
M  V30 6900 H 640.516 2.58222 6.0304 0
M  V30 6901 H 640.433 4.30344 6.21563 0
M  V30 6902 H 641.701 3.41565 7.00681 0
M  V30 6903 N 645.93 -0.909495 1.28709 0
M  V30 6904 C 646.863 -2.01388 1.07323 0
M  V30 6905 C 647.841 -1.62596 -0.0119757 0
M  V30 6906 O 649.025 -1.88003 0.136796 0
M  V30 6907 C 646.152 -3.32755 0.631797 0
M  V30 6908 C 645.198 -3.90532 1.71428 0
M  V30 6909 S 646.031 -4.20853 3.31124 0
M  V30 6910 C 647.187 -5.55276 2.88825 0
M  V30 6911 H 647.42 -2.19219 2.00824 0
M  V30 6912 H 644.953 -1.05489 1.12745 0
M  V30 6913 H 646.911 -4.08702 0.38381 0
M  V30 6914 H 645.572 -3.12818 -0.283451 0
M  V30 6915 H 644.765 -4.85385 1.35712 0
M  V30 6916 H 644.367 -3.21237 1.91528 0
M  V30 6917 H 646.659 -6.35341 2.3526 0
M  V30 6918 H 647.602 -5.95907 3.82492 0
M  V30 6919 H 648.01 -5.16666 2.27412 0
M  V30 6920 N 647.408 -1.11026 -1.11852 0
M  V30 6921 C 648.356 -0.759643 -2.19846 0
M  V30 6922 C 649.35 0.246964 -1.6759 0
M  V30 6923 O 650.556 0.106693 -1.79684 0
M  V30 6924 H 646.931 -0.22775 -0.716683 0
M  V30 6925 H 648.902 -1.6792 -2.46669 0
M  V30 6926 C 647.651 -0.214364 -3.47039 0
M  V30 6927 H 646.974 -0.980175 -3.87599 0
M  V30 6928 H 648.414 -0.00717047 -4.23999 0
M  V30 6929 C 646.873 1.05436 -3.19976 0
M  V30 6930 O 647.403 2.13483 -3.40276 0
M  V30 6931 N 645.609 0.975436 -2.7374 0
M  V30 6932 H 645.156 0.0960853 -2.57421 0
M  V30 6933 H 645.114 1.82501 -2.5601 0
M  V30 6934 N 648.886 1.2938 -0.899927 0
M  V30 6935 C 649.833 2.27713 -0.376243 0
M  V30 6936 C 650.803 1.57016 0.541774 0
M  V30 6937 O 651.988 1.84997 0.466966 0
M  V30 6938 C 649.128 3.42889 0.39 0
M  V30 6939 C 648.241 4.28369 -0.558938 0
M  V30 6940 C 647.376 5.30726 0.224379 0
M  V30 6941 C 646.415 6.07862 -0.719068 0
M  V30 6942 N 645.552 7.02094 0.0298569 0
M  V30 6943 H 650.392 2.71888 -1.21988 0
M  V30 6944 H 647.929 1.33724 -0.612879 0
M  V30 6945 H 649.887 4.08443 0.850314 0
M  V30 6946 H 648.517 2.99743 1.19809 0
M  V30 6947 H 647.569 3.62986 -1.13777 0
M  V30 6948 H 648.881 4.82068 -1.2811 0
M  V30 6949 H 648.035 6.02098 0.745881 0
M  V30 6950 H 646.774 4.77759 0.979674 0
M  V30 6951 H 645.779 5.35353 -1.25207 0
M  V30 6952 H 647.004 6.62917 -1.4737 0
M  V30 6953 H 644.95 6.51496 0.767415 0
M  V30 6954 H 644.867 7.5335 -0.632391 0
M  V30 6955 H 646.135 7.77685 0.531615 0
M  V30 6956 N 650.364 0.662433 1.43002 0
M  V30 6957 C 651.294 -0.00979809 2.33498 0
M  V30 6958 C 652.275 -0.802329 1.49989 0
M  V30 6959 O 653.46 -0.761964 1.78627 0
M  V30 6960 C 650.59 -0.970446 3.33466 0
M  V30 6961 C 649.544 -0.287383 4.27034 0
M  V30 6962 C 648.87 -1.36012 5.17112 0
M  V30 6963 C 650.17 0.82595 5.15728 0
M  V30 6964 H 651.864 0.745959 2.89958 0
M  V30 6965 H 649.41 0.360172 1.39423 0
M  V30 6966 H 651.363 -1.44971 3.95679 0
M  V30 6967 H 650.087 -1.75748 2.75282 0
M  V30 6968 H 648.746 0.17152 3.66199 0
M  V30 6969 H 648.394 -2.13882 4.55262 0
M  V30 6970 H 648.094 -0.908276 5.80538 0
M  V30 6971 H 649.618 -1.84056 5.82199 0
M  V30 6972 H 651.032 0.42845 5.71697 0
M  V30 6973 H 649.429 1.20282 5.87922 0
M  V30 6974 H 650.499 1.68003 4.54866 0
M  V30 6975 N 651.842 -1.52309 0.404946 0
M  V30 6976 C 652.752 -2.30634 -0.429555 0
M  V30 6977 C 653.768 -1.38187 -1.05737 0
M  V30 6978 O 654.944 -1.71261 -1.05979 0
M  V30 6979 C 652.009 -3.10947 -1.53339 0
M  V30 6980 C 651.07 -4.19126 -0.929065 0
M  V30 6981 C 650.303 -4.95601 -1.9803 0
M  V30 6982 O 650.526 -4.72331 -3.1978 0
M  V30 6983 O 649.46 -5.80551 -1.58886 0
M  V30 6984 H 653.286 -3.0298 0.208963 0
M  V30 6985 H 650.871 -1.4845 0.168255 0
M  V30 6986 H 652.753 -3.60974 -2.1743 0
M  V30 6987 H 651.428 -2.41399 -2.15658 0
M  V30 6988 H 650.335 -3.73257 -0.250982 0
M  V30 6989 H 651.668 -4.90955 -0.349855 0
M  V30 6990 N 653.32 -0.135238 -1.57019 0
M  V30 6991 C 654.268 0.826099 -2.17436 0
M  V30 6992 C 655.262 1.26378 -1.12805 0
M  V30 6993 O 656.468 1.23363 -1.31079 0
M  V30 6994 H 652.843 0.284568 -0.696078 0
M  V30 6995 H 654.814 0.292212 -2.96966 0
M  V30 6996 C 653.563 2.05991 -2.80112 0
M  V30 6997 H 652.886 1.73209 -3.60331 0
M  V30 6998 H 654.326 2.71225 -3.25903 0
M  V30 6999 C 652.785 2.86027 -1.78017 0
M  V30 7000 O 653.315 3.81971 -1.24344 0
M  V30 7001 N 651.521 2.50332 -1.47588 0
M  V30 7002 H 651.068 1.72377 -1.91426 0
M  V30 7003 H 651.026 3.04177 -0.795228 0
M  V30 7004 N 654.798 1.5699 0.138552 0
M  V30 7005 C 656.214 1.51844 0.491472 0
M  V30 7006 C 656.414 0.845063 1.82923 0
M  V30 7007 O 655.47 0.419143 2.48997 0
M  V30 7008 C 656.783 2.96615 0.493987 0
M  V30 7009 C 658.331 3.076 0.578913 0
M  V30 7010 C 658.806 4.53893 0.612009 0
M  V30 7011 N 660.297 4.5827 0.673997 0
M  V30 7012 C 661.032 5.68852 0.720729 0
M  V30 7013 N 660.528 6.88982 0.726292 0
M  V30 7014 N 662.321 5.56908 0.762253 0
M  V30 7015 H 654.472 1.99158 -0.738228 0
M  V30 7016 H 656.735 0.908693 -0.270149 0
M  V30 7017 H 656.441 3.49172 -0.420933 0
M  V30 7018 H 656.315 3.53017 1.32887 0
M  V30 7019 H 658.702 2.55057 1.48425 0
M  V30 7020 H 658.783 2.54227 -0.283286 0
M  V30 7021 H 658.427 5.07076 -0.289208 0
M  V30 7022 H 658.357 5.05057 1.49082 0
M  V30 7023 H 660.848 3.71793 0.676654 0
M  V30 7024 H 661.161 7.69014 0.764032 0
M  V30 7025 H 659.506 6.91526 0.69403 0
M  V30 7026 H 662.697 4.61969 0.755135 0
M  V30 7027 H 662.87 6.43102 0.795207 0
M  V30 7028 N 656.276 -0.40816 1.52223 0
M  V30 7029 C 657.223 -1.49737 1.75635 0
M  V30 7030 C 658.193 -1.5493 0.598824 0
M  V30 7031 O 659.378 -1.71487 0.83648 0
M  V30 7032 C 656.518 -2.87174 1.91376 0
M  V30 7033 C 655.631 -2.91283 3.19027 0
M  V30 7034 C 654.766 -4.20026 3.25195 0
M  V30 7035 C 653.805 -4.18113 4.47044 0
M  V30 7036 N 652.942 -5.38429 4.50598 0
M  V30 7037 H 657.782 -1.29075 2.68596 0
M  V30 7038 H 655.319 -0.626518 1.33091 0
M  V30 7039 H 657.277 -3.66959 1.98486 0
M  V30 7040 H 655.907 -3.06329 1.01795 0
M  V30 7041 H 654.959 -2.03984 3.21084 0
M  V30 7042 H 656.271 -2.85734 4.08849 0
M  V30 7043 H 655.425 -5.08204 3.31382 0
M  V30 7044 H 654.164 -4.28271 2.33313 0
M  V30 7045 H 653.169 -3.28325 4.41002 0
M  V30 7046 H 654.394 -4.11507 5.40221 0
M  V30 7047 H 652.34 -5.4734 3.616 0
M  V30 7048 H 652.257 -5.34879 5.34266 0
M  V30 7049 H 653.525 -6.28557 4.61016 0
M  V30 7050 N 657.755 -1.42862 -0.66545 0
M  V30 7051 C 659.032 -1.3431 -1.42197 0
M  V30 7052 C 659.412 0.0150265 -2.11095 0
M  V30 7053 O 658.76 1.03101 -2.03918 0
M  V30 7054 C 658.97 -2.51783 -2.41674 0
M  V30 7055 C 660.318 -2.94321 -3.0604 0
M  V30 7056 O 661.342 -2.51741 -2.52001 0
M  V30 7057 O 660.201 -3.68047 -4.03985 0
M  V30 7058 H 657.295 -0.530159 -0.634713 0
M  V30 7059 H 659.841 -1.54888 -0.693386 0
M  V30 7060 H 658.613 -3.42282 -1.89627 0
M  V30 7061 H 658.236 -2.33241 -3.22001 0
M  V30 7062 N 659.233 0.902656 -1.29189 0
M  V30 7063 C 660.482 1.6475 -1.16362 0
M  V30 7064 C 660.795 1.93517 0.284682 0
M  V30 7065 O 662.001 2.66192 0.534229 0
M  V30 7066 C 660.457 2.96848 -2.03493 0
M  V30 7067 C 660.065 2.75687 -3.5313 0
M  V30 7068 C 661.809 3.74762 -1.99383 0
M  V30 7069 C 659.716 4.03492 -4.32375 0
M  V30 7070 H 658.646 0.618041 -0.431904 0
M  V30 7071 H 661.297 1.0008 -1.53806 0
M  V30 7072 H 659.679 3.62715 -1.58916 0
M  V30 7073 H 660.853 2.18431 -4.05739 0
M  V30 7074 H 659.168 2.11171 -3.58881 0
M  V30 7075 H 661.765 4.69515 -2.5585 0
M  V30 7076 H 662.108 4.04767 -0.973123 0
M  V30 7077 H 662.641 3.15732 -2.41988 0
M  V30 7078 H 659.38 3.78656 -5.3507 0
M  V30 7079 H 658.9 4.60318 -3.84535 0
M  V30 7080 H 660.579 4.71662 -4.42881 0
M  V30 7081 N 660.711 1.11618 1.11262 0
M  V30 7082 C 661.674 0.779447 2.15539 0
M  V30 7083 C 662.674 -0.202081 1.59525 0
M  V30 7084 O 663.864 0.0226356 1.74185 0
M  V30 7085 C 660.996 0.15674 3.40539 0
M  V30 7086 H 662.189 1.70324 2.4684 0
M  V30 7087 H 659.742 0.918298 1.26479 0
M  V30 7088 H 660.477 -0.777186 3.1485 0
M  V30 7089 H 660.262 0.863308 3.82478 0
M  V30 7090 H 661.752 -0.062661 4.17553 0
M  V30 7091 N 662.189 -1.289 0.906776 0
M  V30 7092 C 663.121 -2.26556 0.347159 0
M  V30 7093 C 664.134 -1.54589 -0.51049 0
M  V30 7094 O 665.323 -1.75489 -0.326501 0
M  V30 7095 C 662.423 -3.3484 -0.523024 0
M  V30 7096 C 661.596 -4.36296 0.310515 0
M  V30 7097 C 660.655 -5.23879 -0.493634 0
M  V30 7098 O 659.681 -5.69127 0.0913569 0
M  V30 7099 N 660.883 -5.51946 -1.7982 0
M  V30 7100 H 663.648 -2.75212 1.18652 0
M  V30 7101 H 661.209 -1.42309 0.771996 0
M  V30 7102 H 663.201 -3.90366 -1.06756 0
M  V30 7103 H 661.771 -2.85946 -1.26309 0
M  V30 7104 H 660.991 -3.80331 1.03644 0
M  V30 7105 H 662.279 -5.01113 0.881106 0
M  V30 7106 H 661.677 -5.17006 -2.2961 0
M  V30 7107 H 660.234 -6.10258 -2.28971 0
M  V30 7108 N 663.667 -0.670007 -1.42649 0
M  V30 7109 C 664.944 -0.119451 -1.95235 0
M  V30 7110 C 665.324 1.36461 -1.61064 0
M  V30 7111 O 664.672 2.09843 -0.904329 0
M  V30 7112 C 664.882 -0.383498 -3.46887 0
M  V30 7113 C 666.23 -0.297431 -4.23557 0
M  V30 7114 O 667.254 -0.31698 -3.54787 0
M  V30 7115 O 666.113 -0.235507 -5.45992 0
M  V30 7116 H 663.207 -8.85474e-05 -0.827 0
M  V30 7117 H 665.753 -0.744406 -1.52501 0
M  V30 7118 H 664.525 -1.41174 -3.64946 0
M  V30 7119 H 664.148 0.273702 -3.96657 0
M  V30 7120 N 665.145 1.52092 -0.413018 0
M  V30 7121 C 666.078 2.23613 0.455234 0
M  V30 7122 C 667.056 1.2459 1.04481 0
M  V30 7123 O 668.24 1.53653 1.09193 0
M  V30 7124 C 665.367 2.96775 1.63224 0
M  V30 7125 C 664.413 4.10261 1.16568 0
M  V30 7126 S 665.246 5.35348 0.127633 0
M  V30 7127 C 666.402 6.1204 1.30987 0
M  V30 7128 H 666.635 2.96911 -0.152042 0
M  V30 7129 H 664.168 1.53134 -0.197343 0
M  V30 7130 H 666.126 3.39532 2.30713 0
M  V30 7131 H 664.787 2.23113 2.21087 0
M  V30 7132 H 663.98 4.6064 2.04515 0
M  V30 7133 H 663.582 3.6964 0.569386 0
M  V30 7134 H 665.874 6.39651 2.23276 0
M  V30 7135 H 666.817 7.03022 0.846533 0
M  V30 7136 H 667.225 5.43161 1.53743 0
M  V30 7137 N 666.623 0.143563 1.56945 0
M  V30 7138 C 667.869 -0.50916 1.96304 0
M  V30 7139 C 668.202 -1.64741 1.0283 0
M  V30 7140 O 667.477 -1.94374 0.0700361 0
M  V30 7141 C 667.76 -1.0186 3.45393 0
M  V30 7142 C 667.613 0.117923 4.49645 0
M  V30 7143 C 668.932 -1.90151 3.96901 0
M  V30 7144 H 666.051 -0.183608 0.713763 0
M  V30 7145 H 668.693 0.224095 1.88674 0
M  V30 7146 H 666.843 -1.64345 3.52027 0
M  V30 7147 H 668.515 0.754145 4.55094 0
M  V30 7148 H 666.758 0.777568 4.26774 0
M  V30 7149 H 667.429 -0.280187 5.51288 0
M  V30 7150 H 669.905 -1.375 3.92725 0
M  V30 7151 H 668.781 -2.22707 5.0169 0
M  V30 7152 H 669.042 -2.83718 3.39052 0
M  V30 7153 N 668.101 -1.57061 -0.130224 0
M  V30 7154 C 669.031 -2.02552 -1.16168 0
M  V30 7155 C 670.012 -0.907971 -1.4384 0
M  V30 7156 O 671.197 -1.17693 -1.54473 0
M  V30 7157 C 668.327 -2.42035 -2.49071 0
M  V30 7158 C 667.281 -3.5713 -2.35886 0
M  V30 7159 C 666.607 -3.82478 -3.7365 0
M  V30 7160 C 667.907 -4.89236 -1.8288 0
M  V30 7161 H 669.601 -2.8897 -0.783359 0
M  V30 7162 H 667.147 -1.39021 -0.375376 0
M  V30 7163 H 669.1 -2.72462 -3.21469 0
M  V30 7164 H 667.824 -1.52573 -2.88771 0
M  V30 7165 H 666.483 -3.26895 -1.65938 0
M  V30 7166 H 666.131 -2.9024 -4.10816 0
M  V30 7167 H 665.831 -4.59944 -3.65685 0
M  V30 7168 H 667.355 -4.15347 -4.47571 0
M  V30 7169 H 668.769 -5.18272 -2.45085 0
M  V30 7170 H 667.166 -5.70624 -1.85763 0
M  V30 7171 H 668.236 -4.78494 -0.785571 0
M  V30 7172 N 669.579 0.400081 -1.52437 0
M  V30 7173 C 670.809 1.16598 -1.70553 0
M  V30 7174 C 671.217 1.8451 -0.418665 0
M  V30 7175 O 670.56 1.73069 0.615855 0
M  V30 7176 C 670.622 2.26517 -2.7916 0
M  V30 7177 C 670.286 1.78666 -4.20628 0
M  V30 7178 C 671.283 1.26946 -5.04163 0
M  V30 7179 C 668.968 1.85225 -4.66902 0
M  V30 7180 C 670.962 0.824187 -6.32049 0
M  V30 7181 C 668.649 1.40309 -5.94774 0
M  V30 7182 C 669.647 0.889922 -6.77178 0
M  V30 7183 O 669.335 0.447281 -8.02655 0
M  V30 7184 H 669.067 0.356023 -0.574651 0
M  V30 7185 H 671.621 0.475598 -1.99818 0
M  V30 7186 H 669.851 2.98946 -2.45292 0
M  V30 7187 H 671.54 2.88237 -2.85787 0
M  V30 7188 H 672.306 1.21244 -4.69601 0
M  V30 7189 H 668.185 2.24111 -4.02859 0
M  V30 7190 H 671.729 0.422958 -6.96317 0
M  V30 7191 H 667.626 1.45693 -6.28843 0
M  V30 7192 H 668.394 0.569768 -8.16514 0
M  V30 7193 N 671.057 1.43213 0.657864 0
M  V30 7194 C 672.007 1.44459 1.76396 0
M  V30 7195 C 672.991 0.313641 1.57814 0
M  V30 7196 O 674.183 0.557094 1.68004 0
M  V30 7197 C 671.312 1.36586 3.14959 0
M  V30 7198 C 670.398 2.54692 3.39106 0
M  V30 7199 N 670.789 3.80059 3.33749 0
M  V30 7200 C 669.087 2.49316 3.69807 0
M  V30 7201 C 669.788 4.58606 3.57849 0
M  V30 7202 N 668.764 3.89267 3.79437 0
M  V30 7203 H 672.566 2.39265 1.70673 0
M  V30 7204 H 670.08 1.378 0.859357 0
M  V30 7205 H 672.077 1.35561 3.94245 0
M  V30 7206 H 670.737 0.427956 3.21867 0
M  V30 7207 H 671.748 4.12414 3.13266 0
M  V30 7208 H 668.425 1.6419 3.83859 0
M  V30 7209 H 669.815 5.67619 3.59525 0
M  V30 7210 N 672.536 -0.895792 1.29666 0
M  V30 7211 C 673.782 -1.64908 1.18039 0
M  V30 7212 C 674.115 -1.9236 -0.266682 0
M  V30 7213 O 673.39 -1.53682 -1.19214 0
M  V30 7214 C 673.673 -2.99574 1.99819 0
M  V30 7215 C 673.526 -2.79163 3.52687 0
M  V30 7216 C 674.845 -4.00358 1.82761 0
M  V30 7217 H 671.964 -0.598437 0.430165 0
M  V30 7218 H 674.606 -1.03736 1.59182 0
M  V30 7219 H 672.756 -3.51786 1.64859 0
M  V30 7220 H 674.428 -2.33821 3.9765 0
M  V30 7221 H 672.671 -2.13871 3.77414 0
M  V30 7222 H 673.342 -3.74871 4.05186 0
M  V30 7223 H 675.818 -3.57268 2.13304 0
M  V30 7224 H 674.694 -4.92514 2.42325 0
M  V30 7225 H 674.955 -4.35096 0.783839 0
M  V30 7226 N 674.014 -1.12206 -1.10668 0
M  V30 7227 C 674.961 -0.787716 -2.16942 0
M  V30 7228 C 675.931 0.244442 -1.64291 0
M  V30 7229 O 677.116 0.119558 -1.90425 0
M  V30 7230 C 674.256 -0.24584 -3.44223 0
M  V30 7231 C 673.369 -1.33552 -4.10838 0
M  V30 7232 C 672.504 -0.753337 -5.25831 0
M  V30 7233 C 671.543 -1.82231 -5.84344 0
M  V30 7234 N 670.68 -1.25902 -6.90719 0
M  V30 7235 H 675.52 -1.69809 -2.44885 0
M  V30 7236 H 673.057 -0.847862 -1.20207 0
M  V30 7237 H 675.015 0.0863639 -4.17111 0
M  V30 7238 H 673.645 0.627702 -3.16638 0
M  V30 7239 H 672.697 -1.78454 -3.35944 0
M  V30 7240 H 674.009 -2.14396 -4.50373 0
M  V30 7241 H 673.163 -0.37166 -6.05561 0
M  V30 7242 H 671.902 0.0863297 -4.87624 0
M  V30 7243 H 670.907 -2.2132 -5.03287 0
M  V30 7244 H 672.132 -2.66515 -6.24617 0
M  V30 7245 H 670.078 -0.44114 -6.54515 0
M  V30 7246 H 669.995 -2.00408 -7.28953 0
M  V30 7247 H 671.263 -0.904498 -7.74235 0
M  V30 7248 N 675.492 1.28418 -0.913599 0
M  V30 7249 C 676.732 1.96756 -0.553771 0
M  V30 7250 C 677.096 1.70334 0.886013 0
M  V30 7251 O 678.297 2.32242 1.35341 0
M  V30 7252 C 676.568 3.47041 -0.854249 0
M  V30 7253 S 678.127 4.34667 -0.600816 0
M  V30 7254 H 674.945 0.680831 -0.204915 0
M  V30 7255 H 677.547 1.55947 -1.17902 0
M  V30 7256 H 676.251 3.63766 -1.90007 0
M  V30 7257 H 675.782 3.92797 -0.217651 0
M  V30 7258 H 677.797 4.93166 0.547906 0
M  V30 7259 N 676.97 0.677563 1.42291 0
M  V30 7260 C 678.247 0.129803 1.95169 0
M  V30 7261 C 678.627 -1.35605 1.61786 0
M  V30 7262 O 677.975 -2.09361 0.915444 0
M  V30 7263 C 678.185 0.401889 3.46678 0
M  V30 7264 C 679.533 0.319889 4.23393 0
M  V30 7265 O 680.557 0.33579 3.54614 0
M  V30 7266 O 679.416 0.264459 5.4586 0
M  V30 7267 H 676.51 0.00447433 0.826988 0
M  V30 7268 H 679.056 0.752483 1.52105 0
M  V30 7269 H 677.828 1.43108 3.64192 0
M  V30 7270 H 677.451 -0.252662 3.96796 0
M  V30 7271 N 678.448 -1.51871 0.421078 0
M  V30 7272 C 679.864 -1.59435 0.0725398 0
M  V30 7273 C 680.064 -1.43315 -1.41644 0
M  V30 7274 O 679.12 -1.26614 -2.18461 0
M  V30 7275 C 680.433 -2.9509 0.578132 0
M  V30 7276 C 681.981 -3.08356 0.537149 0
M  V30 7277 C 682.456 -4.4651 1.01945 0
M  V30 7278 N 683.947 -4.52784 0.976758 0
M  V30 7279 C 684.682 -5.57976 1.32099 0
M  V30 7280 N 684.178 -6.70664 1.73727 0
M  V30 7281 N 685.971 -5.48248 1.2402 0
M  V30 7282 H 678.122 -1.60595 1.39007 0
M  V30 7283 H 680.385 -0.756138 0.571803 0
M  V30 7284 H 680.091 -3.12205 1.61929 0
M  V30 7285 H 679.965 -3.772 -0.00578374 0
M  V30 7286 H 682.352 -2.90919 -0.494991 0
M  V30 7287 H 682.433 -2.28125 1.15727 0
M  V30 7288 H 682.077 -4.64692 2.04997 0
M  V30 7289 H 682.007 -5.25256 0.376023 0
M  V30 7290 H 684.498 -3.71898 0.670851 0
M  V30 7291 H 684.811 -7.46932 1.98274 0
M  V30 7292 H 683.156 -6.71914 1.77641 0
M  V30 7293 H 686.347 -4.59095 0.913756 0
M  V30 7294 H 686.52 -6.30119 1.51176 0
M  V30 7295 N 679.926 -0.151884 -1.56866 0
M  V30 7296 C 681.203 0.543328 -1.87902 0
M  V30 7297 C 681.583 1.82636 -1.05864 0
M  V30 7298 O 680.931 2.28028 -0.146868 0
M  V30 7299 C 681.141 0.804056 -3.39611 0
M  V30 7300 C 682.489 1.14267 -4.08935 0
M  V30 7301 O 683.513 0.893248 -3.44818 0
M  V30 7302 O 682.372 1.61229 -5.22176 0
M  V30 7303 H 679.466 0.277724 -0.778973 0
M  V30 7304 H 682.012 -0.188862 -1.68646 0
M  V30 7305 H 680.784 -0.103772 -3.91162 0
M  V30 7306 H 680.407 1.59025 -3.64413 0
M  V30 7307 N 681.404 1.57128 0.121893 0
M  V30 7308 C 682.314 2.03425 1.16857 0
M  V30 7309 C 683.33 0.954108 1.45509 0
M  V30 7310 O 684.506 1.26541 1.56682 0
M  V30 7311 C 681.571 2.42685 2.47599 0
M  V30 7312 C 680.632 3.64767 2.2637 0
M  V30 7313 C 679.865 4.02145 3.50878 0
M  V30 7314 O 680.088 3.39897 4.58068 0
M  V30 7315 O 679.022 4.95262 3.42051 0
M  V30 7316 H 682.848 2.92825 0.80544 0
M  V30 7317 H 680.433 1.45654 0.332477 0
M  V30 7318 H 682.315 2.68684 3.24634 0
M  V30 7319 H 680.99 1.56432 2.83392 0
M  V30 7320 H 679.897 3.43922 1.47203 0
M  V30 7321 H 681.23 4.51716 1.95482 0
M  V30 7322 N 682.882 -0.391992 1.52647 0
M  V30 7323 C 684.131 -1.13449 1.6677 0
M  V30 7324 C 684.444 -1.91203 0.412399 0
M  V30 7325 O 685.65 -2.68013 0.433707 0
M  V30 7326 C 684.106 -2.06577 2.9471 0
M  V30 7327 C 683.714 -1.3426 4.27409 0
M  V30 7328 C 685.458 -2.80981 3.18198 0
M  V30 7329 C 683.365 -2.26136 5.46458 0
M  V30 7330 H 682.295 -0.427211 0.621295 0
M  V30 7331 H 684.946 -0.397522 1.79142 0
M  V30 7332 H 683.328 -2.83898 2.76076 0
M  V30 7333 H 684.502 -0.621856 4.56585 0
M  V30 7334 H 682.817 -0.718279 4.10158 0
M  V30 7335 H 685.414 -3.49898 4.04321 0
M  V30 7336 H 685.757 -3.44891 2.33144 0
M  V30 7337 H 686.29 -2.10754 3.37383 0
M  V30 7338 H 683.029 -1.66846 6.33911 0
M  V30 7339 H 682.549 -2.96134 5.21598 0
M  V30 7340 H 684.228 -2.86286 5.80215 0
M  V30 7341 N 684.36 -1.4356 -0.65026 0
M  V30 7342 C 685.292 -1.44918 -1.77571 0
M  V30 7343 C 686.305 -0.344925 -1.59104 0
M  V30 7344 O 687.494 -0.609537 -1.6777 0
M  V30 7345 C 684.594 -1.24914 -3.15039 0
M  V30 7346 C 683.767 -2.48232 -3.60138 0
M  V30 7347 C 682.826 -2.23409 -4.76419 0
M  V30 7348 O 681.852 -2.9678 -4.85706 0
M  V30 7349 N 683.054 -1.25259 -5.66825 0
M  V30 7350 H 685.819 -2.41935 -1.76883 0
M  V30 7351 H 683.38 -1.38754 -0.834202 0
M  V30 7352 H 685.372 -1.06185 -3.90521 0
M  V30 7353 H 683.942 -0.363319 -3.10481 0
M  V30 7354 H 683.162 -2.82366 -2.75069 0
M  V30 7355 H 684.45 -3.30296 -3.87017 0
M  V30 7356 H 683.848 -0.646246 -5.61997 0
M  V30 7357 H 682.405 -1.12513 -6.42016 0
M  V30 7358 N 685.838 0.888903 -1.30139 0
M  V30 7359 C 686.768 2.01046 -1.18755 0
M  V30 7360 C 687.749 1.69916 -0.0791438 0
M  V30 7361 O 688.934 1.92445 -0.260498 0
M  V30 7362 C 686.064 3.36109 -0.874518 0
M  V30 7363 C 685.018 3.81486 -1.94043 0
M  V30 7364 C 684.344 5.13796 -1.48047 0
M  V30 7365 C 685.644 4.00637 -3.35093 0
M  V30 7366 H 687.338 2.10828 -2.12584 0
M  V30 7367 H 684.884 1.01298 -1.02346 0
M  V30 7368 H 686.837 4.14089 -0.781548 0
M  V30 7369 H 685.561 3.26449 0.0994519 0
M  V30 7370 H 684.22 3.05731 -2.02297 0
M  V30 7371 H 683.868 5.0056 -0.494878 0
M  V30 7372 H 683.568 5.45127 -2.19341 0
M  V30 7373 H 685.092 5.94305 -1.40121 0
M  V30 7374 H 686.506 4.69067 -3.2962 0
M  V30 7375 H 684.903 4.43339 -4.04438 0
M  V30 7376 H 685.973 3.0462 -3.77273 0
M  V30 7377 N 687.317 1.12792 1.10072 0
M  V30 7378 C 688.566 0.880232 1.81479 0
M  V30 7379 C 688.879 -0.595575 1.86312 0
M  V30 7380 O 690.085 -0.959979 2.53962 0
M  V30 7381 C 688.541 1.52514 3.25987 0
M  V30 7382 C 688.149 3.036 3.29441 0
M  V30 7383 C 689.893 1.35788 4.02196 0
M  V30 7384 C 687.8 3.61007 4.68431 0
M  V30 7385 H 686.73 0.325654 0.680048 0
M  V30 7386 H 689.381 1.35485 1.23758 0
M  V30 7387 H 687.763 0.978188 3.83728 0
M  V30 7388 H 688.937 3.64819 2.81502 0
M  V30 7389 H 687.252 3.19765 2.66719 0
M  V30 7390 H 689.849 1.76096 5.0487 0
M  V30 7391 H 690.192 0.301972 4.15203 0
M  V30 7392 H 690.725 1.87426 3.50879 0
M  V30 7393 H 687.464 4.66375 4.60625 0
M  V30 7394 H 686.984 3.04564 5.16721 0
M  V30 7395 H 688.663 3.60289 5.37402 0
M  V30 7396 N 688.795 -1.27931 0.920396 0
M  V30 7397 C 689.725 -2.29487 0.431024 0
M  V30 7398 C 690.706 -1.62435 -0.504861 0
M  V30 7399 O 691.891 -1.89797 -0.411176 0
M  V30 7400 C 689.021 -3.45788 -0.323709 0
M  V30 7401 C 687.975 -4.24784 0.523658 0
M  V30 7402 C 687.301 -5.33488 -0.359809 0
M  V30 7403 C 688.601 -4.90874 1.78437 0
M  V30 7404 H 690.295 -2.70671 1.27975 0
M  V30 7405 H 687.841 -1.30121 0.616813 0
M  V30 7406 H 689.794 -4.15927 -0.676952 0
M  V30 7407 H 688.518 -3.03502 -1.2064 0
M  V30 7408 H 687.177 -3.56382 0.85951 0
M  V30 7409 H 686.825 -4.87445 -1.24124 0
M  V30 7410 H 686.525 -5.87247 0.203605 0
M  V30 7411 H 688.049 -6.06472 -0.708787 0
M  V30 7412 H 689.463 -5.53339 1.49963 0
M  V30 7413 H 687.86 -5.54659 2.29071 0
M  V30 7414 H 688.93 -4.14988 2.50824 0
M  V30 7415 N 690.273 -0.685099 -1.4193 0
M  V30 7416 C 691.684 -0.287699 -1.8447 0
M  V30 7417 C 692.035 1.17215 -1.57338 0
M  V30 7418 O 691.16 1.89856 -1.03845 0
M  V30 7419 C 691.755 -0.515385 -3.34857 0
M  V30 7420 C 690.314 -0.172006 -3.76007 0
M  V30 7421 C 689.461 -0.802808 -2.65425 0
M  V30 7422 H 692.412 -0.88652 -1.3163 0
M  V30 7423 H 692.433 0.229251 -3.79809 0
M  V30 7424 H 691.945 -1.57796 -3.54573 0
M  V30 7425 H 690.046 0.886716 -3.61895 0
M  V30 7426 H 690.159 -0.619717 -4.75075 0
M  V30 7427 H 688.523 -0.233267 -2.5363 0
M  V30 7428 H 689.306 -1.86904 -2.87961 0
M  V30 7429 N 691.751 1.51645 -0.429126 0
M  V30 7430 C 692.979 2.06433 0.138994 0
M  V30 7431 C 693.394 1.29735 1.37165 0
M  V30 7432 O 692.751 0.354638 1.79021 0
M  V30 7433 C 692.802 3.58439 0.469452 0
M  V30 7434 O 692.523 4.32238 -0.714273 0
M  V30 7435 C 694.024 4.29712 1.08914 0
M  V30 7436 H 691.244 0.6709 0.0115608 0
M  V30 7437 H 693.788 1.9532 -0.605843 0
M  V30 7438 H 691.943 3.69494 1.16419 0
M  V30 7439 H 692.357 5.22704 -0.433633 0
M  V30 7440 H 693.831 5.37182 1.27042 0
M  V30 7441 H 694.308 3.87473 2.06788 0
M  V30 7442 H 694.914 4.2308 0.434028 0
M  V30 7443 N 693.229 0.160201 1.56784 0
M  V30 7444 C 694.645 -0.196089 1.58391 0
M  V30 7445 C 694.845 -1.63689 1.17508 0
M  V30 7446 O 693.901 -2.36613 0.881506 0
M  V30 7447 C 695.214 0.0746449 3.00607 0
M  V30 7448 C 696.762 0.0119762 3.12998 0
M  V30 7449 C 697.237 0.255551 4.57286 0
M  V30 7450 N 698.728 0.202938 4.62755 0
M  V30 7451 C 699.463 0.365731 5.72232 0
M  V30 7452 N 698.959 0.586972 6.90309 0
M  V30 7453 N 700.752 0.302411 5.61286 0
M  V30 7454 H 692.903 1.1008 1.81648 0
M  V30 7455 H 695.166 0.436779 0.841384 0
M  V30 7456 H 694.872 1.07231 3.34954 0
M  V30 7457 H 694.746 -0.638802 3.71751 0
M  V30 7458 H 697.133 -0.976254 2.78484 0
M  V30 7459 H 697.214 0.75796 2.44313 0
M  V30 7460 H 696.858 1.24094 4.92507 0
M  V30 7461 H 696.788 -0.510912 5.24116 0
M  V30 7462 H 699.279 0.0371328 3.77882 0
M  V30 7463 H 699.592 0.700941 7.69615 0
M  V30 7464 H 697.937 0.623453 6.92198 0
M  V30 7465 H 701.128 0.130238 4.67919 0
M  V30 7466 H 701.301 0.432712 6.46554 0
M  V30 7467 N 694.707 -1.5719 -0.113559 0
M  V30 7468 C 695.67 -1.99796 -1.12314 0
M  V30 7469 C 696.67 -0.888847 -1.34001 0
M  V30 7470 O 697.86 -1.15476 -1.30426 0
M  V30 7471 C 694.992 -2.34279 -2.47641 0
M  V30 7472 H 696.185 -2.90193 -0.756825 0
M  V30 7473 H 693.738 -1.52144 -0.358029 0
M  V30 7474 H 694.473 -1.46778 -2.89183 0
M  V30 7475 H 694.258 -3.15175 -2.33253 0
M  V30 7476 H 695.748 -2.67963 -3.2029 0
M  V30 7477 N 696.185 0.383891 -1.52853 0
M  V30 7478 C 697.601 0.724316 -1.42218 0
M  V30 7479 C 697.801 1.93943 -0.546654 0
M  V30 7480 O 696.857 2.5249 -0.0220562 0
M  V30 7481 C 698.17 0.954635 -2.85144 0
M  V30 7482 C 699.718 1.05579 -2.94656 0
M  V30 7483 C 700.193 1.3187 -4.38605 0
M  V30 7484 N 701.684 1.38681 -4.41952 0
M  V30 7485 C 702.419 1.60699 -5.50421 0
M  V30 7486 N 701.915 1.80154 -6.68967 0
M  V30 7487 N 703.708 1.6292 -5.37972 0
M  V30 7488 H 695.859 -0.4156 -2.08294 0
M  V30 7489 H 698.122 -0.123776 -0.939885 0
M  V30 7490 H 697.828 0.133829 -3.51445 0
M  V30 7491 H 697.702 1.86788 -3.27704 0
M  V30 7492 H 700.089 1.86716 -2.2852 0
M  V30 7493 H 700.17 0.120338 -2.55517 0
M  V30 7494 H 699.814 0.512416 -5.05309 0
M  V30 7495 H 699.744 2.26708 -4.75301 0
M  V30 7496 H 702.235 1.25334 -3.56511 0
M  V30 7497 H 702.548 1.96476 -7.47407 0
M  V30 7498 H 700.893 1.77368 -6.71986 0
M  V30 7499 H 704.084 1.47276 -4.44328 0
M  V30 7500 H 704.257 1.79739 -6.22574 0
M  V30 7501 N 697.663 1.43903 0.642637 0
M  V30 7502 C 698.593 1.52697 1.76652 0
M  V30 7503 C 699.574 0.380816 1.65782 0
M  V30 7504 O 700.759 0.599432 1.84717 0
M  V30 7505 C 697.889 1.45975 3.15133 0
M  V30 7506 C 696.843 2.58949 3.40778 0
M  V30 7507 C 696.169 2.37279 4.79169 0
M  V30 7508 C 697.469 4.01153 3.34475 0
M  V30 7509 H 699.163 2.46766 1.69549 0
M  V30 7510 H 696.709 1.18767 0.814279 0
M  V30 7511 H 698.662 1.5073 3.93521 0
M  V30 7512 H 697.386 0.484162 3.22991 0
M  V30 7513 H 696.045 2.53564 2.64765 0
M  V30 7514 H 695.693 1.37939 4.83717 0
M  V30 7515 H 695.393 3.13016 4.97287 0
M  V30 7516 H 696.917 2.43834 5.59801 0
M  V30 7517 H 698.331 4.07968 4.02784 0
M  V30 7518 H 696.728 4.77001 3.64129 0
M  V30 7519 H 697.798 4.25539 2.32475 0
M  V30 7520 N 699.141 -0.881989 1.30609 0
M  V30 7521 C 700.389 -1.63082 1.19368 0
M  V30 7522 C 700.71 -1.93376 -0.251147 0
M  V30 7523 O 699.98 -1.5723 -1.16857 0
M  V30 7524 H 698.56 -0.604542 0.438791 0
M  V30 7525 H 701.222 -1.05658 1.63776 0
M  V30 7526 H 700.318 -2.57966 1.7567 0
M  V30 7527 N 700.619 -1.13374 -1.09472 0
M  V30 7528 C 701.566 -0.810682 -2.16094 0
M  V30 7529 C 702.536 0.227003 -1.64541 0
M  V30 7530 O 703.721 0.0993538 -1.90541 0
M  V30 7531 C 700.861 -0.282336 -3.43943 0
M  V30 7532 C 699.974 -1.37902 -4.09398 0
M  V30 7533 C 699.109 -0.809066 -5.25002 0
M  V30 7534 C 698.148 -1.88419 -5.82379 0
M  V30 7535 N 697.285 -1.33221 -6.89345 0
M  V30 7536 H 702.125 -1.72397 -2.43071 0
M  V30 7537 H 699.662 -0.860564 -1.19301 0
M  V30 7538 H 701.62 0.0421189 -4.17179 0
M  V30 7539 H 700.25 0.594083 -3.17286 0
M  V30 7540 H 699.302 -1.82008 -3.34032 0
M  V30 7541 H 700.614 -2.19161 -4.48074 0
M  V30 7542 H 699.768 -0.435867 -6.05132 0
M  V30 7543 H 698.507 0.0346058 -4.87688 0
M  V30 7544 H 697.512 -2.26646 -5.00911 0
M  V30 7545 H 698.737 -2.73125 -6.21755 0
M  V30 7546 H 696.683 -0.510535 -6.5401 0
M  V30 7547 H 696.6 -2.08129 -7.26786 0
M  V30 7548 H 697.868 -0.986565 -7.73232 0
M  V30 7549 N 702.098 1.27442 -0.927168 0
M  V30 7550 C 703.008 2.30599 -0.431448 0
M  V30 7551 C 704.024 1.67028 0.48761 0
M  V30 7552 O 705.2 1.97962 0.370546 0
M  V30 7553 C 702.265 3.45327 0.308292 0
M  V30 7554 C 701.326 4.24418 -0.645615 0
M  V30 7555 C 700.559 5.33667 0.0589164 0
M  V30 7556 O 700.782 5.5589 1.27838 0
M  V30 7557 O 699.716 5.98774 -0.612638 0
M  V30 7558 H 703.542 2.75036 -1.28797 0
M  V30 7559 H 701.127 1.32382 -0.692495 0
M  V30 7560 H 703.009 4.15107 0.725555 0
M  V30 7561 H 701.684 3.02945 1.14043 0
M  V30 7562 H 700.591 3.57174 -1.11255 0
M  V30 7563 H 701.924 4.70512 -1.44496 0
M  V30 7564 N 703.576 0.692616 1.41565 0
M  V30 7565 C 704.987 0.297478 1.84315 0
M  V30 7566 C 705.338 -1.16379 1.57957 0
M  V30 7567 O 704.463 -1.89303 1.0485 0
M  V30 7568 C 705.058 0.533136 3.34579 0
M  V30 7569 C 703.617 0.191944 3.7591 0
M  V30 7570 C 702.764 0.816873 2.64995 0
M  V30 7571 H 705.715 0.893488 1.31158 0
M  V30 7572 H 705.736 -0.209105 3.79925 0
M  V30 7573 H 705.248 1.59674 3.53731 0
M  V30 7574 H 703.349 -0.867512 3.6236 0
M  V30 7575 H 703.462 0.644902 4.7474 0
M  V30 7576 H 701.826 0.246715 2.53502 0
M  V30 7577 H 702.609 1.88429 2.86966 0
M  V30 7578 N 705.054 -1.51416 0.437162 0
M  V30 7579 C 706.017 -2.26312 -0.362729 0
M  V30 7580 C 707.017 -1.29748 -0.949847 0
M  V30 7581 O 708.207 -1.53462 -0.824325 0
M  V30 7582 C 705.339 -3.05475 -1.5132 0
M  V30 7583 H 706.532 -2.98459 0.29365 0
M  V30 7584 H 704.085 -1.55137 0.190327 0
M  V30 7585 H 704.82 -2.37744 -2.20563 0
M  V30 7586 H 704.605 -3.76401 -1.09838 0
M  V30 7587 H 706.095 -3.62209 -2.07833 0
M  V30 7588 N 706.532 -0.168513 -1.56696 0
M  V30 7589 C 707.809 0.523367 -1.88468 0
M  V30 7590 C 708.189 1.81503 -1.07796 0
M  V30 7591 O 707.537 2.27859 -0.171045 0
M  V30 7592 C 707.747 0.767991 -3.40445 0
M  V30 7593 C 709.095 1.09924 -4.10124 0
M  V30 7594 O 710.119 0.856625 -3.45746 0
M  V30 7595 O 708.978 1.55681 -5.23856 0
M  V30 7596 H 706.072 0.269447 -0.781874 0
M  V30 7597 H 708.618 -0.206739 -1.68436 0
M  V30 7598 H 707.39 -0.145254 -3.9103 0
M  V30 7599 H 707.013 1.55151 -3.66079 0
M  V30 7600 N 708.01 1.57248 0.105221 0
M  V30 7601 C 709.25 1.87393 0.816283 0
M  V30 7602 C 709.614 0.758249 1.76393 0
M  V30 7603 O 710.815 0.941835 2.5176 0
M  V30 7604 C 709.086 3.22775 1.53463 0
M  V30 7605 S 710.645 3.74588 2.28537 0
M  V30 7606 H 707.463 0.656847 0.272164 0
M  V30 7607 H 710.065 1.9536 0.073909 0
M  V30 7608 H 708.769 4.01905 0.830674 0
M  V30 7609 H 708.3 3.17921 2.3171 0
M  V30 7610 H 710.315 3.47193 3.54502 0
M  V30 7611 N 709.488 -0.375779 1.53054 0
M  V30 7612 C 710.765 -1.13453 1.59336 0
M  V30 7613 C 711.145 -2.07379 0.394614 0
M  V30 7614 O 710.493 -2.2004 -0.616 0
M  V30 7615 C 710.703 -1.8826 2.93869 0
M  V30 7616 C 712.051 -2.43155 3.48081 0
M  V30 7617 O 713.075 -1.984 2.95831 0
M  V30 7618 O 711.934 -3.24944 4.39401 0
M  V30 7619 H 709.028 -0.519856 0.643179 0
M  V30 7620 H 711.574 -0.379865 1.65394 0
M  V30 7621 H 710.346 -1.19652 3.72558 0
M  V30 7622 H 709.969 -2.70658 2.91256 0
M  V30 7623 N 710.966 -1.44241 -0.634997 0
M  V30 7624 C 711.876 -1.53293 -1.77591 0
M  V30 7625 C 712.892 -0.418831 -1.68884 0
M  V30 7626 O 714.068 -0.675619 -1.8973 0
M  V30 7627 C 711.133 -1.47075 -3.13958 0
M  V30 7628 C 710.194 -2.69304 -3.34326 0
M  V30 7629 C 709.427 -2.63374 -4.64187 0
M  V30 7630 O 709.65 -1.69161 -5.44739 0
M  V30 7631 O 708.584 -3.54166 -4.86673 0
M  V30 7632 H 712.41 -2.49673 -1.72908 0
M  V30 7633 H 709.995 -1.26445 -0.795745 0
M  V30 7634 H 711.877 -1.46117 -3.95257 0
M  V30 7635 H 710.552 -0.538373 -3.19192 0
M  V30 7636 H 709.459 -2.75831 -2.52721 0
M  V30 7637 H 710.792 -3.61576 -3.33951 0
M  V30 7638 N 712.444 0.87505 -1.31075 0
M  V30 7639 C 713.721 1.60976 -1.11113 0
M  V30 7640 C 714.101 2.08409 0.336006 0
M  V30 7641 O 713.449 1.85858 1.32924 0
M  V30 7642 C 713.659 2.77166 -2.12085 0
M  V30 7643 C 715.007 3.47254 -2.44335 0
M  V30 7644 O 716.031 2.87367 -2.10472 0
M  V30 7645 O 714.89 4.55276 -3.02301 0
M  V30 7646 H 711.984 0.707982 -0.427424 0
M  V30 7647 H 714.53 0.920957 -1.42536 0
M  V30 7648 H 713.302 2.39494 -3.09449 0
M  V30 7649 H 712.925 3.53737 -1.81538 0
M  V30 7650 N 713.922 1.13953 1.08869 0
M  V30 7651 C 714.832 0.835666 2.19212 0
M  V30 7652 C 715.848 -0.182005 1.73045 0
M  V30 7653 O 717.024 -0.0116661 2.01397 0
M  V30 7654 C 714.089 0.312325 3.4529 0
M  V30 7655 C 713.15 1.39196 4.06107 0
M  V30 7656 C 712.383 0.893496 5.26168 0
M  V30 7657 O 712.606 -0.266807 5.69776 0
M  V30 7658 O 711.54 1.67037 5.78258 0
M  V30 7659 H 715.366 1.75769 2.47667 0
M  V30 7660 H 712.951 0.917421 1.17914 0
M  V30 7661 H 714.833 0.0261582 4.21392 0
M  V30 7662 H 713.508 -0.582042 3.18424 0
M  V30 7663 H 712.415 1.73152 3.31616 0
M  V30 7664 H 713.748 2.26068 4.37212 0
M  V30 7665 N 715.4 -1.26948 0.933913 0
M  V30 7666 C 716.33 -2.29017 0.45534 0
M  V30 7667 C 717.311 -1.62961 -0.487605 0
M  V30 7668 O 718.496 -1.90223 -0.391022 0
M  V30 7669 C 715.626 -3.46112 -0.287015 0
M  V30 7670 C 714.58 -4.24205 0.568682 0
M  V30 7671 C 713.906 -5.3384 -0.303206 0
M  V30 7672 C 715.206 -4.88954 1.83633 0
M  V30 7673 H 716.9 -2.69298 1.30839 0
M  V30 7674 H 714.446 -1.29459 0.630579 0
M  V30 7675 H 716.399 -4.16622 -0.6328 0
M  V30 7676 H 715.123 -3.04765 -1.17414 0
M  V30 7677 H 713.782 -3.5545 0.897261 0
M  V30 7678 H 713.43 -4.88734 -1.18947 0
M  V30 7679 H 713.13 -5.86998 0.265879 0
M  V30 7680 H 714.654 -6.0719 -0.644423 0
M  V30 7681 H 716.068 -5.51717 1.55823 0
M  V30 7682 H 714.465 -5.52198 2.34941 0
M  V30 7683 H 715.535 -4.12305 2.55211 0
M  V30 7684 N 716.879 -0.700114 -1.41195 0
M  V30 7685 C 718.127 -0.232546 -2.00758 0
M  V30 7686 C 718.448 1.1734 -1.55745 0
M  V30 7687 O 717.718 1.79262 -0.790058 0
M  V30 7688 H 716.298 -0.0829845 -0.742376 0
M  V30 7689 H 718.96 -0.902289 -1.72756 0
M  V30 7690 H 718.056 -0.253521 -3.11069 0
M  V30 7691 N 718.357 1.51182 -0.445186 0
M  V30 7692 C 719.267 2.31692 0.368255 0
M  V30 7693 C 720.283 1.40942 1.02036 0
M  V30 7694 O 721.459 1.74011 1.01401 0
M  V30 7695 C 718.524 3.14903 1.45041 0
M  V30 7696 C 717.585 4.21442 0.817615 0
M  V30 7697 C 716.818 5.00677 1.8482 0
M  V30 7698 O 717.041 4.80644 3.07145 0
M  V30 7699 O 715.975 5.84559 1.43438 0
M  V30 7700 H 719.801 3.0232 -0.289219 0
M  V30 7701 H 717.386 1.47951 -0.207555 0
M  V30 7702 H 719.268 3.66612 2.07783 0
M  V30 7703 H 717.943 2.47031 2.09182 0
M  V30 7704 H 716.85 3.73791 0.151931 0
M  V30 7705 H 718.183 4.9171 0.219564 0
M  V30 7706 N 719.835 0.176821 1.56605 0
M  V30 7707 C 721.084 -0.466833 1.96223 0
M  V30 7708 C 721.397 -1.64015 1.06576 0
M  V30 7709 O 722.603 -2.3504 1.35898 0
M  V30 7710 C 721.059 -0.881921 3.48927 0
M  V30 7711 C 720.667 0.266102 4.47209 0
M  V30 7712 C 722.411 -1.49368 3.97353 0
M  V30 7713 C 720.318 -0.168923 5.91159 0
M  V30 7714 H 719.248 -0.178178 0.732645 0
M  V30 7715 H 721.899 0.265929 1.81563 0
M  V30 7716 H 720.281 -1.67082 3.59026 0
M  V30 7717 H 721.455 1.04349 4.4883 0
M  V30 7718 H 719.77 0.788178 4.08872 0
M  V30 7719 H 722.367 -1.8313 5.02362 0
M  V30 7720 H 722.71 -2.3936 3.40606 0
M  V30 7721 H 723.243 -0.769114 3.90294 0
M  V30 7722 H 719.982 0.696351 6.51791 0
M  V30 7723 H 719.502 -0.911552 5.92833 0
M  V30 7724 H 721.181 -0.610938 6.44109 0
M  V30 7725 N 721.313 -1.57302 -0.09688 0
M  V30 7726 C 722.243 -2.0497 -1.11846 0
M  V30 7727 C 723.224 -0.938278 -1.41882 0
M  V30 7728 O 724.409 -1.20943 -1.51942 0
M  V30 7729 C 721.539 -2.47264 -2.43881 0
M  V30 7730 C 720.493 -3.62053 -2.28257 0
M  V30 7731 C 719.819 -3.90318 -3.65453 0
M  V30 7732 C 721.119 -4.93005 -1.72461 0
M  V30 7733 H 722.813 -2.90567 -0.721888 0
M  V30 7734 H 720.359 -1.39786 -0.345803 0
M  V30 7735 H 722.312 -2.7922 -3.15617 0
M  V30 7736 H 721.036 -1.58664 -2.8547 0
M  V30 7737 H 719.695 -3.30341 -1.58967 0
M  V30 7738 H 719.343 -2.98889 -4.04567 0
M  V30 7739 H 719.043 -4.67597 -3.55846 0
M  V30 7740 H 720.567 -4.24747 -4.3866 0
M  V30 7741 H 721.981 -5.23354 -2.34036 0
M  V30 7742 H 720.378 -5.74436 -1.73618 0
M  V30 7743 H 721.448 -4.80053 -0.683898 0
M  V30 7744 N 722.791 0.367657 -1.53252 0
M  V30 7745 C 723.738 1.45028 -1.79543 0
M  V30 7746 C 724.708 1.53288 -0.63969 0
M  V30 7747 O 725.893 1.69209 -0.881653 0
M  V30 7748 C 723.033 2.82 -1.98923 0
M  V30 7749 C 722.146 2.82722 -3.26638 0
M  V30 7750 C 721.281 4.11257 -3.36216 0
M  V30 7751 C 720.32 4.06113 -4.57972 0
M  V30 7752 N 719.457 5.26293 -4.64715 0
M  V30 7753 H 724.297 1.21908 -2.71923 0
M  V30 7754 H 721.834 0.591011 -1.34705 0
M  V30 7755 H 723.792 3.61568 -2.08146 0
M  V30 7756 H 722.422 3.03523 -1.09881 0
M  V30 7757 H 721.474 1.95399 -3.26379 0
M  V30 7758 H 722.786 2.74794 -4.16281 0
M  V30 7759 H 721.94 4.99239 -3.44739 0
M  V30 7760 H 720.679 4.21935 -2.44586 0
M  V30 7761 H 719.684 3.16517 -4.49552 0
M  V30 7762 H 720.909 3.97039 -5.50942 0
M  V30 7763 H 718.855 5.37561 -3.75985 0
M  V30 7764 H 718.772 5.20526 -5.4826 0
M  V30 7765 H 720.04 6.16113 -4.77519 0
M  V30 7766 N 724.269 1.44576 0.627338 0
M  V30 7767 C 725.179 1.54232 1.76776 0
M  V30 7768 C 726.195 0.427782 1.6866 0
M  V30 7769 O 727.371 0.685671 1.89369 0
M  V30 7770 C 724.436 1.48738 3.13174 0
M  V30 7771 C 723.497 2.71074 3.32893 0
M  V30 7772 C 722.73 2.65832 4.62784 0
M  V30 7773 O 722.953 1.72048 5.43834 0
M  V30 7774 O 721.887 3.56742 4.84787 0
M  V30 7775 H 725.713 2.50586 1.71582 0
M  V30 7776 H 723.298 1.26865 0.789028 0
M  V30 7777 H 725.18 1.48211 3.94476 0
M  V30 7778 H 723.855 0.555292 3.18902 0
M  V30 7779 H 722.762 2.77168 2.51254 0
M  V30 7780 H 724.095 3.63342 3.32029 0
M  V30 7781 N 725.747 -0.868086 1.31537 0
M  V30 7782 C 726.657 -2.00801 1.21311 0
M  V30 7783 C 727.673 -1.73518 0.129431 0
M  V30 7784 O 728.849 -1.98378 0.347588 0
M  V30 7785 C 725.914 -3.3419 0.922935 0
M  V30 7786 C 724.975 -3.74783 2.0937 0
M  V30 7787 C 724.208 -5.01807 1.81728 0
M  V30 7788 O 724.431 -5.65404 0.753313 0
M  V30 7789 O 723.365 -5.39213 2.67457 0
M  V30 7790 H 727.191 -2.12361 2.17109 0
M  V30 7791 H 724.776 -0.996684 1.11295 0
M  V30 7792 H 726.658 -4.14174 0.777033 0
M  V30 7793 H 725.333 -3.237 -0.00500301 0
M  V30 7794 H 724.24 -2.95432 2.29501 0
M  V30 7795 H 725.573 -3.89902 3.00396 0
M  V30 7796 N 727.225 -1.14528 -1.08264 0
M  V30 7797 C 728.155 -0.856356 -2.1723 0
M  V30 7798 C 729.136 0.189251 -1.69044 0
M  V30 7799 O 730.321 0.0456119 -1.94146 0
M  V30 7800 C 727.451 -0.334662 -3.45684 0
M  V30 7801 C 726.405 -1.31588 -4.0727 0
M  V30 7802 C 725.731 -0.653428 -5.30692 0
M  V30 7803 C 727.031 -2.67866 -4.48381 0
M  V30 7804 H 728.725 -1.76755 -2.41657 0
M  V30 7805 H 726.271 -0.851287 -1.16143 0
M  V30 7806 H 728.224 -0.120128 -4.21229 0
M  V30 7807 H 726.948 0.611967 -3.20815 0
M  V30 7808 H 725.607 -1.51661 -3.33758 0
M  V30 7809 H 725.255 0.299054 -5.0211 0
M  V30 7810 H 724.955 -1.30817 -5.72853 0
M  V30 7811 H 726.479 -0.448453 -6.08951 0
M  V30 7812 H 727.893 -2.51692 -5.15096 0
M  V30 7813 H 726.29 -3.29627 -5.01464 0
M  V30 7814 H 727.36 -3.24632 -3.60198 0
M  V30 7815 N 728.703 1.26451 -0.940633 0
M  V30 7816 C 730.114 1.75726 -0.630653 0
M  V30 7817 C 730.465 1.76631 0.854167 0
M  V30 7818 O 729.59 1.37807 1.66848 0
M  V30 7819 C 730.185 3.19114 -1.13805 0
M  V30 7820 C 728.744 3.66005 -0.878497 0
M  V30 7821 C 727.891 2.45505 -1.28928 0
M  V30 7822 H 730.842 1.12535 -1.119 0
M  V30 7823 H 730.863 3.77311 -0.491625 0
M  V30 7824 H 730.375 3.18424 -2.21874 0
M  V30 7825 H 728.476 3.72126 0.187833 0
M  V30 7826 H 728.589 4.54844 -1.50512 0
M  V30 7827 H 726.953 2.4467 -0.707713 0
M  V30 7828 H 727.736 2.47516 -2.37888 0
M  V30 7829 N 730.181 0.707592 1.40822 0
M  V30 7830 C 731.429 0.243189 2.00632 0
M  V30 7831 C 731.75 -1.16512 1.56365 0
M  V30 7832 O 731.02 -1.78841 0.799553 0
M  V30 7833 H 729.6 0.0869203 0.741926 0
M  V30 7834 H 732.262 0.911438 1.72275 0
M  V30 7835 H 731.358 0.270014 3.1093 0
M  V30 7836 N 731.66 -1.50943 0.453197 0
M  V30 7837 C 733.071 -1.86699 -0.00619892 0
M  V30 7838 C 733.422 -1.3693 -1.40515 0
M  V30 7839 O 732.547 -0.726715 -2.03833 0
M  V30 7840 C 733.142 -3.38795 -0.018025 0
M  V30 7841 C 731.701 -3.74028 -0.421885 0
M  V30 7842 C 730.848 -2.74752 0.375087 0
M  V30 7843 H 733.799 -1.43942 0.668317 0
M  V30 7844 H 733.82 -3.71468 -0.824125 0
M  V30 7845 H 733.332 -3.74988 1.00028 0
M  V30 7846 H 731.433 -3.43431 -1.44521 0
M  V30 7847 H 731.546 -4.78908 -0.135664 0
M  V30 7848 H 729.91 -2.5414 -0.168794 0
M  V30 7849 H 730.693 -3.13787 1.39256 0
M  V30 7850 N 733.138 -0.185124 -1.56509 0
M  V30 7851 C 734.366 0.462139 -2.01673 0
M  V30 7852 C 734.781 1.55873 -1.06532 0
M  V30 7853 O 734.138 1.82371 -0.0684805 0
M  V30 7854 C 734.189 1.0277 -3.46584 0
M  V30 7855 O 733.91 -0.0251296 -4.38093 0
M  V30 7856 C 735.411 1.75183 -4.07217 0
M  V30 7857 H 732.631 0.117001 -0.660721 0
M  V30 7858 H 735.175 -0.290905 -2.0242 0
M  V30 7859 H 733.33 1.73118 -3.46568 0
M  V30 7860 H 733.744 0.394387 -5.23015 0
M  V30 7861 H 735.218 2.09999 -5.10494 0
M  V30 7862 H 735.695 2.6519 -3.50101 0
M  V30 7863 H 736.301 1.09445 -4.10977 0
M  V30 7864 N 734.616 1.57351 0.0885366 0
M  V30 7865 C 735.844 1.90631 0.804196 0
M  V30 7866 C 736.259 0.779474 1.71958 0
M  V30 7867 O 735.616 -0.248179 1.80805 0
M  V30 7868 C 735.667 3.23568 1.61202 0
M  V30 7869 O 735.388 4.31917 0.733447 0
M  V30 7870 C 736.889 3.70753 2.43016 0
M  V30 7871 H 734.109 0.630501 0.229585 0
M  V30 7872 H 736.653 2.044 0.0638092 0
M  V30 7873 H 734.808 3.11377 2.30485 0
M  V30 7874 H 735.222 5.08297 1.29361 0
M  V30 7875 H 736.696 4.66447 2.9518 0
M  V30 7876 H 737.173 2.98922 3.2178 0
M  V30 7877 H 737.779 3.85834 1.7892 0
M  V30 7878 N 736.094 -0.359525 1.53444 0
M  V30 7879 C 737.341 -1.10152 1.6992 0
M  V30 7880 C 737.669 -1.89125 0.4541 0
M  V30 7881 O 736.924 -1.87396 -0.564023 0
M  V30 7882 C 737.223 -2.08287 2.90433 0
M  V30 7883 C 736.889 -1.45749 4.26694 0
M  V30 7884 C 735.551 -1.28421 4.63747 0
M  V30 7885 C 737.903 -1.00557 5.11408 0
M  V30 7886 C 735.231 -0.644951 5.83144 0
M  V30 7887 C 737.583 -0.380288 6.31456 0
M  V30 7888 C 736.247 -0.194557 6.67216 0
M  V30 7889 H 735.517 -0.403076 0.621781 0
M  V30 7890 H 738.164 -0.382612 1.87639 0
M  V30 7891 H 736.469 -2.86503 2.67251 0
M  V30 7892 H 738.166 -2.65662 3.00374 0
M  V30 7893 H 734.756 -1.6023 3.97523 0
M  V30 7894 H 738.94 -1.12735 4.83326 0
M  V30 7895 H 734.196 -0.48952 6.09437 0
M  V30 7896 H 738.37 -0.0219455 6.96397 0
M  V30 7897 H 735.997 0.30285 7.59597 0
M  V30 7898 N 737.572 -1.44907 -0.619662 0
M  V30 7899 C 738.849 -1.38766 -1.37852 0
M  V30 7900 C 739.229 -0.0521393 -2.11036 0
M  V30 7901 O 738.577 0.965613 -2.07095 0
M  V30 7902 C 738.787 -2.59344 -2.33541 0
M  V30 7903 C 740.135 -3.03909 -2.96521 0
M  V30 7904 O 741.159 -2.59631 -2.43865 0
M  V30 7905 O 740.018 -3.80713 -3.92071 0
M  V30 7906 H 737.112 -0.550083 -0.617525 0
M  V30 7907 H 739.658 -1.57015 -0.643759 0
M  V30 7908 H 738.43 -3.48142 -1.78642 0
M  V30 7909 H 738.053 -2.43367 -3.14417 0
M  V30 7910 N 739.05 0.861098 -1.31996 0
M  V30 7911 C 740.299 1.60965 -1.21545 0
M  V30 7912 C 740.612 1.94325 0.222972 0
M  V30 7913 O 741.818 2.67757 0.449272 0
M  V30 7914 C 740.274 2.90223 -2.12834 0
M  V30 7915 C 739.882 2.64313 -3.61722 0
M  V30 7916 C 741.626 3.68229 -2.11205 0
M  V30 7917 C 739.533 3.89532 -4.44993 0
M  V30 7918 H 738.463 0.603988 -0.451348 0
M  V30 7919 H 741.114 0.951358 -1.56912 0
M  V30 7920 H 739.496 3.57475 -1.70375 0
M  V30 7921 H 740.67 2.05413 -4.12483 0
M  V30 7922 H 738.985 1.99647 -3.65418 0
M  V30 7923 H 741.582 4.61138 -2.70658 0
M  V30 7924 H 741.925 4.01466 -1.1014 0
M  V30 7925 H 742.458 3.07873 -2.51911 0
M  V30 7926 H 739.197 3.61441 -5.46846 0
M  V30 7927 H 738.717 4.47851 -3.98985 0
M  V30 7928 H 740.396 4.57334 -4.57663 0
M  V30 7929 N 740.528 1.15101 1.07655 0
M  V30 7930 C 741.758 0.946357 1.83651 0
M  V30 7931 C 742.166 -0.508641 1.82235 0
M  V30 7932 O 741.509 -1.36445 1.22997 0
M  V30 7933 C 741.571 1.37945 3.31981 0
M  V30 7934 C 741.235 2.85155 3.57122 0
M  V30 7935 C 742.232 3.83234 3.51323 0
M  V30 7936 C 739.917 3.2275 3.84887 0
M  V30 7937 C 741.911 5.16914 3.72932 0
M  V30 7938 C 739.598 4.56604 4.06148 0
M  V30 7939 C 740.596 5.53495 4.00165 0
M  V30 7940 O 740.284 6.84931 4.20861 0
M  V30 7941 H 740.016 0.336368 0.586372 0
M  V30 7942 H 742.57 1.53198 1.36819 0
M  V30 7943 H 740.8 0.737205 3.79608 0
M  V30 7944 H 742.489 1.14439 3.89434 0
M  V30 7945 H 743.255 3.55535 3.29878 0
M  V30 7946 H 739.134 2.47921 3.88659 0
M  V30 7947 H 742.678 5.92529 3.68178 0
M  V30 7948 H 738.575 4.84019 4.27078 0
M  V30 7949 H 739.343 6.91304 4.38226 0
M  V30 7950 N 742.006 -1.2595 0.947325 0
M  V30 7951 C 742.916 -2.29883 0.468079 0
M  V30 7952 C 743.932 -1.67783 -0.460975 0
M  V30 7953 O 745.108 -1.98526 -0.339006 0
M  V30 7954 C 742.173 -3.45773 -0.253315 0
M  V30 7955 C 741.234 -4.23337 0.713054 0
M  V30 7956 C 740.467 -5.33694 0.025993 0
M  V30 7957 O 740.69 -5.57853 -1.18978 0
M  V30 7958 O 739.624 -5.97724 0.70782 0
M  V30 7959 H 743.45 -2.72952 1.33156 0
M  V30 7960 H 741.035 -1.31263 0.713468 0
M  V30 7961 H 742.917 -4.16209 -0.659423 0
M  V30 7962 H 741.592 -3.04721 -1.09209 0
M  V30 7963 H 740.499 -3.55359 1.16923 0
M  V30 7964 H 741.832 -4.68154 1.51963 0
M  V30 7965 N 743.484 -0.715051 -1.40445 0
M  V30 7966 C 744.731 -0.254328 -2.00897 0
M  V30 7967 C 745.059 1.15228 -1.56693 0
M  V30 7968 O 744.314 1.7958 -0.777786 0
M  V30 7969 C 744.613 -0.281791 -3.56287 0
M  V30 7970 C 744.279 -1.63862 -4.20071 0
M  V30 7971 C 742.941 -2.01003 -4.37208 0
M  V30 7972 C 745.293 -2.53039 -4.55654 0
M  V30 7973 C 742.621 -3.26869 -4.8721 0
M  V30 7974 C 744.973 -3.78256 -5.07055 0
M  V30 7975 C 743.637 -4.15515 -5.22401 0
M  V30 7976 H 742.907 -0.0930652 -0.735133 0
M  V30 7977 H 745.554 -0.917977 -1.68064 0
M  V30 7978 H 743.859 0.465428 -3.89026 0
M  V30 7979 H 745.556 0.0925158 -4.00893 0
M  V30 7980 H 742.146 -1.33979 -4.07121 0
M  V30 7981 H 746.33 -2.2562 -4.42051 0
M  V30 7982 H 741.586 -3.55706 -4.97276 0
M  V30 7983 H 745.76 -4.47528 -5.33565 0
M  V30 7984 H 743.387 -5.13114 -5.60909 0
M  V30 7985 N 744.962 1.50701 -0.461195 0
M  V30 7986 C 745.912 2.25195 0.35653 0
M  V30 7987 C 746.896 1.2838 0.96992 0
M  V30 7988 O 748.088 1.53338 0.884108 0
M  V30 7989 C 745.217 3.11471 1.44364 0
M  V30 7990 C 744.303 4.15729 0.83847 0
M  V30 7991 N 744.694 5.05788 -0.0353198 0
M  V30 7992 C 742.992 4.32133 1.1035 0
M  V30 7993 C 743.693 5.80472 -0.37774 0
M  V30 7994 N 742.669 5.43049 0.24463 0
M  V30 7995 H 746.471 2.92188 -0.316746 0
M  V30 7996 H 743.985 1.60059 -0.274725 0
M  V30 7997 H 745.982 3.63436 2.04255 0
M  V30 7998 H 744.642 2.46025 2.11901 0
M  V30 7999 H 745.653 5.16326 -0.403465 0
M  V30 8000 H 742.33 3.77908 1.77458 0
M  V30 8001 H 743.72 6.62996 -1.09024 0
M  V30 8002 N 746.441 0.193421 1.56409 0
M  V30 8003 C 747.688 -0.445789 1.97532 0
M  V30 8004 C 748.016 -1.61744 1.08024 0
M  V30 8005 O 747.271 -1.95338 0.118982 0
M  V30 8006 C 747.57 -0.949718 3.44551 0
M  V30 8007 C 747.236 0.108383 4.5077 0
M  V30 8008 C 745.898 0.399126 4.79542 0
M  V30 8009 C 748.25 0.825423 5.14622 0
M  V30 8010 C 745.578 1.41192 5.69457 0
M  V30 8011 C 747.93 1.82735 6.05632 0
M  V30 8012 C 746.594 2.12531 6.32761 0
M  V30 8013 H 745.864 -0.163126 0.722822 0
M  V30 8014 H 748.511 0.290035 1.89291 0
M  V30 8015 H 746.816 -1.76378 3.49854 0
M  V30 8016 H 748.513 -1.45367 3.73724 0
M  V30 8017 H 745.103 -0.128392 4.28408 0
M  V30 8018 H 749.287 0.61403 4.92487 0
M  V30 8019 H 744.543 1.6487 5.88751 0
M  V30 8020 H 748.717 2.3882 6.5417 0
M  V30 8021 H 746.344 2.91155 7.02234 0
M  V30 8022 N 747.919 -1.57396 -0.0801906 0
M  V30 8023 C 749.144 -1.91437 -0.797909 0
M  V30 8024 C 749.569 -0.789075 -1.70749 0
M  V30 8025 O 748.927 0.25857 -1.79447 0
M  V30 8026 C 748.975 -3.24402 -1.57467 0
M  V30 8027 O 748.079 -3.13043 -2.68473 0
M  V30 8028 H 747.42 -0.627109 -0.218243 0
M  V30 8029 H 749.95 -2.04537 -0.050949 0
M  V30 8030 H 749.96 -3.58072 -1.95571 0
M  V30 8031 H 748.635 -4.05884 -0.907229 0
M  V30 8032 H 747.212 -2.90915 -2.33287 0
M  V30 8033 N 749.397 0.351382 -1.53633 0
M  V30 8034 C 750.674 1.10903 -1.6112 0
M  V30 8035 C 751.054 2.06725 -0.427556 0
M  V30 8036 O 750.402 2.20992 0.580916 0
M  V30 8037 C 750.612 1.83561 -2.96827 0
M  V30 8038 C 751.96 2.37587 -3.51906 0
M  V30 8039 O 752.984 1.93669 -2.9895 0
M  V30 8040 O 751.843 3.17913 -4.44515 0
M  V30 8041 H 748.937 0.509558 -0.651368 0
M  V30 8042 H 751.483 0.353504 -1.65977 0
M  V30 8043 H 750.255 1.1371 -3.74414 0
M  V30 8044 H 749.878 2.6599 -2.95525 0
M  V30 8045 N 750.875 1.45233 0.611969 0
M  V30 8046 C 751.805 1.5641 1.73373 0
M  V30 8047 C 752.786 0.415896 1.64937 0
M  V30 8048 O 753.971 0.638478 1.83404 0
M  V30 8049 C 751.101 1.52627 3.11965 0
M  V30 8050 C 750.055 2.66119 3.35208 0
M  V30 8051 C 749.381 2.4739 4.74028 0
M  V30 8052 C 750.681 4.08157 3.25891 0
M  V30 8053 H 752.375 2.50307 1.64277 0
M  V30 8054 H 749.921 1.20467 0.788904 0
M  V30 8055 H 751.874 1.59043 3.90235 0
M  V30 8056 H 750.598 0.552564 3.21892 0
M  V30 8057 H 749.257 2.59123 2.59327 0
M  V30 8058 H 748.905 1.48168 4.80682 0
M  V30 8059 H 748.605 3.23494 4.90536 0
M  V30 8060 H 750.129 2.55653 5.54503 0
M  V30 8061 H 751.543 4.1642 3.9404 0
M  V30 8062 H 749.94 4.84617 3.5393 0
M  V30 8063 H 751.01 4.30374 2.23397 0
M  V30 8064 N 752.353 -0.854086 1.3245 0
M  V30 8065 C 753.263 -1.99503 1.23434 0
M  V30 8066 C 754.279 -1.73371 0.147828 0
M  V30 8067 O 755.455 -1.97998 0.368609 0
M  V30 8068 C 752.52 -3.33192 0.958328 0
M  V30 8069 C 751.581 -3.72542 2.13333 0
M  V30 8070 C 750.814 -4.99852 1.8704 0
M  V30 8071 O 751.037 -5.64573 0.813239 0
M  V30 8072 O 749.971 -5.36345 2.73161 0
M  V30 8073 H 753.797 -2.10046 2.1935 0
M  V30 8074 H 751.382 -0.984823 1.12346 0
M  V30 8075 H 753.264 -4.13327 0.820918 0
M  V30 8076 H 751.939 -3.23687 0.0293299 0
M  V30 8077 H 750.846 -2.92981 2.32622 0
M  V30 8078 H 752.179 -3.86694 3.04514 0
M  V30 8079 N 753.831 -1.1567 -1.07043 0
M  V30 8080 C 755.071 -0.944089 -1.81291 0
M  V30 8081 C 755.435 0.519305 -1.84844 0
M  V30 8082 O 756.636 0.850357 -2.54995 0
M  V30 8083 C 754.907 -1.54528 -3.22267 0
M  V30 8084 S 756.466 -1.47623 -4.13223 0
M  V30 8085 H 753.284 -0.339696 -0.624602 0
M  V30 8086 H 755.886 -1.47277 -1.28568 0
M  V30 8087 H 754.59 -2.60321 -3.17271 0
M  V30 8088 H 754.121 -1.0156 -3.80065 0
M  V30 8089 H 756.136 -0.471261 -4.93957 0
M  V30 8090 N 755.309 1.25446 -0.953992 0
M  V30 8091 C 756.537 1.97215 -0.625595 0
M  V30 8092 C 756.952 1.70911 0.802168 0
M  V30 8093 O 756.309 0.984782 1.5365 0
M  V30 8094 C 756.36 3.50777 -0.873943 0
M  V30 8095 O 756.081 3.76173 -2.24556 0
M  V30 8096 C 757.582 4.39776 -0.557845 0
M  V30 8097 H 754.802 0.628652 -0.2346 0
M  V30 8098 H 757.346 1.59632 -1.27819 0
M  V30 8099 H 755.501 3.86474 -0.267765 0
M  V30 8100 H 755.915 4.70636 -2.31522 0
M  V30 8101 H 757.389 5.46431 -0.782157 0
M  V30 8102 H 757.866 4.36257 0.507573 0
M  V30 8103 H 758.472 4.09644 -1.14332 0
M  V30 8104 N 756.787 0.722489 1.40064 0
M  V30 8105 C 757.697 0.0755984 2.34478 0
M  V30 8106 C 758.713 -0.736046 1.57665 0
M  V30 8107 O 759.889 -0.667407 1.9002 0
M  V30 8108 C 756.954 -0.830075 3.36616 0
M  V30 8109 C 756.015 -0.00759884 4.29299 0
M  V30 8110 C 755.248 -0.870139 5.26559 0
M  V30 8111 O 755.471 -2.10921 5.2997 0
M  V30 8112 O 754.405 -0.305454 6.01124 0
M  V30 8113 H 758.231 0.854545 2.9143 0
M  V30 8114 H 755.816 0.483032 1.41376 0
M  V30 8115 H 757.698 -1.34864 3.99236 0
M  V30 8116 H 756.373 -1.58805 2.82069 0
M  V30 8117 H 755.28 0.556199 3.69942 0
M  V30 8118 H 756.613 0.712312 4.87018 0
M  V30 8119 N 758.265 -1.50454 0.469181 0
M  V30 8120 C 759.195 -2.31353 -0.31592 0
M  V30 8121 C 760.176 -1.38172 -0.992094 0
M  V30 8122 O 761.361 -1.67093 -0.989633 0
M  V30 8123 C 758.491 -3.1786 -1.39937 0
M  V30 8124 C 757.445 -4.19578 -0.844909 0
M  V30 8125 C 756.771 -4.9481 -2.0265 0
M  V30 8126 C 758.071 -5.22106 0.142499 0
M  V30 8127 H 759.765 -2.97237 0.359269 0
M  V30 8128 H 757.311 -1.42942 0.174224 0
M  V30 8129 H 759.264 -3.7325 -1.95607 0
M  V30 8130 H 757.988 -2.49858 -2.1033 0
M  V30 8131 H 756.647 -3.65285 -0.310189 0
M  V30 8132 H 756.295 -4.23282 -2.71737 0
M  V30 8133 H 755.995 -5.63613 -1.66174 0
M  V30 8134 H 757.519 -5.53035 -2.58815 0
M  V30 8135 H 758.933 -5.72378 -0.324966 0
M  V30 8136 H 757.33 -5.98618 0.421441 0
M  V30 8137 H 758.4 -4.7297 1.06901 0
M  V30 8138 N 759.743 -0.201713 -1.56304 0
M  V30 8139 C 761.02 0.483273 -1.89536 0
M  V30 8140 C 761.4 1.79176 -1.11621 0
M  V30 8141 O 760.748 2.27445 -0.219339 0
M  V30 8142 C 760.958 0.695604 -3.41998 0
M  V30 8143 C 762.306 1.012 -4.12364 0
M  V30 8144 O 763.33 0.783094 -3.47485 0
M  V30 8145 O 762.189 1.44534 -5.27041 0
M  V30 8146 H 759.283 0.252801 -0.787414 0
M  V30 8147 H 761.829 -0.24242 -1.6796 0
M  V30 8148 H 760.601 -0.228165 -3.90634 0
M  V30 8149 H 760.224 1.47351 -3.69288 0
M  V30 8150 N 761.222 1.57436 0.0718424 0
M  V30 8151 C 762.152 2.06724 1.08571 0
M  V30 8152 C 763.133 0.960731 1.40371 0
M  V30 8153 O 764.318 1.23345 1.49999 0
M  V30 8154 C 761.448 2.51112 2.39916 0
M  V30 8155 C 760.402 3.65639 2.22469 0
M  V30 8156 C 759.728 3.96082 3.59198 0
M  V30 8157 C 761.028 4.95687 1.64596 0
M  V30 8158 H 762.722 2.91679 0.675569 0
M  V30 8159 H 760.268 1.40319 0.32352 0
M  V30 8160 H 762.221 2.84206 3.11135 0
M  V30 8161 H 760.945 1.63186 2.8291 0
M  V30 8162 H 759.604 3.32828 1.53691 0
M  V30 8163 H 759.252 3.05287 3.99761 0
M  V30 8164 H 758.952 4.73199 3.48362 0
M  V30 8165 H 760.476 4.31672 4.31847 0
M  V30 8166 H 761.89 5.27011 2.25681 0
M  V30 8167 H 760.287 5.77126 1.64457 0
M  V30 8168 H 761.357 4.8108 0.60744 0
M  V30 8169 N 762.7 -0.34323 1.53817 0
M  V30 8170 C 763.946 -1.08504 1.71332 0
M  V30 8171 C 764.279 -1.88294 0.475285 0
M  V30 8172 O 763.554 -1.87205 -0.527688 0
M  V30 8173 C 763.837 -2.02597 2.97702 0
M  V30 8174 C 763.69 -1.26268 4.31713 0
M  V30 8175 C 765.009 -3.0241 3.19744 0
M  V30 8176 H 762.128 -0.393072 0.623429 0
M  V30 8177 H 764.77 -0.363579 1.86489 0
M  V30 8178 H 762.92 -2.64118 2.8491 0
M  V30 8179 H 764.592 -0.673594 4.56356 0
M  V30 8180 H 762.835 -0.564696 4.30109 0
M  V30 8181 H 763.506 -1.95253 5.16314 0
M  V30 8182 H 765.982 -2.51004 3.31868 0
M  V30 8183 H 764.858 -3.65449 4.09558 0
M  V30 8184 H 765.119 -3.73806 2.36054 0
M  V30 8185 N 764.178 -1.45556 -0.604258 0
M  V30 8186 C 765.125 -1.54482 -1.71476 0
M  V30 8187 C 766.095 -0.390479 -1.61445 0
M  V30 8188 O 767.28 -0.604371 -1.80975 0
M  V30 8189 C 764.42 -1.52064 -3.09791 0
M  V30 8190 C 763.533 -2.78073 -3.30604 0
M  V30 8191 C 762.668 -2.67304 -4.59044 0
M  V30 8192 C 761.707 -3.88352 -4.73127 0
M  V30 8193 N 760.844 -3.76098 -5.9287 0
M  V30 8194 H 765.684 -2.49349 -1.63184 0
M  V30 8195 H 763.221 -1.23725 -0.795641 0
M  V30 8196 H 765.179 -1.48649 -3.89819 0
M  V30 8197 H 763.809 -0.607442 -3.17033 0
M  V30 8198 H 762.861 -2.91561 -2.44329 0
M  V30 8199 H 764.173 -3.67847 -3.36883 0
M  V30 8200 H 763.327 -2.61875 -5.47272 0
M  V30 8201 H 762.066 -1.75135 -4.55169 0
M  V30 8202 H 761.071 -3.94137 -3.83322 0
M  V30 8203 H 762.296 -4.81591 -4.78797 0
M  V30 8204 H 760.242 -2.867 -5.90033 0
M  V30 8205 H 760.159 -4.59509 -6.00323 0
M  V30 8206 H 761.427 -3.74607 -6.83586 0
M  V30 8207 N 765.656 0.84705 -1.32902 0
M  V30 8208 C 766.896 1.61554 -1.25218 0
M  V30 8209 C 767.26 1.91141 0.18143 0
M  V30 8210 O 768.461 2.6607 0.382106 0
M  V30 8211 C 766.732 2.89553 -2.09509 0
M  V30 8212 S 768.291 3.80283 -2.18931 0
M  V30 8213 H 765.109 0.554031 -0.445613 0
M  V30 8214 H 767.711 1.00251 -1.67839 0
M  V30 8215 H 766.415 2.65776 -3.12716 0
M  V30 8216 H 765.946 3.55868 -1.67694 0
M  V30 8217 H 767.961 4.77641 -1.34438 0
M  V30 8218 N 767.134 1.16236 1.06428 0
M  V30 8219 C 768.382 0.941171 1.78847 0
M  V30 8220 C 768.703 -0.53248 1.87589 0
M  V30 8221 O 767.973 -1.38686 1.38358 0
M  V30 8222 H 766.553 0.345228 0.66244 0
M  V30 8223 H 769.215 1.46479 1.28569 0
M  V30 8224 H 768.311 1.35871 2.80972 0
M  V30 8225 N 768.612 -1.24939 0.960631 0
M  V30 8226 C 769.861 -1.92118 0.614298 0
M  V30 8227 C 770.174 -1.75998 -0.853474 0
M  V30 8228 O 771.38 -2.37804 -1.31003 0
M  V30 8229 C 769.836 -3.44303 1.04801 0
M  V30 8230 C 769.444 -3.69123 2.53875 0
M  V30 8231 C 771.188 -4.17375 0.774497 0
M  V30 8232 C 769.095 -5.14843 2.91016 0
M  V30 8233 H 768.025 -0.719319 0.226045 0
M  V30 8234 H 770.676 -1.41701 1.16589 0
M  V30 8235 H 769.058 -3.93715 0.42479 0
M  V30 8236 H 770.232 -3.30339 3.21267 0
M  V30 8237 H 768.547 -3.09323 2.78762 0
M  V30 8238 H 771.144 -5.24723 1.02808 0
M  V30 8239 H 771.487 -4.15294 -0.289192 0
M  V30 8240 H 772.02 -3.7389 1.35835 0
M  V30 8241 H 768.759 -5.2204 3.96427 0
M  V30 8242 H 768.279 -5.54652 2.28302 0
M  V30 8243 H 769.958 -5.83017 2.80535 0
M  V30 8244 N 770.09 -0.729906 -1.39679 0
M  V30 8245 C 771.022 -0.0470588 -2.29152 0
M  V30 8246 C 772.035 0.708808 -1.4656 0
M  V30 8247 O 773.224 0.553815 -1.69691 0
M  V30 8248 C 770.324 0.957612 -3.25089 0
M  V30 8249 C 769.497 0.264321 -4.36601 0
M  V30 8250 C 768.556 1.17638 -5.12882 0
M  V30 8251 O 767.582 0.655777 -5.6541 0
M  V30 8252 N 768.784 2.50649 -5.23598 0
M  V30 8253 H 771.549 -0.815364 -2.88395 0
M  V30 8254 H 769.11 -0.578707 -1.51204 0
M  V30 8255 H 771.102 1.57026 -3.72995 0
M  V30 8256 H 769.672 1.62716 -2.66912 0
M  V30 8257 H 768.892 -0.528732 -3.90638 0
M  V30 8258 H 770.18 -0.216344 -5.0834 0
M  V30 8259 H 769.578 2.95427 -4.82431 0
M  V30 8260 H 768.135 3.07022 -5.74961 0
M  V30 8261 N 771.568 1.50203 -0.477153 0
M  V30 8262 C 772.501 2.25343 0.359983 0
M  V30 8263 C 773.479 1.28909 0.991022 0
M  V30 8264 O 774.663 1.58146 1.02578 0
M  V30 8265 C 771.79 3.03431 1.5049 0
M  V30 8266 C 770.836 4.14836 0.99063 0
M  V30 8267 S 771.669 5.35407 -0.0995413 0
M  V30 8268 C 772.825 6.17045 1.04911 0
M  V30 8269 H 773.058 2.95999 -0.277836 0
M  V30 8270 H 770.591 1.52159 -0.262115 0
M  V30 8271 H 772.549 3.49012 2.16105 0
M  V30 8272 H 771.21 2.32289 2.11425 0
M  V30 8273 H 770.403 4.689 1.84794 0
M  V30 8274 H 770.005 3.71723 0.412097 0
M  V30 8275 H 772.297 6.48546 1.95946 0
M  V30 8276 H 773.24 7.05979 0.547596 0
M  V30 8277 H 773.648 5.49193 1.30567 0
M  V30 8278 N 773.046 0.209999 1.56195 0
M  V30 8279 C 774.276 -0.429373 2.02089 0
M  V30 8280 C 774.684 -1.54703 1.0892 0
M  V30 8281 O 774.027 -1.83485 0.0889535 0
M  V30 8282 C 774.089 -1.03266 3.44349 0
M  V30 8283 C 773.753 -0.0518873 4.56971 0
M  V30 8284 C 774.75 0.744249 5.14545 0
M  V30 8285 C 772.435 0.0635185 5.0226 0
M  V30 8286 C 774.429 1.64261 6.15871 0
M  V30 8287 C 772.116 0.965423 6.03426 0
M  V30 8288 C 773.114 1.75352 6.60106 0
M  V30 8289 O 772.802 2.64029 7.59305 0
M  V30 8290 H 772.534 -0.110604 0.66689 0
M  V30 8291 H 775.088 0.320436 2.02885 0
M  V30 8292 H 773.318 -1.83134 3.40586 0
M  V30 8293 H 775.007 -1.57823 3.73961 0
M  V30 8294 H 775.773 0.665476 4.80413 0
M  V30 8295 H 771.652 -0.539762 4.57829 0
M  V30 8296 H 775.196 2.25819 6.60039 0
M  V30 8297 H 771.093 1.04526 6.36981 0
M  V30 8298 H 771.861 2.57974 7.76783 0
M  V30 8299 N 774.524 -1.57472 -0.0634922 0
M  V30 8300 C 775.754 -1.91608 -0.772645 0
M  V30 8301 C 776.162 -0.805019 -1.71219 0
M  V30 8302 O 775.505 0.229941 -1.82255 0
M  V30 8303 C 775.567 -3.21281 -1.61304 0
M  V30 8304 C 775.231 -4.49177 -0.841973 0
M  V30 8305 C 776.228 -5.19661 -0.157494 0
M  V30 8306 C 773.913 -4.9578 -0.80669 0
M  V30 8307 C 775.907 -6.35006 0.551948 0
M  V30 8308 C 773.594 -6.11028 -0.0934812 0
M  V30 8309 C 774.592 -6.80493 0.58463 0
M  V30 8310 O 774.28 -7.93542 1.28633 0
M  V30 8311 H 774.012 -0.637685 -0.224352 0
M  V30 8312 H 776.566 -2.05369 -0.0355279 0
M  V30 8313 H 774.796 -3.03752 -2.39315 0
M  V30 8314 H 776.485 -3.41003 -2.20162 0
M  V30 8315 H 777.251 -4.84681 -0.176006 0
M  V30 8316 H 773.13 -4.41579 -1.32397 0
M  V30 8317 H 776.674 -6.89161 1.0818 0
M  V30 8318 H 772.571 -6.45459 -0.0729258 0
M  V30 8319 H 773.339 -8.09708 1.19646 0
M  V30 8320 N 776.003 0.335068 -1.53997 0
M  V30 8321 C 776.913 1.43511 -1.85585 0
M  V30 8322 C 777.929 1.57162 -0.746726 0
M  V30 8323 O 779.105 1.72477 -1.03988 0
M  V30 8324 C 776.17 2.78386 -2.06646 0
M  V30 8325 C 775.231 2.74007 -3.30483 0
M  V30 8326 C 774.464 4.02449 -3.50529 0
M  V30 8327 O 774.687 5.00147 -2.74242 0
M  V30 8328 O 773.621 4.06405 -4.4398 0
M  V30 8329 H 777.447 1.19731 -2.79102 0
M  V30 8330 H 775.032 0.528033 -1.39758 0
M  V30 8331 H 776.914 3.58247 -2.21894 0
M  V30 8332 H 775.589 3.0208 -1.16317 0
M  V30 8333 H 774.496 1.92736 -3.2063 0
M  V30 8334 H 775.829 2.55267 -4.20832 0
M  V30 8335 N 777.481 1.45874 0.596531 0
M  V30 8336 C 778.411 1.5824 1.71705 0
M  V30 8337 C 779.392 0.433366 1.64487 0
M  V30 8338 O 780.577 0.657895 1.82717 0
M  V30 8339 C 777.707 1.55927 3.10329 0
M  V30 8340 C 776.661 2.69659 3.32367 0
M  V30 8341 C 775.987 2.52403 4.71377 0
M  V30 8342 C 777.287 4.11591 3.21544 0
M  V30 8343 H 778.981 2.52035 1.61613 0
M  V30 8344 H 776.527 1.21297 0.776082 0
M  V30 8345 H 778.48 1.63173 3.88526 0
M  V30 8346 H 777.204 0.586674 3.21288 0
M  V30 8347 H 775.863 2.61859 2.56564 0
M  V30 8348 H 775.511 1.53258 4.79083 0
M  V30 8349 H 775.211 3.28679 4.87077 0
M  V30 8350 H 776.735 2.6152 5.5176 0
M  V30 8351 H 778.149 4.20576 3.89601 0
M  V30 8352 H 776.546 4.88344 3.4877 0
M  V30 8353 H 777.616 4.32719 2.1882 0
M  V30 8354 N 778.959 -0.83999 1.33349 0
M  V30 8355 C 780.207 -1.59202 1.24496 0
M  V30 8356 C 780.528 -1.94077 -0.189499 0
M  V30 8357 O 779.798 -1.60868 -1.11796 0
M  V30 8358 H 778.378 -0.590276 0.457802 0
M  V30 8359 H 781.04 -1.00394 1.67054 0
M  V30 8360 H 780.136 -2.52247 1.83788 0
M  V30 8361 N 780.437 -1.16799 -1.0581 0
M  V30 8362 C 781.683 -0.953935 -1.78963 0
M  V30 8363 C 782.016 0.516638 -1.87202 0
M  V30 8364 O 781.291 1.38338 -1.36721 0
M  V30 8365 C 781.574 -1.58808 -3.23191 0
M  V30 8366 C 781.427 -3.13032 -3.23003 0
M  V30 8367 C 782.746 -1.2868 -4.20867 0
M  V30 8368 H 779.865 -0.347972 -0.64968 0
M  V30 8369 H 782.507 -1.44204 -1.23715 0
M  V30 8370 H 780.657 -1.17303 -3.70368 0
M  V30 8371 H 782.329 -3.63553 -2.83949 0
M  V30 8372 H 780.572 -3.46108 -2.61518 0
M  V30 8373 H 781.243 -3.52527 -4.24769 0
M  V30 8374 H 783.719 -1.6461 -3.82155 0
M  V30 8375 H 782.595 -1.75645 -5.20038 0
M  V30 8376 H 782.856 -0.206491 -4.41618 0
M  V30 8377 N 781.915 1.24427 -0.967243 0
M  V30 8378 C 783.161 1.92772 -0.629812 0
M  V30 8379 C 783.494 1.75436 0.832827 0
M  V30 8380 O 782.769 1.10716 1.59913 0
M  V30 8381 C 783.052 3.45798 -1.00477 0
M  V30 8382 C 782.905 3.72304 -2.52407 0
M  V30 8383 C 784.224 4.36787 -0.538999 0
M  V30 8384 H 781.343 0.700099 -0.230282 0
M  V30 8385 H 783.985 1.46805 -1.20616 0
M  V30 8386 H 782.135 3.8508 -0.514336 0
M  V30 8387 H 783.807 3.42584 -3.08924 0
M  V30 8388 H 782.05 3.17472 -2.95625 0
M  V30 8389 H 782.721 4.7937 -2.73693 0
M  V30 8390 H 785.197 4.04877 -0.959874 0
M  V30 8391 H 784.073 5.4259 -0.829926 0
M  V30 8392 H 784.334 4.38527 0.560923 0
M  V30 8393 N 783.393 0.737304 1.3929 0
M  V30 8394 C 784.809 0.413132 1.5416 0
M  V30 8395 C 785.009 -1.07574 1.70382 0
M  V30 8396 O 784.065 -1.86185 1.70562 0
M  V30 8397 C 785.378 1.19817 2.75798 0
M  V30 8398 C 786.926 1.18662 2.89635 0
M  V30 8399 C 787.401 1.95427 4.14213 0
M  V30 8400 N 788.892 1.92605 4.21257 0
M  V30 8401 C 789.627 2.48808 5.16606 0
M  V30 8402 N 789.123 3.13659 6.1773 0
M  V30 8403 N 790.916 2.38829 5.08839 0
M  V30 8404 H 783.067 1.70243 1.27008 0
M  V30 8405 H 785.33 0.720802 0.61575 0
M  V30 8406 H 785.036 2.25179 2.70161 0
M  V30 8407 H 784.91 0.804144 3.68529 0
M  V30 8408 H 787.297 0.141112 2.94762 0
M  V30 8409 H 787.378 1.62003 1.97961 0
M  V30 8410 H 787.022 2.9998 4.09847 0
M  V30 8411 H 786.952 1.4949 5.04936 0
M  V30 8412 H 789.443 1.45362 3.48824 0
M  V30 8413 H 789.756 3.54006 6.8695 0
M  V30 8414 H 788.101 3.17749 6.1811 0
M  V30 8415 H 791.292 1.87806 4.28773 0
M  V30 8416 H 791.465 2.82929 5.82971 0
M  V30 8417 N 784.871 -1.49948 0.485112 0
M  V30 8418 C 785.818 -2.28819 -0.301729 0
M  V30 8419 C 786.788 -1.34496 -0.974683 0
M  V30 8420 O 787.973 -1.63444 -0.984418 0
M  V30 8421 C 785.113 -3.16758 -1.36961 0
M  V30 8422 C 784.226 -4.26125 -0.710027 0
M  V30 8423 C 783.361 -5.01302 -1.75699 0
M  V30 8424 C 782.4 -6.02525 -1.07841 0
M  V30 8425 N 781.537 -6.70927 -2.06886 0
M  V30 8426 H 786.377 -2.95604 0.377127 0
M  V30 8427 H 783.914 -1.45764 0.197826 0
M  V30 8428 H 785.872 -3.66106 -2.00056 0
M  V30 8429 H 784.502 -2.51991 -2.01744 0
M  V30 8430 H 783.554 -3.80385 0.0338278 0
M  V30 8431 H 784.866 -4.98493 -0.175079 0
M  V30 8432 H 784.02 -5.54438 -2.46339 0
M  V30 8433 H 782.759 -4.28672 -2.32577 0
M  V30 8434 H 781.764 -5.48635 -0.357706 0
M  V30 8435 H 782.989 -6.77134 -0.516345 0
M  V30 8436 H 780.935 -6.01079 -2.62755 0
M  V30 8437 H 780.852 -7.39216 -1.58414 0
M  V30 8438 H 782.12 -7.28675 -2.76863 0
M  V30 8439 N 786.349 -0.21828 -1.56081 0
M  V30 8440 C 787.596 0.414307 -1.98216 0
M  V30 8441 C 787.924 1.60005 -1.10584 0
M  V30 8442 O 787.179 1.95124 -0.150043 0
M  V30 8443 C 787.478 0.894782 -3.46018 0
M  V30 8444 C 787.144 -0.180083 -4.5054 0
M  V30 8445 C 785.806 -0.475367 -4.78846 0
M  V30 8446 C 788.158 -0.907191 -5.13244 0
M  V30 8447 C 785.486 -1.50233 -5.67139 0
M  V30 8448 C 787.838 -1.92347 -6.02649 0
M  V30 8449 C 786.502 -2.22571 -6.293 0
M  V30 8450 H 785.772 0.151606 -0.725325 0
M  V30 8451 H 788.419 -0.320113 -1.88806 0
M  V30 8452 H 786.724 1.7079 -3.52616 0
M  V30 8453 H 788.421 1.39403 -3.75989 0
M  V30 8454 H 785.011 0.06022 -4.28558 0
M  V30 8455 H 789.195 -0.692303 -4.91448 0
M  V30 8456 H 784.451 -1.74215 -5.86054 0
M  V30 8457 H 788.625 -2.49197 -6.50288 0
M  V30 8458 H 786.252 -3.0229 -6.97513 0
M  V30 8459 N 787.827 1.57504 0.0551401 0
M  V30 8460 C 788.759 2.0158 1.09078 0
M  V30 8461 C 789.772 0.92434 1.34014 0
M  V30 8462 O 790.961 1.20202 1.31961 0
M  V30 8463 C 788.061 2.35385 2.43818 0
M  V30 8464 C 787.234 3.66588 2.38605 0
M  V30 8465 C 786.293 3.87874 3.55585 0
M  V30 8466 O 785.319 4.59259 3.36258 0
M  V30 8467 N 786.521 3.31503 4.76536 0
M  V30 8468 H 789.286 2.91039 0.71529 0
M  V30 8469 H 786.847 1.60058 0.243532 0
M  V30 8470 H 788.839 2.46784 3.20749 0
M  V30 8471 H 787.409 1.51731 2.73307 0
M  V30 8472 H 786.629 3.65787 1.46947 0
M  V30 8473 H 787.917 4.52706 2.32239 0
M  V30 8474 H 787.315 2.73592 4.9514 0
M  V30 8475 H 785.872 3.48324 5.50921 0
M  V30 8476 N 789.305 -0.326896 1.54172 0
M  V30 8477 C 790.554 -1.06274 1.71431 0
M  V30 8478 C 790.867 -1.89282 0.493123 0
M  V30 8479 O 792.073 -2.65933 0.54699 0
M  V30 8480 C 790.529 -1.93892 3.03206 0
M  V30 8481 C 790.137 -1.16011 4.32719 0
M  V30 8482 C 791.881 -2.67232 3.29829 0
M  V30 8483 C 789.788 -2.02755 5.55558 0
M  V30 8484 H 788.718 -0.400475 0.638855 0
M  V30 8485 H 791.369 -0.321184 1.80667 0
M  V30 8486 H 789.751 -2.71933 2.87869 0
M  V30 8487 H 790.925 -0.427643 4.58811 0
M  V30 8488 H 789.24 -0.54367 4.12836 0
M  V30 8489 H 791.837 -3.32434 4.18798 0
M  V30 8490 H 792.18 -3.34692 2.47562 0
M  V30 8491 H 792.713 -1.96255 3.46018 0
M  V30 8492 H 789.452 -1.3981 6.40417 0
M  V30 8493 H 788.972 -2.73745 5.33689 0
M  V30 8494 H 790.651 -2.61419 5.91835 0
M  V30 8495 N 790.784 -1.46188 -0.588786 0
M  V30 8496 C 792.195 -1.45421 -1.17088 0
M  V30 8497 C 792.546 -0.191801 -1.9526 0
M  V30 8498 O 791.671 0.705497 -2.04577 0
M  V30 8499 C 792.266 -2.63467 -2.13004 0
M  V30 8500 C 790.825 -2.6576 -2.6655 0
M  V30 8501 C 789.972 -2.38002 -1.42304 0
M  V30 8502 H 792.923 -1.54156 -0.377052 0
M  V30 8503 H 792.944 -2.38638 -2.96365 0
M  V30 8504 H 792.456 -3.55331 -1.56081 0
M  V30 8505 H 790.557 -1.77952 -3.27359 0
M  V30 8506 H 790.67 -3.65545 -3.09699 0
M  V30 8507 H 789.034 -1.87936 -1.71907 0
M  V30 8508 H 789.817 -3.32035 -0.872209 0
M  V30 8509 N 792.262 0.832906 -1.33792 0
M  V30 8510 C 793.194 1.95042 -1.2038 0
M  V30 8511 C 794.207 1.62253 -0.133299 0
M  V30 8512 O 795.396 1.74315 -0.384261 0
M  V30 8513 C 792.496 3.287 -0.825215 0
M  V30 8514 C 791.669 3.89581 -1.98861 0
M  V30 8515 C 790.728 5.01602 -1.59003 0
M  V30 8516 O 789.754 5.20431 -2.30522 0
M  V30 8517 N 790.956 5.78356 -0.498446 0
M  V30 8518 H 793.721 2.07083 -2.16649 0
M  V30 8519 H 791.282 1.00896 -1.26616 0
M  V30 8520 H 793.274 4.01074 -0.540559 0
M  V30 8521 H 791.844 3.12565 0.0469796 0
M  V30 8522 H 791.064 3.09723 -2.43856 0
M  V30 8523 H 792.352 4.26989 -2.76691 0
M  V30 8524 H 791.75 5.65618 0.0963297 0
M  V30 8525 H 790.307 6.51226 -0.273485 0
M  V30 8526 N 793.74 1.17359 1.05189 0
M  V30 8527 C 794.65 0.904984 2.16442 0
M  V30 8528 C 795.666 -0.12686 1.73537 0
M  V30 8529 O 796.842 0.0524127 2.01332 0
M  V30 8530 C 793.907 0.422019 3.44122 0
M  V30 8531 C 792.968 1.52045 4.01473 0
M  V30 8532 C 792.201 1.06044 5.23059 0
M  V30 8533 O 792.424 -0.0854023 5.70336 0
M  V30 8534 O 791.358 1.85349 5.72651 0
M  V30 8535 H 795.184 1.8356 2.41949 0
M  V30 8536 H 792.769 0.95447 1.14936 0
M  V30 8537 H 794.651 0.160208 4.21095 0
M  V30 8538 H 793.326 -0.480444 3.20115 0
M  V30 8539 H 792.233 1.83615 3.25939 0
M  V30 8540 H 793.566 2.39863 4.29798 0
M  V30 8541 N 795.218 -1.23913 0.973828 0
M  V30 8542 C 796.464 -1.92436 0.640026 0
M  V30 8543 C 796.797 -1.75875 -0.823512 0
M  V30 8544 O 796.072 -1.11563 -1.59323 0
M  V30 8545 C 796.355 -3.4526 1.0231 0
M  V30 8546 C 796.208 -3.70961 2.54378 0
M  V30 8547 C 797.527 -4.36495 0.562155 0
M  V30 8548 H 794.646 -0.698868 0.233992 0
M  V30 8549 H 797.288 -1.46163 1.21393 0
M  V30 8550 H 795.438 -3.84802 0.534751 0
M  V30 8551 H 797.11 -3.40941 3.10737 0
M  V30 8552 H 795.353 -3.15899 2.97305 0
M  V30 8553 H 796.024 -4.77912 2.76232 0
M  V30 8554 H 798.5 -4.04363 0.981333 0
M  V30 8555 H 797.376 -5.42142 0.858689 0
M  V30 8556 H 797.637 -4.38818 -0.537659 0
M  V30 8557 N 796.696 -0.74468 -1.38897 0
M  V30 8558 C 797.626 -0.126355 -2.33158 0
M  V30 8559 C 798.607 0.713517 -1.54412 0
M  V30 8560 O 799.792 0.656523 -1.82766 0
M  V30 8561 C 796.922 0.774375 -3.38557 0
M  V30 8562 C 795.876 0.0379214 -4.27983 0
M  V30 8563 C 795.202 1.05631 -5.24162 0
M  V30 8564 C 796.502 -1.12523 -5.10035 0
M  V30 8565 H 798.196 -0.913744 -2.85116 0
M  V30 8566 H 795.742 -0.440847 -1.37086 0
M  V30 8567 H 797.695 1.21655 -4.03458 0
M  V30 8568 H 796.419 1.59399 -2.85061 0
M  V30 8569 H 795.078 -0.384733 -3.64576 0
M  V30 8570 H 794.726 1.86975 -4.66958 0
M  V30 8571 H 794.426 0.568261 -5.84846 0
M  V30 8572 H 795.95 1.49799 -5.9194 0
M  V30 8573 H 797.364 -0.761037 -5.68226 0
M  V30 8574 H 795.761 -1.54355 -5.79909 0
M  V30 8575 H 796.831 -1.94237 -4.44297 0
M  V30 8576 N 798.174 1.49689 -0.493057 0
M  V30 8577 C 799.42 2.02727 0.0543518 0
M  V30 8578 C 799.753 1.37264 1.37376 0
M  V30 8579 O 799.028 0.505644 1.87812 0
M  V30 8580 C 799.311 3.59456 0.215226 0
M  V30 8581 C 799.164 4.35459 -1.12675 0
M  V30 8582 C 800.483 4.29511 0.959586 0
M  V30 8583 H 797.602 0.736773 0.0182786 0
M  V30 8584 H 800.244 1.78792 -0.642924 0
M  V30 8585 H 798.394 3.79981 0.809122 0
M  V30 8586 H 800.066 4.2645 -1.75891 0
M  V30 8587 H 798.309 3.9833 -1.71801 0
M  V30 8588 H 798.98 5.43454 -0.967578 0
M  V30 8589 H 801.456 4.13594 0.455977 0
M  V30 8590 H 800.332 5.38939 1.04098 0
M  V30 8591 H 800.593 3.94202 2.00144 0
M  V30 8592 N 799.652 0.226554 1.55963 0
M  V30 8593 C 801.068 -0.128733 1.5908 0
M  V30 8594 C 801.268 -1.58558 1.24345 0
M  V30 8595 O 800.324 -2.32661 0.981069 0
M  V30 8596 C 801.637 0.202076 3.0002 0
M  V30 8597 C 803.185 0.144718 3.12665 0
M  V30 8598 C 803.66 0.449272 4.55791 0
M  V30 8599 N 805.151 0.399026 4.61478 0
M  V30 8600 C 805.886 0.608106 5.70166 0
M  V30 8601 N 805.382 0.879227 6.87198 0
M  V30 8602 N 807.175 0.5402 5.59498 0
M  V30 8603 H 799.326 1.17686 1.76816 0
M  V30 8604 H 801.589 0.472072 0.822102 0
M  V30 8605 H 801.295 1.21341 3.30105 0
M  V30 8606 H 801.169 -0.480554 3.74126 0
M  V30 8607 H 803.556 -0.857261 2.82374 0
M  V30 8608 H 803.637 0.860899 2.40878 0
M  V30 8609 H 803.281 1.44871 4.86801 0
M  V30 8610 H 803.211 -0.288157 5.25811 0
M  V30 8611 H 805.702 0.197372 3.77384 0
M  V30 8612 H 806.015 1.02673 7.65949 0
M  V30 8613 H 804.36 0.916477 6.88931 0
M  V30 8614 H 807.551 0.328581 4.66945 0
M  V30 8615 H 807.724 0.706548 6.44137 0
M  V30 8616 N 801.13 -1.57531 -0.0467866 0
M  V30 8617 C 802.377 -1.88451 -0.74112 0
M  V30 8618 C 802.705 -0.821592 -1.76296 0
M  V30 8619 O 801.96 0.179585 -1.94874 0
M  V30 8620 C 802.259 -3.26091 -1.46285 0
M  V30 8621 C 801.925 -4.47171 -0.578669 0
M  V30 8622 C 800.587 -4.80032 -0.335083 0
M  V30 8623 C 802.939 -5.2119 0.0328809 0
M  V30 8624 C 800.267 -5.84309 0.529121 0
M  V30 8625 C 802.619 -6.26383 0.884684 0
M  V30 8626 C 801.283 -6.57729 1.1379 0
M  V30 8627 H 800.553 -0.68959 -0.271195 0
M  V30 8628 H 803.2 -1.915 -0.00132378 0
M  V30 8629 H 801.505 -3.18948 -2.27551 0
M  V30 8630 H 803.202 -3.47258 -2.00532 0
M  V30 8631 H 799.792 -4.21467 -0.778666 0
M  V30 8632 H 803.976 -4.96096 -0.142375 0
M  V30 8633 H 799.232 -6.06981 0.733794 0
M  V30 8634 H 803.406 -6.82888 1.36516 0
M  V30 8635 H 801.033 -7.38355 1.80929 0
M  V30 8636 N 802.608 0.318715 -1.54344 0
M  V30 8637 C 803.538 1.39751 -1.87061 0
M  V30 8638 C 804.519 1.53741 -0.727848 0
M  V30 8639 O 805.704 1.67541 -0.982016 0
M  V30 8640 C 802.834 2.76446 -2.10226 0
M  V30 8641 C 801.788 2.77239 -3.26071 0
M  V30 8642 C 801.114 4.17056 -3.34617 0
M  V30 8643 C 802.414 2.40555 -4.63606 0
M  V30 8644 H 804.108 1.12619 -2.77412 0
M  V30 8645 H 801.654 0.540318 -1.33479 0
M  V30 8646 H 803.607 3.51985 -2.31699 0
M  V30 8647 H 802.331 3.05066 -1.16629 0
M  V30 8648 H 800.99 2.04155 -3.04493 0
M  V30 8649 H 800.638 4.42824 -2.3857 0
M  V30 8650 H 800.338 4.18492 -4.12478 0
M  V30 8651 H 801.862 4.94401 -3.5833 0
M  V30 8652 H 803.276 3.05808 -4.84927 0
M  V30 8653 H 801.673 2.53234 -5.44052 0
M  V30 8654 H 802.743 1.35698 -4.65526 0
M  V30 8655 N 804.086 1.46499 0.581025 0
M  V30 8656 C 805.333 1.51896 1.33918 0
M  V30 8657 C 805.661 0.171361 1.93744 0
M  V30 8658 O 804.916 -0.833178 1.77078 0
M  V30 8659 C 805.215 2.56686 2.48691 0
M  V30 8660 C 804.881 4.00656 2.06847 0
M  V30 8661 C 803.543 4.39852 1.9515 0
M  V30 8662 C 805.895 4.91089 1.74589 0
M  V30 8663 C 803.223 5.67345 1.49456 0
M  V30 8664 C 805.575 6.1902 1.30373 0
M  V30 8665 C 804.239 6.57121 1.17255 0
M  V30 8666 H 803.509 0.555826 0.490039 0
M  V30 8667 H 806.156 1.79983 0.654092 0
M  V30 8668 H 804.461 2.22266 3.22653 0
M  V30 8669 H 806.158 2.58091 3.06904 0
M  V30 8670 H 802.748 3.69674 2.16886 0
M  V30 8671 H 806.932 4.61523 1.8251 0
M  V30 8672 H 802.188 5.95635 1.37944 0
M  V30 8673 H 806.362 6.8852 1.04467 0
M  V30 8674 H 803.989 7.55805 0.816236 0
M  V30 8675 N 805.565 -0.825799 1.34232 0
M  V30 8676 C 806.79 -1.61883 1.29648 0
M  V30 8677 C 807.215 -1.87669 -0.127295 0
M  V30 8678 O 806.573 -1.45016 -1.08813 0
M  V30 8679 C 806.621 -2.93846 2.09014 0
M  V30 8680 O 805.725 -3.85778 1.4577 0
M  V30 8681 H 805.066 -0.492454 0.445405 0
M  V30 8682 H 807.596 -1.02641 1.76992 0
M  V30 8683 H 807.606 -3.43435 2.20264 0
M  V30 8684 H 806.281 -2.74401 3.12533 0
M  V30 8685 H 804.858 -3.4429 1.43245 0
M  V30 8686 N 807.043 -1.17915 -1.04565 0
M  V30 8687 C 808.292 -0.965816 -1.77073 0
M  V30 8688 C 808.605 0.506005 -1.88942 0
M  V30 8689 O 809.811 0.837717 -2.58253 0
M  V30 8690 C 808.267 -1.67894 -3.18339 0
M  V30 8691 C 807.875 -3.18972 -3.1458 0
M  V30 8692 C 809.619 -1.54823 -3.9526 0
M  V30 8693 C 807.526 -3.82946 -4.50674 0
M  V30 8694 H 806.456 -0.357729 -0.663736 0
M  V30 8695 H 809.107 -1.41235 -1.17153 0
M  V30 8696 H 807.489 -1.16016 -3.78624 0
M  V30 8697 H 808.663 -3.77835 -2.63776 0
M  V30 8698 H 806.978 -3.32127 -2.51159 0
M  V30 8699 H 809.575 -1.99984 -4.95894 0
M  V30 8700 H 809.918 -0.499727 -4.1329 0
M  V30 8701 H 810.451 -2.03953 -3.41538 0
M  V30 8702 H 807.19 -4.8782 -4.37849 0
M  V30 8703 H 806.71 -3.2887 -5.01602 0
M  V30 8704 H 808.389 -3.85518 -5.196 0
M  V30 8705 N 808.521 1.23394 -0.980386 0
M  V30 8706 C 809.746 1.96384 -0.666935 0
M  V30 8707 C 810.171 1.72087 0.759456 0
M  V30 8708 O 809.529 0.992328 1.51732 0
M  V30 8709 C 809.577 3.47499 -0.963177 0
M  V30 8710 O 808.681 4.12363 -0.0552051 0
M  V30 8711 H 808.022 0.614797 -0.250839 0
M  V30 8712 H 810.552 1.56831 -1.31398 0
M  V30 8713 H 810.562 3.97953 -0.899877 0
M  V30 8714 H 809.237 3.6451 -2.00264 0
M  V30 8715 H 807.814 3.72499 -0.172914 0
M  V30 8716 N 809.999 0.752036 1.385 0
M  V30 8717 C 810.946 0.123288 2.3047 0
M  V30 8718 C 811.916 -0.711326 1.50098 0
M  V30 8719 O 813.101 -0.667775 1.78733 0
M  V30 8720 C 810.241 -0.765085 3.36512 0
M  V30 8721 C 809.354 0.0839885 4.31918 0
M  V30 8722 C 808.489 -0.807243 5.25031 0
M  V30 8723 C 807.528 0.0455583 6.12083 0
M  V30 8724 N 806.665 -0.802547 6.97498 0
M  V30 8725 H 811.505 0.913169 2.83664 0
M  V30 8726 H 809.042 0.46195 1.39658 0
M  V30 8727 H 811 -1.29476 3.966 0
M  V30 8728 H 809.63 -1.52077 2.84732 0
M  V30 8729 H 808.682 0.731276 3.73305 0
M  V30 8730 H 809.994 0.74265 4.9324 0
M  V30 8731 H 809.148 -1.40414 5.90228 0
M  V30 8732 H 807.887 -1.49964 4.64071 0
M  V30 8733 H 806.892 0.655137 5.45883 0
M  V30 8734 H 808.117 0.734994 6.75111 0
M  V30 8735 H 806.063 -1.47992 6.39089 0
M  V30 8736 H 805.98 -0.200747 7.55733 0
M  V30 8737 H 807.248 -1.38447 7.67107 0
M  V30 8738 N 811.477 -1.49425 0.500989 0
M  V30 8739 C 812.725 -2.02053 -0.0434495 0
M  V30 8740 C 813.046 -1.38285 -1.37486 0
M  V30 8741 O 812.316 -0.538171 -1.88363 0
M  V30 8742 H 810.896 -0.746757 -0.0190469 0
M  V30 8743 H 813.558 -1.83449 0.658227 0
M  V30 8744 H 812.654 -3.11619 -0.173129 0
M  V30 8745 N 812.955 -0.234822 -1.55841 0
M  V30 8746 C 814.185 0.397168 -2.02746 0
M  V30 8747 C 814.593 1.52951 -1.11367 0
M  V30 8748 O 813.936 1.8332 -0.118133 0
M  V30 8749 C 813.998 0.977748 -3.45948 0
M  V30 8750 C 813.662 -0.0208193 -4.56995 0
M  V30 8751 C 814.659 -0.826015 -5.13296 0
M  V30 8752 C 812.344 -0.143416 -5.02095 0
M  V30 8753 C 814.338 -1.74038 -6.1318 0
M  V30 8754 C 812.025 -1.0613 -6.01814 0
M  V30 8755 C 813.023 -1.85832 -6.57233 0
M  V30 8756 O 812.711 -2.76075 -7.55008 0
M  V30 8757 H 812.443 0.0999802 -0.668566 0
M  V30 8758 H 814.997 -0.352673 -2.0235 0
M  V30 8759 H 813.227 1.77693 -3.43456 0
M  V30 8760 H 814.916 1.51854 -3.76424 0
M  V30 8761 H 815.682 -0.741822 -4.79293 0
M  V30 8762 H 811.561 0.466857 -4.5863 0
M  V30 8763 H 815.105 -2.36291 -6.56363 0
M  V30 8764 H 811.002 -1.14646 -6.35237 0
M  V30 8765 H 811.77 -2.703 -7.7258 0
M  V30 8766 N 814.433 1.57553 0.0384317 0
M  V30 8767 C 815.849 1.54663 0.39391 0
M  V30 8768 C 816.049 0.959685 1.77179 0
M  V30 8769 O 815.105 0.576647 2.45827 0
M  V30 8770 C 816.418 2.99156 0.304352 0
M  V30 8771 C 817.966 3.10659 0.382119 0
M  V30 8772 C 818.441 4.56866 0.322111 0
M  V30 8773 N 819.932 4.61629 0.38119 0
M  V30 8774 C 820.667 5.72284 0.357501 0
M  V30 8775 N 820.163 6.92207 0.286654 0
M  V30 8776 N 821.956 5.60628 0.406538 0
M  V30 8777 H 814.107 1.9406 -0.86339 0
M  V30 8778 H 816.37 0.889673 -0.327392 0
M  V30 8779 H 816.076 3.45788 -0.642141 0
M  V30 8780 H 815.95 3.60753 1.10168 0
M  V30 8781 H 818.337 2.6398 1.31904 0
M  V30 8782 H 818.418 2.5191 -0.444391 0
M  V30 8783 H 818.062 5.0421 -0.611104 0
M  V30 8784 H 817.992 5.13515 1.1666 0
M  V30 8785 H 820.483 3.75343 0.438838 0
M  V30 8786 H 820.796 7.72316 0.273421 0
M  V30 8787 H 819.141 6.9454 0.252841 0
M  V30 8788 H 822.332 4.65836 0.459812 0
M  V30 8789 H 822.505 6.46858 0.384608 0
M  V30 8790 N 815.911 -0.310526 1.54511 0
M  V30 8791 C 817.327 -0.655637 1.45511 0
M  V30 8792 C 817.527 -1.91114 0.638564 0
M  V30 8793 O 816.583 -2.52098 0.142497 0
M  V30 8794 C 817.896 -0.817501 2.89374 0
M  V30 8795 C 819.444 -0.914003 2.99358 0
M  V30 8796 C 819.919 -1.10794 4.44397 0
M  V30 8797 N 821.41 -1.17437 4.48066 0
M  V30 8798 C 822.145 -1.34255 5.57461 0
M  V30 8799 N 821.641 -1.48032 6.768 0
M  V30 8800 N 823.434 -1.37067 5.45132 0
M  V30 8801 H 815.585 0.514506 2.06074 0
M  V30 8802 H 817.848 0.168478 0.932909 0
M  V30 8803 H 817.554 0.034003 3.51684 0
M  V30 8804 H 817.428 -1.7094 3.36243 0
M  V30 8805 H 819.815 -1.756 2.37168 0
M  V30 8806 H 819.896 0.00170958 2.558 0
M  V30 8807 H 819.54 -0.270743 5.07178 0
M  V30 8808 H 819.47 -2.03773 4.85576 0
M  V30 8809 H 821.961 -1.08181 3.62084 0
M  V30 8810 H 822.274 -1.60593 7.5593 0
M  V30 8811 H 820.619 -1.45105 6.79683 0
M  V30 8812 H 823.81 -1.25909 4.50849 0
M  V30 8813 H 823.983 -1.49831 6.3044 0
M  V30 8814 N 817.389 -1.46805 -0.573248 0
M  V30 8815 C 818.638 -1.51868 -1.32736 0
M  V30 8816 C 818.951 -0.178765 -1.94781 0
M  V30 8817 O 820.157 -0.107272 -2.71288 0
M  V30 8818 C 818.613 -2.67641 -2.40616 0
M  V30 8819 C 818.221 -4.08094 -1.84832 0
M  V30 8820 C 819.965 -2.81984 -3.17309 0
M  V30 8821 C 817.872 -5.15193 -2.90397 0
M  V30 8822 H 816.802 -0.56523 -0.49903 0
M  V30 8823 H 819.453 -1.7304 -0.610695 0
M  V30 8824 H 817.835 -2.39818 -3.15124 0
M  V30 8825 H 819.009 -4.45751 -1.16803 0
M  V30 8826 H 817.324 -3.985 -1.20775 0
M  V30 8827 H 819.921 -3.59166 -3.96111 0
M  V30 8828 H 820.264 -1.89842 -3.70494 0
M  V30 8829 H 820.797 -3.095 -2.4991 0
M  V30 8830 H 817.536 -6.09158 -2.42088 0
M  V30 8831 H 817.056 -4.82071 -3.56886 0
M  V30 8832 H 818.735 -5.41448 -3.54179 0
M  V30 8833 N 818.867 0.818669 -1.34668 0
M  V30 8834 C 820.095 1.60674 -1.30351 0
M  V30 8835 C 820.51 1.88408 0.121546 0
M  V30 8836 O 819.867 1.47849 1.06991 0
M  V30 8837 C 819.918 2.94516 -2.09625 0
M  V30 8838 O 819.639 2.6799 -3.46573 0
M  V30 8839 C 821.14 3.8891 -2.12754 0
M  V30 8840 H 818.36 0.499306 -0.448258 0
M  V30 8841 H 820.904 1.01828 -1.77345 0
M  V30 8842 H 819.059 3.49908 -1.66262 0
M  V30 8843 H 819.473 3.53361 -3.87603 0
M  V30 8844 H 820.947 4.79972 -2.72637 0
M  V30 8845 H 821.424 4.24599 -1.12306 0
M  V30 8846 H 822.03 3.39453 -2.56225 0
M  V30 8847 N 820.346 1.18468 1.03938 0
M  V30 8848 C 821.576 1.0043 1.80547 0
M  V30 8849 C 821.984 -0.450407 1.83761 0
M  V30 8850 O 821.327 -1.32463 1.27276 0
M  V30 8851 C 821.389 1.48437 3.27424 0
M  V30 8852 C 821.053 2.96372 3.47869 0
M  V30 8853 C 822.05 3.94217 3.38953 0
M  V30 8854 C 819.735 3.34831 3.74424 0
M  V30 8855 C 821.729 5.28517 3.56298 0
M  V30 8856 C 819.416 4.69294 3.91416 0
M  V30 8857 C 820.414 5.65946 3.82354 0
M  V30 8858 O 820.102 6.97974 3.98858 0
M  V30 8859 H 819.834 0.354853 0.575374 0
M  V30 8860 H 822.388 1.57473 1.31876 0
M  V30 8861 H 820.618 0.857601 3.7707 0
M  V30 8862 H 822.307 1.2677 3.85596 0
M  V30 8863 H 823.073 3.6585 3.184 0
M  V30 8864 H 818.952 2.60161 3.80575 0
M  V30 8865 H 822.496 6.03943 3.49141 0
M  V30 8866 H 818.393 4.97361 4.11463 0
M  V30 8867 H 819.161 7.04895 4.1601 0
M  V30 8868 N 821.824 -1.22873 0.986916 0
M  V30 8869 C 822.774 -2.2237 0.503547 0
M  V30 8870 C 823.758 -1.55186 -0.424998 0
M  V30 8871 O 824.95 -1.75186 -0.252791 0
M  V30 8872 C 822.079 -3.42794 -0.186355 0
M  V30 8873 C 821.165 -4.17196 0.762143 0
M  V30 8874 N 821.556 -4.68453 1.9075 0
M  V30 8875 C 819.854 -4.42255 0.576797 0
M  V30 8876 C 820.555 -5.25126 2.50235 0
M  V30 8877 N 819.531 -5.13437 1.7856 0
M  V30 8878 H 823.333 -2.59636 1.37718 0
M  V30 8879 H 820.847 -1.38476 0.848415 0
M  V30 8880 H 822.844 -4.13256 -0.549993 0
M  V30 8881 H 821.504 -3.07042 -1.05619 0
M  V30 8882 H 822.515 -4.64595 2.28848 0
M  V30 8883 H 819.192 -4.16766 -0.247474 0
M  V30 8884 H 820.582 -5.75363 3.46997 0
M  V30 8885 N 823.302 -0.75937 -1.38099 0
M  V30 8886 C 824.25 -0.124954 -2.32264 0
M  V30 8887 C 825.244 0.698863 -1.54312 0
M  V30 8888 O 826.45 0.597312 -1.698 0
M  V30 8889 H 822.825 -0.0216142 -0.751689 0
M  V30 8890 H 824.796 -0.935115 -2.83369 0
M  V30 8891 C 823.545 0.749463 -3.39527 0
M  V30 8892 H 822.868 0.124932 -3.99605 0
M  V30 8893 H 824.308 1.16055 -4.07808 0
M  V30 8894 C 822.767 1.89464 -2.78577 0
M  V30 8895 O 823.297 2.98923 -2.68343 0
M  V30 8896 N 821.503 1.69145 -2.36301 0
M  V30 8897 H 821.05 0.801157 -2.44825 0
M  V30 8898 H 821.008 2.45936 -1.95864 0
M  V30 8899 N 824.78 1.49157 -0.508906 0
M  V30 8900 C 826.026 2.03385 0.0248089 0
M  V30 8901 C 826.381 1.381 1.33964 0
M  V30 8902 O 825.674 0.510317 1.84679 0
M  V30 8903 C 825.868 3.56687 0.225717 0
M  V30 8904 C 825.697 4.36832 -1.06809 0
M  V30 8905 C 824.467 4.78556 -1.6221 0
M  V30 8906 C 826.665 4.74934 -1.97338 0
M  V30 8907 N 824.647 5.43158 -2.86098 0
M  V30 8908 C 826.018 5.39336 -3.05805 0
M  V30 8909 C 828.073 4.56872 -1.97921 0
M  V30 8910 C 826.776 5.87587 -4.1489 0
M  V30 8911 C 828.802 5.06089 -3.05987 0
M  V30 8912 C 828.164 5.70499 -4.13172 0
M  V30 8913 H 824.263 0.781349 -0.0318988 0
M  V30 8914 H 826.847 1.82233 -0.685518 0
M  V30 8915 H 825.018 3.77707 0.905108 0
M  V30 8916 H 826.75 3.97554 0.757147 0
M  V30 8917 H 823.505 4.59017 -1.16621 0
M  V30 8918 H 823.929 5.8004 -3.49116 0
M  V30 8919 H 828.571 4.06474 -1.16357 0
M  V30 8920 H 826.289 6.37002 -4.97247 0
M  V30 8921 H 829.875 4.93919 -3.07466 0
M  V30 8922 H 828.755 6.07893 -4.95415 0
M  V30 8923 N 826.258 0.243083 1.55714 0
M  V30 8924 C 827.674 -0.111853 1.59208 0
M  V30 8925 C 827.874 -1.5723 1.2602 0
M  V30 8926 O 826.93 -2.31608 1.00569 0
M  V30 8927 C 828.243 0.233885 2.99789 0
M  V30 8928 C 829.791 0.177873 3.12494 0
M  V30 8929 C 830.266 0.49759 4.55289 0
M  V30 8930 N 831.757 0.447949 4.61029 0
M  V30 8931 C 832.492 0.668545 5.69489 0
M  V30 8932 N 831.988 0.952064 6.86227 0
M  V30 8933 N 833.781 0.599512 5.58894 0
M  V30 8934 H 825.932 1.19554 1.75558 0
M  V30 8935 H 828.195 0.480765 0.817049 0
M  V30 8936 H 827.901 1.24835 3.28799 0
M  V30 8937 H 827.775 -0.440846 3.74615 0
M  V30 8938 H 830.162 -0.827263 2.83267 0
M  V30 8939 H 830.243 0.886399 2.39951 0
M  V30 8940 H 829.887 1.50026 4.85237 0
M  V30 8941 H 829.817 -0.232371 5.26087 0
M  V30 8942 H 832.308 0.237388 3.77154 0
M  V30 8943 H 832.621 1.10791 7.64817 0
M  V30 8944 H 830.966 0.989496 6.8792 0
M  V30 8945 H 834.157 0.378088 4.66571 0
M  V30 8946 H 834.33 0.774828 6.43351 0
M  V30 8947 N 827.736 -1.57571 -0.0300757 0
M  V30 8948 C 828.686 -2.02958 -1.03885 0
M  V30 8949 C 829.67 -0.918723 -1.32092 0
M  V30 8950 O 830.862 -1.18262 -1.31694 0
M  V30 8951 C 827.991 -2.51169 -2.34028 0
M  V30 8952 C 827.077 -3.69073 -2.08915 0
M  V30 8953 N 827.468 -4.81831 -1.53858 0
M  V30 8954 C 825.766 -3.76427 -2.39204 0
M  V30 8955 C 826.467 -5.6346 -1.44526 0
M  V30 8956 N 825.443 -5.08545 -1.92048 0
M  V30 8957 H 829.245 -2.8756 -0.607157 0
M  V30 8958 H 826.759 -1.6067 -0.236399 0
M  V30 8959 H 828.756 -2.81944 -3.07104 0
M  V30 8960 H 827.416 -1.67972 -2.77876 0
M  V30 8961 H 828.427 -5.03291 -1.22142 0
M  V30 8962 H 825.104 -3.04029 -2.86134 0
M  V30 8963 H 826.494 -6.64042 -1.02456 0
M  V30 8964 N 829.214 0.302327 -1.54673 0
M  V30 8965 C 830.462 1.03565 -1.73547 0
M  V30 8966 C 830.783 1.87843 -0.523448 0
M  V30 8967 O 830.053 1.90367 0.462295 0
M  V30 8968 H 828.633 0.385358 -0.639928 0
M  V30 8969 H 831.295 0.333632 -1.92023 0
M  V30 8970 H 830.391 1.68952 -2.62415 0
M  V30 8971 N 830.692 1.47107 0.565454 0
M  V30 8972 C 831.939 1.53308 1.32299 0
M  V30 8973 C 832.267 0.1919 1.93551 0
M  V30 8974 O 831.522 -0.81435 1.77952 0
M  V30 8975 C 831.821 2.59309 2.45954 0
M  V30 8976 C 831.487 4.02827 2.02586 0
M  V30 8977 C 830.149 4.41897 1.90474 0
M  V30 8978 C 832.501 4.92913 1.6937 0
M  V30 8979 C 829.829 5.68898 1.4343 0
M  V30 8980 C 832.181 6.20368 1.238 0
M  V30 8981 C 830.845 6.58327 1.10278 0
M  V30 8982 H 830.115 0.560993 0.484116 0
M  V30 8983 H 832.762 1.80667 0.634965 0
M  V30 8984 H 831.067 2.25676 3.20277 0
M  V30 8985 H 832.764 2.61332 3.04149 0
M  V30 8986 H 829.354 3.71953 2.12952 0
M  V30 8987 H 833.538 4.63433 1.77605 0
M  V30 8988 H 828.794 5.97065 1.31618 0
M  V30 8989 H 832.968 6.89589 0.971586 0
M  V30 8990 H 830.595 7.56628 0.736027 0
M  V30 8991 N 832.17 -0.811516 1.35101 0
M  V30 8992 C 833.118 -1.94449 1.27642 0
M  V30 8993 C 834.112 -1.68522 0.172287 0
M  V30 8994 O 835.318 -1.76799 0.337967 0
M  V30 8995 H 831.693 -0.638776 0.396824 0
M  V30 8996 H 833.664 -1.97861 2.23369 0
M  V30 8997 C 832.413 -3.31139 1.06029 0
M  V30 8998 H 831.736 -3.51644 1.90227 0
M  V30 8999 H 833.176 -4.10831 1.0485 0
M  V30 9000 C 831.635 -3.36072 -0.236039 0
M  V30 9001 O 832.165 -3.82292 -1.23353 0
M  V30 9002 N 830.371 -2.89314 -0.273107 0
M  V30 9003 H 829.918 -2.51893 0.539211 0
M  V30 9004 H 829.876 -2.92996 -1.1402 0
M  V30 9005 N 833.648 -1.19017 -1.03309 0
M  V30 9006 C 834.894 -0.991681 -1.769 0
M  V30 9007 C 835.227 0.476813 -1.88255 0
M  V30 9008 O 834.502 1.35407 -1.39625 0
M  V30 9009 C 834.785 -1.65627 -3.19749 0
M  V30 9010 C 834.638 -3.19813 -3.1629 0
M  V30 9011 C 835.957 -1.37579 -4.18043 0
M  V30 9012 H 833.076 -0.361674 -0.642153 0
M  V30 9013 H 835.718 -1.46795 -1.20628 0
M  V30 9014 H 833.868 -1.25132 -3.67796 0
M  V30 9015 H 835.54 -3.69494 -2.76174 0
M  V30 9016 H 833.783 -3.51578 -2.54117 0
M  V30 9017 H 834.454 -3.61457 -4.17196 0
M  V30 9018 H 836.93 -1.72679 -3.78578 0
M  V30 9019 H 835.806 -1.86636 -5.16196 0
M  V30 9020 H 836.067 -0.300118 -4.4108 0
M  V30 9021 N 835.127 1.22348 -0.993418 0
M  V30 9022 C 836.09 2.22522 -0.549251 0
M  V30 9023 C 837.09 1.56529 0.368164 0
M  V30 9024 O 838.28 1.73463 0.16005 0
M  V30 9025 C 835.412 3.40307 0.201037 0
M  V30 9026 H 836.605 2.63332 -1.43515 0
M  V30 9027 H 834.158 1.35407 -0.78068 0
M  V30 9028 H 834.893 3.0497 1.10289 0
M  V30 9029 H 834.678 3.8942 -0.457685 0
M  V30 9030 H 836.168 4.14597 0.499946 0
M  V30 9031 N 836.605 0.766683 1.37694 0
M  V30 9032 C 837.537 0.107798 2.28946 0
M  V30 9033 C 838.55 -0.669701 1.48387 0
M  V30 9034 O 839.739 -0.508629 1.711 0
M  V30 9035 C 836.839 -0.871084 3.27514 0
M  V30 9036 C 836.012 -0.148471 4.37148 0
M  V30 9037 C 835.071 -1.03998 5.1582 0
M  V30 9038 O 834.097 -0.505639 5.6695 0
M  V30 9039 N 835.299 -2.36679 5.3006 0
M  V30 9040 H 838.064 0.89154 2.86132 0
M  V30 9041 H 835.625 0.618593 1.49616 0
M  V30 9042 H 837.617 -1.47081 3.77027 0
M  V30 9043 H 836.187 -1.55582 2.71133 0
M  V30 9044 H 835.407 0.632117 3.89099 0
M  V30 9045 H 836.695 0.351045 5.07588 0
M  V30 9046 H 836.093 -2.82532 4.90094 0
M  V30 9047 H 834.65 -2.9167 5.82899 0
M  V30 9048 N 838.083 -1.48885 0.516809 0
M  V30 9049 C 839.311 -2.06892 -0.0184017 0
M  V30 9050 C 839.726 -1.37511 -1.29368 0
M  V30 9051 O 839.083 -0.458409 -1.76649 0
M  V30 9052 C 839.134 -3.60566 -0.259673 0
M  V30 9053 O 838.855 -4.27338 0.965065 0
M  V30 9054 C 840.356 -4.35331 -0.836751 0
M  V30 9055 H 837.576 -0.670433 0.0275743 0
M  V30 9056 H 840.12 -1.91455 0.718689 0
M  V30 9057 H 838.275 -3.75653 -0.94678 0
M  V30 9058 H 838.689 -5.19287 0.737647 0
M  V30 9059 H 840.163 -5.43675 -0.955065 0
M  V30 9060 H 840.64 -3.9887 -1.83845 0
M  V30 9061 H 841.246 -4.2489 -0.186622 0
M  V30 9062 N 839.561 -0.251338 -1.55583 0
M  V30 9063 C 840.494 0.687092 -2.1761 0
M  V30 9064 C 841.472 1.16963 -1.12953 0
M  V30 9065 O 842.656 1.24696 -1.41362 0
M  V30 9066 C 839.783 1.93429 -2.78034 0
M  V30 9067 C 838.829 1.58925 -3.95784 0
M  V30 9068 S 839.662 0.688019 -5.31062 0
M  V30 9069 C 840.818 1.94413 -5.94941 0
M  V30 9070 H 841.051 0.159982 -2.96869 0
M  V30 9071 H 838.584 -0.0357593 -1.54359 0
M  V30 9072 H 840.542 2.65028 -3.13481 0
M  V30 9073 H 839.203 2.43253 -1.98713 0
M  V30 9074 H 838.396 2.51668 -4.36668 0
M  V30 9075 H 837.998 0.953664 -3.61637 0
M  V30 9076 H 840.29 2.89087 -6.12727 0
M  V30 9077 H 841.233 1.5787 -6.90277 0
M  V30 9078 H 841.641 2.09824 -5.24056 0
M  V30 9079 N 841.039 1.57585 0.0217189 0
M  V30 9080 C 842.286 1.89606 0.711045 0
M  V30 9081 C 842.614 0.849535 1.74966 0
M  V30 9082 O 841.869 -0.14856 1.95135 0
M  V30 9083 C 842.168 3.28377 1.41079 0
M  V30 9084 C 841.834 4.48035 0.507454 0
M  V30 9085 C 840.496 4.80504 0.258672 0
M  V30 9086 C 842.848 5.21071 -0.115793 0
M  V30 9087 C 840.176 5.83393 -0.622013 0
M  V30 9088 C 842.528 6.24897 -0.984224 0
M  V30 9089 C 841.192 6.55836 -1.2424 0
M  V30 9090 H 840.462 0.693817 0.26019 0
M  V30 9091 H 843.109 1.91478 -0.0291424 0
M  V30 9092 H 841.414 3.22528 2.22448 0
M  V30 9093 H 843.111 3.50404 1.94982 0
M  V30 9094 H 839.701 4.22653 0.711516 0
M  V30 9095 H 843.885 4.96259 0.0634327 0
M  V30 9096 H 839.141 6.05736 -0.830267 0
M  V30 9097 H 843.315 6.8063 -1.47363 0
M  V30 9098 H 840.942 7.35383 -1.92653 0
M  V30 9099 N 842.517 -0.29412 1.54831 0
M  V30 9100 C 843.745 -1.04724 1.78439 0
M  V30 9101 C 844.16 -1.80695 0.547239 0
M  V30 9102 O 843.517 -1.75989 -0.483141 0
M  V30 9103 C 843.568 -2.02242 2.99634 0
M  V30 9104 O 843.289 -1.29352 4.18568 0
M  V30 9105 C 844.79 -2.89537 3.35683 0
M  V30 9106 H 842.01 -0.310285 0.594949 0
M  V30 9107 H 844.554 -0.331306 2.01798 0
M  V30 9108 H 842.709 -2.69328 2.78462 0
M  V30 9109 H 843.123 -1.94901 4.86943 0
M  V30 9110 H 844.597 -3.538 4.23709 0
M  V30 9111 H 845.074 -3.58201 2.54143 0
M  V30 9112 H 845.68 -2.27973 3.59038 0
M  V30 9113 N 843.995 -1.47404 -0.557645 0
M  V30 9114 C 844.925 -1.62736 -1.67449 0
M  V30 9115 C 845.906 -0.476824 -1.6328 0
M  V30 9116 O 847.091 -0.706108 -1.80908 0
M  V30 9117 C 844.221 -1.641 -3.06086 0
M  V30 9118 C 843.175 -2.78377 -3.25101 0
M  V30 9119 C 842.501 -2.64812 -4.6452 0
M  V30 9120 C 843.801 -4.19971 -3.10518 0
M  V30 9121 H 845.495 -2.56232 -1.54873 0
M  V30 9122 H 843.041 -1.23312 -0.743649 0
M  V30 9123 H 844.994 -1.73417 -3.84063 0
M  V30 9124 H 843.718 -0.671652 -3.19619 0
M  V30 9125 H 842.377 -2.6857 -2.49531 0
M  V30 9126 H 842.025 -1.65906 -4.74852 0
M  V30 9127 H 841.725 -3.41477 -4.78191 0
M  V30 9128 H 843.249 -2.76057 -5.44633 0
M  V30 9129 H 844.663 -4.30757 -3.78313 0
M  V30 9130 H 843.06 -4.97419 -3.35699 0
M  V30 9131 H 844.13 -4.38369 -2.0727 0
M  V30 9132 N 845.473 0.80434 -1.35529 0
M  V30 9133 C 846.403 1.93086 -1.31301 0
M  V30 9134 C 847.384 1.69068 -0.187044 0
M  V30 9135 O 848.569 1.90399 -0.382359 0
M  V30 9136 C 845.699 3.29867 -1.0865 0
M  V30 9137 C 844.653 3.68373 -2.17911 0
M  V30 9138 C 843.979 5.0334 -1.80423 0
M  V30 9139 C 845.279 3.78516 -3.59893 0
M  V30 9140 H 846.973 1.96882 -2.25561 0
M  V30 9141 H 844.519 0.945841 -1.08581 0
M  V30 9142 H 846.472 4.08281 -1.04331 0
M  V30 9143 H 845.196 3.2642 -0.108359 0
M  V30 9144 H 843.855 2.92247 -2.21331 0
M  V30 9145 H 843.503 4.96399 -0.812213 0
M  V30 9146 H 843.203 5.30074 -2.53565 0
M  V30 9147 H 844.727 5.84191 -1.77633 0
M  V30 9148 H 846.141 4.47155 -3.58783 0
M  V30 9149 H 844.538 4.16721 -4.31814 0
M  V30 9150 H 845.608 2.8001 -3.95882 0
M  V30 9151 N 846.951 1.19563 1.02676 0
M  V30 9152 C 847.884 0.878638 2.10607 0
M  V30 9153 C 848.862 -0.165176 1.61759 0
M  V30 9154 O 850.046 -0.041014 1.88455 0
M  V30 9155 C 847.173 0.315347 3.37229 0
M  V30 9156 C 846.219 1.33855 4.04951 0
M  V30 9157 S 847.052 2.89982 4.50189 0
M  V30 9158 C 848.208 2.35202 5.80027 0
M  V30 9159 H 848.441 1.79268 2.37171 0
M  V30 9160 H 845.974 1.023 1.15646 0
M  V30 9161 H 847.932 -0.00311911 4.105 0
M  V30 9162 H 846.593 -0.577035 3.08754 0
M  V30 9163 H 845.786 0.893581 4.96015 0
M  V30 9164 H 845.388 1.60397 3.37859 0
M  V30 9165 H 847.68 1.74329 6.54687 0
M  V30 9166 H 848.623 3.24622 6.29306 0
M  V30 9167 H 849.031 1.77702 5.35801 0
M  V30 9168 N 848.429 -1.21819 0.999893 0
M  V30 9169 C 849.657 -1.94758 0.698359 0
M  V30 9170 C 850.072 -1.73771 -0.738183 0
M  V30 9171 O 849.429 -1.04113 -1.49889 0
M  V30 9172 C 849.48 -3.47292 1.00353 0
M  V30 9173 O 849.201 -3.67579 2.38363 0
M  V30 9174 C 850.702 -4.37403 0.72068 0
M  V30 9175 H 847.922 -0.619512 0.257771 0
M  V30 9176 H 850.466 -1.54778 1.33656 0
M  V30 9177 H 848.621 -3.85213 0.411018 0
M  V30 9178 H 849.035 -4.61719 2.48829 0
M  V30 9179 H 850.509 -5.43151 0.984422 0
M  V30 9180 H 850.986 -4.3784 -0.345309 0
M  V30 9181 H 851.592 -4.05119 1.29456 0
M  V30 9182 N 849.908 -0.773975 -1.37286 0
M  V30 9183 C 851.156 -0.338636 -1.99243 0
M  V30 9184 C 851.477 1.08919 -1.61746 0
M  V30 9185 O 850.747 1.74822 -0.88397 0
M  V30 9186 H 849.327 -0.12222 -0.736934 0
M  V30 9187 H 851.989 -0.992595 -1.67731 0
M  V30 9188 H 851.085 -0.418055 -3.09287 0
M  V30 9189 N 851.386 1.48609 -0.524698 0
M  V30 9190 C 852.333 2.29539 0.240956 0
M  V30 9191 C 853.303 1.37033 0.938681 0
M  V30 9192 O 854.488 1.65996 0.940737 0
M  V30 9193 C 851.628 3.20278 1.28514 0
M  V30 9194 C 850.741 4.27858 0.596798 0
M  V30 9195 C 849.876 5.05784 1.62346 0
M  V30 9196 C 848.915 6.05173 0.918287 0
M  V30 9197 N 848.052 6.76176 1.89025 0
M  V30 9198 H 852.892 2.945 -0.455368 0
M  V30 9199 H 850.429 1.45188 -0.236403 0
M  V30 9200 H 852.387 3.71281 1.90279 0
M  V30 9201 H 851.017 2.57251 1.94992 0
M  V30 9202 H 850.069 3.80162 -0.134668 0
M  V30 9203 H 851.381 4.98782 0.0428506 0
M  V30 9204 H 850.535 5.60775 2.31553 0
M  V30 9205 H 849.274 4.34687 2.2113 0
M  V30 9206 H 848.279 5.49391 0.21212 0
M  V30 9207 H 849.504 6.78265 0.336633 0
M  V30 9208 H 847.45 6.07834 2.46726 0
M  V30 9209 H 847.367 7.43157 1.3876 0
M  V30 9210 H 848.635 7.35759 2.57446 0
M  V30 9211 N 852.864 0.259585 1.55447 0
M  V30 9212 C 853.794 -0.62852 2.24882 0
M  V30 9213 C 854.775 -1.17128 1.23349 0
M  V30 9214 O 855.96 -1.20829 1.52033 0
M  V30 9215 C 853.09 -1.81983 2.95803 0
M  V30 9216 C 852.044 -1.40929 4.04132 0
M  V30 9217 C 851.37 -2.68246 4.62545 0
M  V30 9218 C 852.67 -0.570956 5.1917 0
M  V30 9219 H 854.364 -0.0495021 2.99359 0
M  V30 9220 H 851.91 -0.0223688 1.43983 0
M  V30 9221 H 853.863 -2.44689 3.43082 0
M  V30 9222 H 852.587 -2.42444 2.18835 0
M  V30 9223 H 851.246 -0.805519 3.57641 0
M  V30 9224 H 850.894 -3.26931 3.82263 0
M  V30 9225 H 850.594 -2.41495 5.35681 0
M  V30 9226 H 852.118 -3.31827 5.12565 0
M  V30 9227 H 853.532 -1.10262 5.62597 0
M  V30 9228 H 851.929 -0.398979 5.98772 0
M  V30 9229 H 852.999 0.413918 4.8313 0
M  V30 9230 N 854.342 -1.57594 -0.0133615 0
M  V30 9231 C 855.289 -2.07574 -1.00905 0
M  V30 9232 C 856.259 -0.968231 -1.34961 0
M  V30 9233 O 857.444 -1.23981 -1.45028 0
M  V30 9234 C 854.584 -2.5728 -2.30002 0
M  V30 9235 C 853.697 -3.81881 -2.01967 0
M  V30 9236 C 852.832 -4.20139 -3.25049 0
M  V30 9237 C 851.871 -5.37614 -2.92639 0
M  V30 9238 N 851.008 -5.71229 -4.08218 0
M  V30 9239 H 855.848 -2.92382 -0.575899 0
M  V30 9240 H 853.385 -1.4455 -0.272722 0
M  V30 9241 H 855.343 -2.84171 -3.05454 0
M  V30 9242 H 853.973 -1.75365 -2.71011 0
M  V30 9243 H 853.025 -3.61979 -1.16942 0
M  V30 9244 H 854.337 -4.67441 -1.74069 0
M  V30 9245 H 853.491 -4.48242 -4.08857 0
M  V30 9246 H 852.23 -3.33262 -3.56073 0
M  V30 9247 H 851.235 -5.09248 -2.07235 0
M  V30 9248 H 852.46 -6.26157 -2.62876 0
M  V30 9249 H 850.406 -4.8731 -4.39164 0
M  V30 9250 H 850.323 -6.51333 -3.83799 0
M  V30 9251 H 851.591 -6.03917 -4.92854 0
M  V30 9252 N 855.82 0.285905 -1.54985 0
M  V30 9253 C 857.045 1.04207 -1.7932 0
M  V30 9254 C 857.47 1.79622 -0.558343 0
M  V30 9255 O 856.828 1.74506 0.491661 0
M  V30 9256 C 856.876 1.98648 -3.0095 0
M  V30 9257 O 855.98 3.07207 -2.75132 0
M  V30 9258 H 855.321 0.298596 -0.593074 0
M  V30 9259 H 857.851 0.318736 -2.02102 0
M  V30 9260 H 857.861 2.4084 -3.29333 0
M  V30 9261 H 856.536 1.43167 -3.90482 0
M  V30 9262 H 855.113 2.69423 -2.57809 0
M  V30 9263 N 857.298 1.47698 0.54982 0
M  V30 9264 C 858.528 1.58101 1.32995 0
M  V30 9265 C 858.936 0.232939 1.87761 0
M  V30 9266 O 858.279 -0.785058 1.6608 0
M  V30 9267 C 858.341 2.55228 2.53178 0
M  V30 9268 C 858.005 4.00756 2.19645 0
M  V30 9269 C 859.002 4.89025 1.76496 0
M  V30 9270 C 856.687 4.46147 2.30777 0
M  V30 9271 C 858.681 6.20707 1.44919 0
M  V30 9272 C 856.368 5.77856 1.98812 0
M  V30 9273 C 857.366 6.64957 1.55952 0
M  V30 9274 O 857.054 7.94217 1.24396 0
M  V30 9275 H 856.786 0.536362 0.411451 0
M  V30 9276 H 859.34 1.94092 0.67212 0
M  V30 9277 H 857.57 2.14319 3.21876 0
M  V30 9278 H 859.259 2.55678 3.15251 0
M  V30 9279 H 860.025 4.55201 1.67383 0
M  V30 9280 H 855.904 3.78552 2.63096 0
M  V30 9281 H 859.448 6.88649 1.11392 0
M  V30 9282 H 855.345 6.11219 2.0756 0
M  V30 9283 H 856.113 8.06789 1.37964 0
M  V30 9284 N 858.776 -0.797141 1.35954 0
M  V30 9285 C 860.006 -1.5835 1.32698 0
M  V30 9286 C 860.414 -1.88959 -0.0955298 0
M  V30 9287 O 859.757 -1.49987 -1.06064 0
M  V30 9288 C 859.819 -2.93529 2.0756 0
M  V30 9289 C 859.483 -2.85688 3.56695 0
M  V30 9290 C 860.48 -2.58467 4.51099 0
M  V30 9291 C 858.165 -3.04508 3.99475 0
M  V30 9292 C 860.159 -2.50157 5.8626 0
M  V30 9293 C 857.846 -2.9582 5.34728 0
M  V30 9294 C 858.844 -2.68681 6.27933 0
M  V30 9295 O 858.532 -2.59973 7.60703 0
M  V30 9296 H 858.264 -0.49807 0.457059 0
M  V30 9297 H 860.818 -0.997889 1.79531 0
M  V30 9298 H 859.048 -3.54111 1.55378 0
M  V30 9299 H 860.737 -3.54744 1.9726 0
M  V30 9300 H 861.503 -2.43638 4.19363 0
M  V30 9301 H 857.382 -3.24641 3.27306 0
M  V30 9302 H 860.926 -2.28894 6.58979 0
M  V30 9303 H 856.823 -3.10211 5.66074 0
M  V30 9304 H 857.591 -2.75511 7.70737 0
M  V30 9305 N 860.254 -1.20106 -1.0204 0
M  V30 9306 C 861.482 -1.0344 -1.79186 0
M  V30 9307 C 861.897 0.416542 -1.84148 0
M  V30 9308 O 861.254 1.28925 -1.29168 0
M  V30 9309 C 861.305 -1.60663 -3.23836 0
M  V30 9310 O 861.026 -3.00079 -3.19193 0
M  V30 9311 C 862.527 -1.48897 -4.17546 0
M  V30 9312 H 859.747 -0.364093 -0.563629 0
M  V30 9313 H 862.291 -1.5911 -1.28469 0
M  V30 9314 H 860.446 -1.09122 -3.71714 0
M  V30 9315 H 860.86 -3.27162 -4.09958 0
M  V30 9316 H 862.334 -1.93703 -5.16898 0
M  V30 9317 H 862.811 -0.440843 -4.36982 0
M  V30 9318 H 863.417 -1.9961 -3.75547 0
M  V30 9319 N 861.732 1.21287 -1.00634 0
M  V30 9320 C 863.009 1.86 -0.605257 0
M  V30 9321 C 863.389 1.90139 0.917072 0
M  V30 9322 O 862.737 1.40169 1.80458 0
M  V30 9323 C 862.947 3.26183 -1.24119 0
M  V30 9324 C 864.295 4.02562 -1.35015 0
M  V30 9325 O 865.319 3.35499 -1.19661 0
M  V30 9326 O 864.178 5.22638 -1.59726 0
M  V30 9327 H 861.272 0.800549 -0.207486 0
M  V30 9328 H 863.818 1.28959 -1.10307 0
M  V30 9329 H 862.59 3.17878 -2.28186 0
M  V30 9330 H 862.213 3.90845 -0.729807 0
M  V30 9331 N 863.21 0.781244 1.36873 0
M  V30 9332 C 864.14 0.188128 2.32741 0
M  V30 9333 C 865.121 -0.672326 1.56249 0
M  V30 9334 O 866.306 -0.607835 1.84442 0
M  V30 9335 C 863.436 -0.684341 3.40491 0
M  V30 9336 C 862.39 0.0755641 4.27933 0
M  V30 9337 C 861.716 -0.916968 5.26779 0
M  V30 9338 C 863.016 1.26006 5.06873 0
M  V30 9339 H 864.71 0.989016 2.82593 0
M  V30 9340 H 862.256 0.477038 1.35869 0
M  V30 9341 H 864.209 -1.10915 4.06541 0
M  V30 9342 H 862.933 -1.51785 2.89187 0
M  V30 9343 H 861.592 0.481258 3.63427 0
M  V30 9344 H 861.24 -1.74528 4.71751 0
M  V30 9345 H 860.94 -0.413 5.86147 0
M  V30 9346 H 862.464 -1.34052 5.95703 0
M  V30 9347 H 863.878 0.911425 5.66009 0
M  V30 9348 H 862.275 1.69676 5.75613 0
M  V30 9349 H 863.345 2.05948 4.38991 0
M  V30 9350 N 864.689 -1.48329 0.532571 0
M  V30 9351 C 865.599 -2.33445 -0.232546 0
M  V30 9352 C 866.615 -1.46651 -0.93645 0
M  V30 9353 O 867.791 -1.79627 -0.910834 0
M  V30 9354 C 864.856 -3.22824 -1.26434 0
M  V30 9355 C 863.917 -4.25492 -0.570511 0
M  V30 9356 C 863.15 -5.10601 -1.55315 0
M  V30 9357 O 863.373 -4.97733 -2.78599 0
M  V30 9358 O 862.307 -5.91927 -1.09112 0
M  V30 9359 H 866.133 -3.00119 0.464988 0
M  V30 9360 H 863.718 -1.46489 0.293462 0
M  V30 9361 H 865.6 -3.78103 -1.86055 0
M  V30 9362 H 864.275 -2.58807 -1.94424 0
M  V30 9363 H 863.182 -3.74041 0.0662587 0
M  V30 9364 H 864.515 -4.92154 0.0674904 0
M  V30 9365 N 866.167 -0.267825 -1.55308 0
M  V30 9366 C 867.13 0.60965 -2.20943 0
M  V30 9367 C 868.13 1.0869 -1.18504 0
M  V30 9368 O 869.32 0.988248 -1.43455 0
M  V30 9369 C 866.452 1.84027 -2.86961 0
M  V30 9370 H 867.645 0.0366806 -2.99878 0
M  V30 9371 H 865.198 -0.0183941 -1.56289 0
M  V30 9372 H 865.933 2.45394 -2.1202 0
M  V30 9373 H 865.718 1.50605 -3.62023 0
M  V30 9374 H 867.208 2.46442 -3.37129 0
M  V30 9375 N 867.645 1.57599 0.00500368 0
M  V30 9376 C 868.892 1.90349 0.690895 0
M  V30 9377 C 869.22 0.868045 1.74055 0
M  V30 9378 O 868.475 -0.127855 1.95282 0
M  V30 9379 C 868.774 3.29855 1.37588 0
M  V30 9380 C 868.44 4.48548 0.459906 0
M  V30 9381 C 867.102 4.80752 0.207693 0
M  V30 9382 C 869.454 5.20919 -0.171054 0
M  V30 9383 C 866.782 5.82701 -0.683855 0
M  V30 9384 C 869.134 6.23818 -1.05045 0
M  V30 9385 C 867.798 6.54481 -1.31189 0
M  V30 9386 H 867.068 0.696538 0.252816 0
M  V30 9387 H 869.715 1.91436 -0.0494495 0
M  V30 9388 H 868.02 3.24869 2.19015 0
M  V30 9389 H 869.717 3.52452 1.91255 0
M  V30 9390 H 866.307 4.23384 0.666648 0
M  V30 9391 H 870.491 4.96299 0.0107942 0
M  V30 9392 H 865.747 6.04822 -0.894467 0
M  V30 9393 H 869.921 6.79029 -1.54574 0
M  V30 9394 H 867.548 7.33299 -2.00442 0
M  V30 9395 N 869.123 -0.277682 1.55134 0
M  V30 9396 C 870.086 -1.32635 1.86924 0
M  V30 9397 C 871.086 -1.42578 0.743507 0
M  V30 9398 O 872.276 -1.4181 1.01171 0
M  V30 9399 C 869.408 -2.70832 2.07034 0
M  V30 9400 H 870.601 -1.0568 2.80663 0
M  V30 9401 H 868.154 -0.515517 1.47554 0
M  V30 9402 H 868.889 -3.02974 1.15661 0
M  V30 9403 H 868.674 -2.65001 2.88993 0
M  V30 9404 H 870.164 -3.46611 2.32918 0
M  V30 9405 N 870.601 -1.47988 -0.541979 0
M  V30 9406 C 871.534 -1.56172 -1.66389 0
M  V30 9407 C 872.512 -0.412879 -1.57271 0
M  V30 9408 O 873.696 -0.622816 -1.77914 0
M  V30 9409 C 870.823 -1.47851 -3.04726 0
M  V30 9410 C 869.869 -2.67428 -3.32242 0
M  V30 9411 S 870.702 -4.29502 -3.19825 0
M  V30 9412 C 871.858 -4.2376 -4.60628 0
M  V30 9413 H 872.091 -2.51086 -1.59195 0
M  V30 9414 H 869.624 -1.36373 -0.724005 0
M  V30 9415 H 871.582 -1.43738 -3.84512 0
M  V30 9416 H 870.243 -0.542958 -3.09372 0
M  V30 9417 H 869.436 -2.57711 -4.33129 0
M  V30 9418 H 869.038 -2.68743 -2.60103 0
M  V30 9419 H 871.33 -3.92953 -5.51901 0
M  V30 9420 H 872.273 -5.24786 -4.75401 0
M  V30 9421 H 872.681 -3.54398 -4.39389 0
M  V30 9422 N 872.079 0.78992 -1.36375 0
M  V30 9423 C 873.325 1.55007 -1.3077 0
M  V30 9424 C 873.658 1.93871 0.112979 0
M  V30 9425 O 872.933 1.6267 1.06625 0
M  V30 9426 C 873.216 2.82748 -2.22993 0
M  V30 9427 C 873.069 2.50253 -3.73756 0
M  V30 9428 C 874.388 3.84569 -2.13998 0
M  V30 9429 H 871.507 0.562362 -0.476359 0
M  V30 9430 H 874.149 0.907582 -1.66922 0
M  V30 9431 H 872.299 3.37573 -1.92292 0
M  V30 9432 H 873.971 2.01482 -4.14973 0
M  V30 9433 H 872.214 1.83203 -3.93216 0
M  V30 9434 H 872.885 3.41487 -4.33694 0
M  V30 9435 H 875.361 3.39188 -2.4102 0
M  V30 9436 H 874.237 4.717 -2.80697 0
M  V30 9437 H 874.498 4.27491 -1.12711 0
M  V30 9438 N 873.557 1.20646 1.01402 0
M  V30 9439 C 874.785 1.04389 1.78635 0
M  V30 9440 C 875.2 -0.406771 1.84366 0
M  V30 9441 O 874.557 -1.28239 1.2985 0
M  V30 9442 C 874.608 1.62378 3.22979 0
M  V30 9443 O 874.329 3.01768 3.17597 0
M  V30 9444 C 875.83 1.5111 4.1675 0
M  V30 9445 H 873.05 0.367077 0.56169 0
M  V30 9446 H 875.594 1.59789 1.27624 0
M  V30 9447 H 873.749 1.11092 3.7113 0
M  V30 9448 H 874.163 3.29331 4.08217 0
M  V30 9449 H 875.637 1.96441 5.15863 0
M  V30 9450 H 876.114 0.464011 4.36742 0
M  V30 9451 H 876.72 2.01599 3.74483 0
M  V30 9452 N 875.035 -1.20752 1.01276 0
M  V30 9453 C 875.998 -2.2162 0.584583 0
M  V30 9454 C 876.998 -1.57094 -0.343215 0
M  V30 9455 O 878.188 -1.73696 -0.132433 0
M  V30 9456 C 875.32 -3.40583 -0.146872 0
M  V30 9457 H 876.513 -2.61015 1.47686 0
M  V30 9458 H 874.066 -1.34148 0.802123 0
M  V30 9459 H 874.801 -3.06686 -1.05424 0
M  V30 9460 H 874.586 -3.88642 0.51958 0
M  V30 9461 H 876.076 -4.15339 -0.433924 0
M  V30 9462 N 876.513 -0.788492 -1.36457 0
M  V30 9463 C 877.761 -0.359749 -1.98872 0
M  V30 9464 C 878.082 1.07197 -1.62892 0
M  V30 9465 O 877.352 1.73875 -0.902463 0
M  V30 9466 H 875.932 -0.130029 -0.735596 0
M  V30 9467 H 878.594 -1.01033 -1.66668 0
M  V30 9468 H 877.69 -0.450835 -3.08827 0
M  V30 9469 N 877.991 1.48044 -0.54043 0
M  V30 9470 C 878.921 2.32597 0.205178 0
M  V30 9471 C 879.902 1.42748 0.925041 0
M  V30 9472 O 881.087 1.71624 0.908784 0
M  V30 9473 C 878.217 3.24175 1.24612 0
M  V30 9474 C 877.171 4.23131 0.64376 0
M  V30 9475 C 876.497 5.03915 1.78812 0
M  V30 9476 C 877.797 5.20831 -0.39144 0
M  V30 9477 H 879.491 2.95184 -0.500676 0
M  V30 9478 H 877.037 1.41948 -0.242225 0
M  V30 9479 H 878.99 3.82158 1.77576 0
M  V30 9480 H 877.714 2.59608 1.98169 0
M  V30 9481 H 876.373 3.66349 0.135554 0
M  V30 9482 H 876.021 4.35765 2.51232 0
M  V30 9483 H 875.721 5.709 1.39094 0
M  V30 9484 H 877.245 5.64753 2.32134 0
M  V30 9485 H 878.659 5.73277 0.0515064 0
M  V30 9486 H 877.056 5.95926 -0.706569 0
M  V30 9487 H 878.126 4.6733 -1.29345 0
M  V30 9488 N 879.47 0.276058 1.55163 0
M  V30 9489 C 880.71 -0.341634 2.01525 0
M  V30 9490 C 881.074 -1.52979 1.16023 0
M  V30 9491 O 882.275 -2.21718 1.51968 0
M  V30 9492 C 880.546 -0.713294 3.5021 0
M  V30 9493 S 882.105 -1.31739 4.18558 0
M  V30 9494 H 878.923 -0.1062 0.703024 0
M  V30 9495 H 881.525 0.398112 1.91404 0
M  V30 9496 H 880.229 0.160311 4.10087 0
M  V30 9497 H 879.76 -1.48448 3.64317 0
M  V30 9498 H 881.775 -2.60595 4.22261 0
M  V30 9499 N 880.948 -1.576 0.00335426 0
M  V30 9500 C 881.898 -2.05116 -0.995562 0
M  V30 9501 C 882.882 -0.946535 -1.30113 0
M  V30 9502 O 884.074 -1.21028 -1.29156 0
M  V30 9503 C 881.203 -2.56077 -2.28648 0
M  V30 9504 C 880.289 -3.73422 -2.0104 0
M  V30 9505 N 880.68 -4.84986 -1.43603 0
M  V30 9506 C 878.978 -3.81416 -2.31166 0
M  V30 9507 C 879.679 -5.66399 -1.32542 0
M  V30 9508 N 878.655 -5.12505 -1.81218 0
M  V30 9509 H 882.457 -2.88783 -0.546025 0
M  V30 9510 H 879.971 -1.61135 -0.202265 0
M  V30 9511 H 881.968 -2.88395 -3.01055 0
M  V30 9512 H 880.628 -1.73829 -2.74251 0
M  V30 9513 H 881.639 -5.05768 -1.11439 0
M  V30 9514 H 878.316 -3.1003 -2.7962 0
M  V30 9515 H 879.706 -6.66066 -0.88348 0
M  V30 9516 N 882.426 0.269451 -1.5528 0
M  V30 9517 C 883.703 1.02207 -1.66773 0
M  V30 9518 C 884.083 2.04168 -0.536536 0
M  V30 9519 O 883.431 2.23761 0.462956 0
M  V30 9520 C 883.641 1.67569 -3.0614 0
M  V30 9521 C 884.989 2.18599 -3.64005 0
M  V30 9522 O 886.013 1.7755 -3.08795 0
M  V30 9523 O 884.872 2.93903 -4.60742 0
M  V30 9524 H 881.966 0.474314 -0.677462 0
M  V30 9525 H 884.512 0.265026 -1.67618 0
M  V30 9526 H 883.284 0.937029 -3.79915 0
M  V30 9527 H 882.907 2.49951 -3.09209 0
M  V30 9528 N 883.904 1.48273 0.534124 0
M  V30 9529 C 885.153 1.55334 1.28663 0
M  V30 9530 C 885.466 0.230345 1.94239 0
M  V30 9531 O 886.672 0.179161 2.70908 0
M  V30 9532 C 885.128 2.73927 2.33435 0
M  V30 9533 C 884.736 4.12852 1.73947 0
M  V30 9534 C 886.48 2.90298 3.09722 0
M  V30 9535 C 884.387 5.22711 2.76636 0
M  V30 9536 H 883.317 0.578262 0.483869 0
M  V30 9537 H 885.968 1.74598 0.564602 0
M  V30 9538 H 884.35 2.48089 3.08655 0
M  V30 9539 H 885.524 4.48691 1.04944 0
M  V30 9540 H 883.839 4.01562 1.10167 0
M  V30 9541 H 886.436 3.69542 3.86449 0
M  V30 9542 H 886.779 1.99598 3.6533 0
M  V30 9543 H 887.312 3.16017 2.41616 0
M  V30 9544 H 884.051 6.15362 2.25852 0
M  V30 9545 H 883.571 4.91364 3.43979 0
M  V30 9546 H 885.25 5.50648 3.39699 0
M  V30 9547 N 885.382 -0.782676 1.36792 0
M  V30 9548 C 886.659 -1.52939 1.21939 0
M  V30 9549 C 887.039 -2.10228 -0.191639 0
M  V30 9550 O 886.387 -1.94574 -1.19805 0
M  V30 9551 C 886.597 -2.61898 2.30674 0
M  V30 9552 C 887.945 -3.29598 2.67676 0
M  V30 9553 O 888.969 -2.72186 2.29768 0
M  V30 9554 O 887.828 -4.3337 3.32946 0
M  V30 9555 H 884.922 -0.676856 0.47518 0
M  V30 9556 H 887.468 -0.82058 1.48542 0
M  V30 9557 H 886.24 -2.17607 3.25212 0
M  V30 9558 H 885.863 -3.40391 2.05475 0
M  V30 9559 N 886.86 -1.21182 -1.00761 0
M  V30 9560 C 887.81 -0.936247 -2.0789 0
M  V30 9561 C 888.794 0.107482 -1.60541 0
M  V30 9562 O 889.986 -0.1011 -1.76711 0
M  V30 9563 C 887.115 -0.499949 -3.3964 0
M  V30 9564 C 886.201 -1.5776 -3.93666 0
M  V30 9565 N 886.592 -2.80208 -4.2109 0
M  V30 9566 C 884.89 -1.44586 -4.21913 0
M  V30 9567 C 885.591 -3.49787 -4.64784 0
M  V30 9568 N 884.567 -2.7722 -4.676 0
M  V30 9569 H 888.369 -1.86659 -2.27015 0
M  V30 9570 H 885.883 -1.10716 -1.1881 0
M  V30 9571 H 887.88 -0.283897 -4.15932 0
M  V30 9572 H 886.54 0.423659 -3.21924 0
M  V30 9573 H 887.551 -3.16776 -4.09724 0
M  V30 9574 H 884.228 -0.587346 -4.13348 0
M  V30 9575 H 885.618 -4.54615 -4.94747 0
M  V30 9576 N 888.338 1.20213 -1.01915 0
M  V30 9577 C 889.754 1.41696 -0.734459 0
M  V30 9578 C 889.954 1.89504 0.684867 0
M  V30 9579 O 889.01 2.06556 1.45227 0
M  V30 9580 C 890.323 2.43644 -1.76233 0
M  V30 9581 C 891.871 2.57406 -1.78076 0
M  V30 9582 C 892.346 3.626 -2.79796 0
M  V30 9583 N 893.837 3.70086 -2.78551 0
M  V30 9584 C 894.572 4.51145 -3.53915 0
M  V30 9585 N 894.068 5.35988 -4.38963 0
M  V30 9586 N 895.861 4.45702 -3.425 0
M  V30 9587 H 888.012 0.874976 -1.93541 0
M  V30 9588 H 890.275 0.446647 -0.836188 0
M  V30 9589 H 889.981 2.15519 -2.77929 0
M  V30 9590 H 889.855 3.42672 -1.57657 0
M  V30 9591 H 892.242 2.8486 -0.770634 0
M  V30 9592 H 892.323 1.58565 -2.00725 0
M  V30 9593 H 891.967 3.35889 -3.80973 0
M  V30 9594 H 891.897 4.61069 -2.54407 0
M  V30 9595 H 894.388 3.09484 -2.1686 0
M  V30 9596 H 894.701 5.94932 -4.9323 0
M  V30 9597 H 893.046 5.35482 -4.4304 0
M  V30 9598 H 896.237 3.78456 -2.75478 0
M  V30 9599 H 896.41 5.08637 -4.01487 0
M  V30 9600 N 889.816 0.795718 1.36037 0
M  V30 9601 C 891.064 0.370291 1.98679 0
M  V30 9602 C 891.385 -1.06332 1.63458 0
M  V30 9603 O 890.655 -1.73394 0.911671 0
M  V30 9604 H 889.235 0.133928 0.734896 0
M  V30 9605 H 891.897 1.01915 1.6613 0
M  V30 9606 H 890.993 0.467207 3.08583 0
M  V30 9607 N 891.294 -1.47756 0.548274 0
M  V30 9608 C 892.522 -2.06884 0.0254873 0
M  V30 9609 C 892.937 -1.40225 -1.26422 0
M  V30 9610 O 892.294 -0.495776 -1.75637 0
M  V30 9611 C 892.345 -3.61036 -0.183134 0
M  V30 9612 O 892.066 -4.25195 1.05549 0
M  V30 9613 C 893.567 -4.37008 -0.744222 0
M  V30 9614 H 890.787 -0.669697 0.041789 0
M  V30 9615 H 893.331 -1.89888 0.759138 0
M  V30 9616 H 891.486 -3.77576 -0.866886 0
M  V30 9617 H 891.9 -5.17606 0.847629 0
M  V30 9618 H 893.374 -5.45579 -0.839529 0
M  V30 9619 H 893.851 -4.0268 -1.75344 0
M  V30 9620 H 894.457 -4.25191 -0.0964542 0
M  V30 9621 N 892.772 -0.284283 -1.55015 0
M  V30 9622 C 893.72 0.615091 -2.2432 0
M  V30 9623 C 894.714 1.15051 -1.24337 0
M  V30 9624 O 895.92 1.10308 -1.4224 0
M  V30 9625 H 892.295 0.216927 -0.720033 0
M  V30 9626 H 894.266 0.00783216 -2.98399 0
M  V30 9627 C 893.015 1.78355 -2.98471 0
M  V30 9628 H 892.338 1.38076 -3.752 0
M  V30 9629 H 893.778 2.38927 -3.50271 0
M  V30 9630 C 892.237 2.67757 -2.04469 0
M  V30 9631 O 892.767 3.6838 -1.60185 0
M  V30 9632 N 890.973 2.35125 -1.70776 0
M  V30 9633 H 890.52 1.53346 -2.06985 0
M  V30 9634 H 890.478 2.95212 -1.08153 0
M  V30 9635 N 894.251 1.57596 -0.0117121 0
M  V30 9636 C 895.199 2.1029 0.994035 0
M  V30 9637 C 896.193 1.02549 1.34833 0
M  V30 9638 O 897.399 1.21003 1.3326 0
M  V30 9639 H 893.774 0.671624 0.338268 0
M  V30 9640 H 895.745 2.93761 0.524147 0
M  V30 9641 C 894.494 2.63099 2.27319 0
M  V30 9642 H 893.817 3.45642 2.00927 0
M  V30 9643 H 895.257 3.03635 2.95942 0
M  V30 9644 C 893.716 1.55044 2.99104 0
M  V30 9645 O 894.246 0.940127 3.90544 0
M  V30 9646 N 892.452 1.27506 2.61133 0
M  V30 9647 H 891.999 1.77322 1.86855 0
M  V30 9648 H 891.957 0.554292 3.09475 0
M  V30 9649 N 895.729 -0.261212 1.5542 0
M  V30 9650 C 896.659 -1.32712 1.92119 0
M  V30 9651 C 897.64 -1.50934 0.784406 0
M  V30 9652 O 898.825 -1.63781 1.04352 0
M  V30 9653 C 895.955 -2.68453 2.20341 0
M  V30 9654 C 894.909 -2.64947 3.36136 0
M  V30 9655 C 894.235 -4.04349 3.49865 0
M  V30 9656 C 895.535 -2.23182 4.72215 0
M  V30 9657 H 897.229 -1.02245 2.81401 0
M  V30 9658 H 894.775 -0.490406 1.35392 0
M  V30 9659 H 896.728 -3.43144 2.44603 0
M  V30 9660 H 895.452 -3.00527 1.27871 0
M  V30 9661 H 894.111 -1.92714 3.11861 0
M  V30 9662 H 893.759 -4.33665 2.5484 0
M  V30 9663 H 893.459 -4.02895 4.27726 0
M  V30 9664 H 894.983 -4.80761 3.76432 0
M  V30 9665 H 896.397 -2.87599 4.95943 0
M  V30 9666 H 894.794 -2.32867 5.53076 0
M  V30 9667 H 895.864 -1.18327 4.70241 0
M  V30 9668 N 897.207 -1.48554 -0.526253 0
M  V30 9669 C 898.437 -1.60197 -1.30463 0
M  V30 9670 C 898.845 -0.26278 -1.87366 0
M  V30 9671 O 898.188 0.758537 -1.67308 0
M  V30 9672 C 898.25 -2.59223 -2.49085 0
M  V30 9673 C 897.914 -4.04199 -2.13241 0
M  V30 9674 C 898.911 -4.91771 -1.68694 0
M  V30 9675 C 896.596 -4.49762 -2.2365 0
M  V30 9676 C 898.59 -6.22934 -1.35026 0
M  V30 9677 C 896.277 -5.80945 -1.89594 0
M  V30 9678 C 897.275 -6.67354 -1.45353 0
M  V30 9679 O 896.963 -7.96096 -1.11745 0
M  V30 9680 H 896.695 -0.54284 -0.402866 0
M  V30 9681 H 899.249 -1.95137 -0.641157 0
M  V30 9682 H 897.479 -2.19412 -3.18426 0
M  V30 9683 H 899.168 -2.60661 -3.11144 0
M  V30 9684 H 899.934 -4.57806 -1.6012 0
M  V30 9685 H 895.813 -3.8269 -2.5704 0
M  V30 9686 H 899.357 -6.90334 -1.00422 0
M  V30 9687 H 895.254 -6.14444 -1.9781 0
M  V30 9688 H 896.022 -8.08882 -1.25111 0
M  V30 9689 N 898.685 0.775411 -1.37205 0
M  V30 9690 C 899.617 1.89761 -1.28544 0
M  V30 9691 C 900.63 1.61542 -0.201996 0
M  V30 9692 O 901.819 1.72528 -0.457848 0
M  V30 9693 C 898.919 3.24904 -0.963885 0
M  V30 9694 C 898.092 3.80796 -2.15205 0
M  V30 9695 C 897.151 4.94407 -1.80135 0
M  V30 9696 O 896.177 5.10185 -2.52388 0
M  V30 9697 N 897.379 5.75722 -0.743298 0
M  V30 9698 H 900.144 1.97708 -2.25237 0
M  V30 9699 H 897.705 0.954348 -1.30782 0
M  V30 9700 H 899.697 3.9842 -0.710182 0
M  V30 9701 H 898.267 3.12483 -0.085632 0
M  V30 9702 H 897.487 2.99101 -2.56773 0
M  V30 9703 H 898.775 4.1487 -2.94552 0
M  V30 9704 H 898.173 5.65518 -0.143655 0
M  V30 9705 H 896.73 6.4948 -0.549446 0
M  V30 9706 N 900.163 1.21714 1.00117 0
M  V30 9707 C 901.096 0.923113 2.08696 0
M  V30 9708 C 902.074 -0.130827 1.62073 0
M  V30 9709 O 903.258 -0.00103064 1.885 0
M  V30 9710 C 900.385 0.386807 3.36484 0
M  V30 9711 C 899.431 1.42414 4.0202 0
M  V30 9712 S 900.264 2.99466 4.43937 0
M  V30 9713 C 901.42 2.47452 5.74907 0
M  V30 9714 H 901.653 1.84258 2.33315 0
M  V30 9715 H 899.186 1.0473 1.1345 0
M  V30 9716 H 901.144 0.0839547 4.10414 0
M  V30 9717 H 899.805 -0.511413 3.09909 0
M  V30 9718 H 898.998 0.998593 4.94008 0
M  V30 9719 H 898.6 1.67527 3.34381 0
M  V30 9720 H 900.892 1.88177 6.50842 0
M  V30 9721 H 901.835 3.37898 6.22279 0
M  V30 9722 H 902.243 1.89027 5.31911 0
M  V30 9723 N 901.641 -1.19671 1.02551 0
M  V30 9724 C 902.588 -2.22773 0.603394 0
M  V30 9725 C 903.558 -1.61669 -0.381081 0
M  V30 9726 O 904.743 -1.88756 -0.278505 0
M  V30 9727 C 901.883 -3.45073 -0.0431034 0
M  V30 9728 C 900.996 -4.20574 0.987006 0
M  V30 9729 C 900.131 -5.30291 0.310626 0
M  V30 9730 C 899.17 -5.97545 1.32688 0
M  V30 9731 N 898.307 -6.98833 0.676542 0
M  V30 9732 H 903.147 -2.58238 1.48719 0
M  V30 9733 H 900.684 -1.26881 0.744286 0
M  V30 9734 H 902.642 -4.14925 -0.435141 0
M  V30 9735 H 901.272 -3.10274 -0.890495 0
M  V30 9736 H 900.324 -3.497 1.49713 0
M  V30 9737 H 901.636 -4.66736 1.75952 0
M  V30 9738 H 900.79 -6.06547 -0.136438 0
M  V30 9739 H 899.529 -4.8519 -0.49412 0
M  V30 9740 H 898.534 -5.20043 1.78424 0
M  V30 9741 H 899.759 -6.4473 2.13306 0
M  V30 9742 H 897.705 -6.55911 -0.108172 0
M  V30 9743 H 897.622 -7.43168 1.38699 0
M  V30 9744 H 898.89 -7.79088 0.253367 0
M  V30 9745 N 903.119 -0.802921 -1.35613 0
M  V30 9746 C 904.344 -0.392846 -2.03645 0
M  V30 9747 C 904.769 0.987075 -1.6012 0
M  V30 9748 O 904.127 1.63849 -0.776101 0
M  V30 9749 C 904.175 -0.480208 -3.57388 0
M  V30 9750 O 903.279 0.507751 -4.09262 0
M  V30 9751 H 902.62 -0.16464 -0.643265 0
M  V30 9752 H 905.15 -1.08779 -1.73287 0
M  V30 9753 H 905.16 -0.348683 -4.06507 0
M  V30 9754 H 903.835 -1.48675 -3.88418 0
M  V30 9755 H 902.412 0.336769 -3.71376 0
M  V30 9756 N 904.597 1.47463 -0.556102 0
M  V30 9757 C 905.529 2.28046 0.22968 0
M  V30 9758 C 906.542 1.3694 0.880409 0
M  V30 9759 O 907.731 1.61773 0.754447 0
M  V30 9760 C 904.831 3.11165 1.34273 0
M  V30 9761 C 904.004 4.30225 0.789004 0
M  V30 9762 C 903.063 4.94948 1.78641 0
M  V30 9763 O 902.089 5.53372 1.33297 0
M  V30 9764 N 903.291 4.89543 3.11974 0
M  V30 9765 H 906.056 2.96125 -0.461558 0
M  V30 9766 H 903.617 1.5708 -0.392105 0
M  V30 9767 H 905.609 3.51331 2.00869 0
M  V30 9768 H 904.179 2.45337 1.93722 0
M  V30 9769 H 903.399 3.94163 -0.0536971 0
M  V30 9770 H 904.687 5.07238 0.398378 0
M  V30 9771 H 904.085 4.43275 3.51459 0
M  V30 9772 H 902.642 5.33732 3.74131 0
M  V30 9773 N 906.075 0.2925 1.54862 0
M  V30 9774 C 907.023 -0.603186 2.24643 0
M  V30 9775 C 908.017 -1.1439 1.24946 0
M  V30 9776 O 909.223 -1.09552 1.42823 0
M  V30 9777 H 905.598 -0.213105 0.721173 0
M  V30 9778 H 907.569 0.00799278 2.98399 0
M  V30 9779 C 906.318 -1.76769 2.99413 0
M  V30 9780 H 905.641 -1.36084 3.75927 0
M  V30 9781 H 907.081 -2.37066 3.51533 0
M  V30 9782 C 905.54 -2.66669 2.05886 0
M  V30 9783 O 906.07 -3.67525 1.62136 0
M  V30 9784 N 904.276 -2.34216 1.7202 0
M  V30 9785 H 903.823 -1.52246 2.07795 0
M  V30 9786 H 903.781 -2.94635 1.09717 0
M  V30 9787 N 907.553 -1.57587 0.0200696 0
M  V30 9788 C 908.964 -1.79312 -0.520019 0
M  V30 9789 C 909.315 -0.929475 -1.72787 0
M  V30 9790 O 908.44 -0.137389 -2.15963 0
M  V30 9791 C 909.035 -3.25203 -0.950172 0
M  V30 9792 C 907.594 -3.47954 -1.43543 0
M  V30 9793 C 906.741 -2.74459 -0.395917 0
M  V30 9794 H 909.692 -1.56779 0.246153 0
M  V30 9795 H 909.713 -3.34418 -1.81508 0
M  V30 9796 H 909.225 -3.88035 -0.070883 0
M  V30 9797 H 907.326 -2.90363 -2.33495 0
M  V30 9798 H 907.439 -4.56661 -1.44905 0
M  V30 9799 H 905.803 -2.39669 -0.862022 0
M  V30 9800 H 906.586 -3.40001 0.47475 0
M  V30 9801 N 909.032 0.252966 -1.55557 0
M  V30 9802 C 909.962 1.31691 -1.9282 0
M  V30 9803 C 910.943 1.50516 -0.7924 0
M  V30 9804 O 912.128 1.63225 -1.05219 0
M  V30 9805 C 909.258 2.67281 -2.21762 0
M  V30 9806 C 908.212 2.6316 -3.37536 0
M  V30 9807 C 907.538 4.02488 -3.52005 0
M  V30 9808 C 908.838 2.20675 -4.73392 0
M  V30 9809 H 910.532 1.00751 -2.81939 0
M  V30 9810 H 908.078 0.483219 -1.3565 0
M  V30 9811 H 910.031 3.41842 -2.46419 0
M  V30 9812 H 908.755 2.99845 -1.29463 0
M  V30 9813 H 907.414 1.91057 -3.12878 0
M  V30 9814 H 907.062 4.32307 -2.57137 0
M  V30 9815 H 906.762 4.00621 -4.29857 0
M  V30 9816 H 908.286 4.78758 -3.78977 0
M  V30 9817 H 909.7 2.84965 -4.97461 0
M  V30 9818 H 908.097 2.29931 -5.54303 0
M  V30 9819 H 909.167 1.15831 -4.70862 0
M  V30 9820 N 910.51 1.48831 0.518367 0
M  V30 9821 C 911.473 1.63721 1.604 0
M  V30 9822 C 912.473 0.509857 1.52503 0
M  V30 9823 O 913.663 0.775922 1.55965 0
M  V30 9824 C 910.795 1.61831 3.00039 0
M  V30 9825 H 911.988 2.60534 1.48533 0
M  V30 9826 H 909.541 1.37602 0.741309 0
M  V30 9827 H 910.276 0.665387 3.17401 0
M  V30 9828 H 910.061 2.43686 3.0718 0
M  V30 9829 H 911.551 1.75467 3.78947 0
M  V30 9830 N 911.988 -0.768124 1.37614 0
M  V30 9831 C 912.935 -1.88151 1.33671 0
M  V30 9832 C 913.905 -1.64871 0.201645 0
M  V30 9833 O 915.09 -1.86739 0.391582 0
M  V30 9834 C 912.23 -3.25264 1.15314 0
M  V30 9835 C 911.343 -3.60473 2.38082 0
M  V30 9836 C 910.478 -4.86814 2.12569 0
M  V30 9837 C 909.517 -5.14765 3.31184 0
M  V30 9838 N 908.654 -6.32295 3.052 0
M  V30 9839 H 913.494 -1.90857 2.28862 0
M  V30 9840 H 911.031 -0.933048 1.13722 0
M  V30 9841 H 912.989 -4.04364 1.02691 0
M  V30 9842 H 911.619 -3.21924 0.237689 0
M  V30 9843 H 910.671 -2.7633 2.61431 0
M  V30 9844 H 911.983 -3.77065 3.26532 0
M  V30 9845 H 911.137 -5.73826 1.96999 0
M  V30 9846 H 909.876 -4.72333 1.21462 0
M  V30 9847 H 908.881 -4.26227 3.4729 0
M  V30 9848 H 910.106 -5.31153 4.23147 0
M  V30 9849 H 908.052 -6.19166 2.16726 0
M  V30 9850 H 907.969 -6.4932 3.87195 0
M  V30 9851 H 909.237 -7.22234 2.93254 0
M  V30 9852 N 913.466 -1.22244 -0.994698 0
M  V30 9853 C 914.396 -1.01513 -2.10279 0
M  V30 9854 C 915.377 0.0633365 -1.69982 0
M  V30 9855 O 916.562 -0.0985268 -1.9395 0
M  V30 9856 C 913.692 -0.59016 -3.42249 0
M  V30 9857 C 912.646 -1.61436 -3.96387 0
M  V30 9858 C 911.972 -1.04528 -5.24383 0
M  V30 9859 C 913.272 -3.00388 -4.27276 0
M  V30 9860 H 914.966 -1.94194 -2.2788 0
M  V30 9861 H 912.512 -0.935094 -1.09508 0
M  V30 9862 H 914.465 -0.432254 -4.19177 0
M  V30 9863 H 913.189 0.372308 -3.24471 0
M  V30 9864 H 911.848 -1.76001 -3.21589 0
M  V30 9865 H 911.496 -0.0742225 -5.02945 0
M  V30 9866 H 911.196 -1.72949 -5.61571 0
M  V30 9867 H 912.72 -0.898922 -6.03947 0
M  V30 9868 H 914.134 -2.89207 -4.95007 0
M  V30 9869 H 912.531 -3.65916 -4.75631 0
M  V30 9870 H 913.601 -3.50456 -3.35125 0
M  V30 9871 N 914.944 1.19125 -1.03184 0
M  V30 9872 C 915.894 2.20348 -0.585731 0
M  V30 9873 C 916.878 1.56656 0.367109 0
M  V30 9874 O 918.07 1.76003 0.187598 0
M  V30 9875 C 915.199 3.43249 0.0590006 0
M  V30 9876 C 914.285 4.1408 -0.916457 0
M  V30 9877 N 914.676 4.61051 -2.08005 0
M  V30 9878 C 912.974 4.39809 -0.74054 0
M  V30 9879 C 913.675 5.15477 -2.69552 0
M  V30 9880 N 912.651 5.06456 -1.97493 0
M  V30 9881 H 916.453 2.54346 -1.47259 0
M  V30 9882 H 913.967 1.35232 -0.899225 0
M  V30 9883 H 915.964 4.15013 0.396236 0
M  V30 9884 H 914.624 3.1075 0.941507 0
M  V30 9885 H 915.635 4.55782 -2.45934 0
M  V30 9886 H 912.312 4.17397 0.0926238 0
M  V30 9887 H 913.702 5.62088 -3.68112 0
M  V30 9888 N 916.422 0.810101 1.35185 0
M  V30 9889 C 917.67 0.391343 1.98275 0
M  V30 9890 C 917.991 -1.04592 1.64577 0
M  V30 9891 O 917.261 -1.72417 0.93001 0
M  V30 9892 H 915.841 0.141715 0.733434 0
M  V30 9893 H 918.503 1.03672 1.6504 0
M  V30 9894 H 917.599 0.49991 3.0807 0
M  V30 9895 N 917.9 -1.47166 0.563914 0
M  V30 9896 C 919.125 -2.0735 0.0454698 0
M  V30 9897 C 919.55 -1.41281 -1.24182 0
M  V30 9898 O 918.908 -0.490084 -1.7455 0
M  V30 9899 C 918.956 -3.60378 -0.126453 0
M  V30 9900 O 918.06 -3.94934 -1.18746 0
M  V30 9901 H 917.401 -0.661773 0.0543377 0
M  V30 9902 H 919.931 -1.89086 0.781508 0
M  V30 9903 H 919.941 -4.06593 -0.338554 0
M  V30 9904 H 918.616 -4.07862 0.81373 0
M  V30 9905 H 917.193 -3.60455 -0.955318 0
M  V30 9906 N 919.378 -0.300708 -1.54705 0
M  V30 9907 C 920.603 0.314073 -2.05008 0
M  V30 9908 C 921.028 1.46759 -1.17657 0
M  V30 9909 O 920.386 1.80398 -0.180598 0
M  V30 9910 C 920.434 0.748243 -3.52752 0
M  V30 9911 O 919.538 1.85305 -3.68424 0
M  V30 9912 H 918.879 0.0610139 -0.661191 0
M  V30 9913 H 921.409 -0.442467 -1.99758 0
M  V30 9914 H 921.419 1.03713 -3.94598 0
M  V30 9915 H 920.094 -0.095573 -4.1579 0
M  V30 9916 H 918.671 1.56473 -3.38483 0
M  V30 9917 N 920.856 1.57574 -0.0284266 0
M  V30 9918 C 922.105 1.9095 0.649704 0
M  V30 9919 C 922.418 0.906421 1.7333 0
M  V30 9920 O 923.624 1.1314 2.46803 0
M  V30 9921 C 922.08 3.39061 1.20687 0
M  V30 9922 C 921.688 4.47726 0.156597 0
M  V30 9923 C 923.432 3.81505 1.86156 0
M  V30 9924 C 921.339 5.86935 0.725365 0
M  V30 9925 H 920.269 0.712589 0.24644 0
M  V30 9926 H 922.92 1.83261 -0.0936143 0
M  V30 9927 H 921.302 3.41679 2.00178 0
M  V30 9928 H 922.476 4.56667 -0.6158 0
M  V30 9929 H 920.791 4.14481 -0.399288 0
M  V30 9930 H 923.388 4.82865 2.29665 0
M  V30 9931 H 923.731 3.16529 2.70398 0
M  V30 9932 H 924.264 3.81307 1.13356 0
M  V30 9933 H 921.003 6.55453 -0.0789081 0
M  V30 9934 H 920.523 5.81602 1.46627 0
M  V30 9935 H 922.202 6.35483 1.21532 0
M  V30 9936 N 922.334 -0.244713 1.55689 0
M  V30 9937 C 923.264 -1.30667 1.93516 0
M  V30 9938 C 924.245 -1.50094 0.800371 0
M  V30 9939 O 925.43 -1.62665 1.06083 0
M  V30 9940 C 922.56 -2.66101 2.23176 0
M  V30 9941 C 921.514 -2.61366 3.38927 0
M  V30 9942 C 920.84 -4.00616 3.54134 0
M  V30 9943 C 922.14 -2.18161 4.74555 0
M  V30 9944 H 923.834 -0.992546 2.82469 0
M  V30 9945 H 921.38 -0.476018 1.35905 0
M  V30 9946 H 923.333 -3.4053 2.48228 0
M  V30 9947 H 922.057 -2.99154 1.31051 0
M  V30 9948 H 920.716 -1.89395 3.13887 0
M  V30 9949 H 920.364 -4.30938 2.59426 0
M  V30 9950 H 920.064 -3.98335 4.31975 0
M  V30 9951 H 921.588 -4.76741 3.8151 0
M  V30 9952 H 923.002 -2.82323 4.98965 0
M  V30 9953 H 921.399 -2.26988 5.55515 0
M  V30 9954 H 922.469 -1.13333 4.7147 0
M  V30 9955 N 923.813 -1.49104 -0.510467 0
M  V30 9956 C 924.723 -1.67792 -1.6396 0
M  V30 9957 C 925.739 -0.560454 -1.64727 0
M  V30 9958 O 926.915 -0.833985 -1.83321 0
M  V30 9959 C 923.98 -1.73154 -3.00364 0
M  V30 9960 C 923.041 -2.9667 -3.10299 0
M  V30 9961 C 922.274 -3.01767 -4.40196 0
M  V30 9962 O 922.497 -2.1472 -5.28443 0
M  V30 9963 O 921.431 -3.94137 -4.54906 0
M  V30 9964 H 925.257 -2.63428 -1.51126 0
M  V30 9965 H 922.842 -1.32734 -0.685719 0
M  V30 9966 H 924.724 -1.79089 -3.81451 0
M  V30 9967 H 923.399 -0.806952 -3.1348 0
M  V30 9968 H 922.306 -2.96257 -2.28435 0
M  V30 9969 H 923.639 -3.88578 -3.02106 0
M  V30 9970 N 925.291 0.760815 -1.38019 0
M  V30 9971 C 926.707 1.06289 -1.19058 0
M  V30 9972 C 926.907 2.01471 -0.0342603 0
M  V30 9973 O 925.963 2.44713 0.62224 0
M  V30 9974 C 927.276 1.6499 -2.51394 0
M  V30 9975 C 928.824 1.77196 -2.58013 0
M  V30 9976 C 929.299 2.3931 -3.90506 0
M  V30 9977 N 930.79 2.46749 -3.92007 0
M  V30 9978 C 931.525 2.95687 -4.91281 0
M  V30 9979 N 931.021 3.44715 -6.00952 0
M  V30 9980 N 932.814 2.94661 -4.78677 0
M  V30 9981 H 924.965 0.129045 -2.12008 0
M  V30 9982 H 927.228 0.119878 -0.94039 0
M  V30 9983 H 926.934 1.0252 -3.36426 0
M  V30 9984 H 926.808 2.64146 -2.6927 0
M  V30 9985 H 929.195 2.38796 -1.7338 0
M  V30 9986 H 929.276 0.767645 -2.4401 0
M  V30 9987 H 928.92 1.78346 -4.75558 0
M  V30 9988 H 928.85 3.40369 -4.01817 0
M  V30 9989 H 931.341 2.12064 -3.12789 0
M  V30 9990 H 931.654 3.80492 -6.72641 0
M  V30 9991 H 929.999 3.42791 -6.04582 0
M  V30 9992 H 933.19 2.55665 -3.92113 0
M  V30 9993 H 933.363 3.32489 -5.56197 0
M  V30 9994 N 926.769 1.22769 0.988202 0
M  V30 9995 C 927.719 0.969202 2.06375 0
M  V30 9996 C 928.703 -0.0819274 1.60691 0
M  V30 9997 O 929.895 0.129201 1.76528 0
M  V30 9998 C 927.024 0.553919 3.38802 0
M  V30 9999 C 926.11 1.64003 3.91106 0
M  V30 10000 N 926.501 2.86872 4.16579 0
M  V30 10001 C 924.799 1.5128 4.1956 0
M  V30 10002 C 925.5 3.57137 4.5916 0
M  V30 10003 N 924.476 2.84624 4.63131 0
M  V30 10004 H 928.278 1.90247 2.24017 0
M  V30 10005 H 925.792 1.12592 1.17033 0
M  V30 10006 H 927.789 0.350033 4.15428 0
M  V30 10007 H 926.449 -0.37239 3.22558 0
M  V30 10008 H 927.46 3.23254 4.04632 0
M  V30 10009 H 924.137 0.653032 4.12361 0
M  V30 10010 H 925.527 4.62428 4.87452 0
M  V30 10011 N 928.247 -1.18576 1.03814 0
M  V30 10012 C 929.197 -2.20034 0.597409 0
M  V30 10013 C 930.181 -1.56849 -0.358796 0
M  V30 10014 O 931.373 -1.761 -0.178262 0
M  V30 10015 C 928.502 -3.43276 -0.0407965 0
M  V30 10016 C 927.588 -4.13588 0.938404 0
M  V30 10017 N 927.979 -4.59941 2.10447 0
M  V30 10018 C 926.277 -4.3941 0.763853 0
M  V30 10019 C 926.978 -5.1404 2.72282 0
M  V30 10020 N 925.954 -5.05401 2.00176 0
M  V30 10021 H 929.756 -2.53562 1.48606 0
M  V30 10022 H 927.27 -1.34753 0.906384 0
M  V30 10023 H 929.267 -4.15217 -0.374222 0
M  V30 10024 H 927.927 -3.11245 -0.925014 0
M  V30 10025 H 928.938 -4.54471 2.48347 0
M  V30 10026 H 925.615 -4.1744 -0.0704869 0
M  V30 10027 H 927.005 -5.60128 3.71088 0
M  V30 10028 N 929.725 -0.817259 -1.34754 0
M  V30 10029 C 930.655 -0.249769 -2.3216 0
M  V30 10030 C 931.636 0.630663 -1.57977 0
M  V30 10031 O 932.821 0.558719 -1.85989 0
M  V30 10032 C 929.951 0.593825 -3.42186 0
M  V30 10033 C 928.905 -0.188997 -4.27583 0
M  V30 10034 C 928.231 0.776979 -5.29025 0
M  V30 10035 C 929.531 -1.39401 -5.03354 0
M  V30 10036 H 931.225 -1.06359 -2.79872 0
M  V30 10037 H 928.771 -0.512894 -1.34556 0
M  V30 10038 H 930.724 1.00097 -4.09339 0
M  V30 10039 H 929.448 1.44064 -2.93109 0
M  V30 10040 H 928.107 -0.577445 -3.62024 0
M  V30 10041 H 927.755 1.61959 -4.76212 0
M  V30 10042 H 927.455 0.257448 -5.87036 0
M  V30 10043 H 928.979 1.18211 -5.99048 0
M  V30 10044 H 930.393 -1.06117 -5.63393 0
M  V30 10045 H 928.79 -1.84878 -5.70912 0
M  V30 10046 H 929.86 -2.17515 -4.33377 0
M  V30 10047 N 931.203 1.46865 -0.571711 0
M  V30 10048 C 932.113 2.33979 0.170571 0
M  V30 10049 C 933.129 1.49083 0.897239 0
M  V30 10050 O 934.305 1.81979 0.862888 0
M  V30 10051 C 931.37 3.26063 1.17831 0
M  V30 10052 C 930.431 4.26855 0.457499 0
M  V30 10053 C 929.664 5.14539 1.41722 0
M  V30 10054 O 929.887 5.04945 2.65305 0
M  V30 10055 O 928.821 5.94612 0.9338 0
M  V30 10056 H 932.647 2.98781 -0.544396 0
M  V30 10057 H 930.232 1.4566 -0.332198 0
M  V30 10058 H 932.114 3.82903 1.75965 0
M  V30 10059 H 930.789 2.63871 1.87493 0
M  V30 10060 H 929.696 3.73734 -0.165406 0
M  V30 10061 H 931.029 4.91802 -0.197953 0
M  V30 10062 N 932.681 0.308908 1.54543 0
M  V30 10063 C 933.928 -0.298036 2.00295 0
M  V30 10064 C 934.256 -1.53285 1.19724 0
M  V30 10065 O 933.511 -1.93917 0.263551 0
M  V30 10066 C 933.81 -0.691522 3.50646 0
M  V30 10067 C 933.476 0.442454 4.48724 0
M  V30 10068 C 932.138 0.753739 4.7526 0
M  V30 10069 C 934.49 1.20488 5.07082 0
M  V30 10070 C 931.818 1.83044 5.57415 0
M  V30 10071 C 934.17 2.27156 5.90409 0
M  V30 10072 C 932.834 2.58882 6.15253 0
M  V30 10073 H 932.104 -0.109059 0.73293 0
M  V30 10074 H 934.751 0.429647 1.86618 0
M  V30 10075 H 933.056 -1.49941 3.61974 0
M  V30 10076 H 934.753 -1.17244 3.83477 0
M  V30 10077 H 931.343 0.189744 4.2818 0
M  V30 10078 H 935.527 0.977653 4.86575 0
M  V30 10079 H 930.783 2.08088 5.749 0
M  V30 10080 H 934.957 2.86687 6.34652 0
M  V30 10081 H 932.584 3.42443 6.78702 0
M  V30 10082 N 934.159 -1.57557 0.0367827 0
M  V30 10083 C 935.407 -1.91735 -0.63892 0
M  V30 10084 C 935.728 -0.914515 -1.72226 0
M  V30 10085 O 934.998 0.0428248 -1.95853 0
M  V30 10086 H 933.578 -0.707738 -0.23899 0
M  V30 10087 H 936.24 -1.94708 0.0863931 0
M  V30 10088 H 935.336 -2.92568 -1.08676 0
M  V30 10089 N 935.637 0.236453 -1.55816 0
M  V30 10090 C 936.584 1.29289 -1.91188 0
M  V30 10091 C 937.554 1.47315 -0.767301 0
M  V30 10092 O 938.739 1.61128 -1.02189 0
M  V30 10093 C 935.879 2.64126 -2.22107 0
M  V30 10094 C 934.992 2.54022 -3.49423 0
M  V30 10095 C 934.127 3.81282 -3.69861 0
M  V30 10096 C 933.166 3.65839 -4.90743 0
M  V30 10097 N 932.303 4.85014 -5.07647 0
M  V30 10098 H 937.143 0.98424 -2.81277 0
M  V30 10099 H 934.68 0.474722 -1.39229 0
M  V30 10100 H 936.638 3.42626 -2.3804 0
M  V30 10101 H 935.268 2.93118 -1.35209 0
M  V30 10102 H 934.32 1.67036 -3.41765 0
M  V30 10103 H 935.632 2.38525 -4.38072 0
M  V30 10104 H 934.786 4.68226 -3.8581 0
M  V30 10105 H 933.525 3.99688 -2.79465 0
M  V30 10106 H 932.53 2.77279 -4.74759 0
M  V30 10107 H 933.755 3.48918 -5.82609 0
M  V30 10108 H 931.701 5.03762 -4.20191 0
M  V30 10109 H 931.618 4.72188 -5.90402 0
M  V30 10110 H 932.886 5.73427 -5.28017 0
M  V30 10111 N 937.115 1.49373 0.502552 0
M  V30 10112 C 938.362 1.58781 1.25678 0
M  V30 10113 C 938.69 0.273819 1.92563 0
M  V30 10114 O 937.945 -0.738141 1.81246 0
M  V30 10115 C 938.244 2.69508 2.34735 0
M  V30 10116 C 937.91 4.11057 1.85318 0
M  V30 10117 C 936.572 4.49578 1.7156 0
M  V30 10118 C 938.924 4.99653 1.48312 0
M  V30 10119 C 936.252 5.74469 1.19172 0
M  V30 10120 C 938.604 6.2506 0.97377 0
M  V30 10121 C 937.268 6.62412 0.822573 0
M  V30 10122 H 936.538 0.581021 0.459887 0
M  V30 10123 H 939.185 1.83197 0.557767 0
M  V30 10124 H 937.49 2.39057 3.10418 0
M  V30 10125 H 939.187 2.73997 2.92791 0
M  V30 10126 H 935.777 3.80651 1.96985 0
M  V30 10127 H 939.961 4.70549 1.57789 0
M  V30 10128 H 935.217 6.0211 1.06176 0
M  V30 10129 H 939.391 6.93089 0.678233 0
M  V30 10130 H 937.018 7.59069 0.414453 0
M  V30 10131 N 938.594 -0.753485 1.38421 0
M  V30 10132 C 939.524 -1.8808 1.38377 0
M  V30 10133 C 940.505 -1.68258 0.249664 0
M  V30 10134 O 941.69 -1.88848 0.45276 0
M  V30 10135 C 938.82 -3.25608 1.20818 0
M  V30 10136 C 937.774 -3.60032 2.31433 0
M  V30 10137 C 937.1 -4.96297 1.9898 0
M  V30 10138 C 938.4 -3.64898 3.73694 0
M  V30 10139 H 940.094 -1.88375 2.32713 0
M  V30 10140 H 937.64 -0.90489 1.12017 0
M  V30 10141 H 939.593 -4.04127 1.19412 0
M  V30 10142 H 938.317 -3.25793 0.229433 0
M  V30 10143 H 936.976 -2.83831 2.32025 0
M  V30 10144 H 936.624 -4.93043 0.995889 0
M  V30 10145 H 936.324 -5.20298 2.73063 0
M  V30 10146 H 937.848 -5.77196 1.99193 0
M  V30 10147 H 939.262 -4.33531 3.75132 0
M  V30 10148 H 937.659 -4.00407 4.46983 0
M  V30 10149 H 938.729 -2.65124 4.06002 0
M  V30 10150 N 940.072 -1.23292 -0.981677 0
M  V30 10151 C 941.002 -1.03738 -2.09191 0
M  V30 10152 C 941.983 0.0453041 -1.7004 0
M  V30 10153 O 943.168 -0.119092 -1.93834 0
M  V30 10154 C 940.298 -0.626426 -3.41604 0
M  V30 10155 C 939.252 -1.65631 -3.94652 0
M  V30 10156 C 938.578 -1.10084 -5.23245 0
M  V30 10157 C 939.878 -3.04903 -4.24066 0
M  V30 10158 H 941.572 -1.966 -2.25807 0
M  V30 10159 H 939.118 -0.946656 -1.0851 0
M  V30 10160 H 941.071 -0.476689 -4.18695 0
M  V30 10161 H 939.795 0.337873 -3.24848 0
M  V30 10162 H 938.454 -1.79402 -3.19704 0
M  V30 10163 H 938.102 -0.127562 -5.02838 0
M  V30 10164 H 937.802 -1.78896 -5.59705 0
M  V30 10165 H 939.326 -0.962928 -6.02959 0
M  V30 10166 H 940.74 -2.94441 -4.91912 0
M  V30 10167 H 939.137 -3.70941 -4.71724 0
M  V30 10168 H 940.207 -3.53991 -3.31389 0
M  V30 10169 N 941.55 1.18024 -1.04442 0
M  V30 10170 C 942.775 1.92573 -0.770097 0
M  V30 10171 C 943.2 1.75871 0.667169 0
M  V30 10172 O 942.558 1.07136 1.46258 0
M  V30 10173 C 942.606 3.41904 -1.14602 0
M  V30 10174 O 941.71 4.11491 -0.273712 0
M  V30 10175 H 941.051 0.600636 -0.283076 0
M  V30 10176 H 943.581 1.49645 -1.39526 0
M  V30 10177 H 943.591 3.92623 -1.10956 0
M  V30 10178 H 942.266 3.53382 -2.19304 0
M  V30 10179 H 940.843 3.71059 -0.370124 0
M  V30 10180 N 943.028 0.824394 1.34319 0
M  V30 10181 C 943.938 0.24932 2.33271 0
M  V30 10182 C 944.954 -0.617066 1.62691 0
M  V30 10183 O 946.13 -0.524616 1.94447 0
M  V30 10184 C 943.195 -0.578094 3.41846 0
M  V30 10185 C 942.256 0.310866 4.28173 0
M  V30 10186 C 941.489 -0.477153 5.31563 0
M  V30 10187 O 941.712 -1.71028 5.44156 0
M  V30 10188 O 940.646 0.141287 6.01734 0
M  V30 10189 H 944.472 1.06837 2.84288 0
M  V30 10190 H 942.057 0.58657 1.37403 0
M  V30 10191 H 943.939 -1.04878 4.0814 0
M  V30 10192 H 942.614 -1.37444 2.93071 0
M  V30 10193 H 941.521 0.829081 3.64797 0
M  V30 10194 H 942.854 1.07161 4.80393 0
M  V30 10195 N 944.506 -1.46559 0.579492 0
M  V30 10196 C 945.416 -2.34066 -0.15816 0
M  V30 10197 C 946.432 -1.49556 -0.88932 0
M  V30 10198 O 947.608 -1.82434 -0.853226 0
M  V30 10199 C 944.673 -3.26683 -1.161 0
M  V30 10200 C 943.734 -4.27092 -0.434855 0
M  V30 10201 C 942.967 -5.15283 -1.38992 0
M  V30 10202 O 943.19 -5.06345 -2.62623 0
M  V30 10203 O 942.124 -5.95099 -0.902253 0
M  V30 10204 H 945.95 -2.98488 0.560234 0
M  V30 10205 H 943.535 -1.45482 0.339918 0
M  V30 10206 H 945.417 -3.8383 -1.73932 0
M  V30 10207 H 944.092 -2.64862 -1.86091 0
M  V30 10208 H 942.999 -3.73641 0.185224 0
M  V30 10209 H 944.332 -4.9169 0.224031 0
M  V30 10210 N 945.984 -0.3171 -1.54377 0
M  V30 10211 C 947.212 0.289558 -2.04864 0
M  V30 10212 C 947.627 1.46284 -1.19359 0
M  V30 10213 O 946.984 1.81135 -0.222795 0
M  V30 10214 C 947.035 0.730273 -3.54047 0
M  V30 10215 O 946.756 -0.396325 -4.36304 0
M  V30 10216 C 948.257 1.40041 -4.20599 0
M  V30 10217 H 945.477 0.0605836 -0.668259 0
M  V30 10218 H 948.021 -0.461411 -1.99227 0
M  V30 10219 H 946.176 1.43123 -3.59992 0
M  V30 10220 H 946.59 -0.0502901 -5.24476 0
M  V30 10221 H 948.064 1.65979 -5.26455 0
M  V30 10222 H 948.541 2.34565 -3.71316 0
M  V30 10223 H 949.147 0.742206 -4.18774 0
M  V30 10224 N 947.462 1.57535 -0.0451378 0
M  V30 10225 C 948.392 2.14208 0.929372 0
M  V30 10226 C 949.373 1.06221 1.32858 0
M  V30 10227 O 950.558 1.34132 1.40436 0
M  V30 10228 C 947.688 2.68217 2.20629 0
M  V30 10229 C 946.642 3.81134 1.94734 0
M  V30 10230 C 945.968 4.21636 3.28828 0
M  V30 10231 C 947.268 5.06531 1.27374 0
M  V30 10232 H 948.962 2.95886 0.457348 0
M  V30 10233 H 946.508 1.42332 0.218544 0
M  V30 10234 H 948.461 3.06502 2.89196 0
M  V30 10235 H 947.185 1.83722 2.70026 0
M  V30 10236 H 945.844 3.43312 1.28579 0
M  V30 10237 H 945.492 3.34099 3.76014 0
M  V30 10238 H 945.192 4.97736 3.12302 0
M  V30 10239 H 946.716 4.62516 3.98637 0
M  V30 10240 H 948.13 5.423 1.85967 0
M  V30 10241 H 946.527 5.87735 1.21194 0
M  V30 10242 H 947.597 4.84261 0.248913 0
M  V30 10243 N 948.94 -0.228186 1.55939 0
M  V30 10244 C 949.888 -1.30239 1.92719 0
M  V30 10245 C 950.882 -1.48865 0.808424 0
M  V30 10246 O 952.088 -1.50118 0.993204 0
M  V30 10247 H 948.463 -0.436509 0.612343 0
M  V30 10248 H 950.434 -0.964965 2.82367 0
M  V30 10249 C 949.183 -2.647 2.25453 0
M  V30 10250 H 948.506 -2.51173 3.1105 0
M  V30 10251 H 949.946 -3.38691 2.55077 0
M  V30 10252 C 948.405 -3.1921 1.07734 0
M  V30 10253 O 948.935 -4.00301 0.335019 0
M  V30 10254 N 947.141 -2.77492 0.862938 0
M  V30 10255 H 946.688 -2.11657 1.4683 0
M  V30 10256 H 946.646 -3.14306 0.0770119 0
M  V30 10257 N 950.418 -1.49637 -0.494624 0
M  V30 10258 C 951.667 -1.58691 -1.24499 0
M  V30 10259 C 951.98 -0.281763 -1.9356 0
M  V30 10260 O 953.186 -0.250925 -2.70338 0
M  V30 10261 C 951.642 -2.8002 -2.26091 0
M  V30 10262 C 951.25 -4.17318 -1.6294 0
M  V30 10263 C 952.994 -2.98407 -3.01916 0
M  V30 10264 C 950.901 -5.29862 -2.62679 0
M  V30 10265 H 949.831 -0.590888 -0.468367 0
M  V30 10266 H 952.482 -1.76034 -0.518112 0
M  V30 10267 H 950.864 -2.56185 -3.01969 0
M  V30 10268 H 952.038 -4.51315 -0.930108 0
M  V30 10269 H 950.353 -4.04342 -0.994819 0
M  V30 10270 H 952.95 -3.79658 -3.76516 0
M  V30 10271 H 953.293 -2.09214 -3.5991 0
M  V30 10272 H 953.826 -3.22312 -2.33152 0
M  V30 10273 H 950.565 -6.21134 -2.09458 0
M  V30 10274 H 950.085 -5.00311 -3.3083 0
M  V30 10275 H 951.764 -5.59461 -3.2498 0
M  V30 10276 N 951.896 0.746133 -1.38819 0
M  V30 10277 C 953.126 1.53316 -1.38484 0
M  V30 10278 C 953.534 1.89183 0.0253332 0
M  V30 10279 O 952.877 1.5382 1.00424 0
M  V30 10280 C 952.939 2.85623 -2.18311 0
M  V30 10281 C 952.603 2.72253 -3.67052 0
M  V30 10282 C 953.6 2.41547 -4.60381 0
M  V30 10283 C 951.285 2.89472 -4.10501 0
M  V30 10284 C 953.279 2.28226 -5.9514 0
M  V30 10285 C 950.966 2.7577 -5.45338 0
M  V30 10286 C 951.964 2.45191 -6.37472 0
M  V30 10287 O 951.652 2.31561 -7.69828 0
M  V30 10288 H 951.384 0.480763 -0.475229 0
M  V30 10289 H 953.938 0.93057 -1.83111 0
M  V30 10290 H 952.168 3.481 -1.68414 0
M  V30 10291 H 953.857 3.47178 -2.10291 0
M  V30 10292 H 954.623 2.27905 -4.28117 0
M  V30 10293 H 950.502 3.12269 -3.3913 0
M  V30 10294 H 954.046 2.04279 -6.6702 0
M  V30 10295 H 949.943 2.88987 -5.77197 0
M  V30 10296 H 950.711 2.46716 -7.80432 0
M  V30 10297 N 953.375 1.23811 0.975125 0
M  V30 10298 C 954.307 0.981779 2.07108 0
M  V30 10299 C 955.32 -0.0461211 1.62735 0
M  V30 10300 O 956.509 0.190039 1.77486 0
M  V30 10301 C 953.609 0.458364 3.35786 0
M  V30 10302 C 952.782 1.54767 4.09104 0
M  V30 10303 C 951.841 1.0282 5.16057 0
M  V30 10304 O 950.867 1.71831 5.42644 0
M  V30 10305 N 952.069 -0.141243 5.80328 0
M  V30 10306 H 954.834 1.92537 2.29673 0
M  V30 10307 H 952.395 1.1474 1.14221 0
M  V30 10308 H 954.387 0.0957686 4.04587 0
M  V30 10309 H 952.957 -0.390768 3.10148 0
M  V30 10310 H 952.177 2.08279 3.34684 0
M  V30 10311 H 953.465 2.28006 4.54853 0
M  V30 10312 H 952.863 -0.718382 5.6112 0
M  V30 10313 H 951.42 -0.445052 6.50279 0
M  V30 10314 N 954.853 -1.17469 1.05066 0
M  V30 10315 C 955.801 -2.23495 0.644418 0
M  V30 10316 C 956.795 -1.66081 -0.333685 0
M  V30 10317 O 958.001 -1.78887 -0.199886 0
M  V30 10318 H 954.376 -0.727546 0.190214 0
M  V30 10319 H 956.347 -2.55058 1.5488 0
M  V30 10320 C 955.096 -3.47684 0.0338051 0
M  V30 10321 H 954.419 -3.92167 0.777513 0
M  V30 10322 H 955.859 -4.23464 -0.213086 0
M  V30 10323 C 954.318 -3.14067 -1.21915 0
M  V30 10324 O 954.848 -3.28728 -2.3087 0
M  V30 10325 N 953.054 -2.68304 -1.11631 0
M  V30 10326 H 952.601 -2.56574 -0.229673 0
M  V30 10327 H 952.559 -2.46184 -1.95553 0
M  V30 10328 N 956.331 -0.831506 -1.3388 0
M  V30 10329 C 957.261 -0.274378 -2.31882 0
M  V30 10330 C 958.242 0.613872 -1.58637 0
M  V30 10331 O 959.427 0.538961 -1.86571 0
M  V30 10332 C 956.557 0.557498 -3.42796 0
M  V30 10333 C 955.511 -0.234337 -4.27358 0
M  V30 10334 C 954.837 0.720825 -5.29819 0
M  V30 10335 C 956.137 -1.44732 -5.01847 0
M  V30 10336 H 957.831 -1.09322 -2.78728 0
M  V30 10337 H 955.377 -0.527136 -1.34005 0
M  V30 10338 H 957.33 0.957501 -4.10378 0
M  V30 10339 H 956.054 1.40947 -2.94621 0
M  V30 10340 H 954.713 -0.61581 -3.61391 0
M  V30 10341 H 954.361 1.569 -4.77903 0
M  V30 10342 H 954.061 0.195171 -5.87276 0
M  V30 10343 H 955.585 1.1185 -6.00268 0
M  V30 10344 H 956.999 -1.12087 -5.62236 0
M  V30 10345 H 955.396 -1.90923 -5.68919 0
M  V30 10346 H 956.466 -2.22099 -4.31045 0
M  V30 10347 N 957.809 1.4625 -0.587256 0
M  V30 10348 C 958.757 2.32076 0.156108 0
M  V30 10349 C 959.751 1.44756 0.879887 0
M  V30 10350 O 960.957 1.61356 0.797759 0
M  V30 10351 H 957.332 0.748808 0.0692098 0
M  V30 10352 H 959.303 2.9258 -0.586497 0
M  V30 10353 C 958.052 3.28008 1.15352 0
M  V30 10354 H 957.375 3.9518 0.60601 0
M  V30 10355 H 958.815 3.90832 1.64396 0
M  V30 10356 C 957.274 2.53691 2.21681 0
M  V30 10357 O 957.804 2.30329 3.29107 0
M  V30 10358 N 956.01 2.14174 1.96412 0
M  V30 10359 H 955.557 2.33374 1.09061 0
M  V30 10360 H 955.515 1.6477 2.67765 0
M  V30 10361 N 959.287 0.325282 1.54207 0
M  V30 10362 C 960.703 -0.0273036 1.59577 0
M  V30 10363 C 960.903 -1.50329 1.34177 0
M  V30 10364 O 959.959 -2.25951 1.12705 0
M  V30 10365 C 961.272 0.392468 2.98128 0
M  V30 10366 C 962.82 0.343269 3.11112 0
M  V30 10367 C 963.295 0.738229 4.52011 0
M  V30 10368 N 964.786 0.691701 4.58006 0
M  V30 10369 C 965.521 0.969479 5.65145 0
M  V30 10370 N 965.017 1.31448 6.80216 0
M  V30 10371 N 966.81 0.894926 5.5493 0
M  V30 10372 H 958.961 1.28692 1.68974 0
M  V30 10373 H 961.224 0.523399 0.790416 0
M  V30 10374 H 960.93 1.42089 3.2172 0
M  V30 10375 H 960.804 -0.241651 3.76425 0
M  V30 10376 H 963.191 -0.675946 2.87254 0
M  V30 10377 H 963.272 1.01235 2.34915 0
M  V30 10378 H 962.916 1.75537 4.76602 0
M  V30 10379 H 962.846 0.0468226 5.26579 0
M  V30 10380 H 965.337 0.436975 3.75365 0
M  V30 10381 H 965.65 1.51177 7.57869 0
M  V30 10382 H 963.995 1.35276 6.81708 0
M  V30 10383 H 967.186 0.624876 4.6391 0
M  V30 10384 H 967.359 1.11476 6.38339 0
M  V30 10385 N 960.765 -1.57509 0.0534917 0
M  V30 10386 C 962.181 -1.56696 -0.303067 0
M  V30 10387 C 962.381 -1.06135 -1.71282 0
M  V30 10388 O 961.437 -0.71899 -2.42047 0
M  V30 10389 C 962.75 -3.00421 -0.129418 0
M  V30 10390 C 964.298 -3.12358 -0.200346 0
M  V30 10391 C 964.773 -4.57967 -0.0551971 0
M  V30 10392 N 966.264 -4.63066 -0.111398 0
M  V30 10393 C 966.999 -5.73395 -0.0232344 0
M  V30 10394 N 966.495 -6.92701 0.11741 0
M  V30 10395 N 968.288 -5.62045 -0.078984 0
M  V30 10396 H 960.439 -1.88696 0.975064 0
M  V30 10397 H 962.702 -0.869072 0.378706 0
M  V30 10398 H 962.408 -3.41456 0.842653 0
M  V30 10399 H 962.282 -3.66563 -0.889476 0
M  V30 10400 H 964.669 -2.71221 -1.16289 0
M  V30 10401 H 964.75 -2.48891 0.590506 0
M  V30 10402 H 964.394 -4.9979 0.904034 0
M  V30 10403 H 964.324 -5.19443 -0.865223 0
M  V30 10404 H 966.815 -3.77263 -0.219256 0
M  V30 10405 H 967.128 -7.72597 0.177326 0
M  V30 10406 H 965.473 -6.94833 0.152526 0
M  V30 10407 H 968.664 -4.67725 -0.187434 0
M  V30 10408 H 968.837 -6.48 -0.00681731 0
M  V30 10409 N 962.243 0.219913 -1.56058 0
M  V30 10410 C 963.175 1.29604 -1.89038 0
M  V30 10411 C 964.188 1.42964 -0.778791 0
M  V30 10412 O 965.377 1.43832 -1.0571 0
M  V30 10413 C 962.477 2.67145 -2.08534 0
M  V30 10414 C 961.65 2.75712 -3.39561 0
M  V30 10415 C 960.709 3.94279 -3.48469 0
M  V30 10416 O 959.735 3.8254 -4.21487 0
M  V30 10417 N 960.937 5.08655 -2.79732 0
M  V30 10418 H 963.702 1.01638 -2.81939 0
M  V30 10419 H 961.263 0.409945 -1.56624 0
M  V30 10420 H 963.255 3.44847 -2.11808 0
M  V30 10421 H 961.825 2.87704 -1.2225 0
M  V30 10422 H 961.045 1.84475 -3.48371 0
M  V30 10423 H 962.333 2.78407 -4.25872 0
M  V30 10424 H 961.731 5.21088 -2.2019 0
M  V30 10425 H 960.288 5.84394 -2.88665 0
M  V30 10426 N 963.721 1.49897 0.486681 0
M  V30 10427 C 964.671 1.6401 1.58381 0
M  V30 10428 C 965.655 0.495215 1.5309 0
M  V30 10429 O 966.847 0.748876 1.60377 0
M  V30 10430 C 963.976 1.72321 2.96918 0
M  V30 10431 C 963.062 2.92435 3.07152 0
M  V30 10432 N 963.453 4.16326 2.87238 0
M  V30 10433 C 961.751 2.90669 3.38271 0
M  V30 10434 C 962.452 4.97144 3.02031 0
M  V30 10435 N 961.428 4.3079 3.31544 0
M  V30 10436 H 965.23 2.57506 1.41661 0
M  V30 10437 H 962.744 1.46867 0.693106 0
M  V30 10438 H 964.741 1.80532 3.75784 0
M  V30 10439 H 963.401 0.799724 3.14697 0
M  V30 10440 H 964.412 4.46076 2.63128 0
M  V30 10441 H 961.089 2.07758 3.62137 0
M  V30 10442 H 962.479 6.05611 2.91006 0
M  V30 10443 N 965.199 -0.738761 1.39212 0
M  V30 10444 C 966.109 -1.88324 1.39897 0
M  V30 10445 C 967.125 -1.71494 0.294229 0
M  V30 10446 O 968.301 -1.94162 0.535087 0
M  V30 10447 C 965.366 -3.23871 1.23726 0
M  V30 10448 C 964.427 -3.53121 2.44139 0
M  V30 10449 C 963.66 -4.82202 2.2873 0
M  V30 10450 O 963.883 -5.55649 1.28879 0
M  V30 10451 O 962.817 -5.11265 3.17634 0
M  V30 10452 H 966.643 -1.90701 2.36362 0
M  V30 10453 H 964.228 -0.886067 1.20288 0
M  V30 10454 H 966.11 -4.04882 1.16826 0
M  V30 10455 H 964.785 -3.22274 0.303551 0
M  V30 10456 H 963.692 -2.72212 2.56615 0
M  V30 10457 H 965.025 -3.59495 3.36191 0
M  V30 10458 N 966.677 -1.24326 -0.968545 0
M  V30 10459 C 967.627 -1.00191 -2.04807 0
M  V30 10460 C 968.611 0.0563524 -1.60801 0
M  V30 10461 O 969.803 -0.157268 -1.763 0
M  V30 10462 C 966.932 -0.607749 -3.37878 0
M  V30 10463 C 966.018 -1.70204 -3.88447 0
M  V30 10464 N 966.409 -2.93463 -4.11962 0
M  V30 10465 C 964.707 -1.57936 -4.171 0
M  V30 10466 C 965.408 -3.64397 -4.5342 0
M  V30 10467 N 964.384 -2.91956 -4.58544 0
M  V30 10468 H 968.186 -1.93786 -2.20962 0
M  V30 10469 H 965.7 -1.1444 -1.15227 0
M  V30 10470 H 967.697 -0.416079 -4.14819 0
M  V30 10471 H 966.357 0.321026 -3.23109 0
M  V30 10472 H 967.368 -3.2965 -3.99438 0
M  V30 10473 H 964.045 -0.718552 -4.1127 0
M  V30 10474 H 965.435 -4.70125 -4.80034 0
M  V30 10475 N 968.156 1.1691 -1.05688 0
M  V30 10476 C 969.402 1.8757 -0.771071 0
M  V30 10477 C 969.735 1.8113 0.700399 0
M  V30 10478 O 969.01 1.22273 1.5126 0
M  V30 10479 C 969.293 3.37392 -1.25851 0
M  V30 10480 C 969.146 3.52556 -2.79329 0
M  V30 10481 C 970.465 4.31585 -0.861512 0
M  V30 10482 H 967.584 0.681089 -0.281579 0
M  V30 10483 H 970.226 1.37453 -1.31174 0
M  V30 10484 H 968.376 3.80204 -0.798563 0
M  V30 10485 H 970.048 3.18725 -3.33485 0
M  V30 10486 H 968.291 2.94668 -3.1836 0
M  V30 10487 H 968.962 4.57748 -3.08498 0
M  V30 10488 H 971.438 3.96642 -1.25756 0
M  V30 10489 H 970.314 5.34939 -1.23012 0
M  V30 10490 H 970.575 4.4148 0.234089 0
M  V30 10491 N 969.634 0.838594 1.33437 0
M  V30 10492 C 970.883 0.430484 1.97053 0
M  V30 10493 C 971.196 -1.01556 1.6717 0
M  V30 10494 O 972.402 -1.52834 2.24397 0
M  V30 10495 C 970.858 0.718828 3.52648 0
M  V30 10496 C 970.466 2.17953 3.91408 0
M  V30 10497 C 972.21 0.377654 4.22817 0
M  V30 10498 C 970.117 2.41194 5.39981 0
M  V30 10499 H 969.047 0.157239 0.737422 0
M  V30 10500 H 971.698 1.02714 1.5206 0
M  V30 10501 H 970.08 0.0518042 3.95966 0
M  V30 10502 H 971.254 2.88701 3.59149 0
M  V30 10503 H 969.569 2.48366 3.34221 0
M  V30 10504 H 972.166 0.528926 5.32077 0
M  V30 10505 H 972.509 -0.679338 4.1072 0
M  V30 10506 H 973.042 0.999899 3.85028 0
M  V30 10507 H 969.781 3.45457 5.57081 0
M  V30 10508 H 969.301 1.75007 5.73701 0
M  V30 10509 H 970.98 2.24334 6.06863 0
M  V30 10510 N 971.112 -1.45937 0.595003 0
M  V30 10511 C 972.062 -2.27491 -0.152331 0
M  V30 10512 C 973.046 -1.36591 -0.850396 0
M  V30 10513 O 974.238 -1.60675 -0.742462 0
M  V30 10514 C 971.367 -3.23203 -1.15735 0
M  V30 10515 C 970.453 -4.2159 -0.46077 0
M  V30 10516 N 970.844 -5.03416 0.490555 0
M  V30 10517 C 969.142 -4.40313 -0.709949 0
M  V30 10518 C 969.843 -5.74714 0.898825 0
M  V30 10519 N 968.819 -5.43046 0.24529 0
M  V30 10520 H 972.621 -2.8815 0.578526 0
M  V30 10521 H 970.135 -1.56936 0.417716 0
M  V30 10522 H 972.132 -3.8035 -1.70704 0
M  V30 10523 H 970.792 -2.64104 -1.8889 0
M  V30 10524 H 971.803 -5.10597 0.866692 0
M  V30 10525 H 968.48 -3.92351 -1.42713 0
M  V30 10526 H 969.87 -6.50487 1.68273 0
M  V30 10527 N 972.59 -0.333456 -1.54032 0
M  V30 10528 C 973.52 0.52051 -2.27625 0
M  V30 10529 C 974.501 1.1111 -1.28797 0
M  V30 10530 O 975.686 1.13438 -1.57625 0
M  V30 10531 C 972.816 1.67663 -3.04149 0
M  V30 10532 C 971.77 1.21487 -4.10396 0
M  V30 10533 C 971.096 2.45872 -4.74817 0
M  V30 10534 C 972.396 0.322603 -5.21303 0
M  V30 10535 H 974.09 -0.0933823 -2.99254 0
M  V30 10536 H 971.636 -0.0463526 -1.43925 0
M  V30 10537 H 973.589 2.28041 -3.54366 0
M  V30 10538 H 972.313 2.31727 -2.30153 0
M  V30 10539 H 970.972 0.633966 -3.61077 0
M  V30 10540 H 970.62 3.0832 -3.97426 0
M  V30 10541 H 970.32 2.15662 -5.46593 0
M  V30 10542 H 971.844 3.06994 -5.27814 0
M  V30 10543 H 973.258 0.832942 -5.67217 0
M  V30 10544 H 971.655 0.112843 -5.99994 0
M  V30 10545 H 972.725 -0.643954 -4.80605 0
M  V30 10546 N 974.068 1.57479 -0.061844 0
M  V30 10547 C 975.001 2.07734 0.94455 0
M  V30 10548 C 975.979 0.980207 1.29733 0
M  V30 10549 O 977.163 1.2529 1.40836 0
M  V30 10550 C 974.29 2.52673 2.25553 0
M  V30 10551 C 973.336 3.73725 2.05503 0
M  V30 10552 S 974.169 5.18886 1.32354 0
M  V30 10553 C 975.325 5.67148 2.64753 0
M  V30 10554 H 975.558 2.92772 0.516888 0
M  V30 10555 H 973.091 1.53663 0.150684 0
M  V30 10556 H 975.049 2.79226 3.00904 0
M  V30 10557 H 973.71 1.67921 2.65445 0
M  V30 10558 H 972.903 4.03125 3.025 0
M  V30 10559 H 972.505 3.47494 1.3829 0
M  V30 10560 H 974.797 5.73385 3.60882 0
M  V30 10561 H 975.74 6.66196 2.39976 0
M  V30 10562 H 976.148 4.94921 2.71502 0
M  V30 10563 N 975.546 -0.211634 1.56173 0
M  V30 10564 C 976.823 -0.959467 1.70451 0
M  V30 10565 C 977.203 -2.02036 0.611942 0
M  V30 10566 O 976.551 -2.25325 -0.37959 0
M  V30 10567 C 976.761 -1.56092 3.12148 0
M  V30 10568 C 978.109 -2.04939 3.71867 0
M  V30 10569 O 979.133 -1.65966 3.15172 0
M  V30 10570 O 977.992 -2.766 4.71333 0
M  V30 10571 H 975.086 -0.448844 0.6946 0
M  V30 10572 H 977.632 -0.202633 1.68486 0
M  V30 10573 H 976.404 -0.79538 3.83131 0
M  V30 10574 H 976.027 -2.38303 3.18273 0
M  V30 10575 N 977.024 -1.50153 -0.478725 0
M  V30 10576 C 978.273 -1.60002 -1.22809 0
M  V30 10577 C 978.586 -0.302277 -1.9325 0
M  V30 10578 O 979.792 -0.279583 -2.70057 0
M  V30 10579 C 978.248 -2.82402 -2.23108 0
M  V30 10580 C 977.856 -4.19023 -1.58505 0
M  V30 10581 C 979.6 -3.01593 -2.98734 0
M  V30 10582 C 977.507 -5.32618 -2.57045 0
M  V30 10583 H 976.437 -0.595822 -0.462073 0
M  V30 10584 H 979.088 -1.76573 -0.499412 0
M  V30 10585 H 977.47 -2.59373 -2.99235 0
M  V30 10586 H 978.644 -4.52277 -0.882187 0
M  V30 10587 H 976.959 -4.05374 -0.951877 0
M  V30 10588 H 979.556 -3.8363 -3.72468 0
M  V30 10589 H 979.899 -2.1302 -3.57671 0
M  V30 10590 H 980.432 -3.24766 -2.29721 0
M  V30 10591 H 977.171 -6.23321 -2.02858 0
M  V30 10592 H 976.691 -5.03792 -3.25505 0
M  V30 10593 H 978.37 -5.62877 -3.19028 0
M  V30 10594 N 978.502 0.731368 -1.39602 0
M  V30 10595 C 979.465 1.8271 -1.38383 0
M  V30 10596 C 980.465 1.58338 -0.280309 0
M  V30 10597 O 981.655 1.65671 -0.538402 0
M  V30 10598 C 978.787 3.20556 -1.16002 0
M  V30 10599 H 979.98 1.85193 -2.35889 0
M  V30 10600 H 977.533 0.935396 -1.2522 0
M  V30 10601 H 978.268 3.23732 -0.191927 0
M  V30 10602 H 978.053 3.39643 -1.9592 0
M  V30 10603 H 979.543 4.00612 -1.17899 0
M  V30 10604 N 979.98 1.24838 0.961938 0
M  V30 10605 C 981.229 1.0855 1.69999 0
M  V30 10606 C 981.542 -0.374645 1.91979 0
M  V30 10607 O 982.748 -0.657822 2.6341 0
M  V30 10608 C 981.204 1.89424 3.06017 0
M  V30 10609 C 980.812 3.39885 2.9186 0
M  V30 10610 C 982.556 1.81684 3.83655 0
M  V30 10611 C 980.463 4.13082 4.23223 0
M  V30 10612 H 979.393 0.402603 0.637516 0
M  V30 10613 H 982.044 1.4897 1.07146 0
M  V30 10614 H 980.426 1.41823 3.69733 0
M  V30 10615 H 981.6 3.95108 2.37121 0
M  V30 10616 H 979.915 3.4864 2.27683 0
M  V30 10617 H 982.512 2.3367 4.80939 0
M  V30 10618 H 982.855 0.783247 4.08865 0
M  V30 10619 H 983.388 2.26997 3.26676 0
M  V30 10620 H 980.127 5.16824 4.03204 0
M  V30 10621 H 979.647 3.62644 4.77755 0
M  V30 10622 H 981.326 4.20397 4.91808 0
M  V30 10623 N 981.458 -1.16348 1.06306 0
M  V30 10624 C 982.707 -1.8622 0.774909 0
M  V30 10625 C 983.02 -1.82598 -0.701245 0
M  V30 10626 O 984.226 -2.48051 -1.10377 0
M  V30 10627 C 982.682 -3.34182 1.33604 0
M  V30 10628 C 982.29 -3.46279 2.84245 0
M  V30 10629 C 984.034 -4.09309 1.12544 0
M  V30 10630 C 981.941 -4.88327 3.33602 0
M  V30 10631 H 980.871 -0.697574 0.286194 0
M  V30 10632 H 983.522 -1.31311 1.28179 0
M  V30 10633 H 981.904 -3.88698 0.756937 0
M  V30 10634 H 983.078 -3.01923 3.48108 0
M  V30 10635 H 981.393 -2.84585 3.03974 0
M  V30 10636 H 983.99 -5.14123 1.46909 0
M  V30 10637 H 984.333 -4.16251 0.0638129 0
M  V30 10638 H 984.866 -3.61032 1.67034 0
M  V30 10639 H 981.605 -4.86565 4.39244 0
M  V30 10640 H 981.125 -5.33307 2.74487 0
M  V30 10641 H 982.804 -5.57144 3.28937 0
M  V30 10642 N 982.937 -0.845659 -1.3299 0
M  V30 10643 C 983.9 -0.288905 -2.27372 0
M  V30 10644 C 984.9 0.546263 -1.51237 0
M  V30 10645 O 986.09 0.359072 -1.70459 0
M  V30 10646 C 983.222 0.59224 -3.35716 0
M  V30 10647 H 984.415 -1.12181 -2.78128 0
M  V30 10648 H 981.968 -0.619276 -1.43508 0
M  V30 10649 H 982.703 1.44732 -2.90212 0
M  V30 10650 H 982.488 -0.00543255 -3.921 0
M  V30 10651 H 983.978 0.974848 -4.06062 0
M  V30 10652 N 984.415 1.45619 -0.602734 0
M  V30 10653 C 985.643 2.06647 -0.102253 0
M  V30 10654 C 986.058 1.4482 1.21131 0
M  V30 10655 O 985.415 0.560621 1.73676 0
M  V30 10656 C 985.466 3.61467 0.0490113 0
M  V30 10657 O 985.187 4.20985 -1.21257 0
M  V30 10658 C 986.688 4.39469 0.581517 0
M  V30 10659 H 983.908 0.667685 -0.0666155 0
M  V30 10660 H 986.452 1.86939 -0.829091 0
M  V30 10661 H 984.607 3.80534 0.726153 0
M  V30 10662 H 985.021 5.14103 -1.03915 0
M  V30 10663 H 986.495 5.48318 0.636462 0
M  V30 10664 H 986.972 4.0891 1.60277 0
M  V30 10665 H 987.578 4.25256 -0.061419 0
M  V30 10666 N 985.893 0.34162 1.53853 0
M  V30 10667 C 987.17 -0.310664 1.93117 0
M  V30 10668 C 987.55 -1.68398 1.273 0
M  V30 10669 O 986.898 -2.24546 0.423225 0
M  V30 10670 C 987.108 -0.384867 3.46871 0
M  V30 10671 C 988.456 -0.636621 4.198 0
M  V30 10672 O 989.48 -0.467061 3.53125 0
M  V30 10673 O 988.339 -0.964962 5.37913 0
M  V30 10674 H 985.433 -0.180881 0.806977 0
M  V30 10675 H 987.979 0.392656 1.65095 0
M  V30 10676 H 986.751 0.57894 3.86994 0
M  V30 10677 H 986.374 -1.13505 3.81054 0
M  V30 10678 N 987.371 -1.57444 0.0701946 0
M  V30 10679 C 988.301 -2.15659 -0.895176 0
M  V30 10680 C 989.282 -1.08321 -1.31151 0
M  V30 10681 O 990.467 -1.36349 -1.38284 0
M  V30 10682 C 987.597 -2.71693 -2.16334 0
M  V30 10683 C 986.551 -3.84183 -1.88645 0
M  V30 10684 C 985.877 -4.26814 -3.22078 0
M  V30 10685 C 987.177 -5.08493 -1.19299 0
M  V30 10686 H 988.871 -2.96576 -0.410217 0
M  V30 10687 H 986.417 -1.42662 -0.195872 0
M  V30 10688 H 988.37 -3.11064 -2.84284 0
M  V30 10689 H 987.094 -1.87994 -2.67069 0
M  V30 10690 H 985.753 -3.45314 -1.23101 0
M  V30 10691 H 985.401 -3.40039 -3.70651 0
M  V30 10692 H 985.101 -5.02642 -3.04344 0
M  V30 10693 H 986.625 -4.68799 -3.91228 0
M  V30 10694 H 988.039 -5.4519 -1.77316 0
M  V30 10695 H 986.436 -5.89588 -1.11828 0
M  V30 10696 H 987.506 -4.84595 -0.171839 0
M  V30 10697 N 988.849 0.203349 -1.56283 0
M  V30 10698 C 989.812 1.23566 -1.93039 0
M  V30 10699 C 990.812 1.38869 -0.810687 0
M  V30 10700 O 992.002 1.36822 -1.07821 0
M  V30 10701 C 989.134 2.60645 -2.1972 0
M  V30 10702 H 990.327 0.921692 -2.85385 0
M  V30 10703 H 987.88 0.44453 -1.49845 0
M  V30 10704 H 988.615 2.9711 -1.29985 0
M  V30 10705 H 988.4 2.50911 -3.01307 0
M  V30 10706 H 989.89 3.35103 -2.4919 0
M  V30 10707 N 990.327 1.50405 0.470755 0
M  V30 10708 C 991.257 1.72222 1.57676 0
M  V30 10709 C 992.238 0.57121 1.60222 0
M  V30 10710 O 993.423 0.810381 1.76484 0
M  V30 10711 C 990.553 1.81666 2.95998 0
M  V30 10712 C 989.507 2.96857 3.08318 0
M  V30 10713 C 988.833 2.91445 4.4829 0
M  V30 10714 C 990.133 4.37361 2.85504 0
M  V30 10715 H 991.827 2.64825 1.39671 0
M  V30 10716 H 989.373 1.27438 0.67049 0
M  V30 10717 H 991.326 1.95514 3.73299 0
M  V30 10718 H 990.05 0.856856 3.1516 0
M  V30 10719 H 988.709 2.82661 2.33449 0
M  V30 10720 H 988.357 1.93309 4.64371 0
M  V30 10721 H 988.057 3.68776 4.57469 0
M  V30 10722 H 989.581 3.07341 5.27611 0
M  V30 10723 H 990.995 4.52081 3.52555 0
M  V30 10724 H 989.392 5.16145 3.06127 0
M  V30 10725 H 990.462 4.49708 1.81359 0
M  V30 10726 N 991.805 -0.723954 1.39988 0
M  V30 10727 C 993.035 -1.51094 1.40905 0
M  V30 10728 C 993.443 -1.89199 0.00476744 0
M  V30 10729 O 992.786 -1.55398 -0.979646 0
M  V30 10730 C 992.848 -2.82114 2.22827 0
M  V30 10731 C 992.512 -2.66379 3.71337 0
M  V30 10732 C 993.509 -2.34192 4.64166 0
M  V30 10733 C 991.194 -2.82905 4.15054 0
M  V30 10734 C 993.188 -2.18729 5.98696 0
M  V30 10735 C 990.875 -2.67059 5.49657 0
M  V30 10736 C 991.873 -2.35018 6.41292 0
M  V30 10737 O 991.561 -2.19284 7.73414 0
M  V30 10738 H 991.293 -0.473142 0.482818 0
M  V30 10739 H 993.847 -0.901321 1.84568 0
M  V30 10740 H 992.077 -3.45377 1.7393 0
M  V30 10741 H 993.766 -3.43789 2.15787 0
M  V30 10742 H 994.532 -2.21065 4.31689 0
M  V30 10743 H 990.411 -3.06834 3.44055 0
M  V30 10744 H 993.955 -1.93641 6.70186 0
M  V30 10745 H 989.852 -2.79768 5.81722 0
M  V30 10746 H 990.62 -2.34269 7.84258 0
M  V30 10747 N 993.283 -1.25346 -0.955304 0
M  V30 10748 C 994.53 -1.10055 -1.69983 0
M  V30 10749 C 994.858 0.358586 -1.91166 0
M  V30 10750 O 994.113 1.28071 -1.47974 0
M  V30 10751 C 994.412 -1.7993 -3.08804 0
M  V30 10752 C 994.078 -3.29851 -3.07424 0
M  V30 10753 C 992.74 -3.7075 -3.06754 0
M  V30 10754 C 995.092 -4.25636 -3.00805 0
M  V30 10755 C 992.42 -5.05847 -2.97214 0
M  V30 10756 C 994.772 -5.60756 -2.92806 0
M  V30 10757 C 993.436 -6.00984 -2.90472 0
M  V30 10758 H 992.706 -0.402718 -0.622012 0
M  V30 10759 H 995.353 -1.5561 -1.11614 0
M  V30 10760 H 993.658 -1.26803 -3.70713 0
M  V30 10761 H 995.355 -1.65551 -3.65231 0
M  V30 10762 H 991.945 -2.97308 -3.08716 0
M  V30 10763 H 996.129 -3.9503 -3.00441 0
M  V30 10764 H 991.385 -5.36196 -2.93775 0
M  V30 10765 H 995.559 -6.34671 -2.86645 0
M  V30 10766 H 993.186 -7.05626 -2.82835 0
M  V30 10767 N 994.761 1.15782 -1.06922 0
M  V30 10768 C 995.708 2.2038 -0.685659 0
M  V30 10769 C 996.678 1.62972 0.320816 0
M  V30 10770 O 997.863 1.8966 0.208258 0
M  V30 10771 C 995.003 3.44995 -0.084998 0
M  V30 10772 C 994.116 4.16621 -1.14242 0
M  V30 10773 C 993.251 5.28773 -0.507226 0
M  V30 10774 C 992.29 5.92209 -1.54774 0
M  V30 10775 N 991.427 6.9584 -0.935443 0
M  V30 10776 H 996.267 2.5254 -1.58201 0
M  V30 10777 H 993.804 1.24031 -0.790864 0
M  V30 10778 H 995.762 4.16254 0.280845 0
M  V30 10779 H 994.392 3.13365 0.774725 0
M  V30 10780 H 993.444 3.43903 -1.62589 0
M  V30 10781 H 994.756 4.59884 -1.93154 0
M  V30 10782 H 993.91 6.06635 -0.0887719 0
M  V30 10783 H 992.649 4.8669 0.313704 0
M  V30 10784 H 991.654 5.13063 -1.97602 0
M  V30 10785 H 992.879 6.3637 -2.37088 0
M  V30 10786 H 990.825 6.5586 -0.135339 0
M  V30 10787 H 990.742 7.37508 -1.66186 0
M  V30 10788 H 992.01 7.77611 -0.542346 0
M  V30 10789 N 996.239 0.8527 1.3254 0
M  V30 10790 C 997.186 0.293905 2.28921 0
M  V30 10791 C 998.156 -0.598027 1.54961 0
M  V30 10792 O 999.341 -0.533355 1.83194 0
M  V30 10793 C 996.481 -0.513361 3.4126 0
M  V30 10794 C 995.594 0.404144 4.30105 0
M  V30 10795 C 994.729 -0.415564 5.29572 0
M  V30 10796 C 993.768 0.499461 6.10059 0
M  V30 10797 N 992.905 -0.282949 7.0153 0
M  V30 10798 H 997.745 1.12107 2.76109 0
M  V30 10799 H 995.282 0.564272 1.35847 0
M  V30 10800 H 997.24 -0.997008 4.05112 0
M  V30 10801 H 995.87 -1.30537 2.95229 0
M  V30 10802 H 994.922 1.00617 3.66852 0
M  V30 10803 H 996.234 1.10648 4.86373 0
M  V30 10804 H 995.388 -0.962458 5.99017 0
M  V30 10805 H 994.127 -1.15127 4.73917 0
M  V30 10806 H 993.132 1.05825 5.39519 0
M  V30 10807 H 994.357 1.23375 6.67799 0
M  V30 10808 H 992.303 -1.00179 6.48306 0
M  V30 10809 H 992.22 0.36039 7.55141 0
M  V30 10810 H 993.488 -0.811632 7.75263 0
M  V30 10811 N 997.718 -1.45297 0.610449 0
M  V30 10812 C 999.134 -1.57225 0.274332 0
M  V30 10813 C 999.334 -1.60136 -1.22306 0
M  V30 10814 O 998.39 -1.5332 -2.00622 0
M  V30 10815 C 999.703 -2.85365 0.948028 0
M  V30 10816 C 1001.25 -2.99044 0.924216 0
M  V30 10817 C 1001.73 -4.29958 1.57798 0
M  V30 10818 N 1003.22 -4.36723 1.5436 0
M  V30 10819 C 1003.95 -5.36695 2.01857 0
M  V30 10820 N 1003.45 -6.43187 2.57453 0
M  V30 10821 N 1005.24 -5.28071 1.92608 0
M  V30 10822 H 997.392 -1.41651 1.58268 0
M  V30 10823 H 999.655 -0.67744 0.663158 0
M  V30 10824 H 999.361 -2.89125 2.00249 0
M  V30 10825 H 999.235 -3.74222 0.473062 0
M  V30 10826 H 1001.62 -2.94849 -0.121709 0
M  V30 10827 H 1001.7 -2.1159 1.43748 0
M  V30 10828 H 1001.35 -4.34912 2.62325 0
M  V30 10829 H 1001.28 -5.16234 1.03972 0
M  V30 10830 H 1003.77 -3.60374 1.13749 0
M  V30 10831 H 1004.08 -7.15722 2.91482 0
M  V30 10832 H 1002.43 -6.4393 2.61493 0
M  V30 10833 H 1005.62 -4.43783 1.48912 0
M  V30 10834 H 1005.79 -6.05832 2.29938 0
M  V30 10835 N 999.196 -0.349774 -1.5367 0
M  V30 10836 C 1000.16 0.491676 -2.23864 0
M  V30 10837 C 1001.16 1.02256 -1.24098 0
M  V30 10838 O 1002.35 0.910816 -1.48492 0
M  V30 10839 C 999.481 1.68557 -2.96313 0
M  V30 10840 H 1000.67 -0.12233 -2.9965 0
M  V30 10841 H 998.227 -0.101214 -1.55972 0
M  V30 10842 H 998.962 2.3381 -2.2473 0
M  V30 10843 H 998.747 1.31203 -3.69497 0
M  V30 10844 H 1000.24 2.28225 -3.49718 0
M  V30 10845 N 1000.67 1.57404 -0.0785433 0
M  V30 10846 C 1001.61 2.08724 0.922464 0
M  V30 10847 C 1002.58 0.993912 1.28686 0
M  V30 10848 O 1003.77 1.26776 1.39499 0
M  V30 10849 C 1000.9 2.55051 2.2286 0
M  V30 10850 C 999.942 3.75884 2.01528 0
M  V30 10851 S 1000.77 5.2026 1.26844 0
M  V30 10852 C 1001.93 5.69924 2.58723 0
M  V30 10853 H 1002.16 2.93304 0.485807 0
M  V30 10854 H 999.697 1.53814 0.134377 0
M  V30 10855 H 1001.65 2.82402 2.97926 0
M  V30 10856 H 1000.32 1.70727 2.63649 0
M  V30 10857 H 999.509 4.06311 2.98207 0
M  V30 10858 H 999.111 3.48941 1.34596 0
M  V30 10859 H 1001.4 5.7718 3.5478 0
M  V30 10860 H 1002.35 6.68704 2.32897 0
M  V30 10861 H 1002.75 4.97773 2.66237 0
M  V30 10862 N 1002.15 -0.195058 1.56388 0
M  V30 10863 C 1003.4 -0.915444 1.80626 0
M  V30 10864 C 1003.73 -1.83255 0.651768 0
M  V30 10865 O 1002.98 -1.92314 -0.362464 0
M  V30 10866 C 1003.28 -1.7637 3.10851 0
M  V30 10867 C 1002.95 -0.997572 4.39726 0
M  V30 10868 C 1001.61 -0.786043 4.74737 0
M  V30 10869 C 1003.96 -0.45851 5.19179 0
M  V30 10870 C 1001.29 -0.023972 5.86695 0
M  V30 10871 C 1003.64 0.29035 6.31933 0
M  V30 10872 C 1002.3 0.512895 6.65527 0
M  V30 10873 H 1001.57 -0.334985 0.660959 0
M  V30 10874 H 1004.22 -0.181815 1.90635 0
M  V30 10875 H 1002.53 -2.566 2.9608 0
M  V30 10876 H 1004.22 -2.3237 3.26811 0
M  V30 10877 H 1000.81 -1.17245 4.12252 0
M  V30 10878 H 1005 -0.609334 4.92545 0
M  V30 10879 H 1000.25 0.158421 6.11195 0
M  V30 10880 H 1004.43 0.715429 6.92715 0
M  V30 10881 H 1002.05 1.10531 7.52122 0
M  V30 10882 N 1003.63 -1.50653 -0.462772 0
M  V30 10883 C 1004.56 -1.66286 -1.5774 0
M  V30 10884 C 1005.57 -0.544094 -1.53439 0
M  V30 10885 O 1006.76 -0.817566 -1.58676 0
M  V30 10886 C 1003.86 -1.63893 -2.96635 0
M  V30 10887 C 1003.04 -2.91939 -3.25716 0
M  V30 10888 C 1002.1 -2.82076 -4.44206 0
M  V30 10889 O 1001.12 -3.56032 -4.44106 0
M  V30 10890 N 1002.32 -1.96196 -5.4634 0
M  V30 10891 H 1005.09 -2.6243 -1.44742 0
M  V30 10892 H 1002.65 -1.48221 -0.651326 0
M  V30 10893 H 1004.64 -1.54897 -3.73884 0
M  V30 10894 H 1003.21 -0.75449 -3.03358 0
M  V30 10895 H 1002.43 -3.14998 -2.37002 0
M  V30 10896 H 1003.72 -3.7675 -3.4196 0
M  V30 10897 H 1003.12 -1.35439 -5.49247 0
M  V30 10898 H 1001.67 -1.93097 -6.2254 0
M  V30 10899 N 1005.11 0.71652 -1.4037 0
M  V30 10900 C 1006.06 1.8306 -1.40562 0
M  V30 10901 C 1007.03 1.64009 -0.262697 0
M  V30 10902 O 1008.21 1.85157 -0.460619 0
M  V30 10903 C 1005.35 3.2076 -1.27307 0
M  V30 10904 C 1004.46 3.51389 -2.51296 0
M  V30 10905 C 1003.6 4.78589 -2.30491 0
M  V30 10906 C 1002.64 5.02119 -3.50061 0
M  V30 10907 N 1001.77 6.20533 -3.28457 0
M  V30 10908 H 1006.61 1.82231 -2.35788 0
M  V30 10909 H 1004.15 0.890198 -1.17106 0
M  V30 10910 H 1006.11 4.00274 -1.17628 0
M  V30 10911 H 1004.74 3.2082 -0.357005 0
M  V30 10912 H 1003.79 2.66436 -2.71507 0
M  V30 10913 H 1005.1 3.64686 -3.40302 0
M  V30 10914 H 1004.26 5.66119 -2.1816 0
M  V30 10915 H 1003 4.67499 -1.38909 0
M  V30 10916 H 1002 4.13044 -3.6287 0
M  V30 10917 H 1003.23 5.15082 -4.42569 0
M  V30 10918 H 1001.17 6.10695 -2.39556 0
M  V30 10919 H 1001.09 6.34502 -4.11027 0
M  V30 10920 H 1002.36 7.10853 -3.19857 0
M  V30 10921 N 1006.59 1.25851 0.948643 0
M  V30 10922 C 1007.84 1.10347 1.68838 0
M  V30 10923 C 1008.15 -0.354262 1.92365 0
M  V30 10924 O 1009.35 -0.629847 2.64093 0
M  V30 10925 C 1007.81 1.92659 3.03991 0
M  V30 10926 C 1007.42 3.42962 2.88238 0
M  V30 10927 C 1009.16 1.85743 3.81707 0
M  V30 10928 C 1007.07 4.17547 4.18818 0
M  V30 10929 H 1006 0.409342 0.63321 0
M  V30 10930 H 1008.65 1.50098 1.05559 0
M  V30 10931 H 1007.03 1.45736 3.68208 0
M  V30 10932 H 1008.21 3.97601 2.32917 0
M  V30 10933 H 1006.52 3.51035 2.23972 0
M  V30 10934 H 1009.12 2.38758 4.78434 0
M  V30 10935 H 1009.46 0.826568 4.08012 0
M  V30 10936 H 1009.99 2.30449 3.2425 0
M  V30 10937 H 1006.73 5.21072 3.97699 0
M  V30 10938 H 1006.25 3.6769 4.73882 0
M  V30 10939 H 1007.93 4.25589 4.87322 0
M  V30 10940 N 1008.06 -1.15214 1.07534 0
M  V30 10941 C 1009.31 -1.86319 0.800814 0
M  V30 10942 C 1009.64 -1.82221 -0.671494 0
M  V30 10943 O 1008.92 -1.24664 -1.49295 0
M  V30 10944 C 1009.2 -3.35347 1.31203 0
M  V30 10945 C 1009.05 -3.48067 2.84902 0
M  V30 10946 C 1010.37 -4.3016 0.930064 0
M  V30 10947 H 1007.49 -0.676523 0.292379 0
M  V30 10948 H 1010.13 -1.35349 1.33344 0
M  V30 10949 H 1008.28 -3.78886 0.858949 0
M  V30 10950 H 1009.96 -3.13379 3.38514 0
M  V30 10951 H 1008.2 -2.89566 3.23008 0
M  V30 10952 H 1008.87 -4.52782 3.15741 0
M  V30 10953 H 1011.35 -3.94591 1.3205 0
M  V30 10954 H 1010.22 -5.32914 1.31507 0
M  V30 10955 H 1010.48 -4.41796 -0.163824 0
M  V30 10956 N 1009.54 -0.859717 -1.32086 0
M  V30 10957 C 1010.82 -0.386665 -1.9174 0
M  V30 10958 C 1011.2 1.13028 -1.78292 0
M  V30 10959 O 1010.55 1.95422 -1.18417 0
M  V30 10960 C 1010.76 -0.856648 -3.38323 0
M  V30 10961 C 1012.11 -0.87678 -4.15449 0
M  V30 10962 O 1013.13 -0.80162 -3.47063 0
M  V30 10963 O 1011.99 -0.98373 -5.37573 0
M  V30 10964 H 1009.08 -0.113758 -0.819139 0
M  V30 10965 H 1011.63 -0.946952 -1.40822 0
M  V30 10966 H 1010.4 -1.89996 -3.42078 0
M  V30 10967 H 1010.02 -0.274095 -3.96654 0
M  V30 10968 N 1011.02 1.44971 -0.618145 0
M  V30 10969 C 1011.93 2.34403 0.0960457 0
M  V30 10970 C 1012.95 1.51862 0.849355 0
M  V30 10971 O 1014.12 1.84632 0.804557 0
M  V30 10972 C 1011.19 3.29646 1.07397 0
M  V30 10973 C 1010.25 4.28095 0.321466 0
M  V30 10974 C 1009.48 5.18787 1.25281 0
M  V30 10975 O 1009.7 5.1313 2.49106 0
M  V30 10976 O 1008.64 5.97282 0.744156 0
M  V30 10977 H 1012.46 2.96898 -0.639176 0
M  V30 10978 H 1010.05 1.44529 -0.37837 0
M  V30 10979 H 1011.93 3.88307 1.63694 0
M  V30 10980 H 1010.61 2.69702 1.79004 0
M  V30 10981 H 1009.51 3.73019 -0.284223 0
M  V30 10982 H 1010.85 4.90923 -0.354315 0
M  V30 10983 N 1012.5 0.357919 1.53482 0
M  V30 10984 C 1013.72 -0.237769 2.06033 0
M  V30 10985 C 1014.15 -1.42292 1.23023 0
M  V30 10986 O 1013.51 -1.79604 0.247427 0
M  V30 10987 C 1013.55 -0.616806 3.55286 0
M  V30 10988 O 1012.66 -1.71503 3.75047 0
M  V30 10989 H 1012 -0.0364322 0.663 0
M  V30 10990 H 1014.53 0.516301 1.97979 0
M  V30 10991 H 1014.54 -0.88996 3.98175 0
M  V30 10992 H 1013.21 0.249825 4.15149 0
M  V30 10993 H 1011.79 -1.43803 3.44057 0
M  V30 10994 N 1013.98 -1.5736 0.0868897 0
M  V30 10995 C 1014.92 -2.13571 -0.874996 0
M  V30 10996 C 1015.89 -1.0521 -1.2853 0
M  V30 10997 O 1017.08 -1.32954 -1.3685 0
M  V30 10998 C 1014.22 -2.71386 -2.13175 0
M  V30 10999 C 1013.33 -3.93953 -1.77272 0
M  V30 11000 C 1012.47 -4.3996 -2.97671 0
M  V30 11001 C 1011.51 -5.55137 -2.57856 0
M  V30 11002 N 1010.64 -5.96034 -3.71064 0
M  V30 11003 H 1015.48 -2.95453 -0.388789 0
M  V30 11004 H 1013.02 -1.45992 -0.180242 0
M  V30 11005 H 1014.98 -3.03022 -2.86764 0
M  V30 11006 H 1013.61 -1.92245 -2.5931 0
M  V30 11007 H 1012.66 -3.68683 -0.936845 0
M  V30 11008 H 1013.97 -4.77565 -1.43989 0
M  V30 11009 H 1013.13 -4.73337 -3.79522 0
M  V30 11010 H 1011.86 -3.55232 -3.34158 0
M  V30 11011 H 1010.87 -5.21397 -1.7443 0
M  V30 11012 H 1012.09 -6.41608 -2.22522 0
M  V30 11013 H 1010.04 -5.14253 -4.07284 0
M  V30 11014 H 1009.96 -6.74423 -3.41599 0
M  V30 11015 H 1011.23 -6.34038 -4.53449 0
M  V30 11016 N 1015.45 0.186762 -1.56489 0
M  V30 11017 C 1016.4 1.25084 -1.96104 0
M  V30 11018 C 1017.4 1.4667 -0.847609 0
M  V30 11019 O 1018.6 1.47432 -1.03266 0
M  V30 11020 H 1014.98 0.420121 -0.623701 0
M  V30 11021 H 1016.95 0.889761 -2.84826 0
M  V30 11022 C 1015.7 2.5863 -2.32392 0
M  V30 11023 H 1015.02 2.42838 -3.176 0
M  V30 11024 H 1016.46 3.3181 -2.63967 0
M  V30 11025 C 1014.92 3.16241 -1.16159 0
M  V30 11026 O 1015.45 3.99272 -0.441034 0
M  V30 11027 N 1013.66 2.75106 -0.936206 0
M  V30 11028 H 1013.2 2.0769 -1.5239 0
M  V30 11029 H 1013.16 3.13991 -0.160317 0
M  V30 11030 N 1016.93 1.50896 0.454776 0
M  V30 11031 C 1018.16 1.66239 1.22671 0
M  V30 11032 C 1018.57 0.351876 1.85899 0
M  V30 11033 O 1017.91 -0.677848 1.70736 0
M  V30 11034 C 1017.98 2.70812 2.36434 0
M  V30 11035 C 1017.64 4.13913 1.93714 0
M  V30 11036 C 1018.64 4.99259 1.45039 0
M  V30 11037 C 1016.32 4.59921 2.01937 0
M  V30 11038 C 1018.32 6.28667 1.05151 0
M  V30 11039 C 1016 5.89329 1.6166 0
M  V30 11040 C 1017 6.73529 1.13347 0
M  V30 11041 O 1016.69 8.0052 0.736354 0
M  V30 11042 H 1016.42 0.561443 0.376508 0
M  V30 11043 H 1018.97 1.97974 0.547325 0
M  V30 11044 H 1017.2 2.34355 3.07595 0
M  V30 11045 H 1018.89 2.7521 2.98353 0
M  V30 11046 H 1019.66 4.64925 1.38095 0
M  V30 11047 H 1015.54 3.94518 2.38488 0
M  V30 11048 H 1019.08 6.94339 0.673711 0
M  V30 11049 H 1014.98 6.23182 1.68269 0
M  V30 11050 H 1015.75 8.1393 0.863759 0
M  V30 11051 N 1018.41 -0.709066 1.40748 0
M  V30 11052 C 1019.34 -1.83412 1.37451 0
M  V30 11053 C 1020.36 -1.60394 0.27884 0
M  V30 11054 O 1021.54 -1.70147 0.539642 0
M  V30 11055 C 1018.64 -3.19935 1.1178 0
M  V30 11056 C 1017.82 -3.70095 2.33128 0
M  V30 11057 C 1016.88 -4.85249 2.03518 0
M  V30 11058 O 1015.9 -4.97563 2.76442 0
M  V30 11059 N 1017.1 -5.7152 1.01714 0
M  V30 11060 H 1019.87 -1.86736 2.34414 0
M  V30 11061 H 1017.43 -0.890863 1.35186 0
M  V30 11062 H 1019.42 -3.94578 0.899464 0
M  V30 11063 H 1017.99 -3.11718 0.234624 0
M  V30 11064 H 1017.21 -2.8651 2.70751 0
M  V30 11065 H 1018.5 -4.00344 3.1401 0
M  V30 11066 H 1017.9 -5.64188 0.413307 0
M  V30 11067 H 1016.46 -6.46119 0.858696 0
M  V30 11068 N 1019.89 -1.26353 -0.941956 0
M  V30 11069 C 1021.17 -1.02601 -1.6653 0
M  V30 11070 C 1021.55 0.44381 -2.06382 0
M  V30 11071 O 1020.89 1.42399 -1.78703 0
M  V30 11072 C 1021.1 -1.97401 -2.87809 0
M  V30 11073 C 1022.45 -2.25967 -3.59478 0
M  V30 11074 O 1023.48 -1.95261 -2.97912 0
M  V30 11075 O 1022.34 -2.78244 -4.70364 0
M  V30 11076 H 1019.43 -0.39007 -0.729228 0
M  V30 11077 H 1021.98 -1.37559 -0.993754 0
M  V30 11078 H 1020.75 -2.9659 -2.55245 0
M  V30 11079 H 1020.37 -1.62918 -3.62689 0
M  V30 11080 N 1021.37 1.14642 -1.08144 0
M  V30 11081 C 1022.31 2.1964 -0.708995 0
M  V30 11082 C 1023.28 1.63303 0.303512 0
M  V30 11083 O 1024.47 1.8987 0.18813 0
M  V30 11084 C 1021.61 3.44886 -0.121585 0
M  V30 11085 C 1020.72 4.15386 -1.18654 0
M  V30 11086 C 1019.86 5.28205 -0.56328 0
M  V30 11087 C 1018.9 5.90534 -1.61046 0
M  V30 11088 N 1018.03 6.94809 -1.00919 0
M  V30 11089 H 1022.87 2.50848 -1.6087 0
M  V30 11090 H 1020.41 1.23185 -0.803975 0
M  V30 11091 H 1022.37 4.16528 0.23668 0
M  V30 11092 H 1021 3.14169 0.741445 0
M  V30 11093 H 1020.05 3.42159 -1.66227 0
M  V30 11094 H 1021.36 4.57809 -1.9802 0
M  V30 11095 H 1020.52 6.06507 -0.153109 0
M  V30 11096 H 1019.26 4.86995 0.262066 0
M  V30 11097 H 1018.26 5.10938 -2.03033 0
M  V30 11098 H 1019.49 6.33819 -2.43824 0
M  V30 11099 H 1017.43 6.5568 -0.204894 0
M  V30 11100 H 1017.35 7.35704 -1.73999 0
M  V30 11101 H 1018.62 7.76992 -0.624792 0
M  V30 11102 N 1022.85 0.866709 1.31628 0
M  V30 11103 C 1023.79 0.318169 2.28596 0
M  V30 11104 C 1024.76 -0.581558 1.55586 0
M  V30 11105 O 1025.95 -0.513895 1.83749 0
M  V30 11106 C 1023.09 -0.477137 3.41786 0
M  V30 11107 C 1022.2 0.449739 4.29653 0
M  V30 11108 C 1021.34 -0.359373 5.29983 0
M  V30 11109 C 1020.37 0.564138 6.09495 0
M  V30 11110 N 1019.51 -0.208526 7.0179 0
M  V30 11111 H 1024.35 1.15029 2.74904 0
M  V30 11112 H 1021.89 0.578649 1.35241 0
M  V30 11113 H 1023.85 -0.953985 4.06146 0
M  V30 11114 H 1022.48 -1.27398 2.96597 0
M  V30 11115 H 1021.53 1.04502 3.65764 0
M  V30 11116 H 1022.84 1.158 4.85172 0
M  V30 11117 H 1021.99 -0.89887 6.00004 0
M  V30 11118 H 1020.73 -1.10094 4.75111 0
M  V30 11119 H 1019.74 1.11542 5.38366 0
M  V30 11120 H 1020.96 1.30451 6.66453 0
M  V30 11121 H 1018.91 -0.932969 6.49332 0
M  V30 11122 H 1018.83 0.440463 7.54716 0
M  V30 11123 H 1020.09 -0.72936 7.7608 0
M  V30 11124 N 1024.32 -1.44642 0.625825 0
M  V30 11125 C 1025.55 -2.06971 0.133373 0
M  V30 11126 C 1025.97 -1.46421 -1.18078 0
M  V30 11127 O 1025.33 -0.563676 -1.72315 0
M  V30 11128 C 1025.38 -3.6059 0.0265097 0
M  V30 11129 O 1024.48 -3.99615 -1.01889 0
M  V30 11130 H 1023.82 -0.658873 0.0823568 0
M  V30 11131 H 1026.35 -1.85601 0.861002 0
M  V30 11132 H 1026.36 -4.07663 -0.1658 0
M  V30 11133 H 1025.04 -4.04043 0.985986 0
M  V30 11134 H 1023.62 -3.64183 -0.801577 0
M  V30 11135 N 1025.8 -0.366053 -1.5329 0
M  V30 11136 C 1027.05 0.216398 -2.02246 0
M  V30 11137 C 1027.4 1.46384 -1.24858 0
M  V30 11138 O 1026.7 1.88667 -0.333977 0
M  V30 11139 C 1026.89 0.560906 -3.52971 0
M  V30 11140 C 1026.72 -0.651598 -4.44954 0
M  V30 11141 C 1025.49 -1.16381 -4.91715 0
M  V30 11142 C 1027.69 -1.51695 -4.91419 0
M  V30 11143 N 1025.67 -2.33629 -5.67706 0
M  V30 11144 C 1027.04 -2.53608 -5.65759 0
M  V30 11145 C 1029.09 -1.53977 -4.73493 0
M  V30 11146 C 1027.8 -3.57661 -6.24076 0
M  V30 11147 C 1029.82 -2.56923 -5.32677 0
M  V30 11148 C 1029.19 -3.5756 -6.06902 0
M  V30 11149 H 1025.28 0.0418889 -0.780877 0
M  V30 11150 H 1027.87 -0.510704 -1.87883 0
M  V30 11151 H 1026.04 1.25708 -3.67494 0
M  V30 11152 H 1027.77 1.12849 -3.88648 0
M  V30 11153 H 1024.53 -0.728374 -4.67965 0
M  V30 11154 H 1024.95 -2.92891 -6.10364 0
M  V30 11155 H 1029.59 -0.775265 -4.15631 0
M  V30 11156 H 1027.31 -4.34993 -6.81034 0
M  V30 11157 H 1030.9 -2.59544 -5.207 0
M  V30 11158 H 1029.78 -4.35912 -6.51882 0
M  V30 11159 N 1027.28 1.57312 -0.0952337 0
M  V30 11160 C 1028.53 1.94646 0.569284 0
M  V30 11161 C 1028.86 0.977152 1.67825 0
M  V30 11162 O 1028.13 0.0102318 1.94497 0
M  V30 11163 C 1028.42 3.42098 1.12433 0
M  V30 11164 C 1028.27 4.49795 0.0204016 0
M  V30 11165 C 1029.59 3.90866 2.02266 0
M  V30 11166 H 1026.71 0.707779 0.205469 0
M  V30 11167 H 1029.35 1.89274 -0.16597 0
M  V30 11168 H 1027.5 3.46807 1.75092 0
M  V30 11169 H 1029.17 4.57198 -0.613845 0
M  V30 11170 H 1027.41 4.28964 -0.645965 0
M  V30 11171 H 1028.09 5.50166 0.449579 0
M  V30 11172 H 1030.56 3.88311 1.49512 0
M  V30 11173 H 1029.44 4.94604 2.38029 0
M  V30 11174 H 1029.7 3.30167 2.9401 0
M  V30 11175 N 1028.76 -0.17846 1.56586 0
M  V30 11176 C 1029.67 -1.24115 1.9908 0
M  V30 11177 C 1030.68 -1.48854 0.901031 0
M  V30 11178 O 1031.86 -1.61142 1.2081 0
M  V30 11179 C 1028.92 -2.56187 2.33601 0
M  V30 11180 C 1027.99 -2.39373 3.56369 0
M  V30 11181 C 1027.22 -3.65147 3.89234 0
M  V30 11182 O 1027.44 -4.70024 3.23162 0
M  V30 11183 O 1026.38 -3.59683 4.82609 0
M  V30 11184 H 1030.2 -0.910482 2.89731 0
M  V30 11185 H 1027.79 -0.38477 1.4436 0
M  V30 11186 H 1029.67 -3.34109 2.56806 0
M  V30 11187 H 1028.34 -2.88847 1.46113 0
M  V30 11188 H 1027.25 -1.59506 3.38391 0
M  V30 11189 H 1028.58 -2.1164 4.44375 0
M  V30 11190 N 1030.24 -1.51135 -0.446768 0
M  V30 11191 C 1031.47 -1.66887 -1.21788 0
M  V30 11192 C 1031.87 -0.361729 -1.8571 0
M  V30 11193 O 1031.22 0.668784 -1.71093 0
M  V30 11194 C 1031.28 -2.72062 -2.34994 0
M  V30 11195 C 1030.94 -4.14935 -1.91516 0
M  V30 11196 C 1031.94 -5.00021 -1.42389 0
M  V30 11197 C 1029.62 -4.60985 -1.99495 0
M  V30 11198 C 1031.62 -6.29216 -1.01816 0
M  V30 11199 C 1029.31 -5.90179 -1.58532 0
M  V30 11200 C 1030.3 -6.74121 -1.09774 0
M  V30 11201 O 1029.99 -8.009 -0.69389 0
M  V30 11202 H 1029.72 -0.563431 -0.373525 0
M  V30 11203 H 1032.28 -1.98261 -0.536818 0
M  V30 11204 H 1030.51 -2.35983 -3.06348 0
M  V30 11205 H 1032.2 -2.76788 -2.96889 0
M  V30 11206 H 1032.96 -4.6565 -1.35627 0
M  V30 11207 H 1028.84 -3.95777 -2.36393 0
M  V30 11208 H 1032.39 -6.94687 -0.636879 0
M  V30 11209 H 1028.28 -6.24066 -1.64962 0
M  V30 11210 H 1029.05 -8.14376 -0.820582 0
M  V30 11211 N 1031.71 0.701592 -1.41122 0
M  V30 11212 C 1032.64 1.82815 -1.45262 0
M  V30 11213 C 1033.62 1.67215 -0.311939 0
M  V30 11214 O 1034.81 1.87038 -0.522538 0
M  V30 11215 C 1031.94 3.20899 -1.32819 0
M  V30 11216 C 1030.89 3.51194 -2.44636 0
M  V30 11217 C 1030.22 4.8857 -2.17263 0
M  V30 11218 C 1031.52 3.50777 -3.86979 0
M  V30 11219 H 1033.21 1.79608 -2.39544 0
M  V30 11220 H 1030.76 0.862693 -1.15298 0
M  V30 11221 H 1032.71 3.99417 -1.34329 0
M  V30 11222 H 1031.44 3.24717 -0.350191 0
M  V30 11223 H 1030.1 2.75024 -2.42399 0
M  V30 11224 H 1029.74 4.89007 -1.17819 0
M  V30 11225 H 1029.44 5.09805 -2.92186 0
M  V30 11226 H 1030.97 5.69405 -2.20478 0
M  V30 11227 H 1032.38 4.19309 -3.90964 0
M  V30 11228 H 1030.78 3.83542 -4.61536 0
M  V30 11229 H 1031.85 2.49873 -4.15562 0
M  V30 11230 N 1033.19 1.2685 0.935242 0
M  V30 11231 C 1034.42 1.15645 1.72165 0
M  V30 11232 C 1034.84 -0.283909 1.85945 0
M  V30 11233 O 1034.2 -1.20567 1.354 0
M  V30 11234 C 1034.25 1.83689 3.10307 0
M  V30 11235 O 1033.35 1.12972 3.96625 0
M  V30 11236 H 1032.69 0.402629 0.528002 0
M  V30 11237 H 1035.22 1.67781 1.17093 0
M  V30 11238 H 1035.23 1.90749 3.60664 0
M  V30 11239 H 1033.91 2.88472 2.99595 0
M  V30 11240 H 1032.48 1.13929 3.5507 0
M  V30 11241 N 1034.67 -1.14067 1.0875 0
M  V30 11242 C 1035.6 -2.21385 0.74236 0
M  V30 11243 C 1036.58 -1.67833 -0.276805 0
M  V30 11244 O 1037.77 -1.93647 -0.1464 0
M  V30 11245 C 1034.9 -3.46956 0.154644 0
M  V30 11246 C 1033.85 -4.13555 1.10255 0
M  V30 11247 C 1033.18 -5.3337 0.376877 0
M  V30 11248 C 1034.48 -4.6169 2.44213 0
M  V30 11249 H 1036.17 -2.50512 1.63964 0
M  V30 11250 H 1033.72 -1.20408 0.789807 0
M  V30 11251 H 1035.67 -4.21284 -0.0988419 0
M  V30 11252 H 1034.39 -3.17203 -0.777789 0
M  V30 11253 H 1033.05 -3.41186 1.34119 0
M  V30 11254 H 1032.7 -4.99879 -0.559472 0
M  V30 11255 H 1032.4 -5.78875 1.00884 0
M  V30 11256 H 1033.92 -6.10458 0.131527 0
M  V30 11257 H 1035.34 -5.27475 2.24595 0
M  V30 11258 H 1033.74 -5.17909 3.03134 0
M  V30 11259 H 1034.81 -3.76574 3.05483 0
M  V30 11260 N 1036.15 -0.873678 -1.31166 0
M  V30 11261 C 1037.06 -0.335726 -2.32185 0
M  V30 11262 C 1038.07 0.556259 -1.64869 0
M  V30 11263 O 1039.25 0.452087 -1.9626 0
M  V30 11264 C 1036.32 0.450822 -3.43756 0
M  V30 11265 C 1035.38 -0.469565 -4.26724 0
M  V30 11266 C 1034.61 0.279538 -5.32967 0
M  V30 11267 O 1034.83 1.50715 -5.50128 0
M  V30 11268 O 1033.77 -0.36452 -6.00795 0
M  V30 11269 H 1037.59 -1.17314 -2.80127 0
M  V30 11270 H 1035.18 -0.637163 -1.35132 0
M  V30 11271 H 1037.06 0.896582 -4.11752 0
M  V30 11272 H 1035.73 1.26472 -2.9797 0
M  V30 11273 H 1034.64 -0.963902 -3.61469 0
M  V30 11274 H 1035.97 -1.24916 -4.76085 0
M  V30 11275 N 1037.63 1.44308 -0.633487 0
M  V30 11276 C 1038.85 2.06384 -0.146063 0
M  V30 11277 C 1039.27 1.47357 1.18031 0
M  V30 11278 O 1038.63 0.597334 1.72448 0
M  V30 11279 C 1038.68 3.61489 -0.0276722 0
M  V30 11280 O 1038.4 4.18318 -1.3016 0
M  V30 11281 C 1039.9 4.40604 0.488168 0
M  V30 11282 H 1037.12 0.666122 -0.0807632 0
M  V30 11283 H 1039.66 1.85139 -0.868557 0
M  V30 11284 H 1037.82 3.81988 0.645273 0
M  V30 11285 H 1038.23 5.11783 -1.14797 0
M  V30 11286 H 1039.71 5.49545 0.520013 0
M  V30 11287 H 1040.18 4.12218 1.51568 0
M  V30 11288 H 1040.79 4.2503 -0.151608 0
M  V30 11289 N 1039.1 0.374177 1.53094 0
M  V30 11290 C 1040.33 -0.213325 2.05797 0
M  V30 11291 C 1040.75 -1.41753 1.24706 0
M  V30 11292 O 1040.1 -1.80183 0.289868 0
M  V30 11293 C 1040.16 -0.598367 3.56513 0
M  V30 11294 O 1039.88 0.557983 4.34532 0
M  V30 11295 C 1041.38 -1.24334 4.25507 0
M  V30 11296 H 1038.6 -0.0357398 0.670048 0
M  V30 11297 H 1041.14 0.535035 1.97377 0
M  V30 11298 H 1039.3 -1.29663 3.65056 0
M  V30 11299 H 1039.71 0.244911 5.23928 0
M  V30 11300 H 1041.18 -1.46325 5.32253 0
M  V30 11301 H 1041.66 -2.20622 3.79766 0
M  V30 11302 H 1042.27 -0.586269 4.2124 0
M  V30 11303 N 1040.58 -1.57259 0.103575 0
M  V30 11304 C 1042 -1.57581 -0.253062 0
M  V30 11305 C 1042.2 -1.11531 -1.67819 0
M  V30 11306 O 1041.25 -0.795632 -2.39637 0
M  V30 11307 C 1042.57 -3.00681 -0.0337753 0
M  V30 11308 C 1044.12 -3.12837 -0.10087 0
M  V30 11309 C 1044.59 -4.57911 0.0905295 0
M  V30 11310 N 1046.08 -4.63186 0.0359789 0
M  V30 11311 C 1046.82 -5.73179 0.159199 0
M  V30 11312 N 1046.31 -6.91976 0.337728 0
M  V30 11313 N 1048.11 -5.62011 0.0998662 0
M  V30 11314 H 1040.26 -1.85499 1.0346 0
M  V30 11315 H 1042.52 -0.856584 0.406163 0
M  V30 11316 H 1042.23 -3.38602 0.950858 0
M  V30 11317 H 1042.1 -3.69207 -0.772406 0
M  V30 11318 H 1044.49 -2.74783 -1.07601 0
M  V30 11319 H 1044.57 -2.46886 0.66939 0
M  V30 11320 H 1044.21 -4.9666 1.06258 0
M  V30 11321 H 1044.14 -5.21933 -0.699528 0
M  V30 11322 H 1046.63 -3.7777 -0.099121 0
M  V30 11323 H 1046.95 -7.71641 0.423032 0
M  V30 11324 H 1045.29 -6.93996 0.373504 0
M  V30 11325 H 1048.48 -4.68084 -0.0385356 0
M  V30 11326 H 1048.65 -6.47693 0.199342 0
M  V30 11327 N 1042.06 0.170153 -1.56679 0
M  V30 11328 C 1043.01 1.21064 -1.965 0
M  V30 11329 C 1043.98 1.43928 -0.829092 0
M  V30 11330 O 1045.16 1.56649 -1.08931 0
M  V30 11331 C 1042.3 2.54468 -2.33109 0
M  V30 11332 C 1041.42 2.38974 -3.59883 0
M  V30 11333 C 1040.55 3.65252 -3.857 0
M  V30 11334 C 1039.59 3.44696 -5.05817 0
M  V30 11335 N 1038.73 4.63047 -5.27761 0
M  V30 11336 H 1043.57 0.864055 -2.85198 0
M  V30 11337 H 1041.1 0.415243 -1.41117 0
M  V30 11338 H 1043.06 3.32222 -2.52358 0
M  V30 11339 H 1041.69 2.8712 -1.4752 0
M  V30 11340 H 1040.74 1.5239 -3.48542 0
M  V30 11341 H 1042.06 2.19731 -4.47794 0
M  V30 11342 H 1041.21 4.51441 -4.05322 0
M  V30 11343 H 1039.95 3.87475 -2.96166 0
M  V30 11344 H 1038.95 2.56893 -4.86092 0
M  V30 11345 H 1040.18 3.23894 -5.96883 0
M  V30 11346 H 1038.12 4.85487 -4.41179 0
M  V30 11347 H 1038.04 4.46722 -6.09898 0
M  V30 11348 H 1039.31 5.50516 -5.51863 0
M  V30 11349 N 1043.54 1.5137 0.438746 0
M  V30 11350 C 1044.45 1.75424 1.55768 0
M  V30 11351 C 1045.46 0.638409 1.61865 0
M  V30 11352 O 1046.64 0.9205 1.79133 0
M  V30 11353 C 1043.71 1.87288 2.9176 0
M  V30 11354 C 1042.77 3.11137 2.95791 0
M  V30 11355 C 1042 3.22425 4.25297 0
M  V30 11356 O 1042.22 2.39688 5.17596 0
M  V30 11357 O 1041.16 4.15393 4.35583 0
M  V30 11358 H 1044.98 2.70339 1.38386 0
M  V30 11359 H 1042.57 1.35854 0.621609 0
M  V30 11360 H 1044.45 1.97085 3.72472 0
M  V30 11361 H 1043.12 0.955599 3.09273 0
M  V30 11362 H 1042.03 3.06819 2.1404 0
M  V30 11363 H 1043.36 4.02549 2.83223 0
M  V30 11364 N 1045.02 -0.694098 1.41492 0
M  V30 11365 C 1046.27 -1.4498 1.40227 0
M  V30 11366 C 1046.58 -1.95594 0.0151253 0
M  V30 11367 O 1047.78 -2.71234 -0.120146 0
M  V30 11368 C 1046.24 -2.62171 2.46565 0
M  V30 11369 C 1045.85 -2.18337 3.91194 0
M  V30 11370 C 1047.59 -3.39796 2.54439 0
M  V30 11371 C 1045.5 -3.32495 4.89082 0
M  V30 11372 H 1044.43 -0.544584 0.521483 0
M  V30 11373 H 1047.08 -0.75337 1.67322 0
M  V30 11374 H 1045.46 -3.34089 2.12604 0
M  V30 11375 H 1046.64 -1.53698 4.34412 0
M  V30 11376 H 1044.95 -1.53702 3.86994 0
M  V30 11377 H 1047.55 -4.2478 3.24755 0
M  V30 11378 H 1047.89 -3.85082 1.5817 0
M  V30 11379 H 1048.42 -2.74935 2.87499 0
M  V30 11380 H 1045.16 -2.92219 5.86761 0
M  V30 11381 H 1044.68 -3.95978 4.50512 0
M  V30 11382 H 1046.36 -3.98251 5.09907 0
M  V30 11383 N 1046.49 -1.27344 -0.928501 0
M  V30 11384 C 1047.74 -1.13804 -1.67859 0
M  V30 11385 C 1048.07 0.31555 -1.91619 0
M  V30 11386 O 1047.35 1.23087 -1.50599 0
M  V30 11387 C 1047.63 -1.9213 -3.04562 0
M  V30 11388 C 1047.48 -3.45468 -2.88048 0
M  V30 11389 C 1048.8 -1.72513 -4.04879 0
M  V30 11390 H 1045.92 -0.414796 -0.609191 0
M  V30 11391 H 1048.56 -1.5649 -1.07753 0
M  V30 11392 H 1046.71 -1.55853 -3.55868 0
M  V30 11393 H 1048.39 -3.9157 -2.43865 0
M  V30 11394 H 1046.63 -3.71849 -2.23407 0
M  V30 11395 H 1047.3 -3.95515 -3.85061 0
M  V30 11396 H 1049.78 -2.04143 -3.62581 0
M  V30 11397 H 1048.65 -2.29713 -4.98521 0
M  V30 11398 H 1048.91 -0.672856 -4.3695 0
M  V30 11399 N 1047.97 1.13488 -1.09353 0
M  V30 11400 C 1048.91 2.17951 -0.67622 0
M  V30 11401 C 1049.88 1.59482 0.316906 0
M  V30 11402 O 1051.07 1.8723 0.218459 0
M  V30 11403 C 1048.19 3.387 0.00391024 0
M  V30 11404 C 1047.24 4.15764 -0.950906 0
M  V30 11405 S 1048.07 4.75517 -2.46259 0
M  V30 11406 C 1049.23 5.99613 -1.79485 0
M  V30 11407 H 1049.46 2.53012 -1.56115 0
M  V30 11408 H 1047 1.24773 -0.909447 0
M  V30 11409 H 1048.95 4.08643 0.39002 0
M  V30 11410 H 1047.61 3.01941 0.86548 0
M  V30 11411 H 1046.81 5.02229 -0.422086 0
M  V30 11412 H 1046.41 3.51473 -1.27838 0
M  V30 11413 H 1048.7 6.68204 -1.11846 0
M  V30 11414 H 1049.64 6.57102 -2.63862 0
M  V30 11415 H 1050.05 5.50165 -1.26409 0
M  V30 11416 N 1049.45 0.880621 1.30701 0
M  V30 11417 C 1050.41 0.349087 2.26526 0
M  V30 11418 C 1051.41 -0.505973 1.52632 0
M  V30 11419 O 1052.6 -0.313751 1.71351 0
M  V30 11420 C 1049.74 -0.503023 3.37168 0
M  V30 11421 H 1050.93 1.19516 2.75056 0
M  V30 11422 H 1048.48 0.657107 1.41816 0
M  V30 11423 H 1049.22 -1.36986 2.93948 0
M  V30 11424 H 1049 0.109389 3.91947 0
M  V30 11425 H 1050.49 -0.866845 4.08504 0
M  V30 11426 N 1050.93 -1.4397 0.641131 0
M  V30 11427 C 1051.86 -2.27948 -0.10731 0
M  V30 11428 C 1052.84 -1.39124 -0.841615 0
M  V30 11429 O 1054.02 -1.68566 -0.843662 0
M  V30 11430 C 1051.15 -3.18277 -1.15835 0
M  V30 11431 C 1050.2 -4.23276 -0.52345 0
M  V30 11432 S 1051.03 -5.30984 0.693969 0
M  V30 11433 C 1052.19 -6.24882 -0.356831 0
M  V30 11434 H 1052.42 -2.91077 0.605083 0
M  V30 11435 H 1049.95 -1.48303 0.429598 0
M  V30 11436 H 1051.91 -3.70867 -1.75977 0
M  V30 11437 H 1050.57 -2.54348 -1.84299 0
M  V30 11438 H 1049.76 -4.86533 -1.31536 0
M  V30 11439 H 1049.37 -3.74 0.00358355 0
M  V30 11440 H 1051.66 -6.66305 -1.22653 0
M  V30 11441 H 1052.6 -7.07692 0.240412 0
M  V30 11442 H 1053.01 -5.60301 -0.687217 0
M  V30 11443 N 1052.41 -0.382291 -1.52893 0
M  V30 11444 C 1053.34 0.500194 -2.22651 0
M  V30 11445 C 1054.32 1.06969 -1.22459 0
M  V30 11446 O 1055.5 1.12267 -1.51422 0
M  V30 11447 C 1052.63 1.6917 -2.93427 0
M  V30 11448 C 1051.68 1.24811 -4.07829 0
M  V30 11449 S 1052.51 0.235466 -5.34982 0
M  V30 11450 C 1053.66 1.43292 -6.09277 0
M  V30 11451 H 1053.9 -0.0921913 -2.97157 0
M  V30 11452 H 1051.43 -0.16645 -1.535 0
M  V30 11453 H 1053.39 2.37507 -3.34815 0
M  V30 11454 H 1052.05 2.25537 -2.18613 0
M  V30 11455 H 1051.24 2.13754 -4.56426 0
M  V30 11456 H 1050.84 0.643744 -3.68418 0
M  V30 11457 H 1053.14 2.36118 -6.35023 0
M  V30 11458 H 1054.08 0.988003 -7.01173 0
M  V30 11459 H 1054.49 1.64655 -5.39953 0
M  V30 11460 N 1053.89 1.57202 -0.111913 0
M  V30 11461 C 1054.82 2.10634 0.877983 0
M  V30 11462 C 1055.8 1.02098 1.26549 0
M  V30 11463 O 1056.98 1.29707 1.36779 0
M  V30 11464 C 1054.11 2.59721 2.174 0
M  V30 11465 C 1053.15 3.80074 1.93509 0
M  V30 11466 S 1053.99 5.22834 1.1578 0
M  V30 11467 C 1055.14 5.75284 2.46576 0
M  V30 11468 H 1055.38 2.94268 0.423483 0
M  V30 11469 H 1052.91 1.54065 0.101721 0
M  V30 11470 H 1054.87 2.88657 2.91868 0
M  V30 11471 H 1053.53 1.76281 2.59969 0
M  V30 11472 H 1052.72 4.12545 2.89522 0
M  V30 11473 H 1052.32 3.51718 1.27164 0
M  V30 11474 H 1054.61 5.84576 3.42457 0
M  V30 11475 H 1055.56 6.73493 2.1866 0
M  V30 11476 H 1055.97 5.03308 2.55619 0
M  V30 11477 N 1055.36 -0.161842 1.56767 0
M  V30 11478 C 1056.59 -0.892247 1.86672 0
M  V30 11479 C 1057.01 -1.75407 0.69841 0
M  V30 11480 O 1056.36 -1.7945 -0.332251 0
M  V30 11481 C 1056.41 -1.7612 3.15696 0
M  V30 11482 O 1056.14 -0.934131 4.28025 0
M  V30 11483 C 1057.64 -2.60046 3.59014 0
M  V30 11484 H 1054.86 -0.258747 0.619105 0
M  V30 11485 H 1057.4 -0.159089 2.0388 0
M  V30 11486 H 1055.56 -2.44759 3.00286 0
M  V30 11487 H 1055.97 -1.52931 5.01709 0
M  V30 11488 H 1057.44 -3.16618 4.5217 0
M  V30 11489 H 1057.92 -3.35374 2.83586 0
M  V30 11490 H 1058.53 -1.96724 3.77067 0
M  V30 11491 N 1056.84 -1.516 -0.430713 0
M  V30 11492 C 1057.8 -1.72794 -1.50582 0
M  V30 11493 C 1058.8 -0.597903 -1.49271 0
M  V30 11494 O 1059.99 -0.865535 -1.51176 0
M  V30 11495 C 1057.13 -1.79049 -2.90093 0
M  V30 11496 H 1058.32 -2.68751 -1.33091 0
M  V30 11497 H 1055.87 -1.4169 -0.659822 0
M  V30 11498 H 1056.61 -0.849309 -3.12981 0
M  V30 11499 H 1056.39 -2.61181 -2.92449 0
M  V30 11500 H 1057.88 -1.97262 -3.68072 0
M  V30 11501 N 1058.32 0.686584 -1.41858 0
M  V30 11502 C 1059.56 1.45879 -1.43173 0
M  V30 11503 C 1059.92 1.91953 -0.0423059 0
M  V30 11504 O 1061.12 2.68709 0.069783 0
M  V30 11505 C 1059.4 2.63196 -2.41791 0
M  V30 11506 S 1060.95 3.52212 -2.6171 0
M  V30 11507 H 1057.77 0.498391 -0.507077 0
M  V30 11508 H 1060.37 0.800313 -1.78368 0
M  V30 11509 H 1059.08 2.27566 -3.41529 0
M  V30 11510 H 1058.61 3.33928 -2.0798 0
M  V30 11511 H 1060.62 4.58744 -1.89125 0
M  V30 11512 N 1059.8 1.27835 0.921735 0
M  V30 11513 C 1061.07 1.05238 1.64877 0
M  V30 11514 C 1061.45 -0.410921 2.07062 0
M  V30 11515 O 1060.8 -1.39538 1.80946 0
M  V30 11516 C 1061.01 2.01955 2.84632 0
M  V30 11517 C 1062.36 2.31657 3.55837 0
M  V30 11518 O 1063.38 1.99975 2.94768 0
M  V30 11519 O 1062.24 2.85692 4.65878 0
M  V30 11520 H 1059.34 0.401622 0.72293 0
M  V30 11521 H 1061.88 1.39123 0.971744 0
M  V30 11522 H 1060.66 3.00614 2.50494 0
M  V30 11523 H 1060.28 1.68667 3.60052 0
M  V30 11524 N 1061.28 -1.12907 1.09954 0
M  V30 11525 C 1062.21 -2.20585 0.765799 0
M  V30 11526 C 1063.19 -1.68117 -0.258989 0
M  V30 11527 O 1064.37 -1.93792 -0.125853 0
M  V30 11528 C 1061.5 -3.46772 0.191435 0
M  V30 11529 C 1060.46 -4.12363 1.14635 0
M  V30 11530 C 1059.78 -5.3294 0.433426 0
M  V30 11531 C 1061.08 -4.59073 2.49096 0
M  V30 11532 H 1062.78 -2.48759 1.66612 0
M  V30 11533 H 1060.32 -1.19563 0.802534 0
M  V30 11534 H 1062.27 -4.21365 -0.0541535 0
M  V30 11535 H 1061 -3.18011 -0.744101 0
M  V30 11536 H 1059.66 -3.39744 1.37731 0
M  V30 11537 H 1059.31 -5.00444 -0.506422 0
M  V30 11538 H 1059.01 -5.77772 1.07018 0
M  V30 11539 H 1060.53 -6.10284 0.196267 0
M  V30 11540 H 1061.94 -5.25063 2.30177 0
M  V30 11541 H 1060.34 -5.14665 3.0861 0
M  V30 11542 H 1061.41 -3.73313 3.0946 0
M  V30 11543 N 1062.75 -0.88754 -1.30232 0
M  V30 11544 C 1063.98 -0.521562 -2.00735 0
M  V30 11545 C 1064.4 0.883247 -1.66073 0
M  V30 11546 O 1063.76 1.58581 -0.878731 0
M  V30 11547 C 1063.81 -0.706521 -3.53611 0
M  V30 11548 O 1062.91 0.246447 -4.11663 0
M  V30 11549 H 1062.25 -0.205216 -0.631492 0
M  V30 11550 H 1064.78 -1.19579 -1.66018 0
M  V30 11551 H 1064.79 -0.606501 -4.03467 0
M  V30 11552 H 1063.47 -1.73076 -3.78177 0
M  V30 11553 H 1062.05 0.0999062 -3.72766 0
M  V30 11554 N 1064.23 1.43628 -0.648757 0
M  V30 11555 C 1065.2 2.29172 0.0360713 0
M  V30 11556 C 1066.2 1.41974 0.754976 0
M  V30 11557 O 1067.39 1.63654 0.5969 0
M  V30 11558 C 1064.52 3.23942 1.0618 0
M  V30 11559 H 1065.71 2.91214 -0.716544 0
M  V30 11560 H 1063.26 1.50833 -0.409759 0
M  V30 11561 H 1064 2.66786 1.8438 0
M  V30 11562 H 1063.78 3.88223 0.550016 0
M  V30 11563 H 1065.27 3.8816 1.54019 0
M  V30 11564 N 1065.71 0.390394 1.52688 0
M  V30 11565 C 1066.96 -0.192697 2.00777 0
M  V30 11566 C 1067.27 -1.4781 1.28108 0
M  V30 11567 O 1068.48 -2.1413 1.66914 0
M  V30 11568 C 1066.93 -0.393955 3.57737 0
M  V30 11569 C 1066.54 0.878259 4.39307 0
M  V30 11570 C 1068.29 -0.933352 4.14112 0
M  V30 11571 C 1066.19 0.645218 5.8787 0
M  V30 11572 H 1065.12 -0.0757862 0.750182 0
M  V30 11573 H 1067.77 0.512961 1.76184 0
M  V30 11574 H 1066.16 -1.16149 3.78583 0
M  V30 11575 H 1067.33 1.65049 4.30227 0
M  V30 11576 H 1065.65 1.34269 3.94158 0
M  V30 11577 H 1068.24 -1.12343 5.22765 0
M  V30 11578 H 1068.59 -1.90272 3.70273 0
M  V30 11579 H 1069.12 -0.225361 3.97161 0
M  V30 11580 H 1065.86 1.58562 6.36033 0
M  V30 11581 H 1065.38 -0.0880609 5.99735 0
M  V30 11582 H 1067.06 0.280178 6.46393 0
M  V30 11583 N 1067.19 -1.57141 0.120249 0
M  V30 11584 C 1068.42 -1.99589 -0.545136 0
M  V30 11585 C 1068.83 -0.999951 -1.60145 0
M  V30 11586 O 1068.19 0.00698897 -1.82499 0
M  V30 11587 C 1068.24 -3.42038 -1.17014 0
M  V30 11588 O 1067.96 -4.37822 -0.156044 0
M  V30 11589 C 1069.46 -3.99625 -1.91872 0
M  V30 11590 H 1066.68 -0.655318 -0.144222 0
M  V30 11591 H 1069.23 -2.0345 0.206955 0
M  V30 11592 H 1067.38 -3.39113 -1.873 0
M  V30 11593 H 1067.79 -5.20937 -0.610317 0
M  V30 11594 H 1069.27 -5.01374 -2.30928 0
M  V30 11595 H 1069.75 -3.38836 -2.7944 0
M  V30 11596 H 1070.35 -4.061 -1.26345 0
M  V30 11597 N 1068.67 0.153526 -1.5685 0
M  V30 11598 C 1069.61 1.18973 -1.97773 0
M  V30 11599 C 1070.58 1.43041 -0.844311 0
M  V30 11600 O 1071.77 1.55484 -1.10586 0
M  V30 11601 C 1068.91 2.51981 -2.35795 0
M  V30 11602 C 1068.02 2.35143 -3.62397 0
M  V30 11603 C 1067.16 3.61141 -3.89552 0
M  V30 11604 C 1066.2 3.39311 -5.09445 0
M  V30 11605 N 1065.33 4.57423 -5.32643 0
M  V30 11606 H 1070.17 0.833758 -2.86099 0
M  V30 11607 H 1067.71 0.400252 -1.4155 0
M  V30 11608 H 1069.67 3.29527 -2.55867 0
M  V30 11609 H 1068.3 2.85539 -1.50557 0
M  V30 11610 H 1067.35 1.48684 -3.50139 0
M  V30 11611 H 1068.66 2.14969 -4.501 0
M  V30 11612 H 1067.82 4.47117 -4.10087 0
M  V30 11613 H 1066.55 3.84312 -3.00259 0
M  V30 11614 H 1065.56 2.51723 -4.8879 0
M  V30 11615 H 1066.78 3.17545 -6.00285 0
M  V30 11616 H 1064.73 4.8078 -4.46303 0
M  V30 11617 H 1064.65 4.40228 -6.14602 0
M  V30 11618 H 1065.92 5.44632 -5.57671 0
M  V30 11619 N 1070.14 1.51827 0.422667 0
M  V30 11620 C 1071.56 1.57533 1.00201 0
M  V30 11621 C 1071.91 0.407623 1.91919 0
M  V30 11622 O 1071.03 -0.473763 2.1115 0
M  V30 11623 C 1071.63 2.85508 1.82403 0
M  V30 11624 C 1070.19 2.93737 2.35362 0
M  V30 11625 C 1069.33 2.52343 1.14971 0
M  V30 11626 H 1072.28 1.57391 0.20339 0
M  V30 11627 H 1072.3 2.70097 2.68007 0
M  V30 11628 H 1071.82 3.70477 1.15623 0
M  V30 11629 H 1069.92 2.13231 3.05554 0
M  V30 11630 H 1070.03 3.977 2.67155 0
M  V30 11631 H 1068.39 2.05878 1.49955 0
M  V30 11632 H 1069.18 3.39672 0.497786 0
M  V30 11633 N 1071.62 -0.679052 1.4222 0
M  V30 11634 C 1072.87 -1.43978 1.43673 0
M  V30 11635 C 1073.22 -1.92333 0.0506711 0
M  V30 11636 O 1072.52 -1.67715 -0.926406 0
M  V30 11637 C 1072.71 -2.65528 2.39227 0
M  V30 11638 C 1072.54 -2.29065 3.86987 0
M  V30 11639 C 1071.31 -2.1863 4.55553 0
M  V30 11640 C 1073.51 -1.90983 4.77525 0
M  V30 11641 N 1071.49 -1.75227 5.88361 0
M  V30 11642 C 1072.86 -1.58465 5.99407 0
M  V30 11643 C 1074.92 -1.77938 4.65019 0
M  V30 11644 C 1073.62 -1.14212 7.10175 0
M  V30 11645 C 1075.64 -1.35089 5.75765 0
M  V30 11646 C 1075.01 -1.03493 6.96756 0
M  V30 11647 H 1071.11 -0.523503 0.58092 0
M  V30 11648 H 1073.69 -0.784043 1.78216 0
M  V30 11649 H 1071.86 -3.28797 2.06753 0
M  V30 11650 H 1073.59 -3.32096 2.31288 0
M  V30 11651 H 1070.35 -2.37562 4.09709 0
M  V30 11652 H 1070.77 -1.5596 6.58791 0
M  V30 11653 H 1075.41 -2.01013 3.71959 0
M  V30 11654 H 1073.13 -0.89882 8.03086 0
M  V30 11655 H 1076.72 -1.25522 5.68098 0
M  V30 11656 H 1075.6 -0.708396 7.80994 0
M  V30 11657 N 1073.1 -1.28322 -0.914942 0
M  V30 11658 C 1074.01 -1.13993 -2.05043 0
M  V30 11659 C 1075.03 -0.0667921 -1.73872 0
M  V30 11660 O 1076.2 -0.275845 -1.99502 0
M  V30 11661 C 1073.27 -0.801856 -3.373 0
M  V30 11662 C 1072.33 -1.95723 -3.82088 0
M  V30 11663 C 1071.56 -1.63519 -5.08033 0
M  V30 11664 O 1071.78 -0.54899 -5.67752 0
M  V30 11665 O 1070.72 -2.47844 -5.48504 0
M  V30 11666 H 1074.54 -2.09313 -2.2005 0
M  V30 11667 H 1072.13 -1.0763 -1.03616 0
M  V30 11668 H 1074.01 -0.627214 -4.16706 0
M  V30 11669 H 1072.69 0.121696 -3.23471 0
M  V30 11670 H 1071.59 -2.18702 -3.03514 0
M  V30 11671 H 1072.93 -2.86144 -4.00478 0
M  V30 11672 N 1074.58 1.12322 -1.10551 0
M  V30 11673 C 1075.82 1.8413 -0.849932 0
M  V30 11674 C 1076.16 1.83938 0.622946 0
M  V30 11675 O 1075.43 1.28579 1.45937 0
M  V30 11676 C 1075.72 3.31751 -1.40048 0
M  V30 11677 C 1075.57 3.40391 -2.9403 0
M  V30 11678 C 1076.89 4.27543 -1.04379 0
M  V30 11679 H 1074.01 0.668533 -0.310213 0
M  V30 11680 H 1076.65 1.31766 -1.36886 0
M  V30 11681 H 1074.8 3.76475 -0.959102 0
M  V30 11682 H 1076.47 3.04294 -3.46703 0
M  V30 11683 H 1074.71 2.809 -3.30571 0
M  V30 11684 H 1075.38 4.44252 -3.27635 0
M  V30 11685 H 1077.86 3.90951 -1.42466 0
M  V30 11686 H 1076.74 5.2924 -1.4559 0
M  V30 11687 H 1077 4.42075 0.0466316 0
M  V30 11688 N 1076.06 0.894434 1.2976 0
M  V30 11689 C 1076.99 0.325525 2.26877 0
M  V30 11690 C 1078 -0.525218 1.54095 0
M  V30 11691 O 1079.19 -0.343231 1.75169 0
M  V30 11692 C 1076.29 -0.554952 3.34325 0
M  V30 11693 C 1075.46 0.268868 4.36573 0
M  V30 11694 C 1074.52 -0.543601 5.23385 0
M  V30 11695 O 1073.55 0.0370454 5.69188 0
M  V30 11696 N 1074.75 -1.85079 5.50205 0
M  V30 11697 H 1077.52 1.16021 2.76332 0
M  V30 11698 H 1075.08 0.758382 1.43039 0
M  V30 11699 H 1077.07 -1.10476 3.89329 0
M  V30 11700 H 1075.64 -1.29031 2.84727 0
M  V30 11701 H 1074.86 1.0001 3.81302 0
M  V30 11702 H 1076.15 0.833248 5.01931 0
M  V30 11703 H 1075.54 -2.34533 5.14792 0
M  V30 11704 H 1074.1 -2.34784 6.08046 0
M  V30 11705 N 1077.53 -1.43282 0.656365 0
M  V30 11706 C 1078.76 -2.06641 0.177245 0
M  V30 11707 C 1079.18 -1.48893 -1.14946 0
M  V30 11708 O 1078.54 -0.600099 -1.7108 0
M  V30 11709 C 1078.59 -3.60453 0.10299 0
M  V30 11710 O 1077.69 -4.01687 -0.933895 0
M  V30 11711 H 1077.04 -0.656978 0.096314 0
M  V30 11712 H 1079.57 -1.83733 0.900178 0
M  V30 11713 H 1079.58 -4.07923 -0.079291 0
M  V30 11714 H 1078.25 -4.01861 1.07147 0
M  V30 11715 H 1076.83 -3.65801 -0.724148 0
M  V30 11716 N 1079.01 -0.398486 -1.52479 0
M  V30 11717 C 1079.96 0.432212 -2.26717 0
M  V30 11718 C 1080.93 1.05007 -1.28696 0
M  V30 11719 O 1082.12 1.07636 -1.57541 0
M  V30 11720 C 1079.26 1.54868 -3.08399 0
M  V30 11721 C 1078.37 0.952779 -4.21362 0
M  V30 11722 C 1077.5 2.04106 -4.90423 0
M  V30 11723 C 1076.54 1.42153 -5.95364 0
M  V30 11724 N 1075.68 2.44951 -6.57984 0
M  V30 11725 H 1080.52 -0.207303 -2.97278 0
M  V30 11726 H 1078.06 -0.114066 -1.46657 0
M  V30 11727 H 1080.01 2.20684 -3.54054 0
M  V30 11728 H 1078.64 2.15837 -2.4003 0
M  V30 11729 H 1077.7 0.183962 -3.79955 0
M  V30 11730 H 1079.01 0.460131 -4.96673 0
M  V30 11731 H 1078.16 2.77672 -5.39429 0
M  V30 11732 H 1076.9 2.56733 -4.14656 0
M  V30 11733 H 1075.91 0.671161 -5.45688 0
M  V30 11734 H 1077.13 0.903093 -6.73068 0
M  V30 11735 H 1075.08 2.9673 -5.85053 0
M  V30 11736 H 1074.99 2.00468 -7.28937 0
M  V30 11737 H 1076.26 3.18119 -7.11632 0
M  V30 11738 N 1080.49 1.57075 -0.12858 0
M  V30 11739 C 1081.74 1.9581 0.527868 0
M  V30 11740 C 1082.07 1.01253 1.65715 0
M  V30 11741 O 1081.35 0.0514853 1.94432 0
M  V30 11742 C 1081.63 3.44406 1.05151 0
M  V30 11743 C 1081.48 4.49737 -0.0750113 0
M  V30 11744 C 1082.8 3.95069 1.9393 0
M  V30 11745 H 1079.92 0.711978 0.19041 0
M  V30 11746 H 1082.56 1.88879 -0.206081 0
M  V30 11747 H 1080.71 3.50443 1.67697 0
M  V30 11748 H 1082.38 4.55793 -0.710685 0
M  V30 11749 H 1080.63 4.27497 -0.736809 0
M  V30 11750 H 1081.3 5.50996 0.332779 0
M  V30 11751 H 1083.77 3.91395 1.41241 0
M  V30 11752 H 1082.65 4.99542 2.27484 0
M  V30 11753 H 1082.91 3.36329 2.86941 0
M  V30 11754 N 1081.97 -0.145205 1.5693 0
M  V30 11755 C 1082.93 -1.16316 1.97492 0
M  V30 11756 C 1083.93 -1.35764 0.861668 0
M  V30 11757 O 1085.12 -1.32726 1.12825 0
M  V30 11758 C 1082.25 -2.52311 2.29242 0
M  V30 11759 H 1083.45 -0.815138 2.8861 0
M  V30 11760 H 1081 -0.38861 1.51392 0
M  V30 11761 H 1081.74 -2.92081 1.40922 0
M  V30 11762 H 1081.52 -2.39555 3.10412 0
M  V30 11763 H 1083.01 -3.25624 2.61456 0
M  V30 11764 N 1083.45 -1.52049 -0.414609 0
M  V30 11765 C 1084.38 -1.77956 -1.51175 0
M  V30 11766 C 1085.36 -0.630282 -1.57992 0
M  V30 11767 O 1086.54 -0.875324 -1.73354 0
M  V30 11768 C 1083.67 -1.92527 -2.89051 0
M  V30 11769 C 1082.63 -3.08096 -2.97087 0
M  V30 11770 C 1081.95 -3.07882 -4.37164 0
M  V30 11771 C 1083.25 -4.47656 -2.69075 0
M  V30 11772 H 1084.95 -2.69827 -1.29746 0
M  V30 11773 H 1082.49 -1.29839 -0.62273 0
M  V30 11774 H 1084.45 -2.09234 -3.65786 0
M  V30 11775 H 1083.17 -0.973235 -3.11762 0
M  V30 11776 H 1081.83 -2.91131 -2.22797 0
M  V30 11777 H 1081.48 -2.10411 -4.56877 0
M  V30 11778 H 1081.18 -3.85501 -4.43467 0
M  V30 11779 H 1082.7 -3.26712 -5.15841 0
M  V30 11780 H 1084.12 -4.64855 -3.35534 0
M  V30 11781 H 1082.51 -5.27151 -2.8676 0
M  V30 11782 H 1083.58 -4.56129 -1.64544 0
M  V30 11783 N 1084.93 0.6715 -1.42579 0
M  V30 11784 C 1085.86 1.79693 -1.49107 0
M  V30 11785 C 1086.84 1.66516 -0.347338 0
M  V30 11786 O 1088.02 1.85887 -0.562094 0
M  V30 11787 C 1085.15 3.1801 -1.39596 0
M  V30 11788 C 1084.11 3.45926 -2.5203 0
M  V30 11789 C 1083.43 4.83852 -2.27577 0
M  V30 11790 C 1084.73 3.4249 -3.94333 0
M  V30 11791 H 1086.43 1.74486 -2.433 0
M  V30 11792 H 1083.97 0.838042 -1.17102 0
M  V30 11793 H 1085.92 3.96478 -1.42771 0
M  V30 11794 H 1084.65 3.23901 -0.418989 0
M  V30 11795 H 1083.31 2.6982 -2.48178 0
M  V30 11796 H 1082.96 4.86398 -1.28165 0
M  V30 11797 H 1082.66 5.03493 -3.02934 0
M  V30 11798 H 1084.18 5.646 -2.32506 0
M  V30 11799 H 1085.59 4.10922 -3.9977 0
M  V30 11800 H 1083.99 3.73666 -4.69568 0
M  V30 11801 H 1085.06 2.41002 -4.20768 0
M  V30 11802 N 1086.4 1.28806 0.908124 0
M  V30 11803 C 1087.65 1.1646 1.66027 0
M  V30 11804 C 1087.98 -0.285025 1.92097 0
M  V30 11805 O 1087.26 -1.20675 1.52538 0
M  V30 11806 C 1087.54 1.96951 3.01467 0
M  V30 11807 C 1087.39 3.50007 2.82515 0
M  V30 11808 C 1088.71 1.78932 4.02084 0
M  V30 11809 H 1085.83 0.424435 0.602515 0
M  V30 11810 H 1088.47 1.58185 1.0525 0
M  V30 11811 H 1086.62 1.61495 3.53344 0
M  V30 11812 H 1088.3 3.95401 2.37605 0
M  V30 11813 H 1086.54 3.75356 2.17463 0
M  V30 11814 H 1087.21 4.01591 3.7872 0
M  V30 11815 H 1089.69 2.09885 3.59287 0
M  V30 11816 H 1088.56 2.37615 4.94803 0
M  V30 11817 H 1088.82 0.742286 4.35824 0
M  V30 11818 N 1087.88 -1.11734 1.11145 0
M  V30 11819 C 1088.84 -2.15868 0.770303 0
M  V30 11820 C 1089.84 -1.59438 -0.208842 0
M  V30 11821 O 1091.03 -1.74193 0.0152516 0
M  V30 11822 C 1088.17 -3.40603 0.142303 0
M  V30 11823 H 1089.36 -2.4756 1.69276 0
M  V30 11824 H 1086.91 -1.26867 0.912929 0
M  V30 11825 H 1087.65 -3.14517 -0.790526 0
M  V30 11826 H 1087.43 -3.8284 0.847087 0
M  V30 11827 H 1088.92 -4.17523 -0.0803608 0
M  V30 11828 N 1089.36 -0.901303 -1.29284 0
M  V30 11829 C 1090.32 -0.385081 -2.25942 0
M  V30 11830 C 1091.32 0.481626 -1.53418 0
M  V30 11831 O 1092.51 0.286451 -1.71829 0
M  V30 11832 C 1089.64 0.449319 -3.37926 0
M  V30 11833 H 1090.84 -1.23877 -2.7312 0
M  V30 11834 H 1088.39 -0.679586 -1.40753 0
M  V30 11835 H 1089.13 1.32292 -2.9609 0
M  V30 11836 H 1088.91 -0.171731 -3.91724 0
M  V30 11837 H 1090.4 0.801746 -4.09831 0
M  V30 11838 N 1090.84 1.42931 -0.663954 0
M  V30 11839 C 1091.75 2.3459 0.0214234 0
M  V30 11840 C 1092.76 1.54487 0.800611 0
M  V30 11841 O 1093.94 1.87098 0.74541 0
M  V30 11842 C 1091 3.32896 0.968556 0
M  V30 11843 C 1090.07 4.28901 0.185108 0
M  V30 11844 C 1089.3 5.2251 1.08713 0
M  V30 11845 O 1089.52 5.20795 2.32655 0
M  V30 11846 O 1088.46 5.99347 0.553758 0
M  V30 11847 H 1092.28 2.94714 -0.733308 0
M  V30 11848 H 1089.87 1.43252 -0.424159 0
M  V30 11849 H 1091.75 3.93318 1.51257 0
M  V30 11850 H 1090.42 2.75261 1.70333 0
M  V30 11851 H 1089.33 3.71926 -0.402752 0
M  V30 11852 H 1090.66 4.89547 -0.510319 0
M  V30 11853 N 1092.32 0.406567 1.52266 0
M  V30 11854 C 1093.56 -0.170053 2.01785 0
M  V30 11855 C 1093.89 -1.45361 1.2923 0
M  V30 11856 O 1093.15 -1.91849 0.386342 0
M  V30 11857 C 1093.44 -0.467124 3.54334 0
M  V30 11858 C 1093.11 0.72693 4.45002 0
M  V30 11859 C 1091.77 1.05446 4.69505 0
M  V30 11860 C 1094.12 1.52493 4.98393 0
M  V30 11861 C 1091.45 2.18123 5.44646 0
M  V30 11862 C 1093.8 2.64244 5.74768 0
M  V30 11863 C 1092.47 2.97486 5.97544 0
M  V30 11864 H 1091.74 -0.0622267 0.738383 0
M  V30 11865 H 1094.39 0.54746 1.83508 0
M  V30 11866 H 1092.69 -1.26617 3.70777 0
M  V30 11867 H 1094.39 -0.926194 3.90157 0
M  V30 11868 H 1090.98 0.461666 4.26106 0
M  V30 11869 H 1095.16 1.28512 4.79373 0
M  V30 11870 H 1090.42 2.44228 5.60502 0
M  V30 11871 H 1094.59 3.26468 6.15136 0
M  V30 11872 H 1092.22 3.84913 6.5555 0
M  V30 11873 N 1093.79 -1.57004 0.136909 0
M  V30 11874 C 1095.04 -1.96873 -0.511137 0
M  V30 11875 C 1095.4 -1.02001 -1.63137 0
M  V30 11876 O 1094.69 -0.0532138 -1.91526 0
M  V30 11877 C 1094.88 -3.40903 -1.07331 0
M  V30 11878 C 1094.71 -4.49699 -0.00908112 0
M  V30 11879 C 1093.48 -5.03477 0.42889 0
M  V30 11880 C 1095.68 -5.08372 0.778631 0
M  V30 11881 N 1093.66 -5.95867 1.47702 0
M  V30 11882 C 1095.03 -5.96875 1.67751 0
M  V30 11883 C 1097.09 -4.90975 0.827538 0
M  V30 11884 C 1095.79 -6.69845 2.62108 0
M  V30 11885 C 1097.82 -5.64639 1.75889 0
M  V30 11886 C 1097.18 -6.52842 2.64531 0
M  V30 11887 H 1093.28 -0.766253 -0.156141 0
M  V30 11888 H 1095.86 -1.93347 0.229176 0
M  V30 11889 H 1094.03 -3.45042 -1.78327 0
M  V30 11890 H 1095.76 -3.67855 -1.68715 0
M  V30 11891 H 1092.52 -4.73588 0.03306 0
M  V30 11892 H 1092.94 -6.46767 2.00055 0
M  V30 11893 H 1097.59 -4.22511 0.156318 0
M  V30 11894 H 1095.3 -7.37544 3.30235 0
M  V30 11895 H 1098.89 -5.53177 1.80241 0
M  V30 11896 H 1097.77 -7.08843 3.35426 0
M  V30 11897 N 1095.27 0.136881 -1.57004 0
M  V30 11898 C 1096.18 1.18793 -2.023 0
M  V30 11899 C 1097.2 1.46412 -0.94018 0
M  V30 11900 O 1098.37 1.57883 -1.2504 0
M  V30 11901 C 1095.44 2.49903 -2.40311 0
M  V30 11902 C 1094.5 2.29841 -3.6259 0
M  V30 11903 C 1093.73 3.54699 -3.98779 0
M  V30 11904 O 1093.96 4.61291 -3.3551 0
M  V30 11905 O 1092.89 3.46761 -4.91976 0
M  V30 11906 H 1096.72 0.833345 -2.92043 0
M  V30 11907 H 1094.3 0.346361 -1.4533 0
M  V30 11908 H 1096.18 3.27183 -2.65574 0
M  V30 11909 H 1094.86 2.84872 -1.5372 0
M  V30 11910 H 1093.77 1.50478 -3.42501 0
M  V30 11911 H 1095.1 1.99784 -4.4983 0
M  V30 11912 N 1096.75 1.52266 0.40654 0
M  V30 11913 C 1097.68 1.72025 1.51459 0
M  V30 11914 C 1098.7 0.600667 1.51314 0
M  V30 11915 O 1099.88 0.875894 1.55532 0
M  V30 11916 C 1096.98 1.7479 2.90348 0
M  V30 11917 C 1096.16 3.03826 3.14656 0
M  V30 11918 C 1095.22 2.98369 4.33431 0
M  V30 11919 O 1094.24 3.7227 4.30586 0
M  V30 11920 N 1095.44 2.16338 5.38682 0
M  V30 11921 H 1098.21 2.67622 1.34903 0
M  V30 11922 H 1095.77 1.50536 0.595867 0
M  V30 11923 H 1097.76 1.68667 3.67877 0
M  V30 11924 H 1096.33 0.86656 3.00349 0
M  V30 11925 H 1095.55 3.23577 2.25148 0
M  V30 11926 H 1096.84 3.89182 3.27742 0
M  V30 11927 H 1096.24 1.55731 5.43842 0
M  V30 11928 H 1094.8 2.1607 6.14945 0
M  V30 11929 N 1098.23 -0.663929 1.42933 0
M  V30 11930 C 1099.48 -1.42111 1.43697 0
M  V30 11931 C 1099.8 -1.94913 0.0583858 0
M  V30 11932 O 1099.07 -1.73757 -0.904719 0
M  V30 11933 H 1097.65 -0.527391 0.529026 0
M  V30 11934 H 1100.31 -0.783766 1.78446 0
M  V30 11935 H 1099.41 -2.26877 2.1432 0
M  V30 11936 N 1099.71 -1.29285 -0.901281 0
M  V30 11937 C 1100.98 -1.07847 -1.63182 0
M  V30 11938 C 1101.36 0.377927 -2.07689 0
M  V30 11939 O 1100.71 1.36642 -1.83143 0
M  V30 11940 C 1100.92 -2.06457 -2.81383 0
M  V30 11941 C 1102.27 -2.37289 -3.52107 0
M  V30 11942 O 1103.29 -2.0464 -2.91549 0
M  V30 11943 O 1102.15 -2.93067 -4.61274 0
M  V30 11944 H 1099.25 -0.413073 -0.71645 0
M  V30 11945 H 1101.79 -1.40651 -0.949488 0
M  V30 11946 H 1100.56 -3.04561 -2.4568 0
M  V30 11947 H 1100.19 -1.74374 -3.57323 0
M  V30 11948 N 1101.18 1.11143 -1.11736 0
M  V30 11949 C 1102.11 2.19339 -0.800795 0
M  V30 11950 C 1103.1 1.68508 0.23221 0
M  V30 11951 O 1104.28 1.93967 0.0950063 0
M  V30 11952 C 1101.41 3.46424 -0.246579 0
M  V30 11953 C 1100.36 4.10487 -1.21181 0
M  V30 11954 C 1099.69 5.32183 -0.518158 0
M  V30 11955 C 1100.99 4.55052 -2.56368 0
M  V30 11956 H 1102.68 2.46077 -1.70548 0
M  V30 11957 H 1100.23 1.18271 -0.821454 0
M  V30 11958 H 1102.18 4.21398 -0.0128889 0
M  V30 11959 H 1100.91 3.19154 0.693415 0
M  V30 11960 H 1099.57 3.3751 -1.43118 0
M  V30 11961 H 1099.21 5.01187 0.426742 0
M  V30 11962 H 1098.91 5.75997 -1.16196 0
M  V30 11963 H 1100.44 6.09895 -0.293333 0
M  V30 11964 H 1101.85 5.21335 -2.38501 0
M  V30 11965 H 1100.25 5.0969 -3.16758 0
M  V30 11966 H 1101.32 3.68343 -3.1536 0
M  V30 11967 N 1102.66 0.908147 1.28804 0
M  V30 11968 C 1103.57 0.397167 2.31214 0
M  V30 11969 C 1104.59 -0.512352 1.66286 0
M  V30 11970 O 1105.76 -0.399893 1.9739 0
M  V30 11971 C 1102.83 -0.359522 3.44831 0
M  V30 11972 C 1101.89 0.582539 4.25329 0
M  V30 11973 C 1101.12 -0.138133 5.33521 0
M  V30 11974 O 1101.35 -1.36076 5.53931 0
M  V30 11975 O 1100.28 0.523682 5.99618 0
M  V30 11976 H 1104.11 1.247 2.76918 0
M  V30 11977 H 1101.69 0.672766 1.33395 0
M  V30 11978 H 1103.57 -0.787098 4.13984 0
M  V30 11979 H 1102.25 -1.18528 3.01219 0
M  V30 11980 H 1101.16 1.0594 3.58786 0
M  V30 11981 H 1102.49 1.37495 4.72605 0
M  V30 11982 N 1104.14 -1.42577 0.671525 0
M  V30 11983 C 1105.56 -1.5592 0.340769 0
M  V30 11984 C 1105.76 -1.65179 -1.15405 0
M  V30 11985 O 1104.81 -1.61691 -1.93939 0
M  V30 11986 C 1106.13 -2.81087 1.06821 0
M  V30 11987 C 1107.67 -2.94855 1.05022 0
M  V30 11988 C 1108.15 -4.22878 1.75892 0
M  V30 11989 N 1109.64 -4.29783 1.72744 0
M  V30 11990 C 1110.37 -5.2765 2.24439 0
M  V30 11991 N 1109.87 -6.31689 2.84501 0
M  V30 11992 N 1111.66 -5.19426 2.14832 0
M  V30 11993 H 1103.81 -1.34811 1.64133 0
M  V30 11994 H 1106.08 -0.648704 0.691294 0
M  V30 11995 H 1105.78 -2.80371 2.12332 0
M  V30 11996 H 1105.66 -3.71879 0.631356 0
M  V30 11997 H 1108.04 -2.951 0.00345633 0
M  V30 11998 H 1108.13 -2.05303 1.52592 0
M  V30 11999 H 1107.77 -4.23394 2.80535 0
M  V30 12000 H 1107.7 -5.1136 1.25773 0
M  V30 12001 H 1110.19 -3.55225 1.28932 0
M  V30 12002 H 1110.5 -7.02715 3.21575 0
M  V30 12003 H 1108.85 -6.3226 2.88569 0
M  V30 12004 H 1112.04 -4.37067 1.676 0
M  V30 12005 H 1112.21 -5.95535 2.55426 0
M  V30 12006 N 1105.62 -0.414636 -1.52048 0
M  V30 12007 C 1106.85 0.158686 -2.06291 0
M  V30 12008 C 1107.26 1.38397 -1.2842 0
M  V30 12009 O 1106.62 1.79351 -0.337539 0
M  V30 12010 C 1106.67 0.503634 -3.57975 0
M  V30 12011 O 1106.39 -0.672996 -4.329 0
M  V30 12012 C 1107.89 1.13009 -4.28653 0
M  V30 12013 H 1105.11 0.0179622 -0.67076 0
M  V30 12014 H 1107.66 -0.587177 -1.95889 0
M  V30 12015 H 1105.81 1.19939 -3.68366 0
M  V30 12016 H 1106.22 -0.383735 -5.23094 0
M  V30 12017 H 1107.7 1.32162 -5.35945 0
M  V30 12018 H 1108.18 2.10476 -3.85482 0
M  V30 12019 H 1108.78 0.474379 -4.22646 0
M  V30 12020 N 1107.1 1.56929 -0.145233 0
M  V30 12021 C 1108.34 1.96358 0.50707 0
M  V30 12022 C 1108.68 1.03005 1.64632 0
M  V30 12023 O 1107.95 0.0721045 1.94366 0
M  V30 12024 C 1108.23 3.45502 1.01492 0
M  V30 12025 C 1108.09 4.49633 -0.122708 0
M  V30 12026 C 1109.41 3.97103 1.89729 0
M  V30 12027 H 1106.52 0.713958 0.182848 0
M  V30 12028 H 1109.17 1.8865 -0.226102 0
M  V30 12029 H 1107.32 3.52202 1.6397 0
M  V30 12030 H 1108.99 4.55013 -0.758988 0
M  V30 12031 H 1107.23 4.26691 -0.782109 0
M  V30 12032 H 1107.9 5.51318 0.27432 0
M  V30 12033 H 1110.38 3.92871 1.37082 0
M  V30 12034 H 1109.25 5.01927 2.22173 0
M  V30 12035 H 1109.52 3.39354 2.83357 0
M  V30 12036 N 1108.58 -0.128553 1.57075 0
M  V30 12037 C 1109.51 -1.15953 2.02675 0
M  V30 12038 C 1110.49 -1.43743 0.909501 0
M  V30 12039 O 1111.67 -1.54348 1.17857 0
M  V30 12040 C 1108.8 -2.48813 2.423 0
M  V30 12041 C 1107.76 -2.35506 3.57381 0
M  V30 12042 C 1107.08 -3.73243 3.82875 0
M  V30 12043 C 1108.38 -1.82359 4.89431 0
M  V30 12044 H 1110.08 -0.780283 2.89054 0
M  V30 12045 H 1107.62 -0.373896 1.39061 0
M  V30 12046 H 1109.57 -3.21179 2.72804 0
M  V30 12047 H 1108.3 -2.88609 1.52881 0
M  V30 12048 H 1106.96 -1.6559 3.27071 0
M  V30 12049 H 1106.61 -4.10507 2.90677 0
M  V30 12050 H 1106.31 -3.65195 4.60333 0
M  V30 12051 H 1107.83 -4.47128 4.15823 0
M  V30 12052 H 1109.24 -2.44533 5.18533 0
M  V30 12053 H 1107.64 -1.85156 5.70822 0
M  V30 12054 H 1108.71 -0.780478 4.78578 0
M  V30 12055 N 1110.05 -1.5248 -0.398459 0
M  V30 12056 C 1111.33 -1.57634 -1.15805 0
M  V30 12057 C 1111.71 -0.363785 -2.07942 0
M  V30 12058 O 1111.06 0.648598 -2.19101 0
M  V30 12059 C 1111.27 -2.91042 -1.92602 0
M  V30 12060 C 1112.62 -3.44433 -2.48296 0
M  V30 12061 O 1113.64 -2.92853 -2.0277 0
M  V30 12062 O 1112.5 -4.34529 -3.31432 0
M  V30 12063 H 1109.59 -0.63539 -0.529347 0
M  V30 12064 H 1112.14 -1.64812 -0.404376 0
M  V30 12065 H 1110.91 -3.7074 -1.25169 0
M  V30 12066 H 1110.53 -2.87206 -2.74952 0
M  V30 12067 N 1111.53 0.65634 -1.43283 0
M  V30 12068 C 1112.46 1.78184 -1.44164 0
M  V30 12069 C 1113.48 1.59249 -0.338177 0
M  V30 12070 O 1114.67 1.68027 -0.60242 0
M  V30 12071 C 1111.77 3.15566 -1.23577 0
M  V30 12072 C 1110.94 3.61187 -2.46704 0
M  V30 12073 C 1110 4.77361 -2.21388 0
M  V30 12074 O 1109.02 4.8696 -2.94718 0
M  V30 12075 N 1110.23 5.67351 -1.22855 0
M  V30 12076 H 1112.99 1.77907 -2.41183 0
M  V30 12077 H 1110.55 0.840076 -1.38399 0
M  V30 12078 H 1112.54 3.90968 -1.04529 0
M  V30 12079 H 1111.11 3.10633 -0.350155 0
M  V30 12080 H 1110.33 2.76263 -2.81198 0
M  V30 12081 H 1111.62 3.88413 -3.28652 0
M  V30 12082 H 1111.02 5.62265 -0.622417 0
M  V30 12083 H 1109.58 6.42487 -1.09791 0
M  V30 12084 N 1113.01 1.29761 0.894412 0
M  V30 12085 C 1113.94 1.1115 2.00445 0
M  V30 12086 C 1114.95 0.0574655 1.62699 0
M  V30 12087 O 1116.14 0.302528 1.75918 0
M  V30 12088 C 1113.24 0.670984 3.32191 0
M  V30 12089 C 1112.42 1.80471 3.98433 0
M  V30 12090 C 1111.48 1.35431 5.08473 0
M  V30 12091 O 1110.5 2.05994 5.30618 0
M  V30 12092 N 1111.7 0.22811 5.80052 0
M  V30 12093 H 1114.47 2.06753 2.16964 0
M  V30 12094 H 1112.03 1.21772 1.06692 0
M  V30 12095 H 1114.02 0.352877 4.03159 0
M  V30 12096 H 1112.59 -0.192735 3.12005 0
M  V30 12097 H 1111.81 2.29142 3.20761 0
M  V30 12098 H 1113.1 2.56471 4.39431 0
M  V30 12099 H 1112.5 -0.360076 5.64553 0
M  V30 12100 H 1111.05 -0.0305985 6.51793 0
M  V30 12101 N 1114.49 -1.10549 1.12324 0
M  V30 12102 C 1115.9 -1.63991 0.892402 0
M  V30 12103 C 1116.25 -1.87631 -0.573506 0
M  V30 12104 O 1115.37 -1.6174 -1.43768 0
M  V30 12105 C 1115.97 -2.97914 1.61347 0
M  V30 12106 C 1114.53 -3.48227 1.42881 0
M  V30 12107 C 1113.68 -2.22857 1.65015 0
M  V30 12108 H 1116.63 -0.94065 1.27818 0
M  V30 12109 H 1116.65 -3.65326 1.06382 0
M  V30 12110 H 1116.16 -2.80677 2.68034 0
M  V30 12111 H 1114.26 -3.70611 0.384441 0
M  V30 12112 H 1114.37 -4.26419 2.18413 0
M  V30 12113 H 1112.74 -2.30941 1.07417 0
M  V30 12114 H 1113.52 -2.08152 2.72997 0
M  V30 12115 N 1115.97 -0.914965 -1.28321 0
M  V30 12116 C 1117.21 -0.544639 -1.94208 0
M  V30 12117 C 1117.53 0.916368 -1.72806 0
M  V30 12118 O 1118.73 1.39491 -2.32926 0
M  V30 12119 C 1117.19 -0.923209 -3.47858 0
M  V30 12120 C 1116.8 -2.40403 -3.78035 0
M  V30 12121 C 1118.54 -0.623526 -4.19896 0
M  V30 12122 C 1116.45 -2.72266 -5.25 0
M  V30 12123 H 1115.38 -0.199966 -0.727 0
M  V30 12124 H 1118.03 -1.11405 -1.45812 0
M  V30 12125 H 1116.41 -0.282576 -3.94991 0
M  V30 12126 H 1117.59 -3.09149 -3.41706 0
M  V30 12127 H 1115.9 -2.67429 -3.19172 0
M  V30 12128 H 1118.5 -0.838243 -5.28089 0
M  V30 12129 H 1118.84 0.438721 -4.13982 0
M  V30 12130 H 1119.37 -1.22268 -3.78544 0
M  V30 12131 H 1116.11 -3.77349 -5.35993 0
M  V30 12132 H 1115.63 -2.08157 -5.62522 0
M  V30 12133 H 1117.31 -2.59334 -5.92752 0
M  V30 12134 N 1117.44 1.42219 -0.679077 0
M  V30 12135 C 1118.85 1.8459 -0.279877 0
M  V30 12136 C 1119.21 1.56839 1.17881 0
M  V30 12137 O 1118.33 1.03039 1.90294 0
M  V30 12138 C 1118.93 3.35072 -0.501185 0
M  V30 12139 C 1117.48 3.76076 -0.156065 0
M  V30 12140 C 1116.63 2.65763 -0.791549 0
M  V30 12141 H 1119.58 1.32005 -0.880932 0
M  V30 12142 H 1119.6 3.79708 0.245349 0
M  V30 12143 H 1119.12 3.55239 -1.56291 0
M  V30 12144 H 1117.22 3.61516 0.90205 0
M  V30 12145 H 1117.33 4.75334 -0.599572 0
M  V30 12146 H 1115.69 2.53726 -0.222514 0
M  V30 12147 H 1116.48 2.88751 -1.85682 0
M  V30 12148 N 1118.92 0.422693 1.51826 0
M  V30 12149 C 1119.85 -0.440987 2.23899 0
M  V30 12150 C 1120.83 -1.03685 1.25252 0
M  V30 12151 O 1122.02 -1.08212 1.54345 0
M  V30 12152 C 1119.14 -1.61331 2.97809 0
M  V30 12153 C 1118.19 -1.13954 4.10995 0
M  V30 12154 S 1119.02 -0.0935426 5.35418 0
M  V30 12155 C 1120.18 -1.27087 6.12862 0
M  V30 12156 H 1120.41 0.170945 2.96808 0
M  V30 12157 H 1117.94 0.20709 1.53005 0
M  V30 12158 H 1119.9 -2.28546 3.40994 0
M  V30 12159 H 1118.56 -2.19662 2.24516 0
M  V30 12160 H 1117.76 -2.01578 4.61933 0
M  V30 12161 H 1117.36 -0.545838 3.69995 0
M  V30 12162 H 1119.65 -2.19199 6.4106 0
M  V30 12163 H 1120.59 -0.801752 7.03546 0
M  V30 12164 H 1121 -1.50281 5.44129 0
M  V30 12165 N 1120.4 -1.5685 0.153553 0
M  V30 12166 C 1121.33 -2.12888 -0.821829 0
M  V30 12167 C 1122.31 -1.05418 -1.23798 0
M  V30 12168 O 1123.49 -1.33288 -1.33292 0
M  V30 12169 C 1120.62 -2.65394 -2.10438 0
M  V30 12170 C 1119.67 -3.85071 -1.83364 0
M  V30 12171 S 1120.5 -5.2572 -1.01877 0
M  V30 12172 C 1121.66 -5.81619 -2.31236 0
M  V30 12173 H 1121.89 -2.95288 -0.345314 0
M  V30 12174 H 1119.42 -1.5428 -0.0608377 0
M  V30 12175 H 1121.38 -2.96294 -2.84113 0
M  V30 12176 H 1120.04 -1.83112 -2.55204 0
M  V30 12177 H 1119.23 -4.20076 -2.78482 0
M  V30 12178 H 1118.84 -3.54965 -1.17794 0
M  V30 12179 H 1121.13 -5.9345 -3.26838 0
M  V30 12180 H 1122.07 -6.79054 -2.00727 0
M  V30 12181 H 1122.48 -5.09909 -2.42184 0
M  V30 12182 N 1121.88 0.120221 -1.57141 0
M  V30 12183 C 1123.15 0.858458 -1.75755 0
M  V30 12184 C 1123.53 1.98124 -0.728693 0
M  V30 12185 O 1122.88 2.27155 0.247573 0
M  V30 12186 C 1123.09 1.37627 -3.20718 0
M  V30 12187 C 1124.44 1.82909 -3.83183 0
M  V30 12188 O 1125.46 1.47309 -3.24312 0
M  V30 12189 O 1124.32 2.4865 -4.86657 0
M  V30 12190 H 1121.42 0.407583 -0.719587 0
M  V30 12191 H 1123.96 0.104057 -1.69381 0
M  V30 12192 H 1122.74 0.570651 -3.87117 0
M  V30 12193 H 1122.36 2.19341 -3.31625 0
M  V30 12194 N 1123.36 1.52689 0.390367 0
M  V30 12195 C 1124.77 1.41909 0.730338 0
M  V30 12196 C 1124.97 0.538427 1.94173 0
M  V30 12197 O 1124.03 0.0113527 2.52497 0
M  V30 12198 C 1125.34 2.84737 0.966714 0
M  V30 12199 C 1126.89 2.94206 1.06827 0
M  V30 12200 C 1127.36 4.38042 1.33728 0
M  V30 12201 N 1128.86 4.4136 1.40553 0
M  V30 12202 C 1129.59 5.49735 1.63031 0
M  V30 12203 N 1129.09 6.68197 1.82988 0
M  V30 12204 N 1130.88 5.37276 1.65199 0
M  V30 12205 H 1123.03 2.08469 -0.406766 0
M  V30 12206 H 1125.29 0.940401 -0.11979 0
M  V30 12207 H 1125 3.51385 0.148725 0
M  V30 12208 H 1124.87 3.26909 1.88176 0
M  V30 12209 H 1127.26 2.27726 1.87683 0
M  V30 12210 H 1127.34 2.55463 0.131168 0
M  V30 12211 H 1126.99 5.05087 0.533832 0
M  V30 12212 H 1126.92 4.74336 2.28721 0
M  V30 12213 H 1129.41 3.55976 1.26844 0
M  V30 12214 H 1129.72 7.46567 1.99643 0
M  V30 12215 H 1128.06 6.71228 1.80215 0
M  V30 12216 H 1131.26 4.437 1.49158 0
M  V30 12217 H 1131.43 6.21806 1.82377 0
M  V30 12218 N 1124.83 -0.648732 1.43629 0
M  V30 12219 C 1125.78 -1.78269 1.49409 0
M  V30 12220 C 1126.78 -1.6537 0.367288 0
M  V30 12221 O 1127.98 -1.71663 0.541476 0
M  V30 12222 H 1124.36 -0.58824 0.468484 0
M  V30 12223 H 1126.33 -1.70514 2.44883 0
M  V30 12224 C 1125.08 -3.16545 1.43856 0
M  V30 12225 H 1124.4 -3.2711 2.29868 0
M  V30 12226 H 1125.84 -3.95833 1.51961 0
M  V30 12227 C 1124.3 -3.36535 0.156779 0
M  V30 12228 O 1124.83 -3.94052 -0.780124 0
M  V30 12229 N 1123.04 -2.90526 0.0655319 0
M  V30 12230 H 1122.58 -2.43904 0.828768 0
M  V30 12231 H 1122.54 -3.04277 -0.791379 0
M  V30 12232 N 1126.31 -1.30234 -0.887518 0
M  V30 12233 C 1127.26 -1.164 -1.99298 0
M  V30 12234 C 1128.23 -0.0541536 -1.66012 0
M  V30 12235 O 1129.41 -0.223881 -1.89482 0
M  V30 12236 C 1126.55 -0.859169 -3.34234 0
M  V30 12237 C 1125.67 -2.05065 -3.80227 0
M  V30 12238 C 1124.8 -1.68413 -5.03796 0
M  V30 12239 C 1123.84 -2.8407 -5.4219 0
M  V30 12240 N 1122.98 -2.47732 -6.56942 0
M  V30 12241 H 1127.82 -2.10973 -2.10463 0
M  V30 12242 H 1125.36 -1.04969 -1.03053 0
M  V30 12243 H 1127.31 -0.663064 -4.11897 0
M  V30 12244 H 1125.94 0.0496808 -3.22762 0
M  V30 12245 H 1125 -2.35808 -2.98494 0
M  V30 12246 H 1126.31 -2.91688 -4.04623 0
M  V30 12247 H 1125.46 -1.45162 -5.89078 0
M  V30 12248 H 1124.2 -0.789553 -4.81266 0
M  V30 12249 H 1123.21 -3.0799 -4.55437 0
M  V30 12250 H 1124.43 -3.74211 -5.66695 0
M  V30 12251 H 1122.38 -1.60777 -6.35993 0
M  V30 12252 H 1122.29 -3.27887 -6.81195 0
M  V30 12253 H 1123.56 -2.27831 -7.45462 0
M  V30 12254 N 1127.79 1.09952 -1.12909 0
M  V30 12255 C 1128.75 2.14615 -0.804548 0
M  V30 12256 C 1129.75 1.5975 0.18345 0
M  V30 12257 O 1130.94 1.74147 -0.0429623 0
M  V30 12258 C 1128.08 3.40333 -0.196471 0
M  V30 12259 H 1129.27 2.44835 -1.73193 0
M  V30 12260 H 1126.82 1.25399 -0.932997 0
M  V30 12261 H 1127.56 3.15735 0.740388 0
M  V30 12262 H 1127.34 3.81444 -0.907886 0
M  V30 12263 H 1128.83 4.17598 0.0139264 0
M  V30 12264 N 1129.27 0.921757 1.27833 0
M  V30 12265 C 1130.23 0.420978 2.25301 0
M  V30 12266 C 1131.23 -0.457158 1.54165 0
M  V30 12267 O 1132.42 -0.259079 1.72263 0
M  V30 12268 C 1129.55 -0.395501 3.38598 0
M  V30 12269 H 1130.75 1.28206 2.71115 0
M  V30 12270 H 1128.3 0.701893 1.39654 0
M  V30 12271 H 1129.03 -1.27565 2.98157 0
M  V30 12272 H 1128.82 0.234029 3.91401 0
M  V30 12273 H 1130.31 -0.736444 4.11055 0
M  V30 12274 N 1130.75 -1.41857 0.686609 0
M  V30 12275 C 1131.66 -2.34595 0.0159005 0
M  V30 12276 C 1132.67 -1.55741 -0.775933 0
M  V30 12277 O 1133.85 -1.8826 -0.71555 0
M  V30 12278 C 1130.91 -3.34395 -0.915473 0
M  V30 12279 C 1129.97 -4.29141 -0.116851 0
M  V30 12280 C 1129.21 -5.24174 -1.00386 0
M  V30 12281 O 1129.43 -5.24431 -2.2434 0
M  V30 12282 O 1128.36 -6.00152 -0.458337 0
M  V30 12283 H 1132.19 -2.9351 0.780101 0
M  V30 12284 H 1129.78 -1.42559 0.446896 0
M  V30 12285 H 1131.66 -3.95675 -1.44981 0
M  V30 12286 H 1130.33 -2.77936 -1.65932 0
M  V30 12287 H 1129.24 -3.71238 0.461871 0
M  V30 12288 H 1130.57 -4.88673 0.588138 0
M  V30 12289 N 1132.22 -0.430739 -1.51599 0
M  V30 12290 C 1133.15 0.374695 -2.30474 0
M  V30 12291 C 1134.14 1.02694 -1.35602 0
M  V30 12292 O 1135.32 1.03184 -1.6452 0
M  V30 12293 C 1132.45 1.47981 -3.14196 0
M  V30 12294 C 1131.4 0.951415 -4.17291 0
M  V30 12295 C 1130.73 2.15177 -4.89492 0
M  V30 12296 C 1132.03 -0.00957951 -5.22299 0
M  V30 12297 H 1133.72 -0.283508 -2.98055 0
M  V30 12298 H 1131.27 -0.13779 -1.43339 0
M  V30 12299 H 1133.22 2.05043 -3.68151 0
M  V30 12300 H 1131.95 2.16621 -2.44424 0
M  V30 12301 H 1130.61 0.403052 -3.64378 0
M  V30 12302 H 1130.25 2.82421 -4.1623 0
M  V30 12303 H 1129.95 1.80464 -5.59202 0
M  V30 12304 H 1131.48 2.72806 -5.46269 0
M  V30 12305 H 1132.89 0.470527 -5.71366 0
M  V30 12306 H 1131.29 -0.268959 -5.99497 0
M  V30 12307 H 1132.36 -0.948297 -4.75537 0
M  V30 12308 N 1133.7 1.56767 -0.161869 0
M  V30 12309 C 1135.11 1.83265 0.356466 0
M  V30 12310 C 1135.46 1.08127 1.63716 0
M  V30 12311 O 1134.59 0.33127 2.13849 0
M  V30 12312 C 1135.18 3.32437 0.653521 0
M  V30 12313 C 1133.74 3.59465 1.11633 0
M  V30 12314 C 1132.89 2.76909 0.147204 0
M  V30 12315 H 1135.84 1.53926 -0.386308 0
M  V30 12316 H 1135.86 3.49401 1.50662 0
M  V30 12317 H 1135.37 3.87098 -0.278766 0
M  V30 12318 H 1133.48 3.10206 2.06404 0
M  V30 12319 H 1133.59 4.67853 1.03202 0
M  V30 12320 H 1131.95 2.46457 0.642739 0
M  V30 12321 H 1132.74 3.34346 -0.778938 0
M  V30 12322 N 1135.18 -0.111886 1.57202 0
M  V30 12323 C 1136.13 -1.13688 2.00858 0
M  V30 12324 C 1137.1 -1.40752 0.881939 0
M  V30 12325 O 1138.28 -1.52498 1.14669 0
M  V30 12326 C 1135.42 -2.45641 2.42393 0
M  V30 12327 C 1134.54 -2.25452 3.68504 0
M  V30 12328 C 1133.67 -3.50686 3.9899 0
M  V30 12329 C 1132.71 -3.25685 5.18262 0
M  V30 12330 N 1131.85 -4.4314 5.44583 0
M  V30 12331 H 1136.69 -0.757611 2.88209 0
M  V30 12332 H 1134.22 -0.362582 1.42561 0
M  V30 12333 H 1136.18 -3.22627 2.64514 0
M  V30 12334 H 1134.81 -2.81447 1.58074 0
M  V30 12335 H 1133.86 -1.39349 3.53958 0
M  V30 12336 H 1135.18 -2.0296 4.55641 0
M  V30 12337 H 1134.33 -4.36087 4.21797 0
M  V30 12338 H 1133.07 -3.76216 3.10343 0
M  V30 12339 H 1132.07 -2.38675 4.95292 0
M  V30 12340 H 1133.3 -3.01518 6.08493 0
M  V30 12341 H 1131.24 -4.68778 4.58893 0
M  V30 12342 H 1131.16 -4.23778 6.26058 0
M  V30 12343 H 1132.43 -5.29654 5.71915 0
M  V30 12344 N 1136.66 -1.52894 -0.382264 0
M  V30 12345 C 1137.59 -1.81122 -1.47367 0
M  V30 12346 C 1138.57 -0.663653 -1.56619 0
M  V30 12347 O 1139.75 -0.911898 -1.71459 0
M  V30 12348 C 1136.88 -1.98615 -2.84902 0
M  V30 12349 C 1135.84 -3.14328 -2.90485 0
M  V30 12350 C 1135.16 -3.17086 -4.30535 0
M  V30 12351 C 1136.46 -4.53263 -2.59519 0
M  V30 12352 H 1138.16 -2.72518 -1.23993 0
M  V30 12353 H 1135.7 -1.3113 -0.595049 0
M  V30 12354 H 1137.66 -2.16946 -3.61265 0
M  V30 12355 H 1136.38 -1.03915 -3.09628 0
M  V30 12356 H 1135.04 -2.95791 -2.16572 0
M  V30 12357 H 1134.69 -2.20055 -4.52311 0
M  V30 12358 H 1134.39 -3.94821 -4.3519 0
M  V30 12359 H 1135.91 -3.3758 -5.08795 0
M  V30 12360 H 1137.33 -4.71867 -3.25598 0
M  V30 12361 H 1135.72 -5.33115 -2.75514 0
M  V30 12362 H 1136.79 -4.59516 -1.54831 0
M  V30 12363 N 1138.14 0.641106 -1.43971 0
M  V30 12364 C 1139.07 1.76645 -1.46046 0
M  V30 12365 C 1140.08 1.58881 -0.355049 0
M  V30 12366 O 1141.27 1.67379 -0.620207 0
M  V30 12367 C 1138.37 3.14237 -1.26918 0
M  V30 12368 C 1137.54 3.5855 -2.50521 0
M  V30 12369 C 1136.6 4.74986 -2.26438 0
M  V30 12370 O 1135.63 4.83807 -2.99866 0
M  V30 12371 N 1136.83 5.66016 -1.28866 0
M  V30 12372 H 1139.6 1.75339 -2.43056 0
M  V30 12373 H 1137.16 0.82535 -1.39282 0
M  V30 12374 H 1139.15 3.89837 -1.0867 0
M  V30 12375 H 1137.72 3.10244 -0.383082 0
M  V30 12376 H 1136.94 2.73265 -2.84112 0
M  V30 12377 H 1138.23 3.84906 -3.32754 0
M  V30 12378 H 1137.63 5.61574 -0.682018 0
M  V30 12379 H 1136.18 6.41286 -1.16599 0
M  V30 12380 N 1139.62 1.30703 0.880598 0
M  V30 12381 C 1140.86 1.19955 1.63519 0
M  V30 12382 C 1141.19 -0.244214 1.92658 0
M  V30 12383 O 1140.47 -1.17412 1.55063 0
M  V30 12384 C 1140.75 2.03302 2.97221 0
M  V30 12385 C 1140.61 3.55921 2.75028 0
M  V30 12386 C 1141.92 1.87421 3.98198 0
M  V30 12387 H 1139.04 0.43712 0.593376 0
M  V30 12388 H 1141.69 1.60382 1.01871 0
M  V30 12389 H 1139.84 1.68953 3.49839 0
M  V30 12390 H 1141.51 4.00352 2.29164 0
M  V30 12391 H 1139.75 3.79885 2.09452 0
M  V30 12392 H 1140.42 4.09533 3.70117 0
M  V30 12393 H 1142.9 2.17459 3.54755 0
M  V30 12394 H 1141.77 2.48057 4.89652 0
M  V30 12395 H 1142.03 0.834563 4.34151 0
M  V30 12396 N 1141.09 -1.09351 1.1349 0
M  V30 12397 C 1142.34 -1.81185 0.89535 0
M  V30 12398 C 1142.66 -1.86173 -0.580048 0
M  V30 12399 O 1141.93 -1.34784 -1.42162 0
M  V30 12400 H 1140.51 -0.671011 0.328257 0
M  V30 12401 H 1143.17 -1.32255 1.43159 0
M  V30 12402 H 1142.27 -2.84339 1.28676 0
M  V30 12403 N 1142.57 -0.928524 -1.27343 0
M  V30 12404 C 1143.82 -0.569392 -1.9433 0
M  V30 12405 C 1144.15 0.889481 -1.7297 0
M  V30 12406 O 1143.4 1.6499 -1.05247 0
M  V30 12407 C 1143.7 -0.84269 -3.47323 0
M  V30 12408 C 1143.37 -2.28344 -3.88806 0
M  V30 12409 C 1142.03 -2.67731 -3.99842 0
M  V30 12410 C 1144.38 -3.22031 -4.09811 0
M  V30 12411 C 1141.71 -3.99928 -4.29272 0
M  V30 12412 C 1144.06 -4.5381 -4.40725 0
M  V30 12413 C 1142.72 -4.93031 -4.49975 0
M  V30 12414 H 1141.99 -0.208355 -0.711104 0
M  V30 12415 H 1144.64 -1.17264 -1.51398 0
M  V30 12416 H 1142.95 -0.156775 -3.91486 0
M  V30 12417 H 1144.64 -0.543779 -3.97296 0
M  V30 12418 H 1141.23 -1.96787 -3.80753 0
M  V30 12419 H 1145.42 -2.92803 -4.00724 0
M  V30 12420 H 1140.67 -4.29996 -4.34642 0
M  V30 12421 H 1144.85 -5.26407 -4.55926 0
M  V30 12422 H 1142.47 -5.95497 -4.72533 0
M  V30 12423 N 1144.05 1.41491 -0.694123 0
M  V30 12424 C 1145.3 2.00479 -0.221585 0
M  V30 12425 C 1145.61 1.55605 1.18518 0
M  V30 12426 O 1146.82 2.07143 1.7551 0
M  V30 12427 C 1145.27 3.5824 -0.345264 0
M  V30 12428 C 1144.88 4.12096 -1.7573 0
M  V30 12429 C 1146.63 4.24446 0.0675731 0
M  V30 12430 C 1144.53 5.62286 -1.83271 0
M  V30 12431 H 1143.46 0.749841 -0.0790854 0
M  V30 12432 H 1146.11 1.61987 -0.86211 0
M  V30 12433 H 1144.5 3.94328 0.363487 0
M  V30 12434 H 1145.67 3.8743 -2.49469 0
M  V30 12435 H 1143.98 3.58411 -2.11969 0
M  V30 12436 H 1146.58 5.34691 0.0316485 0
M  V30 12437 H 1146.92 4.01338 1.10606 0
M  V30 12438 H 1147.46 3.93388 -0.59085 0
M  V30 12439 H 1144.2 5.9022 -2.85168 0
M  V30 12440 H 1143.72 5.88883 -1.13914 0
M  V30 12441 H 1145.4 6.27033 -1.59494 0
M  V30 12442 N 1145.53 0.438773 1.51369 0
M  V30 12443 C 1146.8 -0.18722 1.94702 0
M  V30 12444 C 1147.18 -1.59962 1.37752 0
M  V30 12445 O 1146.53 -2.214 0.565171 0
M  V30 12446 C 1146.74 -0.163491 3.48617 0
M  V30 12447 C 1148.09 -0.368355 4.22999 0
M  V30 12448 O 1149.11 -0.241541 3.5538 0
M  V30 12449 O 1147.97 -0.620916 5.42961 0
M  V30 12450 H 1145.07 -0.129194 0.816846 0
M  V30 12451 H 1147.61 0.496855 1.62263 0
M  V30 12452 H 1146.39 0.823882 3.82528 0
M  V30 12453 H 1146.01 -0.890414 3.87501 0
M  V30 12454 N 1147.01 -1.56678 0.170181 0
M  V30 12455 C 1148.25 -1.96849 -0.475064 0
M  V30 12456 C 1148.58 -1.05611 -1.6333 0
M  V30 12457 O 1147.84 -0.0899708 -1.95493 0
M  V30 12458 C 1148.13 -3.43103 -1.00076 0
M  V30 12459 C 1147.8 -4.50881 0.0414538 0
M  V30 12460 C 1146.46 -4.80082 0.327894 0
M  V30 12461 C 1148.81 -5.15791 0.748936 0
M  V30 12462 C 1146.14 -5.71491 1.32722 0
M  V30 12463 C 1148.49 -6.08278 1.73724 0
M  V30 12464 C 1147.16 -6.35847 2.03114 0
M  V30 12465 H 1146.43 -0.72032 -0.173838 0
M  V30 12466 H 1149.08 -1.89701 0.261903 0
M  V30 12467 H 1147.38 -3.47197 -1.81553 0
M  V30 12468 H 1149.08 -3.71525 -1.50899 0
M  V30 12469 H 1145.67 -4.2817 -0.191976 0
M  V30 12470 H 1149.85 -4.93344 0.540852 0
M  V30 12471 H 1145.11 -5.91134 1.56112 0
M  V30 12472 H 1149.28 -6.57643 2.29082 0
M  V30 12473 H 1146.91 -7.06479 2.80698 0
M  V30 12474 N 1148.48 0.103547 -1.57259 0
M  V30 12475 C 1149.73 0.809774 -1.85931 0
M  V30 12476 C 1150.06 1.78791 -0.758122 0
M  V30 12477 O 1149.34 1.93079 0.234682 0
M  V30 12478 C 1149.62 1.54601 -3.25224 0
M  V30 12479 C 1149.47 0.586439 -4.45961 0
M  V30 12480 C 1150.79 2.4986 -3.62296 0
M  V30 12481 H 1147.91 0.29293 -0.676285 0
M  V30 12482 H 1150.55 0.0736065 -1.89857 0
M  V30 12483 H 1148.7 2.17355 -3.22008 0
M  V30 12484 H 1150.38 -0.0334441 -4.61288 0
M  V30 12485 H 1148.62 -0.10085 -4.33683 0
M  V30 12486 H 1149.29 1.13855 -5.40131 0
M  V30 12487 H 1151.77 1.97203 -3.66402 0
M  V30 12488 H 1150.64 2.98396 -4.60707 0
M  V30 12489 H 1150.9 3.33233 -2.90531 0
M  V30 12490 N 1149.96 1.53094 0.37415 0
M  V30 12491 C 1151.2 1.70558 1.12647 0
M  V30 12492 C 1151.57 0.443515 1.86807 0
M  V30 12493 O 1152.77 0.49472 2.64208 0
M  V30 12494 C 1151.04 2.91565 2.06699 0
M  V30 12495 S 1152.6 3.29692 2.89567 0
M  V30 12496 H 1149.41 0.600238 0.381097 0
M  V30 12497 H 1152.02 1.91177 0.408865 0
M  V30 12498 H 1150.72 3.81625 1.50965 0
M  V30 12499 H 1150.25 2.73323 2.82945 0
M  V30 12500 H 1152.27 2.81036 4.08942 0
M  V30 12501 N 1151.44 -0.633461 1.44309 0
M  V30 12502 C 1152.67 -1.42033 1.50447 0
M  V30 12503 C 1153.08 -1.88362 0.128585 0
M  V30 12504 O 1152.44 -1.60695 -0.865071 0
M  V30 12505 C 1152.49 -2.6422 2.46719 0
M  V30 12506 O 1152.21 -2.19823 3.78958 0
M  V30 12507 C 1153.71 -3.57372 2.62298 0
M  V30 12508 H 1150.93 -0.435667 0.510329 0
M  V30 12509 H 1153.48 -0.774907 1.8925 0
M  V30 12510 H 1151.63 -3.24859 2.11058 0
M  V30 12511 H 1152.05 -2.99022 4.30913 0
M  V30 12512 H 1153.52 -4.39719 3.33693 0
M  V30 12513 H 1154 -4.06026 1.67449 0
M  V30 12514 H 1154.6 -3.02603 2.9885 0
M  V30 12515 N 1152.92 -1.31168 -0.873655 0
M  V30 12516 C 1154.17 -1.20642 -1.6264 0
M  V30 12517 C 1154.49 0.236286 -1.93059 0
M  V30 12518 O 1153.75 1.18401 -1.55819 0
M  V30 12519 C 1154.05 -1.99204 -2.96736 0
M  V30 12520 C 1153.71 -3.48734 -2.85824 0
M  V30 12521 C 1152.38 -3.89507 -2.82555 0
M  V30 12522 C 1154.73 -4.43905 -2.73127 0
M  V30 12523 C 1152.06 -5.23724 -2.64442 0
M  V30 12524 C 1154.41 -5.78242 -2.56551 0
M  V30 12525 C 1153.07 -6.18241 -2.51663 0
M  V30 12526 H 1152.34 -0.44146 -0.595142 0
M  V30 12527 H 1154.99 -1.62394 -1.01492 0
M  V30 12528 H 1153.29 -1.50122 -3.61899 0
M  V30 12529 H 1154.99 -1.88443 -3.53963 0
M  V30 12530 H 1151.58 -3.1634 -2.89184 0
M  V30 12531 H 1155.76 -4.13338 -2.7471 0
M  V30 12532 H 1151.02 -5.53794 -2.59081 0
M  V30 12533 H 1155.19 -6.51616 -2.45702 0
M  V30 12534 H 1152.82 -7.22185 -2.37387 0
M  V30 12535 N 1154.4 1.08748 -1.14068 0
M  V30 12536 C 1155.64 1.81333 -0.908081 0
M  V30 12537 C 1155.98 1.85826 0.564112 0
M  V30 12538 O 1155.25 1.33157 1.41773 0
M  V30 12539 C 1155.53 3.27127 -1.50531 0
M  V30 12540 C 1155.39 3.30865 -3.04711 0
M  V30 12541 C 1156.71 4.24006 -1.17928 0
M  V30 12542 H 1153.82 0.658326 -0.331325 0
M  V30 12543 H 1156.47 1.27345 -1.41008 0
M  V30 12544 H 1154.62 3.73233 -1.07839 0
M  V30 12545 H 1156.29 2.93109 -3.56209 0
M  V30 12546 H 1154.53 2.70241 -3.39341 0
M  V30 12547 H 1155.2 4.33603 -3.41603 0
M  V30 12548 H 1157.68 3.86221 -1.54831 0
M  V30 12549 H 1156.55 5.2434 -1.62353 0
M  V30 12550 H 1156.82 4.42 -0.0940349 0
M  V30 12551 N 1155.87 0.935264 1.26849 0
M  V30 12552 C 1157.1 0.595384 1.97835 0
M  V30 12553 C 1157.51 -0.832605 1.69895 0
M  V30 12554 O 1156.86 -1.56597 0.960371 0
M  V30 12555 C 1156.92 0.750567 3.51578 0
M  V30 12556 C 1156.58 2.15208 4.03156 0
M  V30 12557 C 1157.58 3.12699 4.15349 0
M  V30 12558 C 1155.26 2.47106 4.37314 0
M  V30 12559 C 1157.26 4.40193 4.60987 0
M  V30 12560 C 1154.94 3.74834 4.82641 0
M  V30 12561 C 1155.94 4.7119 4.94438 0
M  V30 12562 O 1155.63 5.96644 5.38768 0
M  V30 12563 H 1155.36 0.223734 0.637902 0
M  V30 12564 H 1157.92 1.25663 1.62475 0
M  V30 12565 H 1156.15 0.0322039 3.86687 0
M  V30 12566 H 1157.84 0.414625 4.03777 0
M  V30 12567 H 1158.6 2.89378 3.89211 0
M  V30 12568 H 1154.48 1.72846 4.2737 0
M  V30 12569 H 1158.02 5.15406 4.70109 0
M  V30 12570 H 1153.92 3.9797 5.08222 0
M  V30 12571 H 1154.69 5.99741 5.57003 0
M  V30 12572 N 1157.35 -1.41121 0.701616 0
M  V30 12573 C 1158.3 -2.30765 0.040121 0
M  V30 12574 C 1159.27 -1.47436 -0.764975 0
M  V30 12575 O 1160.45 -1.76209 -0.731775 0
M  V30 12576 C 1157.59 -3.33535 -0.885903 0
M  V30 12577 C 1156.71 -4.3194 -0.0717765 0
M  V30 12578 C 1155.84 -5.21779 -0.995996 0
M  V30 12579 C 1154.88 -6.11849 -0.175133 0
M  V30 12580 N 1154.02 -6.94151 -1.05348 0
M  V30 12581 H 1158.86 -2.86772 0.810312 0
M  V30 12582 H 1156.4 -1.41233 0.411301 0
M  V30 12583 H 1158.35 -3.91675 -1.4369 0
M  V30 12584 H 1156.98 -2.79065 -1.62243 0
M  V30 12585 H 1156.04 -3.75698 0.596221 0
M  V30 12586 H 1157.35 -4.95597 0.56435 0
M  V30 12587 H 1156.5 -5.84782 -1.61601 0
M  V30 12588 H 1155.24 -4.58363 -1.66597 0
M  V30 12589 H 1154.25 -5.4789 0.457916 0
M  V30 12590 H 1155.47 -6.77322 0.491133 0
M  V30 12591 H 1153.42 -6.33338 -1.70936 0
M  V30 12592 H 1153.33 -7.54518 -0.473065 0
M  V30 12593 H 1154.6 -7.61617 -1.66012 0
M  V30 12594 N 1158.83 -0.446794 -1.51134 0
M  V30 12595 C 1159.74 0.36579 -2.31731 0
M  V30 12596 C 1160.76 1.01886 -1.41051 0
M  V30 12597 O 1161.93 1.01216 -1.74119 0
M  V30 12598 C 1159 1.44705 -3.15058 0
M  V30 12599 C 1158.06 0.813129 -4.21529 0
M  V30 12600 C 1157.29 1.84287 -5.00873 0
M  V30 12601 O 1157.51 3.06633 -4.8097 0
M  V30 12602 O 1156.45 1.42816 -5.84711 0
M  V30 12603 H 1160.27 -0.292436 -3.02289 0
M  V30 12604 H 1157.86 -0.209129 -1.47929 0
M  V30 12605 H 1159.74 2.07393 -3.66833 0
M  V30 12606 H 1158.42 2.08919 -2.47254 0
M  V30 12607 H 1157.32 0.147953 -3.73807 0
M  V30 12608 H 1158.66 0.214331 -4.91733 0
M  V30 12609 N 1160.31 1.56586 -0.178487 0
M  V30 12610 C 1161.56 1.97098 0.464617 0
M  V30 12611 C 1161.88 1.06476 1.62767 0
M  V30 12612 O 1161.14 0.100337 1.95443 0
M  V30 12613 C 1161.44 3.43629 0.982552 0
M  V30 12614 C 1161.1 4.50853 -0.0653645 0
M  V30 12615 C 1159.77 4.79901 -0.353349 0
M  V30 12616 C 1162.12 5.15387 -0.776279 0
M  V30 12617 C 1159.45 5.70779 -1.35751 0
M  V30 12618 C 1161.8 6.07349 -1.76948 0
M  V30 12619 C 1160.46 6.34761 -2.06483 0
M  V30 12620 H 1159.73 0.721232 0.170016 0
M  V30 12621 H 1162.38 1.89559 -0.271959 0
M  V30 12622 H 1160.68 3.48155 1.79709 0
M  V30 12623 H 1162.38 3.7232 1.48926 0
M  V30 12624 H 1158.97 4.28266 0.169266 0
M  V30 12625 H 1163.15 4.9305 -0.567008 0
M  V30 12626 H 1158.41 5.90298 -1.59244 0
M  V30 12627 H 1162.58 6.56419 -2.32567 0
M  V30 12628 H 1160.21 7.0498 -2.84441 0
M  V30 12629 N 1161.79 -0.095206 1.57312 0
M  V30 12630 C 1163.01 -0.81614 1.90667 0
M  V30 12631 C 1163.44 -1.71494 0.772746 0
M  V30 12632 O 1162.79 -1.79192 -0.275682 0
M  V30 12633 C 1162.84 -1.60555 3.22885 0
M  V30 12634 O 1161.95 -2.71448 3.10467 0
M  V30 12635 H 1161.29 -0.224217 0.624998 0
M  V30 12636 H 1163.82 -0.070464 2.04479 0
M  V30 12637 H 1163.83 -1.98979 3.5619 0
M  V30 12638 H 1162.5 -0.945918 4.05 0
M  V30 12639 H 1161.08 -2.36053 2.88675 0
M  V30 12640 N 1163.26 -1.53291 -0.366026 0
M  V30 12641 C 1164.68 -1.43053 -0.707669 0
M  V30 12642 C 1164.88 -0.56925 -1.93292 0
M  V30 12643 O 1163.94 -0.0515214 -2.52447 0
M  V30 12644 C 1165.25 -2.86239 -0.921292 0
M  V30 12645 C 1166.8 -2.95868 -1.02133 0
M  V30 12646 C 1167.27 -4.40114 -1.26743 0
M  V30 12647 N 1168.76 -4.43541 -1.33514 0
M  V30 12648 C 1169.5 -5.52259 -1.54264 0
M  V30 12649 N 1168.99 -6.71024 -1.72335 0
M  V30 12650 N 1170.79 -5.39836 -1.5663 0
M  V30 12651 H 1162.94 -2.07795 0.43988 0
M  V30 12652 H 1165.2 -0.938376 0.134736 0
M  V30 12653 H 1164.91 -3.51578 -0.0928042 0
M  V30 12654 H 1164.78 -3.29862 -1.82951 0
M  V30 12655 H 1167.17 -2.30683 -1.84036 0
M  V30 12656 H 1167.25 -2.5564 -0.0905097 0
M  V30 12657 H 1166.89 -5.05872 -0.453409 0
M  V30 12658 H 1166.82 -4.77914 -2.21146 0
M  V30 12659 H 1169.31 -3.57949 -1.21165 0
M  V30 12660 H 1169.63 -7.49649 -1.8774 0
M  V30 12661 H 1167.97 -6.7401 -1.69514 0
M  V30 12662 H 1171.16 -4.46017 -1.4208 0
M  V30 12663 H 1171.34 -6.24629 -1.72461 0
M  V30 12664 N 1164.74 0.6258 -1.44643 0
M  V30 12665 C 1165.99 1.38525 -1.47706 0
M  V30 12666 C 1166.32 1.94179 -0.111703 0
M  V30 12667 O 1165.57 1.74432 0.887237 0
M  V30 12668 C 1165.87 2.56466 -2.48917 0
M  V30 12669 C 1165.54 2.19069 -3.94106 0
M  V30 12670 C 1164.2 2.08583 -4.33643 0
M  V30 12671 C 1166.55 1.89608 -4.85488 0
M  V30 12672 C 1163.88 1.66831 -5.6248 0
M  V30 12673 C 1166.23 1.49347 -6.14718 0
M  V30 12674 C 1164.9 1.37406 -6.53204 0
M  V30 12675 H 1164.17 0.506899 -0.540494 0
M  V30 12676 H 1166.81 0.709128 -1.77887 0
M  V30 12677 H 1165.12 3.29335 -2.12239 0
M  V30 12678 H 1166.81 3.14695 -2.48532 0
M  V30 12679 H 1163.4 2.28151 -3.62829 0
M  V30 12680 H 1167.59 1.96616 -4.55693 0
M  V30 12681 H 1162.84 1.56195 -5.91112 0
M  V30 12682 H 1167.02 1.2559 -6.84982 0
M  V30 12683 H 1164.65 1.04826 -7.52938 0
M  V30 12684 N 1166.22 1.31629 0.866686 0
M  V30 12685 C 1167.17 1.16149 1.96197 0
M  V30 12686 C 1168.15 0.0716068 1.60741 0
M  V30 12687 O 1169.35 0.296868 1.74493 0
M  V30 12688 C 1166.48 0.874322 3.3198 0
M  V30 12689 C 1165.56 2.00534 3.73693 0
M  V30 12690 N 1165.95 3.25272 3.87339 0
M  V30 12691 C 1164.25 1.90582 4.0323 0
M  V30 12692 C 1164.95 3.99275 4.2303 0
M  V30 12693 N 1163.93 3.27471 4.33894 0
M  V30 12694 H 1167.73 2.10732 2.04864 0
M  V30 12695 H 1165.24 1.23234 1.05769 0
M  V30 12696 H 1167.24 0.7444 4.102 0
M  V30 12697 H 1165.9 -0.0632521 3.24638 0
M  V30 12698 H 1166.91 3.60349 3.71979 0
M  V30 12699 H 1163.59 1.0431 4.0426 0
M  V30 12700 H 1164.98 5.06784 4.41157 0
M  V30 12701 N 1167.7 -1.08142 1.14644 0
M  V30 12702 C 1168.61 -2.18675 0.849607 0
M  V30 12703 C 1169.63 -1.73158 -0.170983 0
M  V30 12704 O 1170.8 -2.014 0.0011579 0
M  V30 12705 C 1167.87 -3.45084 0.334305 0
M  V30 12706 C 1166.93 -4.05213 1.41779 0
M  V30 12707 C 1166.16 -5.25588 0.926981 0
M  V30 12708 O 1166.38 -5.69934 -0.230522 0
M  V30 12709 O 1165.32 -5.77183 1.70715 0
M  V30 12710 H 1169.14 -2.46542 1.77343 0
M  V30 12711 H 1166.73 -1.17328 0.924911 0
M  V30 12712 H 1168.61 -4.21367 0.0529893 0
M  V30 12713 H 1167.29 -3.18788 -0.561755 0
M  V30 12714 H 1166.19 -3.30507 1.7526 0
M  V30 12715 H 1167.53 -4.35764 2.28847 0
M  V30 12716 N 1169.18 -0.941978 -1.26351 0
M  V30 12717 C 1170.09 -0.45833 -2.30079 0
M  V30 12718 C 1171.1 0.468084 -1.67586 0
M  V30 12719 O 1172.28 0.347418 -1.98381 0
M  V30 12720 C 1169.34 0.26797 -3.45663 0
M  V30 12721 C 1168.41 -0.695102 -4.23635 0
M  V30 12722 C 1167.64 -0.003369 -5.337 0
M  V30 12723 O 1167.86 1.21342 -5.57344 0
M  V30 12724 O 1166.8 -0.682476 -5.98018 0
M  V30 12725 H 1170.62 -1.31998 -2.73514 0
M  V30 12726 H 1168.21 -0.707897 -1.31564 0
M  V30 12727 H 1170.09 0.677061 -4.15925 0
M  V30 12728 H 1168.76 1.105 -3.04256 0
M  V30 12729 H 1167.67 -1.15415 -3.55851 0
M  V30 12730 H 1169 -1.49977 -4.68794 0
M  V30 12731 N 1170.66 1.40747 -0.709091 0
M  V30 12732 C 1171.9 2.00233 -0.242836 0
M  V30 12733 C 1172.22 1.56853 1.1686 0
M  V30 12734 O 1173.42 2.08993 1.73304 0
M  V30 12735 C 1171.88 3.57854 -0.383241 0
M  V30 12736 C 1171.49 4.10209 -1.80091 0
M  V30 12737 C 1173.23 4.24494 0.0225511 0
M  V30 12738 C 1171.14 5.60311 -1.89225 0
M  V30 12739 H 1170.07 0.74896 -0.087034 0
M  V30 12740 H 1172.72 1.61064 -0.879243 0
M  V30 12741 H 1171.1 3.94692 0.321642 0
M  V30 12742 H 1172.28 3.84762 -2.53564 0
M  V30 12743 H 1170.59 3.56142 -2.15758 0
M  V30 12744 H 1173.19 5.34694 -0.0250644 0
M  V30 12745 H 1173.53 4.02488 1.06344 0
M  V30 12746 H 1174.06 3.92739 -0.632541 0
M  V30 12747 H 1170.8 5.87162 -2.91412 0
M  V30 12748 H 1170.32 5.87642 -1.20154 0
M  V30 12749 H 1172 6.25306 -1.66136 0
M  V30 12750 N 1172.13 0.454803 1.50895 0
M  V30 12751 C 1173.06 -0.337982 2.31041 0
M  V30 12752 C 1174.04 -1.00523 1.37219 0
M  V30 12753 O 1175.23 -1.00553 1.66141 0
M  V30 12754 C 1172.36 -1.42964 3.1651 0
M  V30 12755 C 1171.31 -0.884907 4.18752 0
M  V30 12756 C 1170.64 -2.07363 4.92854 0
M  V30 12757 C 1171.94 0.0926716 5.22218 0
M  V30 12758 H 1173.63 0.33089 2.97566 0
M  V30 12759 H 1171.18 0.160577 1.43102 0
M  V30 12760 H 1173.13 -1.9916 3.71367 0
M  V30 12761 H 1171.86 -2.12705 2.47839 0
M  V30 12762 H 1170.52 -0.345031 3.64973 0
M  V30 12763 H 1170.16 -2.75764 4.2067 0
M  V30 12764 H 1169.86 -1.71545 5.62002 0
M  V30 12765 H 1171.39 -2.6408 5.5054 0
M  V30 12766 H 1172.8 -0.379568 5.72042 0
M  V30 12767 H 1171.2 0.3643 5.98993 0
M  V30 12768 H 1172.27 1.02383 4.73968 0
M  V30 12769 N 1173.61 -1.56489 0.186789 0
M  V30 12770 C 1175.02 -1.83809 -0.327265 0
M  V30 12771 C 1175.37 -1.10718 -1.61976 0
M  V30 12772 O 1174.5 -0.36525 -2.13295 0
M  V30 12773 C 1175.09 -3.33435 -0.600551 0
M  V30 12774 C 1173.65 -3.61195 -1.059 0
M  V30 12775 C 1172.8 -2.77108 -0.103131 0
M  V30 12776 H 1175.75 -1.53292 0.410747 0
M  V30 12777 H 1175.77 -3.51754 -1.45084 0
M  V30 12778 H 1175.28 -3.86605 0.340315 0
M  V30 12779 H 1173.38 -3.13451 -2.01443 0
M  V30 12780 H 1173.5 -4.69435 -0.957458 0
M  V30 12781 H 1171.86 -2.47448 -0.603449 0
M  V30 12782 H 1172.64 -3.33065 0.832031 0
M  V30 12783 N 1175.09 0.086862 -1.5736 0
M  V30 12784 C 1176.02 1.13614 -1.97907 0
M  V30 12785 C 1177 1.38395 -0.853564 0
M  V30 12786 O 1178.18 1.52018 -1.11457 0
M  V30 12787 C 1175.31 2.48364 -2.30289 0
M  V30 12788 C 1174.36 2.39814 -3.52692 0
M  V30 12789 S 1175.19 1.80673 -5.04101 0
M  V30 12790 C 1176.35 3.17031 -5.39669 0
M  V30 12791 H 1176.58 0.790538 -2.86597 0
M  V30 12792 H 1174.11 0.294847 -1.51559 0
M  V30 12793 H 1176.07 3.25883 -2.49621 0
M  V30 12794 H 1174.73 2.80091 -1.42154 0
M  V30 12795 H 1173.92 3.3915 -3.72818 0
M  V30 12796 H 1173.53 1.70427 -3.32912 0
M  V30 12797 H 1175.82 4.13319 -5.36818 0
M  V30 12798 H 1176.76 3.017 -6.40611 0
M  V30 12799 H 1177.17 3.16942 -4.67128 0
M  V30 12800 N 1176.57 1.53483 0.357892 0
M  V30 12801 C 1177.81 1.70037 1.09971 0
M  V30 12802 C 1178.14 0.456112 1.89076 0
M  V30 12803 O 1177.4 -0.562029 1.87456 0
M  V30 12804 C 1177.7 2.90654 2.07978 0
M  V30 12805 C 1177.36 4.26849 1.45295 0
M  V30 12806 C 1176.02 4.63884 1.27928 0
M  V30 12807 C 1178.38 5.11514 1.00013 0
M  V30 12808 C 1175.7 5.83213 0.638745 0
M  V30 12809 C 1178.06 6.31496 0.373568 0
M  V30 12810 C 1176.72 6.67237 0.187457 0
M  V30 12811 H 1175.99 0.622209 0.402414 0
M  V30 12812 H 1178.64 1.87679 0.380615 0
M  V30 12813 H 1176.94 2.67556 2.86219 0
M  V30 12814 H 1178.64 3.00656 2.65343 0
M  V30 12815 H 1175.23 3.97693 1.59807 0
M  V30 12816 H 1179.41 4.83446 1.12221 0
M  V30 12817 H 1174.67 6.09489 0.483035 0
M  V30 12818 H 1178.84 6.96398 0.0145346 0
M  V30 12819 H 1176.47 7.59564 -0.310933 0
M  V30 12820 N 1178.05 -0.61812 1.44973 0
M  V30 12821 C 1179.32 -1.37705 1.38913 0
M  V30 12822 C 1179.7 -2.1103 0.054385 0
M  V30 12823 O 1179.05 -2.07197 -0.963409 0
M  V30 12824 C 1179.26 -2.33265 2.59593 0
M  V30 12825 C 1180.61 -2.96197 3.04224 0
M  V30 12826 O 1181.63 -2.43589 2.59891 0
M  V30 12827 O 1180.49 -3.91666 3.8113 0
M  V30 12828 H 1177.59 -0.61694 0.55074 0
M  V30 12829 H 1180.13 -0.642088 1.57084 0
M  V30 12830 H 1178.9 -1.78271 3.48332 0
M  V30 12831 H 1178.53 -3.14158 2.43702 0
M  V30 12832 N 1179.52 -1.32087 -0.859693 0
M  V30 12833 C 1180.94 -1.10968 -1.14709 0
M  V30 12834 C 1181.14 0.113139 -2.01182 0
M  V30 12835 O 1180.2 0.799499 -2.39508 0
M  V30 12836 C 1181.51 -2.38657 -1.8293 0
M  V30 12837 C 1183.06 -2.44366 -1.95587 0
M  V30 12838 C 1183.53 -3.71963 -2.67222 0
M  V30 12839 N 1185.02 -3.72916 -2.7475 0
M  V30 12840 C 1185.76 -4.68346 -3.30816 0
M  V30 12841 N 1185.25 -5.74139 -3.87732 0
M  V30 12842 N 1187.05 -4.55851 -3.28872 0
M  V30 12843 H 1179.2 -2.10497 -0.283711 0
M  V30 12844 H 1181.46 -0.929108 -0.188315 0
M  V30 12845 H 1181.17 -3.2803 -1.26844 0
M  V30 12846 H 1181.04 -2.49236 -2.83128 0
M  V30 12847 H 1183.43 -1.55456 -2.50833 0
M  V30 12848 H 1183.51 -2.37744 -0.944001 0
M  V30 12849 H 1183.15 -4.61245 -2.1264 0
M  V30 12850 H 1183.08 -3.75855 -3.68837 0
M  V30 12851 H 1185.57 -2.96447 -2.34367 0
M  V30 12852 H 1185.89 -6.43021 -4.28654 0
M  V30 12853 H 1184.23 -5.779 -3.86078 0
M  V30 12854 H 1187.42 -3.72371 -2.83651 0
M  V30 12855 H 1187.6 -5.30398 -3.72266 0
M  V30 12856 N 1181 1.07532 -1.15215 0
M  V30 12857 C 1181.93 2.1668 -0.870171 0
M  V30 12858 C 1182.91 1.69161 0.178483 0
M  V30 12859 O 1184.1 1.94172 0.0332489 0
M  V30 12860 C 1181.23 3.45464 -0.356666 0
M  V30 12861 C 1180.18 4.06424 -1.34179 0
M  V30 12862 C 1179.51 5.30266 -0.687206 0
M  V30 12863 C 1180.81 4.46666 -2.70715 0
M  V30 12864 H 1182.5 2.40526 -1.7829 0
M  V30 12865 H 1180.05 1.15598 -0.858665 0
M  V30 12866 H 1182 4.21144 -0.146947 0
M  V30 12867 H 1180.72 3.21199 0.591527 0
M  V30 12868 H 1179.38 3.32786 -1.53783 0
M  V30 12869 H 1179.03 5.0229 0.267077 0
M  V30 12870 H 1178.73 5.72009 -1.34462 0
M  V30 12871 H 1180.26 6.08653 -0.487218 0
M  V30 12872 H 1181.67 5.13483 -2.54966 0
M  V30 12873 H 1180.07 4.99355 -3.32813 0
M  V30 12874 H 1181.14 3.58123 -3.26919 0
M  V30 12875 N 1182.48 0.948665 1.2585 0
M  V30 12876 C 1183.41 0.421458 2.25292 0
M  V30 12877 C 1184.43 -0.459389 1.56184 0
M  V30 12878 O 1185.61 -0.268627 1.76467 0
M  V30 12879 C 1182.71 -0.412653 3.36378 0
M  V30 12880 C 1181.89 0.453792 4.3504 0
M  V30 12881 C 1180.95 -0.321127 5.25219 0
M  V30 12882 O 1179.97 0.278424 5.68519 0
M  V30 12883 N 1181.17 -1.61576 5.5756 0
M  V30 12884 H 1183.94 1.27636 2.71162 0
M  V30 12885 H 1181.5 0.818367 1.39694 0
M  V30 12886 H 1183.49 -0.938637 3.93664 0
M  V30 12887 H 1182.06 -1.16839 2.89944 0
M  V30 12888 H 1181.28 1.16093 3.76718 0
M  V30 12889 H 1182.57 1.04538 4.97945 0
M  V30 12890 H 1181.97 -2.12488 5.24276 0
M  V30 12891 H 1180.53 -2.08783 6.17457 0
M  V30 12892 N 1183.96 -1.40369 0.716545 0
M  V30 12893 C 1184.91 -2.32539 0.053472 0
M  V30 12894 C 1185.9 -1.5209 -0.745984 0
M  V30 12895 O 1187.11 -1.67883 -0.649245 0
M  V30 12896 H 1183.48 -0.751998 -0.00151088 0
M  V30 12897 H 1185.45 -2.86111 0.847535 0
M  V30 12898 C 1184.2 -3.37061 -0.853515 0
M  V30 12899 H 1183.52 -3.99032 -0.247754 0
M  V30 12900 H 1184.96 -4.04046 -1.28541 0
M  V30 12901 C 1183.42 -2.72619 -1.97941 0
M  V30 12902 O 1183.95 -2.59024 -3.07033 0
M  V30 12903 N 1182.16 -2.30988 -1.76332 0
M  V30 12904 H 1181.71 -2.42246 -0.876063 0
M  V30 12905 H 1181.66 -1.88209 -2.51843 0
M  V30 12906 N 1185.44 -0.462799 -1.50652 0
M  V30 12907 C 1186.38 0.349784 -2.29955 0
M  V30 12908 C 1187.38 0.997947 -1.36885 0
M  V30 12909 O 1188.58 0.93 -1.54114 0
M  V30 12910 H 1184.96 0.131635 -0.740389 0
M  V30 12911 H 1186.93 -0.33958 -2.96461 0
M  V30 12912 C 1185.68 1.42398 -3.17204 0
M  V30 12913 H 1185 0.934611 -3.88722 0
M  V30 12914 H 1186.44 1.96528 -3.75703 0
M  V30 12915 C 1184.9 2.42135 -2.34248 0
M  V30 12916 O 1185.43 3.47229 -2.01978 0
M  V30 12917 N 1183.64 2.13647 -1.96985 0
M  V30 12918 H 1183.18 1.28209 -2.23428 0
M  V30 12919 H 1183.14 2.80615 -1.41783 0
M  V30 12920 N 1186.91 1.56388 -0.195085 0
M  V30 12921 C 1188.33 1.58788 0.160758 0
M  V30 12922 C 1188.53 1.21125 1.61031 0
M  V30 12923 O 1187.59 0.933994 2.34591 0
M  V30 12924 C 1188.9 3.00366 -0.141588 0
M  V30 12925 C 1190.45 3.12893 -0.0816947 0
M  V30 12926 C 1190.92 4.56604 -0.35735 0
M  V30 12927 N 1192.41 4.62188 -0.305968 0
M  V30 12928 C 1193.15 5.71276 -0.493108 0
M  V30 12929 N 1192.64 6.8883 -0.740595 0
M  V30 12930 N 1194.44 5.60473 -0.427365 0
M  V30 12931 H 1186.59 1.79151 -1.14099 0
M  V30 12932 H 1188.85 0.831446 -0.455413 0
M  V30 12933 H 1188.56 3.32483 -1.14666 0
M  V30 12934 H 1188.43 3.73082 0.555834 0
M  V30 12935 H 1190.82 2.80589 0.913978 0
M  V30 12936 H 1190.9 2.42564 -0.812193 0
M  V30 12937 H 1190.54 4.8962 -1.35034 0
M  V30 12938 H 1190.47 5.25124 0.394036 0
M  V30 12939 H 1192.96 3.77705 -0.121298 0
M  V30 12940 H 1193.28 7.67862 -0.872201 0
M  V30 12941 H 1191.62 6.90637 -0.777488 0
M  V30 12942 H 1194.81 4.67513 -0.234436 0
M  V30 12943 H 1194.99 6.45429 -0.576627 0
M  V30 12944 N 1188.39 -0.0785156 1.57404 0
M  V30 12945 C 1189.34 -1.09402 2.03224 0
M  V30 12946 C 1190.31 -1.38849 0.911596 0
M  V30 12947 O 1191.49 -1.50031 1.17878 0
M  V30 12948 C 1188.63 -2.40444 2.47549 0
M  V30 12949 C 1187.75 -2.17585 3.73203 0
M  V30 12950 C 1186.88 -3.42143 4.06339 0
M  V30 12951 C 1185.92 -3.14619 5.25054 0
M  V30 12952 N 1185.06 -4.31489 5.5386 0
M  V30 12953 H 1189.9 -0.696307 2.89751 0
M  V30 12954 H 1187.44 -0.332261 1.43298 0
M  V30 12955 H 1189.39 -3.16944 2.71298 0
M  V30 12956 H 1188.02 -2.78031 1.64009 0
M  V30 12957 H 1187.08 -1.3181 3.56834 0
M  V30 12958 H 1188.39 -1.93249 4.59844 0
M  V30 12959 H 1187.54 -4.27042 4.30953 0
M  V30 12960 H 1186.28 -3.69549 3.18253 0
M  V30 12961 H 1185.29 -2.28116 5.00243 0
M  V30 12962 H 1186.51 -2.88543 6.14752 0
M  V30 12963 H 1184.46 -4.58939 4.68734 0
M  V30 12964 H 1184.37 -4.10403 6.34906 0
M  V30 12965 H 1185.64 -5.17404 5.83021 0
M  V30 12966 N 1189.87 -1.5367 -0.349747 0
M  V30 12967 C 1190.78 -1.84207 -1.45275 0
M  V30 12968 C 1191.8 -0.731695 -1.57868 0
M  V30 12969 O 1192.97 -1.02337 -1.73462 0
M  V30 12970 C 1190.04 -2.0398 -2.80345 0
M  V30 12971 C 1189.1 -3.27853 -2.77148 0
M  V30 12972 C 1188.33 -3.46673 -4.05775 0
M  V30 12973 O 1188.55 -2.69457 -5.02741 0
M  V30 12974 O 1187.49 -4.40082 -4.10623 0
M  V30 12975 H 1191.31 -2.77947 -1.22389 0
M  V30 12976 H 1188.9 -1.39247 -0.541345 0
M  V30 12977 H 1190.78 -2.18466 -3.60348 0
M  V30 12978 H 1189.46 -1.13429 -3.03176 0
M  V30 12979 H 1188.36 -3.18776 -1.95787 0
M  V30 12980 H 1189.7 -4.18377 -2.59271 0
M  V30 12981 N 1191.35 0.610423 -1.45298 0
M  V30 12982 C 1192.59 1.36959 -1.50379 0
M  V30 12983 C 1192.95 1.91872 -0.142378 0
M  V30 12984 O 1192.24 1.71944 0.845332 0
M  V30 12985 C 1192.44 2.53812 -2.51623 0
M  V30 12986 C 1192.27 2.10341 -3.97476 0
M  V30 12987 C 1191.04 1.96646 -4.65466 0
M  V30 12988 C 1193.23 1.67982 -4.86093 0
M  V30 12989 N 1191.22 1.46956 -5.96051 0
M  V30 12990 C 1192.59 1.29686 -6.06285 0
M  V30 12991 C 1194.64 1.55548 -4.72979 0
M  V30 12992 C 1193.34 0.801985 -7.14815 0
M  V30 12993 C 1195.37 1.07465 -5.81554 0
M  V30 12994 C 1194.73 0.701317 -7.009 0
M  V30 12995 H 1190.83 0.495191 -0.605236 0
M  V30 12996 H 1193.42 0.698121 -1.81754 0
M  V30 12997 H 1191.59 3.18558 -2.22205 0
M  V30 12998 H 1193.32 3.20683 -2.4687 0
M  V30 12999 H 1190.07 2.17743 -4.20577 0
M  V30 13000 H 1190.5 1.2435 -6.65482 0
M  V30 13001 H 1195.14 1.83038 -3.81126 0
M  V30 13002 H 1192.86 0.514634 -8.0646 0
M  V30 13003 H 1196.44 0.98274 -5.7344 0
M  V30 13004 H 1195.32 0.334967 -7.83484 0
M  V30 13005 N 1192.83 1.32541 0.852676 0
M  V30 13006 C 1193.77 1.21643 1.96142 0
M  V30 13007 C 1194.74 0.0981496 1.6581 0
M  V30 13008 O 1195.93 0.27404 1.88822 0
M  V30 13009 C 1193.07 0.947483 3.31838 0
M  V30 13010 C 1192.18 2.15074 3.74656 0
M  V30 13011 C 1191.32 1.81711 4.99154 0
M  V30 13012 C 1190.36 2.98346 5.34468 0
M  V30 13013 N 1189.49 2.65062 6.50143 0
M  V30 13014 H 1194.33 2.16479 2.04795 0
M  V30 13015 H 1191.87 1.07664 1.00234 0
M  V30 13016 H 1193.83 0.772038 4.09994 0
M  V30 13017 H 1192.46 0.0359112 3.2278 0
M  V30 13018 H 1191.51 2.43639 2.92137 0
M  V30 13019 H 1192.82 3.02314 3.96747 0
M  V30 13020 H 1191.98 1.60729 5.85022 0
M  V30 13021 H 1190.71 0.916875 4.79004 0
M  V30 13022 H 1189.72 3.19956 4.47111 0
M  V30 13023 H 1190.94 3.89104 5.56574 0
M  V30 13024 H 1188.89 1.77582 6.31507 0
M  V30 13025 H 1188.81 3.45832 6.72262 0
M  V30 13026 H 1190.08 2.47516 7.39159 0
M  V30 13027 N 1194.3 -1.0692 1.15784 0
M  V30 13028 C 1195.27 -2.12407 0.861167 0
M  V30 13029 C 1196.27 -1.6018 -0.141031 0
M  V30 13030 O 1197.46 -1.73972 0.0891192 0
M  V30 13031 C 1194.59 -3.39693 0.286636 0
M  V30 13032 H 1195.78 -2.40157 1.79623 0
M  V30 13033 H 1193.34 -1.22881 0.965916 0
M  V30 13034 H 1194.07 -3.17587 -0.656417 0
M  V30 13035 H 1193.86 -3.78903 1.0087 0
M  V30 13036 H 1195.35 -4.17488 0.0967971 0
M  V30 13037 N 1195.78 -0.955326 -1.25345 0
M  V30 13038 C 1196.71 -0.494145 -2.28211 0
M  V30 13039 C 1197.69 0.459875 -1.63766 0
M  V30 13040 O 1198.88 0.358679 -1.90859 0
M  V30 13041 C 1196.01 0.228228 -3.46549 0
M  V30 13042 C 1194.96 -0.640601 -4.23179 0
M  V30 13043 C 1194.29 0.212553 -5.34277 0
M  V30 13044 C 1195.59 -1.91906 -4.85767 0
M  V30 13045 H 1197.28 -1.35391 -2.67039 0
M  V30 13046 H 1194.83 -0.652462 -1.2837 0
M  V30 13047 H 1196.78 0.561995 -4.17636 0
M  V30 13048 H 1195.51 1.12224 -3.06714 0
M  V30 13049 H 1194.16 -0.957462 -3.53876 0
M  V30 13050 H 1193.81 1.10634 -4.90682 0
M  V30 13051 H 1193.51 -0.365473 -5.86462 0
M  V30 13052 H 1195.04 0.541271 -6.08196 0
M  V30 13053 H 1196.45 -1.65165 -5.48993 0
M  V30 13054 H 1194.85 -2.44279 -5.48131 0
M  V30 13055 H 1195.92 -2.62173 -4.07914 0
M  V30 13056 N 1197.26 1.39987 -0.723979 0
M  V30 13057 C 1198.22 2.29041 -0.0854583 0
M  V30 13058 C 1199.22 1.45777 0.678657 0
M  V30 13059 O 1200.41 1.66588 0.509311 0
M  V30 13060 C 1197.55 3.29115 0.88859 0
M  V30 13061 H 1198.74 2.87006 -0.869903 0
M  V30 13062 H 1196.29 1.48449 -0.489136 0
M  V30 13063 H 1197.03 2.76184 1.69979 0
M  V30 13064 H 1196.81 3.90593 0.343454 0
M  V30 13065 H 1198.3 3.95778 1.33227 0
M  V30 13066 N 1198.74 0.470782 1.50404 0
M  V30 13067 C 1200.02 -0.145879 1.95055 0
M  V30 13068 C 1200.4 -1.57004 1.41114 0
M  V30 13069 O 1199.74 -2.20152 0.612006 0
M  V30 13070 C 1199.95 -0.0895071 3.48885 0
M  V30 13071 C 1201.3 -0.278548 4.23685 0
M  V30 13072 O 1202.33 -0.166105 3.55812 0
M  V30 13073 O 1201.19 -0.505606 5.44156 0
M  V30 13074 H 1198.28 -0.111838 0.819403 0
M  V30 13075 H 1200.83 0.531162 1.61173 0
M  V30 13076 H 1199.6 0.904836 3.80695 0
M  V30 13077 H 1199.22 -0.808019 3.89303 0
M  V30 13078 N 1200.22 -1.56282 0.203376 0
M  V30 13079 C 1201.13 -2.23086 -0.725922 0
M  V30 13080 C 1202.14 -1.23258 -1.22814 0
M  V30 13081 O 1203.32 -1.5602 -1.27357 0
M  V30 13082 C 1200.38 -2.88358 -1.92485 0
M  V30 13083 C 1199.45 -4.03479 -1.46639 0
M  V30 13084 C 1198.68 -4.65629 -2.60816 0
M  V30 13085 O 1198.9 -4.2672 -3.78506 0
M  V30 13086 O 1197.84 -5.54949 -2.33056 0
M  V30 13087 H 1201.66 -3.03124 -0.18694 0
M  V30 13088 H 1199.25 -1.49377 -0.0262829 0
M  V30 13089 H 1201.13 -3.29623 -2.62539 0
M  V30 13090 H 1199.8 -2.11294 -2.45228 0
M  V30 13091 H 1198.71 -3.66821 -0.734396 0
M  V30 13092 H 1200.04 -4.82232 -0.985535 0
M  V30 13093 N 1201.7 0.070167 -1.57444 0
M  V30 13094 C 1202.93 0.78076 -1.91279 0
M  V30 13095 C 1203.33 1.71559 -0.797754 0
M  V30 13096 O 1202.68 1.82156 0.237665 0
M  V30 13097 C 1202.74 1.62664 -3.20594 0
M  V30 13098 C 1202.4 0.861007 -4.48816 0
M  V30 13099 C 1203.4 0.179522 -5.1959 0
M  V30 13100 C 1201.08 0.8277 -4.95434 0
M  V30 13101 C 1203.08 -0.525024 -6.35234 0
M  V30 13102 C 1200.77 0.119382 -6.10983 0
M  V30 13103 C 1201.76 -0.555778 -6.80735 0
M  V30 13104 O 1201.45 -1.25268 -7.9408 0
M  V30 13105 H 1201.18 0.227053 -0.636728 0
M  V30 13106 H 1203.74 0.0442334 -2.05352 0
M  V30 13107 H 1201.97 2.40601 -3.02734 0
M  V30 13108 H 1203.66 2.21606 -3.40067 0
M  V30 13109 H 1204.42 0.19655 -4.84602 0
M  V30 13110 H 1200.3 1.34268 -4.41014 0
M  V30 13111 H 1203.85 -1.05257 -6.89613 0
M  V30 13112 H 1199.74 0.100287 -6.45422 0
M  V30 13113 H 1200.51 -1.16212 -8.10208 0
M  V30 13114 N 1203.17 1.53854 0.341593 0
M  V30 13115 C 1204.08 1.84975 1.44297 0
M  V30 13116 C 1205.1 0.740057 1.57477 0
M  V30 13117 O 1206.28 1.03256 1.72917 0
M  V30 13118 C 1203.34 2.05464 2.79259 0
M  V30 13119 C 1202.4 3.29318 2.75405 0
M  V30 13120 C 1201.63 3.4882 4.03931 0
M  V30 13121 O 1201.86 2.7212 5.01305 0
M  V30 13122 O 1200.79 4.42253 4.08284 0
M  V30 13123 H 1204.62 2.78592 1.20913 0
M  V30 13124 H 1202.2 1.39532 0.533953 0
M  V30 13125 H 1204.08 2.20374 3.59184 0
M  V30 13126 H 1202.76 1.15035 3.0257 0
M  V30 13127 H 1201.67 3.1981 1.94094 0
M  V30 13128 H 1203 4.19746 2.57049 0
M  V30 13129 N 1204.65 -0.602709 1.4562 0
M  V30 13130 C 1205.61 -1.69508 1.54271 0
M  V30 13131 C 1206.61 -1.55171 0.421727 0
M  V30 13132 O 1207.8 -1.60151 0.685375 0
M  V30 13133 C 1204.94 -3.0881 1.44392 0
M  V30 13134 H 1206.13 -1.63203 2.51605 0
M  V30 13135 H 1203.68 -0.818857 1.33133 0
M  V30 13136 H 1204.42 -3.20689 0.482614 0
M  V30 13137 H 1204.2 -3.20625 2.25704 0
M  V30 13138 H 1205.69 -3.8837 1.53488 0
M  V30 13139 N 1206.13 -1.32992 -0.845635 0
M  V30 13140 C 1207.08 -1.22682 -1.95494 0
M  V30 13141 C 1208.05 -0.106942 -1.65755 0
M  V30 13142 O 1209.23 -0.28405 -1.88674 0
M  V30 13143 C 1206.37 -0.965068 -3.31331 0
M  V30 13144 C 1205.48 -2.17058 -3.7351 0
M  V30 13145 C 1204.62 -1.84355 -4.98183 0
M  V30 13146 C 1203.66 -3.01176 -5.32878 0
M  V30 13147 N 1202.8 -2.68506 -6.48729 0
M  V30 13148 H 1207.64 -2.17562 -2.03644 0
M  V30 13149 H 1205.17 -1.08194 -0.996613 0
M  V30 13150 H 1207.13 -0.793771 -4.09579 0
M  V30 13151 H 1205.76 -0.0530285 -3.22756 0
M  V30 13152 H 1204.81 -2.45185 -2.90841 0
M  V30 13153 H 1206.12 -3.04413 -3.95138 0
M  V30 13154 H 1205.28 -1.6383 -5.84162 0
M  V30 13155 H 1204.02 -0.942264 -4.78511 0
M  V30 13156 H 1203.02 -3.22323 -4.45408 0
M  V30 13157 H 1204.25 -3.9205 -5.54503 0
M  V30 13158 H 1202.19 -1.80929 -6.30556 0
M  V30 13159 H 1202.11 -3.49392 -6.70419 0
M  V30 13160 H 1203.38 -2.51432 -7.37836 0
M  V30 13161 N 1207.61 1.06304 -1.1635 0
M  V30 13162 C 1208.85 1.79366 -0.94634 0
M  V30 13163 C 1209.19 1.86981 0.524569 0
M  V30 13164 O 1208.46 1.36134 1.38917 0
M  V30 13165 C 1208.74 3.23861 -1.57436 0
M  V30 13166 C 1208.6 3.24327 -3.1166 0
M  V30 13167 C 1209.92 4.21409 -1.26895 0
M  V30 13168 H 1207.04 0.65115 -0.345215 0
M  V30 13169 H 1209.68 1.24325 -1.43678 0
M  V30 13170 H 1207.83 3.70862 -1.15731 0
M  V30 13171 H 1209.5 2.85488 -3.62346 0
M  V30 13172 H 1207.74 2.62983 -3.44997 0
M  V30 13173 H 1208.41 4.2626 -3.50723 0
M  V30 13174 H 1210.89 3.8285 -1.62989 0
M  V30 13175 H 1209.77 5.20778 -1.73439 0
M  V30 13176 H 1210.03 4.41701 -0.187768 0
M  V30 13177 N 1209.09 0.96196 1.24836 0
M  V30 13178 C 1210.03 0.48686 2.25607 0
M  V30 13179 C 1211 -0.464546 1.59472 0
M  V30 13180 O 1212.19 -0.376179 1.87055 0
M  V30 13181 C 1209.33 -0.222294 3.44383 0
M  V30 13182 C 1208.44 0.767206 4.25133 0
M  V30 13183 C 1207.58 0.0347458 5.31189 0
M  V30 13184 C 1206.61 1.01469 6.03631 0
M  V30 13185 N 1205.75 0.312619 7.01404 0
M  V30 13186 H 1210.59 1.35104 2.65614 0
M  V30 13187 H 1208.13 0.677373 1.30576 0
M  V30 13188 H 1210.09 -0.650087 4.12104 0
M  V30 13189 H 1208.72 -1.05047 3.0523 0
M  V30 13190 H 1207.77 1.31346 3.57005 0
M  V30 13191 H 1209.08 1.5147 4.75245 0
M  V30 13192 H 1208.23 -0.451325 6.05019 0
M  V30 13193 H 1206.97 -0.745485 4.81969 0
M  V30 13194 H 1205.98 1.51169 5.28609 0
M  V30 13195 H 1207.2 1.79527 6.5494 0
M  V30 13196 H 1205.15 -0.44874 6.54463 0
M  V30 13197 H 1205.07 0.999079 7.49369 0
M  V30 13198 H 1206.33 -0.151673 7.79352 0
M  V30 13199 N 1210.56 -1.39601 0.731392 0
M  V30 13200 C 1211.53 -2.28992 0.0976037 0
M  V30 13201 C 1212.53 -1.46135 -0.670917 0
M  V30 13202 O 1213.72 -1.66856 -0.50047 0
M  V30 13203 C 1210.85 -3.29582 -0.871124 0
M  V30 13204 H 1212.04 -2.86541 0.885112 0
M  V30 13205 H 1209.59 -1.48188 0.497002 0
M  V30 13206 H 1210.33 -2.77082 -1.68512 0
M  V30 13207 H 1210.11 -3.9077 -0.322735 0
M  V30 13208 H 1211.6 -3.96479 -1.31126 0
M  V30 13209 N 1212.04 -0.478751 -1.50152 0
M  V30 13210 C 1212.97 0.301182 -2.31549 0
M  V30 13211 C 1213.95 0.983276 -1.38801 0
M  V30 13212 O 1215.14 0.978973 -1.67719 0
M  V30 13213 C 1212.27 1.3791 -3.18745 0
M  V30 13214 C 1211.22 0.818175 -4.20107 0
M  V30 13215 C 1210.55 1.99496 -4.9609 0
M  V30 13216 C 1211.85 -0.17574 -5.22004 0
M  V30 13217 H 1213.54 -0.378188 -2.97002 0
M  V30 13218 H 1211.09 -0.183323 -1.42828 0
M  V30 13219 H 1213.04 1.93227 -3.74488 0
M  V30 13220 H 1211.77 2.08735 -2.51192 0
M  V30 13221 H 1210.42 0.286924 -3.65475 0
M  V30 13222 H 1210.07 2.69036 -4.25004 0
M  V30 13223 H 1209.77 1.62582 -5.6466 0
M  V30 13224 H 1211.3 2.55288 -5.54671 0
M  V30 13225 H 1212.71 0.288513 -5.72574 0
M  V30 13226 H 1211.11 -0.459549 -5.98338 0
M  V30 13227 H 1212.18 -1.09911 -4.72279 0
M  V30 13228 N 1213.52 1.56172 -0.211661 0
M  V30 13229 C 1214.43 2.23468 0.714081 0
M  V30 13230 C 1215.45 1.23908 1.22159 0
M  V30 13231 O 1216.62 1.56693 1.26528 0
M  V30 13232 C 1213.69 2.89375 1.90953 0
M  V30 13233 C 1212.75 4.04251 1.44497 0
M  V30 13234 C 1211.98 4.67006 2.58343 0
M  V30 13235 O 1212.2 4.28721 3.76237 0
M  V30 13236 O 1211.14 5.56177 2.3011 0
M  V30 13237 H 1214.96 3.03219 0.170862 0
M  V30 13238 H 1212.55 1.49389 0.0183607 0
M  V30 13239 H 1214.43 3.3101 2.60787 0
M  V30 13240 H 1213.11 2.12591 2.44104 0
M  V30 13241 H 1212.01 3.67205 0.714932 0
M  V30 13242 H 1213.35 4.82748 0.959947 0
M  V30 13243 N 1215 -0.0618163 1.57479 0
M  V30 13244 C 1215.91 -1.09006 2.07738 0
M  V30 13245 C 1216.92 -1.4176 1.00896 0
M  V30 13246 O 1218.1 -1.51737 1.32431 0
M  V30 13247 C 1215.17 -2.38153 2.5196 0
M  V30 13248 C 1214.23 -2.12279 3.73143 0
M  V30 13249 C 1213.46 -3.35269 4.15248 0
M  V30 13250 O 1213.68 -4.44758 3.57137 0
M  V30 13251 O 1212.62 -3.22894 5.0796 0
M  V30 13252 H 1216.44 -0.693059 2.95686 0
M  V30 13253 H 1214.03 -0.276628 1.46817 0
M  V30 13254 H 1215.91 -3.14139 2.80882 0
M  V30 13255 H 1214.58 -2.77213 1.67137 0
M  V30 13256 H 1213.49 -1.33966 3.49291 0
M  V30 13257 H 1214.82 -1.78094 4.5885 0
M  V30 13258 N 1216.48 -1.54033 -0.333429 0
M  V30 13259 C 1217.42 -1.82729 -1.40992 0
M  V30 13260 C 1218.39 -0.673677 -1.51825 0
M  V30 13261 O 1219.58 -0.919126 -1.67203 0
M  V30 13262 C 1216.72 -2.05155 -2.77498 0
M  V30 13263 C 1215.83 -3.32854 -2.75376 0
M  V30 13264 C 1214.97 -3.45294 -4.03665 0
M  V30 13265 C 1214.01 -4.66905 -3.95811 0
M  V30 13266 N 1213.14 -4.76323 -5.1581 0
M  V30 13267 H 1217.98 -2.74572 -1.15821 0
M  V30 13268 H 1215.52 -1.35988 -0.560859 0
M  V30 13269 H 1217.48 -2.16148 -3.56841 0
M  V30 13270 H 1216.11 -1.16615 -3.01 0
M  V30 13271 H 1215.16 -3.30651 -1.88081 0
M  V30 13272 H 1216.47 -4.22299 -2.65453 0
M  V30 13273 H 1215.63 -3.55775 -4.91436 0
M  V30 13274 H 1214.36 -2.53924 -4.16382 0
M  V30 13275 H 1213.37 -4.56491 -3.06425 0
M  V30 13276 H 1214.59 -5.59649 -3.84668 0
M  V30 13277 H 1212.54 -3.87866 -5.29052 0
M  V30 13278 H 1212.46 -5.59719 -5.08184 0
M  V30 13279 H 1213.73 -4.91125 -6.05324 0
M  V30 13280 N 1217.95 0.594978 -1.45938 0
M  V30 13281 C 1218.86 1.73296 -1.58132 0
M  V30 13282 C 1219.88 1.67665 -0.465245 0
M  V30 13283 O 1221.06 1.87794 -0.727684 0
M  V30 13284 C 1218.12 3.09783 -1.55677 0
M  V30 13285 C 1217.18 3.26772 -2.78422 0
M  V30 13286 C 1216.42 4.56748 -2.76075 0
M  V30 13287 O 1216.64 5.39867 -1.84119 0
M  V30 13288 O 1215.57 4.76721 -3.67452 0
M  V30 13289 H 1219.4 1.65957 -2.54346 0
M  V30 13290 H 1216.98 0.760572 -1.28591 0
M  V30 13291 H 1218.87 3.91077 -1.56961 0
M  V30 13292 H 1217.54 3.17585 -0.626191 0
M  V30 13293 H 1216.45 2.45018 -2.82696 0
M  V30 13294 H 1217.78 3.23853 -3.70648 0
M  V30 13295 N 1219.43 1.33438 0.838571 0
M  V30 13296 C 1220.34 1.25753 1.98049 0
M  V30 13297 C 1221.36 0.168051 1.73187 0
M  V30 13298 O 1222.53 0.391691 1.97554 0
M  V30 13299 C 1219.6 0.997148 3.32051 0
M  V30 13300 C 1218.66 2.17667 3.70027 0
M  V30 13301 C 1217.89 1.92861 4.97635 0
M  V30 13302 O 1218.12 0.879072 5.63585 0
M  V30 13303 O 1217.05 2.79402 5.33121 0
M  V30 13304 H 1220.88 2.21786 2.07472 0
M  V30 13305 H 1218.46 1.13488 0.971645 0
M  V30 13306 H 1220.34 0.869099 4.1234 0
M  V30 13307 H 1219.02 0.0671036 3.2363 0
M  V30 13308 H 1217.93 2.36025 2.90246 0
M  V30 13309 H 1219.26 3.09006 3.83114 0
M  V30 13310 N 1220.91 -1.05686 1.16912 0
M  V30 13311 C 1221.82 -2.16824 0.8958 0
M  V30 13312 C 1222.84 -1.73482 -0.134215 0
M  V30 13313 O 1224.01 -2.01352 0.0438776 0
M  V30 13314 C 1221.08 -3.44298 0.407427 0
M  V30 13315 C 1220.14 -4.02114 1.50342 0
M  V30 13316 C 1219.37 -5.23503 1.03826 0
M  V30 13317 O 1219.59 -5.70295 -0.109579 0
M  V30 13318 O 1218.53 -5.73432 1.8292 0
M  V30 13319 H 1222.35 -2.42725 1.82533 0
M  V30 13320 H 1219.94 -1.15339 0.949589 0
M  V30 13321 H 1221.82 -4.21159 0.142356 0
M  V30 13322 H 1220.5 -3.19908 -0.494009 0
M  V30 13323 H 1219.4 -3.26715 1.82231 0
M  V30 13324 H 1220.74 -4.30811 2.38039 0
M  V30 13325 N 1222.39 -0.968567 -1.24324 0
M  V30 13326 C 1223.3 -0.50703 -2.29055 0
M  V30 13327 C 1224.31 0.432431 -1.68541 0
M  V30 13328 O 1225.49 0.30526 -1.99073 0
M  V30 13329 C 1222.56 0.194589 -3.46153 0
M  V30 13330 C 1221.62 -0.784805 -4.22066 0
M  V30 13331 C 1220.85 -0.116574 -5.33573 0
M  V30 13332 O 1221.07 1.09492 -5.59792 0
M  V30 13333 O 1220.01 -0.809171 -5.96436 0
M  V30 13334 H 1223.83 -1.3777 -2.70653 0
M  V30 13335 H 1221.42 -0.735645 -1.30033 0
M  V30 13336 H 1223.3 0.588684 -4.17268 0
M  V30 13337 H 1221.97 1.04021 -3.06531 0
M  V30 13338 H 1220.88 -1.22938 -3.53323 0
M  V30 13339 H 1222.21 -1.59887 -4.65507 0
M  V30 13340 N 1223.87 1.39211 -0.738786 0
M  V30 13341 C 1225.28 1.54116 -0.414773 0
M  V30 13342 C 1225.48 1.70497 1.07392 0
M  V30 13343 O 1224.54 1.7076 1.86003 0
M  V30 13344 C 1225.85 2.7567 -1.2011 0
M  V30 13345 C 1227.4 2.89508 -1.1897 0
M  V30 13346 C 1227.87 4.14005 -1.95868 0
M  V30 13347 N 1229.37 4.21052 -1.93053 0
M  V30 13348 C 1230.1 5.16341 -2.49358 0
M  V30 13349 N 1229.6 6.17396 -3.14316 0
M  V30 13350 N 1231.39 5.08585 -2.3937 0
M  V30 13351 H 1223.54 1.26827 -1.70378 0
M  V30 13352 H 1225.8 0.614983 -0.721457 0
M  V30 13353 H 1225.51 2.69922 -2.25467 0
M  V30 13354 H 1225.38 3.68443 -0.808065 0
M  V30 13355 H 1227.77 2.94747 -0.144248 0
M  V30 13356 H 1227.85 1.97788 -1.62214 0
M  V30 13357 H 1227.5 4.09527 -3.00416 0
M  V30 13358 H 1227.43 5.04776 -1.50028 0
M  V30 13359 H 1229.92 3.48669 -1.45733 0
M  V30 13360 H 1230.23 6.86572 -3.54737 0
M  V30 13361 H 1228.57 6.17772 -3.18407 0
M  V30 13362 H 1231.77 4.28573 -1.88262 0
M  V30 13363 H 1231.94 5.8267 -2.83549 0
M  V30 13364 N 1225.34 0.486708 1.49896 0
M  V30 13365 C 1226.59 -0.0629451 2.02702 0
M  V30 13366 C 1226.92 -1.37956 1.36681 0
M  V30 13367 O 1226.2 -1.88025 0.497678 0
M  V30 13368 C 1226.48 -0.230461 3.59362 0
M  V30 13369 C 1226.33 1.10828 4.35933 0
M  V30 13370 C 1227.65 -0.977785 4.29101 0
M  V30 13371 H 1224.77 -0.0214017 0.736689 0
M  V30 13372 H 1227.41 0.635339 1.79063 0
M  V30 13373 H 1225.56 -0.825222 3.79634 0
M  V30 13374 H 1227.24 1.74082 4.27192 0
M  V30 13375 H 1225.48 1.7011 3.99055 0
M  V30 13376 H 1226.15 0.944532 5.43859 0
M  V30 13377 H 1228.63 -0.473505 4.13397 0
M  V30 13378 H 1227.5 -1.06382 5.38492 0
M  V30 13379 H 1227.76 -2.01813 3.9335 0
M  V30 13380 N 1226.82 -1.56058 0.219941 0
M  V30 13381 C 1227.79 -2.18964 -0.677303 0
M  V30 13382 C 1228.79 -1.15105 -1.12283 0
M  V30 13383 O 1229.98 -1.40348 -1.03189 0
M  V30 13384 C 1227.11 -2.81167 -1.92764 0
M  V30 13385 H 1228.3 -2.99623 -0.128877 0
M  V30 13386 H 1225.85 -1.56272 -0.0296744 0
M  V30 13387 H 1226.59 -2.04374 -2.51797 0
M  V30 13388 H 1226.37 -3.5722 -1.61666 0
M  V30 13389 H 1227.86 -3.29391 -2.56693 0
M  V30 13390 N 1228.3 0.053464 -1.57509 0
M  V30 13391 C 1229.26 1.04604 -2.03938 0
M  V30 13392 C 1230.26 1.30509 -0.939357 0
M  V30 13393 O 1231.45 1.25922 -1.20371 0
M  V30 13394 C 1228.59 2.38516 -2.43563 0
M  V30 13395 H 1229.78 0.645484 -2.92871 0
M  V30 13396 H 1227.33 0.299683 -1.534 0
M  V30 13397 H 1228.07 2.83368 -1.57712 0
M  V30 13398 H 1227.85 2.2105 -3.23851 0
M  V30 13399 H 1229.34 3.09826 -2.79996 0
M  V30 13400 N 1229.78 1.54207 0.325255 0
M  V30 13401 C 1230.73 1.83474 1.40021 0
M  V30 13402 C 1231.7 0.681719 1.51466 0
M  V30 13403 O 1232.88 0.92798 1.66713 0
M  V30 13404 C 1230.02 2.06624 2.76407 0
M  V30 13405 C 1229.13 3.3431 2.73607 0
M  V30 13406 C 1228.27 3.4743 4.01828 0
M  V30 13407 C 1227.31 4.68997 3.93329 0
M  V30 13408 N 1226.45 4.79052 5.13277 0
M  V30 13409 H 1231.29 2.75182 1.14363 0
M  V30 13410 H 1228.82 1.36284 0.553639 0
M  V30 13411 H 1230.78 2.18037 3.5569 0
M  V30 13412 H 1229.41 1.18209 3.00377 0
M  V30 13413 H 1228.46 3.31643 1.86324 0
M  V30 13414 H 1229.77 4.237 2.6321 0
M  V30 13415 H 1228.93 3.58376 4.89542 0
M  V30 13416 H 1227.67 2.56128 4.1503 0
M  V30 13417 H 1226.67 4.58109 3.04 0
M  V30 13418 H 1227.9 5.61681 3.81695 0
M  V30 13419 H 1225.84 3.90666 5.26988 0
M  V30 13420 H 1225.76 5.62406 5.05208 0
M  V30 13421 H 1227.03 4.94328 6.02711 0
M  V30 13422 N 1231.26 -0.58723 1.46251 0
M  V30 13423 C 1232.2 -1.69662 1.56472 0
M  V30 13424 C 1233.17 -1.60978 0.409294 0
M  V30 13425 O 1234.36 -1.80257 0.625451 0
M  V30 13426 C 1231.5 -3.07996 1.55669 0
M  V30 13427 C 1230.61 -3.27337 2.81913 0
M  V30 13428 C 1229.75 -4.55894 2.72644 0
M  V30 13429 C 1228.79 -4.68562 3.93847 0
M  V30 13430 N 1227.92 -5.8844 3.82991 0
M  V30 13431 H 1232.76 -1.60262 2.51237 0
M  V30 13432 H 1230.3 -0.781148 1.24645 0
M  V30 13433 H 1232.26 -3.88058 1.53189 0
M  V30 13434 H 1230.89 -3.16303 0.6444 0
M  V30 13435 H 1229.94 -2.4091 2.94392 0
M  V30 13436 H 1231.25 -3.32567 3.71754 0
M  V30 13437 H 1230.41 -5.44178 2.68244 0
M  V30 13438 H 1229.15 -4.53094 1.80435 0
M  V30 13439 H 1228.15 -3.78696 3.98584 0
M  V30 13440 H 1229.38 -4.73144 4.87146 0
M  V30 13441 H 1227.32 -5.86647 2.93566 0
M  V30 13442 H 1227.24 -5.94919 4.66484 0
M  V30 13443 H 1228.51 -6.79168 3.82559 0
M  V30 13444 N 1232.74 -1.33881 -0.831482 0
M  V30 13445 C 1233.98 -1.25942 -1.58955 0
M  V30 13446 C 1234.31 0.172542 -1.93432 0
M  V30 13447 O 1233.59 1.11577 -1.59314 0
M  V30 13448 C 1233.87 -2.14193 -2.89471 0
M  V30 13449 C 1233.73 -3.65883 -2.61628 0
M  V30 13450 C 1235.04 -2.02071 -3.90967 0
M  V30 13451 H 1232.16 -0.458841 -0.576744 0
M  V30 13452 H 1234.81 -1.64052 -0.958482 0
M  V30 13453 H 1232.96 -1.81821 -3.43327 0
M  V30 13454 H 1234.63 -4.08581 -2.14148 0
M  V30 13455 H 1232.87 -3.87397 -1.95208 0
M  V30 13456 H 1233.54 -4.22988 -3.54662 0
M  V30 13457 H 1236.02 -2.30476 -3.46439 0
M  V30 13458 H 1234.89 -2.66059 -4.80108 0
M  V30 13459 H 1235.15 -0.995121 -4.30755 0
M  V30 13460 N 1234.21 1.05064 -1.1747 0
M  V30 13461 C 1235.46 1.77737 -0.961979 0
M  V30 13462 C 1235.78 1.88198 0.510551 0
M  V30 13463 O 1235.05 1.39968 1.37062 0
M  V30 13464 H 1233.63 0.658366 -0.352935 0
M  V30 13465 H 1236.29 1.26851 -1.47969 0
M  V30 13466 H 1235.39 2.79368 -1.39141 0
M  V30 13467 N 1235.69 0.975146 1.23809 0
M  V30 13468 C 1236.92 0.658978 1.96125 0
M  V30 13469 C 1237.33 -0.773044 1.72248 0
M  V30 13470 O 1236.69 -1.51956 1.01072 0
M  V30 13471 C 1236.74 0.933355 3.49243 0
M  V30 13472 O 1236.46 2.30909 3.72307 0
M  V30 13473 C 1237.96 0.632408 4.38766 0
M  V30 13474 H 1235.18 0.245237 0.62458 0
M  V30 13475 H 1237.73 1.3051 1.5744 0
M  V30 13476 H 1235.88 0.333323 3.85963 0
M  V30 13477 H 1236.3 2.39476 4.66638 0
M  V30 13478 H 1237.77 0.874791 5.45024 0
M  V30 13479 H 1238.25 -0.433453 4.37056 0
M  V30 13480 H 1238.85 1.21268 4.07645 0
M  V30 13481 N 1237.17 -1.38817 0.746158 0
M  V30 13482 C 1238.08 -2.34316 0.115386 0
M  V30 13483 C 1239.1 -1.58892 -0.709179 0
M  V30 13484 O 1240.27 -1.91126 -0.635059 0
M  V30 13485 C 1237.34 -3.37977 -0.772821 0
M  V30 13486 C 1236.4 -4.2925 0.0652679 0
M  V30 13487 C 1235.63 -5.2796 -0.78064 0
M  V30 13488 O 1235.85 -5.33474 -2.01896 0
M  V30 13489 O 1234.79 -6.01556 -0.20338 0
M  V30 13490 H 1238.61 -2.89937 0.903887 0
M  V30 13491 H 1236.2 -1.40536 0.506958 0
M  V30 13492 H 1238.08 -4.01468 -1.28068 0
M  V30 13493 H 1236.76 -2.84723 -1.53994 0
M  V30 13494 H 1235.66 -3.68945 0.61891 0
M  V30 13495 H 1237 -4.85739 0.794871 0
M  V30 13496 N 1238.65 -0.49465 -1.49636 0
M  V30 13497 C 1239.9 0.0539277 -2.01628 0
M  V30 13498 C 1240.21 1.38634 -1.37986 0
M  V30 13499 O 1241.42 2.02123 -1.81269 0
M  V30 13500 C 1239.87 0.146582 -3.59601 0
M  V30 13501 C 1239.48 -1.1788 -4.32213 0
M  V30 13502 C 1241.22 0.645862 -4.19558 0
M  V30 13503 C 1239.13 -1.04866 -5.82028 0
M  V30 13504 H 1238.06 0.0239278 -0.75362 0
M  V30 13505 H 1240.71 -0.633112 -1.72232 0
M  V30 13506 H 1239.09 0.897931 -3.85685 0
M  V30 13507 H 1240.27 -1.94295 -4.17835 0
M  V30 13508 H 1238.58 -1.61102 -3.83973 0
M  V30 13509 H 1241.18 0.76064 -5.29262 0
M  V30 13510 H 1241.52 1.64313 -3.82501 0
M  V30 13511 H 1242.06 -0.04877 -3.9777 0
M  V30 13512 H 1238.79 -2.02 -6.23599 0
M  V30 13513 H 1238.31 -0.325293 -5.98917 0
M  V30 13514 H 1239.99 -0.724799 -6.42927 0
M  V30 13515 N 1240.13 1.55939 -0.228214 0
M  V30 13516 C 1241.37 2.00379 0.403442 0
M  V30 13517 C 1241.73 1.11264 1.56475 0
M  V30 13518 O 1242.93 1.45079 2.26287 0
M  V30 13519 C 1241.2 3.47851 0.820649 0
M  V30 13520 S 1242.76 4.14309 1.44547 0
M  V30 13521 H 1239.58 0.699426 0.127768 0
M  V30 13522 H 1242.18 1.92537 -0.339066 0
M  V30 13523 H 1240.88 4.10386 -0.0341308 0
M  V30 13524 H 1240.42 3.5958 1.5958 0
M  V30 13525 H 1242.43 4.14048 2.73456 0
M  V30 13526 N 1241.6 -0.0451101 1.57535 0
M  V30 13527 C 1242.55 -1.0692 2.06569 0
M  V30 13528 C 1243.55 -1.38443 0.976218 0
M  V30 13529 O 1244.75 -1.37536 1.1612 0
M  V30 13530 H 1241.13 -0.36226 0.658993 0
M  V30 13531 H 1243.1 -0.629709 2.9168 0
M  V30 13532 C 1241.85 -2.36656 2.54733 0
M  V30 13533 H 1241.17 -2.13257 3.38174 0
M  V30 13534 H 1242.61 -3.06696 2.92769 0
M  V30 13535 C 1241.07 -3.04499 1.4416 0
M  V30 13536 O 1241.6 -3.93679 0.798721 0
M  V30 13537 N 1239.81 -2.6556 1.18009 0
M  V30 13538 H 1239.35 -1.93126 1.7047 0
M  V30 13539 H 1239.31 -3.11272 0.442363 0
M  V30 13540 N 1243.08 -1.54377 -0.317073 0
M  V30 13541 C 1244.33 -1.72551 -1.05216 0
M  V30 13542 C 1244.65 -0.5055 -1.88334 0
M  V30 13543 O 1243.92 0.480439 -1.89917 0
M  V30 13544 H 1242.5 -0.636222 -0.391447 0
M  V30 13545 H 1245.16 -1.91696 -0.35194 0
M  V30 13546 H 1244.26 -2.60791 -1.71448 0
M  V30 13547 N 1244.56 0.579466 -1.4656 0
M  V30 13548 C 1245.81 1.33492 -1.51738 0
M  V30 13549 C 1246.13 1.94241 -0.171926 0
M  V30 13550 O 1245.4 1.78737 0.801875 0
M  V30 13551 H 1243.98 0.49565 -0.558874 0
M  V30 13552 H 1246.64 0.678394 -1.82712 0
M  V30 13553 H 1245.74 2.13995 -2.27183 0
M  V30 13554 N 1246.04 1.3432 0.824371 0
M  V30 13555 C 1247.45 1.23855 1.39703 0
M  V30 13556 C 1247.8 -0.136566 1.95724 0
M  V30 13557 O 1246.93 -1.03683 1.89944 0
M  V30 13558 C 1247.52 2.24249 2.53965 0
M  V30 13559 C 1246.08 2.17578 3.07143 0
M  V30 13560 C 1245.23 2.10933 1.80008 0
M  V30 13561 H 1248.18 1.45707 0.628891 0
M  V30 13562 H 1248.2 1.85864 3.32016 0
M  V30 13563 H 1247.71 3.24321 2.13161 0
M  V30 13564 H 1245.81 1.20858 3.52455 0
M  V30 13565 H 1245.92 3.08769 3.66331 0
M  V30 13566 H 1244.29 1.56631 2.00845 0
M  V30 13567 H 1245.07 3.12836 1.4138 0
M  V30 13568 N 1247.52 -1.0444 1.18026 0
M  V30 13569 C 1248.48 -2.10532 0.906028 0
M  V30 13570 C 1249.48 -1.60443 -0.107022 0
M  V30 13571 O 1250.67 -1.73744 0.126001 0
M  V30 13572 C 1247.8 -3.39008 0.358625 0
M  V30 13573 H 1248.99 -2.36293 1.84677 0
M  V30 13574 H 1246.55 -1.20805 0.991763 0
M  V30 13575 H 1247.28 -3.18908 -0.588904 0
M  V30 13576 H 1247.07 -3.76678 1.08884 0
M  V30 13577 H 1248.56 -4.17189 0.185331 0
M  V30 13578 N 1248.99 -0.981699 -1.2329 0
M  V30 13579 C 1250.41 -0.688087 -1.73558 0
M  V30 13580 C 1250.76 0.795633 -1.79344 0
M  V30 13581 O 1249.88 1.62227 -1.43218 0
M  V30 13582 C 1250.48 -1.24235 -3.152 0
M  V30 13583 C 1249.04 -0.998356 -3.62918 0
M  V30 13584 C 1248.18 -1.3693 -2.41134 0
M  V30 13585 H 1251.13 -1.15539 -1.08795 0
M  V30 13586 H 1251.15 -0.61541 -3.7549 0
M  V30 13587 H 1250.67 -2.32223 -3.10957 0
M  V30 13588 H 1248.77 0.0653847 -3.72543 0
M  V30 13589 H 1248.88 -1.65385 -4.49649 0
M  V30 13590 H 1247.24 -0.787773 -2.42211 0
M  V30 13591 H 1248.03 -2.45898 -2.39561 0
M  V30 13592 N 1250.47 1.3842 -0.753509 0
M  V30 13593 C 1251.42 2.30457 -0.12574 0
M  V30 13594 C 1252.39 1.50173 0.709728 0
M  V30 13595 O 1253.57 1.78804 0.665872 0
M  V30 13596 C 1250.71 3.36593 0.761503 0
M  V30 13597 C 1249.83 4.31909 -0.0885848 0
M  V30 13598 C 1248.96 5.25116 0.801655 0
M  V30 13599 C 1248 6.12078 -0.0520719 0
M  V30 13600 N 1247.14 6.97583 0.795124 0
M  V30 13601 H 1251.98 2.83567 -0.916187 0
M  V30 13602 H 1249.52 1.39609 -0.463436 0
M  V30 13603 H 1251.47 3.96738 1.29054 0
M  V30 13604 H 1250.1 2.84894 1.51774 0
M  V30 13605 H 1249.16 3.73227 -0.735249 0
M  V30 13606 H 1250.47 4.93161 -0.747899 0
M  V30 13607 H 1249.62 5.90377 1.39786 0
M  V30 13608 H 1248.36 4.6423 1.4947 0
M  V30 13609 H 1247.37 5.45813 -0.660946 0
M  V30 13610 H 1248.59 6.75032 -0.742178 0
M  V30 13611 H 1246.54 6.39246 1.47312 0
M  V30 13612 H 1246.45 7.55754 0.192705 0
M  V30 13613 H 1247.72 7.67254 1.3763 0
M  V30 13614 N 1251.95 0.502579 1.49372 0
M  V30 13615 C 1253.18 -0.0403087 2.07361 0
M  V30 13616 C 1253.6 -1.29918 1.36026 0
M  V30 13617 O 1252.96 -1.76428 0.417488 0
M  V30 13618 C 1253.01 -0.275362 3.59547 0
M  V30 13619 O 1252.11 -1.34975 3.89686 0
M  V30 13620 H 1251.45 0.0269268 0.663454 0
M  V30 13621 H 1253.98 0.702652 1.92156 0
M  V30 13622 H 1253.99 -0.506392 4.04845 0
M  V30 13623 H 1252.67 0.644382 4.10878 0
M  V30 13624 H 1251.24 -1.10355 3.56197 0
M  V30 13625 N 1253.43 -1.55816 0.23648 0
M  V30 13626 C 1254.65 -2.03534 -0.398575 0
M  V30 13627 C 1255.08 -1.11488 -1.51499 0
M  V30 13628 O 1254.44 -0.105848 -1.80991 0
M  V30 13629 C 1254.48 -3.49356 -0.893467 0
M  V30 13630 O 1253.59 -3.60446 -2.00381 0
M  V30 13631 H 1252.93 -0.658102 -0.0883021 0
M  V30 13632 H 1255.46 -2.01417 0.359488 0
M  V30 13633 H 1255.47 -3.89972 -1.19941 0
M  V30 13634 H 1254.14 -4.1583 -0.0764388 0
M  V30 13635 H 1252.72 -3.31723 -1.70336 0
M  V30 13636 N 1254.91 0.036755 -1.57557 0
M  V30 13637 C 1256.13 0.741086 -1.93172 0
M  V30 13638 C 1256.55 1.69303 -0.835589 0
M  V30 13639 O 1255.91 1.81523 0.1886 0
M  V30 13640 C 1255.96 1.50477 -3.28693 0
M  V30 13641 O 1255.68 0.591046 -4.34095 0
M  V30 13642 C 1257.18 2.30695 -3.78543 0
M  V30 13643 H 1254.4 0.208731 -0.637709 0
M  V30 13644 H 1256.94 -0.00342776 -2.045 0
M  V30 13645 H 1255.1 2.20123 -3.18786 0
M  V30 13646 H 1255.51 1.12579 -5.12276 0
M  V30 13647 H 1256.99 2.79685 -4.759 0
M  V30 13648 H 1257.46 3.11778 -3.0934 0
M  V30 13649 H 1258.07 1.66138 -3.91508 0
M  V30 13650 N 1256.39 1.54543 0.308881 0
M  V30 13651 C 1257.63 1.75182 1.05312 0
M  V30 13652 C 1257.99 0.522347 1.84758 0
M  V30 13653 O 1259.19 0.606334 2.61872 0
M  V30 13654 C 1257.46 3.0007 1.94147 0
M  V30 13655 S 1259.02 3.41676 2.75323 0
M  V30 13656 H 1255.84 0.615862 0.355296 0
M  V30 13657 H 1258.44 1.92739 0.327413 0
M  V30 13658 H 1257.14 3.87685 1.34643 0
M  V30 13659 H 1256.68 2.85078 2.71098 0
M  V30 13660 H 1258.69 2.98128 3.96654 0
M  V30 13661 N 1257.86 -0.571685 1.46866 0
M  V30 13662 C 1259.1 -1.34041 1.54313 0
M  V30 13663 C 1259.47 -1.9101 0.194708 0
M  V30 13664 O 1260.67 -2.68414 0.143968 0
M  V30 13665 C 1258.94 -2.4315 2.61941 0
M  V30 13666 S 1260.5 -3.30301 2.88871 0
M  V30 13667 H 1257.32 -0.45652 0.545078 0
M  V30 13668 H 1259.92 -0.656041 1.84164 0
M  V30 13669 H 1258.62 -1.99707 3.58532 0
M  V30 13670 H 1258.15 -3.16345 2.33858 0
M  V30 13671 H 1260.17 -4.42265 2.24981 0
M  V30 13672 N 1259.34 -1.34755 -0.817236 0
M  V30 13673 C 1260.59 -1.26771 -1.56882 0
M  V30 13674 C 1260.9 0.158962 -1.94953 0
M  V30 13675 O 1262.11 0.360996 -2.69089 0
M  V30 13676 C 1260.57 -2.22261 -2.83069 0
M  V30 13677 C 1260.17 -3.70216 -2.52277 0
M  V30 13678 C 1261.92 -2.23197 -3.61086 0
M  V30 13679 C 1259.82 -4.57559 -3.74691 0
M  V30 13680 H 1258.75 -0.470961 -0.588822 0
M  V30 13681 H 1261.41 -1.59955 -0.899254 0
M  V30 13682 H 1259.79 -1.82036 -3.5168 0
M  V30 13683 H 1260.96 -4.19014 -1.9174 0
M  V30 13684 H 1259.28 -3.71784 -1.87525 0
M  V30 13685 H 1261.87 -2.85673 -4.5199 0
M  V30 13686 H 1262.22 -1.2328 -3.97628 0
M  V30 13687 H 1262.75 -2.61897 -2.99424 0
M  V30 13688 H 1259.49 -5.58434 -3.43267 0
M  V30 13689 H 1259.01 -4.13494 -4.34491 0
M  V30 13690 H 1260.69 -4.72451 -4.42039 0
M  V30 13691 N 1260.82 1.03812 -1.18578 0
M  V30 13692 C 1261.75 2.13802 -0.938665 0
M  V30 13693 C 1262.73 1.69643 0.124575 0
M  V30 13694 O 1263.92 1.94179 -0.0285421 0
M  V30 13695 C 1261.05 3.44154 -0.466392 0
M  V30 13696 C 1260 4.01949 -1.47041 0
M  V30 13697 C 1259.33 5.27811 -0.855558 0
M  V30 13698 C 1260.63 4.37827 -2.84789 0
M  V30 13699 H 1262.32 2.34732 -1.85852 0
M  V30 13700 H 1259.87 1.12808 -0.895007 0
M  V30 13701 H 1261.82 4.20463 -0.280856 0
M  V30 13702 H 1260.54 3.22918 0.489041 0
M  V30 13703 H 1259.2 3.27725 -1.64293 0
M  V30 13704 H 1258.85 5.02886 0.107142 0
M  V30 13705 H 1258.55 5.67441 -1.52592 0
M  V30 13706 H 1260.07 6.06795 -0.680609 0
M  V30 13707 H 1261.49 5.05112 -2.71173 0
M  V30 13708 H 1259.88 4.88514 -3.48532 0
M  V30 13709 H 1260.95 3.47541 -3.38147 0
M  V30 13710 O 1262.34 1.11669 1.16672 0
M  V30 13711 H 1263.03 0.824158 1.75292 0
M  V30 END ATOM
M  V30 BEGIN BOND
M  V30 END BOND
M  V30 END CTAB
M  END
$$$$
