drugbank_target|P35908 Keratin, type II cytoskeletal 2 epidermal (DB01593; DB09130; DB11157; DB14487)
 OpenBabel12092121073D

  0  0  0     0  0            999 V3000
M  V30 BEGIN CTAB
M  V30 COUNTS 9046 9106 0 0 0
M  V30 BEGIN ATOM
M  V30 1 H -0.908 1.98254 -0.117106 0
M  V30 2 N 0 1.576 0 0
M  V30 3 C 0.933 2.03868 1.02534 0
M  V30 4 C 1.911 0.928543 1.3348 0
M  V30 5 O 3.095 1.19667 1.45644 0
M  V30 6 C 0.222 2.43627 2.35294 0
M  V30 7 C -0.732 3.65373 2.2001 0
M  V30 8 S 0.101 5.13292 1.52614 0
M  V30 9 C 1.257 5.56322 2.86805 0
M  V30 10 H 1.49 2.90518 0.631377 0
M  V30 11 H -0.977 1.52953 0.210867 0
M  V30 12 H 0.981 2.67203 3.11629 0
M  V30 13 H -0.358 1.57376 2.7183 0
M  V30 14 H -1.165 3.90944 3.18086 0
M  V30 15 H -1.563 3.418 1.51819 0
M  V30 16 H 0.729 5.58782 3.83104 0
M  V30 17 H 1.672 6.56266 2.65933 0
M  V30 18 H 2.08 4.83886 2.90714 0
M  V30 19 N 1.4781 -0.272755 1.55222 0
M  V30 20 C 2.7031 -1.02683 1.80197 0
M  V30 21 C 3.1281 -1.79142 0.573551 0
M  V30 22 O 2.4861 -1.74917 -0.476849 0
M  V30 23 C 2.5341 -1.9609 3.02624 0
M  V30 24 O 1.6381 -3.04863 2.77727 0
M  V30 25 H 0.9791 -0.293557 0.595584 0
M  V30 26 H 3.5091 -0.30159 2.02365 0
M  V30 27 H 3.5191 -2.38039 3.31363 0
M  V30 28 H 2.1941 -1.39851 3.91682 0
M  V30 29 H 0.7711 -2.67228 2.60084 0
M  V30 30 N 2.9562 -1.48159 -0.537278 0
M  V30 31 C 4.1962 -1.57397 -1.30405 0
M  V30 32 C 4.5602 -0.239202 -1.90504 0
M  V30 33 O 5.7612 -0.206528 -2.68005 0
M  V30 34 C 4.0322 -2.6754 -2.36974 0
M  V30 35 S 5.5912 -2.96496 -3.23475 0
M  V30 36 H 2.4092 -0.555577 -0.443684 0
M  V30 37 H 5.0112 -1.85644 -0.612912 0
M  V30 38 H 3.7152 -3.63092 -1.91291 0
M  V30 39 H 3.2462 -2.41172 -3.10805 0
M  V30 40 H 5.2612 -2.35234 -4.36897 0
M  V30 41 N 4.4343 0.785586 -1.36625 0
M  V30 42 C 5.3663 1.90711 -1.2713 0
M  V30 43 C 6.3793 1.61688 -0.189986 0
M  V30 44 O 7.5683 1.72864 -0.445014 0
M  V30 45 C 4.6683 3.25611 -0.939713 0
M  V30 46 C 3.8413 3.82385 -2.12369 0
M  V30 47 C 2.9003 4.95732 -1.76456 0
M  V30 48 O 1.9263 5.12047 -2.48589 0
M  V30 49 N 3.1283 5.76258 -0.700492 0
M  V30 50 H 5.8933 1.99376 -2.23762 0
M  V30 51 H 3.4543 0.964041 -1.30069 0
M  V30 52 H 5.4463 3.98937 -0.680554 0
M  V30 53 H 4.0163 3.12538 -0.0624074 0
M  V30 54 H 3.2363 3.01001 -2.54543 0
M  V30 55 H 4.5243 4.17047 -2.9146 0
M  V30 56 H 3.9223 5.65609 -0.101624 0
M  V30 57 H 2.4793 6.4987 -0.501165 0
M  V30 58 N 5.9124 1.20967 1.01018 0
M  V30 59 C 7.1614 1.01796 1.74128 0
M  V30 60 C 7.4744 -0.449691 1.90361 0
M  V30 61 O 8.6804 -0.76068 2.60626 0
M  V30 62 C 7.1364 1.7727 3.13215 0
M  V30 63 C 6.7444 3.28171 3.04972 0
M  V30 64 C 8.4884 1.66489 3.90489 0
M  V30 65 C 6.3954 3.96156 4.39107 0
M  V30 66 H 5.3254 0.377276 0.652824 0
M  V30 67 H 7.9764 1.44651 1.12909 0
M  V30 68 H 6.3584 1.27205 3.75013 0
M  V30 69 H 7.5324 3.85499 2.52443 0
M  V30 70 H 5.8474 3.39437 2.41188 0
M  V30 71 H 8.4444 2.14617 4.89738 0
M  V30 72 H 8.7874 0.6222 4.11624 0
M  V30 73 H 9.3204 2.14003 3.35332 0
M  V30 74 H 6.0594 5.00604 4.23174 0
M  V30 75 H 5.5794 3.43617 4.91617 0
M  V30 76 H 7.2584 4.00774 5.07926 0
M  V30 77 N 7.3905 -1.2043 1.01659 0
M  V30 78 C 8.6155 -1.94318 0.724942 0
M  V30 79 C 9.0405 -1.74266 -0.708034 0
M  V30 80 O 8.3985 -1.03694 -1.48719 0
M  V30 81 C 8.4465 -3.44486 1.06591 0
M  V30 82 O 7.5505 -4.12017 0.177599 0
M  V30 83 H 6.8915 -0.60708 0.26898 0
M  V30 84 H 9.4215 -1.52861 1.35995 0
M  V30 85 H 9.4315 -3.95106 1.01762 0
M  V30 86 H 8.1065 -3.58404 2.10997 0
M  V30 87 H 6.6835 -3.71821 0.283421 0
M  V30 88 N 8.8686 -0.792821 -1.36206 0
M  V30 89 C 10.1086 -0.372238 -2.00982 0
M  V30 90 C 10.4726 1.03749 -1.61555 0
M  V30 91 O 11.6736 1.55934 -2.18948 0
M  V30 92 C 9.9446 -0.534566 -3.5338 0
M  V30 93 S 11.5036 -0.202365 -4.38333 0
M  V30 94 H 8.3216 -0.142044 -0.696667 0
M  V30 95 H 10.9236 -1.03206 -1.66039 0
M  V30 96 H 9.6276 -1.5608 -3.79562 0
M  V30 97 H 9.1586 0.141065 -3.93147 0
M  V30 98 H 11.1736 0.994869 -4.86124 0
M  V30 99 N 10.3467 1.47872 -0.545128 0
M  V30 100 C 11.2937 2.29849 0.2093 0
M  V30 101 C 12.2637 1.38313 0.919707 0
M  V30 102 O 13.4487 1.67277 0.917772 0
M  V30 103 C 10.5887 3.22019 1.24088 0
M  V30 104 C 9.7017 4.2864 0.537778 0
M  V30 105 C 8.8367 5.07973 1.5536 0
M  V30 106 C 7.8757 6.06381 0.8348 0
M  V30 107 N 7.0127 6.78717 1.79688 0
M  V30 108 H 11.8527 2.93845 -0.49591 0
M  V30 109 H 9.3897 1.44848 -0.256389 0
M  V30 110 H 11.3477 3.73868 1.85144 0
M  V30 111 H 9.9777 2.59914 1.91428 0
M  V30 112 H 9.0297 3.7994 -0.187046 0
M  V30 113 H 10.3417 4.98793 -0.0258907 0
M  V30 114 H 9.4957 5.63912 2.23803 0
M  V30 115 H 8.2347 4.37693 2.15118 0
M  V30 116 H 7.2397 5.49631 0.136388 0
M  V30 117 H 8.4647 6.78665 0.24313 0
M  V30 118 H 6.4107 6.11177 2.38326 0
M  V30 119 H 6.3277 7.44998 1.28505 0
M  V30 120 H 7.5957 7.39237 2.47282 0
M  V30 121 N 11.8248 0.280983 1.55075 0
M  V30 122 C 13.0498 -0.340154 2.04592 0
M  V30 123 C 13.4748 -1.48246 1.15779 0
M  V30 124 O 12.8328 -1.80614 0.15761 0
M  V30 125 C 12.8808 -0.793104 3.5177 0
M  V30 126 O 11.9848 -1.89981 3.66034 0
M  V30 127 H 11.3258 -0.0694289 0.66036 0
M  V30 128 H 13.8558 0.416993 2.00306 0
M  V30 129 H 13.8658 -1.08729 3.93245 0
M  V30 130 H 12.5408 0.0426163 4.15878 0
M  V30 131 H 11.1178 -1.60771 3.36463 0
M  V30 132 N 13.3029 -1.57598 0.00835791 0
M  V30 133 C 14.7189 -1.55764 -0.347822 0
M  V30 134 C 14.9189 -1.01186 -1.74252 0
M  V30 135 O 13.9749 -0.649371 -2.44007 0
M  V30 136 C 15.2879 -2.99927 -0.215407 0
M  V30 137 C 16.8359 -3.11656 -0.289725 0
M  V30 138 C 17.3109 -4.57621 -0.18634 0
M  V30 139 N 18.8019 -4.62557 -0.243978 0
M  V30 140 C 19.5369 -5.73094 -0.18745 0
M  V30 141 N 19.0329 -6.92753 -0.0810331 0
M  V30 142 N 20.8259 -5.61588 -0.239925 0
M  V30 143 H 12.9769 -1.91411 0.92062 0
M  V30 144 H 15.2399 -0.879562 0.353659 0
M  V30 145 H 14.9459 -3.43729 0.744512 0
M  V30 146 H 14.8199 -3.63865 -0.994097 0
M  V30 147 H 17.2069 -2.67779 -1.24009 0
M  V30 148 H 17.2879 -2.5048 0.51898 0
M  V30 149 H 16.9319 -5.02174 0.760519 0
M  V30 150 H 16.8619 -5.16752 -1.01364 0
M  V30 151 H 19.3529 -3.76481 -0.327217 0
M  V30 152 H 19.6659 -7.72787 -0.0440241 0
M  V30 153 H 18.0109 -6.94984 -0.0465419 0
M  V30 154 H 21.2019 -4.66996 -0.321317 0
M  V30 155 H 21.3749 -6.47714 -0.192407 0
M  V30 156 N 14.781 0.264519 -1.55364 0
M  V30 157 C 16.029 0.993021 -1.76021 0
M  V30 158 C 16.35 1.86511 -0.569099 0
M  V30 159 O 15.62 1.91438 0.415735 0
M  V30 160 H 14.2 0.369639 -0.649135 0
M  V30 161 H 16.862 0.286707 -1.9278 0
M  V30 162 H 15.958 1.62502 -2.66457 0
M  V30 163 N 16.2591 1.48442 0.529413 0
M  V30 164 C 17.6751 1.34575 0.858004 0
M  V30 165 C 17.8751 0.3572 1.98309 0
M  V30 166 O 16.9311 -0.221379 2.51528 0
M  V30 167 C 18.2441 2.74617 1.22499 0
M  V30 168 C 19.7921 2.83109 1.33484 0
M  V30 169 C 20.2671 4.23854 1.73526 0
M  V30 170 N 21.7581 4.2653 1.80628 0
M  V30 171 C 22.4931 5.32372 2.12997 0
M  V30 172 N 21.9891 6.48491 2.43786 0
M  V30 173 N 23.7821 5.19766 2.14008 0
M  V30 174 H 15.9331 2.1133 -0.212925 0
M  V30 175 H 18.1961 0.947439 -0.0326199 0
M  V30 176 H 17.9021 3.4852 0.471905 0
M  V30 177 H 17.7761 3.08177 2.17501 0
M  V30 178 H 20.1631 2.09462 2.0787 0
M  V30 179 H 20.2441 2.53168 0.366027 0
M  V30 180 H 19.8881 4.98018 0.997013 0
M  V30 181 H 19.8181 4.5124 2.71459 0
M  V30 182 H 22.3091 3.42772 1.59108 0
M  V30 183 H 22.6221 7.24993 2.67592 0
M  V30 184 H 20.9671 6.51765 2.41304 0
M  V30 185 H 24.1581 4.28066 1.89412 0
M  V30 186 H 24.3311 6.02354 2.38902 0
M  V30 187 N 17.7372 -0.778329 1.37039 0
M  V30 188 C 18.9852 -1.53361 1.31623 0
M  V30 189 C 19.3062 -1.94739 -0.100831 0
M  V30 190 O 18.5762 -1.65797 -1.04347 0
M  V30 191 H 17.1562 -0.568794 0.484234 0
M  V30 192 H 19.8182 -0.926742 1.71457 0
M  V30 193 H 18.9142 -2.43606 1.95096 0
M  V30 194 N 19.2153 -1.21501 -1.00376 0
M  V30 195 C 20.4633 -1.03095 -1.73827 0
M  V30 196 C 20.7843 0.436341 -1.90055 0
M  V30 197 O 20.0543 1.31466 -1.45236 0
M  V30 198 H 18.6343 -0.378487 -0.644016 0
M  V30 199 H 21.2963 -1.52831 -1.20949 0
M  V30 200 H 20.3923 -1.49991 -2.73695 0
M  V30 201 N 20.6934 1.19889 -1.02296 0
M  V30 202 C 21.9414 1.89046 -0.714558 0
M  V30 203 C 22.2624 1.79636 0.758681 0
M  V30 204 O 21.5324 1.20292 1.54618 0
M  V30 205 H 20.1124 0.699802 -0.261317 0
M  V30 206 H 22.7744 1.45574 -1.29592 0
M  V30 207 H 21.8704 2.95524 -1.0036 0
M  V30 208 N 22.1715 0.800033 1.35784 0
M  V30 209 C 23.4195 0.376597 1.9856 0
M  V30 210 C 23.7405 -1.05812 1.63795 0
M  V30 211 O 23.0105 -1.73103 0.917171 0
M  V30 212 H 21.5905 0.136261 0.734467 0
M  V30 213 H 24.2525 1.02442 1.65806 0
M  V30 214 H 23.3485 0.477002 3.08433 0
M  V30 215 N 23.6496 -1.47581 0.552962 0
M  V30 216 C 24.8976 -2.02082 0.0272703 0
M  V30 217 C 25.2186 -1.4301 -1.32563 0
M  V30 218 O 24.4886 -0.603745 -1.86365 0
M  V30 219 H 23.0686 -0.746966 0.00709182 0
M  V30 220 H 25.7306 -1.81033 0.722008 0
M  V30 221 H 24.8266 -3.12034 -0.0639951 0
M  V30 222 N 25.1277 -0.289203 -1.54924 0
M  V30 223 C 26.3757 0.322879 -1.99504 0
M  V30 224 C 26.6967 1.55313 -1.1791 0
M  V30 225 O 25.9667 1.94001 -0.272097 0
M  V30 226 H 24.5467 0.122291 -0.736922 0
M  V30 227 H 27.2087 -0.397802 -1.90797 0
M  V30 228 H 26.3047 0.603061 -3.06218 0
M  V30 229 N 26.6058 1.57591 -0.0167156 0
M  V30 230 C 27.8528 1.91283 0.664597 0
M  V30 231 C 28.1808 0.891949 1.72842 0
M  V30 232 O 27.4358 -0.100931 1.9544 0
M  V30 233 C 27.7348 3.3172 1.33029 0
M  V30 234 C 27.4008 4.4914 0.398047 0
M  V30 235 C 26.0628 4.80992 0.141421 0
M  V30 236 C 28.4148 5.20634 -0.242825 0
M  V30 237 C 25.7428 5.81703 -0.764092 0
M  V30 238 C 28.0948 6.22311 -1.13632 0
M  V30 239 C 26.7588 6.52611 -1.40196 0
M  V30 240 H 26.0288 0.699956 0.243193 0
M  V30 241 H 28.6758 1.9135 -0.0758267 0
M  V30 242 H 26.9808 3.27856 2.14517 0
M  V30 243 H 28.6778 3.55055 1.86379 0
M  V30 244 H 25.2678 4.24262 0.608238 0
M  V30 245 H 29.4518 4.96267 -0.0576019 0
M  V30 246 H 24.7078 6.03532 -0.977732 0
M  V30 247 H 28.8818 6.76834 -1.63917 0
M  V30 248 H 26.5088 7.30467 -2.10529 0
M  V30 249 N 28.0839 -0.256276 1.55502 0
M  V30 250 C 29.4999 -0.604325 1.47716 0
M  V30 251 C 29.6999 -1.88763 0.705039 0
M  V30 252 O 28.7559 -2.51445 0.230613 0
M  V30 253 C 30.0689 -0.715756 2.92057 0
M  V30 254 C 31.6169 -0.808706 3.02372 0
M  V30 255 C 32.0919 -0.951777 4.48001 0
M  V30 256 N 33.5829 -1.01688 4.519 0
M  V30 257 C 34.3179 -1.14668 5.61817 0
M  V30 258 N 33.8139 -1.24261 6.81565 0
M  V30 259 N 35.6069 -1.1791 5.49594 0
M  V30 260 H 27.7579 0.586291 2.04148 0
M  V30 261 H 30.0209 0.201015 0.926443 0
M  V30 262 H 29.7269 0.157027 3.51349 0
M  V30 263 H 29.6009 -1.59071 3.42018 0
M  V30 264 H 31.9879 -1.67195 2.43166 0
M  V30 265 H 32.0689 0.0912063 2.55637 0
M  V30 266 H 31.7129 -0.0931291 5.07815 0
M  V30 267 H 31.6429 -1.86659 4.92408 0
M  V30 268 H 34.1339 -0.954468 3.65648 0
M  V30 269 H 34.4469 -1.34046 7.61086 0
M  V30 270 H 32.7919 -1.21236 6.84344 0
M  V30 271 H 35.9829 -1.10057 4.54978 0
M  V30 272 H 36.1559 -1.27681 6.35296 0
M  V30 273 N 29.562 -1.4872 -0.521534 0
M  V30 274 C 30.81 -1.56857 -1.27437 0
M  V30 275 C 31.131 -0.247982 -1.93417 0
M  V30 276 O 30.401 0.731151 -1.81744 0
M  V30 277 H 28.981 -0.577885 -0.473347 0
M  V30 278 H 31.643 -1.85233 -0.606205 0
M  V30 279 H 30.739 -2.35402 -2.0492 0
M  V30 280 N 31.0401 0.771051 -1.3745 0
M  V30 281 C 32.2871 1.52963 -1.32697 0
M  V30 282 C 32.6151 1.94299 0.0883274 0
M  V30 283 O 31.8701 1.64397 1.0617 0
M  V30 284 C 32.1691 2.80676 -2.2126 0
M  V30 285 C 31.8351 2.58389 -3.69521 0
M  V30 286 C 30.4971 2.52019 -4.09927 0
M  V30 287 C 32.8491 2.38469 -4.63446 0
M  V30 288 C 30.1771 2.23721 -5.42371 0
M  V30 289 C 32.5291 2.11694 -5.96128 0
M  V30 290 C 31.1931 2.03769 -6.35637 0
M  V30 291 H 30.4631 0.559732 -0.485573 0
M  V30 292 H 33.1101 0.888083 -1.69662 0
M  V30 293 H 31.4151 3.49392 -1.77291 0
M  V30 294 H 33.1121 3.38557 -2.14895 0
M  V30 295 H 29.7021 2.6421 -3.37478 0
M  V30 296 H 33.8861 2.4238 -4.33089 0
M  V30 297 H 29.1421 2.16081 -5.71943 0
M  V30 298 H 33.3161 1.9528 -6.6846 0
M  V30 299 H 30.9431 1.81606 -7.38189 0
M  V30 300 N 32.5182 1.22032 0.997298 0
M  V30 301 C 33.7432 1.06921 1.77715 0
M  V30 302 C 34.1682 -0.376226 1.84299 0
M  V30 303 O 33.5262 -1.27165 1.29223 0
M  V30 304 C 33.5742 1.67996 3.19076 0
M  V30 305 O 32.6782 0.930653 4.01762 0
M  V30 306 H 32.0192 0.375814 0.547412 0
M  V30 307 H 34.5492 1.61737 1.25309 0
M  V30 308 H 34.5592 1.72538 3.69723 0
M  V30 309 H 33.2342 2.73182 3.13599 0
M  V30 310 H 31.8112 0.960917 3.60307 0
M  V30 311 N 33.9963 -1.19345 1.0293 0
M  V30 312 C 35.2213 -1.93538 0.745511 0
M  V30 313 C 35.6463 -1.75007 -0.689511 0
M  V30 314 O 35.0043 -1.05265 -1.47611 0
M  V30 315 C 35.0523 -3.43336 1.10239 0
M  V30 316 O 34.1563 -4.11806 0.221289 0
M  V30 317 H 33.4973 -0.604193 0.275404 0
M  V30 318 H 36.0273 -1.5141 1.37609 0
M  V30 319 H 36.0373 -3.94004 1.05947 0
M  V30 320 H 34.7123 -3.56146 2.14786 0
M  V30 321 H 33.2893 -3.715 0.322842 0
M  V30 322 N 35.4744 -0.807222 -1.35358 0
M  V30 323 C 36.7224 -0.387122 -1.98358 0
M  V30 324 C 37.0434 1.04942 -1.64354 0
M  V30 325 O 36.3134 1.72615 -0.926339 0
M  V30 326 H 34.8934 -0.140154 -0.733734 0
M  V30 327 H 37.5554 -1.0332 -1.6526 0
M  V30 328 H 36.6514 -0.493352 -3.08176 0
M  V30 329 N 36.9525 1.47285 -0.560781 0
M  V30 330 C 38.1775 2.07359 -0.0410566 0
M  V30 331 C 38.6025 1.41017 1.24483 0
M  V30 332 O 37.9605 0.486368 1.74654 0
M  V30 333 C 38.0085 3.6035 0.134123 0
M  V30 334 O 37.1125 3.94681 1.19587 0
M  V30 335 H 36.4535 0.661887 -0.0529291 0
M  V30 336 H 38.9835 1.89252 -0.777482 0
M  V30 337 H 38.9935 4.0652 0.347207 0
M  V30 338 H 37.6685 4.08034 -0.805047 0
M  V30 339 H 36.2455 3.60251 0.962987 0
M  V30 340 N 38.4306 0.297415 1.54768 0
M  V30 341 C 39.3936 -0.567375 2.22066 0
M  V30 342 C 40.3936 -1.06409 1.20556 0
M  V30 343 O 41.5836 -0.960691 1.45315 0
M  V30 344 C 38.7156 -1.78517 2.90421 0
M  V30 345 H 39.9086 0.0205534 2.99893 0
M  V30 346 H 37.4616 0.0482163 1.56226 0
M  V30 347 H 38.1966 -2.41303 2.16664 0
M  V30 348 H 37.9816 -1.43669 3.64831 0
M  V30 349 H 39.4716 -2.39964 3.41771 0
M  V30 350 N 39.9087 -1.5758 0.0250728 0
M  V30 351 C 41.1547 -1.91917 -0.655413 0
M  V30 352 C 41.4877 -0.901433 -1.72011 0
M  V30 353 O 40.7627 0.0764069 -1.9435 0
M  V30 354 C 41.0457 -3.36751 -1.27558 0
M  V30 355 C 40.8987 -4.49258 -0.220719 0
M  V30 356 C 42.2177 -3.81469 -2.19475 0
M  V30 357 H 39.3367 -0.697925 -0.23679 0
M  V30 358 H 41.9787 -1.89825 0.0815036 0
M  V30 359 H 40.1287 -3.38664 -1.90365 0
M  V30 360 H 41.8007 -4.59478 0.409601 0
M  V30 361 H 40.0437 -4.31415 0.454264 0
M  V30 362 H 40.7147 -5.47618 -0.694175 0
M  V30 363 H 43.1907 -3.81266 -1.66659 0
M  V30 364 H 42.0667 -4.83512 -2.59822 0
M  V30 365 H 42.3277 -3.16744 -3.08424 0
M  V30 366 N 41.3868 0.248026 -1.55636 0
M  V30 367 C 42.6328 0.97767 -1.77678 0
M  V30 368 C 42.9658 1.85016 -0.590135 0
M  V30 369 O 42.2408 1.90095 0.411611 0
M  V30 370 C 42.5238 1.83914 -3.09593 0
M  V30 371 C 42.3768 0.99491 -4.38659 0
M  V30 372 C 43.6958 2.82183 -3.37729 0
M  V30 373 H 40.8148 0.354005 -0.646413 0
M  V30 374 H 43.4568 0.248253 -1.88371 0
M  V30 375 H 41.6068 2.46104 -3.00608 0
M  V30 376 H 43.2788 0.391789 -4.59633 0
M  V30 377 H 41.5218 0.299231 -4.32767 0
M  V30 378 H 42.1928 1.63145 -5.2734 0
M  V30 379 H 44.6688 2.30129 -3.4667 0
M  V30 380 H 43.5448 3.39582 -4.31249 0
M  V30 381 H 43.8058 3.58588 -2.58586 0
M  V30 382 N 42.8649 1.48995 0.513639 0
M  V30 383 C 44.0899 1.61792 1.29762 0
M  V30 384 C 44.5149 0.284475 1.85936 0
M  V30 385 O 43.8729 -0.746185 1.65232 0
M  V30 386 C 43.9209 2.67993 2.41272 0
M  V30 387 O 43.0249 2.26287 3.44772 0
M  V30 388 H 42.3659 0.541963 0.38363 0
M  V30 389 H 44.8959 1.95097 0.616307 0
M  V30 390 H 44.9059 2.89772 2.87221 0
M  V30 391 H 43.5809 3.64791 1.9975 0
M  V30 392 H 42.1579 2.14788 3.04829 0
M  V30 393 N 44.343 -0.763751 1.37857 0
M  V30 394 C 45.591 -1.51957 1.33243 0
M  V30 395 C 45.912 -1.94835 -0.0801709 0
M  V30 396 O 45.182 -1.66894 -1.02582 0
M  V30 397 H 43.762 -0.563626 0.49024 0
M  V30 398 H 46.424 -0.908504 1.7243 0
M  V30 399 H 45.52 -2.41523 1.97669 0
M  V30 400 N 45.8211 -1.22559 -0.990812 0
M  V30 401 C 47.0691 -1.04933 -1.72724 0
M  V30 402 C 47.3901 0.416158 -1.90508 0
M  V30 403 O 46.6601 1.29918 -1.46622 0
M  V30 404 H 45.2401 -0.385296 -0.639965 0
M  V30 405 H 47.9021 -1.54105 -1.19322 0
M  V30 406 H 46.9981 -1.52886 -2.72089 0
M  V30 407 N 47.2992 1.18797 -1.03562 0
M  V30 408 C 48.5242 1.9314 -0.755764 0
M  V30 409 C 48.9492 1.7537 0.68022 0
M  V30 410 O 48.3072 1.06046 1.47051 0
M  V30 411 C 48.3552 3.42747 -1.12058 0
M  V30 412 O 47.4592 4.11683 -0.243124 0
M  V30 413 H 46.8002 0.602724 -0.278604 0
M  V30 414 H 49.3302 1.50678 -1.3841 0
M  V30 415 H 49.3402 3.93437 -1.08035 0
M  V30 416 H 48.0152 3.55002 -2.16672 0
M  V30 417 H 46.5922 3.71323 -0.342539 0
M  V30 418 N 48.7773 0.814389 1.34928 0
M  V30 419 C 50.1933 0.499084 1.51596 0
M  V30 420 C 50.3933 -0.978319 1.76157 0
M  V30 421 O 49.4493 -1.76309 1.80752 0
M  V30 422 C 50.7623 1.35121 2.68631 0
M  V30 423 C 52.3103 1.34746 2.82511 0
M  V30 424 C 52.7853 2.18388 4.0258 0
M  V30 425 N 54.2763 2.15966 4.09772 0
M  V30 426 C 55.0113 2.77437 5.01813 0
M  V30 427 N 54.5073 3.47866 5.99134 0
M  V30 428 N 56.3003 2.67037 4.94619 0
M  V30 429 H 48.4513 1.7711 1.17243 0
M  V30 430 H 50.7143 0.754256 0.574284 0
M  V30 431 H 50.4203 2.40001 2.57085 0
M  V30 432 H 50.2943 1.00991 3.63429 0
M  V30 433 H 52.6813 0.30648 2.93504 0
M  V30 434 H 52.7623 1.72869 1.88547 0
M  V30 435 H 52.4063 3.2253 3.92347 0
M  V30 436 H 52.3363 1.77621 4.9574 0
M  V30 437 H 54.8273 1.64729 3.40107 0
M  V30 438 H 55.1403 3.92038 6.65977 0
M  V30 439 H 53.4853 3.51972 5.99284 0
M  V30 440 H 56.6763 2.11597 4.17546 0
M  V30 441 H 56.8493 3.15232 5.66156 0
M  V30 442 N 50.2554 -1.46986 0.568584 0
M  V30 443 C 51.6714 -1.57946 0.229189 0
M  V30 444 C 51.8714 -1.56567 -1.26843 0
M  V30 445 O 50.9274 -1.47511 -2.04931 0
M  V30 446 C 52.2404 -2.87963 0.865909 0
M  V30 447 C 53.7884 -3.01568 0.838188 0
M  V30 448 C 54.2634 -4.34301 1.45419 0
M  V30 449 N 55.7544 -4.40965 1.41788 0
M  V30 450 C 56.4894 -5.42256 1.86403 0
M  V30 451 N 55.9854 -6.50297 2.38926 0
M  V30 452 N 57.7784 -5.3337 1.77405 0
M  V30 453 H 49.9294 -1.46126 1.54146 0
M  V30 454 H 52.1924 -0.696156 0.643484 0
M  V30 455 H 51.8984 -2.94742 1.91886 0
M  V30 456 H 51.7724 -3.75423 0.365687 0
M  V30 457 H 54.1594 -2.94379 -0.206106 0
M  V30 458 H 54.2404 -2.1562 1.37629 0
M  V30 459 H 53.8844 -4.42247 2.49761 0
M  V30 460 H 53.8144 -5.19 0.891435 0
M  V30 461 H 56.3054 -3.63484 1.03381 0
M  V30 462 H 56.6184 -7.23777 2.70863 0
M  V30 463 H 54.9634 -6.51155 2.42944 0
M  V30 464 H 58.1544 -4.47865 1.3614 0
M  V30 465 H 58.3274 -6.12169 2.12492 0
M  V30 466 N 51.7335 -0.305618 -1.54608 0
M  V30 467 C 52.9585 0.307562 -2.05107 0
M  V30 468 C 53.3835 1.46385 -1.18123 0
M  V30 469 O 52.7415 1.8034 -0.186324 0
M  V30 470 C 52.7895 0.73704 -3.52987 0
M  V30 471 O 51.8935 1.84134 -3.6901 0
M  V30 472 H 51.2345 0.0589143 -0.661381 0
M  V30 473 H 53.7645 -0.448807 -1.99617 0
M  V30 474 H 53.7745 1.02459 -3.94925 0
M  V30 475 H 52.4495 -0.108773 -4.15758 0
M  V30 476 H 51.0265 1.55398 -3.38978 0
M  V30 477 N 53.2116 1.57565 -0.0334293 0
M  V30 478 C 54.4396 1.9628 0.654347 0
M  V30 479 C 54.8546 0.910138 1.65414 0
M  V30 480 O 54.2116 -0.107595 1.82183 0
M  V30 481 C 54.2626 3.35067 1.35693 0
M  V30 482 O 53.9836 4.36296 0.397191 0
M  V30 483 C 55.4846 3.88439 2.13613 0
M  V30 484 H 52.7046 0.646369 0.180132 0
M  V30 485 H 55.2486 2.04282 -0.0944721 0
M  V30 486 H 53.4036 3.2827 2.05712 0
M  V30 487 H 53.8176 5.1678 0.896597 0
M  V30 488 H 55.2916 4.8788 2.58219 0
M  V30 489 H 55.7686 3.22914 2.97696 0
M  V30 490 H 56.3746 3.98516 1.48543 0
M  V30 491 N 54.6897 -0.239769 1.55765 0
M  V30 492 C 55.9147 -0.988373 1.82335 0
M  V30 493 C 56.3397 -1.77886 0.611421 0
M  V30 494 O 55.6977 -1.75889 -0.439639 0
M  V30 495 C 55.7457 -1.89627 3.06715 0
M  V30 496 O 54.8497 -2.98904 2.84131 0
M  V30 497 H 54.1907 -0.280858 0.601677 0
M  V30 498 H 56.7207 -0.258597 2.02959 0
M  V30 499 H 56.7307 -2.30957 3.36338 0
M  V30 500 H 55.4057 -1.31511 3.9456 0
M  V30 501 H 53.9827 -2.61651 2.65694 0
M  V30 502 N 56.1678 -1.49265 -0.50573 0
M  V30 503 C 57.3928 -1.62478 -1.28902 0
M  V30 504 C 57.8178 -0.294332 -1.85783 0
M  V30 505 O 57.1758 0.737412 -1.65626 0
M  V30 506 C 57.2238 -2.69268 -2.39848 0
M  V30 507 O 56.3278 -2.28113 -3.43567 0
M  V30 508 H 55.6688 -0.54399 -0.380751 0
M  V30 509 H 58.1988 -1.95421 -0.605952 0
M  V30 510 H 58.2088 -2.91291 -2.85681 0
M  V30 511 H 56.8838 -3.65846 -1.97812 0
M  V30 512 H 55.4608 -2.16401 -3.03685 0
M  V30 513 N 57.6459 0.756429 -1.3826 0
M  V30 514 C 58.8929 1.51547 -1.34312 0
M  V30 515 C 59.2209 1.94382 0.0677144 0
M  V30 516 O 58.4759 1.65514 1.04421 0
M  V30 517 C 58.7749 2.78313 -2.24224 0
M  V30 518 C 58.4409 2.54455 -3.72241 0
M  V30 519 C 57.1029 2.47657 -4.12576 0
M  V30 520 C 59.4549 2.3354 -4.65949 0
M  V30 521 C 56.7829 2.17956 -5.44713 0
M  V30 522 C 59.1349 2.05359 -5.9834 0
M  V30 523 C 57.7989 1.97016 -6.37762 0
M  V30 524 H 57.0689 0.55455 -0.491482 0
M  V30 525 H 59.7159 0.870039 -1.70595 0
M  V30 526 H 58.0209 3.47492 -1.80987 0
M  V30 527 H 59.7179 3.36259 -2.18474 0
M  V30 528 H 56.3079 2.60616 -3.40261 0
M  V30 529 H 60.4919 2.37772 -4.35635 0
M  V30 530 H 55.7479 2.10003 -5.74203 0
M  V30 531 H 59.9219 1.88179 -6.70494 0
M  V30 532 H 57.5489 1.73766 -7.40074 0
M  V30 533 N 59.124 1.23083 0.984299 0
M  V30 534 C 60.349 1.088 1.76571 0
M  V30 535 C 60.774 -0.356657 1.84688 0
M  V30 536 O 60.132 -1.25788 1.30565 0
M  V30 537 C 60.18 1.71371 3.17277 0
M  V30 538 O 59.284 0.973213 4.00752 0
M  V30 539 H 58.625 0.381599 0.543395 0
M  V30 540 H 61.155 1.63057 1.23587 0
M  V30 541 H 61.165 1.76449 3.67872 0
M  V30 542 H 59.84 2.76493 3.10684 0
M  V30 543 H 58.417 0.999078 3.59267 0
M  V30 544 N 60.6021 -1.18246 1.0419 0
M  V30 545 C 61.8421 -1.89948 0.754916 0
M  V30 546 C 62.2061 -1.78608 -0.70451 0
M  V30 547 O 63.4071 -2.4503 -1.10516 0
M  V30 548 C 61.6781 -3.36305 1.20969 0
M  V30 549 S 63.2371 -4.26088 1.04854 0
M  V30 550 H 60.0551 -0.655897 0.274446 0
M  V30 551 H 62.6571 -1.42873 1.33445 0
M  V30 552 H 61.3611 -3.42089 2.26722 0
M  V30 553 H 60.8921 -3.8842 0.624004 0
M  V30 554 H 62.9071 -4.96189 -0.0332896 0
M  V30 555 N 62.0802 -0.821533 -1.34494 0
M  V30 556 C 63.0102 -0.257138 -2.3208 0
M  V30 557 C 63.9912 0.625645 -1.58176 0
M  V30 558 O 65.1762 0.552811 -1.86166 0
M  V30 559 C 62.3062 0.582958 -3.42372 0
M  V30 560 C 61.2602 -0.202571 -4.2752 0
M  V30 561 C 60.5862 0.760179 -5.29269 0
M  V30 562 C 61.8862 -1.40998 -5.02908 0
M  V30 563 H 63.5802 -1.07247 -2.79532 0
M  V30 564 H 61.1262 -0.517163 -1.34393 0
M  V30 565 H 63.0792 0.987972 -4.09655 0
M  V30 566 H 61.8032 1.43133 -2.93565 0
M  V30 567 H 60.4622 -0.588936 -3.61838 0
M  V30 568 H 60.1102 1.60447 -4.76724 0
M  V30 569 H 59.8102 0.238809 -5.87115 0
M  V30 570 H 61.3342 1.16308 -5.9942 0
M  V30 571 H 62.7482 -1.07905 -5.63054 0
M  V30 572 H 61.1452 -1.86689 -5.70322 0
M  V30 573 H 62.2152 -2.1889 -4.32684 0
M  V30 574 N 63.5583 1.46682 -0.576371 0
M  V30 575 C 64.7833 2.07304 -0.0630475 0
M  V30 576 C 65.2083 1.42329 1.2298 0
M  V30 577 O 64.5663 0.504865 1.74129 0
M  V30 578 C 64.6143 3.60472 0.095895 0
M  V30 579 O 63.7183 3.95927 1.15394 0
M  V30 580 H 63.0593 0.661288 -0.0599463 0
M  V30 581 H 65.5893 1.88417 -0.797511 0
M  V30 582 H 65.5993 4.06865 0.304071 0
M  V30 583 H 64.2743 4.07157 -0.84828 0
M  V30 584 H 62.8513 3.61252 0.924724 0
M  V30 585 N 65.0364 0.313813 1.54444 0
M  V30 586 C 66.4524 -0.0391619 1.59552 0
M  V30 587 C 66.6524 -1.51322 1.33056 0
M  V30 588 O 65.7084 -2.26782 1.11022 0
M  V30 589 C 67.0214 0.370302 2.98411 0
M  V30 590 C 68.5694 0.320139 3.11358 0
M  V30 591 C 69.0444 0.704617 4.52547 0
M  V30 592 N 70.5354 0.657645 4.58508 0
M  V30 593 C 71.2704 0.927453 5.6585 0
M  V30 594 N 70.7664 1.26389 6.81174 0
M  V30 595 N 72.5594 0.853662 5.5558 0
M  V30 596 H 64.7104 1.27433 1.69925 0
M  V30 597 H 66.9734 0.517511 0.794284 0
M  V30 598 H 66.6794 1.39694 3.22767 0
M  V30 599 H 66.5534 -0.269619 3.76235 0
M  V30 600 H 68.9404 -0.697275 2.86744 0
M  V30 601 H 69.0214 0.99486 2.35661 0
M  V30 602 H 68.6654 1.7199 4.77893 0
M  V30 603 H 68.5954 0.00768843 5.26599 0
M  V30 604 H 71.0864 0.409067 3.75679 0
M  V30 605 H 71.3994 1.4554 7.58972 0
M  V30 606 H 69.7444 1.30206 6.82694 0
M  V30 607 H 72.9354 0.590383 4.64362 0
M  V30 608 H 73.1084 1.0673 6.3915 0
M  V30 609 N 66.5145 -1.57545 0.0417849 0
M  V30 610 C 67.4645 -2.07483 -0.945247 0
M  V30 611 C 68.4485 -0.977983 -1.27767 0
M  V30 612 O 69.6405 -1.24142 -1.26166 0
M  V30 613 C 66.7695 -2.61576 -2.22335 0
M  V30 614 C 65.8555 -3.78213 -1.91874 0
M  V30 615 N 66.2465 -4.88344 -1.31733 0
M  V30 616 C 64.5445 -3.8694 -2.21796 0
M  V30 617 C 65.2455 -5.69462 -1.1869 0
M  V30 618 N 64.2215 -5.16771 -1.68666 0
M  V30 619 H 68.0235 -2.90029 -0.475441 0
M  V30 620 H 65.5375 -1.61581 -0.162911 0
M  V30 621 H 67.5345 -2.95651 -2.93932 0
M  V30 622 H 66.1945 -1.80465 -2.69931 0
M  V30 623 H 67.2055 -5.08335 -0.990729 0
M  V30 624 H 63.8825 -3.16757 -2.71977 0
M  V30 625 H 65.2725 -6.68023 -0.720793 0
M  V30 626 N 67.9926 0.231505 -1.5589 0
M  V30 627 C 69.2406 0.955461 -1.78088 0
M  V30 628 C 69.5616 1.85262 -0.608533 0
M  V30 629 O 68.8316 1.92277 0.375035 0
M  V30 630 H 67.4116 0.355787 -0.656829 0
M  V30 631 H 70.0736 0.245751 -1.93344 0
M  V30 632 H 69.1696 1.56814 -2.69844 0
M  V30 633 N 69.4707 1.49531 0.497807 0
M  V30 634 C 70.7187 1.58865 1.24926 0
M  V30 635 C 71.0397 0.278721 1.92998 0
M  V30 636 O 70.3097 -0.702144 1.82885 0
M  V30 637 H 68.8897 0.585343 0.464094 0
M  V30 638 H 71.5517 1.86174 0.57666 0
M  V30 639 H 70.6477 2.38633 2.01149 0
M  V30 640 N 70.9488 -0.749086 1.3866 0
M  V30 641 C 72.1968 -1.50535 1.34847 0
M  V30 642 C 72.5178 -1.94909 -0.0595016 0
M  V30 643 O 71.7878 -1.67973 -1.00806 0
M  V30 644 H 70.3678 -0.558395 0.49619 0
M  V30 645 H 73.0298 -0.890165 1.73384 0
M  V30 646 H 72.1258 -2.39413 2.00219 0
M  V30 647 N 72.4269 -1.23603 -0.977757 0
M  V30 648 C 73.6749 -1.06759 -1.71601 0
M  V30 649 C 73.9959 0.395929 -1.90938 0
M  V30 650 O 73.2659 1.28356 -1.47992 0
M  V30 651 H 71.8459 -0.392062 -0.635843 0
M  V30 652 H 74.5079 -1.55362 -1.1768 0
M  V30 653 H 73.6039 -1.55763 -2.70452 0
M  V30 654 N 73.905 1.17692 -1.04816 0
M  V30 655 C 75.153 1.87488 -0.754497 0
M  V30 656 C 75.474 1.81205 0.720407 0
M  V30 657 O 74.744 1.23544 1.52032 0
M  V30 658 H 73.324 0.694101 -0.276102 0
M  V30 659 H 75.986 1.42793 -1.32651 0
M  V30 660 H 75.082 2.93328 -1.06606 0
M  V30 661 N 75.3831 0.828654 1.34056 0
M  V30 662 C 76.6311 0.41863 1.97717 0
M  V30 663 C 76.9521 -1.02314 1.66002 0
M  V30 664 O 76.2221 -1.71119 0.953683 0
M  V30 665 H 74.8021 0.151809 0.731412 0
M  V30 666 H 77.4641 1.05936 1.63596 0
M  V30 667 H 76.5601 0.542318 3.07352 0
M  V30 668 N 76.8612 -1.46375 0.584142 0
M  V30 669 C 78.1082 -2.02378 0.0702675 0
M  V30 670 C 78.4362 -1.45545 -1.29023 0
M  V30 671 O 77.6912 -0.610967 -1.85918 0
M  V30 672 C 77.9902 -3.57373 -0.0439342 0
M  V30 673 C 77.6562 -4.33252 1.24915 0
M  V30 674 C 76.3182 -4.53701 1.60341 0
M  V30 675 C 78.6702 -4.7681 2.1048 0
M  V30 676 C 75.9982 -5.1496 2.81128 0
M  V30 677 C 78.3502 -5.39404 3.30494 0
M  V30 678 C 77.0142 -5.5808 3.66201 0
M  V30 679 H 76.2842 -0.740554 0.0257127 0
M  V30 680 H 78.9312 -1.75727 0.761065 0
M  V30 681 H 77.2362 -3.83169 -0.817869 0
M  V30 682 H 78.9332 -3.98384 -0.457318 0
M  V30 683 H 75.5232 -4.17633 0.963364 0
M  V30 684 H 79.7072 -4.60766 1.84414 0
M  V30 685 H 74.9632 -5.27611 3.08928 0
M  V30 686 H 79.1372 -5.72114 3.97063 0
M  V30 687 H 76.7642 -6.05318 4.59885 0
M  V30 688 N 78.3393 -0.321999 -1.54275 0
M  V30 689 C 79.5873 0.280489 -2.00144 0
M  V30 690 C 79.9083 1.52777 -1.21178 0
M  V30 691 O 79.1783 1.9338 -0.313187 0
M  V30 692 H 77.7583 0.106632 -0.73935 0
M  V30 693 H 80.4203 -0.438184 -1.8991 0
M  V30 694 H 79.5163 0.537972 -3.07428 0
M  V30 695 N 79.8174 1.5752 -0.0501392 0
M  V30 696 C 81.0654 1.9227 0.622642 0
M  V30 697 C 81.3864 0.929083 1.71444 0
M  V30 698 O 80.6564 -0.0262186 1.95882 0
M  V30 699 H 79.2364 0.709739 0.232981 0
M  V30 700 H 81.8984 1.94628 -0.102898 0
M  V30 701 H 80.9944 2.93479 1.06191 0
M  V30 702 N 81.2955 -0.223234 1.56011 0
M  V30 703 C 82.5435 -0.946003 1.78592 0
M  V30 704 C 82.8645 -1.84936 0.618349 0
M  V30 705 O 82.1345 -1.92473 -0.364833 0
M  V30 706 H 80.7145 -0.352298 0.658707 0
M  V30 707 H 83.3765 -0.235494 1.93472 0
M  V30 708 H 82.4725 -1.55381 2.70672 0
M  V30 709 N 82.7736 -1.49793 -0.48987 0
M  V30 710 C 84.0216 -1.59525 -1.24081 0
M  V30 711 C 84.3426 -0.288953 -1.92847 0
M  V30 712 O 83.6126 0.692436 -1.83254 0
M  V30 713 H 82.1926 -0.587796 -0.460983 0
M  V30 714 H 84.8546 -1.86477 -0.566778 0
M  V30 715 H 83.9506 -2.39696 -1.99881 0
M  V30 716 N 84.2517 0.741722 -1.39055 0
M  V30 717 C 85.4987 1.50114 -1.35912 0
M  V30 718 C 85.8267 1.94443 0.0470937 0
M  V30 719 O 85.0817 1.66612 1.02659 0
M  V30 720 C 85.3807 2.7592 -2.27163 0
M  V30 721 C 85.0467 2.50493 -3.74919 0
M  V30 722 C 83.7087 2.43267 -4.1518 0
M  V30 723 C 86.0607 2.28585 -4.684 0
M  V30 724 C 83.3887 2.12166 -5.46994 0
M  V30 725 C 85.7407 1.99002 -6.00484 0
M  V30 726 C 84.4047 1.90241 -6.39816 0
M  V30 727 H 83.6747 0.549306 -0.497336 0
M  V30 728 H 86.3217 0.851896 -1.71508 0
M  V30 729 H 84.6267 3.45553 -1.84663 0
M  V30 730 H 86.3237 3.33923 -2.22028 0
M  V30 731 H 82.9137 2.56992 -3.43006 0
M  V30 732 H 87.0977 2.33139 -4.38132 0
M  V30 733 H 82.3537 2.03901 -5.76398 0
M  V30 734 H 86.5277 1.81057 -6.72452 0
M  V30 735 H 84.1547 1.65907 -7.41875 0
M  V30 736 N 85.7298 1.2412 0.971189 0
M  V30 737 C 86.9778 1.07668 1.71032 0
M  V30 738 C 87.2988 -0.385797 1.91146 0
M  V30 739 O 86.5688 -1.27569 1.4867 0
M  V30 740 H 85.1488 0.395429 0.633755 0
M  V30 741 H 87.8108 1.55984 1.16855 0
M  V30 742 H 86.9068 1.57195 2.69622 0
M  V30 743 N 87.2079 -1.17134 1.05439 0
M  V30 744 C 88.4329 -1.91913 0.786396 0
M  V30 745 C 88.8579 -1.7643 -0.652234 0
M  V30 746 O 88.2159 -1.08372 -1.45345 0
M  V30 747 C 88.2639 -3.40921 1.17497 0
M  V30 748 O 87.3679 -4.11244 0.308589 0
M  V30 749 H 86.7089 -0.598215 0.288158 0
M  V30 750 H 89.2389 -1.48457 1.4079 0
M  V30 751 H 89.2489 -3.91668 1.14281 0
M  V30 752 H 87.9239 -3.5151 2.22292 0
M  V30 753 H 86.5009 -3.70731 0.40157 0
M  V30 754 N 88.686 -0.835752 -1.33615 0
M  V30 755 C 90.102 -0.523139 -1.50783 0
M  V30 756 C 90.302 0.950171 -1.77691 0
M  V30 757 O 89.358 1.73411 -1.83534 0
M  V30 758 C 90.671 -1.39378 -2.66448 0
M  V30 759 C 92.219 -1.39223 -2.80332 0
M  V30 760 C 92.694 -2.24765 -3.99055 0
M  V30 761 N 94.185 -2.22458 -4.06284 0
M  V30 762 C 94.92 -2.85386 -4.97336 0
M  V30 763 N 94.416 -3.57354 -5.93523 0
M  V30 764 N 96.209 -2.74872 -4.90308 0
M  V30 765 H 88.36 -1.78952 -1.14411 0
M  V30 766 H 90.623 -0.763297 -0.562212 0
M  V30 767 H 90.329 -2.44061 -2.53234 0
M  V30 768 H 90.203 -1.0676 -3.61776 0
M  V30 769 H 92.59 -0.353136 -2.92979 0
M  V30 770 H 92.671 -1.75846 -1.85773 0
M  V30 771 H 92.315 -3.28732 -3.87167 0
M  V30 772 H 92.245 -1.85485 -4.92852 0
M  V30 773 H 94.736 -1.70119 -3.37443 0
M  V30 774 H 95.049 -4.02584 -6.59656 0
M  V30 775 H 93.394 -3.61461 -5.93608 0
M  V30 776 H 96.585 -2.18213 -4.14126 0
M  V30 777 H 96.758 -3.24199 -5.61069 0
M  V30 778 N 90.1641 1.46063 -0.591896 0
M  V30 779 C 91.3891 2.07226 -0.0850314 0
M  V30 780 C 91.8141 1.43625 1.21463 0
M  V30 781 O 91.1721 0.523305 1.73583 0
M  V30 782 C 91.2201 3.60554 0.0576567 0
M  V30 783 O 90.3241 3.97128 1.11188 0
M  V30 784 H 89.6651 0.660615 -0.0669568 0
M  V30 785 H 92.1951 1.8756 -0.81745 0
M  V30 786 H 92.2051 4.07165 0.2609 0
M  V30 787 H 90.8801 4.06235 -0.891416 0
M  V30 788 H 89.4571 3.62213 0.886356 0
M  V30 789 N 91.6422 0.330177 1.54103 0
M  V30 790 C 92.5722 -0.525353 2.27513 0
M  V30 791 C 93.5532 -1.11383 1.2856 0
M  V30 792 O 94.7382 -1.13773 1.57383 0
M  V30 793 C 91.8682 -1.6831 3.03791 0
M  V30 794 C 90.8222 -1.2236 4.10137 0
M  V30 795 C 90.1482 -2.46882 4.74293 0
M  V30 796 C 91.4482 -0.333697 5.21233 0
M  V30 797 H 93.1422 0.087013 2.99274 0
M  V30 798 H 90.6882 0.0432893 1.43935 0
M  V30 799 H 92.6412 -2.28795 3.5388 0
M  V30 800 H 91.3652 -2.32216 2.29659 0
M  V30 801 H 90.0242 -0.64165 3.60941 0
M  V30 802 H 89.6722 -3.09165 3.96769 0
M  V30 803 H 89.3722 -2.16825 5.46133 0
M  V30 804 H 90.8962 -3.08117 5.27159 0
M  V30 805 H 92.3102 -0.845013 5.67038 0
M  V30 806 H 90.7072 -0.125612 5.99969 0
M  V30 807 H 91.7772 0.633724 4.80741 0
M  V30 808 N 93.1203 -1.57491 0.0584922 0
M  V30 809 C 94.3663 -1.93264 -0.614558 0
M  V30 810 C 94.6993 -0.937717 -1.7006 0
M  V30 811 O 93.9743 0.0351652 -1.94468 0
M  V30 812 C 94.2573 -3.3938 -1.20386 0
M  V30 813 C 94.1103 -4.49625 -0.125375 0
M  V30 814 C 95.4293 -3.86039 -2.11334 0
M  V30 815 H 92.5483 -0.702791 -0.221933 0
M  V30 816 H 95.1903 -1.8961 0.12175 0
M  V30 817 H 93.3403 -3.42626 -1.83139 0
M  V30 818 H 95.0123 -4.58506 0.506971 0
M  V30 819 H 93.2553 -4.30354 0.545672 0
M  V30 820 H 93.9263 -5.48967 -0.577861 0
M  V30 821 H 96.4023 -3.84716 -1.58534 0
M  V30 822 H 95.2783 -4.88914 -2.49507 0
M  V30 823 H 95.5393 -3.23215 -3.01636 0
M  V30 824 N 94.5984 0.214957 -1.56127 0
M  V30 825 C 95.8464 0.936518 -1.79091 0
M  V30 826 C 96.1674 1.84606 -0.628148 0
M  V30 827 O 95.4374 1.92664 0.35462 0
M  V30 828 H 94.0174 0.3488 -0.660566 0
M  V30 829 H 96.6794 0.22523 -1.93594 0
M  V30 830 H 95.7754 1.53943 -2.71492 0
M  V30 831 N 96.0765 1.50051 0.48192 0
M  V30 832 C 97.0065 1.71046 1.58951 0
M  V30 833 C 97.9875 0.559288 1.60642 0
M  V30 834 O 99.1725 0.797243 1.77081 0
M  V30 835 C 96.3025 1.79462 2.97339 0
M  V30 836 C 95.2565 2.94558 3.10515 0
M  V30 837 C 94.5825 2.88105 4.50444 0
M  V30 838 C 95.8825 4.35227 2.88747 0
M  V30 839 H 97.5765 2.6378 1.41635 0
M  V30 840 H 95.1225 1.26936 0.679942 0
M  V30 841 H 97.0755 1.92734 3.74742 0
M  V30 842 H 95.7995 0.833412 3.15788 0
M  V30 843 H 94.4585 2.80918 2.35543 0
M  V30 844 H 94.1065 1.89853 4.65795 0
M  V30 845 H 93.8065 3.65366 4.60197 0
M  V30 846 H 95.3305 3.03412 5.29881 0
M  V30 847 H 96.7445 4.49449 3.55905 0
M  V30 848 H 95.1415 5.13856 3.09955 0
M  V30 849 H 96.2115 4.48347 1.84696 0
M  V30 850 N 97.5546 -0.734337 1.39446 0
M  V30 851 C 98.8026 -1.49096 1.36436 0
M  V30 852 C 99.1236 -1.94961 -0.0388255 0
M  V30 853 O 98.3936 -1.69033 -0.990191 0
M  V30 854 H 96.9736 -0.5531 0.502085 0
M  V30 855 H 99.6356 -0.871725 1.74319 0
M  V30 856 H 98.7316 -2.37276 2.02747 0
M  V30 857 N 99.0327 -1.24633 -0.964593 0
M  V30 858 C 100.281 -1.08573 -1.70459 0
M  V30 859 C 100.602 0.375655 -1.91347 0
M  V30 860 O 99.8717 1.26779 -1.49345 0
M  V30 861 H 98.4517 -0.398784 -0.631649 0
M  V30 862 H 101.114 -1.56601 -1.16026 0
M  V30 863 H 100.21 -1.58623 -2.68785 0
M  V30 864 N 100.511 1.16574 -1.06058 0
M  V30 865 C 101.739 1.90952 -0.796552 0
M  V30 866 C 102.154 1.77302 0.648808 0
M  V30 867 O 101.511 1.11605 1.44397 0
M  V30 868 C 101.562 3.41736 -1.17894 0
M  V30 869 O 101.283 3.54975 -2.56758 0
M  V30 870 C 102.784 4.33169 -0.942308 0
M  V30 871 H 100.004 0.605594 -0.288959 0
M  V30 872 H 102.548 1.47777 -1.41358 0
M  V30 873 H 100.703 3.82623 -0.606491 0
M  V30 874 H 101.117 4.4846 -2.72 0
M  V30 875 H 102.591 5.37439 -1.25952 0
M  V30 876 H 103.068 4.3903 0.122078 0
M  V30 877 H 103.674 3.98007 -1.49902 0
M  V30 878 N 101.989 0.842826 1.3317 0
M  V30 879 C 102.936 0.276885 2.29133 0
M  V30 880 C 103.906 -0.609527 1.54512 0
M  V30 881 O 105.091 -0.546955 1.82792 0
M  V30 882 C 102.231 -0.538707 3.40869 0
M  V30 883 C 101.344 0.372169 4.30394 0
M  V30 884 C 100.479 -0.454908 5.29249 0
M  V30 885 C 99.5179 0.45411 6.10413 0
M  V30 886 N 98.6549 -0.335075 7.013 0
M  V30 887 H 103.495 1.10052 2.76934 0
M  V30 888 H 101.032 0.554161 1.36262 0
M  V30 889 H 102.99 -1.02709 4.0436 0
M  V30 890 H 101.62 -1.32727 2.9425 0
M  V30 891 H 100.672 0.97888 3.6759 0
M  V30 892 H 101.984 1.0703 4.87182 0
M  V30 893 H 101.138 -1.00695 5.98285 0
M  V30 894 H 99.8769 -1.18646 4.73048 0
M  V30 895 H 98.8819 1.01813 5.40291 0
M  V30 896 H 100.107 1.18409 6.68697 0
M  V30 897 H 98.0529 -1.04994 6.47543 0
M  V30 898 H 97.9699 0.304262 7.55387 0
M  V30 899 H 99.2379 -0.869224 7.74638 0
M  V30 900 N 103.467 -1.45747 0.599634 0
M  V30 901 C 104.692 -2.07178 0.0960198 0
M  V30 902 C 105.117 -1.44268 -1.207 0
M  V30 903 O 104.475 -0.532503 -1.73303 0
M  V30 904 C 104.523 -3.60579 -0.0385348 0
M  V30 905 O 103.627 -3.97713 -1.0908 0
M  V30 906 H 102.968 -0.660251 0.0704593 0
M  V30 907 H 105.498 -1.87124 0.827385 0
M  V30 908 H 105.508 -4.07298 -0.239304 0
M  V30 909 H 104.183 -4.05756 0.912947 0
M  V30 910 H 102.76 -3.62678 -0.867135 0
M  V30 911 N 104.945 -0.338344 -1.53925 0
M  V30 912 C 106.194 0.260732 -2.00008 0
M  V30 913 C 106.507 1.52073 -1.23017 0
M  V30 914 O 107.713 2.19672 -1.5955 0
M  V30 915 C 106.169 0.51515 -3.56194 0
M  V30 916 C 105.777 -0.728645 -4.42035 0
M  V30 917 C 107.521 1.07337 -4.10706 0
M  V30 918 C 105.428 -0.445315 -5.89721 0
M  V30 919 H 104.358 0.101205 -0.747177 0
M  V30 920 H 107.009 -0.452866 -1.77824 0
M  V30 921 H 105.391 1.28932 -3.74423 0
M  V30 922 H 106.565 -1.50352 -4.35581 0
M  V30 923 H 104.88 -1.20813 -3.98489 0
M  V30 924 H 107.477 1.30022 -5.18651 0
M  V30 925 H 107.82 2.0273 -3.63602 0
M  V30 926 H 108.353 0.360034 -3.96167 0
M  V30 927 H 105.092 -1.36883 -6.41049 0
M  V30 928 H 104.612 0.291569 -5.99091 0
M  V30 929 H 106.291 -0.0606218 -6.46972 0
M  V30 930 N 106.423 1.57458 -0.0668435 0
M  V30 931 C 107.648 1.9804 0.616027 0
M  V30 932 C 108.073 0.944771 1.62652 0
M  V30 933 O 107.431 -0.0902094 1.81075 0
M  V30 934 C 107.479 3.37665 1.26549 0
M  V30 935 O 106.583 3.36701 2.38131 0
M  V30 936 H 105.924 0.644719 0.158849 0
M  V30 937 H 108.454 2.04121 -0.139891 0
M  V30 938 H 108.464 3.7474 1.6135 0
M  V30 939 H 107.139 4.12573 0.525016 0
M  V30 940 H 105.716 3.1139 2.0516 0
M  V30 941 N 107.901 -0.206675 1.56239 0
M  V30 942 C 109.15 -0.926964 1.79138 0
M  V30 943 C 109.463 -1.84901 0.638043 0
M  V30 944 O 110.669 -2.60906 0.751033 0
M  V30 945 C 109.125 -1.6986 3.17294 0
M  V30 946 C 108.733 -0.821956 4.40395 0
M  V30 947 C 110.477 -2.40922 3.4951 0
M  V30 948 C 108.384 -1.59179 5.69575 0
M  V30 949 H 107.314 -0.349864 0.667915 0
M  V30 950 H 109.965 -0.180487 1.8261 0
M  V30 951 H 108.347 -2.48853 3.08039 0
M  V30 952 H 109.521 -0.0715019 4.60745 0
M  V30 953 H 107.836 -0.222741 4.15804 0
M  V30 954 H 110.433 -2.99047 4.43255 0
M  V30 955 H 110.776 -3.14542 2.72707 0
M  V30 956 H 111.309 -1.68905 3.60161 0
M  V30 957 H 108.048 -0.898589 6.49312 0
M  V30 958 H 107.568 -2.31648 5.53262 0
M  V30 959 H 109.247 -2.14862 6.10281 0
M  V30 960 N 109.379 -1.50304 -0.473955 0
M  V30 961 C 110.604 -1.65175 -1.25427 0
M  V30 962 C 111.029 -0.333673 -1.85117 0
M  V30 963 O 110.387 0.702114 -1.67153 0
M  V30 964 C 110.435 -2.74295 -2.34082 0
M  V30 965 O 109.539 -2.35349 -3.38651 0
M  V30 966 H 108.88 -0.551944 -0.369126 0
M  V30 967 H 111.41 -1.96662 -0.564364 0
M  V30 968 H 111.42 -2.97285 -2.79438 0
M  V30 969 H 110.095 -3.69959 -1.90008 0
M  V30 970 H 108.672 -2.22794 -2.99027 0
M  V30 971 N 110.857 0.726932 -1.39834 0
M  V30 972 C 112.103 1.48884 -1.377 0
M  V30 973 C 112.436 1.94185 0.0244852 0
M  V30 974 O 111.711 1.67361 0.990986 0
M  V30 975 C 111.994 2.72288 -2.3565 0
M  V30 976 C 111.847 2.32956 -3.84775 0
M  V30 977 C 113.166 3.74414 -2.31306 0
M  V30 978 H 110.285 0.540062 -0.5015 0
M  V30 979 H 112.927 0.830547 -1.70886 0
M  V30 980 H 111.077 3.28457 -2.07481 0
M  V30 981 H 112.749 1.82356 -4.23726 0
M  V30 982 H 110.992 1.65088 -4.01159 0
M  V30 983 H 111.663 3.21362 -4.4881 0
M  V30 984 H 114.139 3.27849 -2.56231 0
M  V30 985 H 113.015 4.58414 -3.01907 0
M  V30 986 H 113.276 4.21909 -1.32081 0
M  V30 987 N 112.336 1.25143 0.95797 0
M  V30 988 C 113.299 1.05321 2.03569 0
M  V30 989 C 114.299 0.007152 1.60798 0
M  V30 990 O 115.489 0.24903 1.72411 0
M  V30 991 C 112.621 0.598394 3.35607 0
M  V30 992 H 113.814 2.00986 2.22586 0
M  V30 993 H 111.367 1.07502 1.13459 0
M  V30 994 H 112.102 -0.361014 3.22284 0
M  V30 995 H 111.887 1.35351 3.67998 0
M  V30 996 H 113.377 0.48104 4.1482 0
M  V30 997 N 113.814 -1.1601 1.06675 0
M  V30 998 C 115.062 -1.86264 0.784229 0
M  V30 999 C 115.383 -1.82328 -0.691488 0
M  V30 1000 O 114.653 -1.25947 -1.50047 0
M  V30 1001 H 113.233 -0.689621 0.28711 0
M  V30 1002 H 115.895 -1.40664 1.34906 0
M  V30 1003 H 114.991 -2.91595 1.11259 0
M  V30 1004 N 115.292 -0.849877 -1.32721 0
M  V30 1005 C 116.54 -0.450032 -1.97026 0
M  V30 1006 C 116.861 0.996604 -1.67609 0
M  V30 1007 O 116.131 1.6958 -0.980786 0
M  V30 1008 H 114.711 -0.163426 -0.728904 0
M  V30 1009 H 117.373 -1.08526 -1.6189 0
M  V30 1010 H 116.469 -0.591146 -3.0645 0
M  V30 1011 N 116.77 1.45427 -0.607355 0
M  V30 1012 C 118.018 2.01841 -0.102253 0
M  V30 1013 C 118.339 1.47832 1.27164 0
M  V30 1014 O 117.609 0.672497 1.83995 0
M  V30 1015 H 116.189 0.746188 -0.0348101 0
M  V30 1016 H 118.851 1.78229 -0.7887 0
M  V30 1017 H 117.947 3.12057 -0.0518585 0
M  V30 1018 N 118.248 0.346503 1.53744 0
M  V30 1019 C 119.496 -0.248612 2.00565 0
M  V30 1020 C 119.817 -1.5083 1.23593 0
M  V30 1021 O 119.087 -1.92858 0.343912 0
M  V30 1022 H 117.667 -0.0948564 0.740953 0
M  V30 1023 H 120.329 0.468341 1.89189 0
M  V30 1024 H 119.425 -0.488994 3.08245 0
M  V30 1025 N 119.726 -1.57421 0.075193 0
M  V30 1026 C 120.974 -1.93236 -0.591974 0
M  V30 1027 C 121.295 -0.956241 -1.69944 0
M  V30 1028 O 120.565 -0.00494792 -1.95899 0
M  V30 1029 H 119.145 -0.713355 -0.22166 0
M  V30 1030 H 121.807 -1.9444 0.133848 0
M  V30 1031 H 120.903 -2.95131 -1.01509 0
M  V30 1032 N 121.204 0.198386 -1.56346 0
M  V30 1033 C 122.451 0.919286 -1.80431 0
M  V30 1034 C 122.779 1.83393 -0.647866 0
M  V30 1035 O 122.034 1.92236 0.366556 0
M  V30 1036 C 122.333 1.77031 -3.10475 0
M  V30 1037 C 121.999 1.00693 -4.39513 0
M  V30 1038 C 120.661 0.796145 -4.74568 0
M  V30 1039 C 123.013 0.469559 -5.19081 0
M  V30 1040 C 120.341 0.0364588 -5.86689 0
M  V30 1041 C 122.693 -0.2769 -6.31994 0
M  V30 1042 C 121.357 -0.49873 -6.65634 0
M  V30 1043 H 120.627 0.336391 -0.660244 0
M  V30 1044 H 123.274 0.185872 -1.90596 0
M  V30 1045 H 121.579 2.5723 -2.95533 0
M  V30 1046 H 123.276 2.33065 -3.26315 0
M  V30 1047 H 119.866 1.18122 -4.12001 0
M  V30 1048 H 124.05 0.619816 -4.92414 0
M  V30 1049 H 119.306 -0.145412 -6.11227 0
M  V30 1050 H 123.48 -0.700684 -6.92866 0
M  V30 1051 H 121.107 -1.0893 -7.52355 0
M  V30 1052 N 122.682 1.50554 0.465978 0
M  V30 1053 C 123.93 1.61479 1.21528 0
M  V30 1054 C 124.251 0.319596 1.92363 0
M  V30 1055 O 123.521 -0.663194 1.84333 0
M  V30 1056 H 122.101 0.595055 0.451573 0
M  V30 1057 H 124.763 1.87355 0.53704 0
M  V30 1058 H 123.859 2.42846 1.96042 0
M  V30 1059 N 124.16 -0.719506 1.40217 0
M  V30 1060 C 125.123 -1.8153 1.39927 0
M  V30 1061 C 126.123 -1.58095 0.293723 0
M  V30 1062 O 127.313 -1.65209 0.552429 0
M  V30 1063 C 124.445 -3.19561 1.18716 0
M  V30 1064 H 125.638 -1.83186 2.37451 0
M  V30 1065 H 123.191 -0.924746 1.26008 0
M  V30 1066 H 123.926 -3.23557 0.219366 0
M  V30 1067 H 123.711 -3.3797 1.98793 0
M  V30 1068 H 125.201 -3.99598 1.21291 0
M  V30 1069 N 125.638 -1.25649 -0.95132 0
M  V30 1070 C 126.601 -1.06399 -2.03007 0
M  V30 1071 C 127.601 -0.0156794 -1.60792 0
M  V30 1072 O 128.791 -0.25817 -1.72276 0
M  V30 1073 C 125.923 -0.616184 -3.35285 0
M  V30 1074 H 127.116 -2.02164 -2.21517 0
M  V30 1075 H 124.669 -1.08103 -1.12887 0
M  V30 1076 H 125.404 0.343917 -3.22471 0
M  V30 1077 H 125.189 -1.37301 -3.67275 0
M  V30 1078 H 126.679 -0.503032 -4.14559 0
M  V30 1079 N 127.117 1.15442 -1.07289 0
M  V30 1080 C 128.365 1.85845 -0.794096 0
M  V30 1081 C 128.686 1.82692 0.681809 0
M  V30 1082 O 127.956 1.26741 1.49377 0
M  V30 1083 H 126.536 0.688089 -0.290763 0
M  V30 1084 H 129.198 1.39947 -1.3565 0
M  V30 1085 H 128.294 2.91001 -1.12804 0
M  V30 1086 N 128.595 0.856903 1.32268 0
M  V30 1087 C 129.843 0.460474 1.96784 0
M  V30 1088 C 130.164 -0.987701 1.68135 0
M  V30 1089 O 129.434 -1.69058 0.989765 0
M  V30 1090 H 128.014 0.167289 0.728027 0
M  V30 1091 H 130.676 1.09383 1.61312 0
M  V30 1092 H 129.772 0.60739 3.06133 0
M  V30 1093 N 130.073 -1.45103 0.615059 0
M  V30 1094 C 131.32 -2.02183 0.113179 0
M  V30 1095 C 131.648 -1.48249 -1.25906 0
M  V30 1096 O 130.903 -0.650265 -1.84581 0
M  V30 1097 C 131.202 -3.57386 0.0318797 0
M  V30 1098 C 130.868 -4.30505 1.34077 0
M  V30 1099 C 129.53 -4.50197 1.69929 0
M  V30 1100 C 131.882 -4.72238 2.20546 0
M  V30 1101 C 129.21 -5.08881 2.91988 0
M  V30 1102 C 131.562 -5.32272 3.41861 0
M  V30 1103 C 130.226 -5.50187 3.77956 0
M  V30 1104 H 129.496 -0.739842 0.0414151 0
M  V30 1105 H 132.143 -1.74073 0.798168 0
M  V30 1106 H 130.448 -3.84817 -0.736409 0
M  V30 1107 H 132.145 -3.99264 -0.372712 0
M  V30 1108 H 128.735 -4.15496 1.05173 0
M  V30 1109 H 132.919 -4.56751 1.94146 0
M  V30 1110 H 128.175 -5.20939 3.2005 0
M  V30 1111 H 132.349 -5.63563 4.09109 0
M  V30 1112 H 129.976 -5.95427 4.72622 0
M  V30 1113 N 131.551 -0.354651 -1.53558 0
M  V30 1114 C 132.799 0.237972 -2.00694 0
M  V30 1115 C 133.12 1.50173 -1.24391 0
M  V30 1116 O 132.39 1.92673 -0.354135 0
M  V30 1117 H 130.97 0.0909256 -0.741446 0
M  V30 1118 H 133.632 -0.478368 -1.88938 0
M  V30 1119 H 132.728 0.47264 -3.085 0
M  V30 1120 N 133.029 1.57378 -0.0835403 0
M  V30 1121 C 134.277 1.93547 0.581718 0
M  V30 1122 C 134.598 0.96524 1.69435 0
M  V30 1123 O 133.868 0.0153369 1.95894 0
M  V30 1124 H 132.448 0.714521 0.217874 0
M  V30 1125 H 135.11 1.94366 -0.144158 0
M  V30 1126 H 134.206 2.95665 0.999423 0
M  V30 1127 N 134.507 -0.190092 1.56449 0
M  V30 1128 C 135.923 -0.54113 1.50146 0
M  V30 1129 C 136.123 -1.85603 0.784465 0
M  V30 1130 O 135.179 -2.5024 0.337051 0
M  V30 1131 C 136.492 -0.591241 2.9483 0
M  V30 1132 C 138.04 -0.679732 3.0553 0
M  V30 1133 C 138.515 -0.760908 4.51635 0
M  V30 1134 N 140.006 -0.824302 4.55806 0
M  V30 1135 C 140.741 -0.907365 5.66175 0
M  V30 1136 N 140.237 -0.952422 6.86222 0
M  V30 1137 N 142.03 -0.94494 5.541 0
M  V30 1138 H 134.181 0.67235 2.01478 0
M  V30 1139 H 136.444 0.240127 0.917084 0
M  V30 1140 H 136.15 0.305905 3.50367 0
M  V30 1141 H 136.024 -1.44422 3.48457 0
M  V30 1142 H 138.411 -1.56731 2.50039 0
M  V30 1143 H 138.492 0.199549 2.5502 0
M  V30 1144 H 138.136 0.122336 5.07753 0
M  V30 1145 H 138.066 -1.65606 4.99882 0
M  V30 1146 H 140.557 -0.798526 3.69367 0
M  V30 1147 H 140.87 -1.01645 7.66086 0
M  V30 1148 H 139.215 -0.921014 6.8887 0
M  V30 1149 H 142.406 -0.906612 4.59236 0
M  V30 1150 H 142.579 -1.00622 6.4014 0
M  V30 1151 N 135.985 -1.50799 -0.457987 0
M  V30 1152 C 137.233 -1.62121 -1.2067 0
M  V30 1153 C 137.554 -0.329793 -1.92191 0
M  V30 1154 O 136.824 0.653409 -1.84682 0
M  V30 1155 H 135.404 -0.597441 -0.448411 0
M  V30 1156 H 138.066 -1.87637 -0.527096 0
M  V30 1157 H 137.162 -2.43882 -1.94751 0
M  V30 1158 N 137.463 0.71206 -1.40597 0
M  V30 1159 C 138.711 1.46907 -1.38791 0
M  V30 1160 C 139.032 1.94998 0.00780391 0
M  V30 1161 O 138.302 1.70587 0.963174 0
M  V30 1162 H 136.882 0.545043 -0.51082 0
M  V30 1163 H 139.544 0.843882 -1.75683 0
M  V30 1164 H 138.64 2.34021 -2.06496 0
M  V30 1165 N 138.941 1.26152 0.944643 0
M  V30 1166 C 140.189 1.11271 1.6871 0
M  V30 1167 C 140.51 -0.345166 1.91921 0
M  V30 1168 O 139.78 -1.24387 1.51343 0
M  V30 1169 H 138.36 0.408783 0.625224 0
M  V30 1170 H 141.022 1.58427 1.1352 0
M  V30 1171 H 140.118 1.62879 2.66227 0
M  V30 1172 N 140.419 -1.14872 1.07899 0
M  V30 1173 C 141.666 -1.85789 0.805532 0
M  V30 1174 C 141.994 -1.82649 -0.668561 0
M  V30 1175 O 141.249 -1.24858 -1.50695 0
M  V30 1176 C 141.548 -3.34223 1.26609 0
M  V30 1177 C 141.214 -3.57555 2.74709 0
M  V30 1178 C 139.876 -3.63631 3.1516 0
M  V30 1179 C 142.228 -3.66803 3.70277 0
M  V30 1180 C 139.556 -3.76473 4.49983 0
M  V30 1181 C 141.908 -3.8117 5.04869 0
M  V30 1182 C 140.572 -3.85494 5.44932 0
M  V30 1183 H 139.842 -0.679849 0.294765 0
M  V30 1184 H 142.489 -1.3572 1.35101 0
M  V30 1185 H 140.794 -3.86536 0.640103 0
M  V30 1186 H 142.491 -3.87511 1.03132 0
M  V30 1187 H 139.081 -3.5347 2.42398 0
M  V30 1188 H 143.265 -3.61404 3.40149 0
M  V30 1189 H 138.521 -3.7808 4.80484 0
M  V30 1190 H 142.695 -3.87268 5.78789 0
M  V30 1191 H 140.322 -3.95197 6.49403 0
M  V30 1192 N 141.898 -0.863906 -1.31812 0
M  V30 1193 C 143.146 -0.470904 -1.96537 0
M  V30 1194 C 143.467 0.978771 -1.68657 0
M  V30 1195 O 142.737 1.6853 -0.998717 0
M  V30 1196 H 141.317 -0.171148 -0.72713 0
M  V30 1197 H 143.979 -1.10236 -1.60729 0
M  V30 1198 H 143.075 -0.623616 -3.05806 0
M  V30 1199 N 143.376 1.44774 -0.622745 0
M  V30 1200 C 144.624 2.01721 -0.123655 0
M  V30 1201 C 144.945 1.49172 1.25589 0
M  V30 1202 O 144.215 0.691974 1.83272 0
M  V30 1203 H 142.795 0.745777 -0.0427225 0
M  V30 1204 H 145.457 1.77382 -0.807559 0
M  V30 1205 H 144.553 3.11984 -0.0849534 0
M  V30 1206 N 144.854 0.36279 1.53368 0
M  V30 1207 C 146.102 -0.227326 2.00817 0
M  V30 1208 C 146.423 -1.49511 1.25186 0
M  V30 1209 O 145.693 -1.92482 0.364348 0
M  V30 1210 H 144.273 -0.0869923 0.741917 0
M  V30 1211 H 146.935 0.488381 1.88682 0
M  V30 1212 H 146.031 -0.456273 3.08747 0
M  V30 1213 N 146.332 -1.57332 0.0918853 0
M  V30 1214 C 147.557 -1.98995 -0.584442 0
M  V30 1215 C 147.982 -0.970528 -1.61128 0
M  V30 1216 O 147.34 0.0613904 -1.81196 0
M  V30 1217 C 147.388 -3.39636 -1.21161 0
M  V30 1218 O 146.492 -3.40447 -2.32744 0
M  V30 1219 H 145.833 -0.647165 -0.148572 0
M  V30 1220 H 148.363 -2.03873 0.172347 0
M  V30 1221 H 148.373 -3.7726 -1.55367 0
M  V30 1222 H 147.048 -4.13356 -0.459313 0
M  V30 1223 H 145.625 -3.14614 -2.0018 0
M  V30 1224 N 147.81 0.181792 -1.56548 0
M  V30 1225 C 149.035 0.920019 -1.85877 0
M  V30 1226 C 149.46 1.75494 -0.677021 0
M  V30 1227 O 148.818 1.77399 0.374056 0
M  V30 1228 C 148.866 1.78112 -3.13542 0
M  V30 1229 O 147.97 2.88152 -2.95029 0
M  V30 1230 H 147.311 0.258334 -0.611686 0
M  V30 1231 H 149.841 0.183092 -2.03779 0
M  V30 1232 H 149.851 2.18314 -3.44678 0
M  V30 1233 H 148.526 1.16777 -3.99169 0
M  V30 1234 H 147.103 2.51609 -2.75222 0
M  V30 1235 N 149.288 1.51039 0.449983 0
M  V30 1236 C 150.535 1.63081 1.20045 0
M  V30 1237 C 150.863 0.341024 1.91487 0
M  V30 1238 O 150.118 -0.674276 1.83717 0
M  V30 1239 C 150.417 2.77556 2.25161 0
M  V30 1240 C 150.083 4.17289 1.70823 0
M  V30 1241 C 148.745 4.55305 1.55725 0
M  V30 1242 C 151.097 5.04536 1.3074 0
M  V30 1243 C 148.425 5.78287 0.989999 0
M  V30 1244 C 150.777 6.28085 0.754482 0
M  V30 1245 C 149.441 6.64885 0.590308 0
M  V30 1246 H 148.711 0.596755 0.439277 0
M  V30 1247 H 151.358 1.85037 0.49333 0
M  V30 1248 H 149.663 2.49771 3.01863 0
M  V30 1249 H 151.36 2.84073 2.83026 0
M  V30 1250 H 147.95 3.8731 1.83546 0
M  V30 1251 H 152.134 4.75782 1.41229 0
M  V30 1252 H 147.39 6.05456 0.850451 0
M  V30 1253 H 151.564 6.95038 0.435324 0
M  V30 1254 H 149.191 7.60055 0.14862 0
M  V30 1255 N 150.766 -0.704594 1.40972 0
M  V30 1256 C 152.014 -1.46169 1.39568 0
M  V30 1257 C 152.335 -1.95 0.00253745 0
M  V30 1258 O 151.605 -1.71095 -0.954114 0
M  V30 1259 H 150.185 -0.542326 0.513704 0
M  V30 1260 H 152.847 -0.834553 1.76128 0
M  V30 1261 H 151.943 -2.32922 2.07735 0
M  V30 1262 N 152.244 -1.26651 -0.937939 0
M  V30 1263 C 153.492 -1.12165 -1.68118 0
M  V30 1264 C 153.813 0.334983 -1.92101 0
M  V30 1265 O 153.083 1.23583 -1.52 0
M  V30 1266 H 151.663 -0.412093 -0.623048 0
M  V30 1267 H 154.325 -1.59027 -1.12678 0
M  V30 1268 H 153.421 -1.64289 -2.6536 0
M  V30 1269 N 153.722 1.14298 -1.08507 0
M  V30 1270 C 154.97 1.84993 -0.813763 0
M  V30 1271 C 155.291 1.83405 0.662393 0
M  V30 1272 O 154.561 1.28319 1.48024 0
M  V30 1273 H 153.141 0.684966 -0.298045 0
M  V30 1274 H 155.803 1.385 -1.37126 0
M  V30 1275 H 154.899 2.89788 -1.15884 0
M  V30 1276 N 155.201 0.870884 1.31352 0
M  V30 1277 C 156.426 0.495957 2.01383 0
M  V30 1278 C 156.851 -0.904324 1.64935 0
M  V30 1279 O 156.209 -1.59687 0.858466 0
M  V30 1280 C 156.257 0.661433 3.54482 0
M  V30 1281 O 155.361 -0.298851 4.11316 0
M  V30 1282 H 154.702 0.197158 0.634054 0
M  V30 1283 H 157.232 1.17455 1.67527 0
M  V30 1284 H 157.242 0.555072 4.04207 0
M  V30 1285 H 155.917 1.68246 3.8035 0
M  V30 1286 H 154.494 -0.147368 3.72609 0
M  V30 1287 N 156.679 -1.44442 0.630414 0
M  V30 1288 C 157.927 -2.01653 0.134351 0
M  V30 1289 C 158.248 -1.49836 -1.24796 0
M  V30 1290 O 157.518 -0.701684 -1.82902 0
M  V30 1291 H 156.098 -0.74554 0.0466769 0
M  V30 1292 H 158.76 -1.76952 0.816955 0
M  V30 1293 H 157.856 -3.11935 0.101498 0
M  V30 1294 N 158.157 -0.370918 -1.53173 0
M  V30 1295 C 159.404 0.217102 -2.01333 0
M  V30 1296 C 159.732 1.48338 -1.25802 0
M  V30 1297 O 158.987 1.92698 -0.34146 0
M  V30 1298 C 159.286 0.549696 -3.53147 0
M  V30 1299 C 158.952 -0.622872 -4.46577 0
M  V30 1300 C 157.614 -0.944595 -4.71838 0
M  V30 1301 C 159.966 -1.40819 -5.01816 0
M  V30 1302 C 157.294 -2.05351 -5.49589 0
M  V30 1303 C 159.646 -2.50757 -5.80778 0
M  V30 1304 C 158.31 -2.83458 -6.04324 0
M  V30 1305 H 157.58 0.0794431 -0.736729 0
M  V30 1306 H 160.227 -0.504481 -1.84736 0
M  V30 1307 H 158.532 1.35237 -3.6772 0
M  V30 1308 H 160.229 1.017 -3.87889 0
M  V30 1309 H 156.819 -0.36209 -4.27068 0
M  V30 1310 H 161.003 -1.17289 -4.82242 0
M  V30 1311 H 156.259 -2.3108 -5.6605 0
M  V30 1312 H 160.433 -3.12022 -6.22588 0
M  V30 1313 H 158.06 -3.69508 -6.64355 0
M  V30 1314 N 159.635 1.57281 -0.100228 0
M  V30 1315 C 160.86 1.99302 0.573881 0
M  V30 1316 C 161.285 0.979059 1.60611 0
M  V30 1317 O 160.643 -0.0517803 1.81226 0
M  V30 1318 C 160.691 3.40274 1.19358 0
M  V30 1319 O 159.795 3.41676 2.30935 0
M  V30 1320 H 159.136 0.647944 0.145138 0
M  V30 1321 H 161.666 2.03779 -0.183156 0
M  V30 1322 H 161.676 3.78078 1.53365 0
M  V30 1323 H 160.351 4.13594 0.437385 0
M  V30 1324 H 158.928 3.15672 1.98509 0
M  V30 1325 N 161.113 -0.173488 1.56642 0
M  V30 1326 C 162.361 -0.888706 1.81512 0
M  V30 1327 C 162.682 -1.82875 0.676872 0
M  V30 1328 O 161.952 -1.93536 -0.303414 0
M  V30 1329 H 160.532 -0.331164 0.669582 0
M  V30 1330 H 163.194 -0.173823 1.94123 0
M  V30 1331 H 162.29 -1.46691 2.75478 0
M  V30 1332 N 162.591 -1.51276 -0.441967 0
M  V30 1333 C 163.839 -1.63392 -1.18943 0
M  V30 1334 C 164.16 -0.350159 -1.9183 0
M  V30 1335 O 163.43 0.633784 -1.85364 0
M  V30 1336 H 162.01 -0.602164 -0.442049 0
M  V30 1337 H 164.672 -1.88186 -0.507165 0
M  V30 1338 H 163.768 -2.45934 -1.92154 0
M  V30 1339 N 164.069 0.697108 -1.41344 0
M  V30 1340 C 165.317 1.45426 -1.40341 0
M  V30 1341 C 165.638 1.94996 -0.0128787 0
M  V30 1342 O 164.908 1.71599 0.945027 0
M  V30 1343 H 163.488 0.539594 -0.516573 0
M  V30 1344 H 166.15 0.825201 -1.76569 0
M  V30 1345 H 165.246 2.31817 -2.08967 0
M  V30 1346 N 165.547 1.27147 0.931209 0
M  V30 1347 C 166.794 1.13278 1.67852 0
M  V30 1348 C 167.122 -0.32204 1.91815 0
M  V30 1349 O 166.377 -1.25224 1.50391 0
M  V30 1350 C 166.676 1.8579 3.05314 0
M  V30 1351 C 166.342 3.35657 3.01073 0
M  V30 1352 C 165.004 3.76536 2.99623 0
M  V30 1353 C 167.356 4.31299 2.92627 0
M  V30 1354 C 164.684 5.11426 2.87506 0
M  V30 1355 C 167.036 5.66242 2.82051 0
M  V30 1356 C 165.7 6.06418 2.7895 0
M  V30 1357 H 164.97 0.414515 0.614214 0
M  V30 1358 H 167.617 1.57712 1.08624 0
M  V30 1359 H 165.922 1.33854 3.68226 0
M  V30 1360 H 167.619 1.72491 3.62005 0
M  V30 1361 H 164.209 3.03146 3.02986 0
M  V30 1362 H 168.393 4.00692 2.92848 0
M  V30 1363 H 163.649 5.41705 2.83489 0
M  V30 1364 H 167.823 6.40026 2.74481 0
M  V30 1365 H 165.45 7.10895 2.69318 0
M  V30 1366 N 167.025 -1.13721 1.09112 0
M  V30 1367 C 168.273 -1.84559 0.823562 0
M  V30 1368 C 168.594 -1.83754 -0.652658 0
M  V30 1369 O 167.864 -1.29102 -1.47342 0
M  V30 1370 H 166.444 -0.683376 0.301673 0
M  V30 1371 H 169.106 -1.37771 1.37859 0
M  V30 1372 H 168.202 -2.8917 1.17419 0
M  V30 1373 N 168.503 -0.877838 -1.30888 0
M  V30 1374 C 169.751 -0.491723 -1.96027 0
M  V30 1375 C 170.072 0.960827 -1.69685 0
M  V30 1376 O 169.342 1.67462 -1.01654 0
M  V30 1377 H 167.922 -0.17885 -0.725273 0
M  V30 1378 H 170.584 -1.11935 -1.59551 0
M  V30 1379 H 169.68 -0.656016 -3.05128 0
M  V30 1380 N 169.982 1.44106 -0.638065 0
M  V30 1381 C 171.23 2.01579 -0.145043 0
M  V30 1382 C 171.551 1.50496 1.24 0
M  V30 1383 O 170.821 0.711374 1.82527 0
M  V30 1384 H 169.401 0.745282 -0.05063 0
M  V30 1385 H 172.063 1.76516 -0.826327 0
M  V30 1386 H 171.159 3.11877 -0.118039 0
M  V30 1387 N 171.46 0.379036 1.52974 0
M  V30 1388 C 172.708 -0.206014 2.01047 0
M  V30 1389 C 173.029 -1.48175 1.26765 0
M  V30 1390 O 172.299 -1.92085 0.384743 0
M  V30 1391 H 170.879 -0.0791184 0.742798 0
M  V30 1392 H 173.541 0.508366 1.88153 0
M  V30 1393 H 172.637 -0.423501 3.09213 0
M  V30 1394 N 172.938 -1.57226 0.108567 0
M  V30 1395 C 174.185 -1.94833 -0.551943 0
M  V30 1396 C 174.513 -0.991204 -1.67348 0
M  V30 1397 O 173.768 -0.0131878 -1.95696 0
M  V30 1398 C 174.067 -3.38911 -1.13463 0
M  V30 1399 C 173.733 -4.50696 -0.135509 0
M  V30 1400 C 172.395 -4.80998 0.139252 0
M  V30 1401 C 174.747 -5.18333 0.545957 0
M  V30 1402 C 172.075 -5.76259 1.10194 0
M  V30 1403 C 174.427 -6.14627 1.49721 0
M  V30 1404 C 173.091 -6.43327 1.78006 0
M  V30 1405 H 172.361 -0.712944 -0.20197 0
M  V30 1406 H 175.008 -1.90582 0.18726 0
M  V30 1407 H 173.313 -3.39805 -1.95037 0
M  V30 1408 H 175.01 -3.65317 -1.65362 0
M  V30 1409 H 171.6 -4.27087 -0.359846 0
M  V30 1410 H 175.784 -4.95087 0.346842 0
M  V30 1411 H 171.04 -5.96804 1.32795 0
M  V30 1412 H 175.214 -6.66126 2.03099 0
M  V30 1413 H 172.841 -7.1695 2.52759 0
M  V30 1414 N 174.416 0.165178 -1.56732 0
M  V30 1415 C 175.664 0.879068 -1.8198 0
M  V30 1416 C 175.985 1.82514 -0.686561 0
M  V30 1417 O 175.255 1.93694 0.293146 0
M  V30 1418 H 173.835 0.327608 -0.671329 0
M  V30 1419 H 176.497 0.163526 -1.94213 0
M  V30 1420 H 175.593 1.45228 -2.76252 0
M  V30 1421 N 175.894 1.51508 0.433938 0
M  V30 1422 C 177.142 1.6402 1.18075 0
M  V30 1423 C 177.463 0.360328 1.91642 0
M  V30 1424 O 176.733 -0.623945 1.85698 0
M  V30 1425 H 175.313 0.6045 0.43885 0
M  V30 1426 H 177.975 1.88452 0.497178 0
M  V30 1427 H 177.071 2.46949 1.90847 0
M  V30 1428 N 177.372 -0.689602 1.41712 0
M  V30 1429 C 178.62 -1.4468 1.4111 0
M  V30 1430 C 178.941 -1.94986 0.0232196 0
M  V30 1431 O 178.211 -1.72097 -0.935913 0
M  V30 1432 H 176.791 -0.536847 0.519427 0
M  V30 1433 H 179.453 -0.815825 1.77004 0
M  V30 1434 H 178.549 -2.30706 2.10193 0
M  V30 1435 N 178.85 -1.27639 -0.924453 0
M  V30 1436 C 180.266 -1.05113 -1.20097 0
M  V30 1437 C 180.466 0.213262 -2.00368 0
M  V30 1438 O 179.522 0.91787 -2.35226 0
M  V30 1439 C 180.835 -2.29244 -1.94596 0
M  V30 1440 C 182.383 -2.34315 -2.07522 0
M  V30 1441 C 182.858 -3.58183 -2.85427 0
M  V30 1442 N 184.349 -3.5876 -2.92994 0
M  V30 1443 C 185.084 -4.51277 -3.53746 0
M  V30 1444 N 184.58 -5.54102 -4.15863 0
M  V30 1445 N 186.373 -4.38894 -3.51181 0
M  V30 1446 H 178.524 -2.08821 -0.388264 0
M  V30 1447 H 180.787 -0.918568 -0.234385 0
M  V30 1448 H 180.493 -3.21301 -1.43034 0
M  V30 1449 H 180.367 -2.34816 -2.95197 0
M  V30 1450 H 182.754 -1.42762 -2.58269 0
M  V30 1451 H 182.835 -2.32744 -1.06131 0
M  V30 1452 H 182.479 -4.50074 -2.35363 0
M  V30 1453 H 182.409 -3.57006 -3.8711 0
M  V30 1454 H 184.9 -2.84398 -2.4885 0
M  V30 1455 H 185.213 -6.20859 -4.60168 0
M  V30 1456 H 183.558 -5.57941 -4.144 0
M  V30 1457 H 186.749 -3.57772 -3.01856 0
M  V30 1458 H 186.922 -5.11186 -3.98237 0
M  V30 1459 N 180.328 1.1314 -1.09713 0
M  V30 1460 C 181.575 1.84484 -0.834987 0
M  V30 1461 C 181.903 1.83689 0.639418 0
M  V30 1462 O 181.158 1.2724 1.4869 0
M  V30 1463 C 181.457 3.32167 -1.3191 0
M  V30 1464 C 181.123 3.53139 -2.80363 0
M  V30 1465 C 179.785 3.58571 -3.20905 0
M  V30 1466 C 182.137 3.60866 -3.76065 0
M  V30 1467 C 179.465 3.69267 -4.55916 0
M  V30 1468 C 181.817 3.73089 -5.10869 0
M  V30 1469 C 180.481 3.76775 -5.50996 0
M  V30 1470 H 179.751 0.675073 -0.305544 0
M  V30 1471 H 182.398 1.33554 -1.37243 0
M  V30 1472 H 180.703 3.85469 -0.701517 0
M  V30 1473 H 182.4 3.85821 -1.09284 0
M  V30 1474 H 178.99 3.49569 -2.47991 0
M  V30 1475 H 183.174 3.55946 -3.45855 0
M  V30 1476 H 178.43 3.70388 -4.86438 0
M  V30 1477 H 182.604 3.78011 -5.84877 0
M  V30 1478 H 180.231 3.84815 -6.55608 0
M  V30 1479 N 181.806 0.884767 1.30421 0
M  V30 1480 C 183.054 0.502112 1.95763 0
M  V30 1481 C 183.375 -0.951815 1.70192 0
M  V30 1482 O 182.645 -1.6692 1.0254 0
M  V30 1483 H 181.225 0.182694 0.724315 0
M  V30 1484 H 183.887 1.1278 1.58955 0
M  V30 1485 H 182.983 0.672188 3.04775 0
M  V30 1486 N 183.284 -1.43765 0.645699 0
M  V30 1487 C 184.532 -2.01499 0.155731 0
M  V30 1488 C 184.853 -1.51151 -1.232 0
M  V30 1489 O 184.123 -0.721044 -1.82148 0
M  V30 1490 H 182.703 -0.745003 0.0545817 0
M  V30 1491 H 185.365 -1.76075 0.835677 0
M  V30 1492 H 184.461 -3.1181 0.134577 0
M  V30 1493 N 184.763 -0.387143 -1.52771 0
M  V30 1494 C 186.01 0.195735 -2.01552 0
M  V30 1495 C 186.338 1.46995 -1.27369 0
M  V30 1496 O 185.593 1.92325 -0.361879 0
M  V30 1497 C 185.892 0.512209 -3.53711 0
M  V30 1498 C 185.558 -0.670202 -4.45891 0
M  V30 1499 C 184.22 -0.994586 -4.70809 0
M  V30 1500 C 186.572 -1.46134 -5.00294 0
M  V30 1501 C 183.9 -2.11169 -5.4738 0
M  V30 1502 C 186.252 -2.56903 -5.78086 0
M  V30 1503 C 184.916 -2.89852 -6.01284 0
M  V30 1504 H 184.186 0.0716246 -0.73753 0
M  V30 1505 H 186.833 -0.524046 -1.8419 0
M  V30 1506 H 185.138 1.31329 -3.69134 0
M  V30 1507 H 186.835 0.975804 -3.88946 0
M  V30 1508 H 183.425 -0.407366 -4.2666 0
M  V30 1509 H 187.609 -1.22397 -4.80971 0
M  V30 1510 H 182.865 -2.3707 -5.63567 0
M  V30 1511 H 187.039 -3.18608 -6.19243 0
M  V30 1512 H 184.666 -3.76533 -6.60399 0
M  V30 1513 N 186.241 1.57166 -0.116904 0
M  V30 1514 C 187.489 1.94737 0.540533 0
M  V30 1515 C 187.81 1.00096 1.67349 0
M  V30 1516 O 187.08 0.0568854 1.95817 0
M  V30 1517 H 185.66 0.718981 0.202669 0
M  V30 1518 H 188.322 1.94017 -0.185353 0
M  V30 1519 H 187.418 2.97719 0.936483 0
M  V30 1520 N 187.719 -0.156864 1.56817 0
M  V30 1521 C 188.967 -0.869404 1.82444 0
M  V30 1522 C 189.288 -1.82147 0.69623 0
M  V30 1523 O 188.558 -1.93847 -0.28287 0
M  V30 1524 H 187.138 -0.324043 0.673056 0
M  V30 1525 H 189.8 -0.153224 1.94297 0
M  V30 1526 H 188.896 -1.43761 2.77019 0
M  V30 1527 N 189.197 -1.51736 -0.425897 0
M  V30 1528 C 190.608 -1.5732 -1.00536 0
M  V30 1529 C 190.959 -0.403537 -1.92005 0
M  V30 1530 O 190.084 0.478256 -2.11049 0
M  V30 1531 C 190.679 -2.85119 -1.8301 0
M  V30 1532 C 189.238 -2.93236 -2.35987 0
M  V30 1533 C 188.385 -2.52098 -1.15508 0
M  V30 1534 H 191.336 -1.57348 -0.206739 0
M  V30 1535 H 191.357 -2.69526 -2.68581 0
M  V30 1536 H 190.869 -3.7023 -1.16411 0
M  V30 1537 H 188.97 -2.12581 -3.06007 0
M  V30 1538 H 189.083 -3.9713 -2.68001 0
M  V30 1539 H 187.447 -2.05558 -1.50393 0
M  V30 1540 H 188.23 -3.39565 -0.505014 0
M  V30 1541 N 190.675 0.682077 -1.42076 0
M  V30 1542 C 191.923 1.4393 -1.41876 0
M  V30 1543 C 192.244 1.94971 -0.0335599 0
M  V30 1544 O 191.514 1.72591 0.926773 0
M  V30 1545 H 190.094 0.534085 -0.522267 0
M  V30 1546 H 192.756 0.806427 -1.77434 0
M  V30 1547 H 191.852 2.29588 -2.11414 0
M  V30 1548 N 192.153 1.28127 0.917671 0
M  V30 1549 C 193.401 1.14825 1.66312 0
M  V30 1550 C 193.722 -0.304379 1.9261 0
M  V30 1551 O 192.992 -1.21149 1.53947 0
M  V30 1552 H 191.572 0.421953 0.616413 0
M  V30 1553 H 194.234 1.608 1.10134 0
M  V30 1554 H 193.33 1.68489 2.62712 0
M  V30 1555 N 193.631 -1.12557 1.10312 0
M  V30 1556 C 194.877 -1.84311 0.846011 0
M  V30 1557 C 195.21 -1.83805 -0.626859 0
M  V30 1558 O 194.485 -1.28268 -1.46211 0
M  V30 1559 C 194.768 -3.32048 1.39341 0
M  V30 1560 C 194.621 -3.41016 2.93305 0
M  V30 1561 C 195.94 -4.27764 1.03468 0
M  V30 1562 H 193.059 -0.669192 0.30879 0
M  V30 1563 H 195.701 -1.32057 1.36605 0
M  V30 1564 H 193.851 -3.76678 0.951087 0
M  V30 1565 H 195.523 -3.05031 3.46055 0
M  V30 1566 H 193.766 -2.81603 3.29973 0
M  V30 1567 H 194.437 -4.44948 3.26689 0
M  V30 1568 H 196.913 -3.91253 1.41633 0
M  V30 1569 H 195.789 -5.29549 1.44463 0
M  V30 1570 H 196.05 -4.42064 -0.0560404 0
M  V30 1571 N 195.109 -0.891671 -1.2995 0
M  V30 1572 C 196.357 -0.512486 -1.95494 0
M  V30 1573 C 196.678 0.942776 -1.70695 0
M  V30 1574 O 195.948 1.66374 -1.03424 0
M  V30 1575 H 194.528 -0.186533 -0.723336 0
M  V30 1576 H 197.19 -1.13621 -1.58355 0
M  V30 1577 H 196.286 -0.688342 -3.04415 0
M  V30 1578 N 196.587 1.43421 -0.653314 0
M  V30 1579 C 197.835 2.01414 -0.166415 0
M  V30 1580 C 198.156 1.51803 1.22397 0
M  V30 1581 O 197.426 0.730693 1.81763 0
M  V30 1582 H 196.006 0.744703 -0.0585319 0
M  V30 1583 H 198.668 1.75629 -0.845003 0
M  V30 1584 H 197.764 3.11734 -0.151111 0
M  V30 1585 N 198.065 0.39524 1.52563 0
M  V30 1586 C 198.995 -0.428384 2.29537 0
M  V30 1587 C 199.976 -1.05831 1.33169 0
M  V30 1588 O 201.161 -1.06995 1.62067 0
M  V30 1589 C 198.291 -1.55274 3.10656 0
M  V30 1590 C 197.245 -1.04855 4.14957 0
M  V30 1591 C 196.571 -2.26543 4.84337 0
M  V30 1592 C 197.871 -0.112324 5.22179 0
M  V30 1593 H 199.565 0.213867 2.98635 0
M  V30 1594 H 197.111 0.104298 1.43622 0
M  V30 1595 H 199.064 -2.1358 3.63265 0
M  V30 1596 H 197.788 -2.22266 2.39302 0
M  V30 1597 H 196.447 -0.487985 3.63338 0
M  V30 1598 H 196.095 -2.92059 4.09525 0
M  V30 1599 H 195.795 -1.93466 5.54837 0
M  V30 1600 H 197.319 -2.85481 5.39753 0
M  V30 1601 H 198.733 -0.603752 5.70112 0
M  V30 1602 H 197.13 0.128968 5.99961 0
M  V30 1603 H 198.2 0.837052 4.77621 0
M  V30 1604 N 199.544 -1.57102 0.125237 0
M  V30 1605 C 200.792 -1.95021 -0.530198 0
M  V30 1606 C 201.113 -1.00982 -1.66816 0
M  V30 1607 O 200.383 -0.0672693 -1.95784 0
M  V30 1608 H 198.963 -0.720046 -0.198853 0
M  V30 1609 H 201.625 -1.93916 0.19564 0
M  V30 1610 H 200.721 -2.98211 -0.920681 0
M  V30 1611 N 201.022 0.148545 -1.56898 0
M  V30 1612 C 202.27 0.859717 -1.82902 0
M  V30 1613 C 202.591 1.81775 -0.70588 0
M  V30 1614 O 201.861 1.93994 0.272586 0
M  V30 1615 H 200.441 0.320469 -0.674766 0
M  V30 1616 H 203.103 0.142918 -1.94375 0
M  V30 1617 H 202.199 1.4229 -2.77777 0
M  V30 1618 N 202.5 1.5196 0.417844 0
M  V30 1619 C 203.911 1.57851 0.997 0
M  V30 1620 C 204.262 0.413714 1.91789 0
M  V30 1621 O 203.387 -0.467057 2.113 0
M  V30 1622 C 203.982 2.86085 1.81496 0
M  V30 1623 C 202.541 2.94483 2.34428 0
M  V30 1624 C 201.688 2.52707 1.14169 0
M  V30 1625 H 204.639 1.57455 0.198392 0
M  V30 1626 H 204.66 2.70947 2.67148 0
M  V30 1627 H 204.172 3.70842 1.14446 0
M  V30 1628 H 202.273 2.142 3.04875 0
M  V30 1629 H 202.386 3.98546 2.65891 0
M  V30 1630 H 200.75 2.06353 1.49301 0
M  V30 1631 H 201.533 3.39828 0.486999 0
M  V30 1632 N 203.978 -0.674533 1.42435 0
M  V30 1633 C 205.226 -1.43175 1.42637 0
M  V30 1634 C 205.547 -1.94951 0.0438992 0
M  V30 1635 O 204.817 -1.7308 -0.917607 0
M  V30 1636 H 203.397 -0.531307 0.525092 0
M  V30 1637 H 206.059 -0.797006 1.77859 0
M  V30 1638 H 205.155 -2.28463 2.12629 0
M  V30 1639 N 205.456 -1.28612 -0.910864 0
M  V30 1640 C 206.704 -1.15705 -1.65701 0
M  V30 1641 C 207.025 0.29416 -1.92769 0
M  V30 1642 O 206.295 1.20331 -1.54588 0
M  V30 1643 H 204.875 -0.425216 -0.614167 0
M  V30 1644 H 207.537 -1.61381 -1.0928 0
M  V30 1645 H 206.633 -1.6988 -2.61815 0
M  V30 1646 N 206.934 1.1197 -1.10907 0
M  V30 1647 C 208.181 1.83588 -0.854507 0
M  V30 1648 C 208.509 1.84357 0.6199 0
M  V30 1649 O 207.764 1.28809 1.47332 0
M  V30 1650 C 208.063 3.30749 -1.35425 0
M  V30 1651 C 207.729 3.50146 -2.84093 0
M  V30 1652 C 206.391 3.55148 -3.2469 0
M  V30 1653 C 208.743 3.56857 -3.79872 0
M  V30 1654 C 206.071 3.6441 -4.59806 0
M  V30 1655 C 208.423 3.6765 -5.14797 0
M  V30 1656 C 207.087 3.7091 -5.54961 0
M  V30 1657 H 206.357 0.671795 -0.312686 0
M  V30 1658 H 209.004 1.32091 -1.38652 0
M  V30 1659 H 207.309 3.84703 -0.742361 0
M  V30 1660 H 209.006 3.8464 -1.1337 0
M  V30 1661 H 205.596 3.46919 -2.51685 0
M  V30 1662 H 209.78 3.52258 -3.49611 0
M  V30 1663 H 205.036 3.65208 -4.9034 0
M  V30 1664 H 209.21 3.71786 -5.88853 0
M  V30 1665 H 206.837 3.7784 -6.59652 0
M  V30 1666 N 208.412 0.89855 1.29475 0
M  V30 1667 C 209.66 0.522847 1.9522 0
M  V30 1668 C 209.981 -0.93371 1.71192 0
M  V30 1669 O 209.251 -1.65823 1.04305 0
M  V30 1670 H 207.831 0.190366 0.722336 0
M  V30 1671 H 210.493 1.14459 1.5775 0
M  V30 1672 H 209.589 0.704476 3.04045 0
M  V30 1673 N 209.89 -1.43072 0.660911 0
M  V30 1674 C 211.301 -1.84932 0.256348 0
M  V30 1675 C 211.652 -1.55325 -1.19868 0
M  V30 1676 O 210.777 -1.00607 -1.91591 0
M  V30 1677 C 211.372 -3.35684 0.458475 0
M  V30 1678 C 209.931 -3.76245 0.108161 0
M  V30 1679 C 209.078 -2.66749 0.757641 0
M  V30 1680 H 212.029 -1.33116 0.864051 0
M  V30 1681 H 212.05 -3.79365 -0.293683 0
M  V30 1682 H 211.562 -3.572 1.51755 0
M  V30 1683 H 209.663 -3.60338 -0.948014 0
M  V30 1684 H 209.776 -4.76058 0.538992 0
M  V30 1685 H 208.14 -2.53989 0.190185 0
M  V30 1686 H 208.923 -2.91092 1.81989 0
M  V30 1687 N 211.368 -0.403325 -1.52352 0
M  V30 1688 C 212.616 0.174003 -2.0135 0
M  V30 1689 C 212.937 1.46139 -1.29106 0
M  V30 1690 O 212.207 1.91448 -0.415253 0
M  V30 1691 H 210.787 0.0672911 -0.743963 0
M  V30 1692 H 213.449 -0.538235 -1.87321 0
M  V30 1693 H 212.545 0.374254 -3.09848 0
M  V30 1694 N 212.846 1.57033 -0.133567 0
M  V30 1695 C 214.094 1.953 0.519848 0
M  V30 1696 C 214.415 1.01866 1.66278 0
M  V30 1697 O 213.685 0.0776513 1.95746 0
M  V30 1698 H 212.265 0.721091 0.195032 0
M  V30 1699 H 214.927 1.93809 -0.205921 0
M  V30 1700 H 214.023 2.98695 0.904854 0
M  V30 1701 N 214.325 -0.140222 1.56975 0
M  V30 1702 C 215.555 -0.865181 1.87612 0
M  V30 1703 C 215.963 -1.74942 0.72055 0
M  V30 1704 O 215.306 -1.80917 -0.318561 0
M  V30 1705 C 215.368 -1.76782 3.13031 0
M  V30 1706 C 215.032 -1.06005 4.44536 0
M  V30 1707 C 216.029 -0.410768 5.18275 0
M  V30 1708 C 213.714 -1.04754 4.91255 0
M  V30 1709 C 215.708 0.241572 6.36942 0
M  V30 1710 C 213.395 -0.391394 6.09845 0
M  V30 1711 C 214.393 0.252029 6.82535 0
M  V30 1712 O 214.081 0.897757 7.98871 0
M  V30 1713 H 213.813 -0.255188 0.625983 0
M  V30 1714 H 216.367 -0.135653 2.04952 0
M  V30 1715 H 214.597 -2.53846 2.91718 0
M  V30 1716 H 216.286 -2.36533 3.29859 0
M  V30 1717 H 217.052 -0.412195 4.83245 0
M  V30 1718 H 212.931 -1.53777 4.34596 0
M  V30 1719 H 216.475 0.744375 6.93617 0
M  V30 1720 H 212.372 -0.387656 6.44335 0
M  V30 1721 H 213.14 0.800102 8.1458 0
M  V30 1722 N 215.803 -1.52179 -0.40978 0
M  V30 1723 C 217.214 -1.58377 -0.988615 0
M  V30 1724 C 217.565 -0.423879 -1.91566 0
M  V30 1725 O 216.69 0.455844 -2.11544 0
M  V30 1726 C 217.285 -2.87044 -1.79976 0
M  V30 1727 C 215.844 -2.95722 -2.32863 0
M  V30 1728 C 214.991 -2.53309 -1.12828 0
M  V30 1729 H 217.942 -1.57558 -0.190039 0
M  V30 1730 H 217.963 -2.7236 -2.65707 0
M  V30 1731 H 217.475 -3.71444 -1.12478 0
M  V30 1732 H 215.576 -2.15814 -3.03735 0
M  V30 1733 H 215.689 -3.99951 -2.63773 0
M  V30 1734 H 214.053 -2.07142 -1.48204 0
M  V30 1735 H 214.836 -3.40082 -0.46897 0
M  V30 1736 N 217.281 0.66697 -1.42791 0
M  V30 1737 C 218.529 1.42417 -1.43394 0
M  V30 1738 C 218.85 1.94925 -0.0542373 0
M  V30 1739 O 218.12 1.73564 0.908415 0
M  V30 1740 H 216.7 0.528515 -0.527902 0
M  V30 1741 H 219.362 0.787562 -1.78279 0
M  V30 1742 H 218.458 2.27333 -2.13837 0
M  V30 1743 N 218.759 1.29093 0.90403 0
M  V30 1744 C 220.007 1.16583 1.65085 0
M  V30 1745 C 220.328 -0.283933 1.92922 0
M  V30 1746 O 219.598 -1.19509 1.55224 0
M  V30 1747 H 218.178 0.428467 0.611903 0
M  V30 1748 H 220.84 1.61959 1.08422 0
M  V30 1749 H 219.936 1.71266 2.6091 0
M  V30 1750 N 220.237 -1.11381 1.11499 0
M  V30 1751 C 221.486 -1.82494 0.858993 0
M  V30 1752 C 221.799 -1.85605 -0.617278 0
M  V30 1753 O 223.005 -2.52824 -0.989552 0
M  V30 1754 C 221.461 -3.27745 1.48699 0
M  V30 1755 C 221.069 -3.32961 2.99735 0
M  V30 1756 C 222.813 -4.03754 1.31085 0
M  V30 1757 C 220.72 -4.72612 3.55516 0
M  V30 1758 H 219.65 -0.683802 0.317696 0
M  V30 1759 H 222.301 -1.25331 1.34031 0
M  V30 1760 H 220.683 -3.84844 0.933339 0
M  V30 1761 H 221.857 -2.85741 3.61509 0
M  V30 1762 H 220.172 -2.70433 3.16631 0
M  V30 1763 H 222.769 -5.06891 1.70192 0
M  V30 1764 H 223.112 -4.15527 0.253496 0
M  V30 1765 H 223.645 -3.53043 1.83318 0
M  V30 1766 H 220.384 -4.66036 4.60967 0
M  V30 1767 H 219.904 -5.2024 2.98513 0
M  V30 1768 H 221.583 -5.4157 3.53992 0
M  V30 1769 N 221.715 -0.905404 -1.28997 0
M  V30 1770 C 222.665 -0.358713 -2.25161 0
M  V30 1771 C 223.649 0.524449 -1.52113 0
M  V30 1772 O 224.841 0.365534 -1.73184 0
M  V30 1773 C 221.97 0.407609 -3.40872 0
M  V30 1774 C 221.056 -0.490797 -4.21251 0
M  V30 1775 N 221.447 -1.60061 -4.79806 0
M  V30 1776 C 219.745 -0.289636 -4.45059 0
M  V30 1777 C 220.446 -2.15757 -5.40207 0
M  V30 1778 N 219.422 -1.44988 -5.23908 0
M  V30 1779 H 223.224 -1.20642 -2.67998 0
M  V30 1780 H 220.738 -0.757103 -1.43672 0
M  V30 1781 H 222.735 0.816046 -4.08835 0
M  V30 1782 H 221.395 1.25251 -2.9957 0
M  V30 1783 H 222.406 -1.98329 -4.7842 0
M  V30 1784 H 219.083 0.51643 -4.14294 0
M  V30 1785 H 220.473 -3.09069 -5.96595 0
M  V30 1786 N 223.193 1.4272 -0.668489 0
M  V30 1787 C 224.103 2.34596 0.0139753 0
M  V30 1788 C 225.119 1.5474 0.795703 0
M  V30 1789 O 226.295 1.87334 0.739466 0
M  V30 1790 C 223.36 3.33202 0.957982 0
M  V30 1791 C 222.421 4.28957 0.17149 0
M  V30 1792 C 221.654 5.22853 1.07053 0
M  V30 1793 O 221.877 5.21531 2.31001 0
M  V30 1794 O 220.811 5.9952 0.534727 0
M  V30 1795 H 224.637 2.9448 -0.742661 0
M  V30 1796 H 222.222 1.43117 -0.428705 0
M  V30 1797 H 224.104 3.93796 1.50008 0
M  V30 1798 H 222.779 2.758 1.69458 0
M  V30 1799 H 221.686 3.71796 -0.414558 0
M  V30 1800 H 223.019 4.89383 -0.52586 0
M  V30 1801 N 224.671 0.411399 1.52136 0
M  V30 1802 C 225.917 -0.163888 2.02137 0
M  V30 1803 C 226.25 -1.44597 1.29636 0
M  V30 1804 O 225.525 -1.90272 0.403353 0
M  V30 1805 C 225.808 -0.40927 3.57767 0
M  V30 1806 C 225.661 0.889643 4.40914 0
M  V30 1807 C 226.98 -1.19042 4.23694 0
M  V30 1808 H 224.099 -0.0580896 0.734707 0
M  V30 1809 H 226.741 0.54531 1.82007 0
M  V30 1810 H 224.891 -1.0134 3.7505 0
M  V30 1811 H 226.563 1.52575 4.35337 0
M  V30 1812 H 224.806 1.50011 4.07037 0
M  V30 1813 H 225.477 0.672314 5.4789 0
M  V30 1814 H 227.953 -0.678942 4.10524 0
M  V30 1815 H 226.829 -1.33086 5.32522 0
M  V30 1816 H 227.09 -2.21166 3.82803 0
M  V30 1817 N 226.149 -1.5696 0.141893 0
M  V30 1818 C 227.374 -2.00754 -0.520838 0
M  V30 1819 C 227.799 -1.0213 -1.57959 0
M  V30 1820 O 227.157 0.00371324 -1.813 0
M  V30 1821 C 227.205 -3.43318 -1.10294 0
M  V30 1822 O 226.309 -3.47679 -2.21795 0
M  V30 1823 H 225.65 -0.651564 -0.127908 0
M  V30 1824 H 228.18 -2.03221 0.23712 0
M  V30 1825 H 228.19 -3.82012 -1.43287 0
M  V30 1826 H 226.865 -4.14608 -0.327574 0
M  V30 1827 H 225.442 -3.20824 -1.9007 0
M  V30 1828 N 227.627 0.131896 -1.57047 0
M  V30 1829 C 228.873 0.843179 -1.84441 0
M  V30 1830 C 229.206 1.80129 -0.725749 0
M  V30 1831 O 228.481 1.92624 0.269469 0
M  V30 1832 C 228.764 1.60442 -3.22382 0
M  V30 1833 C 228.617 0.666782 -4.4483 0
M  V30 1834 C 229.936 2.56354 -3.5773 0
M  V30 1835 H 227.055 0.305081 -0.670891 0
M  V30 1836 H 229.697 0.107839 -1.89694 0
M  V30 1837 H 227.847 2.23128 -3.18035 0
M  V30 1838 H 229.519 0.0497646 -4.61273 0
M  V30 1839 H 227.762 -0.022609 -4.33794 0
M  V30 1840 H 228.433 1.23579 -5.37989 0
M  V30 1841 H 230.909 2.0378 -3.62785 0
M  V30 1842 H 229.785 3.06657 -4.5525 0
M  V30 1843 H 230.046 3.38419 -2.84473 0
M  V30 1844 N 229.106 1.52395 0.401703 0
M  V30 1845 C 230.054 1.7689 1.51039 0
M  V30 1846 C 231.048 0.636298 1.56996 0
M  V30 1847 O 232.254 0.818507 1.60314 0
M  V30 1848 H 228.629 0.559502 0.502456 0
M  V30 1849 H 230.6 2.69757 1.27568 0
M  V30 1850 C 229.349 1.94331 2.88324 0
M  V30 1851 H 228.672 2.80905 2.84486 0
M  V30 1852 H 230.112 2.15466 3.65172 0
M  V30 1853 C 228.571 0.712396 3.29282 0
M  V30 1854 O 229.101 -0.116218 4.01532 0
M  V30 1855 N 227.307 0.546154 2.85422 0
M  V30 1856 H 226.854 1.22156 2.26794 0
M  V30 1857 H 226.812 -0.276113 3.13185 0
M  V30 1858 N 230.584 -0.659388 1.43143 0
M  V30 1859 C 231.516 -1.7849 1.43784 0
M  V30 1860 C 232.529 -1.5932 0.334787 0
M  V30 1861 O 233.718 -1.68155 0.598842 0
M  V30 1862 C 230.818 -3.15828 1.22906 0
M  V30 1863 C 229.991 -3.61711 2.45934 0
M  V30 1864 C 229.05 -4.77831 2.20371 0
M  V30 1865 O 228.076 -4.87586 2.93681 0
M  V30 1866 N 229.278 -5.67611 1.21647 0
M  V30 1867 H 232.043 -1.7842 2.40803 0
M  V30 1868 H 229.604 -0.84302 1.3822 0
M  V30 1869 H 231.596 -3.91189 1.03697 0
M  V30 1870 H 230.166 -3.10707 0.343542 0
M  V30 1871 H 229.386 -2.76861 2.80609 0
M  V30 1872 H 230.674 -3.89112 3.27825 0
M  V30 1873 H 230.072 -5.62397 0.610449 0
M  V30 1874 H 228.629 -6.42719 1.08423 0
M  V30 1875 N 232.062 -1.29571 -0.897171 0
M  V30 1876 C 233.287 -1.20705 -1.68656 0
M  V30 1877 C 233.712 0.228582 -1.86706 0
M  V30 1878 O 233.07 1.16494 -1.3892 0
M  V30 1879 C 233.118 -1.9282 -3.04717 0
M  V30 1880 O 232.222 -1.24697 -3.93096 0
M  V30 1881 H 231.563 -0.418126 -0.515816 0
M  V30 1882 H 234.093 -1.71183 -1.12061 0
M  V30 1883 H 234.103 -2.01372 -3.54843 0
M  V30 1884 H 232.778 -2.97239 -2.90899 0
M  V30 1885 H 231.355 -1.2442 -3.51531 0
M  V30 1886 N 233.54 1.10788 -1.12088 0
M  V30 1887 C 234.47 2.19083 -0.807755 0
M  V30 1888 C 235.451 1.6858 0.226859 0
M  V30 1889 O 236.636 1.93997 0.0888475 0
M  V30 1890 C 233.766 3.46344 -0.257576 0
M  V30 1891 C 232.72 4.101 -1.22483 0
M  V30 1892 C 232.046 5.32016 -0.535052 0
M  V30 1893 C 233.346 4.54236 -2.57811 0
M  V30 1894 H 235.04 2.45534 -1.71328 0
M  V30 1895 H 232.586 1.1801 -0.825205 0
M  V30 1896 H 234.539 4.21392 -0.0262679 0
M  V30 1897 H 233.263 3.19373 0.683278 0
M  V30 1898 H 231.922 3.37054 -1.44189 0
M  V30 1899 H 231.57 5.01319 0.410827 0
M  V30 1900 H 231.27 5.75625 -1.18024 0
M  V30 1901 H 232.794 6.09799 -0.312695 0
M  V30 1902 H 234.208 5.20575 -2.40155 0
M  V30 1903 H 232.605 5.08682 -3.18375 0
M  V30 1904 H 233.675 3.6734 -3.16528 0
M  V30 1905 N 235.018 0.912232 1.28515 0
M  V30 1906 C 235.948 0.416403 2.29757 0
M  V30 1907 C 236.929 -0.515194 1.6211 0
M  V30 1908 O 238.114 -0.423253 1.89532 0
M  V30 1909 C 235.244 -0.34572 3.45575 0
M  V30 1910 C 234.198 0.496599 4.25109 0
M  V30 1911 C 233.524 -0.393771 5.33248 0
M  V30 1912 C 234.824 1.75307 4.92001 0
M  V30 1913 H 236.518 1.26249 2.7148 0
M  V30 1914 H 234.064 0.608515 1.30511 0
M  V30 1915 H 236.017 -0.703422 4.15488 0
M  V30 1916 H 234.741 -1.2257 3.02728 0
M  V30 1917 H 233.4 0.8368 3.56922 0
M  V30 1918 H 233.048 -1.27225 4.86644 0
M  V30 1919 H 232.748 0.166209 5.87365 0
M  V30 1920 H 234.272 -0.747389 6.06009 0
M  V30 1921 H 235.686 1.46437 5.54283 0
M  V30 1922 H 234.083 2.25534 5.56106 0
M  V30 1923 H 235.153 2.48176 4.16577 0
M  V30 1924 N 236.496 -1.42363 0.676048 0
M  V30 1925 C 237.428 -2.29164 -0.0404605 0
M  V30 1926 C 238.441 -1.43747 -0.764245 0
M  V30 1927 O 239.63 -1.67453 -0.618195 0
M  V30 1928 C 236.73 -3.21196 -1.08103 0
M  V30 1929 C 235.903 -4.35273 -0.430812 0
M  V30 1930 C 234.962 -5.08017 -1.37133 0
M  V30 1931 O 233.988 -5.62494 -0.87116 0
M  V30 1932 N 235.19 -5.13647 -2.70456 0
M  V30 1933 H 237.955 -2.91298 0.704667 0
M  V30 1934 H 235.516 -1.53303 0.520559 0
M  V30 1935 H 237.508 -3.66728 -1.71152 0
M  V30 1936 H 236.078 -2.60505 -1.72788 0
M  V30 1937 H 235.298 -3.92372 0.379209 0
M  V30 1938 H 236.586 -5.08795 0.0221132 0
M  V30 1939 H 235.984 -4.708 -3.1363 0
M  V30 1940 H 234.541 -5.62821 -3.28749 0
M  V30 1941 N 237.974 -0.419461 -1.51915 0
M  V30 1942 C 239.385 0.0477853 -1.86639 0
M  V30 1943 C 239.736 1.43531 -1.33766 0
M  V30 1944 O 238.861 2.05401 -0.68113 0
M  V30 1945 C 239.456 0.0934885 -3.38671 0
M  V30 1946 C 238.015 0.505097 -3.72996 0
M  V30 1947 C 237.162 -0.313792 -2.75519 0
M  V30 1948 H 240.113 -0.636088 -1.45395 0
M  V30 1949 H 240.134 0.906667 -3.6954 0
M  V30 1950 H 239.646 -0.916501 -3.77123 0
M  V30 1951 H 237.747 1.52135 -3.40126 0
M  V30 1952 H 237.86 0.242309 -4.78487 0
M  V30 1953 H 236.224 0.225363 -2.53701 0
M  V30 1954 H 237.007 -1.32232 -3.16812 0
M  V30 1955 N 239.452 1.56882 -0.150215 0
M  V30 1956 C 240.382 2.19935 0.784284 0
M  V30 1957 C 241.363 1.14854 1.25469 0
M  V30 1958 O 242.548 1.43209 1.31168 0
M  V30 1959 C 239.678 2.82349 2.02229 0
M  V30 1960 C 238.632 3.93285 1.68853 0
M  V30 1961 C 237.958 4.42649 2.99944 0
M  V30 1962 C 239.258 5.13904 0.932714 0
M  V30 1963 H 240.952 2.9828 0.258781 0
M  V30 1964 H 238.498 1.43473 0.123029 0
M  V30 1965 H 240.451 3.25126 2.68088 0
M  V30 1966 H 239.175 2.0134 2.57157 0
M  V30 1967 H 237.834 3.5113 1.05371 0
M  V30 1968 H 237.482 3.58458 3.52869 0
M  V30 1969 H 237.182 5.17476 2.78374 0
M  V30 1970 H 238.706 4.88099 3.66868 0
M  V30 1971 H 240.12 5.53506 1.49345 0
M  V30 1972 H 238.517 5.94515 0.81684 0
M  V30 1973 H 239.587 4.84842 -0.0749568 0
M  V30 1974 N 240.93 -0.123565 1.57115 0
M  V30 1975 C 241.878 -1.17082 2.00984 0
M  V30 1976 C 242.872 -1.43136 0.906009 0
M  V30 1977 O 244.078 -1.43152 1.09121 0
M  V30 1978 H 240.453 -0.394653 0.64012 0
M  V30 1979 H 242.424 -0.774292 2.88179 0
M  V30 1980 C 241.173 -2.49057 2.42623 0
M  V30 1981 H 240.496 -2.29846 3.27125 0
M  V30 1982 H 241.936 -3.20906 2.7712 0
M  V30 1983 C 240.395 -3.11305 1.28805 0
M  V30 1984 O 240.925 -3.97171 0.60153 0
M  V30 1985 N 239.131 -2.71111 1.04628 0
M  V30 1986 H 238.678 -2.01382 1.60634 0
M  V30 1987 H 238.636 -3.1309 0.286685 0
M  V30 1988 N 242.408 -1.52605 -0.393616 0
M  V30 1989 C 243.654 -1.67672 -1.14079 0
M  V30 1990 C 243.987 -0.413121 -1.89755 0
M  V30 1991 O 243.262 0.588952 -1.85369 0
M  V30 1992 C 243.545 -2.9088 -2.12276 0
M  V30 1993 C 243.398 -4.27329 -1.40394 0
M  V30 1994 C 244.717 -3.09628 -3.12759 0
M  V30 1995 H 241.836 -0.610168 -0.413356 0
M  V30 1996 H 244.478 -1.85193 -0.424696 0
M  V30 1997 H 242.628 -2.76073 -2.73342 0
M  V30 1998 H 244.3 -4.53894 -0.82327 0
M  V30 1999 H 242.543 -4.2802 -0.705801 0
M  V30 2000 H 243.214 -5.09615 -2.12123 0
M  V30 2001 H 245.69 -3.23436 -2.61779 0
M  V30 2002 H 244.566 -3.97322 -3.78717 0
M  V30 2003 H 244.827 -2.23637 -3.81365 0
M  V30 2004 N 243.887 0.651787 -1.4349 0
M  V30 2005 C 244.834 1.76462 -1.4876 0
M  V30 2006 C 245.804 1.62641 -0.337189 0
M  V30 2007 O 246.989 1.82864 -0.544544 0
M  V30 2008 C 244.129 3.14623 -1.41796 0
M  V30 2009 C 243.242 3.39568 -2.67053 0
M  V30 2010 C 242.377 4.67585 -2.52068 0
M  V30 2011 C 241.416 4.85639 -3.72587 0
M  V30 2012 N 240.553 6.04915 -3.56402 0
M  V30 2013 H 245.393 1.71293 -2.43849 0
M  V30 2014 H 242.93 0.835889 -1.21043 0
M  V30 2015 H 244.888 3.94496 -1.35753 0
M  V30 2016 H 243.518 3.18859 -0.50288 0
M  V30 2017 H 242.57 2.53783 -2.8337 0
M  V30 2018 H 243.882 3.48795 -3.56572 0
M  V30 2019 H 243.036 5.55586 -2.4374 0
M  V30 2020 H 241.775 4.60681 -1.60075 0
M  V30 2021 H 240.78 3.96073 -3.81321 0
M  V30 2022 H 242.005 4.94372 -4.65589 0
M  V30 2023 H 239.951 5.9914 -2.67146 0
M  V30 2024 H 239.868 6.15106 -4.39524 0
M  V30 2025 H 241.136 6.95533 -3.51929 0
M  V30 2026 N 245.365 1.30045 0.890287 0
M  V30 2027 C 246.611 1.18737 1.64406 0
M  V30 2028 C 246.944 -0.258525 1.92472 0
M  V30 2029 O 246.219 -1.18562 1.54186 0
M  V30 2030 C 246.502 2.01087 2.98724 0
M  V30 2031 C 246.355 3.53867 2.77665 0
M  V30 2032 C 247.674 1.84457 3.9958 0
M  V30 2033 H 244.793 0.432698 0.596608 0
M  V30 2034 H 247.435 1.5962 1.0306 0
M  V30 2035 H 245.585 1.66349 3.51084 0
M  V30 2036 H 247.257 3.98637 2.32133 0
M  V30 2037 H 245.5 3.78318 2.12269 0
M  V30 2038 H 246.171 4.06772 3.7315 0
M  V30 2039 H 248.647 2.14817 3.56361 0
M  V30 2040 H 247.523 2.44411 4.91482 0
M  V30 2041 H 247.784 0.802276 4.3476 0
M  V30 2042 N 246.843 -1.10192 1.12674 0
M  V30 2043 C 248.12 -1.78717 0.794965 0
M  V30 2044 C 248.5 -1.98628 -0.714853 0
M  V30 2045 O 247.848 -1.58135 -1.64941 0
M  V30 2046 C 248.058 -3.11546 1.5729 0
M  V30 2047 C 249.406 -3.86382 1.76052 0
M  V30 2048 O 250.43 -3.21274 1.53823 0
M  V30 2049 O 249.289 -5.03246 2.13087 0
M  V30 2050 H 246.383 -0.774702 0.289423 0
M  V30 2051 H 248.929 -1.16819 1.23091 0
M  V30 2052 H 247.701 -2.92489 2.59935 0
M  V30 2053 H 247.324 -3.81164 1.13137 0
M  V30 2054 N 248.321 -0.919034 -1.28029 0
M  V30 2055 C 249.732 -0.600735 -1.76771 0
M  V30 2056 C 250.083 0.884024 -1.75156 0
M  V30 2057 O 249.208 1.69163 -1.34956 0
M  V30 2058 C 249.803 -1.08372 -3.21 0
M  V30 2059 C 248.362 -0.816248 -3.67443 0
M  V30 2060 C 247.509 -1.24742 -2.47658 0
M  V30 2061 H 250.46 -1.09974 -1.14418 0
M  V30 2062 H 250.481 -0.427512 -3.78091 0
M  V30 2063 H 249.993 -2.16437 -3.22144 0
M  V30 2064 H 248.094 0.250968 -3.71754 0
M  V30 2065 H 248.207 -1.4277 -4.57333 0
M  V30 2066 H 246.571 -0.666083 -2.45836 0
M  V30 2067 H 247.354 -2.33653 -2.51518 0
M  V30 2068 N 249.799 1.42003 -0.683588 0
M  V30 2069 C 250.709 2.34597 -0.0109075 0
M  V30 2070 C 251.725 1.55576 0.779245 0
M  V30 2071 O 252.901 1.88107 0.719555 0
M  V30 2072 C 249.966 3.34199 0.922588 0
M  V30 2073 C 249.027 4.29115 0.125984 0
M  V30 2074 C 248.26 5.23959 1.01502 0
M  V30 2075 O 248.483 5.23952 2.25456 0
M  V30 2076 O 247.417 6.00053 0.47111 0
M  V30 2077 H 251.243 2.93675 -0.773853 0
M  V30 2078 H 248.828 1.42654 -0.443861 0
M  V30 2079 H 250.71 3.95365 1.45823 0
M  V30 2080 H 249.385 2.77582 1.66523 0
M  V30 2081 H 248.292 3.71335 -0.453969 0
M  V30 2082 H 249.625 4.88798 -0.577736 0
M  V30 2083 N 251.277 0.427512 1.51691 0
M  V30 2084 C 252.526 -0.143679 2.01188 0
M  V30 2085 C 252.839 -1.44642 1.31674 0
M  V30 2086 O 254.045 -2.09997 1.72086 0
M  V30 2087 C 252.501 -0.306602 3.58592 0
M  V30 2088 C 252.109 0.985125 4.37035 0
M  V30 2089 C 253.853 -0.832091 4.16265 0
M  V30 2090 C 251.76 0.788382 5.86122 0
M  V30 2091 H 250.69 -0.0574701 0.751807 0
M  V30 2092 H 253.341 0.555772 1.74881 0
M  V30 2093 H 251.723 -1.06882 3.81303 0
M  V30 2094 H 252.897 1.75492 4.26074 0
M  V30 2095 H 251.212 1.4384 3.90767 0
M  V30 2096 H 253.809 -0.995617 5.25349 0
M  V30 2097 H 254.152 -1.81186 3.74803 0
M  V30 2098 H 254.685 -0.128444 3.97593 0
M  V30 2099 H 251.424 1.74025 6.31978 0
M  V30 2100 H 250.944 0.0582143 5.99772 0
M  V30 2101 H 252.623 0.437722 6.45518 0
M  V30 2102 N 252.755 -1.56801 0.158532 0
M  V30 2103 C 253.687 -2.14488 -0.807923 0
M  V30 2104 C 254.7 -1.09721 -1.20271 0
M  V30 2105 O 255.889 -1.36956 -1.14478 0
M  V30 2106 C 252.989 -2.66217 -2.09718 0
M  V30 2107 C 252.162 -3.95507 -1.86796 0
M  V30 2108 C 251.221 -4.3243 -2.99818 0
M  V30 2109 O 250.247 -5.00543 -2.71008 0
M  V30 2110 N 251.449 -3.92947 -4.27285 0
M  V30 2111 H 254.214 -2.98042 -0.314816 0
M  V30 2112 H 251.775 -1.61881 -0.0246692 0
M  V30 2113 H 253.767 -2.87924 -2.84398 0
M  V30 2114 H 252.337 -1.87324 -2.50257 0
M  V30 2115 H 251.557 -3.82309 -0.96089 0
M  V30 2116 H 252.845 -4.79972 -1.68833 0
M  V30 2117 H 252.243 -3.38087 -4.53557 0
M  V30 2118 H 250.8 -4.19681 -4.9871 0
M  V30 2119 N 254.233 0.115231 -1.57178 0
M  V30 2120 C 255.181 1.16014 -2.01602 0
M  V30 2121 C 256.175 1.42653 -0.913587 0
M  V30 2122 O 257.381 1.42571 -1.09879 0
M  V30 2123 H 253.756 0.391252 -0.642204 0
M  V30 2124 H 255.727 0.758998 -2.88586 0
M  V30 2125 C 254.476 2.47767 -2.4394 0
M  V30 2126 H 253.799 2.28108 -3.28339 0
M  V30 2127 H 255.239 3.19432 -2.78818 0
M  V30 2128 C 253.698 3.10617 -1.30455 0
M  V30 2129 O 254.228 3.96846 -0.622585 0
M  V30 2130 N 252.434 2.70553 -1.06064 0
M  V30 2131 H 251.981 2.00527 -1.61699 0
M  V30 2132 H 251.939 3.12934 -0.303284 0
M  V30 2133 N 255.711 1.52812 0.385517 0
M  V30 2134 C 256.957 1.68275 1.13188 0
M  V30 2135 C 257.29 0.423179 1.89533 0
M  V30 2136 O 256.565 -0.579113 1.85679 0
M  V30 2137 C 256.848 2.92001 2.1073 0
M  V30 2138 C 256.701 4.28067 1.38125 0
M  V30 2139 C 258.02 3.11283 3.11113 0
M  V30 2140 H 255.139 0.612352 0.410115 0
M  V30 2141 H 257.781 1.85415 0.414869 0
M  V30 2142 H 255.931 2.77519 2.71874 0
M  V30 2143 H 257.603 4.54324 0.799187 0
M  V30 2144 H 255.846 4.28388 0.683092 0
M  V30 2145 H 256.517 5.10733 2.09417 0
M  V30 2146 H 258.993 3.2482 2.6006 0
M  V30 2147 H 257.869 3.99325 3.76605 0
M  V30 2148 H 258.13 2.25656 3.80173 0
M  V30 2149 N 257.189 -0.644168 1.43834 0
M  V30 2150 C 258.136 -1.75671 1.49694 0
M  V30 2151 C 259.106 -1.6246 0.345809 0
M  V30 2152 O 260.291 -1.82573 0.554234 0
M  V30 2153 C 257.431 -3.13867 1.43463 0
M  V30 2154 C 256.544 -3.38147 2.6885 0
M  V30 2155 C 255.679 -4.66241 2.54544 0
M  V30 2156 C 254.718 -4.83657 3.75157 0
M  V30 2157 N 253.855 -6.03016 3.59605 0
M  V30 2158 H 258.695 -1.69998 2.44754 0
M  V30 2159 H 256.232 -0.829458 1.21484 0
M  V30 2160 H 258.19 -3.9377 1.37843 0
M  V30 2161 H 256.82 -3.18588 0.519783 0
M  V30 2162 H 255.872 -2.52276 2.84712 0
M  V30 2163 H 257.184 -3.46899 3.58417 0
M  V30 2164 H 256.338 -5.54285 2.46683 0
M  V30 2165 H 255.077 -4.59826 1.62516 0
M  V30 2166 H 254.082 -3.94046 3.83416 0
M  V30 2167 H 255.307 -4.91896 4.68204 0
M  V30 2168 H 253.253 -5.97715 2.7032 0
M  V30 2169 H 253.17 -6.12766 4.42779 0
M  V30 2170 H 254.438 -6.93657 3.55613 0
M  V30 2171 N 258.668 -1.30515 -0.883378 0
M  V30 2172 C 259.631 -1.1701 -1.97082 0
M  V30 2173 C 260.631 -0.10089 -1.60483 0
M  V30 2174 O 261.821 -0.349127 -1.70666 0
M  V30 2175 C 258.953 -0.793045 -3.31547 0
M  V30 2176 H 260.146 -2.13622 -2.10489 0
M  V30 2177 H 257.699 -1.13935 -1.06998 0
M  V30 2178 H 258.434 0.172499 -3.23841 0
M  V30 2179 H 258.219 -1.56576 -3.5948 0
M  V30 2180 H 259.709 -0.722073 -4.1131 0
M  V30 2181 N 260.146 1.09593 -1.13257 0
M  V30 2182 C 261.078 2.16015 -0.766167 0
M  V30 2183 C 262.091 1.61423 0.211303 0
M  V30 2184 O 263.28 1.78498 -0.00863946 0
M  V30 2185 C 260.38 3.38706 -0.114662 0
M  V30 2186 C 259.553 4.22717 -1.12379 0
M  V30 2187 C 258.612 5.23835 -0.498301 0
M  V30 2188 O 257.638 5.573 -1.15781 0
M  V30 2189 N 258.84 5.75886 0.730417 0
M  V30 2190 H 261.605 2.48055 -1.68193 0
M  V30 2191 H 259.166 1.25292 -1.02535 0
M  V30 2192 H 261.158 4.03464 0.315991 0
M  V30 2193 H 259.728 3.04569 0.704011 0
M  V30 2194 H 258.948 3.54122 -1.73179 0
M  V30 2195 H 260.236 4.75673 -1.80589 0
M  V30 2196 H 259.634 5.50911 1.28504 0
M  V30 2197 H 258.191 6.42387 1.10376 0
M  V30 2198 N 261.624 0.925811 1.2754 0
M  V30 2199 C 262.534 0.428993 2.30644 0
M  V30 2200 C 263.55 -0.489387 1.66976 0
M  V30 2201 O 264.726 -0.372653 1.97922 0
M  V30 2202 C 261.791 -0.311967 3.45294 0
M  V30 2203 C 260.852 0.641098 4.24486 0
M  V30 2204 C 260.085 -0.0645955 5.33661 0
M  V30 2205 O 260.308 -1.28429 5.55754 0
M  V30 2206 O 259.242 0.606265 5.98839 0
M  V30 2207 H 263.068 1.28504 2.75173 0
M  V30 2208 H 260.653 0.691086 1.32455 0
M  V30 2209 H 262.535 -0.729972 4.15029 0
M  V30 2210 H 261.21 -1.14365 3.02824 0
M  V30 2211 H 260.117 1.10874 3.57292 0
M  V30 2212 H 261.45 1.43995 4.70666 0
M  V30 2213 N 263.102 -1.41638 0.69111 0
M  V30 2214 C 264.518 -1.55435 0.362224 0
M  V30 2215 C 264.718 -1.66754 -1.13117 0
M  V30 2216 O 263.774 -1.64348 -1.91692 0
M  V30 2217 C 265.087 -2.79588 1.10684 0
M  V30 2218 C 266.635 -2.9338 1.09075 0
M  V30 2219 C 267.11 -4.20414 1.81703 0
M  V30 2220 N 268.601 -4.27362 1.7865 0
M  V30 2221 C 269.336 -5.24507 2.31689 0
M  V30 2222 N 268.832 -6.27708 2.93179 0
M  V30 2223 N 270.625 -5.16416 2.2197 0
M  V30 2224 H 262.776 -1.32536 1.65976 0
M  V30 2225 H 265.039 -0.639115 0.700168 0
M  V30 2226 H 264.745 -2.77419 2.16175 0
M  V30 2227 H 264.619 -3.70973 0.682545 0
M  V30 2228 H 267.006 -2.95067 0.0441238 0
M  V30 2229 H 267.087 -2.0318 1.55407 0
M  V30 2230 H 266.731 -4.19488 2.86343 0
M  V30 2231 H 266.661 -5.09578 1.32808 0
M  V30 2232 H 269.152 -3.53415 1.33815 0
M  V30 2233 H 269.465 -6.98217 3.31229 0
M  V30 2234 H 267.81 -6.28223 2.97255 0
M  V30 2235 H 271.001 -4.34716 1.73607 0
M  V30 2236 H 271.174 -5.91958 2.63609 0
M  V30 2237 N 264.58 -0.43555 -1.51462 0
M  V30 2238 C 265.49 0.383001 -2.31453 0
M  V30 2239 C 266.506 1.02931 -1.4029 0
M  V30 2240 O 267.682 1.02507 -1.73362 0
M  V30 2241 C 264.747 1.47043 -3.13973 0
M  V30 2242 C 263.808 0.844433 -4.20913 0
M  V30 2243 C 263.041 1.88004 -4.9949 0
M  V30 2244 O 263.264 3.10199 -4.78678 0
M  V30 2245 O 262.198 1.47157 -5.83634 0
M  V30 2246 H 266.024 -0.269964 -3.02498 0
M  V30 2247 H 263.609 -0.19813 -1.4808 0
M  V30 2248 H 265.491 2.10113 -3.65281 0
M  V30 2249 H 264.166 2.10751 -2.45695 0
M  V30 2250 H 263.073 0.175729 -3.73687 0
M  V30 2251 H 264.406 0.250869 -4.9156 0
M  V30 2252 N 266.058 1.56714 -0.166846 0
M  V30 2253 C 266.99 2.14914 0.796537 0
M  V30 2254 C 268.003 1.10357 1.19688 0
M  V30 2255 O 269.192 1.37561 1.13751 0
M  V30 2256 C 266.292 2.67326 2.08303 0
M  V30 2257 C 265.465 3.96493 1.84696 0
M  V30 2258 C 264.524 4.34014 2.97521 0
M  V30 2259 O 263.55 5.01973 2.6835 0
M  V30 2260 N 264.752 3.95208 4.25196 0
M  V30 2261 H 267.517 2.98205 0.299006 0
M  V30 2262 H 265.078 1.61892 0.0160839 0
M  V30 2263 H 267.07 2.89428 2.82867 0
M  V30 2264 H 265.64 1.88649 2.4926 0
M  V30 2265 H 264.86 3.82814 0.940602 0
M  V30 2266 H 266.148 4.8086 1.66285 0
M  V30 2267 H 265.546 3.40487 4.51758 0
M  V30 2268 H 264.103 4.2232 4.96477 0
M  V30 2269 N 267.536 -0.106894 1.57237 0
M  V30 2270 C 268.785 -0.811163 1.8467 0
M  V30 2271 C 269.098 -1.80469 0.754342 0
M  V30 2272 O 270.304 -2.55601 0.915439 0
M  V30 2273 C 268.76 -1.49337 3.27454 0
M  V30 2274 C 268.368 -0.540217 4.44731 0
M  V30 2275 C 270.112 -2.18206 3.64124 0
M  V30 2276 C 268.019 -1.22634 5.78545 0
M  V30 2277 H 266.949 -0.306679 0.688813 0
M  V30 2278 H 269.6 -0.0639887 1.83388 0
M  V30 2279 H 267.982 -2.2876 3.23241 0
M  V30 2280 H 269.156 0.221659 4.60267 0
M  V30 2281 H 267.471 0.042146 4.16379 0
M  V30 2282 H 270.068 -2.70253 4.61376 0
M  V30 2283 H 270.411 -2.96562 2.92158 0
M  V30 2284 H 270.944 -1.45658 3.70174 0
M  V30 2285 H 267.683 -0.483832 6.53712 0
M  V30 2286 H 267.203 -1.95993 5.66874 0
M  V30 2287 H 268.882 -1.75615 6.2271 0
M  V30 2288 N 269.014 -1.53014 -0.377408 0
M  V30 2289 C 269.961 -1.78616 -1.46168 0
M  V30 2290 C 270.931 -0.629917 -1.53692 0
M  V30 2291 O 272.116 -0.870861 -1.69766 0
M  V30 2292 C 269.256 -1.97123 -2.8326 0
M  V30 2293 C 268.369 -3.24831 -2.84796 0
M  V30 2294 C 267.504 -3.33591 -4.13389 0
M  V30 2295 C 266.543 -4.55377 -4.09021 0
M  V30 2296 N 265.68 -4.61355 -5.29241 0
M  V30 2297 H 270.52 -2.71142 -1.23637 0
M  V30 2298 H 268.057 -1.34326 -0.599577 0
M  V30 2299 H 270.015 -2.05839 -3.62886 0
M  V30 2300 H 268.645 -1.07946 -3.04216 0
M  V30 2301 H 267.697 -3.25128 -1.97474 0
M  V30 2302 H 269.009 -4.14523 -2.77439 0
M  V30 2303 H 268.163 -3.41554 -5.01424 0
M  V30 2304 H 266.902 -2.41894 -4.23484 0
M  V30 2305 H 265.907 -4.47527 -3.19373 0
M  V30 2306 H 267.132 -5.48402 -4.00539 0
M  V30 2307 H 265.078 -3.72554 -5.39944 0
M  V30 2308 H 264.995 -5.44935 -5.24006 0
M  V30 2309 H 266.263 -4.73586 -6.19141 0
M  V30 2310 N 270.492 0.636531 -1.44174 0
M  V30 2311 C 271.72 1.42353 -1.50144 0
M  V30 2312 C 272.135 1.88389 -0.124575 0
M  V30 2313 O 271.492 1.6051 0.868489 0
M  V30 2314 C 271.543 2.64744 -2.46156 0
M  V30 2315 O 271.264 2.20629 -3.7849 0
M  V30 2316 C 272.765 3.57929 -2.61537 0
M  V30 2317 H 269.985 0.436752 -0.5094 0
M  V30 2318 H 272.529 0.778933 -1.89084 0
M  V30 2319 H 270.684 3.25307 -2.10366 0
M  V30 2320 H 271.098 2.99938 -4.30276 0
M  V30 2321 H 272.572 4.40428 -3.32757 0
M  V30 2322 H 273.049 4.06382 -1.66585 0
M  V30 2323 H 273.655 3.03238 -2.98206 0
M  V30 2324 N 271.97 1.30982 0.876444 0
M  V30 2325 C 272.9 1.20668 1.99903 0
M  V30 2326 C 273.881 0.095354 1.69833 0
M  V30 2327 O 275.066 0.27885 1.92188 0
M  V30 2328 C 272.196 0.90655 3.3526 0
M  V30 2329 C 271.15 1.97675 3.79617 0
M  V30 2330 C 270.476 1.52943 5.1236 0
M  V30 2331 C 271.776 3.389 3.97422 0
M  V30 2332 H 273.47 2.14586 2.0879 0
M  V30 2333 H 271.016 1.03308 1.00317 0
M  V30 2334 H 272.969 0.821025 4.13324 0
M  V30 2335 H 271.693 -0.0682969 3.26529 0
M  V30 2336 H 270.352 2.05205 3.03787 0
M  V30 2337 H 270 0.54262 5.00065 0
M  V30 2338 H 269.7 2.24532 5.43009 0
M  V30 2339 H 271.224 1.45786 5.92941 0
M  V30 2340 H 272.638 3.34081 4.659 0
M  V30 2341 H 271.035 4.0865 4.3946 0
M  V30 2342 H 272.105 3.80163 3.01006 0
M  V30 2343 N 273.449 -1.08991 1.13837 0
M  V30 2344 C 274.397 -2.17841 0.815347 0
M  V30 2345 C 275.391 -1.68164 -0.204233 0
M  V30 2346 O 276.597 -1.79897 -0.0609304 0
M  V30 2347 H 272.972 -0.710654 0.245915 0
M  V30 2348 H 274.943 -2.42315 1.74143 0
M  V30 2349 C 273.692 -3.46381 0.302614 0
M  V30 2350 H 273.015 -3.84979 1.0785 0
M  V30 2351 H 274.455 -4.23844 0.115074 0
M  V30 2352 C 272.914 -3.22556 -0.972591 0
M  V30 2353 O 273.444 -3.45599 -2.04754 0
M  V30 2354 N 271.65 -2.76134 -0.905455 0
M  V30 2355 H 271.197 -2.57582 -0.0305421 0
M  V30 2356 H 271.155 -2.60571 -1.75926 0
M  V30 2357 N 274.927 -0.932562 -1.27047 0
M  V30 2358 C 275.875 -0.42603 -2.28665 0
M  V30 2359 C 276.869 0.49219 -1.62092 0
M  V30 2360 O 278.075 0.371355 -1.76128 0
M  V30 2361 H 274.45 -0.119213 -0.742491 0
M  V30 2362 H 276.421 -1.29579 -2.68797 0
M  V30 2363 C 275.17 0.301426 -3.46391 0
M  V30 2364 H 274.493 -0.39595 -3.97834 0
M  V30 2365 H 275.933 0.6202 -4.1944 0
M  V30 2366 C 274.392 1.51616 -3.00856 0
M  V30 2367 O 274.922 2.61476 -3.04948 0
M  V30 2368 N 273.128 1.36969 -2.56296 0
M  V30 2369 H 272.675 0.475873 -2.53166 0
M  V30 2370 H 272.633 2.18368 -2.26192 0
M  V30 2371 N 276.405 1.4127 -0.698611 0
M  V30 2372 C 277.352 2.30773 -0.0352094 0
M  V30 2373 C 278.322 1.47273 0.768111 0
M  V30 2374 O 279.507 1.76053 0.735524 0
M  V30 2375 C 276.647 3.33346 0.893 0
M  V30 2376 C 275.76 4.31924 0.0809695 0
M  V30 2377 C 274.895 5.21566 1.0071 0
M  V30 2378 C 273.934 6.11811 0.188155 0
M  V30 2379 N 273.071 6.93926 1.06825 0
M  V30 2380 H 277.911 2.86943 -0.804207 0
M  V30 2381 H 275.448 1.4132 -0.408294 0
M  V30 2382 H 277.406 3.91368 1.44523 0
M  V30 2383 H 276.036 2.78719 1.62836 0
M  V30 2384 H 275.088 3.75825 -0.588224 0
M  V30 2385 H 276.4 4.95716 -0.553801 0
M  V30 2386 H 275.554 5.84437 1.62845 0
M  V30 2387 H 274.293 4.58008 1.67572 0
M  V30 2388 H 273.298 5.47986 -0.446254 0
M  V30 2389 H 274.523 6.77425 -0.476716 0
M  V30 2390 H 272.469 6.32973 1.72283 0
M  V30 2391 H 272.386 7.54416 0.489123 0
M  V30 2392 H 273.654 7.61262 1.67632 0
M  V30 2393 N 277.883 0.443576 1.51229 0
M  V30 2394 C 279.13 -0.120796 2.02139 0
M  V30 2395 C 279.458 -1.42166 1.32736 0
M  V30 2396 O 278.713 -1.90849 0.43301 0
M  V30 2397 C 279.012 -0.380579 3.55368 0
M  V30 2398 C 278.678 0.83523 4.43097 0
M  V30 2399 C 277.34 1.16864 4.66794 0
M  V30 2400 C 279.692 1.64601 4.94526 0
M  V30 2401 C 277.02 2.31339 5.39165 0
M  V30 2402 C 279.372 2.78181 5.68153 0
M  V30 2403 C 278.036 3.11969 5.90112 0
M  V30 2404 H 277.306 -0.0442023 0.73968 0
M  V30 2405 H 279.953 0.592046 1.82118 0
M  V30 2406 H 278.258 -1.17538 3.73754 0
M  V30 2407 H 279.955 -0.830777 3.923 0
M  V30 2408 H 276.545 0.565437 4.24854 0
M  V30 2409 H 280.729 1.40163 4.76097 0
M  V30 2410 H 275.985 2.57823 5.5438 0
M  V30 2411 H 280.159 3.41371 6.06992 0
M  V30 2412 H 277.786 4.00784 6.45969 0
M  V30 2413 N 279.361 -1.56624 0.175154 0
M  V30 2414 C 280.324 -2.16934 -0.739738 0
M  V30 2415 C 281.324 -1.11842 -1.15533 0
M  V30 2416 O 282.514 -1.37335 -1.07167 0
M  V30 2417 C 279.646 -2.75531 -2.00738 0
M  V30 2418 H 280.839 -2.99131 -0.214639 0
M  V30 2419 H 278.392 -1.56123 -0.0744197 0
M  V30 2420 H 279.127 -1.97078 -2.57548 0
M  V30 2421 H 278.912 -3.52444 -1.71831 0
M  V30 2422 H 280.402 -3.21904 -2.66021 0
M  V30 2423 N 280.839 0.0985539 -1.57292 0
M  V30 2424 C 282.064 0.820196 -1.90493 0
M  V30 2425 C 282.489 1.71658 -0.769094 0
M  V30 2426 O 281.847 1.79133 0.279495 0
M  V30 2427 C 281.895 1.61242 -3.22542 0
M  V30 2428 O 280.999 2.72108 -3.09888 0
M  V30 2429 H 280.34 0.225547 -0.62452 0
M  V30 2430 H 282.87 0.0748159 -2.04463 0
M  V30 2431 H 282.88 1.99737 -3.55766 0
M  V30 2432 H 281.555 0.954535 -4.04798 0
M  V30 2433 H 280.132 2.36667 -2.88172 0
M  V30 2434 N 282.317 1.53212 0.369288 0
M  V30 2435 C 283.564 1.69215 1.11232 0
M  V30 2436 C 283.892 0.442048 1.8941 0
M  V30 2437 O 283.147 -0.575944 1.87033 0
M  V30 2438 C 283.446 2.89101 2.10132 0
M  V30 2439 C 283.112 4.25758 1.48463 0
M  V30 2440 C 281.774 4.6292 1.31372 0
M  V30 2441 C 284.126 5.10757 1.03811 0
M  V30 2442 C 281.454 5.82722 0.68207 0
M  V30 2443 C 283.806 6.31201 0.420487 0
M  V30 2444 C 282.47 6.67079 0.237038 0
M  V30 2445 H 281.74 0.619201 0.407027 0
M  V30 2446 H 284.387 1.87391 0.394552 0
M  V30 2447 H 282.692 2.65421 2.88199 0
M  V30 2448 H 284.389 2.98676 2.6757 0
M  V30 2449 H 280.979 3.96494 1.62758 0
M  V30 2450 H 285.163 4.82599 1.1581 0
M  V30 2451 H 280.419 6.09113 0.528316 0
M  V30 2452 H 284.593 6.96368 0.0662874 0
M  V30 2453 H 282.22 7.59774 -0.254477 0
M  V30 2454 N 283.795 -0.628877 1.44509 0
M  V30 2455 C 285.044 -1.38437 1.4669 0
M  V30 2456 C 285.357 -1.95322 0.104272 0
M  V30 2457 O 286.563 -2.715 0.00362163 0
M  V30 2458 C 285.019 -2.50659 2.5826 0
M  V30 2459 C 284.627 -2.00277 4.0074 0
M  V30 2460 C 286.371 -3.27844 2.69664 0
M  V30 2461 C 284.278 -3.09854 5.0373 0
M  V30 2462 H 283.208 -0.520245 0.545766 0
M  V30 2463 H 285.859 -0.676313 1.70582 0
M  V30 2464 H 284.241 -3.2405 2.27612 0
M  V30 2465 H 285.415 -1.33736 4.40966 0
M  V30 2466 H 283.73 -1.35901 3.93599 0
M  V30 2467 H 286.327 -4.09534 3.43781 0
M  V30 2468 H 286.67 -3.77471 1.75559 0
M  V30 2469 H 287.203 -2.61543 2.99733 0
M  V30 2470 H 283.942 -2.65168 5.99472 0
M  V30 2471 H 283.462 -3.7503 4.68095 0
M  V30 2472 H 285.141 -3.74592 5.27532 0
M  V30 2473 N 285.273 -1.31445 -0.869486 0
M  V30 2474 C 286.55 -1.11795 -1.60503 0
M  V30 2475 C 286.93 0.327168 -2.08549 0
M  V30 2476 O 286.278 1.32135 -1.8642 0
M  V30 2477 C 286.488 -2.13258 -2.76265 0
M  V30 2478 C 287.836 -2.45805 -3.46215 0
M  V30 2479 O 288.86 -2.11688 -2.86473 0
M  V30 2480 O 287.719 -3.04228 -4.5399 0
M  V30 2481 H 284.813 -0.430421 -0.706163 0
M  V30 2482 H 287.359 -1.42925 -0.914907 0
M  V30 2483 H 286.131 -3.10461 -2.3818 0
M  V30 2484 H 285.754 -1.83035 -3.52964 0
M  V30 2485 N 286.751 1.08385 -1.14413 0
M  V30 2486 C 287.698 2.15311 -0.831265 0
M  V30 2487 C 288.668 1.64751 0.211292 0
M  V30 2488 O 289.853 1.90627 0.0811674 0
M  V30 2489 C 286.993 3.43658 -0.315143 0
M  V30 2490 C 286.106 4.08064 -1.41802 0
M  V30 2491 C 285.241 5.24207 -0.859126 0
M  V30 2492 C 284.28 5.80554 -1.93967 0
M  V30 2493 N 283.417 6.88042 -1.39793 0
M  V30 2494 H 288.257 2.41415 -1.74708 0
M  V30 2495 H 285.794 1.18474 -0.871909 0
M  V30 2496 H 287.752 4.172 0.00230884 0
M  V30 2497 H 286.382 3.17839 0.56378 0
M  V30 2498 H 285.434 3.3228 -1.85187 0
M  V30 2499 H 286.746 4.45962 -2.23427 0
M  V30 2500 H 285.9 6.04689 -0.49359 0
M  V30 2501 H 284.639 4.87699 -0.011932 0
M  V30 2502 H 283.644 4.98725 -2.31415 0
M  V30 2503 H 284.869 6.19121 -2.79046 0
M  V30 2504 H 282.815 6.53493 -0.572919 0
M  V30 2505 H 282.732 7.24767 -2.15054 0
M  V30 2506 H 284 7.72255 -1.0603 0
M  V30 2507 N 288.23 0.939286 1.26551 0
M  V30 2508 C 289.476 0.586715 1.94128 0
M  V30 2509 C 289.809 -0.8717 1.73537 0
M  V30 2510 O 289.084 -1.62339 1.07127 0
M  V30 2511 C 289.367 0.927497 3.4795 0
M  V30 2512 C 289.22 2.44052 3.77834 0
M  V30 2513 C 290.539 0.441569 4.37879 0
M  V30 2514 H 287.658 0.21463 0.705055 0
M  V30 2515 H 290.3 1.17316 1.49455 0
M  V30 2516 H 288.45 0.428431 3.8613 0
M  V30 2517 H 290.122 3.01216 3.4938 0
M  V30 2518 H 288.365 2.8848 3.23978 0
M  V30 2519 H 289.036 2.62947 4.85348 0
M  V30 2520 H 291.512 0.869448 4.06915 0
M  V30 2521 H 290.388 0.708856 5.44304 0
M  V30 2522 H 290.649 -0.658467 4.37169 0
M  V30 2523 N 289.708 -1.40897 0.706093 0
M  V30 2524 C 291.124 -1.55042 0.37869 0
M  V30 2525 C 291.324 -1.67944 -1.11342 0
M  V30 2526 O 290.38 -1.66372 -1.89938 0
M  V30 2527 C 291.693 -2.78398 1.13643 0
M  V30 2528 C 293.241 -2.92206 1.12181 0
M  V30 2529 C 293.716 -4.18463 1.86152 0
M  V30 2530 N 295.207 -4.25443 1.83173 0
M  V30 2531 C 295.942 -5.2202 2.37239 0
M  V30 2532 N 295.438 -6.24563 2.99821 0
M  V30 2533 N 297.231 -5.14033 2.27435 0
M  V30 2534 H 289.382 -1.30769 1.67372 0
M  V30 2535 H 291.645 -0.631653 0.706907 0
M  V30 2536 H 291.351 -2.7511 2.19106 0
M  V30 2537 H 291.225 -3.70228 0.721853 0
M  V30 2538 H 293.612 -2.95004 0.0754171 0
M  V30 2539 H 293.693 -2.01521 1.57554 0
M  V30 2540 H 293.337 -4.16427 2.90776 0
M  V30 2541 H 293.267 -5.08141 1.38206 0
M  V30 2542 H 295.758 -3.51976 1.37556 0
M  V30 2543 H 296.071 -6.94665 3.38616 0
M  V30 2544 H 294.416 -6.25035 3.03902 0
M  V30 2545 H 297.607 -4.3285 1.78208 0
M  V30 2546 H 297.78 -5.89129 2.69873 0
M  V30 2547 N 291.186 -0.45159 -1.50991 0
M  V30 2548 C 292.433 0.110074 -2.02201 0
M  V30 2549 C 292.761 1.4146 -1.33489 0
M  V30 2550 O 292.016 1.90617 -0.443125 0
M  V30 2551 C 292.315 0.361728 -3.55565 0
M  V30 2552 C 291.981 -0.858717 -4.42648 0
M  V30 2553 C 290.643 -1.19338 -4.66167 0
M  V30 2554 C 292.995 -1.67221 -4.93646 0
M  V30 2555 C 290.323 -2.34195 -5.37931 0
M  V30 2556 C 292.675 -2.8119 -5.6667 0
M  V30 2557 C 291.339 -3.15094 -5.88449 0
M  V30 2558 H 290.609 0.040279 -0.739904 0
M  V30 2559 H 293.256 -0.601696 -1.81802 0
M  V30 2560 H 291.561 1.15554 -3.74372 0
M  V30 2561 H 293.258 0.80996 -3.92735 0
M  V30 2562 H 289.848 -0.58796 -4.24548 0
M  V30 2563 H 294.032 -1.42686 -4.75347 0
M  V30 2564 H 289.288 -2.6076 -5.53005 0
M  V30 2565 H 293.462 -3.44585 -6.05173 0
M  V30 2566 H 291.089 -4.04204 -6.43835 0
M  V30 2567 N 292.664 1.56529 -0.183458 0
M  V30 2568 C 293.594 2.21549 0.737456 0
M  V30 2569 C 294.575 1.17489 1.23005 0
M  V30 2570 O 295.76 1.45959 1.281 0
M  V30 2571 C 292.89 2.86575 1.96194 0
M  V30 2572 C 291.844 3.96778 1.60473 0
M  V30 2573 C 291.17 4.48911 2.90487 0
M  V30 2574 C 292.47 5.15767 0.823497 0
M  V30 2575 H 294.164 2.98761 0.195453 0
M  V30 2576 H 291.71 1.43702 0.0925686 0
M  V30 2577 H 293.663 3.30739 2.61131 0
M  V30 2578 H 292.387 2.06749 2.52828 0
M  V30 2579 H 291.046 3.53286 0.978997 0
M  V30 2580 H 290.694 3.65862 3.45186 0
M  V30 2581 H 290.394 5.23265 2.67335 0
M  V30 2582 H 291.918 4.95771 3.56432 0
M  V30 2583 H 293.332 5.56549 1.37571 0
M  V30 2584 H 291.729 5.96114 0.690551 0
M  V30 2585 H 292.799 4.84574 -0.177782 0
M  V30 2586 N 294.142 -0.090211 1.57342 0
M  V30 2587 C 295.052 -1.12735 2.05738 0
M  V30 2588 C 296.068 -1.43557 0.983231 0
M  V30 2589 O 297.244 -1.54101 1.29672 0
M  V30 2590 C 294.309 -2.42659 2.47624 0
M  V30 2591 C 293.37 -2.18975 3.69254 0
M  V30 2592 C 292.603 -3.42704 4.09133 0
M  V30 2593 O 292.826 -4.51127 3.49057 0
M  V30 2594 O 291.76 -3.32003 5.02053 0
M  V30 2595 H 295.586 -0.746279 2.94388 0
M  V30 2596 H 293.171 -0.303064 1.46294 0
M  V30 2597 H 295.053 -3.19155 2.7517 0
M  V30 2598 H 293.728 -2.80182 1.62109 0
M  V30 2599 H 292.635 -1.40244 3.46818 0
M  V30 2600 H 293.968 -1.86342 4.55563 0
M  V30 2601 N 295.62 -1.53406 -0.361157 0
M  V30 2602 C 296.552 -1.76446 -1.46286 0
M  V30 2603 C 297.565 -0.645322 -1.49464 0
M  V30 2604 O 298.754 -0.921681 -1.52864 0
M  V30 2605 C 295.854 -1.83332 -2.85031 0
M  V30 2606 C 295.027 -3.13033 -3.05498 0
M  V30 2607 C 294.086 -3.11104 -4.24383 0
M  V30 2608 O 293.112 -3.84888 -4.19344 0
M  V30 2609 N 294.314 -2.32234 -5.32022 0
M  V30 2610 H 297.079 -2.71508 -1.26899 0
M  V30 2611 H 294.64 -1.52238 -0.550915 0
M  V30 2612 H 296.632 -1.79514 -3.62708 0
M  V30 2613 H 295.202 -0.955342 -2.97644 0
M  V30 2614 H 294.422 -3.30119 -2.15442 0
M  V30 2615 H 295.71 -3.9874 -3.16044 0
M  V30 2616 H 295.108 -1.71807 -5.38979 0
M  V30 2617 H 293.665 -2.3423 -6.08259 0
M  V30 2618 N 297.098 0.621204 -1.44841 0
M  V30 2619 C 298.03 1.74615 -1.48466 0
M  V30 2620 C 299.043 1.58377 -0.37691 0
M  V30 2621 O 300.232 1.66508 -0.643215 0
M  V30 2622 C 297.332 3.12459 -1.31236 0
M  V30 2623 C 296.505 3.55064 -2.55438 0
M  V30 2624 C 295.564 4.71821 -2.32963 0
M  V30 2625 O 294.59 4.79628 -3.06505 0
M  V30 2626 N 295.792 5.64186 -1.36654 0
M  V30 2627 H 298.557 1.71973 -2.45449 0
M  V30 2628 H 296.118 0.806077 -1.40407 0
M  V30 2629 H 298.11 3.88302 -1.14032 0
M  V30 2630 H 296.68 3.09686 -0.4258 0
M  V30 2631 H 295.9 2.69324 -2.87851 0
M  V30 2632 H 297.188 3.80284 -3.38026 0
M  V30 2633 H 296.586 5.6058 -0.759344 0
M  V30 2634 H 295.143 6.39618 -1.25425 0
M  V30 2635 N 298.576 1.31904 0.862503 0
M  V30 2636 C 299.524 1.20125 1.9918 0
M  V30 2637 C 300.518 0.107824 1.69056 0
M  V30 2638 O 301.724 0.270223 1.7796 0
M  V30 2639 H 298.099 0.372148 0.65346 0
M  V30 2640 H 300.07 2.15652 2.06244 0
M  V30 2641 C 298.819 0.933099 3.34946 0
M  V30 2642 H 298.142 1.76664 3.5865 0
M  V30 2643 H 299.582 0.890892 4.14535 0
M  V30 2644 C 298.041 -0.364172 3.34926 0
M  V30 2645 O 298.571 -1.37858 3.77304 0
M  V30 2646 N 296.777 -0.383362 2.8806 0
M  V30 2647 H 296.324 0.442651 2.53768 0
M  V30 2648 H 296.282 -1.25123 2.8843 0
M  V30 2649 N 300.054 -1.07777 1.14986 0
M  V30 2650 C 300.986 -2.14769 0.800436 0
M  V30 2651 C 301.999 -1.61739 -0.185595 0
M  V30 2652 O 303.188 -1.78462 0.0370358 0
M  V30 2653 C 300.288 -3.38481 0.168533 0
M  V30 2654 C 299.461 -4.20876 1.1909 0
M  V30 2655 C 298.52 -5.22976 0.581575 0
M  V30 2656 O 297.546 -5.55388 1.24633 0
M  V30 2657 N 298.748 -5.76976 -0.638706 0
M  V30 2658 H 301.513 -2.45348 1.72118 0
M  V30 2659 H 299.074 -1.23645 1.04515 0
M  V30 2660 H 301.066 -4.03916 -0.251764 0
M  V30 2661 H 299.636 -3.05651 -0.655467 0
M  V30 2662 H 298.856 -3.51322 1.78791 0
M  V30 2663 H 300.144 -4.7274 1.88133 0
M  V30 2664 H 299.542 -5.52886 -1.19723 0
M  V30 2665 H 298.099 -6.44061 -1.00142 0
M  V30 2666 N 301.532 -0.945985 -1.26051 0
M  V30 2667 C 302.778 -0.597002 -1.93814 0
M  V30 2668 C 303.111 0.862484 -1.73997 0
M  V30 2669 O 302.386 1.61769 -1.07986 0
M  V30 2670 C 302.669 -0.945937 -3.47454 0
M  V30 2671 C 302.522 -2.46052 -3.76535 0
M  V30 2672 C 303.841 -0.464785 -4.37639 0
M  V30 2673 H 300.96 -0.218366 -0.703907 0
M  V30 2674 H 303.602 -1.18107 -1.48831 0
M  V30 2675 H 301.752 -0.448902 -3.85898 0
M  V30 2676 H 303.424 -3.03065 -3.47778 0
M  V30 2677 H 301.667 -2.90194 -3.22444 0
M  V30 2678 H 302.338 -2.65517 -4.83947 0
M  V30 2679 H 304.814 -0.891016 -4.06448 0
M  V30 2680 H 303.69 -0.737712 -5.4392 0
M  V30 2681 H 303.951 0.635274 -4.37512 0
M  V30 2682 N 303.011 1.40521 -0.713556 0
M  V30 2683 C 303.941 2.33381 -0.0743864 0
M  V30 2684 C 304.922 1.52784 0.747735 0
M  V30 2685 O 306.107 1.81258 0.697071 0
M  V30 2686 C 303.237 3.36748 0.849598 0
M  V30 2687 C 302.191 4.27793 0.133247 0
M  V30 2688 C 301.517 5.21679 1.17281 0
M  V30 2689 C 302.817 5.12415 -1.01134 0
M  V30 2690 H 304.511 2.87081 -0.850007 0
M  V30 2691 H 302.057 1.38034 -0.410201 0
M  V30 2692 H 304.01 4.00648 1.30612 0
M  V30 2693 H 302.734 2.81439 1.65709 0
M  V30 2694 H 301.393 3.65342 -0.303426 0
M  V30 2695 H 301.041 4.62677 1.9733 0
M  V30 2696 H 300.741 5.83435 0.698397 0
M  V30 2697 H 302.265 5.88456 1.62947 0
M  V30 2698 H 303.679 5.69781 -0.634274 0
M  V30 2699 H 302.076 5.83203 -1.41399 0
M  V30 2700 H 303.146 4.48514 -1.84292 0
M  V30 2701 N 304.489 0.459591 1.5075 0
M  V30 2702 C 305.421 -0.37665 2.26084 0
M  V30 2703 C 306.434 -0.967109 1.30961 0
M  V30 2704 O 307.623 -0.857468 1.56556 0
M  V30 2705 C 304.723 -1.54112 3.01832 0
M  V30 2706 C 303.896 -1.06553 4.24223 0
M  V30 2707 C 302.955 -2.1027 4.82362 0
M  V30 2708 O 301.981 -1.68798 5.43595 0
M  V30 2709 N 303.183 -3.42974 4.68347 0
M  V30 2710 H 305.948 0.269124 2.98489 0
M  V30 2711 H 303.509 0.28972 1.59287 0
M  V30 2712 H 305.501 -2.23165 3.37608 0
M  V30 2713 H 304.071 -2.0918 2.32298 0
M  V30 2714 H 303.291 -0.201274 3.93686 0
M  V30 2715 H 304.579 -0.725516 5.03601 0
M  V30 2716 H 303.977 -3.79385 4.19623 0
M  V30 2717 H 302.534 -4.07858 5.08424 0
M  V30 2718 N 305.967 -1.56429 0.191757 0
M  V30 2719 C 307.195 -2.01867 -0.453586 0
M  V30 2720 C 307.61 -1.07191 -1.5542 0
M  V30 2721 O 306.967 -0.0762108 -1.82341 0
M  V30 2722 C 307.018 -3.47017 -1.013 0
M  V30 2723 O 306.739 -4.38078 0.0437005 0
M  V30 2724 C 308.24 -4.07956 -1.73456 0
M  V30 2725 H 305.46 -0.661211 -0.114199 0
M  V30 2726 H 308.004 -2.02295 0.299483 0
M  V30 2727 H 306.159 -3.47298 -1.71647 0
M  V30 2728 H 306.573 -5.23178 -0.372212 0
M  V30 2729 H 308.047 -5.1138 -2.07833 0
M  V30 2730 H 308.524 -3.51222 -2.63704 0
M  V30 2731 H 309.13 -4.11437 -1.07702 0
M  V30 2732 N 307.445 0.0818655 -1.57387 0
M  V30 2733 C 308.392 1.09834 -2.0299 0
M  V30 2734 C 309.362 1.39043 -0.908639 0
M  V30 2735 O 310.547 1.50282 -1.17559 0
M  V30 2736 C 307.687 2.40971 -2.47037 0
M  V30 2737 C 306.8 2.18379 -3.7274 0
M  V30 2738 C 305.935 3.43008 -4.0561 0
M  V30 2739 C 304.974 3.15736 -5.24383 0
M  V30 2740 N 304.111 4.32667 -5.52941 0
M  V30 2741 H 308.951 0.702472 -2.89602 0
M  V30 2742 H 306.488 0.33531 -1.43227 0
M  V30 2743 H 308.446 3.1752 -2.70623 0
M  V30 2744 H 307.076 2.78379 -1.63417 0
M  V30 2745 H 306.128 1.32569 -3.56552 0
M  V30 2746 H 307.44 1.94227 -4.59431 0
M  V30 2747 H 306.594 4.27958 -4.30043 0
M  V30 2748 H 305.333 3.70225 -3.17466 0
M  V30 2749 H 304.338 2.2918 -4.99757 0
M  V30 2750 H 305.563 2.8985 -6.14136 0
M  V30 2751 H 303.509 4.59935 -4.67756 0
M  V30 2752 H 303.426 4.11753 -6.34031 0
M  V30 2753 H 304.694 5.18644 -5.81918 0
M  V30 2754 N 308.923 1.53595 0.353017 0
M  V30 2755 C 310.169 1.71581 1.09232 0
M  V30 2756 C 310.524 0.468328 1.86613 0
M  V30 2757 O 309.817 -0.538911 1.83865 0
M  V30 2758 C 310.011 2.91313 2.07054 0
M  V30 2759 C 309.84 4.27585 1.39287 0
M  V30 2760 C 308.61 4.92233 1.1417 0
M  V30 2761 C 310.808 5.07656 0.824005 0
M  V30 2762 N 308.79 6.124 0.428841 0
M  V30 2763 C 310.161 6.19531 0.241195 0
M  V30 2764 C 312.216 4.92609 0.723922 0
M  V30 2765 C 310.919 7.18002 -0.431952 0
M  V30 2766 C 312.945 5.91365 0.0645334 0
M  V30 2767 C 312.307 7.02571 -0.507347 0
M  V30 2768 H 308.406 0.680987 0.384422 0
M  V30 2769 H 310.99 1.91013 0.377096 0
M  V30 2770 H 309.161 2.73398 2.75877 0
M  V30 2771 H 310.893 2.98062 2.73753 0
M  V30 2772 H 307.648 4.51612 1.42631 0
M  V30 2773 H 308.072 6.76944 0.0874131 0
M  V30 2774 H 312.714 4.06808 1.15181 0
M  V30 2775 H 310.432 8.03384 -0.871758 0
M  V30 2776 H 314.018 5.81799 -0.0121469 0
M  V30 2777 H 312.898 7.77675 -1.0095 0
M  V30 2778 N 310.401 -0.613514 1.45168 0
M  V30 2779 C 311.311 -1.75296 1.55912 0
M  V30 2780 C 312.327 -1.68244 0.443856 0
M  V30 2781 O 313.503 -1.88706 0.70371 0
M  V30 2782 C 310.568 -3.1174 1.5172 0
M  V30 2783 C 309.629 -3.30291 2.74238 0
M  V30 2784 C 308.862 -4.60226 2.70236 0
M  V30 2785 O 309.085 -5.42168 1.77229 0
M  V30 2786 O 308.019 -4.81361 3.61352 0
M  V30 2787 H 311.845 -1.69183 2.52212 0
M  V30 2788 H 309.43 -0.776886 1.27612 0
M  V30 2789 H 311.312 -3.93044 1.51968 0
M  V30 2790 H 309.987 -3.18357 0.585697 0
M  V30 2791 H 308.894 -2.48598 2.79553 0
M  V30 2792 H 310.227 -3.28547 3.66494 0
M  V30 2793 N 311.879 -1.3236 -0.855495 0
M  V30 2794 C 312.809 -1.23833 -1.97958 0
M  V30 2795 C 313.79 -0.122361 -1.69659 0
M  V30 2796 O 314.975 -0.30939 -1.9172 0
M  V30 2797 C 312.105 -0.959772 -3.33775 0
M  V30 2798 C 311.059 -2.03689 -3.76424 0
M  V30 2799 C 310.385 -1.61075 -5.09862 0
M  V30 2800 C 311.685 -3.4518 -3.9198 0
M  V30 2801 H 313.379 -2.1788 -2.0535 0
M  V30 2802 H 310.925 -1.04891 -0.986605 0
M  V30 2803 H 312.878 -0.886678 -4.11966 0
M  V30 2804 H 311.602 0.0163404 -3.26596 0
M  V30 2805 H 310.261 -2.10012 -3.00484 0
M  V30 2806 H 309.909 -0.622107 -4.99138 0
M  V30 2807 H 309.609 -2.33143 -5.39368 0
M  V30 2808 H 311.133 -1.55201 -5.90546 0
M  V30 2809 H 312.547 -3.4145 -4.60526 0
M  V30 2810 H 310.944 -4.1559 -4.32903 0
M  V30 2811 H 312.014 -3.84903 -2.94919 0
M  V30 2812 N 313.357 1.07166 -1.15556 0
M  V30 2813 C 314.287 2.16403 -0.877046 0
M  V30 2814 C 315.268 1.69217 0.173111 0
M  V30 2815 O 316.453 1.94181 0.027084 0
M  V30 2816 C 313.583 3.45349 -0.367632 0
M  V30 2817 C 312.537 4.05995 -1.35468 0
M  V30 2818 C 311.863 5.30045 -0.704038 0
M  V30 2819 C 313.163 4.45804 -2.72132 0
M  V30 2820 H 314.857 2.39959 -1.79053 0
M  V30 2821 H 312.403 1.15325 -0.862331 0
M  V30 2822 H 314.356 4.21095 -0.160317 0
M  V30 2823 H 313.08 3.21385 0.581326 0
M  V30 2824 H 311.739 3.32296 -1.54839 0
M  V30 2825 H 311.387 5.02373 0.251128 0
M  V30 2826 H 311.087 5.71579 -1.36277 0
M  V30 2827 H 312.611 6.08495 -0.50654 0
M  V30 2828 H 314.025 5.12671 -2.56595 0
M  V30 2829 H 312.422 4.98296 -3.34397 0
M  V30 2830 H 313.492 3.57083 -3.28054 0
M  V30 2831 N 314.835 0.952656 1.25548 0
M  V30 2832 C 315.767 0.428609 2.25157 0
M  V30 2833 C 316.78 -0.454428 1.56329 0
M  V30 2834 O 317.969 -0.263023 1.76552 0
M  V30 2835 C 315.069 -0.401972 3.36508 0
M  V30 2836 C 314.242 0.467601 4.34893 0
M  V30 2837 C 313.301 -0.30445 5.25319 0
M  V30 2838 O 312.327 0.296473 5.68427 0
M  V30 2839 N 313.529 -1.59805 5.5807 0
M  V30 2840 H 316.294 1.28497 2.70756 0
M  V30 2841 H 313.855 0.822798 1.39433 0
M  V30 2842 H 315.847 -0.926134 3.9396 0
M  V30 2843 H 314.417 -1.15918 2.90313 0
M  V30 2844 H 313.637 1.17288 3.76347 0
M  V30 2845 H 314.925 1.06119 4.97611 0
M  V30 2846 H 314.323 -2.10823 5.24948 0
M  V30 2847 H 312.88 -2.06822 6.18116 0
M  V30 2848 N 316.313 -1.40141 0.720998 0
M  V30 2849 C 317.245 -2.29177 0.0324669 0
M  V30 2850 C 318.258 -1.46105 -0.718126 0
M  V30 2851 O 319.447 -1.69335 -0.564608 0
M  V30 2852 C 316.547 -3.24473 -0.978292 0
M  V30 2853 C 315.72 -4.36423 -0.292115 0
M  V30 2854 C 314.779 -5.12122 -1.20901 0
M  V30 2855 O 313.805 -5.64981 -0.691766 0
M  V30 2856 N 315.007 -5.21992 -2.53978 0
M  V30 2857 H 317.772 -2.88909 0.796984 0
M  V30 2858 H 315.333 -1.51569 0.569068 0
M  V30 2859 H 317.325 -3.71987 -1.59398 0
M  V30 2860 H 315.895 -2.65871 -1.64413 0
M  V30 2861 H 315.115 -3.90967 0.503847 0
M  V30 2862 H 316.403 -5.08467 0.183971 0
M  V30 2863 H 315.801 -4.8054 -2.98493 0
M  V30 2864 H 314.358 -5.72995 -3.10677 0
M  V30 2865 N 317.792 -0.46758 -1.50504 0
M  V30 2866 C 318.725 0.374324 -2.25109 0
M  V30 2867 C 319.703 0.99921 -1.28275 0
M  V30 2868 O 320.887 1.03583 -1.57489 0
M  V30 2869 C 318.014 1.52419 -3.02467 0
M  V30 2870 C 317.06 1.01702 -4.14197 0
M  V30 2871 S 317.893 -0.0654477 -5.3546 0
M  V30 2872 C 319.049 1.08837 -6.16365 0
M  V30 2873 H 319.282 -0.258983 -2.9617 0
M  V30 2874 H 316.815 -0.252421 -1.52323 0
M  V30 2875 H 318.773 2.18322 -3.47628 0
M  V30 2876 H 317.434 2.129 -2.30938 0
M  V30 2877 H 316.627 1.87776 -4.67714 0
M  V30 2878 H 316.229 0.435757 -3.71453 0
M  V30 2879 H 318.521 2.00071 -6.47285 0
M  V30 2880 H 319.464 0.592538 -7.05616 0
M  V30 2881 H 319.872 1.34061 -5.4835 0
M  V30 2882 N 319.27 1.56325 -0.20005 0
M  V30 2883 C 320.218 2.20666 0.735482 0
M  V30 2884 C 321.212 1.17934 1.21605 0
M  V30 2885 O 322.418 1.36068 1.17837 0
M  V30 2886 H 318.793 0.70725 0.255542 0
M  V30 2887 H 320.764 2.9792 0.169166 0
M  V30 2888 C 319.513 2.88391 1.94232 0
M  V30 2889 H 318.836 3.67185 1.58161 0
M  V30 2890 H 320.276 3.3684 2.57517 0
M  V30 2891 C 318.735 1.89692 2.78421 0
M  V30 2892 O 319.265 1.40032 3.76502 0
M  V30 2893 N 317.471 1.57813 2.44015 0
M  V30 2894 H 317.018 1.9839 1.64314 0
M  V30 2895 H 316.976 0.920325 3.00628 0
M  V30 2896 N 320.748 -0.0735177 1.57428 0
M  V30 2897 C 321.994 -0.774145 1.87443 0
M  V30 2898 C 322.327 -1.77311 0.792103 0
M  V30 2899 O 321.602 -1.93492 -0.197793 0
M  V30 2900 C 321.885 -1.48367 3.28115 0
M  V30 2901 C 321.738 -0.501227 4.46999 0
M  V30 2902 C 323.057 -2.429 3.66998 0
M  V30 2903 H 320.176 -0.279971 0.681752 0
M  V30 2904 H 322.818 -0.0373616 1.89963 0
M  V30 2905 H 320.968 -2.11171 3.26097 0
M  V30 2906 H 322.64 0.121468 4.6114 0
M  V30 2907 H 320.883 0.183593 4.33411 0
M  V30 2908 H 321.554 -1.03526 5.42205 0
M  V30 2909 H 324.03 -1.90175 3.70098 0
M  V30 2910 H 322.906 -2.89549 4.66318 0
M  V30 2911 H 323.167 -3.27628 2.96837 0
M  V30 2912 N 322.226 -1.5378 -0.344866 0
M  V30 2913 C 323.474 -1.70625 -1.08311 0
M  V30 2914 C 323.795 -0.471447 -1.89215 0
M  V30 2915 O 323.065 0.514616 -1.8902 0
M  V30 2916 H 321.645 -0.629058 -0.402859 0
M  V30 2917 H 324.307 -1.9103 -0.386459 0
M  V30 2918 H 323.403 -2.57656 -1.76124 0
M  V30 2919 N 323.704 0.605807 -1.45491 0
M  V30 2920 C 324.932 1.39136 -1.5313 0
M  V30 2921 C 325.347 1.88082 -0.164507 0
M  V30 2922 O 324.704 1.62316 0.834247 0
M  V30 2923 C 324.755 2.59463 -2.51716 0
M  V30 2924 O 324.476 2.12551 -3.83084 0
M  V30 2925 C 325.977 3.52301 -2.6907 0
M  V30 2926 H 323.197 0.425849 -0.51855 0
M  V30 2927 H 325.741 0.73865 -1.90694 0
M  V30 2928 H 323.896 3.20772 -2.17219 0
M  V30 2929 H 324.31 2.90744 -4.36541 0
M  V30 2930 H 325.784 4.33271 -3.42024 0
M  V30 2931 H 326.261 4.02757 -1.75167 0
M  V30 2932 H 326.867 2.96845 -3.04571 0
M  V30 2933 N 325.182 1.32811 0.848464 0
M  V30 2934 C 326.598 1.11937 1.13764 0
M  V30 2935 C 326.798 -0.0960789 2.01271 0
M  V30 2936 O 325.854 -0.779165 2.40178 0
M  V30 2937 C 327.167 2.402 1.809 0
M  V30 2938 C 328.715 2.46016 1.93508 0
M  V30 2939 C 329.19 3.74215 2.64059 0
M  V30 2940 N 330.681 3.75232 2.71579 0
M  V30 2941 C 331.416 4.71134 3.26833 0
M  V30 2942 N 330.912 5.77406 3.8285 0
M  V30 2943 N 332.705 4.58623 3.24995 0
M  V30 2944 H 324.856 2.1073 0.265855 0
M  V30 2945 H 327.119 0.930671 0.180431 0
M  V30 2946 H 326.825 3.29093 1.24058 0
M  V30 2947 H 326.699 2.51628 2.81004 0
M  V30 2948 H 329.086 1.57577 2.49506 0
M  V30 2949 H 329.167 2.38536 0.923811 0
M  V30 2950 H 328.811 4.63031 2.08722 0
M  V30 2951 H 328.741 3.78968 3.65637 0
M  V30 2952 H 331.232 2.98423 2.31845 0
M  V30 2953 H 331.545 6.46632 4.23187 0
M  V30 2954 H 329.89 5.81152 3.81165 0
M  V30 2955 H 333.081 3.74762 2.80484 0
M  V30 2956 H 333.254 5.33535 3.67756 0
M  V30 2957 N 326.66 -1.06551 1.16123 0
M  V30 2958 C 328.071 -1.60768 0.949232 0
M  V30 2959 C 328.422 -1.89523 -0.507508 0
M  V30 2960 O 327.547 -1.66671 -1.38021 0
M  V30 2961 C 328.142 -2.92086 1.71671 0
M  V30 2962 C 326.701 -3.43015 1.54977 0
M  V30 2963 C 325.848 -2.16947 1.72711 0
M  V30 2964 H 328.799 -0.895354 1.31031 0
M  V30 2965 H 328.82 -3.6138 1.19099 0
M  V30 2966 H 328.332 -2.71127 2.7769 0
M  V30 2967 H 326.433 -3.69039 0.513873 0
M  V30 2968 H 326.546 -4.18516 2.33198 0
M  V30 2969 H 324.91 -2.27041 1.15431 0
M  V30 2970 H 325.693 -1.98473 2.80113 0
M  V30 2971 N 328.138 -0.959301 -1.25041 0
M  V30 2972 C 329.387 -0.612254 -1.92183 0
M  V30 2973 C 329.7 0.855347 -1.75907 0
M  V30 2974 O 330.906 1.31256 -2.37664 0
M  V30 2975 C 329.362 -1.04435 -3.44414 0
M  V30 2976 C 328.97 -2.53482 -3.69393 0
M  V30 2977 C 330.714 -0.770055 -4.17457 0
M  V30 2978 C 328.621 -2.90468 -5.15153 0
M  V30 2979 H 327.551 -0.225279 -0.719559 0
M  V30 2980 H 330.202 -1.16438 -1.41825 0
M  V30 2981 H 328.584 -0.4206 -3.9376 0
M  V30 2982 H 329.758 -3.20916 -3.30681 0
M  V30 2983 H 328.073 -2.78432 -3.0962 0
M  V30 2984 H 330.67 -1.02249 -5.24832 0
M  V30 2985 H 331.013 0.293611 -4.15263 0
M  V30 2986 H 331.546 -1.35437 -3.74034 0
M  V30 2987 H 328.285 -3.95871 -5.22462 0
M  V30 2988 H 327.805 -2.27711 -5.54894 0
M  V30 2989 H 329.484 -2.79914 -5.83315 0
M  V30 2990 N 329.616 1.39756 -0.72842 0
M  V30 2991 C 330.564 2.32485 -0.0731849 0
M  V30 2992 C 331.558 1.52717 0.733063 0
M  V30 2993 O 332.764 1.68428 0.634988 0
M  V30 2994 H 329.139 0.751984 -0.00486469 0
M  V30 2995 H 331.11 2.85382 -0.871761 0
M  V30 2996 C 329.859 3.37773 0.824908 0
M  V30 2997 H 329.182 3.99227 0.213915 0
M  V30 2998 H 330.622 4.05121 1.25111 0
M  V30 2999 C 329.081 2.74287 1.95622 0
M  V30 3000 O 329.611 2.61618 3.04826 0
M  V30 3001 N 327.817 2.32475 1.74367 0
M  V30 3002 H 327.364 2.4298 0.855494 0
M  V30 3003 H 327.322 1.90337 2.50238 0
M  V30 3004 N 331.094 0.475555 1.50254 0
M  V30 3005 C 332.024 -0.30611 2.31485 0
M  V30 3006 C 333.005 -0.986228 1.38591 0
M  V30 3007 O 334.19 -0.982541 1.67511 0
M  V30 3008 C 331.32 -1.38588 3.1845 0
M  V30 3009 C 330.274 -0.827115 4.19932 0
M  V30 3010 C 329.6 -2.00551 4.95665 0
M  V30 3011 C 330.9 0.16463 5.2204 0
M  V30 3012 H 332.594 0.371866 2.97082 0
M  V30 3013 H 330.14 0.180282 1.42867 0
M  V30 3014 H 332.093 -1.94023 3.74076 0
M  V30 3015 H 330.817 -2.09269 2.50747 0
M  V30 3016 H 329.476 -0.294702 3.65414 0
M  V30 3017 H 329.124 -2.6994 4.2443 0
M  V30 3018 H 328.824 -1.63784 5.64313 0
M  V30 3019 H 330.348 -2.56468 5.54127 0
M  V30 3020 H 331.762 -0.300699 5.72511 0
M  V30 3021 H 330.159 0.446813 5.98434 0
M  V30 3022 H 331.229 1.08905 4.72512 0
M  V30 3023 N 332.573 -1.56217 0.208337 0
M  V30 3024 C 333.483 -2.23316 -0.718836 0
M  V30 3025 C 334.499 -1.23648 -1.22422 0
M  V30 3026 O 335.675 -1.56423 -1.26861 0
M  V30 3027 C 332.74 -2.88968 -1.91568 0
M  V30 3028 C 331.801 -4.03943 -1.45357 0
M  V30 3029 C 331.034 -4.66455 -2.59337 0
M  V30 3030 O 331.257 -4.27919 -3.77149 0
M  V30 3031 O 330.191 -5.55686 -2.31293 0
M  V30 3032 H 334.017 -3.03182 -0.177315 0
M  V30 3033 H 331.602 -1.49384 -0.0215402 0
M  V30 3034 H 333.484 -3.30455 -2.61491 0
M  V30 3035 H 332.159 -2.12071 -2.44556 0
M  V30 3036 H 331.066 -3.67052 -0.722746 0
M  V30 3037 H 332.399 -4.82543 -0.970219 0
M  V30 3038 N 334.051 0.0651679 -1.57465 0
M  V30 3039 C 335.462 0.616213 -1.76238 0
M  V30 3040 C 335.813 1.7756 -0.834689 0
M  V30 3041 O 334.938 2.1639 -0.0204156 0
M  V30 3042 C 335.533 1.12462 -3.1959 0
M  V30 3043 C 334.092 1.62147 -3.39684 0
M  V30 3044 C 333.239 0.543739 -2.71917 0
M  V30 3045 H 336.19 -0.161022 -1.57881 0
M  V30 3046 H 336.211 1.99324 -3.24114 0
M  V30 3047 H 335.723 0.280592 -3.87084 0
M  V30 3048 H 333.824 2.48854 -2.77313 0
M  V30 3049 H 333.937 1.69385 -4.48158 0
M  V30 3050 H 332.301 0.990352 -2.34657 0
M  V30 3051 H 333.084 -0.290216 -3.42071 0
M  V30 3052 N 335.529 1.53961 0.336706 0
M  V30 3053 C 336.778 1.70751 1.07363 0
M  V30 3054 C 337.091 0.481061 1.89592 0
M  V30 3055 O 338.297 0.530046 2.66276 0
M  V30 3056 C 336.753 3.01965 1.95818 0
M  V30 3057 C 336.361 4.31971 1.18764 0
M  V30 3058 C 338.105 3.28121 2.69327 0
M  V30 3059 C 336.012 5.54255 2.06289 0
M  V30 3060 H 334.942 0.636292 0.404535 0
M  V30 3061 H 337.593 1.80459 0.332681 0
M  V30 3062 H 335.975 2.86132 2.7376 0
M  V30 3063 H 337.149 4.5853 0.456849 0
M  V30 3064 H 335.464 4.12481 0.569946 0
M  V30 3065 H 338.061 4.16673 3.35094 0
M  V30 3066 H 338.404 2.45426 3.36261 0
M  V30 3067 H 338.937 3.44762 1.98454 0
M  V30 3068 H 335.676 6.39513 1.43885 0
M  V30 3069 H 335.196 5.31935 2.77138 0
M  V30 3070 H 336.875 5.90159 2.65182 0
M  V30 3071 N 337.007 -0.598083 1.45811 0
M  V30 3072 C 338.254 -1.35681 1.50323 0
M  V30 3073 C 338.582 -1.9393 0.148739 0
M  V30 3074 O 337.837 -1.76094 -0.853787 0
M  V30 3075 C 338.136 -2.51669 2.53766 0
M  V30 3076 C 337.802 -2.11508 3.98215 0
M  V30 3077 C 336.464 -2.0027 4.37545 0
M  V30 3078 C 338.816 -1.80308 4.89018 0
M  V30 3079 C 336.144 -1.56067 5.65562 0
M  V30 3080 C 338.496 -1.37589 6.17456 0
M  V30 3081 C 337.16 -1.24916 6.55708 0
M  V30 3082 H 336.43 -0.496492 0.550069 0
M  V30 3083 H 339.077 -0.675052 1.79207 0
M  V30 3084 H 337.382 -3.25225 2.18486 0
M  V30 3085 H 339.079 -3.09895 2.54492 0
M  V30 3086 H 335.669 -2.21185 3.67117 0
M  V30 3087 H 339.853 -1.87884 4.59362 0
M  V30 3088 H 335.109 -1.44886 5.93985 0
M  V30 3089 H 339.283 -1.12495 6.87254 0
M  V30 3090 H 336.91 -0.904386 7.54801 0
M  V30 3091 N 338.485 -1.33259 -0.841409 0
M  V30 3092 C 339.417 -1.19136 -1.95804 0
M  V30 3093 C 340.43 -0.122965 -1.62335 0
M  V30 3094 O 341.619 -0.373154 -1.74556 0
M  V30 3095 C 338.719 -0.804268 -3.29218 0
M  V30 3096 C 337.892 -1.96376 -3.90839 0
M  V30 3097 C 336.951 -1.55806 -5.02604 0
M  V30 3098 O 335.977 -2.27203 -5.21888 0
M  V30 3099 N 337.179 -0.461609 -5.78662 0
M  V30 3100 H 339.944 -2.15326 -2.08458 0
M  V30 3101 H 337.505 -1.25971 -1.017 0
M  V30 3102 H 339.497 -0.51501 -4.0141 0
M  V30 3103 H 338.067 0.0668809 -3.12528 0
M  V30 3104 H 337.287 -2.41879 -3.11269 0
M  V30 3105 H 338.575 -2.73966 -4.28742 0
M  V30 3106 H 337.973 0.132343 -5.65545 0
M  V30 3107 H 336.53 -0.232013 -6.51387 0
M  V30 3108 N 339.963 1.05934 -1.16686 0
M  V30 3109 C 341.211 1.78447 -0.948744 0
M  V30 3110 C 341.532 1.87813 0.524523 0
M  V30 3111 O 340.802 1.38945 1.38098 0
M  V30 3112 H 339.382 0.660971 -0.348033 0
M  V30 3113 H 342.044 1.27947 -1.47022 0
M  V30 3114 H 341.14 2.80394 -1.37061 0
M  V30 3115 N 341.441 0.965919 1.2453 0
M  V30 3116 C 342.671 0.643451 1.96324 0
M  V30 3117 C 343.079 -0.790927 1.71875 0
M  V30 3118 O 342.422 -1.54208 0.998273 0
M  V30 3119 C 342.484 0.836078 3.49643 0
M  V30 3120 C 342.148 2.24975 3.97788 0
M  V30 3121 C 343.145 3.22735 4.07601 0
M  V30 3122 C 340.83 2.57697 4.31158 0
M  V30 3123 C 342.824 4.51303 4.50116 0
M  V30 3124 C 340.511 3.86492 4.73357 0
M  V30 3125 C 341.509 4.83107 4.828 0
M  V30 3126 O 341.197 6.09605 5.24058 0
M  V30 3127 H 340.929 0.239223 0.632257 0
M  V30 3128 H 343.483 1.29587 1.59362 0
M  V30 3129 H 341.713 0.12649 3.86493 0
M  V30 3130 H 343.402 0.512965 4.02646 0
M  V30 3131 H 344.168 2.98783 3.82039 0
M  V30 3132 H 340.047 1.83216 4.23028 0
M  V30 3133 H 343.591 5.26716 4.57401 0
M  V30 3134 H 339.488 4.10245 4.98366 0
M  V30 3135 H 340.256 6.13146 5.42213 0
M  V30 3136 N 342.919 -1.39368 0.735821 0
M  V30 3137 C 344.168 -1.99733 0.281004 0
M  V30 3138 C 344.481 -1.59055 -1.13846 0
M  V30 3139 O 345.687 -2.12262 -1.69284 0
M  V30 3140 C 344.143 -3.57057 0.451462 0
M  V30 3141 C 343.751 -4.06697 1.87886 0
M  V30 3142 C 345.495 -4.2446 0.0584616 0
M  V30 3143 C 343.402 -5.56598 1.99883 0
M  V30 3144 H 342.332 -0.747163 0.101311 0
M  V30 3145 H 344.983 -1.59357 0.909819 0
M  V30 3146 H 343.365 -3.95234 -0.246263 0
M  V30 3147 H 344.539 -3.79853 2.60861 0
M  V30 3148 H 342.854 -3.5196 2.22515 0
M  V30 3149 H 345.451 -5.34549 0.127099 0
M  V30 3150 H 345.794 -4.04444 -0.986433 0
M  V30 3151 H 346.327 -3.9146 0.707374 0
M  V30 3152 H 343.066 -5.81494 3.02564 0
M  V30 3153 H 342.586 -5.85242 1.31346 0
M  V30 3154 H 344.265 -6.22022 1.78039 0
M  V30 3155 N 344.397 -0.483516 -1.5 0
M  V30 3156 C 345.674 0.129337 -1.95172 0
M  V30 3157 C 346.054 1.55802 -1.4244 0
M  V30 3158 O 345.402 2.19625 -0.630649 0
M  V30 3159 C 345.612 0.0599251 -3.48949 0
M  V30 3160 C 346.96 0.242617 -4.23906 0
M  V30 3161 O 347.984 0.135933 -3.55941 0
M  V30 3162 O 346.843 0.459454 -5.44565 0
M  V30 3163 H 343.937 0.104887 -0.820322 0
M  V30 3164 H 346.483 -0.544807 -1.60717 0
M  V30 3165 H 345.255 -0.937079 -3.79914 0
M  V30 3166 H 344.878 0.774984 -3.89974 0
M  V30 3167 N 345.875 1.56104 -0.216619 0
M  V30 3168 C 347.1 2.0301 0.424462 0
M  V30 3169 C 347.525 1.0955 1.52907 0
M  V30 3170 O 346.883 0.0827914 1.81111 0
M  V30 3171 C 346.931 3.4819 0.937883 0
M  V30 3172 O 346.035 3.57865 2.04955 0
M  V30 3173 H 345.376 0.656925 0.0966755 0
M  V30 3174 H 347.906 2.01859 -0.33381 0
M  V30 3175 H 347.916 3.88413 1.24897 0
M  V30 3176 H 346.591 4.15699 0.129387 0
M  V30 3177 H 345.168 3.29527 1.74546 0
M  V30 3178 N 347.353 -0.0568162 1.57498 0
M  V30 3179 C 348.283 -1.06593 2.0775 0
M  V30 3180 C 349.264 -1.39448 0.974082 0
M  V30 3181 O 350.449 -1.48815 1.24771 0
M  V30 3182 C 347.579 -2.37509 2.5339 0
M  V30 3183 C 346.533 -2.1897 3.67745 0
M  V30 3184 C 345.859 -3.55402 3.99492 0
M  V30 3185 C 347.159 -1.59859 4.97235 0
M  V30 3186 H 348.853 -0.647706 2.9231 0
M  V30 3187 H 346.399 -0.310116 1.40621 0
M  V30 3188 H 348.352 -3.08409 2.87162 0
M  V30 3189 H 347.076 -2.8134 1.65878 0
M  V30 3190 H 345.735 -1.50508 3.3428 0
M  V30 3191 H 345.383 -3.9683 3.09088 0
M  V30 3192 H 345.083 -3.43831 4.76502 0
M  V30 3193 H 346.607 -4.27708 4.35773 0
M  V30 3194 H 348.021 -2.20642 5.29141 0
M  V30 3195 H 346.418 -1.58942 5.78669 0
M  V30 3196 H 347.488 -0.561506 4.81638 0
M  V30 3197 N 348.832 -1.54138 -0.328536 0
M  V30 3198 C 349.779 -1.83176 -1.40411 0
M  V30 3199 C 350.749 -0.678494 -1.5161 0
M  V30 3200 O 351.934 -0.92443 -1.6691 0
M  V30 3201 C 349.074 -2.06035 -2.76846 0
M  V30 3202 C 348.187 -3.33727 -2.74318 0
M  V30 3203 C 347.322 -3.46574 -4.02567 0
M  V30 3204 C 346.361 -4.68159 -3.94327 0
M  V30 3205 N 345.498 -4.77959 -5.14296 0
M  V30 3206 H 350.338 -2.74938 -1.14948 0
M  V30 3207 H 347.875 -1.36166 -0.556538 0
M  V30 3208 H 349.833 -2.1728 -3.56153 0
M  V30 3209 H 348.463 -1.1757 -3.00628 0
M  V30 3210 H 347.515 -3.31246 -1.8703 0
M  V30 3211 H 348.827 -4.23139 -2.64111 0
M  V30 3212 H 347.981 -3.57333 -4.90304 0
M  V30 3213 H 346.72 -2.55245 -4.15574 0
M  V30 3214 H 345.725 -4.57461 -3.04974 0
M  V30 3215 H 346.95 -5.60868 -3.82889 0
M  V30 3216 H 344.896 -3.89544 -5.27818 0
M  V30 3217 H 344.813 -5.6133 -5.06404 0
M  V30 3218 H 346.081 -4.93044 -6.03761 0
M  V30 3219 N 350.31 0.590341 -1.46126 0
M  V30 3220 C 351.726 0.912917 -1.30912 0
M  V30 3221 C 351.926 1.99616 -0.274893 0
M  V30 3222 O 350.982 2.50397 0.325197 0
M  V30 3223 C 352.295 1.3375 -2.69317 0
M  V30 3224 C 353.843 1.45077 -2.77348 0
M  V30 3225 C 354.318 1.90904 -4.16317 0
M  V30 3226 N 355.809 1.9811 -4.18696 0
M  V30 3227 C 356.544 2.34828 -5.23109 0
M  V30 3228 N 356.04 2.70393 -6.37856 0
M  V30 3229 N 357.833 2.35317 -5.10473 0
M  V30 3230 H 349.984 -0.125358 -2.1203 0
M  V30 3231 H 352.247 0.00658481 -0.947977 0
M  V30 3232 H 351.953 0.615614 -3.4627 0
M  V30 3233 H 351.827 2.30058 -2.9892 0
M  V30 3234 H 354.214 2.16353 -2.00687 0
M  V30 3235 H 354.295 0.4704 -2.51438 0
M  V30 3236 H 353.939 1.20209 -4.9347 0
M  V30 3237 H 353.869 2.89886 -4.39629 0
M  V30 3238 H 356.36 1.73146 -3.359 0
M  V30 3239 H 356.673 2.97341 -7.13308 0
M  V30 3240 H 355.018 2.68048 -6.41229 0
M  V30 3241 H 358.209 2.0695 -4.19868 0
M  V30 3242 H 358.382 2.63605 -5.9196 0
M  V30 3243 N 351.788 1.33704 0.83433 0
M  V30 3244 C 353.018 1.28281 1.6195 0
M  V30 3245 C 353.426 -0.147603 1.88623 0
M  V30 3246 O 352.769 -1.1016 1.47005 0
M  V30 3247 C 352.831 1.99386 2.99141 0
M  V30 3248 C 352.495 3.48681 2.95416 0
M  V30 3249 C 353.492 4.438 2.70809 0
M  V30 3250 C 351.177 3.90925 3.15409 0
M  V30 3251 C 353.171 5.79138 2.66229 0
M  V30 3252 C 350.858 5.26366 3.10454 0
M  V30 3253 C 351.856 6.20284 2.85895 0
M  V30 3254 O 351.544 7.53245 2.80852 0
M  V30 3255 H 351.276 0.44315 0.510484 0
M  V30 3256 H 353.83 1.76711 1.04702 0
M  V30 3257 H 352.06 1.45554 3.58261 0
M  V30 3258 H 353.749 1.87403 3.60049 0
M  V30 3259 H 354.515 4.12485 2.5511 0
M  V30 3260 H 350.394 3.18229 3.33543 0
M  V30 3261 H 353.938 6.52416 2.4698 0
M  V30 3262 H 349.835 5.57304 3.25703 0
M  V30 3263 H 350.603 7.62846 2.96661 0
M  V30 3264 N 353.266 -1.05314 1.17247 0
M  V30 3265 C 354.196 -2.1498 0.911362 0
M  V30 3266 C 355.177 -1.69471 -0.146169 0
M  V30 3267 O 356.362 -1.942 0.003812 0
M  V30 3268 C 353.492 -3.4472 0.422528 0
M  V30 3269 C 352.446 -4.03789 1.4191 0
M  V30 3270 C 351.772 -5.28858 0.788274 0
M  V30 3271 C 353.072 -4.41418 2.7919 0
M  V30 3272 H 354.766 -2.3708 1.82848 0
M  V30 3273 H 352.312 -1.13938 0.880569 0
M  V30 3274 H 354.265 -4.20787 0.227289 0
M  V30 3275 H 352.989 -3.22269 -0.530123 0
M  V30 3276 H 351.648 -3.2979 1.60106 0
M  V30 3277 H 351.296 -5.02709 -0.171173 0
M  V30 3278 H 350.996 -5.69338 1.45353 0
M  V30 3279 H 352.52 -6.07612 0.603282 0
M  V30 3280 H 353.934 -5.08524 2.64719 0
M  V30 3281 H 352.331 -4.92913 3.42282 0
M  V30 3282 H 353.401 -3.51819 3.33693 0
M  V30 3283 N 354.744 -0.972509 -1.24016 0
M  V30 3284 C 356.021 -0.553733 -1.87598 0
M  V30 3285 C 356.401 0.969158 -1.87538 0
M  V30 3286 O 355.749 1.84255 -1.35139 0
M  V30 3287 C 355.959 -1.15076 -3.29482 0
M  V30 3288 C 357.307 -1.23862 -4.06132 0
M  V30 3289 O 358.331 -1.10363 -3.38672 0
M  V30 3290 O 357.19 -1.45252 -5.26844 0
M  V30 3291 H 354.284 -0.185331 -0.805966 0
M  V30 3292 H 356.83 -1.06709 -1.31952 0
M  V30 3293 H 355.602 -2.19333 -3.2405 0
M  V30 3294 H 355.225 -0.621746 -3.92709 0
M  V30 3295 N 356.222 1.38976 -0.743202 0
M  V30 3296 C 357.47 1.99948 -0.29417 0
M  V30 3297 C 357.791 1.59279 1.12495 0
M  V30 3298 O 357.061 0.844808 1.76748 0
M  V30 3299 H 355.641 0.739473 -0.105774 0
M  V30 3300 H 358.303 1.699 -0.954986 0
M  V30 3301 H 357.399 3.10142 -0.349056 0
M  V30 3302 N 357.7 0.491464 1.49741 0
M  V30 3303 C 358.63 -0.28154 2.31796 0
M  V30 3304 C 359.611 -0.971473 1.3963 0
M  V30 3305 O 360.796 -0.964719 1.68543 0
M  V30 3306 C 357.926 -1.35203 3.19902 0
M  V30 3307 C 356.88 -0.782529 4.20786 0
M  V30 3308 C 356.206 -1.95283 4.97764 0
M  V30 3309 C 357.506 0.21999 5.21837 0
M  V30 3310 H 359.2 0.403355 2.96671 0
M  V30 3311 H 356.746 0.195425 1.42668 0
M  V30 3312 H 358.699 -1.90045 3.76113 0
M  V30 3313 H 357.423 -2.06598 2.52953 0
M  V30 3314 H 356.082 -0.255928 3.65706 0
M  V30 3315 H 355.73 -2.65423 4.2727 0
M  V30 3316 H 355.43 -1.57789 5.66018 0
M  V30 3317 H 356.954 -2.50577 5.56816 0
M  V30 3318 H 358.368 -0.23996 5.72798 0
M  V30 3319 H 356.765 0.51026 5.97927 0
M  V30 3320 H 357.835 1.13911 4.7133 0
M  V30 3321 N 359.178 -1.55987 0.224894 0
M  V30 3322 C 360.406 -2.02784 -0.410665 0
M  V30 3323 C 360.821 -1.10464 -1.53112 0
M  V30 3324 O 360.178 -0.114871 -1.82138 0
M  V30 3325 C 360.229 -3.49087 -0.939165 0
M  V30 3326 O 359.95 -4.37887 0.136614 0
M  V30 3327 C 361.451 -4.11543 -1.64763 0
M  V30 3328 H 358.671 -0.663484 -0.100148 0
M  V30 3329 H 361.215 -2.01614 0.342326 0
M  V30 3330 H 359.37 -3.50861 -1.64242 0
M  V30 3331 H 359.784 -5.23849 -0.261155 0
M  V30 3332 H 361.258 -5.15673 -1.96939 0
M  V30 3333 H 361.735 -3.56736 -2.56195 0
M  V30 3334 H 362.341 -4.13629 -0.989503 0
M  V30 3335 N 360.656 0.0484629 -1.57525 0
M  V30 3336 C 361.619 1.03956 -2.04269 0
M  V30 3337 C 362.619 1.30211 -0.943496 0
M  V30 3338 O 363.809 1.25539 -1.20771 0
M  V30 3339 C 360.941 2.37742 -2.44319 0
M  V30 3340 H 362.134 0.636182 -2.93075 0
M  V30 3341 H 359.687 0.294811 -1.53494 0
M  V30 3342 H 360.422 2.82866 -1.5861 0
M  V30 3343 H 360.207 2.20021 -3.24551 0
M  V30 3344 H 361.697 3.08936 -2.80978 0
M  V30 3345 N 362.134 1.5431 0.320358 0
M  V30 3346 C 363.044 1.86946 1.41734 0
M  V30 3347 C 364.06 0.761689 1.56443 0
M  V30 3348 O 365.236 1.05629 1.71477 0
M  V30 3349 C 362.301 2.09293 2.76401 0
M  V30 3350 C 361.362 3.33082 2.70841 0
M  V30 3351 C 360.595 3.54353 3.99086 0
M  V30 3352 O 360.818 2.79002 4.97508 0
M  V30 3353 O 359.752 4.47838 4.0215 0
M  V30 3354 H 363.578 2.80232 1.17062 0
M  V30 3355 H 361.163 1.40255 0.514673 0
M  V30 3356 H 363.045 2.25303 3.56113 0
M  V30 3357 H 361.72 1.19194 3.00956 0
M  V30 3358 H 360.627 3.22454 1.89668 0
M  V30 3359 H 361.96 4.23249 2.5124 0
M  V30 3360 N 363.613 -0.582584 1.46437 0
M  V30 3361 C 365.029 -0.905962 1.31394 0
M  V30 3362 C 365.229 -1.99468 0.285476 0
M  V30 3363 O 364.285 -2.50566 -0.311914 0
M  V30 3364 C 365.598 -1.3232 2.70022 0
M  V30 3365 C 367.146 -1.43604 2.78113 0
M  V30 3366 C 367.621 -1.88694 4.17323 0
M  V30 3367 N 369.112 -1.95887 4.19741 0
M  V30 3368 C 369.847 -2.32051 5.24347 0
M  V30 3369 N 369.343 -2.67006 6.39281 0
M  V30 3370 N 371.136 -2.32606 5.11713 0
M  V30 3371 H 363.287 0.1366 2.1196 0
M  V30 3372 H 365.55 -0.00155736 0.947999 0
M  V30 3373 H 365.256 -0.597242 3.46592 0
M  V30 3374 H 365.13 -2.28469 3.00136 0
M  V30 3375 H 367.517 -2.15286 2.01832 0
M  V30 3376 H 367.598 -0.457059 2.51684 0
M  V30 3377 H 367.242 -1.1759 4.941 0
M  V30 3378 H 367.172 -2.8755 4.4116 0
M  V30 3379 H 369.663 -1.71362 3.36814 0
M  V30 3380 H 369.976 -2.93554 7.14875 0
M  V30 3381 H 368.321 -2.64644 6.42642 0
M  V30 3382 H 371.512 -2.04721 4.2096 0
M  V30 3383 H 371.685 -2.60462 5.93349 0
M  V30 3384 N 365.091 -1.34144 -0.827227 0
M  V30 3385 C 366.319 -1.29325 -1.61501 0
M  V30 3386 C 366.734 0.13354 -1.88327 0
M  V30 3387 O 366.091 1.0793 -1.47164 0
M  V30 3388 C 366.142 -2.07746 -2.95844 0
M  V30 3389 O 365.863 -3.4486 -2.70191 0
M  V30 3390 C 367.364 -2.10273 -3.90256 0
M  V30 3391 H 364.584 -0.445069 -0.50215 0
M  V30 3392 H 367.128 -1.76693 -1.02955 0
M  V30 3393 H 365.283 -1.6403 -3.5096 0
M  V30 3394 H 365.697 -3.85345 -3.55822 0
M  V30 3395 H 367.171 -2.69575 -4.81698 0
M  V30 3396 H 367.648 -1.096 -4.25305 0
M  V30 3397 H 368.254 -2.54059 -3.41078 0
M  V30 3398 N 366.569 1.04691 -1.17803 0
M  V30 3399 C 367.794 1.81984 -0.994813 0
M  V30 3400 C 368.219 1.82586 0.452112 0
M  V30 3401 O 367.577 1.23854 1.324 0
M  V30 3402 C 367.625 3.2575 -1.54659 0
M  V30 3403 O 366.729 4.05267 -0.763728 0
M  V30 3404 H 366.07 0.562483 -0.352857 0
M  V30 3405 H 368.6 1.3189 -1.56417 0
M  V30 3406 H 368.61 3.76541 -1.57102 0
M  V30 3407 H 367.285 3.24627 -2.59981 0
M  V30 3408 H 365.862 3.63972 -0.811108 0
M  V30 3409 N 368.047 0.979072 1.23499 0
M  V30 3410 C 368.979 0.476271 2.24197 0
M  V30 3411 C 369.992 -0.421166 1.57258 0
M  V30 3412 O 371.181 -0.225515 1.7707 0
M  V30 3413 C 368.281 -0.330503 3.37285 0
M  V30 3414 C 367.454 0.559744 4.33804 0
M  V30 3415 C 366.513 -0.192954 5.25846 0
M  V30 3416 O 365.539 0.416978 5.67671 0
M  V30 3417 N 366.741 -1.47932 5.61334 0
M  V30 3418 H 369.506 1.34211 2.67969 0
M  V30 3419 H 367.067 0.852189 1.37657 0
M  V30 3420 H 369.059 -0.842361 3.95836 0
M  V30 3421 H 367.629 -1.09734 2.92707 0
M  V30 3422 H 366.849 1.25245 3.73775 0
M  V30 3423 H 368.137 1.1665 4.95248 0
M  V30 3424 H 367.535 -1.9964 5.29302 0
M  V30 3425 H 366.092 -1.93664 6.22364 0
M  V30 3426 N 369.525 -1.3858 0.750561 0
M  V30 3427 C 370.473 -2.32339 0.110162 0
M  V30 3428 C 371.467 -1.53864 -0.708674 0
M  V30 3429 O 372.673 -1.69417 -0.608112 0
M  V30 3430 H 369.048 -0.751812 0.0168275 0
M  V30 3431 H 371.019 -2.83959 0.917053 0
M  V30 3432 C 369.768 -3.39043 -0.771067 0
M  V30 3433 H 369.091 -3.99517 -0.150374 0
M  V30 3434 H 370.531 -4.07061 -1.1865 0
M  V30 3435 C 368.99 -2.77365 -1.91234 0
M  V30 3436 O 369.52 -2.66434 -3.00626 0
M  V30 3437 N 367.726 -2.35219 -1.70646 0
M  V30 3438 H 367.273 -2.4431 -0.81673 0
M  V30 3439 H 367.231 -1.94294 -2.47178 0
M  V30 3440 N 371.003 -0.499398 -1.49478 0
M  V30 3441 C 372.228 0.044722 -2.07352 0
M  V30 3442 C 372.653 1.30207 -1.35749 0
M  V30 3443 O 372.011 1.76516 -0.413732 0
M  V30 3444 C 372.059 0.283013 -3.59488 0
M  V30 3445 O 371.163 1.35804 -3.89398 0
M  V30 3446 H 370.504 -0.0255147 -0.66351 0
M  V30 3447 H 373.034 -0.698561 -1.92305 0
M  V30 3448 H 373.044 0.515007 -4.04737 0
M  V30 3449 H 371.719 -0.635636 -4.11014 0
M  V30 3450 H 370.296 1.11113 -3.55961 0
M  V30 3451 N 372.481 1.55866 -0.233164 0
M  V30 3452 C 373.391 2.24431 0.683217 0
M  V30 3453 C 374.407 1.2558 1.2044 0
M  V30 3454 O 375.583 1.58422 1.24356 0
M  V30 3455 C 372.648 2.91979 1.86947 0
M  V30 3456 C 371.709 4.06204 1.38912 0
M  V30 3457 C 370.942 4.70522 2.51883 0
M  V30 3458 O 371.165 4.33865 3.70293 0
M  V30 3459 O 370.099 5.59296 2.22423 0
M  V30 3460 H 373.925 3.03426 0.129059 0
M  V30 3461 H 371.51 1.494 -0.0022283 0
M  V30 3462 H 373.392 3.34573 2.56201 0
M  V30 3463 H 372.067 2.15935 2.41151 0
M  V30 3464 H 370.974 3.68155 0.664259 0
M  V30 3465 H 372.307 4.84025 0.893328 0
M  V30 3466 N 373.959 -0.0401083 1.57549 0
M  V30 3467 C 374.889 -1.04384 2.08869 0
M  V30 3468 C 375.87 -1.38407 0.988817 0
M  V30 3469 O 377.055 -1.47483 1.26342 0
M  V30 3470 C 374.185 -2.34808 2.55895 0
M  V30 3471 C 373.139 -2.15057 3.70047 0
M  V30 3472 C 372.465 -3.51145 4.03239 0
M  V30 3473 C 373.765 -1.54576 4.98902 0
M  V30 3474 H 375.459 -0.616666 2.92981 0
M  V30 3475 H 373.005 -0.295184 1.40942 0
M  V30 3476 H 374.958 -3.05346 2.90417 0
M  V30 3477 H 373.682 -2.79565 1.68853 0
M  V30 3478 H 372.341 -1.46954 3.35857 0
M  V30 3479 H 371.989 -3.93529 3.13279 0
M  V30 3480 H 371.689 -3.38758 4.80122 0
M  V30 3481 H 373.213 -4.23062 4.40285 0
M  V30 3482 H 374.627 -2.15017 5.31451 0
M  V30 3483 H 373.024 -1.52796 5.80322 0
M  V30 3484 H 374.094 -0.51039 4.82206 0
M  V30 3485 N 375.437 -1.54477 -0.31217 0
M  V30 3486 C 376.385 -1.85395 -1.40469 0
M  V30 3487 C 377.379 -0.726749 -1.53019 0
M  V30 3488 O 378.585 -0.910582 -1.55269 0
M  V30 3489 H 374.96 -0.587845 -0.46898 0
M  V30 3490 H 376.931 -2.76736 -1.11623 0
M  V30 3491 C 375.68 -2.10811 -2.76503 0
M  V30 3492 H 375.003 -2.97014 -2.67625 0
M  V30 3493 H 376.443 -2.3639 -3.51988 0
M  V30 3494 C 374.902 -0.903165 -3.24568 0
M  V30 3495 O 375.432 -0.118085 -4.01526 0
M  V30 3496 N 373.638 -0.711634 -2.81752 0
M  V30 3497 H 373.185 -1.35171 -2.19286 0
M  V30 3498 H 373.143 0.0930473 -3.14262 0
M  V30 3499 N 376.915 0.57481 -1.46744 0
M  V30 3500 C 377.863 1.70435 -1.58286 0
M  V30 3501 C 378.857 1.63287 -0.450956 0
M  V30 3502 O 380.063 1.68685 -0.628121 0
M  V30 3503 H 376.438 0.56364 -0.497809 0
M  V30 3504 H 378.409 1.57833 -2.53242 0
M  V30 3505 C 377.158 3.08815 -1.59776 0
M  V30 3506 H 376.481 3.1499 -2.46214 0
M  V30 3507 H 377.921 3.87588 -1.71905 0
M  V30 3508 C 376.38 3.35301 -0.327812 0
M  V30 3509 O 376.91 3.97511 0.57861 0
M  V30 3510 N 375.116 2.89816 -0.213274 0
M  V30 3511 H 374.663 2.39371 -0.951798 0
M  V30 3512 H 374.621 3.0791 0.63553 0
M  V30 3513 N 378.394 1.34581 0.820102 0
M  V30 3514 C 379.327 1.20735 1.93644 0
M  V30 3515 C 380.305 0.0983343 1.62302 0
M  V30 3516 O 381.489 0.263997 1.86642 0
M  V30 3517 C 378.616 0.856037 3.27704 0
M  V30 3518 C 377.662 1.97521 3.78005 0
M  V30 3519 S 378.495 3.58906 3.97425 0
M  V30 3520 C 379.651 3.25822 5.34407 0
M  V30 3521 H 379.884 2.15231 2.05093 0
M  V30 3522 H 377.417 1.1964 0.97599 0
M  V30 3523 H 379.375 0.660133 4.05157 0
M  V30 3524 H 378.036 -0.0706253 3.14021 0
M  V30 3525 H 377.229 1.68321 4.75062 0
M  V30 3526 H 376.831 2.12875 3.07507 0
M  V30 3527 H 379.123 2.77812 6.17922 0
M  V30 3528 H 380.066 4.22029 5.68592 0
M  V30 3529 H 380.474 2.61932 5.00052 0
M  V30 3530 N 379.872 -1.04064 1.18357 0
M  V30 3531 C 380.804 -2.12114 0.868358 0
M  V30 3532 C 381.817 -1.62247 -0.134045 0
M  V30 3533 O 383.006 -1.78253 0.0937933 0
M  V30 3534 C 380.106 -3.37773 0.276132 0
M  V30 3535 C 379.279 -4.16874 1.3242 0
M  V30 3536 C 378.338 -5.20861 0.747662 0
M  V30 3537 O 377.364 -5.51141 1.42239 0
M  V30 3538 N 378.566 -5.78715 -0.454823 0
M  V30 3539 H 381.331 -2.39748 1.79836 0
M  V30 3540 H 378.892 -1.20258 1.08396 0
M  V30 3541 H 380.884 -4.04513 -0.123133 0
M  V30 3542 H 379.454 -3.07581 -0.557895 0
M  V30 3543 H 378.674 -3.45456 1.89878 0
M  V30 3544 H 379.962 -4.66516 2.03078 0
M  V30 3545 H 379.36 -5.56415 -1.02073 0
M  V30 3546 H 377.917 -6.46921 -0.79601 0
M  V30 3547 N 381.35 -0.985608 -1.22978 0
M  V30 3548 C 382.627 -0.573599 -1.87001 0
M  V30 3549 C 383.007 0.949213 -1.88555 0
M  V30 3550 O 382.355 1.82811 -1.37086 0
M  V30 3551 C 382.565 -1.18564 -3.28243 0
M  V30 3552 C 383.913 -1.28163 -4.04796 0
M  V30 3553 O 384.937 -1.13949 -3.37482 0
M  V30 3554 O 383.796 -1.50832 -5.25273 0
M  V30 3555 H 380.89 -0.193868 -0.803955 0
M  V30 3556 H 383.436 -1.08102 -1.30813 0
M  V30 3557 H 382.208 -2.22758 -3.21706 0
M  V30 3558 H 381.831 -0.663363 -3.92027 0
M  V30 3559 N 382.828 1.3818 -0.7579 0
M  V30 3560 C 383.758 2.33027 -0.148597 0
M  V30 3561 C 384.739 1.55085 0.69875 0
M  V30 3562 O 385.924 1.83384 0.639053 0
M  V30 3563 C 383.054 3.3928 0.742034 0
M  V30 3564 C 382.008 4.28 -0.00291946 0
M  V30 3565 C 381.334 5.25146 1.00625 0
M  V30 3566 C 382.634 5.08938 -1.17385 0
M  V30 3567 H 384.328 2.84231 -0.940909 0
M  V30 3568 H 381.874 1.36659 -0.453908 0
M  V30 3569 H 383.827 4.046 1.17799 0
M  V30 3570 H 382.551 2.86569 1.56671 0
M  V30 3571 H 381.21 3.64192 -0.419504 0
M  V30 3572 H 380.858 4.68721 1.8251 0
M  V30 3573 H 380.558 5.85361 0.512428 0
M  V30 3574 H 382.082 5.93342 1.44143 0
M  V30 3575 H 383.496 5.67474 -0.815224 0
M  V30 3576 H 381.893 5.7841 -1.59882 0
M  V30 3577 H 382.963 4.42424 -1.98468 0
M  V30 3578 N 384.306 0.507319 1.49211 0
M  V30 3579 C 385.552 -0.0350047 2.0277 0
M  V30 3580 C 385.885 -1.3606 1.38569 0
M  V30 3581 O 385.16 -1.87321 0.523542 0
M  V30 3582 C 385.443 -0.180916 3.59645 0
M  V30 3583 C 385.296 1.16825 4.34364 0
M  V30 3584 C 386.615 -0.918558 4.30407 0
M  V30 3585 H 383.734 -0.0112473 0.736914 0
M  V30 3586 H 386.376 0.659956 1.7817 0
M  V30 3587 H 384.526 -0.772826 3.80736 0
M  V30 3588 H 386.198 1.79952 4.24753 0
M  V30 3589 H 384.441 1.75594 3.96673 0
M  V30 3590 H 385.112 1.01939 5.42506 0
M  V30 3591 H 387.588 -0.41649 4.1401 0
M  V30 3592 H 386.464 -0.989505 5.39907 0
M  V30 3593 H 386.725 -1.96373 3.96093 0
M  V30 3594 N 385.784 -1.5574 0.241426 0
M  V30 3595 C 386.694 -2.2479 -0.671305 0
M  V30 3596 C 387.71 -1.26217 -1.19772 0
M  V30 3597 O 388.886 -1.59079 -1.23514 0
M  V30 3598 C 385.951 -2.92966 -1.85396 0
M  V30 3599 C 385.012 -4.06935 -1.36756 0
M  V30 3600 C 384.245 -4.71851 -2.49384 0
M  V30 3601 O 384.468 -4.35823 -3.67987 0
M  V30 3602 O 383.402 -5.60467 -2.19454 0
M  V30 3603 H 387.228 -3.0349 -0.112966 0
M  V30 3604 H 384.813 -1.49397 0.0101513 0
M  V30 3605 H 386.695 -3.35927 -2.54423 0
M  V30 3606 H 385.37 -2.17211 -2.40002 0
M  V30 3607 H 384.277 -3.68503 -0.644726 0
M  V30 3608 H 385.61 -4.84492 -0.867647 0
M  V30 3609 N 387.262 0.0317525 -1.57568 0
M  V30 3610 C 388.539 0.758366 -1.803 0
M  V30 3611 C 388.919 1.93718 -0.838845 0
M  V30 3612 O 388.267 2.28187 0.119571 0
M  V30 3613 C 388.477 1.19392 -3.27943 0
M  V30 3614 C 389.825 1.61094 -3.92854 0
M  V30 3615 O 390.849 1.28857 -3.32076 0
M  V30 3616 O 389.708 2.20918 -4.99858 0
M  V30 3617 H 386.802 0.366514 -0.741348 0
M  V30 3618 H 389.348 0.00873765 -1.69698 0
M  V30 3619 H 388.12 0.352275 -3.89711 0
M  V30 3620 H 387.743 2.00365 -3.43424 0
M  V30 3621 N 388.74 1.54641 0.303973 0
M  V30 3622 C 389.97 1.77511 1.05705 0
M  V30 3623 C 390.378 0.533228 1.81531 0
M  V30 3624 O 389.721 -0.506423 1.76582 0
M  V30 3625 C 389.783 2.92779 2.08617 0
M  V30 3626 C 389.447 4.30977 1.52013 0
M  V30 3627 C 390.444 5.11115 0.9517 0
M  V30 3628 C 388.129 4.77571 1.55665 0
M  V30 3629 C 390.123 6.35966 0.427327 0
M  V30 3630 C 387.81 6.02384 1.02841 0
M  V30 3631 C 388.808 6.81417 0.464713 0
M  V30 3632 O 388.496 8.03881 -0.0555283 0
M  V30 3633 H 388.228 0.59579 0.319391 0
M  V30 3634 H 390.782 2.02401 0.349712 0
M  V30 3635 H 389.012 2.63506 2.83022 0
M  V30 3636 H 390.701 3.03252 2.69802 0
M  V30 3637 H 391.467 4.76264 0.916407 0
M  V30 3638 H 387.346 4.16085 1.9848 0
M  V30 3639 H 390.89 6.97599 -0.0133062 0
M  V30 3640 H 386.787 6.36723 1.06084 0
M  V30 3641 H 387.555 8.18479 0.0580522 0
M  V30 3642 N 390.218 -0.567019 1.47046 0
M  V30 3643 C 391.165 -1.67489 1.58796 0
M  V30 3644 C 392.135 -1.60399 0.43144 0
M  V30 3645 O 393.32 -1.79378 0.650233 0
M  V30 3646 C 390.46 -3.05821 1.59899 0
M  V30 3647 C 389.573 -3.2342 2.86397 0
M  V30 3648 C 388.708 -4.52093 2.789 0
M  V30 3649 C 387.747 -4.6309 4.00267 0
M  V30 3650 N 386.884 -5.83106 3.91064 0
M  V30 3651 H 391.724 -1.56785 2.53422 0
M  V30 3652 H 389.261 -0.763896 1.2571 0
M  V30 3653 H 391.219 -3.8591 1.58522 0
M  V30 3654 H 389.849 -3.15384 0.687929 0
M  V30 3655 H 388.901 -2.3683 2.97684 0
M  V30 3656 H 390.213 -3.27412 3.76301 0
M  V30 3657 H 389.367 -5.4043 2.75718 0
M  V30 3658 H 388.106 -4.50565 1.86662 0
M  V30 3659 H 387.111 -3.73168 4.03765 0
M  V30 3660 H 388.336 -4.66386 4.93621 0
M  V30 3661 H 386.282 -5.82546 3.01623 0
M  V30 3662 H 386.199 -5.88434 4.74638 0
M  V30 3663 H 387.467 -6.73831 3.91882 0
M  V30 3664 N 391.696 -1.35014 -0.812953 0
M  V30 3665 C 392.643 -1.27412 -1.92444 0
M  V30 3666 C 393.613 -0.14733 -1.65445 0
M  V30 3667 O 394.798 -0.329974 -1.87925 0
M  V30 3668 C 391.938 -1.04558 -3.28879 0
M  V30 3669 C 391.051 -2.26101 -3.68106 0
M  V30 3670 C 390.186 -1.96449 -4.9354 0
M  V30 3671 C 389.225 -3.14081 -5.25376 0
M  V30 3672 N 388.362 -2.84246 -6.41988 0
M  V30 3673 H 393.202 -2.22463 -1.98278 0
M  V30 3674 H 390.739 -1.10593 -0.969933 0
M  V30 3675 H 392.697 -0.893413 -4.07522 0
M  V30 3676 H 391.327 -0.131719 -3.22531 0
M  V30 3677 H 390.379 -2.52204 -2.84775 0
M  V30 3678 H 391.691 -3.13959 -3.87597 0
M  V30 3679 H 390.845 -1.78026 -5.79993 0
M  V30 3680 H 389.584 -1.05867 -4.76071 0
M  V30 3681 H 388.589 -3.33089 -4.37415 0
M  V30 3682 H 389.814 -4.05455 -5.44778 0
M  V30 3683 H 387.76 -1.96252 -6.25956 0
M  V30 3684 H 387.677 -3.65637 -6.61699 0
M  V30 3685 H 388.945 -2.6935 -7.31485 0
M  V30 3686 N 393.175 1.03435 -1.18907 0
M  V30 3687 C 394.122 2.11591 -0.921837 0
M  V30 3688 C 395.092 1.65499 0.141226 0
M  V30 3689 O 396.277 1.908 0.000242829 0
M  V30 3690 C 393.417 3.42012 -0.460616 0
M  V30 3691 C 392.53 4.01682 -1.58982 0
M  V30 3692 C 391.665 5.20091 -1.08069 0
M  V30 3693 C 390.704 5.71805 -2.18416 0
M  V30 3694 N 389.841 6.81494 -1.68849 0
M  V30 3695 H 394.681 2.33787 -1.8479 0
M  V30 3696 H 392.218 1.1467 -0.921373 0
M  V30 3697 H 394.176 4.16834 -0.174642 0
M  V30 3698 H 392.806 3.19944 0.428467 0
M  V30 3699 H 391.858 3.24127 -1.99113 0
M  V30 3700 H 393.17 4.36084 -2.4214 0
M  V30 3701 H 392.324 6.02051 -0.749615 0
M  V30 3702 H 391.063 4.87209 -0.218771 0
M  V30 3703 H 390.068 4.88461 -2.5236 0
M  V30 3704 H 391.293 6.06728 -3.05054 0
M  V30 3705 H 389.239 6.50475 -0.849572 0
M  V30 3706 H 389.156 7.14994 -2.45601 0
M  V30 3707 H 390.424 7.67063 -1.38689 0
M  V30 3708 N 394.653 0.992116 1.22453 0
M  V30 3709 C 395.883 0.684949 1.94915 0
M  V30 3710 C 396.291 -0.754292 1.73514 0
M  V30 3711 O 395.634 -1.52056 1.03076 0
M  V30 3712 C 395.696 0.910054 3.47791 0
M  V30 3713 C 395.36 2.33363 3.92926 0
M  V30 3714 C 396.357 3.31308 4.00663 0
M  V30 3715 C 394.042 2.66785 4.25595 0
M  V30 3716 C 396.036 4.6075 4.40441 0
M  V30 3717 C 393.723 3.96446 4.65053 0
M  V30 3718 C 394.721 4.9324 4.72444 0
M  V30 3719 O 394.409 6.20584 5.1101 0
M  V30 3720 H 394.141 0.25258 0.62704 0
M  V30 3721 H 396.695 1.32939 1.56577 0
M  V30 3722 H 394.925 0.208443 3.86138 0
M  V30 3723 H 396.614 0.598257 4.01467 0
M  V30 3724 H 397.38 3.0682 3.75615 0
M  V30 3725 H 393.259 1.92148 4.19047 0
M  V30 3726 H 396.803 5.363 4.46126 0
M  V30 3727 H 392.7 4.20724 4.89552 0
M  V30 3728 H 393.468 6.24509 5.29085 0
M  V30 3729 N 396.131 -1.37776 0.765217 0
M  V30 3730 C 397.041 -2.34135 0.147666 0
M  V30 3731 C 398.057 -1.59854 -0.687215 0
M  V30 3732 O 399.233 -1.91983 -0.608659 0
M  V30 3733 C 396.298 -3.3901 -0.72617 0
M  V30 3734 C 395.359 -4.2912 0.124417 0
M  V30 3735 C 394.592 -5.28986 -0.707807 0
M  V30 3736 O 394.815 -5.36205 -1.94525 0
M  V30 3737 O 393.749 -6.01779 -0.12046 0
M  V30 3738 H 397.575 -2.88664 0.943758 0
M  V30 3739 H 395.16 -1.39824 0.526277 0
M  V30 3740 H 397.042 -4.03195 -1.22524 0
M  V30 3741 H 395.717 -2.86819 -1.50056 0
M  V30 3742 H 394.624 -3.68057 0.669696 0
M  V30 3743 H 395.957 -4.84598 0.861736 0
M  V30 3744 N 397.609 -0.515225 -1.4894 0
M  V30 3745 C 398.886 0.0879088 -1.95402 0
M  V30 3746 C 399.266 1.52745 -1.45712 0
M  V30 3747 O 398.614 2.18238 -0.677093 0
M  V30 3748 C 398.824 -0.0141055 -3.48997 0
M  V30 3749 C 400.172 0.152646 -4.24326 0
M  V30 3750 O 401.196 0.0604025 -3.56149 0
M  V30 3751 O 400.055 0.34384 -5.45417 0
M  V30 3752 H 397.149 0.0874636 -0.822362 0
M  V30 3753 H 399.695 -0.578775 -1.59525 0
M  V30 3754 H 398.467 -1.01745 -3.77841 0
M  V30 3755 H 398.09 0.692091 -3.9153 0
M  V30 3756 N 399.087 1.5561 -0.249682 0
M  V30 3757 C 399.997 2.25143 0.659375 0
M  V30 3758 C 401.013 1.2685 1.19101 0
M  V30 3759 O 402.189 1.59732 1.22669 0
M  V30 3760 C 399.254 2.93945 1.8384 0
M  V30 3761 C 398.315 4.07655 1.34596 0
M  V30 3762 C 397.548 4.73167 2.46878 0
M  V30 3763 O 397.771 4.37768 3.65671 0
M  V30 3764 O 396.705 5.61623 2.16478 0
M  V30 3765 H 400.531 3.03545 0.0968698 0
M  V30 3766 H 398.116 1.49389 -0.018074 0
M  V30 3767 H 399.998 3.37271 2.52638 0
M  V30 3768 H 398.673 2.18481 2.38847 0
M  V30 3769 H 397.58 3.68839 0.625174 0
M  V30 3770 H 398.913 4.84946 0.841941 0
M  V30 3771 N 400.565 -0.0233959 1.57583 0
M  V30 3772 C 401.814 -0.712133 1.8871 0
M  V30 3773 C 402.127 -1.76217 0.848944 0
M  V30 3774 O 403.333 -2.50389 1.04964 0
M  V30 3775 C 401.789 -1.3177 3.3491 0
M  V30 3776 C 401.397 -0.303715 4.46969 0
M  V30 3777 C 403.141 -1.98598 3.75179 0
M  V30 3778 C 401.048 -0.917945 5.84233 0
M  V30 3779 H 399.978 -0.269735 0.704101 0
M  V30 3780 H 402.629 0.0333114 1.8347 0
M  V30 3781 H 401.011 -2.11304 3.34913 0
M  V30 3782 H 402.185 0.465325 4.58445 0
M  V30 3783 H 400.5 0.2628 4.1557 0
M  V30 3784 H 403.097 -2.45416 4.75053 0
M  V30 3785 H 403.44 -2.80659 3.07468 0
M  V30 3786 H 403.973 -1.25831 3.77374 0
M  V30 3787 H 400.712 -0.136633 6.55358 0
M  V30 3788 H 400.232 -1.65669 5.76467 0
M  V30 3789 H 401.911 -1.4236 6.31144 0
M  V30 3790 N 402.043 -1.548 -0.295768 0
M  V30 3791 C 402.991 -1.86874 -1.38495 0
M  V30 3792 C 403.985 -0.742938 -1.52239 0
M  V30 3793 O 405.191 -0.926999 -1.54294 0
M  V30 3794 H 401.566 -0.592786 -0.462719 0
M  V30 3795 H 403.537 -2.77904 -1.08682 0
M  V30 3796 C 402.286 -2.13732 -2.74252 0
M  V30 3797 H 401.609 -2.99835 -2.64459 0
M  V30 3798 H 403.049 -2.4011 -3.49461 0
M  V30 3799 C 401.508 -0.937539 -3.23592 0
M  V30 3800 O 402.038 -0.160665 -4.01379 0
M  V30 3801 N 400.244 -0.741478 -2.80981 0
M  V30 3802 H 399.791 -1.37489 -2.1784 0
M  V30 3803 H 399.749 0.0597103 -3.14343 0
M  V30 3804 N 403.521 0.559213 -1.47345 0
M  V30 3805 C 404.468 1.66645 -1.59682 0
M  V30 3806 C 405.438 1.60168 -0.43994 0
M  V30 3807 O 406.623 1.79031 -0.659736 0
M  V30 3808 C 403.763 3.04969 -1.61518 0
M  V30 3809 C 402.876 3.21897 -2.88108 0
M  V30 3810 C 402.011 4.50608 -2.81294 0
M  V30 3811 C 401.05 4.60961 -4.02717 0
M  V30 3812 N 400.187 5.81024 -3.94151 0
M  V30 3813 H 405.027 1.55439 -2.54249 0
M  V30 3814 H 402.564 0.757219 -1.26113 0
M  V30 3815 H 404.522 3.85064 -1.60566 0
M  V30 3816 H 403.152 3.15015 -0.704645 0
M  V30 3817 H 402.204 2.35248 -2.98936 0
M  V30 3818 H 403.516 3.25412 -3.78032 0
M  V30 3819 H 402.67 5.3896 -2.7858 0
M  V30 3820 H 401.409 4.49568 -1.89049 0
M  V30 3821 H 400.414 3.71021 -4.05738 0
M  V30 3822 H 401.639 4.63761 -4.96087 0
M  V30 3823 H 399.585 5.80938 -3.04708 0
M  V30 3824 H 399.502 5.85909 -4.77752 0
M  V30 3825 H 400.77 6.71744 -3.9545 0
M  V30 3826 N 404.999 1.35443 0.805782 0
M  V30 3827 C 406.415 1.15499 1.10146 0
M  V30 3828 C 406.615 -0.0319975 2.01475 0
M  V30 3829 O 405.671 -0.70236 2.42535 0
M  V30 3830 C 406.984 2.45833 1.73166 0
M  V30 3831 C 408.532 2.52047 1.85583 0
M  V30 3832 C 409.007 3.82427 2.52019 0
M  V30 3833 N 410.498 3.83682 2.59504 0
M  V30 3834 C 411.233 4.81294 3.11679 0
M  V30 3835 N 410.729 5.89294 3.64287 0
M  V30 3836 N 412.522 4.6873 3.1024 0
M  V30 3837 H 404.673 2.11469 0.198678 0
M  V30 3838 H 406.936 0.93594 0.150731 0
M  V30 3839 H 406.642 3.32874 1.13526 0
M  V30 3840 H 406.516 2.6044 2.72857 0
M  V30 3841 H 408.903 1.65435 2.44367 0
M  V30 3842 H 408.984 2.41354 0.847455 0
M  V30 3843 H 408.628 4.69437 1.93885 0
M  V30 3844 H 408.558 3.90409 3.53395 0
M  V30 3845 H 411.049 3.05648 2.22234 0
M  V30 3846 H 411.362 6.59768 4.02401 0
M  V30 3847 H 409.707 5.92985 3.62483 0
M  V30 3848 H 412.898 3.83496 2.68419 0
M  V30 3849 H 413.071 5.44965 3.50596 0
M  V30 3850 N 406.477 -1.02803 1.19454 0
M  V30 3851 C 407.705 -1.79841 1.02297 0
M  V30 3852 C 408.12 -1.83879 -0.428259 0
M  V30 3853 O 407.477 -1.28345 -1.29745 0
M  V30 3854 C 407.528 -3.24852 1.58598 0
M  V30 3855 O 407.249 -3.21097 2.98041 0
M  V30 3856 C 408.75 -4.18485 1.46236 0
M  V30 3857 H 405.97 -0.565936 0.360496 0
M  V30 3858 H 408.514 -1.2948 1.58288 0
M  V30 3859 H 406.669 -3.72401 1.06753 0
M  V30 3860 H 407.083 -4.12033 3.24545 0
M  V30 3861 H 408.557 -5.18121 1.90407 0
M  V30 3862 H 409.034 -4.37254 0.41301 0
M  V30 3863 H 409.64 -3.76811 1.97215 0
M  V30 3864 N 407.956 -0.998596 -1.21925 0
M  V30 3865 C 408.919 -0.558679 -2.22287 0
M  V30 3866 C 409.919 0.361525 -1.56683 0
M  V30 3867 O 411.109 0.152695 -1.73529 0
M  V30 3868 C 408.241 0.18661 -3.40389 0
M  V30 3869 H 409.434 -1.4463 -2.62721 0
M  V30 3870 H 406.987 -0.786413 -1.35075 0
M  V30 3871 H 407.722 1.08996 -3.05435 0
M  V30 3872 H 407.507 -0.474188 -3.89222 0
M  V30 3873 H 408.997 0.482367 -4.14805 0
M  V30 3874 N 409.434 1.37368 -0.772513 0
M  V30 3875 C 410.397 2.28601 -0.165541 0
M  V30 3876 C 411.397 1.48062 0.627238 0
M  V30 3877 O 412.587 1.68268 0.450715 0
M  V30 3878 C 409.719 3.32023 0.772897 0
M  V30 3879 H 410.912 2.83787 -0.969787 0
M  V30 3880 H 408.465 1.46647 -0.540775 0
M  V30 3881 H 409.2 2.81962 1.60212 0
M  V30 3882 H 408.985 3.91555 0.206585 0
M  V30 3883 H 410.475 4.00197 1.19298 0
M  V30 3884 N 410.912 0.523116 1.48665 0
M  V30 3885 C 411.822 -0.247406 2.33292 0
M  V30 3886 C 412.838 -0.945769 1.46052 0
M  V30 3887 O 414.014 -0.922253 1.79043 0
M  V30 3888 C 411.079 -1.28487 3.22012 0
M  V30 3889 C 410.14 -0.597592 4.2512 0
M  V30 3890 C 409.373 -1.58563 5.09601 0
M  V30 3891 O 409.596 -2.81763 4.95949 0
M  V30 3892 O 408.53 -1.12879 5.91221 0
M  V30 3893 H 412.356 0.445869 3.00409 0
M  V30 3894 H 409.941 0.284128 1.46673 0
M  V30 3895 H 411.823 -1.88459 3.7691 0
M  V30 3896 H 410.498 -1.96068 2.57564 0
M  V30 3897 H 409.405 0.0424407 3.74076 0
M  V30 3898 H 410.738 0.0361517 4.92187 0
M  V30 3899 N 412.39 -1.55475 0.257931 0
M  V30 3900 C 413.338 -2.23244 -0.653076 0
M  V30 3901 C 414.332 -1.22366 -1.17144 0
M  V30 3902 O 415.538 -1.40347 -1.12706 0
M  V30 3903 H 411.913 -0.716247 -0.229117 0
M  V30 3904 H 413.884 -2.98343 -0.0584788 0
M  V30 3905 C 412.633 -2.95401 -1.83395 0
M  V30 3906 H 411.956 -3.72802 -1.44424 0
M  V30 3907 H 413.396 -3.46165 -2.44838 0
M  V30 3908 C 411.855 -1.99895 -2.71189 0
M  V30 3909 O 412.385 -1.53909 -3.71046 0
M  V30 3910 N 410.591 -1.6676 -2.3799 0
M  V30 3911 H 410.138 -2.04352 -1.56837 0
M  V30 3912 H 410.096 -1.03127 -2.97005 0
M  V30 3913 N 413.868 0.0150385 -1.57593 0
M  V30 3914 C 415.145 0.7392 -1.81094 0
M  V30 3915 C 415.525 1.92817 -0.859344 0
M  V30 3916 O 414.873 2.28301 0.095362 0
M  V30 3917 C 415.083 1.15907 -3.29191 0
M  V30 3918 C 416.431 1.56918 -3.9454 0
M  V30 3919 O 417.455 1.25328 -3.33424 0
M  V30 3920 O 416.314 2.15604 -5.02173 0
M  V30 3921 H 413.408 0.358631 -0.745193 0
M  V30 3922 H 415.954 -0.00926156 -1.69697 0
M  V30 3923 H 414.726 0.310921 -3.90063 0
M  V30 3924 H 414.349 1.96711 -3.45529 0
M  V30 3925 N 415.346 1.54954 0.287554 0
M  V30 3926 C 416.593 1.74873 1.02106 0
M  V30 3927 C 416.921 0.541829 1.86801 0
M  V30 3928 O 416.176 -0.475992 1.89823 0
M  V30 3929 C 416.475 2.99833 1.94512 0
M  V30 3930 C 416.141 4.33029 1.25686 0
M  V30 3931 C 414.803 4.69233 1.06649 0
M  V30 3932 C 417.155 5.15542 0.765913 0
M  V30 3933 C 414.483 5.85518 0.372222 0
M  V30 3934 C 416.835 6.32542 0.0853101 0
M  V30 3935 C 415.499 6.67398 -0.1169 0
M  V30 3936 H 414.769 0.639906 0.373632 0
M  V30 3937 H 417.416 1.89219 0.294665 0
M  V30 3938 H 415.721 2.80325 2.73725 0
M  V30 3939 H 417.418 3.1244 2.51361 0
M  V30 3940 H 414.008 4.04564 1.41512 0
M  V30 3941 H 418.192 4.88059 0.90066 0
M  V30 3942 H 413.448 6.11057 0.204695 0
M  V30 3943 H 417.622 6.95741 -0.302936 0
M  V30 3944 H 415.249 7.57357 -0.656859 0
M  V30 3945 N 416.824 -0.551391 1.4764 0
M  V30 3946 C 418.07 -1.31024 1.54792 0
M  V30 3947 C 418.403 -1.9304 0.211967 0
M  V30 3948 O 417.678 -1.78175 -0.77999 0
M  V30 3949 C 417.961 -2.41593 2.67029 0
M  V30 3950 C 417.814 -1.84408 4.10261 0
M  V30 3951 C 419.133 -3.43488 2.75143 0
M  V30 3952 H 416.252 -0.475031 0.563485 0
M  V30 3953 H 418.894 -0.616454 1.79722 0
M  V30 3954 H 417.044 -3.00772 2.45904 0
M  V30 3955 H 418.716 -1.29445 4.42766 0
M  V30 3956 H 416.959 -1.15051 4.18265 0
M  V30 3957 H 417.63 -2.64367 4.84576 0
M  V30 3958 H 420.106 -2.94236 2.94218 0
M  V30 3959 H 418.982 -4.18274 3.55441 0
M  V30 3960 H 419.243 -4.02703 1.82435 0
M  V30 3961 N 418.302 -1.35869 -0.798587 0
M  V30 3962 C 419.53 -1.32722 -1.58722 0
M  V30 3963 C 419.945 0.0935631 -1.88568 0
M  V30 3964 O 419.302 1.04784 -1.49421 0
M  V30 3965 C 419.353 -2.13974 -2.91371 0
M  V30 3966 O 419.074 -3.50514 -2.62815 0
M  V30 3967 C 420.575 -2.18504 -3.85708 0
M  V30 3968 H 417.795 -0.45562 -0.492596 0
M  V30 3969 H 420.339 -1.78837 -0.991843 0
M  V30 3970 H 418.494 -1.71438 -3.47402 0
M  V30 3971 H 418.908 -3.92806 -3.47568 0
M  V30 3972 H 420.382 -2.79732 -4.75872 0
M  V30 3973 H 420.859 -1.18597 -4.22885 0
M  V30 3974 H 421.465 -2.61236 -3.35612 0
M  V30 3975 N 419.78 1.02168 -1.19998 0
M  V30 3976 C 420.71 2.12488 -0.96804 0
M  V30 3977 C 421.691 1.69799 0.101185 0
M  V30 3978 O 422.876 1.94121 -0.0552993 0
M  V30 3979 C 420.006 3.43479 -0.513776 0
M  V30 3980 C 418.96 3.99884 -1.52566 0
M  V30 3981 C 418.286 5.26582 -0.928214 0
M  V30 3982 C 419.586 4.33861 -2.90795 0
M  V30 3983 H 421.28 2.32149 -1.89069 0
M  V30 3984 H 418.826 1.11564 -0.910468 0
M  V30 3985 H 420.779 4.20036 -0.338774 0
M  V30 3986 H 419.503 3.23561 0.444493 0
M  V30 3987 H 418.162 3.25429 -1.68794 0
M  V30 3988 H 417.81 5.02986 0.0378289 0
M  V30 3989 H 417.51 5.65284 -1.60397 0
M  V30 3990 H 419.034 6.05799 -0.764167 0
M  V30 3991 H 420.448 5.01327 -2.78109 0
M  V30 3992 H 418.845 4.83664 -3.55231 0
M  V30 3993 H 419.915 3.42848 -3.42904 0
M  V30 3994 N 421.258 1.00505 1.21394 0
M  V30 3995 C 422.205 0.565496 2.23765 0
M  V30 3996 C 423.175 -0.408466 1.60999 0
M  V30 3997 O 424.36 -0.310503 1.88257 0
M  V30 3998 C 421.5 -0.101667 3.4495 0
M  V30 3999 C 420.613 0.915479 4.22188 0
M  V30 4000 C 419.748 0.220574 5.30742 0
M  V30 4001 C 418.787 1.22527 5.99711 0
M  V30 4002 N 417.924 0.557831 6.9988 0
M  V30 4003 H 422.764 1.44314 2.60725 0
M  V30 4004 H 420.301 0.722643 1.28126 0
M  V30 4005 H 422.259 -0.505504 4.14126 0
M  V30 4006 H 420.889 -0.94303 3.08718 0
M  V30 4007 H 419.941 1.43756 3.52191 0
M  V30 4008 H 421.253 1.68005 4.69655 0
M  V30 4009 H 420.407 -0.239368 6.06228 0
M  V30 4010 H 419.146 -0.576401 4.84282 0
M  V30 4011 H 418.151 1.69571 5.22997 0
M  V30 4012 H 419.376 2.02332 6.48258 0
M  V30 4013 H 417.322 -0.219486 6.55633 0
M  V30 4014 H 417.239 1.26065 7.45415 0
M  V30 4015 H 418.507 0.121095 7.79406 0
M  V30 4016 N 422.737 -1.36956 0.779787 0
M  V30 4017 C 423.684 -2.30175 0.169697 0
M  V30 4018 C 424.654 -1.51501 -0.68094 0
M  V30 4019 O 425.839 -1.80042 -0.631629 0
M  V30 4020 C 422.979 -3.37985 -0.697131 0
M  V30 4021 C 422.092 -4.31661 0.170992 0
M  V30 4022 C 421.227 -5.2655 -0.701298 0
M  V30 4023 C 420.266 -6.11867 0.168869 0
M  V30 4024 N 419.403 -6.98973 -0.661855 0
M  V30 4025 H 424.243 -2.81767 0.970135 0
M  V30 4026 H 421.78 -1.38699 0.489994 0
M  V30 4027 H 423.738 -3.99128 -1.2146 0
M  V30 4028 H 422.368 -2.87739 -1.46309 0
M  V30 4029 H 421.42 -3.71756 0.80634 0
M  V30 4030 H 422.732 -4.91644 0.841875 0
M  V30 4031 H 421.886 -5.92937 -1.28494 0
M  V30 4032 H 420.625 -4.66998 -1.40584 0
M  V30 4033 H 419.63 -5.44452 0.764986 0
M  V30 4034 H 420.855 -6.73493 0.870863 0
M  V30 4035 H 418.801 -6.41941 -1.35086 0
M  V30 4036 H 418.718 -7.55984 -0.0484447 0
M  V30 4037 H 419.986 -7.6974 -1.22963 0
M  V30 4038 N 424.215 -0.530993 -1.48385 0
M  V30 4039 C 425.492 0.0671788 -1.95485 0
M  V30 4040 C 425.872 1.51191 -1.47324 0
M  V30 4041 O 425.22 2.17507 -0.700202 0
M  V30 4042 C 425.43 -0.0511206 -3.48963 0
M  V30 4043 C 426.778 0.107632 -4.24464 0
M  V30 4044 O 427.802 0.0226248 -3.56193 0
M  V30 4045 O 426.661 0.285972 -5.45751 0
M  V30 4046 H 423.755 0.0787365 -0.823243 0
M  V30 4047 H 426.301 -0.595662 -1.58902 0
M  V30 4048 H 425.073 -1.05747 -3.7674 0
M  V30 4049 H 424.696 0.650525 -3.92242 0
M  V30 4050 N 425.693 1.55336 -0.266172 0
M  V30 4051 C 426.939 1.99692 0.353681 0
M  V30 4052 C 427.272 1.1543 1.56172 0
M  V30 4053 O 426.547 0.222218 1.93226 0
M  V30 4054 C 426.83 3.52316 0.74466 0
M  V30 4055 C 426.683 4.47337 -0.470101 0
M  V30 4056 C 428.002 4.10588 1.58447 0
M  V30 4057 H 425.121 0.725961 0.12708 0
M  V30 4058 H 427.763 1.86336 -0.371333 0
M  V30 4059 H 425.913 3.63829 1.36239 0
M  V30 4060 H 427.585 4.4778 -1.10864 0
M  V30 4061 H 425.828 4.19364 -1.10978 0
M  V30 4062 H 426.499 5.51788 -0.15291 0
M  V30 4063 H 428.975 4.02297 1.06286 0
M  V30 4064 H 427.851 5.17607 1.82686 0
M  V30 4065 H 428.112 3.60253 2.56262 0
M  V30 4066 N 427.171 -0.0066808 1.57599 0
M  V30 4067 C 428.448 -0.729586 1.81484 0
M  V30 4068 C 428.828 -1.92359 0.869558 0
M  V30 4069 O 428.176 -2.28348 -0.0832533 0
M  V30 4070 C 428.386 -1.1416 3.29801 0
M  V30 4071 C 429.734 -1.54823 3.95367 0
M  V30 4072 O 430.758 -1.23558 3.34084 0
M  V30 4073 O 429.617 -2.12937 5.03309 0
M  V30 4074 H 426.711 -0.354674 0.747085 0
M  V30 4075 H 429.257 0.0182609 1.6969 0
M  V30 4076 H 428.029 -0.290231 3.90222 0
M  V30 4077 H 427.652 -1.94876 3.46568 0
M  V30 4078 N 428.649 -1.55105 -0.279332 0
M  V30 4079 C 429.597 -1.88333 -1.36505 0
M  V30 4080 C 430.591 -0.759043 -1.51443 0
M  V30 4081 O 431.797 -0.943312 -1.53302 0
M  V30 4082 H 428.172 -0.59766 -0.456406 0
M  V30 4083 H 430.143 -2.79041 -1.05728 0
M  V30 4084 C 428.892 -2.16628 -2.7197 0
M  V30 4085 H 428.215 -3.02624 -2.61264 0
M  V30 4086 H 429.655 -2.43803 -3.46895 0
M  V30 4087 C 428.114 -0.971807 -3.22579 0
M  V30 4088 O 428.644 -0.203228 -4.01186 0
M  V30 4089 N 426.85 -0.771238 -2.80179 0
M  V30 4090 H 426.397 -1.39792 -2.1637 0
M  V30 4091 H 426.355 0.0263667 -3.14389 0
M  V30 4092 N 430.127 0.543554 -1.4793 0
M  V30 4093 C 431.09 1.63156 -1.60975 0
M  V30 4094 C 432.09 1.53346 -0.483899 0
M  V30 4095 O 433.28 1.5726 -0.749339 0
M  V30 4096 C 430.412 3.02743 -1.56716 0
M  V30 4097 H 431.605 1.52934 -2.57975 0
M  V30 4098 H 429.158 0.764557 -1.36324 0
M  V30 4099 H 429.893 3.18484 -0.611418 0
M  V30 4100 H 429.678 3.11272 -2.38438 0
M  V30 4101 H 431.168 3.81871 -1.6901 0
M  V30 4102 N 431.605 1.3629 0.791371 0
M  V30 4103 C 432.835 1.33368 1.57786 0
M  V30 4104 C 433.243 -0.0875188 1.88997 0
M  V30 4105 O 432.586 -1.05427 1.50435 0
M  V30 4106 C 432.648 2.08802 2.92646 0
M  V30 4107 C 432.312 3.57903 2.84174 0
M  V30 4108 C 433.309 4.52191 2.56553 0
M  V30 4109 C 430.994 4.00762 3.02812 0
M  V30 4110 C 432.988 5.87315 2.47669 0
M  V30 4111 C 430.675 5.35977 2.93551 0
M  V30 4112 C 431.673 6.29066 2.66017 0
M  V30 4113 O 431.361 7.61798 2.56746 0
M  V30 4114 H 431.093 0.459166 0.496128 0
M  V30 4115 H 433.647 1.79952 0.990269 0
M  V30 4116 H 431.877 1.56878 3.53449 0
M  V30 4117 H 433.566 1.98762 3.53904 0
M  V30 4118 H 434.332 4.20393 2.41858 0
M  V30 4119 H 430.211 3.2868 3.2325 0
M  V30 4120 H 433.755 6.59943 2.26099 0
M  V30 4121 H 429.652 5.67384 3.07808 0
M  V30 4122 H 430.42 7.71898 2.72242 0
M  V30 4123 N 433.083 -1.0153 1.20538 0
M  V30 4124 C 434.016 -2.09759 0.898695 0
M  V30 4125 C 434.994 -1.61909 -0.149733 0
M  V30 4126 O 436.178 -1.88486 -0.0230293 0
M  V30 4127 C 433.305 -3.36913 0.347512 0
M  V30 4128 C 432.351 -4.03655 1.37713 0
M  V30 4129 S 433.184 -4.47402 2.94265 0
M  V30 4130 C 434.34 -5.77756 2.40726 0
M  V30 4131 H 434.573 -2.3545 1.81523 0
M  V30 4132 H 432.106 -1.14665 1.03399 0
M  V30 4133 H 434.064 -4.10484 0.0360518 0
M  V30 4134 H 432.725 -3.09291 -0.547546 0
M  V30 4135 H 431.918 -4.9514 0.940872 0
M  V30 4136 H 431.52 -3.36313 1.63614 0
M  V30 4137 H 433.812 -6.52994 1.80569 0
M  V30 4138 H 434.755 -6.2618 3.30612 0
M  V30 4139 H 435.163 -5.34081 1.82806 0
M  V30 4140 N 434.561 -1.01147 -1.20859 0
M  V30 4141 C 435.81 -0.693214 -1.89413 0
M  V30 4142 C 436.123 0.779969 -1.79376 0
M  V30 4143 O 437.329 1.21057 -2.43017 0
M  V30 4144 C 435.785 -1.18949 -3.39675 0
M  V30 4145 C 435.393 -2.68921 -3.58309 0
M  V30 4146 C 437.137 -0.94642 -4.13815 0
M  V30 4147 C 435.044 -3.12056 -5.0237 0
M  V30 4148 H 433.974 -0.255595 -0.709357 0
M  V30 4149 H 436.625 -1.22349 -1.36759 0
M  V30 4150 H 435.007 -0.587228 -3.91622 0
M  V30 4151 H 436.181 -3.34652 -3.16772 0
M  V30 4152 H 434.496 -2.91314 -2.97532 0
M  V30 4153 H 437.093 -1.24417 -5.20023 0
M  V30 4154 H 437.436 0.117219 -4.16135 0
M  V30 4155 H 437.969 -1.5118 -3.67953 0
M  V30 4156 H 434.708 -4.17674 -5.05202 0
M  V30 4157 H 434.228 -2.51041 -5.44737 0
M  V30 4158 H 435.907 -3.04403 -5.70918 0
M  V30 4159 N 436.039 1.36541 -0.78704 0
M  V30 4160 C 436.986 2.30082 -0.181901 0
M  V30 4161 C 437.956 1.5186 0.672896 0
M  V30 4162 O 439.141 1.80374 0.622072 0
M  V30 4163 C 436.281 3.3835 0.679197 0
M  V30 4164 C 435.394 4.31565 -0.193882 0
M  V30 4165 C 434.529 5.26915 0.673364 0
M  V30 4166 C 433.568 6.11769 -0.201315 0
M  V30 4167 N 432.705 6.99315 0.624777 0
M  V30 4168 H 437.545 2.81248 -0.985064 0
M  V30 4169 H 435.082 1.38437 -0.497342 0
M  V30 4170 H 437.04 3.99767 1.19341 0
M  V30 4171 H 435.67 2.8851 1.44781 0
M  V30 4172 H 434.722 3.71323 -0.826044 0
M  V30 4173 H 436.034 4.91191 -0.867937 0
M  V30 4174 H 435.188 5.9361 1.25348 0
M  V30 4175 H 433.927 4.67737 1.38105 0
M  V30 4176 H 432.932 5.44039 -0.793849 0
M  V30 4177 H 434.157 6.73022 -0.906568 0
M  V30 4178 H 432.103 6.42648 1.3168 0
M  V30 4179 H 432.02 7.56 0.00835237 0
M  V30 4180 H 433.288 7.70382 1.18879 0
M  V30 4181 N 437.518 0.538854 1.48102 0
M  V30 4182 C 438.764 0.00801365 2.02798 0
M  V30 4183 C 439.097 -1.3309 1.41424 0
M  V30 4184 O 438.372 -1.86169 0.563158 0
M  V30 4185 C 438.655 -0.104589 3.59948 0
M  V30 4186 C 438.508 1.26012 4.31788 0
M  V30 4187 C 439.827 -0.827055 4.32259 0
M  V30 4188 H 436.946 0.00438624 0.736987 0
M  V30 4189 H 439.588 0.6976 1.7673 0
M  V30 4190 H 437.738 -0.691893 3.82289 0
M  V30 4191 H 439.41 1.88922 4.2084 0
M  V30 4192 H 437.653 1.83968 3.92859 0
M  V30 4193 H 438.324 1.13424 5.40221 0
M  V30 4194 H 440.8 -0.328578 4.14801 0
M  V30 4195 H 439.676 -0.87476 5.41885 0
M  V30 4196 H 439.937 -1.87927 4.0017 0
M  V30 4197 N 438.996 -1.55193 0.274407 0
M  V30 4198 C 439.906 -2.26164 -0.623473 0
M  V30 4199 C 440.922 -1.28729 -1.17068 0
M  V30 4200 O 442.098 -1.61663 -1.20112 0
M  V30 4201 C 439.163 -2.96833 -1.7914 0
M  V30 4202 C 438.224 -4.09745 -1.28093 0
M  V30 4203 C 437.457 -4.77034 -2.3932 0
M  V30 4204 O 437.68 -4.4353 -3.5866 0
M  V30 4205 O 436.614 -5.64996 -2.07516 0
M  V30 4206 H 440.44 -3.03661 -0.0485661 0
M  V30 4207 H 438.025 -1.49341 0.0418382 0
M  V30 4208 H 439.907 -3.41248 -2.4724 0
M  V30 4209 H 438.582 -2.22253 -2.35341 0
M  V30 4210 H 437.489 -3.69787 -0.566416 0
M  V30 4211 H 438.822 -4.86224 -0.764683 0
M  V30 4212 N 440.474 -0.00167713 -1.576 0
M  V30 4213 C 441.404 0.988091 -2.11563 0
M  V30 4214 C 442.385 1.35736 -1.02517 0
M  V30 4215 O 443.57 1.44082 -1.30208 0
M  V30 4216 C 440.7 2.27941 -2.62031 0
M  V30 4217 C 439.654 2.0517 -3.75619 0
M  V30 4218 C 438.98 3.4033 -4.12407 0
M  V30 4219 C 440.28 1.41294 -5.02825 0
M  V30 4220 H 441.974 0.538771 -2.94513 0
M  V30 4221 H 439.52 0.257712 -1.41675 0
M  V30 4222 H 441.473 2.97539 -2.9841 0
M  V30 4223 H 440.197 2.74989 -1.76205 0
M  V30 4224 H 438.856 1.37998 -3.39635 0
M  V30 4225 H 438.504 3.85085 -3.23603 0
M  V30 4226 H 438.204 3.25909 -4.88935 0
M  V30 4227 H 439.728 4.1124 -4.51347 0
M  V30 4228 H 441.142 2.00851 -5.36965 0
M  V30 4229 H 439.539 1.37356 -5.84169 0
M  V30 4230 H 440.609 0.382362 -4.8339 0
M  V30 4231 N 441.952 1.55251 0.271103 0
M  V30 4232 C 442.884 1.84675 1.35749 0
M  V30 4233 C 443.897 0.731366 1.45447 0
M  V30 4234 O 445.086 1.00924 1.4723 0
M  V30 4235 C 442.186 1.99638 2.73857 0
M  V30 4236 C 441.359 3.30312 2.86727 0
M  V30 4237 C 440.418 3.35318 4.05522 0
M  V30 4238 O 439.444 4.08682 3.96191 0
M  V30 4239 N 440.646 2.62857 5.17577 0
M  V30 4240 H 443.411 2.78445 1.10853 0
M  V30 4241 H 440.972 1.55191 0.461218 0
M  V30 4242 H 442.964 2.00355 3.51625 0
M  V30 4243 H 441.534 1.12725 2.91568 0
M  V30 4244 H 440.754 3.42118 1.95829 0
M  V30 4245 H 442.042 4.16488 2.92258 0
M  V30 4246 H 441.44 2.02939 5.28046 0
M  V30 4247 H 439.997 2.69295 5.93568 0
M  V30 4248 N 443.43 -0.535701 1.48216 0
M  V30 4249 C 444.655 -1.32149 1.59848 0
M  V30 4250 C 445.08 -1.86338 0.256842 0
M  V30 4251 O 444.438 -1.64107 -0.770632 0
M  V30 4252 C 444.486 -2.45224 2.64381 0
M  V30 4253 O 443.59 -3.48093 2.21144 0
M  V30 4254 H 442.931 -0.391634 0.536208 0
M  V30 4255 H 445.461 -0.645202 1.94161 0
M  V30 4256 H 445.471 -2.91491 2.85476 0
M  V30 4257 H 444.146 -2.05143 3.61786 0
M  V30 4258 H 442.723 -3.07984 2.10239 0
M  V30 4259 N 444.908 -1.36708 -0.784132 0
M  V30 4260 C 445.855 -1.31466 -1.89698 0
M  V30 4261 C 446.825 -0.18239 -1.65096 0
M  V30 4262 O 448.01 -0.369762 -1.87183 0
M  V30 4263 C 445.15 -1.1151 -3.26588 0
M  V30 4264 C 444.263 -2.33859 -3.63227 0
M  V30 4265 C 443.398 -2.06873 -4.89262 0
M  V30 4266 C 442.437 -3.25154 -5.18595 0
M  V30 4267 N 441.574 -2.978 -6.35814 0
M  V30 4268 H 446.414 -2.26619 -1.93515 0
M  V30 4269 H 443.951 -1.12625 -0.946256 0
M  V30 4270 H 445.909 -0.979653 -4.05535 0
M  V30 4271 H 444.539 -0.200103 -3.22179 0
M  V30 4272 H 443.591 -2.58188 -2.79362 0
M  V30 4273 H 444.903 -3.22109 -3.8085 0
M  V30 4274 H 444.057 -1.90289 -5.76086 0
M  V30 4275 H 442.796 -1.15942 -4.73718 0
M  V30 4276 H 441.801 -3.42292 -4.30251 0
M  V30 4277 H 443.026 -4.1692 -5.36055 0
M  V30 4278 H 440.972 -2.09485 -6.21653 0
M  V30 4279 H 440.889 -3.7959 -6.53794 0
M  V30 4280 H 442.157 -2.84805 -7.25607 0
M  V30 4281 N 446.386 1.0089 -1.21074 0
M  V30 4282 C 447.632 1.74866 -1.02712 0
M  V30 4283 C 447.965 1.89178 0.438787 0
M  V30 4284 O 447.24 1.42325 1.32567 0
M  V30 4285 C 447.523 3.16347 -1.72036 0
M  V30 4286 C 447.376 3.09782 -3.26121 0
M  V30 4287 C 448.695 4.15187 -1.45973 0
M  V30 4288 H 445.814 0.634736 -0.374539 0
M  V30 4289 H 448.456 1.17646 -1.49196 0
M  V30 4290 H 446.606 3.65201 -1.32517 0
M  V30 4291 H 448.278 2.68673 -3.74983 0
M  V30 4292 H 446.521 2.46982 -3.56626 0
M  V30 4293 H 447.192 4.09829 -3.6979 0
M  V30 4294 H 449.668 3.75022 -1.80272 0
M  V30 4295 H 448.544 5.12331 -1.96999 0
M  V30 4296 H 448.805 4.40386 -0.388924 0
M  V30 4297 N 447.864 1.01787 1.20321 0
M  V30 4298 C 449.141 0.622978 1.85414 0
M  V30 4299 C 449.521 -0.898887 1.91006 0
M  V30 4300 O 448.869 -1.79112 1.41884 0
M  V30 4301 C 449.079 1.27226 3.24984 0
M  V30 4302 C 450.427 1.3885 4.01255 0
M  V30 4303 O 451.451 1.22857 3.34342 0
M  V30 4304 O 450.31 1.64705 5.2109 0
M  V30 4305 H 447.404 0.215116 0.798533 0
M  V30 4306 H 449.95 1.11533 1.27901 0
M  V30 4307 H 448.722 2.31209 3.15687 0
M  V30 4308 H 448.345 0.767069 3.90131 0
M  V30 4309 N 449.342 -1.36122 0.79427 0
M  V30 4310 C 450.272 -2.32551 0.210328 0
M  V30 4311 C 451.253 -1.56884 -0.657386 0
M  V30 4312 O 452.438 -1.85014 -0.590207 0
M  V30 4313 C 449.568 -3.41128 -0.651819 0
M  V30 4314 C 448.522 -4.27842 0.116395 0
M  V30 4315 C 447.848 -5.2763 -0.86666 0
M  V30 4316 C 449.148 -5.05647 1.30837 0
M  V30 4317 H 450.842 -2.81636 1.01594 0
M  V30 4318 H 448.388 -1.35407 0.489981 0
M  V30 4319 H 450.341 -4.07581 -1.07031 0
M  V30 4320 H 449.065 -2.90622 -1.49019 0
M  V30 4321 H 447.724 -3.62952 0.515915 0
M  V30 4322 H 447.372 -4.73395 -1.70019 0
M  V30 4323 H 447.072 -5.86514 -0.35705 0
M  V30 4324 H 448.596 -5.96955 -1.28361 0
M  V30 4325 H 450.01 -5.65113 0.965393 0
M  V30 4326 H 448.407 -5.73967 1.75161 0
M  V30 4327 H 449.477 -4.37006 2.10128 0
M  V30 4328 N 450.82 -0.546701 -1.47814 0
M  V30 4329 C 451.75 0.195317 -2.32682 0
M  V30 4330 C 452.731 0.918981 -1.43139 0
M  V30 4331 O 453.916 0.901501 -1.72008 0
M  V30 4332 C 451.046 1.23237 -3.247 0
M  V30 4333 C 450 0.625818 -4.234 0
M  V30 4334 C 449.326 1.76674 -5.04669 0
M  V30 4335 C 450.626 -0.413515 -5.2066 0
M  V30 4336 H 452.32 -0.513184 -2.94969 0
M  V30 4337 H 449.866 -0.248241 -1.41844 0
M  V30 4338 H 451.819 1.75955 -3.82907 0
M  V30 4339 H 450.543 1.97067 -2.60446 0
M  V30 4340 H 449.202 0.120023 -3.66403 0
M  V30 4341 H 448.85 2.49383 -4.36826 0
M  V30 4342 H 448.55 1.36673 -5.71484 0
M  V30 4343 H 450.074 2.29738 -5.65732 0
M  V30 4344 H 451.488 0.0272042 -5.73294 0
M  V30 4345 H 449.885 -0.731825 -5.95621 0
M  V30 4346 H 450.955 -1.31325 -4.66778 0
M  V30 4347 N 452.299 1.55045 -0.282633 0
M  V30 4348 C 453.247 2.24254 0.617478 0
M  V30 4349 C 454.241 1.24215 1.15183 0
M  V30 4350 O 455.447 1.42123 1.10459 0
M  V30 4351 H 451.822 0.719801 0.217693 0
M  V30 4352 H 453.793 2.98398 0.0110076 0
M  V30 4353 C 452.542 2.98281 1.78672 0
M  V30 4354 H 451.865 3.75053 1.38475 0
M  V30 4355 H 453.305 3.50017 2.393 0
M  V30 4356 C 451.764 2.04184 2.67975 0
M  V30 4357 O 452.294 1.59792 3.6855 0
M  V30 4358 N 450.5 1.70526 2.35307 0
M  V30 4359 H 450.047 2.06821 1.53567 0
M  V30 4360 H 450.005 1.07839 2.95327 0
M  V30 4361 N 453.777 0.010035 1.57597 0
M  V30 4362 C 454.709 -1.00649 2.05918 0
M  V30 4363 C 455.722 -1.30077 0.978964 0
M  V30 4364 O 456.911 -1.26878 1.25556 0
M  V30 4365 C 454.011 -2.33876 2.45265 0
M  V30 4366 C 453.184 -2.23242 3.7614 0
M  V30 4367 C 452.243 -3.39242 4.02245 0
M  V30 4368 O 451.269 -3.1698 4.72771 0
M  V30 4369 N 452.471 -4.6242 3.50924 0
M  V30 4370 H 455.236 -0.594333 2.93748 0
M  V30 4371 H 452.797 -0.17714 1.60928 0
M  V30 4372 H 454.789 -3.1027 2.59836 0
M  V30 4373 H 453.359 -2.66799 1.62902 0
M  V30 4374 H 452.579 -1.31696 3.71551 0
M  V30 4375 H 453.867 -2.13321 4.61922 0
M  V30 4376 H 453.265 -4.83404 2.93832 0
M  V30 4377 H 451.822 -5.36046 3.70807 0
M  V30 4378 N 455.255 -1.55392 -0.262866 0
M  V30 4379 C 456.165 -1.92077 -1.34698 0
M  V30 4380 C 457.181 -0.819227 -1.53508 0
M  V30 4381 O 458.357 -1.11921 -1.67439 0
M  V30 4382 C 455.422 -2.19407 -2.68443 0
M  V30 4383 C 454.483 -3.42905 -2.58292 0
M  V30 4384 C 453.716 -3.68921 -3.85659 0
M  V30 4385 O 453.939 -2.97275 -4.8681 0
M  V30 4386 O 452.873 -4.62455 -3.85252 0
M  V30 4387 H 456.699 -2.84384 -1.06581 0
M  V30 4388 H 454.284 -1.42069 -0.462264 0
M  V30 4389 H 456.166 -2.38365 -3.47506 0
M  V30 4390 H 454.841 -1.30282 -2.96325 0
M  V30 4391 H 453.748 -3.29272 -1.7757 0
M  V30 4392 H 455.081 -4.32282 -2.35358 0
M  V30 4393 N 456.733 0.527833 -1.48498 0
M  V30 4394 C 457.982 1.28003 -1.55878 0
M  V30 4395 C 458.295 1.9414 -0.238577 0
M  V30 4396 O 459.501 2.7083 -0.190643 0
M  V30 4397 C 457.957 2.32272 -2.74914 0
M  V30 4398 C 457.565 1.72196 -4.13585 0
M  V30 4399 C 459.309 3.08488 -2.91608 0
M  V30 4400 C 457.216 2.74417 -5.23879 0
M  V30 4401 H 456.146 0.481413 -0.580308 0
M  V30 4402 H 458.797 0.557195 -1.74836 0
M  V30 4403 H 457.179 3.07601 -2.49395 0
M  V30 4404 H 458.353 1.03041 -4.49132 0
M  V30 4405 H 456.668 1.08464 -4.02025 0
M  V30 4406 H 459.265 3.84879 -3.71177 0
M  V30 4407 H 459.608 3.64481 -2.01145 0
M  V30 4408 H 460.141 2.40274 -3.17038 0
M  V30 4409 H 456.88 2.23242 -6.16314 0
M  V30 4410 H 456.4 3.41893 -4.92818 0
M  V30 4411 H 458.079 3.37362 -5.52083 0
M  V30 4412 N 458.211 1.37122 0.776871 0
M  V30 4413 C 459.121 1.34651 1.9211 0
M  V30 4414 C 460.137 0.246824 1.7224 0
M  V30 4415 O 461.313 0.48134 1.95563 0
M  V30 4416 C 458.378 1.14748 3.2716 0
M  V30 4417 C 457.439 2.34308 3.5972 0
M  V30 4418 C 456.672 2.15345 4.88326 0
M  V30 4419 O 456.895 1.13507 5.58992 0
M  V30 4420 O 455.829 3.03414 5.1983 0
M  V30 4421 H 459.655 2.31013 1.97146 0
M  V30 4422 H 457.24 1.17799 0.918901 0
M  V30 4423 H 459.122 1.05616 4.0795 0
M  V30 4424 H 457.797 0.214562 3.22988 0
M  V30 4425 H 456.704 2.49011 2.79185 0
M  V30 4426 H 458.037 3.26149 3.68629 0
M  V30 4427 N 459.689 -1.00246 1.21608 0
M  V30 4428 C 460.936 -1.74061 1.03485 0
M  V30 4429 C 461.264 -1.89658 -0.431308 0
M  V30 4430 O 460.519 -1.42976 -1.33627 0
M  V30 4431 C 460.818 -3.15448 1.68009 0
M  V30 4432 C 460.484 -3.19792 3.17874 0
M  V30 4433 C 459.146 -3.20685 3.58768 0
M  V30 4434 C 461.498 -3.16835 4.13842 0
M  V30 4435 C 458.826 -3.16309 4.94131 0
M  V30 4436 C 461.178 -3.14001 5.49169 0
M  V30 4437 C 459.842 -3.13204 5.89457 0
M  V30 4438 H 459.112 -0.636934 0.378677 0
M  V30 4439 H 461.759 -1.17473 1.51236 0
M  V30 4440 H 460.064 -3.75284 1.12557 0
M  V30 4441 H 461.761 -3.71285 1.51487 0
M  V30 4442 H 458.351 -3.19842 2.85305 0
M  V30 4443 H 462.535 -3.15303 3.83272 0
M  V30 4444 H 457.791 -3.14032 5.24589 0
M  V30 4445 H 461.965 -3.10667 6.23265 0
M  V30 4446 H 459.592 -3.09568 6.94314 0
M  V30 4447 N 461.167 -1.02423 -1.1978 0
M  V30 4448 C 462.097 -0.62157 -2.25075 0
M  V30 4449 C 463.078 0.367148 -1.6609 0
M  V30 4450 O 464.263 0.250892 -1.92573 0
M  V30 4451 C 461.393 0.0331826 -3.47284 0
M  V30 4452 C 460.347 -0.877323 -4.18912 0
M  V30 4453 C 459.673 -0.0879296 -5.34628 0
M  V30 4454 C 460.973 -2.18892 -4.74219 0
M  V30 4455 H 462.667 -1.50179 -2.59011 0
M  V30 4456 H 460.213 -0.723547 -1.24502 0
M  V30 4457 H 462.166 0.326488 -4.20133 0
M  V30 4458 H 460.89 0.948164 -3.12534 0
M  V30 4459 H 459.549 -1.15475 -3.47938 0
M  V30 4460 H 459.197 0.828941 -4.96123 0
M  V30 4461 H 458.897 -0.694359 -5.83483 0
M  V30 4462 H 460.421 0.198743 -6.10276 0
M  V30 4463 H 461.835 -1.95746 -5.38847 0
M  V30 4464 H 460.232 -2.74686 -5.33542 0
M  V30 4465 H 461.302 -2.84674 -3.92541 0
M  V30 4466 N 462.645 1.35699 -0.801477 0
M  V30 4467 C 463.592 2.29876 -0.206294 0
M  V30 4468 C 464.562 1.52565 0.656752 0
M  V30 4469 O 465.747 1.81024 0.602906 0
M  V30 4470 C 462.887 3.39052 0.643272 0
M  V30 4471 C 462 4.31335 -0.239644 0
M  V30 4472 C 461.135 5.27599 0.61744 0
M  V30 4473 C 460.174 6.11521 -0.26619 0
M  V30 4474 N 459.311 6.99938 0.550571 0
M  V30 4475 H 464.151 2.80187 -1.01484 0
M  V30 4476 H 461.688 1.37902 -0.511997 0
M  V30 4477 H 463.646 4.0101 1.15094 0
M  V30 4478 H 462.276 2.9003 1.41713 0
M  V30 4479 H 461.328 3.70426 -0.865381 0
M  V30 4480 H 462.64 4.90243 -0.919985 0
M  V30 4481 H 461.794 5.94906 1.19045 0
M  V30 4482 H 460.533 4.69176 1.33137 0
M  V30 4483 H 459.538 5.43166 -0.851507 0
M  V30 4484 H 460.763 6.72022 -0.9779 0
M  V30 4485 H 458.709 6.44008 1.24856 0
M  V30 4486 H 458.626 7.55966 -0.071832 0
M  V30 4487 H 459.894 7.71599 1.10702 0
M  V30 4488 N 464.123 0.554532 1.47522 0
M  V30 4489 C 465.369 0.0295227 2.02779 0
M  V30 4490 C 465.702 -1.31582 1.42828 0
M  V30 4491 O 464.977 -1.85561 0.582872 0
M  V30 4492 C 465.26 -0.0664057 3.60039 0
M  V30 4493 C 465.113 1.30585 4.30427 0
M  V30 4494 C 466.432 -0.781162 4.33112 0
M  V30 4495 H 463.551 0.0122027 0.736899 0
M  V30 4496 H 466.193 0.716305 1.7598 0
M  V30 4497 H 464.343 -0.651307 3.83002 0
M  V30 4498 H 466.015 1.93374 4.18813 0
M  V30 4499 H 464.258 1.88125 3.90886 0
M  V30 4500 H 464.929 1.19147 5.38988 0
M  V30 4501 H 467.405 -0.284565 4.15126 0
M  V30 4502 H 466.281 -0.817237 5.42782 0
M  V30 4503 H 466.542 -1.83672 4.0214 0
M  V30 4504 N 465.601 -1.54893 0.290851 0
M  V30 4505 C 466.531 -2.26103 -0.583084 0
M  V30 4506 C 467.512 -1.25684 -1.14619 0
M  V30 4507 O 468.697 -1.54436 -1.17741 0
M  V30 4508 C 465.827 -2.99409 -1.75987 0
M  V30 4509 C 464.781 -4.0689 -1.32758 0
M  V30 4510 C 464.107 -4.67856 -2.58872 0
M  V30 4511 C 465.407 -5.20215 -0.46624 0
M  V30 4512 H 467.101 -2.99398 0.0108214 0
M  V30 4513 H 464.647 -1.43998 0.00664468 0
M  V30 4514 H 466.6 -3.47943 -2.37727 0
M  V30 4515 H 465.324 -2.23675 -2.37985 0
M  V30 4516 H 463.983 -3.59191 -0.733299 0
M  V30 4517 H 463.631 -3.88772 -3.19163 0
M  V30 4518 H 463.331 -5.40438 -2.30653 0
M  V30 4519 H 464.855 -5.19147 -3.21433 0
M  V30 4520 H 466.269 -5.64704 -0.989047 0
M  V30 4521 H 464.666 -5.99455 -0.27826 0
M  V30 4522 H 465.736 -4.82198 0.511173 0
M  V30 4523 N 467.08 -0.0183926 -1.57589 0
M  V30 4524 C 468.31 0.67207 -1.95363 0
M  V30 4525 C 468.718 1.66807 -0.892872 0
M  V30 4526 O 468.061 1.83204 0.134958 0
M  V30 4527 C 468.123 1.44397 -3.29226 0
M  V30 4528 C 467.787 0.607511 -4.52944 0
M  V30 4529 C 468.784 -0.112657 -5.19778 0
M  V30 4530 C 466.469 0.548068 -4.99301 0
M  V30 4531 C 468.463 -0.881057 -6.31281 0
M  V30 4532 C 466.15 -0.224044 -6.10689 0
M  V30 4533 C 467.148 -0.937323 -6.76538 0
M  V30 4534 O 466.836 -1.6968 -7.85789 0
M  V30 4535 H 466.568 0.190925 -0.648478 0
M  V30 4536 H 469.122 -0.0711994 -2.05277 0
M  V30 4537 H 467.352 2.23214 -3.15773 0
M  V30 4538 H 469.041 2.02152 -3.51979 0
M  V30 4539 H 469.807 -0.0759998 -4.8494 0
M  V30 4540 H 465.686 1.09281 -4.4786 0
M  V30 4541 H 469.23 -1.43832 -6.82611 0
M  V30 4542 H 465.127 -0.262457 -6.44966 0
M  V30 4543 H 465.895 -1.61544 -8.024 0
M  V30 4544 N 468.558 1.5553 0.254621 0
M  V30 4545 C 469.835 1.6774 1.00611 0
M  V30 4546 C 470.215 0.555993 2.03647 0
M  V30 4547 O 469.563 -0.441583 2.24193 0
M  V30 4548 C 469.773 3.07725 1.6464 0
M  V30 4549 C 471.121 3.66074 2.15116 0
M  V30 4550 O 472.145 3.10476 1.74595 0
M  V30 4551 O 471.004 4.63526 2.89493 0
M  V30 4552 H 468.098 0.681958 0.467828 0
M  V30 4553 H 470.644 1.67863 0.24902 0
M  V30 4554 H 469.416 3.80792 0.900734 0
M  V30 4555 H 469.039 3.1158 2.46989 0
M  V30 4556 N 470.036 -0.519951 1.48776 0
M  V30 4557 C 470.999 -1.60574 1.6355 0
M  V30 4558 C 471.999 -1.52557 0.508234 0
M  V30 4559 O 473.189 -1.56047 0.774262 0
M  V30 4560 C 470.321 -3.00211 1.61512 0
M  V30 4561 H 471.514 -1.4881 2.60376 0
M  V30 4562 H 469.067 -0.742772 1.37523 0
M  V30 4563 H 469.802 -3.17471 0.662009 0
M  V30 4564 H 469.587 -3.07439 2.43359 0
M  V30 4565 H 471.077 -3.79134 1.75064 0
M  V30 4566 N 471.514 -1.37532 -0.769588 0
M  V30 4567 C 472.424 -1.35668 -1.91393 0
M  V30 4568 C 473.44 -0.255954 -1.72107 0
M  V30 4569 O 474.616 -0.491704 -1.95305 0
M  V30 4570 C 471.681 -1.16481 -3.26547 0
M  V30 4571 C 470.742 -2.36212 -3.58472 0
M  V30 4572 C 469.975 -2.17932 -4.87177 0
M  V30 4573 O 470.198 -1.1647 -5.58382 0
M  V30 4574 O 469.132 -3.06167 -5.18214 0
M  V30 4575 H 472.958 -2.32055 -1.95918 0
M  V30 4576 H 470.543 -1.18284 -0.912641 0
M  V30 4577 H 472.425 -1.07778 -4.07384 0
M  V30 4578 H 471.1 -0.231687 -3.2287 0
M  V30 4579 H 470.007 -2.50488 -2.77861 0
M  V30 4580 H 471.34 -3.281 -3.66894 0
M  V30 4581 N 472.992 0.995999 -1.22138 0
M  V30 4582 C 474.241 1.72928 -1.03821 0
M  V30 4583 C 474.554 1.90872 0.427444 0
M  V30 4584 O 475.76 2.61496 0.730212 0
M  V30 4585 C 474.216 3.11124 -1.80913 0
M  V30 4586 C 473.824 3.01122 -3.31707 0
M  V30 4587 C 475.568 3.8852 -1.71035 0
M  V30 4588 C 473.475 4.34453 -4.01253 0
M  V30 4589 H 472.405 0.648376 -0.384869 0
M  V30 4590 H 475.056 1.11213 -1.45959 0
M  V30 4591 H 473.438 3.73503 -1.31573 0
M  V30 4592 H 474.612 2.47926 -3.88419 0
M  V30 4593 H 472.927 2.3721 -3.42228 0
M  V30 4594 H 475.524 4.872 -2.20318 0
M  V30 4595 H 475.867 4.1087 -0.670196 0
M  V30 4596 H 476.4 3.32812 -2.17902 0
M  V30 4597 H 473.139 4.17303 -5.05508 0
M  V30 4598 H 472.659 4.87574 -3.49331 0
M  V30 4599 H 474.338 5.03215 -4.06674 0
M  V30 4600 N 474.47 1.03057 1.19235 0
M  V30 4601 C 475.695 0.74757 1.93458 0
M  V30 4602 C 476.12 -0.687648 1.7508 0
M  V30 4603 O 475.478 -1.47499 1.05422 0
M  V30 4604 C 475.526 1.10604 3.43219 0
M  V30 4605 O 474.63 0.225671 4.11782 0
M  V30 4606 H 473.971 0.276047 0.603899 0
M  V30 4607 H 476.501 1.3777 1.51263 0
M  V30 4608 H 476.511 1.06366 3.93891 0
M  V30 4609 H 475.186 2.15165 3.55917 0
M  V30 4610 H 473.763 0.326795 3.71465 0
M  V30 4611 N 475.948 -1.35272 0.808662 0
M  V30 4612 C 476.88 -2.28507 0.178149 0
M  V30 4613 C 477.893 -1.50377 -0.623754 0
M  V30 4614 O 479.082 -1.72583 -0.455774 0
M  V30 4615 C 476.182 -3.30038 -0.769959 0
M  V30 4616 C 475.355 -4.37398 -0.0139749 0
M  V30 4617 C 474.414 -5.18775 -0.880875 0
M  V30 4618 O 473.44 -5.68236 -0.331059 0
M  V30 4619 N 474.642 -5.37087 -2.20267 0
M  V30 4620 H 477.407 -2.83255 0.979106 0
M  V30 4621 H 474.968 -1.47643 0.664308 0
M  V30 4622 H 476.96 -3.81371 -1.35418 0
M  V30 4623 H 475.53 -2.75789 -1.47171 0
M  V30 4624 H 474.75 -3.86971 0.751468 0
M  V30 4625 H 476.038 -5.06268 0.506965 0
M  V30 4626 H 475.436 -4.9855 -2.67328 0
M  V30 4627 H 473.993 -5.91593 -2.73608 0
M  V30 4628 N 477.426 -0.562348 -1.47226 0
M  V30 4629 C 478.675 -0.038041 -2.01664 0
M  V30 4630 C 478.988 1.32199 -1.44162 0
M  V30 4631 O 480.194 1.9365 -1.90294 0
M  V30 4632 C 478.65 -0.0174958 -3.59896 0
M  V30 4633 C 478.258 -1.3746 -4.2639 0
M  V30 4634 C 480.002 0.453934 -4.22066 0
M  V30 4635 C 477.909 -1.31289 -5.76643 0
M  V30 4636 H 476.839 -0.0104511 -0.753928 0
M  V30 4637 H 479.49 -0.710966 -1.69167 0
M  V30 4638 H 477.872 0.721182 -3.89378 0
M  V30 4639 H 479.046 -2.1314 -4.08544 0
M  V30 4640 H 477.361 -1.78438 -3.7623 0
M  V30 4641 H 479.958 0.518584 -5.32179 0
M  V30 4642 H 480.301 1.46706 -3.89594 0
M  V30 4643 H 480.834 -0.230044 -3.97134 0
M  V30 4644 H 477.573 -2.30217 -6.13743 0
M  V30 4645 H 477.093 -0.597973 -5.96812 0
M  V30 4646 H 478.772 -1.01713 -6.38955 0
M  V30 4647 N 478.904 1.54736 -0.299062 0
M  V30 4648 C 479.854 2.20155 0.592932 0
M  V30 4649 C 480.838 1.1739 1.10038 0
M  V30 4650 O 482.03 1.43116 1.04147 0
M  V30 4651 C 479.159 2.94437 1.76527 0
M  V30 4652 C 478.245 4.04516 1.27388 0
M  V30 4653 N 478.636 5.03319 0.500339 0
M  V30 4654 C 476.934 4.18022 1.55478 0
M  V30 4655 C 477.635 5.81209 0.238909 0
M  V30 4656 N 476.611 5.37408 0.818163 0
M  V30 4657 H 480.413 2.93899 -0.00563596 0
M  V30 4658 H 477.927 1.62068 -0.103732 0
M  V30 4659 H 479.924 3.3977 2.41582 0
M  V30 4660 H 478.584 2.22209 2.36756 0
M  V30 4661 H 479.595 5.17696 0.145419 0
M  V30 4662 H 476.272 3.56998 2.16469 0
M  V30 4663 H 477.662 6.70812 -0.382223 0
M  V30 4664 N 480.382 0.0267497 1.57577 0
M  V30 4665 C 481.314 -0.984594 2.06974 0
M  V30 4666 C 482.327 -1.29032 0.992705 0
M  V30 4667 O 483.516 -1.25539 1.26895 0
M  V30 4668 C 480.616 -2.31262 2.47732 0
M  V30 4669 C 479.789 -2.1924 3.78487 0
M  V30 4670 C 478.848 -3.34956 4.05821 0
M  V30 4671 O 477.874 -3.11948 4.76106 0
M  V30 4672 N 479.076 -4.58672 3.55809 0
M  V30 4673 H 481.841 -0.563143 2.94362 0
M  V30 4674 H 479.402 -0.160061 1.61107 0
M  V30 4675 H 481.394 -3.07496 2.63112 0
M  V30 4676 H 479.964 -2.65056 1.65723 0
M  V30 4677 H 479.184 -1.27747 3.72927 0
M  V30 4678 H 480.472 -2.08409 4.64158 0
M  V30 4679 H 479.87 -4.8026 2.98942 0
M  V30 4680 H 478.427 -5.32083 3.76472 0
M  V30 4681 N 481.861 -1.55662 -0.24637 0
M  V30 4682 C 483.086 -1.81914 -0.996093 0
M  V30 4683 C 483.511 -0.603875 -1.78143 0
M  V30 4684 O 482.869 0.447091 -1.75701 0
M  V30 4685 C 482.917 -3.05908 -1.90925 0
M  V30 4686 O 482.021 -2.82861 -3.00105 0
M  V30 4687 H 481.362 -0.600481 -0.283406 0
M  V30 4688 H 483.892 -2.02848 -0.267199 0
M  V30 4689 H 483.902 -3.35356 -2.3238 0
M  V30 4690 H 482.577 -3.93999 -1.33183 0
M  V30 4691 H 481.154 -2.64583 -2.62775 0
M  V30 4692 N 483.339 0.512053 -1.4905 0
M  V30 4693 C 484.585 1.26874 -1.58212 0
M  V30 4694 C 484.918 1.9241 -0.263073 0
M  V30 4695 O 484.193 1.80181 0.732476 0
M  V30 4696 C 484.476 2.34428 -2.73341 0
M  V30 4697 C 484.329 1.73466 -4.15006 0
M  V30 4698 C 485.648 3.36073 -2.84154 0
M  V30 4699 H 482.767 0.459924 -0.575881 0
M  V30 4700 H 485.409 0.568587 -1.81293 0
M  V30 4701 H 483.559 2.94146 -2.53792 0
M  V30 4702 H 485.231 1.17661 -4.46042 0
M  V30 4703 H 483.474 1.03921 -4.21168 0
M  V30 4704 H 484.145 2.51426 -4.91415 0
M  V30 4705 H 486.621 2.86332 -3.01916 0
M  V30 4706 H 485.497 4.08703 -3.66406 0
M  V30 4707 H 485.758 3.97725 -1.93048 0
M  V30 4708 N 484.817 1.37938 0.762283 0
M  V30 4709 C 486.045 1.36883 1.55147 0
M  V30 4710 C 486.46 -0.0435348 1.8875 0
M  V30 4711 O 485.817 -1.00786 1.52146 0
M  V30 4712 C 485.868 2.21624 2.85596 0
M  V30 4713 O 485.589 3.57358 2.5343 0
M  V30 4714 C 487.09 2.28653 3.7978 0
M  V30 4715 H 484.31 0.468521 0.480343 0
M  V30 4716 H 486.854 1.81404 0.944079 0
M  V30 4717 H 485.009 1.80588 3.42734 0
M  V30 4718 H 485.423 4.01883 3.37032 0
M  V30 4719 H 486.897 2.9225 4.68288 0
M  V30 4720 H 487.374 1.29767 4.19592 0
M  V30 4721 H 487.98 2.70043 3.28568 0
M  V30 4722 N 486.295 -0.989507 1.22664 0
M  V30 4723 C 487.572 -1.70326 0.961688 0
M  V30 4724 C 487.952 -2.04537 -0.522279 0
M  V30 4725 O 487.3 -1.73136 -1.49118 0
M  V30 4726 C 487.51 -2.95135 1.86269 0
M  V30 4727 C 488.858 -3.67842 2.12078 0
M  V30 4728 O 489.882 -3.0515 1.83745 0
M  V30 4729 O 488.741 -4.80644 2.60083 0
M  V30 4730 H 485.835 -0.743589 0.361946 0
M  V30 4731 H 488.381 -1.04555 1.33665 0
M  V30 4732 H 487.153 -2.66382 2.8663 0
M  V30 4733 H 486.776 -3.68645 1.48952 0
M  V30 4734 N 487.773 -1.03688 -1.18687 0
M  V30 4735 C 489.001 -0.757918 -1.92518 0
M  V30 4736 C 489.416 0.684398 -1.75959 0
M  V30 4737 O 488.773 1.46617 -1.08673 0
M  V30 4738 C 488.824 -1.10985 -3.44042 0
M  V30 4739 O 488.545 -2.49554 -3.60076 0
M  V30 4740 C 490.046 -0.854844 -4.3498 0
M  V30 4741 H 487.266 -0.276699 -0.611293 0
M  V30 4742 H 489.81 -1.38352 -1.50595 0
M  V30 4743 H 487.965 -0.529279 -3.83767 0
M  V30 4744 H 488.379 -2.6291 -4.53849 0
M  V30 4745 H 489.853 -1.15098 -5.39867 0
M  V30 4746 H 490.33 0.210507 -4.38695 0
M  V30 4747 H 490.936 -1.41853 -4.00946 0
M  V30 4748 N 489.251 1.34841 -0.815825 0
M  V30 4749 C 490.199 2.31549 -0.220888 0
M  V30 4750 C 491.193 1.5707 0.634457 0
M  V30 4751 O 492.399 1.72125 0.526589 0
M  V30 4752 H 488.774 0.750153 -0.0526782 0
M  V30 4753 H 490.745 2.7926 -1.05149 0
M  V30 4754 C 489.494 3.42335 0.608427 0
M  V30 4755 H 488.817 3.9978 -0.0404121 0
M  V30 4756 H 490.257 4.12258 0.990931 0
M  V30 4757 C 488.716 2.86173 1.77782 0
M  V30 4758 O 489.246 2.80474 2.87571 0
M  V30 4759 N 487.452 2.43093 1.59229 0
M  V30 4760 H 486.999 2.47928 0.699237 0
M  V30 4761 H 486.957 2.05866 2.37627 0
M  V30 4762 N 490.729 0.570148 1.46925 0
M  V30 4763 C 491.975 0.0510284 2.02736 0
M  V30 4764 C 492.308 -1.3006 1.44215 0
M  V30 4765 O 491.583 -1.84932 0.602521 0
M  V30 4766 C 491.866 -0.028215 3.60089 0
M  V30 4767 C 491.719 1.35142 4.29018 0
M  V30 4768 C 493.038 -0.735181 4.33916 0
M  V30 4769 H 490.157 0.0200178 0.736728 0
M  V30 4770 H 492.799 0.73493 1.75211 0
M  V30 4771 H 490.949 -0.610648 3.83671 0
M  V30 4772 H 492.621 1.97806 4.16738 0
M  V30 4773 H 490.864 1.9226 3.88868 0
M  V30 4774 H 491.535 1.24857 5.37694 0
M  V30 4775 H 494.011 -0.240519 4.15404 0
M  V30 4776 H 492.887 -0.759622 5.43618 0
M  V30 4777 H 493.148 -1.79397 4.04066 0
M  V30 4778 N 492.207 -1.54576 0.307264 0
M  V30 4779 C 493.456 -1.99442 -0.300976 0
M  V30 4780 C 493.769 -1.19928 -1.5452 0
M  V30 4781 O 494.975 -1.55092 -2.22842 0
M  V30 4782 C 493.431 -3.55084 -0.586809 0
M  V30 4783 C 493.039 -4.43413 0.639438 0
M  V30 4784 C 494.783 -4.0846 -1.1559 0
M  V30 4785 C 492.69 -5.90499 0.326411 0
M  V30 4786 H 491.62 -0.744986 -0.116238 0
M  V30 4787 H 494.271 -1.787 0.416947 0
M  V30 4788 H 492.653 -3.71749 -1.36449 0
M  V30 4789 H 493.827 -4.38522 1.41545 0
M  V30 4790 H 492.142 -4.00842 1.1276 0
M  V30 4791 H 494.739 -5.15926 -1.40445 0
M  V30 4792 H 495.082 -3.59443 -2.10015 0
M  V30 4793 H 495.615 -3.95362 -0.439778 0
M  V30 4794 H 492.354 -6.43676 1.23939 0
M  V30 4795 H 491.874 -5.98382 -0.412212 0
M  V30 4796 H 493.553 -6.46962 -0.0697393 0
M  V30 4797 N 493.685 -0.035106 -1.57561 0
M  V30 4798 C 494.615 0.942993 -2.13612 0
M  V30 4799 C 495.596 1.33531 -1.05373 0
M  V30 4800 O 496.781 1.41287 -1.33235 0
M  V30 4801 C 493.911 2.22332 -2.66807 0
M  V30 4802 C 492.865 1.97156 -3.79886 0
M  V30 4803 C 492.191 3.31506 -4.19533 0
M  V30 4804 C 493.491 1.30596 -5.05709 0
M  V30 4805 H 495.185 0.476179 -2.95589 0
M  V30 4806 H 492.731 0.227602 -1.4219 0
M  V30 4807 H 494.684 2.91142 -3.04654 0
M  V30 4808 H 493.408 2.7119 -1.81999 0
M  V30 4809 H 492.067 1.30763 -3.42486 0
M  V30 4810 H 491.715 3.78134 -3.31698 0
M  V30 4811 H 491.415 3.15465 -4.95738 0
M  V30 4812 H 492.939 4.01574 -4.59968 0
M  V30 4813 H 494.353 1.89416 -5.41105 0
M  V30 4814 H 492.75 1.24934 -5.86951 0
M  V30 4815 H 493.82 0.279742 -4.84092 0
M  V30 4816 N 495.163 1.55791 0.238111 0
M  V30 4817 C 496.388 1.8244 0.986432 0
M  V30 4818 C 496.813 0.613314 1.7782 0
M  V30 4819 O 496.171 -0.437767 1.75935 0
M  V30 4820 C 496.219 3.06917 1.893 0
M  V30 4821 O 495.323 2.84449 2.98601 0
M  V30 4822 H 494.664 0.601975 0.280218 0
M  V30 4823 H 497.194 2.02987 0.256437 0
M  V30 4824 H 497.204 3.36583 2.30598 0
M  V30 4825 H 495.879 3.947 1.31091 0
M  V30 4826 H 494.456 2.65972 2.61368 0
M  V30 4827 N 496.642 -0.504142 1.49319 0
M  V30 4828 C 497.575 -1.62361 1.60356 0
M  V30 4829 C 498.553 -1.56169 0.45277 0
M  V30 4830 O 499.737 -1.76271 0.667892 0
M  V30 4831 C 496.864 -3.00864 1.55559 0
M  V30 4832 C 495.91 -3.25328 2.75797 0
M  V30 4833 S 496.743 -3.08791 4.37503 0
M  V30 4834 C 497.899 -4.49695 4.35345 0
M  V30 4835 H 498.132 -1.52753 2.55056 0
M  V30 4836 H 495.665 -0.689065 1.38171 0
M  V30 4837 H 497.623 -3.8073 1.53477 0
M  V30 4838 H 496.284 -3.0789 0.621515 0
M  V30 4839 H 495.477 -4.2643 2.68651 0
M  V30 4840 H 495.079 -2.53179 2.75275 0
M  V30 4841 H 497.371 -5.41721 4.06871 0
M  V30 4842 H 498.314 -4.61891 5.36714 0
M  V30 4843 H 498.722 -4.30227 3.65465 0
M  V30 4844 N 498.12 -1.38341 -0.754957 0
M  V30 4845 C 499.397 -1.24995 -1.50451 0
M  V30 4846 C 499.777 0.149244 -2.10572 0
M  V30 4847 O 499.125 1.15861 -1.96948 0
M  V30 4848 C 499.335 -2.35904 -2.57197 0
M  V30 4849 C 500.683 -2.74262 -3.24138 0
M  V30 4850 O 501.707 -2.35205 -2.67501 0
M  V30 4851 O 500.566 -3.4161 -4.26574 0
M  V30 4852 H 497.66 -0.48872 -0.667144 0
M  V30 4853 H 500.206 -1.50165 -0.790486 0
M  V30 4854 H 498.978 -3.2953 -2.11011 0
M  V30 4855 H 498.601 -2.12291 -3.36182 0
M  V30 4856 N 499.598 0.982988 -1.23187 0
M  V30 4857 C 500.546 2.09616 -1.00817 0
M  V30 4858 C 501.54 1.6932 0.0519995 0
M  V30 4859 O 502.746 1.79715 -0.101284 0
M  V30 4860 H 499.121 0.685628 -0.308899 0
M  V30 4861 H 501.092 2.25652 -1.95253 0
M  V30 4862 C 499.841 3.42249 -0.613243 0
M  V30 4863 H 499.164 3.73705 -1.42073 0
M  V30 4864 H 500.604 4.21086 -0.496208 0
M  V30 4865 C 499.063 3.30002 0.678233 0
M  V30 4866 O 499.593 3.6263 1.72807 0
M  V30 4867 N 497.799 2.83164 0.653165 0
M  V30 4868 H 497.346 2.56811 -0.201492 0
M  V30 4869 H 497.304 2.75352 1.51752 0
M  V30 4870 N 501.076 1.04316 1.18135 0
M  V30 4871 C 502.301 0.768047 1.92655 0
M  V30 4872 C 502.726 -0.66904 1.758 0
M  V30 4873 O 502.084 -1.46372 1.06981 0
M  V30 4874 C 502.132 1.14239 3.42026 0
M  V30 4875 O 501.236 0.269333 4.1152 0
M  V30 4876 H 500.577 0.282436 0.600937 0
M  V30 4877 H 503.107 1.39367 1.49793 0
M  V30 4878 H 503.117 1.10538 3.92741 0
M  V30 4879 H 501.792 2.18928 3.53615 0
M  V30 4880 H 500.369 0.366175 3.71098 0
M  V30 4881 N 502.554 -1.34406 0.822964 0
M  V30 4882 C 503.97 -1.51275 0.508727 0
M  V30 4883 C 504.17 -1.76776 -0.967083 0
M  V30 4884 O 503.226 -1.81871 -1.75155 0
M  V30 4885 C 504.539 -2.67765 1.36829 0
M  V30 4886 C 506.087 -2.81647 1.36542 0
M  V30 4887 C 506.562 -4.01181 2.20947 0
M  V30 4888 N 508.053 -4.08388 2.18571 0
M  V30 4889 C 508.788 -5.00036 2.80627 0
M  V30 4890 N 508.284 -5.96906 3.51674 0
M  V30 4891 N 510.077 -4.92908 2.70181 0
M  V30 4892 H 502.228 -1.16113 1.77852 0
M  V30 4893 H 504.491 -0.56947 0.757897 0
M  V30 4894 H 504.197 -2.55551 2.41633 0
M  V30 4895 H 504.071 -3.62779 1.03303 0
M  V30 4896 H 506.458 -2.93303 0.325163 0
M  V30 4897 H 506.539 -1.87443 1.74066 0
M  V30 4898 H 506.183 -3.90286 3.25022 0
M  V30 4899 H 506.113 -4.94599 1.80774 0
M  V30 4900 H 508.604 -3.39051 1.66891 0
M  V30 4901 H 508.917 -6.63468 3.96271 0
M  V30 4902 H 507.262 -5.9703 3.5578 0
M  V30 4903 H 510.453 -4.1619 2.14251 0
M  V30 4904 H 510.626 -5.64137 3.18831 0
M  V30 4905 N 504.032 -0.577932 -1.46621 0
M  V30 4906 C 504.98 0.170882 -2.31971 0
M  V30 4907 C 505.974 0.889086 -1.44193 0
M  V30 4908 O 507.18 0.808017 -1.60845 0
M  V30 4909 H 503.555 0.0739763 -0.748353 0
M  V30 4910 H 505.526 -0.567856 -2.92947 0
M  V30 4911 C 504.275 1.17438 -3.27267 0
M  V30 4912 H 503.598 0.63116 -3.94787 0
M  V30 4913 H 505.038 1.66882 -3.89778 0
M  V30 4914 C 503.497 2.23292 -2.52274 0
M  V30 4915 O 504.027 3.30567 -2.28229 0
M  V30 4916 N 502.233 1.97772 -2.12919 0
M  V30 4917 H 501.78 1.10545 -2.32675 0
M  V30 4918 H 501.738 2.68809 -1.63062 0
M  V30 4919 N 505.51 1.54411 -0.315457 0
M  V30 4920 C 506.44 2.27002 0.547039 0
M  V30 4921 C 507.421 1.27492 1.12605 0
M  V30 4922 O 508.606 1.5629 1.15269 0
M  V30 4923 C 505.736 3.02171 1.71201 0
M  V30 4924 C 504.69 4.0895 1.26268 0
M  V30 4925 C 504.016 4.71915 2.51396 0
M  V30 4926 C 505.316 5.20891 0.383419 0
M  V30 4927 H 507.01 2.99343 -0.0584517 0
M  V30 4928 H 504.556 1.4397 -0.0295527 0
M  V30 4929 H 506.509 3.51681 2.32161 0
M  V30 4930 H 505.233 2.27433 2.34397 0
M  V30 4931 H 503.892 3.60312 0.676062 0
M  V30 4932 H 503.54 3.93801 3.12937 0
M  V30 4933 H 503.24 5.44039 2.22026 0
M  V30 4934 H 504.764 5.24195 3.13133 0
M  V30 4935 H 506.178 5.66206 0.899082 0
M  V30 4936 H 504.575 5.99821 0.182857 0
M  V30 4937 H 505.645 4.81324 -0.587821 0
M  V30 4938 N 506.988 0.0434614 1.5754 0
M  V30 4939 C 508.265 -0.671479 1.83713 0
M  V30 4940 C 508.645 -1.89495 0.930315 0
M  V30 4941 O 507.993 -2.28498 -0.0105639 0
M  V30 4942 C 508.203 -1.0361 3.33266 0
M  V30 4943 C 509.551 -1.42167 4.00092 0
M  V30 4944 O 510.575 -1.12866 3.37846 0
M  V30 4945 O 509.434 -1.96817 5.09829 0
M  V30 4946 H 506.528 -0.330726 0.75799 0
M  V30 4947 H 509.074 0.0722373 1.69546 0
M  V30 4948 H 507.846 -0.165938 3.90948 0
M  V30 4949 H 507.469 -1.83751 3.52592 0
M  V30 4950 N 508.466 -1.55915 -0.229846 0
M  V30 4951 C 509.396 -1.94754 -1.28815 0
M  V30 4952 C 510.377 -0.814657 -1.49323 0
M  V30 4953 O 511.562 -1.07631 -1.61645 0
M  V30 4954 C 508.692 -2.25705 -2.63959 0
M  V30 4955 C 507.646 -3.41406 -2.5812 0
M  V30 4956 C 506.972 -3.57941 -3.97218 0
M  V30 4957 C 508.272 -4.76616 -2.13623 0
M  V30 4958 H 509.966 -2.83404 -0.965547 0
M  V30 4959 H 507.512 -1.36353 -0.463028 0
M  V30 4960 H 509.465 -2.51467 -3.38146 0
M  V30 4961 H 508.189 -1.339 -2.9789 0
M  V30 4962 H 506.848 -3.1568 -1.86391 0
M  V30 4963 H 506.496 -2.63526 -4.28443 0
M  V30 4964 H 506.196 -4.35757 -3.94195 0
M  V30 4965 H 507.72 -3.86042 -4.73079 0
M  V30 4966 H 509.134 -5.01637 -2.77549 0
M  V30 4967 H 507.531 -5.57655 -2.21677 0
M  V30 4968 H 508.601 -4.7253 -1.08829 0
M  V30 4969 N 509.944 0.496216 -1.49584 0
M  V30 4970 C 511.221 1.25755 -1.49816 0
M  V30 4971 C 511.601 2.09859 -0.228572 0
M  V30 4972 O 510.949 2.14449 0.788908 0
M  V30 4973 C 511.159 2.11017 -2.7798 0
M  V30 4974 C 512.507 2.70047 -3.27658 0
M  V30 4975 O 513.531 2.21281 -2.79129 0
M  V30 4976 O 512.39 3.58834 -4.1219 0
M  V30 4977 H 509.484 0.569322 -0.599834 0
M  V30 4978 H 512.03 0.510094 -1.61852 0
M  V30 4979 H 510.802 1.48879 -3.61871 0
M  V30 4980 H 510.425 2.92947 -2.68827 0
M  V30 4981 N 511.423 1.38739 0.74761 0
M  V30 4982 C 512.648 1.38702 1.54197 0
M  V30 4983 C 513.073 -0.019664 1.8809 0
M  V30 4984 O 512.431 -1.00333 1.51006 0
M  V30 4985 C 512.479 2.25492 2.814 0
M  V30 4986 O 511.583 1.67613 3.76802 0
M  V30 4987 H 510.924 0.472863 0.466151 0
M  V30 4988 H 513.454 1.82577 0.923413 0
M  V30 4989 H 513.464 2.39561 3.30264 0
M  V30 4990 H 512.139 3.27727 2.56062 0
M  V30 4991 H 510.716 1.62718 3.35526 0
M  V30 4992 N 512.901 -0.976442 1.23707 0
M  V30 4993 C 514.15 -1.71254 1.06559 0
M  V30 4994 C 514.463 -1.91528 -0.397024 0
M  V30 4995 O 515.669 -2.62625 -0.688518 0
M  V30 4996 C 514.125 -3.08207 1.8584 0
M  V30 4997 C 513.733 -2.95806 3.36456 0
M  V30 4998 C 515.477 -3.85749 1.77194 0
M  V30 4999 C 513.384 -4.28015 4.08114 0
M  V30 5000 H 512.314 -0.642171 0.395136 0
M  V30 5001 H 514.965 -1.08877 1.4771 0
M  V30 5002 H 513.347 -3.71363 1.37498 0
M  V30 5003 H 514.521 -2.41716 3.92314 0
M  V30 5004 H 512.836 -2.31736 3.45959 0
M  V30 5005 H 515.433 -4.83633 2.28041 0
M  V30 5006 H 515.776 -4.09752 0.735477 0
M  V30 5007 H 516.309 -3.29303 2.23169 0
M  V30 5008 H 513.048 -4.09208 5.12083 0
M  V30 5009 H 512.568 -4.81955 3.57043 0
M  V30 5010 H 514.247 -4.96681 4.14629 0
M  V30 5011 N 514.379 -1.04941 -1.1758 0
M  V30 5012 C 515.628 -0.753124 -1.87112 0
M  V30 5013 C 515.941 0.722507 -1.81767 0
M  V30 5014 O 517.147 1.13265 -2.46746 0
M  V30 5015 C 515.603 -1.29695 -3.35719 0
M  V30 5016 C 515.211 -2.80184 -3.49572 0
M  V30 5017 C 516.955 -1.07759 -4.10595 0
M  V30 5018 C 514.862 -3.2788 -4.92187 0
M  V30 5019 H 513.792 -0.278034 -0.700866 0
M  V30 5020 H 516.443 -1.26637 -1.32798 0
M  V30 5021 H 514.825 -0.711522 -3.89555 0
M  V30 5022 H 515.999 -3.44561 -3.05965 0
M  V30 5023 H 514.314 -3.00632 -2.88113 0
M  V30 5024 H 516.911 -1.40899 -5.15802 0
M  V30 5025 H 517.254 -0.0152302 -4.16297 0
M  V30 5026 H 517.787 -1.62809 -3.62957 0
M  V30 5027 H 514.526 -4.33535 -4.91658 0
M  V30 5028 H 514.046 -2.68245 -5.36475 0
M  V30 5029 H 515.725 -3.22412 -5.60945 0
M  V30 5030 N 515.857 1.33968 -0.830081 0
M  V30 5031 C 516.82 2.27694 -0.26235 0
M  V30 5032 C 517.82 1.50589 0.563876 0
M  V30 5033 O 519.01 1.70028 0.378941 0
M  V30 5034 C 516.142 3.35002 0.63138 0
M  V30 5035 H 517.335 2.79419 -1.08928 0
M  V30 5036 H 514.888 1.44221 -0.602486 0
M  V30 5037 H 515.623 2.88504 1.48109 0
M  V30 5038 H 515.408 3.92079 0.0403276 0
M  V30 5039 H 516.898 4.04897 1.02217 0
M  V30 5040 N 517.335 0.585699 1.46312 0
M  V30 5041 C 518.245 -0.148236 2.34131 0
M  V30 5042 C 519.261 -0.882972 1.49932 0
M  V30 5043 O 520.437 -0.845484 1.82794 0
M  V30 5044 C 517.502 -1.14714 3.27172 0
M  V30 5045 C 516.563 -0.416746 4.27272 0
M  V30 5046 C 515.796 -1.36806 5.15868 0
M  V30 5047 O 516.019 -2.60475 5.07454 0
M  V30 5048 O 514.953 -0.877018 5.95476 0
M  V30 5049 H 518.779 0.572882 2.98248 0
M  V30 5050 H 516.364 0.346082 1.45336 0
M  V30 5051 H 518.246 -1.72303 3.84564 0
M  V30 5052 H 516.921 -1.84967 2.65648 0
M  V30 5053 H 515.828 0.201061 3.73559 0
M  V30 5054 H 517.161 0.244872 4.9159 0
M  V30 5055 N 518.813 -1.54241 0.323641 0
M  V30 5056 C 520.059 -2.00867 -0.279323 0
M  V30 5057 C 520.392 -1.21146 -1.5178 0
M  V30 5058 O 519.667 -0.29378 -1.92269 0
M  V30 5059 C 519.95 -3.54837 -0.613387 0
M  V30 5060 C 519.803 -4.45284 0.635803 0
M  V30 5061 C 521.122 -4.16186 -1.43099 0
M  V30 5062 H 518.241 -0.730177 -0.100049 0
M  V30 5063 H 520.883 -1.84829 0.440235 0
M  V30 5064 H 519.033 -3.68634 -1.22641 0
M  V30 5065 H 520.705 -4.43357 1.27406 0
M  V30 5066 H 518.948 -4.14956 1.26466 0
M  V30 5067 H 519.619 -5.5084 0.357597 0
M  V30 5068 H 522.095 -4.05964 -0.912814 0
M  V30 5069 H 520.971 -5.24031 -1.6335 0
M  V30 5070 H 521.232 -3.69516 -2.42715 0
M  V30 5071 N 520.291 -0.0518155 -1.57515 0
M  V30 5072 C 521.238 0.922352 -2.11569 0
M  V30 5073 C 522.208 1.30842 -1.02321 0
M  V30 5074 O 523.393 1.39778 -1.29872 0
M  V30 5075 C 520.533 2.19167 -2.6657 0
M  V30 5076 C 519.646 1.86003 -3.89906 0
M  V30 5077 C 518.781 3.07398 -4.33221 0
M  V30 5078 C 517.82 2.70158 -5.49255 0
M  V30 5079 N 516.957 3.84248 -5.8762 0
M  V30 5080 H 521.797 0.454506 -2.94514 0
M  V30 5081 H 519.334 0.212718 -1.45554 0
M  V30 5082 H 521.292 2.93443 -2.96559 0
M  V30 5083 H 519.922 2.63528 -1.86421 0
M  V30 5084 H 518.974 1.01874 -3.66505 0
M  V30 5085 H 520.286 1.54592 -4.74239 0
M  V30 5086 H 519.44 3.89972 -4.64765 0
M  V30 5087 H 518.179 3.41988 -3.477 0
M  V30 5088 H 517.184 1.86001 -5.17382 0
M  V30 5089 H 518.409 2.36759 -6.36492 0
M  V30 5090 H 516.355 4.18638 -5.05053 0
M  V30 5091 H 516.272 3.56538 -6.66646 0
M  V30 5092 H 517.54 4.6746 -6.2378 0
M  V30 5093 N 521.769 1.56035 0.221574 0
M  V30 5094 C 522.732 1.91584 1.2581 0
M  V30 5095 C 523.732 0.794425 1.39805 0
M  V30 5096 O 524.922 1.06217 1.38071 0
M  V30 5097 C 522.054 2.16663 2.63192 0
M  V30 5098 H 523.247 2.8429 0.954935 0
M  V30 5099 H 520.8 1.49316 0.461988 0
M  V30 5100 H 521.535 1.26508 2.98607 0
M  V30 5101 H 521.32 2.98358 2.5441 0
M  V30 5102 H 522.81 2.45262 3.37988 0
M  V30 5103 N 523.247 -0.488276 1.49845 0
M  V30 5104 C 524.179 -1.60539 1.63584 0
M  V30 5105 C 525.192 -1.5434 0.517972 0
M  V30 5106 O 526.381 -1.60041 0.790516 0
M  V30 5107 C 523.481 -2.99374 1.58835 0
M  V30 5108 C 522.654 -3.30624 2.86368 0
M  V30 5109 C 521.713 -4.4893 2.74496 0
M  V30 5110 O 520.739 -4.50085 3.48443 0
M  V30 5111 N 521.941 -5.49591 1.86894 0
M  V30 5112 H 524.706 -1.49176 2.59936 0
M  V30 5113 H 522.267 -0.67639 1.47094 0
M  V30 5114 H 524.259 -3.76459 1.48529 0
M  V30 5115 H 522.829 -3.04595 0.702892 0
M  V30 5116 H 522.049 -2.42314 3.1093 0
M  V30 5117 H 523.337 -3.48305 3.70892 0
M  V30 5118 H 522.735 -5.51467 1.26097 0
M  V30 5119 H 521.292 -6.25728 1.82503 0
M  V30 5120 N 524.725 -1.39134 -0.740242 0
M  V30 5121 C 525.955 -1.39132 -1.52728 0
M  V30 5122 C 526.363 0.0173133 -1.89192 0
M  V30 5123 O 525.706 0.997715 -1.54244 0
M  V30 5124 C 525.768 -2.1952 -2.84695 0
M  V30 5125 C 525.432 -3.68203 -2.70695 0
M  V30 5126 C 526.429 -4.61401 -2.39593 0
M  V30 5127 C 524.114 -4.11724 -2.8773 0
M  V30 5128 C 526.108 -5.96102 -2.25701 0
M  V30 5129 C 523.795 -5.46503 -2.73456 0
M  V30 5130 C 524.793 -6.38506 -2.42486 0
M  V30 5131 O 524.481 -7.70803 -2.28295 0
M  V30 5132 H 524.213 -0.477263 -0.478744 0
M  V30 5133 H 526.767 -1.83504 -0.922799 0
M  V30 5134 H 524.997 -1.69888 -3.47383 0
M  V30 5135 H 526.686 -2.1176 -3.46284 0
M  V30 5136 H 527.452 -4.29079 -2.26088 0
M  V30 5137 H 523.331 -3.4045 -3.10829 0
M  V30 5138 H 526.875 -6.6788 -2.0145 0
M  V30 5139 H 522.772 -5.78417 -2.86538 0
M  V30 5140 H 523.54 -7.8147 -2.43405 0
M  V30 5141 N 526.204 0.969867 -1.24223 0
M  V30 5142 C 527.114 2.09806 -1.0497 0
M  V30 5143 C 528.13 1.73998 0.00886455 0
M  V30 5144 O 529.306 2.00513 -0.188848 0
M  V30 5145 C 526.371 3.40467 -0.654452 0
M  V30 5146 C 525.432 3.90236 -1.78926 0
M  V30 5147 C 524.665 5.14662 -1.41277 0
M  V30 5148 O 524.888 5.69602 -0.301632 0
M  V30 5149 O 523.822 5.58761 -2.23763 0
M  V30 5150 H 527.648 2.28942 -1.99548 0
M  V30 5151 H 525.233 1.08197 -1.03023 0
M  V30 5152 H 527.115 4.19039 -0.445452 0
M  V30 5153 H 525.79 3.22636 0.262216 0
M  V30 5154 H 524.697 3.12735 -2.05299 0
M  V30 5155 H 526.03 4.1254 -2.68462 0
M  V30 5156 N 527.682 1.05563 1.17022 0
M  V30 5157 C 528.592 0.670758 2.24807 0
M  V30 5158 C 529.608 -0.309865 1.71219 0
M  V30 5159 O 530.784 -0.161025 2.00755 0
M  V30 5160 C 527.849 0.055337 3.46656 0
M  V30 5161 C 526.91 1.08688 4.15314 0
M  V30 5162 C 526.143 0.500736 5.31346 0
M  V30 5163 O 526.366 -0.688718 5.66227 0
M  V30 5164 O 525.3 1.23683 5.89055 0
M  V30 5165 H 529.126 1.56914 2.60023 0
M  V30 5166 H 526.711 0.827428 1.24395 0
M  V30 5167 H 528.593 -0.286492 4.20425 0
M  V30 5168 H 527.268 -0.816638 3.13229 0
M  V30 5169 H 526.175 1.48077 3.43546 0
M  V30 5170 H 527.508 1.93014 4.52777 0
M  V30 5171 N 529.16 -1.33526 0.837174 0
M  V30 5172 C 530.409 -1.97098 0.428387 0
M  V30 5173 C 530.722 -1.67062 -1.01734 0
M  V30 5174 O 531.928 -2.24235 -1.53072 0
M  V30 5175 C 530.384 -3.52725 0.715075 0
M  V30 5176 C 529.992 -3.9164 2.17537 0
M  V30 5177 C 531.736 -4.22857 0.373154 0
M  V30 5178 C 529.643 -5.40237 2.40619 0
M  V30 5179 H 528.573 -0.737589 0.156455 0
M  V30 5180 H 531.224 -1.52169 1.02552 0
M  V30 5181 H 529.606 -3.95971 0.0475904 0
M  V30 5182 H 530.78 -3.59456 2.88319 0
M  V30 5183 H 529.095 -3.34485 2.4801 0
M  V30 5184 H 531.692 -5.32133 0.523264 0
M  V30 5185 H 532.035 -4.10647 -0.683708 0
M  V30 5186 H 532.568 -3.85135 0.995801 0
M  V30 5187 H 529.307 -5.57449 3.44864 0
M  V30 5188 H 528.827 -5.73887 1.74396 0
M  V30 5189 H 530.506 -6.07102 2.23688 0
M  V30 5190 N 530.638 -0.59345 -1.46 0
M  V30 5191 C 531.601 0.123538 -2.28867 0
M  V30 5192 C 532.601 0.808628 -1.38989 0
M  V30 5193 O 533.791 0.658945 -1.61256 0
M  V30 5194 C 530.923 1.1847 -3.19653 0
M  V30 5195 H 532.116 -0.604843 -2.93737 0
M  V30 5196 H 529.669 -0.351875 -1.52288 0
M  V30 5197 H 530.404 1.94431 -2.59552 0
M  V30 5198 H 530.189 0.69783 -3.8584 0
M  V30 5199 H 531.679 1.68726 -3.81997 0
M  V30 5200 N 532.116 1.54067 -0.331816 0
M  V30 5201 C 533.048 2.22139 0.564538 0
M  V30 5202 C 534.061 1.22408 1.07332 0
M  V30 5203 O 535.25 1.4883 0.985481 0
M  V30 5204 C 532.35 2.87876 1.78831 0
M  V30 5205 C 531.523 4.13817 1.41682 0
M  V30 5206 C 530.582 4.63072 2.49901 0
M  V30 5207 O 529.608 5.27562 2.13699 0
M  V30 5208 N 530.81 4.38001 3.80967 0
M  V30 5209 H 533.575 2.99694 -0.0183736 0
M  V30 5210 H 531.136 1.61153 -0.155396 0
M  V30 5211 H 533.128 3.17747 2.50637 0
M  V30 5212 H 531.698 2.13977 2.27887 0
M  V30 5213 H 530.918 3.9062 0.530044 0
M  V30 5214 H 532.206 4.95762 1.14443 0
M  V30 5215 H 531.604 3.864 4.13173 0
M  V30 5216 H 530.161 4.72507 4.48977 0
M  V30 5217 N 533.594 0.0601682 1.57485 0
M  V30 5218 C 535.01 -0.296422 1.56823 0
M  V30 5219 C 535.21 -1.70831 1.0686 0
M  V30 5220 O 534.266 -2.4174 0.729245 0
M  V30 5221 C 535.579 -0.116681 3.00474 0
M  V30 5222 C 537.127 -0.187103 3.1244 0
M  V30 5223 C 537.602 -0.035783 4.57986 0
M  V30 5224 N 539.093 -0.0917676 4.63109 0
M  V30 5225 C 539.828 0.00107251 5.734 0
M  V30 5226 N 539.324 0.146773 6.92645 0
M  V30 5227 N 541.117 -0.0551577 5.62073 0
M  V30 5228 H 533.268 0.983055 1.88281 0
M  V30 5229 H 535.531 0.382386 0.867459 0
M  V30 5230 H 535.237 0.85712 3.41096 0
M  V30 5231 H 535.111 -0.873929 3.66936 0
M  V30 5232 H 537.498 -1.15138 2.71712 0
M  V30 5233 H 537.579 0.601052 2.48638 0
M  V30 5234 H 537.223 0.925212 4.99402 0
M  V30 5235 H 537.153 -0.843196 5.19806 0
M  V30 5236 H 539.644 -0.203261 3.77353 0
M  V30 5237 H 539.957 0.210076 7.72514 0
M  V30 5238 H 538.302 0.181979 6.94762 0
M  V30 5239 H 541.493 -0.167605 4.678 0
M  V30 5240 H 541.666 0.020652 6.47997 0
M  V30 5241 N 535.072 -1.5615 -0.213296 0
M  V30 5242 C 536.297 -1.83986 -0.957282 0
M  V30 5243 C 536.722 -0.641526 -1.76822 0
M  V30 5244 O 536.08 0.409722 -1.7661 0
M  V30 5245 C 536.128 -3.09889 -1.84393 0
M  V30 5246 O 535.232 -2.89163 -2.94038 0
M  V30 5247 H 534.573 -0.606357 -0.270605 0
M  V30 5248 H 537.103 -2.03369 -0.224111 0
M  V30 5249 H 537.113 -3.40209 -2.25215 0
M  V30 5250 H 535.788 -3.96735 -1.24795 0
M  V30 5251 H 534.365 -2.70097 -2.57103 0
M  V30 5252 N 536.55 0.480323 -1.50102 0
M  V30 5253 C 537.497 1.57946 -1.6829 0
M  V30 5254 C 538.467 1.57611 -0.524223 0
M  V30 5255 O 539.652 1.75282 -0.753709 0
M  V30 5256 C 536.792 2.95978 -1.77457 0
M  V30 5257 C 535.905 3.06173 -3.04766 0
M  V30 5258 C 535.04 4.35063 -3.04784 0
M  V30 5259 C 534.079 4.38966 -4.26586 0
M  V30 5260 N 533.216 5.59314 -4.24396 0
M  V30 5261 H 538.056 1.41743 -2.62131 0
M  V30 5262 H 535.593 0.689304 -1.2995 0
M  V30 5263 H 537.551 3.76011 -1.80752 0
M  V30 5264 H 536.181 3.10837 -0.870637 0
M  V30 5265 H 535.233 2.19071 -3.10986 0
M  V30 5266 H 536.545 3.04916 -3.9475 0
M  V30 5267 H 535.699 5.23436 -3.06757 0
M  V30 5268 H 534.438 4.38915 -2.12614 0
M  V30 5269 H 533.443 3.48992 -4.24835 0
M  V30 5270 H 534.668 4.36813 -5.19972 0
M  V30 5271 H 532.614 5.63969 -3.35074 0
M  V30 5272 H 532.531 5.5976 -5.08138 0
M  V30 5273 H 533.799 6.49837 -4.30502 0
M  V30 5274 N 538.028 1.39524 0.732853 0
M  V30 5275 C 538.938 1.40695 1.87729 0
M  V30 5276 C 539.954 0.301496 1.71368 0
M  V30 5277 O 541.13 0.543313 1.93933 0
M  V30 5278 C 538.195 1.25098 3.23344 0
M  V30 5279 C 537.256 2.45634 3.52083 0
M  V30 5280 C 536.489 2.30772 4.81228 0
M  V30 5281 O 536.712 1.31233 5.55098 0
M  V30 5282 O 535.646 3.19799 5.09914 0
M  V30 5283 H 539.472 2.37168 1.89697 0
M  V30 5284 H 537.057 1.20663 0.880959 0
M  V30 5285 H 538.939 1.18541 4.04383 0
M  V30 5286 H 537.614 0.317209 3.22142 0
M  V30 5287 H 536.521 2.57767 2.71122 0
M  V30 5288 H 537.854 3.37712 3.58066 0
M  V30 5289 N 539.506 -0.963266 1.24736 0
M  V30 5290 C 540.416 -2.09246 1.06082 0
M  V30 5291 C 541.432 -1.74 0.000363101 0
M  V30 5292 O 542.608 -2.0041 0.199479 0
M  V30 5293 C 539.673 -3.40115 0.672498 0
M  V30 5294 C 538.734 -3.89282 1.80993 0
M  V30 5295 C 537.967 -5.13905 1.44004 0
M  V30 5296 O 538.19 -5.69434 0.331835 0
M  V30 5297 O 537.124 -5.57566 2.26723 0
M  V30 5298 H 540.95 -2.27881 2.00759 0
M  V30 5299 H 538.535 -1.07649 1.03595 0
M  V30 5300 H 540.417 -4.18797 0.467668 0
M  V30 5301 H 539.092 -3.22771 -0.245102 0
M  V30 5302 H 537.999 -3.11642 2.06955 0
M  V30 5303 H 539.332 -4.1111 2.70646 0
M  V30 5304 N 540.985 -1.06182 -1.16461 0
M  V30 5305 C 541.948 -0.675723 -2.19013 0
M  V30 5306 C 542.948 0.277963 -1.58379 0
M  V30 5307 O 544.138 0.0604962 -1.74095 0
M  V30 5308 C 541.27 0.00591459 -3.40899 0
M  V30 5309 H 542.463 -1.58353 -2.54685 0
M  V30 5310 H 540.016 -0.856908 -1.30716 0
M  V30 5311 H 540.751 0.92652 -3.10783 0
M  V30 5312 H 540.536 -0.67984 -3.86161 0
M  V30 5313 H 542.026 0.26181 -4.16778 0
M  V30 5314 N 542.463 1.3308 -0.844243 0
M  V30 5315 C 543.373 2.32876 -0.283922 0
M  V30 5316 C 544.389 1.63589 0.592846 0
M  V30 5317 O 545.565 1.95205 0.495693 0
M  V30 5318 C 542.63 3.42667 0.527283 0
M  V30 5319 C 541.691 4.27664 -0.374394 0
M  V30 5320 C 540.924 5.32212 0.39819 0
M  V30 5321 O 541.147 5.46635 1.62932 0
M  V30 5322 O 540.081 6.01458 -0.2306 0
M  V30 5323 H 543.907 2.82671 -1.11045 0
M  V30 5324 H 541.492 1.36518 -0.606903 0
M  V30 5325 H 543.374 4.09652 0.988078 0
M  V30 5326 H 542.049 2.95079 1.33078 0
M  V30 5327 H 540.956 3.63526 -0.883144 0
M  V30 5328 H 542.289 4.78749 -1.1428 0
M  V30 5329 N 543.941 0.601185 1.45683 0
M  V30 5330 C 544.904 -0.111398 2.28929 0
M  V30 5331 C 545.904 -0.801246 1.39416 0
M  V30 5332 O 547.094 -0.650383 1.61603 0
M  V30 5333 C 544.226 -1.16773 3.20276 0
M  V30 5334 H 545.419 0.620412 2.93413 0
M  V30 5335 H 542.972 0.359946 1.52099 0
M  V30 5336 H 543.707 -1.93051 2.60579 0
M  V30 5337 H 543.492 -0.677358 3.86205 0
M  V30 5338 H 544.982 -1.66698 3.82886 0
M  V30 5339 N 545.419 -1.53889 0.339982 0
M  V30 5340 C 546.349 -2.27843 -0.510856 0
M  V30 5341 C 547.33 -1.29267 -1.10563 0
M  V30 5342 O 548.515 -1.58104 -1.12768 0
M  V30 5343 C 545.645 -3.04857 -1.66372 0
M  V30 5344 C 544.599 -4.10907 -1.19746 0
M  V30 5345 C 543.925 -4.75855 -2.43857 0
M  V30 5346 C 545.225 -5.21435 -0.300501 0
M  V30 5347 H 546.919 -2.99212 0.106067 0
M  V30 5348 H 544.465 -1.43904 0.0524533 0
M  V30 5349 H 546.418 -3.5533 -2.26537 0
M  V30 5350 H 545.142 -2.31133 -2.30749 0
M  V30 5351 H 543.801 -3.61342 -0.618654 0
M  V30 5352 H 543.449 -3.9873 -3.06633 0
M  V30 5353 H 543.149 -5.47502 -2.13343 0
M  V30 5354 H 544.673 -5.2911 -3.04754 0
M  V30 5355 H 546.087 -5.67565 -0.80889 0
M  V30 5356 H 544.484 -6.00036 -0.0874076 0
M  V30 5357 H 545.554 -4.80328 0.664321 0
M  V30 5358 N 546.897 -0.0685191 -1.57451 0
M  V30 5359 C 548.127 0.609577 -1.97402 0
M  V30 5360 C 548.535 1.63882 -0.945489 0
M  V30 5361 O 547.878 1.8354 0.0766052 0
M  V30 5362 C 547.94 1.3385 -3.33653 0
M  V30 5363 C 547.604 0.463103 -4.54648 0
M  V30 5364 C 548.601 -0.277964 -5.19156 0
M  V30 5365 C 546.286 0.388941 -5.00792 0
M  V30 5366 C 548.28 -1.08145 -6.28159 0
M  V30 5367 C 545.967 -0.418217 -6.09667 0
M  V30 5368 C 546.965 -1.15208 -6.73213 0
M  V30 5369 O 546.653 -1.94594 -7.79993 0
M  V30 5370 H 546.385 0.170197 -0.654224 0
M  V30 5371 H 548.939 -0.13647 -2.04946 0
M  V30 5372 H 547.169 2.13055 -3.22714 0
M  V30 5373 H 548.858 1.90851 -3.58233 0
M  V30 5374 H 549.624 -0.230241 -4.84453 0
M  V30 5375 H 545.503 0.949769 -4.5111 0
M  V30 5376 H 549.047 -1.65476 -6.7769 0
M  V30 5377 H 544.944 -0.467515 -6.43805 0
M  V30 5378 H 545.712 -1.8699 -7.96854 0
M  V30 5379 N 548.375 1.56261 0.205012 0
M  V30 5380 C 549.325 1.90155 1.25798 0
M  V30 5381 C 550.309 0.766227 1.41484 0
M  V30 5382 O 551.501 1.02893 1.44021 0
M  V30 5383 C 548.63 2.23603 2.60493 0
M  V30 5384 C 547.716 3.43568 2.48639 0
M  V30 5385 N 548.107 4.61747 2.06455 0
M  V30 5386 C 546.405 3.4751 2.79558 0
M  V30 5387 C 547.106 5.43907 2.06253 0
M  V30 5388 N 546.082 4.84051 2.47377 0
M  V30 5389 H 549.884 2.79031 0.922986 0
M  V30 5390 H 547.398 1.57048 0.413501 0
M  V30 5391 H 549.395 2.46067 3.36537 0
M  V30 5392 H 548.055 1.36049 2.94823 0
M  V30 5393 H 549.066 4.86598 1.77321 0
M  V30 5394 H 545.743 2.70345 3.18151 0
M  V30 5395 H 547.133 6.48542 1.75622 0
M  V30 5396 N 549.853 -0.472356 1.50355 0
M  V30 5397 C 551.078 -1.25251 1.65309 0
M  V30 5398 C 551.503 -1.85081 0.335643 0
M  V30 5399 O 550.861 -1.67227 -0.700335 0
M  V30 5400 C 550.909 -2.3379 2.74544 0
M  V30 5401 O 550.013 -3.38401 2.35709 0
M  V30 5402 H 549.354 -0.368539 0.552336 0
M  V30 5403 H 551.884 -0.562271 1.96722 0
M  V30 5404 H 551.894 -2.79121 2.97583 0
M  V30 5405 H 550.569 -1.89614 3.70161 0
M  V30 5406 H 549.146 -2.9879 2.23112 0
M  V30 5407 N 551.331 -1.39911 -0.725443 0
M  V30 5408 C 552.278 -1.39393 -1.83952 0
M  V30 5409 C 553.248 -0.252249 -1.64173 0
M  V30 5410 O 554.433 -0.44882 -1.85446 0
M  V30 5411 C 551.573 -1.25262 -3.21564 0
M  V30 5412 C 550.686 -2.49054 -3.52982 0
M  V30 5413 C 549.821 -2.27439 -4.80047 0
M  V30 5414 C 548.86 -3.46857 -5.04338 0
M  V30 5415 N 547.997 -3.24499 -6.22611 0
M  V30 5416 H 552.837 -2.34622 -1.83729 0
M  V30 5417 H 550.374 -1.16537 -0.897636 0
M  V30 5418 H 552.332 -1.15077 -4.01015 0
M  V30 5419 H 550.962 -0.33657 -3.21041 0
M  V30 5420 H 550.014 -2.69805 -2.6816 0
M  V30 5421 H 551.326 -3.37973 -3.66846 0
M  V30 5422 H 550.48 -2.14551 -5.67497 0
M  V30 5423 H 549.219 -1.35929 -4.68374 0
M  V30 5424 H 548.224 -3.60232 -4.15346 0
M  V30 5425 H 549.449 -4.3928 -5.17889 0
M  V30 5426 H 547.395 -2.35663 -6.12208 0
M  V30 5427 H 547.312 -4.06978 -6.37106 0
M  V30 5428 H 548.58 -3.15325 -7.12875 0
M  V30 5429 N 552.809 0.956637 -1.25245 0
M  V30 5430 C 554.039 1.7332 -1.12445 0
M  V30 5431 C 554.447 1.86392 0.324732 0
M  V30 5432 O 553.79 1.35967 1.23526 0
M  V30 5433 C 553.852 3.16603 -1.70303 0
M  V30 5434 C 553.516 3.26966 -3.19284 0
M  V30 5435 C 554.513 3.11434 -4.16299 0
M  V30 5436 C 552.198 3.50851 -3.59456 0
M  V30 5437 C 554.192 3.1963 -5.51467 0
M  V30 5438 C 551.879 3.58684 -4.94761 0
M  V30 5439 C 552.877 3.43087 -5.90576 0
M  V30 5440 O 552.565 3.50598 -7.2342 0
M  V30 5441 H 552.297 0.549981 -0.393061 0
M  V30 5442 H 554.851 1.20892 -1.66055 0
M  V30 5443 H 553.081 3.70385 -1.11138 0
M  V30 5444 H 554.77 3.76109 -1.52632 0
M  V30 5445 H 555.536 2.92853 -3.86604 0
M  V30 5446 H 551.415 3.62053 -2.85375 0
M  V30 5447 H 554.959 3.07373 -6.26233 0
M  V30 5448 H 550.856 3.76782 -5.24124 0
M  V30 5449 H 551.624 3.67242 -7.31489 0
M  V30 5450 N 554.287 1.06798 1.15896 0
M  V30 5451 C 555.197 0.694564 2.24083 0
M  V30 5452 C 556.213 -0.291687 1.71538 0
M  V30 5453 O 557.389 -0.139723 2.00915 0
M  V30 5454 C 554.454 0.0921014 3.46578 0
M  V30 5455 C 553.515 1.13087 4.14137 0
M  V30 5456 C 552.748 0.557064 5.30785 0
M  V30 5457 O 552.971 -0.628623 5.66925 0
M  V30 5458 O 551.905 1.29924 5.8771 0
M  V30 5459 H 555.731 1.59663 2.58344 0
M  V30 5460 H 553.316 0.840575 1.2351 0
M  V30 5461 H 555.198 -0.241884 4.20705 0
M  V30 5462 H 553.873 -0.78337 3.14078 0
M  V30 5463 H 552.78 1.51712 3.41957 0
M  V30 5464 H 554.113 1.97805 4.50704 0
M  V30 5465 N 555.766 -1.3263 0.851289 0
M  V30 5466 C 556.676 -2.32722 0.296268 0
M  V30 5467 C 557.692 -1.63901 -0.584162 0
M  V30 5468 O 558.868 -1.95465 -0.485334 0
M  V30 5469 C 555.933 -3.42942 -0.509103 0
M  V30 5470 C 554.994 -4.2746 0.397069 0
M  V30 5471 C 554.227 -5.32416 -0.36996 0
M  V30 5472 O 554.45 -5.47491 -1.6003 0
M  V30 5473 O 553.384 -6.01327 0.262493 0
M  V30 5474 H 557.21 -2.82078 1.12543 0
M  V30 5475 H 554.795 -1.36194 0.614135 0
M  V30 5476 H 556.677 -4.1017 -0.96634 0
M  V30 5477 H 555.352 -2.95781 -1.31512 0
M  V30 5478 H 554.259 -3.63053 0.902411 0
M  V30 5479 H 555.592 -4.78136 1.16818 0
M  V30 5480 N 557.244 -0.608902 -1.45362 0
M  V30 5481 C 558.174 0.0964526 -2.33301 0
M  V30 5482 C 559.155 0.857444 -1.46908 0
M  V30 5483 O 560.34 0.827735 -1.75676 0
M  V30 5484 C 557.47 1.09354 -3.29635 0
M  V30 5485 C 556.424 0.445676 -4.25673 0
M  V30 5486 C 555.75 1.5511 -5.11708 0
M  V30 5487 C 557.05 -0.633972 -5.18438 0
M  V30 5488 H 558.744 -0.637829 -2.92527 0
M  V30 5489 H 556.29 -0.308178 -1.40664 0
M  V30 5490 H 558.243 1.59556 -3.90025 0
M  V30 5491 H 556.967 1.85843 -2.6857 0
M  V30 5492 H 555.626 -0.0354897 -3.66583 0
M  V30 5493 H 555.274 2.30631 -4.4701 0
M  V30 5494 H 554.974 1.12311 -5.76767 0
M  V30 5495 H 556.498 2.05537 -5.74967 0
M  V30 5496 H 557.912 -0.215974 -5.72893 0
M  V30 5497 H 556.309 -0.983789 -5.91981 0
M  V30 5498 H 557.379 -1.51005 -4.60788 0
M  V30 5499 N 558.722 1.53707 -0.348139 0
M  V30 5500 C 559.654 2.22725 0.540946 0
M  V30 5501 C 560.667 1.2354 1.06027 0
M  V30 5502 O 561.856 1.49867 0.96964 0
M  V30 5503 C 558.956 2.89756 1.75768 0
M  V30 5504 C 558.129 4.15297 1.37285 0
M  V30 5505 C 557.188 4.65697 2.44976 0
M  V30 5506 O 556.214 5.29798 2.08092 0
M  V30 5507 N 557.416 4.42017 3.763 0
M  V30 5508 H 560.181 2.99658 -0.0501592 0
M  V30 5509 H 557.742 1.60979 -0.17248 0
M  V30 5510 H 559.734 3.20388 2.47252 0
M  V30 5511 H 558.304 2.16382 2.25605 0
M  V30 5512 H 557.524 3.9116 0.488584 0
M  V30 5513 H 558.812 4.96948 1.09179 0
M  V30 5514 H 558.21 3.9076 4.09051 0
M  V30 5515 H 556.767 4.77242 4.4394 0
M  V30 5516 N 560.2 0.0768682 1.57412 0
M  V30 5517 C 561.446 -0.591961 1.93968 0
M  V30 5518 C 561.779 -1.68954 0.9575 0
M  V30 5519 O 561.054 -1.94496 -0.0124675 0
M  V30 5520 C 561.337 -1.16418 3.40762 0
M  V30 5521 C 561.19 -0.0728933 4.49741 0
M  V30 5522 C 562.509 -2.06814 3.88479 0
M  V30 5523 H 559.628 -0.213716 0.705333 0
M  V30 5524 H 562.27 0.14387 1.89455 0
M  V30 5525 H 560.42 -1.79128 3.4474 0
M  V30 5526 H 562.092 0.560446 4.57883 0
M  V30 5527 H 560.335 0.595859 4.29688 0
M  V30 5528 H 561.006 -0.513755 5.49604 0
M  V30 5529 H 563.482 -1.54033 3.8654 0
M  V30 5530 H 562.358 -2.43785 4.91793 0
M  V30 5531 H 562.619 -2.97844 3.26713 0
M  V30 5532 N 561.678 -1.56367 -0.196722 0
M  V30 5533 C 562.906 -1.84639 -0.933608 0
M  V30 5534 C 563.321 -0.659164 -1.76919 0
M  V30 5535 O 562.678 0.372142 -1.78665 0
M  V30 5536 C 562.729 -3.11694 -1.83109 0
M  V30 5537 O 562.45 -4.25838 -1.02924 0
M  V30 5538 C 563.951 -3.53132 -2.67979 0
M  V30 5539 H 561.171 -0.613188 -0.272473 0
M  V30 5540 H 563.715 -2.03475 -0.204465 0
M  V30 5541 H 561.87 -2.94759 -2.51387 0
M  V30 5542 H 562.284 -4.98178 -1.64069 0
M  V30 5543 H 563.758 -4.45005 -3.26611 0
M  V30 5544 H 564.235 -2.76045 -3.41608 0
M  V30 5545 H 564.841 -3.72592 -2.05074 0
M  V30 5546 N 563.156 0.464375 -1.50603 0
M  V30 5547 C 564.402 1.21776 -1.62168 0
M  V30 5548 C 564.735 1.91476 -0.324154 0
M  V30 5549 O 564.01 1.8242 0.674782 0
M  V30 5550 C 564.293 2.25614 -2.80661 0
M  V30 5551 C 564.146 1.60175 -4.20314 0
M  V30 5552 C 565.465 3.26862 -2.94702 0
M  V30 5553 H 562.584 0.44137 -0.590222 0
M  V30 5554 H 565.226 0.510623 -1.8301 0
M  V30 5555 H 563.376 2.85923 -2.63021 0
M  V30 5556 H 565.048 1.03411 -4.4956 0
M  V30 5557 H 563.291 0.904697 -4.24261 0
M  V30 5558 H 563.962 2.35665 -4.99165 0
M  V30 5559 H 566.438 2.76582 -3.10872 0
M  V30 5560 H 565.314 3.96839 -3.79223 0
M  V30 5561 H 565.575 3.91382 -2.05603 0
M  V30 5562 N 564.634 1.40294 0.718013 0
M  V30 5563 C 565.882 1.38167 1.47494 0
M  V30 5564 C 566.203 -0.01607 1.94993 0
M  V30 5565 O 565.473 -0.970396 1.70177 0
M  V30 5566 H 564.053 0.508505 0.547203 0
M  V30 5567 H 566.715 1.75324 0.851322 0
M  V30 5568 H 565.811 2.05503 2.34894 0
M  V30 5569 N 566.112 -0.949982 1.2575 0
M  V30 5570 C 567.528 -1.22191 1.02672 0
M  V30 5571 C 567.728 -1.99898 -0.253588 0
M  V30 5572 O 566.784 -2.33329 -0.965076 0
M  V30 5573 C 568.097 -1.99175 2.25277 0
M  V30 5574 C 569.645 -2.12201 2.30087 0
M  V30 5575 C 570.12 -2.92586 3.5236 0
M  V30 5576 N 571.611 -3.00163 3.52784 0
M  V30 5577 C 572.346 -3.62766 4.44059 0
M  V30 5578 N 571.842 -4.26943 5.45611 0
M  V30 5579 N 573.635 -3.59953 4.3173 0
M  V30 5580 H 565.786 -0.430258 2.07996 0
M  V30 5581 H 568.049 -0.252844 0.91366 0
M  V30 5582 H 567.755 -1.49479 3.18354 0
M  V30 5583 H 567.629 -2.99868 2.28821 0
M  V30 5584 H 570.016 -2.61093 1.3753 0
M  V30 5585 H 570.097 -1.10799 2.30559 0
M  V30 5586 H 569.741 -2.44383 4.45241 0
M  V30 5587 H 569.671 -3.94224 3.49134 0
M  V30 5588 H 572.162 -2.54529 2.79327 0
M  V30 5589 H 572.475 -4.72583 6.11461 0
M  V30 5590 H 570.82 -4.25557 5.49478 0
M  V30 5591 H 574.011 -3.09003 3.51617 0
M  V30 5592 H 574.184 -4.08455 5.03059 0
M  V30 5593 N 567.59 -1.07411 -1.15328 0
M  V30 5594 C 568.54 -0.664788 -2.18093 0
M  V30 5595 C 569.524 0.310395 -1.57878 0
M  V30 5596 O 570.716 0.124026 -1.76565 0
M  V30 5597 C 567.845 -0.0647822 -3.43239 0
M  V30 5598 C 566.931 -1.06514 -4.10506 0
M  V30 5599 N 567.322 -2.24491 -4.53252 0
M  V30 5600 C 565.62 -0.898613 -4.36853 0
M  V30 5601 C 566.321 -2.8796 -5.05424 0
M  V30 5602 N 565.297 -2.15622 -4.99007 0
M  V30 5603 H 569.099 -1.56333 -2.48872 0
M  V30 5604 H 566.613 -0.947393 -1.31902 0
M  V30 5605 H 568.61 0.246363 -4.16171 0
M  V30 5606 H 567.27 0.828866 -3.13943 0
M  V30 5607 H 568.281 -2.62205 -4.46619 0
M  V30 5608 H 564.958 -0.0579118 -4.1746 0
M  V30 5609 H 566.348 -3.88137 -5.48452 0
M  V30 5610 N 569.068 1.32177 -0.85831 0
M  V30 5611 C 570.316 1.96735 -0.462568 0
M  V30 5612 C 570.637 1.6824 0.985911 0
M  V30 5613 O 569.907 0.991564 1.68952 0
M  V30 5614 H 568.487 0.727849 -0.168064 0
M  V30 5615 H 571.149 1.61195 -1.09554 0
M  V30 5616 H 570.245 3.06068 -0.610647 0
M  V30 5617 N 570.547 0.616602 1.45037 0
M  V30 5618 C 571.824 0.0469086 1.95544 0
M  V30 5619 C 572.204 -1.42345 1.55888 0
M  V30 5620 O 571.552 -2.13055 0.825824 0
M  V30 5621 C 571.762 0.254489 3.48071 0
M  V30 5622 C 573.11 0.140025 4.24369 0
M  V30 5623 O 574.134 0.185084 3.55719 0
M  V30 5624 O 572.993 0.0327034 5.4649 0
M  V30 5625 H 570.087 -0.0306051 0.826433 0
M  V30 5626 H 572.633 0.687293 1.55159 0
M  V30 5627 H 571.405 1.27532 3.69934 0
M  V30 5628 H 571.028 -0.42073 3.95368 0
M  V30 5629 N 572.025 -1.5352 0.356285 0
M  V30 5630 C 573.25 -2.06007 -0.239961 0
M  V30 5631 C 573.675 -1.22872 -1.42422 0
M  V30 5632 O 573.033 -0.245516 -1.7963 0
M  V30 5633 C 573.081 -3.5522 -0.620587 0
M  V30 5634 O 572.185 -3.74864 -1.71902 0
M  V30 5635 H 571.526 -0.662961 -0.0371377 0
M  V30 5636 H 574.056 -1.98033 0.514194 0
M  V30 5637 H 574.066 -3.98081 -0.894197 0
M  V30 5638 H 572.741 -4.15175 0.245407 0
M  V30 5639 H 571.318 -3.43904 -1.44169 0
M  V30 5640 N 573.503 -0.0852151 -1.57369 0
M  V30 5641 C 574.433 0.874556 -2.16503 0
M  V30 5642 C 575.414 1.30111 -1.09568 0
M  V30 5643 O 576.599 1.36977 -1.37662 0
M  V30 5644 C 573.729 2.13731 -2.73745 0
M  V30 5645 C 572.683 1.84971 -3.85966 0
M  V30 5646 C 572.009 3.17991 -4.29867 0
M  V30 5647 C 573.309 1.14442 -5.09608 0
M  V30 5648 H 575.003 0.381899 -2.96954 0
M  V30 5649 H 572.549 0.18225 -1.42842 0
M  V30 5650 H 574.502 2.81302 -3.13763 0
M  V30 5651 H 573.226 2.65263 -1.90534 0
M  V30 5652 H 571.885 1.19801 -3.46473 0
M  V30 5653 H 571.533 3.6739 -3.4356 0
M  V30 5654 H 571.233 2.99534 -5.05523 0
M  V30 5655 H 572.757 3.86737 -4.72511 0
M  V30 5656 H 574.171 1.72105 -5.46857 0
M  V30 5657 H 572.568 1.06197 -5.90629 0
M  V30 5658 H 573.638 0.12559 -4.84737 0
M  V30 5659 N 574.981 1.5647 0.188427 0
M  V30 5660 C 575.928 1.95073 1.23349 0
M  V30 5661 C 576.898 0.812238 1.44886 0
M  V30 5662 O 578.083 1.07095 1.57909 0
M  V30 5663 C 575.223 2.30124 2.57171 0
M  V30 5664 C 574.336 3.57069 2.43157 0
M  V30 5665 C 573.471 3.81411 3.69729 0
M  V30 5666 C 572.51 5.0176 3.50575 0
M  V30 5667 N 571.647 5.22321 4.69175 0
M  V30 5668 H 576.487 2.84171 0.89728 0
M  V30 5669 H 574.024 1.40623 0.431683 0
M  V30 5670 H 575.982 2.48463 3.35145 0
M  V30 5671 H 574.612 1.44159 2.88822 0
M  V30 5672 H 573.664 3.4674 1.56447 0
M  V30 5673 H 574.976 4.452 2.24942 0
M  V30 5674 H 574.13 4.00026 4.56141 0
M  V30 5675 H 572.869 2.91624 3.90905 0
M  V30 5676 H 571.874 4.83061 2.62549 0
M  V30 5677 H 573.099 5.93063 3.30837 0
M  V30 5678 H 571.045 4.35483 4.90602 0
M  V30 5679 H 570.962 6.04643 4.53809 0
M  V30 5680 H 572.23 5.45401 5.56919 0
M  V30 5681 N 576.459 -0.456382 1.50847 0
M  V30 5682 C 577.369 -1.57805 1.73594 0
M  V30 5683 C 578.385 -1.62599 0.619476 0
M  V30 5684 O 579.561 -1.80195 0.899532 0
M  V30 5685 C 576.626 -2.93926 1.8387 0
M  V30 5686 C 575.687 -2.99402 3.07663 0
M  V30 5687 C 574.92 -4.29031 3.1744 0
M  V30 5688 O 575.143 -5.20358 2.33631 0
M  V30 5689 O 574.077 -4.40401 4.10281 0
M  V30 5690 H 577.903 -1.41531 2.68705 0
M  V30 5691 H 575.488 -0.637422 1.3512 0
M  V30 5692 H 577.37 -3.74747 1.92725 0
M  V30 5693 H 576.045 -3.10368 0.91944 0
M  V30 5694 H 574.952 -2.17606 3.043 0
M  V30 5695 H 576.285 -2.87901 3.99216 0
M  V30 5696 N 577.937 -1.40673 -0.710563 0
M  V30 5697 C 579.186 -1.38525 -1.46607 0
M  V30 5698 C 579.499 0.0077024 -1.95598 0
M  V30 5699 O 580.705 0.151792 -2.71075 0
M  V30 5700 C 579.161 -2.43489 -2.6503 0
M  V30 5701 C 578.769 -3.88619 -2.22888 0
M  V30 5702 C 580.513 -2.50456 -3.42742 0
M  V30 5703 C 578.42 -4.85168 -3.3818 0
M  V30 5704 H 577.35 -0.515092 -0.550632 0
M  V30 5705 H 580.001 -1.66431 -0.772846 0
M  V30 5706 H 578.383 -2.0869 -3.36548 0
M  V30 5707 H 579.557 -4.32588 -1.58758 0
M  V30 5708 H 577.872 -3.85174 -1.58208 0
M  V30 5709 H 580.469 -3.19776 -4.28541 0
M  V30 5710 H 580.812 -1.53665 -3.86902 0
M  V30 5711 H 581.345 -2.84271 -2.78271 0
M  V30 5712 H 578.084 -5.8331 -2.99047 0
M  V30 5713 H 577.604 -4.4586 -4.01209 0
M  V30 5714 H 579.283 -5.05225 -4.04174 0
M  V30 5715 N 579.415 0.9433 -1.26252 0
M  V30 5716 C 580.362 2.0417 -1.07625 0
M  V30 5717 C 581.332 1.6609 0.0180738 0
M  V30 5718 O 582.517 1.90276 -0.141289 0
M  V30 5719 C 579.657 3.37653 -0.713043 0
M  V30 5720 C 578.77 3.88783 -1.8834 0
M  V30 5721 C 577.905 5.10642 -1.4635 0
M  V30 5722 C 576.944 5.54028 -2.60229 0
M  V30 5723 N 576.081 6.67092 -2.18936 0
M  V30 5724 H 580.921 2.19436 -2.01623 0
M  V30 5725 H 578.458 1.07519 -1.00389 0
M  V30 5726 H 580.416 4.14391 -0.483358 0
M  V30 5727 H 579.046 3.22241 0.18996 0
M  V30 5728 H 578.098 3.08464 -2.22608 0
M  V30 5729 H 579.41 4.16922 -2.73821 0
M  V30 5730 H 578.564 5.94832 -1.19414 0
M  V30 5731 H 577.303 4.84244 -0.579568 0
M  V30 5732 H 576.308 4.68396 -2.87898 0
M  V30 5733 H 577.533 5.82429 -3.49219 0
M  V30 5734 H 575.479 6.42381 -1.32974 0
M  V30 5735 H 575.396 6.94806 -2.97961 0
M  V30 5736 H 576.664 7.54662 -1.95206 0
M  V30 5737 N 580.893 1.08022 1.14757 0
M  V30 5738 C 582.142 0.802468 1.8505 0
M  V30 5739 C 582.455 -0.674061 1.83619 0
M  V30 5740 O 583.661 -1.06683 2.49662 0
M  V30 5741 C 582.117 1.38551 3.32162 0
M  V30 5742 C 581.725 2.89354 3.42021 0
M  V30 5743 C 583.469 1.18608 4.07594 0
M  V30 5744 C 581.376 3.40815 4.83321 0
M  V30 5745 H 580.306 0.296518 0.693248 0
M  V30 5746 H 582.957 1.30114 1.29393 0
M  V30 5747 H 581.339 0.814556 3.87532 0
M  V30 5748 H 582.513 3.52552 2.96722 0
M  V30 5749 H 580.828 3.08165 2.80041 0
M  V30 5750 H 583.425 1.54525 5.11885 0
M  V30 5751 H 583.768 0.125599 4.1611 0
M  V30 5752 H 584.301 1.72375 3.58513 0
M  V30 5753 H 581.04 4.46418 4.79991 0
M  V30 5754 H 580.56 2.82374 5.29174 0
M  V30 5755 H 582.239 3.37171 5.522 0
M  V30 5756 N 582.371 -1.3172 0.865308 0
M  V30 5757 C 583.281 -2.32394 0.320935 0
M  V30 5758 C 584.297 -1.64511 -0.566746 0
M  V30 5759 O 585.473 -1.95969 -0.464575 0
M  V30 5760 C 582.538 -3.43462 -0.472701 0
M  V30 5761 C 581.599 -4.27015 0.442385 0
M  V30 5762 C 580.832 -5.32779 -0.313469 0
M  V30 5763 O 581.055 -5.49158 -1.54214 0
M  V30 5764 O 579.989 -6.01015 0.326257 0
M  V30 5765 H 583.815 -2.80868 1.15528 0
M  V30 5766 H 581.4 -1.35535 0.628545 0
M  V30 5767 H 583.282 -4.11172 -0.922781 0
M  V30 5768 H 581.957 -2.97159 -1.28367 0
M  V30 5769 H 580.864 -3.62075 0.940866 0
M  V30 5770 H 582.197 -4.76871 1.21882 0
M  V30 5771 N 583.85 -0.624285 -1.44708 0
M  V30 5772 C 585.099 -0.123539 -2.01321 0
M  V30 5773 C 585.412 1.25966 -1.49639 0
M  V30 5774 O 586.618 1.85405 -1.98336 0
M  V30 5775 C 585.074 -0.170124 -3.59498 0
M  V30 5776 C 584.682 -1.55421 -4.20176 0
M  V30 5777 C 586.426 0.274513 -4.23611 0
M  V30 5778 C 584.332 -1.55628 -5.70556 0
M  V30 5779 H 583.263 -0.0424183 -0.752806 0
M  V30 5780 H 585.913 -0.782076 -1.65999 0
M  V30 5781 H 584.296 0.555385 -3.92086 0
M  V30 5782 H 585.47 -2.30276 -3.99136 0
M  V30 5783 H 583.784 -1.94235 -3.68323 0
M  V30 5784 H 586.382 0.292402 -5.339 0
M  V30 5785 H 586.725 1.3005 -3.95465 0
M  V30 5786 H 587.258 -0.398275 -3.95801 0
M  V30 5787 H 583.997 -2.56041 -6.03426 0
M  V30 5788 H 583.517 -0.850563 -5.93739 0
M  V30 5789 H 585.196 -1.28721 -6.34066 0
M  V30 5790 N 585.328 1.53329 -0.364422 0
M  V30 5791 C 586.553 2.06132 0.229033 0
M  V30 5792 C 586.978 1.23625 1.41769 0
M  V30 5793 O 586.336 0.255038 1.79497 0
M  V30 5794 C 586.384 3.55544 0.60174 0
M  V30 5795 O 585.488 3.75771 1.69912 0
M  V30 5796 H 584.829 0.663148 0.0336213 0
M  V30 5797 H 587.359 1.97758 -0.524689 0
M  V30 5798 H 587.369 3.98549 0.873073 0
M  V30 5799 H 586.044 4.15039 -0.267421 0
M  V30 5800 H 584.621 3.44663 1.42343 0
M  V30 5801 N 586.806 0.0935595 1.57322 0
M  V30 5802 C 587.716 -0.880192 2.17462 0
M  V30 5803 C 588.732 -1.31135 1.14366 0
M  V30 5804 O 589.908 -1.37958 1.46729 0
M  V30 5805 C 586.973 -2.12184 2.74188 0
M  V30 5806 C 586.034 -1.74503 3.92234 0
M  V30 5807 C 585.267 -2.92748 4.46245 0
M  V30 5808 O 585.49 -4.07427 3.99198 0
M  V30 5809 O 584.424 -2.71303 5.37288 0
M  V30 5810 H 588.25 -0.398516 3.01074 0
M  V30 5811 H 585.835 -0.130707 1.48827 0
M  V30 5812 H 587.717 -2.84953 3.10451 0
M  V30 5813 H 586.392 -2.59407 1.93623 0
M  V30 5814 H 585.299 -0.989186 3.60785 0
M  V30 5815 H 586.632 -1.32044 4.74157 0
M  V30 5816 N 588.284 -1.56567 -0.180126 0
M  V30 5817 C 589.214 -1.98753 -1.22553 0
M  V30 5818 C 590.195 -0.86175 -1.46656 0
M  V30 5819 O 591.38 -1.12719 -1.58139 0
M  V30 5820 C 588.51 -2.33988 -2.56645 0
M  V30 5821 C 587.464 -3.49445 -2.47128 0
M  V30 5822 C 586.79 -3.70397 -3.8563 0
M  V30 5823 C 588.09 -4.83171 -1.98352 0
M  V30 5824 H 589.784 -2.86332 -0.874896 0
M  V30 5825 H 587.33 -1.37757 -0.419414 0
M  V30 5826 H 589.283 -2.62097 -3.29974 0
M  V30 5827 H 588.007 -1.43309 -2.93479 0
M  V30 5828 H 586.666 -3.2145 -1.76254 0
M  V30 5829 H 586.314 -2.77023 -4.19842 0
M  V30 5830 H 586.014 -4.48077 -3.80132 0
M  V30 5831 H 587.538 -4.00897 -4.60558 0
M  V30 5832 H 588.952 -5.10213 -2.61449 0
M  V30 5833 H 587.349 -5.64425 -2.03823 0
M  V30 5834 H 588.419 -4.75753 -0.937402 0
M  V30 5835 N 589.762 0.448376 -1.51087 0
M  V30 5836 C 590.71 1.56407 -1.72161 0
M  V30 5837 C 591.704 1.58878 -0.587721 0
M  V30 5838 O 592.91 1.62755 -0.768822 0
M  V30 5839 H 589.285 0.519423 -0.543786 0
M  V30 5840 H 591.256 1.35803 -2.65707 0
M  V30 5841 C 590.005 2.94163 -1.85373 0
M  V30 5842 H 589.328 2.9299 -2.72024 0
M  V30 5843 H 590.768 3.71625 -2.04135 0
M  V30 5844 C 589.227 3.31317 -0.610803 0
M  V30 5845 O 589.757 4.00985 0.239636 0
M  V30 5846 N 587.963 2.86966 -0.458127 0
M  V30 5847 H 587.51 2.30443 -1.15124 0
M  V30 5848 H 587.468 3.12188 0.372289 0
M  V30 5849 N 591.24 1.41047 0.703093 0
M  V30 5850 C 592.656 1.23351 1.01275 0
M  V30 5851 C 592.856 0.11754 2.01157 0
M  V30 5852 O 591.912 -0.520518 2.47077 0
M  V30 5853 C 593.225 2.58001 1.54454 0
M  V30 5854 C 594.773 2.65119 1.66376 0
M  V30 5855 C 595.248 4.00067 2.22958 0
M  V30 5856 N 596.739 4.01875 2.30328 0
M  V30 5857 C 597.474 5.03087 2.75119 0
M  V30 5858 N 596.97 6.14692 3.19571 0
M  V30 5859 N 598.763 4.90451 2.74616 0
M  V30 5860 H 590.914 2.1236 0.0412686 0
M  V30 5861 H 593.177 0.944543 0.08089 0
M  V30 5862 H 592.883 3.40378 0.88521 0
M  V30 5863 H 592.757 2.79962 2.52786 0
M  V30 5864 H 595.144 1.83106 2.31422 0
M  V30 5865 H 595.225 2.46975 0.666089 0
M  V30 5866 H 594.869 4.82526 1.58529 0
M  V30 5867 H 594.799 4.15547 3.23462 0
M  V30 5868 H 597.29 3.21291 1.98949 0
M  V30 5869 H 597.603 6.87799 3.52352 0
M  V30 5870 H 595.948 6.18239 3.17498 0
M  V30 5871 H 599.139 4.0235 2.39233 0
M  V30 5872 H 599.312 5.6947 3.09206 0
M  V30 5873 N 592.718 -0.936591 1.26751 0
M  V30 5874 C 593.964 -1.6858 1.12733 0
M  V30 5875 C 594.297 -1.91414 -0.327745 0
M  V30 5876 O 593.572 -1.49812 -1.24043 0
M  V30 5877 C 593.855 -3.05779 1.90187 0
M  V30 5878 C 593.708 -2.90242 3.43627 0
M  V30 5879 C 595.027 -4.0597 1.69931 0
M  V30 5880 H 592.146 -0.61182 0.410908 0
M  V30 5881 H 594.788 -1.08747 1.55801 0
M  V30 5882 H 592.938 -3.56853 1.53584 0
M  V30 5883 H 594.61 -2.46354 3.9001 0
M  V30 5884 H 592.853 -2.2577 3.70419 0
M  V30 5885 H 593.524 -3.87572 3.93055 0
M  V30 5886 H 596 -3.63874 2.0183 0
M  V30 5887 H 594.876 -4.99974 2.26534 0
M  V30 5888 H 595.137 -4.37369 0.64502 0
M  V30 5889 N 594.196 -1.08629 -1.14182 0
M  V30 5890 C 595.445 -0.812271 -1.84621 0
M  V30 5891 C 595.758 0.664313 -1.83973 0
M  V30 5892 O 596.964 1.05357 -2.50224 0
M  V30 5893 C 595.42 -1.4031 -3.31423 0
M  V30 5894 C 595.028 -2.91164 -3.40481 0
M  V30 5895 C 596.772 -1.20767 -4.06959 0
M  V30 5896 C 594.679 -3.43373 -4.81507 0
M  V30 5897 H 593.609 -0.30019 -0.691666 0
M  V30 5898 H 596.26 -1.30798 -1.28701 0
M  V30 5899 H 594.642 -0.835096 -3.87094 0
M  V30 5900 H 595.816 -3.5412 -2.94848 0
M  V30 5901 H 594.131 -3.09646 -2.78403 0
M  V30 5902 H 596.728 -1.57237 -5.11058 0
M  V30 5903 H 597.071 -0.147664 -4.16038 0
M  V30 5904 H 597.604 -1.74274 -3.57594 0
M  V30 5905 H 594.343 -4.48958 -4.77616 0
M  V30 5906 H 593.863 -2.85176 -5.27669 0
M  V30 5907 H 595.542 -3.40095 -5.50404 0
M  V30 5908 N 595.674 1.31259 -0.872281 0
M  V30 5909 C 596.606 2.27396 -0.28697 0
M  V30 5910 C 597.619 1.53181 0.551297 0
M  V30 5911 O 598.808 1.74561 0.372914 0
M  V30 5912 C 595.908 3.33335 0.611617 0
M  V30 5913 C 595.081 4.36966 -0.194729 0
M  V30 5914 C 594.14 5.22387 0.632358 0
M  V30 5915 O 593.166 5.69169 0.0595691 0
M  V30 5916 N 594.368 5.46985 1.94391 0
M  V30 5917 H 597.133 2.78261 -1.11314 0
M  V30 5918 H 594.694 1.44306 -0.733994 0
M  V30 5919 H 596.686 3.87398 1.17068 0
M  V30 5920 H 595.256 2.82496 1.33846 0
M  V30 5921 H 594.476 3.82945 -0.935241 0
M  V30 5922 H 595.764 5.03273 -0.747935 0
M  V30 5923 H 595.162 5.10737 2.43237 0
M  V30 5924 H 593.719 6.03973 2.45071 0
M  V30 5925 N 597.152 0.631951 1.44375 0
M  V30 5926 C 598.568 0.297642 1.568 0
M  V30 5927 C 598.768 -1.19916 1.61934 0
M  V30 5928 O 597.824 -1.98324 1.56281 0
M  V30 5929 C 599.137 0.990286 2.83926 0
M  V30 5930 C 600.685 0.968507 2.97639 0
M  V30 5931 C 601.16 1.64163 4.27568 0
M  V30 5932 N 602.651 1.60826 4.34384 0
M  V30 5933 C 603.386 2.09802 5.33639 0
M  V30 5934 N 602.882 2.66973 6.39294 0
M  V30 5935 N 604.675 2.00426 5.25153 0
M  V30 5936 H 596.826 1.60353 1.39286 0
M  V30 5937 H 599.089 0.673142 0.667521 0
M  V30 5938 H 598.795 2.04519 2.8612 0
M  V30 5939 H 598.669 0.528563 3.73478 0
M  V30 5940 H 601.056 -0.0779247 2.94997 0
M  V30 5941 H 601.137 1.46873 2.09433 0
M  V30 5942 H 600.781 2.68752 4.3097 0
M  V30 5943 H 600.711 1.11624 5.14634 0
M  V30 5944 H 603.202 1.19087 3.58646 0
M  V30 5945 H 603.515 3.02074 7.11316 0
M  V30 5946 H 601.86 2.71024 6.39977 0
M  V30 5947 H 605.051 1.55483 4.41523 0
M  V30 5948 H 605.224 2.38906 6.02352 0
M  V30 5949 N 598.631 -1.53133 0.372548 0
M  V30 5950 C 599.561 -2.28876 -0.462412 0
M  V30 5951 C 600.542 -1.31583 -1.07796 0
M  V30 5952 O 601.727 -1.60461 -1.09389 0
M  V30 5953 C 598.857 -3.08317 -1.59868 0
M  V30 5954 C 597.811 -4.13355 -1.11003 0
M  V30 5955 C 597.137 -4.8092 -2.33708 0
M  V30 5956 C 598.437 -5.21955 -0.18983 0
M  V30 5957 H 600.131 -2.9892 0.169511 0
M  V30 5958 H 597.677 -1.43761 0.0829658 0
M  V30 5959 H 599.63 -3.60055 -2.18949 0
M  V30 5960 H 598.354 -2.35976 -2.25794 0
M  V30 5961 H 597.013 -3.62573 -0.541869 0
M  V30 5962 H 596.661 -4.05144 -2.98106 0
M  V30 5963 H 596.361 -5.51904 -2.01682 0
M  V30 5964 H 597.885 -5.35455 -2.93462 0
M  V30 5965 H 599.299 -5.69153 -0.688319 0
M  V30 5966 H 597.696 -6.00087 0.0398887 0
M  V30 5967 H 598.766 -4.78811 0.766057 0
M  V30 5968 N 600.109 -0.101901 -1.5727 0
M  V30 5969 C 601.041 0.884723 -2.11436 0
M  V30 5970 C 602.054 1.24149 -1.05314 0
M  V30 5971 O 603.243 1.19341 -1.3274 0
M  V30 5972 C 600.343 2.19179 -2.58484 0
M  V30 5973 C 599.516 2.00933 -3.88516 0
M  V30 5974 C 598.575 3.15213 -4.2134 0
M  V30 5975 O 597.601 2.88877 -4.90448 0
M  V30 5976 N 598.803 4.41174 -3.77288 0
M  V30 5977 H 601.568 0.422058 -2.96713 0
M  V30 5978 H 599.129 0.0830128 -1.61687 0
M  V30 5979 H 601.121 2.94593 -2.77484 0
M  V30 5980 H 599.691 2.56847 -1.7818 0
M  V30 5981 H 598.911 1.09809 -3.78597 0
M  V30 5982 H 600.199 1.86026 -4.73573 0
M  V30 5983 H 599.597 4.6545 -3.21516 0
M  V30 5984 H 598.154 5.13515 -4.01429 0
M  V30 5985 N 601.587 1.56661 0.17182 0
M  V30 5986 C 602.835 1.81606 0.886774 0
M  V30 5987 C 603.156 0.678818 1.82803 0
M  V30 5988 O 602.426 -0.301354 1.93568 0
M  V30 5989 H 601.006 0.669934 0.330451 0
M  V30 5990 H 603.668 1.94142 0.171757 0
M  V30 5991 H 602.764 2.75634 1.46398 0
M  V30 5992 N 603.065 -0.440357 1.51323 0
M  V30 5993 C 603.975 -1.55955 1.75258 0
M  V30 5994 C 604.991 -1.61933 0.636687 0
M  V30 5995 O 606.167 -1.79231 0.918593 0
M  V30 5996 C 603.232 -2.9196 1.86977 0
M  V30 5997 C 602.293 -2.96122 3.10822 0
M  V30 5998 C 601.526 -4.2564 3.21973 0
M  V30 5999 O 601.749 -5.17851 2.39137 0
M  V30 6000 O 600.683 -4.36025 4.14929 0
M  V30 6001 H 604.509 -1.38673 2.70191 0
M  V30 6002 H 602.094 -0.623055 1.35788 0
M  V30 6003 H 603.976 -3.72682 1.96688 0
M  V30 6004 H 602.651 -3.09375 0.952307 0
M  V30 6005 H 601.558 -2.14366 3.06591 0
M  V30 6006 H 602.891 -2.83651 4.02247 0
M  V30 6007 N 604.543 -1.41418 -0.695603 0
M  V30 6008 C 605.792 -1.40073 -1.4513 0
M  V30 6009 C 606.105 -0.0130439 -1.95596 0
M  V30 6010 O 607.311 0.123032 -2.71221 0
M  V30 6011 C 605.767 -2.46286 -2.62433 0
M  V30 6012 C 605.375 -3.90962 -2.18753 0
M  V30 6013 C 607.119 -2.54077 -3.40066 0
M  V30 6014 C 605.026 -4.88728 -3.33015 0
M  V30 6015 H 603.956 -0.520903 -0.545138 0
M  V30 6016 H 606.607 -1.67242 -0.75515 0
M  V30 6017 H 604.989 -2.12248 -3.34315 0
M  V30 6018 H 606.163 -4.34248 -1.54161 0
M  V30 6019 H 604.478 -3.86831 -1.54114 0
M  V30 6020 H 607.075 -3.24303 -4.25125 0
M  V30 6021 H 607.418 -1.5776 -3.8525 0
M  V30 6022 H 607.951 -2.87206 -2.75241 0
M  V30 6023 H 604.69 -5.86449 -2.92844 0
M  V30 6024 H 604.21 -4.50091 -3.96457 0
M  V30 6025 H 605.889 -5.09483 -3.98793 0
M  V30 6026 N 606.021 0.929856 -1.27246 0
M  V30 6027 C 606.984 2.01172 -1.09829 0
M  V30 6028 C 607.984 1.60743 -0.0429687 0
M  V30 6029 O 609.174 1.71813 -0.287373 0
M  V30 6030 C 606.306 3.34191 -0.673003 0
M  V30 6031 H 607.499 2.18054 -2.05895 0
M  V30 6032 H 605.052 1.11036 -1.10003 0
M  V30 6033 H 605.787 3.23009 0.289134 0
M  V30 6034 H 605.572 3.64892 -1.43515 0
M  V30 6035 H 607.062 4.13646 -0.573323 0
M  V30 6036 N 607.499 1.09233 1.13605 0
M  V30 6037 C 608.449 0.6994 2.17008 0
M  V30 6038 C 609.433 -0.285238 1.58352 0
M  V30 6039 O 610.625 -0.09592 1.7674 0
M  V30 6040 C 607.754 0.11938 3.43092 0
M  V30 6041 C 606.84 1.13031 4.0876 0
M  V30 6042 N 607.231 2.31673 4.49623 0
M  V30 6043 C 605.529 0.967999 4.35369 0
M  V30 6044 C 606.23 2.95964 5.00779 0
M  V30 6045 N 605.206 2.23534 4.95513 0
M  V30 6046 H 609.008 1.60272 2.46354 0
M  V30 6047 H 606.522 0.968257 1.30378 0
M  V30 6048 H 608.519 -0.180122 4.16511 0
M  V30 6049 H 607.179 -0.778816 3.15221 0
M  V30 6050 H 608.19 2.69277 4.42391 0
M  V30 6051 H 604.867 0.124319 4.17315 0
M  V30 6052 H 606.257 3.96813 5.42208 0
M  V30 6053 N 608.977 -1.30795 0.87923 0
M  V30 6054 C 610.223 -1.96653 0.495519 0
M  V30 6055 C 610.556 -1.69282 -0.951703 0
M  V30 6056 O 609.831 -0.994374 -1.6716 0
M  V30 6057 C 610.114 -3.51898 0.764174 0
M  V30 6058 C 609.967 -3.88808 2.2616 0
M  V30 6059 C 611.286 -4.39462 0.236825 0
M  V30 6060 H 608.405 -0.7143 0.181507 0
M  V30 6061 H 611.047 -1.54765 1.10217 0
M  V30 6062 H 609.197 -3.87709 0.247841 0
M  V30 6063 H 610.869 -3.63051 2.8459 0
M  V30 6064 H 609.112 -3.37082 2.73053 0
M  V30 6065 H 609.783 -4.97086 2.4002 0
M  V30 6066 H 612.259 -4.10528 0.678683 0
M  V30 6067 H 611.135 -5.47018 0.454176 0
M  V30 6068 H 611.396 -4.33621 -0.861683 0
M  V30 6069 N 610.455 -0.639598 -1.44038 0
M  V30 6070 C 611.402 0.0602458 -2.30721 0
M  V30 6071 C 612.372 0.828352 -1.43971 0
M  V30 6072 O 613.557 0.807693 -1.72861 0
M  V30 6073 C 610.697 1.03008 -3.29368 0
M  V30 6074 C 609.81 0.259502 -4.3122 0
M  V30 6075 C 608.945 1.22191 -5.16955 0
M  V30 6076 C 607.984 0.440978 -6.10509 0
M  V30 6077 N 607.121 1.35428 -6.88915 0
M  V30 6078 H 611.961 -0.684867 -2.90023 0
M  V30 6079 H 609.498 -0.349509 -1.42888 0
M  V30 6080 H 611.456 1.60583 -3.85057 0
M  V30 6081 H 610.086 1.74222 -2.71747 0
M  V30 6082 H 609.138 -0.432317 -3.77935 0
M  V30 6083 H 610.45 -0.348347 -4.97582 0
M  V30 6084 H 609.604 1.86873 -5.77203 0
M  V30 6085 H 608.343 1.86367 -4.50687 0
M  V30 6086 H 607.348 -0.219279 -5.49363 0
M  V30 6087 H 608.573 -0.196192 -6.78817 0
M  V30 6088 H 606.519 1.9831 -6.25307 0
M  V30 6089 H 606.436 0.800657 -7.51748 0
M  V30 6090 H 607.704 1.98967 -7.53679 0
M  V30 6091 N 611.933 1.52934 -0.380664 0
M  V30 6092 C 612.88 2.26197 0.458641 0
M  V30 6093 C 613.85 1.27462 1.06502 0
M  V30 6094 O 615.035 1.56274 1.09467 0
M  V30 6095 C 612.175 3.06571 1.58456 0
M  V30 6096 C 611.288 4.20222 1.00189 0
M  V30 6097 C 610.423 4.88007 2.09815 0
M  V30 6098 C 609.462 5.93665 1.49092 0
M  V30 6099 N 608.599 6.55081 2.52613 0
M  V30 6100 H 613.439 2.975 -0.172595 0
M  V30 6101 H 610.976 1.4678 -0.0969426 0
M  V30 6102 H 612.934 3.51455 2.24801 0
M  V30 6103 H 611.564 2.37494 2.18624 0
M  V30 6104 H 610.616 3.79714 0.228292 0
M  V30 6105 H 611.928 4.96102 0.518064 0
M  V30 6106 H 611.082 5.36151 2.83948 0
M  V30 6107 H 609.821 4.11632 2.61555 0
M  V30 6108 H 608.826 5.44868 0.7348 0
M  V30 6109 H 610.051 6.71969 0.981582 0
M  V30 6110 H 607.997 5.8155 3.03538 0
M  V30 6111 H 607.914 7.26548 2.08961 0
M  V30 6112 H 609.182 7.07871 3.26402 0
M  V30 6113 N 613.412 0.11024 1.57214 0
M  V30 6114 C 614.344 -0.873497 2.11902 0
M  V30 6115 C 615.357 -1.23588 1.05971 0
M  V30 6116 O 616.546 -1.18636 1.33371 0
M  V30 6117 C 613.646 -2.17805 2.59643 0
M  V30 6118 C 612.819 -1.98869 3.89576 0
M  V30 6119 C 611.878 -3.12974 4.23006 0
M  V30 6120 O 610.904 -2.86272 4.91973 0
M  V30 6121 N 612.106 -4.39167 3.79622 0
M  V30 6122 H 614.871 -0.406317 2.96933 0
M  V30 6123 H 612.432 -0.074437 1.61729 0
M  V30 6124 H 614.424 -2.93117 2.79042 0
M  V30 6125 H 612.994 -2.55899 1.7954 0
M  V30 6126 H 612.214 -1.078 3.79174 0
M  V30 6127 H 613.502 -1.83512 4.74553 0
M  V30 6128 H 612.9 -4.63739 3.2398 0
M  V30 6129 H 611.457 -5.11379 4.04147 0
M  V30 6130 N 614.89 -1.56749 -0.16351 0
M  V30 6131 C 616.13 -1.84234 -0.885271 0
M  V30 6132 C 616.494 -0.692259 -1.79086 0
M  V30 6133 O 617.695 -0.847747 -2.55082 0
M  V30 6134 C 615.966 -3.16857 -1.65337 0
M  V30 6135 S 617.525 -3.65848 -2.42282 0
M  V30 6136 H 614.343 -0.646293 -0.296354 0
M  V30 6137 H 616.945 -1.94951 -0.146365 0
M  V30 6138 H 615.649 -3.98546 -0.979266 0
M  V30 6139 H 615.18 -3.09102 -2.4335 0
M  V30 6140 H 617.195 -3.33796 -3.67143 0
M  V30 6141 N 616.368 0.432326 -1.51554 0
M  V30 6142 C 617.315 1.52512 -1.7323 0
M  V30 6143 C 618.285 1.55863 -0.5741 0
M  V30 6144 O 619.47 1.72796 -0.809093 0
M  V30 6145 C 616.61 2.90183 -1.86783 0
M  V30 6146 C 615.723 2.96322 -3.14352 0
M  V30 6147 C 614.858 4.25147 -3.18471 0
M  V30 6148 C 613.897 4.25172 -4.40335 0
M  V30 6149 N 613.034 5.45529 -4.41975 0
M  V30 6150 H 617.874 1.33332 -2.66508 0
M  V30 6151 H 615.411 0.647613 -1.32077 0
M  V30 6152 H 617.369 3.70071 -1.92623 0
M  V30 6153 H 615.999 3.0791 -0.969087 0
M  V30 6154 H 615.051 2.09066 -3.17798 0
M  V30 6155 H 616.363 2.92203 -4.04251 0
M  V30 6156 H 615.517 5.13411 -3.23255 0
M  V30 6157 H 614.256 4.31929 -2.2647 0
M  V30 6158 H 613.261 3.353 -4.35723 0
M  V30 6159 H 614.486 4.20049 -5.33606 0
M  V30 6160 H 612.432 5.53024 -3.52847 0
M  V30 6161 H 612.349 5.43311 -5.25689 0
M  V30 6162 H 613.617 6.35812 -4.50958 0
M  V30 6163 N 617.846 1.41785 0.688094 0
M  V30 6164 C 618.794 1.44436 1.82321 0
M  V30 6165 C 619.788 0.321544 1.6632 0
M  V30 6166 O 620.994 0.493931 1.73091 0
M  V30 6167 H 617.369 0.452084 0.600936 0
M  V30 6168 H 619.34 2.40087 1.77202 0
M  V30 6169 C 618.089 1.35071 3.20392 0
M  V30 6170 H 617.412 2.2076 3.33324 0
M  V30 6171 H 618.852 1.40988 3.99873 0
M  V30 6172 C 617.311 0.0639127 3.36839 0
M  V30 6173 O 617.841 -0.888495 3.91751 0
M  V30 6174 N 616.047 -0.0146114 2.90596 0
M  V30 6175 H 615.594 0.761191 2.46097 0
M  V30 6176 H 615.552 -0.874988 3.01979 0
M  V30 6177 N 619.324 -0.923095 1.27737 0
M  V30 6178 C 620.57 -1.67375 1.14514 0
M  V30 6179 C 620.903 -1.91751 -0.307424 0
M  V30 6180 O 620.178 -1.51119 -1.22447 0
M  V30 6181 C 620.461 -3.03745 1.9342 0
M  V30 6182 C 620.314 -2.86581 3.46686 0
M  V30 6183 C 621.633 -4.04144 1.74228 0
M  V30 6184 H 618.752 -0.607427 0.417374 0
M  V30 6185 H 621.394 -1.07089 1.56946 0
M  V30 6186 H 619.544 -3.55204 1.5736 0
M  V30 6187 H 621.216 -2.42203 3.92601 0
M  V30 6188 H 619.459 -2.21829 3.72793 0
M  V30 6189 H 620.13 -3.83381 3.97143 0
M  V30 6190 H 622.606 -3.61712 2.05678 0
M  V30 6191 H 621.482 -4.97543 2.31824 0
M  V30 6192 H 621.743 -4.36661 0.691373 0
M  V30 6193 N 620.802 -1.09834 -1.13024 0
M  V30 6194 C 621.734 -0.699379 -2.18269 0
M  V30 6195 C 622.747 0.260841 -1.60697 0
M  V30 6196 O 623.936 0.0462538 -1.7844 0
M  V30 6197 C 621.036 -0.0104537 -3.38898 0
M  V30 6198 C 620.209 -0.993275 -4.25973 0
M  V30 6199 C 619.268 -0.336982 -5.2512 0
M  V30 6200 O 618.294 -0.985892 -5.60597 0
M  V30 6201 N 619.496 0.90716 -5.73368 0
M  V30 6202 H 622.261 -1.60486 -2.5311 0
M  V30 6203 H 619.822 -0.986337 -1.28386 0
M  V30 6204 H 621.814 0.43991 -4.02302 0
M  V30 6205 H 620.384 0.797335 -3.0226 0
M  V30 6206 H 619.604 -1.62208 -3.5928 0
M  V30 6207 H 620.892 -1.65876 -4.81002 0
M  V30 6208 H 620.29 1.45384 -5.46699 0
M  V30 6209 H 618.847 1.30077 -6.38689 0
M  V30 6210 N 622.28 1.30327 -0.886154 0
M  V30 6211 C 623.557 1.90922 -0.425217 0
M  V30 6212 C 623.937 1.80533 1.09413 0
M  V30 6213 O 623.285 1.2233 1.92996 0
M  V30 6214 C 623.495 3.36529 -0.924638 0
M  V30 6215 C 624.843 4.13598 -0.960305 0
M  V30 6216 O 625.867 3.45377 -0.871382 0
M  V30 6217 O 624.726 5.35482 -1.09184 0
M  V30 6218 H 621.82 0.81668 -0.130238 0
M  V30 6219 H 624.366 1.38886 -0.975132 0
M  V30 6220 H 623.138 3.38181 -1.96849 0
M  V30 6221 H 622.761 3.96021 -0.353955 0
M  V30 6222 N 623.758 0.647228 1.43697 0
M  V30 6223 C 624.721 -0.0385101 2.29168 0
M  V30 6224 C 625.721 -0.756487 1.41894 0
M  V30 6225 O 626.911 -0.598641 1.63591 0
M  V30 6226 C 624.043 -1.06524 3.23829 0
M  V30 6227 H 625.236 0.713445 2.9129 0
M  V30 6228 H 622.789 0.408153 1.50877 0
M  V30 6229 H 623.524 -1.84664 2.66589 0
M  V30 6230 H 623.309 -0.554147 3.88164 0
M  V30 6231 H 624.799 -1.54432 3.87996 0
M  V30 6232 N 625.236 -1.5273 0.388769 0
M  V30 6233 C 626.485 -2.00757 -0.194833 0
M  V30 6234 C 626.798 -1.27951 -1.47946 0
M  V30 6235 O 628.004 -1.66686 -2.14308 0
M  V30 6236 C 626.46 -3.57695 -0.397762 0
M  V30 6237 C 626.068 -4.394 0.873583 0
M  V30 6238 C 627.812 -4.14012 -0.937759 0
M  V30 6239 C 625.719 -5.87938 0.638962 0
M  V30 6240 H 624.649 -0.750101 -0.0765845 0
M  V30 6241 H 627.3 -1.76239 0.511086 0
M  V30 6242 H 625.682 -3.7846 -1.16552 0
M  V30 6243 H 626.856 -4.30403 1.64591 0
M  V30 6244 H 625.171 -3.94301 1.33849 0
M  V30 6245 H 627.768 -5.22645 -1.12899 0
M  V30 6246 H 628.111 -3.7007 -1.90666 0
M  V30 6247 H 628.644 -3.97137 -0.229588 0
M  V30 6248 H 625.383 -6.36202 1.57885 0
M  V30 6249 H 624.903 -5.99726 -0.094443 0
M  V30 6250 H 626.582 -6.46423 0.273299 0
M  V30 6251 N 626.714 -0.118576 -1.57153 0
M  V30 6252 C 627.677 0.817464 -2.14127 0
M  V30 6253 C 628.677 1.1949 -1.07604 0
M  V30 6254 O 629.867 1.12048 -1.33382 0
M  V30 6255 C 626.999 2.10541 -2.68115 0
M  V30 6256 H 628.192 0.322339 -2.98163 0
M  V30 6257 H 625.745 0.130655 -1.55753 0
M  V30 6258 H 626.48 2.64485 -1.87665 0
M  V30 6259 H 626.265 1.84425 -3.4602 0
M  V30 6260 H 627.755 2.77453 -3.12105 0
M  V30 6261 N 628.193 1.56834 0.155195 0
M  V30 6262 C 629.47 1.73799 0.897395 0
M  V30 6263 C 629.85 0.684379 1.99698 0
M  V30 6264 O 629.198 -0.298111 2.26547 0
M  V30 6265 C 629.408 3.17572 1.44737 0
M  V30 6266 C 630.756 3.79014 1.91399 0
M  V30 6267 O 631.78 3.20951 1.54496 0
M  V30 6268 O 630.639 4.80998 2.59429 0
M  V30 6269 H 627.733 0.710329 0.423511 0
M  V30 6270 H 630.279 1.69107 0.141761 0
M  V30 6271 H 629.051 3.85749 0.656741 0
M  V30 6272 H 628.674 3.26657 2.26674 0
M  V30 6273 N 629.671 -0.424282 1.51781 0
M  V30 6274 C 630.634 -1.49848 1.73431 0
M  V30 6275 C 631.634 -1.49016 0.604225 0
M  V30 6276 O 632.824 -1.50808 0.871935 0
M  V30 6277 C 629.956 -2.89332 1.80277 0
M  V30 6278 H 631.149 -1.3195 2.69312 0
M  V30 6279 H 628.702 -0.653809 1.41968 0
M  V30 6280 H 629.437 -3.12618 0.862568 0
M  V30 6281 H 629.222 -2.9134 2.62419 0
M  V30 6282 H 630.712 -3.67233 1.98821 0
M  V30 6283 N 631.149 -1.42148 -0.680565 0
M  V30 6284 C 632.059 -1.47565 -1.82378 0
M  V30 6285 C 633.075 -0.36489 -1.70131 0
M  V30 6286 O 634.251 -0.614916 -1.91783 0
M  V30 6287 C 631.316 -1.37013 -3.18478 0
M  V30 6288 C 630.377 -2.58532 -3.42724 0
M  V30 6289 C 629.61 -2.48473 -4.72331 0
M  V30 6290 O 629.833 -1.51745 -5.49845 0
M  V30 6291 O 628.767 -3.38503 -4.97694 0
M  V30 6292 H 632.593 -2.44045 -1.80764 0
M  V30 6293 H 630.178 -1.23849 -0.835569 0
M  V30 6294 H 632.06 -1.33468 -3.99705 0
M  V30 6295 H 630.735 -0.436552 -3.20743 0
M  V30 6296 H 629.642 -2.67652 -2.61368 0
M  V30 6297 H 630.975 -3.50769 -3.45286 0
M  V30 6298 N 632.627 0.916307 -1.28225 0
M  V30 6299 C 633.559 2.02303 -1.07732 0
M  V30 6300 C 634.572 1.62773 -0.0298421 0
M  V30 6301 O 635.761 1.76406 -0.272626 0
M  V30 6302 C 632.861 3.33282 -0.614504 0
M  V30 6303 C 632.034 4.01439 -1.73682 0
M  V30 6304 C 631.093 5.10698 -1.26781 0
M  V30 6305 O 630.119 5.34038 -1.96958 0
M  V30 6306 N 631.321 5.80355 -0.129624 0
M  V30 6307 H 634.086 2.20442 -2.03041 0
M  V30 6308 H 631.647 1.08744 -1.19943 0
M  V30 6309 H 633.639 4.03699 -0.284397 0
M  V30 6310 H 632.209 3.11633 0.245664 0
M  V30 6311 H 631.429 3.24604 -2.23665 0
M  V30 6312 H 632.717 4.43721 -2.48976 0
M  V30 6313 H 632.115 5.6386 0.455847 0
M  V30 6314 H 630.672 6.51647 0.141224 0
M  V30 6315 N 634.105 1.10431 1.1244 0
M  V30 6316 C 635.521 0.836096 1.35947 0
M  V30 6317 C 635.721 -0.544475 1.94004 0
M  V30 6318 O 634.777 -1.29735 2.16622 0
M  V30 6319 C 636.09 1.93575 2.30107 0
M  V30 6320 C 637.638 1.9642 2.43697 0
M  V30 6321 C 638.113 3.05559 3.41171 0
M  V30 6322 N 639.604 3.04865 3.48728 0
M  V30 6323 C 640.339 3.85954 4.24061 0
M  V30 6324 N 639.835 4.76977 5.02458 0
M  V30 6325 N 641.628 3.74172 4.19466 0
M  V30 6326 H 633.779 1.9942 0.731124 0
M  V30 6327 H 636.042 0.866607 0.384312 0
M  V30 6328 H 635.748 2.92943 1.94621 0
M  V30 6329 H 635.622 1.8229 3.30227 0
M  V30 6330 H 638.009 0.97685 2.78463 0
M  V30 6331 H 638.09 2.11782 1.43465 0
M  V30 6332 H 637.734 4.04513 3.07135 0
M  V30 6333 H 637.664 2.87438 4.41234 0
M  V30 6334 H 640.155 2.38908 2.92799 0
M  V30 6335 H 640.468 5.35409 5.57277 0
M  V30 6336 H 638.813 4.81006 5.01655 0
M  V30 6337 H 642.004 3.02412 3.57302 0
M  V30 6338 H 642.177 4.37602 4.77921 0
M  V30 6339 N 635.583 -1.29855 0.893053 0
M  V30 6340 C 636.831 -1.9544 0.514566 0
M  V30 6341 C 637.152 -1.70795 -0.940959 0
M  V30 6342 O 636.422 -1.03601 -1.66264 0
M  V30 6343 H 635.002 -0.723137 0.187302 0
M  V30 6344 H 637.664 -1.58234 1.13789 0
M  V30 6345 H 636.76 -3.04341 0.691581 0
M  V30 6346 N 637.061 -0.65484 -1.43351 0
M  V30 6347 C 637.971 0.0363603 -2.34572 0
M  V30 6348 C 638.987 0.810432 -1.53974 0
M  V30 6349 O 640.163 0.757308 -1.86619 0
M  V30 6350 C 637.228 0.989733 -3.32273 0
M  V30 6351 C 636.289 0.212414 -4.28774 0
M  V30 6352 C 635.522 1.12038 -5.21808 0
M  V30 6353 O 635.745 2.35967 -5.19303 0
M  V30 6354 O 634.679 0.59191 -5.98982 0
M  V30 6355 H 638.505 -0.714527 -2.95175 0
M  V30 6356 H 636.09 -0.415029 -1.4352 0
M  V30 6357 H 637.972 1.53759 -3.92347 0
M  V30 6358 H 636.647 1.72082 -2.74171 0
M  V30 6359 H 635.554 -0.379062 -3.72175 0
M  V30 6360 H 636.887 -0.479138 -4.89862 0
M  V30 6361 N 638.539 1.52521 -0.396863 0
M  V30 6362 C 639.489 2.2348 0.451722 0
M  V30 6363 C 640.473 1.2415 1.0235 0
M  V30 6364 O 641.665 1.4945 0.948348 0
M  V30 6365 C 638.794 3.05067 1.57445 0
M  V30 6366 C 637.88 4.11799 1.01404 0
M  V30 6367 N 638.271 5.05482 0.179234 0
M  V30 6368 C 636.569 4.27064 1.28578 0
M  V30 6369 C 637.27 5.81552 -0.131202 0
M  V30 6370 N 636.246 5.41523 0.474735 0
M  V30 6371 H 640.048 2.93269 -0.192534 0
M  V30 6372 H 637.562 1.61081 -0.206591 0
M  V30 6373 H 639.559 3.54446 2.19485 0
M  V30 6374 H 638.219 2.36816 2.22145 0
M  V30 6375 H 639.23 5.17573 -0.18411 0
M  V30 6376 H 635.907 3.70042 1.93327 0
M  V30 6377 H 637.297 6.67023 -0.808061 0
M  V30 6378 N 640.017 0.126909 1.57088 0
M  V30 6379 C 640.98 -0.806097 2.14557 0
M  V30 6380 C 641.98 -1.18918 1.08236 0
M  V30 6381 O 643.17 -1.11339 1.33975 0
M  V30 6382 C 640.302 -2.09116 2.69227 0
M  V30 6383 H 641.495 -0.306522 2.98329 0
M  V30 6384 H 639.048 -0.122393 1.5582 0
M  V30 6385 H 639.783 -2.63486 1.89065 0
M  V30 6386 H 639.568 -1.82588 3.46993 0
M  V30 6387 H 641.058 -2.75794 3.13572 0
M  V30 6388 N 641.495 -1.56914 -0.146875 0
M  V30 6389 C 642.425 -2.01308 -1.1831 0
M  V30 6390 C 643.406 -0.892664 -1.44795 0
M  V30 6391 O 644.591 -1.16048 -1.55713 0
M  V30 6392 C 641.721 -2.3938 -2.51624 0
M  V30 6393 C 640.675 -3.54608 -2.3966 0
M  V30 6394 C 640.001 -3.78493 -3.77686 0
M  V30 6395 C 641.301 -4.87269 -1.88058 0
M  V30 6396 H 642.995 -2.88123 -0.813964 0
M  V30 6397 H 640.541 -1.38615 -0.3901 0
M  V30 6398 H 642.494 -2.69037 -3.24341 0
M  V30 6399 H 641.218 -1.49502 -2.90373 0
M  V30 6400 H 639.877 -3.25116 -1.69396 0
M  V30 6401 H 639.525 -2.85866 -4.13871 0
M  V30 6402 H 639.225 -4.56039 -3.70543 0
M  V30 6403 H 640.749 -4.10576 -4.51951 0
M  V30 6404 H 642.163 -5.15644 -2.50568 0
M  V30 6405 H 640.56 -5.68622 -1.91805 0
M  V30 6406 H 641.63 -4.77634 -0.836277 0
M  V30 6407 N 642.974 0.416227 -1.52004 0
M  V30 6408 C 643.921 1.50666 -1.74838 0
M  V30 6409 C 644.891 1.55245 -0.590599 0
M  V30 6410 O 646.076 1.71928 -0.827374 0
M  V30 6411 C 643.216 2.88185 -1.89851 0
M  V30 6412 C 642.329 2.92971 -3.17478 0
M  V30 6413 C 641.464 4.21745 -3.22962 0
M  V30 6414 C 640.503 4.20478 -4.4482 0
M  V30 6415 N 639.64 5.40811 -4.47736 0
M  V30 6416 H 644.48 1.30498 -2.67907 0
M  V30 6417 H 642.017 0.633568 -1.32757 0
M  V30 6418 H 643.975 3.68007 -1.96537 0
M  V30 6419 H 642.605 3.06865 -1.00169 0
M  V30 6420 H 641.657 2.05684 -3.19997 0
M  V30 6421 H 642.969 2.87899 -4.07328 0
M  V30 6422 H 642.123 5.09954 -3.28682 0
M  V30 6423 H 640.862 4.29503 -2.31038 0
M  V30 6424 H 639.867 3.30659 -4.39254 0
M  V30 6425 H 641.092 4.14366 -5.38031 0
M  V30 6426 H 639.038 5.4925 -3.58692 0
M  V30 6427 H 638.955 5.37705 -5.31422 0
M  V30 6428 H 640.223 6.30993 -4.57676 0
M  V30 6429 N 644.452 1.42507 0.673017 0
M  V30 6430 C 645.729 1.33554 1.42908 0
M  V30 6431 C 646.109 -0.0262211 2.11084 0
M  V30 6432 O 645.457 -1.04181 2.03368 0
M  V30 6433 C 645.667 2.50498 2.43006 0
M  V30 6434 C 647.015 2.92694 3.07596 0
M  V30 6435 O 648.039 2.50401 2.53333 0
M  V30 6436 O 646.898 3.65899 4.05931 0
M  V30 6437 H 643.992 0.526785 0.637516 0
M  V30 6438 H 646.538 1.54518 0.701591 0
M  V30 6439 H 645.31 3.41272 1.9144 0
M  V30 6440 H 644.933 2.3153 3.23233 0
M  V30 6441 N 645.93 -0.909495 1.28709 0
M  V30 6442 C 646.893 -1.99399 1.13016 0
M  V30 6443 C 647.893 -1.60654 0.068536 0
M  V30 6444 O 649.083 -1.71334 0.314671 0
M  V30 6445 C 646.215 -3.33078 0.726085 0
M  V30 6446 H 647.408 -2.14751 2.09338 0
M  V30 6447 H 644.961 -1.09272 1.11756 0
M  V30 6448 H 645.696 -3.23428 -0.23771 0
M  V30 6449 H 645.481 -3.62562 1.49302 0
M  V30 6450 H 646.971 -4.12681 0.639058 0
M  V30 6451 N 647.408 -1.11026 -1.11852 0
M  V30 6452 C 648.824 -0.843294 -1.35502 0
M  V30 6453 C 649.024 0.534179 -1.9429 0
M  V30 6454 O 648.08 1.28585 -2.17307 0
M  V30 6455 C 649.393 -1.94793 -2.29077 0
M  V30 6456 C 650.941 -1.97709 -2.42652 0
M  V30 6457 C 651.416 -3.07364 -3.39546 0
M  V30 6458 N 652.907 -3.0671 -3.47107 0
M  V30 6459 C 653.642 -3.88197 -4.22008 0
M  V30 6460 N 653.138 -4.79635 -4.99922 0
M  V30 6461 N 654.931 -3.76391 -4.17476 0
M  V30 6462 H 647.082 -1.99805 -0.720538 0
M  V30 6463 H 649.345 -0.868633 -0.379711 0
M  V30 6464 H 649.051 -2.93971 -1.93065 0
M  V30 6465 H 648.925 -1.84039 -3.29256 0
M  V30 6466 H 651.312 -0.991604 -2.77941 0
M  V30 6467 H 651.393 -2.1254 -1.4234 0
M  V30 6468 H 651.037 -4.06136 -3.04985 0
M  V30 6469 H 650.967 -2.89774 -4.39703 0
M  V30 6470 H 653.458 -2.40457 -2.91528 0
M  V30 6471 H 653.771 -5.38357 -5.54429 0
M  V30 6472 H 652.116 -4.8366 -4.99097 0
M  V30 6473 H 655.307 -3.04303 -3.55693 0
M  V30 6474 H 655.48 -4.40131 -4.75593 0
M  V30 6475 N 648.886 1.2938 -0.899927 0
M  V30 6476 C 649.834 2.29675 -0.367698 0
M  V30 6477 C 650.828 1.60787 0.533282 0
M  V30 6478 O 652.034 1.75126 0.416058 0
M  V30 6479 H 648.409 0.745284 -0.100279 0
M  V30 6480 H 650.38 2.72008 -1.22696 0
M  V30 6481 C 649.129 3.45512 0.389483 0
M  V30 6482 H 648.452 3.98713 -0.294575 0
M  V30 6483 H 649.892 4.17725 0.726744 0
M  V30 6484 C 648.351 2.969 1.59223 0
M  V30 6485 O 648.881 2.98195 2.69152 0
M  V30 6486 N 647.087 2.52728 1.43447 0
M  V30 6487 H 646.634 2.51873 0.540148 0
M  V30 6488 H 646.592 2.20561 2.24054 0
M  V30 6489 N 650.364 0.662433 1.43002 0
M  V30 6490 C 651.311 -0.0235324 2.30788 0
M  V30 6491 C 652.281 -0.805342 1.4527 0
M  V30 6492 O 653.466 -0.78009 1.74124 0
M  V30 6493 C 650.606 -0.977545 3.30965 0
M  V30 6494 C 649.719 -0.190865 4.31578 0
M  V30 6495 C 648.854 -1.13951 5.18834 0
M  V30 6496 C 647.893 -0.343796 6.11134 0
M  V30 6497 N 647.03 -1.2445 6.90982 0
M  V30 6498 H 651.87 0.730921 2.88897 0
M  V30 6499 H 649.407 0.372197 1.42313 0
M  V30 6500 H 651.365 -1.54437 3.87563 0
M  V30 6501 H 649.995 -1.69877 2.74484 0
M  V30 6502 H 649.047 0.492388 3.772 0
M  V30 6503 H 650.359 0.427464 4.96965 0
M  V30 6504 H 649.513 -1.77666 5.80103 0
M  V30 6505 H 648.252 -1.79174 4.53595 0
M  V30 6506 H 647.257 0.30665 5.48944 0
M  V30 6507 H 648.482 0.304161 6.78419 0
M  V30 6508 H 646.428 -1.88336 6.28383 0
M  V30 6509 H 646.345 -0.680959 7.52927 0
M  V30 6510 H 647.613 -1.86952 7.56749 0
M  V30 6511 N 651.842 -1.52309 0.404946 0
M  V30 6512 C 652.772 -2.29805 -0.41376 0
M  V30 6513 C 653.753 -1.3384 -1.0498 0
M  V30 6514 O 654.938 -1.62745 -1.05961 0
M  V30 6515 C 652.068 -3.11639 -1.53292 0
M  V30 6516 C 651.022 -4.15616 -1.02211 0
M  V30 6517 C 650.348 -4.8577 -2.23455 0
M  V30 6518 C 651.648 -5.2224 -0.0790725 0
M  V30 6519 H 653.342 -2.98493 0.232878 0
M  V30 6520 H 650.888 -1.43552 0.113441 0
M  V30 6521 H 652.841 -3.64618 -2.11262 0
M  V30 6522 H 651.565 -2.40712 -2.20738 0
M  V30 6523 H 650.224 -3.63641 -0.46484 0
M  V30 6524 H 649.872 -4.11376 -2.89445 0
M  V30 6525 H 649.572 -5.56058 -1.89929 0
M  V30 6526 H 651.096 -5.4156 -2.82038 0
M  V30 6527 H 652.51 -5.70485 -0.567438 0
M  V30 6528 H 650.907 -5.99867 0.167167 0
M  V30 6529 H 651.977 -4.77078 0.867447 0
M  V30 6530 N 653.32 -0.135238 -1.57019 0
M  V30 6531 C 654.268 0.826099 -2.17436 0
M  V30 6532 C 655.262 1.26378 -1.12805 0
M  V30 6533 O 656.468 1.23363 -1.31079 0
M  V30 6534 H 652.843 0.284568 -0.696078 0
M  V30 6535 H 654.814 0.292212 -2.96966 0
M  V30 6536 C 653.563 2.05991 -2.80112 0
M  V30 6537 H 652.886 1.73209 -3.60331 0
M  V30 6538 H 654.326 2.71225 -3.25903 0
M  V30 6539 C 652.785 2.86027 -1.78017 0
M  V30 6540 O 653.315 3.81971 -1.24344 0
M  V30 6541 N 651.521 2.50332 -1.47588 0
M  V30 6542 H 651.068 1.72377 -1.91426 0
M  V30 6543 H 651.026 3.04177 -0.795228 0
M  V30 6544 N 654.798 1.5699 0.138552 0
M  V30 6545 C 656.075 1.74741 0.87891 0
M  V30 6546 C 656.455 0.705522 1.98961 0
M  V30 6547 O 655.803 -0.274066 2.2685 0
M  V30 6548 C 656.013 3.1909 1.4136 0
M  V30 6549 C 657.361 3.81023 1.87368 0
M  V30 6550 O 658.385 3.22571 1.51084 0
M  V30 6551 O 657.244 4.83722 2.54312 0
M  V30 6552 H 654.338 0.714781 0.415953 0
M  V30 6553 H 656.884 1.69248 0.123817 0
M  V30 6554 H 655.656 3.86424 0.61579 0
M  V30 6555 H 655.279 3.29043 2.23196 0
M  V30 6556 N 656.276 -0.40816 1.52223 0
M  V30 6557 C 657.206 -1.5042 1.78595 0
M  V30 6558 C 658.187 -1.57723 0.636974 0
M  V30 6559 O 659.372 -1.72982 0.882664 0
M  V30 6560 C 656.502 -2.88232 1.93751 0
M  V30 6561 C 655.456 -2.95779 3.09352 0
M  V30 6562 C 654.782 -4.35855 3.09732 0
M  V30 6563 C 656.082 -2.67175 4.48793 0
M  V30 6564 H 657.776 -1.28601 2.70374 0
M  V30 6565 H 655.322 -0.617221 1.30101 0
M  V30 6566 H 657.275 -3.64895 2.10783 0
M  V30 6567 H 655.999 -3.11347 0.986443 0
M  V30 6568 H 654.658 -2.21561 2.92072 0
M  V30 6569 H 654.306 -4.55981 2.12346 0
M  V30 6570 H 654.006 -4.41829 3.87377 0
M  V30 6571 H 655.53 -5.14451 3.28895 0
M  V30 6572 H 656.944 -3.3356 4.66273 0
M  V30 6573 H 655.341 -2.84523 5.28362 0
M  V30 6574 H 656.411 -1.62609 4.56822 0
M  V30 6575 N 657.755 -1.42862 -0.66545 0
M  V30 6576 C 658.665 -1.49491 -1.80803 0
M  V30 6577 C 659.681 -0.382914 -1.69734 0
M  V30 6578 O 660.857 -0.635223 -1.9112 0
M  V30 6579 C 657.922 -1.40383 -3.17007 0
M  V30 6580 C 656.983 -2.62152 -3.39963 0
M  V30 6581 C 656.216 -2.53469 -4.69669 0
M  V30 6582 O 656.439 -1.57568 -5.48205 0
M  V30 6583 O 655.373 -3.43763 -4.94075 0
M  V30 6584 H 659.199 -2.45949 -1.78165 0
M  V30 6585 H 656.784 -1.24728 -0.822387 0
M  V30 6586 H 658.666 -1.377 -3.98267 0
M  V30 6587 H 657.341 -0.470546 -3.20262 0
M  V30 6588 H 656.248 -2.70409 -2.58515 0
M  V30 6589 H 657.581 -3.54411 -3.41546 0
M  V30 6590 N 659.233 0.902656 -1.29189 0
M  V30 6591 C 660.143 2.03946 -1.15944 0
M  V30 6592 C 661.159 1.738 -0.0833803 0
M  V30 6593 O 662.335 1.9923 -0.29487 0
M  V30 6594 C 659.4 3.36519 -0.834006 0
M  V30 6595 C 658.461 3.80203 -1.9936 0
M  V30 6596 C 657.694 5.06449 -1.68359 0
M  V30 6597 O 657.917 5.67202 -0.603141 0
M  V30 6598 O 656.851 5.46114 -2.53067 0
M  V30 6599 H 660.677 2.18043 -2.11403 0
M  V30 6600 H 658.262 1.02584 -1.08613 0
M  V30 6601 H 660.144 4.16089 -0.666949 0
M  V30 6602 H 658.819 3.23573 0.0908245 0
M  V30 6603 H 657.726 3.01413 -2.21588 0
M  V30 6604 H 659.059 3.97729 -2.89952 0
M  V30 6605 N 660.711 1.11618 1.11262 0
M  V30 6606 C 661.674 0.779447 2.15539 0
M  V30 6607 C 662.674 -0.202081 1.59525 0
M  V30 6608 O 663.864 0.0226356 1.74185 0
M  V30 6609 C 660.996 0.15674 3.40539 0
M  V30 6610 H 662.189 1.70324 2.4684 0
M  V30 6611 H 659.742 0.918298 1.26479 0
M  V30 6612 H 660.477 -0.777186 3.1485 0
M  V30 6613 H 660.262 0.863308 3.82478 0
M  V30 6614 H 661.752 -0.062661 4.17553 0
M  V30 6615 N 662.189 -1.289 0.906776 0
M  V30 6616 C 663.119 -2.29932 0.406659 0
M  V30 6617 C 664.1 -1.6189 -0.522061 0
M  V30 6618 O 665.285 -1.8935 -0.431283 0
M  V30 6619 C 662.415 -3.45425 -0.360366 0
M  V30 6620 C 661.369 -4.25316 0.478574 0
M  V30 6621 C 660.695 -5.33076 -0.416373 0
M  V30 6622 C 661.995 -4.92739 1.7322 0
M  V30 6623 H 663.689 -2.72013 1.25097 0
M  V30 6624 H 661.235 -1.30768 0.602977 0
M  V30 6625 H 663.188 -4.15186 -0.721029 0
M  V30 6626 H 661.912 -3.02206 -1.23852 0
M  V30 6627 H 660.571 -3.57273 0.821662 0
M  V30 6628 H 660.219 -4.86101 -1.29287 0
M  V30 6629 H 659.919 -5.8743 0.141309 0
M  V30 6630 H 661.443 -6.05686 -0.773072 0
M  V30 6631 H 662.857 -5.54898 1.44086 0
M  V30 6632 H 661.254 -5.57057 2.23175 0
M  V30 6633 H 662.324 -4.17625 2.46408 0
M  V30 6634 N 663.667 -0.670007 -1.42649 0
M  V30 6635 C 664.599 0.0501746 -2.29145 0
M  V30 6636 C 665.612 0.770331 -1.43422 0
M  V30 6637 O 666.801 0.625288 -1.6719 0
M  V30 6638 C 663.901 1.09463 -3.20735 0
M  V30 6639 C 663.074 0.44926 -4.35087 0
M  V30 6640 C 662.133 1.39285 -5.07431 0
M  V30 6641 O 661.159 0.894997 -5.6212 0
M  V30 6642 N 662.361 2.72631 -5.12496 0
M  V30 6643 H 665.126 -0.692312 -2.91594 0
M  V30 6644 H 662.687 -0.514056 -1.53522 0
M  V30 6645 H 664.679 1.72705 -3.65999 0
M  V30 6646 H 663.249 1.73891 -2.59771 0
M  V30 6647 H 662.469 -0.362573 -3.92529 0
M  V30 6648 H 663.757 -0.000544776 -5.088 0
M  V30 6649 H 663.155 3.15623 -4.69467 0
M  V30 6650 H 661.712 3.31132 -5.61422 0
M  V30 6651 N 665.145 1.52092 -0.413018 0
M  V30 6652 C 666.077 2.24819 0.445994 0
M  V30 6653 C 667.09 1.27925 1.00692 0
M  V30 6654 O 668.279 1.53845 0.905204 0
M  V30 6655 C 665.379 2.96951 1.6332 0
M  V30 6656 C 664.552 4.20746 1.19548 0
M  V30 6657 C 663.611 4.75668 2.25003 0
M  V30 6658 O 662.637 5.38148 1.85434 0
M  V30 6659 N 663.839 4.57579 3.57214 0
M  V30 6660 H 666.604 2.99176 -0.177209 0
M  V30 6661 H 664.165 1.60102 -0.240601 0
M  V30 6662 H 666.157 3.30586 2.33441 0
M  V30 6663 H 664.727 2.25756 2.16225 0
M  V30 6664 H 663.947 3.92881 0.32224 0
M  V30 6665 H 665.235 5.01132 0.880033 0
M  V30 6666 H 664.633 4.07758 3.92109 0
M  V30 6667 H 663.19 4.95642 4.23299 0
M  V30 6668 N 666.623 0.143563 1.56945 0
M  V30 6669 C 667.586 -0.783295 2.154 0
M  V30 6670 C 668.586 -1.17763 1.09492 0
M  V30 6671 O 669.776 -1.09912 1.35148 0
M  V30 6672 C 666.908 -2.06248 2.7143 0
M  V30 6673 H 668.101 -0.274863 2.98638 0
M  V30 6674 H 665.654 -0.105859 1.55941 0
M  V30 6675 H 666.389 -2.61466 1.91849 0
M  V30 6676 H 666.174 -1.78897 3.4891 0
M  V30 6677 H 667.664 -2.72453 3.16479 0
M  V30 6678 N 668.101 -1.57061 -0.130224 0
M  V30 6679 C 669.048 -1.99517 -1.16024 0
M  V30 6680 C 670.018 -0.865452 -1.41771 0
M  V30 6681 O 671.203 -1.12882 -1.53826 0
M  V30 6682 C 668.343 -2.3951 -2.48453 0
M  V30 6683 C 667.456 -3.65848 -2.29737 0
M  V30 6684 C 666.591 -3.9487 -3.55318 0
M  V30 6685 C 665.63 -5.14426 -3.31711 0
M  V30 6686 N 664.767 -5.39375 -4.49466 0
M  V30 6687 H 669.607 -2.87305 -0.791194 0
M  V30 6688 H 667.144 -1.42129 -0.379195 0
M  V30 6689 H 669.102 -2.60731 -3.25692 0
M  V30 6690 H 667.732 -1.54779 -2.83272 0
M  V30 6691 H 666.784 -3.52307 -1.4347 0
M  V30 6692 H 668.096 -4.53241 -2.08263 0
M  V30 6693 H 667.25 -4.16679 -4.4098 0
M  V30 6694 H 665.989 -3.05931 -3.79813 0
M  V30 6695 H 664.994 -4.92473 -2.44439 0
M  V30 6696 H 666.219 -6.04933 -3.08598 0
M  V30 6697 H 664.165 -4.53391 -4.74102 0
M  V30 6698 H 664.082 -6.21069 -4.31055 0
M  V30 6699 H 665.35 -5.65694 -5.36293 0
M  V30 6700 N 669.579 0.400081 -1.52437 0
M  V30 6701 C 670.489 1.51253 -1.79331 0
M  V30 6702 C 671.505 1.60188 -0.679396 0
M  V30 6703 O 672.681 1.76733 -0.965791 0
M  V30 6704 C 669.746 2.869 -1.94652 0
M  V30 6705 C 668.807 2.87777 -3.18564 0
M  V30 6706 C 668.04 4.16954 -3.33145 0
M  V30 6707 O 668.263 5.11329 -2.52783 0
M  V30 6708 O 667.197 4.2487 -4.26343 0
M  V30 6709 H 671.023 1.31461 -2.73773 0
M  V30 6710 H 668.608 0.586834 -1.37392 0
M  V30 6711 H 670.49 3.67336 -2.065 0
M  V30 6712 H 669.165 3.06741 -1.034 0
M  V30 6713 H 668.072 2.06162 -3.12167 0
M  V30 6714 H 669.405 2.72886 -4.09627 0
M  V30 6715 N 671.057 1.43213 0.657864 0
M  V30 6716 C 672.334 1.35063 1.41483 0
M  V30 6717 C 672.714 -0.0038314 2.111 0
M  V30 6718 O 672.062 -1.02018 2.04462 0
M  V30 6719 C 672.272 2.53061 2.40335 0
M  V30 6720 C 673.62 2.9594 3.04474 0
M  V30 6721 O 674.644 2.53074 2.50663 0
M  V30 6722 O 673.503 3.70184 4.02027 0
M  V30 6723 H 670.597 0.533517 0.631893 0
M  V30 6724 H 673.143 1.55253 0.685162 0
M  V30 6725 H 671.915 3.43283 1.87809 0
M  V30 6726 H 671.538 2.34945 3.20759 0
M  V30 6727 N 672.536 -0.895792 1.29666 0
M  V30 6728 C 673.466 -2.01673 1.17688 0
M  V30 6729 C 674.447 -1.69955 0.0701317 0
M  V30 6730 O 675.632 -1.9258 0.250289 0
M  V30 6731 C 672.762 -3.36568 0.856681 0
M  V30 6732 C 671.716 -3.82509 1.92017 0
M  V30 6733 C 671.042 -5.14574 1.4532 0
M  V30 6734 C 672.342 -4.02409 3.32963 0
M  V30 6735 H 674.036 -2.11953 2.11463 0
M  V30 6736 H 671.582 -1.01839 1.01807 0
M  V30 6737 H 673.535 -4.14498 0.759577 0
M  V30 6738 H 672.259 -3.26391 -0.116763 0
M  V30 6739 H 670.918 -3.068 2.00673 0
M  V30 6740 H 670.566 -5.00815 0.468325 0
M  V30 6741 H 670.266 -5.46283 2.16447 0
M  V30 6742 H 671.79 -5.9504 1.36968 0
M  V30 6743 H 673.204 -4.70808 3.27127 0
M  V30 6744 H 671.601 -4.45478 4.02082 0
M  V30 6745 H 672.671 -3.06616 3.75652 0
M  V30 6746 N 674.014 -1.12206 -1.10668 0
M  V30 6747 C 674.977 -0.790867 -2.15123 0
M  V30 6748 C 675.977 0.193618 -1.5963 0
M  V30 6749 O 677.167 -0.0318728 -1.74171 0
M  V30 6750 C 674.299 -0.174797 -3.40452 0
M  V30 6751 H 675.492 -1.7163 -2.45933 0
M  V30 6752 H 673.045 -0.924993 -1.2599 0
M  V30 6753 H 673.78 0.760478 -3.15257 0
M  V30 6754 H 673.565 -0.88358 -3.82015 0
M  V30 6755 H 675.055 0.0405162 -4.1758 0
M  V30 6756 N 675.492 1.28418 -0.913599 0
M  V30 6757 C 676.908 1.47411 -0.611728 0
M  V30 6758 C 677.108 1.83018 0.843008 0
M  V30 6759 O 676.164 1.93505 1.6221 0
M  V30 6760 C 677.477 2.57703 -1.5495 0
M  V30 6761 C 679.025 2.71572 -1.5562 0
M  V30 6762 C 679.5 3.85008 -2.48058 0
M  V30 6763 N 680.991 3.92361 -2.46184 0
M  V30 6764 C 681.726 4.79516 -3.14407 0
M  V30 6765 N 681.222 5.71262 -3.91958 0
M  V30 6766 N 683.015 4.73125 -3.03495 0
M  V30 6767 H 675.166 1.03585 -1.85429 0
M  V30 6768 H 677.429 0.515907 -0.795326 0
M  V30 6769 H 677.135 2.38298 -2.58663 0
M  V30 6770 H 677.009 3.54801 -1.28048 0
M  V30 6771 H 679.396 2.90366 -0.526441 0
M  V30 6772 H 679.477 1.75006 -1.86565 0
M  V30 6773 H 679.121 3.66969 -3.51136 0
M  V30 6774 H 679.051 4.80971 -2.14416 0
M  V30 6775 H 681.542 3.26749 -1.89851 0
M  V30 6776 H 681.855 6.34593 -4.41034 0
M  V30 6777 H 680.2 5.71103 -3.96063 0
M  V30 6778 H 683.391 4.00442 -2.42413 0
M  V30 6779 H 683.564 5.40834 -3.56935 0
M  V30 6780 N 676.97 0.677563 1.42291 0
M  V30 6781 C 677.9 0.014968 2.33495 0
M  V30 6782 C 678.881 -0.786376 1.50831 0
M  V30 6783 O 680.066 -0.742975 1.79426 0
M  V30 6784 C 677.196 -0.935023 3.34477 0
M  V30 6785 C 676.15 -0.242074 4.27315 0
M  V30 6786 C 675.476 -1.30519 5.18526 0
M  V30 6787 C 676.776 0.880604 5.14823 0
M  V30 6788 H 678.47 0.776671 2.89151 0
M  V30 6789 H 676.016 0.37494 1.39033 0
M  V30 6790 H 677.969 -1.40766 3.97194 0
M  V30 6791 H 676.693 -1.72818 2.77131 0
M  V30 6792 H 675.352 0.210351 3.65996 0
M  V30 6793 H 675 -2.09041 4.57505 0
M  V30 6794 H 674.7 -0.846652 5.81468 0
M  V30 6795 H 676.224 -1.7787 5.84119 0
M  V30 6796 H 677.638 0.489062 5.7121 0
M  V30 6797 H 676.035 1.26511 5.86613 0
M  V30 6798 H 677.105 1.72818 4.53059 0
M  V30 6799 N 678.448 -1.51871 0.421078 0
M  V30 6800 C 679.378 -2.30231 -0.389363 0
M  V30 6801 C 680.359 -1.34946 -1.03555 0
M  V30 6802 O 681.544 -1.63859 -1.04229 0
M  V30 6803 C 678.674 -3.13247 -1.49979 0
M  V30 6804 C 677.628 -4.16677 -0.977966 0
M  V30 6805 C 676.954 -4.88112 -2.1829 0
M  V30 6806 C 678.254 -5.22295 -0.0236775 0
M  V30 6807 H 679.948 -2.98229 0.264524 0
M  V30 6808 H 677.494 -1.43424 0.12866 0
M  V30 6809 H 679.447 -3.66838 -2.07383 0
M  V30 6810 H 678.171 -2.4304 -2.18173 0
M  V30 6811 H 676.83 -3.64114 -0.426245 0
M  V30 6812 H 676.478 -4.14423 -2.85066 0
M  V30 6813 H 676.178 -5.58041 -1.84021 0
M  V30 6814 H 677.702 -5.44521 -2.76278 0
M  V30 6815 H 679.116 -5.71055 -0.506899 0
M  V30 6816 H 677.513 -5.99656 0.230782 0
M  V30 6817 H 678.583 -4.76131 0.917999 0
M  V30 6818 N 679.926 -0.151884 -1.56866 0
M  V30 6819 C 681.342 0.204486 -1.58285 0
M  V30 6820 C 681.542 1.6431 -1.16639 0
M  V30 6821 O 680.598 2.37077 -0.868946 0
M  V30 6822 C 681.911 -0.0587019 -3.00643 0
M  V30 6823 C 683.459 0.00462303 -3.13 0
M  V30 6824 C 683.934 -0.231297 -4.57416 0
M  V30 6825 N 685.425 -0.178394 -4.62856 0
M  V30 6826 C 686.16 -0.335379 -5.72418 0
M  V30 6827 N 685.656 -0.550355 -6.90611 0
M  V30 6828 N 687.449 -0.272641 -5.61438 0
M  V30 6829 H 679.6 -1.09116 -1.82229 0
M  V30 6830 H 681.863 -0.432311 -0.843689 0
M  V30 6831 H 681.569 -1.05453 -3.35518 0
M  V30 6832 H 681.443 0.658508 -3.71407 0
M  V30 6833 H 683.83 0.991009 -2.77962 0
M  V30 6834 H 683.911 -0.744992 -2.44711 0
M  V30 6835 H 683.555 -1.2148 -4.93158 0
M  V30 6836 H 683.485 0.5387 -5.23837 0
M  V30 6837 H 685.976 -0.0170923 -3.77896 0
M  V30 6838 H 686.289 -0.660116 -7.69976 0
M  V30 6839 H 684.634 -0.586736 -6.92519 0
M  V30 6840 H 687.825 -0.105421 -4.67981 0
M  V30 6841 H 687.998 -0.398418 -6.46774 0
M  V30 6842 N 681.404 1.57128 0.121893 0
M  V30 6843 C 682.681 1.75664 0.860327 0
M  V30 6844 C 683.061 0.726585 1.98202 0
M  V30 6845 O 682.409 -0.24999 2.27128 0
M  V30 6846 C 682.619 3.20571 1.37968 0
M  V30 6847 C 683.967 3.82988 1.83317 0
M  V30 6848 O 684.991 3.24156 1.47654 0
M  V30 6849 O 683.85 4.86393 2.49168 0
M  V30 6850 H 680.944 0.719153 0.408348 0
M  V30 6851 H 683.49 1.6937 0.105859 0
M  V30 6852 H 682.262 3.87056 0.57477 0
M  V30 6853 H 681.885 3.31392 2.19694 0
M  V30 6854 N 682.882 -0.391992 1.52647 0
M  V30 6855 C 684.112 -1.15692 1.71169 0
M  V30 6856 C 684.52 -1.84285 0.428444 0
M  V30 6857 O 683.863 -1.73393 -0.606669 0
M  V30 6858 C 683.925 -2.25033 2.80357 0
M  V30 6859 C 683.589 -1.76433 4.21569 0
M  V30 6860 C 684.586 -1.2427 5.0483 0
M  V30 6861 C 682.271 -1.82746 4.67877 0
M  V30 6862 C 684.265 -0.790657 6.32477 0
M  V30 6863 C 681.952 -1.37153 5.9551 0
M  V30 6864 C 682.95 -0.853997 6.7764 0
M  V30 6865 O 682.638 -0.404708 8.02881 0
M  V30 6866 H 682.37 -0.35297 0.576531 0
M  V30 6867 H 684.924 -0.464994 2.00067 0
M  V30 6868 H 683.154 -2.97641 2.46874 0
M  V30 6869 H 684.843 -2.86718 2.87311 0
M  V30 6870 H 685.609 -1.18752 4.70237 0
M  V30 6871 H 681.488 -2.21971 4.04042 0
M  V30 6872 H 685.032 -0.386024 6.96531 0
M  V30 6873 H 680.929 -1.42356 6.29607 0
M  V30 6874 H 681.697 -0.526459 8.16805 0
M  V30 6875 N 684.36 -1.4356 -0.65026 0
M  V30 6876 C 685.292 -1.44918 -1.77571 0
M  V30 6877 C 686.305 -0.344925 -1.59104 0
M  V30 6878 O 687.494 -0.609537 -1.6777 0
M  V30 6879 C 684.594 -1.24914 -3.15039 0
M  V30 6880 C 683.767 -2.48232 -3.60138 0
M  V30 6881 C 682.826 -2.23409 -4.76419 0
M  V30 6882 O 681.852 -2.9678 -4.85706 0
M  V30 6883 N 683.054 -1.25259 -5.66825 0
M  V30 6884 H 685.819 -2.41935 -1.76883 0
M  V30 6885 H 683.38 -1.38754 -0.834202 0
M  V30 6886 H 685.372 -1.06185 -3.90521 0
M  V30 6887 H 683.942 -0.363319 -3.10481 0
M  V30 6888 H 683.162 -2.82366 -2.75069 0
M  V30 6889 H 684.45 -3.30296 -3.87017 0
M  V30 6890 H 683.848 -0.646246 -5.61997 0
M  V30 6891 H 682.405 -1.12513 -6.42016 0
M  V30 6892 N 685.838 0.888903 -1.30139 0
M  V30 6893 C 686.748 2.02705 -1.18101 0
M  V30 6894 C 687.764 1.73702 -0.101809 0
M  V30 6895 O 688.94 1.98906 -0.315984 0
M  V30 6896 C 686.005 3.35616 -0.869651 0
M  V30 6897 C 685.066 3.78067 -2.03381 0
M  V30 6898 C 684.299 5.04635 -1.73721 0
M  V30 6899 O 684.522 5.66531 -0.663267 0
M  V30 6900 O 683.456 5.43399 -2.58845 0
M  V30 6901 H 687.282 2.15788 -2.13704 0
M  V30 6902 H 684.867 1.01426 -1.09695 0
M  V30 6903 H 686.749 4.15358 -0.711043 0
M  V30 6904 H 685.424 3.23651 0.0565002 0
M  V30 6905 H 684.331 2.99046 -2.24772 0
M  V30 6906 H 685.664 3.94631 -2.94155 0
M  V30 6907 N 687.317 1.12792 1.10072 0
M  V30 6908 C 688.247 0.821688 2.18565 0
M  V30 6909 C 689.228 -0.21612 1.68721 0
M  V30 6910 O 690.413 -0.0764932 1.94049 0
M  V30 6911 C 687.543 0.279624 3.46172 0
M  V30 6912 C 686.497 1.25092 4.09312 0
M  V30 6913 C 685.823 0.568916 5.31665 0
M  V30 6914 C 687.123 2.60699 4.52585 0
M  V30 6915 H 688.817 1.72888 2.44438 0
M  V30 6916 H 686.363 0.832702 1.17482 0
M  V30 6917 H 688.316 0.053099 4.21367 0
M  V30 6918 H 687.04 -0.662929 3.19801 0
M  V30 6919 H 685.699 1.46332 3.36129 0
M  V30 6920 H 685.347 -0.378898 5.01571 0
M  V30 6921 H 685.047 1.21687 5.74862 0
M  V30 6922 H 686.571 0.351517 6.09587 0
M  V30 6923 H 687.985 2.43465 5.19035 0
M  V30 6924 H 686.382 3.21608 5.06644 0
M  V30 6925 H 687.452 3.1886 3.65317 0
M  V30 6926 N 688.795 -1.27931 0.920396 0
M  V30 6927 C 689.728 -2.2537 0.358285 0
M  V30 6928 C 690.706 -1.53328 -0.541242 0
M  V30 6929 O 691.89 -1.82196 -0.483399 0
M  V30 6930 C 689.017 -3.35178 -0.487193 0
M  V30 6931 C 688.063 -4.25079 0.347881 0
M  V30 6932 S 688.896 -5.05792 1.75883 0
M  V30 6933 C 690.052 -6.19089 0.920832 0
M  V30 6934 H 690.285 -2.72701 1.18413 0
M  V30 6935 H 687.818 -1.36474 0.722088 0
M  V30 6936 H 689.776 -3.98895 -0.96916 0
M  V30 6937 H 688.437 -2.865 -1.28749 0
M  V30 6938 H 687.63 -5.03113 -0.298912 0
M  V30 6939 H 687.232 -3.66119 0.763748 0
M  V30 6940 H 689.524 -6.77326 0.15349 0
M  V30 6941 H 690.467 -6.8803 1.67394 0
M  V30 6942 H 690.875 -5.62573 0.466069 0
M  V30 6943 N 690.273 -0.685099 -1.4193 0
M  V30 6944 C 691.221 -0.00165985 -2.326 0
M  V30 6945 C 692.215 0.779678 -1.50391 0
M  V30 6946 O 693.421 0.68648 -1.66395 0
M  V30 6947 H 689.796 0.0182616 -0.751778 0
M  V30 6948 H 691.767 -0.783592 -2.87928 0
M  V30 6949 C 690.516 0.928385 -3.35077 0
M  V30 6950 H 689.839 0.336578 -3.98381 0
M  V30 6951 H 691.279 1.37509 -4.01083 0
M  V30 6952 C 689.738 2.03964 -2.68142 0
M  V30 6953 O 690.268 3.12727 -2.5212 0
M  V30 6954 N 688.474 1.81433 -2.27003 0
M  V30 6955 H 688.021 0.929807 -2.40234 0
M  V30 6956 H 687.979 2.55973 -1.82552 0
M  V30 6957 N 691.751 1.51645 -0.429126 0
M  V30 6958 C 692.997 2.02314 0.140286 0
M  V30 6959 C 693.33 1.31314 1.43074 0
M  V30 6960 O 692.605 0.425531 1.89788 0
M  V30 6961 C 692.888 3.5822 0.36749 0
M  V30 6962 C 692.741 4.39846 -0.941039 0
M  V30 6963 C 694.06 4.25055 1.14089 0
M  V30 6964 H 691.179 0.735335 0.0495112 0
M  V30 6965 H 693.821 1.81358 -0.566514 0
M  V30 6966 H 691.971 3.76207 0.969556 0
M  V30 6967 H 693.643 4.33527 -1.57646 0
M  V30 6968 H 691.886 4.05259 -1.54751 0
M  V30 6969 H 692.557 5.47069 -0.73621 0
M  V30 6970 H 695.033 4.11288 0.630986 0
M  V30 6971 H 693.909 5.34038 1.26863 0
M  V30 6972 H 694.17 3.85358 2.16683 0
M  V30 6973 N 693.229 0.160201 1.56784 0
M  V30 6974 C 694.176 -0.774416 2.1742 0
M  V30 6975 C 695.146 -1.23483 1.11091 0
M  V30 6976 O 696.331 -1.30499 1.39193 0
M  V30 6977 C 693.471 -2.00283 2.81035 0
M  V30 6978 C 692.584 -1.58701 4.01793 0
M  V30 6979 C 691.719 -2.76824 4.53367 0
M  V30 6980 C 690.758 -2.31679 5.66561 0
M  V30 6981 N 689.895 -3.42856 6.12694 0
M  V30 6982 H 694.735 -0.250542 2.96945 0
M  V30 6983 H 692.272 -0.111943 1.46673 0
M  V30 6984 H 694.23 -2.72316 3.16069 0
M  V30 6985 H 692.86 -2.5006 2.04132 0
M  V30 6986 H 691.912 -0.76384 3.72652 0
M  V30 6987 H 693.224 -1.21555 4.83762 0
M  V30 6988 H 692.378 -3.57029 4.90525 0
M  V30 6989 H 691.117 -3.17223 3.70433 0
M  V30 6990 H 690.122 -1.49917 5.28966 0
M  V30 6991 H 691.347 -1.9235 6.5129 0
M  V30 6992 H 689.293 -3.82852 5.32692 0
M  V30 6993 H 689.21 -3.09767 6.89624 0
M  V30 6994 H 690.478 -4.23379 6.545 0
M  V30 6995 N 694.707 -1.5719 -0.113559 0
M  V30 6996 C 695.637 -2.03772 -1.14013 0
M  V30 6997 C 696.618 -0.923176 -1.42869 0
M  V30 6998 O 697.803 -1.19325 -1.53216 0
M  V30 6999 C 694.933 -2.44663 -2.4649 0
M  V30 7000 C 693.887 -3.59612 -2.32085 0
M  V30 7001 C 693.213 -3.8642 -3.69573 0
M  V30 7002 C 694.513 -4.91149 -1.7768 0
M  V30 7003 H 696.207 -2.89785 -0.752665 0
M  V30 7004 H 693.753 -1.39412 -0.360609 0
M  V30 7005 H 695.706 -2.75857 -3.18561 0
M  V30 7006 H 694.43 -1.55628 -2.87137 0
M  V30 7007 H 693.089 -3.28636 -1.62461 0
M  V30 7008 H 692.737 -2.94581 -4.07715 0
M  V30 7009 H 692.437 -4.63797 -3.60786 0
M  V30 7010 H 693.961 -4.2007 -4.4314 0
M  V30 7011 H 695.375 -5.20843 -2.39574 0
M  V30 7012 H 693.772 -5.72562 -1.79701 0
M  V30 7013 H 694.842 -4.79301 -0.734776 0
M  V30 7014 N 696.185 0.383891 -1.52853 0
M  V30 7015 C 697.148 1.45197 -1.77343 0
M  V30 7016 C 698.148 1.47362 -0.643522 0
M  V30 7017 O 699.338 1.48443 -0.911613 0
M  V30 7018 C 696.47 2.8445 -1.87885 0
M  V30 7019 H 697.663 1.24764 -2.72716 0
M  V30 7020 H 695.216 0.615939 -1.43652 0
M  V30 7021 H 695.951 3.10222 -0.94515 0
M  V30 7022 H 695.736 2.8428 -2.70051 0
M  V30 7023 H 697.226 3.61832 -2.08488 0
M  V30 7024 N 697.663 1.43903 0.642637 0
M  V30 7025 C 698.593 1.52697 1.76652 0
M  V30 7026 C 699.574 0.380816 1.65782 0
M  V30 7027 O 700.759 0.599432 1.84717 0
M  V30 7028 C 697.889 1.45975 3.15133 0
M  V30 7029 C 696.843 2.58949 3.40778 0
M  V30 7030 C 696.169 2.37279 4.79169 0
M  V30 7031 C 697.469 4.01153 3.34475 0
M  V30 7032 H 699.163 2.46766 1.69549 0
M  V30 7033 H 696.709 1.18767 0.814279 0
M  V30 7034 H 698.662 1.5073 3.93521 0
M  V30 7035 H 697.386 0.484162 3.22991 0
M  V30 7036 H 696.045 2.53564 2.64765 0
M  V30 7037 H 695.693 1.37939 4.83717 0
M  V30 7038 H 695.393 3.13016 4.97287 0
M  V30 7039 H 696.917 2.43834 5.59801 0
M  V30 7040 H 698.331 4.07968 4.02784 0
M  V30 7041 H 696.728 4.77001 3.64129 0
M  V30 7042 H 697.798 4.25539 2.32475 0
M  V30 7043 N 699.141 -0.881989 1.30609 0
M  V30 7044 C 700.418 -1.61563 1.10258 0
M  V30 7045 C 700.798 -2.08228 -0.347053 0
M  V30 7046 O 700.146 -1.85151 -1.33908 0
M  V30 7047 C 700.356 -2.78287 2.10612 0
M  V30 7048 C 701.704 -3.48545 2.4249 0
M  V30 7049 O 702.728 -2.88479 2.08945 0
M  V30 7050 O 701.587 -4.56873 2.99883 0
M  V30 7051 H 698.681 -0.710238 0.423663 0
M  V30 7052 H 701.227 -0.928503 1.42045 0
M  V30 7053 H 699.999 -2.41131 3.08174 0
M  V30 7054 H 699.622 -3.54695 1.79659 0
M  V30 7055 N 700.619 -1.13374 -1.09472 0
M  V30 7056 C 701.865 -0.896516 -1.81908 0
M  V30 7057 C 702.198 0.575933 -1.85463 0
M  V30 7058 O 701.473 1.42618 -1.32251 0
M  V30 7059 C 701.756 -1.48445 -3.28079 0
M  V30 7060 C 701.609 -3.02598 -3.32798 0
M  V30 7061 C 702.928 -1.15226 -4.24748 0
M  V30 7062 H 700.047 -0.327127 -0.660422 0
M  V30 7063 H 702.689 -1.40195 -1.2824 0
M  V30 7064 H 700.839 -1.0546 -3.73912 0
M  V30 7065 H 702.511 -3.54335 -2.95372 0
M  V30 7066 H 700.754 -3.37613 -2.72397 0
M  V30 7067 H 701.425 -3.38835 -4.3577 0
M  V30 7068 H 703.901 -1.52369 -3.87199 0
M  V30 7069 H 702.777 -1.59012 -5.25363 0
M  V30 7070 H 703.038 -0.0658891 -4.42051 0
M  V30 7071 N 702.098 1.27442 -0.927168 0
M  V30 7072 C 703.008 2.30599 -0.431448 0
M  V30 7073 C 704.024 1.67028 0.48761 0
M  V30 7074 O 705.2 1.97962 0.370546 0
M  V30 7075 C 702.265 3.45327 0.308292 0
M  V30 7076 C 701.326 4.24418 -0.645615 0
M  V30 7077 C 700.559 5.33667 0.0589164 0
M  V30 7078 O 700.782 5.5589 1.27838 0
M  V30 7079 O 699.716 5.98774 -0.612638 0
M  V30 7080 H 703.542 2.75036 -1.28797 0
M  V30 7081 H 701.127 1.32382 -0.692495 0
M  V30 7082 H 703.009 4.15107 0.725555 0
M  V30 7083 H 701.684 3.02945 1.14043 0
M  V30 7084 H 700.591 3.57174 -1.11255 0
M  V30 7085 H 701.924 4.70512 -1.44496 0
M  V30 7086 N 703.576 0.692616 1.41565 0
M  V30 7087 C 704.825 0.219452 2.00503 0
M  V30 7088 C 705.138 -1.18683 1.55479 0
M  V30 7089 O 706.344 -1.75731 2.06956 0
M  V30 7090 C 704.8 0.341451 3.58277 0
M  V30 7091 C 704.408 1.75291 4.12283 0
M  V30 7092 C 706.152 -0.0720899 4.24439 0
M  V30 7093 C 704.059 1.82673 5.62481 0
M  V30 7094 H 702.989 0.0782874 0.749925 0
M  V30 7095 H 705.64 0.860386 1.62079 0
M  V30 7096 H 704.022 -0.367683 3.94289 0
M  V30 7097 H 705.196 2.49057 3.87695 0
M  V30 7098 H 703.511 2.11587 3.58636 0
M  V30 7099 H 706.108 -0.0373385 5.34687 0
M  V30 7100 H 706.451 -1.11034 4.0122 0
M  V30 7101 H 706.984 0.586663 3.9345 0
M  V30 7102 H 703.723 2.84539 5.90523 0
M  V30 7103 H 703.243 1.13288 5.89004 0
M  V30 7104 H 704.922 1.58827 6.27203 0
M  V30 7105 N 705.054 -1.51416 0.437162 0
M  V30 7106 C 706.017 -2.26312 -0.362729 0
M  V30 7107 C 707.017 -1.29748 -0.949847 0
M  V30 7108 O 708.207 -1.53462 -0.824325 0
M  V30 7109 C 705.339 -3.05475 -1.5132 0
M  V30 7110 H 706.532 -2.98459 0.29365 0
M  V30 7111 H 704.085 -1.55137 0.190327 0
M  V30 7112 H 704.82 -2.37744 -2.20563 0
M  V30 7113 H 704.605 -3.76401 -1.09838 0
M  V30 7114 H 706.095 -3.62209 -2.07833 0
M  V30 7115 N 706.532 -0.168513 -1.56696 0
M  V30 7116 C 707.76 0.483503 -2.01171 0
M  V30 7117 C 708.175 1.56994 -1.04872 0
M  V30 7118 O 707.532 1.82434 -0.0491337 0
M  V30 7119 C 707.583 1.0644 -3.45475 0
M  V30 7120 O 707.304 0.0213375 -4.38095 0
M  V30 7121 C 708.805 1.79493 -4.05336 0
M  V30 7122 H 706.025 0.124002 -0.659443 0
M  V30 7123 H 708.569 -0.269419 -2.02717 0
M  V30 7124 H 706.724 1.76784 -3.44712 0
M  V30 7125 H 707.138 0.449837 -5.22567 0
M  V30 7126 H 708.612 2.15401 -5.08238 0
M  V30 7127 H 709.089 2.68889 -3.47269 0
M  V30 7128 H 709.695 1.13798 -4.09793 0
M  V30 7129 N 708.01 1.57248 0.105221 0
M  V30 7130 C 709.24 1.89492 0.823175 0
M  V30 7131 C 709.648 0.75934 1.73294 0
M  V30 7132 O 708.991 -0.278182 1.81581 0
M  V30 7133 C 709.053 3.16891 1.69765 0
M  V30 7134 C 708.717 4.46787 0.960769 0
M  V30 7135 C 709.714 5.19061 0.295218 0
M  V30 7136 C 707.399 4.93467 0.937854 0
M  V30 7137 C 709.393 6.36246 -0.383393 0
M  V30 7138 C 707.08 6.10566 0.255452 0
M  V30 7139 C 708.078 6.81804 -0.404003 0
M  V30 7140 O 707.766 7.96673 -1.07549 0
M  V30 7141 H 707.498 0.631512 0.24118 0
M  V30 7142 H 710.052 2.05203 0.0899655 0
M  V30 7143 H 708.282 2.973 2.47285 0
M  V30 7144 H 709.971 3.35046 2.29126 0
M  V30 7145 H 710.737 4.84044 0.304448 0
M  V30 7146 H 706.616 4.37913 1.44058 0
M  V30 7147 H 710.16 6.91787 -0.898696 0
M  V30 7148 H 706.057 6.45039 0.244032 0
M  V30 7149 H 706.825 8.12596 -0.981355 0
M  V30 7150 N 709.488 -0.375779 1.53054 0
M  V30 7151 C 710.904 -0.716764 1.426 0
M  V30 7152 C 711.104 -1.93651 0.556931 0
M  V30 7153 O 710.16 -2.52475 0.0354461 0
M  V30 7154 C 711.473 -0.939499 2.85646 0
M  V30 7155 C 713.021 -1.04015 2.95212 0
M  V30 7156 C 713.496 -1.29543 4.39298 0
M  V30 7157 N 714.987 -1.36335 4.42682 0
M  V30 7158 C 715.722 -1.57778 5.51266 0
M  V30 7159 N 715.218 -1.76604 6.69913 0
M  V30 7160 N 717.011 -1.60065 5.38828 0
M  V30 7161 H 709.162 0.42664 2.08071 0
M  V30 7162 H 711.425 0.128758 0.939215 0
M  V30 7163 H 711.131 -0.115189 3.51511 0
M  V30 7164 H 711.005 -1.85048 3.2869 0
M  V30 7165 H 713.392 -1.85501 2.29507 0
M  V30 7166 H 713.473 -0.106785 2.55577 0
M  V30 7167 H 713.117 -0.485611 5.05573 0
M  V30 7168 H 713.047 -2.24184 4.76497 0
M  V30 7169 H 715.538 -1.23441 3.5717 0
M  V30 7170 H 715.851 -1.9251 7.48438 0
M  V30 7171 H 714.196 -1.73802 6.72917 0
M  V30 7172 H 717.387 -1.44917 4.45103 0
M  V30 7173 H 717.56 -1.76435 6.23518 0
M  V30 7174 N 710.966 -1.44241 -0.634997 0
M  V30 7175 C 711.913 -1.5081 -1.74714 0
M  V30 7176 C 712.883 -0.356147 -1.62237 0
M  V30 7177 O 714.068 -0.565848 -1.82216 0
M  V30 7178 C 711.208 -1.45458 -3.12947 0
M  V30 7179 C 710.321 -2.70998 -3.36428 0
M  V30 7180 C 709.456 -2.57507 -4.64611 0
M  V30 7181 C 708.495 -3.78229 -4.81258 0
M  V30 7182 N 707.632 -3.63438 -6.00714 0
M  V30 7183 H 712.472 -2.45832 -1.68436 0
M  V30 7184 H 710.009 -1.2201 -0.821706 0
M  V30 7185 H 711.967 -1.40347 -3.92885 0
M  V30 7186 H 710.597 -0.540058 -3.1825 0
M  V30 7187 H 709.649 -2.86312 -2.50458 0
M  V30 7188 H 710.961 -3.60619 -3.44609 0
M  V30 7189 H 710.115 -2.50207 -5.52703 0
M  V30 7190 H 708.854 -1.65441 -4.58782 0
M  V30 7191 H 707.859 -3.85918 -3.91596 0
M  V30 7192 H 709.084 -4.71327 -4.88904 0
M  V30 7193 H 707.03 -2.7412 -5.95982 0
M  V30 7194 H 706.947 -4.46672 -6.09934 0
M  V30 7195 H 708.215 -3.60022 -6.91378 0
M  V30 7196 N 712.444 0.87505 -1.31075 0
M  V30 7197 C 713.374 1.99775 -1.20881 0
M  V30 7198 C 714.355 1.69822 -0.0971612 0
M  V30 7199 O 715.54 1.92158 -0.280895 0
M  V30 7200 C 712.67 3.35163 -0.910118 0
M  V30 7201 C 711.624 3.79406 -1.98078 0
M  V30 7202 C 710.95 5.12197 -1.53488 0
M  V30 7203 C 712.25 3.97061 -3.39323 0
M  V30 7204 H 713.944 2.08562 -2.14808 0
M  V30 7205 H 711.49 1.00207 -1.03415 0
M  V30 7206 H 713.443 4.13237 -0.825423 0
M  V30 7207 H 712.167 3.26536 0.064822 0
M  V30 7208 H 710.826 3.03568 -2.05528 0
M  V30 7209 H 710.474 5.00007 -0.547941 0
M  V30 7210 H 710.174 5.4277 -2.2511 0
M  V30 7211 H 711.698 5.92785 -1.46417 0
M  V30 7212 H 713.112 4.65545 -3.34576 0
M  V30 7213 H 711.509 4.39025 -4.09118 0
M  V30 7214 H 712.579 3.00601 -3.80483 0
M  V30 7215 N 713.922 1.13953 1.08869 0
M  V30 7216 C 714.852 0.844824 2.17681 0
M  V30 7217 C 715.833 -0.198213 1.68941 0
M  V30 7218 O 717.018 -0.0559073 1.9412 0
M  V30 7219 C 714.148 0.316325 3.45856 0
M  V30 7220 C 713.102 1.29426 4.07962 0
M  V30 7221 C 712.428 0.625275 5.31031 0
M  V30 7222 C 713.728 2.65484 4.49795 0
M  V30 7223 H 715.422 1.75471 2.42591 0
M  V30 7224 H 712.968 0.845116 1.16592 0
M  V30 7225 H 714.921 0.0977876 4.21287 0
M  V30 7226 H 713.645 -0.628972 3.20486 0
M  V30 7227 H 712.304 1.49889 3.34558 0
M  V30 7228 H 711.952 -0.325678 5.01945 0
M  V30 7229 H 711.652 1.27777 5.73539 0
M  V30 7230 H 713.176 0.416152 6.0918 0
M  V30 7231 H 714.59 2.48957 5.16424 0
M  V30 7232 H 712.987 3.26963 5.03205 0
M  V30 7233 H 714.057 3.22717 3.61914 0
M  V30 7234 N 715.4 -1.26948 0.933913 0
M  V30 7235 C 716.31 -2.30366 0.443671 0
M  V30 7236 C 717.326 -1.67284 -0.478745 0
M  V30 7237 O 718.502 -1.98156 -0.360043 0
M  V30 7238 C 715.567 -3.45485 -0.289974 0
M  V30 7239 C 714.628 -4.24069 0.668114 0
M  V30 7240 C 713.861 -5.33691 -0.0306138 0
M  V30 7241 O 714.084 -5.5656 -1.24888 0
M  V30 7242 O 713.018 -5.98441 0.644384 0
M  V30 7243 H 716.844 -2.74349 1.30254 0
M  V30 7244 H 714.429 -1.32012 0.699506 0
M  V30 7245 H 716.311 -4.15486 -0.70353 0
M  V30 7246 H 714.986 -3.03546 -1.12435 0
M  V30 7247 H 713.893 -3.56579 1.13147 0
M  V30 7248 H 715.226 -4.69739 1.46989 0
M  V30 7249 N 716.879 -0.700114 -1.41195 0
M  V30 7250 C 718.127 -0.232546 -2.00758 0
M  V30 7251 C 718.448 1.1734 -1.55745 0
M  V30 7252 O 717.718 1.79262 -0.790058 0
M  V30 7253 H 716.298 -0.0829845 -0.742376 0
M  V30 7254 H 718.96 -0.902289 -1.72756 0
M  V30 7255 H 718.056 -0.253521 -3.11069 0
M  V30 7256 N 718.357 1.51182 -0.445186 0
M  V30 7257 C 719.267 2.31692 0.368255 0
M  V30 7258 C 720.283 1.40942 1.02036 0
M  V30 7259 O 721.459 1.74011 1.01401 0
M  V30 7260 C 718.524 3.14903 1.45041 0
M  V30 7261 C 717.585 4.21442 0.817615 0
M  V30 7262 C 716.818 5.00677 1.8482 0
M  V30 7263 O 717.041 4.80644 3.07145 0
M  V30 7264 O 715.975 5.84559 1.43438 0
M  V30 7265 H 719.801 3.0232 -0.289219 0
M  V30 7266 H 717.386 1.47951 -0.207555 0
M  V30 7267 H 719.268 3.66612 2.07783 0
M  V30 7268 H 717.943 2.47031 2.09182 0
M  V30 7269 H 716.85 3.73791 0.151931 0
M  V30 7270 H 718.183 4.9171 0.219564 0
M  V30 7271 N 719.835 0.176821 1.56605 0
M  V30 7272 C 720.745 -0.763682 2.21822 0
M  V30 7273 C 721.761 -1.24889 1.21156 0
M  V30 7274 O 722.937 -1.29987 1.53836 0
M  V30 7275 C 720.002 -1.97352 2.8505 0
M  V30 7276 C 719.063 -1.53466 4.00932 0
M  V30 7277 C 718.296 -2.68682 4.61135 0
M  V30 7278 O 718.519 -3.85694 4.20234 0
M  V30 7279 O 717.453 -2.42442 5.50913 0
M  V30 7280 H 721.279 -0.238363 3.02763 0
M  V30 7281 H 718.864 -0.0516331 1.49311 0
M  V30 7282 H 720.746 -2.68096 3.25119 0
M  V30 7283 H 719.421 -2.48779 2.07101 0
M  V30 7284 H 718.328 -0.796551 3.65521 0
M  V30 7285 H 719.661 -1.06724 4.8049 0
M  V30 7286 N 721.313 -1.57302 -0.09688 0
M  V30 7287 C 722.553 -1.87823 -0.806334 0
M  V30 7288 C 722.917 -0.767593 -1.75989 0
M  V30 7289 O 724.118 -0.955173 -2.51257 0
M  V30 7290 C 722.389 -3.23585 -1.51749 0
M  V30 7291 S 723.948 -3.75795 -2.26547 0
M  V30 7292 H 720.766 -0.658281 -0.268676 0
M  V30 7293 H 723.368 -1.95397 -0.0635476 0
M  V30 7294 H 722.072 -4.0234 -0.809348 0
M  V30 7295 H 721.603 -3.19145 -2.30021 0
M  V30 7296 H 723.618 -3.49068 -3.52656 0
M  V30 7297 N 722.791 0.367657 -1.53252 0
M  V30 7298 C 724.207 0.709191 -1.42978 0
M  V30 7299 C 724.407 1.93352 -0.567193 0
M  V30 7300 O 723.463 2.52453 -0.0488349 0
M  V30 7301 C 724.776 0.924338 -2.86141 0
M  V30 7302 C 726.324 1.02448 -2.95759 0
M  V30 7303 C 726.799 1.27211 -4.39979 0
M  V30 7304 N 728.29 1.33986 -4.43398 0
M  V30 7305 C 729.025 1.54852 -5.52095 0
M  V30 7306 N 728.521 1.73049 -6.7084 0
M  V30 7307 N 730.314 1.57205 -5.39669 0
M  V30 7308 H 722.465 -0.437669 -2.07842 0
M  V30 7309 H 724.728 -0.133737 -0.938519 0
M  V30 7310 H 724.434 0.0965455 -3.51567 0
M  V30 7311 H 724.308 1.83302 -3.29667 0
M  V30 7312 H 726.695 1.84282 -2.30487 0
M  V30 7313 H 726.776 0.0932301 -2.5563 0
M  V30 7314 H 726.42 0.458792 -5.05824 0
M  V30 7315 H 726.35 2.21654 -4.77679 0
M  V30 7316 H 728.841 1.21545 -3.5782 0
M  V30 7317 H 729.154 1.88538 -7.49449 0
M  V30 7318 H 727.499 1.70231 -6.7383 0
M  V30 7319 H 730.69 1.42555 -4.45865 0
M  V30 7320 H 730.863 1.73126 -6.24445 0
M  V30 7321 N 724.269 1.44576 0.627338 0
M  V30 7322 C 725.202 1.46206 1.75212 0
M  V30 7323 C 726.18 0.320483 1.5941 0
M  V30 7324 O 727.364 0.518028 1.81242 0
M  V30 7325 C 724.491 1.29834 3.12827 0
M  V30 7326 C 723.537 2.47603 3.47268 0
M  V30 7327 S 724.37 4.10125 3.44322 0
M  V30 7328 C 725.526 3.96183 4.84551 0
M  V30 7329 H 725.759 2.41378 1.73563 0
M  V30 7330 H 723.292 1.3192 0.802283 0
M  V30 7331 H 725.25 1.21075 3.92239 0
M  V30 7332 H 723.911 0.361662 3.12011 0
M  V30 7333 H 723.104 2.3202 4.47418 0
M  V30 7334 H 722.706 2.53121 2.75329 0
M  V30 7335 H 724.998 3.60107 5.73872 0
M  V30 7336 H 725.941 4.96176 5.05188 0
M  V30 7337 H 726.349 3.28177 4.59304 0
M  V30 7338 N 725.747 -0.868086 1.31537 0
M  V30 7339 C 726.972 -1.65926 1.24432 0
M  V30 7340 C 727.397 -1.87169 -0.186936 0
M  V30 7341 O 726.755 -1.4148 -1.13371 0
M  V30 7342 C 726.803 -3.00347 1.9956 0
M  V30 7343 O 725.907 -3.90221 1.33422 0
M  V30 7344 H 725.248 -0.506375 0.429512 0
M  V30 7345 H 727.778 -1.0822 1.73637 0
M  V30 7346 H 727.788 -3.50269 2.09226 0
M  V30 7347 H 726.463 -2.84205 3.03645 0
M  V30 7348 H 725.04 -3.48672 1.32219 0
M  V30 7349 N 727.225 -1.14528 -1.08264 0
M  V30 7350 C 728.473 -0.912599 -1.80322 0
M  V30 7351 C 728.794 0.562256 -1.86718 0
M  V30 7352 O 728.064 1.40869 -1.36135 0
M  V30 7353 H 726.644 -0.334645 -0.667849 0
M  V30 7354 H 729.306 -1.44415 -1.30883 0
M  V30 7355 H 728.402 -1.31384 -2.83098 0
M  V30 7356 N 728.703 1.26451 -0.940633 0
M  V30 7357 C 729.98 1.88947 -0.505811 0
M  V30 7358 C 730.36 1.85011 1.01657 0
M  V30 7359 O 729.708 1.30406 1.87634 0
M  V30 7360 C 729.918 3.32304 -1.06654 0
M  V30 7361 C 731.266 4.09153 -1.13486 0
M  V30 7362 O 732.29 3.41371 -1.01708 0
M  V30 7363 O 731.149 5.30369 -1.31797 0
M  V30 7364 H 728.243 0.810422 -0.164759 0
M  V30 7365 H 730.789 1.34625 -1.03316 0
M  V30 7366 H 729.561 3.29527 -2.11015 0
M  V30 7367 H 729.184 3.94164 -0.521603 0
M  V30 7368 N 730.181 0.707592 1.40822 0
M  V30 7369 C 731.111 0.0644925 2.33411 0
M  V30 7370 C 732.092 -0.754205 1.52466 0
M  V30 7371 O 733.277 -0.704749 1.80961 0
M  V30 7372 C 730.407 -0.863865 3.36385 0
M  V30 7373 C 729.361 -0.15138 4.27732 0
M  V30 7374 C 728.687 -1.19491 5.21177 0
M  V30 7375 C 729.987 0.989607 5.12839 0
M  V30 7376 H 731.681 0.837829 2.87438 0
M  V30 7377 H 729.227 0.404346 1.38207 0
M  V30 7378 H 731.18 -1.32309 4.0009 0
M  V30 7379 H 729.904 -1.66901 2.80734 0
M  V30 7380 H 728.563 0.287937 3.65467 0
M  V30 7381 H 728.211 -1.9929 4.61836 0
M  V30 7382 H 727.911 -0.723123 5.83134 0
M  V30 7383 H 729.435 -1.6544 5.8776 0
M  V30 7384 H 730.849 0.610114 5.70044 0
M  V30 7385 H 729.246 1.38926 5.83798 0
M  V30 7386 H 730.316 1.82389 4.49291 0
M  V30 7387 N 731.66 -1.50943 0.453197 0
M  V30 7388 C 732.885 -2.07116 -0.108463 0
M  V30 7389 C 733.31 -1.31681 -1.3432 0
M  V30 7390 O 732.668 -0.359256 -1.77705 0
M  V30 7391 C 732.716 -3.58447 -0.393424 0
M  V30 7392 O 731.82 -3.85038 -1.47714 0
M  V30 7393 H 731.161 -0.66398 0.0050993 0
M  V30 7394 H 733.691 -1.94362 0.639095 0
M  V30 7395 H 733.701 -4.02961 -0.639222 0
M  V30 7396 H 732.376 -4.12774 0.508946 0
M  V30 7397 H 730.953 -3.52376 -1.22006 0
M  V30 7398 N 733.138 -0.185124 -1.56509 0
M  V30 7399 C 734.363 0.465278 -2.02114 0
M  V30 7400 C 734.788 1.55083 -1.06447 0
M  V30 7401 O 734.146 1.81241 -0.0462852 0
M  V30 7402 C 734.194 1.00784 -3.46229 0
M  V30 7403 O 733.298 2.12123 -3.53663 0
M  V30 7404 H 732.639 0.109891 -0.654843 0
M  V30 7405 H 735.169 -0.293072 -2.0249 0
M  V30 7406 H 735.179 1.32697 -3.85818 0
M  V30 7407 H 733.854 0.213113 -4.15354 0
M  V30 7408 H 732.431 1.8115 -3.25943 0
M  V30 7409 N 734.616 1.57351 0.0885366 0
M  V30 7410 C 735.564 2.03542 1.12576 0
M  V30 7411 C 736.558 0.937668 1.41082 0
M  V30 7412 O 737.764 1.12283 1.40686 0
M  V30 7413 H 734.139 0.648752 0.380296 0
M  V30 7414 H 736.11 2.89833 0.709906 0
M  V30 7415 C 734.859 2.4811 2.43591 0
M  V30 7416 H 734.182 3.32164 2.22502 0
M  V30 7417 H 735.622 2.842 3.14653 0
M  V30 7418 C 734.081 1.35708 3.08359 0
M  V30 7419 O 734.611 0.689852 3.95732 0
M  V30 7420 N 732.817 1.10641 2.68713 0
M  V30 7421 H 732.364 1.6508 1.97753 0
M  V30 7422 H 732.322 0.356355 3.12374 0
M  V30 7423 N 736.094 -0.359525 1.53444 0
M  V30 7424 C 737.34 -1.10315 1.70172 0
M  V30 7425 C 737.673 -1.88788 0.455287 0
M  V30 7426 O 736.948 -1.86635 -0.547514 0
M  V30 7427 C 737.231 -2.05744 2.95536 0
M  V30 7428 C 737.084 -1.3084 4.3035 0
M  V30 7429 C 738.403 -3.05784 3.16518 0
M  V30 7430 H 735.522 -0.399662 0.619225 0
M  V30 7431 H 738.164 -0.383338 1.86093 0
M  V30 7432 H 736.314 -2.67125 2.82093 0
M  V30 7433 H 737.986 -0.721959 4.55615 0
M  V30 7434 H 736.229 -0.610283 4.29486 0
M  V30 7435 H 736.9 -2.00718 5.14214 0
M  V30 7436 H 739.376 -2.5451 3.29187 0
M  V30 7437 H 738.252 -3.69772 4.05659 0
M  V30 7438 H 738.513 -3.76289 2.32076 0
M  V30 7439 N 737.572 -1.44907 -0.619662 0
M  V30 7440 C 738.8 -1.51795 -1.40591 0
M  V30 7441 C 739.215 -0.146553 -1.8823 0
M  V30 7442 O 738.572 0.849698 -1.61513 0
M  V30 7443 C 738.623 -2.49229 -2.61853 0
M  V30 7444 O 738.344 -3.81039 -2.16197 0
M  V30 7445 C 739.845 -2.65696 -3.54853 0
M  V30 7446 H 737.065 -0.514463 -0.430777 0
M  V30 7447 H 739.609 -1.8998 -0.756813 0
M  V30 7448 H 737.764 -2.14149 -3.2283 0
M  V30 7449 H 738.178 -4.33747 -2.94896 0
M  V30 7450 H 739.652 -3.37874 -4.36515 0
M  V30 7451 H 740.129 -1.71316 -4.0441 0
M  V30 7452 H 740.735 -3.01724 -2.99737 0
M  V30 7453 N 739.05 0.861098 -1.31996 0
M  V30 7454 C 740.296 1.61721 -1.22369 0
M  V30 7455 C 740.629 1.93 0.215587 0
M  V30 7456 O 739.904 1.56789 1.15098 0
M  V30 7457 C 740.187 2.9417 -2.07691 0
M  V30 7458 C 740.04 2.69714 -3.59965 0
M  V30 7459 C 741.359 3.95372 -1.93312 0
M  V30 7460 H 738.478 0.586822 -0.44588 0
M  V30 7461 H 741.12 0.994788 -1.61876 0
M  V30 7462 H 739.27 3.47292 -1.74128 0
M  V30 7463 H 740.942 2.23196 -4.03709 0
M  V30 7464 H 739.185 2.03789 -3.82952 0
M  V30 7465 H 739.856 3.63996 -4.14983 0
M  V30 7466 H 742.332 3.51487 -2.22701 0
M  V30 7467 H 741.208 4.85916 -2.55298 0
M  V30 7468 H 741.469 4.32865 -0.898922 0
M  V30 7469 N 740.528 1.15101 1.07655 0
M  V30 7470 C 741.753 0.948177 1.84457 0
M  V30 7471 C 742.178 -0.498432 1.81376 0
M  V30 7472 O 741.536 -1.35509 1.20445 0
M  V30 7473 C 741.584 1.46318 3.29581 0
M  V30 7474 O 740.688 0.660342 4.07079 0
M  V30 7475 H 740.029 0.338428 0.571281 0
M  V30 7476 H 742.559 1.5301 1.35828 0
M  V30 7477 H 742.569 1.47468 3.80417 0
M  V30 7478 H 741.244 2.51635 3.31138 0
M  V30 7479 H 739.821 0.718216 3.65918 0
M  V30 7480 N 742.006 -1.2595 0.947325 0
M  V30 7481 C 743.252 -1.9375 0.599064 0
M  V30 7482 C 743.585 -1.74088 -0.860632 0
M  V30 7483 O 742.86 -1.08158 -1.61654 0
M  V30 7484 C 743.143 -3.47353 0.949634 0
M  V30 7485 C 742.996 -3.76273 2.46452 0
M  V30 7486 C 744.315 -4.37589 0.469442 0
M  V30 7487 H 741.434 -0.703674 0.219115 0
M  V30 7488 H 744.076 -1.48705 1.18266 0
M  V30 7489 H 742.226 -3.8585 0.453008 0
M  V30 7490 H 743.898 -3.47455 3.03435 0
M  V30 7491 H 742.141 -3.22135 2.90537 0
M  V30 7492 H 742.812 -4.83664 2.66032 0
M  V30 7493 H 745.288 -4.06353 0.89534 0
M  V30 7494 H 744.164 -5.43841 0.7435 0
M  V30 7495 H 744.425 -4.37579 -0.630618 0
M  V30 7496 N 743.484 -0.715051 -1.40445 0
M  V30 7497 C 744.712 -0.263959 -2.05209 0
M  V30 7498 C 745.127 1.09403 -1.53871 0
M  V30 7499 O 744.484 1.68746 -0.695064 0
M  V30 7500 C 744.535 -0.234545 -3.60738 0
M  V30 7501 O 744.256 -1.53891 -4.10182 0
M  V30 7502 C 745.757 0.235164 -4.42676 0
M  V30 7503 H 742.977 -0.11876 -0.660407 0
M  V30 7504 H 745.521 -0.973107 -1.79864 0
M  V30 7505 H 743.676 0.425563 -3.85055 0
M  V30 7506 H 744.09 -1.43903 -5.04373 0
M  V30 7507 H 745.564 0.204598 -5.51621 0
M  V30 7508 H 746.041 1.27724 -4.20218 0
M  V30 7509 H 746.647 -0.394649 -4.23465 0
M  V30 7510 N 744.962 1.50701 -0.461195 0
M  V30 7511 C 746.187 2.07171 0.0974773 0
M  V30 7512 C 746.612 1.32391 1.3362 0
M  V30 7513 O 745.97 0.368676 1.77512 0
M  V30 7514 C 746.018 3.58651 0.374409 0
M  V30 7515 O 745.122 3.85816 1.4567 0
M  V30 7516 H 744.463 0.663944 -0.00862047 0
M  V30 7517 H 746.993 1.94021 -0.649394 0
M  V30 7518 H 747.003 4.03295 0.617843 0
M  V30 7519 H 745.678 4.12498 -0.530829 0
M  V30 7520 H 744.255 3.53018 1.20136 0
M  V30 7521 N 746.441 0.193421 1.56409 0
M  V30 7522 C 747.666 -0.454552 2.02358 0
M  V30 7523 C 748.091 -1.54516 1.07268 0
M  V30 7524 O 747.449 -1.81214 0.0558962 0
M  V30 7525 C 747.497 -0.989469 3.46759 0
M  V30 7526 O 746.601 -2.10244 3.54783 0
M  V30 7527 H 745.942 -0.106417 0.655417 0
M  V30 7528 H 748.472 0.303807 2.02332 0
M  V30 7529 H 748.482 -1.30649 3.86516 0
M  V30 7530 H 747.157 -0.191083 4.15461 0
M  V30 7531 H 745.734 -1.79419 3.26899 0
M  V30 7532 N 747.919 -1.57396 -0.0801906 0
M  V30 7533 C 749.147 -1.91055 -0.794075 0
M  V30 7534 C 749.562 -0.788583 -1.71542 0
M  V30 7535 O 748.919 0.238587 -1.80934 0
M  V30 7536 C 748.97 -3.24418 -1.59484 0
M  V30 7537 O 748.691 -4.323 -0.710532 0
M  V30 7538 C 750.192 -3.72037 -2.41046 0
M  V30 7539 H 747.412 -0.63171 -0.226238 0
M  V30 7540 H 749.956 -2.04431 -0.0529685 0
M  V30 7541 H 748.111 -3.12595 -2.2883 0
M  V30 7542 H 748.525 -5.08976 -1.26663 0
M  V30 7543 H 749.999 -4.68006 -2.92702 0
M  V30 7544 H 750.476 -3.00624 -3.2019 0
M  V30 7545 H 751.082 -3.86777 -1.76871 0
M  V30 7546 N 749.397 0.351382 -1.53633 0
M  V30 7547 C 750.646 1.08988 -1.69719 0
M  V30 7548 C 750.959 1.90043 -0.462948 0
M  V30 7549 O 752.165 2.66769 -0.504613 0
M  V30 7550 C 750.621 1.98691 -3.00083 0
M  V30 7551 C 750.229 1.22881 -4.30818 0
M  V30 7552 C 751.973 2.72446 -3.25536 0
M  V30 7553 C 749.88 2.11568 -5.52262 0
M  V30 7554 H 748.81 0.410588 -0.632403 0
M  V30 7555 H 751.461 0.349886 -1.80133 0
M  V30 7556 H 749.843 2.76478 -2.83506 0
M  V30 7557 H 751.017 0.500582 -4.58073 0
M  V30 7558 H 749.332 0.60928 -4.11918 0
M  V30 7559 H 751.929 3.39055 -4.13456 0
M  V30 7560 H 752.272 3.38588 -2.42206 0
M  V30 7561 H 752.805 2.01735 -3.42852 0
M  V30 7562 H 749.544 1.4998 -6.38111 0
M  V30 7563 H 749.064 2.82201 -5.29266 0
M  V30 7564 H 750.743 2.70802 -5.87601 0
M  V30 7565 N 750.875 1.45233 0.611969 0
M  V30 7566 C 752.1 1.52767 1.40274 0
M  V30 7567 C 752.525 0.159701 1.87421 0
M  V30 7568 O 751.883 -0.854837 1.59882 0
M  V30 7569 C 751.931 2.51286 2.58626 0
M  V30 7570 O 751.035 2.02764 3.59111 0
M  V30 7571 H 750.376 0.515141 0.418958 0
M  V30 7572 H 752.906 1.90547 0.745188 0
M  V30 7573 H 752.916 2.69949 3.05927 0
M  V30 7574 H 751.591 3.50641 2.23659 0
M  V30 7575 H 750.168 1.93957 3.18489 0
M  V30 7576 N 752.353 -0.854086 1.3245 0
M  V30 7577 C 753.578 -1.64597 1.26185 0
M  V30 7578 C 754.003 -1.87357 -0.167074 0
M  V30 7579 O 753.361 -1.42675 -1.11864 0
M  V30 7580 C 753.409 -2.98213 2.02734 0
M  V30 7581 O 752.513 -3.88784 1.37554 0
M  V30 7582 H 751.854 -0.50179 0.434859 0
M  V30 7583 H 754.384 -1.06372 1.74775 0
M  V30 7584 H 754.394 -3.4803 2.1293 0
M  V30 7585 H 753.069 -2.80969 3.06642 0
M  V30 7586 H 751.646 -3.4725 1.3591 0
M  V30 7587 N 753.831 -1.1567 -1.07043 0
M  V30 7588 C 754.779 -0.852204 -2.16426 0
M  V30 7589 C 755.773 0.175661 -1.68487 0
M  V30 7590 O 756.979 0.0303874 -1.79974 0
M  V30 7591 H 753.354 -0.257942 -0.706378 0
M  V30 7592 H 755.325 -1.78231 -2.39324 0
M  V30 7593 C 754.074 -0.361362 -3.45817 0
M  V30 7594 H 753.397 -1.14369 -3.83092 0
M  V30 7595 H 754.837 -0.186997 -4.23587 0
M  V30 7596 C 753.296 0.917703 -3.2416 0
M  V30 7597 O 753.826 1.98858 -3.49025 0
M  V30 7598 N 752.032 0.858456 -2.77631 0
M  V30 7599 H 751.579 -0.0131821 -2.57597 0
M  V30 7600 H 751.537 1.71478 -2.6352 0
M  V30 7601 N 755.309 1.25446 -0.953992 0
M  V30 7602 C 756.555 1.9343 -0.60933 0
M  V30 7603 C 756.888 1.74542 0.851388 0
M  V30 7604 O 756.163 1.09014 1.61078 0
M  V30 7605 C 756.446 3.46844 -0.968041 0
M  V30 7606 C 756.299 3.74961 -2.48444 0
M  V30 7607 C 757.618 4.37334 -0.492641 0
M  V30 7608 H 754.737 0.702502 -0.222844 0
M  V30 7609 H 757.379 1.48076 -1.19053 0
M  V30 7610 H 755.529 3.85604 -0.473465 0
M  V30 7611 H 757.201 3.45841 -3.05273 0
M  V30 7612 H 755.444 3.20589 -2.92241 0
M  V30 7613 H 756.115 4.82246 -2.68594 0
M  V30 7614 H 758.591 4.05873 -0.916878 0
M  V30 7615 H 757.467 5.43439 -0.772331 0
M  V30 7616 H 757.728 4.37908 0.607403 0
M  V30 7617 N 756.787 0.722489 1.40064 0
M  V30 7618 C 757.75 0.0830209 2.2905 0
M  V30 7619 C 758.75 -0.680208 1.45705 0
M  V30 7620 O 759.94 -0.511084 1.66534 0
M  V30 7621 C 757.072 -0.892092 3.29021 0
M  V30 7622 H 758.265 0.866848 2.87099 0
M  V30 7623 H 755.818 0.487556 1.48501 0
M  V30 7624 H 756.553 -1.70273 2.76003 0
M  V30 7625 H 756.338 -0.34761 3.90556 0
M  V30 7626 H 757.828 -1.33648 3.95636 0
M  V30 7627 N 758.265 -1.50454 0.469181 0
M  V30 7628 C 759.49 -2.0722 -0.0864892 0
M  V30 7629 C 759.915 -1.33098 -1.32916 0
M  V30 7630 O 759.273 -0.378084 -1.77314 0
M  V30 7631 C 759.321 -3.58845 -0.355384 0
M  V30 7632 O 758.425 -3.86583 -1.43622 0
M  V30 7633 H 757.766 -0.663889 0.0121414 0
M  V30 7634 H 760.296 -1.93674 0.659674 0
M  V30 7635 H 760.306 -4.03617 -0.596447 0
M  V30 7636 H 758.981 -4.12211 0.552698 0
M  V30 7637 H 757.558 -3.5365 -1.18262 0
M  V30 7638 N 759.743 -0.201713 -1.56304 0
M  V30 7639 C 760.69 0.716499 -2.19397 0
M  V30 7640 C 761.66 1.20494 -1.14326 0
M  V30 7641 O 762.845 1.26763 -1.42604 0
M  V30 7642 C 759.985 1.92762 -2.86246 0
M  V30 7643 C 759.098 1.47993 -4.0586 0
M  V30 7644 C 758.233 2.64706 -4.60547 0
M  V30 7645 C 757.272 2.16576 -5.72504 0
M  V30 7646 N 756.409 3.26491 -6.21569 0
M  V30 7647 H 761.249 0.171724 -2.97505 0
M  V30 7648 H 758.786 0.073016 -1.46919 0
M  V30 7649 H 760.744 2.6384 -3.23178 0
M  V30 7650 H 759.374 2.44559 -2.10691 0
M  V30 7651 H 758.426 0.66477 -3.74546 0
M  V30 7652 H 759.738 1.08686 -4.86815 0
M  V30 7653 H 758.892 3.43898 -4.99819 0
M  V30 7654 H 757.631 3.0729 -3.78713 0
M  V30 7655 H 756.636 1.3584 -5.32755 0
M  V30 7656 H 757.861 1.75015 -6.56161 0
M  V30 7657 H 755.807 3.68594 -5.42655 0
M  V30 7658 H 755.724 2.91374 -6.97594 0
M  V30 7659 H 756.992 4.05877 -6.65495 0
M  V30 7660 N 761.222 1.57436 0.0718424 0
M  V30 7661 C 762.185 2.02703 1.06977 0
M  V30 7662 C 763.185 0.924062 1.31597 0
M  V30 7663 O 764.375 1.18894 1.27318 0
M  V30 7664 C 761.507 2.40763 2.41342 0
M  V30 7665 H 762.7 2.92098 0.679619 0
M  V30 7666 H 760.253 1.5304 0.317565 0
M  V30 7667 H 760.988 1.54394 2.8519 0
M  V30 7668 H 760.773 3.21249 2.24814 0
M  V30 7669 H 762.263 2.76361 3.13073 0
M  V30 7670 N 762.7 -0.34323 1.53817 0
M  V30 7671 C 763.663 -1.40444 1.8113 0
M  V30 7672 C 764.663 -1.45604 0.682366 0
M  V30 7673 O 765.853 -1.45974 0.950649 0
M  V30 7674 C 762.985 -2.79369 1.95361 0
M  V30 7675 H 764.178 -1.17489 2.75928 0
M  V30 7676 H 761.731 -0.577636 1.45234 0
M  V30 7677 H 762.466 -3.07607 1.02707 0
M  V30 7678 H 762.251 -2.7702 2.77493 0
M  V30 7679 H 763.741 -3.56178 2.18008 0
M  V30 7680 N 764.178 -1.45556 -0.604258 0
M  V30 7681 C 765.425 -1.49746 -1.36317 0
M  V30 7682 C 765.753 -0.140516 -1.93992 0
M  V30 7683 O 765.008 0.861244 -1.7573 0
M  V30 7684 C 765.307 -2.52697 -2.52743 0
M  V30 7685 C 764.973 -3.97315 -2.13195 0
M  V30 7686 C 763.635 -4.36692 -2.02123 0
M  V30 7687 C 765.987 -4.88249 -1.8238 0
M  V30 7688 C 763.315 -5.64895 -1.58463 0
M  V30 7689 C 765.667 -6.16867 -1.40205 0
M  V30 7690 C 764.331 -6.55172 -1.27694 0
M  V30 7691 H 763.601 -0.54796 -0.49882 0
M  V30 7692 H 766.248 -1.7892 -0.682643 0
M  V30 7693 H 764.553 -2.17105 -3.26148 0
M  V30 7694 H 766.25 -2.53176 -3.10971 0
M  V30 7695 H 762.84 -3.66176 -2.22739 0
M  V30 7696 H 767.024 -4.58561 -1.89829 0
M  V30 7697 H 762.28 -5.93365 -1.47402 0
M  V30 7698 H 766.454 -6.86771 -1.15408 0
M  V30 7699 H 764.081 -7.54411 -0.936375 0
M  V30 7700 N 765.656 0.84705 -1.32902 0
M  V30 7701 C 766.904 1.5986 -1.2365 0
M  V30 7702 C 767.225 1.93974 0.199789 0
M  V30 7703 O 766.495 1.60273 1.12648 0
M  V30 7704 H 765.075 0.592696 -0.454665 0
M  V30 7705 H 767.737 1.01278 -1.66519 0
M  V30 7706 H 766.833 2.53218 -1.82448 0
M  V30 7707 N 767.134 1.16236 1.06428 0
M  V30 7708 C 768.382 0.941171 1.78847 0
M  V30 7709 C 768.703 -0.53248 1.87589 0
M  V30 7710 O 767.973 -1.38686 1.38358 0
M  V30 7711 H 766.553 0.345228 0.66244 0
M  V30 7712 H 769.215 1.46479 1.28569 0
M  V30 7713 H 768.311 1.35871 2.80972 0
M  V30 7714 N 768.612 -1.24939 0.960631 0
M  V30 7715 C 769.837 -1.9742 0.635608 0
M  V30 7716 C 770.262 -1.70857 -0.786737 0
M  V30 7717 O 769.62 -0.968063 -1.53291 0
M  V30 7718 C 769.668 -3.48987 0.907771 0
M  V30 7719 O 768.772 -4.12399 -0.0104053 0
M  V30 7720 H 768.113 -0.61871 0.241027 0
M  V30 7721 H 770.643 -1.58901 1.28886 0
M  V30 7722 H 770.653 -3.99334 0.836453 0
M  V30 7723 H 769.328 -3.6765 1.94439 0
M  V30 7724 H 767.905 -3.72727 0.113631 0
M  V30 7725 N 770.09 -0.729906 -1.39679 0
M  V30 7726 C 771.338 -0.275077 -2.00219 0
M  V30 7727 C 771.659 1.1401 -1.58199 0
M  V30 7728 O 770.929 1.77546 -0.827904 0
M  V30 7729 H 769.509 -0.0987127 -0.740449 0
M  V30 7730 H 772.171 -0.93873 -1.70804 0
M  V30 7731 H 771.267 -0.319446 -3.10461 0
M  V30 7732 N 771.568 1.50203 -0.477153 0
M  V30 7733 C 772.816 2.01959 0.0755889 0
M  V30 7734 C 773.137 1.3608 1.39668 0
M  V30 7735 O 772.407 0.508136 1.89195 0
M  V30 7736 H 770.987 0.74636 0.0309248 0
M  V30 7737 H 773.649 1.84473 -0.628959 0
M  V30 7738 H 772.745 3.11305 0.222683 0
M  V30 7739 N 773.046 0.209999 1.56195 0
M  V30 7740 C 774.462 -0.145598 1.58934 0
M  V30 7741 C 774.662 -1.59868 1.22656 0
M  V30 7742 O 773.718 -2.33689 0.956336 0
M  V30 7743 C 775.031 0.170243 3.00218 0
M  V30 7744 C 776.579 0.111548 3.12801 0
M  V30 7745 C 777.054 0.400904 4.56242 0
M  V30 7746 N 778.545 0.350058 4.61875 0
M  V30 7747 C 779.28 0.547598 5.70779 0
M  V30 7748 N 778.776 0.806291 6.88092 0
M  V30 7749 N 780.569 0.480827 5.6004 0
M  V30 7750 H 772.72 1.15804 1.78054 0
M  V30 7751 H 774.983 0.463326 0.827063 0
M  V30 7752 H 774.689 1.17833 3.31373 0
M  V30 7753 H 774.563 -0.520208 3.73596 0
M  V30 7754 H 776.95 -0.887162 2.81449 0
M  V30 7755 H 777.031 0.835302 2.41777 0
M  V30 7756 H 776.675 1.397 4.8831 0
M  V30 7757 H 776.605 -0.34391 5.25476 0
M  V30 7758 H 779.096 0.157334 3.77572 0
M  V30 7759 H 779.409 0.945433 7.66995 0
M  V30 7760 H 777.754 0.843355 6.89864 0
M  V30 7761 H 780.945 0.279037 4.67268 0
M  V30 7762 H 781.118 0.638189 6.4485 0
M  V30 7763 N 774.524 -1.57472 -0.0634922 0
M  V30 7764 C 775.772 -1.87283 -0.759563 0
M  V30 7765 C 776.093 -0.803135 -1.77693 0
M  V30 7766 O 775.363 0.167293 -1.95184 0
M  V30 7767 H 773.943 -0.691106 -0.283516 0
M  V30 7768 H 776.605 -1.94864 -0.0376091 0
M  V30 7769 H 775.701 -2.85064 -1.27062 0
M  V30 7770 N 776.003 0.335068 -1.53997 0
M  V30 7771 C 777.228 1.09859 -1.75914 0
M  V30 7772 C 777.653 1.81308 -0.500915 0
M  V30 7773 O 777.011 1.72854 0.54693 0
M  V30 7774 C 777.059 2.08122 -2.94478 0
M  V30 7775 O 776.163 3.15805 -2.65219 0
M  V30 7776 H 775.504 0.317313 -0.583274 0
M  V30 7777 H 778.034 0.382872 -2.00986 0
M  V30 7778 H 778.044 2.51195 -3.21504 0
M  V30 7779 H 776.719 1.55517 -3.8573 0
M  V30 7780 H 775.296 2.77489 -2.49107 0
M  V30 7781 N 777.481 1.45874 0.596531 0
M  V30 7782 C 778.706 1.54247 1.38646 0
M  V30 7783 C 779.131 0.179571 1.87241 0
M  V30 7784 O 778.489 -0.837831 1.6078 0
M  V30 7785 C 778.537 2.54015 2.55946 0
M  V30 7786 O 777.641 2.06561 3.5694 0
M  V30 7787 H 776.982 0.519555 0.413471 0
M  V30 7788 H 779.512 1.91327 0.724936 0
M  V30 7789 H 779.522 2.73179 3.03047 0
M  V30 7790 H 778.197 3.52994 2.19928 0
M  V30 7791 H 776.774 1.97324 3.16414 0
M  V30 7792 N 778.959 -0.83999 1.33349 0
M  V30 7793 C 780.184 -1.63249 1.27924 0
M  V30 7794 C 780.609 -1.87523 -0.147193 0
M  V30 7795 O 779.967 -1.43853 -1.10345 0
M  V30 7796 C 780.015 -2.96046 2.05886 0
M  V30 7797 O 779.119 -3.87303 1.4167 0
M  V30 7798 H 778.46 -0.49715 0.440157 0
M  V30 7799 H 780.99 -1.04512 1.75893 0
M  V30 7800 H 781 -3.45752 2.16609 0
M  V30 7801 H 779.675 -2.77701 3.09605 0
M  V30 7802 H 778.252 -3.45789 1.39585 0
M  V30 7803 N 780.437 -1.16799 -1.0581 0
M  V30 7804 C 781.685 -0.950642 -1.78346 0
M  V30 7805 C 782.006 0.522524 -1.87869 0
M  V30 7806 O 781.276 1.3795 -1.39092 0
M  V30 7807 H 779.856 -0.348736 -0.6606 0
M  V30 7808 H 782.518 -1.47158 -1.27791 0
M  V30 7809 H 781.614 -1.37359 -2.80248 0
M  V30 7810 N 781.915 1.24427 -0.967243 0
M  V30 7811 C 783.163 1.92107 -0.627638 0
M  V30 7812 C 783.484 1.75991 0.83978 0
M  V30 7813 O 782.754 1.13118 1.59941 0
M  V30 7814 H 781.334 0.710986 -0.229145 0
M  V30 7815 H 783.996 1.51331 -1.22821 0
M  V30 7816 H 783.092 2.99791 -0.867844 0
M  V30 7817 N 783.393 0.737304 1.3929 0
M  V30 7818 C 784.641 0.285691 2.00071 0
M  V30 7819 C 784.962 -1.13169 1.58801 0
M  V30 7820 O 784.232 -1.77104 0.837308 0
M  V30 7821 H 782.812 0.102638 0.739915 0
M  V30 7822 H 785.474 0.947775 1.70303 0
M  V30 7823 H 784.57 0.335906 3.10287 0
M  V30 7824 N 784.871 -1.49948 0.485112 0
M  V30 7825 C 786.101 -2.06506 -0.0621921 0
M  V30 7826 C 786.509 -1.34756 -1.32806 0
M  V30 7827 O 785.852 -0.41466 -1.78959 0
M  V30 7828 C 785.914 -3.57243 -0.402182 0
M  V30 7829 C 785.578 -4.50574 0.763671 0
M  V30 7830 C 786.575 -4.93032 1.6497 0
M  V30 7831 C 784.26 -4.9308 0.957973 0
M  V30 7832 C 786.254 -5.76718 2.71432 0
M  V30 7833 C 783.941 -5.76546 2.0258 0
M  V30 7834 C 784.939 -6.18267 2.90232 0
M  V30 7835 O 784.627 -7.00066 3.95174 0
M  V30 7836 H 784.359 -0.675925 0.0100672 0
M  V30 7837 H 786.913 -1.93922 0.677023 0
M  V30 7838 H 785.143 -3.6778 -1.19478 0
M  V30 7839 H 786.832 -3.96107 -0.886219 0
M  V30 7840 H 787.598 -4.60851 1.51134 0
M  V30 7841 H 783.477 -4.60117 0.285144 0
M  V30 7842 H 787.021 -6.09203 3.39878 0
M  V30 7843 H 782.918 -6.0814 2.16417 0
M  V30 7844 H 783.686 -7.18343 3.92333 0
M  V30 7845 N 786.349 -0.21828 -1.56081 0
M  V30 7846 C 787.574 0.422302 -2.03055 0
M  V30 7847 C 787.999 1.5279 -1.09713 0
M  V30 7848 O 787.357 1.81102 -0.0847187 0
M  V30 7849 C 787.405 0.934177 -3.48289 0
M  V30 7850 O 786.509 2.04574 -3.58083 0
M  V30 7851 H 785.85 0.0959764 -0.657027 0
M  V30 7852 H 788.38 -0.335958 -2.01823 0
M  V30 7853 H 788.39 1.24484 -3.88546 0
M  V30 7854 H 787.065 0.124963 -4.15712 0
M  V30 7855 H 785.642 1.74196 -3.29712 0
M  V30 7856 N 787.827 1.57504 0.0551401 0
M  V30 7857 C 789.052 1.92682 0.767352 0
M  V30 7858 C 789.477 0.81614 1.69472 0
M  V30 7859 O 788.835 -0.229989 1.79835 0
M  V30 7860 C 788.883 3.26866 1.52286 0
M  V30 7861 O 787.987 3.17274 2.63459 0
M  V30 7862 H 787.328 0.630502 0.208238 0
M  V30 7863 H 789.858 2.04592 0.0184026 0
M  V30 7864 H 789.868 3.61138 1.8985 0
M  V30 7865 H 788.543 4.07276 0.842541 0
M  V30 7866 H 787.12 2.94589 2.2863 0
M  V30 7867 N 789.305 -0.326896 1.54172 0
M  V30 7868 C 790.553 -1.06313 1.71878 0
M  V30 7869 C 790.874 -1.88652 0.493498 0
M  V30 7870 O 790.144 -1.89608 -0.492522 0
M  V30 7871 H 788.724 -0.39549 0.633716 0
M  V30 7872 H 791.386 -0.364139 1.91468 0
M  V30 7873 H 790.482 -1.73105 2.59694 0
M  V30 7874 N 790.784 -1.46188 -0.588786 0
M  V30 7875 C 792.009 -1.5498 -1.37826 0
M  V30 7876 C 792.434 -0.189498 -1.87143 0
M  V30 7877 O 791.792 0.829293 -1.61222 0
M  V30 7878 C 791.84 -2.55369 -2.54596 0
M  V30 7879 O 790.944 -2.08452 -3.55839 0
M  V30 7880 H 790.285 -0.521741 -0.41071 0
M  V30 7881 H 792.815 -1.91708 -0.714779 0
M  V30 7882 H 792.825 -2.74782 -3.01594 0
M  V30 7883 H 791.5 -3.54155 -2.18052 0
M  V30 7884 H 790.077 -1.98999 -3.15363 0
M  V30 7885 N 792.262 0.832906 -1.33792 0
M  V30 7886 C 793.487 1.62568 -1.28788 0
M  V30 7887 C 793.912 1.87599 0.137246 0
M  V30 7888 O 793.27 1.44436 1.0958 0
M  V30 7889 C 793.318 2.9495 -2.07453 0
M  V30 7890 O 792.422 3.86546 -1.43722 0
M  V30 7891 H 791.763 0.494809 -0.442787 0
M  V30 7892 H 794.293 1.03578 -1.76445 0
M  V30 7893 H 794.303 3.44599 -2.1844 0
M  V30 7894 H 792.978 2.76055 -3.11073 0
M  V30 7895 H 791.555 3.45044 -1.41417 0
M  V30 7896 N 793.74 1.17359 1.05189 0
M  V30 7897 C 794.965 0.98709 1.82404 0
M  V30 7898 C 795.39 -0.459848 1.82392 0
M  V30 7899 O 794.748 -1.32924 1.23292 0
M  V30 7900 C 794.796 1.53276 3.26403 0
M  V30 7901 O 793.9 0.746541 4.05587 0
M  V30 7902 H 793.241 0.35047 0.563974 0
M  V30 7903 H 795.771 1.55856 1.32552 0
M  V30 7904 H 795.781 1.55504 3.77203 0
M  V30 7905 H 794.456 2.58603 3.25726 0
M  V30 7906 H 793.033 0.795671 3.64312 0
M  V30 7907 N 795.218 -1.23913 0.973828 0
M  V30 7908 C 796.448 -1.95911 0.655938 0
M  V30 7909 C 796.856 -1.72375 -0.779967 0
M  V30 7910 O 796.199 -1.00807 -1.5357 0
M  V30 7911 C 796.261 -3.49103 0.858324 0
M  V30 7912 C 795.925 -3.96347 2.27504 0
M  V30 7913 C 796.922 -4.05537 3.25324 0
M  V30 7914 C 794.607 -4.29509 2.60437 0
M  V30 7915 C 796.601 -4.47233 4.5416 0
M  V30 7916 C 794.288 -4.70887 3.89498 0
M  V30 7917 C 795.286 -4.79714 4.86172 0
M  V30 7918 O 794.974 -5.20166 6.1293 0
M  V30 7919 H 794.706 -0.630721 0.243244 0
M  V30 7920 H 797.26 -1.58534 1.30599 0
M  V30 7921 H 795.49 -3.86405 0.151097 0
M  V30 7922 H 797.179 -4.02311 0.538592 0
M  V30 7923 H 797.945 -3.80128 3.0121 0
M  V30 7924 H 793.824 -4.21853 1.85906 0
M  V30 7925 H 797.368 -4.54038 5.29618 0
M  V30 7926 H 793.265 -4.95744 4.1341 0
M  V30 7927 H 794.033 -5.38298 6.16586 0
M  V30 7928 N 796.696 -0.74468 -1.38897 0
M  V30 7929 C 797.944 -0.296298 -1.99916 0
M  V30 7930 C 798.265 1.12325 -1.59399 0
M  V30 7931 O 797.535 1.76658 -0.846689 0
M  V30 7932 H 796.115 -0.106561 -0.73936 0
M  V30 7933 H 798.777 -0.956793 -1.69798 0
M  V30 7934 H 797.873 -0.352356 -3.10105 0
M  V30 7935 N 798.174 1.49689 -0.493057 0
M  V30 7936 C 799.399 2.07331 0.0535114 0
M  V30 7937 C 799.824 1.35196 1.30781 0
M  V30 7938 O 799.182 0.406246 1.7669 0
M  V30 7939 C 799.23 3.59364 0.29825 0
M  V30 7940 O 798.334 3.88819 1.37454 0
M  V30 7941 H 797.675 0.663612 -0.0227018 0
M  V30 7942 H 800.205 1.926 -0.690402 0
M  V30 7943 H 800.215 4.04515 0.532159 0
M  V30 7944 H 798.89 4.1128 -0.618207 0
M  V30 7945 H 797.467 3.55487 1.12621 0
M  V30 7946 N 799.652 0.226554 1.55963 0
M  V30 7947 C 800.9 -0.402991 1.98041 0
M  V30 7948 C 801.221 -1.59938 1.11557 0
M  V30 7949 O 800.491 -1.9494 0.193719 0
M  V30 7950 H 799.071 -0.15188 0.731397 0
M  V30 7951 H 801.733 0.320613 1.92245 0
M  V30 7952 H 800.829 -0.725937 3.0354 0
M  V30 7953 N 801.13 -1.57531 -0.0467866 0
M  V30 7954 C 802.378 -1.88078 -0.739656 0
M  V30 7955 C 802.699 -0.821936 -1.76831 0
M  V30 7956 O 801.969 0.146582 -1.95351 0
M  V30 7957 H 800.549 -0.694075 -0.276169 0
M  V30 7958 H 803.211 -1.94893 -0.0169391 0
M  V30 7959 H 802.307 -2.86396 -1.24031 0
M  V30 7960 N 802.608 0.318715 -1.54344 0
M  V30 7961 C 804.024 0.663345 -1.45162 0
M  V30 7962 C 804.224 1.9145 -0.62842 0
M  V30 7963 O 803.28 2.5217 -0.129126 0
M  V30 7964 C 804.593 0.832836 -2.88937 0
M  V30 7965 C 806.141 0.929866 -2.98869 0
M  V30 7966 C 806.616 1.13149 -4.43803 0
M  V30 7967 N 808.107 1.19811 -4.47437 0
M  V30 7968 C 808.842 1.37209 -5.56742 0
M  V30 7969 N 808.338 1.51619 -6.76006 0
M  V30 7970 N 810.131 1.39956 -5.44398 0
M  V30 7971 H 802.282 -0.50357 -2.06344 0
M  V30 7972 H 804.545 -0.163528 -0.933789 0
M  V30 7973 H 804.251 -0.0153519 -3.51697 0
M  V30 7974 H 804.125 1.72721 -3.35332 0
M  V30 7975 H 806.512 1.76855 -2.36233 0
M  V30 7976 H 806.593 0.0118561 -2.55797 0
M  V30 7977 H 806.237 0.297636 -5.07027 0
M  V30 7978 H 806.167 2.06345 -4.84489 0
M  V30 7979 H 808.658 1.101 -3.61506 0
M  V30 7980 H 808.971 1.64599 -7.55067 0
M  V30 7981 H 807.316 1.48708 -6.78904 0
M  V30 7982 H 810.507 1.28298 -4.50175 0
M  V30 7983 H 810.68 1.53172 -6.29637 0
M  V30 7984 N 804.086 1.46499 0.581025 0
M  V30 7985 C 805.018 1.53225 1.70455 0
M  V30 7986 C 806.031 0.420443 1.57277 0
M  V30 7987 O 807.22 0.688888 1.64671 0
M  V30 7988 C 804.32 1.39803 3.08721 0
M  V30 7989 C 803.493 2.65132 3.47884 0
M  V30 7990 C 802.552 2.45886 4.65217 0
M  V30 7991 O 801.578 3.19615 4.70993 0
M  V30 7992 N 802.78 1.5216 5.60203 0
M  V30 7993 H 805.545 2.50098 1.65139 0
M  V30 7994 H 803.106 1.42576 0.76705 0
M  V30 7995 H 805.098 1.24697 3.8501 0
M  V30 7996 H 803.668 0.51104 3.08394 0
M  V30 7997 H 802.888 2.95169 2.61284 0
M  V30 7998 H 804.176 3.48385 3.70817 0
M  V30 7999 H 803.574 0.913646 5.58273 0
M  V30 8000 H 802.131 1.43017 6.35916 0
M  V30 8001 N 805.565 -0.825799 1.34232 0
M  V30 8002 C 806.79 -1.61883 1.29648 0
M  V30 8003 C 807.215 -1.87669 -0.127295 0
M  V30 8004 O 806.573 -1.45016 -1.08813 0
M  V30 8005 C 806.621 -2.93846 2.09014 0
M  V30 8006 O 805.725 -3.85778 1.4577 0
M  V30 8007 H 805.066 -0.492454 0.445405 0
M  V30 8008 H 807.596 -1.02641 1.76992 0
M  V30 8009 H 807.606 -3.43435 2.20264 0
M  V30 8010 H 806.281 -2.74401 3.12533 0
M  V30 8011 H 804.858 -3.4429 1.43245 0
M  V30 8012 N 807.043 -1.17915 -1.04565 0
M  V30 8013 C 808.291 -0.969505 -1.77327 0
M  V30 8014 C 808.612 0.502569 -1.88412 0
M  V30 8015 O 807.882 1.36467 -1.40547 0
M  V30 8016 H 806.462 -0.355723 -0.656864 0
M  V30 8017 H 809.124 -1.48506 -1.26223 0
M  V30 8018 H 808.22 -1.40324 -2.78775 0
M  V30 8019 N 808.521 1.23394 -0.980386 0
M  V30 8020 C 809.746 1.96384 -0.666935 0
M  V30 8021 C 810.171 1.72087 0.759456 0
M  V30 8022 O 809.529 0.992328 1.51732 0
M  V30 8023 C 809.577 3.47499 -0.963177 0
M  V30 8024 O 808.681 4.12363 -0.0552051 0
M  V30 8025 H 808.022 0.614797 -0.250839 0
M  V30 8026 H 810.552 1.56831 -1.31398 0
M  V30 8027 H 810.562 3.97953 -0.899877 0
M  V30 8028 H 809.237 3.6451 -2.00264 0
M  V30 8029 H 807.814 3.72499 -0.172914 0
M  V30 8030 N 809.999 0.752036 1.385 0
M  V30 8031 C 811.415 0.42946 1.53713 0
M  V30 8032 C 811.615 -1.0576 1.71514 0
M  V30 8033 O 810.671 -1.84366 1.72527 0
M  V30 8034 C 811.984 1.22735 2.74511 0
M  V30 8035 C 813.532 1.21727 2.8836 0
M  V30 8036 C 814.007 1.99809 4.12117 0
M  V30 8037 N 815.498 1.97062 4.19191 0
M  V30 8038 C 816.233 2.54274 5.13938 0
M  V30 8039 N 815.729 3.20193 6.14368 0
M  V30 8040 N 817.522 2.44212 5.06277 0
M  V30 8041 H 809.673 1.71581 1.25195 0
M  V30 8042 H 811.936 0.727293 0.60807 0
M  V30 8043 H 811.642 2.28032 2.67758 0
M  V30 8044 H 811.516 0.843186 3.67655 0
M  V30 8045 H 813.903 0.172367 2.94596 0
M  V30 8046 H 813.984 1.64094 1.96232 0
M  V30 8047 H 813.628 3.0431 4.06642 0
M  V30 8048 H 813.558 1.54837 5.03322 0
M  V30 8049 H 816.049 1.49054 3.47263 0
M  V30 8050 H 816.362 3.61272 6.83156 0
M  V30 8051 H 814.707 3.24287 6.14705 0
M  V30 8052 H 817.898 1.92343 4.26757 0
M  V30 8053 H 818.071 2.89096 5.79937 0
M  V30 8054 N 811.477 -1.49425 0.500989 0
M  V30 8055 C 812.725 -2.02053 -0.0434495 0
M  V30 8056 C 813.046 -1.38285 -1.37486 0
M  V30 8057 O 812.316 -0.538171 -1.88363 0
M  V30 8058 H 810.896 -0.746757 -0.0190469 0
M  V30 8059 H 813.558 -1.83449 0.658227 0
M  V30 8060 H 812.654 -3.11619 -0.173129 0
M  V30 8061 N 812.955 -0.234822 -1.55841 0
M  V30 8062 C 814.203 0.392483 -1.98252 0
M  V30 8063 C 814.524 1.59344 -1.12404 0
M  V30 8064 O 813.794 1.94834 -0.204055 0
M  V30 8065 H 812.374 0.147999 -0.732192 0
M  V30 8066 H 815.036 -0.330804 -1.92072 0
M  V30 8067 H 814.132 0.709829 -3.03921 0
M  V30 8068 N 814.433 1.57553 0.0384317 0
M  V30 8069 C 815.658 1.93485 0.746872 0
M  V30 8070 C 816.083 0.834069 1.68597 0
M  V30 8071 O 815.441 -0.210902 1.80069 0
M  V30 8072 C 815.489 3.28463 1.4881 0
M  V30 8073 O 814.593 3.20051 2.60079 0
M  V30 8074 H 813.934 0.632675 0.201539 0
M  V30 8075 H 816.464 2.046 -0.00329815 0
M  V30 8076 H 816.474 3.63132 1.86009 0
M  V30 8077 H 815.149 4.08147 0.799297 0
M  V30 8078 H 813.726 2.96998 2.25492 0
M  V30 8079 N 815.911 -0.310526 1.54511 0
M  V30 8080 C 817.159 -1.04484 1.72996 0
M  V30 8081 C 817.48 -1.88118 0.513479 0
M  V30 8082 O 816.75 -1.90119 -0.472384 0
M  V30 8083 H 815.33 -0.388747 0.637875 0
M  V30 8084 H 817.992 -0.343811 1.91844 0
M  V30 8085 H 817.088 -1.70341 2.61515 0
M  V30 8086 N 817.389 -1.46805 -0.573248 0
M  V30 8087 C 818.637 -1.52302 -1.32847 0
M  V30 8088 C 818.958 -0.180159 -1.94166 0
M  V30 8089 O 818.228 0.794291 -1.79075 0
M  V30 8090 H 816.808 -0.56097 -0.493276 0
M  V30 8091 H 819.47 -1.82998 -0.670642 0
M  V30 8092 H 818.566 -2.28089 -2.13031 0
M  V30 8093 N 818.867 0.818669 -1.34668 0
M  V30 8094 C 820.115 1.57201 -1.27013 0
M  V30 8095 C 820.436 1.94354 0.158599 0
M  V30 8096 O 819.706 1.62626 1.09223 0
M  V30 8097 H 818.286 0.582919 -0.467135 0
M  V30 8098 H 820.948 0.977234 -1.6863 0
M  V30 8099 H 820.044 2.49291 -1.87778 0
M  V30 8100 N 820.346 1.18468 1.03938 0
M  V30 8101 C 821.594 0.978895 1.76811 0
M  V30 8102 C 821.915 -0.49257 1.88676 0
M  V30 8103 O 821.185 -1.3572 1.41269 0
M  V30 8104 H 819.765 0.359201 0.654968 0
M  V30 8105 H 822.427 1.49173 1.25433 0
M  V30 8106 H 821.523 1.418 2.78027 0
M  V30 8107 N 821.824 -1.22873 0.986916 0
M  V30 8108 C 823.049 -1.96028 0.677341 0
M  V30 8109 C 823.474 -1.72487 -0.750319 0
M  V30 8110 O 822.832 -1.00036 -1.51203 0
M  V30 8111 C 822.88 -3.46983 0.981593 0
M  V30 8112 O 821.984 -4.12328 0.0770729 0
M  V30 8113 H 821.325 -0.613458 0.254096 0
M  V30 8114 H 823.855 -1.56132 1.32227 0
M  V30 8115 H 823.865 -3.9747 0.920969 0
M  V30 8116 H 822.54 -3.63442 2.02194 0
M  V30 8117 H 821.117 -3.72402 0.192666 0
M  V30 8118 N 823.302 -0.75937 -1.38099 0
M  V30 8119 C 824.551 -0.314864 -1.99227 0
M  V30 8120 C 824.864 1.1113 -1.60964 0
M  V30 8121 O 826.07 1.65657 -2.15105 0
M  V30 8122 C 824.526 -0.512001 -3.56239 0
M  V30 8123 C 824.134 -1.94762 -4.0345 0
M  V30 8124 C 825.878 -0.130497 -4.24299 0
M  V30 8125 C 823.785 -2.09301 -5.53125 0
M  V30 8126 H 822.715 -0.113978 -0.745335 0
M  V30 8127 H 825.366 -0.936736 -1.57789 0
M  V30 8128 H 823.748 0.179144 -3.95595 0
M  V30 8129 H 824.922 -2.67271 -3.75371 0
M  V30 8130 H 823.237 -2.28457 -3.48133 0
M  V30 8131 H 825.834 -0.21781 -5.34256 0
M  V30 8132 H 826.177 0.917644 -4.0606 0
M  V30 8133 H 826.71 -0.773716 -3.90203 0
M  V30 8134 H 823.449 -3.1239 -5.76275 0
M  V30 8135 H 822.969 -1.41261 -5.82928 0
M  V30 8136 H 824.648 -1.88571 -6.1891 0
M  V30 8137 N 824.78 1.49157 -0.508906 0
M  V30 8138 C 826.005 2.07376 0.0315182 0
M  V30 8139 C 826.43 1.36575 1.2934 0
M  V30 8140 O 825.788 0.424963 1.76249 0
M  V30 8141 C 825.836 3.59661 0.260118 0
M  V30 8142 O 824.94 3.90255 1.33322 0
M  V30 8143 H 824.281 0.663334 -0.029739 0
M  V30 8144 H 826.811 1.91857 -0.710791 0
M  V30 8145 H 826.821 4.05056 0.489225 0
M  V30 8146 H 825.496 4.10601 -0.661794 0
M  V30 8147 H 824.073 3.56661 1.08844 0
M  V30 8148 N 826.258 0.243083 1.55714 0
M  V30 8149 C 827.506 -0.381964 1.98458 0
M  V30 8150 C 827.827 -1.58745 1.13247 0
M  V30 8151 O 827.097 -1.94723 0.214384 0
M  V30 8152 H 825.677 -0.144114 0.732967 0
M  V30 8153 H 828.339 0.340985 1.91894 0
M  V30 8154 H 827.435 -0.693702 3.04293 0
M  V30 8155 N 827.736 -1.57571 -0.0300757 0
M  V30 8156 C 828.984 -1.88852 -0.719666 0
M  V30 8157 C 829.305 -0.840645 -1.75949 0
M  V30 8158 O 828.575 0.125854 -1.95495 0
M  V30 8159 H 827.155 -0.696965 -0.268792 0
M  V30 8160 H 829.817 -1.949 0.00373285 0
M  V30 8161 H 828.913 -2.87695 -1.20987 0
M  V30 8162 N 829.214 0.302327 -1.54673 0
M  V30 8163 C 830.462 1.03565 -1.73547 0
M  V30 8164 C 830.783 1.87843 -0.523448 0
M  V30 8165 O 830.053 1.90367 0.462295 0
M  V30 8166 H 828.633 0.385358 -0.639928 0
M  V30 8167 H 831.295 0.333632 -1.92023 0
M  V30 8168 H 830.391 1.68952 -2.62415 0
M  V30 8169 N 830.692 1.47107 0.565454 0
M  V30 8170 C 831.922 1.56681 1.34664 0
M  V30 8171 C 832.33 0.213011 1.87997 0
M  V30 8172 O 831.673 -0.802629 1.65238 0
M  V30 8173 C 831.735 2.52528 2.55871 0
M  V30 8174 C 831.399 3.98403 2.23883 0
M  V30 8175 C 832.396 4.87125 1.81673 0
M  V30 8176 C 830.081 4.43674 2.35496 0
M  V30 8177 C 832.075 6.19135 1.51494 0
M  V30 8178 C 829.762 5.75714 2.0493 0
M  V30 8179 C 830.76 6.63266 1.62996 0
M  V30 8180 O 830.448 7.92853 1.32813 0
M  V30 8181 H 830.18 0.531967 0.417117 0
M  V30 8182 H 832.734 1.93368 0.692669 0
M  V30 8183 H 830.964 2.10893 3.24131 0
M  V30 8184 H 832.653 2.5232 3.17945 0
M  V30 8185 H 833.419 4.534 1.72201 0
M  V30 8186 H 829.298 3.7574 2.67096 0
M  V30 8187 H 832.842 6.87429 1.1869 0
M  V30 8188 H 828.739 6.08983 2.14031 0
M  V30 8189 H 829.507 8.0528 1.46513 0
M  V30 8190 N 832.17 -0.811516 1.35101 0
M  V30 8191 C 833.418 -1.56525 1.27845 0
M  V30 8192 C 833.739 -1.94435 -0.14829 0
M  V30 8193 O 833.009 -1.63203 -1.08359 0
M  V30 8194 H 831.589 -0.580433 0.47022 0
M  V30 8195 H 834.251 -0.968277 1.69146 0
M  V30 8196 H 833.347 -2.48291 1.89097 0
M  V30 8197 N 833.648 -1.19017 -1.03309 0
M  V30 8198 C 834.873 -1.01598 -1.80811 0
M  V30 8199 C 835.298 0.430773 -1.83101 0
M  V30 8200 O 834.656 1.30946 -1.25391 0
M  V30 8201 C 834.704 -1.5845 -3.23923 0
M  V30 8202 O 833.808 -0.810972 -4.04348 0
M  V30 8203 H 833.149 -0.359398 -0.558327 0
M  V30 8204 H 835.679 -1.57945 -1.30055 0
M  V30 8205 H 835.689 -1.61486 -3.74682 0
M  V30 8206 H 834.364 -2.63752 -3.21571 0
M  V30 8207 H 832.941 -0.85353 -3.63 0
M  V30 8208 N 835.127 1.22348 -0.993418 0
M  V30 8209 C 836.375 1.90733 -0.668246 0
M  V30 8210 C 836.696 1.77732 0.802261 0
M  V30 8211 O 835.966 1.16486 1.57505 0
M  V30 8212 H 834.546 0.705966 -0.244174 0
M  V30 8213 H 837.208 1.48691 -1.26004 0
M  V30 8214 H 836.304 2.97883 -0.931239 0
M  V30 8215 N 836.605 0.766683 1.37694 0
M  V30 8216 C 837.853 0.328065 1.9942 0
M  V30 8217 C 838.174 -1.09775 1.61166 0
M  V30 8218 O 837.444 -1.75288 0.874686 0
M  V30 8219 H 836.024 0.11831 0.737572 0
M  V30 8220 H 838.686 0.983686 1.68255 0
M  V30 8221 H 837.782 0.401647 3.09505 0
M  V30 8222 N 838.083 -1.48885 0.516809 0
M  V30 8223 C 839.331 -2.02088 -0.0220166 0
M  V30 8224 C 839.652 -1.39735 -1.36011 0
M  V30 8225 O 838.922 -0.558119 -1.87781 0
M  V30 8226 H 837.502 -0.746917 -0.0111255 0
M  V30 8227 H 840.164 -1.8274 0.677647 0
M  V30 8228 H 839.26 -3.11786 -0.140067 0
M  V30 8229 N 839.561 -0.251338 -1.55583 0
M  V30 8230 C 840.786 0.379136 -2.03905 0
M  V30 8231 C 841.211 1.50428 -1.12929 0
M  V30 8232 O 840.569 1.80882 -0.123114 0
M  V30 8233 C 840.617 0.86009 -3.50193 0
M  V30 8234 O 839.721 1.96932 -3.62342 0
M  V30 8235 H 839.062 0.0820183 -0.658915 0
M  V30 8236 H 841.592 -0.378692 -2.01065 0
M  V30 8237 H 841.602 1.16214 -3.91099 0
M  V30 8238 H 840.277 0.0367559 -4.15884 0
M  V30 8239 H 838.854 1.67163 -3.33333 0
M  V30 8240 N 841.039 1.57585 0.0217189 0
M  V30 8241 C 842.287 1.89231 0.709641 0
M  V30 8242 C 842.608 0.849964 1.75501 0
M  V30 8243 O 841.878 -0.115485 1.95559 0
M  V30 8244 H 840.458 0.69838 0.265092 0
M  V30 8245 H 843.12 1.94895 -0.0140688 0
M  V30 8246 H 842.216 2.88333 1.19459 0
M  V30 8247 N 842.517 -0.29412 1.54831 0
M  V30 8248 C 843.765 -1.02643 1.74094 0
M  V30 8249 C 844.086 -1.87563 0.533402 0
M  V30 8250 O 843.356 -1.9061 -0.452192 0
M  V30 8251 H 841.936 -0.381959 0.641963 0
M  V30 8252 H 844.598 -0.323444 1.92197 0
M  V30 8253 H 843.694 -1.67558 2.63307 0
M  V30 8254 N 843.995 -1.47404 -0.557645 0
M  V30 8255 C 845.411 -1.32913 -0.88353 0
M  V30 8256 C 845.611 -0.31929 -1.98954 0
M  V30 8257 O 844.667 0.26934 -2.51059 0
M  V30 8258 C 845.98 -2.72229 -1.27718 0
M  V30 8259 C 847.528 -2.8051 -1.38863 0
M  V30 8260 C 848.003 -4.20466 -1.81583 0
M  V30 8261 N 849.494 -4.23005 -1.88735 0
M  V30 8262 C 850.229 -5.2821 -2.23118 0
M  V30 8263 N 849.725 -6.4372 -2.56117 0
M  V30 8264 N 851.518 -5.15588 -2.23888 0
M  V30 8265 H 843.669 -2.11698 0.172557 0
M  V30 8266 H 845.932 -0.947889 0.0145334 0
M  V30 8267 H 845.638 -3.47556 -0.538329 0
M  V30 8268 H 845.512 -3.03971 -2.23342 0
M  V30 8269 H 847.899 -2.05457 -2.11829 0
M  V30 8270 H 847.98 -2.52423 -0.414274 0
M  V30 8271 H 847.624 -4.96025 -1.09187 0
M  V30 8272 H 847.554 -4.45977 -2.80021 0
M  V30 8273 H 850.045 -3.39674 -1.65621 0
M  V30 8274 H 850.358 -7.19754 -2.81378 0
M  V30 8275 H 848.703 -6.47041 -2.53698 0
M  V30 8276 H 851.894 -4.24374 -1.97546 0
M  V30 8277 H 852.067 -5.97685 -2.50353 0
M  V30 8278 N 845.473 0.80434 -1.35529 0
M  V30 8279 C 846.703 1.59052 -1.31856 0
M  V30 8280 C 847.111 1.88905 0.105549 0
M  V30 8281 O 846.454 1.49422 1.06858 0
M  V30 8282 C 846.516 2.94626 -2.06 0
M  V30 8283 C 846.18 2.87576 -3.55175 0
M  V30 8284 C 847.177 2.60856 -4.49722 0
M  V30 8285 C 844.862 3.06623 -3.97854 0
M  V30 8286 C 846.856 2.53262 -5.84925 0
M  V30 8287 C 844.543 2.98652 -5.33151 0
M  V30 8288 C 845.541 2.72007 -6.26499 0
M  V30 8289 O 845.229 2.64003 -7.59314 0
M  V30 8290 H 844.961 0.500486 -0.454411 0
M  V30 8291 H 847.515 1.0074 -1.78999 0
M  V30 8292 H 845.745 3.5493 -1.53498 0
M  V30 8293 H 847.434 3.55785 -1.95376 0
M  V30 8294 H 848.2 2.45858 -4.18066 0
M  V30 8295 H 844.079 3.26372 -3.2558 0
M  V30 8296 H 847.623 2.32386 -6.57756 0
M  V30 8297 H 843.52 3.13208 -5.64421 0
M  V30 8298 H 844.288 2.79595 -7.69265 0
M  V30 8299 N 846.951 1.19563 1.02676 0
M  V30 8300 C 848.199 0.997593 1.75763 0
M  V30 8301 C 848.52 -0.47253 1.89188 0
M  V30 8302 O 847.79 -1.34214 1.42701 0
M  V30 8303 H 846.37 0.366128 0.651122 0
M  V30 8304 H 849.032 1.50495 1.23844 0
M  V30 8305 H 848.128 1.44741 2.76508 0
M  V30 8306 N 848.429 -1.21819 0.999893 0
M  V30 8307 C 849.654 -1.95298 0.698094 0
M  V30 8308 C 850.079 -1.73273 -0.731982 0
M  V30 8309 O 849.437 -1.01634 -1.50134 0
M  V30 8310 C 849.485 -3.45922 1.01834 0
M  V30 8311 O 848.589 -4.12223 0.120801 0
M  V30 8312 H 847.93 -0.610729 0.260588 0
M  V30 8313 H 850.46 -1.5472 1.33876 0
M  V30 8314 H 850.47 -3.96471 0.963074 0
M  V30 8315 H 849.145 -3.61278 2.06037 0
M  V30 8316 H 847.722 -3.72177 0.232153 0
M  V30 8317 N 849.908 -0.773975 -1.37286 0
M  V30 8318 C 851.156 -0.338636 -1.99243 0
M  V30 8319 C 851.477 1.08919 -1.61746 0
M  V30 8320 O 850.747 1.74822 -0.88397 0
M  V30 8321 H 849.327 -0.12222 -0.736934 0
M  V30 8322 H 851.989 -0.992595 -1.67731 0
M  V30 8323 H 851.085 -0.418055 -3.09287 0
M  V30 8324 N 851.386 1.48609 -0.524698 0
M  V30 8325 C 852.634 2.02097 0.0112991 0
M  V30 8326 C 852.955 1.40455 1.35268 0
M  V30 8327 O 852.225 0.56807 1.87483 0
M  V30 8328 H 850.805 0.746966 0.00716426 0
M  V30 8329 H 853.467 1.82378 -0.687329 0
M  V30 8330 H 852.563 3.11855 0.123531 0
M  V30 8331 N 852.864 0.259585 1.55447 0
M  V30 8332 C 854.112 -0.360893 1.98852 0
M  V30 8333 C 854.433 -1.57535 1.14924 0
M  V30 8334 O 853.703 -1.94485 0.235025 0
M  V30 8335 H 852.283 -0.136332 0.734454 0
M  V30 8336 H 854.945 0.361319 1.91522 0
M  V30 8337 H 854.041 -0.661388 3.05012 0
M  V30 8338 N 854.342 -1.57594 -0.0133615 0
M  V30 8339 C 855.567 -1.94649 -0.715996 0
M  V30 8340 C 855.992 -0.860786 -1.67249 0
M  V30 8341 O 855.35 0.182228 -1.80382 0
M  V30 8342 C 855.398 -3.30789 -1.43566 0
M  V30 8343 O 854.502 -3.24148 -2.54955 0
M  V30 8344 H 853.843 -0.635801 -0.191449 0
M  V30 8345 H 856.373 -2.04569 0.0358478 0
M  V30 8346 H 856.383 -3.66045 -1.80208 0
M  V30 8347 H 855.058 -4.09367 -0.734263 0
M  V30 8348 H 853.635 -3.00548 -2.20739 0
M  V30 8349 N 855.82 0.285905 -1.54985 0
M  V30 8350 C 856.767 1.35306 -1.86978 0
M  V30 8351 C 857.737 1.49682 -0.720046 0
M  V30 8352 O 858.922 1.64297 -0.970107 0
M  V30 8353 C 856.062 2.71059 -2.13591 0
M  V30 8354 C 855.175 2.6501 -3.41165 0
M  V30 8355 C 854.31 3.92856 -3.57544 0
M  V30 8356 C 853.349 3.81266 -4.78855 0
M  V30 8357 N 852.486 5.00919 -4.9196 0
M  V30 8358 H 857.326 1.07323 -2.78003 0
M  V30 8359 H 854.863 0.518776 -1.37649 0
M  V30 8360 H 856.821 3.50026 -2.27019 0
M  V30 8361 H 855.451 2.97271 -1.25816 0
M  V30 8362 H 854.503 1.77824 -3.36278 0
M  V30 8363 H 855.815 2.52342 -4.30262 0
M  V30 8364 H 854.969 4.80263 -3.70718 0
M  V30 8365 H 853.708 4.08377 -2.66608 0
M  V30 8366 H 852.713 2.92243 -4.65698 0
M  V30 8367 H 853.938 3.67277 -5.71213 0
M  V30 8368 H 851.884 5.16875 -4.03951 0
M  V30 8369 H 851.801 4.90732 -5.75081 0
M  V30 8370 H 853.069 5.89935 -5.09507 0
M  V30 8371 N 857.298 1.47698 0.54982 0
M  V30 8372 C 858.546 1.54397 1.30407 0
M  V30 8373 C 858.867 0.211026 1.93855 0
M  V30 8374 O 858.137 -0.765701 1.80316 0
M  V30 8375 H 856.717 0.568747 0.484289 0
M  V30 8376 H 859.379 1.84042 0.641444 0
M  V30 8377 H 858.475 2.31449 2.09375 0
M  V30 8378 N 858.776 -0.797141 1.35954 0
M  V30 8379 C 860.024 -1.55161 1.29497 0
M  V30 8380 C 860.345 -1.94582 -0.127659 0
M  V30 8381 O 859.615 -1.64343 -1.06622 0
M  V30 8382 H 858.195 -0.575413 0.47635 0
M  V30 8383 H 860.857 -0.950282 1.70164 0
M  V30 8384 H 859.953 -2.46272 1.9172 0
M  V30 8385 N 860.254 -1.20106 -1.0204 0
M  V30 8386 C 861.479 -1.0351 -1.79723 0
M  V30 8387 C 861.904 0.411328 -1.83548 0
M  V30 8388 O 861.262 1.29608 -1.26773 0
M  V30 8389 C 861.31 -1.61876 -3.22224 0
M  V30 8390 O 860.414 -0.853813 -4.03465 0
M  V30 8391 H 859.755 -0.365299 -0.554484 0
M  V30 8392 H 862.285 -1.59316 -1.28373 0
M  V30 8393 H 862.295 -1.65451 -3.72948 0
M  V30 8394 H 860.97 -2.67148 -3.18755 0
M  V30 8395 H 859.547 -0.891983 -3.62075 0
M  V30 8396 N 861.732 1.21287 -1.00634 0
M  V30 8397 C 862.981 1.89706 -0.685178 0
M  V30 8398 C 863.294 1.79044 0.787566 0
M  V30 8399 O 864.5 2.42502 1.22086 0
M  V30 8400 C 862.956 3.40176 -1.17508 0
M  V30 8401 C 862.564 3.59446 -2.674 0
M  V30 8402 C 864.308 4.14213 -0.928869 0
M  V30 8403 C 862.215 5.03688 -3.09923 0
M  V30 8404 H 861.145 0.710434 -0.252586 0
M  V30 8405 H 863.796 1.37277 -1.21768 0
M  V30 8406 H 862.178 3.91867 -0.570622 0
M  V30 8407 H 863.352 3.18188 -3.33306 0
M  V30 8408 H 861.667 2.98764 -2.9005 0
M  V30 8409 H 864.264 5.20546 -1.22212 0
M  V30 8410 H 864.607 4.16082 0.134859 0
M  V30 8411 H 865.14 3.68591 -1.49619 0
M  V30 8412 H 861.879 5.06968 -4.15529 0
M  V30 8413 H 861.399 5.45796 -2.4873 0
M  V30 8414 H 863.078 5.72204 -3.0198 0
M  V30 8415 N 863.21 0.781244 1.36873 0
M  V30 8416 C 864.435 0.360398 2.04245 0
M  V30 8417 C 864.86 -1.01242 1.58529 0
M  V30 8418 O 864.218 -1.65063 0.749936 0
M  V30 8419 C 864.266 0.42329 3.58107 0
M  V30 8420 O 863.37 -0.572796 4.08403 0
M  V30 8421 H 862.711 0.154386 0.645803 0
M  V30 8422 H 865.241 1.06008 1.74996 0
M  V30 8423 H 865.251 0.283967 4.07011 0
M  V30 8424 H 863.926 1.42477 3.90734 0
M  V30 8425 H 862.503 -0.395809 3.70793 0
M  V30 8426 N 864.689 -1.48329 0.532571 0
M  V30 8427 C 865.937 -2.021 -0.000581206 0
M  V30 8428 C 866.258 -1.4117 -1.34522 0
M  V30 8429 O 865.528 -0.578005 -1.87179 0
M  V30 8430 H 864.108 -0.746993 -0.00320281 0
M  V30 8431 H 866.77 -1.82011 0.696991 0
M  V30 8432 H 865.866 -3.11917 -0.106991 0
M  V30 8433 N 866.167 -0.267825 -1.55308 0
M  V30 8434 C 867.415 0.350343 -1.9904 0
M  V30 8435 C 867.736 1.56924 -1.15758 0
M  V30 8436 O 867.006 1.94358 -0.245336 0
M  V30 8437 H 865.586 0.132435 -0.735167 0
M  V30 8438 H 868.248 -0.371471 -1.91327 0
M  V30 8439 H 867.344 0.645203 -3.05358 0
M  V30 8440 N 867.645 1.57599 0.00500368 0
M  V30 8441 C 868.893 1.89973 0.68953 0
M  V30 8442 C 869.214 0.868531 1.7459 0
M  V30 8443 O 868.484 -0.0947367 1.95671 0
M  V30 8444 H 867.064 0.701153 0.25767 0
M  V30 8445 H 869.726 1.94869 -0.0347392 0
M  V30 8446 H 868.822 2.89584 1.16394 0
M  V30 8447 N 869.123 -0.277682 1.55134 0
M  V30 8448 C 870.353 -1.02677 1.79279 0
M  V30 8449 C 870.761 -1.80599 0.563962 0
M  V30 8450 O 870.104 -1.77416 -0.476378 0
M  V30 8451 C 870.166 -2.03617 2.96277 0
M  V30 8452 C 869.83 -1.44676 4.33495 0
M  V30 8453 C 870.827 -0.864811 5.12657 0
M  V30 8454 C 868.512 -1.47537 4.80144 0
M  V30 8455 C 870.506 -0.319322 6.366 0
M  V30 8456 C 868.193 -0.926016 6.04043 0
M  V30 8457 C 869.191 -0.348988 6.82108 0
M  V30 8458 O 868.879 0.191964 8.03671 0
M  V30 8459 H 868.611 -0.309232 0.601125 0
M  V30 8460 H 871.165 -0.315308 2.02965 0
M  V30 8461 H 869.395 -2.78509 2.68272 0
M  V30 8462 H 871.084 -2.64616 3.07788 0
M  V30 8463 H 871.85 -0.835438 4.7775 0
M  V30 8464 H 867.729 -1.91389 4.19394 0
M  V30 8465 H 871.273 0.131709 6.97476 0
M  V30 8466 H 867.17 -0.952613 6.38432 0
M  V30 8467 H 867.938 0.0808779 8.1846 0
M  V30 8468 N 870.601 -1.47988 -0.541979 0
M  V30 8469 C 871.849 -1.55086 -1.29587 0
M  V30 8470 C 872.17 -0.221304 -1.9374 0
M  V30 8471 O 871.44 0.756128 -1.80719 0
M  V30 8472 H 870.02 -0.571307 -0.481266 0
M  V30 8473 H 872.682 -1.8438 -0.631675 0
M  V30 8474 H 871.778 -2.32556 -2.08144 0
M  V30 8475 N 872.079 0.78992 -1.36375 0
M  V30 8476 C 873.304 1.58389 -1.33895 0
M  V30 8477 C 873.729 1.8794 0.0774934 0
M  V30 8478 O 873.087 1.4785 1.0493 0
M  V30 8479 C 873.135 2.88201 -2.16732 0
M  V30 8480 O 872.239 3.81778 -1.55946 0
M  V30 8481 H 871.58 0.480471 -0.458305 0
M  V30 8482 H 874.11 0.979119 -1.79651 0
M  V30 8483 H 874.12 3.37475 -2.29292 0
M  V30 8484 H 872.795 2.66019 -3.19698 0
M  V30 8485 H 871.372 3.40371 -1.52323 0
M  V30 8486 N 873.557 1.20646 1.01402 0
M  V30 8487 C 874.805 1.01618 1.74695 0
M  V30 8488 C 875.126 -0.452438 1.89679 0
M  V30 8489 O 874.396 -1.32693 1.44116 0
M  V30 8490 H 872.976 0.373013 0.647202 0
M  V30 8491 H 875.638 1.518 1.22241 0
M  V30 8492 H 874.734 1.47666 2.74957 0
M  V30 8493 N 875.035 -1.20752 1.01276 0
M  V30 8494 C 876.283 -1.89645 0.698505 0
M  V30 8495 C 876.604 -1.78986 -0.773883 0
M  V30 8496 O 875.874 -1.18977 -1.55632 0
M  V30 8497 H 874.454 -0.701992 0.255375 0
M  V30 8498 H 877.116 -1.46668 1.28353 0
M  V30 8499 H 876.212 -2.96364 0.978512 0
M  V30 8500 N 876.513 -0.788492 -1.36457 0
M  V30 8501 C 877.761 -0.359749 -1.98872 0
M  V30 8502 C 878.082 1.07197 -1.62892 0
M  V30 8503 O 877.352 1.73875 -0.902463 0
M  V30 8504 H 875.932 -0.130029 -0.735596 0
M  V30 8505 H 878.594 -1.01033 -1.66668 0
M  V30 8506 H 877.69 -0.450835 -3.08827 0
M  V30 8507 N 877.991 1.48044 -0.54043 0
M  V30 8508 C 878.938 2.29781 0.216597 0
M  V30 8509 C 879.908 1.38021 0.924094 0
M  V30 8510 O 881.093 1.66985 0.923078 0
M  V30 8511 C 878.233 3.21623 1.2511 0
M  V30 8512 C 877.346 4.28467 0.551384 0
M  V30 8513 C 876.481 5.07477 1.56972 0
M  V30 8514 C 875.52 6.06113 0.854048 0
M  V30 8515 N 874.657 6.78143 1.81842 0
M  V30 8516 H 879.497 2.94001 -0.486578 0
M  V30 8517 H 877.034 1.44929 -0.251789 0
M  V30 8518 H 878.992 3.73279 1.8633 0
M  V30 8519 H 877.622 2.59305 1.92252 0
M  V30 8520 H 876.674 3.79997 -0.174982 0
M  V30 8521 H 877.986 4.98799 -0.0100542 0
M  V30 8522 H 877.14 5.63199 2.25592 0
M  V30 8523 H 875.879 4.37008 2.16507 0
M  V30 8524 H 874.884 5.49585 0.153838 0
M  V30 8525 H 876.109 6.78584 0.264675 0
M  V30 8526 H 874.055 6.10417 2.40265 0
M  V30 8527 H 873.972 7.44587 1.3087 0
M  V30 8528 H 875.24 7.38448 2.49628 0
M  V30 8529 N 879.47 0.276058 1.55163 0
M  V30 8530 C 880.42 -0.625549 2.19251 0
M  V30 8531 C 881.404 -1.11769 1.15744 0
M  V30 8532 O 882.596 -1.0626 1.41555 0
M  V30 8533 C 879.725 -1.80879 2.91784 0
M  V30 8534 C 878.811 -1.33379 4.0258 0
M  V30 8535 N 879.202 -0.575002 5.02521 0
M  V30 8536 C 877.5 -1.61666 4.15668 0
M  V30 8537 C 878.201 -0.325164 5.8079 0
M  V30 8538 N 877.177 -0.897851 5.36134 0
M  V30 8539 H 880.979 -0.0379943 2.93875 0
M  V30 8540 H 878.493 0.079661 1.62205 0
M  V30 8541 H 880.49 -2.466 3.36146 0
M  V30 8542 H 879.15 -2.40028 2.1867 0
M  V30 8543 H 880.161 -0.222256 5.17423 0
M  V30 8544 H 876.838 -2.21745 3.53745 0
M  V30 8545 H 878.228 0.282598 6.71305 0
M  V30 8546 N 880.948 -1.576 0.00335426 0
M  V30 8547 C 882.173 -1.95398 -0.695311 0
M  V30 8548 C 882.598 -0.878476 -1.66326 0
M  V30 8549 O 881.956 0.163086 -1.80565 0
M  V30 8550 C 882.004 -3.32293 -1.40049 0
M  V30 8551 O 881.108 -3.26834 -2.51502 0
M  V30 8552 H 880.449 -0.637796 -0.184694 0
M  V30 8553 H 882.979 -2.04519 0.057543 0
M  V30 8554 H 882.989 -3.67936 -1.76316 0
M  V30 8555 H 881.664 -4.10123 -0.690803 0
M  V30 8556 H 880.241 -3.02872 -2.17539 0
M  V30 8557 N 882.426 0.269451 -1.5528 0
M  V30 8558 C 883.651 1.02299 -1.80415 0
M  V30 8559 C 884.076 1.7902 -0.577363 0
M  V30 8560 O 883.434 1.75018 0.473125 0
M  V30 8561 C 883.482 1.95445 -3.0304 0
M  V30 8562 O 882.586 3.04271 -2.78375 0
M  V30 8563 H 881.927 0.292289 -0.596207 0
M  V30 8564 H 884.457 0.297282 -2.02429 0
M  V30 8565 H 884.467 2.37333 -3.31869 0
M  V30 8566 H 883.142 1.39017 -3.91978 0
M  V30 8567 H 881.719 2.66673 -2.60653 0
M  V30 8568 N 883.904 1.48273 0.534124 0
M  V30 8569 C 885.152 1.55771 1.28762 0
M  V30 8570 C 885.473 0.231575 1.9362 0
M  V30 8571 O 884.743 -0.746533 1.81118 0
M  V30 8572 H 883.323 0.573851 0.47823 0
M  V30 8573 H 885.985 1.84712 0.621888 0
M  V30 8574 H 885.081 2.33657 2.06908 0
M  V30 8575 N 885.382 -0.782676 1.36792 0
M  V30 8576 C 886.63 -1.53778 1.31136 0
M  V30 8577 C 886.951 -1.94706 -0.107014 0
M  V30 8578 O 886.221 -1.65465 -1.04872 0
M  V30 8579 H 884.801 -0.570328 0.482426 0
M  V30 8580 H 887.463 -0.932181 1.71162 0
M  V30 8581 H 886.559 -2.44224 1.94321 0
M  V30 8582 N 886.86 -1.21182 -1.00761 0
M  V30 8583 C 888.108 -1.02543 -1.74153 0
M  V30 8584 C 888.429 0.442372 -1.89916 0
M  V30 8585 O 887.699 1.31927 -1.44818 0
M  V30 8586 H 886.279 -0.37644 -0.645214 0
M  V30 8587 H 888.941 -1.52446 -1.21434 0
M  V30 8588 H 888.037 -1.49122 -2.7417 0
M  V30 8589 N 888.338 1.20213 -1.01915 0
M  V30 8590 C 889.563 1.94163 -0.729076 0
M  V30 8591 C 889.988 1.74416 0.704323 0
M  V30 8592 O 889.346 1.0401 1.48498 0
M  V30 8593 C 889.394 3.44258 -1.07324 0
M  V30 8594 O 888.498 4.11979 -0.186367 0
M  V30 8595 H 887.839 0.606506 -0.270272 0
M  V30 8596 H 890.369 1.52571 -1.3632 0
M  V30 8597 H 890.379 3.94888 -1.02603 0
M  V30 8598 H 889.054 3.57954 -2.11759 0
M  V30 8599 H 887.631 3.7176 -0.291334 0
M  V30 8600 N 889.816 0.795718 1.36037 0
M  V30 8601 C 891.232 0.478145 1.52269 0
M  V30 8602 C 891.432 -1.0025 1.74792 0
M  V30 8603 O 890.488 -1.78783 1.78305 0
M  V30 8604 C 891.801 1.31406 2.70468 0
M  V30 8605 C 893.349 1.3084 2.84341 0
M  V30 8606 C 893.824 2.12819 4.05551 0
M  V30 8607 N 895.315 2.10298 4.12709 0
M  V30 8608 C 896.05 2.70495 5.05589 0
M  V30 8609 N 895.546 3.39576 6.03871 0
M  V30 8610 N 897.339 2.60195 4.98252 0
M  V30 8611 H 889.49 1.75477 1.19673 0
M  V30 8612 H 891.753 0.74627 0.584624 0
M  V30 8613 H 891.459 2.36435 2.60368 0
M  V30 8614 H 891.333 0.959726 3.64786 0
M  V30 8615 H 893.72 0.266003 2.93899 0
M  V30 8616 H 893.801 1.70254 1.90912 0
M  V30 8617 H 893.445 3.17093 3.96755 0
M  V30 8618 H 893.375 1.70772 4.98141 0
M  V30 8619 H 895.866 1.60026 3.42345 0
M  V30 8620 H 896.179 3.82823 6.71317 0
M  V30 8621 H 894.524 3.43679 6.04077 0
M  V30 8622 H 897.715 2.05823 4.20422 0
M  V30 8623 H 897.888 3.074 5.70447 0
M  V30 8624 N 891.294 -1.47756 0.548274 0
M  V30 8625 C 892.542 -2.02089 0.0208542 0
M  V30 8626 C 892.863 -1.42589 -1.33017 0
M  V30 8627 O 892.133 -0.597825 -1.86555 0
M  V30 8628 H 890.713 -0.746985 0.00472023 0
M  V30 8629 H 893.375 -1.81262 0.716257 0
M  V30 8630 H 892.471 -3.12012 -0.0739016 0
M  V30 8631 N 892.772 -0.284283 -1.55015 0
M  V30 8632 C 894.02 0.329212 -1.99401 0
M  V30 8633 C 894.341 1.55687 -1.17416 0
M  V30 8634 O 893.611 1.94087 -0.265937 0
M  V30 8635 H 892.191 0.12463 -0.73653 0
M  V30 8636 H 894.853 -0.391743 -1.90922 0
M  V30 8637 H 893.949 0.61278 -3.06025 0
M  V30 8638 N 894.251 1.57596 -0.0117121 0
M  V30 8639 C 895.476 1.95764 0.684938 0
M  V30 8640 C 895.901 0.887285 1.65858 0
M  V30 8641 O 895.259 -0.153508 1.80649 0
M  V30 8642 C 895.307 3.33031 1.38285 0
M  V30 8643 O 894.411 3.28163 2.49765 0
M  V30 8644 H 893.752 0.638767 0.181309 0
M  V30 8645 H 896.282 2.04486 -0.0683883 0
M  V30 8646 H 896.292 3.68866 1.74362 0
M  V30 8647 H 894.967 4.10483 0.669043 0
M  V30 8648 H 893.544 3.04021 2.15929 0
M  V30 8649 N 895.729 -0.261212 1.5542 0
M  V30 8650 C 896.954 -1.01341 1.80955 0
M  V30 8651 C 897.379 -1.78711 0.586849 0
M  V30 8652 O 896.737 -1.75266 -0.463837 0
M  V30 8653 C 896.785 -1.93835 3.04073 0
M  V30 8654 O 895.889 -3.02791 2.79985 0
M  V30 8655 H 895.23 -0.289123 0.597749 0
M  V30 8656 H 897.76 -0.286543 2.02584 0
M  V30 8657 H 897.77 -2.3557 3.33123 0
M  V30 8658 H 896.445 -1.36936 3.9271 0
M  V30 8659 H 895.022 -2.65287 2.62063 0
M  V30 8660 N 897.207 -1.48554 -0.526253 0
M  V30 8661 C 898.432 -1.60686 -1.31129 0
M  V30 8662 C 898.857 -0.268701 -1.86171 0
M  V30 8663 O 898.215 0.760167 -1.64594 0
M  V30 8664 C 898.263 -2.65938 -2.43536 0
M  V30 8665 O 897.367 -2.23356 -3.46678 0
M  V30 8666 H 896.708 -0.538691 -0.388211 0
M  V30 8667 H 899.238 -1.94567 -0.632826 0
M  V30 8668 H 899.248 -2.87327 -2.89668 0
M  V30 8669 H 897.923 -3.63085 -2.02835 0
M  V30 8670 H 896.5 -2.12196 -3.06639 0
M  V30 8671 N 898.685 0.775411 -1.37205 0
M  V30 8672 C 899.933 1.53081 -1.3195 0
M  V30 8673 C 900.254 1.9476 0.0966864 0
M  V30 8674 O 899.524 1.66019 1.03993 0
M  V30 8675 H 898.104 0.567762 -0.485444 0
M  V30 8676 H 900.766 0.92309 -1.71654 0
M  V30 8677 H 899.862 2.4319 -1.95614 0
M  V30 8678 N 900.163 1.21714 1.00117 0
M  V30 8679 C 901.411 1.03465 1.73607 0
M  V30 8680 C 901.732 -0.432295 1.90148 0
M  V30 8681 O 901.002 -1.31157 1.45515 0
M  V30 8682 H 899.582 0.379857 0.643209 0
M  V30 8683 H 902.244 1.53088 1.20624 0
M  V30 8684 H 901.34 1.50574 2.73375 0
M  V30 8685 N 901.641 -1.19671 1.02551 0
M  V30 8686 C 902.889 -1.88894 0.71858 0
M  V30 8687 C 903.21 -1.79797 -0.754856 0
M  V30 8688 O 902.48 -1.20621 -1.54362 0
M  V30 8689 H 901.06 -0.699244 0.262806 0
M  V30 8690 H 903.722 -1.45298 1.29902 0
M  V30 8691 H 902.818 -2.95309 1.00989 0
M  V30 8692 N 903.119 -0.802921 -1.35613 0
M  V30 8693 C 904.349 -0.393359 -2.02821 0
M  V30 8694 C 904.757 0.999282 -1.60658 0
M  V30 8695 O 904.1 1.65463 -0.797977 0
M  V30 8696 C 904.162 -0.393102 -3.57344 0
M  V30 8697 C 903.826 -1.73563 -4.22759 0
M  V30 8698 C 904.823 -2.69333 -4.44698 0
M  V30 8699 C 902.508 -2.01863 -4.59953 0
M  V30 8700 C 904.502 -3.91589 -5.02928 0
M  V30 8701 C 902.189 -3.24383 -5.17898 0
M  V30 8702 C 903.187 -4.19064 -5.39328 0
M  V30 8703 O 902.875 -5.39422 -5.96053 0
M  V30 8704 H 902.607 -0.158431 -0.657172 0
M  V30 8705 H 905.161 -1.08682 -1.74291 0
M  V30 8706 H 903.391 0.356934 -3.85049 0
M  V30 8707 H 905.08 -0.00635596 -4.059 0
M  V30 8708 H 905.846 -2.48759 -4.16346 0
M  V30 8709 H 901.725 -1.28979 -4.42589 0
M  V30 8710 H 905.269 -4.65502 -5.1957 0
M  V30 8711 H 901.166 -3.44829 -5.45677 0
M  V30 8712 H 901.934 -5.40669 -6.14507 0
M  V30 8713 N 904.597 1.47463 -0.556102 0
M  V30 8714 C 905.845 2.02075 -0.0315712 0
M  V30 8715 C 906.166 1.43292 1.32259 0
M  V30 8716 O 905.436 0.60771 1.86236 0
M  V30 8717 H 904.016 0.74695 -0.0086816 0
M  V30 8718 H 906.678 1.80879 -0.725859 0
M  V30 8719 H 905.774 3.12047 0.0573538 0
M  V30 8720 N 906.075 0.2925 1.54862 0
M  V30 8721 C 907.3 -0.32494 2.04839 0
M  V30 8722 C 907.725 -1.47381 1.16877 0
M  V30 8723 O 907.083 -1.80492 0.171028 0
M  V30 8724 C 907.131 -0.76694 3.5235 0
M  V30 8725 O 906.235 -1.87256 3.67436 0
M  V30 8726 H 905.576 -0.0645195 0.660858 0
M  V30 8727 H 908.106 0.431867 1.9999 0
M  V30 8728 H 908.116 -1.05804 3.94043 0
M  V30 8729 H 906.791 0.0735212 4.15835 0
M  V30 8730 H 905.368 -1.58266 3.37648 0
M  V30 8731 N 907.553 -1.57587 0.0200696 0
M  V30 8732 C 908.801 -1.91046 -0.65922 0
M  V30 8733 C 909.122 -0.896197 -1.73186 0
M  V30 8734 O 908.392 0.0635952 -1.95797 0
M  V30 8735 H 906.972 -0.705163 -0.246483 0
M  V30 8736 H 909.634 -1.94789 0.0657368 0
M  V30 8737 H 908.73 -2.91399 -1.11773 0
M  V30 8738 N 909.032 0.252966 -1.55557 0
M  V30 8739 C 910.28 0.979912 -1.76754 0
M  V30 8740 C 910.601 1.86083 -0.582944 0
M  V30 8741 O 909.871 1.91742 0.401497 0
M  V30 8742 H 908.451 0.364805 -0.651864 0
M  V30 8743 H 911.113 0.272372 -1.92987 0
M  V30 8744 H 910.209 1.60518 -2.67657 0
M  V30 8745 N 910.51 1.48831 0.518367 0
M  V30 8746 C 911.758 1.57128 1.27103 0
M  V30 8747 C 912.079 0.252098 1.93364 0
M  V30 8748 O 911.349 -0.727281 1.819 0
M  V30 8749 H 909.929 0.578891 0.472116 0
M  V30 8750 H 912.591 1.85361 0.602262 0
M  V30 8751 H 911.687 2.35838 2.04418 0
M  V30 8752 N 911.988 -0.768124 1.37614 0
M  V30 8753 C 913.236 -1.52379 1.3276 0
M  V30 8754 C 913.557 -1.94809 -0.0863564 0
M  V30 8755 O 912.827 -1.66568 -1.03112 0
M  V30 8756 H 911.407 -0.565179 0.488448 0
M  V30 8757 H 914.069 -0.913974 1.72141 0
M  V30 8758 H 913.165 -2.4215 1.96901 0
M  V30 8759 N 913.466 -1.22244 -0.994698 0
M  V30 8760 C 914.691 -1.07299 -1.77487 0
M  V30 8761 C 915.116 0.372302 -1.84379 0
M  V30 8762 O 914.474 1.2689 -1.29494 0
M  V30 8763 C 914.522 -1.68675 -3.18718 0
M  V30 8764 O 913.626 -0.939202 -4.01563 0
M  V30 8765 H 912.967 -0.376979 -0.546611 0
M  V30 8766 H 915.497 -1.62003 -1.24965 0
M  V30 8767 H 915.507 -1.73324 -3.69354 0
M  V30 8768 H 914.182 -2.73849 -3.13017 0
M  V30 8769 H 912.759 -0.968583 -3.60101 0
M  V30 8770 N 914.944 1.19125 -1.03184 0
M  V30 8771 C 916.169 1.93379 -0.749628 0
M  V30 8772 C 916.594 1.75153 0.685785 0
M  V30 8773 O 915.952 1.05579 1.47386 0
M  V30 8774 C 916 3.43101 -1.1097 0
M  V30 8775 O 915.104 4.11758 -0.230053 0
M  V30 8776 H 914.445 0.603605 -0.276689 0
M  V30 8777 H 916.975 1.51116 -1.37931 0
M  V30 8778 H 916.985 3.93778 -1.06785 0
M  V30 8779 H 915.66 3.55688 -2.15544 0
M  V30 8780 H 914.237 3.7143 -0.330748 0
M  V30 8781 N 916.422 0.810101 1.35185 0
M  V30 8782 C 917.647 0.40364 2.03434 0
M  V30 8783 C 918.072 -0.97857 1.60641 0
M  V30 8784 O 917.43 -1.63435 0.784779 0
M  V30 8785 C 917.478 0.499154 3.57129 0
M  V30 8786 O 916.582 -0.486039 4.09526 0
M  V30 8787 H 915.923 0.168049 0.642383 0
M  V30 8788 H 918.453 1.09696 1.72708 0
M  V30 8789 H 918.463 0.370236 4.06317 0
M  V30 8790 H 917.138 1.50733 3.87624 0
M  V30 8791 H 915.715 -0.31707 3.7155 0
M  V30 8792 N 917.9 -1.47166 0.563914 0
M  V30 8793 C 919.146 -2.02756 0.0424338 0
M  V30 8794 C 919.479 -1.43662 -1.3067 0
M  V30 8795 O 918.754 -0.594676 -1.85186 0
M  V30 8796 C 919.037 -3.60074 -0.0434793 0
M  V30 8797 C 918.89 -4.29587 1.33323 0
M  V30 8798 C 920.209 -4.336 -0.753568 0
M  V30 8799 H 917.328 -0.736806 0.0168946 0
M  V30 8800 H 919.97 -1.75521 0.727496 0
M  V30 8801 H 918.12 -3.83409 -0.626906 0
M  V30 8802 H 919.792 -4.17573 1.96037 0
M  V30 8803 H 918.035 -3.8968 1.9061 0
M  V30 8804 H 918.706 -5.38218 1.22576 0
M  V30 8805 H 921.182 -4.15299 -0.258126 0
M  V30 8806 H 920.058 -5.43291 -0.782659 0
M  V30 8807 H 920.319 -4.03302 -1.81108 0
M  V30 8808 N 919.378 -0.300708 -1.54705 0
M  V30 8809 C 920.325 0.57552 -2.23509 0
M  V30 8810 C 921.295 1.12979 -1.21758 0
M  V30 8811 O 922.48 1.17437 -1.50377 0
M  V30 8812 C 919.62 1.74167 -2.97926 0
M  V30 8813 C 918.733 1.21882 -4.1445 0
M  V30 8814 C 917.868 2.34881 -4.7645 0
M  V30 8815 C 916.907 1.79729 -5.85119 0
M  V30 8816 N 916.044 2.863 -6.41075 0
M  V30 8817 H 920.884 -0.0178257 -2.97995 0
M  V30 8818 H 918.421 -0.0205666 -1.47086 0
M  V30 8819 H 920.379 2.42753 -3.39303 0
M  V30 8820 H 919.009 2.30665 -2.25817 0
M  V30 8821 H 918.061 0.425227 -3.78016 0
M  V30 8822 H 919.373 0.775065 -4.92741 0
M  V30 8823 H 918.527 3.11415 -5.20678 0
M  V30 8824 H 917.266 2.82584 -3.97489 0
M  V30 8825 H 916.271 1.01684 -5.40315 0
M  V30 8826 H 917.496 1.32931 -6.65963 0
M  V30 8827 H 915.442 3.33337 -5.64998 0
M  V30 8828 H 915.359 2.46419 -7.14712 0
M  V30 8829 H 916.627 3.62732 -6.89961 0
M  V30 8830 N 920.856 1.57574 -0.0284266 0
M  V30 8831 C 922.104 1.91393 0.649079 0
M  V30 8832 C 922.425 0.905368 1.72708 0
M  V30 8833 O 921.695 -0.0532107 1.95828 0
M  V30 8834 H 920.275 0.70646 0.24274 0
M  V30 8835 H 922.937 1.94752 -0.076066 0
M  V30 8836 H 922.033 2.91988 1.10226 0
M  V30 8837 N 922.334 -0.244713 1.55689 0
M  V30 8838 C 923.559 -0.994157 1.8202 0
M  V30 8839 C 923.984 -1.78079 0.60577 0
M  V30 8840 O 923.342 -1.75748 -0.445221 0
M  V30 8841 C 923.39 -1.90599 3.06111 0
M  V30 8842 O 922.494 -2.99804 2.8318 0
M  V30 8843 H 921.835 -0.282767 0.600782 0
M  V30 8844 H 924.365 -0.26504 2.02876 0
M  V30 8845 H 924.375 -2.32023 3.35603 0
M  V30 8846 H 923.05 -1.32763 3.9414 0
M  V30 8847 H 921.627 -2.62493 2.64862 0
M  V30 8848 N 923.813 -1.49104 -0.510467 0
M  V30 8849 C 925.038 -1.62068 -1.29417 0
M  V30 8850 C 925.463 -0.288432 -1.85875 0
M  V30 8851 O 924.821 0.742667 -1.65391 0
M  V30 8852 C 924.869 -2.68506 -2.40701 0
M  V30 8853 O 923.973 -2.27021 -3.4429 0
M  V30 8854 H 923.314 -0.542778 -0.382476 0
M  V30 8855 H 925.844 -1.95228 -0.612154 0
M  V30 8856 H 925.854 -2.90383 -2.86604 0
M  V30 8857 H 924.529 -3.65216 -1.98973 0
M  V30 8858 H 923.106 -2.15436 -3.04371 0
M  V30 8859 N 925.291 0.760815 -1.38019 0
M  V30 8860 C 926.539 1.51673 -1.33566 0
M  V30 8861 C 926.86 1.94852 0.076024 0
M  V30 8862 O 926.13 1.67112 1.02227 0
M  V30 8863 H 924.71 0.562581 -0.491438 0
M  V30 8864 H 927.372 0.904832 -1.72623 0
M  V30 8865 H 926.468 2.41102 -1.98182 0
M  V30 8866 N 926.769 1.22769 0.988202 0
M  V30 8867 C 927.679 1.01844 2.11341 0
M  V30 8868 C 928.695 -0.0346937 1.73965 0
M  V30 8869 O 929.871 0.159061 2.00771 0
M  V30 8870 C 926.936 0.603837 3.41401 0
M  V30 8871 C 925.997 1.73113 3.92849 0
M  V30 8872 C 925.23 1.33621 5.16702 0
M  V30 8873 O 925.453 0.217041 5.69987 0
M  V30 8874 O 924.387 2.15444 5.62021 0
M  V30 8875 H 928.213 1.96127 2.31879 0
M  V30 8876 H 925.798 1.01405 1.09715 0
M  V30 8877 H 927.68 0.383196 4.19654 0
M  V30 8878 H 926.355 -0.310082 3.22211 0
M  V30 8879 H 925.262 2.00634 3.15748 0
M  V30 8880 H 926.595 2.62308 4.1648 0
M  V30 8881 N 928.247 -1.18576 1.03814 0
M  V30 8882 C 929.21 -2.2033 0.63146 0
M  V30 8883 C 930.21 -1.57787 -0.309816 0
M  V30 8884 O 931.4 -1.73938 -0.0955598 0
M  V30 8885 C 928.532 -3.40818 -0.0745963 0
M  V30 8886 H 929.725 -2.57824 1.53189 0
M  V30 8887 H 927.278 -1.32416 0.830398 0
M  V30 8888 H 928.013 -3.08853 -0.988947 0
M  V30 8889 H 927.798 -3.87453 0.6019 0
M  V30 8890 H 929.288 -4.16166 -0.345727 0
M  V30 8891 N 929.725 -0.817259 -1.34754 0
M  V30 8892 C 930.972 -0.402648 -1.98457 0
M  V30 8893 C 931.3 1.03287 -1.64809 0
M  V30 8894 O 930.555 1.73316 -0.908851 0
M  V30 8895 C 930.854 -0.5453 -3.53216 0
M  V30 8896 C 930.52 -1.9457 -4.06759 0
M  V30 8897 C 929.182 -2.32881 -4.21094 0
M  V30 8898 C 931.534 -2.86141 -4.35629 0
M  V30 8899 C 928.862 -3.62108 -4.61622 0
M  V30 8900 C 931.214 -4.14826 -4.776 0
M  V30 8901 C 929.878 -4.53121 -4.9014 0
M  V30 8902 H 929.148 -0.147339 -0.726204 0
M  V30 8903 H 931.795 -1.04011 -1.60791 0
M  V30 8904 H 930.1 0.175576 -3.91406 0
M  V30 8905 H 931.797 -0.205112 -4.00475 0
M  V30 8906 H 928.387 -1.6381 -3.96061 0
M  V30 8907 H 932.571 -2.57788 -4.24098 0
M  V30 8908 H 927.827 -3.91613 -4.69521 0
M  V30 8909 H 932.001 -4.85874 -4.98899 0
M  V30 8910 H 929.628 -5.53307 -5.21302 0
M  V30 8911 N 931.203 1.46865 -0.571711 0
M  V30 8912 C 932.451 2.0203 -0.0530022 0
M  V30 8913 C 932.772 1.44687 1.30731 0
M  V30 8914 O 932.042 0.627429 1.85581 0
M  V30 8915 H 930.622 0.746815 -0.0166035 0
M  V30 8916 H 933.284 1.80099 -0.745003 0
M  V30 8917 H 932.38 3.12091 0.0242538 0
M  V30 8918 N 932.681 0.308908 1.54543 0
M  V30 8919 C 933.906 -0.303196 2.05172 0
M  V30 8920 C 934.331 -1.46133 1.18434 0
M  V30 8921 O 933.689 -1.803 0.190162 0
M  V30 8922 C 933.737 -0.729526 3.53143 0
M  V30 8923 O 932.841 -1.83348 3.69401 0
M  V30 8924 H 932.182 -0.0575066 0.661505 0
M  V30 8925 H 934.712 0.453055 1.99521 0
M  V30 8926 H 934.722 -1.01619 3.95143 0
M  V30 8927 H 933.397 0.117622 4.15734 0
M  V30 8928 H 931.974 -1.54676 3.39308 0
M  V30 8929 N 934.159 -1.57557 0.0367827 0
M  V30 8930 C 935.384 -1.96828 -0.653707 0
M  V30 8931 C 935.809 -0.913559 -1.64425 0
M  V30 8932 O 935.167 0.124749 -1.8087 0
M  V30 8933 C 935.215 -3.35189 -1.32969 0
M  V30 8934 O 934.319 -3.32095 -2.44513 0
M  V30 8935 H 933.66 -0.64157 -0.171124 0
M  V30 8936 H 936.19 -2.04351 0.100912 0
M  V30 8937 H 936.2 -3.71593 -1.68472 0
M  V30 8938 H 934.875 -4.11496 -0.603654 0
M  V30 8939 H 933.452 -3.07418 -2.11065 0
M  V30 8940 N 935.637 0.236453 -1.55816 0
M  V30 8941 C 936.883 0.964439 -1.784 0
M  V30 8942 C 937.216 1.84573 -0.603868 0
M  V30 8943 O 936.491 1.90395 0.397473 0
M  V30 8944 C 936.774 1.81608 -3.10951 0
M  V30 8945 C 936.627 0.962283 -4.39386 0
M  V30 8946 C 937.946 2.79665 -3.39817 0
M  V30 8947 H 935.065 0.349192 -0.649026 0
M  V30 8948 H 937.707 0.234247 -1.8855 0
M  V30 8949 H 935.857 2.43864 -3.02428 0
M  V30 8950 H 937.529 0.35762 -4.59912 0
M  V30 8951 H 935.772 0.267062 -4.32977 0
M  V30 8952 H 936.443 1.59222 -5.28538 0
M  V30 8953 H 938.919 2.27546 -3.4837 0
M  V30 8954 H 937.795 3.36367 -4.33761 0
M  V30 8955 H 938.056 3.56657 -2.61244 0
M  V30 8956 N 937.115 1.49373 0.502552 0
M  V30 8957 C 938.343 1.62488 1.28084 0
M  V30 8958 C 938.758 0.295667 1.86471 0
M  V30 8959 O 938.115 -0.718664 1.67754 0
M  V30 8960 C 938.166 2.69249 2.4122 0
M  V30 8961 O 937.887 3.97014 1.85234 0
M  V30 8962 C 939.388 2.93054 3.32617 0
M  V30 8963 H 936.608 0.547068 0.388533 0
M  V30 8964 H 939.152 1.95394 0.603452 0
M  V30 8965 H 937.307 2.39125 3.04792 0
M  V30 8966 H 937.721 4.55809 2.59496 0
M  V30 8967 H 939.195 3.71493 4.08285 0
M  V30 8968 H 939.672 2.02911 3.89517 0
M  V30 8969 H 940.278 3.24589 2.74813 0
M  V30 8970 N 938.594 -0.753485 1.38421 0
M  V30 8971 C 939.841 -1.51261 1.34634 0
M  V30 8972 C 940.169 -1.94396 -0.0635771 0
M  V30 8973 O 939.424 -1.65736 -1.04068 0
M  V30 8974 C 939.723 -2.77836 2.24816 0
M  V30 8975 C 939.389 -2.53662 3.72782 0
M  V30 8976 C 938.051 -2.46779 4.13103 0
M  V30 8977 C 940.403 -2.32548 4.66445 0
M  V30 8978 C 937.731 -2.16796 5.45176 0
M  V30 8979 C 940.083 -2.04085 5.98775 0
M  V30 8980 C 938.747 -1.95658 6.3818 0
M  V30 8981 H 938.017 -0.553503 0.492661 0
M  V30 8982 H 940.664 -0.866406 1.7078 0
M  V30 8983 H 938.969 -3.47106 1.81726 0
M  V30 8984 H 940.666 -3.35793 2.19189 0
M  V30 8985 H 937.256 -2.59891 3.40815 0
M  V30 8986 H 941.44 -2.36845 4.3614 0
M  V30 8987 H 936.696 -2.0878 5.74648 0
M  V30 8988 H 940.87 -1.86751 6.70893 0
M  V30 8989 H 938.497 -1.7219 7.40442 0
M  V30 8990 N 940.072 -1.23292 -0.981677 0
M  V30 8991 C 941.297 -1.09176 -1.76339 0
M  V30 8992 C 941.722 0.352726 -1.84763 0
M  V30 8993 O 941.08 1.25509 -1.30832 0
M  V30 8994 C 941.128 -1.72046 -3.16911 0
M  V30 8995 O 940.232 -0.98174 -4.00544 0
M  V30 8996 H 939.573 -0.382755 -0.542581 0
M  V30 8997 H 942.103 -1.63319 -1.23239 0
M  V30 8998 H 942.113 -1.77232 -3.67495 0
M  V30 8999 H 940.788 -2.77154 -3.10095 0
M  V30 9000 H 939.365 -1.00672 -3.59054 0
M  V30 9001 N 941.55 1.18024 -1.04442 0
M  V30 9002 C 942.797 1.88098 -0.750022 0
M  V30 9003 C 943.125 1.80583 0.722489 0
M  V30 9004 O 942.38 1.20329 1.54335 0
M  V30 9005 C 942.679 3.37834 -1.16631 0
M  V30 9006 C 942.345 3.65553 -2.63974 0
M  V30 9007 C 941.007 3.72827 -3.04226 0
M  V30 9008 C 943.359 3.77634 -3.59224 0
M  V30 9009 C 940.687 3.89666 -4.38608 0
M  V30 9010 C 943.039 3.9599 -4.9333 0
M  V30 9011 C 941.703 4.01501 -5.33248 0
M  V30 9012 H 940.973 0.6883 -0.274452 0
M  V30 9013 H 943.62 1.39671 -1.31012 0
M  V30 9014 H 941.925 3.88266 -0.525071 0
M  V30 9015 H 943.622 3.90402 -0.915827 0
M  V30 9016 H 940.212 3.6051 -2.31798 0
M  V30 9017 H 944.396 3.71342 -3.2927 0
M  V30 9018 H 939.652 3.92178 -4.69048 0
M  V30 9019 H 943.826 4.0428 -5.67037 0
M  V30 9020 H 941.453 4.14301 -6.37384 0
M  V30 9021 N 943.028 0.824394 1.34319 0
M  V30 9022 C 944.444 0.510336 1.51221 0
M  V30 9023 C 944.644 -0.965201 1.76879 0
M  V30 9024 O 943.7 -1.74961 1.82057 0
M  V30 9025 C 945.013 1.37114 2.6762 0
M  V30 9026 C 946.561 1.36842 2.81502 0
M  V30 9027 C 947.036 2.21374 4.00946 0
M  V30 9028 N 948.527 2.19005 4.08156 0
M  V30 9029 C 949.262 2.81159 4.99737 0
M  V30 9030 N 948.758 3.52309 5.96532 0
M  V30 9031 N 950.551 2.70706 4.9262 0
M  V30 9032 H 942.702 1.77976 1.15924 0
M  V30 9033 H 944.965 0.758503 0.568663 0
M  V30 9034 H 944.671 2.41905 2.55294 0
M  V30 9035 H 944.545 1.03689 3.62669 0
M  V30 9036 H 946.932 0.328284 2.93268 0
M  V30 9037 H 947.013 1.74265 1.87257 0
M  V30 9038 H 946.657 3.25437 3.8994 0
M  V30 9039 H 946.587 1.813 4.94407 0
M  V30 9040 H 949.078 1.67252 3.38874 0
M  V30 9041 H 949.391 3.96977 6.63045 0
M  V30 9042 H 947.736 3.56415 5.96652 0
M  V30 9043 H 950.927 2.14694 4.15962 0
M  V30 9044 H 951.1 3.19431 5.63798 0
M  V30 9045 O 944.545 -1.44549 0.720262 0
M  V30 9046 H 945.236 -1.91851 0.26698 0
M  V30 END ATOM
M  V30 BEGIN BOND
M  V30 END BOND
M  V30 END CTAB
M  END
$$$$
