drugbank_target|P36021 Monocarboxylate transporter 8 (DB00119)
 OpenBabel12092119263D

  0  0  0     0  0            999 V3000
M  V30 BEGIN CTAB
M  V30 COUNTS 8381 8505 0 0 0
M  V30 BEGIN ATOM
M  V30 1 H -0.908 1.98254 -0.117106 0
M  V30 2 N 0 1.576 0 0
M  V30 3 C 0.933 2.03868 1.02534 0
M  V30 4 C 1.911 0.928543 1.3348 0
M  V30 5 O 3.095 1.19667 1.45644 0
M  V30 6 C 0.222 2.43627 2.35294 0
M  V30 7 C -0.732 3.65373 2.2001 0
M  V30 8 S 0.101 5.13292 1.52614 0
M  V30 9 C 1.257 5.56322 2.86805 0
M  V30 10 H 1.49 2.90518 0.631377 0
M  V30 11 H -0.977 1.52953 0.210867 0
M  V30 12 H 0.981 2.67203 3.11629 0
M  V30 13 H -0.358 1.57376 2.7183 0
M  V30 14 H -1.165 3.90944 3.18086 0
M  V30 15 H -1.563 3.418 1.51819 0
M  V30 16 H 0.729 5.58782 3.83104 0
M  V30 17 H 1.672 6.56266 2.65933 0
M  V30 18 H 2.08 4.83886 2.90714 0
M  V30 19 N 1.4781 -0.272755 1.55222 0
M  V30 20 C 2.4411 -1.32041 1.87344 0
M  V30 21 C 3.4411 -1.42342 0.74803 0
M  V30 22 O 4.6311 -1.41488 1.0162 0
M  V30 23 C 1.7631 -2.70173 2.07893 0
M  V30 24 H 2.9561 -1.04789 2.80997 0
M  V30 25 H 0.5091 -0.51083 1.47717 0
M  V30 26 H 1.2441 -3.02605 1.16622 0
M  V30 27 H 1.0291 -2.64082 2.89833 0
M  V30 28 H 2.5191 -3.45869 2.34017 0
M  V30 29 N 2.9562 -1.48159 -0.537278 0
M  V30 30 C 3.8862 -1.65029 -1.6519 0
M  V30 31 C 4.8672 -0.499281 -1.62607 0
M  V30 32 O 6.0522 -0.730972 -1.79918 0
M  V30 33 C 3.1822 -1.68303 -3.03795 0
M  V30 34 C 2.1362 -2.8283 -3.21234 0
M  V30 35 C 1.4622 -2.71189 -4.60826 0
M  V30 36 C 2.7622 -4.24211 -3.04701 0
M  V30 37 H 4.4562 -2.58341 -1.51328 0
M  V30 38 H 2.0022 -1.24325 -0.726585 0
M  V30 39 H 3.9552 -1.78693 -3.81637 0
M  V30 40 H 2.6792 -0.715635 -3.18663 0
M  V30 41 H 1.3382 -2.71983 -2.45807 0
M  V30 42 H 0.9862 -1.72435 -4.7252 0
M  V30 43 H 0.6862 -3.48035 -4.7344 0
M  V30 44 H 2.2102 -2.83537 -5.40777 0
M  V30 45 H 3.6242 -4.3593 -3.72341 0
M  V30 46 H 2.0212 -5.01998 -3.28813 0
M  V30 47 H 3.0912 -4.41184 -2.01209 0
M  V30 48 N 4.4343 0.785586 -1.36625 0
M  V30 49 C 5.3663 1.90711 -1.2713 0
M  V30 50 C 6.3793 1.61688 -0.189986 0
M  V30 51 O 7.5683 1.72864 -0.445014 0
M  V30 52 C 4.6683 3.25611 -0.939713 0
M  V30 53 C 3.8413 3.82385 -2.12369 0
M  V30 54 C 2.9003 4.95732 -1.76456 0
M  V30 55 O 1.9263 5.12047 -2.48589 0
M  V30 56 N 3.1283 5.76258 -0.700492 0
M  V30 57 H 5.8933 1.99376 -2.23762 0
M  V30 58 H 3.4543 0.964041 -1.30069 0
M  V30 59 H 5.4463 3.98937 -0.680554 0
M  V30 60 H 4.0163 3.12538 -0.0624074 0
M  V30 61 H 3.2363 3.01001 -2.54543 0
M  V30 62 H 4.5243 4.17047 -2.9146 0
M  V30 63 H 3.9223 5.65609 -0.101624 0
M  V30 64 H 2.4793 6.4987 -0.501165 0
M  V30 65 N 5.9124 1.20967 1.01018 0
M  V30 66 C 7.1374 1.0503 1.78839 0
M  V30 67 C 7.5624 -0.395752 1.8389 0
M  V30 68 O 6.9204 -1.28529 1.27867 0
M  V30 69 C 6.9684 1.64602 3.2084 0
M  V30 70 O 6.0724 0.887988 4.02726 0
M  V30 71 H 5.4134 0.369987 0.551367 0
M  V30 72 H 7.9434 1.60399 1.27018 0
M  V30 73 H 7.9534 1.68607 3.71532 0
M  V30 74 H 6.6284 2.69841 3.16479 0
M  V30 75 H 5.2054 0.922648 3.61305 0
M  V30 76 N 7.3905 -1.2043 1.01659 0
M  V30 77 C 8.3225 -2.22626 0.544988 0
M  V30 78 C 9.3355 -1.58479 -0.372609 0
M  V30 79 O 10.5245 -1.77679 -0.170958 0
M  V30 80 C 7.6245 -3.38141 -0.22663 0
M  V30 81 C 6.7975 -4.31877 0.692876 0
M  V30 82 C 5.8565 -5.26191 -0.0311616 0
M  V30 83 O 4.8825 -5.6612 0.591343 0
M  V30 84 N 6.0845 -5.65618 -1.30601 0
M  V30 85 H 8.8495 -2.63716 1.42388 0
M  V30 86 H 6.4105 -1.34971 0.894116 0
M  V30 87 H 8.4025 -3.98239 -0.72024 0
M  V30 88 H 6.9725 -2.95943 -1.00681 0
M  V30 89 H 6.1925 -3.69746 1.36679 0
M  V30 90 H 7.4805 -4.91426 1.31824 0
M  V30 91 H 6.8785 -5.3519 -1.83269 0
M  V30 92 H 5.4355 -6.28025 -1.74435 0
M  V30 93 N 8.8686 -0.792821 -1.36206 0
M  V30 94 C 9.8316 -0.199459 -2.2833 0
M  V30 95 C 10.8316 0.605189 -1.48977 0
M  V30 96 O 12.0216 0.425685 -1.68919 0
M  V30 97 C 9.1536 0.723523 -3.33134 0
M  V30 98 H 10.3466 -1.01181 -2.82316 0
M  V30 99 H 7.8996 -0.562485 -1.45828 0
M  V30 100 H 8.6346 1.56008 -2.84309 0
M  V30 101 H 8.4196 0.148436 -3.91819 0
M  V30 102 H 9.9096 1.13344 -4.01924 0
M  V30 103 N 10.3467 1.47872 -0.545128 0
M  V30 104 C 11.5717 2.07391 -0.0190611 0
M  V30 105 C 11.9967 1.39688 1.25971 0
M  V30 106 O 11.3547 0.467816 1.7516 0
M  V30 107 C 11.4027 3.60188 0.172335 0
M  V30 108 O 10.5067 3.9339 1.23766 0
M  V30 109 H 9.8477 0.662411 -0.0459059 0
M  V30 110 H 12.3777 1.90066 -0.757365 0
M  V30 111 H 12.3877 4.06129 0.390305 0
M  V30 112 H 11.0627 4.08865 -0.761725 0
M  V30 113 H 9.6397 3.5921 1.00114 0
M  V30 114 N 11.8248 0.280983 1.55075 0
M  V30 115 C 12.7348 -0.61388 2.26426 0
M  V30 116 C 13.7508 -1.16521 1.29224 0
M  V30 117 O 14.9268 -1.19426 1.62171 0
M  V30 118 C 11.9918 -1.7788 2.9759 0
M  V30 119 C 11.0528 -1.26355 4.10284 0
M  V30 120 C 10.2858 -2.37295 4.78045 0
M  V30 121 O 10.5088 -3.56777 4.45047 0
M  V30 122 O 9.4428 -2.05119 5.65871 0
M  V30 123 H 13.2688 -0.0356932 3.03679 0
M  V30 124 H 10.8538 0.0481686 1.49322 0
M  V30 125 H 12.7358 -2.45791 3.42293 0
M  V30 126 H 11.4108 -2.34397 2.23249 0
M  V30 127 H 10.3178 -0.550735 3.70024 0
M  V30 128 H 11.6508 -0.744065 4.86543 0
M  V30 129 N 13.3029 -1.57598 0.00835791 0
M  V30 130 C 14.2129 -2.12385 -0.996487 0
M  V30 131 C 15.2289 -1.07108 -1.37127 0
M  V30 132 O 16.4049 -1.39055 -1.4569 0
M  V30 133 C 13.4699 -2.62314 -2.26699 0
M  V30 134 C 12.5309 -3.82225 -1.95456 0
M  V30 135 C 11.7639 -4.29763 -3.16449 0
M  V30 136 O 11.9869 -3.76584 -4.28416 0
M  V30 137 O 10.9209 -5.21832 -2.99958 0
M  V30 138 H 14.7469 -2.98479 -0.560725 0
M  V30 139 H 12.3319 -1.47903 -0.210987 0
M  V30 140 H 14.2139 -2.94589 -3.01322 0
M  V30 141 H 12.8889 -1.79313 -2.69497 0
M  V30 142 H 11.7959 -3.54909 -1.18282 0
M  V30 143 H 13.1289 -4.66324 -1.57489 0
M  V30 144 N 14.781 0.264519 -1.55364 0
M  V30 145 C 15.744 1.31046 -1.88042 0
M  V30 146 C 16.744 1.41943 -0.755569 0
M  V30 147 O 17.934 1.40947 -1.02369 0
M  V30 148 C 15.066 2.69067 -2.09323 0
M  V30 149 H 16.259 1.03297 -2.81549 0
M  V30 150 H 13.812 0.502989 -1.47986 0
M  V30 151 H 14.547 3.01982 -1.18226 0
M  V30 152 H 14.332 2.62542 -2.91229 0
M  V30 153 H 15.822 3.44623 -2.35848 0
M  V30 154 N 16.2591 1.48442 0.529413 0
M  V30 155 C 17.2061 1.63007 1.63394 0
M  V30 156 C 18.1761 0.47212 1.59249 0
M  V30 157 O 19.3611 0.695673 1.77666 0
M  V30 158 C 16.5011 1.6763 3.01653 0
M  V30 159 C 15.6141 2.94535 3.16027 0
M  V30 160 C 14.7491 2.90316 4.44849 0
M  V30 161 C 13.7881 4.11923 4.52754 0
M  V30 162 N 12.9251 4.05777 5.72965 0
M  V30 163 H 17.7651 2.5733 1.50285 0
M  V30 164 H 15.3021 1.27613 0.731656 0
M  V30 165 H 17.2601 1.68292 3.81751 0
M  V30 166 H 15.8901 0.76797 3.13532 0
M  V30 167 H 14.9421 3.03615 2.29177 0
M  V30 168 H 16.2541 3.84512 3.17729 0
M  V30 169 H 15.4081 2.89382 5.33238 0
M  V30 170 H 14.1471 1.98068 4.45668 0
M  V30 171 H 13.1521 4.13131 3.62771 0
M  V30 172 H 14.3771 5.0533 4.53672 0
M  V30 173 H 12.3231 3.16351 5.74681 0
M  V30 174 H 12.2401 4.8946 5.76164 0
M  V30 175 H 13.5081 4.08904 6.6364 0
M  V30 176 N 17.7372 -0.778329 1.37039 0
M  V30 177 C 18.9852 -1.53361 1.31623 0
M  V30 178 C 19.3062 -1.94739 -0.100831 0
M  V30 179 O 18.5762 -1.65797 -1.04347 0
M  V30 180 H 17.1562 -0.568794 0.484234 0
M  V30 181 H 19.8182 -0.926742 1.71457 0
M  V30 182 H 18.9142 -2.43606 1.95096 0
M  V30 183 N 19.2153 -1.21501 -1.00376 0
M  V30 184 C 20.6263 -1.03146 -1.55621 0
M  V30 185 C 20.9773 0.408375 -1.91903 0
M  V30 186 O 20.1023 1.29177 -1.73616 0
M  V30 187 C 20.6973 -1.86612 -2.82775 0
M  V30 188 C 19.2563 -1.72586 -3.34501 0
M  V30 189 C 18.4033 -1.83747 -2.07683 0
M  V30 190 H 21.3543 -1.35505 -0.826081 0
M  V30 191 H 21.3753 -1.3771 -3.54706 0
M  V30 192 H 20.8873 -2.91399 -2.56336 0
M  V30 193 H 18.9883 -0.704877 -3.65872 0
M  V30 194 H 19.1013 -2.54623 -4.05837 0
M  V30 195 H 17.4653 -1.27069 -2.20739 0
M  V30 196 H 18.2483 -2.90044 -1.83655 0
M  V30 197 N 20.6934 1.19889 -1.02296 0
M  V30 198 C 21.9394 1.89973 -0.726759 0
M  V30 199 C 22.2944 1.7776 0.73614 0
M  V30 200 O 21.5874 1.15523 1.52856 0
M  V30 201 C 21.7814 3.39883 -1.10518 0
M  V30 202 C 21.6104 3.66684 -2.60332 0
M  V30 203 C 20.3804 3.85045 -3.27213 0
M  V30 204 C 22.5784 3.68727 -3.58532 0
M  V30 205 N 20.5604 3.99422 -4.66192 0
M  V30 206 C 21.9314 3.88604 -4.83101 0
M  V30 207 C 23.9864 3.51722 -3.52414 0
M  V30 208 C 22.6894 3.9324 -6.02292 0
M  V30 209 C 24.7154 3.57632 -4.71013 0
M  V30 210 C 24.0774 3.77988 -5.94394 0
M  V30 211 H 20.1764 0.714551 -0.317712 0
M  V30 212 H 22.7604 1.44123 -1.30907 0
M  V30 213 H 20.9314 3.8447 -0.551142 0
M  V30 214 H 22.6634 3.97464 -0.761853 0
M  V30 215 H 19.4184 3.83689 -2.77632 0
M  V30 216 H 19.8424 4.10473 -5.38368 0
M  V30 217 H 24.4844 3.34945 -2.58015 0
M  V30 218 H 22.2024 4.08811 -6.97065 0
M  V30 219 H 25.7884 3.45773 -4.67902 0
M  V30 220 H 24.6684 3.82428 -6.8463 0
M  V30 221 N 22.1715 0.800033 1.35784 0
M  V30 222 C 23.1035 0.163596 2.28615 0
M  V30 223 C 24.1165 -0.633317 1.49976 0
M  V30 224 O 25.3055 -0.466754 1.72289 0
M  V30 225 C 22.4055 -0.790958 3.29541 0
M  V30 226 C 21.5785 -0.0418255 4.3738 0
M  V30 227 C 20.6375 -0.91389 5.18203 0
M  V30 228 O 19.6635 -0.367234 5.68014 0
M  V30 229 N 20.8655 -2.23682 5.35674 0
M  V30 230 H 23.6305 0.96105 2.83873 0
M  V30 231 H 21.1915 0.654894 1.48063 0
M  V30 232 H 23.1835 -1.37844 3.80501 0
M  V30 233 H 21.7535 -1.48925 2.74846 0
M  V30 234 H 20.9735 0.726813 3.87442 0
M  V30 235 H 22.2615 0.474719 5.06581 0
M  V30 236 H 21.6595 -2.70497 4.96838 0
M  V30 237 H 20.2165 -2.77369 5.89839 0
M  V30 238 N 23.6496 -1.47581 0.552962 0
M  V30 239 C 24.5596 -2.33743 -0.200353 0
M  V30 240 C 25.5756 -1.47928 -0.916151 0
M  V30 241 O 26.7516 -1.80865 -0.885993 0
M  V30 242 C 23.8166 -3.24536 -1.21973 0
M  V30 243 C 22.8776 -4.26238 -0.511819 0
M  V30 244 C 22.1106 -5.12693 -1.48263 0
M  V30 245 O 22.3336 -5.01525 -2.71714 0
M  V30 246 O 21.2676 -5.93375 -1.00945 0
M  V30 247 H 25.0936 -2.9945 0.506304 0
M  V30 248 H 22.6786 -1.46071 0.313622 0
M  V30 249 H 24.5606 -3.80631 -1.80827 0
M  V30 250 H 23.2356 -2.61462 -1.90839 0
M  V30 251 H 22.1426 -3.73914 0.117799 0
M  V30 252 H 23.4756 -4.92014 0.135308 0
M  V30 253 N 25.1277 -0.289203 -1.54924 0
M  V30 254 C 26.0907 0.579144 -2.21762 0
M  V30 255 C 27.0907 1.07047 -1.1999 0
M  V30 256 O 28.2807 0.968384 -1.44803 0
M  V30 257 C 25.4127 1.80055 -2.8947 0
M  V30 258 H 26.6057 -0.00464908 -2.999 0
M  V30 259 H 24.1587 -0.0399306 -1.56249 0
M  V30 260 H 24.8937 2.42449 -2.15381 0
M  V30 261 H 24.6787 1.45602 -3.64064 0
M  V30 262 H 26.1687 2.41773 -3.40493 0
M  V30 263 N 26.6058 1.57591 -0.0167156 0
M  V30 264 C 27.8828 1.82547 0.702564 0
M  V30 265 C 28.2628 0.898018 1.91047 0
M  V30 266 O 27.6108 -0.0493456 2.28447 0
M  V30 267 C 27.8208 3.31459 1.09251 0
M  V30 268 C 29.1688 3.97622 1.48937 0
M  V30 269 O 30.1928 3.35881 1.18584 0
M  V30 270 O 29.0518 5.06415 2.05442 0
M  V30 271 H 26.1458 0.752268 0.343544 0
M  V30 272 H 28.6918 1.69644 -0.0434495 0
M  V30 273 H 27.4638 3.9061 0.23227 0
M  V30 274 H 27.0868 3.49422 1.89709 0
M  V30 275 N 28.0839 -0.256276 1.55502 0
M  V30 276 C 29.0159 -1.33981 1.85962 0
M  V30 277 C 30.0289 -1.44743 0.745212 0
M  V30 278 O 31.2179 -1.4626 1.02324 0
M  V30 279 C 28.3179 -2.7194 2.02242 0
M  V30 280 C 27.4909 -2.83562 3.33033 0
M  V30 281 C 26.5499 -4.02304 3.39172 0
M  V30 282 O 25.5759 -3.92273 4.12444 0
M  V30 283 N 26.7779 -5.15045 2.67784 0
M  V30 284 H 29.5429 -1.08191 2.7949 0
M  V30 285 H 27.1039 -0.446388 1.55624 0
M  V30 286 H 29.0959 -3.49697 2.03701 0
M  V30 287 H 27.6659 -2.90479 1.15502 0
M  V30 288 H 26.8859 -1.92555 3.43971 0
M  V30 289 H 28.1739 -2.88271 4.19258 0
M  V30 290 H 27.5719 -5.26085 2.07968 0
M  V30 291 H 26.1289 -5.90972 2.74947 0
M  V30 292 N 29.562 -1.4872 -0.521534 0
M  V30 293 C 30.472 -1.66569 -1.65203 0
M  V30 294 C 31.488 -0.548197 -1.65139 0
M  V30 295 O 32.664 -0.820339 -1.83936 0
M  V30 296 C 29.729 -1.70917 -3.01642 0
M  V30 297 C 28.79 -2.94356 -3.12495 0
M  V30 298 C 28.023 -2.98487 -4.42426 0
M  V30 299 O 28.246 -2.10786 -5.30024 0
M  V30 300 O 27.18 -3.90746 -4.57822 0
M  V30 301 H 31.006 -2.62298 -1.5308 0
M  V30 302 H 28.591 -1.3222 -0.695565 0
M  V30 303 H 30.473 -1.7625 -3.82771 0
M  V30 304 H 29.148 -0.783633 -3.14071 0
M  V30 305 H 28.055 -2.94552 -2.3063 0
M  V30 306 H 29.388 -3.86322 -3.04986 0
M  V30 307 N 31.0401 0.771051 -1.3745 0
M  V30 308 C 31.9721 1.89352 -1.29146 0
M  V30 309 C 32.9851 1.61477 -0.207124 0
M  V30 310 O 34.1741 1.72382 -0.463324 0
M  V30 311 C 31.2741 3.24596 -0.974195 0
M  V30 312 C 30.4471 3.80111 -2.16413 0
M  V30 313 C 29.5061 4.93832 -1.81703 0
M  V30 314 O 28.5321 5.09382 -2.54006 0
M  V30 315 N 29.7341 5.75483 -0.761573 0
M  V30 316 H 32.4991 1.96991 -2.25864 0
M  V30 317 H 30.0601 0.950191 -1.31084 0
M  V30 318 H 32.0521 3.98193 -0.722828 0
M  V30 319 H 30.6221 3.12454 -0.0955527 0
M  V30 320 H 29.8421 2.98284 -2.57721 0
M  V30 321 H 31.1301 4.13932 -2.95867 0
M  V30 322 H 30.5281 5.65469 -0.161609 0
M  V30 323 H 29.0851 6.49302 -0.570064 0
M  V30 324 N 32.5182 1.22032 0.997298 0
M  V30 325 C 33.4502 0.944263 2.08845 0
M  V30 326 C 34.4632 -0.0754663 1.62625 0
M  V30 327 O 35.6522 0.157994 1.77799 0
M  V30 328 C 32.7522 0.397723 3.36558 0
M  V30 329 C 31.9252 1.47362 4.11829 0
M  V30 330 C 30.9842 0.934951 5.17827 0
M  V30 331 O 30.0102 1.62016 5.45655 0
M  V30 332 N 31.2122 -0.245895 5.79979 0
M  V30 333 H 33.9772 1.88363 2.33109 0
M  V30 334 H 31.5382 1.12661 1.16272 0
M  V30 335 H 33.5302 0.0227771 4.04694 0
M  V30 336 H 32.1002 -0.446646 3.09393 0
M  V30 337 H 31.3202 2.02208 3.38386 0
M  V30 338 H 32.6082 2.19764 4.58891 0
M  V30 339 H 32.0062 -0.819475 5.59733 0
M  V30 340 H 30.5632 -0.562272 6.4937 0
M  V30 341 N 33.9963 -1.19345 1.0293 0
M  V30 342 C 34.9063 -2.26245 0.620515 0
M  V30 343 C 35.9223 -1.70486 -0.347928 0
M  V30 344 O 37.0983 -2.00347 -0.205704 0
M  V30 345 C 34.1633 -3.46693 -0.0218957 0
M  V30 346 C 33.2243 -4.17632 0.994102 0
M  V30 347 C 32.4573 -5.32329 0.382253 0
M  V30 348 O 32.6803 -5.64552 -0.814676 0
M  V30 349 O 31.6143 -5.91664 1.10531 0
M  V30 350 H 35.4403 -2.63453 1.51083 0
M  V30 351 H 33.0253 -1.26207 0.799513 0
M  V30 352 H 34.9073 -4.19683 -0.380072 0
M  V30 353 H 33.5823 -3.11333 -0.886209 0
M  V30 354 H 32.4893 -3.4676 1.40387 0
M  V30 355 H 33.8223 -4.56964 1.8288 0
M  V30 356 N 35.4744 -0.807222 -1.35358 0
M  V30 357 C 36.8854 -0.44876 -1.81226 0
M  V30 358 C 37.2364 1.02929 -1.67033 0
M  V30 359 O 36.3614 1.79991 -1.20133 0
M  V30 360 C 36.9564 -0.807774 -3.2903 0
M  V30 361 C 35.5154 -0.501901 -3.73039 0
M  V30 362 C 34.6624 -1.03304 -2.57339 0
M  V30 363 H 37.6134 -0.998808 -1.23327 0
M  V30 364 H 37.6344 -0.10554 -3.80354 0
M  V30 365 H 37.1464 -1.88357 -3.39328 0
M  V30 366 H 35.2474 0.565128 -3.68289 0
M  V30 367 H 35.3604 -1.03497 -4.67787 0
M  V30 368 H 33.7244 -0.455339 -2.50597 0
M  V30 369 H 34.5074 -2.11496 -2.70415 0
M  V30 370 N 36.9525 1.47285 -0.560781 0
M  V30 371 C 38.1985 2.02764 -0.0381184 0
M  V30 372 C 38.5315 1.43384 1.30976 0
M  V30 373 O 37.8065 0.590733 1.85312 0
M  V30 374 C 38.0895 3.60064 0.0511427 0
M  V30 375 C 37.9425 4.2987 -1.32408 0
M  V30 376 C 39.2615 4.33439 0.762795 0
M  V30 377 H 36.3805 0.736841 -0.0153264 0
M  V30 378 H 39.0225 1.75675 -0.723759 0
M  V30 379 H 37.1725 3.83274 0.635065 0
M  V30 380 H 38.8445 4.17989 -1.95148 0
M  V30 381 H 37.0875 3.90085 -1.8978 0
M  V30 382 H 37.7585 5.38478 -1.21431 0
M  V30 383 H 40.2345 4.15243 0.266965 0
M  V30 384 H 39.1105 5.43124 0.794221 0
M  V30 385 H 39.3715 4.02915 1.81966 0
M  V30 386 N 38.4306 0.297415 1.54768 0
M  V30 387 C 39.6786 -0.312295 1.99673 0
M  V30 388 C 39.9996 -1.54686 1.18732 0
M  V30 389 O 39.2696 -1.93854 0.282382 0
M  V30 390 H 37.8496 -0.118381 0.73756 0
M  V30 391 H 40.5116 0.407915 1.90583 0
M  V30 392 H 39.6076 -0.586813 3.06534 0
M  V30 393 N 39.9087 -1.5758 0.0250728 0
M  V30 394 C 41.1337 -1.96337 -0.668317 0
M  V30 395 C 41.5587 -0.901314 -1.651 0
M  V30 396 O 40.9167 0.138187 -1.80773 0
M  V30 397 C 40.9647 -3.34191 -1.35457 0
M  V30 398 O 40.0687 -3.30269 -2.46974 0
M  V30 399 H 39.4097 -0.640281 -0.175887 0
M  V30 400 H 41.9397 -2.0442 0.0857224 0
M  V30 401 H 41.9497 -3.70331 -1.71228 0
M  V30 402 H 40.6247 -4.11036 -0.634218 0
M  V30 403 H 39.2017 -3.05841 -2.13344 0
M  V30 404 N 41.3868 0.248026 -1.55636 0
M  V30 405 C 42.7978 0.817177 -1.67866 0
M  V30 406 C 43.1488 1.86069 -0.622322 0
M  V30 407 O 42.2738 2.15157 0.231618 0
M  V30 408 C 42.8688 1.489 -3.04326 0
M  V30 409 C 41.4278 2.00587 -3.185 0
M  V30 410 C 40.5748 0.856573 -2.63739 0
M  V30 411 H 43.5258 0.0238579 -1.58682 0
M  V30 412 H 43.5468 2.35698 -2.98708 0
M  V30 413 H 43.0588 0.729279 -3.81186 0
M  V30 414 H 41.1598 2.79443 -2.4646 0
M  V30 415 H 41.2728 2.20402 -4.25393 0
M  V30 416 H 39.6368 1.25678 -2.21534 0
M  V30 417 H 40.4198 0.109953 -3.43124 0
M  V30 418 N 42.8649 1.48995 0.513639 0
M  V30 419 C 43.7749 1.67443 1.64317 0
M  V30 420 C 44.7909 0.556947 1.64846 0
M  V30 421 O 45.9669 0.830082 1.83498 0
M  V30 422 C 43.0319 1.72515 3.00732 0
M  V30 423 C 42.0929 2.96009 3.1093 0
M  V30 424 C 41.3259 3.00829 4.40837 0
M  V30 425 O 41.5489 2.13594 5.28898 0
M  V30 426 O 40.4829 3.93168 4.55744 0
M  V30 427 H 44.3089 2.63106 1.51687 0
M  V30 428 H 41.8939 1.32588 0.688543 0
M  V30 429 H 43.7759 1.78277 3.81831 0
M  V30 430 H 42.4509 0.800278 3.13651 0
M  V30 431 H 41.3579 2.9577 2.29065 0
M  V30 432 H 42.6909 3.87934 3.02933 0
M  V30 433 N 44.343 -0.763751 1.37857 0
M  V30 434 C 45.754 -1.3405 1.29952 0
M  V30 435 C 46.105 -1.96138 -0.0492898 0
M  V30 436 O 45.23 -1.94372 -0.951239 0
M  V30 437 C 45.825 -2.43729 2.35333 0
M  V30 438 C 44.384 -2.97151 2.31037 0
M  V30 439 C 43.531 -1.70438 2.18738 0
M  V30 440 H 46.482 -0.563396 1.48363 0
M  V30 441 H 46.503 -3.23412 2.00462 0
M  V30 442 H 46.015 -1.9851 3.33489 0
M  V30 443 H 44.116 -3.46724 1.3643 0
M  V30 444 H 44.229 -3.52221 3.24772 0
M  V30 445 H 42.593 -1.93673 1.65418 0
M  V30 446 H 43.376 -1.27312 3.18821 0
M  V30 447 N 45.8211 -1.22559 -0.990812 0
M  V30 448 C 46.7311 -1.01394 -2.11557 0
M  V30 449 C 47.7471 0.0383962 -1.73958 0
M  V30 450 O 48.9231 -0.154787 -2.00804 0
M  V30 451 C 45.9881 -0.596569 -3.41529 0
M  V30 452 C 45.0491 -1.72276 -3.93217 0
M  V30 453 C 44.2821 -1.32521 -5.16985 0
M  V30 454 O 44.5051 -0.204909 -5.70032 0
M  V30 455 O 43.4391 -2.14247 -5.62478 0
M  V30 456 H 47.2651 -1.95633 -2.32296 0
M  V30 457 H 44.8501 -1.01172 -1.0993 0
M  V30 458 H 46.7321 -0.374263 -4.19735 0
M  V30 459 H 45.4071 0.316939 -3.22145 0
M  V30 460 H 44.3141 -1.99961 -3.16174 0
M  V30 461 H 45.6471 -2.61421 -4.17037 0
M  V30 462 N 47.2992 1.18797 -1.03562 0
M  V30 463 C 48.5242 1.9314 -0.755764 0
M  V30 464 C 48.9492 1.7537 0.68022 0
M  V30 465 O 48.3072 1.06046 1.47051 0
M  V30 466 C 48.3552 3.42747 -1.12058 0
M  V30 467 O 47.4592 4.11683 -0.243124 0
M  V30 468 H 46.8002 0.602724 -0.278604 0
M  V30 469 H 49.3302 1.50678 -1.3841 0
M  V30 470 H 49.3402 3.93437 -1.08035 0
M  V30 471 H 48.0152 3.55002 -2.16672 0
M  V30 472 H 46.5922 3.71323 -0.342539 0
M  V30 473 N 48.7773 0.814389 1.34928 0
M  V30 474 C 49.6873 0.231978 2.3345 0
M  V30 475 C 50.7033 -0.629139 1.62228 0
M  V30 476 O 51.8793 -0.539052 1.94052 0
M  V30 477 C 48.9443 -0.603482 3.41407 0
M  V30 478 C 48.0053 0.279037 4.28392 0
M  V30 479 C 47.2383 -0.516643 5.31193 0
M  V30 480 O 47.4613 -1.75068 5.4287 0
M  V30 481 O 46.3953 0.0965652 6.01823 0
M  V30 482 H 50.2213 1.04721 2.85074 0
M  V30 483 H 47.8063 0.576343 1.37836 0
M  V30 484 H 49.6883 -1.07908 4.0735 0
M  V30 485 H 48.3633 -1.39618 2.92042 0
M  V30 486 H 47.2703 0.801948 3.65403 0
M  V30 487 H 48.6033 1.03588 4.81176 0
M  V30 488 N 50.2554 -1.46986 0.568584 0
M  V30 489 C 51.6664 -1.86188 0.138219 0
M  V30 490 C 52.0174 -1.47388 -1.29504 0
M  V30 491 O 51.1424 -0.88219 -1.97602 0
M  V30 492 C 51.7374 -3.3792 0.244065 0
M  V30 493 C 50.2964 -3.76171 -0.131335 0
M  V30 494 C 49.4434 -2.71027 0.586465 0
M  V30 495 H 52.3944 -1.38342 0.777645 0
M  V30 496 H 52.4154 -3.76729 -0.534351 0
M  V30 497 H 51.9274 -3.66128 1.28731 0
M  V30 498 H 50.0284 -3.5358 -1.17526 0
M  V30 499 H 50.1414 -4.78523 0.235146 0
M  V30 500 H 48.5054 -2.54684 0.0282722 0
M  V30 501 H 49.2884 -3.02077 1.63109 0
M  V30 502 N 51.7335 -0.305618 -1.54608 0
M  V30 503 C 52.6435 0.57778 -2.27374 0
M  V30 504 C 53.6595 1.14451 -1.31061 0
M  V30 505 O 54.8355 1.16831 -1.6405 0
M  V30 506 C 51.9005 1.73123 -3.00382 0
M  V30 507 C 50.9615 1.19812 -4.12242 0
M  V30 508 C 50.1945 2.2966 -4.81759 0
M  V30 509 O 50.4175 3.49651 -4.50666 0
M  V30 510 O 49.3515 1.96091 -5.69062 0
M  V30 511 H 53.1775 -0.012624 -3.03697 0
M  V30 512 H 50.7625 -0.0719184 -1.49227 0
M  V30 513 H 52.6445 2.40315 -3.4616 0
M  V30 514 H 51.3195 2.30815 -2.26949 0
M  V30 515 H 50.2265 0.491798 -3.70853 0
M  V30 516 H 51.5595 0.666566 -4.87666 0
M  V30 517 N 53.2116 1.57565 -0.0334293 0
M  V30 518 C 54.6226 1.79746 0.504798 0
M  V30 519 C 54.9736 0.944091 1.71992 0
M  V30 520 O 54.0986 0.155694 2.15839 0
M  V30 521 C 54.6936 3.25997 0.922567 0
M  V30 522 C 53.2526 3.49159 1.40588 0
M  V30 523 C 52.3996 2.74785 0.372633 0
M  V30 524 H 55.3506 1.56565 -0.259436 0
M  V30 525 H 55.3716 3.35945 1.78666 0
M  V30 526 H 54.8836 3.88081 0.0379825 0
M  V30 527 H 52.9846 2.92332 2.31025 0
M  V30 528 H 53.0976 4.57873 1.41028 0
M  V30 529 H 51.4616 2.40391 0.841672 0
M  V30 530 H 52.2446 3.39587 -0.503559 0
M  V30 531 N 54.6897 -0.239769 1.55765 0
M  V30 532 C 55.5997 -1.31831 1.94056 0
M  V30 533 C 56.6157 -1.52275 0.841925 0
M  V30 534 O 57.7917 -1.65759 1.14394 0
M  V30 535 C 54.8567 -2.65156 2.23368 0
M  V30 536 C 53.9177 -2.53173 3.46701 0
M  V30 537 C 53.1507 -3.8014 3.74606 0
M  V30 538 O 53.3737 -4.82343 3.04469 0
M  V30 539 O 52.3077 -3.78344 4.68123 0
M  V30 540 H 56.1337 -1.02347 2.85935 0
M  V30 541 H 53.7187 -0.441123 1.42739 0
M  V30 542 H 55.6007 -3.43929 2.43497 0
M  V30 543 H 54.2757 -2.94358 1.34666 0
M  V30 544 H 53.1827 -1.72662 3.31871 0
M  V30 545 H 54.5157 -2.28915 4.35728 0
M  V30 546 N 56.1678 -1.49265 -0.50573 0
M  V30 547 C 57.5788 -1.51769 -1.08734 0
M  V30 548 C 57.9298 -0.301192 -1.93874 0
M  V30 549 O 57.0548 0.589456 -2.08217 0
M  V30 550 C 57.6498 -2.75017 -1.97867 0
M  V30 551 C 56.2088 -2.80314 -2.51199 0
M  V30 552 C 55.3558 -2.4562 -1.28709 0
M  V30 553 H 58.3068 -1.56031 -0.289855 0
M  V30 554 H 58.3278 -2.5491 -2.82491 0
M  V30 555 H 57.8398 -3.63539 -1.35873 0
M  V30 556 H 55.9408 -1.96061 -3.16845 0
M  V30 557 H 56.0538 -3.82366 -2.88675 0
M  V30 558 H 54.4178 -1.97297 -1.61078 0
M  V30 559 H 55.2008 -3.36411 -0.6843 0
M  V30 560 N 57.6459 0.756429 -1.3826 0
M  V30 561 C 58.5559 1.9009 -1.37488 0
M  V30 562 C 59.5719 1.71855 -0.272366 0
M  V30 563 O 60.7479 1.94827 -0.510318 0
M  V30 564 C 57.8129 3.25421 -1.19592 0
M  V30 565 C 56.8739 3.56202 -2.39622 0
M  V30 566 C 56.1069 4.85075 -2.2257 0
M  V30 567 O 56.3299 5.57246 -1.21793 0
M  V30 568 O 55.2639 5.15269 -3.11098 0
M  V30 569 H 59.0899 1.93695 -2.33914 0
M  V30 570 H 56.6749 0.901313 -1.1915 0
M  V30 571 H 58.5569 4.06337 -1.11661 0
M  V30 572 H 57.2319 3.22634 -0.262486 0
M  V30 573 H 56.1389 2.75458 -2.53128 0
M  V30 574 H 57.4719 3.63747 -3.31586 0
M  V30 575 N 59.124 1.23083 0.984299 0
M  V30 576 C 60.535 1.05609 1.5396 0
M  V30 577 C 60.886 -0.377793 1.92528 0
M  V30 578 O 60.011 -1.26398 1.75649 0
M  V30 579 C 60.606 1.91087 2.7977 0
M  V30 580 C 59.165 1.77885 3.31713 0
M  V30 581 C 58.312 1.87028 2.04733 0
M  V30 582 H 61.263 1.36802 0.804419 0
M  V30 583 H 61.284 1.43336 3.5247 0
M  V30 584 H 60.796 2.9544 2.51668 0
M  V30 585 H 58.897 0.762995 3.64704 0
M  V30 586 H 59.01 2.61047 4.01735 0
M  V30 587 H 57.374 1.30565 2.18689 0
M  V30 588 H 58.157 2.92929 1.79017 0
M  V30 589 N 60.6021 -1.18246 1.0419 0
M  V30 590 C 61.5121 -2.25574 0.644476 0
M  V30 591 C 62.5281 -1.70845 -0.329826 0
M  V30 592 O 63.7041 -2.00554 -0.184443 0
M  V30 593 C 60.7691 -3.46697 0.014877 0
M  V30 594 C 59.8301 -4.16554 1.03834 0
M  V30 595 C 59.0631 -5.31894 0.438692 0
M  V30 596 O 59.2861 -5.65385 -0.754752 0
M  V30 597 O 58.2201 -5.90459 1.168 0
M  V30 598 H 62.0461 -2.61836 1.53869 0
M  V30 599 H 59.6311 -1.25352 0.812854 0
M  V30 600 H 61.5131 -4.20062 -0.335538 0
M  V30 601 H 60.1881 -3.12255 -0.853138 0
M  V30 602 H 59.0951 -3.45251 1.44057 0
M  V30 603 H 60.4281 -4.54998 1.87716 0
M  V30 604 N 62.0802 -0.821533 -1.34494 0
M  V30 605 C 63.4912 -0.467956 -1.8074 0
M  V30 606 C 63.8422 1.01151 -1.68116 0
M  V30 607 O 62.9672 1.78707 -1.22036 0
M  V30 608 C 63.5622 -0.842627 -3.28154 0
M  V30 609 C 62.1212 -0.541439 -3.72485 0
M  V30 610 C 61.2682 -1.06028 -2.56229 0
M  V30 611 H 64.2192 -1.01183 -1.22261 0
M  V30 612 H 64.2402 -0.145876 -3.8022 0
M  V30 613 H 63.7522 -1.91945 -3.37311 0
M  V30 614 H 61.8532 0.526034 -3.68868 0
M  V30 615 H 61.9662 -1.08453 -4.66663 0
M  V30 616 H 60.3302 -0.481892 -2.501 0
M  V30 617 H 61.1132 -2.14352 -2.68157 0
M  V30 618 N 63.5583 1.46682 -0.576371 0
M  V30 619 C 64.8043 2.02712 -0.0596221 0
M  V30 620 C 65.1373 1.44765 1.29448 0
M  V30 621 O 64.4123 0.610355 1.84675 0
M  V30 622 C 64.6953 3.60098 0.0129503 0
M  V30 623 C 64.5483 4.28441 -1.3696 0
M  V30 624 C 65.8673 4.34224 0.71678 0
M  V30 625 H 62.9863 0.736637 -0.0231407 0
M  V30 626 H 65.6283 1.74898 -0.742351 0
M  V30 627 H 63.7783 3.83926 0.594378 0
M  V30 628 H 65.4503 4.15896 -1.9957 0
M  V30 629 H 63.6933 3.8805 -1.93907 0
M  V30 630 H 64.3643 5.3716 -1.27135 0
M  V30 631 H 66.8403 4.15503 0.222908 0
M  V30 632 H 65.7163 5.43936 0.73657 0
M  V30 633 H 65.9773 4.04823 1.77682 0
M  V30 634 N 65.0364 0.313813 1.54444 0
M  V30 635 C 66.4474 -0.176243 1.85866 0
M  V30 636 C 66.7984 -1.52405 1.23561 0
M  V30 637 O 65.9234 -2.09605 0.538016 0
M  V30 638 C 66.5184 -0.32657 3.37222 0
M  V30 639 C 65.0774 -0.760846 3.6863 0
M  V30 640 C 64.2244 0.123247 2.77026 0
M  V30 641 H 67.1754 0.534418 1.49431 0
M  V30 642 H 67.1964 -1.15908 3.62416 0
M  V30 643 H 66.7084 0.654531 3.82541 0
M  V30 644 H 64.8094 -1.75204 3.28838 0
M  V30 645 H 64.9224 -0.571353 4.75681 0
M  V30 646 H 63.2864 -0.399597 2.51546 0
M  V30 647 H 64.0694 1.10094 3.25168 0
M  V30 648 N 66.5145 -1.57545 0.0417849 0
M  V30 649 C 67.7605 -1.92601 -0.635021 0
M  V30 650 C 68.0935 -0.919627 -1.71045 0
M  V30 651 O 67.3685 0.0557892 -1.9442 0
M  V30 652 C 67.6515 -3.38085 -1.23979 0
M  V30 653 C 67.5045 -4.49467 -0.173057 0
M  V30 654 C 68.8235 -3.83776 -2.15416 0
M  V30 655 H 65.9425 -0.700397 -0.229374 0
M  V30 656 H 68.5845 -1.89728 0.101633 0
M  V30 657 H 66.7345 -3.40664 -1.86762 0
M  V30 658 H 68.4065 -4.59018 0.458312 0
M  V30 659 H 66.6495 -4.30909 0.499996 0
M  V30 660 H 67.3205 -5.48323 -0.636054 0
M  V30 661 H 69.7965 -3.83013 -1.62605 0
M  V30 662 H 68.6725 -4.8624 -2.54679 0
M  V30 663 H 68.9335 -3.19998 -3.05047 0
M  V30 664 N 67.9926 0.231505 -1.5589 0
M  V30 665 C 69.4036 0.799327 -1.68724 0
M  V30 666 C 69.7546 1.85398 -0.642022 0
M  V30 667 O 68.8796 2.1539 0.208784 0
M  V30 668 C 69.4746 1.45664 -3.05888 0
M  V30 669 C 68.0336 1.97197 -3.20609 0
M  V30 670 C 67.1806 0.828552 -2.64632 0
M  V30 671 H 70.1316 0.00702616 -1.58698 0
M  V30 672 H 70.1526 2.32517 -3.01191 0
M  V30 673 H 69.6646 0.688808 -3.81939 0
M  V30 674 H 67.7656 2.76813 -2.4941 0
M  V30 675 H 67.8786 2.15878 -4.27707 0
M  V30 676 H 66.2426 1.23321 -2.22854 0
M  V30 677 H 67.0256 0.0735544 -3.43221 0
M  V30 678 N 69.4707 1.49531 0.497807 0
M  V30 679 C 70.8817 1.52344 1.07927 0
M  V30 680 C 71.2327 0.311469 1.93712 0
M  V30 681 O 70.3577 -0.578405 2.08527 0
M  V30 682 C 70.9527 2.76062 1.96405 0
M  V30 683 C 69.5117 2.81643 2.49709 0
M  V30 684 C 68.6587 2.46299 1.27404 0
M  V30 685 H 71.6097 1.56182 0.281576 0
M  V30 686 H 71.6307 2.56405 2.81135 0
M  V30 687 H 71.1427 3.64254 1.33943 0
M  V30 688 H 69.2437 1.97739 3.15801 0
M  V30 689 H 69.3567 3.83891 2.86643 0
M  V30 690 H 67.7207 1.98148 1.60029 0
M  V30 691 H 68.5037 3.36769 0.66645 0
M  V30 692 N 70.9488 -0.749086 1.3866 0
M  V30 693 C 72.3598 -1.32664 1.31366 0
M  V30 694 C 72.7108 -1.96179 -0.028484 0
M  V30 695 O 71.8358 -1.9537 -0.93057 0
M  V30 696 C 72.4308 -2.41219 2.37905 0
M  V30 697 C 70.9898 -2.94684 2.34176 0
M  V30 698 C 70.1368 -1.68108 2.20533 0
M  V30 699 H 73.0878 -0.547628 1.48952 0
M  V30 700 H 73.1088 -3.21268 2.0388 0
M  V30 701 H 72.6208 -1.94962 3.35576 0
M  V30 702 H 70.7218 -3.45258 1.401 0
M  V30 703 H 70.8348 -3.48757 3.2849 0
M  V30 704 H 69.1988 -1.91907 1.67463 0
M  V30 705 H 69.9818 -1.23923 3.20153 0
M  V30 706 N 72.4269 -1.23603 -0.977757 0
M  V30 707 C 73.3369 -1.03632 -2.1047 0
M  V30 708 C 74.3529 0.0199435 -1.73989 0
M  V30 709 O 75.5289 -0.176076 -2.00629 0
M  V30 710 C 72.5939 -0.63276 -3.40877 0
M  V30 711 C 71.6549 -1.76437 -3.91367 0
M  V30 712 C 70.8879 -1.37997 -5.15551 0
M  V30 713 O 71.1109 -0.265357 -5.69782 0
M  V30 714 O 70.0449 -2.20201 -5.60174 0
M  V30 715 H 73.8709 -1.98086 -2.30208 0
M  V30 716 H 71.4559 -1.02332 -1.08851 0
M  V30 717 H 73.3379 -0.418761 -4.19314 0
M  V30 718 H 72.0129 0.282754 -3.22463 0
M  V30 719 H 70.9199 -2.03304 -3.14036 0
M  V30 720 H 72.2529 -2.6583 -4.14241 0
M  V30 721 N 73.905 1.17692 -1.04816 0
M  V30 722 C 75.316 1.69501 -0.782698 0
M  V30 723 C 75.667 1.83456 0.695577 0
M  V30 724 O 74.792 1.51942 1.54086 0
M  V30 725 C 75.387 3.07874 -1.41419 0
M  V30 726 C 73.946 3.56864 -1.19686 0
M  V30 727 C 73.093 2.3322 -1.50012 0
M  V30 728 H 76.044 1.02262 -1.2136 0
M  V30 729 H 76.065 3.71528 -0.821428 0
M  V30 730 H 75.577 2.97685 -2.49009 0
M  V30 731 H 73.678 3.72337 -0.140043 0
M  V30 732 H 73.791 4.39851 -1.89916 0
M  V30 733 H 72.155 2.37501 -0.920071 0
M  V30 734 H 72.938 2.25644 -2.58727 0
M  V30 735 N 75.3831 0.828654 1.34056 0
M  V30 736 C 76.3151 0.212052 2.28217 0
M  V30 737 C 77.3281 -0.601362 1.51286 0
M  V30 738 O 78.5171 -0.430104 1.73241 0
M  V30 739 C 75.6171 -0.72088 3.31144 0
M  V30 740 C 74.7901 0.0509587 4.3737 0
M  V30 741 C 73.8491 -0.803766 5.20025 0
M  V30 742 O 72.8751 -0.246667 5.68665 0
M  V30 743 N 74.0771 -2.1227 5.40298 0
M  V30 744 H 76.8421 1.02105 2.81771 0
M  V30 745 H 74.4031 0.686153 1.46641 0
M  V30 746 H 76.3951 -1.29742 3.8334 0
M  V30 747 H 74.9651 -1.43061 2.77943 0
M  V30 748 H 74.1851 0.808831 3.85813 0
M  V30 749 H 75.4731 0.582065 5.0546 0
M  V30 750 H 74.8711 -2.59898 5.02464 0
M  V30 751 H 73.4281 -2.64796 5.95589 0
M  V30 752 N 76.8612 -1.46375 0.584142 0
M  V30 753 C 78.2722 -1.86031 0.157959 0
M  V30 754 C 78.6232 -1.48753 -1.27933 0
M  V30 755 O 77.7482 -0.903098 -1.96655 0
M  V30 756 C 78.3432 -3.37642 0.279892 0
M  V30 757 C 76.9022 -3.76289 -0.09143 0
M  V30 758 C 76.0492 -2.7039 0.615178 0
M  V30 759 H 79.0002 -1.37509 0.792274 0
M  V30 760 H 79.0212 -3.77275 -0.494364 0
M  V30 761 H 78.5332 -3.64742 1.32607 0
M  V30 762 H 76.6342 -3.54806 -1.13769 0
M  V30 763 H 76.7472 -4.78246 0.285886 0
M  V30 764 H 75.1112 -2.5464 0.0552833 0
M  V30 765 H 75.8942 -3.0033 1.66303 0
M  V30 766 N 78.3393 -0.321999 -1.54275 0
M  V30 767 C 79.2493 0.553631 -2.27974 0
M  V30 768 C 80.2653 1.13054 -1.32268 0
M  V30 769 O 81.4413 1.15084 -1.6528 0
M  V30 770 C 78.5063 1.69927 -3.02201 0
M  V30 771 C 77.5673 1.15433 -4.1349 0
M  V30 772 C 76.8003 2.24537 -4.84168 0
M  V30 773 O 77.0233 3.44852 -4.5435 0
M  V30 774 O 75.9573 1.90044 -5.7111 0
M  V30 775 H 79.7833 -0.0448345 -3.03667 0
M  V30 776 H 77.3683 -0.0877418 -1.49142 0
M  V30 777 H 79.2503 2.3663 -3.48689 0
M  V30 778 H 77.9253 2.28395 -2.29385 0
M  V30 779 H 76.8323 0.452436 -3.71354 0
M  V30 780 H 78.1653 0.614805 -4.88345 0
M  V30 781 N 79.8174 1.5752 -0.0501392 0
M  V30 782 C 81.2284 1.80271 0.485705 0
M  V30 783 C 81.5794 0.96228 1.70981 0
M  V30 784 O 80.7044 0.178578 2.15662 0
M  V30 785 C 81.2994 3.26957 0.887938 0
M  V30 786 C 79.8584 3.5063 1.36877 0
M  V30 787 C 79.0054 2.75165 0.343468 0
M  V30 788 H 81.9564 1.56281 -0.276028 0
M  V30 789 H 81.9774 3.37821 1.75093 0
M  V30 790 H 81.4894 3.881 -0.0031809 0
M  V30 791 H 79.5904 2.94766 2.27911 0
M  V30 792 H 79.7034 4.59343 1.36164 0
M  V30 793 H 78.0674 2.4127 0.816128 0
M  V30 794 H 78.8504 3.39034 -0.539548 0
M  V30 795 N 81.2955 -0.223234 1.56011 0
M  V30 796 C 82.2275 -1.30006 1.88762 0
M  V30 797 C 83.2405 -1.43129 0.775746 0
M  V30 798 O 84.4295 -1.44057 1.05403 0
M  V30 799 C 81.5295 -2.67589 2.07965 0
M  V30 800 C 80.7025 -2.76434 3.38973 0
M  V30 801 C 79.7615 -3.95019 3.47629 0
M  V30 802 O 78.7875 -3.83436 4.20672 0
M  V30 803 N 79.9895 -5.09249 2.78649 0
M  V30 804 H 82.7545 -1.02238 2.81722 0
M  V30 805 H 80.3155 -0.413278 1.56536 0
M  V30 806 H 82.3075 -3.45297 2.11073 0
M  V30 807 H 80.8775 -2.87964 1.21638 0
M  V30 808 H 80.0975 -1.85216 3.47978 0
M  V30 809 H 81.3855 -2.79313 4.25278 0
M  V30 810 H 80.7835 -5.21556 2.19081 0
M  V30 811 H 79.3405 -5.85007 2.8742 0
M  V30 812 N 82.7736 -1.49793 -0.48987 0
M  V30 813 C 84.1846 -1.52914 -1.07118 0
M  V30 814 C 84.5356 -0.321738 -1.93544 0
M  V30 815 O 83.6606 0.567338 -2.08831 0
M  V30 816 C 84.2556 -2.771 -1.94938 0
M  V30 817 C 82.8146 -2.82963 -2.48212 0
M  V30 818 C 81.9616 -2.46972 -1.26096 0
M  V30 819 H 84.9126 -1.56329 -0.273289 0
M  V30 820 H 84.9336 -2.57892 -2.79771 0
M  V30 821 H 84.4456 -3.64959 -1.32009 0
M  V30 822 H 82.5466 -1.99411 -3.14748 0
M  V30 823 H 82.6596 -3.85406 -2.84603 0
M  V30 824 H 81.0236 -1.98994 -1.58976 0
M  V30 825 H 81.8066 -3.37118 -0.648581 0
M  V30 826 N 84.2517 0.741722 -1.39055 0
M  V30 827 C 85.1817 1.869 -1.39966 0
M  V30 828 C 86.1627 1.6804 -0.26392 0
M  V30 829 O 87.3477 1.88458 -0.468755 0
M  V30 830 C 84.4777 3.24572 -1.23574 0
M  V30 831 C 83.4317 3.58056 -2.34477 0
M  V30 832 C 82.7577 4.94593 -2.0318 0
M  V30 833 C 84.0577 3.61716 -3.76774 0
M  V30 834 H 85.7517 1.86395 -2.34302 0
M  V30 835 H 83.2977 0.895361 -1.1278 0
M  V30 836 H 85.2507 4.031 -1.22834 0
M  V30 837 H 83.9747 3.25587 -0.257045 0
M  V30 838 H 82.6337 2.81854 -2.34423 0
M  V30 839 H 82.2817 4.92181 -1.03765 0
M  V30 840 H 81.9817 5.17964 -2.77465 0
M  V30 841 H 83.5057 5.75486 -2.04079 0
M  V30 842 H 84.9197 4.30335 -3.78794 0
M  V30 843 H 83.3167 3.96603 -4.50362 0
M  V30 844 H 84.3867 2.61672 -4.08235 0
M  V30 845 N 85.7298 1.2412 0.971189 0
M  V30 846 C 87.1408 1.07236 1.52831 0
M  V30 847 C 87.4918 -0.357352 1.92918 0
M  V30 848 O 86.6168 -1.24528 1.76979 0
M  V30 849 C 87.2118 1.94043 2.77728 0
M  V30 850 C 85.7708 1.81394 3.29808 0
M  V30 851 C 84.9178 1.89189 2.02738 0
M  V30 852 H 87.8688 1.37648 0.789864 0
M  V30 853 H 87.8898 1.47066 3.5093 0
M  V30 854 H 87.4018 2.98093 2.4852 0
M  V30 855 H 85.5028 0.801634 3.63874 0
M  V30 856 H 85.6158 2.65294 3.98944 0
M  V30 857 H 83.9798 1.32877 2.17292 0
M  V30 858 H 84.7628 2.94812 1.759 0
M  V30 859 N 87.2079 -1.17134 1.05439 0
M  V30 860 C 88.4849 -1.83411 0.679699 0
M  V30 861 C 88.8649 -1.9368 -0.839726 0
M  V30 862 O 88.2129 -1.47325 -1.74664 0
M  V30 863 C 88.4229 -3.20918 1.37159 0
M  V30 864 C 89.7709 -3.96796 1.51123 0
M  V30 865 O 90.7949 -3.30406 1.3308 0
M  V30 866 O 89.6539 -5.15778 1.80651 0
M  V30 867 H 86.7479 -0.79154 0.239569 0
M  V30 868 H 89.2939 -1.24411 1.15413 0
M  V30 869 H 88.0659 -3.08428 2.40807 0
M  V30 870 H 87.6889 -3.87587 0.886674 0
M  V30 871 N 88.686 -0.835752 -1.33615 0
M  V30 872 C 90.097 -0.487099 -1.80234 0
M  V30 873 C 90.448 0.993627 -1.69179 0
M  V30 874 O 89.573 1.77403 -1.23924 0
M  V30 875 C 90.168 -0.877385 -3.27242 0
M  V30 876 C 88.727 -0.580915 -3.7189 0
M  V30 877 C 87.874 -1.0874 -2.5509 0
M  V30 878 H 90.825 -1.02474 -1.2118 0
M  V30 879 H 90.846 -0.186195 -3.80044 0
M  V30 880 H 90.358 -1.95512 -3.35256 0
M  V30 881 H 88.459 0.486881 -3.69405 0
M  V30 882 H 88.572 -1.13396 -4.65487 0
M  V30 883 H 86.936 -0.508392 -2.49575 0
M  V30 884 H 87.719 -2.17184 -2.65868 0
M  V30 885 N 90.1641 1.46063 -0.591896 0
M  V30 886 C 91.1271 2.28854 0.125973 0
M  V30 887 C 92.1271 1.38903 0.810107 0
M  V30 888 O 93.3171 1.61186 0.66066 0
M  V30 889 C 90.4491 3.19526 1.1881 0
M  V30 890 H 91.6421 2.93802 -0.601717 0
M  V30 891 H 89.1951 1.52325 -0.350254 0
M  V30 892 H 89.9301 2.59345 1.94707 0
M  V30 893 H 89.7151 3.85766 0.701936 0
M  V30 894 H 91.2051 3.81817 1.69132 0
M  V30 895 N 91.6422 0.330177 1.54103 0
M  V30 896 C 93.0532 -0.15652 1.86043 0
M  V30 897 C 93.4042 -1.51086 1.2517 0
M  V30 898 O 92.5292 -2.09023 0.560217 0
M  V30 899 C 93.1242 -0.290784 3.3755 0
M  V30 900 C 91.6832 -0.721705 3.69416 0
M  V30 901 C 90.8302 0.152622 2.7688 0
M  V30 902 H 93.7812 0.550237 1.48856 0
M  V30 903 H 93.8022 -1.12058 3.63625 0
M  V30 904 H 93.3142 0.695068 3.81825 0
M  V30 905 H 91.4152 -1.71706 3.30678 0
M  V30 906 H 91.5282 -0.520869 4.7626 0
M  V30 907 H 89.8922 -0.372894 2.51956 0
M  V30 908 H 90.6752 1.13536 3.23982 0
M  V30 909 N 93.1203 -1.57491 0.0584922 0
M  V30 910 C 94.0503 -2.14988 -0.911178 0
M  V30 911 C 95.0313 -1.07343 -1.31952 0
M  V30 912 O 96.2163 -1.35318 -1.39294 0
M  V30 913 C 93.3463 -2.70078 -2.18347 0
M  V30 914 C 92.3003 -3.82771 -1.91495 0
M  V30 915 C 91.6263 -4.24408 -3.25241 0
M  V30 916 C 92.9263 -5.07592 -1.23075 0
M  V30 917 H 94.6203 -2.96263 -0.432246 0
M  V30 918 H 92.1663 -1.42512 -0.206469 0
M  V30 919 H 94.1193 -3.08943 -2.86587 0
M  V30 920 H 92.8433 -1.86005 -2.68458 0
M  V30 921 H 91.5023 -3.44389 -1.25664 0
M  V30 922 H 91.1503 -3.37275 -3.73168 0
M  V30 923 H 90.8503 -5.00366 -3.08071 0
M  V30 924 H 92.3743 -4.65879 -3.94701 0
M  V30 925 H 93.7883 -5.43857 -1.81362 0
M  V30 926 H 92.1853 -5.88741 -1.16207 0
M  V30 927 H 93.2553 -4.84454 -0.207847 0
M  V30 928 N 94.5984 0.214957 -1.56127 0
M  V30 929 C 96.0094 0.781386 -1.69562 0
M  V30 930 C 96.3604 1.84707 -0.66165 0
M  V30 931 O 95.4854 2.156 0.185927 0
M  V30 932 C 96.0804 1.42411 -3.07416 0
M  V30 933 C 94.6394 1.93786 -3.22683 0
M  V30 934 C 93.7864 0.800438 -2.65496 0
M  V30 935 H 96.7374 -0.00980633 -1.58697 0
M  V30 936 H 96.7584 2.29309 -3.0364 0
M  V30 937 H 96.2704 0.64826 -3.82648 0
M  V30 938 H 94.3714 2.74152 -2.52332 0
M  V30 939 H 94.4844 2.1133 -4.29973 0
M  V30 940 H 92.8484 1.2095 -2.2415 0
M  V30 941 H 93.6314 0.0371471 -3.4328 0
M  V30 942 N 96.0765 1.50051 0.48192 0
M  V30 943 C 96.9865 1.7089 1.60728 0
M  V30 944 C 98.0025 0.591788 1.63627 0
M  V30 945 O 99.1785 0.868817 1.81696 0
M  V30 946 C 96.2435 1.78855 2.97005 0
M  V30 947 C 95.3045 3.02537 3.04581 0
M  V30 948 C 94.5375 3.10112 4.34357 0
M  V30 949 O 94.7605 2.24765 5.24249 0
M  V30 950 O 93.6945 4.02747 4.47301 0
M  V30 951 H 97.5205 2.66264 1.46072 0
M  V30 952 H 95.1055 1.34018 0.660264 0
M  V30 953 H 96.9875 1.86336 3.77964 0
M  V30 954 H 95.6625 0.866628 3.11883 0
M  V30 955 H 94.5695 3.00563 2.22739 0
M  V30 956 H 95.9025 3.94272 2.94636 0
M  V30 957 N 97.5546 -0.734337 1.39446 0
M  V30 958 C 98.4846 -1.86155 1.40955 0
M  V30 959 C 99.4656 -1.67898 0.272827 0
M  V30 960 O 100.651 -1.88207 0.478743 0
M  V30 961 C 97.7806 -3.23912 1.25294 0
M  V30 962 C 96.7346 -3.56808 2.36373 0
M  V30 963 C 96.0606 -4.93508 2.058 0
M  V30 964 C 97.3606 -3.59713 3.78687 0
M  V30 965 H 99.0546 -1.8515 2.35287 0
M  V30 966 H 96.6006 -0.889367 1.13253 0
M  V30 967 H 98.5536 -4.02443 1.2497 0
M  V30 968 H 97.2776 -3.25446 0.274308 0
M  V30 969 H 95.9366 -2.80606 2.35914 0
M  V30 970 H 95.5846 -4.91623 1.06374 0
M  V30 971 H 95.2846 -5.16486 2.80208 0
M  V30 972 H 96.8086 -5.74396 2.07128 0
M  V30 973 H 98.2226 -4.2832 3.81071 0
M  V30 974 H 96.6196 -3.94209 4.52459 0
M  V30 975 H 97.6896 -2.59504 4.09617 0
M  V30 976 N 99.0327 -1.24633 -0.964593 0
M  V30 977 C 99.9427 -1.05859 -2.09359 0
M  V30 978 C 100.959 0.00148855 -1.74 0
M  V30 979 O 102.135 -0.197346 -2.00431 0
M  V30 980 C 99.1997 -0.668879 -3.40187 0
M  V30 981 C 98.2607 -1.80578 -3.89474 0
M  V30 982 C 97.4937 -1.43457 -5.14058 0
M  V30 983 O 97.7167 -0.325775 -5.69469 0
M  V30 984 O 96.6507 -2.2613 -5.57807 0
M  V30 985 H 100.477 -2.00516 -2.28094 0
M  V30 986 H 98.0617 -1.03481 -1.0776 0
M  V30 987 H 99.9437 -0.463211 -4.18846 0
M  V30 988 H 98.6187 0.248536 -3.22744 0
M  V30 989 H 97.5257 -2.06623 -3.11862 0
M  V30 990 H 98.8587 -2.70208 -4.11398 0
M  V30 991 N 100.511 1.16574 -1.06058 0
M  V30 992 C 101.758 1.87047 -0.775873 0
M  V30 993 C 102.086 1.81562 0.697534 0
M  V30 994 O 101.341 1.22445 1.52662 0
M  V30 995 C 101.64 3.36195 -1.21275 0
M  V30 996 C 101.306 3.6188 -2.68986 0
M  V30 997 C 99.9678 3.68599 -3.09335 0
M  V30 998 C 102.32 3.72648 -3.64394 0
M  V30 999 C 99.6478 3.83584 -4.43937 0
M  V30 1000 C 102 3.89154 -4.98741 0
M  V30 1001 C 100.664 3.94114 -5.3873 0
M  V30 1002 H 99.9338 0.684452 -0.283912 0
M  V30 1003 H 102.581 1.37853 -1.32925 0
M  V30 1004 H 100.886 3.87505 -0.578528 0
M  V30 1005 H 102.583 3.89103 -0.969542 0
M  V30 1006 H 99.1728 3.57281 -2.36744 0
M  V30 1007 H 103.357 3.66769 -3.34356 0
M  V30 1008 H 98.6128 3.85677 -4.74409 0
M  V30 1009 H 102.787 3.96427 -5.72554 0
M  V30 1010 H 100.414 4.05478 -6.43033 0
M  V30 1011 N 101.989 0.842826 1.3317 0
M  V30 1012 C 102.899 0.281444 2.32906 0
M  V30 1013 C 103.915 -0.594587 1.63526 0
M  V30 1014 O 105.091 -0.49777 1.95152 0
M  V30 1015 C 102.156 -0.530929 3.42611 0
M  V30 1016 C 101.217 0.369843 4.27704 0
M  V30 1017 C 100.45 -0.403853 5.3217 0
M  V30 1018 O 100.673 -1.63513 5.46461 0
M  V30 1019 O 99.6069 0.224199 6.01482 0
M  V30 1020 H 103.433 1.10744 2.82789 0
M  V30 1021 H 101.018 0.60545 1.36582 0
M  V30 1022 H 102.9 -0.992437 4.09547 0
M  V30 1023 H 101.575 -1.33392 2.94938 0
M  V30 1024 H 100.482 0.879275 3.6362 0
M  V30 1025 H 101.815 1.13771 4.78871 0
M  V30 1026 N 103.467 -1.45747 0.599634 0
M  V30 1027 C 104.692 -2.07178 0.0960198 0
M  V30 1028 C 105.117 -1.44268 -1.207 0
M  V30 1029 O 104.475 -0.532503 -1.73303 0
M  V30 1030 C 104.523 -3.60579 -0.0385348 0
M  V30 1031 O 103.627 -3.97713 -1.0908 0
M  V30 1032 H 102.968 -0.660251 0.0704593 0
M  V30 1033 H 105.498 -1.87124 0.827385 0
M  V30 1034 H 105.508 -4.07298 -0.239304 0
M  V30 1035 H 104.183 -4.05756 0.912947 0
M  V30 1036 H 102.76 -3.62678 -0.867135 0
M  V30 1037 N 104.945 -0.338344 -1.53925 0
M  V30 1038 C 105.855 0.529421 -2.28548 0
M  V30 1039 C 106.871 1.11645 -1.3346 0
M  V30 1040 O 108.047 1.13325 -1.66492 0
M  V30 1041 C 105.112 1.66713 -3.03987 0
M  V30 1042 C 104.173 1.11041 -4.14691 0
M  V30 1043 C 103.406 2.19389 -4.86522 0
M  V30 1044 O 103.629 3.40013 -4.57982 0
M  V30 1045 O 102.563 1.83976 -5.73094 0
M  V30 1046 H 106.389 -0.0770399 -3.03602 0
M  V30 1047 H 103.974 -0.103555 -1.49041 0
M  V30 1048 H 105.856 2.32918 -3.5118 0
M  V30 1049 H 104.531 2.25949 -2.31794 0
M  V30 1050 H 103.438 0.413024 -3.71813 0
M  V30 1051 H 104.771 0.562975 -4.8897 0
M  V30 1052 N 106.423 1.57458 -0.0668435 0
M  V30 1053 C 107.839 1.56947 0.289772 0
M  V30 1054 C 108.039 1.07584 1.70376 0
M  V30 1055 O 107.095 0.739486 2.41429 0
M  V30 1056 C 108.408 3.0052 0.103943 0
M  V30 1057 C 109.956 3.12517 0.173857 0
M  V30 1058 C 110.431 4.57997 0.0163682 0
M  V30 1059 N 111.922 4.63144 0.0721352 0
M  V30 1060 C 112.657 5.73394 -0.0253794 0
M  V30 1061 N 112.153 6.92576 -0.176133 0
M  V30 1062 N 113.946 5.62091 0.0313305 0
M  V30 1063 H 106.097 1.87863 -0.991027 0
M  V30 1064 H 108.36 0.86583 -0.38606 0
M  V30 1065 H 108.066 3.40729 -0.871572 0
M  V30 1066 H 107.94 3.67304 0.858366 0
M  V30 1067 H 110.327 2.72197 1.13985 0
M  V30 1068 H 110.408 2.48381 -0.611586 0
M  V30 1069 H 110.052 4.99005 -0.946374 0
M  V30 1070 H 109.982 5.20158 0.821153 0
M  V30 1071 H 112.473 3.77436 0.187263 0
M  V30 1072 H 112.786 7.72418 -0.242821 0
M  V30 1073 H 111.131 6.94678 -0.211429 0
M  V30 1074 H 114.322 4.67867 0.147773 0
M  V30 1075 H 114.495 6.47982 -0.048121 0
M  V30 1076 N 107.901 -0.206675 1.56239 0
M  V30 1077 C 109.147 -0.930218 1.80208 0
M  V30 1078 C 109.48 -1.83387 0.638981 0
M  V30 1079 O 108.755 -1.91119 -0.361066 0
M  V30 1080 C 109.038 -1.75641 3.1436 0
M  V30 1081 C 108.891 -0.878257 4.41142 0
M  V30 1082 C 110.21 -2.73129 3.45092 0
M  V30 1083 H 107.329 -0.336742 0.655571 0
M  V30 1084 H 109.971 -0.198222 1.88963 0
M  V30 1085 H 108.121 -2.38048 3.07027 0
M  V30 1086 H 109.793 -0.269787 4.6051 0
M  V30 1087 H 108.036 -0.184385 4.33408 0
M  V30 1088 H 108.707 -1.49106 5.3148 0
M  V30 1089 H 111.183 -2.20856 3.52649 0
M  V30 1090 H 110.059 -3.28028 4.40101 0
M  V30 1091 H 110.32 -3.51606 2.68003 0
M  V30 1092 N 109.379 -1.50304 -0.473955 0
M  V30 1093 C 110.329 -1.65347 -1.56985 0
M  V30 1094 C 111.313 -0.508176 -1.52664 0
M  V30 1095 O 112.505 -0.762446 -1.59737 0
M  V30 1096 C 109.634 -1.74832 -2.95447 0
M  V30 1097 C 108.72 -2.95028 -3.04662 0
M  V30 1098 N 109.111 -4.18747 -2.83698 0
M  V30 1099 C 107.409 -2.93527 -3.35795 0
M  V30 1100 C 108.11 -4.99687 -2.97805 0
M  V30 1101 N 107.086 -4.33585 -3.2788 0
M  V30 1102 H 110.888 -2.58698 -1.39472 0
M  V30 1103 H 108.402 -1.47449 -0.680629 0
M  V30 1104 H 110.399 -1.83712 -3.7424 0
M  V30 1105 H 109.059 -0.826376 -3.14008 0
M  V30 1106 H 110.07 -4.48291 -2.59337 0
M  V30 1107 H 106.747 -2.10821 -3.60362 0
M  V30 1108 H 108.137 -6.08057 -2.85861 0
M  V30 1109 N 110.857 0.726932 -1.39834 0
M  V30 1110 C 111.767 1.87131 -1.41489 0
M  V30 1111 C 112.783 1.71239 -0.308757 0
M  V30 1112 O 113.959 1.93701 -0.551529 0
M  V30 1113 C 111.024 3.22811 -1.26468 0
M  V30 1114 C 110.085 3.51039 -2.47124 0
M  V30 1115 C 109.318 4.80245 -2.3281 0
M  V30 1116 O 109.541 5.54537 -1.33585 0
M  V30 1117 O 108.475 5.08554 -3.21957 0
M  V30 1118 H 112.301 1.8869 -2.3797 0
M  V30 1119 H 109.886 0.875837 -1.21035 0
M  V30 1120 H 111.768 4.03877 -1.20255 0
M  V30 1121 H 110.443 3.22005 -0.330862 0
M  V30 1122 H 109.35 2.70027 -2.58914 0
M  V30 1123 H 110.683 3.56632 -3.39227 0
M  V30 1124 N 112.336 1.25143 0.95797 0
M  V30 1125 C 113.747 1.08851 1.51685 0
M  V30 1126 C 114.098 -0.33687 1.93286 0
M  V30 1127 O 113.223 -1.22644 1.7829 0
M  V30 1128 C 113.818 1.96978 2.75654 0
M  V30 1129 C 112.377 1.84881 3.27866 0
M  V30 1130 C 111.524 1.91329 2.0072 0
M  V30 1131 H 114.475 1.38478 0.77522 0
M  V30 1132 H 114.496 1.5078 3.4935 0
M  V30 1133 H 114.008 3.00712 2.45345 0
M  V30 1134 H 112.109 0.840182 3.63004 0
M  V30 1135 H 112.222 2.6951 3.96107 0
M  V30 1136 H 110.586 1.35174 2.15871 0
M  V30 1137 H 111.369 2.96661 1.72764 0
M  V30 1138 N 113.814 -1.1601 1.06675 0
M  V30 1139 C 114.724 -2.24156 0.692179 0
M  V30 1140 C 115.74 -1.71507 -0.293513 0
M  V30 1141 O 116.916 -2.009 -0.141861 0
M  V30 1142 C 113.981 -3.46587 0.0884131 0
M  V30 1143 C 113.042 -4.14257 1.12646 0
M  V30 1144 C 112.275 -5.30844 0.551416 0
M  V30 1145 O 112.498 -5.66858 -0.634656 0
M  V30 1146 O 111.432 -5.87848 1.29298 0
M  V30 1147 H 115.258 -2.58513 1.59388 0
M  V30 1148 H 112.843 -1.23599 0.83926 0
M  V30 1149 H 114.725 -4.20679 -0.246361 0
M  V30 1150 H 113.4 -3.13994 -0.786712 0
M  V30 1151 H 112.307 -3.42118 1.51348 0
M  V30 1152 H 113.64 -4.50914 1.97325 0
M  V30 1153 N 115.292 -0.849877 -1.32721 0
M  V30 1154 C 116.703 -0.506188 -1.79707 0
M  V30 1155 C 117.054 0.975627 -1.70223 0
M  V30 1156 O 116.179 1.76078 -1.25799 0
M  V30 1157 C 116.774 -0.912044 -3.26293 0
M  V30 1158 C 115.333 -0.620326 -3.71253 0
M  V30 1159 C 114.48 -1.11439 -2.53922 0
M  V30 1160 H 117.431 -1.03754 -1.20087 0
M  V30 1161 H 117.452 -0.226493 -3.79825 0
M  V30 1162 H 116.964 -1.99057 -3.33164 0
M  V30 1163 H 115.065 0.447674 -3.69901 0
M  V30 1164 H 115.178 -1.18327 -4.64258 0
M  V30 1165 H 113.542 -0.534834 -2.49021 0
M  V30 1166 H 114.325 -2.19992 -2.6355 0
M  V30 1167 N 116.77 1.45427 -0.607355 0
M  V30 1168 C 117.998 2.06614 -0.108814 0
M  V30 1169 C 118.413 1.45204 1.2067 0
M  V30 1170 O 117.77 0.566132 1.73497 0
M  V30 1171 C 117.821 3.61481 0.0375347 0
M  V30 1172 O 117.542 4.20598 -1.22593 0
M  V30 1173 C 119.043 4.39652 0.567561 0
M  V30 1174 H 116.263 0.66747 -0.0687351 0
M  V30 1175 H 118.807 1.86675 -0.835022 0
M  V30 1176 H 116.962 3.80762 0.714068 0
M  V30 1177 H 117.376 5.1377 -1.05547 0
M  V30 1178 H 118.85 5.48518 0.61905 0
M  V30 1179 H 119.327 4.09417 1.58978 0
M  V30 1180 H 119.933 4.25234 -0.0749202 0
M  V30 1181 N 118.248 0.346503 1.53744 0
M  V30 1182 C 119.659 -0.136779 1.86198 0
M  V30 1183 C 120.01 -1.49749 1.26766 0
M  V30 1184 O 119.135 -2.08417 0.582355 0
M  V30 1185 C 119.73 -0.254966 3.37839 0
M  V30 1186 C 118.289 -0.682482 3.70161 0
M  V30 1187 C 117.436 0.181981 2.76702 0
M  V30 1188 H 120.387 0.565994 1.48264 0
M  V30 1189 H 120.408 -1.08195 3.64793 0
M  V30 1190 H 119.92 0.735526 3.81066 0
M  V30 1191 H 118.021 -1.68189 3.3248 0
M  V30 1192 H 118.134 -0.470326 4.76786 0
M  V30 1193 H 116.498 -0.34615 2.52337 0
M  V30 1194 H 117.281 1.16966 3.2276 0
M  V30 1195 N 119.726 -1.57421 0.075193 0
M  V30 1196 C 120.954 -1.97946 -0.602076 0
M  V30 1197 C 121.369 -0.953674 -1.62943 0
M  V30 1198 O 120.726 0.0592551 -1.82404 0
M  V30 1199 C 120.777 -3.38546 -1.26762 0
M  V30 1200 O 120.498 -4.37195 -0.281376 0
M  V30 1201 C 121.999 -3.93966 -2.03239 0
M  V30 1202 H 119.219 -0.650918 -0.162931 0
M  V30 1203 H 121.763 -2.03959 0.148601 0
M  V30 1204 H 119.918 -3.33609 -1.96936 0
M  V30 1205 H 120.332 -5.18975 -0.759267 0
M  V30 1206 H 121.806 -4.94555 -2.45193 0
M  V30 1207 H 122.283 -3.30693 -2.8903 0
M  V30 1208 H 122.889 -4.02315 -1.37924 0
M  V30 1209 N 121.204 0.198386 -1.56346 0
M  V30 1210 C 122.45 0.920648 -1.80698 0
M  V30 1211 C 122.783 1.83045 -0.648697 0
M  V30 1212 O 122.058 1.91308 0.350925 0
M  V30 1213 C 122.341 1.73971 -3.15287 0
M  V30 1214 C 122.194 0.85485 -4.41602 0
M  V30 1215 C 123.513 2.71296 -3.46535 0
M  V30 1216 H 120.632 0.333261 -0.657348 0
M  V30 1217 H 123.274 0.188198 -1.89066 0
M  V30 1218 H 121.424 2.36416 -3.08285 0
M  V30 1219 H 123.096 0.245362 -4.60647 0
M  V30 1220 H 121.339 0.161398 -4.335 0
M  V30 1221 H 122.01 1.46286 -5.32264 0
M  V30 1222 H 124.486 2.18983 -3.53816 0
M  V30 1223 H 123.362 3.2569 -4.41834 0
M  V30 1224 H 123.623 3.5018 -2.69864 0
M  V30 1225 N 122.682 1.50554 0.465978 0
M  V30 1226 C 123.592 1.72585 1.58907 0
M  V30 1227 C 124.608 0.60911 1.6299 0
M  V30 1228 O 125.784 0.88804 1.80765 0
M  V30 1229 C 122.849 1.81995 2.95091 0
M  V30 1230 C 121.91 3.05751 3.01355 0
M  V30 1231 C 121.143 3.14702 4.31043 0
M  V30 1232 O 121.366 2.30313 5.21835 0
M  V30 1233 O 120.3 4.07468 4.43005 0
M  V30 1234 H 124.126 2.67799 1.43239 0
M  V30 1235 H 121.711 1.34711 0.646013 0
M  V30 1236 H 123.593 1.90335 3.75966 0
M  V30 1237 H 122.268 0.899659 3.10947 0
M  V30 1238 H 121.175 3.02908 2.19539 0
M  V30 1239 H 122.508 3.97375 2.90437 0
M  V30 1240 N 124.16 -0.719506 1.40217 0
M  V30 1241 C 125.388 -1.50864 1.41589 0
M  V30 1242 C 125.803 -1.88794 0.0145275 0
M  V30 1243 O 125.16 -1.55174 -0.960594 0
M  V30 1244 C 125.211 -2.78646 2.30302 0
M  V30 1245 O 124.932 -2.42321 3.64983 0
M  V30 1246 C 126.433 -3.72569 2.40224 0
M  V30 1247 H 123.653 -0.465709 0.48307 0
M  V30 1248 H 126.197 -0.88785 1.84221 0
M  V30 1249 H 124.352 -3.37019 1.91042 0
M  V30 1250 H 124.766 -3.24514 4.12057 0
M  V30 1251 H 126.24 -4.5908 3.06512 0
M  V30 1252 H 126.717 -4.15403 1.42608 0
M  V30 1253 H 127.323 -3.20109 2.80019 0
M  V30 1254 N 125.638 -1.25649 -0.95132 0
M  V30 1255 C 127.054 -1.02542 -1.223 0
M  V30 1256 C 127.254 0.255715 -1.99871 0
M  V30 1257 O 126.31 0.967558 -2.33226 0
M  V30 1258 C 127.623 -2.25065 -1.99415 0
M  V30 1259 C 129.171 -2.29861 -2.12446 0
M  V30 1260 C 129.646 -3.52048 -2.92961 0
M  V30 1261 N 131.137 -3.52465 -3.00538 0
M  V30 1262 C 131.872 -4.43672 -3.63239 0
M  V30 1263 N 131.368 -5.45157 -4.27523 0
M  V30 1264 N 133.161 -4.31346 -3.60412 0
M  V30 1265 H 125.312 -2.07951 -0.432471 0
M  V30 1266 H 127.575 -0.91339 -0.253816 0
M  V30 1267 H 127.281 -3.18194 -1.49817 0
M  V30 1268 H 127.155 -2.28502 -3.00111 0
M  V30 1269 H 129.542 -1.37252 -2.61239 0
M  V30 1270 H 129.623 -2.3044 -1.11044 0
M  V30 1271 H 129.267 -4.44981 -2.44856 0
M  V30 1272 H 129.197 -3.48715 -3.94596 0
M  V30 1273 H 131.688 -2.79056 -2.54826 0
M  V30 1274 H 132.001 -6.10958 -4.73234 0
M  V30 1275 H 130.346 -5.49025 -4.26141 0
M  V30 1276 H 133.537 -3.51288 -3.09377 0
M  V30 1277 H 133.71 -5.02624 -4.0899 0
M  V30 1278 N 127.117 1.15442 -1.07289 0
M  V30 1279 C 128.365 1.85845 -0.794096 0
M  V30 1280 C 128.686 1.82692 0.681809 0
M  V30 1281 O 127.956 1.26741 1.49377 0
M  V30 1282 H 126.536 0.688089 -0.290763 0
M  V30 1283 H 129.198 1.39947 -1.3565 0
M  V30 1284 H 128.294 2.91001 -1.12804 0
M  V30 1285 N 128.595 0.856903 1.32268 0
M  V30 1286 C 129.823 0.475439 2.01363 0
M  V30 1287 C 130.238 -0.928486 1.64392 0
M  V30 1288 O 129.595 -1.60624 0.866387 0
M  V30 1289 C 129.646 0.607545 3.56358 0
M  V30 1290 O 129.367 1.95617 3.92002 0
M  V30 1291 C 130.868 0.225382 4.42727 0
M  V30 1292 H 128.088 0.186636 0.644521 0
M  V30 1293 H 130.632 1.15446 1.68797 0
M  V30 1294 H 128.787 -0.0237719 3.87393 0
M  V30 1295 H 129.201 1.95455 4.86721 0
M  V30 1296 H 130.675 0.368813 5.50767 0
M  V30 1297 H 131.152 -0.834369 4.31202 0
M  V30 1298 H 131.758 0.831864 4.17085 0
M  V30 1299 N 130.073 -1.45103 0.615059 0
M  V30 1300 C 131.036 -2.29025 -0.0895485 0
M  V30 1301 C 132.036 -1.40174 -0.787906 0
M  V30 1302 O 133.226 -1.62217 -0.634933 0
M  V30 1303 C 130.358 -3.21376 -1.13711 0
M  V30 1304 H 131.551 -2.92807 0.648382 0
M  V30 1305 H 129.104 -1.51749 0.374444 0
M  V30 1306 H 129.839 -2.6241 -1.90556 0
M  V30 1307 H 129.624 -3.86834 -0.640475 0
M  V30 1308 H 131.114 -3.84459 -1.63036 0
M  V30 1309 N 131.551 -0.354651 -1.53558 0
M  V30 1310 C 132.967 -0.00315426 -1.596 0
M  V30 1311 C 133.167 1.47741 -1.37021 0
M  V30 1312 O 132.223 2.23759 -1.16996 0
M  V30 1313 C 133.536 -0.44929 -2.97325 0
M  V30 1314 C 135.084 -0.402578 -3.104 0
M  V30 1315 C 135.559 -0.824355 -4.5052 0
M  V30 1316 N 137.05 -0.778979 -4.56603 0
M  V30 1317 C 137.785 -1.07715 -5.63192 0
M  V30 1318 N 137.281 -1.44405 -6.77583 0
M  V30 1319 N 139.074 -1.00066 -5.53121 0
M  V30 1320 H 131.225 -1.31893 -1.66487 0
M  V30 1321 H 133.488 -0.538388 -0.780284 0
M  V30 1322 H 133.194 -1.48202 -3.1895 0
M  V30 1323 H 133.068 0.169772 -3.76818 0
M  V30 1324 H 135.455 0.621004 -2.88492 0
M  V30 1325 H 135.536 -1.05699 -2.32941 0
M  V30 1326 H 135.18 -1.846 -4.73165 0
M  V30 1327 H 135.11 -0.147304 -5.26394 0
M  V30 1328 H 137.601 -0.508528 -3.74463 0
M  V30 1329 H 137.914 -1.65612 -7.54846 0
M  V30 1330 H 136.259 -1.4826 -6.79002 0
M  V30 1331 H 139.45 -0.713293 -4.62633 0
M  V30 1332 H 139.623 -1.23638 -6.36096 0
M  V30 1333 N 133.029 1.57378 -0.0835403 0
M  V30 1334 C 134.277 1.93547 0.581718 0
M  V30 1335 C 134.598 0.96524 1.69435 0
M  V30 1336 O 133.868 0.0153369 1.95894 0
M  V30 1337 H 132.448 0.714521 0.217874 0
M  V30 1338 H 135.11 1.94366 -0.144158 0
M  V30 1339 H 134.206 2.95665 0.999423 0
M  V30 1340 N 134.507 -0.190092 1.56449 0
M  V30 1341 C 135.754 -0.909705 1.80916 0
M  V30 1342 C 136.082 -1.83047 0.657583 0
M  V30 1343 O 135.337 -1.92428 -0.356356 0
M  V30 1344 C 135.636 -1.75382 3.1141 0
M  V30 1345 C 135.302 -0.983606 4.40041 0
M  V30 1346 C 133.964 -0.770967 4.74984 0
M  V30 1347 C 136.316 -0.442024 5.19322 0
M  V30 1348 C 133.644 -0.0053448 5.867 0
M  V30 1349 C 135.996 0.310412 6.31838 0
M  V30 1350 C 134.66 0.534023 6.6536 0
M  V30 1351 H 133.93 -0.332885 0.662019 0
M  V30 1352 H 136.577 -0.175762 1.90692 0
M  V30 1353 H 134.882 -2.55659 2.96893 0
M  V30 1354 H 136.579 -2.31331 3.27547 0
M  V30 1355 H 133.169 -1.15936 4.12622 0
M  V30 1356 H 137.353 -0.593693 4.92736 0
M  V30 1357 H 132.609 0.177825 6.11141 0
M  V30 1358 H 136.783 0.737419 6.92485 0
M  V30 1359 H 134.41 1.12918 7.51767 0
M  V30 1360 N 135.985 -1.50799 -0.457987 0
M  V30 1361 C 136.917 -1.66786 -1.57211 0
M  V30 1362 C 137.93 -0.548962 -1.53265 0
M  V30 1363 O 139.119 -0.8226 -1.58416 0
M  V30 1364 C 136.219 -1.64834 -2.96113 0
M  V30 1365 C 135.392 -2.92971 -3.24787 0
M  V30 1366 C 134.451 -2.83485 -4.43309 0
M  V30 1367 O 133.477 -3.5744 -4.42973 0
M  V30 1368 N 134.679 -1.97929 -5.45714 0
M  V30 1369 H 137.444 -2.62889 -1.43909 0
M  V30 1370 H 135.005 -1.48427 -0.646617 0
M  V30 1371 H 136.997 -1.56084 -3.7339 0
M  V30 1372 H 135.567 -0.764118 -3.03117 0
M  V30 1373 H 134.787 -3.15749 -2.36 0
M  V30 1374 H 136.075 -3.77834 -3.40762 0
M  V30 1375 H 135.473 -1.37182 -5.48815 0
M  V30 1376 H 134.03 -1.95073 -6.21924 0
M  V30 1377 N 137.463 0.71206 -1.40597 0
M  V30 1378 C 138.874 1.29135 -1.34837 0
M  V30 1379 C 139.225 1.96186 -0.0235395 0
M  V30 1380 O 138.35 1.97768 0.878444 0
M  V30 1381 C 138.945 2.34827 -2.44217 0
M  V30 1382 C 137.504 2.88371 -2.41907 0
M  V30 1383 C 136.651 1.62202 -2.24913 0
M  V30 1384 H 139.602 0.507944 -1.50352 0
M  V30 1385 H 139.623 3.15749 -2.12327 0
M  V30 1386 H 139.135 1.85996 -3.40627 0
M  V30 1387 H 137.236 3.41422 -1.49204 0
M  V30 1388 H 137.349 3.39925 -3.37621 0
M  V30 1389 H 135.713 1.874 -1.72492 0
M  V30 1390 H 136.496 1.15391 -3.23326 0
M  V30 1391 N 138.941 1.26152 0.944643 0
M  V30 1392 C 140.352 1.10454 1.50522 0
M  V30 1393 C 140.703 -0.31635 1.93633 0
M  V30 1394 O 139.828 -1.20746 1.79581 0
M  V30 1395 C 140.423 1.99891 2.73549 0
M  V30 1396 C 138.982 1.88348 3.25886 0
M  V30 1397 C 138.129 1.93447 1.9868 0
M  V30 1398 H 141.08 1.39292 0.760489 0
M  V30 1399 H 141.101 1.54477 3.47732 0
M  V30 1400 H 140.613 3.03297 2.42141 0
M  V30 1401 H 138.714 0.878636 3.62092 0
M  V30 1402 H 138.827 2.73696 3.93227 0
M  V30 1403 H 137.191 1.37456 2.14425 0
M  V30 1404 H 137.974 2.98476 1.69607 0
M  V30 1405 N 140.419 -1.14872 1.07899 0
M  V30 1406 C 141.329 -2.2341 0.715915 0
M  V30 1407 C 142.345 -1.71808 -0.275306 0
M  V30 1408 O 143.521 -2.01039 -0.120545 0
M  V30 1409 C 140.586 -3.46474 0.125168 0
M  V30 1410 C 139.647 -4.13039 1.17034 0
M  V30 1411 C 138.88 -5.30229 0.607688 0
M  V30 1412 O 139.103 -5.675 -0.574497 0
M  V30 1413 O 138.037 -5.86444 1.35526 0
M  V30 1414 H 141.863 -2.56808 1.62121 0
M  V30 1415 H 139.448 -1.22702 0.852322 0
M  V30 1416 H 141.33 -4.20917 -0.201729 0
M  V30 1417 H 140.005 -3.14811 -0.753364 0
M  V30 1418 H 138.912 -3.40493 1.54968 0
M  V30 1419 H 140.245 -4.48796 2.02097 0
M  V30 1420 N 141.898 -0.863906 -1.31812 0
M  V30 1421 C 143.146 -0.470904 -1.96537 0
M  V30 1422 C 143.467 0.978771 -1.68657 0
M  V30 1423 O 142.737 1.6853 -0.998717 0
M  V30 1424 H 141.317 -0.171148 -0.72713 0
M  V30 1425 H 143.979 -1.10236 -1.60729 0
M  V30 1426 H 143.075 -0.623616 -3.05806 0
M  V30 1427 N 143.376 1.44774 -0.622745 0
M  V30 1428 C 144.624 2.01721 -0.123655 0
M  V30 1429 C 144.945 1.49172 1.25589 0
M  V30 1430 O 144.215 0.691974 1.83272 0
M  V30 1431 H 142.795 0.745777 -0.0427225 0
M  V30 1432 H 145.457 1.77382 -0.807559 0
M  V30 1433 H 144.553 3.11984 -0.0849534 0
M  V30 1434 N 144.854 0.36279 1.53368 0
M  V30 1435 C 146.101 -0.227776 2.01215 0
M  V30 1436 C 146.429 -1.49003 1.25014 0
M  V30 1437 O 145.684 -1.92876 0.331236 0
M  V30 1438 C 145.983 -0.568417 3.52851 0
M  V30 1439 C 145.649 0.59918 4.46901 0
M  V30 1440 C 144.311 0.919559 4.72332 0
M  V30 1441 C 146.663 1.38156 5.02556 0
M  V30 1442 C 143.991 2.02434 5.5067 0
M  V30 1443 C 146.343 2.47674 5.821 0
M  V30 1444 C 145.007 2.8025 6.05819 0
M  V30 1445 H 144.277 -0.083349 0.736297 0
M  V30 1446 H 146.924 0.494677 1.85001 0
M  V30 1447 H 145.229 -1.37185 3.66998 0
M  V30 1448 H 146.926 -1.03756 3.87344 0
M  V30 1449 H 143.516 0.339437 4.27254 0
M  V30 1450 H 147.7 1.14729 4.82857 0
M  V30 1451 H 142.956 2.28075 5.67267 0
M  V30 1452 H 147.13 3.08716 6.24234 0
M  V30 1453 H 144.757 3.65979 6.66306 0
M  V30 1454 N 146.332 -1.57332 0.0918853 0
M  V30 1455 C 147.58 -1.93853 -0.571446 0
M  V30 1456 C 147.901 -0.974212 -1.6892 0
M  V30 1457 O 147.171 -0.0257254 -1.95883 0
M  V30 1458 H 145.751 -0.715666 -0.214082 0
M  V30 1459 H 148.413 -1.94287 0.154464 0
M  V30 1460 H 147.509 -2.96191 -0.983729 0
M  V30 1461 N 147.81 0.181792 -1.56548 0
M  V30 1462 C 149.056 0.896803 -1.82562 0
M  V30 1463 C 149.411 1.80324 -0.670908 0
M  V30 1464 O 148.704 1.8868 0.333235 0
M  V30 1465 C 148.898 1.73728 -3.12335 0
M  V30 1466 C 148.727 0.913714 -4.4032 0
M  V30 1467 C 147.497 0.592903 -5.01809 0
M  V30 1468 C 149.695 0.260164 -5.13642 0
M  V30 1469 N 147.677 -0.247901 -6.13399 0
M  V30 1470 C 149.048 -0.442256 -6.18421 0
M  V30 1471 C 151.103 0.177253 -4.97584 0
M  V30 1472 C 149.806 -1.21971 -7.08883 0
M  V30 1473 C 151.832 -0.586839 -5.88481 0
M  V30 1474 C 151.194 -1.27766 -6.92716 0
M  V30 1475 H 147.293 0.307122 -0.719166 0
M  V30 1476 H 149.877 0.164535 -1.94004 0
M  V30 1477 H 148.048 2.44105 -3.02105 0
M  V30 1478 H 149.78 2.39279 -3.26386 0
M  V30 1479 H 146.535 0.920502 -4.64568 0
M  V30 1480 H 146.959 -0.658304 -6.73792 0
M  V30 1481 H 151.601 0.696993 -4.17015 0
M  V30 1482 H 149.319 -1.75083 -7.88905 0
M  V30 1483 H 152.905 -0.652522 -5.78129 0
M  V30 1484 H 151.785 -1.85943 -7.61836 0
M  V30 1485 N 149.288 1.51039 0.449983 0
M  V30 1486 C 150.534 1.63322 1.20223 0
M  V30 1487 C 150.867 0.34241 1.91158 0
M  V30 1488 O 150.142 -0.657344 1.83055 0
M  V30 1489 C 150.425 2.82801 2.22925 0
M  V30 1490 C 150.278 4.21823 1.56157 0
M  V30 1491 C 151.597 2.97807 3.24035 0
M  V30 1492 H 148.716 0.594407 0.435718 0
M  V30 1493 H 151.358 1.83489 0.493136 0
M  V30 1494 H 149.508 2.65738 2.834 0
M  V30 1495 H 151.18 4.50526 0.991162 0
M  V30 1496 H 149.423 4.25105 0.864172 0
M  V30 1497 H 150.094 5.01391 2.30891 0
M  V30 1498 H 152.57 3.13497 2.73603 0
M  V30 1499 H 151.446 3.82992 3.93202 0
M  V30 1500 H 151.707 2.09328 3.89402 0
M  V30 1501 N 150.766 -0.704594 1.40972 0
M  V30 1502 C 152.012 -1.46675 1.40051 0
M  V30 1503 C 152.345 -1.94199 0.00641102 0
M  V30 1504 O 151.62 -1.68916 -0.964235 0
M  V30 1505 C 151.903 -2.68505 2.39952 0
M  V30 1506 C 151.756 -2.26805 3.88432 0
M  V30 1507 C 153.075 -3.70686 2.37233 0
M  V30 1508 H 150.194 -0.532015 0.510028 0
M  V30 1509 H 152.836 -0.803255 1.72185 0
M  V30 1510 H 150.986 -3.25114 2.1268 0
M  V30 1511 H 152.658 -1.75592 4.26574 0
M  V30 1512 H 150.901 -1.58685 4.03734 0
M  V30 1513 H 151.572 -3.14181 4.53866 0
M  V30 1514 H 154.048 -3.23731 2.61415 0
M  V30 1515 H 152.924 -4.53553 3.09162 0
M  V30 1516 H 153.185 -4.19754 1.38777 0
M  V30 1517 N 152.244 -1.26651 -0.937939 0
M  V30 1518 C 153.49 -1.12553 -1.687 0
M  V30 1519 C 153.823 0.329782 -1.91379 0
M  V30 1520 O 153.098 1.24202 -1.4968 0
M  V30 1521 C 153.381 -1.89862 -3.05981 0
M  V30 1522 C 153.234 -3.43318 -2.90607 0
M  V30 1523 C 154.553 -1.69499 -4.0615 0
M  V30 1524 H 151.672 -0.410257 -0.612257 0
M  V30 1525 H 154.314 -1.55685 -1.08913 0
M  V30 1526 H 152.464 -1.53204 -3.57017 0
M  V30 1527 H 154.136 -3.89747 -2.46769 0
M  V30 1528 H 152.379 -3.70179 -2.26164 0
M  V30 1529 H 153.05 -3.92642 -3.8799 0
M  V30 1530 H 155.526 -2.01442 -3.64088 0
M  V30 1531 H 154.402 -2.26002 -5.00214 0
M  V30 1532 H 154.663 -0.640365 -4.37438 0
M  V30 1533 N 153.722 1.14298 -1.08507 0
M  V30 1534 C 154.969 1.85359 -0.815373 0
M  V30 1535 C 155.297 1.83001 0.658865 0
M  V30 1536 O 154.552 1.25655 1.50031 0
M  V30 1537 C 154.851 3.33547 -1.28379 0
M  V30 1538 C 154.517 3.56093 -2.76602 0
M  V30 1539 C 153.179 3.61955 -3.17084 0
M  V30 1540 C 155.531 3.64834 -3.72217 0
M  V30 1541 C 152.859 3.74082 -4.51973 0
M  V30 1542 C 155.211 3.78487 -5.06883 0
M  V30 1543 C 153.875 3.82598 -5.46969 0
M  V30 1544 H 153.145 0.678276 -0.298366 0
M  V30 1545 H 155.792 1.35002 -1.35819 0
M  V30 1546 H 154.097 3.86191 -0.660593 0
M  V30 1547 H 155.794 3.86959 -1.05186 0
M  V30 1548 H 152.384 3.52179 -2.4427 0
M  V30 1549 H 156.568 3.59595 -3.42061 0
M  V30 1550 H 151.824 3.75527 -4.82483 0
M  V30 1551 H 155.998 3.84193 -5.80834 0
M  V30 1552 H 153.625 3.91747 -6.51489 0
M  V30 1553 N 155.201 0.870884 1.31352 0
M  V30 1554 C 156.164 0.332243 2.26779 0
M  V30 1555 C 157.164 -0.517302 1.52252 0
M  V30 1556 O 158.354 -0.326477 1.71113 0
M  V30 1557 C 155.486 -0.528066 3.36785 0
M  V30 1558 H 156.679 1.17469 2.75937 0
M  V30 1559 H 154.232 0.64655 1.423 0
M  V30 1560 H 154.967 -1.39167 2.92922 0
M  V30 1561 H 154.752 0.0802582 3.92018 0
M  V30 1562 H 156.242 -0.897179 4.07849 0
M  V30 1563 N 156.679 -1.44442 0.630414 0
M  V30 1564 C 157.642 -2.29107 -0.0652523 0
M  V30 1565 C 158.642 -1.41002 -0.772995 0
M  V30 1566 O 159.832 -1.62881 -0.617692 0
M  V30 1567 C 156.964 -3.22564 -1.10296 0
M  V30 1568 H 158.157 -2.92103 0.679401 0
M  V30 1569 H 155.71 -1.51343 0.390517 0
M  V30 1570 H 156.445 -2.64416 -1.87762 0
M  V30 1571 H 156.23 -3.87491 -0.59941 0
M  V30 1572 H 157.72 -3.86167 -1.5895 0
M  V30 1573 N 158.157 -0.370918 -1.53173 0
M  V30 1574 C 159.385 0.217704 -2.05751 0
M  V30 1575 C 159.8 1.42018 -1.24404 0
M  V30 1576 O 159.157 1.80245 -0.286033 0
M  V30 1577 C 159.208 0.605954 -3.56385 0
M  V30 1578 O 158.929 -0.548734 -4.3465 0
M  V30 1579 C 160.43 1.2524 -4.25241 0
M  V30 1580 H 157.65 0.0371659 -0.66997 0
M  V30 1581 H 160.194 -0.530832 -1.9749 0
M  V30 1582 H 158.349 1.3044 -3.6478 0
M  V30 1583 H 158.763 -0.23376 -5.23979 0
M  V30 1584 H 160.237 1.47458 -5.3194 0
M  V30 1585 H 160.714 2.2143 -3.79296 0
M  V30 1586 H 161.32 0.595233 -4.21114 0
M  V30 1587 N 159.635 1.57281 -0.100228 0
M  V30 1588 C 160.881 1.95626 0.556946 0
M  V30 1589 C 161.236 0.981655 1.65473 0
M  V30 1590 O 160.529 0.00849847 1.91598 0
M  V30 1591 C 160.723 3.38305 1.15259 0
M  V30 1592 C 160.552 4.49555 0.114035 0
M  V30 1593 C 159.322 5.0434 -0.311266 0
M  V30 1594 C 161.52 5.10051 -0.659768 0
M  V30 1595 N 159.502 5.99152 -1.33755 0
M  V30 1596 C 160.873 6.00628 -1.53774 0
M  V30 1597 C 162.928 4.92772 -0.712723 0
M  V30 1598 C 161.631 6.7578 -2.46403 0
M  V30 1599 C 163.657 5.6859 -1.62663 0
M  V30 1600 C 163.019 6.58838 -2.49222 0
M  V30 1601 H 159.118 0.7624 0.173982 0
M  V30 1602 H 161.702 1.93829 -0.183988 0
M  V30 1603 H 159.873 3.40786 1.86332 0
M  V30 1604 H 161.605 3.63817 1.77254 0
M  V30 1605 H 158.36 4.73537 0.0774812 0
M  V30 1606 H 158.784 6.5126 -1.84905 0
M  V30 1607 H 163.426 4.22761 -0.0576648 0
M  V30 1608 H 161.144 7.4505 -3.12931 0
M  V30 1609 H 164.73 5.57233 -1.67281 0
M  V30 1610 H 163.61 7.16479 -3.18791 0
M  V30 1611 N 161.113 -0.173488 1.56642 0
M  V30 1612 C 162.353 -0.896984 1.83667 0
M  V30 1613 C 162.717 -1.79523 0.680842 0
M  V30 1614 O 163.918 -2.55616 0.831488 0
M  V30 1615 C 162.189 -1.67351 3.15798 0
M  V30 1616 S 163.748 -2.44607 3.64298 0
M  V30 1617 H 160.566 -0.300464 0.644393 0
M  V30 1618 H 163.168 -0.158775 1.94854 0
M  V30 1619 H 161.872 -1.00462 3.97914 0
M  V30 1620 H 161.403 -2.45313 3.07546 0
M  V30 1621 H 163.418 -3.69261 3.31452 0
M  V30 1622 N 162.591 -1.51276 -0.441967 0
M  V30 1623 C 163.539 -1.72823 -1.55676 0
M  V30 1624 C 164.533 -0.59445 -1.58627 0
M  V30 1625 O 165.739 -0.775715 -1.62427 0
M  V30 1626 H 162.114 -0.545983 -0.517113 0
M  V30 1627 H 164.085 -2.6628 -1.34675 0
M  V30 1628 C 162.834 -1.86619 -2.93375 0
M  V30 1629 H 162.157 -2.73264 -2.91834 0
M  V30 1630 H 163.597 -2.05709 -3.70756 0
M  V30 1631 C 162.056 -0.624842 -3.31055 0
M  V30 1632 O 162.586 0.222636 -4.01083 0
M  V30 1633 N 160.792 -0.470288 -2.86769 0
M  V30 1634 H 160.339 -1.161 -2.29953 0
M  V30 1635 H 160.297 0.359051 -3.12343 0
M  V30 1636 N 164.069 0.697108 -1.41344 0
M  V30 1637 C 165.317 1.45426 -1.40341 0
M  V30 1638 C 165.638 1.94996 -0.0128787 0
M  V30 1639 O 164.908 1.71599 0.945027 0
M  V30 1640 H 163.488 0.539594 -0.516573 0
M  V30 1641 H 166.15 0.825201 -1.76569 0
M  V30 1642 H 165.246 2.31817 -2.08967 0
M  V30 1643 N 165.547 1.27147 0.931209 0
M  V30 1644 C 166.772 1.16191 1.71797 0
M  V30 1645 C 167.197 -0.278004 1.86034 0
M  V30 1646 O 166.555 -1.20137 1.35782 0
M  V30 1647 C 166.603 1.84673 3.09723 0
M  V30 1648 O 165.707 1.14231 3.96264 0
M  V30 1649 H 165.048 0.404303 0.526721 0
M  V30 1650 H 167.578 1.68152 1.1656 0
M  V30 1651 H 167.588 1.91893 3.60057 0
M  V30 1652 H 166.263 2.89421 2.98677 0
M  V30 1653 H 164.84 1.15056 3.54706 0
M  V30 1654 N 167.025 -1.13721 1.09112 0
M  V30 1655 C 168.274 -1.84275 0.82009 0
M  V30 1656 C 168.587 -1.84253 -0.656509 0
M  V30 1657 O 169.793 -2.50668 -1.04296 0
M  V30 1658 C 168.249 -3.30825 1.41714 0
M  V30 1659 C 167.857 -3.39244 2.92605 0
M  V30 1660 C 169.601 -4.06443 1.22492 0
M  V30 1661 C 167.508 -4.80047 3.45411 0
M  V30 1662 H 166.438 -0.690387 0.30312 0
M  V30 1663 H 169.089 -1.28146 1.31343 0
M  V30 1664 H 167.471 -3.86737 0.851498 0
M  V30 1665 H 168.645 -2.93344 3.55367 0
M  V30 1666 H 166.96 -2.77088 3.10823 0
M  V30 1667 H 169.557 -5.10387 1.59402 0
M  V30 1668 H 169.9 -4.15972 0.165299 0
M  V30 1669 H 170.433 -3.56852 1.75788 0
M  V30 1670 H 167.172 -4.75709 4.50978 0
M  V30 1671 H 166.692 -5.26455 2.87411 0
M  V30 1672 H 168.371 -5.48957 3.42425 0
M  V30 1673 N 168.503 -0.877838 -1.30888 0
M  V30 1674 C 169.75 -0.492696 -1.96415 0
M  V30 1675 C 170.078 0.956671 -1.69346 0
M  V30 1676 O 169.333 1.68993 -0.986913 0
M  V30 1677 C 169.632 -0.705748 -3.50363 0
M  V30 1678 C 169.298 -2.1291 -3.97467 0
M  V30 1679 C 167.96 -2.51834 -4.1004 0
M  V30 1680 C 170.312 -3.05702 -4.22132 0
M  V30 1681 C 167.64 -3.82775 -4.44635 0
M  V30 1682 C 169.992 -4.36166 -4.58194 0
M  V30 1683 C 168.656 -4.74993 -4.68975 0
M  V30 1684 H 167.926 -0.18029 -0.718733 0
M  V30 1685 H 170.573 -1.11233 -1.55883 0
M  V30 1686 H 168.878 -0.00303058 -3.918 0
M  V30 1687 H 170.575 -0.387456 -3.99124 0
M  V30 1688 H 167.165 -1.81694 -3.88182 0
M  V30 1689 H 171.349 -2.76853 -4.11906 0
M  V30 1690 H 166.605 -4.12609 -4.51181 0
M  V30 1691 H 170.779 -5.08111 -4.76231 0
M  V30 1692 H 168.406 -5.76495 -4.95537 0
M  V30 1693 N 169.982 1.44106 -0.638065 0
M  V30 1694 C 171.23 2.01579 -0.145043 0
M  V30 1695 C 171.551 1.50496 1.24 0
M  V30 1696 O 170.821 0.711374 1.82527 0
M  V30 1697 H 169.401 0.745282 -0.05063 0
M  V30 1698 H 172.063 1.76516 -0.826327 0
M  V30 1699 H 171.159 3.11877 -0.118039 0
M  V30 1700 N 171.46 0.379036 1.52974 0
M  V30 1701 C 172.709 -0.207612 2.00629 0
M  V30 1702 C 173.022 -1.48758 1.27006 0
M  V30 1703 O 174.228 -2.15365 1.65318 0
M  V30 1704 C 172.684 -0.42053 3.57435 0
M  V30 1705 C 172.292 0.845587 4.39948 0
M  V30 1706 C 174.036 -0.964102 4.13407 0
M  V30 1707 C 171.943 0.601513 5.88333 0
M  V30 1708 H 170.873 -0.0813591 0.749598 0
M  V30 1709 H 173.524 0.499853 1.76561 0
M  V30 1710 H 171.906 -1.18959 3.7771 0
M  V30 1711 H 173.08 1.61848 4.31442 0
M  V30 1712 H 171.395 1.31336 3.95145 0
M  V30 1713 H 173.992 -1.16225 5.21916 0
M  V30 1714 H 174.335 -1.93019 3.68849 0
M  V30 1715 H 174.868 -0.25487 3.96983 0
M  V30 1716 H 171.607 1.53831 6.37194 0
M  V30 1717 H 171.127 -0.132628 5.99653 0
M  V30 1718 H 172.806 0.232134 6.46583 0
M  V30 1719 N 172.938 -1.57226 0.108567 0
M  V30 1720 C 173.888 -2.11305 -0.856396 0
M  V30 1721 C 174.872 -1.03129 -1.23504 0
M  V30 1722 O 176.064 -1.29381 -1.20787 0
M  V30 1723 C 173.193 -2.70771 -2.11041 0
M  V30 1724 C 172.279 -3.86011 -1.7566 0
M  V30 1725 N 172.67 -4.93492 -1.10902 0
M  V30 1726 C 170.968 -3.95999 -2.05185 0
M  V30 1727 C 171.669 -5.73984 -0.944308 0
M  V30 1728 N 170.645 -5.2346 -1.46596 0
M  V30 1729 H 174.447 -2.91784 -0.352002 0
M  V30 1730 H 171.961 -1.62126 -0.0942324 0
M  V30 1731 H 173.958 -3.07851 -2.81128 0
M  V30 1732 H 172.618 -1.91751 -2.62034 0
M  V30 1733 H 173.629 -5.1208 -0.774235 0
M  V30 1734 H 170.306 -3.28007 -2.58298 0
M  V30 1735 H 171.696 -6.70479 -0.436813 0
M  V30 1736 N 174.416 0.165178 -1.56732 0
M  V30 1737 C 175.364 1.22369 -1.97809 0
M  V30 1738 C 176.358 1.45488 -0.867741 0
M  V30 1739 O 177.564 1.45995 -1.05288 0
M  V30 1740 H 173.939 0.411486 -0.629431 0
M  V30 1741 H 175.91 0.850425 -2.86025 0
M  V30 1742 C 174.659 2.55403 -2.35934 0
M  V30 1743 H 173.982 2.38438 -3.20916 0
M  V30 1744 H 175.422 3.2814 -2.68514 0
M  V30 1745 C 173.881 3.14611 -1.20506 0
M  V30 1746 O 174.411 3.98626 -0.496016 0
M  V30 1747 N 172.617 2.7379 -0.97403 0
M  V30 1748 H 172.164 2.0557 -1.55238 0
M  V30 1749 H 172.122 3.1374 -0.203573 0
M  V30 1750 N 175.894 1.51508 0.433938 0
M  V30 1751 C 177.119 1.68443 1.21003 0
M  V30 1752 C 177.544 0.382636 1.84167 0
M  V30 1753 O 176.902 -0.65755 1.68956 0
M  V30 1754 C 176.95 2.80405 2.26727 0
M  V30 1755 O 176.054 2.44245 3.32292 0
M  V30 1756 H 175.395 0.561536 0.354363 0
M  V30 1757 H 177.925 1.9809 0.512024 0
M  V30 1758 H 177.935 3.0459 2.71457 0
M  V30 1759 H 176.61 3.74867 1.80132 0
M  V30 1760 H 175.187 2.30644 2.93015 0
M  V30 1761 N 177.372 -0.689602 1.41712 0
M  V30 1762 C 178.618 -1.45181 1.41599 0
M  V30 1763 C 178.951 -1.94181 0.0270081 0
M  V30 1764 O 178.226 -1.6993 -0.946265 0
M  V30 1765 C 178.509 -2.65945 2.42787 0
M  V30 1766 C 178.362 -2.22672 3.90816 0
M  V30 1767 C 179.681 -3.68149 2.41151 0
M  V30 1768 H 176.8 -0.526576 0.515642 0
M  V30 1769 H 179.442 -0.784947 1.73028 0
M  V30 1770 H 177.592 -3.2284 2.16116 0
M  V30 1771 H 179.264 -1.71058 4.28412 0
M  V30 1772 H 177.507 -1.54394 4.05395 0
M  V30 1773 H 178.178 -3.0935 4.57172 0
M  V30 1774 H 180.654 -3.2094 2.64834 0
M  V30 1775 H 179.53 -4.50248 3.13955 0
M  V30 1776 H 179.791 -4.18259 1.43221 0
M  V30 1777 N 178.85 -1.27639 -0.924453 0
M  V30 1778 C 180.098 -1.13941 -1.66918 0
M  V30 1779 C 180.419 0.314589 -1.92446 0
M  V30 1780 O 179.689 1.21964 -1.53303 0
M  V30 1781 H 178.269 -0.418678 -0.618642 0
M  V30 1782 H 180.931 -1.60213 -1.10985 0
M  V30 1783 H 180.027 -1.67094 -2.63602 0
M  V30 1784 N 180.328 1.1314 -1.09713 0
M  V30 1785 C 181.577 1.83838 -0.829851 0
M  V30 1786 C 181.89 1.84599 0.646728 0
M  V30 1787 O 183.096 2.51218 1.02965 0
M  V30 1788 C 181.552 3.30069 -1.43466 0
M  V30 1789 C 181.16 3.37688 -2.94399 0
M  V30 1790 C 182.904 4.05788 -1.24645 0
M  V30 1791 C 180.811 4.78209 -3.47952 0
M  V30 1792 H 179.741 0.68877 -0.306777 0
M  V30 1793 H 182.392 1.27448 -1.3202 0
M  V30 1794 H 180.774 3.8628 -0.871996 0
M  V30 1795 H 181.948 2.91456 -3.56918 0
M  V30 1796 H 180.263 2.75436 -3.12289 0
M  V30 1797 H 182.86 5.09535 -1.62107 0
M  V30 1798 H 183.203 4.15878 -0.187357 0
M  V30 1799 H 183.736 3.55915 -1.77678 0
M  V30 1800 H 180.475 4.73311 -4.53495 0
M  V30 1801 H 179.995 5.24924 -2.90198 0
M  V30 1802 H 181.674 5.47133 -3.45332 0
M  V30 1803 N 181.806 0.884767 1.30421 0
M  V30 1804 C 182.736 0.367574 2.30589 0
M  V30 1805 C 183.717 -0.549464 1.60981 0
M  V30 1806 O 184.902 -0.46336 1.88591 0
M  V30 1807 C 182.032 -0.418944 3.44764 0
M  V30 1808 C 180.986 0.406316 4.26067 0
M  V30 1809 C 180.312 -0.506793 5.32293 0
M  V30 1810 C 181.612 1.64832 4.95608 0
M  V30 1811 H 183.306 1.20462 2.74097 0
M  V30 1812 H 180.852 0.580695 1.31772 0
M  V30 1813 H 182.805 -0.791395 4.13902 0
M  V30 1814 H 181.529 -1.28964 3.0006 0
M  V30 1815 H 180.188 0.760903 3.58617 0
M  V30 1816 H 179.836 -1.37519 4.83836 0
M  V30 1817 H 179.536 0.0415828 5.87585 0
M  V30 1818 H 181.06 -0.875764 6.04287 0
M  V30 1819 H 182.474 1.34646 5.57264 0
M  V30 1820 H 180.871 2.13688 5.60765 0
M  V30 1821 H 181.941 2.39284 4.21748 0
M  V30 1822 N 183.284 -1.43765 0.645699 0
M  V30 1823 C 184.514 -2.05953 0.163318 0
M  V30 1824 C 184.922 -1.48432 -1.17322 0
M  V30 1825 O 184.265 -0.607295 -1.73371 0
M  V30 1826 C 184.327 -3.59499 -0.0103065 0
M  V30 1827 C 183.991 -4.39563 1.25035 0
M  V30 1828 C 184.988 -4.72108 2.17739 0
M  V30 1829 C 182.673 -4.79697 1.48983 0
M  V30 1830 C 184.667 -5.43688 3.3269 0
M  V30 1831 C 182.354 -5.51023 2.64229 0
M  V30 1832 C 183.352 -5.8294 3.55908 0
M  V30 1833 O 183.04 -6.5281 4.69142 0
M  V30 1834 H 182.772 -0.670798 0.0836986 0
M  V30 1835 H 185.326 -1.85384 0.884407 0
M  V30 1836 H 183.556 -3.78613 -0.78669 0
M  V30 1837 H 185.245 -4.03408 -0.449087 0
M  V30 1838 H 186.011 -4.41627 2.00476 0
M  V30 1839 H 181.89 -4.54266 0.785078 0
M  V30 1840 H 185.434 -5.68517 4.04269 0
M  V30 1841 H 181.331 -5.8092 2.81429 0
M  V30 1842 H 182.099 -6.71288 4.6831 0
M  V30 1843 N 184.763 -0.387143 -1.52771 0
M  V30 1844 C 185.988 0.198407 -2.06449 0
M  V30 1845 C 186.413 1.39918 -1.25716 0
M  V30 1846 O 185.771 1.79099 -0.281657 0
M  V30 1847 C 185.819 0.548893 -3.56398 0
M  V30 1848 O 184.923 1.64315 -3.78252 0
M  V30 1849 H 184.264 0.0237731 -0.663574 0
M  V30 1850 H 186.794 -0.553989 -1.96957 0
M  V30 1851 H 186.804 0.813812 -3.99801 0
M  V30 1852 H 185.479 -0.329005 -4.14597 0
M  V30 1853 H 184.056 1.37211 -3.46738 0
M  V30 1854 N 186.241 1.57166 -0.116904 0
M  V30 1855 C 187.174 2.10912 0.871291 0
M  V30 1856 C 188.152 1.025 1.26224 0
M  V30 1857 O 189.336 1.3014 1.36366 0
M  V30 1858 C 186.463 2.6041 2.16574 0
M  V30 1859 C 185.509 3.80687 1.92302 0
M  V30 1860 S 186.342 5.23199 1.14119 0
M  V30 1861 C 187.498 5.76064 2.44748 0
M  V30 1862 H 187.731 2.94401 0.414138 0
M  V30 1863 H 185.264 1.54096 0.096829 0
M  V30 1864 H 187.222 2.89583 2.9095 0
M  V30 1865 H 185.883 1.77106 2.59408 0
M  V30 1866 H 185.076 4.13462 2.8821 0
M  V30 1867 H 184.678 3.5212 1.26047 0
M  V30 1868 H 186.97 5.8566 3.406 0
M  V30 1869 H 187.913 6.74184 2.16521 0
M  V30 1870 H 188.321 5.04117 2.54019 0
M  V30 1871 N 187.719 -0.156864 1.56817 0
M  V30 1872 C 188.649 -1.19589 2.00551 0
M  V30 1873 C 189.63 -1.4536 0.883426 0
M  V30 1874 O 190.815 -1.56449 1.15054 0
M  V30 1875 C 187.945 -2.53143 2.37773 0
M  V30 1876 C 186.899 -2.41913 3.53075 0
M  V30 1877 C 186.225 -3.80088 3.76081 0
M  V30 1878 C 187.525 -1.91157 4.86062 0
M  V30 1879 H 189.219 -0.832293 2.87599 0
M  V30 1880 H 186.765 -0.398918 1.38364 0
M  V30 1881 H 188.718 -3.26047 2.66967 0
M  V30 1882 H 187.442 -2.91319 1.4765 0
M  V30 1883 H 186.101 -1.71462 3.24031 0
M  V30 1884 H 185.749 -4.15683 2.83225 0
M  V30 1885 H 185.449 -3.73439 4.53671 0
M  V30 1886 H 186.973 -4.54556 4.0769 0
M  V30 1887 H 188.387 -2.53846 5.14038 0
M  V30 1888 H 186.784 -1.95422 5.67389 0
M  V30 1889 H 187.854 -0.866673 4.77092 0
M  V30 1890 N 189.197 -1.51736 -0.425897 0
M  V30 1891 C 190.127 -1.76827 -1.52494 0
M  V30 1892 C 191.108 -0.618524 -1.58456 0
M  V30 1893 O 192.293 -0.862416 -1.74 0
M  V30 1894 C 189.423 -1.90374 -2.90474 0
M  V30 1895 C 188.377 -3.0588 -2.99369 0
M  V30 1896 C 187.703 -3.04625 -4.3944 0
M  V30 1897 C 189.003 -4.45644 -2.72394 0
M  V30 1898 H 190.697 -2.68855 -1.31748 0
M  V30 1899 H 188.243 -1.29372 -0.632362 0
M  V30 1900 H 190.196 -2.0651 -3.6733 0
M  V30 1901 H 188.92 -0.95004 -3.12477 0
M  V30 1902 H 187.579 -2.89467 -2.24954 0
M  V30 1903 H 187.227 -2.0701 -4.58428 0
M  V30 1904 H 186.927 -3.82195 -4.46319 0
M  V30 1905 H 188.451 -3.22869 -5.18255 0
M  V30 1906 H 189.865 -4.62348 -3.38979 0
M  V30 1907 H 188.262 -5.25006 -2.9067 0
M  V30 1908 H 189.332 -4.54893 -1.67929 0
M  V30 1909 N 190.675 0.682077 -1.42076 0
M  V30 1910 C 191.585 1.82535 -1.47371 0
M  V30 1911 C 192.601 1.7017 -0.363079 0
M  V30 1912 O 193.777 1.91848 -0.612875 0
M  V30 1913 C 190.842 3.18624 -1.36674 0
M  V30 1914 C 189.903 3.42999 -2.58167 0
M  V30 1915 C 189.136 4.72595 -2.4797 0
M  V30 1916 O 189.359 5.50006 -1.5116 0
M  V30 1917 O 188.293 4.98054 -3.37974 0
M  V30 1918 H 192.119 1.81023 -2.43853 0
M  V30 1919 H 189.704 0.836887 -1.2376 0
M  V30 1920 H 191.586 3.99847 -1.33043 0
M  V30 1921 H 190.261 3.20789 -0.433138 0
M  V30 1922 H 189.168 2.61653 -2.67373 0
M  V30 1923 H 190.501 3.45659 -3.50401 0
M  V30 1924 N 192.153 1.28127 0.917671 0
M  V30 1925 C 193.063 1.13556 2.05286 0
M  V30 1926 C 194.079 0.0630914 1.73886 0
M  V30 1927 O 195.255 0.271598 1.9956 0
M  V30 1928 C 192.32 0.794676 3.3747 0
M  V30 1929 C 191.381 1.94909 3.82504 0
M  V30 1930 C 190.614 1.62437 5.0838 0
M  V30 1931 O 190.837 0.536905 5.67867 0
M  V30 1932 O 189.771 2.46677 5.4903 0
M  V30 1933 H 193.597 2.08844 2.20495 0
M  V30 1934 H 191.182 1.07409 1.03845 0
M  V30 1935 H 193.064 0.618344 4.16839 0
M  V30 1936 H 191.739 -0.128581 3.23445 0
M  V30 1937 H 190.646 2.18055 3.03978 0
M  V30 1938 H 191.979 2.85291 4.01086 0
M  V30 1939 N 193.631 -1.12557 1.10312 0
M  V30 1940 C 194.541 -2.21841 0.763142 0
M  V30 1941 C 195.557 -1.72354 -0.238801 0
M  V30 1942 O 196.733 -2.01249 -0.0778746 0
M  V30 1943 C 193.798 -3.46131 0.198632 0
M  V30 1944 C 192.859 -4.10464 1.25769 0
M  V30 1945 C 192.092 -5.28821 0.72002 0
M  V30 1946 O 192.315 -5.6859 -0.453993 0
M  V30 1947 O 191.249 -5.83437 1.47935 0
M  V30 1948 H 195.075 -2.53312 1.67532 0
M  V30 1949 H 192.66 -1.20867 0.878157 0
M  V30 1950 H 194.542 -4.2125 -0.112401 0
M  V30 1951 H 193.217 -3.16338 -0.686419 0
M  V30 1952 H 192.124 -3.3713 1.62156 0
M  V30 1953 H 193.457 -4.44408 2.11571 0
M  V30 1954 N 195.109 -0.891671 -1.2995 0
M  V30 1955 C 196.056 -0.361736 -2.27948 0
M  V30 1956 C 197.026 0.551761 -1.56668 0
M  V30 1957 O 198.211 0.478736 -1.84696 0
M  V30 1958 C 195.351 0.411825 -3.42634 0
M  V30 1959 C 194.464 -0.531651 -4.28716 0
M  V30 1960 C 193.599 0.258167 -5.30572 0
M  V30 1961 C 192.638 -0.680349 -6.08307 0
M  V30 1962 N 191.775 0.0745613 -7.0206 0
M  V30 1963 H 196.615 -1.20254 -2.72659 0
M  V30 1964 H 194.152 -0.604352 -1.34112 0
M  V30 1965 H 196.11 0.876304 -4.07893 0
M  V30 1966 H 194.74 1.21715 -2.98974 0
M  V30 1967 H 193.792 -1.11463 -3.63703 0
M  V30 1968 H 195.104 -1.25038 -4.82874 0
M  V30 1969 H 194.258 0.784204 -6.0161 0
M  V30 1970 H 192.997 1.01008 -4.77126 0
M  V30 1971 H 192.002 -1.21796 -5.3614 0
M  V30 1972 H 193.227 -1.43145 -6.63842 0
M  V30 1973 H 191.173 0.808883 -6.50994 0
M  V30 1974 H 191.09 -0.584409 -7.53738 0
M  V30 1975 H 192.358 0.581123 -7.77331 0
M  V30 1976 N 196.587 1.43421 -0.653314 0
M  V30 1977 C 197.497 2.34568 0.0388565 0
M  V30 1978 C 198.513 1.53888 0.81207 0
M  V30 1979 O 199.689 1.86539 0.759294 0
M  V30 1980 C 196.754 3.32167 0.993269 0
M  V30 1981 C 195.815 4.28751 0.216977 0
M  V30 1982 C 195.048 5.21688 1.12593 0
M  V30 1983 O 195.271 5.19052 2.36519 0
M  V30 1984 O 194.205 5.98919 0.598284 0
M  V30 1985 H 198.031 2.95251 -0.711386 0
M  V30 1986 H 195.616 1.43564 -0.413502 0
M  V30 1987 H 197.498 3.92183 1.54176 0
M  V30 1988 H 196.173 2.73987 1.72374 0
M  V30 1989 H 195.08 3.72215 -0.375101 0
M  V30 1990 H 196.413 4.89913 -0.473924 0
M  V30 1991 N 198.065 0.39524 1.52563 0
M  V30 1992 C 199.012 -0.437036 2.26624 0
M  V30 1993 C 199.982 -1.05281 1.28472 0
M  V30 1994 O 201.167 -1.07971 1.57311 0
M  V30 1995 C 198.307 -1.55524 3.08069 0
M  V30 1996 C 197.42 -0.961745 4.21158 0
M  V30 1997 C 196.555 -2.05149 4.89987 0
M  V30 1998 C 195.594 -1.4342 5.95061 0
M  V30 1999 N 194.731 -2.46351 6.57462 0
M  V30 2000 H 199.571 0.200976 2.97322 0
M  V30 2001 H 197.108 0.110944 1.46681 0
M  V30 2002 H 199.066 -2.21437 3.53584 0
M  V30 2003 H 197.696 -2.16348 2.3957 0
M  V30 2004 H 196.748 -0.192048 3.79915 0
M  V30 2005 H 198.06 -0.470701 4.96574 0
M  V30 2006 H 197.214 -2.78819 5.38837 0
M  V30 2007 H 195.953 -2.57615 4.14109 0
M  V30 2008 H 194.958 -0.682774 5.45544 0
M  V30 2009 H 196.183 -0.917416 6.72875 0
M  V30 2010 H 194.129 -2.97975 5.8442 0
M  V30 2011 H 194.046 -2.02019 7.28508 0
M  V30 2012 H 195.314 -3.19633 7.10954 0
M  V30 2013 N 199.544 -1.57102 0.125237 0
M  V30 2014 C 200.492 -2.16905 -0.839927 0
M  V30 2015 C 201.486 -1.11998 -1.27094 0
M  V30 2016 O 202.692 -1.3029 -1.24195 0
M  V30 2017 H 199.067 -0.694252 -0.288995 0
M  V30 2018 H 201.038 -2.96774 -0.311115 0
M  V30 2019 C 199.787 -2.78795 -2.07771 0
M  V30 2020 H 199.11 -3.59221 -1.755 0
M  V30 2021 H 200.55 -3.2417 -2.73295 0
M  V30 2022 C 199.009 -1.76193 -2.87155 0
M  V30 2023 O 199.539 -1.21909 -3.82755 0
M  V30 2024 N 197.745 -1.45991 -2.51267 0
M  V30 2025 H 197.292 -1.90325 -1.73592 0
M  V30 2026 H 197.25 -0.775844 -3.04677 0
M  V30 2027 N 201.022 0.148545 -1.56898 0
M  V30 2028 C 202.438 0.501131 -1.51528 0
M  V30 2029 C 202.638 1.83458 -0.833399 0
M  V30 2030 O 201.694 2.49259 -0.40328 0
M  V30 2031 C 203.007 0.512864 -2.96294 0
M  V30 2032 C 204.555 0.598487 -3.07225 0
M  V30 2033 C 205.03 0.640897 -4.53494 0
M  V30 2034 N 206.521 0.703163 -4.57832 0
M  V30 2035 C 207.256 0.756935 -5.68382 0
M  V30 2036 N 206.752 0.770147 -6.88506 0
M  V30 2037 N 208.545 0.797698 -5.56411 0
M  V30 2038 H 200.696 -0.725532 -1.99624 0
M  V30 2039 H 202.959 -0.264358 -0.910395 0
M  V30 2040 H 202.665 -0.398691 -3.49433 0
M  V30 2041 H 202.539 1.35133 -3.52163 0
M  V30 2042 H 204.926 1.50046 -2.54106 0
M  V30 2043 H 205.007 -0.267093 -2.54402 0
M  V30 2044 H 204.651 -0.256915 -5.0725 0
M  V30 2045 H 204.581 1.52295 -5.04097 0
M  V30 2046 H 207.072 0.700314 -3.71354 0
M  V30 2047 H 207.385 0.812983 -7.68512 0
M  V30 2048 H 205.73 0.738049 -6.9107 0
M  V30 2049 H 208.921 0.784535 -4.61479 0
M  V30 2050 H 209.094 0.83614 -6.42583 0
M  V30 2051 N 202.5 1.5196 0.417844 0
M  V30 2052 C 203.432 1.70895 1.52733 0
M  V30 2053 C 204.445 0.589405 1.51756 0
M  V30 2054 O 205.634 0.864312 1.56179 0
M  V30 2055 C 202.734 1.72627 2.91639 0
M  V30 2056 C 201.907 3.01479 3.16905 0
M  V30 2057 C 200.966 2.95139 4.35637 0
M  V30 2058 O 199.992 3.69059 4.3334 0
M  V30 2059 N 201.194 2.12328 5.40275 0
M  V30 2060 H 203.959 2.66612 1.36888 0
M  V30 2061 H 201.52 1.50089 0.607037 0
M  V30 2062 H 203.512 1.65928 3.6912 0
M  V30 2063 H 202.082 0.844216 3.00985 0
M  V30 2064 H 201.302 3.21895 2.27546 0
M  V30 2065 H 202.59 3.86736 3.30625 0
M  V30 2066 H 201.988 1.51685 5.44985 0
M  V30 2067 H 200.545 2.11494 6.16534 0
M  V30 2068 N 203.978 -0.674533 1.42435 0
M  V30 2069 C 205.224 -1.43671 1.43131 0
M  V30 2070 C 205.557 -1.94142 0.0476021 0
M  V30 2071 O 204.832 -1.70924 -0.928188 0
M  V30 2072 C 205.115 -2.63355 2.45594 0
M  V30 2073 C 204.968 -2.18514 3.93156 0
M  V30 2074 C 206.287 -3.65571 2.45043 0
M  V30 2075 H 203.406 -0.521077 0.521198 0
M  V30 2076 H 206.048 -0.766551 1.7385 0
M  V30 2077 H 204.198 -3.2053 2.19528 0
M  V30 2078 H 205.87 -1.66504 4.30202 0
M  V30 2079 H 204.113 -1.50086 4.07009 0
M  V30 2080 H 204.784 -3.04484 4.60428 0
M  V30 2081 H 207.26 -3.18113 2.68223 0
M  V30 2082 H 206.136 -4.46893 3.18713 0
M  V30 2083 H 206.397 -4.16716 1.47649 0
M  V30 2084 N 205.456 -1.28612 -0.910864 0
M  V30 2085 C 206.366 -1.14643 -2.0468 0
M  V30 2086 C 207.382 -0.0723121 -1.7385 0
M  V30 2087 O 208.558 -0.282178 -1.99413 0
M  V30 2088 C 205.623 -0.812561 -3.37044 0
M  V30 2089 C 204.684 -1.96935 -3.81465 0
M  V30 2090 C 203.917 -1.65131 -5.07511 0
M  V30 2091 O 204.14 -0.567013 -5.67575 0
M  V30 2092 O 203.074 -2.49585 -5.47714 0
M  V30 2093 H 206.9 -2.1001 -2.19384 0
M  V30 2094 H 204.485 -1.07958 -1.03274 0
M  V30 2095 H 206.367 -0.640441 -4.16505 0
M  V30 2096 H 205.042 0.111426 -3.23508 0
M  V30 2097 H 203.949 -2.19664 -3.02818 0
M  V30 2098 H 205.282 -2.87414 -3.99567 0
M  V30 2099 N 206.934 1.1197 -1.10907 0
M  V30 2100 C 208.181 1.83588 -0.854507 0
M  V30 2101 C 208.509 1.84357 0.6199 0
M  V30 2102 O 207.764 1.28809 1.47332 0
M  V30 2103 C 208.063 3.30749 -1.35425 0
M  V30 2104 C 207.729 3.50146 -2.84093 0
M  V30 2105 C 206.391 3.55148 -3.2469 0
M  V30 2106 C 208.743 3.56857 -3.79872 0
M  V30 2107 C 206.071 3.6441 -4.59806 0
M  V30 2108 C 208.423 3.6765 -5.14797 0
M  V30 2109 C 207.087 3.7091 -5.54961 0
M  V30 2110 H 206.357 0.671795 -0.312686 0
M  V30 2111 H 209.004 1.32091 -1.38652 0
M  V30 2112 H 207.309 3.84703 -0.742361 0
M  V30 2113 H 209.006 3.8464 -1.1337 0
M  V30 2114 H 205.596 3.46919 -2.51685 0
M  V30 2115 H 209.78 3.52258 -3.49611 0
M  V30 2116 H 205.036 3.65208 -4.9034 0
M  V30 2117 H 209.21 3.71786 -5.88853 0
M  V30 2118 H 206.837 3.7784 -6.59652 0
M  V30 2119 N 208.412 0.89855 1.29475 0
M  V30 2120 C 209.344 0.332726 2.26772 0
M  V30 2121 C 210.357 -0.520323 1.54261 0
M  V30 2122 O 211.546 -0.337668 1.75277 0
M  V30 2123 C 208.646 -0.544334 3.345 0
M  V30 2124 C 207.819 0.282728 4.36485 0
M  V30 2125 C 206.878 -0.526982 5.23555 0
M  V30 2126 O 205.904 0.0551165 5.69173 0
M  V30 2127 N 207.106 -1.83331 5.5079 0
M  V30 2128 H 209.871 1.16897 2.75962 0
M  V30 2129 H 207.432 0.762919 1.42798 0
M  V30 2130 H 209.424 -1.09239 3.89678 0
M  V30 2131 H 207.994 -1.28127 2.85136 0
M  V30 2132 H 207.214 1.01221 3.80983 0
M  V30 2133 H 208.502 0.84918 5.01664 0
M  V30 2134 H 207.9 -2.32898 5.15534 0
M  V30 2135 H 206.457 -2.32852 6.08788 0
M  V30 2136 N 209.89 -1.43072 0.660911 0
M  V30 2137 C 210.853 -2.29194 -0.0166406 0
M  V30 2138 C 211.853 -1.42609 -0.742912 0
M  V30 2139 O 213.043 -1.64155 -0.583004 0
M  V30 2140 C 210.175 -3.24831 -1.0343 0
M  V30 2141 H 211.368 -2.90596 0.741208 0
M  V30 2142 H 208.921 -1.5048 0.422532 0
M  V30 2143 H 209.656 -2.68339 -1.82111 0
M  V30 2144 H 209.441 -3.88676 -0.517082 0
M  V30 2145 H 210.931 -3.89451 -1.50723 0
M  V30 2146 N 211.368 -0.403325 -1.52352 0
M  V30 2147 C 212.331 0.413051 -2.25447 0
M  V30 2148 C 213.331 0.978513 -1.276 0
M  V30 2149 O 214.521 0.858305 -1.51587 0
M  V30 2150 C 211.653 1.58087 -3.02029 0
M  V30 2151 H 212.846 -0.227094 -2.99039 0
M  V30 2152 H 210.399 -0.155722 -1.55522 0
M  V30 2153 H 211.134 2.25804 -2.32772 0
M  V30 2154 H 210.919 1.18195 -3.73861 0
M  V30 2155 H 212.409 2.1585 -3.57489 0
M  V30 2156 N 212.846 1.57033 -0.133567 0
M  V30 2157 C 214.092 1.96764 0.515326 0
M  V30 2158 C 214.447 1.01653 1.63353 0
M  V30 2159 O 213.74 0.0491374 1.91537 0
M  V30 2160 C 213.934 3.40674 1.08057 0
M  V30 2161 C 213.763 4.49696 0.0186522 0
M  V30 2162 C 212.533 5.03567 -0.418174 0
M  V30 2163 C 214.731 5.08536 -0.767809 0
M  V30 2164 N 212.713 5.9618 -1.46434 0
M  V30 2165 C 214.084 5.97231 -1.6648 0
M  V30 2166 C 216.139 4.9115 -0.817087 0
M  V30 2167 C 214.842 6.70401 -2.60681 0
M  V30 2168 C 216.868 5.65012 -1.74687 0
M  V30 2169 C 216.23 6.53403 -2.63141 0
M  V30 2170 H 212.329 0.765919 0.157771 0
M  V30 2171 H 214.913 1.93395 -0.22506 0
M  V30 2172 H 213.084 3.44662 1.79061 0
M  V30 2173 H 214.816 3.67495 1.69497 0
M  V30 2174 H 211.571 4.73594 -0.0229803 0
M  V30 2175 H 211.995 6.47191 -1.98678 0
M  V30 2176 H 216.637 4.22543 -0.147326 0
M  V30 2177 H 214.355 7.38245 -3.28664 0
M  V30 2178 H 217.941 5.53559 -1.79063 0
M  V30 2179 H 216.821 7.09556 -3.33917 0
M  V30 2180 N 214.325 -0.140222 1.56975 0
M  V30 2181 C 215.571 -0.852949 1.83991 0
M  V30 2182 C 215.904 -1.80512 0.716187 0
M  V30 2183 O 215.179 -1.92479 -0.279681 0
M  V30 2184 C 215.462 -1.6215 3.21527 0
M  V30 2185 C 215.315 -0.690363 4.4447 0
M  V30 2186 C 216.634 -2.58247 3.56366 0
M  V30 2187 H 213.753 -0.308634 0.669264 0
M  V30 2188 H 216.395 -0.117898 1.89634 0
M  V30 2189 H 214.545 -2.24812 3.16847 0
M  V30 2190 H 216.217 -0.0742264 4.6124 0
M  V30 2191 H 214.46 -0.000396433 4.338 0
M  V30 2192 H 215.131 -1.2643 5.37326 0
M  V30 2193 H 217.607 -2.05701 3.61699 0
M  V30 2194 H 216.483 -3.09067 4.53617 0
M  V30 2195 H 216.744 -3.39923 2.82674 0
M  V30 2196 N 215.803 -1.52179 -0.40978 0
M  V30 2197 C 217.051 -1.65878 -1.15451 0
M  V30 2198 C 217.372 -0.390771 -1.91044 0
M  V30 2199 O 216.642 0.594323 -1.86667 0
M  V30 2200 H 215.222 -0.611405 -0.429177 0
M  V30 2201 H 217.884 -1.89219 -0.467134 0
M  V30 2202 H 216.98 -2.49954 -1.86894 0
M  V30 2203 N 217.281 0.66697 -1.42791 0
M  V30 2204 C 218.244 1.76211 -1.46568 0
M  V30 2205 C 219.244 1.56896 -0.352196 0
M  V30 2206 O 220.434 1.63044 -0.613364 0
M  V30 2207 C 217.566 3.14935 -1.30494 0
M  V30 2208 H 218.759 1.74247 -2.44086 0
M  V30 2209 H 216.312 0.877342 -1.29354 0
M  V30 2210 H 217.047 3.2252 -0.339301 0
M  V30 2211 H 216.832 3.30359 -2.11199 0
M  V30 2212 H 218.322 3.94821 -1.36038 0
M  V30 2213 N 218.759 1.29093 0.90403 0
M  V30 2214 C 219.689 1.16401 2.02418 0
M  V30 2215 C 220.67 0.0593085 1.69997 0
M  V30 2216 O 221.855 0.238021 1.92736 0
M  V30 2217 C 218.985 0.835233 3.37107 0
M  V30 2218 C 217.939 1.89578 3.83724 0
M  V30 2219 C 217.265 1.42041 5.15489 0
M  V30 2220 C 218.565 3.30394 4.04521 0
M  V30 2221 H 220.259 2.10109 2.13295 0
M  V30 2222 H 217.805 1.01157 1.02486 0
M  V30 2223 H 219.758 0.733169 4.14973 0
M  V30 2224 H 218.482 -0.137543 3.2631 0
M  V30 2225 H 217.141 1.98715 3.08071 0
M  V30 2226 H 216.789 0.436426 5.01103 0
M  V30 2227 H 216.489 2.12964 5.4765 0
M  V30 2228 H 218.013 1.33176 5.959 0
M  V30 2229 H 219.427 3.24123 4.72882 0
M  V30 2230 H 217.824 3.99237 4.48029 0
M  V30 2231 H 218.894 3.73692 3.09002 0
M  V30 2232 N 220.237 -1.11381 1.11499 0
M  V30 2233 C 221.2 -2.15622 0.777153 0
M  V30 2234 C 222.2 -1.59504 -0.203779 0
M  V30 2235 O 223.39 -1.74188 0.020782 0
M  V30 2236 C 220.522 -3.40556 0.153116 0
M  V30 2237 H 221.715 -2.47021 1.70061 0
M  V30 2238 H 219.268 -1.26577 0.916952 0
M  V30 2239 H 220.003 -3.14767 -0.780536 0
M  V30 2240 H 219.788 -3.8257 0.859238 0
M  V30 2241 H 221.278 -4.17546 -0.0671044 0
M  V30 2242 N 221.715 -0.905404 -1.28997 0
M  V30 2243 C 222.648 -0.331959 -2.25773 0
M  V30 2244 C 223.626 0.559099 -1.52685 0
M  V30 2245 O 224.81 0.50463 -1.8162 0
M  V30 2246 C 221.937 0.526276 -3.34586 0
M  V30 2247 C 220.983 -0.298249 -4.25456 0
M  V30 2248 S 221.816 -1.69968 -5.0781 0
M  V30 2249 C 222.972 -0.848519 -6.20122 0
M  V30 2250 H 223.205 -1.15222 -2.74064 0
M  V30 2251 H 220.738 -0.706112 -1.37308 0
M  V30 2252 H 222.696 1.01565 -3.97737 0
M  V30 2253 H 221.357 1.32084 -2.84978 0
M  V30 2254 H 220.55 0.357607 -5.0273 0
M  V30 2255 H 220.152 -0.720968 -3.66985 0
M  V30 2256 H 222.444 -0.0744325 -6.77459 0
M  V30 2257 H 223.387 -1.59353 -6.89937 0
M  V30 2258 H 223.795 -0.400383 -5.63078 0
M  V30 2259 N 223.193 1.4272 -0.668489 0
M  V30 2260 C 224.441 2.01226 -0.187769 0
M  V30 2261 C 224.762 1.53092 1.2078 0
M  V30 2262 O 224.032 0.74993 1.80977 0
M  V30 2263 H 222.612 0.744041 -0.0664272 0
M  V30 2264 H 225.274 1.74723 -0.863583 0
M  V30 2265 H 224.37 3.11556 -0.184166 0
M  V30 2266 N 224.671 0.411399 1.52136 0
M  V30 2267 C 225.604 -0.457614 2.23565 0
M  V30 2268 C 226.582 -1.04613 1.24478 0
M  V30 2269 O 227.766 -1.09356 1.53536 0
M  V30 2270 C 224.893 -1.6354 2.96602 0
M  V30 2271 C 223.939 -1.17005 4.10137 0
M  V30 2272 S 224.772 -0.13333 5.35334 0
M  V30 2273 C 225.928 -1.31638 6.119 0
M  V30 2274 H 226.161 0.148883 2.96927 0
M  V30 2275 H 223.694 0.195713 1.53155 0
M  V30 2276 H 225.652 -2.31074 3.39286 0
M  V30 2277 H 224.313 -2.21324 2.22878 0
M  V30 2278 H 223.506 -2.05005 4.60422 0
M  V30 2279 H 223.108 -0.573319 3.6958 0
M  V30 2280 H 225.4 -2.23957 6.39413 0
M  V30 2281 H 226.343 -0.854014 7.02931 0
M  V30 2282 H 226.751 -1.54321 5.42997 0
M  V30 2283 N 226.149 -1.5696 0.141893 0
M  V30 2284 C 227.398 -1.95135 -0.510427 0
M  V30 2285 C 227.711 -1.02896 -1.66348 0
M  V30 2286 O 228.917 -1.30629 -2.38009 0
M  V30 2287 C 227.373 -3.46876 -0.959427 0
M  V30 2288 C 226.981 -4.47691 0.166419 0
M  V30 2289 C 228.725 -3.93927 -1.58183 0
M  V30 2290 C 226.632 -5.90636 -0.300565 0
M  V30 2291 H 225.562 -0.728494 -0.194454 0
M  V30 2292 H 228.213 -1.8211 0.22542 0
M  V30 2293 H 226.595 -3.55215 -1.75038 0
M  V30 2294 H 227.769 -4.51043 0.94325 0
M  V30 2295 H 226.084 -4.10527 0.696905 0
M  V30 2296 H 228.681 -4.98158 -1.94275 0
M  V30 2297 H 229.024 -3.3519 -2.46888 0
M  V30 2298 H 229.557 -3.88484 -0.855863 0
M  V30 2299 H 226.296 -6.5318 0.550989 0
M  V30 2300 H 225.816 -5.90655 -1.04338 0
M  V30 2301 H 227.495 -6.42588 -0.754265 0
M  V30 2302 N 227.627 0.131896 -1.57047 0
M  V30 2303 C 228.874 0.841932 -1.84168 0
M  V30 2304 C 229.202 1.8048 -0.725066 0
M  V30 2305 O 228.457 1.93618 0.284692 0
M  V30 2306 C 228.756 1.63703 -3.17704 0
M  V30 2307 C 228.422 0.81961 -4.43388 0
M  V30 2308 C 227.084 0.594148 -4.77518 0
M  V30 2309 C 229.436 0.248977 -5.20605 0
M  V30 2310 C 226.764 -0.212409 -5.86315 0
M  V30 2311 C 229.116 -0.544701 -6.30251 0
M  V30 2312 C 227.78 -0.780599 -6.6292 0
M  V30 2313 H 227.05 0.308085 -0.673917 0
M  V30 2314 H 229.697 0.104867 -1.91213 0
M  V30 2315 H 228.002 2.44464 -3.06177 0
M  V30 2316 H 229.699 2.19015 -3.35907 0
M  V30 2317 H 226.289 1.00542 -4.16641 0
M  V30 2318 H 230.473 0.410408 -4.946 0
M  V30 2319 H 225.729 -0.404524 -6.1006 0
M  V30 2320 H 229.903 -0.993922 -6.89271 0
M  V30 2321 H 227.53 -1.40742 -7.47058 0
M  V30 2322 N 229.106 1.52395 0.401703 0
M  V30 2323 C 230.353 1.66817 1.14796 0
M  V30 2324 C 230.681 0.401772 1.90305 0
M  V30 2325 O 229.936 -0.615487 1.85769 0
M  V30 2326 C 230.235 2.84578 2.16217 0
M  V30 2327 C 229.901 4.22513 1.5746 0
M  V30 2328 C 228.563 4.60029 1.41161 0
M  V30 2329 C 230.915 5.0844 1.14622 0
M  V30 2330 C 228.243 5.81144 0.80552 0
M  V30 2331 C 230.595 6.30167 0.55428 0
M  V30 2332 C 229.259 6.66426 0.378482 0
M  V30 2333 H 228.529 0.610428 0.420069 0
M  V30 2334 H 231.176 1.86512 0.434212 0
M  V30 2335 H 229.481 2.59248 2.93764 0
M  V30 2336 H 231.178 2.92933 2.73845 0
M  V30 2337 H 227.768 3.92953 1.71132 0
M  V30 2338 H 231.952 4.80034 1.26021 0
M  V30 2339 H 227.208 6.07855 0.657399 0
M  V30 2340 H 231.382 6.96071 0.213983 0
M  V30 2341 H 229.009 7.60143 -0.0932606 0
M  V30 2342 N 230.584 -0.659388 1.43143 0
M  V30 2343 C 231.824 -1.43121 1.45931 0
M  V30 2344 C 232.188 -1.91838 0.0789298 0
M  V30 2345 O 233.389 -2.68794 -0.018491 0
M  V30 2346 C 231.66 -2.58534 2.46769 0
M  V30 2347 S 233.219 -3.47154 2.68384 0
M  V30 2348 H 230.037 -0.488624 0.516496 0
M  V30 2349 H 232.639 -0.766128 1.79863 0
M  V30 2350 H 231.343 -2.21007 3.45809 0
M  V30 2351 H 230.874 -3.29898 2.14315 0
M  V30 2352 H 232.889 -4.55051 1.97845 0
M  V30 2353 N 232.062 -1.29571 -0.897171 0
M  V30 2354 C 233.287 -1.20705 -1.68656 0
M  V30 2355 C 233.712 0.228582 -1.86706 0
M  V30 2356 O 233.07 1.16494 -1.3892 0
M  V30 2357 C 233.118 -1.9282 -3.04717 0
M  V30 2358 O 232.222 -1.24697 -3.93096 0
M  V30 2359 H 231.563 -0.418126 -0.515816 0
M  V30 2360 H 234.093 -1.71183 -1.12061 0
M  V30 2361 H 234.103 -2.01372 -3.54843 0
M  V30 2362 H 232.778 -2.97239 -2.90899 0
M  V30 2363 H 231.355 -1.2442 -3.51531 0
M  V30 2364 N 233.54 1.10788 -1.12088 0
M  V30 2365 C 234.951 1.64181 -0.88891 0
M  V30 2366 C 235.302 1.87508 0.577498 0
M  V30 2367 O 234.427 1.61434 1.44112 0
M  V30 2368 C 235.022 2.98257 -1.60712 0
M  V30 2369 C 233.581 3.4853 -1.42139 0
M  V30 2370 C 232.728 2.23208 -1.6454 0
M  V30 2371 H 235.679 0.943368 -1.27618 0
M  V30 2372 H 235.7 3.65552 -1.05604 0
M  V30 2373 H 235.212 2.81246 -2.67436 0
M  V30 2374 H 233.313 3.70692 -0.376552 0
M  V30 2375 H 233.426 4.26882 -2.17505 0
M  V30 2376 H 231.79 2.31169 -1.06925 0
M  V30 2377 H 232.573 2.08733 -2.72554 0
M  V30 2378 N 235.018 0.912232 1.28515 0
M  V30 2379 C 236.267 0.540504 1.94323 0
M  V30 2380 C 236.58 -0.920044 1.72611 0
M  V30 2381 O 237.786 -1.39986 2.32629 0
M  V30 2382 C 236.242 0.915803 3.48053 0
M  V30 2383 C 235.85 2.39598 3.78546 0
M  V30 2384 C 237.594 0.614588 4.20027 0
M  V30 2385 C 235.501 2.71148 5.25578 0
M  V30 2386 H 234.431 0.198418 0.727424 0
M  V30 2387 H 237.082 1.11094 1.46049 0
M  V30 2388 H 235.464 0.274168 3.9505 0
M  V30 2389 H 236.638 3.08422 3.42364 0
M  V30 2390 H 234.953 2.66749 3.1974 0
M  V30 2391 H 237.55 0.827002 5.28266 0
M  V30 2392 H 237.893 -0.447531 4.13887 0
M  V30 2393 H 238.426 1.21462 3.78803 0
M  V30 2394 H 235.165 3.76207 5.36794 0
M  V30 2395 H 234.685 2.0696 5.62963 0
M  V30 2396 H 236.364 2.58072 5.93302 0
M  V30 2397 N 236.496 -1.42363 0.676048 0
M  V30 2398 C 237.742 -2.0182 0.199125 0
M  V30 2399 C 238.075 -1.53339 -1.19168 0
M  V30 2400 O 237.35 -0.736124 -1.80032 0
M  V30 2401 C 237.633 -3.59331 0.235144 0
M  V30 2402 C 237.486 -4.17989 1.66149 0
M  V30 2403 C 238.805 -4.3813 -0.41595 0
M  V30 2404 H 235.924 -0.733293 0.0738311 0
M  V30 2405 H 238.566 -1.69368 0.86107 0
M  V30 2406 H 236.716 -3.87109 -0.328487 0
M  V30 2407 H 238.388 -4.0116 2.27747 0
M  V30 2408 H 236.631 -3.7377 2.20178 0
M  V30 2409 H 237.302 -5.27126 1.63837 0
M  V30 2410 H 239.778 -4.16051 0.0638529 0
M  V30 2411 H 238.654 -5.47717 -0.360115 0
M  V30 2412 H 238.915 -4.16101 -1.49373 0
M  V30 2413 N 237.974 -0.419461 -1.51915 0
M  V30 2414 C 239.199 0.154572 -2.06823 0
M  V30 2415 C 239.624 1.3722 -1.28656 0
M  V30 2416 O 238.982 1.78461 -0.319583 0
M  V30 2417 C 239.03 0.473172 -3.57482 0
M  V30 2418 O 238.134 1.56255 -3.81652 0
M  V30 2419 H 237.475 0.0096924 -0.663929 0
M  V30 2420 H 240.005 -0.595642 -1.95738 0
M  V30 2421 H 240.015 0.728825 -4.01438 0
M  V30 2422 H 238.69 -0.416873 -4.13805 0
M  V30 2423 H 237.267 1.29825 -3.49571 0
M  V30 2424 N 239.452 1.56882 -0.150215 0
M  V30 2425 C 240.701 1.95403 0.500071 0
M  V30 2426 C 241.014 1.03777 1.658 0
M  V30 2427 O 242.22 1.31889 2.37313 0
M  V30 2428 C 240.676 3.4738 0.941018 0
M  V30 2429 C 240.284 4.47596 -0.190158 0
M  V30 2430 C 242.028 3.9476 1.56091 0
M  V30 2431 C 239.935 5.90787 0.269237 0
M  V30 2432 H 238.865 0.729515 0.190588 0
M  V30 2433 H 241.516 1.81988 -0.235074 0
M  V30 2434 H 239.898 3.56138 1.73152 0
M  V30 2435 H 241.072 4.50536 -0.967157 0
M  V30 2436 H 239.387 4.10151 -0.718666 0
M  V30 2437 H 241.984 4.99181 1.9163 0
M  V30 2438 H 242.327 3.36494 2.45107 0
M  V30 2439 H 242.86 3.88932 0.835249 0
M  V30 2440 H 239.599 6.52879 -0.585621 0
M  V30 2441 H 239.119 5.912 1.01204 0
M  V30 2442 H 240.798 6.42979 0.720176 0
M  V30 2443 N 240.93 -0.123565 1.57115 0
M  V30 2444 C 242.177 -0.832153 1.84612 0
M  V30 2445 C 242.505 -1.80093 0.734627 0
M  V30 2446 O 241.76 -1.93766 -0.27442 0
M  V30 2447 C 242.059 -1.62016 3.18568 0
M  V30 2448 C 241.725 -0.796084 4.43817 0
M  V30 2449 C 240.387 -0.568816 4.77826 0
M  V30 2450 C 242.739 -0.221364 5.2073 0
M  V30 2451 C 240.067 0.243499 5.86194 0
M  V30 2452 C 242.419 0.578117 6.29953 0
M  V30 2453 C 241.083 0.815744 6.62497 0
M  V30 2454 H 240.353 -0.304507 0.675542 0
M  V30 2455 H 243 -0.0947248 1.91266 0
M  V30 2456 H 241.305 -2.42837 3.0747 0
M  V30 2457 H 243.002 -2.17231 3.37064 0
M  V30 2458 H 239.592 -0.983307 4.17168 0
M  V30 2459 H 243.776 -0.384173 4.94811 0
M  V30 2460 H 239.032 0.436871 6.09837 0
M  V30 2461 H 243.206 1.03046 6.88734 0
M  V30 2462 H 240.833 1.44701 7.46301 0
M  V30 2463 N 242.408 -1.52605 -0.393616 0
M  V30 2464 C 243.636 -1.71294 -1.16043 0
M  V30 2465 C 244.051 -0.429259 -1.83855 0
M  V30 2466 O 243.408 0.595921 -1.72496 0
M  V30 2467 C 243.459 -2.8593 -2.21193 0
M  V30 2468 O 243.18 -4.09329 -1.56146 0
M  V30 2469 C 244.681 -3.16259 -3.10636 0
M  V30 2470 H 241.901 -0.573641 -0.348104 0
M  V30 2471 H 244.445 -1.99234 -0.461092 0
M  V30 2472 H 242.6 -2.60465 -2.86769 0
M  V30 2473 H 243.014 -4.73323 -2.25978 0
M  V30 2474 H 244.488 -3.99946 -3.80456 0
M  V30 2475 H 244.965 -2.3045 -3.73884 0
M  V30 2476 H 245.571 -3.43547 -2.50711 0
M  V30 2477 N 243.887 0.651787 -1.4349 0
M  V30 2478 C 245.164 1.40909 -1.35661 0
M  V30 2479 C 245.544 2.11099 -0.00511733 0
M  V30 2480 O 244.892 2.04892 1.0115 0
M  V30 2481 C 245.102 2.3926 -2.54078 0
M  V30 2482 C 246.45 3.03217 -2.97228 0
M  V30 2483 O 247.474 2.49588 -2.54135 0
M  V30 2484 O 246.333 4.00455 -3.71885 0
M  V30 2485 H 243.427 0.629625 -0.536191 0
M  V30 2486 H 245.973 0.678575 -1.55542 0
M  V30 2487 H 244.745 1.86352 -3.44076 0
M  V30 2488 H 244.368 3.1976 -2.36303 0
M  V30 2489 N 245.365 1.30045 0.890287 0
M  V30 2490 C 246.781 1.08261 1.17268 0
M  V30 2491 C 246.981 -0.160063 2.00863 0
M  V30 2492 O 246.037 -0.855181 2.37577 0
M  V30 2493 C 247.35 2.34323 1.8845 0
M  V30 2494 C 248.898 2.39735 2.01237 0
M  V30 2495 C 249.373 3.65625 2.7583 0
M  V30 2496 N 250.864 3.66402 2.83379 0
M  V30 2497 C 251.599 4.60498 3.41657 0
M  V30 2498 N 251.095 5.64933 4.01026 0
M  V30 2499 N 252.888 4.48051 3.39421 0
M  V30 2500 H 245.039 2.09777 0.332762 0
M  V30 2501 H 247.302 0.92446 0.209948 0
M  V30 2502 H 247.008 3.2498 1.34465 0
M  V30 2503 H 246.882 2.4256 2.88867 0
M  V30 2504 H 249.269 1.4956 2.54393 0
M  V30 2505 H 249.35 2.35476 0.999232 0
M  V30 2506 H 248.994 4.56156 2.23347 0
M  V30 2507 H 248.924 3.67144 3.77509 0
M  V30 2508 H 251.415 2.90896 2.41222 0
M  V30 2509 H 251.728 6.32841 4.43545 0
M  V30 2510 H 250.073 5.68732 3.99461 0
M  V30 2511 H 253.264 3.65649 2.92264 0
M  V30 2512 H 253.437 5.21565 3.84544 0
M  V30 2513 N 246.843 -1.10192 1.12674 0
M  V30 2514 C 247.773 -2.18652 0.819362 0
M  V30 2515 C 248.754 -1.68698 -0.217915 0
M  V30 2516 O 249.939 -1.94041 -0.0785581 0
M  V30 2517 C 247.069 -3.46202 0.27594 0
M  V30 2518 C 246.023 -4.09444 1.24656 0
M  V30 2519 C 245.349 -5.31725 0.563258 0
M  V30 2520 C 246.649 -4.52863 2.60217 0
M  V30 2521 H 248.343 -2.44622 1.72628 0
M  V30 2522 H 245.889 -1.17571 0.831451 0
M  V30 2523 H 247.842 -4.21372 0.0486149 0
M  V30 2524 H 246.566 -3.1973 -0.666331 0
M  V30 2525 H 245.225 -3.36284 1.45974 0
M  V30 2526 H 244.873 -5.0153 -0.384235 0
M  V30 2527 H 244.573 -5.74991 1.21075 0
M  V30 2528 H 246.097 -6.09624 0.34503 0
M  V30 2529 H 247.511 -5.19294 2.42913 0
M  V30 2530 H 245.908 -5.06986 3.21068 0
M  V30 2531 H 246.978 -3.65656 3.18471 0
M  V30 2532 N 248.321 -0.919034 -1.28029 0
M  V30 2533 C 249.569 -0.553838 -1.94363 0
M  V30 2534 C 249.89 0.906357 -1.72656 0
M  V30 2535 O 249.16 1.64143 -1.0693 0
M  V30 2536 H 247.74 -0.201834 -0.719216 0
M  V30 2537 H 250.402 -1.16954 -1.55909 0
M  V30 2538 H 249.498 -0.752758 -3.02886 0
M  V30 2539 N 249.799 1.42003 -0.683588 0
M  V30 2540 C 251.039 2.03282 -0.213513 0
M  V30 2541 C 251.403 1.52924 1.16097 0
M  V30 2542 O 252.604 2.06048 1.7262 0
M  V30 2543 C 250.875 3.56483 -0.255856 0
M  V30 2544 S 252.434 4.3857 0.14193 0
M  V30 2545 H 249.252 0.705659 -0.0869853 0
M  V30 2546 H 251.854 1.73619 -0.8987 0
M  V30 2547 H 250.558 3.90631 -1.25841 0
M  V30 2548 H 250.089 3.90831 0.448875 0
M  V30 2549 H 252.104 4.76828 1.37295 0
M  V30 2550 N 251.277 0.427512 1.51691 0
M  V30 2551 C 252.693 0.0792977 1.59403 0
M  V30 2552 C 252.893 -1.41035 1.43914 0
M  V30 2553 O 251.949 -2.17922 1.27539 0
M  V30 2554 C 253.262 0.590636 2.94842 0
M  V30 2555 C 254.81 0.550215 3.08126 0
M  V30 2556 C 255.285 1.03836 4.46074 0
M  V30 2557 N 256.776 0.995943 4.52366 0
M  V30 2558 C 257.511 1.34463 5.57411 0
M  V30 2559 N 257.007 1.76569 6.69922 0
M  V30 2560 N 258.8 1.26343 5.47717 0
M  V30 2561 H 250.951 1.39687 1.60004 0
M  V30 2562 H 253.214 0.575003 0.753708 0
M  V30 2563 H 252.92 1.63251 3.11516 0
M  V30 2564 H 252.794 0.0102061 3.77199 0
M  V30 2565 H 255.181 -0.482654 2.91126 0
M  V30 2566 H 255.262 1.16693 2.27632 0
M  V30 2567 H 254.906 2.06965 4.63819 0
M  V30 2568 H 254.836 0.398286 5.25092 0
M  V30 2569 H 257.327 0.68661 3.7161 0
M  V30 2570 H 257.64 2.01438 7.46085 0
M  V30 2571 H 255.985 1.80488 6.71155 0
M  V30 2572 H 259.176 0.933209 4.58703 0
M  V30 2573 H 259.349 1.53846 6.29472 0
M  V30 2574 N 252.755 -1.56801 0.158532 0
M  V30 2575 C 254.004 -1.95665 -0.489702 0
M  V30 2576 C 254.317 -1.04654 -1.65248 0
M  V30 2577 O 255.523 -1.33146 -2.3661 0
M  V30 2578 C 253.979 -3.47874 -0.922582 0
M  V30 2579 C 253.587 -4.47489 0.213893 0
M  V30 2580 C 255.331 -3.95583 -1.53996 0
M  V30 2581 C 253.238 -5.90921 -0.237903 0
M  V30 2582 H 252.168 -0.730516 -0.186716 0
M  V30 2583 H 254.819 -1.81861 0.244722 0
M  V30 2584 H 253.201 -3.57051 -1.71261 0
M  V30 2585 H 254.375 -4.50017 0.991036 0
M  V30 2586 H 252.69 -4.09764 0.740407 0
M  V30 2587 H 255.287 -5.0019 -1.8898 0
M  V30 2588 H 255.63 -3.37789 -2.43319 0
M  V30 2589 H 256.163 -3.8937 -0.814611 0
M  V30 2590 H 252.902 -6.52559 0.620236 0
M  V30 2591 H 252.422 -5.91729 -0.980676 0
M  V30 2592 H 254.101 -6.43352 -0.686067 0
M  V30 2593 N 254.233 0.115231 -1.57178 0
M  V30 2594 C 255.461 0.836437 -1.89239 0
M  V30 2595 C 255.876 1.73256 -0.750175 0
M  V30 2596 O 255.233 1.80357 0.278832 0
M  V30 2597 C 255.284 1.66671 -3.20785 0
M  V30 2598 O 255.005 0.806652 -4.3061 0
M  V30 2599 C 256.506 2.49274 -3.66575 0
M  V30 2600 H 253.726 0.240253 -0.626514 0
M  V30 2601 H 256.27 0.0984932 -2.04263 0
M  V30 2602 H 254.425 2.35737 -3.0742 0
M  V30 2603 H 254.839 1.37969 -5.06028 0
M  V30 2604 H 256.313 3.03055 -4.6137 0
M  V30 2605 H 256.79 3.26807 -2.93417 0
M  V30 2606 H 257.396 1.85443 -3.82741 0
M  V30 2607 N 255.711 1.52812 0.385517 0
M  V30 2608 C 256.674 1.77188 1.45386 0
M  V30 2609 C 257.674 0.641953 1.4743 0
M  V30 2610 O 258.864 0.910033 1.4854 0
M  V30 2611 C 255.996 1.87582 2.8465 0
M  V30 2612 H 257.189 2.72583 1.25054 0
M  V30 2613 H 254.742 1.43586 0.617467 0
M  V30 2614 H 255.477 0.941849 3.10322 0
M  V30 2615 H 255.262 2.69748 2.84567 0
M  V30 2616 H 256.752 2.08102 3.62054 0
M  V30 2617 N 257.189 -0.644168 1.43834 0
M  V30 2618 C 258.417 -1.43147 1.49387 0
M  V30 2619 C 258.832 -1.88452 0.114583 0
M  V30 2620 O 258.189 -1.60047 -0.876989 0
M  V30 2621 C 258.24 -2.66046 2.44748 0
M  V30 2622 O 257.961 -2.22633 3.77314 0
M  V30 2623 C 259.462 -3.59311 2.59635 0
M  V30 2624 H 256.682 -0.439447 0.507077 0
M  V30 2625 H 259.226 -0.78895 1.88669 0
M  V30 2626 H 257.381 -3.26418 2.08638 0
M  V30 2627 H 257.795 -3.02216 4.28679 0
M  V30 2628 H 259.269 -4.42187 3.30416 0
M  V30 2629 H 259.746 -4.07259 1.64427 0
M  V30 2630 H 260.352 -3.04816 2.96593 0
M  V30 2631 N 258.668 -1.30515 -0.883378 0
M  V30 2632 C 259.631 -1.1701 -1.97082 0
M  V30 2633 C 260.631 -0.10089 -1.60483 0
M  V30 2634 O 261.821 -0.349127 -1.70666 0
M  V30 2635 C 258.953 -0.793045 -3.31547 0
M  V30 2636 H 260.146 -2.13622 -2.10489 0
M  V30 2637 H 257.699 -1.13935 -1.06998 0
M  V30 2638 H 258.434 0.172499 -3.23841 0
M  V30 2639 H 258.219 -1.56576 -3.5948 0
M  V30 2640 H 259.709 -0.722073 -4.1131 0
M  V30 2641 N 260.146 1.09593 -1.13257 0
M  V30 2642 C 261.394 1.81375 -0.891492 0
M  V30 2643 C 261.715 1.86049 0.584009 0
M  V30 2644 O 260.985 1.34481 1.42449 0
M  V30 2645 H 259.565 0.671708 -0.326828 0
M  V30 2646 H 262.227 1.3256 -1.42877 0
M  V30 2647 H 261.323 2.84612 -1.28071 0
M  V30 2648 N 261.624 0.925811 1.2754 0
M  V30 2649 C 262.587 0.428129 2.25166 0
M  V30 2650 C 263.587 -0.452261 1.54309 0
M  V30 2651 O 264.777 -0.253608 1.72344 0
M  V30 2652 C 261.909 -0.384749 3.38722 0
M  V30 2653 H 263.102 1.29066 2.70706 0
M  V30 2654 H 260.655 0.706323 1.3943 0
M  V30 2655 H 261.39 -1.26618 2.98561 0
M  V30 2656 H 261.175 0.246454 3.91325 0
M  V30 2657 H 262.665 -0.723389 4.11287 0
M  V30 2658 N 263.102 -1.41638 0.69111 0
M  V30 2659 C 264.065 -2.29178 0.0319786 0
M  V30 2660 C 265.065 -1.44153 -0.712496 0
M  V30 2661 O 266.255 -1.65354 -0.548053 0
M  V30 2662 C 263.387 -3.26952 -0.965161 0
M  V30 2663 H 264.58 -2.88959 0.802681 0
M  V30 2664 H 262.133 -1.4955 0.454356 0
M  V30 2665 H 262.868 -2.72142 -1.76378 0
M  V30 2666 H 262.653 -3.89685 -0.434522 0
M  V30 2667 H 264.143 -3.92561 -1.42428 0
M  V30 2668 N 264.58 -0.43555 -1.51462 0
M  V30 2669 C 265.826 0.131709 -2.02372 0
M  V30 2670 C 266.159 1.42516 -1.3192 0
M  V30 2671 O 265.434 1.89606 -0.433573 0
M  V30 2672 C 265.717 0.352301 -3.58373 0
M  V30 2673 C 265.57 -0.959676 -4.39443 0
M  V30 2674 C 266.889 1.12286 -4.25535 0
M  V30 2675 H 264.008 0.0463936 -0.735538 0
M  V30 2676 H 266.65 -0.574197 -1.81116 0
M  V30 2677 H 264.8 0.9536 -3.76615 0
M  V30 2678 H 266.472 -1.59482 -4.32855 0
M  V30 2679 H 264.715 -1.56468 -4.04599 0
M  V30 2680 H 265.386 -0.759394 -5.46752 0
M  V30 2681 H 267.862 0.613545 -4.11552 0
M  V30 2682 H 266.738 1.24598 -5.34571 0
M  V30 2683 H 266.999 2.15048 -3.86273 0
M  V30 2684 N 266.058 1.56714 -0.166846 0
M  V30 2685 C 267.021 2.16539 0.751232 0
M  V30 2686 C 268.021 1.11228 1.16125 0
M  V30 2687 O 269.211 1.36765 1.07894 0
M  V30 2688 C 266.343 2.74462 2.02196 0
M  V30 2689 H 267.536 2.99013 0.230499 0
M  V30 2690 H 265.089 1.56081 0.0826982 0
M  V30 2691 H 265.824 1.95709 2.58589 0
M  V30 2692 H 265.609 3.51527 1.73698 0
M  V30 2693 H 267.099 3.20489 2.67725 0
M  V30 2694 N 267.536 -0.106894 1.57237 0
M  V30 2695 C 268.783 -0.812526 1.85484 0
M  V30 2696 C 269.111 -1.79304 0.753687 0
M  V30 2697 O 268.366 -1.94047 -0.253853 0
M  V30 2698 C 268.665 -1.58628 3.20268 0
M  V30 2699 C 268.331 -0.748967 4.44636 0
M  V30 2700 C 266.993 -0.518104 4.78403 0
M  V30 2701 C 269.345 -0.166122 5.20935 0
M  V30 2702 C 266.673 0.305659 5.85903 0
M  V30 2703 C 269.025 0.644899 6.29304 0
M  V30 2704 C 267.689 0.885965 6.61594 0
M  V30 2705 H 266.959 -0.297324 0.678734 0
M  V30 2706 H 269.606 -0.0744332 1.91355 0
M  V30 2707 H 267.911 -2.39562 3.10028 0
M  V30 2708 H 269.608 -2.13643 3.39349 0
M  V30 2709 H 266.198 -0.939006 4.18187 0
M  V30 2710 H 270.382 -0.33167 4.95191 0
M  V30 2711 H 265.638 0.501528 6.0934 0
M  V30 2712 H 269.812 1.10345 6.87602 0
M  V30 2713 H 267.439 1.52609 7.44725 0
M  V30 2714 N 269.014 -1.53014 -0.377408 0
M  V30 2715 C 270.263 -1.67845 -1.11853 0
M  V30 2716 C 270.576 -0.430625 -1.90801 0
M  V30 2717 O 271.782 -0.459261 -2.67587 0
M  V30 2718 C 270.238 -2.96668 -2.03756 0
M  V30 2719 C 269.846 -4.28671 -1.30175 0
M  V30 2720 C 271.59 -3.20865 -2.77932 0
M  V30 2721 C 269.497 -5.48591 -2.20911 0
M  V30 2722 H 268.427 -0.625343 -0.421263 0
M  V30 2723 H 271.078 -1.79514 -0.380409 0
M  V30 2724 H 269.46 -2.78773 -2.8125 0
M  V30 2725 H 270.634 -4.57157 -0.578259 0
M  V30 2726 H 268.949 -4.10825 -0.679108 0
M  V30 2727 H 271.546 -4.07642 -3.46024 0
M  V30 2728 H 271.889 -2.36424 -3.4265 0
M  V30 2729 H 272.422 -3.39379 -2.07525 0
M  V30 2730 H 269.161 -6.35474 -1.6079 0
M  V30 2731 H 268.681 -5.244 -2.91144 0
M  V30 2732 H 270.36 -5.8292 -2.80736 0
M  V30 2733 N 270.492 0.636531 -1.44174 0
M  V30 2734 C 271.74 1.39343 -1.46383 0
M  V30 2735 C 272.061 1.94766 -0.0955715 0
M  V30 2736 O 271.331 1.75452 0.871395 0
M  V30 2737 H 269.911 0.517199 -0.538994 0
M  V30 2738 H 272.573 0.74957 -1.7991 0
M  V30 2739 H 271.669 2.22746 -2.18611 0
M  V30 2740 N 271.97 1.30982 0.876444 0
M  V30 2741 C 272.9 1.20668 1.99903 0
M  V30 2742 C 273.881 0.095354 1.69833 0
M  V30 2743 O 275.066 0.27885 1.92188 0
M  V30 2744 C 272.196 0.90655 3.3526 0
M  V30 2745 C 271.15 1.97675 3.79617 0
M  V30 2746 C 270.476 1.52943 5.1236 0
M  V30 2747 C 271.776 3.389 3.97422 0
M  V30 2748 H 273.47 2.14586 2.0879 0
M  V30 2749 H 271.016 1.03308 1.00317 0
M  V30 2750 H 272.969 0.821025 4.13324 0
M  V30 2751 H 271.693 -0.0682969 3.26529 0
M  V30 2752 H 270.352 2.05205 3.03787 0
M  V30 2753 H 270 0.54262 5.00065 0
M  V30 2754 H 269.7 2.24532 5.43009 0
M  V30 2755 H 271.224 1.45786 5.92941 0
M  V30 2756 H 272.638 3.34081 4.659 0
M  V30 2757 H 271.035 4.0865 4.3946 0
M  V30 2758 H 272.105 3.80163 3.01006 0
M  V30 2759 N 273.449 -1.08991 1.13837 0
M  V30 2760 C 274.399 -2.1393 0.788535 0
M  V30 2761 C 275.383 -1.59396 -0.219516 0
M  V30 2762 O 276.575 -1.76985 -0.0227557 0
M  V30 2763 C 273.704 -3.42305 0.261147 0
M  V30 2764 C 272.79 -4.03736 1.29837 0
M  V30 2765 N 273.181 -4.39659 2.50067 0
M  V30 2766 C 271.479 -4.30993 1.1472 0
M  V30 2767 C 272.18 -4.88113 3.16419 0
M  V30 2768 N 271.156 -4.85846 2.43832 0
M  V30 2769 H 274.958 -2.39516 1.70322 0
M  V30 2770 H 272.472 -1.26263 1.02134 0
M  V30 2771 H 274.469 -4.16899 -0.0077405 0
M  V30 2772 H 273.129 -3.18172 -0.647805 0
M  V30 2773 H 274.14 -4.30878 2.8734 0
M  V30 2774 H 270.817 -4.16444 0.296773 0
M  V30 2775 H 272.207 -5.25336 4.18894 0
M  V30 2776 N 274.927 -0.932562 -1.27047 0
M  V30 2777 C 276.155 -0.592031 -1.98249 0
M  V30 2778 C 276.57 0.831062 -1.69525 0
M  V30 2779 O 275.927 1.55299 -0.958561 0
M  V30 2780 C 275.978 -0.814279 -3.5221 0
M  V30 2781 O 275.699 -2.18139 -3.7993 0
M  V30 2782 C 277.2 -0.483121 -4.4066 0
M  V30 2783 H 274.42 -0.223896 -0.632544 0
M  V30 2784 H 276.964 -1.25091 -1.61779 0
M  V30 2785 H 275.119 -0.20213 -3.86872 0
M  V30 2786 H 275.533 -2.235 -4.74498 0
M  V30 2787 H 277.007 -0.689298 -5.47679 0
M  V30 2788 H 277.484 0.581546 -4.35333 0
M  V30 2789 H 278.09 -1.07362 -4.11526 0
M  V30 2790 N 276.405 1.4127 -0.698611 0
M  V30 2791 C 277.63 2.06024 -0.238512 0
M  V30 2792 C 278.055 1.5224 1.10475 0
M  V30 2793 O 277.413 0.650623 1.69223 0
M  V30 2794 C 277.461 3.59988 -0.209952 0
M  V30 2795 O 276.565 4.04282 0.814235 0
M  V30 2796 H 275.906 0.653829 -0.115775 0
M  V30 2797 H 278.436 1.8098 -0.954326 0
M  V30 2798 H 278.446 4.07979 -0.0418436 0
M  V30 2799 H 277.121 3.98503 -1.1903 0
M  V30 2800 H 275.698 3.6779 0.615234 0
M  V30 2801 N 277.883 0.443576 1.51229 0
M  V30 2802 C 279.108 -0.121648 2.07043 0
M  V30 2803 C 279.533 -1.35156 1.30823 0
M  V30 2804 O 278.891 -1.7793 0.347934 0
M  V30 2805 C 278.939 -0.41624 3.5819 0
M  V30 2806 O 278.043 -1.50163 3.8409 0
M  V30 2807 H 277.384 0.000871367 0.663999 0
M  V30 2808 H 279.914 0.626706 1.94765 0
M  V30 2809 H 279.924 -0.664867 4.02546 0
M  V30 2810 H 278.599 0.482653 4.1309 0
M  V30 2811 H 277.176 -1.24248 3.51592 0
M  V30 2812 N 279.361 -1.56624 0.175154 0
M  V30 2813 C 280.608 -1.96999 -0.468811 0
M  V30 2814 C 280.936 -1.06129 -1.62994 0
M  V30 2815 O 280.191 -0.0961771 -1.95464 0
M  V30 2816 C 280.49 -3.43419 -0.989864 0
M  V30 2817 C 280.156 -4.50866 0.0557687 0
M  V30 2818 C 278.818 -4.79975 0.343134 0
M  V30 2819 C 281.17 -5.15551 0.765308 0
M  V30 2820 C 278.498 -5.71066 1.34536 0
M  V30 2821 C 280.85 -6.07724 1.75654 0
M  V30 2822 C 279.514 -6.35199 2.05132 0
M  V30 2823 H 278.784 -0.720869 -0.17155 0
M  V30 2824 H 281.431 -1.89616 0.267924 0
M  V30 2825 H 279.736 -3.47772 -1.80449 0
M  V30 2826 H 281.433 -3.72002 -1.49719 0
M  V30 2827 H 278.023 -4.28229 -0.178381 0
M  V30 2828 H 282.207 -4.9317 0.556513 0
M  V30 2829 H 277.463 -5.90635 1.57988 0
M  V30 2830 H 281.637 -6.56912 2.31169 0
M  V30 2831 H 279.264 -7.05584 2.8294 0
M  V30 2832 N 280.839 0.0985539 -1.57292 0
M  V30 2833 C 282.067 0.816318 -1.90115 0
M  V30 2834 C 282.482 1.72451 -0.768509 0
M  V30 2835 O 281.839 1.80643 0.259687 0
M  V30 2836 C 281.89 1.63259 -3.22535 0
M  V30 2837 O 281.611 0.760934 -4.31441 0
M  V30 2838 C 283.112 2.45372 -3.69199 0
M  V30 2839 H 280.332 0.233595 -0.629027 0
M  V30 2840 H 282.876 0.0768229 -2.04356 0
M  V30 2841 H 281.031 2.32463 -3.09903 0
M  V30 2842 H 281.445 1.32595 -5.07463 0
M  V30 2843 H 282.919 2.98144 -4.64558 0
M  V30 2844 H 283.396 3.23677 -2.96867 0
M  V30 2845 H 284.002 1.81373 -3.84687 0
M  V30 2846 N 282.317 1.53212 0.369288 0
M  V30 2847 C 283.542 1.73423 1.1375 0
M  V30 2848 C 283.967 0.460404 1.82378 0
M  V30 2849 O 283.325 -0.585298 1.71592 0
M  V30 2850 C 283.373 2.89769 2.1463 0
M  V30 2851 O 282.477 2.58119 3.21634 0
M  V30 2852 H 281.818 0.576061 0.330227 0
M  V30 2853 H 284.348 2.00083 0.427547 0
M  V30 2854 H 284.358 3.15829 2.58294 0
M  V30 2855 H 283.033 3.8217 1.64071 0
M  V30 2856 H 281.61 2.42864 2.82969 0
M  V30 2857 N 283.795 -0.628877 1.44509 0
M  V30 2858 C 285.02 -1.42048 1.5112 0
M  V30 2859 C 285.445 -1.87594 0.137818 0
M  V30 2860 O 284.803 -1.58873 -0.873437 0
M  V30 2861 C 284.851 -2.61541 2.48251 0
M  V30 2862 O 283.955 -3.61453 1.98559 0
M  V30 2863 H 283.296 -0.424942 0.510216 0
M  V30 2864 H 285.826 -0.767374 1.89664 0
M  V30 2865 H 285.836 -3.09057 2.66361 0
M  V30 2866 H 284.511 -2.27736 3.48007 0
M  V30 2867 H 283.088 -3.20731 1.90227 0
M  V30 2868 N 285.273 -1.31445 -0.869486 0
M  V30 2869 C 286.203 -1.21727 -1.99261 0
M  V30 2870 C 287.184 -0.104359 -1.6978 0
M  V30 2871 O 288.369 -0.289038 -1.92037 0
M  V30 2872 C 285.499 -0.924317 -3.34774 0
M  V30 2873 C 284.453 -1.99685 -3.78563 0
M  V30 2874 C 283.779 -1.55658 -5.11541 0
M  V30 2875 C 285.079 -3.41003 -3.95619 0
M  V30 2876 H 286.773 -2.1569 -2.07649 0
M  V30 2877 H 284.319 -1.03839 -0.997675 0
M  V30 2878 H 286.272 -0.842934 -4.12883 0
M  V30 2879 H 284.996 0.0509793 -3.2656 0
M  V30 2880 H 283.655 -2.06813 -3.02694 0
M  V30 2881 H 283.303 -0.569132 -4.9977 0
M  V30 2882 H 283.003 -2.27409 -5.41811 0
M  V30 2883 H 284.527 -1.48928 -5.92159 0
M  V30 2884 H 285.941 -3.36547 -4.64122 0
M  V30 2885 H 284.338 -4.10975 -4.37286 0
M  V30 2886 H 285.408 -3.81754 -2.98985 0
M  V30 2887 N 286.751 1.08385 -1.14413 0
M  V30 2888 C 287.976 1.85057 -0.936413 0
M  V30 2889 C 288.401 1.81055 0.509971 0
M  V30 2890 O 287.759 1.1958 1.36273 0
M  V30 2891 C 287.807 3.30505 -1.44217 0
M  V30 2892 O 286.911 4.07491 -0.634409 0
M  V30 2893 H 286.252 0.573425 -0.334784 0
M  V30 2894 H 288.782 1.36799 -1.52142 0
M  V30 2895 H 288.792 3.81348 -1.45043 0
M  V30 2896 H 287.467 3.32734 -2.49522 0
M  V30 2897 H 286.044 3.66368 -0.694902 0
M  V30 2898 N 288.23 0.939286 1.26551 0
M  V30 2899 C 289.16 0.465044 2.28822 0
M  V30 2900 C 290.141 -0.480692 1.63167 0
M  V30 2901 O 291.326 -0.382955 1.90387 0
M  V30 2902 C 288.456 -0.27234 3.46231 0
M  V30 2903 C 287.41 0.58666 4.2396 0
M  V30 2904 C 286.736 -0.280573 5.33963 0
M  V30 2905 C 288.036 1.85704 4.88171 0
M  V30 2906 H 289.73 1.31979 2.68741 0
M  V30 2907 H 287.276 0.636061 1.29191 0
M  V30 2908 H 289.229 -0.615133 4.16886 0
M  V30 2909 H 287.953 -1.16121 3.0526 0
M  V30 2910 H 286.612 0.91232 3.55067 0
M  V30 2911 H 286.26 -1.16874 4.89234 0
M  V30 2912 H 285.96 0.29076 5.8688 0
M  V30 2913 H 287.484 -0.618678 6.07458 0
M  V30 2914 H 288.898 1.58161 5.51052 0
M  V30 2915 H 287.295 2.37279 5.51197 0
M  V30 2916 H 288.365 2.56957 4.11219 0
M  V30 2917 N 289.708 -1.40897 0.706093 0
M  V30 2918 C 291.124 -1.55042 0.37869 0
M  V30 2919 C 291.324 -1.67944 -1.11342 0
M  V30 2920 O 290.38 -1.66372 -1.89938 0
M  V30 2921 C 291.693 -2.78398 1.13643 0
M  V30 2922 C 293.241 -2.92206 1.12181 0
M  V30 2923 C 293.716 -4.18463 1.86152 0
M  V30 2924 N 295.207 -4.25443 1.83173 0
M  V30 2925 C 295.942 -5.2202 2.37239 0
M  V30 2926 N 295.438 -6.24563 2.99821 0
M  V30 2927 N 297.231 -5.14033 2.27435 0
M  V30 2928 H 289.382 -1.30769 1.67372 0
M  V30 2929 H 291.645 -0.631653 0.706907 0
M  V30 2930 H 291.351 -2.7511 2.19106 0
M  V30 2931 H 291.225 -3.70228 0.721853 0
M  V30 2932 H 293.612 -2.95004 0.0754171 0
M  V30 2933 H 293.693 -2.01521 1.57554 0
M  V30 2934 H 293.337 -4.16427 2.90776 0
M  V30 2935 H 293.267 -5.08141 1.38206 0
M  V30 2936 H 295.758 -3.51976 1.37556 0
M  V30 2937 H 296.071 -6.94665 3.38616 0
M  V30 2938 H 294.416 -6.25035 3.03902 0
M  V30 2939 H 297.607 -4.3285 1.78208 0
M  V30 2940 H 297.78 -5.89129 2.69873 0
M  V30 2941 N 291.186 -0.45159 -1.50991 0
M  V30 2942 C 292.416 0.108177 -2.06317 0
M  V30 2943 C 292.824 1.35774 -1.31765 0
M  V30 2944 O 292.167 1.79838 -0.374694 0
M  V30 2945 C 292.229 0.481659 -3.56259 0
M  V30 2946 C 291.893 -0.663114 -4.52163 0
M  V30 2947 C 292.89 -1.53947 -4.96585 0
M  V30 2948 C 290.575 -0.8479 -4.95092 0
M  V30 2949 C 292.569 -2.58518 -5.82621 0
M  V30 2950 C 290.256 -1.89686 -5.80915 0
M  V30 2951 C 291.254 -2.76388 -6.24579 0
M  V30 2952 O 290.942 -3.79482 -7.08695 0
M  V30 2953 H 290.674 0.00499183 -0.675982 0
M  V30 2954 H 293.228 -0.633659 -1.95381 0
M  V30 2955 H 291.458 1.27641 -3.65027 0
M  V30 2956 H 293.147 0.974233 -3.94035 0
M  V30 2957 H 293.913 -1.4083 -4.64103 0
M  V30 2958 H 289.792 -0.18258 -4.60638 0
M  V30 2959 H 293.336 -3.26224 -6.16623 0
M  V30 2960 H 289.233 -2.02817 -6.12809 0
M  V30 2961 H 290.001 -3.76234 -7.26905 0
M  V30 2962 N 292.664 1.56529 -0.183458 0
M  V30 2963 C 293.911 1.97244 0.458357 0
M  V30 2964 C 294.239 1.06992 1.62428 0
M  V30 2965 O 293.494 0.106542 1.9541 0
M  V30 2966 C 293.793 3.43939 0.971637 0
M  V30 2967 C 293.459 4.5083 -0.0796784 0
M  V30 2968 C 292.121 4.79786 -0.368584 0
M  V30 2969 C 294.473 5.15138 -0.792638 0
M  V30 2970 C 291.801 5.70345 -1.37563 0
M  V30 2971 C 294.153 6.06784 -1.78875 0
M  V30 2972 C 292.817 6.34102 -2.08497 0
M  V30 2973 H 292.087 0.721768 0.167725 0
M  V30 2974 H 294.734 1.89472 -0.277976 0
M  V30 2975 H 293.039 3.48724 1.78602 0
M  V30 2976 H 294.736 3.72791 1.47744 0
M  V30 2977 H 291.326 4.28317 0.155668 0
M  V30 2978 H 295.51 4.92868 -0.582659 0
M  V30 2979 H 290.766 5.89789 -1.61118 0
M  V30 2980 H 294.94 6.55677 -2.3465 0
M  V30 2981 H 292.567 7.04074 -2.86678 0
M  V30 2982 N 294.142 -0.090211 1.57342 0
M  V30 2983 C 295.37 -0.806224 1.90546 0
M  V30 2984 C 295.785 -1.72041 0.777644 0
M  V30 2985 O 295.142 -1.80778 -0.250103 0
M  V30 2986 C 295.193 -1.61546 3.23396 0
M  V30 2987 O 294.914 -0.738043 4.31839 0
M  V30 2988 C 296.415 -2.4341 3.70495 0
M  V30 2989 H 293.635 -0.230256 0.630257 0
M  V30 2990 H 296.179 -0.0659843 2.04394 0
M  V30 2991 H 294.334 -2.30816 3.11131 0
M  V30 2992 H 294.748 -1.29901 5.08159 0
M  V30 2993 H 296.222 -2.95676 4.66133 0
M  V30 2994 H 296.699 -3.22098 2.98579 0
M  V30 2995 H 297.305 -1.79331 3.85643 0
M  V30 2996 N 295.62 -1.53406 -0.361157 0
M  V30 2997 C 296.85 -1.73465 -1.1222 0
M  V30 2998 C 297.258 -0.465486 -1.83384 0
M  V30 2999 O 296.601 0.571611 -1.7458 0
M  V30 3000 C 296.663 -2.84834 -2.19339 0
M  V30 3001 C 296.327 -4.25038 -1.67903 0
M  V30 3002 C 297.324 -5.07231 -1.14074 0
M  V30 3003 C 295.009 -4.71464 -1.73282 0
M  V30 3004 C 297.003 -6.33942 -0.663068 0
M  V30 3005 C 294.69 -5.98153 -1.25127 0
M  V30 3006 C 295.688 -6.79223 -0.717296 0
M  V30 3007 O 295.376 -8.03533 -0.242865 0
M  V30 3008 H 295.108 -0.583526 -0.341283 0
M  V30 3009 H 297.662 -2.00964 -0.424591 0
M  V30 3010 H 295.892 -2.5282 -2.92607 0
M  V30 3011 H 297.581 -2.9303 -2.80871 0
M  V30 3012 H 298.347 -4.72534 -1.09254 0
M  V30 3013 H 294.226 -4.08432 -2.13786 0
M  V30 3014 H 297.77 -6.97167 -0.245612 0
M  V30 3015 H 293.667 -6.32347 -1.29642 0
M  V30 3016 H 294.435 -8.177 -0.361786 0
M  V30 3017 N 297.098 0.621204 -1.44841 0
M  V30 3018 C 298.346 1.37783 -1.47852 0
M  V30 3019 C 298.667 1.94653 -0.116224 0
M  V30 3020 O 297.937 1.76367 0.852737 0
M  V30 3021 H 296.517 0.511453 -0.544449 0
M  V30 3022 H 299.179 0.730446 -1.80694 0
M  V30 3023 H 298.275 2.20414 -2.20961 0
M  V30 3024 N 298.576 1.31904 0.862503 0
M  V30 3025 C 299.825 1.21373 1.61094 0
M  V30 3026 C 300.138 -0.22504 1.94301 0
M  V30 3027 O 301.344 -0.452121 2.67709 0
M  V30 3028 C 299.8 2.12525 2.9045 0
M  V30 3029 C 299.408 3.61441 2.64697 0
M  V30 3030 C 301.152 2.10813 3.68454 0
M  V30 3031 C 299.059 4.44578 3.90006 0
M  V30 3032 H 297.989 0.450705 0.604468 0
M  V30 3033 H 300.64 1.56811 0.953027 0
M  V30 3034 H 299.022 1.69994 3.57656 0
M  V30 3035 H 300.196 4.12264 2.05851 0
M  V30 3036 H 298.511 3.65205 2.00036 0
M  V30 3037 H 301.108 2.70167 4.61426 0
M  V30 3038 H 301.451 1.09713 4.01583 0
M  V30 3039 H 301.984 2.51583 3.08141 0
M  V30 3040 H 298.723 5.46461 3.62023 0
M  V30 3041 H 298.243 3.98508 4.48276 0
M  V30 3042 H 299.922 4.57176 4.5782 0
M  V30 3043 N 300.054 -1.07777 1.14986 0
M  V30 3044 C 300.984 -2.16865 0.865557 0
M  V30 3045 C 301.965 -1.69123 -0.182083 0
M  V30 3046 O 303.15 -1.94164 -0.0373815 0
M  V30 3047 C 300.28 -3.45539 0.349313 0
M  V30 3048 C 299.234 -4.06708 1.33313 0
M  V30 3049 C 298.56 -5.30411 0.675918 0
M  V30 3050 C 299.86 -4.47241 2.69764 0
M  V30 3051 H 301.554 -2.40905 1.77778 0
M  V30 3052 H 299.1 -1.15781 0.856203 0
M  V30 3053 H 301.053 -4.21174 0.137983 0
M  V30 3054 H 299.777 -3.21072 -0.598362 0
M  V30 3055 H 298.436 -3.33112 1.53075 0
M  V30 3056 H 298.084 -5.02232 -0.277767 0
M  V30 3057 H 297.784 -5.72293 1.33244 0
M  V30 3058 H 299.308 -6.08755 0.474262 0
M  V30 3059 H 300.722 -5.14025 2.53873 0
M  V30 3060 H 299.119 -5.00062 3.3175 0
M  V30 3061 H 300.189 -3.58818 3.26156 0
M  V30 3062 N 301.532 -0.945985 -1.26051 0
M  V30 3063 C 302.779 -0.596118 -1.93527 0
M  V30 3064 C 303.107 0.865559 -1.74179 0
M  V30 3065 O 302.362 1.63524 -1.0751 0
M  V30 3066 C 302.661 -0.890475 -3.46129 0
M  V30 3067 C 302.327 -2.3368 -3.85622 0
M  V30 3068 C 300.989 -2.73216 -3.96114 0
M  V30 3069 C 303.341 -3.27648 -4.05334 0
M  V30 3070 C 300.669 -4.05806 -4.2372 0
M  V30 3071 C 303.021 -4.59841 -4.3443 0
M  V30 3072 C 301.685 -4.99185 -4.43137 0
M  V30 3073 H 300.955 -0.218135 -0.708165 0
M  V30 3074 H 303.602 -1.1934 -1.49768 0
M  V30 3075 H 301.907 -0.210711 -3.91233 0
M  V30 3076 H 303.604 -0.598478 -3.96509 0
M  V30 3077 H 300.194 -2.02015 -3.78005 0
M  V30 3078 H 304.378 -2.98298 -3.96651 0
M  V30 3079 H 299.634 -4.35945 -4.28675 0
M  V30 3080 H 303.808 -5.32641 -4.48628 0
M  V30 3081 H 301.435 -6.01952 -4.64282 0
M  V30 3082 N 303.011 1.40521 -0.713556 0
M  V30 3083 C 304.259 2.00527 -0.251692 0
M  V30 3084 C 304.58 1.56857 1.15848 0
M  V30 3085 O 303.85 0.807127 1.785 0
M  V30 3086 H 302.43 0.741551 -0.0900646 0
M  V30 3087 H 305.092 1.71887 -0.918733 0
M  V30 3088 H 304.188 3.10813 -0.283192 0
M  V30 3089 N 304.489 0.459591 1.5075 0
M  V30 3090 C 305.729 -0.09824 2.04164 0
M  V30 3091 C 306.093 -1.3801 1.33481 0
M  V30 3092 O 307.294 -2.01959 1.77387 0
M  V30 3093 C 305.565 -0.289467 3.56226 0
M  V30 3094 S 307.124 -0.807507 4.31306 0
M  V30 3095 H 303.942 -0.0213845 0.710678 0
M  V30 3096 H 306.544 0.624098 1.85271 0
M  V30 3097 H 305.248 0.649461 4.05229 0
M  V30 3098 H 304.779 -1.03825 3.79452 0
M  V30 3099 H 306.794 -2.0824 4.50389 0
M  V30 3100 N 305.967 -1.56429 0.191757 0
M  V30 3101 C 307.215 -1.97095 -0.447006 0
M  V30 3102 C 307.536 -1.07967 -1.62383 0
M  V30 3103 O 306.806 -0.150248 -1.95323 0
M  V30 3104 H 305.386 -0.727832 -0.168135 0
M  V30 3105 H 308.048 -1.92911 0.27771 0
M  V30 3106 H 307.144 -3.01848 -0.793371 0
M  V30 3107 N 307.445 0.0818655 -1.57387 0
M  V30 3108 C 308.685 0.788375 -1.88584 0
M  V30 3109 C 309.049 1.75248 -0.784351 0
M  V30 3110 O 310.25 2.50334 -0.979105 0
M  V30 3111 C 308.521 1.48654 -3.25018 0
M  V30 3112 S 310.08 2.22951 -3.7794 0
M  V30 3113 H 306.898 0.262383 -0.660815 0
M  V30 3114 H 309.5 0.0448995 -1.95448 0
M  V30 3115 H 308.204 0.770919 -4.03094 0
M  V30 3116 H 307.735 2.26965 -3.21326 0
M  V30 3117 H 309.75 3.49309 -3.52417 0
M  V30 3118 N 308.923 1.53595 0.353017 0
M  V30 3119 C 310.148 1.7462 1.11904 0
M  V30 3120 C 310.573 0.479721 1.8188 0
M  V30 3121 O 309.931 -0.567066 1.72204 0
M  V30 3122 C 309.979 2.92029 2.11545 0
M  V30 3123 O 309.083 2.61516 3.18878 0
M  V30 3124 H 308.424 0.579531 0.324099 0
M  V30 3125 H 310.954 2.00525 0.406301 0
M  V30 3126 H 310.964 3.18551 2.5493 0
M  V30 3127 H 309.639 3.83888 1.60008 0
M  V30 3128 H 308.216 2.45852 2.80377 0
M  V30 3129 N 310.401 -0.613514 1.45168 0
M  V30 3130 C 311.648 -1.37268 1.48875 0
M  V30 3131 C 311.976 -1.94077 0.128161 0
M  V30 3132 O 311.231 -1.75178 -0.872416 0
M  V30 3133 C 311.53 -2.54347 2.51083 0
M  V30 3134 C 311.196 -2.1572 3.95949 0
M  V30 3135 C 309.858 -2.04899 4.35396 0
M  V30 3136 C 312.21 -1.85485 4.87078 0
M  V30 3137 C 309.538 -1.62057 5.63875 0
M  V30 3138 C 311.89 -1.4413 6.15962 0
M  V30 3139 C 310.554 -1.31863 6.54346 0
M  V30 3140 H 309.824 -0.502299 0.544773 0
M  V30 3141 H 312.471 -0.694021 1.78481 0
M  V30 3142 H 310.776 -3.27524 2.15024 0
M  V30 3143 H 312.473 -3.12577 2.51191 0
M  V30 3144 H 309.063 -2.25066 3.64751 0
M  V30 3145 H 313.247 -1.92745 4.57343 0
M  V30 3146 H 308.503 -1.51177 5.92415 0
M  V30 3147 H 312.677 -1.19778 6.86022 0
M  V30 3148 H 310.304 -0.984392 7.538 0
M  V30 3149 N 311.879 -1.3236 -0.855495 0
M  V30 3150 C 312.842 -1.21164 -1.94556 0
M  V30 3151 C 313.842 -0.134908 -1.60233 0
M  V30 3152 O 315.032 -0.385249 -1.69887 0
M  V30 3153 C 312.164 -0.863192 -3.29791 0
M  V30 3154 H 313.357 -2.18038 -2.05911 0
M  V30 3155 H 310.91 -1.16179 -1.04557 0
M  V30 3156 H 311.645 0.103769 -3.24134 0
M  V30 3157 H 311.43 -1.64166 -3.56078 0
M  V30 3158 H 312.92 -0.809156 -4.09686 0
M  V30 3159 N 313.357 1.07166 -1.15556 0
M  V30 3160 C 314.604 1.79798 -0.931604 0
M  V30 3161 C 314.932 1.8682 0.54115 0
M  V30 3162 O 314.187 1.34942 1.41736 0
M  V30 3163 C 314.486 3.24707 -1.49332 0
M  V30 3164 C 314.152 3.37781 -2.98688 0
M  V30 3165 C 312.814 3.41057 -3.39461 0
M  V30 3166 C 315.166 3.40424 -3.94665 0
M  V30 3167 C 312.494 3.4458 -4.74849 0
M  V30 3168 C 314.846 3.45485 -5.29927 0
M  V30 3169 C 313.51 3.47039 -5.70193 0
M  V30 3170 H 312.78 0.657928 -0.340898 0
M  V30 3171 H 315.427 1.26091 -1.44129 0
M  V30 3172 H 313.732 3.81208 -0.904859 0
M  V30 3173 H 315.429 3.79486 -1.29582 0
M  V30 3174 H 312.019 3.35932 -2.66172 0
M  V30 3175 H 316.203 3.37113 -3.64237 0
M  V30 3176 H 311.459 3.44083 -5.05388 0
M  V30 3177 H 315.633 3.46476 -6.04092 0
M  V30 3178 H 313.26 3.49522 -6.75084 0
M  V30 3179 N 314.835 0.952656 1.25548 0
M  V30 3180 C 315.767 0.428609 2.25157 0
M  V30 3181 C 316.78 -0.454428 1.56329 0
M  V30 3182 O 317.969 -0.263023 1.76552 0
M  V30 3183 C 315.069 -0.401972 3.36508 0
M  V30 3184 C 314.242 0.467601 4.34893 0
M  V30 3185 C 313.301 -0.30445 5.25319 0
M  V30 3186 O 312.327 0.296473 5.68427 0
M  V30 3187 N 313.529 -1.59805 5.5807 0
M  V30 3188 H 316.294 1.28497 2.70756 0
M  V30 3189 H 313.855 0.822798 1.39433 0
M  V30 3190 H 315.847 -0.926134 3.9396 0
M  V30 3191 H 314.417 -1.15918 2.90313 0
M  V30 3192 H 313.637 1.17288 3.76347 0
M  V30 3193 H 314.925 1.06119 4.97611 0
M  V30 3194 H 314.323 -2.10823 5.24948 0
M  V30 3195 H 312.88 -2.06822 6.18116 0
M  V30 3196 N 316.313 -1.40141 0.720998 0
M  V30 3197 C 317.724 -1.83678 0.334553 0
M  V30 3198 C 318.075 -1.6027 -1.13173 0
M  V30 3199 O 317.2 -1.08643 -1.87152 0
M  V30 3200 C 317.795 -3.33437 0.600437 0
M  V30 3201 C 316.354 -3.75447 0.267642 0
M  V30 3202 C 315.501 -2.63296 0.870097 0
M  V30 3203 H 318.452 -1.29331 0.919732 0
M  V30 3204 H 318.473 -3.80269 -0.132517 0
M  V30 3205 H 317.985 -3.50442 1.66768 0
M  V30 3206 H 316.086 -3.64035 -0.794329 0
M  V30 3207 H 316.199 -4.73344 0.74042 0
M  V30 3208 H 314.563 -2.52954 0.297739 0
M  V30 3209 H 315.346 -2.83112 1.94172 0
M  V30 3210 N 317.792 -0.46758 -1.50504 0
M  V30 3211 C 319.017 0.0886943 -2.0721 0
M  V30 3212 C 319.442 1.33057 -1.32956 0
M  V30 3213 O 318.8 1.77354 -0.376197 0
M  V30 3214 C 318.848 0.359202 -3.58806 0
M  V30 3215 O 317.952 1.44034 -3.8643 0
M  V30 3216 H 317.293 -0.0114349 -0.663902 0
M  V30 3217 H 319.823 -0.657613 -1.93744 0
M  V30 3218 H 319.833 0.600742 -4.03553 0
M  V30 3219 H 318.508 -0.548311 -4.1227 0
M  V30 3220 H 317.085 1.18638 -3.53524 0
M  V30 3221 N 319.27 1.56325 -0.20005 0
M  V30 3222 C 320.2 2.22318 0.713916 0
M  V30 3223 C 321.181 1.18788 1.21752 0
M  V30 3224 O 322.366 1.47309 1.26545 0
M  V30 3225 C 319.496 2.88639 1.93144 0
M  V30 3226 C 318.45 3.98457 1.56255 0
M  V30 3227 C 317.776 4.51967 2.85709 0
M  V30 3228 C 319.076 5.16612 0.768747 0
M  V30 3229 H 320.77 2.98952 0.163755 0
M  V30 3230 H 318.316 1.43792 0.0773219 0
M  V30 3231 H 320.269 3.33491 2.57608 0
M  V30 3232 H 318.993 2.09419 2.50621 0
M  V30 3233 H 317.652 3.54305 0.941471 0
M  V30 3234 H 317.3 3.69503 3.41287 0
M  V30 3235 H 317 5.26071 2.6177 0
M  V30 3236 H 318.524 4.99523 3.51154 0
M  V30 3237 H 319.938 5.57977 1.3166 0
M  V30 3238 H 318.335 5.96812 0.627286 0
M  V30 3239 H 319.405 4.84358 -0.229168 0
M  V30 3240 N 320.748 -0.0735177 1.57428 0
M  V30 3241 C 321.994 -0.774145 1.87443 0
M  V30 3242 C 322.327 -1.77311 0.792103 0
M  V30 3243 O 321.602 -1.93492 -0.197793 0
M  V30 3244 C 321.885 -1.48367 3.28115 0
M  V30 3245 C 321.738 -0.501227 4.46999 0
M  V30 3246 C 323.057 -2.429 3.66998 0
M  V30 3247 H 320.176 -0.279971 0.681752 0
M  V30 3248 H 322.818 -0.0373616 1.89963 0
M  V30 3249 H 320.968 -2.11171 3.26097 0
M  V30 3250 H 322.64 0.121468 4.6114 0
M  V30 3251 H 320.883 0.183593 4.33411 0
M  V30 3252 H 321.554 -1.03526 5.42205 0
M  V30 3253 H 324.03 -1.90175 3.70098 0
M  V30 3254 H 322.906 -2.89549 4.66318 0
M  V30 3255 H 323.167 -3.27628 2.96837 0
M  V30 3256 N 322.226 -1.5378 -0.344866 0
M  V30 3257 C 323.475 -1.7018 -1.08267 0
M  V30 3258 C 323.788 -0.471 -1.89845 0
M  V30 3259 O 324.994 -0.515917 -2.66553 0
M  V30 3260 C 323.45 -3.00923 -1.97417 0
M  V30 3261 C 323.058 -4.31335 -1.21053 0
M  V30 3262 C 324.802 -3.26688 -2.71063 0
M  V30 3263 C 322.709 -5.53153 -2.09225 0
M  V30 3264 H 321.639 -0.634138 -0.407903 0
M  V30 3265 H 324.29 -1.8028 -0.342246 0
M  V30 3266 H 322.672 -2.84676 -2.75274 0
M  V30 3267 H 323.846 -4.58281 -0.481159 0
M  V30 3268 H 322.161 -4.12173 -0.591813 0
M  V30 3269 H 324.758 -4.1489 -3.37299 0
M  V30 3270 H 325.101 -2.43639 -3.37558 0
M  V30 3271 H 325.634 -3.43705 -2.0028 0
M  V30 3272 H 322.373 -6.38741 -1.47274 0
M  V30 3273 H 321.893 -5.30458 -2.79955 0
M  V30 3274 H 323.572 -5.88744 -2.68308 0
M  V30 3275 N 323.704 0.605807 -1.45491 0
M  V30 3276 C 324.634 1.72709 -1.57143 0
M  V30 3277 C 325.615 1.6476 -0.422884 0
M  V30 3278 O 326.8 1.83132 -0.646247 0
M  V30 3279 C 323.93 3.11316 -1.53948 0
M  V30 3280 C 322.884 3.34077 -2.67537 0
M  V30 3281 C 322.21 4.72975 -2.49397 0
M  V30 3282 C 323.51 3.24158 -4.09535 0
M  V30 3283 H 325.204 1.63214 -2.51001 0
M  V30 3284 H 322.75 0.78379 -1.208 0
M  V30 3285 H 324.703 3.89557 -1.60696 0
M  V30 3286 H 323.427 3.21655 -0.566205 0
M  V30 3287 H 322.086 2.58227 -2.6022 0
M  V30 3288 H 321.734 4.8005 -1.50205 0
M  V30 3289 H 321.434 4.8916 -3.25571 0
M  V30 3290 H 322.958 5.53414 -2.58002 0
M  V30 3291 H 324.372 3.92271 -4.18086 0
M  V30 3292 H 322.769 3.51872 -4.86113 0
M  V30 3293 H 323.839 2.2157 -4.31317 0
M  V30 3294 N 325.182 1.32811 0.848464 0
M  V30 3295 C 326.43 1.23479 1.59991 0
M  V30 3296 C 326.751 -0.201853 1.93952 0
M  V30 3297 O 326.021 -1.12818 1.60153 0
M  V30 3298 H 324.601 0.454034 0.593179 0
M  V30 3299 H 327.263 1.66412 1.01455 0
M  V30 3300 H 326.359 1.82178 2.53412 0
M  V30 3301 N 326.66 -1.06551 1.16123 0
M  V30 3302 C 327.61 -2.12209 0.833736 0
M  V30 3303 C 328.594 -1.59825 -0.185656 0
M  V30 3304 O 329.786 -1.76994 0.0147906 0
M  V30 3305 C 326.915 -3.41674 0.333697 0
M  V30 3306 C 326.001 -4.00892 1.38372 0
M  V30 3307 N 326.392 -4.34256 2.59337 0
M  V30 3308 C 324.69 -4.28463 1.23836 0
M  V30 3309 C 325.391 -4.81291 3.26701 0
M  V30 3310 N 324.367 -4.80565 2.54083 0
M  V30 3311 H 328.169 -2.35849 1.75364 0
M  V30 3312 H 325.683 -1.24068 1.04789 0
M  V30 3313 H 327.68 -4.16822 0.0806918 0
M  V30 3314 H 326.34 -3.19475 -0.58017 0
M  V30 3315 H 327.351 -4.24687 2.96415 0
M  V30 3316 H 324.028 -4.15721 0.38504 0
M  V30 3317 H 325.418 -5.16332 4.29943 0
M  V30 3318 N 328.138 -0.959301 -1.25041 0
M  V30 3319 C 329.368 -0.63303 -1.96663 0
M  V30 3320 C 329.776 0.800031 -1.71453 0
M  V30 3321 O 329.119 1.54736 -0.99008 0
M  V30 3322 C 329.181 -0.817523 -3.50081 0
M  V30 3323 C 328.845 -2.22863 -3.98975 0
M  V30 3324 C 329.842 -3.20569 -4.09306 0
M  V30 3325 C 327.527 -2.55407 -4.32519 0
M  V30 3326 C 329.521 -4.4891 -4.52503 0
M  V30 3327 C 327.208 -3.83976 -4.754 0
M  V30 3328 C 328.206 -4.8054 -4.85356 0
M  V30 3329 O 327.894 -6.06817 -5.27284 0
M  V30 3330 H 327.626 -0.235866 -0.633516 0
M  V30 3331 H 330.18 -1.2874 -1.60047 0
M  V30 3332 H 328.41 -0.105992 -3.86555 0
M  V30 3333 H 330.099 -0.491604 -4.02912 0
M  V30 3334 H 330.865 -2.96753 -3.83618 0
M  V30 3335 H 326.744 -1.8097 -4.23994 0
M  V30 3336 H 330.288 -5.24283 -4.60188 0
M  V30 3337 H 326.185 -4.07596 -5.00535 0
M  V30 3338 H 326.953 -6.10262 -5.45457 0
M  V30 3339 N 329.616 1.39756 -0.72842 0
M  V30 3340 C 330.863 2.00645 -0.273487 0
M  V30 3341 C 331.191 1.57786 1.13727 0
M  V30 3342 O 330.446 0.794886 1.7883 0
M  V30 3343 C 330.745 3.56002 -0.315776 0
M  V30 3344 C 330.411 4.18489 -1.67863 0
M  V30 3345 C 329.073 4.3527 -2.05166 0
M  V30 3346 C 331.425 4.53219 -2.57375 0
M  V30 3347 C 328.753 4.84069 -3.31503 0
M  V30 3348 C 331.105 5.03423 -3.83077 0
M  V30 3349 C 329.769 5.18413 -4.20481 0
M  V30 3350 H 329.039 0.734211 -0.100076 0
M  V30 3351 H 331.686 1.6718 -0.933972 0
M  V30 3352 H 329.991 3.89452 0.428285 0
M  V30 3353 H 331.688 4.00963 0.0542575 0
M  V30 3354 H 328.278 4.05824 -1.37858 0
M  V30 3355 H 332.462 4.39878 -2.29827 0
M  V30 3356 H 327.718 4.93859 -3.60435 0
M  V30 3357 H 331.892 5.2927 -4.52599 0
M  V30 3358 H 329.519 5.55987 -5.18443 0
M  V30 3359 N 331.094 0.475555 1.50254 0
M  V30 3360 C 332.026 -0.352649 2.26471 0
M  V30 3361 C 333.039 -0.953165 1.3198 0
M  V30 3362 O 334.228 -0.840815 1.57457 0
M  V30 3363 C 331.328 -1.50902 3.0345 0
M  V30 3364 C 330.501 -1.02047 4.25329 0
M  V30 3365 C 329.56 -2.05142 4.84565 0
M  V30 3366 O 328.586 -1.63023 5.45355 0
M  V30 3367 N 329.788 -3.37987 4.71959 0
M  V30 3368 H 332.553 0.300767 2.98187 0
M  V30 3369 H 330.114 0.306598 1.5897 0
M  V30 3370 H 332.106 -2.19572 3.39956 0
M  V30 3371 H 330.676 -2.06705 2.34504 0
M  V30 3372 H 329.896 -0.159507 3.93877 0
M  V30 3373 H 331.184 -0.672061 5.04342 0
M  V30 3374 H 330.582 -3.74913 4.23623 0
M  V30 3375 H 329.139 -4.02443 5.12721 0
M  V30 3376 N 332.573 -1.56217 0.208337 0
M  V30 3377 C 333.989 -1.58919 -0.14729 0
M  V30 3378 C 334.189 -1.22486 -1.59998 0
M  V30 3379 O 333.245 -0.953849 -2.3379 0
M  V30 3380 C 334.558 -3.00236 0.167048 0
M  V30 3381 C 336.106 -3.12813 0.108219 0
M  V30 3382 C 336.581 -4.56284 0.396049 0
M  V30 3383 N 338.072 -4.61912 0.345142 0
M  V30 3384 C 338.807 -5.70837 0.541523 0
M  V30 3385 N 338.303 -6.88178 0.798968 0
M  V30 3386 N 340.096 -5.60091 0.474867 0
M  V30 3387 H 332.247 -1.78177 1.15614 0
M  V30 3388 H 334.51 -0.827555 0.462446 0
M  V30 3389 H 334.216 -3.31499 1.1748 0
M  V30 3390 H 334.09 -3.7354 -0.524184 0
M  V30 3391 H 336.477 -2.81354 -0.890157 0
M  V30 3392 H 336.558 -2.41866 0.832729 0
M  V30 3393 H 336.202 -4.88458 1.3918 0
M  V30 3394 H 336.132 -5.25439 -0.349502 0
M  V30 3395 H 338.623 -3.77589 0.153316 0
M  V30 3396 H 338.936 -7.67095 0.93727 0
M  V30 3397 H 337.281 -6.89953 0.836013 0
M  V30 3398 H 340.472 -4.67297 0.274064 0
M  V30 3399 H 340.645 -6.44917 0.631326 0
M  V30 3400 N 334.051 0.0651679 -1.57465 0
M  V30 3401 C 335.467 0.420105 -1.53972 0
M  V30 3402 C 335.667 1.78782 -0.929474 0
M  V30 3403 O 334.723 2.46771 -0.534839 0
M  V30 3404 C 336.036 0.355084 -2.98596 0
M  V30 3405 C 337.584 0.434792 -3.09965 0
M  V30 3406 C 338.059 0.399609 -4.56253 0
M  V30 3407 N 339.55 0.459488 -4.60915 0
M  V30 3408 C 340.285 0.454584 -5.71595 0
M  V30 3409 N 339.781 0.404102 -6.9162 0
M  V30 3410 N 341.574 0.501635 -5.59857 0
M  V30 3411 H 333.725 -0.830328 -1.95498 0
M  V30 3412 H 335.988 -0.312244 -0.895102 0
M  V30 3413 H 335.694 -0.583357 -3.46828 0
M  V30 3414 H 335.568 1.16275 -3.58831 0
M  V30 3415 H 337.955 1.36366 -2.61703 0
M  V30 3416 H 338.036 -0.40157 -2.52628 0
M  V30 3417 H 337.68 -0.525436 -5.05175 0
M  V30 3418 H 337.61 1.25359 -5.11461 0
M  V30 3419 H 340.101 0.502482 -3.74544 0
M  V30 3420 H 340.414 0.404468 -7.71741 0
M  V30 3421 H 338.759 0.37069 -6.94011 0
M  V30 3422 H 341.95 0.538812 -4.64989 0
M  V30 3423 H 342.123 0.494345 -6.46112 0
M  V30 3424 N 335.529 1.53961 0.336706 0
M  V30 3425 C 336.459 1.85417 1.41925 0
M  V30 3426 C 337.44 0.709856 1.5458 0
M  V30 3427 O 338.625 0.962396 1.68676 0
M  V30 3428 C 335.755 2.06985 2.78881 0
M  V30 3429 C 334.709 3.22813 2.81026 0
M  V30 3430 C 334.035 3.29727 4.20932 0
M  V30 3431 C 335.335 4.60767 2.45949 0
M  V30 3432 H 337.029 2.76079 1.15848 0
M  V30 3433 H 334.575 1.32839 0.555859 0
M  V30 3434 H 336.528 2.27575 3.54665 0
M  V30 3435 H 335.252 1.13061 3.06406 0
M  V30 3436 H 333.911 3.0209 2.07695 0
M  V30 3437 H 333.559 2.33385 4.45579 0
M  V30 3438 H 333.259 4.07566 4.23277 0
M  V30 3439 H 334.783 3.52536 4.98549 0
M  V30 3440 H 336.197 4.81325 3.11446 0
M  V30 3441 H 334.594 5.4106 2.59566 0
M  V30 3442 H 335.664 4.6391 1.41122 0
M  V30 3443 N 337.007 -0.598083 1.45811 0
M  V30 3444 C 338.255 -1.35413 1.50026 0
M  V30 3445 C 338.576 -1.94444 0.147177 0
M  V30 3446 O 337.846 -1.77701 -0.824571 0
M  V30 3447 H 336.426 -0.502727 0.552517 0
M  V30 3448 H 339.088 -0.701606 1.81834 0
M  V30 3449 H 338.184 -2.16871 2.2444 0
M  V30 3450 N 338.485 -1.33259 -0.841409 0
M  V30 3451 C 339.415 -1.25926 -1.96634 0
M  V30 3452 C 340.396 -0.140349 -1.6952 0
M  V30 3453 O 341.581 -0.329707 -1.91381 0
M  V30 3454 C 338.711 -0.99512 -3.32738 0
M  V30 3455 C 337.665 -2.0767 -3.74242 0
M  V30 3456 C 336.991 -1.66474 -5.08125 0
M  V30 3457 C 338.291 -3.49318 -3.88297 0
M  V30 3458 H 339.985 -2.20046 -2.03027 0
M  V30 3459 H 337.531 -1.05931 -0.975425 0
M  V30 3460 H 339.484 -0.930323 -4.11002 0
M  V30 3461 H 338.208 -0.0183004 -3.26595 0
M  V30 3462 H 336.867 -2.13187 -2.98239 0
M  V30 3463 H 336.515 -0.675012 -4.9845 0
M  V30 3464 H 336.215 -2.3885 -5.36865 0
M  V30 3465 H 337.739 -1.61455 -5.88867 0
M  V30 3466 H 339.153 -3.46316 -4.56879 0
M  V30 3467 H 337.55 -4.20158 -4.28471 0
M  V30 3468 H 338.62 -3.8801 -2.9082 0
M  V30 3469 N 339.963 1.05934 -1.16686 0
M  V30 3470 C 340.926 2.11669 -0.879144 0
M  V30 3471 C 341.926 1.60294 0.127445 0
M  V30 3472 O 343.116 1.7389 -0.103865 0
M  V30 3473 C 340.248 3.39438 -0.315425 0
M  V30 3474 H 341.441 2.38626 -1.81653 0
M  V30 3475 H 338.994 1.22058 -0.976299 0
M  V30 3476 H 339.729 3.18132 0.629468 0
M  V30 3477 H 339.514 3.78034 -1.04079 0
M  V30 3478 H 341.004 4.17391 -0.132189 0
M  V30 3479 N 341.441 0.965919 1.2453 0
M  V30 3480 C 342.389 0.486506 2.27455 0
M  V30 3481 C 343.383 -0.449041 1.6334 0
M  V30 3482 O 344.589 -0.324527 1.7705 0
M  V30 3483 H 340.964 0.138857 0.739069 0
M  V30 3484 H 342.935 1.3666 2.65267 0
M  V30 3485 C 341.684 -0.209481 3.47068 0
M  V30 3486 H 341.007 0.50129 3.96645 0
M  V30 3487 H 342.447 -0.508775 4.20936 0
M  V30 3488 C 340.906 -1.43586 3.0477 0
M  V30 3489 O 341.436 -2.53299 3.11773 0
M  V30 3490 N 339.642 -1.30126 2.59838 0
M  V30 3491 H 339.189 -0.408583 2.54339 0
M  V30 3492 H 339.147 -2.12294 2.31902 0
M  V30 3493 N 342.919 -1.39368 0.735821 0
M  V30 3494 C 344.167 -2.00101 0.283562 0
M  V30 3495 C 344.488 -1.5868 -1.13338 0
M  V30 3496 O 343.758 -0.835423 -1.77193 0
M  V30 3497 H 342.338 -0.740024 0.101851 0
M  V30 3498 H 345 -1.70404 0.945962 0
M  V30 3499 H 344.096 -3.10323 0.332604 0
M  V30 3500 N 344.397 -0.483516 -1.5 0
M  V30 3501 C 345.643 0.0672592 -2.02688 0
M  V30 3502 C 345.976 1.38247 -1.36387 0
M  V30 3503 O 345.251 1.88131 -0.493675 0
M  V30 3504 C 345.534 0.238109 -3.59312 0
M  V30 3505 C 345.387 -1.099 -4.36168 0
M  V30 3506 C 346.706 0.986916 -4.28892 0
M  V30 3507 H 343.825 0.0229696 -0.736642 0
M  V30 3508 H 346.467 -0.631527 -1.79197 0
M  V30 3509 H 344.617 0.8333 -3.79458 0
M  V30 3510 H 346.289 -1.73172 -4.27562 0
M  V30 3511 H 344.532 -1.69261 -3.99416 0
M  V30 3512 H 345.203 -0.932954 -5.44059 0
M  V30 3513 H 347.679 0.482302 -4.13295 0
M  V30 3514 H 346.555 1.07527 -5.38265 0
M  V30 3515 H 346.816 2.0265 -3.92919 0
M  V30 3516 N 345.875 1.56104 -0.216619 0
M  V30 3517 C 347.121 1.98466 0.417033 0
M  V30 3518 C 347.454 1.10403 1.59765 0
M  V30 3519 O 346.729 0.160632 1.93836 0
M  V30 3520 C 347.012 3.49769 0.85637 0
M  V30 3521 C 346.865 4.48606 -0.327546 0
M  V30 3522 C 348.184 4.05339 1.7143 0
M  V30 3523 H 345.303 0.721551 0.150112 0
M  V30 3524 H 347.945 1.87423 -0.311864 0
M  V30 3525 H 346.095 3.5931 1.47745 0
M  V30 3526 H 347.767 4.5108 -0.965618 0
M  V30 3527 H 346.01 4.22682 -0.975805 0
M  V30 3528 H 346.681 5.51995 0.0227149 0
M  V30 3529 H 349.157 3.98712 1.19031 0
M  V30 3530 H 348.033 5.11533 1.99061 0
M  V30 3531 H 348.294 3.51918 2.67593 0
M  V30 3532 N 347.353 -0.0568162 1.57498 0
M  V30 3533 C 348.578 -0.769402 1.92601 0
M  V30 3534 C 349.003 -1.69559 0.814336 0
M  V30 3535 O 348.361 -1.79811 -0.231903 0
M  V30 3536 C 348.409 -1.52634 3.26704 0
M  V30 3537 O 347.513 -2.63797 3.16994 0
M  V30 3538 H 346.854 -0.208909 0.63028 0
M  V30 3539 H 349.384 -0.0205798 2.0459 0
M  V30 3540 H 349.394 -1.90234 3.60936 0
M  V30 3541 H 348.069 -0.846875 4.07186 0
M  V30 3542 H 346.646 -2.28943 2.94346 0
M  V30 3543 N 348.832 -1.54138 -0.328536 0
M  V30 3544 C 349.795 -1.82462 -1.38709 0
M  V30 3545 C 350.795 -0.696229 -1.44946 0
M  V30 3546 O 351.985 -0.964535 -1.4506 0
M  V30 3547 C 349.117 -1.98018 -2.77492 0
M  V30 3548 H 350.31 -2.77037 -1.14851 0
M  V30 3549 H 347.863 -1.45779 -0.563751 0
M  V30 3550 H 348.598 -1.05637 -3.06613 0
M  V30 3551 H 348.383 -2.80124 -2.74359 0
M  V30 3552 H 349.873 -2.21396 -3.54081 0
M  V30 3553 N 350.31 0.590341 -1.46126 0
M  V30 3554 C 351.558 1.34616 -1.50742 0
M  V30 3555 C 351.879 1.94363 -0.157486 0
M  V30 3556 O 351.149 1.78136 0.815136 0
M  V30 3557 H 349.729 0.499789 -0.555175 0
M  V30 3558 H 352.391 0.691953 -1.82203 0
M  V30 3559 H 351.487 2.15678 -2.25587 0
M  V30 3560 N 351.788 1.33704 0.83433 0
M  V30 3561 C 353.013 1.28615 1.62705 0
M  V30 3562 C 353.438 -0.139242 1.87584 0
M  V30 3563 O 352.796 -1.09734 1.4432 0
M  V30 3564 C 352.844 2.07139 2.95171 0
M  V30 3565 O 351.948 1.4331 3.86699 0
M  V30 3566 H 351.289 0.44226 0.49528 0
M  V30 3567 H 353.819 1.76335 1.03766 0
M  V30 3568 H 353.829 2.18073 3.44831 0
M  V30 3569 H 352.504 3.10779 2.76386 0
M  V30 3570 H 351.081 1.4105 3.45195 0
M  V30 3571 N 353.266 -1.05314 1.17247 0
M  V30 3572 C 354.491 -1.82509 0.985148 0
M  V30 3573 C 354.916 -1.82343 -0.461788 0
M  V30 3574 O 354.274 -1.23151 -1.33055 0
M  V30 3575 C 354.322 -3.26566 1.52929 0
M  V30 3576 O 353.426 -4.05666 0.742225 0
M  V30 3577 H 352.767 -0.564347 0.349869 0
M  V30 3578 H 355.297 -1.32718 1.55715 0
M  V30 3579 H 355.307 -3.77369 1.55103 0
M  V30 3580 H 353.982 -3.26001 2.58256 0
M  V30 3581 H 352.559 -3.64397 0.791794 0
M  V30 3582 N 354.744 -0.972509 -1.24016 0
M  V30 3583 C 355.993 -0.632603 -1.91523 0
M  V30 3584 C 356.306 0.836641 -1.76804 0
M  V30 3585 O 357.512 1.28728 -2.39043 0
M  V30 3586 C 355.968 -1.08082 -3.43287 0
M  V30 3587 C 355.576 -2.57386 -3.66683 0
M  V30 3588 C 357.32 -0.814288 -4.16617 0
M  V30 3589 C 355.227 -2.95915 -5.12043 0
M  V30 3590 H 354.157 -0.232898 -0.717129 0
M  V30 3591 H 356.808 -1.17936 -1.40582 0
M  V30 3592 H 355.19 -0.462339 -3.93292 0
M  V30 3593 H 356.364 -3.24405 -3.27258 0
M  V30 3594 H 354.679 -2.81701 -3.06649 0
M  V30 3595 H 357.276 -1.0781 -5.23718 0
M  V30 3596 H 357.619 0.24955 -4.15551 0
M  V30 3597 H 358.152 -1.39397 -3.72577 0
M  V30 3598 H 354.891 -4.0139 -5.18234 0
M  V30 3599 H 354.411 -2.33584 -5.52448 0
M  V30 3600 H 356.09 -2.86086 -5.80314 0
M  V30 3601 N 356.222 1.38976 -0.743202 0
M  V30 3602 C 357.469 2.00343 -0.294752 0
M  V30 3603 C 357.797 1.58983 1.12047 0
M  V30 3604 O 357.052 0.813809 1.77977 0
M  V30 3605 C 357.351 3.55647 -0.353517 0
M  V30 3606 C 357.017 4.16685 -1.72292 0
M  V30 3607 C 355.679 4.3307 -2.09771 0
M  V30 3608 C 358.031 4.50464 -2.62168 0
M  V30 3609 C 355.359 4.80526 -3.36618 0
M  V30 3610 C 357.711 4.99332 -3.88395 0
M  V30 3611 C 356.375 5.13924 -4.25956 0
M  V30 3612 H 355.645 0.733108 -0.107857 0
M  V30 3613 H 358.292 1.6618 -0.951651 0
M  V30 3614 H 356.597 3.89884 0.386954 0
M  V30 3615 H 358.294 4.00998 0.0117269 0
M  V30 3616 H 354.884 4.04339 -1.42155 0
M  V30 3617 H 359.068 4.37416 -2.3448 0
M  V30 3618 H 354.324 4.90008 -3.65653 0
M  V30 3619 H 358.498 5.2444 -4.58187 0
M  V30 3620 H 356.125 5.50457 -5.2431 0
M  V30 3621 N 357.7 0.491464 1.49741 0
M  V30 3622 C 358.925 -0.0557177 2.07325 0
M  V30 3623 C 359.35 -1.30925 1.35056 0
M  V30 3624 O 358.708 -1.76733 0.404365 0
M  V30 3625 C 358.756 -0.302074 3.59333 0
M  V30 3626 O 357.86 -1.37868 3.88672 0
M  V30 3627 H 357.201 0.0219956 0.663636 0
M  V30 3628 H 359.731 0.688352 1.92673 0
M  V30 3629 H 359.741 -0.536464 4.04458 0
M  V30 3630 H 358.416 0.61383 4.11345 0
M  V30 3631 H 356.993 -1.12999 3.55367 0
M  V30 3632 N 359.178 -1.55987 0.224894 0
M  V30 3633 C 360.111 -2.16413 -0.723929 0
M  V30 3634 C 361.089 -1.10952 -1.18863 0
M  V30 3635 O 362.273 -1.39225 -1.27077 0
M  V30 3636 C 359.4 -2.74711 -1.98121 0
M  V30 3637 C 358.446 -3.9303 -1.6562 0
M  V30 3638 S 359.279 -5.29817 -0.778058 0
M  V30 3639 C 360.435 -5.91555 -2.04483 0
M  V30 3640 H 360.668 -2.96555 -0.210347 0
M  V30 3641 H 358.201 -1.54397 0.00955457 0
M  V30 3642 H 360.159 -3.08938 -2.70311 0
M  V30 3643 H 358.82 -1.94555 -2.46591 0
M  V30 3644 H 358.013 -4.32334 -2.59043 0
M  V30 3645 H 357.615 -3.59966 -1.01491 0
M  V30 3646 H 359.907 -6.07732 -2.99446 0
M  V30 3647 H 360.85 -6.87498 -1.69563 0
M  V30 3648 H 361.258 -5.20419 -2.18688 0
M  V30 3649 N 360.656 0.0484629 -1.57525 0
M  V30 3650 C 361.881 0.759177 -1.93006 0
M  V30 3651 C 362.306 1.69125 -0.823317 0
M  V30 3652 O 361.664 1.79931 0.222364 0
M  V30 3653 C 361.712 1.50899 -3.27509 0
M  V30 3654 O 360.816 2.62112 -3.18388 0
M  V30 3655 H 360.157 0.205564 -0.631379 0
M  V30 3656 H 362.687 0.00972959 -2.04598 0
M  V30 3657 H 362.697 1.88317 -3.6194 0
M  V30 3658 H 361.372 0.825269 -4.0763 0
M  V30 3659 H 359.949 2.27379 -2.95556 0
M  V30 3660 N 362.134 1.5431 0.320358 0
M  V30 3661 C 363.381 1.72668 1.05792 0
M  V30 3662 C 363.709 0.502084 1.87908 0
M  V30 3663 O 362.964 -0.516149 1.88771 0
M  V30 3664 C 363.263 2.95639 2.00828 0
M  V30 3665 C 362.929 4.30265 1.34843 0
M  V30 3666 C 361.591 4.66865 1.16578 0
M  V30 3667 C 363.943 5.13801 0.875095 0
M  V30 3668 C 361.271 5.84597 0.496336 0
M  V30 3669 C 363.623 6.32219 0.219463 0
M  V30 3670 C 362.287 6.67495 0.0246915 0
M  V30 3671 H 361.557 0.631837 0.387121 0
M  V30 3672 H 364.204 1.88552 0.334735 0
M  V30 3673 H 362.509 2.74456 2.79609 0
M  V30 3674 H 364.206 3.07038 2.57932 0
M  V30 3675 H 360.796 4.01472 1.50061 0
M  V30 3676 H 364.98 4.86039 1.00398 0
M  V30 3677 H 360.236 6.10486 0.334264 0
M  V30 3678 H 364.41 6.96227 -0.155291 0
M  V30 3679 H 362.037 7.5858 -0.496065 0
M  V30 3680 N 363.613 -0.582584 1.46437 0
M  V30 3681 C 365.024 -1.1647 1.45916 0
M  V30 3682 C 365.375 -1.95177 0.200077 0
M  V30 3683 O 364.5 -2.04874 -0.696819 0
M  V30 3684 C 365.095 -2.11885 2.64367 0
M  V30 3685 C 363.654 -2.65421 2.66887 0
M  V30 3686 C 362.801 -1.41294 2.38603 0
M  V30 3687 H 365.752 -0.370514 1.54314 0
M  V30 3688 H 365.773 -2.9535 2.39892 0
M  V30 3689 H 365.285 -1.54573 3.5599 0
M  V30 3690 H 363.386 -3.26602 1.79338 0
M  V30 3691 H 363.499 -3.08147 3.66854 0
M  V30 3692 H 361.863 -1.71109 1.88663 0
M  V30 3693 H 362.646 -0.858125 3.32402 0
M  V30 3694 N 365.091 -1.34144 -0.827227 0
M  V30 3695 C 366.338 -1.26258 -1.58319 0
M  V30 3696 C 366.666 0.168595 -1.93768 0
M  V30 3697 O 365.921 1.12877 -1.59866 0
M  V30 3698 C 366.22 -2.09464 -2.89585 0
M  V30 3699 C 365.886 -3.58521 -2.73448 0
M  V30 3700 C 364.548 -3.99155 -2.68754 0
M  V30 3701 C 366.9 -4.53189 -2.57428 0
M  V30 3702 C 364.228 -5.32656 -2.45957 0
M  V30 3703 C 366.58 -5.86864 -2.36163 0
M  V30 3704 C 365.244 -6.26667 -2.29879 0
M  V30 3705 H 364.514 -0.462013 -0.579332 0
M  V30 3706 H 367.161 -1.65845 -0.95748 0
M  V30 3707 H 365.466 -1.62692 -3.56425 0
M  V30 3708 H 367.163 -2.00712 -3.47154 0
M  V30 3709 H 363.753 -3.26264 -2.77939 0
M  V30 3710 H 367.937 -4.22696 -2.60081 0
M  V30 3711 H 363.193 -5.62519 -2.39546 0
M  V30 3712 H 367.367 -6.59813 -2.22754 0
M  V30 3713 H 364.994 -7.30049 -2.11975 0
M  V30 3714 N 366.569 1.04691 -1.17803 0
M  V30 3715 C 367.499 2.14494 -0.92275 0
M  V30 3716 C 368.48 1.69546 0.137179 0
M  V30 3717 O 369.665 1.94195 -0.0141108 0
M  V30 3718 C 366.795 3.44491 -0.440803 0
M  V30 3719 C 365.749 4.03031 -1.4405 0
M  V30 3720 C 365.075 5.28432 -0.81631 0
M  V30 3721 C 366.375 4.39932 -2.81527 0
M  V30 3722 H 368.069 2.36107 -1.84103 0
M  V30 3723 H 365.615 1.1347 -0.886599 0
M  V30 3724 H 367.568 4.2066 -0.249602 0
M  V30 3725 H 366.292 3.22546 0.513025 0
M  V30 3726 H 364.951 3.28937 -1.61853 0
M  V30 3727 H 364.599 5.02792 0.144511 0
M  V30 3728 H 364.299 5.68559 -1.48371 0
M  V30 3729 H 365.823 6.07284 -0.635496 0
M  V30 3730 H 367.237 5.07113 -2.67412 0
M  V30 3731 H 365.634 4.9109 -3.44892 0
M  V30 3732 H 366.704 3.50045 -3.35554 0
M  V30 3733 N 368.047 0.979072 1.23499 0
M  V30 3734 C 369.296 0.642751 1.91185 0
M  V30 3735 C 369.609 -0.827253 1.77245 0
M  V30 3736 O 370.815 -1.27458 2.39722 0
M  V30 3737 C 369.271 1.09901 3.42709 0
M  V30 3738 C 368.879 2.59327 3.65313 0
M  V30 3739 C 370.623 0.836371 4.16179 0
M  V30 3740 C 368.53 2.98627 5.10467 0
M  V30 3741 H 367.46 0.236698 0.715884 0
M  V30 3742 H 370.111 1.1868 1.39955 0
M  V30 3743 H 368.493 0.48319 3.93041 0
M  V30 3744 H 369.667 3.26136 3.25533 0
M  V30 3745 H 367.982 2.83323 3.05151 0
M  V30 3746 H 370.579 1.10586 5.23139 0
M  V30 3747 H 370.922 -0.227509 4.15678 0
M  V30 3748 H 371.455 1.41371 3.71832 0
M  V30 3749 H 368.194 4.04133 5.16098 0
M  V30 3750 H 367.714 2.3651 5.51201 0
M  V30 3751 H 369.393 2.89159 5.78788 0
M  V30 3752 N 369.525 -1.3858 0.750561 0
M  V30 3753 C 370.941 -1.53759 0.427824 0
M  V30 3754 C 371.141 -1.71401 -1.05943 0
M  V30 3755 O 370.197 -1.72331 -1.84549 0
M  V30 3756 C 371.51 -2.74642 1.22443 0
M  V30 3757 C 373.058 -2.88489 1.2142 0
M  V30 3758 C 373.533 -4.12329 1.9937 0
M  V30 3759 N 375.024 -4.194 1.96616 0
M  V30 3760 C 375.759 -5.14209 2.53727 0
M  V30 3761 N 375.255 -6.14709 3.19539 0
M  V30 3762 N 377.048 -5.06537 2.43673 0
M  V30 3763 H 369.199 -1.25377 1.71447 0
M  V30 3764 H 371.462 -0.608844 0.726645 0
M  V30 3765 H 371.168 -2.68 2.27747 0
M  V30 3766 H 371.042 -3.67745 0.839273 0
M  V30 3767 H 373.429 -2.94614 0.169232 0
M  V30 3768 H 373.51 -1.96406 1.63885 0
M  V30 3769 H 373.154 -4.06966 3.03877 0
M  V30 3770 H 373.084 -5.03486 1.54302 0
M  V30 3771 H 375.575 -3.47421 1.48684 0
M  V30 3772 H 375.888 -6.8354 3.60545 0
M  V30 3773 H 374.233 -6.1505 3.23633 0
M  V30 3774 H 377.424 -4.26962 1.91889 0
M  V30 3775 H 377.597 -5.80245 2.88479 0
M  V30 3776 N 371.003 -0.499398 -1.49478 0
M  V30 3777 C 371.936 0.326491 -2.25852 0
M  V30 3778 C 372.914 0.971776 -1.30366 0
M  V30 3779 O 374.098 1.00219 -1.59651 0
M  V30 3780 C 371.225 1.45969 -3.05632 0
M  V30 3781 C 370.271 0.928938 -4.16261 0
M  V30 3782 S 371.104 -0.179012 -5.35201 0
M  V30 3783 C 372.26 0.957389 -6.18534 0
M  V30 3784 H 372.493 -0.321746 -2.95554 0
M  V30 3785 H 370.026 -0.284674 -1.51753 0
M  V30 3786 H 371.984 2.109 -3.52181 0
M  V30 3787 H 370.645 2.07953 -2.35402 0
M  V30 3788 H 369.838 1.77813 -4.71592 0
M  V30 3789 H 369.44 0.356869 -3.72293 0
M  V30 3790 H 371.732 1.86296 -6.51383 0
M  V30 3791 H 372.675 0.442733 -7.06715 0
M  V30 3792 H 373.083 1.224 -5.5107 0
M  V30 3793 N 372.481 1.55866 -0.233164 0
M  V30 3794 C 373.411 2.23783 0.666599 0
M  V30 3795 C 374.392 1.21343 1.19205 0
M  V30 3796 O 375.577 1.4996 1.23392 0
M  V30 3797 C 372.707 2.92671 1.86978 0
M  V30 3798 C 371.661 4.01682 1.47768 0
M  V30 3799 C 370.987 4.57926 2.76058 0
M  V30 3800 C 372.287 5.18126 0.658993 0
M  V30 3801 H 373.981 2.99232 0.100306 0
M  V30 3802 H 371.527 1.43924 0.046804 0
M  V30 3803 H 373.48 3.3888 2.50476 0
M  V30 3804 H 372.204 2.14688 2.46123 0
M  V30 3805 H 370.863 3.56222 0.866106 0
M  V30 3806 H 370.511 3.76659 3.33372 0
M  V30 3807 H 370.211 5.31505 2.50552 0
M  V30 3808 H 371.735 5.06859 3.40479 0
M  V30 3809 H 373.149 5.60644 1.19795 0
M  V30 3810 H 371.546 5.98009 0.500552 0
M  V30 3811 H 372.616 4.83763 -0.331856 0
M  V30 3812 N 373.959 -0.0401083 1.57549 0
M  V30 3813 C 375.207 -0.731677 1.8839 0
M  V30 3814 C 375.528 -1.76481 0.829425 0
M  V30 3815 O 374.798 -1.95411 -0.1383 0
M  V30 3816 H 373.378 -0.273225 0.695239 0
M  V30 3817 H 376.04 -0.00867725 1.94898 0
M  V30 3818 H 375.136 -1.22816 2.86919 0
M  V30 3819 N 375.437 -1.54477 -0.31217 0
M  V30 3820 C 376.714 -1.63891 -1.06767 0
M  V30 3821 C 377.094 -0.480028 -2.0557 0
M  V30 3822 O 376.442 0.524487 -2.22399 0
M  V30 3823 C 376.652 -3.01402 -1.75948 0
M  V30 3824 C 378 -3.57838 -2.28554 0
M  V30 3825 O 379.024 -3.03782 -1.85998 0
M  V30 3826 O 377.883 -4.52462 -3.06497 0
M  V30 3827 H 374.977 -0.664125 -0.492816 0
M  V30 3828 H 377.523 -1.66823 -0.311149 0
M  V30 3829 H 376.295 -3.77187 -1.04144 0
M  V30 3830 H 375.918 -3.02199 -2.58383 0
M  V30 3831 N 376.915 0.57481 -1.46744 0
M  V30 3832 C 377.862 1.68329 -1.57905 0
M  V30 3833 C 378.832 1.60625 -0.422927 0
M  V30 3834 O 380.017 1.79721 -0.640711 0
M  V30 3835 C 377.157 3.06665 -1.58274 0
M  V30 3836 C 376.27 3.24935 -2.84678 0
M  V30 3837 C 375.405 4.53566 -2.76499 0
M  V30 3838 C 374.444 4.65207 -3.97806 0
M  V30 3839 N 373.581 5.85172 -3.87967 0
M  V30 3840 H 378.421 1.58127 -2.52587 0
M  V30 3841 H 375.958 0.770552 -1.25303 0
M  V30 3842 H 377.916 3.86745 -1.56473 0
M  V30 3843 H 376.546 3.15745 -0.671194 0
M  V30 3844 H 375.598 2.38405 -2.96424 0
M  V30 3845 H 376.91 3.29403 -3.7456 0
M  V30 3846 H 376.064 5.41885 -2.72848 0
M  V30 3847 H 374.803 4.51548 -1.8427 0
M  V30 3848 H 373.808 3.75304 -4.0178 0
M  V30 3849 H 375.033 4.68997 -4.9114 0
M  V30 3850 H 372.979 5.84137 -2.98529 0
M  V30 3851 H 372.896 5.90943 -4.71511 0
M  V30 3852 H 374.164 6.759 -3.88303 0
M  V30 3853 N 378.394 1.34581 0.820102 0
M  V30 3854 C 379.643 1.26437 1.57151 0
M  V30 3855 C 379.956 -0.163111 1.94919 0
M  V30 3856 O 381.162 -0.366722 2.69012 0
M  V30 3857 C 379.618 2.21658 2.83541 0
M  V30 3858 C 379.226 3.69679 2.53065 0
M  V30 3859 C 380.97 2.22428 3.61561 0
M  V30 3860 C 378.877 4.56761 3.75664 0
M  V30 3861 H 377.807 0.469707 0.589823 0
M  V30 3862 H 380.458 1.59763 0.902656 0
M  V30 3863 H 378.84 1.81287 3.52067 0
M  V30 3864 H 380.014 4.18605 1.92631 0
M  V30 3865 H 378.329 3.71384 1.88316 0
M  V30 3866 H 380.926 2.8471 4.52597 0
M  V30 3867 H 381.269 1.22434 3.97889 0
M  V30 3868 H 381.802 2.61259 2.99981 0
M  V30 3869 H 378.541 5.57702 3.44454 0
M  V30 3870 H 378.061 4.12568 4.35371 0
M  V30 3871 H 379.74 4.71509 4.43044 0
M  V30 3872 N 379.872 -1.04064 1.18357 0
M  V30 3873 C 380.819 -2.12077 0.910603 0
M  V30 3874 C 381.789 -1.65421 -0.15 0
M  V30 3875 O 382.974 -1.90797 -0.0103614 0
M  V30 3876 C 380.114 -3.42252 0.442472 0
M  V30 3877 C 379.227 -4.0252 1.5685 0
M  V30 3878 C 378.362 -5.20657 1.05309 0
M  V30 3879 C 377.401 -5.72955 2.1538 0
M  V30 3880 N 376.538 -6.8238 1.65233 0
M  V30 3881 H 381.378 -2.34764 1.83548 0
M  V30 3882 H 378.915 -1.15157 0.915279 0
M  V30 3883 H 380.873 -4.16921 0.152534 0
M  V30 3884 H 379.503 -3.19712 -0.445428 0
M  V30 3885 H 378.555 -3.25178 1.97391 0
M  V30 3886 H 379.867 -4.37362 2.39824 0
M  V30 3887 H 379.021 -6.0244 0.717677 0
M  V30 3888 H 377.76 -4.87318 0.19293 0
M  V30 3889 H 376.765 -4.89793 2.49766 0
M  V30 3890 H 377.99 -6.08337 3.01832 0
M  V30 3891 H 375.936 -6.50917 0.815064 0
M  V30 3892 H 375.853 -7.16286 2.41805 0
M  V30 3893 H 377.121 -7.67788 1.34619 0
M  V30 3894 N 381.35 -0.985608 -1.22978 0
M  V30 3895 C 382.28 -0.549649 -2.26939 0
M  V30 3896 C 383.261 0.419803 -1.64838 0
M  V30 3897 O 384.446 0.31203 -1.91677 0
M  V30 3898 C 381.576 0.143652 -3.47003 0
M  V30 3899 C 380.53 -0.743606 -4.21491 0
M  V30 3900 C 379.856 0.0822027 -5.34637 0
M  V30 3901 C 381.156 -2.03694 -4.80943 0
M  V30 3902 H 382.85 -1.41862 -2.63658 0
M  V30 3903 H 380.396 -0.683571 -1.26741 0
M  V30 3904 H 382.349 0.459985 -4.18882 0
M  V30 3905 H 381.073 1.04711 -3.09359 0
M  V30 3906 H 379.732 -1.04347 -3.51436 0
M  V30 3907 H 379.38 0.986359 -4.93234 0
M  V30 3908 H 379.08 -0.508377 -5.85397 0
M  V30 3909 H 380.604 0.392797 -6.09335 0
M  V30 3910 H 382.018 -1.78504 -5.44802 0
M  V30 3911 H 380.415 -2.57573 -5.42011 0
M  V30 3912 H 381.485 -2.72042 -4.01399 0
M  V30 3913 N 382.828 1.3818 -0.7579 0
M  V30 3914 C 383.791 2.28764 -0.141286 0
M  V30 3915 C 384.791 1.47388 0.642907 0
M  V30 3916 O 385.981 1.67781 0.468536 0
M  V30 3917 C 383.113 3.31184 0.808069 0
M  V30 3918 H 384.306 2.848 -0.939633 0
M  V30 3919 H 381.859 1.47212 -0.525191 0
M  V30 3920 H 382.594 2.80247 1.63193 0
M  V30 3921 H 382.379 3.91314 0.248104 0
M  V30 3922 H 383.869 3.98909 1.23536 0
M  V30 3923 N 384.306 0.507319 1.49211 0
M  V30 3924 C 385.238 -0.304532 2.27168 0
M  V30 3925 C 386.251 -0.924956 1.33972 0
M  V30 3926 O 387.44 -0.807227 1.59205 0
M  V30 3927 C 384.54 -1.44431 3.06583 0
M  V30 3928 C 383.713 -0.930026 4.27398 0
M  V30 3929 C 382.772 -1.94817 4.88807 0
M  V30 3930 O 381.798 -1.51418 5.4869 0
M  V30 3931 N 383 -3.279 4.79022 0
M  V30 3932 H 385.765 0.36395 2.97482 0
M  V30 3933 H 383.326 0.340249 1.58284 0
M  V30 3934 H 385.318 -2.12311 3.44537 0
M  V30 3935 H 383.888 -2.01684 2.38835 0
M  V30 3936 H 383.108 -0.0759244 3.94127 0
M  V30 3937 H 384.396 -0.564932 5.05654 0
M  V30 3938 H 383.794 -3.65843 4.3148 0
M  V30 3939 H 382.351 -3.91476 5.21142 0
M  V30 3940 N 385.784 -1.5574 0.241426 0
M  V30 3941 C 387.012 -2.03208 -0.389134 0
M  V30 3942 C 387.427 -1.12082 -1.51931 0
M  V30 3943 O 386.784 -0.134183 -1.82006 0
M  V30 3944 C 386.835 -3.50064 -0.902087 0
M  V30 3945 O 386.556 -4.37717 0.18305 0
M  V30 3946 C 388.057 -4.13268 -1.60389 0
M  V30 3947 H 385.277 -0.664509 -0.0931053 0
M  V30 3948 H 387.821 -2.0124 0.36369 0
M  V30 3949 H 385.976 -3.52583 -1.60511 0
M  V30 3950 H 386.39 -5.24097 -0.205579 0
M  V30 3951 H 387.864 -5.17733 -1.91458 0
M  V30 3952 H 388.341 -3.59434 -2.52397 0
M  V30 3953 H 388.947 -4.14655 -0.945576 0
M  V30 3954 N 387.262 0.0317525 -1.57568 0
M  V30 3955 C 388.509 0.723104 -1.89149 0
M  V30 3956 C 388.837 1.75504 -0.838377 0
M  V30 3957 O 388.092 1.95037 0.160982 0
M  V30 3958 C 388.391 1.43167 -3.27472 0
M  V30 3959 C 388.057 0.535972 -4.47703 0
M  V30 3960 C 386.719 0.289262 -4.8033 0
M  V30 3961 C 389.071 -0.0826125 -5.21135 0
M  V30 3962 C 386.399 -0.584853 -5.83778 0
M  V30 3963 C 388.751 -0.944414 -6.25511 0
M  V30 3964 C 387.415 -1.20061 -6.56614 0
M  V30 3965 H 386.685 0.264602 -0.692146 0
M  V30 3966 H 389.332 -0.0169496 -1.91492 0
M  V30 3967 H 387.637 2.24497 -3.21105 0
M  V30 3968 H 389.334 1.97209 -3.49155 0
M  V30 3969 H 385.924 0.738414 -4.22191 0
M  V30 3970 H 390.108 0.0950302 -4.96209 0
M  V30 3971 H 385.364 -0.79168 -6.06253 0
M  V30 3972 H 389.538 -1.43026 -6.81554 0
M  V30 3973 H 387.165 -1.87967 -7.36595 0
M  V30 3974 N 388.74 1.54641 0.303973 0
M  V30 3975 C 389.672 1.81754 1.39636 0
M  V30 3976 C 390.685 0.70035 1.46966 0
M  V30 3977 O 391.874 0.97778 1.49338 0
M  V30 3978 C 388.974 1.93785 2.7803 0
M  V30 3979 C 388.147 3.24156 2.93669 0
M  V30 3980 C 387.206 3.26641 4.12544 0
M  V30 3981 O 386.232 4.00187 4.04771 0
M  V30 3982 N 387.434 2.5182 5.23036 0
M  V30 3983 H 390.199 2.76031 1.16734 0
M  V30 3984 H 387.76 1.54178 0.494033 0
M  V30 3985 H 389.752 1.92852 3.55795 0
M  V30 3986 H 388.322 1.06515 2.93893 0
M  V30 3987 H 387.542 3.37887 2.03042 0
M  V30 3988 H 388.83 4.10195 3.01027 0
M  V30 3989 H 388.228 1.91692 5.32232 0
M  V30 3990 H 386.785 2.56644 5.99147 0
M  V30 3991 N 390.218 -0.567019 1.47046 0
M  V30 3992 C 391.464 -1.32658 1.53394 0
M  V30 3993 C 391.797 -1.93254 0.19148 0
M  V30 3994 O 391.072 -1.77338 -0.798844 0
M  V30 3995 C 391.355 -2.44412 2.64452 0
M  V30 3996 C 391.208 -1.88749 4.08282 0
M  V30 3997 C 392.527 -3.46387 2.71485 0
M  V30 3998 H 389.646 -0.48098 0.558415 0
M  V30 3999 H 392.288 -0.635481 1.79058 0
M  V30 4000 H 390.438 -3.03363 2.427 0
M  V30 4001 H 392.11 -1.34134 4.41368 0
M  V30 4002 H 390.353 -1.19481 4.17021 0
M  V30 4003 H 391.024 -2.69491 4.81745 0
M  V30 4004 H 393.5 -2.9734 2.91081 0
M  V30 4005 H 392.376 -4.2202 3.50985 0
M  V30 4006 H 392.637 -4.04616 1.78153 0
M  V30 4007 N 391.696 -1.35014 -0.812953 0
M  V30 4008 C 392.626 -1.30069 -1.93919 0
M  V30 4009 C 393.607 -0.176275 -1.69184 0
M  V30 4010 O 394.792 -0.370227 -1.90638 0
M  V30 4011 C 391.922 -1.06547 -3.30552 0
M  V30 4012 C 390.876 -2.15561 -3.69753 0
M  V30 4013 C 390.202 -1.77214 -5.04479 0
M  V30 4014 C 391.502 -3.57476 -3.808 0
M  V30 4015 H 393.196 -2.24303 -1.98314 0
M  V30 4016 H 390.742 -1.07977 -0.952736 0
M  V30 4017 H 392.695 -1.01729 -4.08937 0
M  V30 4018 H 391.419 -0.0875719 -3.26483 0
M  V30 4019 H 390.078 -2.19466 -2.9365 0
M  V30 4020 H 389.726 -0.780589 -4.96906 0
M  V30 4021 H 389.426 -2.50184 -5.31678 0
M  V30 4022 H 390.95 -1.7391 -5.8531 0
M  V30 4023 H 392.364 -3.55929 -4.4943 0
M  V30 4024 H 390.761 -4.29152 -4.19462 0
M  V30 4025 H 391.831 -3.94091 -2.82525 0
M  V30 4026 N 393.175 1.03435 -1.18907 0
M  V30 4027 C 394.4 1.80919 -1.01406 0
M  V30 4028 C 394.825 1.83055 0.432721 0
M  V30 4029 O 394.183 1.25252 1.31079 0
M  V30 4030 C 394.231 3.24091 -1.58105 0
M  V30 4031 O 393.335 4.04434 -0.806669 0
M  V30 4032 H 392.676 0.558709 -0.358803 0
M  V30 4033 H 395.206 1.30223 -1.57807 0
M  V30 4034 H 395.216 3.74853 -1.61087 0
M  V30 4035 H 393.891 3.21851 -2.6341 0
M  V30 4036 H 392.468 3.63091 -0.849666 0
M  V30 4037 N 394.653 0.992116 1.22453 0
M  V30 4038 C 395.881 0.685944 1.95198 0
M  V30 4039 C 396.296 -0.749233 1.73297 0
M  V30 4040 O 395.653 -1.50549 1.03156 0
M  V30 4041 C 395.704 0.981395 3.47924 0
M  V30 4042 O 395.425 2.36018 3.6909 0
M  V30 4043 C 396.926 0.692815 4.37853 0
M  V30 4044 H 394.146 0.253821 0.621141 0
M  V30 4045 H 396.69 1.32668 1.55626 0
M  V30 4046 H 394.845 0.386481 3.85467 0
M  V30 4047 H 395.259 2.45884 4.63294 0
M  V30 4048 H 396.733 0.949818 5.43767 0
M  V30 4049 H 397.21 -0.373181 4.37612 0
M  V30 4050 H 397.816 1.26874 4.05935 0
M  V30 4051 N 396.131 -1.37776 0.765217 0
M  V30 4052 C 397.378 -1.99849 0.326588 0
M  V30 4053 C 397.706 -1.60746 -1.09504 0
M  V30 4054 O 396.961 -0.84202 -1.76659 0
M  V30 4055 C 397.26 -3.5504 0.410053 0
M  V30 4056 C 396.926 -4.13891 1.78899 0
M  V30 4057 C 395.588 -4.29678 2.16635 0
M  V30 4058 C 397.94 -4.46236 2.69301 0
M  V30 4059 C 395.268 -4.7511 3.44221 0
M  V30 4060 C 397.62 -4.93089 3.9629 0
M  V30 4061 C 396.284 -5.07082 4.34078 0
M  V30 4062 H 395.554 -0.7313 0.119507 0
M  V30 4063 H 398.201 -1.64645 0.977968 0
M  V30 4064 H 396.506 -3.90451 -0.324878 0
M  V30 4065 H 398.203 -4.00966 0.0520699 0
M  V30 4066 H 394.793 -4.02026 1.48569 0
M  V30 4067 H 398.977 -4.3363 2.41409 0
M  V30 4068 H 394.233 -4.84129 3.73402 0
M  V30 4069 H 398.407 -5.17084 4.66472 0
M  V30 4070 H 396.034 -5.42046 5.33001 0
M  V30 4071 N 397.609 -0.515225 -1.4894 0
M  V30 4072 C 398.542 0.302518 -2.26186 0
M  V30 4073 C 399.52 0.957895 -1.31389 0
M  V30 4074 O 400.704 0.985198 -1.60705 0
M  V30 4075 C 397.831 1.42719 -3.07163 0
M  V30 4076 C 396.877 0.884736 -4.17223 0
M  V30 4077 S 397.71 -0.235767 -5.34981 0
M  V30 4078 C 398.866 0.891731 -6.19515 0
M  V30 4079 H 399.099 -0.353076 -2.95196 0
M  V30 4080 H 396.632 -0.300753 -1.51443 0
M  V30 4081 H 398.59 2.07152 -3.54398 0
M  V30 4082 H 397.251 2.05445 -2.37595 0
M  V30 4083 H 396.444 1.72801 -4.73451 0
M  V30 4084 H 396.046 0.317362 -3.72651 0
M  V30 4085 H 398.338 1.79377 -6.53322 0
M  V30 4086 H 399.281 0.367751 -7.07144 0
M  V30 4087 H 399.689 1.16548 -5.52338 0
M  V30 4088 N 399.087 1.5561 -0.249682 0
M  V30 4089 C 400.334 1.99011 0.374287 0
M  V30 4090 C 400.662 1.13785 1.57744 0
M  V30 4091 O 399.917 0.189326 1.94782 0
M  V30 4092 C 400.216 3.4775 0.824887 0
M  V30 4093 C 399.882 4.50086 -0.270819 0
M  V30 4094 C 398.544 4.77791 -0.571746 0
M  V30 4095 C 400.896 5.11312 -1.01041 0
M  V30 4096 C 398.224 5.63997 -1.61629 0
M  V30 4097 C 400.576 5.98651 -2.0445 0
M  V30 4098 C 399.24 6.24688 -2.35204 0
M  V30 4099 H 398.51 0.728233 0.136961 0
M  V30 4100 H 401.157 1.88122 -0.358087 0
M  V30 4101 H 399.462 3.55985 1.63651 0
M  V30 4102 H 401.159 3.78721 1.31799 0
M  V30 4103 H 397.749 4.28592 -0.026136 0
M  V30 4104 H 401.933 4.89953 -0.791177 0
M  V30 4105 H 397.189 5.82425 -1.85988 0
M  V30 4106 H 401.363 6.45135 -2.62248 0
M  V30 4107 H 398.99 6.91281 -3.16282 0
M  V30 4108 N 400.565 -0.0233959 1.57583 0
M  V30 4109 C 401.811 -0.714119 1.89811 0
M  V30 4110 C 402.144 -1.74702 0.848113 0
M  V30 4111 O 401.419 -1.94023 -0.136135 0
M  V30 4112 C 401.702 -1.37853 3.32669 0
M  V30 4113 C 401.555 -0.358764 4.48367 0
M  V30 4114 C 402.874 -2.31101 3.7454 0
M  V30 4115 H 399.993 -0.25814 0.690314 0
M  V30 4116 H 402.635 0.0230927 1.89986 0
M  V30 4117 H 400.785 -2.00689 3.3265 0
M  V30 4118 H 402.457 0.268115 4.6052 0
M  V30 4119 H 400.7 0.321387 4.32608 0
M  V30 4120 H 401.371 -0.862242 5.45224 0
M  V30 4121 H 403.847 -1.78304 3.75961 0
M  V30 4122 H 402.723 -2.74567 4.75294 0
M  V30 4123 H 402.984 -3.18018 3.0711 0
M  V30 4124 N 402.043 -1.548 -0.295768 0
M  V30 4125 C 402.973 -1.89115 -1.36959 0
M  V30 4126 C 403.954 -0.75059 -1.52644 0
M  V30 4127 O 405.139 -1.00678 -1.66065 0
M  V30 4128 C 402.269 -2.14307 -2.73295 0
M  V30 4129 C 401.223 -3.30151 -2.72368 0
M  V30 4130 C 400.549 -3.40772 -4.12042 0
M  V30 4131 C 401.849 -4.67126 -2.33646 0
M  V30 4132 H 403.543 -2.79053 -1.08488 0
M  V30 4133 H 401.089 -1.34266 -0.520443 0
M  V30 4134 H 403.042 -2.36898 -3.48507 0
M  V30 4135 H 401.766 -1.21145 -3.03301 0
M  V30 4136 H 400.425 -3.0749 -1.99613 0
M  V30 4137 H 400.073 -2.45117 -4.39234 0
M  V30 4138 H 399.773 -4.18645 -4.12322 0
M  V30 4139 H 401.297 -3.6563 -4.89027 0
M  V30 4140 H 402.711 -4.89414 -2.98575 0
M  V30 4141 H 401.108 -5.47751 -2.45129 0
M  V30 4142 H 402.178 -4.67489 -1.28772 0
M  V30 4143 N 403.521 0.559213 -1.47345 0
M  V30 4144 C 404.454 1.68201 -1.5422 0
M  V30 4145 C 405.432 1.57742 -0.394497 0
M  V30 4146 O 406.616 1.78628 -0.60201 0
M  V30 4147 C 403.743 3.0643 -1.44285 0
M  V30 4148 C 402.789 3.3534 -2.63532 0
M  V30 4149 S 403.622 3.24816 -4.25741 0
M  V30 4150 C 404.778 4.65542 -4.18355 0
M  V30 4151 H 405.011 1.62114 -2.49211 0
M  V30 4152 H 402.544 0.739871 -1.35519 0
M  V30 4153 H 404.502 3.86164 -1.3924 0
M  V30 4154 H 403.163 3.09984 -0.506816 0
M  V30 4155 H 402.356 4.36107 -2.52639 0
M  V30 4156 H 401.958 2.63221 -2.65689 0
M  V30 4157 H 404.25 5.56449 -3.86485 0
M  V30 4158 H 405.193 4.81493 -5.19202 0
M  V30 4159 H 405.601 4.43495 -3.49246 0
M  V30 4160 N 404.999 1.35443 0.805782 0
M  V30 4161 C 405.929 1.31095 1.93226 0
M  V30 4162 C 406.91 0.185244 1.69088 0
M  V30 4163 O 408.095 0.380332 1.90439 0
M  V30 4164 C 405.225 1.08299 3.29983 0
M  V30 4165 C 404.179 2.17519 3.68605 0
M  V30 4166 C 403.505 1.79887 5.03532 0
M  V30 4167 C 404.805 3.5949 3.78898 0
M  V30 4168 H 406.499 2.25352 1.97122 0
M  V30 4169 H 404.045 1.0848 0.946996 0
M  V30 4170 H 405.998 1.03897 4.08391 0
M  V30 4171 H 404.722 0.104885 3.26432 0
M  V30 4172 H 403.381 2.2102 2.92482 0
M  V30 4173 H 403.029 0.80693 4.96485 0
M  V30 4174 H 402.729 2.53001 5.30344 0
M  V30 4175 H 404.253 1.77011 5.84379 0
M  V30 4176 H 405.667 3.58307 4.47536 0
M  V30 4177 H 404.064 4.31371 4.1718 0
M  V30 4178 H 405.134 3.95584 2.80431 0
M  V30 4179 N 406.477 -1.02803 1.19454 0
M  V30 4180 C 407.407 -2.12999 0.956758 0
M  V30 4181 C 408.388 -1.69743 -0.110188 0
M  V30 4182 O 409.573 -1.94148 0.0450038 0
M  V30 4183 C 406.703 -3.43746 0.495553 0
M  V30 4184 C 405.657 -4.00688 1.50443 0
M  V30 4185 C 404.983 -5.27067 0.900275 0
M  V30 4186 C 406.283 -4.35397 2.8849 0
M  V30 4187 H 407.977 -2.33148 1.87836 0
M  V30 4188 H 405.523 -1.12045 0.904539 0
M  V30 4189 H 407.476 -4.2021 0.316493 0
M  V30 4190 H 406.2 -3.23321 -0.461646 0
M  V30 4191 H 404.859 -3.2632 1.67065 0
M  V30 4192 H 404.507 -5.02959 -0.064503 0
M  V30 4193 H 404.207 -5.66127 1.57397 0
M  V30 4194 H 405.731 -6.06196 0.73203 0
M  V30 4195 H 407.145 -5.02795 2.75446 0
M  V30 4196 H 405.542 -4.85541 3.52661 0
M  V30 4197 H 406.612 -3.44662 3.41081 0
M  V30 4198 N 407.956 -0.998596 -1.21925 0
M  V30 4199 C 409.181 -0.696015 -1.95372 0
M  V30 4200 C 409.606 0.733826 -1.73195 0
M  V30 4201 O 408.964 1.50242 -1.01474 0
M  V30 4202 C 409.012 -1.01466 -3.4603 0
M  V30 4203 O 408.116 -0.116415 -4.12236 0
M  V30 4204 H 407.457 -0.259938 -0.611006 0
M  V30 4205 H 409.987 -1.33711 -1.54863 0
M  V30 4206 H 409.997 -0.958855 -3.96573 0
M  V30 4207 H 408.672 -2.05653 -3.61497 0
M  V30 4208 H 407.249 -0.228193 -3.72201 0
M  V30 4209 N 409.434 1.37368 -0.772513 0
M  V30 4210 C 410.364 2.32856 -0.173304 0
M  V30 4211 C 411.345 1.55818 0.682262 0
M  V30 4212 O 412.53 1.84052 0.619566 0
M  V30 4213 C 409.66 3.40048 0.706007 0
M  V30 4214 C 408.614 4.27973 -0.0483144 0
M  V30 4215 C 407.94 5.26184 0.950491 0
M  V30 4216 C 409.24 5.07665 -1.22776 0
M  V30 4217 H 410.934 2.83217 -0.971002 0
M  V30 4218 H 408.48 1.3617 -0.468377 0
M  V30 4219 H 410.433 4.05827 1.13501 0
M  V30 4220 H 409.157 2.88214 1.53623 0
M  V30 4221 H 407.816 3.63726 -0.458107 0
M  V30 4222 H 407.464 4.7063 1.77529 0
M  V30 4223 H 407.164 5.85872 0.450314 0
M  V30 4224 H 408.688 5.94838 1.37842 0
M  V30 4225 H 410.102 5.66578 -0.875366 0
M  V30 4226 H 408.499 5.76681 -1.66007 0
M  V30 4227 H 409.569 4.40294 -2.03149 0
M  V30 4228 N 410.912 0.523116 1.48665 0
M  V30 4229 C 412.14 -0.0096312 2.06898 0
M  V30 4230 C 412.555 -1.28784 1.38059 0
M  V30 4231 O 411.912 -1.76453 0.465893 0
M  V30 4232 C 411.963 -0.244386 3.60673 0
M  V30 4233 O 411.684 0.983172 4.26925 0
M  V30 4234 C 413.185 -0.818289 4.35682 0
M  V30 4235 H 410.405 0.0304161 0.67031 0
M  V30 4236 H 412.949 0.726799 1.91149 0
M  V30 4237 H 411.104 -0.930847 3.76051 0
M  V30 4238 H 411.518 0.759653 5.1897 0
M  V30 4239 H 412.992 -0.93201 5.44075 0
M  V30 4240 H 413.469 -1.82153 3.99646 0
M  V30 4241 H 414.075 -0.168609 4.24966 0
M  V30 4242 N 412.39 -1.55475 0.257931 0
M  V30 4243 C 413.62 -2.03314 -0.367026 0
M  V30 4244 C 414.028 -1.13625 -1.51281 0
M  V30 4245 O 413.371 -0.145334 -1.83124 0
M  V30 4246 C 413.433 -3.47362 -0.926284 0
M  V30 4247 C 413.097 -4.56914 0.0886584 0
M  V30 4248 C 414.094 -5.12013 0.902123 0
M  V30 4249 C 411.779 -5.01827 0.217936 0
M  V30 4250 C 413.773 -6.10529 1.83122 0
M  V30 4251 C 411.46 -6.00172 1.15052 0
M  V30 4252 C 412.458 -6.54402 1.95568 0
M  V30 4253 O 412.146 -7.50827 2.87253 0
M  V30 4254 H 411.878 -0.669976 -0.0900443 0
M  V30 4255 H 414.432 -2.01804 0.382673 0
M  V30 4256 H 412.662 -3.46056 -1.72575 0
M  V30 4257 H 414.351 -3.78637 -1.46249 0
M  V30 4258 H 415.117 -4.78139 0.812891 0
M  V30 4259 H 410.996 -4.59272 -0.398721 0
M  V30 4260 H 414.54 -6.52783 2.46008 0
M  V30 4261 H 410.437 -6.33465 1.24064 0
M  V30 4262 H 411.205 -7.68483 2.81739 0
M  V30 4263 N 413.868 0.0150385 -1.57593 0
M  V30 4264 C 415.284 0.370907 -1.5523 0
M  V30 4265 C 415.484 1.75735 -0.985882 0
M  V30 4266 O 414.54 2.44944 -0.613077 0
M  V30 4267 C 415.853 0.259908 -2.99575 0
M  V30 4268 C 417.401 0.335959 -3.11192 0
M  V30 4269 C 417.876 0.254253 -4.57294 0
M  V30 4270 N 419.367 0.312618 -4.62144 0
M  V30 4271 C 420.102 0.272505 -5.72752 0
M  V30 4272 N 419.598 0.183864 -6.92556 0
M  V30 4273 N 421.391 0.323267 -5.6117 0
M  V30 4274 H 413.542 -0.892104 -1.92757 0
M  V30 4275 H 415.805 -0.340563 -0.884715 0
M  V30 4276 H 415.511 -0.693403 -3.44797 0
M  V30 4277 H 415.385 1.048 -3.62349 0
M  V30 4278 H 417.772 1.27971 -2.65909 0
M  V30 4279 H 417.853 -0.481739 -2.51223 0
M  V30 4280 H 417.497 -0.685887 -5.03247 0
M  V30 4281 H 417.427 1.09024 -5.15191 0
M  V30 4282 H 419.918 0.38307 -3.75953 0
M  V30 4283 H 420.231 0.15874 -7.72637 0
M  V30 4284 H 418.576 0.149708 -6.94839 0
M  V30 4285 H 421.767 0.390607 -4.66467 0
M  V30 4286 H 421.94 0.288539 -6.47357 0
M  V30 4287 N 415.346 1.54954 0.287554 0
M  V30 4288 C 416.757 1.65732 0.859634 0
M  V30 4289 C 417.108 0.574767 1.87592 0
M  V30 4290 O 416.233 -0.286299 2.14498 0
M  V30 4291 C 416.828 3.00438 1.56597 0
M  V30 4292 C 415.387 3.13292 2.08627 0
M  V30 4293 C 414.534 2.61473 0.923416 0
M  V30 4294 H 417.485 1.5857 0.0642338 0
M  V30 4295 H 417.506 2.92613 2.43224 0
M  V30 4296 H 417.018 3.79207 0.826053 0
M  V30 4297 H 415.119 2.39268 2.85625 0
M  V30 4298 H 415.232 4.19647 2.31157 0
M  V30 4299 H 413.596 2.18264 1.31275 0
M  V30 4300 H 414.379 3.42733 0.197241 0
M  V30 4301 N 416.824 -0.551391 1.4764 0
M  V30 4302 C 417.754 -1.66757 1.63445 0
M  V30 4303 C 418.735 -1.63077 0.483742 0
M  V30 4304 O 419.92 -1.80607 0.71377 0
M  V30 4305 C 417.05 -3.05387 1.65396 0
M  V30 4306 C 416.004 -3.23918 2.79752 0
M  V30 4307 C 415.33 -4.63393 2.66779 0
M  V30 4308 C 416.63 -3.08735 4.21284 0
M  V30 4309 H 418.324 -1.53786 2.56886 0
M  V30 4310 H 415.87 -0.738415 1.23626 0
M  V30 4311 H 417.823 -3.83325 1.75043 0
M  V30 4312 H 416.547 -3.19332 0.685195 0
M  V30 4313 H 415.206 -2.48391 2.69625 0
M  V30 4314 H 414.854 -4.74144 1.67918 0
M  V30 4315 H 414.554 -4.7674 3.43501 0
M  V30 4316 H 416.078 -5.43458 2.78364 0
M  V30 4317 H 417.492 -3.76484 4.32357 0
M  V30 4318 H 415.889 -3.33588 4.98838 0
M  V30 4319 H 416.959 -2.0541 4.39243 0
M  V30 4320 N 418.302 -1.35869 -0.798587 0
M  V30 4321 C 419.232 -1.32118 -1.92528 0
M  V30 4322 C 420.213 -0.194209 -1.68988 0
M  V30 4323 O 421.398 -0.390426 -1.90235 0
M  V30 4324 C 418.528 -1.10047 -3.29404 0
M  V30 4325 C 417.482 -2.19471 -3.67446 0
M  V30 4326 C 416.808 -1.82555 -5.02571 0
M  V30 4327 C 418.108 -3.61495 -3.76987 0
M  V30 4328 H 419.802 -2.26394 -1.95924 0
M  V30 4329 H 417.348 -1.08981 -0.94123 0
M  V30 4330 H 419.301 -1.06061 -4.07835 0
M  V30 4331 H 418.025 -0.122195 -3.26371 0
M  V30 4332 H 416.684 -2.22568 -2.91306 0
M  V30 4333 H 416.332 -0.833249 -4.9605 0
M  V30 4334 H 416.032 -2.5581 -5.28995 0
M  V30 4335 H 417.556 -1.80108 -5.83432 0
M  V30 4336 H 418.97 -3.60676 -4.4563 0
M  V30 4337 H 417.367 -4.33577 -4.14887 0
M  V30 4338 H 418.437 -3.97065 -2.78329 0
M  V30 4339 N 419.78 1.02168 -1.19998 0
M  V30 4340 C 421.191 1.57135 -1.00825 0
M  V30 4341 C 421.542 1.91276 0.436818 0
M  V30 4342 O 420.667 1.71679 1.3174 0
M  V30 4343 C 421.262 2.85514 -1.82393 0
M  V30 4344 C 419.821 3.37027 -1.67601 0
M  V30 4345 C 418.968 2.10388 -1.80644 0
M  V30 4346 H 421.919 0.846106 -1.34264 0
M  V30 4347 H 421.94 3.56711 -1.32429 0
M  V30 4348 H 421.452 2.60634 -2.87561 0
M  V30 4349 H 419.553 3.66878 -0.650485 0
M  V30 4350 H 419.666 4.09572 -2.4857 0
M  V30 4351 H 418.03 2.22601 -1.23778 0
M  V30 4352 H 418.813 1.8794 -2.87286 0
M  V30 4353 N 421.258 1.00505 1.21394 0
M  V30 4354 C 422.483 0.706367 1.95001 0
M  V30 4355 C 422.908 -0.72463 1.73582 0
M  V30 4356 O 422.266 -1.49702 1.0227 0
M  V30 4357 C 422.314 1.03299 3.45487 0
M  V30 4358 O 421.418 0.138275 4.12168 0
M  V30 4359 H 420.759 0.263175 0.609619 0
M  V30 4360 H 423.289 1.34531 1.54151 0
M  V30 4361 H 423.299 0.979872 3.96059 0
M  V30 4362 H 421.974 2.07567 3.60401 0
M  V30 4363 H 420.551 0.247928 3.72075 0
M  V30 4364 N 422.737 -1.36956 0.779787 0
M  V30 4365 C 423.962 -2.04283 0.358224 0
M  V30 4366 C 424.387 -1.58422 -1.01411 0
M  V30 4367 O 423.745 -0.748179 -1.65142 0
M  V30 4368 C 423.793 -3.58152 0.419479 0
M  V30 4369 O 422.897 -4.08342 -0.577142 0
M  V30 4370 H 422.238 -0.645967 0.153698 0
M  V30 4371 H 424.768 -1.75108 1.05822 0
M  V30 4372 H 424.778 -4.07041 0.279636 0
M  V30 4373 H 423.453 -3.90886 1.42061 0
M  V30 4374 H 422.03 -3.70751 -0.399755 0
M  V30 4375 N 424.215 -0.530993 -1.48385 0
M  V30 4376 C 425.147 0.268353 -2.27624 0
M  V30 4377 C 426.16 0.903525 -1.35426 0
M  V30 4378 O 427.349 0.781796 -1.60469 0
M  V30 4379 C 424.449 1.39535 -3.08842 0
M  V30 4380 C 423.622 0.861913 -4.28824 0
M  V30 4381 C 422.681 1.87016 -4.91845 0
M  V30 4382 O 421.707 1.4267 -5.5103 0
M  V30 4383 N 422.909 3.20238 -4.84178 0
M  V30 4384 H 425.674 -0.41123 -2.96865 0
M  V30 4385 H 423.235 -0.365387 -1.57723 0
M  V30 4386 H 425.227 2.06803 -3.47871 0
M  V30 4387 H 423.797 1.97859 -2.42014 0
M  V30 4388 H 423.017 0.0132126 -3.94198 0
M  V30 4389 H 424.305 0.484415 -5.06489 0
M  V30 4390 H 423.703 3.58932 -4.37246 0
M  V30 4391 H 422.26 3.83136 -5.27305 0
M  V30 4392 N 425.693 1.55336 -0.266172 0
M  V30 4393 C 426.97 1.91372 0.404486 0
M  V30 4394 C 427.35 1.18935 1.74407 0
M  V30 4395 O 426.698 0.3132 2.26343 0
M  V30 4396 C 426.908 3.44581 0.553593 0
M  V30 4397 C 428.256 4.16196 0.840618 0
M  V30 4398 O 429.28 3.50426 0.638739 0
M  V30 4399 O 428.139 5.32567 1.22618 0
M  V30 4400 H 425.233 0.797194 0.220025 0
M  V30 4401 H 427.779 1.66813 -0.311664 0
M  V30 4402 H 426.551 3.89357 -0.389498 0
M  V30 4403 H 426.174 3.75065 1.31955 0
M  V30 4404 N 427.171 -0.0066808 1.57599 0
M  V30 4405 C 428.399 -0.704087 1.94551 0
M  V30 4406 C 428.814 -1.67677 0.867746 0
M  V30 4407 O 428.171 -1.8185 -0.153925 0
M  V30 4408 C 428.222 -1.44177 3.31505 0
M  V30 4409 O 427.943 -0.508097 4.35144 0
M  V30 4410 C 429.444 -2.23429 3.82876 0
M  V30 4411 H 426.664 -0.196523 0.641576 0
M  V30 4412 H 429.208 0.042453 2.04456 0
M  V30 4413 H 427.363 -2.13999 3.22929 0
M  V30 4414 H 427.777 -1.02782 5.14331 0
M  V30 4415 H 429.251 -2.70552 4.8115 0
M  V30 4416 H 429.728 -3.05818 3.15233 0
M  V30 4417 H 430.334 -1.58636 3.94607 0
M  V30 4418 N 428.649 -1.55105 -0.279332 0
M  V30 4419 C 430.06 -1.66186 -0.850832 0
M  V30 4420 C 430.411 -0.584707 -1.87285 0
M  V30 4421 O 429.536 0.274919 -2.14647 0
M  V30 4422 C 430.131 -3.01264 -1.55001 0
M  V30 4423 C 428.69 -3.14394 -2.06963 0
M  V30 4424 C 427.837 -2.61959 -0.909536 0
M  V30 4425 H 430.788 -1.58602 -0.0558235 0
M  V30 4426 H 430.809 -2.93899 -2.41669 0
M  V30 4427 H 430.321 -3.7964 -0.805931 0
M  V30 4428 H 428.422 -2.4078 -2.84352 0
M  V30 4429 H 428.535 -4.20867 -2.28928 0
M  V30 4430 H 426.899 -2.18957 -1.30116 0
M  V30 4431 H 427.682 -3.42833 -0.179062 0
M  V30 4432 N 430.127 0.543554 -1.4793 0
M  V30 4433 C 431.352 1.32995 -1.59145 0
M  V30 4434 C 431.777 1.86472 -0.246956 0
M  V30 4435 O 431.135 1.63696 0.779324 0
M  V30 4436 C 431.183 2.46623 -2.63077 0
M  V30 4437 O 430.287 3.49261 -2.19295 0
M  V30 4438 H 429.628 0.394472 -0.534124 0
M  V30 4439 H 432.158 0.655489 -1.93816 0
M  V30 4440 H 432.168 2.93001 -2.83926 0
M  V30 4441 H 430.843 2.07059 -3.60693 0
M  V30 4442 H 429.42 3.09094 -2.08603 0
M  V30 4443 N 431.605 1.3629 0.791371 0
M  V30 4444 C 432.552 1.30458 1.90393 0
M  V30 4445 C 433.522 0.173632 1.6519 0
M  V30 4446 O 434.707 0.35983 1.87376 0
M  V30 4447 C 431.847 1.09777 3.27174 0
M  V30 4448 C 430.96 2.31929 3.64462 0
M  V30 4449 C 430.095 2.04276 4.90352 0
M  V30 4450 C 429.134 3.224 5.20312 0
M  V30 4451 N 428.271 2.94424 6.37385 0
M  V30 4452 H 433.111 2.25589 1.94714 0
M  V30 4453 H 430.648 1.12122 0.952216 0
M  V30 4454 H 432.606 0.958133 4.06049 0
M  V30 4455 H 431.236 0.183014 3.22281 0
M  V30 4456 H 430.288 2.56703 2.80727 0
M  V30 4457 H 431.6 3.20085 3.82553 0
M  V30 4458 H 430.754 1.87231 5.77087 0
M  V30 4459 H 429.493 1.13428 4.74326 0
M  V30 4460 H 428.498 3.40005 4.32061 0
M  V30 4461 H 429.723 4.14071 5.38258 0
M  V30 4462 H 427.669 2.06185 6.22755 0
M  V30 4463 H 427.586 3.76118 6.55798 0
M  V30 4464 H 428.854 2.80953 7.27108 0
M  V30 4465 N 433.083 -1.0153 1.20538 0
M  V30 4466 C 434.499 -1.27461 0.96051 0
M  V30 4467 C 434.699 -1.98273 -0.359193 0
M  V30 4468 O 433.755 -2.27886 -1.0874 0
M  V30 4469 C 435.068 -2.10837 2.14402 0
M  V30 4470 C 436.616 -2.24099 2.18515 0
M  V30 4471 C 437.091 -3.10852 3.36355 0
M  V30 4472 N 438.582 -3.18441 3.36377 0
M  V30 4473 C 439.317 -3.85795 4.24205 0
M  V30 4474 N 438.813 -4.55264 5.22213 0
M  V30 4475 N 440.606 -3.82331 4.12043 0
M  V30 4476 H 432.757 -0.539907 2.05423 0
M  V30 4477 H 435.02 -0.30092 0.898972 0
M  V30 4478 H 434.726 -1.66144 3.09983 0
M  V30 4479 H 434.6 -3.11576 2.12604 0
M  V30 4480 H 436.987 -2.68016 1.23497 0
M  V30 4481 H 437.068 -1.22865 2.24361 0
M  V30 4482 H 436.712 -2.6764 4.31661 0
M  V30 4483 H 436.642 -4.12177 3.27746 0
M  V30 4484 H 439.133 -2.68978 2.65442 0
M  V30 4485 H 439.446 -5.04331 5.85551 0
M  V30 4486 H 437.791 -4.54085 5.26148 0
M  V30 4487 H 440.982 -3.27207 3.34743 0
M  V30 4488 H 441.155 -4.34547 4.807 0
M  V30 4489 N 434.561 -1.01147 -1.20859 0
M  V30 4490 C 435.809 -0.696486 -1.89719 0
M  V30 4491 C 436.13 0.775788 -1.78904 0
M  V30 4492 O 435.4 1.55759 -1.18811 0
M  V30 4493 H 433.98 -0.254628 -0.702263 0
M  V30 4494 H 436.642 -1.28197 -1.46804 0
M  V30 4495 H 435.738 -0.975357 -2.96468 0
M  V30 4496 N 436.039 1.36541 -0.78704 0
M  V30 4497 C 437.285 1.99599 -0.358872 0
M  V30 4498 C 437.618 1.62323 1.06606 0
M  V30 4499 O 436.893 0.876858 1.73613 0
M  V30 4500 C 437.176 3.56327 -0.519944 0
M  V30 4501 C 437.029 4.03464 -1.98839 0
M  V30 4502 C 438.348 4.4005 0.0664737 0
M  V30 4503 H 435.467 0.725107 -0.131869 0
M  V30 4504 H 438.109 1.6199 -0.992936 0
M  V30 4505 H 436.259 3.88495 0.0198321 0
M  V30 4506 H 437.931 3.81793 -2.58905 0
M  V30 4507 H 436.174 3.55092 -2.49183 0
M  V30 4508 H 436.845 5.12439 -2.05207 0
M  V30 4509 H 439.321 4.14228 -0.394267 0
M  V30 4510 H 438.197 5.48847 -0.0762682 0
M  V30 4511 H 438.458 4.26655 1.15835 0
M  V30 4512 N 437.518 0.538854 1.48102 0
M  V30 4513 C 438.934 0.19732 1.58376 0
M  V30 4514 C 439.134 -1.29971 1.5398 0
M  V30 4515 O 438.19 -2.07861 1.43352 0
M  V30 4516 C 439.503 0.807716 2.89649 0
M  V30 4517 C 441.051 0.77726 3.03196 0
M  V30 4518 C 441.526 1.36639 4.37143 0
M  V30 4519 N 443.017 1.32875 4.43732 0
M  V30 4520 C 443.752 1.7544 5.45901 0
M  V30 4521 N 443.248 2.25776 6.54979 0
M  V30 4522 N 445.041 1.66623 5.36836 0
M  V30 4523 H 437.192 1.5117 1.49202 0
M  V30 4524 H 439.455 0.629327 0.708979 0
M  V30 4525 H 439.161 1.85909 2.98548 0
M  V30 4526 H 439.035 0.289975 3.76084 0
M  V30 4527 H 441.422 -0.265374 2.93904 0
M  V30 4528 H 441.503 1.33256 2.18349 0
M  V30 4529 H 441.147 2.408 4.47189 0
M  V30 4530 H 441.077 0.786689 5.20691 0
M  V30 4531 H 443.568 0.96037 3.65493 0
M  V30 4532 H 443.881 2.56226 7.29087 0
M  V30 4533 H 442.226 2.29775 6.55918 0
M  V30 4534 H 445.417 1.27089 4.50517 0
M  V30 4535 H 445.59 2.00115 6.16326 0
M  V30 4536 N 438.996 -1.55193 0.274407 0
M  V30 4537 C 440.224 -2.03987 -0.345943 0
M  V30 4538 C 440.639 -1.15279 -1.4952 0
M  V30 4539 O 439.996 -0.172759 -1.8168 0
M  V30 4540 C 440.047 -3.51898 -0.827631 0
M  V30 4541 O 439.768 -4.37231 0.275855 0
M  V30 4542 C 441.269 -4.16577 -1.51587 0
M  V30 4543 H 438.489 -0.666335 -0.0789892 0
M  V30 4544 H 441.033 -2.00423 0.406294 0
M  V30 4545 H 439.188 -3.55909 -1.52996 0
M  V30 4546 H 439.602 -5.24415 -0.0943638 0
M  V30 4547 H 441.076 -5.21678 -1.80433 0
M  V30 4548 H 441.553 -3.64707 -2.44716 0
M  V30 4549 H 442.159 -4.16568 -0.857409 0
M  V30 4550 N 440.474 -0.00167713 -1.576 0
M  V30 4551 C 441.404 0.988091 -2.11563 0
M  V30 4552 C 442.385 1.35736 -1.02517 0
M  V30 4553 O 443.57 1.44082 -1.30208 0
M  V30 4554 C 440.7 2.27941 -2.62031 0
M  V30 4555 C 439.654 2.0517 -3.75619 0
M  V30 4556 C 438.98 3.4033 -4.12407 0
M  V30 4557 C 440.28 1.41294 -5.02825 0
M  V30 4558 H 441.974 0.538771 -2.94513 0
M  V30 4559 H 439.52 0.257712 -1.41675 0
M  V30 4560 H 441.473 2.97539 -2.9841 0
M  V30 4561 H 440.197 2.74989 -1.76205 0
M  V30 4562 H 438.856 1.37998 -3.39635 0
M  V30 4563 H 438.504 3.85085 -3.23603 0
M  V30 4564 H 438.204 3.25909 -4.88935 0
M  V30 4565 H 439.728 4.1124 -4.51347 0
M  V30 4566 H 441.142 2.00851 -5.36965 0
M  V30 4567 H 439.539 1.37356 -5.84169 0
M  V30 4568 H 440.609 0.382362 -4.8339 0
M  V30 4569 N 441.952 1.55251 0.271103 0
M  V30 4570 C 442.902 1.84649 1.33749 0
M  V30 4571 C 443.886 0.705529 1.44607 0
M  V30 4572 O 445.078 0.966916 1.48256 0
M  V30 4573 C 442.207 2.12354 2.69742 0
M  V30 4574 C 441.293 3.32714 2.62988 0
M  V30 4575 N 441.684 4.52575 2.25853 0
M  V30 4576 C 439.982 3.35341 2.94045 0
M  V30 4577 C 440.683 5.34669 2.29136 0
M  V30 4578 N 439.659 4.73123 2.67685 0
M  V30 4579 H 443.461 2.74865 1.0405 0
M  V30 4580 H 440.975 1.55152 0.479738 0
M  V30 4581 H 442.972 2.31572 3.4667 0
M  V30 4582 H 441.632 1.23422 3.00328 0
M  V30 4583 H 442.643 4.78639 1.978 0
M  V30 4584 H 439.32 2.56608 3.2933 0
M  V30 4585 H 440.71 6.40509 2.02971 0
M  V30 4586 N 443.43 -0.535701 1.48216 0
M  V30 4587 C 444.362 -1.65662 1.58394 0
M  V30 4588 C 445.375 -1.5591 0.468607 0
M  V30 4589 O 446.564 -1.62475 0.7392 0
M  V30 4590 C 443.664 -3.04276 1.4923 0
M  V30 4591 C 442.837 -3.39567 2.75705 0
M  V30 4592 C 441.896 -4.57436 2.60075 0
M  V30 4593 O 440.922 -4.60942 3.33948 0
M  V30 4594 N 442.124 -5.55259 1.69315 0
M  V30 4595 H 444.889 -1.5737 2.55058 0
M  V30 4596 H 442.45 -0.722845 1.44867 0
M  V30 4597 H 444.442 -3.80994 1.36477 0
M  V30 4598 H 443.012 -3.06677 0.605632 0
M  V30 4599 H 442.232 -2.52083 3.03064 0
M  V30 4600 H 443.52 -3.59929 3.59623 0
M  V30 4601 H 442.918 -5.552 1.08489 0
M  V30 4602 H 441.475 -6.31218 1.62504 0
M  V30 4603 N 444.908 -1.36708 -0.784132 0
M  V30 4604 C 446.324 -1.17237 -1.08294 0
M  V30 4605 C 446.524 -5.93947e-05 -2.015 0
M  V30 4606 O 445.58 0.663686 -2.43622 0
M  V30 4607 C 446.893 -2.48557 -1.69233 0
M  V30 4608 C 448.441 -2.54968 -1.8155 0
M  V30 4609 C 448.916 -3.86388 -2.45904 0
M  V30 4610 N 450.407 -3.87762 -2.53367 0
M  V30 4611 C 451.142 -4.86191 -3.03983 0
M  V30 4612 N 450.638 -5.95015 -3.54866 0
M  V30 4613 N 452.431 -4.73606 -3.02743 0
M  V30 4614 H 444.582 -2.11758 -0.16501 0
M  V30 4615 H 446.845 -0.93822 -0.135822 0
M  V30 4616 H 446.551 -3.34638 -1.08215 0
M  V30 4617 H 446.425 -2.64748 -2.68679 0
M  V30 4618 H 448.812 -1.69302 -2.41704 0
M  V30 4619 H 448.893 -2.42672 -0.80895 0
M  V30 4620 H 448.537 -4.72462 -1.86392 0
M  V30 4621 H 448.467 -3.95982 -3.4714 0
M  V30 4622 H 450.958 -3.09145 -2.17343 0
M  V30 4623 H 451.271 -6.66086 -3.91854 0
M  V30 4624 H 449.616 -5.98676 -3.53003 0
M  V30 4625 H 452.807 -3.87717 -2.62284 0
M  V30 4626 H 452.98 -5.50473 -3.41881 0
M  V30 4627 N 446.386 1.0089 -1.21074 0
M  V30 4628 C 447.633 1.74607 -1.0256 0
M  V30 4629 C 447.961 1.89426 0.44136 0
M  V30 4630 O 447.216 1.42266 1.34384 0
M  V30 4631 C 447.515 3.16335 -1.66334 0
M  V30 4632 C 447.181 3.21474 -3.16173 0
M  V30 4633 C 445.843 3.22583 -3.57062 0
M  V30 4634 C 448.195 3.19025 -4.12156 0
M  V30 4635 C 445.523 3.18925 -4.92446 0
M  V30 4636 C 447.875 3.16909 -5.47496 0
M  V30 4637 C 446.539 3.16326 -5.87787 0
M  V30 4638 H 445.809 0.638933 -0.375294 0
M  V30 4639 H 448.456 1.18274 -1.50611 0
M  V30 4640 H 446.761 3.75876 -1.10566 0
M  V30 4641 H 448.458 3.72083 -1.49516 0
M  V30 4642 H 445.048 3.2135 -2.83605 0
M  V30 4643 H 449.232 3.17332 -3.81595 0
M  V30 4644 H 444.488 3.16809 -5.22917 0
M  V30 4645 H 448.662 3.13968 -6.21609 0
M  V30 4646 H 446.289 3.13246 -6.92662 0
M  V30 4647 N 447.864 1.01787 1.20321 0
M  V30 4648 C 448.794 0.609625 2.25401 0
M  V30 4649 C 449.775 -0.375951 1.65893 0
M  V30 4650 O 450.96 -0.261101 1.92437 0
M  V30 4651 C 448.09 -0.0515995 3.47262 0
M  V30 4652 C 447.044 0.855095 4.19371 0
M  V30 4653 C 446.37 0.0595757 5.34667 0
M  V30 4654 C 447.67 2.16374 4.75373 0
M  V30 4655 H 449.364 1.48803 2.59804 0
M  V30 4656 H 446.91 0.716934 1.24884 0
M  V30 4657 H 448.863 -0.348764 4.19954 0
M  V30 4658 H 447.587 -0.964726 3.12027 0
M  V30 4659 H 446.246 1.13628 3.48546 0
M  V30 4660 H 445.894 -0.85524 4.95676 0
M  V30 4661 H 445.594 0.663406 5.83843 0
M  V30 4662 H 447.118 -0.231105 6.10162 0
M  V30 4663 H 448.532 1.92885 5.39878 0
M  V30 4664 H 446.929 2.71853 5.34991 0
M  V30 4665 H 447.999 2.82589 3.94045 0
M  V30 4666 N 449.342 -1.36122 0.79427 0
M  V30 4667 C 450.305 -2.28309 0.201889 0
M  V30 4668 C 451.305 -1.49041 -0.603603 0
M  V30 4669 O 452.495 -1.68964 -0.423888 0
M  V30 4670 C 449.627 -3.3321 -0.719978 0
M  V30 4671 H 450.82 -2.82208 1.01481 0
M  V30 4672 H 448.373 -1.45768 0.564037 0
M  V30 4673 H 449.108 -2.84475 -1.55706 0
M  V30 4674 H 448.893 -3.91835 -0.144266 0
M  V30 4675 H 450.383 -4.02044 -1.12916 0
M  V30 4676 N 450.82 -0.546701 -1.47814 0
M  V30 4677 C 451.752 0.244196 -2.27895 0
M  V30 4678 C 452.765 0.88911 -1.36377 0
M  V30 4679 O 453.954 0.764733 -1.61289 0
M  V30 4680 C 451.054 1.36252 -3.10304 0
M  V30 4681 C 450.227 0.816382 -4.29714 0
M  V30 4682 C 449.286 1.81789 -4.93801 0
M  V30 4683 O 448.312 1.36818 -5.52512 0
M  V30 4684 N 449.514 3.15085 -4.87547 0
M  V30 4685 H 452.279 -0.442694 -2.96412 0
M  V30 4686 H 449.84 -0.382095 -1.57327 0
M  V30 4687 H 451.832 2.03102 -3.50045 0
M  V30 4688 H 450.402 1.95281 -2.44099 0
M  V30 4689 H 449.622 -0.0285981 -3.9419 0
M  V30 4690 H 450.91 0.430668 -5.06974 0
M  V30 4691 H 450.308 3.54275 -4.41028 0
M  V30 4692 H 448.865 3.77522 -5.31339 0
M  V30 4693 N 452.299 1.55045 -0.282633 0
M  V30 4694 C 453.229 2.2579 0.595066 0
M  V30 4695 C 454.21 1.25074 1.15284 0
M  V30 4696 O 455.395 1.5381 1.18559 0
M  V30 4697 C 452.525 2.98472 1.77572 0
M  V30 4698 C 451.479 4.0618 1.34914 0
M  V30 4699 C 450.805 4.66477 2.6135 0
M  V30 4700 C 452.105 5.1996 0.493821 0
M  V30 4701 H 453.799 2.994 0.00505653 0
M  V30 4702 H 451.345 1.44 0.000992001 0
M  V30 4703 H 453.298 3.46677 2.39568 0
M  V30 4704 H 452.022 2.2241 2.39168 0
M  V30 4705 H 450.681 3.58797 0.752338 0
M  V30 4706 H 450.329 3.87074 3.2122 0
M  V30 4707 H 450.029 5.39207 2.33516 0
M  V30 4708 H 451.553 5.17435 3.24181 0
M  V30 4709 H 452.967 5.64172 1.01898 0
M  V30 4710 H 451.364 5.99299 0.310047 0
M  V30 4711 H 452.434 4.82462 -0.485593 0
M  V30 4712 N 453.777 0.010035 1.57597 0
M  V30 4713 C 455.193 -0.346164 1.55801 0
M  V30 4714 C 455.393 -1.74144 1.01371 0
M  V30 4715 O 454.449 -2.43938 0.651968 0
M  V30 4716 C 455.762 -0.212216 2.9995 0
M  V30 4717 C 457.31 -0.286409 3.11687 0
M  V30 4718 C 457.785 -0.18147 4.5764 0
M  V30 4719 N 459.276 -0.239056 4.62583 0
M  V30 4720 C 460.011 -0.181351 5.73113 0
M  V30 4721 N 459.507 -0.073661 6.92761 0
M  V30 4722 N 461.3 -0.233949 5.61613 0
M  V30 4723 H 453.451 0.922657 1.91313 0
M  V30 4724 H 455.714 0.354595 0.879185 0
M  V30 4725 H 455.42 0.748169 3.4365 0
M  V30 4726 H 455.294 -0.990224 3.6397 0
M  V30 4727 H 457.681 -1.23724 2.67911 0
M  V30 4728 H 457.762 0.521645 2.50425 0
M  V30 4729 H 457.406 0.765863 5.02093 0
M  V30 4730 H 457.336 -1.00814 5.1686 0
M  V30 4731 H 459.827 -0.32321 3.76515 0
M  V30 4732 H 460.14 -0.0358003 7.72792 0
M  V30 4733 H 458.485 -0.0391461 6.94989 0
M  V30 4734 H 461.676 -0.316347 4.6703 0
M  V30 4735 H 461.849 -0.185514 6.47734 0
M  V30 4736 N 455.255 -1.55392 -0.262866 0
M  V30 4737 C 456.202 -1.88966 -1.32516 0
M  V30 4738 C 457.172 -0.742187 -1.48596 0
M  V30 4739 O 458.357 -0.99439 -1.62839 0
M  V30 4740 C 455.497 -2.17592 -2.67858 0
M  V30 4741 C 454.61 -3.45061 -2.59917 0
M  V30 4742 C 453.745 -3.63336 -3.87505 0
M  V30 4743 C 452.784 -4.84462 -3.74116 0
M  V30 4744 N 451.921 -4.99342 -4.93561 0
M  V30 4745 H 456.761 -2.79566 -1.03184 0
M  V30 4746 H 454.298 -1.38404 -0.498285 0
M  V30 4747 H 456.256 -2.3219 -3.46617 0
M  V30 4748 H 454.886 -1.30215 -2.95371 0
M  V30 4749 H 453.938 -3.38881 -1.72812 0
M  V30 4750 H 455.25 -4.3396 -2.45926 0
M  V30 4751 H 454.404 -3.77807 -4.74707 0
M  V30 4752 H 453.143 -2.72641 -4.04374 0
M  V30 4753 H 452.148 -4.69985 -2.85297 0
M  V30 4754 H 453.373 -5.76603 -3.58757 0
M  V30 4755 H 451.319 -4.1158 -5.10821 0
M  V30 4756 H 451.236 -5.82303 -4.82141 0
M  V30 4757 H 452.504 -5.18208 -5.82306 0
M  V30 4758 N 456.733 0.527833 -1.48498 0
M  V30 4759 C 457.963 1.30633 -1.60058 0
M  V30 4760 C 458.371 1.87394 -0.260786 0
M  V30 4761 O 457.714 1.67227 0.760317 0
M  V30 4762 C 457.776 2.49361 -2.58958 0
M  V30 4763 C 457.44 2.13671 -4.03972 0
M  V30 4764 C 458.437 1.69217 -4.91591 0
M  V30 4765 C 456.122 2.24129 -4.49524 0
M  V30 4766 C 458.116 1.35689 -6.2279 0
M  V30 4767 C 455.803 1.90212 -5.80743 0
M  V30 4768 C 456.801 1.46063 -6.67199 0
M  V30 4769 O 456.489 1.12593 -7.95976 0
M  V30 4770 H 456.221 0.403444 -0.54241 0
M  V30 4771 H 458.775 0.643233 -1.95068 0
M  V30 4772 H 457.005 3.18659 -2.19073 0
M  V30 4773 H 458.694 3.11421 -2.6033 0
M  V30 4774 H 459.46 1.60607 -4.57636 0
M  V30 4775 H 455.339 2.57447 -3.82416 0
M  V30 4776 H 458.883 1.01157 -6.90227 0
M  V30 4777 H 454.78 1.98464 -6.14233 0
M  V30 4778 H 455.548 1.25972 -8.08748 0
M  V30 4779 N 458.211 1.37122 0.776871 0
M  V30 4780 C 459.458 1.32047 1.53524 0
M  V30 4781 C 459.786 -0.0965631 1.9426 0
M  V30 4782 O 459.041 -1.06866 1.63945 0
M  V30 4783 C 459.34 2.20068 2.81611 0
M  V30 4784 C 459.006 3.68423 2.59953 0
M  V30 4785 C 457.668 4.08854 2.53755 0
M  V30 4786 C 460.02 4.62431 2.40431 0
M  V30 4787 C 457.348 5.41417 2.26018 0
M  V30 4788 C 459.7 5.95225 2.14219 0
M  V30 4789 C 458.364 6.34767 2.06462 0
M  V30 4790 H 457.634 0.483196 0.561785 0
M  V30 4791 H 460.281 1.69284 0.895268 0
M  V30 4792 H 458.586 1.75809 3.50141 0
M  V30 4793 H 460.283 2.13458 3.39465 0
M  V30 4794 H 456.873 3.36354 2.65638 0
M  V30 4795 H 461.057 4.32057 2.44213 0
M  V30 4796 H 456.313 5.71022 2.18504 0
M  V30 4797 H 460.487 6.67626 1.98112 0
M  V30 4798 H 458.114 7.37413 1.84733 0
M  V30 4799 N 459.689 -1.00246 1.21608 0
M  V30 4800 C 460.637 -2.11193 0.97469 0
M  V30 4801 C 461.631 -1.69216 -0.0789303 0
M  V30 4802 O 462.837 -1.79853 0.0726806 0
M  V30 4803 H 459.212 -0.690455 0.297953 0
M  V30 4804 H 461.183 -2.2873 1.91638 0
M  V30 4805 C 459.932 -3.43182 0.558717 0
M  V30 4806 H 459.255 -3.75918 1.3611 0
M  V30 4807 H 460.695 -4.21823 0.429154 0
M  V30 4808 C 459.154 -3.28882 -0.730648 0
M  V30 4809 O 459.684 -3.59835 -1.78554 0
M  V30 4810 N 457.89 -2.8209 -0.698131 0
M  V30 4811 H 457.437 -2.57099 0.16061 0
M  V30 4812 H 457.395 -2.72903 -1.56113 0
M  V30 4813 N 461.167 -1.02423 -1.1978 0
M  V30 4814 C 462.1 -0.545641 -2.21581 0
M  V30 4815 C 463.078 0.411024 -1.57319 0
M  V30 4816 O 464.262 0.329223 -1.85603 0
M  V30 4817 C 461.389 0.204973 -3.38079 0
M  V30 4818 C 460.435 -0.70241 -4.20676 0
M  V30 4819 S 461.268 -2.17595 -4.89298 0
M  V30 4820 C 462.424 -1.43572 -6.09211 0
M  V30 4821 H 462.657 -1.4082 -2.61834 0
M  V30 4822 H 460.19 -0.833771 -1.29952 0
M  V30 4823 H 462.148 0.631924 -4.05607 0
M  V30 4824 H 460.809 1.0432 -2.9627 0
M  V30 4825 H 460.002 -0.123193 -5.03849 0
M  V30 4826 H 459.604 -1.06747 -3.58442 0
M  V30 4827 H 461.896 -0.719806 -6.73665 0
M  V30 4828 H 462.839 -2.24388 -6.71607 0
M  V30 4829 H 463.247 -0.935252 -5.56699 0
M  V30 4830 N 462.645 1.35699 -0.801477 0
M  V30 4831 C 464.061 1.52065 -0.484596 0
M  V30 4832 C 464.261 1.75215 0.995084 0
M  V30 4833 O 463.317 1.79061 1.78026 0
M  V30 4834 C 464.63 2.69908 -1.32552 0
M  V30 4835 C 466.178 2.83784 -1.32044 0
M  V30 4836 C 466.653 4.04646 -2.14536 0
M  V30 4837 N 468.144 4.11814 -2.12046 0
M  V30 4838 C 468.879 5.04437 -2.72636 0
M  V30 4839 N 468.375 6.02426 -3.42133 0
M  V30 4840 N 470.168 4.97144 -2.62305 0
M  V30 4841 H 462.319 1.18928 -1.75983 0
M  V30 4842 H 464.582 0.581455 -0.748741 0
M  V30 4843 H 464.288 2.59363 -2.37537 0
M  V30 4844 H 464.162 3.64376 -0.975181 0
M  V30 4845 H 466.549 2.93783 -0.27846 0
M  V30 4846 H 466.63 1.90188 -1.71062 0
M  V30 4847 H 466.274 3.95407 -3.18772 0
M  V30 4848 H 466.204 4.97413 -1.72882 0
M  V30 4849 H 468.695 3.41664 -1.61476 0
M  V30 4850 H 469.008 6.69688 -3.85666 0
M  V30 4851 H 467.353 6.02615 -3.46237 0
M  V30 4852 H 470.544 4.19546 -2.07603 0
M  V30 4853 H 470.717 5.69138 -3.09815 0
M  V30 4854 N 464.123 0.554532 1.47522 0
M  V30 4855 C 465.369 0.0295227 2.02779 0
M  V30 4856 C 465.702 -1.31582 1.42828 0
M  V30 4857 O 464.977 -1.85561 0.582872 0
M  V30 4858 C 465.26 -0.0664057 3.60039 0
M  V30 4859 C 465.113 1.30585 4.30427 0
M  V30 4860 C 466.432 -0.781162 4.33112 0
M  V30 4861 H 463.551 0.0122027 0.736899 0
M  V30 4862 H 466.193 0.716305 1.7598 0
M  V30 4863 H 464.343 -0.651307 3.83002 0
M  V30 4864 H 466.015 1.93374 4.18813 0
M  V30 4865 H 464.258 1.88125 3.90886 0
M  V30 4866 H 464.929 1.19147 5.38988 0
M  V30 4867 H 467.405 -0.284565 4.15126 0
M  V30 4868 H 466.281 -0.817237 5.42782 0
M  V30 4869 H 466.542 -1.83672 4.0214 0
M  V30 4870 N 465.601 -1.54893 0.290851 0
M  V30 4871 C 466.848 -1.99933 -0.321391 0
M  V30 4872 C 467.176 -1.17927 -1.54672 0
M  V30 4873 O 466.431 -0.240902 -1.94212 0
M  V30 4874 C 466.73 -3.49815 -0.732397 0
M  V30 4875 C 466.396 -4.4921 0.390056 0
M  V30 4876 C 465.058 -4.76107 0.698223 0
M  V30 4877 C 467.41 -5.08453 1.14562 0
M  V30 4878 C 464.738 -5.59514 1.76526 0
M  V30 4879 C 467.09 -5.9302 2.2025 0
M  V30 4880 C 465.754 -6.18232 2.51684 0
M  V30 4881 H 465.024 -0.731608 -0.117605 0
M  V30 4882 H 467.671 -1.87107 0.407839 0
M  V30 4883 H 465.976 -3.60199 -1.54155 0
M  V30 4884 H 467.673 -3.82083 -1.21712 0
M  V30 4885 H 464.263 -4.28372 0.13976 0
M  V30 4886 H 468.447 -4.87683 0.920801 0
M  V30 4887 H 463.703 -5.77289 2.01364 0
M  V30 4888 H 467.877 -6.37955 2.7926 0
M  V30 4889 H 465.504 -6.82653 3.34499 0
M  V30 4890 N 467.08 -0.0183926 -1.57589 0
M  V30 4891 C 468.496 0.337897 -1.55982 0
M  V30 4892 C 468.696 1.73604 -1.02294 0
M  V30 4893 O 467.752 2.43589 -0.664895 0
M  V30 4894 C 469.065 0.196305 -3.00059 0
M  V30 4895 C 470.613 0.269875 -3.11834 0
M  V30 4896 C 471.088 0.157197 -4.5773 0
M  V30 4897 N 472.579 0.214521 -4.62703 0
M  V30 4898 C 473.314 0.150955 -5.73201 0
M  V30 4899 N 472.81 0.0369212 -6.9279 0
M  V30 4900 N 474.603 0.204162 -5.61729 0
M  V30 4901 H 466.754 -0.93279 -1.90821 0
M  V30 4902 H 469.017 -0.359253 -0.877292 0
M  V30 4903 H 468.723 -0.766383 -3.43248 0
M  V30 4904 H 468.597 0.970908 -3.6449 0
M  V30 4905 H 470.984 1.22302 -2.68563 0
M  V30 4906 H 471.065 -0.534918 -2.50144 0
M  V30 4907 H 470.709 -0.792479 -5.01679 0
M  V30 4908 H 470.639 0.980717 -5.17387 0
M  V30 4909 H 473.13 0.303238 -3.76681 0
M  V30 4910 H 473.443 -0.00518321 -7.728 0
M  V30 4911 H 471.788 0.0022886 -6.95 0
M  V30 4912 H 474.979 0.291575 -4.67191 0
M  V30 4913 H 475.152 0.15116 -6.47824 0
M  V30 4914 N 468.558 1.5553 0.254621 0
M  V30 4915 C 469.49 1.86104 1.33783 0
M  V30 4916 C 470.503 0.746752 1.44663 0
M  V30 4917 O 471.692 1.0248 1.46151 0
M  V30 4918 C 468.792 2.02532 2.71724 0
M  V30 4919 C 467.965 3.33335 2.83208 0
M  V30 4920 C 467.024 3.396 4.01943 0
M  V30 4921 O 466.05 4.12862 3.91834 0
M  V30 4922 N 467.252 2.68332 5.1476 0
M  V30 4923 H 470.017 2.79605 1.07893 0
M  V30 4924 H 467.578 1.55672 0.444732 0
M  V30 4925 H 469.57 2.04074 3.4948 0
M  V30 4926 H 468.14 1.15811 2.90356 0
M  V30 4927 H 467.36 3.44176 1.92189 0
M  V30 4928 H 468.648 4.19565 2.87824 0
M  V30 4929 H 468.046 2.08528 5.25864 0
M  V30 4930 H 466.603 2.75575 5.90679 0
M  V30 4931 N 470.036 -0.519951 1.48776 0
M  V30 4932 C 471.452 -0.849418 1.35119 0
M  V30 4933 C 471.652 -1.98077 0.36982 0
M  V30 4934 O 470.708 -2.51664 -0.205359 0
M  V30 4935 C 472.021 -1.20748 2.75391 0
M  V30 4936 C 473.569 -1.31679 2.83954 0
M  V30 4937 C 474.044 -1.70824 4.24951 0
M  V30 4938 N 475.535 -1.77908 4.27672 0
M  V30 4939 C 476.27 -2.09603 5.33717 0
M  V30 4940 N 475.766 -2.39652 6.5003 0
M  V30 4941 N 477.559 -2.10694 5.21119 0
M  V30 4942 H 469.71 0.226377 2.1119 0
M  V30 4943 H 471.973 0.0386519 0.947212 0
M  V30 4944 H 471.679 -0.449703 3.48813 0
M  V30 4945 H 471.553 -2.15534 3.09556 0
M  V30 4946 H 473.94 -2.06532 2.10781 0
M  V30 4947 H 474.021 -0.3499 2.53396 0
M  V30 4948 H 473.665 -0.965282 4.98643 0
M  V30 4949 H 473.595 -2.6858 4.52959 0
M  V30 4950 H 476.086 -1.56923 3.43779 0
M  V30 4951 H 476.399 -2.6297 7.26682 0
M  V30 4952 H 474.744 -2.37149 6.53288 0
M  V30 4953 H 477.935 -1.86682 4.29264 0
M  V30 4954 H 478.108 -2.35062 6.03863 0
M  V30 4955 N 471.514 -1.37532 -0.769588 0
M  V30 4956 C 472.742 -1.36059 -1.55871 0
M  V30 4957 C 473.157 0.053544 -1.88724 0
M  V30 4958 O 472.514 1.01591 -1.5161 0
M  V30 4959 C 472.565 -2.20107 -2.86767 0
M  V30 4960 O 472.286 -3.56009 -2.55321 0
M  V30 4961 C 473.787 -2.26636 -3.80987 0
M  V30 4962 H 471.007 -0.465967 -0.482821 0
M  V30 4963 H 473.551 -1.80901 -0.953686 0
M  V30 4964 H 471.706 -1.78768 -3.43687 0
M  V30 4965 H 472.12 -4.0009 -3.39158 0
M  V30 4966 H 473.594 -2.89763 -4.69831 0
M  V30 4967 H 474.071 -1.2754 -4.20274 0
M  V30 4968 H 474.677 -2.68296 -3.29996 0
M  V30 4969 N 472.992 0.995999 -1.22138 0
M  V30 4970 C 474.222 1.76809 -1.06874 0
M  V30 4971 C 474.63 1.85265 0.383866 0
M  V30 4972 O 473.973 1.31969 1.27789 0
M  V30 4973 C 474.035 3.2186 -1.60144 0
M  V30 4974 C 473.699 3.36958 -3.0872 0
M  V30 4975 C 474.696 3.2452 -4.0618 0
M  V30 4976 C 472.381 3.62109 -3.48112 0
M  V30 4977 C 474.375 3.37013 -5.41019 0
M  V30 4978 C 472.062 3.74243 -4.831 0
M  V30 4979 C 473.06 3.61702 -5.79362 0
M  V30 4980 O 472.748 3.73436 -7.119 0
M  V30 4981 H 472.48 0.562207 -0.375365 0
M  V30 4982 H 475.034 1.26113 -1.62125 0
M  V30 4983 H 473.264 3.73734 -0.992981 0
M  V30 4984 H 474.953 3.80775 -1.40589 0
M  V30 4985 H 475.719 3.05004 -3.77091 0
M  V30 4986 H 471.598 3.70949 -2.73712 0
M  V30 4987 H 475.142 3.27141 -6.16137 0
M  V30 4988 H 471.039 3.93266 -5.11872 0
M  V30 4989 H 471.807 3.90328 -7.19435 0
M  V30 4990 N 474.47 1.03057 1.19235 0
M  V30 4991 C 475.886 0.747947 1.40989 0
M  V30 4992 C 476.086 -0.666752 1.90149 0
M  V30 4993 O 475.142 -1.43249 2.07933 0
M  V30 4994 C 476.455 1.7855 2.41951 0
M  V30 4995 C 478.003 1.80524 2.55695 0
M  V30 4996 C 478.478 2.83243 3.59913 0
M  V30 4997 N 479.969 2.8207 3.67411 0
M  V30 4998 C 480.704 3.58204 4.47747 0
M  V30 4999 N 480.2 4.44057 5.31775 0
M  V30 5000 N 481.993 3.46738 4.42413 0
M  V30 5001 H 474.144 1.94367 0.856468 0
M  V30 5002 H 476.407 0.840412 0.438647 0
M  V30 5003 H 476.113 2.79973 2.12857 0
M  V30 5004 H 475.987 1.6092 3.41152 0
M  V30 5005 H 478.374 0.79778 2.84112 0
M  V30 5006 H 478.455 2.02229 1.56643 0
M  V30 5007 H 478.099 3.84161 3.32239 0
M  V30 5008 H 478.029 2.58795 4.5862 0
M  V30 5009 H 480.52 2.19803 3.074 0
M  V30 5010 H 480.833 4.98884 5.90199 0
M  V30 5011 H 479.178 4.48129 5.3123 0
M  V30 5012 H 482.369 2.79077 3.75811 0
M  V30 5013 H 482.542 4.06322 5.04783 0
M  V30 5014 N 475.948 -1.35272 0.808662 0
M  V30 5015 C 477.197 -1.97963 0.386483 0
M  V30 5016 C 477.51 -1.64866 -1.05255 0
M  V30 5017 O 478.716 -2.20937 -1.57794 0
M  V30 5018 C 477.172 -3.54162 0.640096 0
M  V30 5019 C 476.78 -3.96166 2.0918 0
M  V30 5020 C 478.524 -4.23553 0.283376 0
M  V30 5021 C 476.431 -5.4522 2.29106 0
M  V30 5022 H 475.361 -0.740742 0.140774 0
M  V30 5023 H 478.012 -1.5431 0.993012 0
M  V30 5024 H 476.394 -3.95983 -0.0364117 0
M  V30 5025 H 477.568 -3.65491 2.80629 0
M  V30 5026 H 475.883 -3.3967 2.40859 0
M  V30 5027 H 478.48 -5.33124 0.410273 0
M  V30 5028 H 478.823 -4.09105 -0.770659 0
M  V30 5029 H 479.356 -3.8716 0.913884 0
M  V30 5030 H 476.095 -5.64638 3.32962 0
M  V30 5031 H 475.615 -5.77457 1.62184 0
M  V30 5032 H 477.294 -6.1171 2.1076 0
M  V30 5033 N 477.426 -0.562348 -1.47226 0
M  V30 5034 C 478.672 -0.0485293 -2.03342 0
M  V30 5035 C 479.027 1.28898 -1.42839 0
M  V30 5036 O 478.32 1.82719 -0.576563 0
M  V30 5037 C 478.514 0.0969817 -3.57268 0
M  V30 5038 C 478.343 -1.22487 -4.32697 0
M  V30 5039 C 477.113 -1.79357 -4.72397 0
M  V30 5040 C 479.311 -2.14332 -4.67511 0
M  V30 5041 N 477.293 -3.05493 -5.32491 0
M  V30 5042 C 478.664 -3.25049 -5.27961 0
M  V30 5043 C 480.719 -2.14263 -4.4944 0
M  V30 5044 C 479.422 -4.35804 -5.72248 0
M  V30 5045 C 481.448 -3.24033 -4.94729 0
M  V30 5046 C 480.81 -4.3347 -5.55233 0
M  V30 5047 H 476.909 -0.0600464 -0.779691 0
M  V30 5048 H 479.493 -0.750769 -1.79643 0
M  V30 5049 H 477.664 0.768353 -3.80724 0
M  V30 5050 H 479.396 0.613333 -4.00025 0
M  V30 5051 H 476.151 -1.33093 -4.54514 0
M  V30 5052 H 476.575 -3.698 -5.67077 0
M  V30 5053 H 481.217 -1.30935 -4.02015 0
M  V30 5054 H 478.935 -5.19888 -6.18661 0
M  V30 5055 H 482.521 -3.25073 -4.82513 0
M  V30 5056 H 481.401 -5.17008 -5.89638 0
M  V30 5057 N 478.904 1.54736 -0.299062 0
M  V30 5058 C 479.867 2.22127 0.565012 0
M  V30 5059 C 480.867 1.20669 1.06281 0
M  V30 5060 O 482.057 1.45417 0.959145 0
M  V30 5061 C 479.189 2.90611 1.78208 0
M  V30 5062 H 480.382 2.99891 -0.0237448 0
M  V30 5063 H 477.935 1.5622 -0.0498788 0
M  V30 5064 H 478.67 2.16921 2.41072 0
M  V30 5065 H 478.455 3.64984 1.43281 0
M  V30 5066 H 479.945 3.42026 2.396 0
M  V30 5067 N 480.382 0.0267497 1.57577 0
M  V30 5068 C 481.629 -0.652404 1.91703 0
M  V30 5069 C 481.957 -1.72271 0.902936 0
M  V30 5070 O 481.212 -1.955 -0.0884843 0
M  V30 5071 C 481.511 -1.30914 3.3256 0
M  V30 5072 C 481.177 -0.369441 4.49384 0
M  V30 5073 C 479.839 -0.110791 4.81072 0
M  V30 5074 C 482.191 0.275971 5.20469 0
M  V30 5075 C 479.519 0.801116 5.81205 0
M  V30 5076 C 481.871 1.17592 6.21575 0
M  V30 5077 C 480.535 1.44348 6.51705 0
M  V30 5078 H 479.805 -0.238732 0.70149 0
M  V30 5079 H 482.452 0.0880091 1.91298 0
M  V30 5080 H 480.757 -2.12425 3.29216 0
M  V30 5081 H 482.454 -1.84115 3.56234 0
M  V30 5082 H 479.044 -0.581211 4.24641 0
M  V30 5083 H 483.228 0.0892 4.9622 0
M  V30 5084 H 478.484 1.01614 6.02897 0
M  V30 5085 H 482.658 1.68223 6.75777 0
M  V30 5086 H 480.285 2.15176 7.29111 0
M  V30 5087 N 481.861 -1.55662 -0.24637 0
M  V30 5088 C 483.109 -1.77168 -0.972411 0
M  V30 5089 C 483.43 -0.590827 -1.85834 0
M  V30 5090 O 482.7 0.393365 -1.9191 0
M  V30 5091 H 481.28 -0.653405 -0.362038 0
M  V30 5092 H 483.942 -1.93101 -0.264189 0
M  V30 5093 H 483.038 -2.68335 -1.59382 0
M  V30 5094 N 483.339 0.512053 -1.4905 0
M  V30 5095 C 484.588 1.26343 -1.57227 0
M  V30 5096 C 484.901 1.93876 -0.259155 0
M  V30 5097 O 486.107 2.70612 -0.219358 0
M  V30 5098 C 484.563 2.29343 -2.77362 0
M  V30 5099 C 484.171 1.67799 -4.15388 0
M  V30 5100 C 485.915 3.05378 -2.94864 0
M  V30 5101 C 483.822 2.68845 -5.2676 0
M  V30 5102 H 482.752 0.475231 -0.585382 0
M  V30 5103 H 485.403 0.53862 -1.75417 0
M  V30 5104 H 483.785 3.04938 -2.52643 0
M  V30 5105 H 484.959 0.982715 -4.50199 0
M  V30 5106 H 483.274 1.04194 -4.03153 0
M  V30 5107 H 485.871 3.80921 -3.75238 0
M  V30 5108 H 486.214 3.62327 -2.05 0
M  V30 5109 H 486.747 2.36898 -3.19569 0
M  V30 5110 H 483.486 2.16692 -6.18647 0
M  V30 5111 H 483.006 3.36647 -4.96416 0
M  V30 5112 H 484.685 3.31487 -5.5563 0
M  V30 5113 N 484.817 1.37938 0.762283 0
M  V30 5114 C 485.78 1.34279 1.85747 0
M  V30 5115 C 486.78 0.244969 1.58923 0
M  V30 5116 O 487.97 0.501365 1.66829 0
M  V30 5117 C 485.102 1.08833 3.23061 0
M  V30 5118 H 486.295 2.31705 1.90401 0
M  V30 5119 H 483.848 1.23105 0.963057 0
M  V30 5120 H 484.583 0.119767 3.24079 0
M  V30 5121 H 484.368 1.88306 3.43923 0
M  V30 5122 H 485.858 1.08946 4.03138 0
M  V30 5123 N 486.295 -0.989507 1.22664 0
M  V30 5124 C 487.258 -2.06183 1.00106 0
M  V30 5125 C 488.258 -1.60765 -0.0337726 0
M  V30 5126 O 489.448 -1.72989 0.205072 0
M  V30 5127 C 486.58 -3.37021 0.51279 0
M  V30 5128 H 487.773 -2.27629 1.95256 0
M  V30 5129 H 485.326 -1.16158 1.0458 0
M  V30 5130 H 486.061 -3.21261 -0.442917 0
M  V30 5131 H 485.846 -3.71323 1.25942 0
M  V30 5132 H 487.336 -4.1591 0.375315 0
M  V30 5133 N 487.773 -1.03688 -1.18687 0
M  V30 5134 C 488.736 -0.629115 -2.20397 0
M  V30 5135 C 489.736 0.311495 -1.57754 0
M  V30 5136 O 490.926 0.0974107 -1.73927 0
M  V30 5137 C 488.058 0.0782231 -3.4081 0
M  V30 5138 H 489.251 -1.52915 -2.57987 0
M  V30 5139 H 486.804 -0.828988 -1.32505 0
M  V30 5140 H 487.539 0.992233 -3.08748 0
M  V30 5141 H 487.324 -0.597776 -3.87517 0
M  V30 5142 H 488.814 0.350156 -4.16129 0
M  V30 5143 N 489.251 1.34841 -0.815825 0
M  V30 5144 C 490.214 2.27959 -0.238185 0
M  V30 5145 C 491.214 1.49983 0.579816 0
M  V30 5146 O 492.404 1.69617 0.396953 0
M  V30 5147 C 489.536 3.34314 0.666876 0
M  V30 5148 H 490.729 2.80558 -1.05958 0
M  V30 5149 H 488.282 1.44852 -0.587156 0
M  V30 5150 H 489.017 2.86916 1.5116 0
M  V30 5151 H 488.802 3.92014 0.0819106 0
M  V30 5152 H 490.292 4.0379 1.06506 0
M  V30 5153 N 490.729 0.570148 1.46925 0
M  V30 5154 C 491.659 -0.158274 2.32963 0
M  V30 5155 C 492.64 -0.896093 1.44583 0
M  V30 5156 O 493.825 -0.874022 1.7342 0
M  V30 5157 C 490.955 -1.18055 3.26619 0
M  V30 5158 C 489.909 -0.558379 4.24342 0
M  V30 5159 C 489.235 -1.68623 5.07415 0
M  V30 5160 C 490.535 0.496295 5.19937 0
M  V30 5161 H 492.229 0.560046 2.94115 0
M  V30 5162 H 489.775 0.270775 1.41431 0
M  V30 5163 H 491.728 -1.69841 3.85658 0
M  V30 5164 H 490.452 -1.92899 2.63548 0
M  V30 5165 H 489.111 -0.0617157 3.66548 0
M  V30 5166 H 488.759 -2.42402 4.40738 0
M  V30 5167 H 488.459 -1.27564 5.73586 0
M  V30 5168 H 489.983 -2.20709 5.69315 0
M  V30 5169 H 491.397 0.0640052 5.73264 0
M  V30 5170 H 489.794 0.82649 5.94381 0
M  V30 5171 H 490.864 1.38735 4.6463 0
M  V30 5172 N 492.207 -1.54576 0.307264 0
M  V30 5173 C 493.455 -1.99867 -0.299574 0
M  V30 5174 C 493.776 -1.19714 -1.53927 0
M  V30 5175 O 493.046 -0.29472 -1.9367 0
M  V30 5176 H 491.626 -0.738299 -0.113683 0
M  V30 5177 H 494.288 -1.9032 0.420042 0
M  V30 5178 H 493.384 -3.06901 -0.567283 0
M  V30 5179 N 493.685 -0.035106 -1.57561 0
M  V30 5180 C 494.915 0.651312 -1.96065 0
M  V30 5181 C 495.323 1.6585 -0.910514 0
M  V30 5182 O 494.666 1.83336 0.11552 0
M  V30 5183 C 494.728 1.40897 -3.30739 0
M  V30 5184 C 494.392 0.559436 -4.53563 0
M  V30 5185 C 495.389 -0.16778 -5.19629 0
M  V30 5186 C 493.074 0.495079 -4.99854 0
M  V30 5187 C 495.068 -0.947963 -6.30311 0
M  V30 5188 C 492.755 -0.288804 -6.10417 0
M  V30 5189 C 493.753 -1.00903 -6.75505 0
M  V30 5190 O 493.441 -1.78005 -7.83945 0
M  V30 5191 H 493.173 0.184036 -0.650467 0
M  V30 5192 H 495.727 -0.0929677 -2.05189 0
M  V30 5193 H 493.957 2.19852 -3.18123 0
M  V30 5194 H 495.646 1.98407 -3.54104 0
M  V30 5195 H 496.412 -0.12743 -4.84833 0
M  V30 5196 H 492.291 1.04524 -4.48994 0
M  V30 5197 H 495.835 -1.51064 -6.81047 0
M  V30 5198 H 491.732 -0.33085 -6.44652 0
M  V30 5199 H 492.5 -1.70046 -8.00641 0
M  V30 5200 N 495.163 1.55791 0.238111 0
M  V30 5201 C 496.41 1.78033 0.964907 0
M  V30 5202 C 496.738 0.600984 1.84982 0
M  V30 5203 O 495.993 -0.41536 1.91241 0
M  V30 5204 C 496.292 3.05869 1.84875 0
M  V30 5205 C 495.958 4.36808 1.11846 0
M  V30 5206 C 494.62 4.72388 0.916662 0
M  V30 5207 C 496.972 5.17717 0.60151 0
M  V30 5208 C 494.3 5.86406 0.185756 0
M  V30 5209 C 496.652 6.32494 -0.115972 0
M  V30 5210 C 495.316 6.66688 -0.329168 0
M  V30 5211 H 494.586 0.651469 0.353085 0
M  V30 5212 H 497.233 1.90061 0.234318 0
M  V30 5213 H 495.538 2.88891 2.64668 0
M  V30 5214 H 497.235 3.20278 2.41294 0
M  V30 5215 H 493.825 4.08862 1.28569 0
M  V30 5216 H 498.009 4.90678 0.744932 0
M  V30 5217 H 493.265 6.11399 0.0101886 0
M  V30 5218 H 497.439 6.94425 -0.524127 0
M  V30 5219 H 495.066 7.54884 -0.897474 0
M  V30 5220 N 496.642 -0.504142 1.49319 0
M  V30 5221 C 497.888 -1.26033 1.58882 0
M  V30 5222 C 498.221 -1.92268 0.273274 0
M  V30 5223 O 497.496 -1.80567 -0.72291 0
M  V30 5224 C 497.779 -2.32976 2.7458 0
M  V30 5225 C 497.632 -1.71263 4.1592 0
M  V30 5226 C 498.951 -3.34561 2.85932 0
M  V30 5227 H 496.07 -0.456863 0.578312 0
M  V30 5228 H 498.712 -0.558965 1.81592 0
M  V30 5229 H 496.862 -2.92796 2.55348 0
M  V30 5230 H 498.534 -1.15294 4.4666 0
M  V30 5231 H 496.777 -1.01686 4.21714 0
M  V30 5232 H 497.448 -2.48816 4.92742 0
M  V30 5233 H 499.924 -2.84727 3.0343 0
M  V30 5234 H 498.8 -4.06754 3.68568 0
M  V30 5235 H 499.061 -3.96695 1.95154 0
M  V30 5236 N 498.12 -1.38341 -0.754957 0
M  V30 5237 C 499.531 -1.30803 -1.3322 0
M  V30 5238 C 499.882 0.0368 -1.96165 0
M  V30 5239 O 499.007 0.938844 -1.94974 0
M  V30 5240 C 499.602 -2.3688 -2.42225 0
M  V30 5241 C 498.161 -2.32925 -2.95674 0
M  V30 5242 C 497.308 -2.19819 -1.69042 0
M  V30 5243 H 500.259 -1.48719 -0.553937 0
M  V30 5244 H 500.28 -2.02517 -3.22129 0
M  V30 5245 H 499.792 -3.34747 -1.96383 0
M  V30 5246 H 497.893 -1.38635 -3.45848 0
M  V30 5247 H 498.006 -3.27008 -3.50146 0
M  V30 5248 H 496.37 -1.66648 -1.92615 0
M  V30 5249 H 497.153 -3.19625 -1.25279 0
M  V30 5250 N 499.598 0.982988 -1.23187 0
M  V30 5251 C 500.828 1.75666 -1.08743 0
M  V30 5252 C 501.236 1.85662 0.364195 0
M  V30 5253 O 500.579 1.33317 1.26382 0
M  V30 5254 C 500.641 3.20144 -1.63549 0
M  V30 5255 C 500.305 3.33665 -3.12277 0
M  V30 5256 C 501.302 3.20194 -4.096 0
M  V30 5257 C 498.987 3.58397 -3.51933 0
M  V30 5258 C 500.981 3.31256 -5.44563 0
M  V30 5259 C 498.668 3.69098 -4.87042 0
M  V30 5260 C 499.666 3.55537 -5.83166 0
M  V30 5261 O 499.354 3.65864 -7.1582 0
M  V30 5262 H 499.086 0.558194 -0.381307 0
M  V30 5263 H 501.64 1.24387 -1.63454 0
M  V30 5264 H 499.87 3.72659 -1.03256 0
M  V30 5265 H 501.559 3.79262 -1.4462 0
M  V30 5266 H 502.325 3.00987 -3.80305 0
M  V30 5267 H 498.204 3.68025 -2.77631 0
M  V30 5268 H 501.748 3.20588 -6.19572 0
M  V30 5269 H 497.645 3.87814 -5.16014 0
M  V30 5270 H 498.413 3.82675 -7.23534 0
M  V30 5271 N 501.076 1.04316 1.18135 0
M  V30 5272 C 502.322 0.749128 1.88457 0
M  V30 5273 C 502.655 -0.72149 1.803 0
M  V30 5274 O 501.93 -1.52676 1.205 0
M  V30 5275 C 502.213 1.21905 3.38838 0
M  V30 5276 C 502.066 2.75195 3.55792 0
M  V30 5277 C 503.385 0.811085 4.32561 0
M  V30 5278 H 500.504 0.273611 0.684329 0
M  V30 5279 H 503.146 1.29561 1.38975 0
M  V30 5280 H 501.296 0.754137 3.8111 0
M  V30 5281 H 502.968 3.29743 3.22595 0
M  V30 5282 H 501.211 3.14899 2.98364 0
M  V30 5283 H 501.882 3.03135 4.61317 0
M  V30 5284 H 504.358 1.21118 3.98082 0
M  V30 5285 H 503.234 1.16761 5.36338 0
M  V30 5286 H 503.495 -0.285596 4.41177 0
M  V30 5287 N 502.554 -1.34406 0.822964 0
M  V30 5288 C 503.504 -2.26963 0.217208 0
M  V30 5289 C 504.488 -1.48536 -0.618545 0
M  V30 5290 O 505.68 -1.7056 -0.473118 0
M  V30 5291 C 502.809 -3.37655 -0.619973 0
M  V30 5292 C 501.895 -4.23495 0.226411 0
M  V30 5293 N 502.286 -4.88876 1.29744 0
M  V30 5294 C 500.584 -4.45999 0.0107554 0
M  V30 5295 C 501.285 -5.52642 1.81553 0
M  V30 5296 N 500.261 -5.31949 1.11942 0
M  V30 5297 H 504.063 -2.75017 1.03647 0
M  V30 5298 H 501.577 -1.48126 0.665777 0
M  V30 5299 H 503.574 -4.02932 -1.07011 0
M  V30 5300 H 502.234 -2.91151 -1.43739 0
M  V30 5301 H 503.245 -4.89886 1.68024 0
M  V30 5302 H 499.922 -4.10253 -0.774495 0
M  V30 5303 H 501.312 -6.14755 2.71156 0
M  V30 5304 N 504.032 -0.577932 -1.46621 0
M  V30 5305 C 504.962 0.145917 -2.33044 0
M  V30 5306 C 505.943 0.888412 -1.45056 0
M  V30 5307 O 507.128 0.864812 -1.73881 0
M  V30 5308 C 504.258 1.16322 -3.27241 0
M  V30 5309 C 503.212 0.535868 -4.24632 0
M  V30 5310 C 502.538 1.65929 -5.08303 0
M  V30 5311 C 503.838 -0.523861 -5.19666 0
M  V30 5312 H 505.532 -0.575636 -2.93814 0
M  V30 5313 H 503.078 -0.278272 -1.41286 0
M  V30 5314 H 505.031 1.67793 -3.86553 0
M  V30 5315 H 503.755 1.91498 -2.64567 0
M  V30 5316 H 502.414 0.0422759 -3.66576 0
M  V30 5317 H 502.062 2.40061 -4.42018 0
M  V30 5318 H 501.762 1.2452 -5.74255 0
M  V30 5319 H 503.286 2.17686 -5.70478 0
M  V30 5320 H 504.7 -0.0944059 -5.73222 0
M  V30 5321 H 503.097 -0.858 -5.93935 0
M  V30 5322 H 504.167 -1.41197 -4.63887 0
M  V30 5323 N 505.51 1.54411 -0.315457 0
M  V30 5324 C 506.443 2.20265 0.596522 0
M  V30 5325 C 507.421 1.17693 1.12192 0
M  V30 5326 O 508.605 1.46397 1.18744 0
M  V30 5327 C 505.732 2.85794 1.81767 0
M  V30 5328 C 504.778 4.02017 1.42424 0
M  V30 5329 S 505.611 5.33452 0.467836 0
M  V30 5330 C 506.767 6.02471 1.69645 0
M  V30 5331 H 507 2.97277 0.0370896 0
M  V30 5332 H 504.533 1.54079 -0.0995562 0
M  V30 5333 H 506.491 3.24172 2.51839 0
M  V30 5334 H 505.152 2.08601 2.34828 0
M  V30 5335 H 504.345 4.46701 2.33396 0
M  V30 5336 H 503.947 3.65271 0.803311 0
M  V30 5337 H 506.239 6.24157 2.63504 0
M  V30 5338 H 507.182 6.96215 1.29192 0
M  V30 5339 H 507.59 5.32284 1.87974 0
M  V30 5340 N 506.988 0.0434614 1.5754 0
M  V30 5341 C 507.935 -0.93356 2.11077 0
M  V30 5342 C 508.905 -1.31383 1.01626 0
M  V30 5343 O 510.09 -1.40465 1.29129 0
M  V30 5344 C 507.23 -2.20578 2.65404 0
M  V30 5345 C 506.343 -1.88068 3.88914 0
M  V30 5346 C 505.478 -3.09691 4.31584 0
M  V30 5347 C 504.517 -2.73067 5.47815 0
M  V30 5348 N 503.654 -3.87359 5.85574 0
M  V30 5349 H 508.494 -0.470118 2.94268 0
M  V30 5350 H 506.031 -0.220434 1.45439 0
M  V30 5351 H 507.989 -2.95011 2.94999 0
M  V30 5352 H 506.619 -2.64513 1.85021 0
M  V30 5353 H 505.671 -1.03816 3.6596 0
M  V30 5354 H 506.983 -1.57104 4.73413 0
M  V30 5355 H 506.137 -3.92431 4.62691 0
M  V30 5356 H 504.876 -3.43827 3.45882 0
M  V30 5357 H 503.881 -1.88742 5.16388 0
M  V30 5358 H 505.106 -2.40131 6.35227 0
M  V30 5359 H 503.052 -4.21311 5.02825 0
M  V30 5360 H 502.969 -3.60068 6.64746 0
M  V30 5361 H 504.237 -4.70761 6.21292 0
M  V30 5362 N 508.466 -1.55915 -0.229846 0
M  V30 5363 C 509.696 -1.82352 -0.971152 0
M  V30 5364 C 510.104 -0.619231 -1.7878 0
M  V30 5365 O 509.447 0.421597 -1.78797 0
M  V30 5366 C 509.509 -3.02399 -1.9441 0
M  V30 5367 C 509.173 -4.37739 -1.31277 0
M  V30 5368 C 510.17 -5.15074 -0.706757 0
M  V30 5369 C 507.855 -4.84454 -1.32702 0
M  V30 5370 C 509.849 -6.37281 -0.123413 0
M  V30 5371 C 507.536 -6.06605 -0.739831 0
M  V30 5372 C 508.534 -6.82858 -0.139071 0
M  V30 5373 O 508.222 -8.027 0.439007 0
M  V30 5374 H 507.954 -0.61035 -0.290601 0
M  V30 5375 H 510.508 -2.03839 -0.252746 0
M  V30 5376 H 508.738 -2.76709 -2.70128 0
M  V30 5377 H 510.427 -3.15779 -2.55026 0
M  V30 5378 H 511.193 -4.80093 -0.688131 0
M  V30 5379 H 507.072 -4.25081 -1.78402 0
M  V30 5380 H 510.616 -6.96741 0.346124 0
M  V30 5381 H 506.513 -6.4106 -0.755841 0
M  V30 5382 H 507.281 -8.17824 0.332521 0
M  V30 5383 N 509.944 0.496216 -1.49584 0
M  V30 5384 C 511.19 1.25189 -1.59548 0
M  V30 5385 C 511.523 1.9212 -0.283466 0
M  V30 5386 O 510.798 1.80947 0.713324 0
M  V30 5387 C 511.081 2.31516 -2.75812 0
M  V30 5388 C 510.934 1.69054 -4.16822 0
M  V30 5389 C 512.253 3.3304 -2.87702 0
M  V30 5390 H 509.372 0.45379 -0.580727 0
M  V30 5391 H 512.014 0.549327 -1.81886 0
M  V30 5392 H 510.164 2.91438 -2.56897 0
M  V30 5393 H 511.836 1.12923 -4.47265 0
M  V30 5394 H 510.079 0.994485 -4.22247 0
M  V30 5395 H 510.75 2.462 -4.94054 0
M  V30 5396 H 513.226 2.83114 -3.04936 0
M  V30 5397 H 512.102 4.04794 -3.7072 0
M  V30 5398 H 512.363 3.95655 -1.97255 0
M  V30 5399 N 511.423 1.38739 0.74761 0
M  V30 5400 C 512.333 1.38696 1.89211 0
M  V30 5401 C 513.349 0.283303 1.71678 0
M  V30 5402 O 514.525 0.522713 1.94498 0
M  V30 5403 C 511.59 1.21662 3.24653 0
M  V30 5404 C 510.651 2.41886 3.54669 0
M  V30 5405 C 509.884 2.25655 4.83648 0
M  V30 5406 O 510.107 1.25339 5.56459 0
M  V30 5407 O 509.041 3.14372 5.13277 0
M  V30 5408 H 512.867 2.35143 1.92202 0
M  V30 5409 H 510.452 1.19721 0.893708 0
M  V30 5410 H 512.334 1.14246 4.05618 0
M  V30 5411 H 511.009 0.283024 3.2246 0
M  V30 5412 H 509.916 2.54877 2.73841 0
M  V30 5413 H 511.249 3.33895 3.61628 0
M  V30 5414 N 512.901 -0.976442 1.23707 0
M  V30 5415 C 513.811 -2.10359 1.03856 0
M  V30 5416 C 514.827 -1.73991 -0.0180919 0
M  V30 5417 O 516.003 -2.0061 0.178211 0
M  V30 5418 C 513.068 -3.40809 0.636387 0
M  V30 5419 C 512.129 -3.91179 1.76854 0
M  V30 5420 C 511.362 -5.15404 1.38546 0
M  V30 5421 O 511.585 -5.69754 0.27142 0
M  V30 5422 O 510.519 -5.5994 2.20797 0
M  V30 5423 H 514.345 -2.29997 1.98331 0
M  V30 5424 H 511.93 -1.08742 1.02448 0
M  V30 5425 H 513.812 -4.19269 0.423223 0
M  V30 5426 H 512.487 -3.22493 -0.279322 0
M  V30 5427 H 511.394 -3.13819 2.03638 0
M  V30 5428 H 512.727 -4.13958 2.6627 0
M  V30 5429 N 514.379 -1.04941 -1.1758 0
M  V30 5430 C 515.289 -0.658826 -2.25159 0
M  V30 5431 C 516.305 0.318941 -1.71052 0
M  V30 5432 O 517.481 0.171669 -2.00667 0
M  V30 5433 C 514.546 -0.0369522 -3.4668 0
M  V30 5434 C 513.607 -1.06484 -4.15884 0
M  V30 5435 C 512.84 -0.472551 -5.31604 0
M  V30 5436 O 513.063 0.718736 -5.65854 0
M  V30 5437 O 511.997 -1.20557 -5.89703 0
M  V30 5438 H 515.823 -1.55533 -2.60851 0
M  V30 5439 H 513.408 -0.820819 -1.24832 0
M  V30 5440 H 515.29 0.308784 -4.20267 0
M  V30 5441 H 513.965 0.833238 -3.12792 0
M  V30 5442 H 512.872 -1.46253 -3.44327 0
M  V30 5443 H 514.205 -1.9061 -4.53794 0
M  V30 5444 N 515.857 1.33968 -0.830081 0
M  V30 5445 C 517.104 1.98063 -0.421566 0
M  V30 5446 C 517.432 1.65787 1.0171 0
M  V30 5447 O 516.687 0.925348 1.72441 0
M  V30 5448 C 516.986 3.52679 -0.57898 0
M  V30 5449 C 516.652 4.04884 -1.98443 0
M  V30 5450 C 515.314 4.18852 -2.36888 0
M  V30 5451 C 517.666 4.32879 -2.90285 0
M  V30 5452 C 514.994 4.58145 -3.66497 0
M  V30 5453 C 517.346 4.7362 -4.19364 0
M  V30 5454 C 516.01 4.85794 -4.57778 0
M  V30 5455 H 515.28 0.724765 -0.154262 0
M  V30 5456 H 517.927 1.59792 -1.05541 0
M  V30 5457 H 516.232 3.91556 0.138219 0
M  V30 5458 H 517.929 4.00261 -0.243317 0
M  V30 5459 H 514.519 3.9448 -1.67581 0
M  V30 5460 H 518.703 4.21619 -2.61823 0
M  V30 5461 H 513.959 4.65762 -3.96075 0
M  V30 5462 H 518.133 4.9424 -4.90612 0
M  V30 5463 H 515.76 5.15998 -5.58256 0
M  V30 5464 N 517.335 0.585699 1.46312 0
M  V30 5465 C 518.56 0.0762461 2.0726 0
M  V30 5466 C 518.985 -1.22071 1.43109 0
M  V30 5467 O 518.343 -1.73804 0.515942 0
M  V30 5468 C 518.391 -0.0729404 3.60526 0
M  V30 5469 O 517.495 -1.1287 3.96654 0
M  V30 5470 H 516.836 0.0641558 0.660893 0
M  V30 5471 H 519.366 0.809492 1.87905 0
M  V30 5472 H 519.376 -0.278158 4.07051 0
M  V30 5473 H 518.051 0.874188 4.06609 0
M  V30 5474 H 516.628 -0.901703 3.61834 0
M  V30 5475 N 518.813 -1.54241 0.323641 0
M  V30 5476 C 519.723 -2.28033 -0.551205 0
M  V30 5477 C 520.739 -1.32388 -1.12913 0
M  V30 5478 O 521.915 -1.65403 -1.14908 0
M  V30 5479 C 518.98 -3.02382 -1.69606 0
M  V30 5480 C 518.041 -4.13612 -1.14993 0
M  V30 5481 C 517.274 -4.84407 -2.24022 0
M  V30 5482 O 517.497 -4.54716 -3.44368 0
M  V30 5483 O 516.431 -5.71312 -1.89436 0
M  V30 5484 H 520.257 -3.03662 0.048066 0
M  V30 5485 H 517.842 -1.49133 0.0893289 0
M  V30 5486 H 519.724 -3.48941 -2.36259 0
M  V30 5487 H 518.399 -2.29628 -2.28151 0
M  V30 5488 H 517.306 -3.71402 -0.448484 0
M  V30 5489 H 518.639 -4.8841 -0.609608 0
M  V30 5490 N 520.291 -0.0518155 -1.57515 0
M  V30 5491 C 521.54 0.621286 -1.91893 0
M  V30 5492 C 521.853 1.71966 -0.932052 0
M  V30 5493 O 523.059 2.45096 -1.16791 0
M  V30 5494 C 521.515 1.15641 -3.40816 0
M  V30 5495 C 521.123 0.0901146 -4.47909 0
M  V30 5496 C 522.867 1.80472 -3.84227 0
M  V30 5497 C 520.774 0.638154 -5.87947 0
M  V30 5498 H 519.704 0.235835 -0.716169 0
M  V30 5499 H 522.355 -0.120809 -1.83102 0
M  V30 5500 H 520.737 1.95084 -3.44613 0
M  V30 5501 H 521.911 -0.683525 -4.55702 0
M  V30 5502 H 520.226 -0.460774 -4.13843 0
M  V30 5503 H 522.823 2.22471 -4.86221 0
M  V30 5504 H 523.166 2.65669 -3.20508 0
M  V30 5505 H 523.699 1.07683 -3.82948 0
M  V30 5506 H 520.438 -0.176202 -6.55263 0
M  V30 5507 H 519.958 1.37976 -5.83714 0
M  V30 5508 H 521.637 1.12085 -6.37217 0
M  V30 5509 N 521.769 1.56035 0.221574 0
M  V30 5510 C 522.716 1.92413 1.27459 0
M  V30 5511 C 523.686 0.781323 1.46576 0
M  V30 5512 O 524.871 1.03721 1.60145 0
M  V30 5513 C 522.011 2.24617 2.61995 0
M  V30 5514 C 521.124 3.51831 2.50677 0
M  V30 5515 C 520.259 3.73482 3.77736 0
M  V30 5516 C 519.298 4.94211 3.6114 0
M  V30 5517 N 518.435 5.12252 4.80148 0
M  V30 5518 H 523.275 2.82203 0.957355 0
M  V30 5519 H 520.812 1.39676 0.461415 0
M  V30 5520 H 522.77 2.41298 3.40339 0
M  V30 5521 H 521.4 1.38 2.91815 0
M  V30 5522 H 520.452 3.43343 1.63767 0
M  V30 5523 H 521.764 4.40328 2.34334 0
M  V30 5524 H 520.918 3.9026 4.64523 0
M  V30 5525 H 519.657 2.83266 3.97003 0
M  V30 5526 H 518.662 4.77384 2.72736 0
M  V30 5527 H 519.887 5.85912 3.43343 0
M  V30 5528 H 517.833 4.24978 4.99729 0
M  V30 5529 H 517.75 5.94881 4.66532 0
M  V30 5530 H 519.018 5.33465 5.68362 0
M  V30 5531 N 523.247 -0.488276 1.49845 0
M  V30 5532 C 524.157 -1.61451 1.70207 0
M  V30 5533 C 525.173 -1.63877 0.584846 0
M  V30 5534 O 526.349 -1.82063 0.861107 0
M  V30 5535 C 523.414 -2.9776 1.77594 0
M  V30 5536 C 522.475 -3.05861 3.01243 0
M  V30 5537 C 521.708 -4.35668 3.08268 0
M  V30 5538 O 521.931 -5.25197 2.22541 0
M  V30 5539 O 520.865 -4.49005 4.00847 0
M  V30 5540 H 524.691 -1.47199 2.65643 0
M  V30 5541 H 522.276 -0.665939 1.33737 0
M  V30 5542 H 524.158 -3.7875 1.84732 0
M  V30 5543 H 522.833 -3.12248 0.8534 0
M  V30 5544 H 521.74 -2.24012 2.99616 0
M  V30 5545 H 523.073 -2.96304 3.9302 0
M  V30 5546 N 524.725 -1.39134 -0.740242 0
M  V30 5547 C 525.953 -1.39334 -1.5295 0
M  V30 5548 C 526.368 0.0135008 -1.88795 0
M  V30 5549 O 525.725 0.983524 -1.5373 0
M  V30 5550 C 525.776 -2.2614 -2.82034 0
M  V30 5551 O 525.497 -3.61345 -2.47712 0
M  V30 5552 C 526.998 -2.34666 -3.76094 0
M  V30 5553 H 524.218 -0.476103 -0.472828 0
M  V30 5554 H 526.762 -1.82883 -0.9151 0
M  V30 5555 H 524.917 -1.86018 -3.39818 0
M  V30 5556 H 525.331 -4.07194 -3.30595 0
M  V30 5557 H 526.805 -2.99663 -4.63579 0
M  V30 5558 H 527.282 -1.36426 -4.17474 0
M  V30 5559 H 527.888 -2.75236 -3.2423 0
M  V30 5560 N 526.204 0.969867 -1.24223 0
M  V30 5561 C 527.45 1.71582 -1.09231 0
M  V30 5562 C 527.805 1.88898 0.365432 0
M  V30 5563 O 527.098 1.43781 1.2664 0
M  V30 5564 C 527.292 3.10883 -1.76314 0
M  V30 5565 C 527.121 3.07155 -3.2846 0
M  V30 5566 C 525.891 3.11757 -3.97663 0
M  V30 5567 C 528.089 2.895 -4.25082 0
M  V30 5568 N 526.071 2.98025 -5.36707 0
M  V30 5569 C 527.442 2.84041 -5.51109 0
M  V30 5570 C 529.497 2.74064 -4.15684 0
M  V30 5571 C 528.2 2.64725 -6.68815 0
M  V30 5572 C 530.226 2.56115 -5.33066 0
M  V30 5573 C 529.588 2.51363 -6.58024 0
M  V30 5574 H 525.687 0.636496 -0.454309 0
M  V30 5575 H 528.271 1.15004 -1.57106 0
M  V30 5576 H 526.442 3.65657 -1.30955 0
M  V30 5577 H 528.174 3.74171 -1.54201 0
M  V30 5578 H 524.929 3.20352 -3.48814 0
M  V30 5579 H 525.353 2.94405 -6.09635 0
M  V30 5580 H 529.995 2.76521 -3.19837 0
M  V30 5581 H 527.713 2.61011 -7.64787 0
M  V30 5582 H 531.299 2.45119 -5.27644 0
M  V30 5583 H 530.179 2.37651 -7.47323 0
M  V30 5584 N 527.682 1.05563 1.17022 0
M  V30 5585 C 528.928 0.769074 1.87652 0
M  V30 5586 C 529.261 -0.702326 1.81055 0
M  V30 5587 O 528.536 -1.5139 1.22112 0
M  V30 5588 C 528.819 1.25492 3.37526 0
M  V30 5589 C 528.672 2.78953 3.52853 0
M  V30 5590 C 529.991 0.856919 4.31677 0
M  V30 5591 H 527.11 0.280854 0.681388 0
M  V30 5592 H 529.752 1.31027 1.37593 0
M  V30 5593 H 527.902 0.794516 3.80289 0
M  V30 5594 H 529.574 3.33146 3.19079 0
M  V30 5595 H 527.817 3.18046 2.95007 0
M  V30 5596 H 528.488 3.08011 4.58076 0
M  V30 5597 H 530.964 1.25334 3.96775 0
M  V30 5598 H 529.84 1.22443 5.35069 0
M  V30 5599 H 530.101 -0.238787 4.41455 0
M  V30 5600 N 529.16 -1.33526 0.837174 0
M  V30 5601 C 530.09 -2.31764 0.284206 0
M  V30 5602 C 531.071 -1.58896 -0.607142 0
M  V30 5603 O 532.256 -1.86798 -0.531047 0
M  V30 5604 C 529.386 -3.43029 -0.542962 0
M  V30 5605 C 528.34 -4.27255 0.252451 0
M  V30 5606 C 527.666 -5.3012 -0.69836 0
M  V30 5607 C 528.966 -5.01229 1.46858 0
M  V30 5608 H 530.66 -2.78262 1.10502 0
M  V30 5609 H 528.206 -1.3378 0.532812 0
M  V30 5610 H 530.159 -4.1078 -0.940096 0
M  V30 5611 H 528.883 -2.95216 -1.39697 0
M  V30 5612 H 527.542 -3.61127 0.631124 0
M  V30 5613 H 527.19 -4.78564 -1.54872 0
M  V30 5614 H 526.89 -5.87353 -0.170274 0
M  V30 5615 H 528.414 -6.00737 -1.09305 0
M  V30 5616 H 529.828 -5.61756 1.14469 0
M  V30 5617 H 528.225 -5.68104 1.93333 0
M  V30 5618 H 529.295 -4.301 2.23924 0
M  V30 5619 N 530.638 -0.59345 -1.46 0
M  V30 5620 C 531.568 0.121192 -2.33185 0
M  V30 5621 C 532.549 0.872977 -1.4599 0
M  V30 5622 O 533.734 0.846321 -1.74789 0
M  V30 5623 C 530.864 1.12844 -3.28456 0
M  V30 5624 C 529.818 0.4908 -4.25177 0
M  V30 5625 C 529.144 1.60529 -5.10034 0
M  V30 5626 C 530.444 -0.578949 -5.19081 0
M  V30 5627 H 532.138 -0.606767 -2.93187 0
M  V30 5628 H 529.684 -0.293242 -1.40983 0
M  V30 5629 H 531.637 1.63684 -3.88311 0
M  V30 5630 H 530.361 1.88681 -2.66584 0
M  V30 5631 H 529.02 0.00339328 -3.666 0
M  V30 5632 H 528.668 2.35359 -4.44539 0
M  V30 5633 H 528.368 1.18422 -5.75543 0
M  V30 5634 H 529.892 2.11623 -5.72755 0
M  V30 5635 H 531.306 -0.155199 -5.7309 0
M  V30 5636 H 529.703 -0.920947 -5.92991 0
M  V30 5637 H 530.773 -1.46109 -4.62364 0
M  V30 5638 N 532.116 1.54067 -0.331816 0
M  V30 5639 C 533.362 2.01012 0.268667 0
M  V30 5640 C 533.695 1.2195 1.51136 0
M  V30 5641 O 532.97 0.303972 1.9211 0
M  V30 5642 C 533.253 3.55158 0.59456 0
M  V30 5643 C 533.106 4.4494 -0.659409 0
M  V30 5644 C 534.425 4.16939 1.4089 0
M  V30 5645 H 531.544 0.730698 0.0961756 0
M  V30 5646 H 534.186 1.84593 -0.450031 0
M  V30 5647 H 532.336 3.6928 1.20685 0
M  V30 5648 H 534.008 4.42675 -1.29756 0
M  V30 5649 H 532.251 4.1428 -1.28665 0
M  V30 5650 H 532.922 5.50643 -0.386804 0
M  V30 5651 H 535.398 4.06443 0.891272 0
M  V30 5652 H 534.274 5.24889 1.60569 0
M  V30 5653 H 534.535 3.70798 2.40752 0
M  V30 5654 N 533.594 0.0601682 1.57485 0
M  V30 5655 C 534.834 -0.615384 1.94916 0
M  V30 5656 C 535.198 -1.67475 0.938948 0
M  V30 5657 O 536.399 -2.40502 1.20051 0
M  V30 5658 C 534.67 -1.18788 3.37082 0
M  V30 5659 S 536.229 -1.88018 3.96478 0
M  V30 5660 H 533.047 -0.201821 0.681754 0
M  V30 5661 H 535.649 0.131252 1.95059 0
M  V30 5662 H 534.353 -0.404869 4.08398 0
M  V30 5663 H 533.884 -1.97114 3.40455 0
M  V30 5664 H 535.899 -3.16161 3.82435 0
M  V30 5665 N 535.072 -1.5615 -0.213296 0
M  V30 5666 C 536.321 -1.78743 -0.93455 0
M  V30 5667 C 536.634 -0.630199 -1.8517 0
M  V30 5668 O 537.84 -0.739966 -2.61222 0
M  V30 5669 C 536.296 -3.16571 -1.71203 0
M  V30 5670 C 535.904 -4.40043 -0.840617 0
M  V30 5671 C 537.648 -3.48485 -2.42401 0
M  V30 5672 C 535.555 -5.68895 -1.61592 0
M  V30 5673 H 534.485 -0.666426 -0.352692 0
M  V30 5674 H 537.136 -1.82532 -0.188227 0
M  V30 5675 H 535.518 -3.06981 -2.50157 0
M  V30 5676 H 536.692 -4.6071 -0.0910326 0
M  V30 5677 H 535.007 -4.15706 -0.240365 0
M  V30 5678 H 537.604 -4.41983 -3.00924 0
M  V30 5679 H 537.947 -2.71371 -3.15695 0
M  V30 5680 H 538.48 -3.59442 -1.7043 0
M  V30 5681 H 535.219 -6.48925 -0.926106 0
M  V30 5682 H 534.739 -5.52275 -2.33991 0
M  V30 5683 H 536.418 -6.09365 -2.17447 0
M  V30 5684 N 536.55 0.480323 -1.50102 0
M  V30 5685 C 537.798 1.23063 -1.60312 0
M  V30 5686 C 538.119 1.92659 -0.301226 0
M  V30 5687 O 537.389 1.83691 0.680753 0
M  V30 5688 H 535.969 0.457231 -0.590719 0
M  V30 5689 H 538.631 0.554893 -1.86834 0
M  V30 5690 H 537.727 1.9835 -2.40964 0
M  V30 5691 N 538.028 1.39524 0.732853 0
M  V30 5692 C 538.991 1.38189 1.82857 0
M  V30 5693 C 539.991 0.278624 1.58368 0
M  V30 5694 O 541.181 0.536639 1.65728 0
M  V30 5695 C 538.313 1.15661 3.2068 0
M  V30 5696 H 539.506 2.35692 1.85444 0
M  V30 5697 H 537.059 1.2512 0.936728 0
M  V30 5698 H 537.794 0.188482 3.23752 0
M  V30 5699 H 537.579 1.95559 3.39852 0
M  V30 5700 H 539.069 1.17472 4.00737 0
M  V30 5701 N 539.506 -0.963266 1.24736 0
M  V30 5702 C 540.734 -1.74166 1.11686 0
M  V30 5703 C 541.149 -1.8589 -0.330187 0
M  V30 5704 O 540.506 -1.35042 -1.2276 0
M  V30 5705 C 540.557 -3.15989 1.75595 0
M  V30 5706 O 540.278 -3.04847 3.14642 0
M  V30 5707 C 541.779 -4.10145 1.68213 0
M  V30 5708 H 538.999 -0.546031 0.389989 0
M  V30 5709 H 541.543 -1.20907 1.64929 0
M  V30 5710 H 539.698 -3.66219 1.26343 0
M  V30 5711 H 540.112 -3.9425 3.4593 0
M  V30 5712 H 541.586 -5.07299 2.17604 0
M  V30 5713 H 542.063 -4.3445 0.644208 0
M  V30 5714 H 542.669 -3.65827 2.16912 0
M  V30 5715 N 540.985 -1.06182 -1.16461 0
M  V30 5716 C 542.21 -0.798599 -1.91408 0
M  V30 5717 C 542.635 0.640987 -1.76842 0
M  V30 5718 O 541.993 1.44652 -1.09296 0
M  V30 5719 C 542.041 -1.19665 -3.40165 0
M  V30 5720 O 541.145 -0.334768 -4.11039 0
M  V30 5721 H 540.486 -0.291961 -0.596368 0
M  V30 5722 H 543.016 -1.41732 -1.47557 0
M  V30 5723 H 543.026 -1.16772 -3.90933 0
M  V30 5724 H 541.701 -2.24526 -3.50087 0
M  V30 5725 H 540.278 -0.425168 -3.70468 0
M  V30 5726 N 542.463 1.3308 -0.844243 0
M  V30 5727 C 543.711 1.97215 -0.441676 0
M  V30 5728 C 544.032 1.67185 1.0037 0
M  V30 5729 O 543.302 0.973588 1.69994 0
M  V30 5730 H 541.882 0.72959 -0.160335 0
M  V30 5731 H 544.544 1.62348 -1.07838 0
M  V30 5732 H 543.64 3.06698 -0.57815 0
M  V30 5733 N 543.941 0.601185 1.45683 0
M  V30 5734 C 544.871 -0.108824 2.33246 0
M  V30 5735 C 545.852 -0.865223 1.46451 0
M  V30 5736 O 547.037 -0.83704 1.75235 0
M  V30 5737 C 544.167 -1.11101 3.2905 0
M  V30 5738 C 543.121 -0.468244 4.25431 0
M  V30 5739 C 542.447 -1.57822 5.10878 0
M  V30 5740 C 543.747 0.606469 5.18767 0
M  V30 5741 H 545.441 0.622306 2.92861 0
M  V30 5742 H 542.987 0.300714 1.40825 0
M  V30 5743 H 544.94 -1.61622 3.89174 0
M  V30 5744 H 543.664 -1.87265 2.67581 0
M  V30 5745 H 542.323 0.0160484 3.66596 0
M  V30 5746 H 541.971 -2.32998 4.45781 0
M  V30 5747 H 541.671 -1.15369 5.76163 0
M  V30 5748 H 543.195 -2.08583 5.73869 0
M  V30 5749 H 544.609 0.185589 5.73 0
M  V30 5750 H 543.006 0.952381 5.92494 0
M  V30 5751 H 544.076 1.48559 4.61582 0
M  V30 5752 N 545.419 -1.53889 0.339982 0
M  V30 5753 C 546.667 -2.00458 -0.257112 0
M  V30 5754 C 546.988 -1.22953 -1.51353 0
M  V30 5755 O 546.258 -0.335734 -1.93002 0
M  V30 5756 H 544.838 -0.740544 -0.0979965 0
M  V30 5757 H 547.5 -1.89386 0.460317 0
M  V30 5758 H 546.596 -3.08035 -0.502057 0
M  V30 5759 N 546.897 -0.0685191 -1.57451 0
M  V30 5760 C 548.313 0.288101 -1.56978 0
M  V30 5761 C 548.513 1.70262 -1.07765 0
M  V30 5762 O 547.569 2.4135 -0.742054 0
M  V30 5763 C 548.882 0.100745 -3.00531 0
M  V30 5764 C 550.43 0.170531 -3.12535 0
M  V30 5765 C 550.905 0.0114944 -4.57999 0
M  V30 5766 N 552.396 0.0672065 -4.63151 0
M  V30 5767 C 553.131 -0.0314813 -5.73391 0
M  V30 5768 N 552.627 -0.183503 -6.92557 0
M  V30 5769 N 554.42 0.0253489 -5.62094 0
M  V30 5770 H 546.571 -0.993026 -1.87757 0
M  V30 5771 H 548.834 -0.386981 -0.865419 0
M  V30 5772 H 548.54 -0.875197 -3.40636 0
M  V30 5773 H 548.414 0.854457 -3.67395 0
M  V30 5774 H 550.801 1.13696 -2.72318 0
M  V30 5775 H 550.882 -0.614229 -2.48316 0
M  V30 5776 H 550.526 -0.951684 -4.98904 0
M  V30 5777 H 550.456 0.815617 -5.20245 0
M  V30 5778 H 552.947 0.183246 -3.77455 0
M  V30 5779 H 553.26 -0.251041 -7.72392 0
M  V30 5780 H 551.605 -0.218822 -6.94655 0
M  V30 5781 H 554.796 0.142794 -4.67882 0
M  V30 5782 H 554.969 -0.0550166 -6.47977 0
M  V30 5783 N 548.375 1.56261 0.205012 0
M  V30 5784 C 549.305 1.96779 1.257 0
M  V30 5785 C 550.286 0.838309 1.48008 0
M  V30 5786 O 551.471 1.10189 1.59913 0
M  V30 5787 C 548.601 2.29876 2.60335 0
M  V30 5788 C 547.555 3.45469 2.52656 0
M  V30 5789 C 546.881 3.64215 3.91473 0
M  V30 5790 C 548.181 4.79954 2.06014 0
M  V30 5791 H 549.875 2.84904 0.920338 0
M  V30 5792 H 547.421 1.37072 0.441277 0
M  V30 5793 H 549.374 2.56814 3.34102 0
M  V30 5794 H 548.098 1.38622 2.95722 0
M  V30 5795 H 546.757 3.18605 1.81345 0
M  V30 5796 H 546.405 2.70309 4.24196 0
M  V30 5797 H 546.105 4.41973 3.87213 0
M  V30 5798 H 547.629 3.93519 4.66878 0
M  V30 5799 H 549.043 5.05989 2.69533 0
M  V30 5800 H 547.44 5.61111 2.12777 0
M  V30 5801 H 548.51 4.74201 1.01297 0
M  V30 5802 N 549.853 -0.472356 1.50355 0
M  V30 5803 C 551.099 -1.22634 1.6152 0
M  V30 5804 C 551.432 -1.91645 0.313995 0
M  V30 5805 O 550.707 -1.82059 -0.684446 0
M  V30 5806 C 550.99 -2.27099 2.7946 0
M  V30 5807 C 550.843 -1.62402 4.19459 0
M  V30 5808 C 552.162 -3.28421 2.92964 0
M  V30 5809 H 549.281 -0.444494 0.587873 0
M  V30 5810 H 551.923 -0.520321 1.82737 0
M  V30 5811 H 550.073 -2.87314 2.61501 0
M  V30 5812 H 551.745 -1.05793 4.49005 0
M  V30 5813 H 549.988 -0.927184 4.23776 0
M  V30 5814 H 550.659 -2.38309 4.97909 0
M  V30 5815 H 553.135 -2.78227 3.09401 0
M  V30 5816 H 552.011 -3.98845 3.77113 0
M  V30 5817 H 552.272 -3.92467 2.03525 0
M  V30 5818 N 551.331 -1.39911 -0.725443 0
M  V30 5819 C 552.556 -1.41137 -1.5197 0
M  V30 5820 C 552.981 -0.010262 -1.88097 0
M  V30 5821 O 552.339 0.979184 -1.52583 0
M  V30 5822 C 552.387 -2.2994 -2.77777 0
M  V30 5823 O 551.491 -1.73586 -3.74088 0
M  V30 5824 H 550.832 -0.480219 -0.458569 0
M  V30 5825 H 553.362 -1.84023 -0.894249 0
M  V30 5826 H 553.372 -2.44785 -3.26411 0
M  V30 5827 H 552.047 -3.31759 -2.50816 0
M  V30 5828 H 550.624 -1.68035 -3.32894 0
M  V30 5829 N 552.809 0.956637 -1.25245 0
M  V30 5830 C 554.057 1.69764 -1.09657 0
M  V30 5831 C 554.378 1.91583 0.363464 0
M  V30 5832 O 553.648 1.50149 1.25825 0
M  V30 5833 H 552.228 0.629097 -0.402798 0
M  V30 5834 H 554.89 1.15026 -1.57337 0
M  V30 5835 H 553.986 2.67769 -1.60331 0
M  V30 5836 N 554.287 1.06798 1.15896 0
M  V30 5837 C 555.237 0.653213 2.18443 0
M  V30 5838 C 556.221 -0.318763 1.57711 0
M  V30 5839 O 557.413 -0.133388 1.76497 0
M  V30 5840 C 554.542 0.0465785 3.43268 0
M  V30 5841 C 553.628 1.04336 4.11066 0
M  V30 5842 N 554.019 2.22084 4.54436 0
M  V30 5843 C 552.317 0.875433 4.37324 0
M  V30 5844 C 553.018 2.85276 5.06944 0
M  V30 5845 N 551.994 2.12973 5.00143 0
M  V30 5846 H 555.796 1.55011 2.49698 0
M  V30 5847 H 553.31 0.940384 1.32403 0
M  V30 5848 H 555.307 -0.26843 4.16035 0
M  V30 5849 H 553.967 -0.845504 3.13499 0
M  V30 5850 H 554.978 2.59833 4.48004 0
M  V30 5851 H 551.655 0.0357721 4.17485 0
M  V30 5852 H 553.045 3.85223 5.50503 0
M  V30 5853 N 555.766 -1.3263 0.851289 0
M  V30 5854 C 557.015 -1.96633 0.449267 0
M  V30 5855 C 557.328 -1.68131 -0.999562 0
M  V30 5856 O 558.534 -2.25845 -1.50685 0
M  V30 5857 C 556.99 -3.51946 0.752446 0
M  V30 5858 C 556.598 -3.89311 2.21678 0
M  V30 5859 C 558.342 -4.22437 0.417983 0
M  V30 5860 C 556.249 -5.37655 2.46336 0
M  V30 5861 H 555.179 -0.735888 0.164269 0
M  V30 5862 H 557.83 -1.51073 1.0416 0
M  V30 5863 H 556.212 -3.95899 0.0895858 0
M  V30 5864 H 557.386 -3.56378 2.92115 0
M  V30 5865 H 555.701 -3.31836 2.51543 0
M  V30 5866 H 558.298 -5.31549 0.579674 0
M  V30 5867 H 558.641 -4.11349 -0.640115 0
M  V30 5868 H 559.174 -3.84057 1.03659 0
M  V30 5869 H 555.913 -5.5376 3.50757 0
M  V30 5870 H 555.433 -5.72005 1.80473 0
M  V30 5871 H 557.112 -6.04695 2.30115 0
M  V30 5872 N 557.244 -0.608902 -1.45362 0
M  V30 5873 C 558.469 -0.10921 -2.07112 0
M  V30 5874 C 558.894 1.19779 -1.45033 0
M  V30 5875 O 558.252 1.72961 -0.543527 0
M  V30 5876 C 558.3 0.0155745 -3.60597 0
M  V30 5877 O 557.404 1.06546 -3.98399 0
M  V30 5878 H 556.745 -0.0746619 -0.659789 0
M  V30 5879 H 559.275 -0.839283 -1.86594 0
M  V30 5880 H 559.285 0.213364 -4.07442 0
M  V30 5881 H 557.96 -0.938765 -4.05167 0
M  V30 5882 H 556.537 0.844024 -3.63223 0
M  V30 5883 N 558.722 1.53707 -0.348139 0
M  V30 5884 C 559.999 1.93247 0.302475 0
M  V30 5885 C 560.379 1.28012 1.67857 0
M  V30 5886 O 559.727 0.43274 2.24365 0
M  V30 5887 C 559.937 3.47031 0.370159 0
M  V30 5888 C 561.285 4.20066 0.61882 0
M  V30 5889 O 562.309 3.53319 0.452087 0
M  V30 5890 O 561.168 5.38318 0.94215 0
M  V30 5891 H 558.262 0.807736 0.177458 0
M  V30 5892 H 560.808 1.64927 -0.399651 0
M  V30 5893 H 559.58 3.86745 -0.59534 0
M  V30 5894 H 559.203 3.81532 1.11888 0
M  V30 5895 N 560.2 0.0768682 1.57412 0
M  V30 5896 C 561.425 -0.603404 1.98428 0
M  V30 5897 C 561.85 -1.62047 0.955108 0
M  V30 5898 O 561.208 -1.81129 -0.0786778 0
M  V30 5899 C 561.256 -1.24396 3.38464 0
M  V30 5900 O 560.36 -2.35982 3.3821 0
M  V30 5901 H 559.701 -0.154741 0.645718 0
M  V30 5902 H 562.231 0.152885 2.04028 0
M  V30 5903 H 562.241 -1.5896 3.7576 0
M  V30 5904 H 560.916 -0.498735 4.12899 0
M  V30 5905 H 559.493 -2.03173 3.1269 0
M  V30 5906 N 561.678 -1.56367 -0.196722 0
M  V30 5907 C 562.927 -1.79724 -0.915539 0
M  V30 5908 C 563.24 -0.649804 -1.84491 0
M  V30 5909 O 564.446 -0.767631 -2.60422 0
M  V30 5910 C 562.902 -3.18369 -1.67836 0
M  V30 5911 C 562.51 -4.4091 -0.793897 0
M  V30 5912 C 564.254 -3.51037 -2.38691 0
M  V30 5913 C 562.161 -5.70577 -1.55549 0
M  V30 5914 H 561.091 -0.67013 -0.345604 0
M  V30 5915 H 563.742 -1.82721 -0.168856 0
M  V30 5916 H 562.124 -3.09617 -2.46887 0
M  V30 5917 H 563.298 -4.60781 -0.042163 0
M  V30 5918 H 561.613 -4.15937 -0.19626 0
M  V30 5919 H 564.21 -4.4515 -2.96219 0
M  V30 5920 H 564.553 -2.74704 -3.12799 0
M  V30 5921 H 565.086 -3.61229 -1.66608 0
M  V30 5922 H 561.825 -6.49871 -0.857226 0
M  V30 5923 H 561.345 -5.54726 -2.2812 0
M  V30 5924 H 563.024 -6.11637 -2.10971 0
M  V30 5925 N 563.156 0.464375 -1.50603 0
M  V30 5926 C 564.567 1.04507 -1.5471 0
M  V30 5927 C 564.918 1.9297 -0.354542 0
M  V30 5928 O 564.043 2.09763 0.531812 0
M  V30 5929 C 564.638 1.90207 -2.80369 0
M  V30 5930 C 563.197 2.43373 -2.87135 0
M  V30 5931 C 562.344 1.21886 -2.49076 0
M  V30 5932 H 565.295 0.246716 -1.56771 0
M  V30 5933 H 565.316 2.75353 -2.62604 0
M  V30 5934 H 564.828 1.25796 -3.67147 0
M  V30 5935 H 562.929 3.11318 -2.04724 0
M  V30 5936 H 563.042 2.7802 -3.90181 0
M  V30 5937 H 561.406 1.55575 -2.01664 0
M  V30 5938 H 562.189 0.591268 -3.3817 0
M  V30 5939 N 564.634 1.40294 0.718013 0
M  V30 5940 C 565.882 1.38167 1.47494 0
M  V30 5941 C 566.203 -0.01607 1.94993 0
M  V30 5942 O 565.473 -0.970396 1.70177 0
M  V30 5943 H 564.053 0.508505 0.547203 0
M  V30 5944 H 566.715 1.75324 0.851322 0
M  V30 5945 H 565.811 2.05503 2.34894 0
M  V30 5946 N 566.112 -0.949982 1.2575 0
M  V30 5947 C 567.042 -2.06483 1.09028 0
M  V30 5948 C 568.023 -1.701 -0.00201532 0
M  V30 5949 O 569.208 -1.93469 0.168383 0
M  V30 5950 C 566.338 -3.39899 0.71316 0
M  V30 5951 C 565.292 -3.90309 1.75621 0
M  V30 5952 C 564.618 -5.20274 1.23365 0
M  V30 5953 C 565.918 -4.16169 3.15596 0
M  V30 5954 H 567.612 -2.20731 2.02283 0
M  V30 5955 H 565.158 -1.06066 0.973964 0
M  V30 5956 H 567.111 -4.17346 0.58309 0
M  V30 5957 H 565.835 -3.25602 -0.255091 0
M  V30 5958 H 564.494 -3.15035 1.8748 0
M  V30 5959 H 564.142 -5.02351 0.255491 0
M  V30 5960 H 563.842 -5.54971 1.93082 0
M  V30 5961 H 565.366 -6.00314 1.11607 0
M  V30 5962 H 566.78 -4.84259 3.06864 0
M  V30 5963 H 565.177 -4.62131 3.82825 0
M  V30 5964 H 566.247 -3.22273 3.6231 0
M  V30 5965 N 567.59 -1.07411 -1.15328 0
M  V30 5966 C 568.537 -0.694995 -2.20087 0
M  V30 5967 C 569.507 0.313904 -1.63107 0
M  V30 5968 O 570.692 0.200216 -1.89747 0
M  V30 5969 C 567.832 -0.0996218 -3.44956 0
M  V30 5970 C 566.945 -1.16007 -4.16133 0
M  V30 5971 C 566.08 -0.529636 -5.28553 0
M  V30 5972 C 565.119 -1.57283 -5.91548 0
M  V30 5973 N 564.256 -0.964932 -6.95438 0
M  V30 5974 H 569.096 -1.5927 -2.51867 0
M  V30 5975 H 566.633 -0.796115 -1.23695 0
M  V30 5976 H 568.591 0.263197 -4.16369 0
M  V30 5977 H 567.221 0.761435 -3.13691 0
M  V30 5978 H 566.273 -1.64045 -3.4321 0
M  V30 5979 H 567.585 -1.95101 -4.59061 0
M  V30 5980 H 566.739 -0.114487 -6.06592 0
M  V30 5981 H 565.478 0.29307 -4.86819 0
M  V30 5982 H 564.483 -1.99775 -5.12221 0
M  V30 5983 H 565.708 -2.39783 -6.35359 0
M  V30 5984 H 563.654 -0.16314 -6.55797 0
M  V30 5985 H 563.571 -1.69311 -7.36797 0
M  V30 5986 H 564.839 -0.575305 -7.77374 0
M  V30 5987 N 569.068 1.32177 -0.85831 0
M  V30 5988 C 570.015 2.28794 -0.303607 0
M  V30 5989 C 570.985 1.55213 0.591453 0
M  V30 5990 O 572.17 1.83418 0.525585 0
M  V30 5991 C 569.31 3.41475 0.49889 0
M  V30 5992 C 568.423 4.2993 -0.422373 0
M  V30 5993 C 567.558 5.29743 0.393111 0
M  V30 5994 C 566.597 6.09842 -0.525317 0
M  V30 5995 N 565.734 7.01643 0.253208 0
M  V30 5996 H 570.574 2.75631 -1.13276 0
M  V30 5997 H 568.111 1.35606 -0.570026 0
M  V30 5998 H 570.069 4.05531 0.979826 0
M  V30 5999 H 568.699 2.95779 1.29284 0
M  V30 6000 H 567.751 3.66422 -1.02171 0
M  V30 6001 H 569.063 4.85899 -1.12709 0
M  V30 6002 H 568.217 5.9942 0.937056 0
M  V30 6003 H 566.956 4.744 1.13117 0
M  V30 6004 H 565.961 5.39066 -1.08112 0
M  V30 6005 H 567.186 6.6727 -1.26205 0
M  V30 6006 H 565.132 6.48725 0.974295 0
M  V30 6007 H 565.049 7.54981 -0.392398 0
M  V30 6008 H 566.317 7.756 0.778761 0
M  V30 6009 N 570.547 0.616602 1.45037 0
M  V30 6010 C 571.796 0.112861 2.01384 0
M  V30 6011 C 572.109 -1.26758 1.48969 0
M  V30 6012 O 573.315 -1.86454 1.9735 0
M  V30 6013 C 571.771 0.151057 3.59583 0
M  V30 6014 C 571.379 1.53191 4.20995 0
M  V30 6015 C 573.123 -0.296974 4.2346 0
M  V30 6016 C 571.03 1.526 5.71373 0
M  V30 6017 H 569.96 0.0384254 0.75302 0
M  V30 6018 H 572.611 0.773262 1.66412 0
M  V30 6019 H 570.993 -0.57617 3.91786 0
M  V30 6020 H 572.167 2.28156 4.00352 0
M  V30 6021 H 570.482 1.92279 3.69348 0
M  V30 6022 H 573.079 -0.320712 5.33737 0
M  V30 6023 H 573.422 -1.32145 3.9477 0
M  V30 6024 H 573.955 0.377279 3.96007 0
M  V30 6025 H 570.694 2.52837 6.04776 0
M  V30 6026 H 570.214 0.819064 5.94181 0
M  V30 6027 H 571.893 1.25357 6.3474 0
M  V30 6028 N 572.025 -1.5352 0.356285 0
M  V30 6029 C 573.255 -2.05236 -0.236983 0
M  V30 6030 C 573.663 -1.23016 -1.43749 0
M  V30 6031 O 573.006 -0.2615 -1.81829 0
M  V30 6032 C 573.068 -3.52549 -0.7035 0
M  V30 6033 C 572.732 -4.55425 0.379059 0
M  V30 6034 C 573.729 -5.0524 1.22592 0
M  V30 6035 C 571.414 -4.99425 0.536638 0
M  V30 6036 C 573.408 -5.97647 2.21578 0
M  V30 6037 C 571.095 -5.9164 1.52988 0
M  V30 6038 C 572.093 -6.4064 2.3679 0
M  V30 6039 O 571.781 -7.31039 3.34421 0
M  V30 6040 H 571.513 -0.674346 -0.047254 0
M  V30 6041 H 574.067 -1.98962 0.510238 0
M  V30 6042 H 572.297 -3.56331 -1.50217 0
M  V30 6043 H 573.986 -3.87171 -1.21873 0
M  V30 6044 H 574.752 -4.72002 1.11532 0
M  V30 6045 H 570.631 -4.60879 -0.105834 0
M  V30 6046 H 574.175 -6.35816 2.87025 0
M  V30 6047 H 570.072 -6.24293 1.64099 0
M  V30 6048 H 570.84 -7.49009 3.30041 0
M  V30 6049 N 573.503 -0.0852151 -1.57369 0
M  V30 6050 C 574.433 0.874556 -2.16503 0
M  V30 6051 C 575.414 1.30111 -1.09568 0
M  V30 6052 O 576.599 1.36977 -1.37662 0
M  V30 6053 C 573.729 2.13731 -2.73745 0
M  V30 6054 C 572.683 1.84971 -3.85966 0
M  V30 6055 C 572.009 3.17991 -4.29867 0
M  V30 6056 C 573.309 1.14442 -5.09608 0
M  V30 6057 H 575.003 0.381899 -2.96954 0
M  V30 6058 H 572.549 0.18225 -1.42842 0
M  V30 6059 H 574.502 2.81302 -3.13763 0
M  V30 6060 H 573.226 2.65263 -1.90534 0
M  V30 6061 H 571.885 1.19801 -3.46473 0
M  V30 6062 H 571.533 3.6739 -3.4356 0
M  V30 6063 H 571.233 2.99534 -5.05523 0
M  V30 6064 H 572.757 3.86737 -4.72511 0
M  V30 6065 H 574.171 1.72105 -5.46857 0
M  V30 6066 H 572.568 1.06197 -5.90629 0
M  V30 6067 H 573.638 0.12559 -4.84737 0
M  V30 6068 N 574.981 1.5647 0.188427 0
M  V30 6069 C 575.913 1.91611 1.25769 0
M  V30 6070 C 576.926 0.807436 1.41366 0
M  V30 6071 O 578.115 1.08586 1.41673 0
M  V30 6072 C 575.215 2.13874 2.6289 0
M  V30 6073 C 574.388 3.45047 2.68815 0
M  V30 6074 C 573.447 3.56342 3.87178 0
M  V30 6075 O 572.473 4.29109 3.73971 0
M  V30 6076 N 573.675 2.89924 5.02916 0
M  V30 6077 H 576.44 2.8393 0.959373 0
M  V30 6078 H 574.001 1.57418 0.378306 0
M  V30 6079 H 575.993 2.18713 3.4051 0
M  V30 6080 H 574.563 1.28022 2.85183 0
M  V30 6081 H 573.783 3.52017 1.77419 0
M  V30 6082 H 575.071 4.31395 2.6977 0
M  V30 6083 H 574.469 2.30644 5.16546 0
M  V30 6084 H 573.026 3.0038 5.78459 0
M  V30 6085 N 576.459 -0.456382 1.50847 0
M  V30 6086 C 577.705 -1.20914 1.62811 0
M  V30 6087 C 578.038 -1.91301 0.334304 0
M  V30 6088 O 577.313 -1.82775 -0.665098 0
M  V30 6089 C 577.596 -2.24122 2.81853 0
M  V30 6090 C 577.449 -1.57944 4.21158 0
M  V30 6091 C 578.768 -3.25295 2.96431 0
M  V30 6092 H 575.887 -0.438233 0.592554 0
M  V30 6093 H 578.529 -0.50091 1.83278 0
M  V30 6094 H 576.679 -2.84524 2.64534 0
M  V30 6095 H 578.351 -1.01025 4.50102 0
M  V30 6096 H 576.594 -0.882185 4.24735 0
M  V30 6097 H 577.265 -2.33014 5.00408 0
M  V30 6098 H 579.741 -2.7493 3.12335 0
M  V30 6099 H 578.617 -3.94822 3.81322 0
M  V30 6100 H 578.878 -3.90286 2.07676 0
M  V30 6101 N 577.937 -1.40673 -0.710563 0
M  V30 6102 C 578.867 -1.44095 -1.83736 0
M  V30 6103 C 579.848 -0.301286 -1.67411 0
M  V30 6104 O 581.033 -0.510618 -1.87367 0
M  V30 6105 C 578.163 -1.30773 -3.21738 0
M  V30 6106 C 577.117 -2.42395 -3.52745 0
M  V30 6107 C 576.443 -2.14147 -4.89944 0
M  V30 6108 C 577.743 -3.84738 -3.53234 0
M  V30 6109 H 579.437 -2.38396 -1.81129 0
M  V30 6110 H 576.983 -1.14746 -0.870017 0
M  V30 6111 H 578.936 -1.31783 -4.00264 0
M  V30 6112 H 577.66 -0.329507 -3.24934 0
M  V30 6113 H 576.319 -2.40643 -2.76562 0
M  V30 6114 H 575.967 -1.14703 -4.89747 0
M  V30 6115 H 575.667 -2.88934 -5.11655 0
M  V30 6116 H 577.191 -2.16848 -5.70797 0
M  V30 6117 H 578.605 -3.88286 -4.2179 0
M  V30 6118 H 577.002 -4.59085 -3.86473 0
M  V30 6119 H 578.072 -4.13962 -2.52514 0
M  V30 6120 N 579.415 0.9433 -1.26252 0
M  V30 6121 C 580.64 1.72898 -1.14547 0
M  V30 6122 C 581.065 1.85761 0.295743 0
M  V30 6123 O 580.423 1.3463 1.21427 0
M  V30 6124 C 580.471 3.11471 -1.8171 0
M  V30 6125 O 579.575 3.97336 -1.10445 0
M  V30 6126 H 578.916 0.530555 -0.399259 0
M  V30 6127 H 581.446 1.18159 -1.67032 0
M  V30 6128 H 581.456 3.61872 -1.88449 0
M  V30 6129 H 580.131 3.01425 -2.86558 0
M  V30 6130 H 578.708 3.55788 -1.11666 0
M  V30 6131 N 580.893 1.08022 1.14757 0
M  V30 6132 C 582.14 0.807509 1.85703 0
M  V30 6133 C 582.468 -0.666617 1.8272 0
M  V30 6134 O 581.723 -1.50562 1.25018 0
M  V30 6135 C 582.022 1.26964 3.34088 0
M  V30 6136 C 581.688 2.7509 3.57262 0
M  V30 6137 C 580.35 3.15547 3.63296 0
M  V30 6138 C 582.702 3.70667 3.66409 0
M  V30 6139 C 580.03 4.50384 3.75994 0
M  V30 6140 C 582.382 5.05274 3.80632 0
M  V30 6141 C 581.046 5.45342 3.84913 0
M  V30 6142 H 580.316 0.295488 0.679535 0
M  V30 6143 H 582.963 1.35245 1.35577 0
M  V30 6144 H 581.268 0.644216 3.86467 0
M  V30 6145 H 582.965 1.03544 3.87401 0
M  V30 6146 H 579.555 2.42775 3.53212 0
M  V30 6147 H 583.739 3.40533 3.61041 0
M  V30 6148 H 578.995 4.80886 3.77569 0
M  V30 6149 H 583.169 5.79201 3.86652 0
M  V30 6150 H 580.796 6.49823 3.94505 0
M  V30 6151 N 582.371 -1.3172 0.865308 0
M  V30 6152 C 583.301 -2.31109 0.333302 0
M  V30 6153 C 584.282 -1.60148 -0.573301 0
M  V30 6154 O 585.467 -1.87882 -0.491305 0
M  V30 6155 C 582.597 -3.44104 -0.470078 0
M  V30 6156 C 581.551 -4.26623 0.343021 0
M  V30 6157 C 580.877 -5.31482 -0.585756 0
M  V30 6158 C 582.177 -4.98001 1.57456 0
M  V30 6159 H 583.871 -2.75855 1.1638 0
M  V30 6160 H 581.417 -1.3262 0.561069 0
M  V30 6161 H 583.37 -4.12682 -0.852752 0
M  V30 6162 H 582.094 -2.98112 -1.33404 0
M  V30 6163 H 580.753 -3.59707 0.707583 0
M  V30 6164 H 580.401 -4.81741 -1.44686 0
M  V30 6165 H 580.101 -5.87582 -0.0456494 0
M  V30 6166 H 581.625 -6.0292 -0.965375 0
M  V30 6167 H 583.039 -5.59201 1.26359 0
M  V30 6168 H 581.436 -5.63876 2.05339 0
M  V30 6169 H 582.506 -4.25253 2.32997 0
M  V30 6170 N 583.85 -0.624285 -1.44708 0
M  V30 6171 C 584.779 0.0717025 -2.3339 0
M  V30 6172 C 585.76 0.841814 -1.47809 0
M  V30 6173 O 586.946 0.809056 -1.76544 0
M  V30 6174 C 584.076 1.05852 -3.30776 0
M  V30 6175 C 583.029 0.400503 -4.26122 0
M  V30 6176 C 582.356 1.49674 -5.13324 0
M  V30 6177 C 583.656 -0.688924 -5.17737 0
M  V30 6178 H 585.35 -0.668819 -2.91834 0
M  V30 6179 H 582.896 -0.32308 -1.40329 0
M  V30 6180 H 584.849 1.5541 -3.91696 0
M  V30 6181 H 583.572 1.82984 -2.70526 0
M  V30 6182 H 582.231 -0.0743687 -3.66525 0
M  V30 6183 H 581.88 2.25877 -4.49431 0
M  V30 6184 H 581.58 1.06188 -5.77926 0
M  V30 6185 H 583.104 1.99427 -5.77115 0
M  V30 6186 H 584.518 -0.276724 -5.72632 0
M  V30 6187 H 582.915 -1.04652 -5.90904 0
M  V30 6188 H 583.985 -1.55884 -4.5916 0
M  V30 6189 N 585.328 1.53329 -0.364422 0
M  V30 6190 C 586.258 2.28627 0.474543 0
M  V30 6191 C 587.239 1.31009 1.08492 0
M  V30 6192 O 588.424 1.59878 1.10239 0
M  V30 6193 C 585.554 3.07465 1.61501 0
M  V30 6194 C 584.508 4.1276 1.13194 0
M  V30 6195 C 583.834 4.79674 2.36255 0
M  V30 6196 C 585.134 5.21847 0.217507 0
M  V30 6197 H 586.828 2.99005 -0.153656 0
M  V30 6198 H 584.374 1.43803 -0.0753406 0
M  V30 6199 H 586.327 3.58889 2.20855 0
M  V30 6200 H 585.051 2.34775 2.27042 0
M  V30 6201 H 583.71 3.62281 0.56109 0
M  V30 6202 H 583.358 4.03557 3.00251 0
M  V30 6203 H 583.058 5.50827 2.04606 0
M  V30 6204 H 584.582 5.33892 2.96297 0
M  V30 6205 H 585.996 5.6878 0.718493 0
M  V30 6206 H 584.393 6.00099 -0.00806408 0
M  V30 6207 H 585.463 4.7921 -0.740653 0
M  V30 6208 N 586.806 0.0935595 1.57322 0
M  V30 6209 C 588.054 -0.569383 1.93913 0
M  V30 6210 C 588.375 -1.68817 0.976009 0
M  V30 6211 O 587.645 -1.9588 0.0278099 0
M  V30 6212 H 586.225 -0.21332 0.715894 0
M  V30 6213 H 588.887 0.156531 1.9427 0
M  V30 6214 H 587.983 -0.980577 2.96296 0
M  V30 6215 N 588.284 -1.56567 -0.180126 0
M  V30 6216 C 589.214 -1.98753 -1.22553 0
M  V30 6217 C 590.195 -0.86175 -1.46656 0
M  V30 6218 O 591.38 -1.12719 -1.58139 0
M  V30 6219 C 588.51 -2.33988 -2.56645 0
M  V30 6220 C 587.464 -3.49445 -2.47128 0
M  V30 6221 C 586.79 -3.70397 -3.8563 0
M  V30 6222 C 588.09 -4.83171 -1.98352 0
M  V30 6223 H 589.784 -2.86332 -0.874896 0
M  V30 6224 H 587.33 -1.37757 -0.419414 0
M  V30 6225 H 589.283 -2.62097 -3.29974 0
M  V30 6226 H 588.007 -1.43309 -2.93479 0
M  V30 6227 H 586.666 -3.2145 -1.76254 0
M  V30 6228 H 586.314 -2.77023 -4.19842 0
M  V30 6229 H 586.014 -4.48077 -3.80132 0
M  V30 6230 H 587.538 -4.00897 -4.60558 0
M  V30 6231 H 588.952 -5.10213 -2.61449 0
M  V30 6232 H 587.349 -5.64425 -2.03823 0
M  V30 6233 H 588.419 -4.75753 -0.937402 0
M  V30 6234 N 589.762 0.448376 -1.51087 0
M  V30 6235 C 590.695 1.56298 -1.66272 0
M  V30 6236 C 591.673 1.54381 -0.510419 0
M  V30 6237 O 592.857 1.73671 -0.732854 0
M  V30 6238 C 589.984 2.94883 -1.66618 0
M  V30 6239 C 589.03 3.14868 -2.87681 0
M  V30 6240 S 589.863 2.9234 -4.48662 0
M  V30 6241 C 591.019 4.33227 -4.51735 0
M  V30 6242 H 591.252 1.43182 -2.6055 0
M  V30 6243 H 588.785 0.637309 -1.40633 0
M  V30 6244 H 590.743 3.74771 -1.67502 0
M  V30 6245 H 589.404 3.05371 -0.735358 0
M  V30 6246 H 588.597 4.16166 -2.84292 0
M  V30 6247 H 588.199 2.42788 -2.84482 0
M  V30 6248 H 590.491 5.26247 -4.26697 0
M  V30 6249 H 591.434 4.41653 -5.53487 0
M  V30 6250 H 591.842 4.16367 -3.81181 0
M  V30 6251 N 591.24 1.41047 0.703093 0
M  V30 6252 C 592.465 1.43537 1.49706 0
M  V30 6253 C 592.89 0.0401853 1.88057 0
M  V30 6254 O 592.248 -0.954785 1.54122 0
M  V30 6255 C 592.296 2.3433 2.74084 0
M  V30 6256 O 591.4 1.79515 3.71279 0
M  V30 6257 H 590.741 0.487454 0.450871 0
M  V30 6258 H 593.271 1.85422 0.86486 0
M  V30 6259 H 593.281 2.49947 3.22476 0
M  V30 6260 H 591.956 3.35708 2.45506 0
M  V30 6261 H 590.533 1.7331 3.30179 0
M  V30 6262 N 592.718 -0.936591 1.26751 0
M  V30 6263 C 593.651 -2.03619 1.03027 0
M  V30 6264 C 594.629 -1.62534 -0.0464619 0
M  V30 6265 O 595.813 -1.88251 0.0968873 0
M  V30 6266 C 592.94 -3.3402 0.561072 0
M  V30 6267 C 591.986 -3.9408 1.63105 0
M  V30 6268 S 592.819 -4.27782 3.22122 0
M  V30 6269 C 593.975 -5.61277 2.76982 0
M  V30 6270 H 594.208 -2.23429 1.96129 0
M  V30 6271 H 591.741 -1.07857 1.10482 0
M  V30 6272 H 593.699 -4.09424 0.297031 0
M  V30 6273 H 592.36 -3.12147 -0.349741 0
M  V30 6274 H 591.553 -4.88154 1.25386 0
M  V30 6275 H 591.155 -3.25227 1.84671 0
M  V30 6276 H 593.447 -6.40189 2.21731 0
M  V30 6277 H 594.39 -6.03887 3.69766 0
M  V30 6278 H 594.798 -5.21374 2.16402 0
M  V30 6279 N 594.196 -1.08629 -1.14182 0
M  V30 6280 C 595.129 -0.662329 -2.18377 0
M  V30 6281 C 596.107 0.327054 -1.59277 0
M  V30 6282 O 597.291 0.230376 -1.87087 0
M  V30 6283 C 594.418 0.0254765 -3.3869 0
M  V30 6284 C 593.464 -0.924414 -4.16361 0
M  V30 6285 S 594.297 -2.43226 -4.77076 0
M  V30 6286 C 595.453 -1.75663 -6.00744 0
M  V30 6287 H 595.686 -1.54501 -2.54001 0
M  V30 6288 H 593.219 -0.901484 -1.2535 0
M  V30 6289 H 595.177 0.416032 -4.08386 0
M  V30 6290 H 593.838 0.884689 -3.01384 0
M  V30 6291 H 593.031 -0.390099 -5.02488 0
M  V30 6292 H 592.633 -1.25598 -3.5228 0
M  V30 6293 H 594.925 -1.07589 -6.68903 0
M  V30 6294 H 595.868 -2.59673 -6.58768 0
M  V30 6295 H 596.276 -1.22903 -5.50958 0
M  V30 6296 N 595.674 1.31259 -0.872281 0
M  V30 6297 C 596.923 1.95893 -0.480493 0
M  V30 6298 C 597.236 1.697 0.972688 0
M  V30 6299 O 598.442 2.28214 1.47073 0
M  V30 6300 C 596.898 3.50705 -0.808342 0
M  V30 6301 C 596.506 3.85735 -2.27844 0
M  V30 6302 C 598.25 4.21719 -0.485136 0
M  V30 6303 C 596.157 5.33668 -2.54858 0
M  V30 6304 H 595.087 0.733182 -0.175955 0
M  V30 6305 H 597.738 1.49396 -1.0655 0
M  V30 6306 H 596.12 3.95706 -0.152558 0
M  V30 6307 H 597.294 3.51686 -2.97748 0
M  V30 6308 H 595.609 3.27792 -2.56791 0
M  V30 6309 H 598.206 5.30559 -0.664166 0
M  V30 6310 H 598.549 4.12316 0.574592 0
M  V30 6311 H 599.082 3.82359 -1.09756 0
M  V30 6312 H 595.821 5.48109 -3.59523 0
M  V30 6313 H 595.341 5.69061 -1.8955 0
M  V30 6314 H 597.02 6.00958 -2.39706 0
M  V30 6315 N 597.152 0.631951 1.44375 0
M  V30 6316 C 598.563 0.219036 1.85411 0
M  V30 6317 C 598.914 -1.22974 1.52879 0
M  V30 6318 O 598.039 -1.93579 0.967266 0
M  V30 6319 C 598.634 0.39075 3.36539 0
M  V30 6320 C 597.193 0.0323351 3.76386 0
M  V30 6321 C 596.34 0.703744 2.68221 0
M  V30 6322 H 599.291 0.837056 1.3483 0
M  V30 6323 H 599.312 -0.370056 3.78696 0
M  V30 6324 H 598.824 1.44527 3.60185 0
M  V30 6325 H 596.925 -1.02042 3.58355 0
M  V30 6326 H 597.038 0.442969 4.77048 0
M  V30 6327 H 595.402 0.138974 2.54321 0
M  V30 6328 H 596.185 1.76088 2.947 0
M  V30 6329 N 598.631 -1.53133 0.372548 0
M  V30 6330 C 599.561 -2.28876 -0.462412 0
M  V30 6331 C 600.542 -1.31583 -1.07796 0
M  V30 6332 O 601.727 -1.60461 -1.09389 0
M  V30 6333 C 598.857 -3.08317 -1.59868 0
M  V30 6334 C 597.811 -4.13355 -1.11003 0
M  V30 6335 C 597.137 -4.8092 -2.33708 0
M  V30 6336 C 598.437 -5.21955 -0.18983 0
M  V30 6337 H 600.131 -2.9892 0.169511 0
M  V30 6338 H 597.677 -1.43761 0.0829658 0
M  V30 6339 H 599.63 -3.60055 -2.18949 0
M  V30 6340 H 598.354 -2.35976 -2.25794 0
M  V30 6341 H 597.013 -3.62573 -0.541869 0
M  V30 6342 H 596.661 -4.05144 -2.98106 0
M  V30 6343 H 596.361 -5.51904 -2.01682 0
M  V30 6344 H 597.885 -5.35455 -2.93462 0
M  V30 6345 H 599.299 -5.69153 -0.688319 0
M  V30 6346 H 597.696 -6.00087 0.0398887 0
M  V30 6347 H 598.766 -4.78811 0.766057 0
M  V30 6348 N 600.109 -0.101901 -1.5727 0
M  V30 6349 C 601.349 0.563489 -1.96479 0
M  V30 6350 C 601.713 1.64926 -0.983021 0
M  V30 6351 O 602.914 2.37234 -1.26386 0
M  V30 6352 C 601.185 1.09809 -3.40113 0
M  V30 6353 S 602.744 1.7744 -4.01323 0
M  V30 6354 H 599.562 0.183675 -0.686866 0
M  V30 6355 H 602.164 -0.182922 -1.94642 0
M  V30 6356 H 600.868 0.296447 -4.09328 0
M  V30 6357 H 600.399 1.88018 -3.45562 0
M  V30 6358 H 602.414 3.0591 -3.90683 0
M  V30 6359 N 601.587 1.56661 0.17182 0
M  V30 6360 C 603.003 1.50768 0.52357 0
M  V30 6361 C 603.203 0.806072 1.84675 0
M  V30 6362 O 602.259 0.366233 2.4983 0
M  V30 6363 C 603.572 2.955 0.556793 0
M  V30 6364 C 605.12 3.06303 0.644029 0
M  V30 6365 C 605.595 4.52492 0.708148 0
M  V30 6366 N 607.086 4.56737 0.771051 0
M  V30 6367 C 607.821 5.67196 0.841229 0
M  V30 6368 N 607.317 6.87287 0.872272 0
M  V30 6369 N 609.11 5.55165 0.88021 0
M  V30 6370 H 601.261 2.00679 -0.695817 0
M  V30 6371 H 603.524 0.914219 -0.250814 0
M  V30 6372 H 603.23 3.49986 -0.346774 0
M  V30 6373 H 603.104 3.50119 1.40346 0
M  V30 6374 H 605.491 2.51851 1.53802 0
M  V30 6375 H 605.572 2.5477 -0.229297 0
M  V30 6376 H 605.216 5.07575 -0.181585 0
M  V30 6377 H 605.146 5.01781 1.59761 0
M  V30 6378 H 607.637 3.70274 0.755364 0
M  V30 6379 H 607.95 7.6722 0.92698 0
M  V30 6380 H 606.295 6.89898 0.840557 0
M  V30 6381 H 609.486 4.60263 0.852956 0
M  V30 6382 H 609.659 6.41271 0.931439 0
M  V30 6383 N 603.065 -0.440357 1.51323 0
M  V30 6384 C 604.342 -1.20109 1.5438 0
M  V30 6385 C 604.722 -2.08866 0.306303 0
M  V30 6386 O 604.07 -2.1723 -0.708773 0
M  V30 6387 C 604.28 -2.00555 2.8562 0
M  V30 6388 C 605.628 -2.577 3.37455 0
M  V30 6389 O 606.652 -2.10769 2.8715 0
M  V30 6390 O 605.511 -3.43289 4.25224 0
M  V30 6391 H 602.605 -0.546668 0.620551 0
M  V30 6392 H 605.151 -0.449672 1.63634 0
M  V30 6393 H 603.923 -1.35346 3.67147 0
M  V30 6394 H 603.546 -2.82768 2.79514 0
M  V30 6395 N 604.543 -1.41418 -0.695603 0
M  V30 6396 C 605.79 -1.40774 -1.45564 0
M  V30 6397 C 606.118 -0.0168604 -1.94493 0
M  V30 6398 O 605.373 0.971259 -1.69897 0
M  V30 6399 C 605.672 -2.36112 -2.68302 0
M  V30 6400 C 605.338 -3.82952 -2.38031 0
M  V30 6401 C 604 -4.22954 -2.29486 0
M  V30 6402 C 606.352 -4.75662 -2.13061 0
M  V30 6403 C 603.68 -5.53674 -1.94067 0
M  V30 6404 C 606.032 -6.06702 -1.79151 0
M  V30 6405 C 604.696 -6.45725 -1.69102 0
M  V30 6406 H 603.966 -0.515128 -0.532658 0
M  V30 6407 H 606.613 -1.74216 -0.795047 0
M  V30 6408 H 604.918 -1.95924 -3.39295 0
M  V30 6409 H 606.615 -2.32887 -3.26442 0
M  V30 6410 H 603.205 -3.5127 -2.45576 0
M  V30 6411 H 607.389 -4.45561 -2.18608 0
M  V30 6412 H 602.645 -5.8279 -1.8484 0
M  V30 6413 H 606.819 -6.78041 -1.5885 0
M  V30 6414 H 604.446 -7.46929 -1.41426 0
M  V30 6415 N 606.021 0.929856 -1.27246 0
M  V30 6416 C 607.269 1.674 -1.13233 0
M  V30 6417 C 607.59 1.92311 0.322744 0
M  V30 6418 O 606.86 1.52784 1.22612 0
M  V30 6419 H 605.44 0.620411 -0.416052 0
M  V30 6420 H 608.102 1.11663 -1.59741 0
M  V30 6421 H 607.198 2.64308 -1.65975 0
M  V30 6422 N 607.499 1.09233 1.13605 0
M  V30 6423 C 608.747 0.825525 1.84471 0
M  V30 6424 C 609.068 -0.650702 1.83823 0
M  V30 6425 O 608.338 -1.47204 1.29259 0
M  V30 6426 H 606.918 0.3024 0.683054 0
M  V30 6427 H 609.58 1.38006 1.37624 0
M  V30 6428 H 608.676 1.17727 2.89045 0
M  V30 6429 N 608.977 -1.30795 0.87923 0
M  V30 6430 C 609.907 -2.30742 0.357796 0
M  V30 6431 C 610.888 -1.60747 -0.556283 0
M  V30 6432 O 612.073 -1.88393 -0.47135 0
M  V30 6433 C 609.203 -3.44583 -0.433555 0
M  V30 6434 C 608.157 -4.26235 0.388251 0
M  V30 6435 C 607.483 -5.32073 -0.529352 0
M  V30 6436 C 608.783 -4.96303 1.62729 0
M  V30 6437 H 610.477 -2.74605 1.19299 0
M  V30 6438 H 608.023 -1.32017 0.575104 0
M  V30 6439 H 609.976 -4.13563 -0.808934 0
M  V30 6440 H 608.7 -2.99511 -1.30234 0
M  V30 6441 H 607.359 -3.58936 0.745695 0
M  V30 6442 H 607.007 -4.83249 -1.39569 0
M  V30 6443 H 606.707 -5.87598 0.0166741 0
M  V30 6444 H 608.231 -6.0391 -0.901373 0
M  V30 6445 H 609.645 -5.5783 1.32283 0
M  V30 6446 H 608.042 -5.61666 2.11309 0
M  V30 6447 H 609.112 -4.22758 2.37494 0
M  V30 6448 N 610.455 -0.639598 -1.44038 0
M  V30 6449 C 611.704 -0.144885 -2.01179 0
M  V30 6450 C 612.017 1.24372 -1.50967 0
M  V30 6451 O 613.223 1.83291 -2.00292 0
M  V30 6452 C 611.679 -0.208244 -3.59297 0
M  V30 6453 C 611.287 -1.59869 -4.18504 0
M  V30 6454 C 613.031 0.229568 -4.23879 0
M  V30 6455 C 610.938 -1.61671 -5.68873 0
M  V30 6456 H 609.868 -0.0504005 -0.752314 0
M  V30 6457 H 612.519 -0.799639 -1.65161 0
M  V30 6458 H 610.901 0.513767 -3.92653 0
M  V30 6459 H 612.075 -2.34496 -3.96671 0
M  V30 6460 H 610.39 -1.98131 -3.66242 0
M  V30 6461 H 612.987 0.235758 -5.3418 0
M  V30 6462 H 613.33 1.25848 -3.96822 0
M  V30 6463 H 613.863 -0.440233 -3.95357 0
M  V30 6464 H 610.602 -2.62427 -6.00677 0
M  V30 6465 H 610.122 -0.913489 -5.92803 0
M  V30 6466 H 611.801 -1.35439 -6.32665 0
M  V30 6467 N 611.933 1.52934 -0.380664 0
M  V30 6468 C 613.179 2.01765 0.20458 0
M  V30 6469 C 613.512 1.26696 1.47179 0
M  V30 6470 O 612.787 0.364936 1.91046 0
M  V30 6471 C 613.07 3.56869 0.481269 0
M  V30 6472 C 612.923 4.42617 -0.800629 0
M  V30 6473 C 614.242 4.2121 1.27554 0
M  V30 6474 H 611.361 0.733388 0.0728803 0
M  V30 6475 H 614.003 1.83068 -0.50853 0
M  V30 6476 H 612.153 3.72932 1.08875 0
M  V30 6477 H 613.825 4.38323 -1.43773 0
M  V30 6478 H 612.068 4.09977 -1.4178 0
M  V30 6479 H 612.739 5.49134 -0.561791 0
M  V30 6480 H 615.215 4.09072 0.761514 0
M  V30 6481 H 614.091 5.29732 1.43788 0
M  V30 6482 H 614.352 3.78269 2.28833 0
M  V30 6483 N 613.412 0.11024 1.57214 0
M  V30 6484 C 614.658 -0.550684 1.9518 0
M  V30 6485 C 614.991 -1.66885 0.993122 0
M  V30 6486 O 614.266 -1.94479 0.0287907 0
M  V30 6487 C 614.549 -1.09163 3.43155 0
M  V30 6488 C 614.402 0.0225198 4.49794 0
M  V30 6489 C 615.721 -1.98527 3.92778 0
M  V30 6490 H 612.84 -0.198706 0.709708 0
M  V30 6491 H 615.482 0.184024 1.89107 0
M  V30 6492 H 613.632 -1.71775 3.48462 0
M  V30 6493 H 615.304 0.657443 4.56591 0
M  V30 6494 H 613.547 0.686868 4.28328 0
M  V30 6495 H 614.218 -0.39706 5.5057 0
M  V30 6496 H 616.694 -1.458 3.8972 0
M  V30 6497 H 615.57 -2.33298 4.96853 0
M  V30 6498 H 615.831 -2.90846 3.32958 0
M  V30 6499 N 614.89 -1.56749 -0.16351 0
M  V30 6500 C 616.13 -1.84234 -0.885271 0
M  V30 6501 C 616.494 -0.692259 -1.79086 0
M  V30 6502 O 617.695 -0.847747 -2.55082 0
M  V30 6503 C 615.966 -3.16857 -1.65337 0
M  V30 6504 S 617.525 -3.65848 -2.42282 0
M  V30 6505 H 614.343 -0.646293 -0.296354 0
M  V30 6506 H 616.945 -1.94951 -0.146365 0
M  V30 6507 H 615.649 -3.98546 -0.979266 0
M  V30 6508 H 615.18 -3.09102 -2.4335 0
M  V30 6509 H 617.195 -3.33796 -3.67143 0
M  V30 6510 N 616.368 0.432326 -1.51554 0
M  V30 6511 C 617.298 1.53242 -1.76179 0
M  V30 6512 C 618.279 1.58717 -0.611801 0
M  V30 6513 O 619.464 1.74364 -0.855033 0
M  V30 6514 C 616.594 2.91278 -1.89141 0
M  V30 6515 C 615.548 3.00663 -3.04608 0
M  V30 6516 C 614.874 4.40728 -3.02759 0
M  V30 6517 C 616.174 2.74281 -4.44485 0
M  V30 6518 H 617.868 1.32886 -2.68294 0
M  V30 6519 H 615.414 0.637841 -1.29103 0
M  V30 6520 H 617.367 3.68203 -2.04951 0
M  V30 6521 H 616.091 3.12877 -0.936785 0
M  V30 6522 H 614.75 2.26179 -2.88511 0
M  V30 6523 H 614.398 4.59301 -2.05065 0
M  V30 6524 H 614.098 4.47936 -3.80299 0
M  V30 6525 H 615.622 5.19619 -3.20669 0
M  V30 6526 H 617.036 3.40936 -4.60907 0
M  V30 6527 H 615.433 2.92893 -5.23769 0
M  V30 6528 H 616.503 1.69856 -4.54177 0
M  V30 6529 N 617.846 1.41785 0.688094 0
M  V30 6530 C 619.093 1.41544 1.44816 0
M  V30 6531 C 619.421 0.0271746 1.94481 0
M  V30 6532 O 618.676 -0.962235 1.7041 0
M  V30 6533 C 618.975 2.37532 2.67046 0
M  V30 6534 C 618.641 3.84209 2.35996 0
M  V30 6535 C 617.303 4.24165 2.27239 0
M  V30 6536 C 619.655 4.76785 2.10536 0
M  V30 6537 C 616.983 5.54695 1.91128 0
M  V30 6538 C 619.335 6.07644 1.75931 0
M  V30 6539 C 617.999 6.46613 1.65675 0
M  V30 6540 H 617.269 0.517945 0.529919 0
M  V30 6541 H 619.916 1.74635 0.785797 0
M  V30 6542 H 618.221 1.9772 3.38251 0
M  V30 6543 H 619.918 2.34615 3.25203 0
M  V30 6544 H 616.508 3.52567 2.4371 0
M  V30 6545 H 620.692 4.46714 2.16242 0
M  V30 6546 H 615.948 5.83762 1.81746 0
M  V30 6547 H 620.122 6.78874 1.55252 0
M  V30 6548 H 617.749 7.47668 1.37463 0
M  V30 6549 N 619.324 -0.923095 1.27737 0
M  V30 6550 C 620.254 -2.04124 1.13383 0
M  V30 6551 C 621.235 -1.70066 0.0340658 0
M  V30 6552 O 622.42 -1.93068 0.209383 0
M  V30 6553 C 619.55 -3.3831 0.785097 0
M  V30 6554 C 618.504 -3.86496 1.8386 0
M  V30 6555 C 617.83 -5.1754 1.34373 0
M  V30 6556 C 619.13 -4.09381 3.24353 0
M  V30 6557 H 620.824 -2.1639 2.06919 0
M  V30 6558 H 618.37 -1.03976 0.996243 0
M  V30 6559 H 620.323 -4.16016 0.671485 0
M  V30 6560 H 619.047 -3.2607 -0.185969 0
M  V30 6561 H 617.706 -3.10987 1.9412 0
M  V30 6562 H 617.354 -5.01696 0.361989 0
M  V30 6563 H 617.054 -5.50751 2.04811 0
M  V30 6564 H 618.578 -5.97811 1.24315 0
M  V30 6565 H 619.992 -4.77641 3.17067 0
M  V30 6566 H 618.389 -4.53906 3.92542 0
M  V30 6567 H 619.459 -3.14515 3.69064 0
M  V30 6568 N 620.802 -1.09834 -1.13024 0
M  V30 6569 C 622.05 -0.835297 -1.8403 0
M  V30 6570 C 622.371 0.640944 -1.84165 0
M  V30 6571 O 621.641 1.46517 -1.30037 0
M  V30 6572 H 620.221 -0.306018 -0.681441 0
M  V30 6573 H 622.883 -1.38734 -1.36891 0
M  V30 6574 H 621.979 -1.19258 -2.88416 0
M  V30 6575 N 622.28 1.30327 -0.886154 0
M  V30 6576 C 623.21 2.30549 -0.370028 0
M  V30 6577 C 624.191 1.61039 0.547751 0
M  V30 6578 O 625.376 1.8864 0.461353 0
M  V30 6579 C 622.506 3.44808 0.415275 0
M  V30 6580 C 621.46 4.26024 -0.41085 0
M  V30 6581 C 620.786 5.32347 0.501128 0
M  V30 6582 C 622.086 4.95433 -1.65359 0
M  V30 6583 H 623.78 2.73969 -1.20754 0
M  V30 6584 H 621.326 1.3171 -0.582097 0
M  V30 6585 H 623.279 4.13986 0.78699 0
M  V30 6586 H 622.003 3.00197 1.28644 0
M  V30 6587 H 620.662 3.58535 -0.764719 0
M  V30 6588 H 620.31 4.83982 1.37004 0
M  V30 6589 H 620.01 5.87581 -0.0478356 0
M  V30 6590 H 621.534 6.0438 0.869333 0
M  V30 6591 H 622.948 5.5712 -1.35239 0
M  V30 6592 H 621.345 5.60537 -2.14284 0
M  V30 6593 H 622.415 4.21493 -2.39733 0
M  V30 6594 N 623.758 0.647228 1.43697 0
M  V30 6595 C 624.998 0.16171 2.03759 0
M  V30 6596 C 625.362 -1.19951 1.49919 0
M  V30 6597 O 626.563 -1.77808 2.01588 0
M  V30 6598 C 624.834 0.16505 3.57019 0
M  V30 6599 S 626.393 -0.253497 4.38067 0
M  V30 6600 H 623.211 0.0689985 0.707644 0
M  V30 6601 H 625.813 0.854224 1.7585 0
M  V30 6602 H 624.517 1.15858 3.93707 0
M  V30 6603 H 624.048 -0.548194 3.89562 0
M  V30 6604 H 626.063 -1.49385 4.73179 0
M  V30 6605 N 625.236 -1.5273 0.388769 0
M  V30 6606 C 626.513 -1.93981 -0.251133 0
M  V30 6607 C 626.893 -1.32418 -1.64404 0
M  V30 6608 O 626.241 -0.492074 -2.23139 0
M  V30 6609 C 626.451 -3.47891 -0.27802 0
M  V30 6610 C 627.799 -4.21559 -0.507229 0
M  V30 6611 O 628.823 -3.54394 -0.358252 0
M  V30 6612 O 627.682 -5.40626 -0.799094 0
M  V30 6613 H 624.776 -0.812157 -0.15598 0
M  V30 6614 H 627.322 -1.63809 0.443237 0
M  V30 6615 H 626.094 -3.8503 0.697669 0
M  V30 6616 H 625.717 -3.84364 -1.01733 0
M  V30 6617 N 626.714 -0.118576 -1.57153 0
M  V30 6618 C 627.962 0.538461 -1.94795 0
M  V30 6619 C 628.283 1.67243 -1.00274 0
M  V30 6620 O 627.553 1.95811 -0.0589692 0
M  V30 6621 H 626.133 0.201904 -0.719197 0
M  V30 6622 H 628.795 -0.187418 -1.93997 0
M  V30 6623 H 627.891 0.933315 -2.97818 0
M  V30 6624 N 628.193 1.56834 0.155195 0
M  V30 6625 C 629.44 1.82898 0.869179 0
M  V30 6626 C 629.768 0.698194 1.81537 0
M  V30 6627 O 629.023 -0.313404 1.93174 0
M  V30 6628 C 629.322 3.15239 1.68402 0
M  V30 6629 C 628.988 4.42123 0.885341 0
M  V30 6630 C 627.65 4.76583 0.664971 0
M  V30 6631 C 630.002 5.20178 0.326234 0
M  V30 6632 C 627.33 5.86566 -0.125346 0
M  V30 6633 C 629.682 6.3099 -0.45108 0
M  V30 6634 C 628.346 6.64006 -0.682102 0
M  V30 6635 H 627.616 0.66927 0.318055 0
M  V30 6636 H 630.263 1.91036 0.133241 0
M  V30 6637 H 628.568 3.02515 2.48982 0
M  V30 6638 H 630.265 3.32618 2.23978 0
M  V30 6639 H 626.855 4.15102 1.06716 0
M  V30 6640 H 631.039 4.93936 0.483787 0
M  V30 6641 H 626.295 6.10594 -0.313915 0
M  V30 6642 H 630.469 6.9067 -0.89149 0
M  V30 6643 H 628.096 7.49065 -1.29636 0
M  V30 6644 N 629.671 -0.424282 1.51781 0
M  V30 6645 C 630.918 -1.1726 1.65095 0
M  V30 6646 C 631.246 -1.90881 0.373477 0
M  V30 6647 O 630.501 -1.84835 -0.642997 0
M  V30 6648 C 630.8 -2.20418 2.81337 0
M  V30 6649 C 630.466 -1.63715 4.20129 0
M  V30 6650 C 629.128 -1.47975 4.57883 0
M  V30 6651 C 631.48 -1.22157 5.06682 0
M  V30 6652 C 628.808 -0.891703 5.79884 0
M  V30 6653 C 631.16 -0.647767 6.29275 0
M  V30 6654 C 629.824 -0.477371 6.65791 0
M  V30 6655 H 629.094 -0.429085 0.604125 0
M  V30 6656 H 631.741 -0.461852 1.85847 0
M  V30 6657 H 630.046 -2.97581 2.54859 0
M  V30 6658 H 631.743 -2.78163 2.88836 0
M  V30 6659 H 628.333 -1.76946 3.90369 0
M  V30 6660 H 632.517 -1.33133 4.7811 0
M  V30 6661 H 627.773 -0.747563 6.06813 0
M  V30 6662 H 631.947 -0.317291 6.95677 0
M  V30 6663 H 629.574 -0.0195936 7.60197 0
M  V30 6664 N 631.149 -1.42148 -0.680565 0
M  V30 6665 C 632.398 -1.41604 -1.43636 0
M  V30 6666 C 632.711 -0.0337887 -1.95571 0
M  V30 6667 O 633.917 0.0942588 -2.71336 0
M  V30 6668 C 632.373 -2.49056 -2.59806 0
M  V30 6669 C 631.981 -3.9326 -2.14594 0
M  V30 6670 C 633.725 -2.5767 -3.37352 0
M  V30 6671 C 631.632 -4.92232 -3.27813 0
M  V30 6672 H 630.562 -0.526656 -0.539583 0
M  V30 6673 H 633.213 -1.68033 -0.737369 0
M  V30 6674 H 631.595 -2.15782 -3.32045 0
M  V30 6675 H 632.769 -4.35858 -1.49546 0
M  V30 6676 H 631.084 -3.88443 -1.50002 0
M  V30 6677 H 633.681 -3.28794 -4.21662 0
M  V30 6678 H 634.024 -1.61837 -3.83555 0
M  V30 6679 H 634.557 -2.90109 -2.72179 0
M  V30 6680 H 631.296 -5.89522 -2.86607 0
M  V30 6681 H 630.816 -4.5427 -3.91661 0
M  V30 6682 H 632.495 -5.13684 -3.93367 0
M  V30 6683 N 632.627 0.916307 -1.28225 0
M  V30 6684 C 633.855 1.69901 -1.18073 0
M  V30 6685 C 634.27 1.86988 0.260968 0
M  V30 6686 O 633.627 1.39505 1.17663 0
M  V30 6687 C 633.678 3.09254 -1.87201 0
M  V30 6688 O 633.399 2.92959 -3.2574 0
M  V30 6689 C 634.9 4.0362 -1.83319 0
M  V30 6690 H 632.12 0.531181 -0.409985 0
M  V30 6691 H 634.664 1.14703 -1.69303 0
M  V30 6692 H 632.819 3.61277 -1.39848 0
M  V30 6693 H 633.233 3.81139 -3.60324 0
M  V30 6694 H 634.707 4.98873 -2.36282 0
M  V30 6695 H 635.184 4.3176 -0.805007 0
M  V30 6696 H 635.79 3.57524 -2.3034 0
M  V30 6697 N 634.105 1.10431 1.1244 0
M  V30 6698 C 635.354 0.841539 1.83306 0
M  V30 6699 C 635.667 -0.634961 1.85007 0
M  V30 6700 O 636.873 -1.01363 2.51869 0
M  V30 6701 C 635.329 1.45565 3.29149 0
M  V30 6702 C 634.937 2.96544 3.35806 0
M  V30 6703 C 636.681 1.27227 4.04986 0
M  V30 6704 C 634.588 3.5099 4.75983 0
M  V30 6705 H 633.518 0.311156 0.686803 0
M  V30 6706 H 636.169 1.32829 1.26604 0
M  V30 6707 H 634.551 0.896574 3.85717 0
M  V30 6708 H 635.725 3.58766 2.89177 0
M  V30 6709 H 634.04 3.14036 2.73442 0
M  V30 6710 H 636.637 1.65348 5.08492 0
M  V30 6711 H 636.98 0.213834 4.1575 0
M  V30 6712 H 637.513 1.79941 3.54776 0
M  V30 6713 H 634.252 4.56499 4.70413 0
M  V30 6714 H 633.772 2.93535 5.23065 0
M  V30 6715 H 635.451 3.48808 5.44924 0
M  V30 6716 N 635.583 -1.29855 0.893053 0
M  V30 6717 C 636.516 -2.26079 0.3104 0
M  V30 6718 C 637.494 -1.52145 -0.573644 0
M  V30 6719 O 638.678 -1.8113 -0.521937 0
M  V30 6720 C 635.805 -3.34069 -0.558179 0
M  V30 6721 C 634.851 -4.25721 0.257638 0
M  V30 6722 S 635.684 -5.09409 1.65114 0
M  V30 6723 C 636.84 -6.20903 0.789307 0
M  V30 6724 H 637.073 -2.75151 1.12602 0
M  V30 6725 H 634.606 -1.37975 0.692978 0
M  V30 6726 H 636.564 -3.9675 -1.05355 0
M  V30 6727 H 635.225 -2.83705 -1.34797 0
M  V30 6728 H 634.418 -5.02366 -0.405562 0
M  V30 6729 H 634.02 -3.67656 0.685917 0
M  V30 6730 H 636.312 -6.77499 0.00978451 0
M  V30 6731 H 637.255 -6.91426 1.52762 0
M  V30 6732 H 637.663 -5.63435 0.346634 0
M  V30 6733 N 637.061 -0.65484 -1.43351 0
M  V30 6734 C 638.024 0.0263562 -2.29185 0
M  V30 6735 C 639.024 0.748951 -1.42293 0
M  V30 6736 O 640.214 0.589957 -1.63906 0
M  V30 6737 C 637.346 1.04806 -3.2439 0
M  V30 6738 H 638.539 -0.728883 -2.90908 0
M  V30 6739 H 636.092 -0.416149 -1.50658 0
M  V30 6740 H 636.827 1.83247 -2.67565 0
M  V30 6741 H 636.612 0.533554 -3.88453 0
M  V30 6742 H 638.102 1.52372 -3.88809 0
M  V30 6743 N 638.539 1.52521 -0.396863 0
M  V30 6744 C 639.95 1.86547 0.0754868 0
M  V30 6745 C 640.301 1.31621 1.45501 0
M  V30 6746 O 639.426 0.650563 2.0639 0
M  V30 6747 C 640.021 3.38495 0.143754 0
M  V30 6748 C 638.58 3.72205 0.560413 0
M  V30 6749 C 637.727 2.75954 -0.272856 0
M  V30 6750 H 640.678 1.46323 -0.614434 0
M  V30 6751 H 640.699 3.68153 0.961425 0
M  V30 6752 H 640.211 3.78442 -0.860415 0
M  V30 6753 H 638.312 3.3783 1.57167 0
M  V30 6754 H 638.425 4.78074 0.313314 0
M  V30 6755 H 636.789 2.53339 0.263 0
M  V30 6756 H 637.572 3.1874 -1.27515 0
M  V30 6757 N 640.017 0.126909 1.57088 0
M  V30 6758 C 641.266 -0.529024 1.94639 0
M  V30 6759 C 641.579 -1.67323 1.01304 0
M  V30 6760 O 642.785 -2.39245 1.28352 0
M  V30 6761 C 641.241 -0.992483 3.45945 0
M  V30 6762 C 640.849 0.123691 4.47829 0
M  V30 6763 C 642.593 -1.61934 3.924 0
M  V30 6764 C 640.5 -0.356911 5.90322 0
M  V30 6765 H 639.43 -0.201397 0.726605 0
M  V30 6766 H 642.081 0.208032 1.82317 0
M  V30 6767 H 640.463 -1.7842 3.53528 0
M  V30 6768 H 641.637 0.900168 4.51922 0
M  V30 6769 H 639.952 0.657699 4.11173 0
M  V30 6770 H 642.549 -1.9902 4.96281 0
M  V30 6771 H 642.892 -2.50075 3.32819 0
M  V30 6772 H 643.425 -0.892894 3.8765 0
M  V30 6773 H 640.164 0.488636 6.53676 0
M  V30 6774 H 639.684 -1.0997 5.89633 0
M  V30 6775 H 641.363 -0.815547 6.41839 0
M  V30 6776 N 641.495 -1.56914 -0.146875 0
M  V30 6777 C 642.458 -1.97368 -1.16526 0
M  V30 6778 C 643.458 -0.860223 -1.35856 0
M  V30 6779 O 644.648 -1.12684 -1.32846 0
M  V30 6780 C 641.78 -2.28974 -2.52555 0
M  V30 6781 H 642.973 -2.88523 -0.818209 0
M  V30 6782 H 640.526 -1.5135 -0.390221 0
M  V30 6783 H 641.261 -1.40611 -2.92231 0
M  V30 6784 H 641.046 -3.10157 -2.39886 0
M  V30 6785 H 642.536 -2.61109 -3.25902 0
M  V30 6786 N 642.974 0.416227 -1.52004 0
M  V30 6787 C 644.221 1.16383 -1.65714 0
M  V30 6788 C 644.549 1.9068 -0.383594 0
M  V30 6789 O 643.804 1.85174 0.633185 0
M  V30 6790 C 644.103 2.18923 -2.82502 0
M  V30 6791 C 643.769 1.61485 -4.20991 0
M  V30 6792 C 642.431 1.45545 -4.58661 0
M  V30 6793 C 644.783 1.19468 -5.07323 0
M  V30 6794 C 642.111 0.860937 -5.80349 0
M  V30 6795 C 644.463 0.614386 -6.29609 0
M  V30 6796 C 643.127 0.442056 -6.66035 0
M  V30 6797 H 642.397 0.425875 -0.606392 0
M  V30 6798 H 645.044 0.45199 -1.8609 0
M  V30 6799 H 643.349 2.96225 -2.56433 0
M  V30 6800 H 645.046 2.76628 -2.90307 0
M  V30 6801 H 641.636 1.74873 -3.91302 0
M  V30 6802 H 645.82 1.30596 -4.78809 0
M  V30 6803 H 641.076 0.715372 -6.072 0
M  V30 6804 H 645.25 0.280393 -6.95835 0
M  V30 6805 H 642.877 -0.0207218 -7.60197 0
M  V30 6806 N 644.452 1.42507 0.673017 0
M  V30 6807 C 645.362 1.4853 1.81593 0
M  V30 6808 C 646.378 0.373907 1.69935 0
M  V30 6809 O 647.554 0.625078 1.91454 0
M  V30 6810 C 644.619 1.387 3.17747 0
M  V30 6811 C 643.68 2.60346 3.41348 0
M  V30 6812 C 642.913 2.50975 4.71007 0
M  V30 6813 O 643.136 1.54659 5.49033 0
M  V30 6814 O 642.07 3.41138 4.95892 0
M  V30 6815 H 645.896 2.45001 1.79467 0
M  V30 6816 H 643.481 1.2429 0.82899 0
M  V30 6817 H 645.363 1.35586 3.98992 0
M  V30 6818 H 644.038 0.453555 3.20507 0
M  V30 6819 H 642.945 2.69034 2.59945 0
M  V30 6820 H 644.278 3.52595 3.43421 0
M  V30 6821 N 645.93 -0.909495 1.28709 0
M  V30 6822 C 646.86 -2.0291 1.15542 0
M  V30 6823 C 647.841 -1.7002 0.0521017 0
M  V30 6824 O 649.026 -1.92835 0.229849 0
M  V30 6825 C 646.156 -3.37458 0.820935 0
M  V30 6826 C 645.11 -3.84524 1.87949 0
M  V30 6827 C 644.436 -5.16086 1.39854 0
M  V30 6828 C 645.736 -4.05918 3.28676 0
M  V30 6829 H 647.43 -2.14183 2.09203 0
M  V30 6830 H 644.976 -1.02913 1.00722 0
M  V30 6831 H 646.929 -4.1528 0.715571 0
M  V30 6832 H 645.653 -3.26249 -0.151374 0
M  V30 6833 H 644.312 -3.08911 1.97408 0
M  V30 6834 H 643.96 -5.01284 0.41518 0
M  V30 6835 H 643.66 -5.48547 2.1064 0
M  V30 6836 H 645.184 -5.96459 1.30649 0
M  V30 6837 H 646.598 -4.74252 3.22115 0
M  V30 6838 H 644.995 -4.49717 3.97334 0
M  V30 6839 H 646.065 -3.10583 3.72379 0
M  V30 6840 N 647.408 -1.11026 -1.11852 0
M  V30 6841 C 648.654 -0.857729 -1.83768 0
M  V30 6842 C 648.987 0.615143 -1.842 0
M  V30 6843 O 648.262 1.45391 -1.29196 0
M  V30 6844 C 648.545 -1.41453 -3.31154 0
M  V30 6845 C 648.398 -2.95471 -3.39142 0
M  V30 6846 C 649.717 -1.0619 -4.27097 0
M  V30 6847 H 646.836 -0.313044 -0.667212 0
M  V30 6848 H 649.478 -1.37443 -1.31185 0
M  V30 6849 H 647.628 -0.975052 -3.76065 0
M  V30 6850 H 649.3 -3.4799 -3.02821 0
M  V30 6851 H 647.543 -3.31759 -2.79497 0
M  V30 6852 H 648.214 -3.29515 -4.42859 0
M  V30 6853 H 650.69 -1.44122 -3.90344 0
M  V30 6854 H 649.566 -1.47832 -5.28618 0
M  V30 6855 H 649.827 0.0278912 -4.42091 0
M  V30 6856 N 648.886 1.2938 -0.899927 0
M  V30 6857 C 650.134 1.95164 -0.524924 0
M  V30 6858 C 650.455 1.71292 0.931888 0
M  V30 6859 O 649.725 1.04481 1.65712 0
M  V30 6860 H 648.305 0.722133 -0.191135 0
M  V30 6861 H 650.967 1.57628 -1.14627 0
M  V30 6862 H 650.063 3.0397 -0.707711 0
M  V30 6863 N 650.364 0.662433 1.43002 0
M  V30 6864 C 651.775 0.258315 1.84904 0
M  V30 6865 C 652.126 -1.19703 1.55453 0
M  V30 6866 O 651.251 -1.91484 1.00811 0
M  V30 6867 C 651.846 0.462047 3.35635 0
M  V30 6868 C 650.405 0.112165 3.76233 0
M  V30 6869 C 649.552 0.760479 2.66668 0
M  V30 6870 H 652.503 0.865467 1.33024 0
M  V30 6871 H 652.524 -0.289646 3.79396 0
M  V30 6872 H 652.036 1.52135 3.57039 0
M  V30 6873 H 650.137 -0.944179 3.60439 0
M  V30 6874 H 650.25 0.544058 4.76001 0
M  V30 6875 H 648.614 0.192887 2.53969 0
M  V30 6876 H 649.397 1.82299 2.90898 0
M  V30 6877 N 651.842 -1.52309 0.404946 0
M  V30 6878 C 652.775 -2.23369 -0.467087 0
M  V30 6879 C 653.753 -1.24034 -1.0514 0
M  V30 6880 O 654.937 -1.53071 -1.10006 0
M  V30 6881 C 652.064 -2.95906 -1.64795 0
M  V30 6882 C 651.11 -4.09637 -1.18743 0
M  V30 6883 S 651.943 -5.35273 -0.156022 0
M  V30 6884 C 653.099 -6.11337 -1.34231 0
M  V30 6885 H 653.332 -2.96987 0.136294 0
M  V30 6886 H 650.865 -1.53236 0.189219 0
M  V30 6887 H 652.823 -3.38304 -2.3251 0
M  V30 6888 H 651.484 -2.21937 -2.22267 0
M  V30 6889 H 650.677 -4.59549 -2.06955 0
M  V30 6890 H 650.279 -3.69333 -0.588981 0
M  V30 6891 H 652.571 -6.38458 -2.26665 0
M  V30 6892 H 653.514 -7.02563 -0.883804 0
M  V30 6893 H 653.922 -5.42338 -1.56621 0
M  V30 6894 N 653.32 -0.135238 -1.57019 0
M  V30 6895 C 654.252 0.839675 -2.13265 0
M  V30 6896 C 655.265 1.21887 -1.07923 0
M  V30 6897 O 656.454 1.16499 -1.35241 0
M  V30 6898 C 653.554 2.13647 -2.63075 0
M  V30 6899 C 652.727 1.92646 -3.92691 0
M  V30 6900 C 651.786 3.06205 -4.27931 0
M  V30 6901 O 650.812 2.78409 -4.96465 0
M  V30 6902 N 652.014 4.33072 -3.86561 0
M  V30 6903 H 654.779 0.359026 -2.97542 0
M  V30 6904 H 652.34 0.0486979 -1.61827 0
M  V30 6905 H 654.332 2.88641 -2.8367 0
M  V30 6906 H 652.902 2.5301 -1.83588 0
M  V30 6907 H 652.122 1.01754 -3.80841 0
M  V30 6908 H 653.41 1.75939 -4.77413 0
M  V30 6909 H 652.808 4.58526 -3.31316 0
M  V30 6910 H 651.365 5.04885 -4.12231 0
M  V30 6911 N 654.798 1.5699 0.138552 0
M  V30 6912 C 655.761 1.97984 1.15478 0
M  V30 6913 C 656.761 0.867416 1.35398 0
M  V30 6914 O 657.951 1.13387 1.32246 0
M  V30 6915 C 655.083 2.3031 2.51337 0
M  V30 6916 H 656.276 2.88953 0.802896 0
M  V30 6917 H 653.829 1.51555 0.382189 0
M  V30 6918 H 654.564 1.42159 2.91481 0
M  V30 6919 H 654.349 3.11425 2.38237 0
M  V30 6920 H 655.839 2.62834 3.24512 0
M  V30 6921 N 656.276 -0.40816 1.52223 0
M  V30 6922 C 657.501 -1.18127 1.70472 0
M  V30 6923 C 657.926 -1.83491 0.41384 0
M  V30 6924 O 657.284 -1.70047 -0.628778 0
M  V30 6925 C 657.332 -2.21935 2.84213 0
M  V30 6926 O 656.436 -3.28099 2.4985 0
M  V30 6927 H 655.777 -0.344781 0.56747 0
M  V30 6928 H 658.307 -0.478328 1.9893 0
M  V30 6929 H 658.317 -2.66248 3.09153 0
M  V30 6930 H 656.992 -1.73744 3.7787 0
M  V30 6931 H 655.569 -2.89058 2.35584 0
M  V30 6932 N 657.755 -1.42862 -0.66545 0
M  V30 6933 C 658.687 -1.43026 -1.79098 0
M  V30 6934 C 659.7 -0.32803 -1.59461 0
M  V30 6935 O 660.889 -0.591709 -1.68407 0
M  V30 6936 C 657.989 -1.21566 -3.16346 0
M  V30 6937 C 657.162 -2.44399 -3.62751 0
M  V30 6938 C 656.221 -2.18344 -4.78761 0
M  V30 6939 O 655.247 -2.91611 -4.88827 0
M  V30 6940 N 656.449 -1.1924 -5.68122 0
M  V30 6941 H 659.214 -2.40045 -1.79439 0
M  V30 6942 H 656.775 -1.37861 -0.848872 0
M  V30 6943 H 658.767 -1.02037 -3.91625 0
M  V30 6944 H 657.337 -0.330368 -3.10849 0
M  V30 6945 H 656.557 -2.79433 -2.78048 0
M  V30 6946 H 657.845 -3.26173 -3.90498 0
M  V30 6947 H 657.243 -0.586603 -5.6265 0
M  V30 6948 H 655.8 -1.05698 -6.43173 0
M  V30 6949 N 659.233 0.902656 -1.29189 0
M  V30 6950 C 660.196 1.98797 -1.14071 0
M  V30 6951 C 661.196 1.60615 -0.0770549 0
M  V30 6952 O 662.386 1.71165 -0.323753 0
M  V30 6953 C 659.518 3.32688 -0.743739 0
M  V30 6954 H 660.711 2.13637 -2.10473 0
M  V30 6955 H 658.264 1.08678 -1.12334 0
M  V30 6956 H 658.999 3.23549 0.220554 0
M  V30 6957 H 658.784 3.61765 -1.51223 0
M  V30 6958 H 660.274 4.12337 -0.660935 0
M  V30 6959 N 660.711 1.11618 1.11262 0
M  V30 6960 C 661.96 0.860934 1.82403 0
M  V30 6961 C 662.273 -0.615303 1.8567 0
M  V30 6962 O 663.479 -0.986861 2.52929 0
M  V30 6963 C 661.935 1.49048 3.27586 0
M  V30 6964 C 661.543 3.00089 3.32642 0
M  V30 6965 C 663.287 1.31515 4.03614 0
M  V30 6966 C 661.194 3.56019 4.72234 0
M  V30 6967 H 660.124 0.318423 0.683464 0
M  V30 6968 H 662.775 1.34165 1.25188 0
M  V30 6969 H 661.157 0.937434 3.84744 0
M  V30 6970 H 662.331 3.61813 2.85356 0
M  V30 6971 H 660.646 3.16919 2.70096 0
M  V30 6972 H 663.243 1.70732 5.0671 0
M  V30 6973 H 663.586 0.257917 4.155 0
M  V30 6974 H 664.119 1.83694 3.52848 0
M  V30 6975 H 660.858 4.61463 4.65545 0
M  V30 6976 H 660.378 2.99066 5.19923 0
M  V30 6977 H 662.057 3.54568 5.41193 0
M  V30 6978 N 662.189 -1.289 0.906776 0
M  V30 6979 C 663.437 -1.94883 0.535266 0
M  V30 6980 C 663.758 -1.71784 -0.922791 0
M  V30 6981 O 663.028 -1.05359 -1.65156 0
M  V30 6982 H 661.608 -0.721109 0.194962 0
M  V30 6983 H 664.27 -1.57018 1.15461 0
M  V30 6984 H 663.366 -3.03591 0.723821 0
M  V30 6985 N 663.667 -0.670007 -1.42649 0
M  V30 6986 C 664.897 -0.198252 -2.05647 0
M  V30 6987 C 665.305 1.14786 -1.50402 0
M  V30 6988 O 664.648 1.72316 -0.636634 0
M  V30 6989 C 664.71 -0.0507132 -3.59464 0
M  V30 6990 C 664.374 -1.32478 -4.37377 0
M  V30 6991 C 665.371 -2.2572 -4.68344 0
M  V30 6992 C 663.056 -1.57104 -4.77099 0
M  V30 6993 C 665.05 -3.4187 -5.37963 0
M  V30 6994 C 662.737 -2.73543 -5.46459 0
M  V30 6995 C 663.735 -3.65751 -5.76815 0
M  V30 6996 O 663.423 -4.80154 -6.44753 0
M  V30 6997 H 663.155 -0.0950721 -0.669281 0
M  V30 6998 H 665.709 -0.915745 -1.83857 0
M  V30 6999 H 663.939 0.722314 -3.79894 0
M  V30 7000 H 665.628 0.380552 -4.04112 0
M  V30 7001 H 666.394 -2.07943 -4.38161 0
M  V30 7002 H 662.273 -0.862069 -4.52868 0
M  V30 7003 H 665.817 -4.13861 -5.61574 0
M  V30 7004 H 661.714 -2.91248 -5.7606 0
M  V30 7005 H 662.482 -4.79637 -6.63243 0
M  V30 7006 N 665.145 1.52092 -0.413018 0
M  V30 7007 C 666.075 2.30021 0.401567 0
M  V30 7008 C 667.056 1.34395 1.04269 0
M  V30 7009 O 668.241 1.63304 1.05097 0
M  V30 7010 C 665.371 3.12447 1.51638 0
M  V30 7011 C 664.325 4.16153 1.00005 0
M  V30 7012 C 663.651 4.86948 2.20875 0
M  V30 7013 C 664.951 5.22275 0.0513757 0
M  V30 7014 H 666.645 2.98365 -0.248704 0
M  V30 7015 H 664.191 1.4349 -0.121052 0
M  V30 7016 H 666.144 3.65733 2.09326 0
M  V30 7017 H 664.868 2.41879 2.19458 0
M  V30 7018 H 663.527 3.63882 0.445549 0
M  V30 7019 H 663.175 4.12905 2.8726 0
M  V30 7020 H 662.875 5.57057 1.86978 0
M  V30 7021 H 664.399 5.43048 2.79162 0
M  V30 7022 H 665.813 5.70778 0.537176 0
M  V30 7023 H 664.21 5.9977 -0.198977 0
M  V30 7024 H 665.28 4.76611 -0.892736 0
M  V30 7025 N 666.623 0.143563 1.56945 0
M  V30 7026 C 667.553 -0.7936 2.196 0
M  V30 7027 C 668.534 -1.25955 1.14321 0
M  V30 7028 O 669.719 -1.31773 1.42651 0
M  V30 7029 C 666.849 -2.03424 2.81489 0
M  V30 7030 C 665.803 -1.70519 3.92565 0
M  V30 7031 C 665.129 -3.01817 4.41373 0
M  V30 7032 C 666.429 -0.95449 5.13504 0
M  V30 7033 H 668.123 -0.271423 2.98167 0
M  V30 7034 H 665.669 -0.12911 1.4342 0
M  V30 7035 H 667.622 -2.69463 3.23987 0
M  V30 7036 H 666.346 -2.58008 2.00248 0
M  V30 7037 H 665.005 -1.06859 3.5068 0
M  V30 7038 H 664.653 -3.54386 3.56959 0
M  V30 7039 H 664.353 -2.80565 5.16292 0
M  V30 7040 H 665.877 -3.68934 4.86539 0
M  V30 7041 H 667.291 -1.5169 5.52868 0
M  V30 7042 H 665.688 -0.842035 5.94163 0
M  V30 7043 H 666.758 0.0544033 4.84869 0
M  V30 7044 N 668.101 -1.57061 -0.130224 0
M  V30 7045 C 669.349 -1.83893 -0.838313 0
M  V30 7046 C 669.67 -0.727046 -1.80939 0
M  V30 7047 O 668.94 0.249927 -1.94299 0
M  V30 7048 H 667.52 -0.67846 -0.312573 0
M  V30 7049 H 670.182 -1.94529 -0.120224 0
M  V30 7050 H 669.278 -2.79419 -1.39038 0
M  V30 7051 N 669.579 0.400081 -1.52437 0
M  V30 7052 C 670.512 1.50929 -1.7116 0
M  V30 7053 C 671.49 1.52679 -0.559275 0
M  V30 7054 O 672.674 1.71251 -0.787735 0
M  V30 7055 C 669.801 2.89433 -1.75915 0
M  V30 7056 C 668.847 3.05556 -2.97553 0
M  V30 7057 S 669.68 2.77919 -4.57735 0
M  V30 7058 C 670.836 4.18636 -4.6529 0
M  V30 7059 H 671.069 1.3482 -2.64973 0
M  V30 7060 H 668.602 0.592245 -1.4259 0
M  V30 7061 H 670.56 3.69253 -1.7934 0
M  V30 7062 H 669.221 3.02877 -0.832137 0
M  V30 7063 H 668.414 4.0691 -2.97388 0
M  V30 7064 H 668.016 2.33615 -2.92062 0
M  V30 7065 H 670.308 5.12406 -4.43223 0
M  V30 7066 H 671.251 4.23821 -5.67258 0
M  V30 7067 H 671.659 4.04029 -3.94234 0
M  V30 7068 N 671.057 1.43213 0.657864 0
M  V30 7069 C 671.99 1.42456 1.78273 0
M  V30 7070 C 672.968 0.286598 1.60054 0
M  V30 7071 O 674.152 0.479467 1.823 0
M  V30 7072 C 671.279 1.23169 3.15511 0
M  V30 7073 C 670.325 2.40181 3.52442 0
M  V30 7074 S 671.158 4.02729 3.52944 0
M  V30 7075 C 672.314 3.85816 4.92846 0
M  V30 7076 H 672.547 2.37642 1.78644 0
M  V30 7077 H 670.08 1.30188 0.830084 0
M  V30 7078 H 672.038 1.12728 3.94719 0
M  V30 7079 H 670.699 0.295398 3.12708 0
M  V30 7080 H 669.892 2.22478 4.52239 0
M  V30 7081 H 669.494 2.47224 2.80636 0
M  V30 7082 H 671.786 3.47853 5.81381 0
M  V30 7083 H 672.729 4.85348 5.15599 0
M  V30 7084 H 673.137 3.18361 4.66162 0
M  V30 7085 N 672.536 -0.895792 1.29666 0
M  V30 7086 C 673.499 -1.98189 1.15124 0
M  V30 7087 C 674.499 -1.60572 0.0855717 0
M  V30 7088 O 675.689 -1.70991 0.332826 0
M  V30 7089 C 672.821 -3.32289 0.761372 0
M  V30 7090 H 674.014 -2.12518 2.11603 0
M  V30 7091 H 671.567 -1.0808 1.12908 0
M  V30 7092 H 672.302 -3.23662 -0.203393 0
M  V30 7093 H 672.087 -3.60958 1.53139 0
M  V30 7094 H 673.577 -4.1198 0.682792 0
M  V30 7095 N 674.014 -1.12206 -1.10668 0
M  V30 7096 C 674.944 -0.810086 -2.18997 0
M  V30 7097 C 675.925 0.225065 -1.68604 0
M  V30 7098 O 677.11 0.086783 -1.94006 0
M  V30 7099 C 674.24 -0.261262 -3.46316 0
M  V30 7100 C 673.194 -1.2292 -4.09969 0
M  V30 7101 C 672.52 -0.540713 -5.31959 0
M  V30 7102 C 673.82 -2.58295 -4.53962 0
M  V30 7103 H 675.514 -1.7159 -2.45352 0
M  V30 7104 H 673.06 -0.82646 -1.17922 0
M  V30 7105 H 675.013 -0.0307522 -4.21389 0
M  V30 7106 H 673.737 0.679879 -3.19445 0
M  V30 7107 H 672.396 -1.44548 -3.369 0
M  V30 7108 H 672.044 0.405492 -5.01363 0
M  V30 7109 H 671.744 -1.18637 -5.75499 0
M  V30 7110 H 673.268 -0.319184 -6.09765 0
M  V30 7111 H 674.682 -2.40709 -5.20319 0
M  V30 7112 H 673.079 -3.18916 -5.08343 0
M  V30 7113 H 674.149 -3.16918 -3.67002 0
M  V30 7114 N 675.492 1.28418 -0.913599 0
M  V30 7115 C 676.903 1.77024 -0.593237 0
M  V30 7116 C 677.254 1.74779 0.891441 0
M  V30 7117 O 676.379 1.34237 1.69733 0
M  V30 7118 C 676.974 3.21456 -1.07011 0
M  V30 7119 C 675.533 3.67786 -0.800664 0
M  V30 7120 C 674.68 2.48185 -1.23691 0
M  V30 7121 H 677.631 1.14883 -1.09487 0
M  V30 7122 H 677.652 3.78269 -0.411481 0
M  V30 7123 H 677.164 3.23058 -2.1507 0
M  V30 7124 H 675.265 3.71644 0.266725 0
M  V30 7125 H 675.378 4.57934 -1.4083 0
M  V30 7126 H 673.742 2.46116 -0.655655 0
M  V30 7127 H 674.525 2.52506 -2.32585 0
M  V30 7128 N 676.97 0.677563 1.42291 0
M  V30 7129 C 677.903 -0.0492638 2.28147 0
M  V30 7130 C 678.881 -0.805936 1.41221 0
M  V30 7131 O 680.065 -0.80049 1.70659 0
M  V30 7132 C 677.192 -1.07697 3.21122 0
M  V30 7133 C 676.238 -0.41556 4.24471 0
M  V30 7134 S 677.071 0.828876 5.29046 0
M  V30 7135 C 678.227 -0.197687 6.25588 0
M  V30 7136 H 678.46 0.678965 2.89443 0
M  V30 7137 H 675.993 0.467201 1.47162 0
M  V30 7138 H 677.951 -1.66482 3.75225 0
M  V30 7139 H 676.612 -1.77766 2.58956 0
M  V30 7140 H 675.805 -1.19112 4.89723 0
M  V30 7141 H 675.407 0.0987632 3.7387 0
M  V30 7142 H 677.699 -1.05656 6.69211 0
M  V30 7143 H 678.642 0.420437 7.06851 0
M  V30 7144 H 679.05 -0.544401 5.61869 0
M  V30 7145 N 678.448 -1.51871 0.421078 0
M  V30 7146 C 679.697 -2.01125 -0.152206 0
M  V30 7147 C 680.01 -1.3106 -1.45199 0
M  V30 7148 O 681.216 -1.71195 -2.10724 0
M  V30 7149 C 679.672 -3.58458 -0.3218 0
M  V30 7150 C 679.28 -4.37448 0.96659 0
M  V30 7151 C 681.024 -4.15908 -0.84973 0
M  V30 7152 C 678.931 -5.86451 0.763529 0
M  V30 7153 H 677.861 -0.751556 -0.0606565 0
M  V30 7154 H 680.512 -1.75115 0.548354 0
M  V30 7155 H 678.894 -3.80847 -1.08498 0
M  V30 7156 H 680.068 -4.26814 1.73684 0
M  V30 7157 H 678.383 -3.91373 1.42183 0
M  V30 7158 H 680.98 -5.24922 -1.01788 0
M  V30 7159 H 681.323 -3.74031 -1.82774 0
M  V30 7160 H 681.856 -3.97535 -0.145297 0
M  V30 7161 H 678.595 -6.3271 1.71344 0
M  V30 7162 H 678.115 -5.99791 0.0327889 0
M  V30 7163 H 679.794 -6.45697 0.410354 0
M  V30 7164 N 679.926 -0.151884 -1.56866 0
M  V30 7165 C 680.889 0.771861 -2.15812 0
M  V30 7166 C 681.889 1.17181 -1.10115 0
M  V30 7167 O 683.079 1.09194 -1.35729 0
M  V30 7168 C 680.211 2.04806 -2.7252 0
M  V30 7169 H 681.404 0.259021 -2.98779 0
M  V30 7170 H 678.957 0.097588 -1.55995 0
M  V30 7171 H 679.692 2.60445 -1.93233 0
M  V30 7172 H 679.477 1.77044 -3.49854 0
M  V30 7173 H 680.967 2.70771 -3.1792 0
M  V30 7174 N 681.404 1.57128 0.121893 0
M  V30 7175 C 682.652 1.84335 0.828548 0
M  V30 7176 C 682.973 0.736632 1.80551 0
M  V30 7177 O 682.243 -0.23962 1.94429 0
M  V30 7178 H 680.823 0.680108 0.30897 0
M  V30 7179 H 683.485 1.9459 0.109906 0
M  V30 7180 H 682.581 2.80152 1.37554 0
M  V30 7181 N 682.882 -0.391992 1.52647 0
M  V30 7182 C 684.293 -0.970064 1.5952 0
M  V30 7183 C 684.644 -1.91059 0.446207 0
M  V30 7184 O 683.769 -2.12062 -0.431125 0
M  V30 7185 C 684.364 -1.76614 2.89125 0
M  V30 7186 C 682.923 -2.29396 2.9842 0
M  V30 7187 C 682.07 -1.09864 2.54608 0
M  V30 7188 H 685.021 -0.171638 1.57769 0
M  V30 7189 H 685.042 -2.62511 2.75442 0
M  V30 7190 H 684.554 -1.08135 3.72731 0
M  V30 7191 H 682.655 -3.01196 2.19344 0
M  V30 7192 H 682.768 -2.59088 4.03002 0
M  V30 7193 H 681.132 -1.45777 2.08857 0
M  V30 7194 H 681.915 -0.429249 3.40606 0
M  V30 7195 N 684.36 -1.4356 -0.65026 0
M  V30 7196 C 685.771 -1.40324 -1.2315 0
M  V30 7197 C 686.122 -0.108812 -1.95898 0
M  V30 7198 O 685.247 0.79163 -2.01401 0
M  V30 7199 C 685.842 -2.54195 -2.23987 0
M  V30 7200 C 684.401 -2.54215 -2.77582 0
M  V30 7201 C 683.548 -2.31752 -1.5227 0
M  V30 7202 H 686.499 -1.52418 -0.442095 0
M  V30 7203 H 686.52 -2.25854 -3.0622 0
M  V30 7204 H 686.032 -3.48392 -1.71011 0
M  V30 7205 H 684.133 -1.63907 -3.34612 0
M  V30 7206 H 684.246 -3.52081 -3.24925 0
M  V30 7207 H 682.61 -1.80476 -1.79723 0
M  V30 7208 H 683.393 -3.28037 -1.01225 0
M  V30 7209 N 685.838 0.888903 -1.30139 0
M  V30 7210 C 687.087 1.63507 -1.18103 0
M  V30 7211 C 687.4 1.93808 0.264141 0
M  V30 7212 O 688.606 2.66744 0.505966 0
M  V30 7213 C 687.062 2.94673 -2.0663 0
M  V30 7214 C 686.67 2.71926 -3.56034 0
M  V30 7215 C 688.414 3.72626 -2.03346 0
M  V30 7216 C 686.321 3.98884 -4.3663 0
M  V30 7217 H 685.251 0.613426 -0.438435 0
M  V30 7218 H 687.902 0.984427 -1.54859 0
M  V30 7219 H 686.284 3.61009 -1.62754 0
M  V30 7220 H 687.458 2.14116 -4.08033 0
M  V30 7221 H 685.773 2.07353 -3.61101 0
M  V30 7222 H 688.37 4.66775 -2.60816 0
M  V30 7223 H 688.713 4.03712 -1.016 0
M  V30 7224 H 689.246 3.13147 -2.45324 0
M  V30 7225 H 685.985 3.72959 -5.39056 0
M  V30 7226 H 685.505 4.56214 -3.89396 0
M  V30 7227 H 687.184 4.66938 -4.47859 0
M  V30 7228 N 687.317 1.12792 1.10072 0
M  V30 7229 C 688.28 0.802264 2.14701 0
M  V30 7230 C 689.28 -0.18515 1.59731 0
M  V30 7231 O 690.47 0.041109 1.74151 0
M  V30 7232 C 687.602 0.19285 3.40354 0
M  V30 7233 H 688.795 1.72932 2.45019 0
M  V30 7234 H 686.348 0.931662 1.25498 0
M  V30 7235 H 687.083 -0.743748 3.15656 0
M  V30 7236 H 686.868 0.903827 3.81541 0
M  V30 7237 H 688.358 -0.0183704 4.17596 0
M  V30 7238 N 688.795 -1.27931 0.920396 0
M  V30 7239 C 690.043 -1.94304 0.555906 0
M  V30 7240 C 690.364 -1.72753 -0.904519 0
M  V30 7241 O 689.634 -1.07104 -1.64029 0
M  V30 7242 H 688.214 -0.719001 0.202599 0
M  V30 7243 H 690.876 -1.55785 1.1712 0
M  V30 7244 H 689.972 -3.02806 0.755981 0
M  V30 7245 N 690.273 -0.685099 -1.4193 0
M  V30 7246 C 691.203 -0.0273506 -2.33484 0
M  V30 7247 C 692.184 0.778366 -1.51246 0
M  V30 7248 O 693.369 0.733449 -1.79817 0
M  V30 7249 C 690.499 0.917272 -3.34968 0
M  V30 7250 C 689.453 0.21941 -4.27437 0
M  V30 7251 C 688.779 1.27768 -5.1921 0
M  V30 7252 C 690.079 -0.907894 -5.14349 0
M  V30 7253 H 691.773 -0.791994 -2.88735 0
M  V30 7254 H 689.319 -0.382308 -1.38832 0
M  V30 7255 H 691.272 1.38657 -3.97935 0
M  V30 7256 H 689.996 1.71346 -2.78043 0
M  V30 7257 H 688.655 -0.229757 -3.65879 0
M  V30 7258 H 688.303 2.06612 -4.58607 0
M  V30 7259 H 688.003 0.815803 -5.81909 0
M  V30 7260 H 689.527 1.7477 -5.85054 0
M  V30 7261 H 690.941 -0.519348 -5.70943 0
M  V30 7262 H 689.338 -1.2962 -5.85934 0
M  V30 7263 H 690.408 -1.75218 -4.52136 0
M  V30 7264 N 691.751 1.51645 -0.429126 0
M  V30 7265 C 692.681 2.30434 0.377148 0
M  V30 7266 C 693.662 1.35493 1.02838 0
M  V30 7267 O 694.847 1.6441 1.03359 0
M  V30 7268 C 691.977 3.14038 1.48315 0
M  V30 7269 C 690.931 4.1719 0.955855 0
M  V30 7270 C 690.257 4.89263 2.15698 0
M  V30 7271 C 691.557 5.223 -0.00402136 0
M  V30 7272 H 693.251 2.98085 -0.280336 0
M  V30 7273 H 690.797 1.43354 -0.136265 0
M  V30 7274 H 692.75 3.67933 2.05435 0
M  V30 7275 H 691.474 2.44193 2.16881 0
M  V30 7276 H 690.133 3.64335 0.406929 0
M  V30 7277 H 689.781 4.15929 2.82864 0
M  V30 7278 H 689.481 5.59009 1.81059 0
M  V30 7279 H 691.005 5.45978 2.73387 0
M  V30 7280 H 692.419 5.71315 0.476607 0
M  V30 7281 H 690.816 5.99525 -0.26258 0
M  V30 7282 H 691.886 4.75638 -0.943236 0
M  V30 7283 N 693.229 0.160201 1.56784 0
M  V30 7284 C 694.645 -0.196089 1.58391 0
M  V30 7285 C 694.845 -1.63689 1.17508 0
M  V30 7286 O 693.901 -2.36613 0.881506 0
M  V30 7287 C 695.214 0.0746449 3.00607 0
M  V30 7288 C 696.762 0.0119762 3.12998 0
M  V30 7289 C 697.237 0.255551 4.57286 0
M  V30 7290 N 698.728 0.202938 4.62755 0
M  V30 7291 C 699.463 0.365731 5.72232 0
M  V30 7292 N 698.959 0.586972 6.90309 0
M  V30 7293 N 700.752 0.302411 5.61286 0
M  V30 7294 H 692.903 1.1008 1.81648 0
M  V30 7295 H 695.166 0.436779 0.841384 0
M  V30 7296 H 694.872 1.07231 3.34954 0
M  V30 7297 H 694.746 -0.638802 3.71751 0
M  V30 7298 H 697.133 -0.976254 2.78484 0
M  V30 7299 H 697.214 0.75796 2.44313 0
M  V30 7300 H 696.858 1.24094 4.92507 0
M  V30 7301 H 696.788 -0.510912 5.24116 0
M  V30 7302 H 699.279 0.0371328 3.77882 0
M  V30 7303 H 699.592 0.700941 7.69615 0
M  V30 7304 H 697.937 0.623453 6.92198 0
M  V30 7305 H 701.128 0.130238 4.67919 0
M  V30 7306 H 701.301 0.432712 6.46554 0
M  V30 7307 N 694.707 -1.5719 -0.113559 0
M  V30 7308 C 695.655 -2.01725 -1.158 0
M  V30 7309 C 696.649 -0.915105 -1.42556 0
M  V30 7310 O 697.855 -1.10031 -1.42454 0
M  V30 7311 H 694.23 -0.64262 -0.390569 0
M  V30 7312 H 696.201 -2.88666 -0.755926 0
M  V30 7313 C 694.95 -2.44203 -2.47507 0
M  V30 7314 H 694.273 -3.28582 -2.27758 0
M  V30 7315 H 695.713 -2.79158 -3.19135 0
M  V30 7316 C 694.172 -1.30785 -3.10478 0
M  V30 7317 O 694.702 -0.626807 -3.9678 0
M  V30 7318 N 692.908 -1.06352 -2.7044 0
M  V30 7319 H 692.455 -1.61913 -2.00355 0
M  V30 7320 H 692.413 -0.306614 -3.12901 0
M  V30 7321 N 696.185 0.383891 -1.52853 0
M  V30 7322 C 697.425 1.13731 -1.69837 0
M  V30 7323 C 697.789 1.87086 -0.431611 0
M  V30 7324 O 698.99 2.64518 -0.477886 0
M  V30 7325 C 697.261 2.08551 -2.90243 0
M  V30 7326 S 698.82 2.9166 -3.27841 0
M  V30 7327 H 695.638 0.384911 -0.5978 0
M  V30 7328 H 698.24 0.42103 -1.90913 0
M  V30 7329 H 696.944 1.53392 -3.80656 0
M  V30 7330 H 696.475 2.8468 -2.71516 0
M  V30 7331 H 698.49 4.10723 -2.78426 0
M  V30 7332 N 697.663 1.43903 0.642637 0
M  V30 7333 C 698.91 1.46079 1.40239 0
M  V30 7334 C 699.238 0.0890335 1.94296 0
M  V30 7335 O 698.493 -0.907533 1.73385 0
M  V30 7336 C 698.792 2.45907 2.59354 0
M  V30 7337 C 698.458 3.91522 2.23654 0
M  V30 7338 C 697.12 4.31179 2.1363 0
M  V30 7339 C 699.472 4.83242 1.95261 0
M  V30 7340 C 696.8 5.60495 1.73384 0
M  V30 7341 C 699.152 6.12933 1.56511 0
M  V30 7342 C 697.816 6.51556 1.4502 0
M  V30 7343 H 697.086 0.534542 0.513172 0
M  V30 7344 H 699.733 1.77047 0.72984 0
M  V30 7345 H 698.038 2.08381 3.3179 0
M  V30 7346 H 699.735 2.44842 3.17574 0
M  V30 7347 H 696.325 3.60142 2.32369 0
M  V30 7348 H 700.509 4.53367 2.0192 0
M  V30 7349 H 695.765 5.89249 1.63082 0
M  V30 7350 H 699.939 6.83469 1.33576 0
M  V30 7351 H 697.566 7.51663 1.13606 0
M  V30 7352 N 699.141 -0.881989 1.30609 0
M  V30 7353 C 700.389 -1.63082 1.19368 0
M  V30 7354 C 700.71 -1.93376 -0.251147 0
M  V30 7355 O 699.98 -1.5723 -1.16857 0
M  V30 7356 H 698.56 -0.604542 0.438791 0
M  V30 7357 H 701.222 -1.05658 1.63776 0
M  V30 7358 H 700.318 -2.57966 1.7567 0
M  V30 7359 N 700.619 -1.13374 -1.09472 0
M  V30 7360 C 701.896 -0.806329 -1.78207 0
M  V30 7361 C 702.276 0.702191 -1.99079 0
M  V30 7362 O 701.624 1.63931 -1.59182 0
M  V30 7363 C 701.834 -1.59271 -3.10538 0
M  V30 7364 C 703.182 -1.78509 -3.85253 0
M  V30 7365 O 704.206 -1.55866 -3.20288 0
M  V30 7366 O 703.065 -2.16287 -5.01879 0
M  V30 7367 H 700.159 -0.29435 -0.772843 0
M  V30 7368 H 702.705 -1.23833 -1.16033 0
M  V30 7369 H 701.477 -2.61792 -2.90828 0
M  V30 7370 H 701.1 -1.15562 -3.80436 0
M  V30 7371 N 702.098 1.27442 -0.927168 0
M  V30 7372 C 703.328 1.9821 -0.582775 0
M  V30 7373 C 703.736 1.69361 0.843406 0
M  V30 7374 O 703.079 0.950381 1.57205 0
M  V30 7375 C 703.141 3.52048 -0.728165 0
M  V30 7376 C 702.805 4.04518 -2.12637 0
M  V30 7377 C 703.802 4.17332 -3.10048 0
M  V30 7378 C 701.487 4.38879 -2.44317 0
M  V30 7379 C 703.481 4.6378 -4.37249 0
M  V30 7380 C 701.168 4.85018 -3.71753 0
M  V30 7381 C 702.166 4.97428 -4.68033 0
M  V30 7382 O 701.854 5.42556 -5.93202 0
M  V30 7383 H 701.586 0.639314 -0.219667 0
M  V30 7384 H 704.14 1.63272 -1.24626 0
M  V30 7385 H 702.37 3.86699 -0.00758143 0
M  V30 7386 H 704.059 4.04033 -0.388906 0
M  V30 7387 H 704.825 3.91046 -2.86894 0
M  V30 7388 H 700.704 4.28462 -1.70121 0
M  V30 7389 H 704.248 4.73382 -5.12402 0
M  V30 7390 H 700.145 5.10746 -3.94726 0
M  V30 7391 H 700.913 5.60811 -5.96182 0
M  V30 7392 N 703.576 0.692616 1.41565 0
M  V30 7393 C 704.526 0.00231847 2.28 0
M  V30 7394 C 705.51 -0.755793 1.42044 0
M  V30 7395 O 706.702 -0.631772 1.65341 0
M  V30 7396 C 703.831 -0.935468 3.30309 0
M  V30 7397 C 702.917 -0.173761 4.23744 0
M  V30 7398 N 703.308 0.830872 4.98929 0
M  V30 7399 C 701.606 -0.409666 4.44115 0
M  V30 7400 C 702.307 1.28656 5.67294 0
M  V30 7401 N 701.283 0.613053 5.40132 0
M  V30 7402 H 705.085 0.772635 2.83562 0
M  V30 7403 H 702.599 0.523198 1.53741 0
M  V30 7404 H 704.596 -1.44513 3.91052 0
M  V30 7405 H 703.256 -1.70542 2.76307 0
M  V30 7406 H 704.267 1.21101 5.03542 0
M  V30 7407 H 700.944 -1.15773 4.01127 0
M  V30 7408 H 702.334 2.12006 6.37576 0
M  V30 7409 N 705.054 -1.51416 0.437162 0
M  V30 7410 C 706.3 -2.02386 -0.129555 0
M  V30 7411 C 706.633 -1.32071 -1.42376 0
M  V30 7412 O 705.908 -0.43559 -1.8956 0
M  V30 7413 C 706.191 -3.5841 -0.348487 0
M  V30 7414 C 706.044 -4.39341 0.964352 0
M  V30 7415 C 707.363 -4.25654 -1.11834 0
M  V30 7416 H 704.482 -0.735587 -0.0456109 0
M  V30 7417 H 707.124 -1.81055 0.576124 0
M  V30 7418 H 705.274 -3.76716 -0.949592 0
M  V30 7419 H 706.946 -4.32685 1.59942 0
M  V30 7420 H 705.189 -4.04432 1.56898 0
M  V30 7421 H 705.86 -5.4667 0.765212 0
M  V30 7422 H 708.336 -4.11617 -0.609165 0
M  V30 7423 H 707.212 -5.34704 -1.24029 0
M  V30 7424 H 707.473 -3.86502 -2.14636 0
M  V30 7425 N 706.532 -0.168513 -1.56696 0
M  V30 7426 C 707.495 0.748928 -2.16619 0
M  V30 7427 C 708.495 1.16007 -1.11351 0
M  V30 7428 O 709.685 1.07748 -1.3688 0
M  V30 7429 C 706.817 2.01904 -2.74677 0
M  V30 7430 H 708.01 0.227317 -2.99037 0
M  V30 7431 H 705.563 0.0810372 -1.5609 0
M  V30 7432 H 706.298 2.58381 -1.95985 0
M  V30 7433 H 706.083 1.73323 -3.51712 0
M  V30 7434 H 707.573 2.67383 -3.20774 0
M  V30 7435 N 708.01 1.57248 0.105221 0
M  V30 7436 C 709.257 1.8557 0.810552 0
M  V30 7437 C 709.585 0.755595 1.79223 0
M  V30 7438 O 708.84 -0.251788 1.94073 0
M  V30 7439 C 709.139 3.20437 1.58287 0
M  V30 7440 C 708.805 4.44716 0.744235 0
M  V30 7441 C 707.467 4.78458 0.513013 0
M  V30 7442 C 709.819 5.20953 0.160578 0
M  V30 7443 C 707.147 5.8587 -0.311894 0
M  V30 7444 C 709.499 6.29235 -0.651596 0
M  V30 7445 C 708.163 6.615 -0.893005 0
M  V30 7446 H 707.433 0.67905 0.296602 0
M  V30 7447 H 710.08 1.91363 0.0723968 0
M  V30 7448 H 708.385 3.10283 2.39232 0
M  V30 7449 H 710.082 3.39576 2.13282 0
M  V30 7450 H 706.672 4.18287 0.934555 0
M  V30 7451 H 710.856 4.95226 0.3264 0
M  V30 7452 H 706.112 6.09286 -0.508012 0
M  V30 7453 H 710.286 6.87484 -1.11077 0
M  V30 7454 H 707.913 7.44562 -1.53401 0
M  V30 7455 N 709.488 -0.375779 1.53054 0
M  V30 7456 C 710.718 -1.1387 1.72386 0
M  V30 7457 C 711.126 -1.8382 0.447966 0
M  V30 7458 O 710.469 -1.74027 -0.588244 0
M  V30 7459 C 710.531 -2.22047 2.82728 0
M  V30 7460 C 710.195 -1.71951 4.23417 0
M  V30 7461 C 711.192 -1.18909 5.06119 0
M  V30 7462 C 708.877 -1.77773 4.69789 0
M  V30 7463 C 710.871 -0.723529 6.3328 0
M  V30 7464 C 708.558 -1.30829 5.96931 0
M  V30 7465 C 709.556 -0.782077 6.78508 0
M  V30 7466 O 709.244 -0.319529 8.03265 0
M  V30 7467 H 708.976 -0.346835 0.580242 0
M  V30 7468 H 711.53 -0.443748 2.00549 0
M  V30 7469 H 709.76 -2.95006 2.50017 0
M  V30 7470 H 711.449 -2.83654 2.90336 0
M  V30 7471 H 712.215 -1.13758 4.7147 0
M  V30 7472 H 708.094 -2.17673 4.06373 0
M  V30 7473 H 711.638 -0.312126 6.96901 0
M  V30 7474 H 707.535 -1.3567 6.31081 0
M  V30 7475 H 708.303 -0.439796 8.17318 0
M  V30 7476 N 710.966 -1.44241 -0.634997 0
M  V30 7477 C 712.213 -1.46821 -1.39463 0
M  V30 7478 C 712.541 -0.0993362 -1.94246 0
M  V30 7479 O 711.796 0.898325 -1.73864 0
M  V30 7480 C 712.095 -2.47279 -2.58046 0
M  V30 7481 C 711.761 -3.92703 -2.21574 0
M  V30 7482 C 710.423 -4.32306 -2.1134 0
M  V30 7483 C 712.775 -4.84271 -1.92695 0
M  V30 7484 C 710.103 -5.61407 -1.70409 0
M  V30 7485 C 712.455 -6.13755 -1.53258 0
M  V30 7486 C 711.119 -6.52316 -1.41562 0
M  V30 7487 H 710.389 -0.537256 -0.51033 0
M  V30 7488 H 713.036 -1.77431 -0.720441 0
M  V30 7489 H 711.341 -2.10138 -3.3068 0
M  V30 7490 H 713.038 -2.46523 -3.16271 0
M  V30 7491 H 709.628 -3.61369 -2.30456 0
M  V30 7492 H 713.812 -4.54432 -1.99513 0
M  V30 7493 H 709.068 -5.90105 -1.59955 0
M  V30 7494 H 713.242 -6.84168 -1.29949 0
M  V30 7495 H 710.869 -7.52255 -1.09619 0
M  V30 7496 N 712.444 0.87505 -1.31075 0
M  V30 7497 C 713.407 1.96333 -1.18263 0
M  V30 7498 C 714.407 1.60416 -0.111106 0
M  V30 7499 O 715.597 1.7044 -0.359987 0
M  V30 7500 C 712.729 3.31036 -0.81414 0
M  V30 7501 H 713.922 2.09125 -2.14958 0
M  V30 7502 H 711.475 1.06271 -1.14614 0
M  V30 7503 H 712.21 3.23944 0.151875 0
M  V30 7504 H 711.995 3.58476 -1.58862 0
M  V30 7505 H 713.485 4.10842 -0.748249 0
M  V30 7506 N 713.922 1.13953 1.08869 0
M  V30 7507 C 715.17 0.903023 1.80803 0
M  V30 7508 C 715.491 -0.572151 1.86417 0
M  V30 7509 O 714.761 -1.41589 1.35386 0
M  V30 7510 H 713.341 0.331099 0.669614 0
M  V30 7511 H 716.003 1.43719 1.31647 0
M  V30 7512 H 715.099 1.29881 2.83791 0
M  V30 7513 N 715.4 -1.26948 0.933913 0
M  V30 7514 C 716.646 -1.94374 0.57848 0
M  V30 7515 C 716.979 -1.73166 -0.879048 0
M  V30 7516 O 716.254 -1.06438 -1.62792 0
M  V30 7517 C 716.537 -3.4834 0.912739 0
M  V30 7518 C 716.39 -3.78866 2.42448 0
M  V30 7519 C 717.709 -4.38062 0.423003 0
M  V30 7520 H 714.828 -0.705959 0.211639 0
M  V30 7521 H 717.47 -1.49951 1.16682 0
M  V30 7522 H 715.62 -3.86309 0.412058 0
M  V30 7523 H 717.292 -3.50654 2.99733 0
M  V30 7524 H 715.535 -3.25198 2.87104 0
M  V30 7525 H 716.206 -4.86458 2.60887 0
M  V30 7526 H 718.682 -4.0728 0.852191 0
M  V30 7527 H 717.558 -5.44599 0.685776 0
M  V30 7528 H 717.819 -4.36886 -0.676994 0
M  V30 7529 N 716.879 -0.700114 -1.41195 0
M  V30 7530 C 718.29 -0.307249 -1.84154 0
M  V30 7531 C 718.641 1.15539 -1.58572 0
M  V30 7532 O 717.766 1.88744 -1.05852 0
M  V30 7533 C 718.361 -0.550872 -3.34292 0
M  V30 7534 C 716.92 -0.211877 -3.75803 0
M  V30 7535 C 716.067 -0.830915 -2.64558 0
M  V30 7536 H 719.018 -0.900431 -1.30683 0
M  V30 7537 H 719.039 0.188954 -3.80031 0
M  V30 7538 H 718.551 -1.61548 -3.5288 0
M  V30 7539 H 716.652 0.848283 -3.62815 0
M  V30 7540 H 716.765 -0.67007 -4.74391 0
M  V30 7541 H 715.129 -0.260155 -2.53368 0
M  V30 7542 H 715.912 -1.89948 -2.85963 0
M  V30 7543 N 718.357 1.51182 -0.445186 0
M  V30 7544 C 719.768 1.86693 0.0160999 0
M  V30 7545 C 720.119 1.36183 1.4124 0
M  V30 7546 O 719.244 0.715895 2.04215 0
M  V30 7547 C 719.839 3.38781 0.0359918 0
M  V30 7548 C 718.398 3.73799 0.441715 0
M  V30 7549 C 717.545 2.74947 -0.360511 0
M  V30 7550 H 720.496 1.44294 -0.660674 0
M  V30 7551 H 720.517 3.71026 0.843813 0
M  V30 7552 H 720.029 3.75513 -0.980378 0
M  V30 7553 H 718.13 3.42659 1.4634 0
M  V30 7554 H 718.243 4.78829 0.16106 0
M  V30 7555 H 716.607 2.54047 0.182269 0
M  V30 7556 H 717.39 3.14521 -1.3759 0
M  V30 7557 N 719.835 0.176821 1.56605 0
M  V30 7558 C 721.084 -0.466833 1.96223 0
M  V30 7559 C 721.397 -1.64015 1.06576 0
M  V30 7560 O 722.603 -2.3504 1.35898 0
M  V30 7561 C 721.059 -0.881921 3.48927 0
M  V30 7562 C 720.667 0.266102 4.47209 0
M  V30 7563 C 722.411 -1.49368 3.97353 0
M  V30 7564 C 720.318 -0.168923 5.91159 0
M  V30 7565 H 719.248 -0.178178 0.732645 0
M  V30 7566 H 721.899 0.265929 1.81563 0
M  V30 7567 H 720.281 -1.67082 3.59026 0
M  V30 7568 H 721.455 1.04349 4.4883 0
M  V30 7569 H 719.77 0.788178 4.08872 0
M  V30 7570 H 722.367 -1.8313 5.02362 0
M  V30 7571 H 722.71 -2.3936 3.40606 0
M  V30 7572 H 723.243 -0.769114 3.90294 0
M  V30 7573 H 719.982 0.696351 6.51791 0
M  V30 7574 H 719.502 -0.911552 5.92833 0
M  V30 7575 H 721.181 -0.610938 6.44109 0
M  V30 7576 N 721.313 -1.57302 -0.09688 0
M  V30 7577 C 722.562 -1.85183 -0.799388 0
M  V30 7578 C 722.875 -0.765818 -1.79985 0
M  V30 7579 O 724.081 -0.931696 -2.55013 0
M  V30 7580 C 722.537 -3.28399 -1.47249 0
M  V30 7581 C 722.145 -4.45066 -0.511888 0
M  V30 7582 C 723.889 -3.65506 -2.15883 0
M  V30 7583 C 721.796 -5.79315 -1.18948 0
M  V30 7584 H 720.726 -0.690752 -0.302287 0
M  V30 7585 H 723.377 -1.83425 -0.0523104 0
M  V30 7586 H 721.759 -3.24692 -2.26697 0
M  V30 7587 H 722.933 -4.60116 0.250962 0
M  V30 7588 H 721.248 -4.16343 0.0686576 0
M  V30 7589 H 723.845 -4.63087 -2.67309 0
M  V30 7590 H 724.188 -2.94041 -2.94696 0
M  V30 7591 H 724.721 -3.71094 -1.43298 0
M  V30 7592 H 721.46 -6.54007 -0.442198 0
M  V30 7593 H 720.98 -5.68111 -1.9238 0
M  V30 7594 H 722.659 -6.23816 -1.71646 0
M  V30 7595 N 722.791 0.367657 -1.53252 0
M  V30 7596 C 724.039 1.10832 -1.68999 0
M  V30 7597 C 724.36 1.89894 -0.443306 0
M  V30 7598 O 723.63 1.88235 0.54262 0
M  V30 7599 H 722.21 0.412153 -0.623008 0
M  V30 7600 H 724.872 0.414775 -1.90435 0
M  V30 7601 H 723.968 1.7993 -2.55013 0
M  V30 7602 N 724.269 1.44576 0.627338 0
M  V30 7603 C 725.232 1.51372 1.72102 0
M  V30 7604 C 726.232 0.395329 1.55865 0
M  V30 7605 O 727.422 0.658094 1.61291 0
M  V30 7606 C 724.554 1.39129 3.11217 0
M  V30 7607 H 725.747 2.48798 1.6745 0
M  V30 7608 H 723.3 1.31724 0.841336 0
M  V30 7609 H 724.035 0.428114 3.21462 0
M  V30 7610 H 723.82 2.20229 3.24409 0
M  V30 7611 H 725.31 1.46874 3.90919 0
M  V30 7612 N 725.747 -0.868086 1.31537 0
M  V30 7613 C 726.993 -1.62367 1.2151 0
M  V30 7614 C 727.326 -1.92883 -0.225819 0
M  V30 7615 O 726.601 -1.56176 -1.15927 0
M  V30 7616 C 726.884 -2.95268 2.06129 0
M  V30 7617 C 726.737 -2.71619 3.58529 0
M  V30 7618 C 728.056 -3.96391 1.91212 0
M  V30 7619 H 725.175 -0.589178 0.442762 0
M  V30 7620 H 727.817 -1.00336 1.61347 0
M  V30 7621 H 725.967 -3.4821 1.72284 0
M  V30 7622 H 727.639 -2.25334 4.0252 0
M  V30 7623 H 725.882 -2.05817 3.81866 0
M  V30 7624 H 726.553 -3.66192 4.13047 0
M  V30 7625 H 729.029 -3.52663 2.20834 0
M  V30 7626 H 727.905 -4.87263 2.52718 0
M  V30 7627 H 728.166 -4.33335 0.875953 0
M  V30 7628 N 727.225 -1.14528 -1.08264 0
M  V30 7629 C 728.474 -0.908992 -1.80056 0
M  V30 7630 C 728.787 0.565859 -1.87236 0
M  V30 7631 O 729.993 0.919454 -2.55457 0
M  V30 7632 C 728.449 -1.57681 -3.23519 0
M  V30 7633 C 728.057 -3.08803 -3.24569 0
M  V30 7634 C 729.801 -1.4217 -3.99985 0
M  V30 7635 C 727.708 -3.68414 -4.62629 0
M  V30 7636 H 726.638 -0.336432 -0.674781 0
M  V30 7637 H 729.289 -1.37437 -1.21587 0
M  V30 7638 H 727.671 -1.03911 -3.82124 0
M  V30 7639 H 728.845 -3.69252 -2.75663 0
M  V30 7640 H 727.16 -3.23968 -2.61598 0
M  V30 7641 H 729.757 -1.84106 -5.02005 0
M  V30 7642 H 730.1 -0.367989 -4.1467 0
M  V30 7643 H 730.633 -1.92984 -3.47853 0
M  V30 7644 H 727.372 -4.73644 -4.53147 0
M  V30 7645 H 726.892 -3.12746 -5.11811 0
M  V30 7646 H 728.571 -3.68793 -5.31602 0
M  V30 7647 N 728.703 1.26451 -0.940633 0
M  V30 7648 C 729.633 2.28773 -0.467479 0
M  V30 7649 C 730.614 1.63218 0.478955 0
M  V30 7650 O 731.799 1.90427 0.380929 0
M  V30 7651 C 728.929 3.46259 0.268656 0
M  V30 7652 C 727.883 4.23898 -0.591171 0
M  V30 7653 C 727.209 5.33993 0.274891 0
M  V30 7654 C 728.509 4.87974 -1.86223 0
M  V30 7655 H 730.203 2.68601 -1.32265 0
M  V30 7656 H 727.749 1.29123 -0.637436 0
M  V30 7657 H 729.702 4.16951 0.610696 0
M  V30 7658 H 728.426 3.05383 1.15796 0
M  V30 7659 H 727.085 3.54969 -0.916098 0
M  V30 7660 H 726.733 4.89358 1.16353 0
M  V30 7661 H 726.433 5.86849 -0.297006 0
M  V30 7662 H 727.957 6.07523 0.612213 0
M  V30 7663 H 729.371 5.50883 -1.58747 0
M  V30 7664 H 727.768 5.50945 -2.37866 0
M  V30 7665 H 728.838 4.10945 -2.57394 0
M  V30 7666 N 730.181 0.707592 1.40822 0
M  V30 7667 C 731.428 0.243671 2.01029 0
M  V30 7668 C 731.756 -1.16057 1.5608 0
M  V30 7669 O 731.011 -1.7999 0.768251 0
M  V30 7670 C 731.31 0.262892 3.56432 0
M  V30 7671 C 730.976 1.61632 4.20935 0
M  V30 7672 C 729.638 1.98682 4.38268 0
M  V30 7673 C 731.99 2.50619 4.5699 0
M  V30 7674 C 729.318 3.2428 4.88937 0
M  V30 7675 C 731.67 3.75562 5.09054 0
M  V30 7676 C 730.334 4.12739 5.24598 0
M  V30 7677 H 729.604 0.0891654 0.735616 0
M  V30 7678 H 732.251 0.909051 1.68548 0
M  V30 7679 H 730.556 -0.486052 3.88773 0
M  V30 7680 H 732.253 -0.113775 4.00839 0
M  V30 7681 H 728.843 1.31818 4.07826 0
M  V30 7682 H 733.027 2.23272 4.43242 0
M  V30 7683 H 728.283 3.53064 4.99155 0
M  V30 7684 H 732.457 4.44692 5.35931 0
M  V30 7685 H 730.084 5.10132 5.63622 0
M  V30 7686 N 731.66 -1.50943 0.453197 0
M  V30 7687 C 732.907 -2.02212 -0.107922 0
M  V30 7688 C 733.235 -1.33639 -1.41318 0
M  V30 7689 O 732.49 -0.445154 -1.9057 0
M  V30 7690 C 732.789 -3.55603 -0.357944 0
M  V30 7691 C 732.455 -4.42556 0.863427 0
M  V30 7692 C 731.117 -4.6604 1.19834 0
M  V30 7693 C 733.469 -4.93468 1.67747 0
M  V30 7694 C 730.797 -5.37681 2.34768 0
M  V30 7695 C 733.149 -5.6637 2.81793 0
M  V30 7696 C 731.813 -5.88113 3.1572 0
M  V30 7697 H 731.083 -0.739947 -0.0394916 0
M  V30 7698 H 733.73 -1.81738 0.60363 0
M  V30 7699 H 732.035 -3.74495 -1.15156 0
M  V30 7700 H 733.732 -3.92821 -0.805781 0
M  V30 7701 H 730.322 -4.24485 0.592478 0
M  V30 7702 H 734.506 -4.75194 1.43192 0
M  V30 7703 H 729.762 -5.52727 2.61348 0
M  V30 7704 H 733.936 -6.04806 3.45229 0
M  V30 7705 H 731.563 -6.43404 4.04889 0
M  V30 7706 N 733.138 -0.185124 -1.56509 0
M  V30 7707 C 734.384 0.456934 -1.97585 0
M  V30 7708 C 734.717 1.61957 -1.07161 0
M  V30 7709 O 733.992 1.9412 -0.121546 0
M  V30 7710 C 734.275 0.926666 -3.47973 0
M  V30 7711 C 734.128 -0.237097 -4.49175 0
M  V30 7712 C 735.447 1.79561 -4.01803 0
M  V30 7713 H 732.566 0.164619 -0.71838 0
M  V30 7714 H 735.208 -0.274039 -1.88013 0
M  V30 7715 H 733.358 1.54954 -3.56261 0
M  V30 7716 H 735.03 -0.87454 -4.52934 0
M  V30 7717 H 733.273 -0.890446 -4.24563 0
M  V30 7718 H 733.944 0.133924 -5.51838 0
M  V30 7719 H 736.42 1.27039 -3.96232 0
M  V30 7720 H 735.296 2.09327 -5.07418 0
M  V30 7721 H 735.557 2.74629 -3.46455 0
M  V30 7722 N 734.616 1.57351 0.0885366 0
M  V30 7723 C 736.027 1.75303 0.642308 0
M  V30 7724 C 736.378 0.808238 1.78779 0
M  V30 7725 O 735.503 -0.01171 2.16397 0
M  V30 7726 C 736.098 3.17885 1.17194 0
M  V30 7727 C 734.657 3.37239 1.67172 0
M  V30 7728 C 733.804 2.7108 0.584045 0
M  V30 7729 H 736.755 1.58103 -0.137567 0
M  V30 7730 H 736.776 3.2112 2.04114 0
M  V30 7731 H 736.288 3.86625 0.338024 0
M  V30 7732 H 734.389 2.73588 2.52943 0
M  V30 7733 H 734.502 4.45594 1.76019 0
M  V30 7734 H 732.866 2.33161 1.02508 0
M  V30 7735 H 733.649 3.42464 -0.239403 0
M  V30 7736 N 736.094 -0.359525 1.53444 0
M  V30 7737 C 737.024 -1.44662 1.8329 0
M  V30 7738 C 738.005 -1.55617 0.68683 0
M  V30 7739 O 739.19 -1.70086 0.93725 0
M  V30 7740 C 736.32 -2.81923 2.02822 0
M  V30 7741 C 735.274 -2.85787 3.18606 0
M  V30 7742 C 734.6 -4.25781 3.23442 0
M  V30 7743 C 735.9 -2.52762 4.57065 0
M  V30 7744 H 737.594 -1.19934 2.74329 0
M  V30 7745 H 735.14 -0.575517 1.31999 0
M  V30 7746 H 737.093 -3.58005 2.22285 0
M  V30 7747 H 735.817 -3.08051 1.085 0
M  V30 7748 H 734.476 -2.12157 2.98973 0
M  V30 7749 H 734.124 -4.48994 2.26745 0
M  V30 7750 H 733.824 -4.29281 4.01238 0
M  V30 7751 H 735.348 -5.03727 3.45096 0
M  V30 7752 H 736.762 -3.18557 4.76649 0
M  V30 7753 H 735.159 -2.67569 5.37147 0
M  V30 7754 H 736.229 -1.47993 4.61764 0
M  V30 7755 N 737.572 -1.44907 -0.619662 0
M  V30 7756 C 738.505 -1.47133 -1.74434 0
M  V30 7757 C 739.483 -0.328933 -1.59238 0
M  V30 7758 O 740.667 -0.527632 -1.80965 0
M  V30 7759 C 737.794 -1.31491 -3.12134 0
M  V30 7760 C 736.84 -2.49441 -3.4595 0
M  V30 7761 S 737.673 -4.11945 -3.42142 0
M  V30 7762 C 738.829 -3.98747 -4.82443 0
M  V30 7763 H 739.062 -2.42295 -1.7228 0
M  V30 7764 H 736.595 -1.32343 -0.795276 0
M  V30 7765 H 738.553 -1.23153 -3.91591 0
M  V30 7766 H 737.214 -0.378203 -3.11815 0
M  V30 7767 H 736.407 -2.3439 -4.46181 0
M  V30 7768 H 736.009 -2.54577 -2.73982 0
M  V30 7769 H 738.301 -3.63145 -5.71954 0
M  V30 7770 H 739.244 -4.98848 -5.0255 0
M  V30 7771 H 739.652 -3.30608 -4.57557 0
M  V30 7772 N 739.05 0.861098 -1.31996 0
M  V30 7773 C 740 1.95703 -1.1698 0
M  V30 7774 C 740.984 1.60709 -0.0784201 0
M  V30 7775 O 742.176 1.74365 -0.304262 0
M  V30 7776 C 739.305 3.31606 -0.888388 0
M  V30 7777 C 738.391 3.7284 -2.02117 0
M  V30 7778 N 738.782 3.85957 -3.26911 0
M  V30 7779 C 737.08 4.02419 -1.92289 0
M  V30 7780 C 737.781 4.21333 -4.01065 0
M  V30 7781 N 736.757 4.32502 -3.29307 0
M  V30 7782 H 740.559 2.03968 -2.11599 0
M  V30 7783 H 738.073 1.05245 -1.23682 0
M  V30 7784 H 740.07 4.09881 -0.761782 0
M  V30 7785 H 738.73 3.24662 0.0494898 0
M  V30 7786 H 739.741 3.70449 -3.61923 0
M  V30 7787 H 736.418 4.03814 -1.06022 0
M  V30 7788 H 737.808 4.39005 -5.08649 0
M  V30 7789 N 740.528 1.15101 1.07655 0
M  V30 7790 C 741.46 0.802722 2.14684 0
M  V30 7791 C 742.473 -0.183874 1.61758 0
M  V30 7792 O 743.662 0.0389349 1.78458 0
M  V30 7793 C 740.762 0.172135 3.38463 0
M  V30 7794 C 739.935 1.19538 4.20749 0
M  V30 7795 C 738.994 0.58714 5.22914 0
M  V30 7796 O 738.02 1.25224 5.55255 0
M  V30 7797 N 739.222 -0.632566 5.77043 0
M  V30 7798 H 741.987 1.72379 2.45164 0
M  V30 7799 H 739.548 1.04647 1.23534 0
M  V30 7800 H 741.54 -0.247465 4.03943 0
M  V30 7801 H 740.11 -0.652214 3.0572 0
M  V30 7802 H 739.33 1.79165 3.51132 0
M  V30 7803 H 740.618 1.88636 4.7254 0
M  V30 7804 H 740.016 -1.19135 5.53013 0
M  V30 7805 H 738.573 -0.994566 6.44167 0
M  V30 7806 N 742.006 -1.2595 0.947325 0
M  V30 7807 C 743.422 -1.45737 0.650597 0
M  V30 7808 C 743.622 -1.85189 -0.794188 0
M  V30 7809 O 742.678 -1.97738 -1.57022 0
M  V30 7810 C 743.991 -2.53505 1.61728 0
M  V30 7811 C 745.539 -2.67351 1.62765 0
M  V30 7812 C 746.014 -3.78296 2.58179 0
M  V30 7813 N 747.505 -3.85696 2.56501 0
M  V30 7814 C 748.24 -4.71012 3.2701 0
M  V30 7815 N 747.736 -5.60669 4.06966 0
M  V30 7816 N 749.529 -4.64912 3.15932 0
M  V30 7817 H 741.68 -0.986327 1.8811 0
M  V30 7818 H 743.943 -0.494639 0.808725 0
M  V30 7819 H 743.649 -2.31357 2.6489 0
M  V30 7820 H 743.523 -3.51281 1.3741 0
M  V30 7821 H 745.91 -2.88869 0.603241 0
M  V30 7822 H 745.991 -1.69998 1.91139 0
M  V30 7823 H 745.635 -3.5753 3.60742 0
M  V30 7824 H 745.565 -4.75117 2.27093 0
M  V30 7825 H 748.056 -3.21601 1.98447 0
M  V30 7826 H 748.369 -6.22677 4.57704 0
M  V30 7827 H 746.714 -5.60402 4.11066 0
M  V30 7828 H 749.905 -3.93874 2.52945 0
M  V30 7829 H 750.078 -5.3118 3.71149 0
M  V30 7830 N 743.484 -0.715051 -1.40445 0
M  V30 7831 C 744.417 -0.0112426 -2.28197 0
M  V30 7832 C 745.395 0.768211 -1.43308 0
M  V30 7833 O 746.579 0.754961 -1.72721 0
M  V30 7834 C 743.706 0.991453 -3.23864 0
M  V30 7835 C 742.752 0.302873 -4.25423 0
M  V30 7836 S 743.585 -0.968852 -5.26663 0
M  V30 7837 C 744.741 0.0317538 -6.25892 0
M  V30 7838 H 744.974 -0.755467 -2.87541 0
M  V30 7839 H 742.507 -0.506054 -1.45871 0
M  V30 7840 H 744.465 1.56475 -3.79507 0
M  V30 7841 H 743.126 1.70838 -2.63578 0
M  V30 7842 H 742.319 1.06086 -4.92709 0
M  V30 7843 H 741.921 -0.197853 -3.73476 0
M  V30 7844 H 744.213 0.878764 -6.71777 0
M  V30 7845 H 745.156 -0.607698 -7.05488 0
M  V30 7846 H 745.564 0.39524 -5.63115 0
M  V30 7847 N 744.962 1.50701 -0.461195 0
M  V30 7848 C 746.209 2.02267 0.0971971 0
M  V30 7849 C 746.537 1.34387 1.40608 0
M  V30 7850 O 745.792 0.455254 1.90331 0
M  V30 7851 C 746.091 3.55788 0.33908 0
M  V30 7852 C 745.757 4.42092 -0.886885 0
M  V30 7853 C 744.419 4.65398 -1.22304 0
M  V30 7854 C 746.771 4.92571 -1.70361 0
M  V30 7855 C 744.099 5.36429 -2.37616 0
M  V30 7856 C 746.451 5.64868 -2.84793 0
M  V30 7857 C 745.115 5.86431 -3.18834 0
M  V30 7858 H 744.385 0.740146 0.0355669 0
M  V30 7859 H 747.032 1.81415 -0.61326 0
M  V30 7860 H 745.337 3.751 1.13168 0
M  V30 7861 H 747.034 3.93243 0.784937 0
M  V30 7862 H 743.624 4.24165 -0.614981 0
M  V30 7863 H 747.808 4.74428 -1.4571 0
M  V30 7864 H 743.064 5.51333 -2.64276 0
M  V30 7865 H 747.238 6.02966 -3.48432 0
M  V30 7866 H 744.865 6.41248 -4.08296 0
M  V30 7867 N 746.441 0.193421 1.56409 0
M  V30 7868 C 747.388 -0.728124 2.19014 0
M  V30 7869 C 748.358 -1.21098 1.13686 0
M  V30 7870 O 749.543 -1.27517 1.4193 0
M  V30 7871 C 746.683 -1.94277 2.8522 0
M  V30 7872 C 745.796 -1.50143 4.05069 0
M  V30 7873 C 744.931 -2.67145 4.59137 0
M  V30 7874 C 743.97 -2.19609 5.71348 0
M  V30 7875 N 743.107 -3.29782 6.19829 0
M  V30 7876 H 747.947 -0.187499 2.9741 0
M  V30 7877 H 745.484 -0.0808064 1.46878 0
M  V30 7878 H 747.442 -2.65551 3.21774 0
M  V30 7879 H 746.072 -2.45673 2.09391 0
M  V30 7880 H 745.124 -0.684624 3.74189 0
M  V30 7881 H 746.436 -1.11266 4.86232 0
M  V30 7882 H 745.59 -3.46544 4.97988 0
M  V30 7883 H 744.329 -3.09295 3.77078 0
M  V30 7884 H 743.334 -1.38664 5.32027 0
M  V30 7885 H 744.559 -1.78492 6.55223 0
M  V30 7886 H 742.505 -3.71466 5.40693 0
M  V30 7887 H 742.422 -2.95069 6.96039 0
M  V30 7888 H 743.69 -4.094 6.63334 0
M  V30 7889 N 747.919 -1.57396 -0.0801906 0
M  V30 7890 C 748.866 -2.03107 -1.09618 0
M  V30 7891 C 749.836 -0.910118 -1.38946 0
M  V30 7892 O 751.021 -1.17719 -1.50156 0
M  V30 7893 C 748.161 -2.47293 -2.40708 0
M  V30 7894 C 747.274 -3.72972 -2.17982 0
M  V30 7895 C 746.409 -4.05975 -3.42576 0
M  V30 7896 C 745.448 -5.24719 -3.15177 0
M  V30 7897 N 744.585 -5.53401 -4.32078 0
M  V30 7898 H 749.425 -2.89677 -0.69939 0
M  V30 7899 H 746.962 -1.43263 -0.333785 0
M  V30 7900 H 748.92 -2.7096 -3.17232 0
M  V30 7901 H 747.55 -1.63713 -2.78205 0
M  V30 7902 H 746.602 -3.56693 -1.32189 0
M  V30 7903 H 747.914 -4.59638 -1.93738 0
M  V30 7904 H 747.068 -4.30498 -4.275 0
M  V30 7905 H 745.807 -3.17859 -3.69887 0
M  V30 7906 H 744.812 -5 -2.28648 0
M  V30 7907 H 746.037 -6.14445 -2.89197 0
M  V30 7908 H 743.983 -4.68245 -4.59437 0
M  V30 7909 H 743.9 -6.34469 -4.11078 0
M  V30 7910 H 745.168 -5.8247 -5.18024 0
M  V30 7911 N 749.397 0.351382 -1.53633 0
M  V30 7912 C 750.307 1.45471 -1.84052 0
M  V30 7913 C 751.323 1.57945 -0.730015 0
M  V30 7914 O 752.499 1.73571 -1.02153 0
M  V30 7915 C 749.564 2.80562 -2.03681 0
M  V30 7916 C 748.625 2.77497 -3.27558 0
M  V30 7917 C 747.858 4.06144 -3.46241 0
M  V30 7918 O 748.081 5.03028 -2.68922 0
M  V30 7919 O 747.015 4.11092 -4.39645 0
M  V30 7920 H 750.841 1.22684 -2.77817 0
M  V30 7921 H 748.426 0.542827 -1.3919 0
M  V30 7922 H 750.308 3.6058 -2.18082 0
M  V30 7923 H 748.983 3.03296 -1.13106 0
M  V30 7924 H 747.89 1.96126 -3.18568 0
M  V30 7925 H 749.223 2.59716 -4.18101 0
M  V30 7926 N 750.875 1.45233 0.611969 0
M  V30 7927 C 751.807 1.49575 1.73666 0
M  V30 7928 C 752.82 0.386987 1.58134 0
M  V30 7929 O 754.009 0.653804 1.66095 0
M  V30 7930 C 751.109 1.33223 3.11617 0
M  V30 7931 C 750.282 2.57694 3.5343 0
M  V30 7932 C 749.341 2.35962 4.70328 0
M  V30 7933 O 748.367 3.09553 4.77667 0
M  V30 7934 N 749.569 1.40243 5.63305 0
M  V30 7935 H 752.334 2.46539 1.70407 0
M  V30 7936 H 749.895 1.40917 0.79712 0
M  V30 7937 H 751.887 1.16502 3.87569 0
M  V30 7938 H 750.457 0.44551 3.09409 0
M  V30 7939 H 749.677 2.8956 2.67486 0
M  V30 7940 H 750.965 3.40441 3.78124 0
M  V30 7941 H 750.363 0.795023 5.60086 0
M  V30 7942 H 748.92 1.29496 6.38807 0
M  V30 7943 N 752.353 -0.854086 1.3245 0
M  V30 7944 C 753.769 -1.14238 1.11453 0
M  V30 7945 C 753.969 -2.01228 -0.10461 0
M  V30 7946 O 753.025 -2.39845 -0.789339 0
M  V30 7947 C 754.338 -1.81916 2.39431 0
M  V30 7948 C 755.886 -1.94549 2.45193 0
M  V30 7949 C 756.361 -2.65642 3.73093 0
M  V30 7950 N 757.852 -2.73167 3.74078 0
M  V30 7951 C 758.587 -3.28828 4.69744 0
M  V30 7952 N 758.083 -3.85295 5.75778 0
M  V30 7953 N 759.876 -3.26936 4.57241 0
M  V30 7954 H 752.027 -0.274786 2.10615 0
M  V30 7955 H 754.29 -0.184375 0.929898 0
M  V30 7956 H 753.996 -1.25452 3.28565 0
M  V30 7957 H 753.87 -2.82068 2.50434 0
M  V30 7958 H 756.257 -2.50172 1.56518 0
M  V30 7959 H 756.338 -0.933914 2.38142 0
M  V30 7960 H 755.982 -2.10683 4.62142 0
M  V30 7961 H 755.912 -3.6724 3.77415 0
M  V30 7962 H 758.403 -2.33108 2.97438 0
M  V30 7963 H 758.716 -4.25925 6.44832 0
M  V30 7964 H 757.061 -3.83625 5.79531 0
M  V30 7965 H 760.252 -2.8207 3.7357 0
M  V30 7966 H 760.425 -3.70014 5.31971 0
M  V30 7967 N 753.831 -1.1567 -1.07043 0
M  V30 7968 C 755.108 -0.843948 -1.76456 0
M  V30 7969 C 755.488 0.659806 -2.00524 0
M  V30 7970 O 754.836 1.60518 -1.62623 0
M  V30 7971 C 755.046 -1.65822 -3.0709 0
M  V30 7972 C 756.394 -1.8664 -3.8138 0
M  V30 7973 O 757.418 -1.62624 -3.1691 0
M  V30 7974 O 756.277 -2.26884 -4.97178 0
M  V30 7975 H 753.371 -0.310677 -0.766426 0
M  V30 7976 H 755.917 -1.26266 -1.1338 0
M  V30 7977 H 754.689 -2.67902 -2.85209 0
M  V30 7978 H 754.312 -1.23605 -3.77899 0
M  V30 7979 N 755.309 1.25446 -0.953992 0
M  V30 7980 C 756.534 1.97755 -0.625129 0
M  V30 7981 C 756.959 1.70437 0.795787 0
M  V30 7982 O 756.317 0.95992 1.53803 0
M  V30 7983 C 756.365 3.49463 -0.889251 0
M  V30 7984 O 755.469 4.12387 0.0322757 0
M  V30 7985 H 754.81 0.61998 -0.237742 0
M  V30 7986 H 757.34 1.59582 -1.28041 0
M  V30 7987 H 757.35 3.99772 -0.815263 0
M  V30 7988 H 756.025 3.68676 -1.92487 0
M  V30 7989 H 754.602 3.72782 -0.0938625 0
M  V30 7990 N 756.787 0.722489 1.40064 0
M  V30 7991 C 758.012 0.273446 2.05589 0
M  V30 7992 C 758.437 -1.07875 1.54093 0
M  V30 7993 O 757.795 -1.68095 0.679252 0
M  V30 7994 C 757.843 0.271023 3.5958 0
M  V30 7995 O 756.947 -0.745499 4.05606 0
M  V30 7996 H 756.288 0.126856 0.65177 0
M  V30 7997 H 758.818 0.984906 1.79334 0
M  V30 7998 H 758.828 0.111084 4.07849 0
M  V30 7999 H 757.503 1.25776 3.96425 0
M  V30 8000 H 756.08 -0.552719 3.68781 0
M  V30 8001 N 758.265 -1.50454 0.469181 0
M  V30 8002 C 759.212 -2.28486 -0.325982 0
M  V30 8003 C 760.182 -1.33455 -0.988893 0
M  V30 8004 O 761.367 -1.6239 -1.0017 0
M  V30 8005 C 758.507 -3.15288 -1.40313 0
M  V30 8006 C 757.62 -4.25348 -0.755183 0
M  V30 8007 C 756.755 -4.9941 -1.81006 0
M  V30 8008 C 755.794 -6.01348 -1.14226 0
M  V30 8009 N 754.931 -6.68695 -2.1399 0
M  V30 8010 H 759.771 -2.95987 0.345753 0
M  V30 8011 H 757.308 -1.45965 0.182355 0
M  V30 8012 H 759.266 -3.63964 -2.03927 0
M  V30 8013 H 757.896 -2.49837 -2.04405 0
M  V30 8014 H 756.948 -3.80399 -0.00651901 0
M  V30 8015 H 758.26 -4.98279 -0.227941 0
M  V30 8016 H 757.414 -5.51794 -2.52206 0
M  V30 8017 H 756.153 -4.26181 -2.3711 0
M  V30 8018 H 755.158 -5.48225 -0.415876 0
M  V30 8019 H 756.383 -6.76548 -0.588135 0
M  V30 8020 H 754.329 -5.98258 -2.69115 0
M  V30 8021 H 754.246 -7.37495 -1.66246 0
M  V30 8022 H 755.514 -7.25697 -2.84576 0
M  V30 8023 N 759.743 -0.201713 -1.56304 0
M  V30 8024 C 761.02 0.483273 -1.89536 0
M  V30 8025 C 761.4 1.79176 -1.11621 0
M  V30 8026 O 760.748 2.27445 -0.219339 0
M  V30 8027 C 760.958 0.695604 -3.41998 0
M  V30 8028 C 762.306 1.012 -4.12364 0
M  V30 8029 O 763.33 0.783094 -3.47485 0
M  V30 8030 O 762.189 1.44534 -5.27041 0
M  V30 8031 H 759.283 0.252801 -0.787414 0
M  V30 8032 H 761.829 -0.24242 -1.6796 0
M  V30 8033 H 760.601 -0.228165 -3.90634 0
M  V30 8034 H 760.224 1.47351 -3.69288 0
M  V30 8035 N 761.222 1.57436 0.0718424 0
M  V30 8036 C 762.169 2.03686 1.08539 0
M  V30 8037 C 763.139 0.917474 1.38462 0
M  V30 8038 O 764.324 1.18513 1.4953 0
M  V30 8039 C 761.464 2.48566 2.39393 0
M  V30 8040 C 760.577 3.74122 2.16001 0
M  V30 8041 C 759.712 4.07786 3.40418 0
M  V30 8042 C 758.751 5.26383 3.1239 0
M  V30 8043 N 757.888 5.55685 4.29138 0
M  V30 8044 H 762.728 2.90043 0.684018 0
M  V30 8045 H 760.265 1.43438 0.326183 0
M  V30 8046 H 762.223 2.72639 3.15791 0
M  V30 8047 H 760.853 1.65186 2.77333 0
M  V30 8048 H 759.905 3.57389 1.30296 0
M  V30 8049 H 761.217 4.60659 1.91298 0
M  V30 8050 H 760.371 4.32759 4.25211 0
M  V30 8051 H 759.11 3.19817 3.68197 0
M  V30 8052 H 758.115 5.01206 2.25993 0
M  V30 8053 H 759.34 6.1597 2.85934 0
M  V30 8054 H 757.286 4.70675 4.56948 0
M  V30 8055 H 757.203 6.3664 4.07708 0
M  V30 8056 H 758.471 5.85209 5.14928 0
M  V30 8057 N 762.7 -0.34323 1.53817 0
M  V30 8058 C 763.633 -1.44472 1.76644 0
M  V30 8059 C 764.611 -1.50498 0.615556 0
M  V30 8060 O 765.795 -1.6821 0.850751 0
M  V30 8061 C 762.922 -2.82705 1.86536 0
M  V30 8062 C 761.968 -2.94302 3.08688 0
M  V30 8063 S 762.801 -2.60739 4.67735 0
M  V30 8064 C 763.957 -4.01079 4.80506 0
M  V30 8065 H 764.19 -1.24893 2.69794 0
M  V30 8066 H 761.723 -0.538915 1.4469 0
M  V30 8067 H 763.681 -3.62342 1.92921 0
M  V30 8068 H 762.342 -2.9958 0.943975 0
M  V30 8069 H 761.535 -3.95593 3.12286 0
M  V30 8070 H 761.137 -2.22614 3.00531 0
M  V30 8071 H 763.429 -4.95603 4.61935 0
M  V30 8072 H 764.372 -4.02475 5.82597 0
M  V30 8073 H 764.78 -3.89119 4.08958 0
M  V30 8074 N 764.178 -1.45556 -0.604258 0
M  V30 8075 C 765.108 -1.57327 -1.72541 0
M  V30 8076 C 766.089 -0.424637 -1.64714 0
M  V30 8077 O 767.274 -0.648196 -1.83063 0
M  V30 8078 C 764.404 -1.54279 -3.11152 0
M  V30 8079 C 763.358 -2.67893 -3.33792 0
M  V30 8080 C 762.684 -2.499 -4.72709 0
M  V30 8081 C 763.984 -4.0988 -3.23722 0
M  V30 8082 H 765.678 -2.51175 -1.62947 0
M  V30 8083 H 763.224 -1.20884 -0.782504 0
M  V30 8084 H 765.177 -1.6111 -3.89386 0
M  V30 8085 H 763.901 -0.569627 -3.21594 0
M  V30 8086 H 762.56 -2.60495 -2.57949 0
M  V30 8087 H 762.208 -1.50715 -4.79889 0
M  V30 8088 H 761.908 -3.26091 -4.88813 0
M  V30 8089 H 763.432 -2.5859 -5.5314 0
M  V30 8090 H 764.846 -4.18503 -3.91826 0
M  V30 8091 H 763.243 -4.86487 -3.51355 0
M  V30 8092 H 764.313 -4.31553 -2.21111 0
M  V30 8093 N 765.656 0.84705 -1.32902 0
M  V30 8094 C 766.619 1.9378 -1.224 0
M  V30 8095 C 767.619 1.60144 -0.145108 0
M  V30 8096 O 768.809 1.69638 -0.396058 0
M  V30 8097 C 765.941 3.29234 -0.884174 0
M  V30 8098 H 767.134 2.04518 -2.19345 0
M  V30 8099 H 764.687 1.03816 -1.16842 0
M  V30 8100 H 765.422 3.24193 0.0831277 0
M  V30 8101 H 765.207 3.55026 -1.6643 0
M  V30 8102 H 766.697 4.09162 -0.835226 0
M  V30 8103 N 767.134 1.16236 1.06428 0
M  V30 8104 C 768.545 0.950942 1.60667 0
M  V30 8105 C 768.896 -0.505491 1.89576 0
M  V30 8106 O 768.021 -1.37843 1.66818 0
M  V30 8107 C 768.616 1.71982 2.91904 0
M  V30 8108 C 767.175 1.55342 3.4285 0
M  V30 8109 C 766.322 1.72942 2.16763 0
M  V30 8110 H 769.273 1.31126 0.893959 0
M  V30 8111 H 769.294 1.19483 3.61253 0
M  V30 8112 H 768.806 2.77978 2.70831 0
M  V30 8113 H 766.907 0.5178 3.68985 0
M  V30 8114 H 767.02 2.33643 4.18267 0
M  V30 8115 H 765.384 1.15673 2.26918 0
M  V30 8116 H 766.167 2.80324 1.98175 0
M  V30 8117 N 768.612 -1.24939 0.960631 0
M  V30 8118 C 769.889 -1.88118 0.535807 0
M  V30 8119 C 770.269 -1.86605 -0.987009 0
M  V30 8120 O 769.617 -1.33375 -1.85536 0
M  V30 8121 C 769.827 -3.30565 1.11927 0
M  V30 8122 C 771.175 -4.07296 1.19981 0
M  V30 8123 O 772.199 -3.39709 1.07126 0
M  V30 8124 O 771.058 -5.28206 1.40218 0
M  V30 8125 H 768.152 -0.807698 0.177631 0
M  V30 8126 H 770.698 -1.32964 1.05445 0
M  V30 8127 H 769.47 -3.26128 2.16231 0
M  V30 8128 H 769.093 -3.93284 0.584245 0
M  V30 8129 N 770.09 -0.729906 -1.39679 0
M  V30 8130 C 771.501 -0.346241 -1.83461 0
M  V30 8131 C 771.852 1.1215 -1.60987 0
M  V30 8132 O 770.977 1.86456 -1.09832 0
M  V30 8133 C 771.572 -0.621656 -3.33048 0
M  V30 8134 C 770.131 -0.291543 -3.75269 0
M  V30 8135 C 769.278 -0.886844 -2.62736 0
M  V30 8136 H 772.229 -0.927949 -1.28743 0
M  V30 8137 H 772.25 0.108301 -3.80346 0
M  V30 8138 H 771.762 -1.68996 -3.49373 0
M  V30 8139 H 769.863 0.771133 -3.64533 0
M  V30 8140 H 769.976 -0.770544 -4.72863 0
M  V30 8141 H 768.34 -0.313839 -2.52759 0
M  V30 8142 H 769.123 -1.95971 -2.81869 0
M  V30 8143 N 771.568 1.50203 -0.477153 0
M  V30 8144 C 772.845 1.95115 0.137609 0
M  V30 8145 C 773.225 1.41778 1.56404 0
M  V30 8146 O 772.573 0.621333 2.1989 0
M  V30 8147 C 772.783 3.4892 0.0747168 0
M  V30 8148 C 774.131 4.238 0.260585 0
M  V30 8149 O 775.155 3.5588 0.151021 0
M  V30 8150 O 774.014 5.44366 0.482534 0
M  V30 8151 H 771.108 0.81987 0.108364 0
M  V30 8152 H 773.654 1.60946 -0.537989 0
M  V30 8153 H 772.426 3.80308 -0.920966 0
M  V30 8154 H 772.049 3.89642 0.791509 0
M  V30 8155 N 773.046 0.209999 1.56195 0
M  V30 8156 C 774.457 -0.299943 1.84275 0
M  V30 8157 C 774.808 -1.60314 1.1311 0
M  V30 8158 O 773.933 -2.1273 0.396874 0
M  V30 8159 C 774.528 -0.550986 3.3429 0
M  V30 8160 C 773.087 -1.00526 3.62728 0
M  V30 8161 C 772.234 -0.0619828 2.77231 0
M  V30 8162 H 775.185 0.433458 1.52666 0
M  V30 8163 H 775.206 -1.39846 3.53869 0
M  V30 8164 H 774.718 0.397669 3.86057 0
M  V30 8165 H 772.819 -1.96768 3.16407 0
M  V30 8166 H 772.932 -0.887664 4.70805 0
M  V30 8167 H 771.296 -0.566648 2.48317 0
M  V30 8168 H 772.079 0.881383 3.31793 0
M  V30 8169 N 774.524 -1.57472 -0.0634922 0
M  V30 8170 C 775.472 -2.05307 -1.09323 0
M  V30 8171 C 776.466 -0.959995 -1.39572 0
M  V30 8172 O 777.672 -1.14507 -1.38882 0
M  V30 8173 H 774.047 -0.65472 -0.369927 0
M  V30 8174 H 776.018 -2.90925 -0.663707 0
M  V30 8175 C 774.767 -2.51954 -2.39613 0
M  V30 8176 H 774.09 -3.35662 -2.1719 0
M  V30 8177 H 775.53 -2.89169 -3.10092 0
M  V30 8178 C 773.989 -1.40596 -3.06161 0
M  V30 8179 O 774.519 -0.752722 -3.94585 0
M  V30 8180 N 772.725 -1.14902 -2.66919 0
M  V30 8181 H 772.272 -1.68205 -1.95102 0
M  V30 8182 H 772.23 -0.406006 -3.11767 0
M  V30 8183 N 776.003 0.335068 -1.53997 0
M  V30 8184 C 777.251 1.07223 -1.71312 0
M  V30 8185 C 777.572 1.88911 -0.483486 0
M  V30 8186 O 776.842 1.89344 0.50257 0
M  V30 8187 H 775.422 0.398846 -0.63161 0
M  V30 8188 H 778.084 0.374288 -1.91272 0
M  V30 8189 H 777.18 1.7448 -2.58772 0
M  V30 8190 N 777.481 1.45874 0.596531 0
M  V30 8191 C 778.391 1.57947 1.73464 0
M  V30 8192 C 779.407 0.463461 1.67714 0
M  V30 8193 O 780.583 0.725685 1.87872 0
M  V30 8194 C 777.648 1.55348 3.09948 0
M  V30 8195 C 776.709 2.78074 3.27068 0
M  V30 8196 C 775.942 2.75589 4.57041 0
M  V30 8197 O 776.165 1.83545 5.40063 0
M  V30 8198 O 775.099 3.66945 4.77111 0
M  V30 8199 H 778.925 2.54169 1.66228 0
M  V30 8200 H 776.51 1.2851 0.76194 0
M  V30 8201 H 778.392 1.56545 3.91244 0
M  V30 8202 H 777.067 0.622811 3.17652 0
M  V30 8203 H 775.974 2.82435 2.45319 0
M  V30 8204 H 777.307 3.70303 3.24248 0
M  V30 8205 N 778.959 -0.83999 1.33349 0
M  V30 8206 C 779.889 -1.965 1.26135 0
M  V30 8207 C 780.87 -1.69505 0.142152 0
M  V30 8208 O 782.055 -1.91346 0.331743 0
M  V30 8209 C 779.185 -3.32632 0.99866 0
M  V30 8210 C 778.139 -3.74021 2.08068 0
M  V30 8211 C 777.465 -5.07947 1.67014 0
M  V30 8212 C 778.765 -3.87925 3.49731 0
M  V30 8213 H 780.459 -2.02793 2.20262 0
M  V30 8214 H 778.005 -0.974297 1.06035 0
M  V30 8215 H 779.958 -4.10903 0.934696 0
M  V30 8216 H 778.682 -3.26593 0.0217759 0
M  V30 8217 H 777.341 -2.98012 2.13505 0
M  V30 8218 H 776.989 -4.98378 0.680316 0
M  V30 8219 H 776.689 -5.36611 2.39422 0
M  V30 8220 H 778.213 -5.88695 1.62082 0
M  V30 8221 H 779.627 -4.5651 3.46802 0
M  V30 8222 H 778.024 -4.28023 4.20614 0
M  V30 8223 H 779.094 -2.90407 3.88319 0
M  V30 8224 N 780.437 -1.16799 -1.0581 0
M  V30 8225 C 781.367 -0.902241 -2.15364 0
M  V30 8226 C 782.348 0.153351 -1.69407 0
M  V30 8227 O 783.533 0.00442032 -1.94199 0
M  V30 8228 C 780.663 -0.407911 -3.44896 0
M  V30 8229 C 779.617 -1.40197 -4.04387 0
M  V30 8230 C 778.943 -0.765848 -5.29187 0
M  V30 8231 C 780.243 -2.77316 -4.42598 0
M  V30 8232 H 781.937 -1.81841 -2.37853 0
M  V30 8233 H 779.483 -0.875731 -1.14311 0
M  V30 8234 H 781.436 -0.20945 -4.20879 0
M  V30 8235 H 780.16 0.54378 -3.22041 0
M  V30 8236 H 778.819 -1.58707 -3.30466 0
M  V30 8237 H 778.467 0.192482 -5.02632 0
M  V30 8238 H 778.167 -1.42939 -5.69949 0
M  V30 8239 H 779.691 -0.577519 -6.07863 0
M  V30 8240 H 781.105 -2.62561 -5.09642 0
M  V30 8241 H 779.502 -3.4019 -4.94359 0
M  V30 8242 H 780.572 -3.32199 -3.53231 0
M  V30 8243 N 781.915 1.24427 -0.967243 0
M  V30 8244 C 783.326 1.74349 -0.667785 0
M  V30 8245 C 783.677 1.78403 0.816509 0
M  V30 8246 O 782.802 1.41315 1.63887 0
M  V30 8247 C 783.397 3.16628 -1.20548 0
M  V30 8248 C 781.956 3.64059 -0.955934 0
M  V30 8249 C 781.103 2.42715 -1.34106 0
M  V30 8250 H 784.054 1.10136 -1.14262 0
M  V30 8251 H 784.075 3.76183 -0.571547 0
M  V30 8252 H 783.587 3.13646 -2.28578 0
M  V30 8253 H 781.688 3.72441 0.108858 0
M  V30 8254 H 781.801 4.51549 -1.60126 0
M  V30 8255 H 780.165 2.43114 -0.759452 0
M  V30 8256 H 780.948 2.42414 -2.43085 0
M  V30 8257 N 783.393 0.737304 1.3929 0
M  V30 8258 C 784.641 0.285691 2.00071 0
M  V30 8259 C 784.962 -1.13169 1.58801 0
M  V30 8260 O 784.232 -1.77104 0.837308 0
M  V30 8261 H 782.812 0.102638 0.739915 0
M  V30 8262 H 785.474 0.947775 1.70303 0
M  V30 8263 H 784.57 0.335906 3.10287 0
M  V30 8264 N 784.871 -1.49948 0.485112 0
M  V30 8265 C 786.096 -2.073 -0.0645059 0
M  V30 8266 C 786.521 -1.345 -1.31497 0
M  V30 8267 O 785.879 -0.39687 -1.76903 0
M  V30 8268 C 785.927 -3.59201 -0.317304 0
M  V30 8269 O 785.031 -3.88085 -1.39514 0
M  V30 8270 H 784.372 -0.663723 0.0191822 0
M  V30 8271 H 786.902 -1.92963 0.680179 0
M  V30 8272 H 786.912 -4.04227 -0.553604 0
M  V30 8273 H 785.587 -4.11602 0.596387 0
M  V30 8274 H 784.164 -3.54885 -1.14504 0
M  V30 8275 N 786.349 -0.21828 -1.56081 0
M  V30 8276 C 787.76 0.290166 -1.84431 0
M  V30 8277 C 788.111 1.59712 -1.13958 0
M  V30 8278 O 787.236 2.12516 -0.40815 0
M  V30 8279 C 787.831 0.53325 -3.34577 0
M  V30 8280 C 786.39 0.986011 -3.63256 0
M  V30 8281 C 785.537 0.0472798 -2.7726 0
M  V30 8282 H 788.488 -0.441548 -1.52434 0
M  V30 8283 H 788.509 1.37967 -3.54606 0
M  V30 8284 H 788.021 -0.418137 -3.85841 0
M  V30 8285 H 786.122 1.95087 -3.17446 0
M  V30 8286 H 786.235 0.862684 -4.71269 0
M  V30 8287 H 784.599 0.553471 -2.48614 0
M  V30 8288 H 785.382 -0.898966 -3.31321 0
M  V30 8289 N 787.827 1.57504 0.0551401 0
M  V30 8290 C 788.775 2.05884 1.08233 0
M  V30 8291 C 789.769 0.967383 1.39061 0
M  V30 8292 O 790.975 1.15242 1.38273 0
M  V30 8293 H 787.35 0.656673 0.366449 0
M  V30 8294 H 789.321 2.91273 0.648269 0
M  V30 8295 C 788.07 2.53221 2.38273 0
M  V30 8296 H 787.393 3.36809 2.15406 0
M  V30 8297 H 788.833 2.9081 3.08554 0
M  V30 8298 C 787.292 1.42218 3.05411 0
M  V30 8299 O 787.822 0.773638 3.9418 0
M  V30 8300 N 786.028 1.16316 2.66306 0
M  V30 8301 H 785.575 1.69237 1.94207 0
M  V30 8302 H 785.533 0.422534 3.11548 0
M  V30 8303 N 789.305 -0.326896 1.54172 0
M  V30 8304 C 790.716 -0.901533 1.63491 0
M  V30 8305 C 791.067 -1.88994 0.52684 0
M  V30 8306 O 790.192 -2.137 -0.340794 0
M  V30 8307 C 790.787 -1.64192 2.96355 0
M  V30 8308 C 789.346 -2.16533 3.07881 0
M  V30 8309 C 788.493 -0.98966 2.59039 0
M  V30 8310 H 791.444 -0.104568 1.58355 0
M  V30 8311 H 791.465 -2.50592 2.86328 0
M  V30 8312 H 790.977 -0.922291 3.76982 0
M  V30 8313 H 789.078 -2.91622 2.31922 0
M  V30 8314 H 789.191 -2.41762 4.13628 0
M  V30 8315 H 787.555 -1.36787 2.14852 0
M  V30 8316 H 788.338 -0.284401 3.4212 0
M  V30 8317 N 790.784 -1.46188 -0.588786 0
M  V30 8318 C 791.694 -1.58865 -1.72624 0
M  V30 8319 C 792.71 -0.472348 -1.67466 0
M  V30 8320 O 793.886 -0.735638 -1.87484 0
M  V30 8321 C 790.951 -1.56989 -3.0912 0
M  V30 8322 C 790.012 -2.79804 -3.25589 0
M  V30 8323 C 789.245 -2.78009 -4.55573 0
M  V30 8324 O 789.468 -1.86406 -5.39082 0
M  V30 8325 O 788.402 -3.6947 -4.75159 0
M  V30 8326 H 792.228 -2.55047 -1.64878 0
M  V30 8327 H 789.813 -1.28912 -0.755115 0
M  V30 8328 H 791.695 -1.58618 -3.90408 0
M  V30 8329 H 790.37 -0.639648 -3.17317 0
M  V30 8330 H 789.277 -2.83732 -2.43818 0
M  V30 8331 H 790.61 -3.72017 -3.22279 0
M  V30 8332 N 792.262 0.832906 -1.33792 0
M  V30 8333 C 793.172 1.97514 -1.26592 0
M  V30 8334 C 794.188 1.73114 -0.175391 0
M  V30 8335 O 795.364 1.97387 -0.400062 0
M  V30 8336 C 792.429 3.31625 -1.01121 0
M  V30 8337 C 791.49 3.69101 -2.19233 0
M  V30 8338 C 790.723 4.96813 -1.94968 0
M  V30 8339 O 790.946 5.63208 -0.902955 0
M  V30 8340 O 789.88 5.31932 -2.8166 0
M  V30 8341 H 793.706 2.0653 -2.22664 0
M  V30 8342 H 791.291 0.966826 -1.13898 0
M  V30 8343 H 793.173 4.11968 -0.886571 0
M  V30 8344 H 791.848 3.23599 -0.080822 0
M  V30 8345 H 790.755 2.89243 -2.37253 0
M  V30 8346 H 792.088 3.818 -3.10628 0
M  V30 8347 N 793.74 1.17359 1.05189 0
M  V30 8348 C 795.151 0.96793 1.5965 0
M  V30 8349 C 795.502 -0.485355 1.90102 0
M  V30 8350 O 794.627 -1.36066 1.6827 0
M  V30 8351 C 795.222 1.75068 2.90063 0
M  V30 8352 C 793.781 1.58969 3.41183 0
M  V30 8353 C 792.928 1.75231 2.14917 0
M  V30 8354 H 795.879 1.32067 0.880001 0
M  V30 8355 H 795.9 1.23308 3.59966 0
M  V30 8356 H 795.412 2.80835 2.67868 0
M  V30 8357 H 793.513 0.556906 3.68415 0
M  V30 8358 H 793.626 2.38067 4.15766 0
M  V30 8359 H 791.99 1.18073 2.25679 0
M  V30 8360 H 792.773 2.8241 1.95191 0
M  V30 8361 N 795.218 -1.23913 0.973828 0
M  V30 8362 C 796.467 -1.91455 0.63464 0
M  V30 8363 C 796.78 -1.76893 -0.834759 0
M  V30 8364 O 797.986 -2.3918 -1.28473 0
M  V30 8365 C 796.442 -3.43172 1.08447 0
M  V30 8366 C 796.05 -3.66409 2.57776 0
M  V30 8367 C 797.794 -4.1653 0.818721 0
M  V30 8368 C 795.701 -5.11728 2.9646 0
M  V30 8369 H 794.631 -0.716881 0.233661 0
M  V30 8370 H 797.282 -1.40457 1.18085 0
M  V30 8371 H 795.664 -3.93242 0.466524 0
M  V30 8372 H 796.838 -3.26913 3.24753 0
M  V30 8373 H 795.153 -3.06349 2.82027 0
M  V30 8374 H 797.75 -5.23603 1.08367 0
M  V30 8375 H 798.093 -4.15578 -0.245128 0
M  V30 8376 H 798.626 -3.72428 1.39793 0
M  V30 8377 H 795.365 -5.17806 4.01941 0
M  V30 8378 H 794.885 -5.52199 2.34172 0
M  V30 8379 H 796.564 -5.80009 2.86703 0
M  V30 8380 O 796.735 -0.882192 -1.35276 0
M  V30 8381 H 797.426 -0.486499 -1.87491 0
M  V30 END ATOM
M  V30 BEGIN BOND
M  V30 END BOND
M  V30 END CTAB
M  END
$$$$
