drugbank_target|P36204 Bifunctional PGK/TIM (DB04510)
 OpenBabel12092119573D

  0  0  0     0  0            999 V3000
M  V30 BEGIN CTAB
M  V30 COUNTS 10246 10328 0 0 0
M  V30 BEGIN ATOM
M  V30 1 H -0.908 1.98254 -0.117106 0
M  V30 2 N 0 1.576 0 0
M  V30 3 C 0.933 2.03868 1.02534 0
M  V30 4 C 1.911 0.928543 1.3348 0
M  V30 5 O 3.095 1.19667 1.45644 0
M  V30 6 C 0.222 2.43627 2.35294 0
M  V30 7 C -0.732 3.65373 2.2001 0
M  V30 8 S 0.101 5.13292 1.52614 0
M  V30 9 C 1.257 5.56322 2.86805 0
M  V30 10 H 1.49 2.90518 0.631377 0
M  V30 11 H -0.977 1.52953 0.210867 0
M  V30 12 H 0.981 2.67203 3.11629 0
M  V30 13 H -0.358 1.57376 2.7183 0
M  V30 14 H -1.165 3.90944 3.18086 0
M  V30 15 H -1.563 3.418 1.51819 0
M  V30 16 H 0.729 5.58782 3.83104 0
M  V30 17 H 1.672 6.56266 2.65933 0
M  V30 18 H 2.08 4.83886 2.90714 0
M  V30 19 N 1.4781 -0.272755 1.55222 0
M  V30 20 C 2.3881 -1.35918 1.91216 0
M  V30 21 C 3.4041 -1.54026 0.809436 0
M  V30 22 O 4.5801 -1.68148 1.10852 0
M  V30 23 C 1.6451 -2.69834 2.17693 0
M  V30 24 C 0.7061 -2.6047 3.41253 0
M  V30 25 C -0.0609 -3.88 3.66458 0
M  V30 26 O 0.1621 -4.88693 2.94169 0
M  V30 27 O -0.9039 -3.88189 4.59992 0
M  V30 28 H 2.9221 -1.0839 2.83699 0
M  V30 29 H 0.5071 -0.471301 1.41771 0
M  V30 30 H 2.3891 -3.49017 2.36147 0
M  V30 31 H 1.0641 -2.97148 1.28392 0
M  V30 32 H -0.0289 -1.79663 3.28134 0
M  V30 33 H 1.3041 -2.38106 4.30774 0
M  V30 34 N 2.9562 -1.48159 -0.537278 0
M  V30 35 C 3.9032 -1.62138 -1.64256 0
M  V30 36 C 4.8732 -0.463668 -1.59497 0
M  V30 37 O 6.0582 -0.686241 -1.78032 0
M  V30 38 C 3.1982 -1.66028 -3.02537 0
M  V30 39 C 2.3112 -2.92855 -3.17585 0
M  V30 40 C 1.4462 -2.87952 -4.46382 0
M  V30 41 C 0.4852 -4.09516 -4.54932 0
M  V30 42 N -0.3778 -4.02733 -5.75109 0
M  V30 43 H 4.4622 -2.56529 -1.51647 0
M  V30 44 H 1.9992 -1.27224 -0.738414 0
M  V30 45 H 3.9572 -1.66265 -3.82638 0
M  V30 46 H 2.5872 -0.751331 -3.13934 0
M  V30 47 H 1.6392 -3.02395 -2.30784 0
M  V30 48 H 2.9512 -3.82822 -3.19764 0
M  V30 49 H 2.1052 -2.8655 -5.34765 0
M  V30 50 H 0.8442 -1.95702 -4.46712 0
M  V30 51 H -0.1508 -4.11201 -3.64957 0
M  V30 52 H 1.0742 -5.02917 -4.56346 0
M  V30 53 H -0.9798 -3.13299 -5.76351 0
M  V30 54 H -1.0628 -4.86397 -5.78752 0
M  V30 55 H 0.2052 -4.05379 -6.65799 0
M  V30 56 N 4.4343 0.785586 -1.36625 0
M  V30 57 C 5.3673 1.90509 -1.25625 0
M  V30 58 C 6.3453 1.62 -0.139607 0
M  V30 59 O 7.5293 1.8591 -0.31141 0
M  V30 60 C 4.6563 3.25419 -0.939158 0
M  V30 61 C 3.7023 3.72856 -2.07077 0
M  V30 62 S 4.5353 3.88162 -3.68904 0
M  V30 63 C 5.6913 5.25942 -3.39317 0
M  V30 64 H 5.9243 1.99549 -2.20381 0
M  V30 65 H 3.4573 0.945226 -1.22085 0
M  V30 66 H 5.4153 4.03346 -0.763029 0
M  V30 67 H 4.0763 3.14099 -0.00931402 0
M  V30 68 H 3.2693 4.70624 -1.80357 0
M  V30 69 H 2.8713 3.01989 -2.20632 0
M  V30 70 H 5.1633 6.10651 -2.93447 0
M  V30 71 H 6.1063 5.57668 -4.36363 0
M  V30 72 H 6.5143 4.93224 -2.74573 0
M  V30 73 N 5.9124 1.20967 1.01018 0
M  V30 74 C 7.1404 1.04956 1.78303 0
M  V30 75 C 7.5554 -0.400915 1.84494 0
M  V30 76 O 6.9124 -1.27826 1.30257 0
M  V30 77 C 6.9634 1.63403 3.22462 0
M  V30 78 O 6.6844 3.02775 3.16637 0
M  V30 79 C 8.1854 1.52432 4.16268 0
M  V30 80 H 5.4054 0.368858 0.560522 0
M  V30 81 H 7.9494 1.60193 1.27116 0
M  V30 82 H 6.1044 1.1227 3.70775 0
M  V30 83 H 6.5184 3.30626 4.07169 0
M  V30 84 H 7.9924 1.98078 5.15237 0
M  V30 85 H 8.4694 0.477875 4.36592 0
M  V30 86 H 9.0754 2.02787 3.73841 0
M  V30 87 N 7.3905 -1.2043 1.01659 0
M  V30 88 C 8.6395 -1.89118 0.701237 0
M  V30 89 C 8.9525 -1.79705 -0.772358 0
M  V30 90 O 10.1585 -2.43528 -1.20026 0
M  V30 91 C 8.6145 -3.39168 1.20388 0
M  V30 92 C 8.2225 -3.57166 2.70438 0
M  V30 93 C 9.9665 -4.1341 0.963953 0
M  V30 94 C 7.8735 -5.01042 3.14183 0
M  V30 95 H 6.8035 -0.708267 0.2586 0
M  V30 96 H 9.4545 -1.36239 1.22927 0
M  V30 97 H 7.8365 -3.91369 0.603824 0
M  V30 98 H 9.0105 -3.15351 3.35992 0
M  V30 99 H 7.3255 -2.96294 2.92572 0
M  V30 100 H 9.9225 -5.19491 1.26621 0
M  V30 101 H 10.2655 -4.16181 -0.099578 0
M  V30 102 H 10.7985 -3.67309 1.52738 0
M  V30 103 H 7.5375 -5.03426 4.19812 0
M  V30 104 H 7.0575 -5.43668 2.53348 0
M  V30 105 H 8.7365 -5.69623 3.0682 0
M  V30 106 N 8.8686 -0.792821 -1.36206 0
M  V30 107 C 10.2846 -0.474903 -1.52371 0
M  V30 108 C 10.4846 1.00622 -1.74578 0
M  V30 109 O 9.5406 1.79162 -1.77924 0
M  V30 110 C 10.8536 -1.3083 -2.70747 0
M  V30 111 C 12.4016 -1.30234 -2.84619 0
M  V30 112 C 12.8766 -2.11956 -4.06004 0
M  V30 113 N 14.3676 -2.09419 -4.13156 0
M  V30 114 C 15.1026 -2.69419 -5.06163 0
M  V30 115 N 14.5986 -3.3829 -6.04592 0
M  V30 116 N 16.3916 -2.59134 -4.98804 0
M  V30 117 H 8.5426 -1.75222 -1.20046 0
M  V30 118 H 10.8056 -0.745024 -0.586211 0
M  V30 119 H 10.5116 -2.35881 -2.6087 0
M  V30 120 H 10.3856 -0.95196 -3.6499 0
M  V30 121 H 12.7726 -0.259748 -2.93955 0
M  V30 122 H 12.8536 -1.69847 -1.91274 0
M  V30 123 H 12.4976 -3.16248 -3.97429 0
M  V30 124 H 12.4276 -1.69711 -4.98503 0
M  V30 125 H 14.9186 -1.59297 -3.42685 0
M  V30 126 H 15.2316 -3.81394 -6.7213 0
M  V30 127 H 13.5766 -3.42393 -6.04807 0
M  V30 128 H 16.7676 -2.04927 -4.20859 0
M  V30 129 H 16.9406 -3.06185 -5.711 0
M  V30 130 N 10.3467 1.47872 -0.545128 0
M  V30 131 C 11.6237 1.9554 0.0485222 0
M  V30 132 C 12.0037 1.4876 1.49779 0
M  V30 133 O 11.3517 0.720925 2.16829 0
M  V30 134 C 11.5617 3.48898 -0.084417 0
M  V30 135 C 12.9097 4.24547 0.0671239 0
M  V30 136 O 13.9337 3.56198 -0.0113649 0
M  V30 137 O 12.7927 5.45999 0.233882 0
M  V30 138 H 9.8867 0.823957 0.0708773 0
M  V30 139 H 12.4327 1.58327 -0.610798 0
M  V30 140 H 11.2047 3.75714 -1.09337 0
M  V30 141 H 10.8277 3.92845 0.613066 0
M  V30 142 N 11.8248 0.280983 1.55075 0
M  V30 143 C 13.0708 -0.33461 2.00021 0
M  V30 144 C 13.4038 -1.55063 1.16915 0
M  V30 145 O 12.6788 -1.93006 0.240646 0
M  V30 146 C 12.9618 -0.711007 3.53011 0
M  V30 147 C 12.8148 0.512766 4.46868 0
M  V30 148 C 14.1338 -1.54522 4.12081 0
M  V30 149 H 11.2528 -0.120147 0.727141 0
M  V30 150 H 13.8948 0.389097 1.85973 0
M  V30 151 H 12.0448 -1.32761 3.65112 0
M  V30 152 H 13.7168 1.15131 4.46702 0
M  V30 153 H 11.9598 1.14975 4.18286 0
M  V30 154 H 12.6308 0.205556 5.51617 0
M  V30 155 H 15.1068 -1.02442 4.03293 0
M  V30 156 H 13.9828 -1.77739 5.19327 0
M  V30 157 H 14.2438 -2.52813 3.62682 0
M  V30 158 N 13.3029 -1.57598 0.00835791 0
M  V30 159 C 14.5799 -1.82172 -0.712235 0
M  V30 160 C 14.9599 -0.887873 -1.9152 0
M  V30 161 O 14.3079 0.06146 -2.28417 0
M  V30 162 C 14.5179 -3.30875 -1.11008 0
M  V30 163 C 15.8659 -3.96826 -1.51044 0
M  V30 164 O 16.8899 -3.35248 -1.20364 0
M  V30 165 O 15.7489 -5.05318 -2.08125 0
M  V30 166 H 12.8429 -0.750435 -0.347529 0
M  V30 167 H 15.3889 -1.69665 0.0344523 0
M  V30 168 H 14.1609 -3.90481 -0.252982 0
M  V30 169 H 13.7839 -3.48412 -1.9156 0
M  V30 170 N 14.781 0.264519 -1.55364 0
M  V30 171 C 15.711 1.33121 -1.91836 0
M  V30 172 C 16.692 1.51101 -0.781192 0
M  V30 173 O 17.877 1.64003 -1.04003 0
M  V30 174 C 15.007 2.68921 -2.19769 0
M  V30 175 C 13.961 2.65661 -3.35571 0
M  V30 176 C 13.287 4.05093 -3.49004 0
M  V30 177 C 14.587 2.24187 -4.71739 0
M  V30 178 H 16.281 1.02844 -2.81182 0
M  V30 179 H 13.827 0.493286 -1.35287 0
M  V30 180 H 15.78 3.43663 -2.43872 0
M  V30 181 H 14.504 3.00799 -1.27231 0
M  V30 182 H 13.163 1.93377 -3.1145 0
M  V30 183 H 12.811 4.34206 -2.53917 0
M  V30 184 H 12.511 4.03804 -4.26868 0
M  V30 185 H 14.035 4.81561 -3.75408 0
M  V30 186 H 15.449 2.88654 -4.9533 0
M  V30 187 H 13.846 2.34044 -5.52579 0
M  V30 188 H 14.916 1.19327 -4.69988 0
M  V30 189 N 16.2591 1.48442 0.529413 0
M  V30 190 C 17.2061 1.63007 1.63394 0
M  V30 191 C 18.1761 0.47212 1.59249 0
M  V30 192 O 19.3611 0.695673 1.77666 0
M  V30 193 C 16.5011 1.6763 3.01653 0
M  V30 194 C 15.6141 2.94535 3.16027 0
M  V30 195 C 14.7491 2.90316 4.44849 0
M  V30 196 C 13.7881 4.11923 4.52754 0
M  V30 197 N 12.9251 4.05777 5.72965 0
M  V30 198 H 17.7651 2.5733 1.50285 0
M  V30 199 H 15.3021 1.27613 0.731656 0
M  V30 200 H 17.2601 1.68292 3.81751 0
M  V30 201 H 15.8901 0.76797 3.13532 0
M  V30 202 H 14.9421 3.03615 2.29177 0
M  V30 203 H 16.2541 3.84512 3.17729 0
M  V30 204 H 15.4081 2.89382 5.33238 0
M  V30 205 H 14.1471 1.98068 4.45668 0
M  V30 206 H 13.1521 4.13131 3.62771 0
M  V30 207 H 14.3771 5.0533 4.53672 0
M  V30 208 H 12.3231 3.16351 5.74681 0
M  V30 209 H 12.2401 4.8946 5.76164 0
M  V30 210 H 13.5081 4.08904 6.6364 0
M  V30 211 N 17.7372 -0.778329 1.37039 0
M  V30 212 C 18.9852 -1.53361 1.31623 0
M  V30 213 C 19.3062 -1.94739 -0.100831 0
M  V30 214 O 18.5762 -1.65797 -1.04347 0
M  V30 215 H 17.1562 -0.568794 0.484234 0
M  V30 216 H 19.8182 -0.926742 1.71457 0
M  V30 217 H 18.9142 -2.43606 1.95096 0
M  V30 218 N 19.2153 -1.21501 -1.00376 0
M  V30 219 C 20.1623 -0.975387 -2.09177 0
M  V30 220 C 21.1323 0.0990615 -1.65804 0
M  V30 221 O 22.3173 -0.0483147 -1.90739 0
M  V30 222 C 19.4573 -0.547507 -3.40729 0
M  V30 223 C 18.5703 -1.69153 -3.97506 0
M  V30 224 C 17.7053 -1.2127 -5.17172 0
M  V30 225 C 16.7443 -2.32897 -5.66061 0
M  V30 226 N 15.8813 -1.86138 -6.76976 0
M  V30 227 H 20.7213 -1.9068 -2.29009 0
M  V30 228 H 18.2583 -0.950257 -1.12288 0
M  V30 229 H 20.2163 -0.280667 -4.16255 0
M  V30 230 H 18.8463 0.346904 -3.20931 0
M  V30 231 H 17.8983 -2.07298 -3.18954 0
M  V30 232 H 19.2103 -2.5316 -4.29781 0
M  V30 233 H 18.3643 -0.902591 -5.99948 0
M  V30 234 H 17.1033 -0.342692 -4.86495 0
M  V30 235 H 16.1083 -2.64709 -4.81881 0
M  V30 236 H 17.3333 -3.20396 -5.98768 0
M  V30 237 H 15.2793 -1.01484 -6.48103 0
M  V30 238 H 15.1963 -2.63717 -7.08512 0
M  V30 239 H 16.4643 -1.58165 -7.63285 0
M  V30 240 N 20.6934 1.19889 -1.02296 0
M  V30 241 C 22.1094 1.41462 -0.738954 0
M  V30 242 C 22.3094 1.89721 0.678846 0
M  V30 243 O 21.3654 2.07016 1.4457 0
M  V30 244 C 22.6784 2.43083 -1.77005 0
M  V30 245 C 24.2264 2.5684 -1.78892 0
M  V30 246 C 24.7014 3.61709 -2.80945 0
M  V30 247 N 26.1924 3.69199 -2.79725 0
M  V30 248 C 26.9274 4.50019 -3.55345 0
M  V30 249 N 26.4234 5.34592 -4.40662 0
M  V30 250 N 28.2164 4.44612 -3.43914 0
M  V30 251 H 20.3674 0.868827 -1.93817 0
M  V30 252 H 22.6304 0.44399 -0.837602 0
M  V30 253 H 22.3364 2.14636 -2.78612 0
M  V30 254 H 22.2104 3.4217 -1.58744 0
M  V30 255 H 24.5974 2.84614 -0.779674 0
M  V30 256 H 24.6784 1.57927 -2.01228 0
M  V30 257 H 24.3224 3.34678 -3.82038 0
M  V30 258 H 24.2524 4.60259 -2.5587 0
M  V30 259 H 26.7434 3.08794 -2.17842 0
M  V30 260 H 27.0564 5.93363 -4.95116 0
M  V30 261 H 25.4014 5.34073 -4.44737 0
M  V30 262 H 28.5924 3.7758 -2.76679 0
M  V30 263 H 28.7654 5.0736 -4.031 0
M  V30 264 N 22.1715 0.800033 1.35784 0
M  V30 265 C 23.4175 0.377901 1.99248 0
M  V30 266 C 23.7505 -1.05052 1.63333 0
M  V30 267 O 23.0255 -1.72768 0.893385 0
M  V30 268 C 23.3085 0.553922 3.55814 0
M  V30 269 C 23.1615 2.0268 4.01548 0
M  V30 270 C 24.4805 -0.0244802 4.40093 0
M  V30 271 H 21.5995 0.138782 0.723815 0
M  V30 272 H 24.2415 1.00835 1.61035 0
M  V30 273 H 22.3915 0.0172398 3.88496 0
M  V30 274 H 24.0635 2.62536 3.79305 0
M  V30 275 H 22.3065 2.5256 3.52698 0
M  V30 276 H 22.9775 2.10087 5.10458 0
M  V30 277 H 25.4535 0.433775 4.13833 0
M  V30 278 H 24.3295 0.128637 5.48749 0
M  V30 279 H 24.5905 -1.11758 4.27741 0
M  V30 280 N 23.6496 -1.47581 0.552962 0
M  V30 281 C 24.8986 -2.01684 0.0251995 0
M  V30 282 C 25.2116 -1.43317 -1.33115 0
M  V30 283 O 26.4176 -1.89057 -1.94858 0
M  V30 284 C 24.8736 -3.599 -0.00542052 0
M  V30 285 C 24.4816 -4.27257 1.34742 0
M  V30 286 C 26.2256 -4.21768 -0.4808 0
M  V30 287 C 24.1326 -5.77467 1.27614 0
M  V30 288 H 23.0626 -0.753979 0.00565033 0
M  V30 289 H 25.7136 -1.69616 0.70018 0
M  V30 290 H 24.0956 -3.88911 -0.745961 0
M  V30 291 H 25.2696 -4.09893 2.10534 0
M  V30 292 H 23.5846 -3.77358 1.76039 0
M  V30 293 H 26.1816 -5.31838 -0.55246 0
M  V30 294 H 26.5246 -3.88651 -1.49184 0
M  V30 295 H 27.0576 -3.97273 0.204752 0
M  V30 296 H 23.7966 -6.15196 2.26304 0
M  V30 297 H 23.3166 -5.9718 0.55996 0
M  V30 298 H 24.9956 -6.3959 0.976421 0
M  V30 299 N 25.1277 -0.289203 -1.54924 0
M  V30 300 C 26.0607 0.633823 -2.19221 0
M  V30 301 C 27.0387 1.14174 -1.15772 0
M  V30 302 O 28.2227 1.21211 -1.44361 0
M  V30 303 C 25.3497 1.86592 -2.82668 0
M  V30 304 C 24.3957 1.49227 -3.99542 0
M  V30 305 S 25.2287 0.558312 -5.32582 0
M  V30 306 C 26.3847 1.79847 -5.99505 0
M  V30 307 H 26.6177 0.0875416 -2.97171 0
M  V30 308 H 24.1507 -0.0733899 -1.54225 0
M  V30 309 H 26.1087 2.57305 -3.19851 0
M  V30 310 H 24.7697 2.38335 -2.04585 0
M  V30 311 H 23.9627 2.40945 -4.42676 0
M  V30 312 H 23.5647 0.865193 -3.63855 0
M  V30 313 H 25.8567 2.7406 -6.19595 0
M  V30 314 H 26.7997 1.4099 -6.93922 0
M  V30 315 H 27.2077 1.96982 -5.29016 0
M  V30 316 N 26.6058 1.57591 -0.0167156 0
M  V30 317 C 28.0218 1.55946 0.339557 0
M  V30 318 C 28.2218 1.02109 1.73713 0
M  V30 319 O 27.2778 0.662303 2.43659 0
M  V30 320 C 28.5908 3.00037 0.199499 0
M  V30 321 C 30.1388 3.11805 0.273193 0
M  V30 322 C 30.6138 4.57713 0.162068 0
M  V30 323 N 32.1048 4.6268 0.219444 0
M  V30 324 C 32.8398 5.73185 0.157054 0
M  V30 325 N 32.3358 6.92786 0.0442936 0
M  V30 326 N 34.1288 5.61707 0.21014 0
M  V30 327 H 26.2798 1.90921 -0.930758 0
M  V30 328 H 28.5428 0.877674 -0.358319 0
M  V30 329 H 28.2488 3.4333 -0.76273 0
M  V30 330 H 28.1228 3.64387 0.974786 0
M  V30 331 H 30.5098 2.68433 1.22587 0
M  V30 332 H 30.5908 2.50201 -0.532256 0
M  V30 333 H 30.2348 5.01763 -0.78714 0
M  V30 334 H 30.1648 5.17283 0.986222 0
M  V30 335 H 32.6558 3.76649 0.307246 0
M  V30 336 H 32.9688 7.728 0.00304069 0
M  V30 337 H 31.3138 6.94999 0.00968457 0
M  V30 338 H 34.5048 4.6716 0.296546 0
M  V30 339 H 34.6778 6.47807 0.158054 0
M  V30 340 N 28.0839 -0.256276 1.55502 0
M  V30 341 C 29.3299 -0.987079 1.77157 0
M  V30 342 C 29.6629 -1.85327 0.580315 0
M  V30 343 O 28.9379 -1.89874 -0.421686 0
M  V30 344 C 29.2209 -1.85553 3.08613 0
M  V30 345 C 29.0739 -1.01816 4.38125 0
M  V30 346 C 30.3929 -2.8397 3.36228 0
M  V30 347 H 27.5119 -0.357428 0.644526 0
M  V30 348 H 30.1539 -0.258239 1.88237 0
M  V30 349 H 28.3039 -2.47695 2.99298 0
M  V30 350 H 29.9759 -0.416159 4.59419 0
M  V30 351 H 28.2189 -0.322178 4.32602 0
M  V30 352 H 28.8899 -1.65939 5.26468 0
M  V30 353 H 31.3659 -2.31964 3.45445 0
M  V30 354 H 30.2419 -3.41864 4.29442 0
M  V30 355 H 30.5029 -3.59955 2.56681 0
M  V30 356 N 29.562 -1.4872 -0.521534 0
M  V30 357 C 30.839 -1.4766 -1.2828 0
M  V30 358 C 31.219 -0.19292 -2.10217 0
M  V30 359 O 30.567 0.825193 -2.13079 0
M  V30 360 C 30.777 -2.74358 -2.15705 0
M  V30 361 C 32.125 -3.23028 -2.75569 0
M  V30 362 O 33.149 -2.75333 -2.25987 0
M  V30 363 O 32.008 -4.0604 -3.65778 0
M  V30 364 H 29.102 -0.590085 -0.579421 0
M  V30 365 H 31.648 -1.60963 -0.537492 0
M  V30 366 H 30.42 -3.59292 -1.54999 0
M  V30 367 H 30.043 -2.63816 -2.97467 0
M  V30 368 N 31.0401 0.771051 -1.3745 0
M  V30 369 C 32.2871 1.52963 -1.32697 0
M  V30 370 C 32.6151 1.94299 0.0883274 0
M  V30 371 O 31.8701 1.64397 1.0617 0
M  V30 372 C 32.1691 2.80676 -2.2126 0
M  V30 373 C 31.8351 2.58389 -3.69521 0
M  V30 374 C 30.4971 2.52019 -4.09927 0
M  V30 375 C 32.8491 2.38469 -4.63446 0
M  V30 376 C 30.1771 2.23721 -5.42371 0
M  V30 377 C 32.5291 2.11694 -5.96128 0
M  V30 378 C 31.1931 2.03769 -6.35637 0
M  V30 379 H 30.4631 0.559732 -0.485573 0
M  V30 380 H 33.1101 0.888083 -1.69662 0
M  V30 381 H 31.4151 3.49392 -1.77291 0
M  V30 382 H 33.1121 3.38557 -2.14895 0
M  V30 383 H 29.7021 2.6421 -3.37478 0
M  V30 384 H 33.8861 2.4238 -4.33089 0
M  V30 385 H 29.1421 2.16081 -5.71943 0
M  V30 386 H 33.3161 1.9528 -6.6846 0
M  V30 387 H 30.9431 1.81606 -7.38189 0
M  V30 388 N 32.5182 1.22032 0.997298 0
M  V30 389 C 33.4662 0.983634 2.10778 0
M  V30 390 C 34.4602 -0.0717564 1.69248 0
M  V30 391 O 35.6662 0.080304 1.79821 0
M  V30 392 H 32.0412 0.300877 0.689186 0
M  V30 393 H 34.0122 1.92606 2.27916 0
M  V30 394 C 32.7612 0.57326 3.42942 0
M  V30 395 H 32.0842 1.37702 3.75338 0
M  V30 396 H 33.5242 0.447031 4.21637 0
M  V30 397 C 31.9832 -0.7167 3.29188 0
M  V30 398 O 32.5132 -1.77027 3.60589 0
M  V30 399 N 30.7192 -0.686167 2.82383 0
M  V30 400 H 30.2662 0.171507 2.57028 0
M  V30 401 H 30.2242 -1.54955 2.73562 0
M  V30 402 N 33.9963 -1.19345 1.0293 0
M  V30 403 C 35.2423 -1.89318 0.727083 0
M  V30 404 C 35.5753 -1.79446 -0.742483 0
M  V30 405 O 34.8503 -1.1871 -1.54072 0
M  V30 406 C 35.1333 -3.40238 1.17942 0
M  V30 407 C 34.9863 -3.58979 2.71024 0
M  V30 408 C 36.3053 -4.33479 0.760548 0
M  V30 409 H 33.4243 -0.687475 0.265606 0
M  V30 410 H 36.0663 -1.40477 1.2793 0
M  V30 411 H 34.2163 -3.81964 0.709608 0
M  V30 412 H 35.8883 -3.26421 3.25955 0
M  V30 413 H 34.1313 -3.02018 3.11396 0
M  V30 414 H 34.8023 -4.64823 2.9773 0
M  V30 415 H 37.2783 -3.99469 1.16464 0
M  V30 416 H 36.1543 -5.37664 1.10493 0
M  V30 417 H 36.4153 -4.40813 -0.337063 0
M  V30 418 N 35.4744 -0.807222 -1.35358 0
M  V30 419 C 36.8854 -0.44876 -1.81226 0
M  V30 420 C 37.2364 1.02929 -1.67033 0
M  V30 421 O 36.3614 1.79991 -1.20133 0
M  V30 422 C 36.9564 -0.807774 -3.2903 0
M  V30 423 C 35.5154 -0.501901 -3.73039 0
M  V30 424 C 34.6624 -1.03304 -2.57339 0
M  V30 425 H 37.6134 -0.998808 -1.23327 0
M  V30 426 H 37.6344 -0.10554 -3.80354 0
M  V30 427 H 37.1464 -1.88357 -3.39328 0
M  V30 428 H 35.2474 0.565128 -3.68289 0
M  V30 429 H 35.3604 -1.03497 -4.67787 0
M  V30 430 H 33.7244 -0.455339 -2.50597 0
M  V30 431 H 34.5074 -2.11496 -2.70415 0
M  V30 432 N 36.9525 1.47285 -0.560781 0
M  V30 433 C 38.1985 2.02764 -0.0381184 0
M  V30 434 C 38.5315 1.43384 1.30976 0
M  V30 435 O 37.8065 0.590733 1.85312 0
M  V30 436 C 38.0895 3.60064 0.0511427 0
M  V30 437 C 37.9425 4.2987 -1.32408 0
M  V30 438 C 39.2615 4.33439 0.762795 0
M  V30 439 H 36.3805 0.736841 -0.0153264 0
M  V30 440 H 39.0225 1.75675 -0.723759 0
M  V30 441 H 37.1725 3.83274 0.635065 0
M  V30 442 H 38.8445 4.17989 -1.95148 0
M  V30 443 H 37.0875 3.90085 -1.8978 0
M  V30 444 H 37.7585 5.38478 -1.21431 0
M  V30 445 H 40.2345 4.15243 0.266965 0
M  V30 446 H 39.1105 5.43124 0.794221 0
M  V30 447 H 39.3715 4.02915 1.81966 0
M  V30 448 N 38.4306 0.297415 1.54768 0
M  V30 449 C 39.3776 -0.580276 2.23386 0
M  V30 450 C 40.3476 -1.13238 1.21517 0
M  V30 451 O 41.5326 -1.17757 1.50126 0
M  V30 452 C 38.6726 -1.74801 2.97555 0
M  V30 453 C 37.7856 -1.22764 4.1419 0
M  V30 454 C 36.9206 -2.35895 4.75949 0
M  V30 455 C 35.9596 -1.80974 5.84735 0
M  V30 456 N 35.0966 -2.87664 6.40464 0
M  V30 457 H 39.9366 0.0114833 2.97998 0
M  V30 458 H 37.4736 0.0174361 1.4709 0
M  V30 459 H 39.4316 -2.43475 3.38786 0
M  V30 460 H 38.0616 -2.31145 2.25326 0
M  V30 461 H 37.1136 -0.433271 3.77924 0
M  V30 462 H 38.4256 -0.785551 4.92575 0
M  V30 463 H 37.5796 -3.12523 5.20014 0
M  V30 464 H 36.3186 -2.83429 3.96887 0
M  V30 465 H 35.3236 -1.02834 5.40097 0
M  V30 466 H 36.5486 -1.34348 6.65678 0
M  V30 467 H 34.4946 -3.34538 5.64287 0
M  V30 468 H 34.4116 -2.4794 7.14186 0
M  V30 469 H 35.6796 -3.642 6.89187 0
M  V30 470 N 39.9087 -1.5758 0.0250728 0
M  V30 471 C 41.1857 -1.82917 -0.692873 0
M  V30 472 C 41.5657 -0.908137 -1.90568 0
M  V30 473 O 40.9137 0.0372298 -2.2847 0
M  V30 474 C 41.1237 -3.32034 -1.07492 0
M  V30 475 C 42.4717 -3.98406 -1.46826 0
M  V30 476 O 43.4957 -3.36505 -1.16801 0
M  V30 477 O 42.3547 -5.07497 -2.02754 0
M  V30 478 H 39.4487 -0.754079 -0.33955 0
M  V30 479 H 41.9947 -1.69619 0.0524456 0
M  V30 480 H 40.7667 -3.90728 -0.211552 0
M  V30 481 H 40.3897 -3.50424 -1.87854 0
M  V30 482 N 41.3868 0.248026 -1.55636 0
M  V30 483 C 42.6348 0.974295 -1.77065 0
M  V30 484 C 42.9558 1.85897 -0.588849 0
M  V30 485 O 42.2258 1.91868 0.395407 0
M  V30 486 H 40.8058 0.362733 -0.653019 0
M  V30 487 H 43.4678 0.266244 -1.93073 0
M  V30 488 H 42.5638 1.59667 -2.68166 0
M  V30 489 N 42.8649 1.48995 0.513639 0
M  V30 490 C 44.1109 1.58076 1.27042 0
M  V30 491 C 44.4439 0.261026 1.92438 0
M  V30 492 O 43.7189 -0.734393 1.80103 0
M  V30 493 C 44.0019 2.73091 2.34719 0
M  V30 494 C 43.8549 4.14821 1.73907 0
M  V30 495 C 45.1739 2.83796 3.36375 0
M  V30 496 H 42.2929 0.575391 0.460536 0
M  V30 497 H 44.9349 1.81232 0.570516 0
M  V30 498 H 43.0849 2.53479 2.94416 0
M  V30 499 H 44.7569 4.45917 1.18135 0
M  V30 500 H 42.9999 4.21058 1.0437 0
M  V30 501 H 43.6709 4.91147 2.51949 0
M  V30 502 H 46.1469 3.01611 2.86653 0
M  V30 503 H 45.0229 3.65971 4.09093 0
M  V30 504 H 45.2839 1.92624 3.9793 0
M  V30 505 N 44.343 -0.763751 1.37857 0
M  V30 506 C 45.589 -1.52483 1.33704 0
M  V30 507 C 45.922 -1.94051 -0.0759612 0
M  V30 508 O 45.197 -1.64675 -1.03501 0
M  V30 509 C 45.48 -2.78441 2.28348 0
M  V30 510 C 45.333 -2.43075 3.78463 0
M  V30 511 C 46.652 -3.80415 2.21298 0
M  V30 512 H 43.771 -0.553169 0.487005 0
M  V30 513 H 46.413 -0.875562 1.68624 0
M  V30 514 H 44.563 -3.33842 1.987 0
M  V30 515 H 46.235 -1.93527 4.18742 0
M  V30 516 H 44.478 -1.75666 3.96641 0
M  V30 517 H 45.149 -3.33149 4.40132 0
M  V30 518 H 47.625 -3.34527 2.47449 0
M  V30 519 H 46.501 -4.66257 2.89647 0
M  V30 520 H 46.762 -4.25262 1.20849 0
M  V30 521 N 45.8211 -1.22559 -0.990812 0
M  V30 522 C 46.7531 -0.955325 -2.08342 0
M  V30 523 C 47.7661 0.0668408 -1.62663 0
M  V30 524 O 48.9551 -0.167421 -1.77713 0
M  V30 525 C 46.0551 -0.415566 -3.36342 0
M  V30 526 C 45.2281 -1.49544 -4.11042 0
M  V30 527 C 44.2871 -0.962399 -5.17324 0
M  V30 528 O 43.3131 -1.64907 -5.44788 0
M  V30 529 N 44.5151 0.215134 -5.80101 0
M  V30 530 H 47.2801 -1.89596 -2.32106 0
M  V30 531 H 44.8411 -1.13276 -1.15673 0
M  V30 532 H 46.8331 -0.0442386 -4.04676 0
M  V30 533 H 45.4031 0.430232 -3.09625 0
M  V30 534 H 44.6231 -2.04 -3.37309 0
M  V30 535 H 45.9111 -2.22195 -4.57719 0
M  V30 536 H 45.3091 0.789779 -5.6016 0
M  V30 537 H 43.8661 0.527826 -6.49659 0
M  V30 538 N 47.2992 1.18797 -1.03562 0
M  V30 539 C 48.5762 1.84469 -0.650434 0
M  V30 540 C 48.9562 1.92319 0.870433 0
M  V30 541 O 48.3042 1.44528 1.76986 0
M  V30 542 C 48.5142 3.2306 -1.32036 0
M  V30 543 C 49.8622 3.9915 -1.44792 0
M  V30 544 O 50.8862 3.32481 -1.27806 0
M  V30 545 O 49.7452 5.18587 -1.72423 0
M  V30 546 H 46.8392 0.795251 -0.226946 0
M  V30 547 H 49.3852 1.26231 -1.13419 0
M  V30 548 H 48.1572 3.1222 -2.3587 0
M  V30 549 H 47.7802 3.88949 -0.8249 0
M  V30 550 N 48.7773 0.814389 1.34928 0
M  V30 551 C 50.0543 0.321363 1.92942 0
M  V30 552 C 50.4343 -1.19014 1.74353 0
M  V30 553 O 49.7823 -1.99328 1.11716 0
M  V30 554 C 49.9923 0.741323 3.41036 0
M  V30 555 C 51.3403 0.735266 4.18185 0
M  V30 556 O 52.3643 0.68336 3.49584 0
M  V30 557 O 51.2233 0.800703 5.40602 0
M  V30 558 H 48.3173 0.0858893 0.822528 0
M  V30 559 H 50.8633 0.898609 1.43955 0
M  V30 560 H 49.6353 1.78276 3.4833 0
M  V30 561 H 49.2583 0.139307 3.97356 0
M  V30 562 N 50.2554 -1.46986 0.568584 0
M  V30 563 C 51.4834 -2.0683 0.0539956 0
M  V30 564 C 51.8984 -1.41953 -1.24478 0
M  V30 565 O 51.2554 -0.519933 -1.74937 0
M  V30 566 C 51.3064 -3.61254 -0.133362 0
M  V30 567 O 51.0274 -4.237 1.11399 0
M  V30 568 C 52.5284 -4.37992 -0.683927 0
M  V30 569 H 49.7484 -0.669058 0.0510141 0
M  V30 570 H 52.2924 -1.88824 0.785234 0
M  V30 571 H 50.4474 -3.78735 -0.81477 0
M  V30 572 H 50.8614 -5.16388 0.91888 0
M  V30 573 H 52.3354 -5.46684 -0.764263 0
M  V30 574 H 52.8124 -4.05058 -1.69778 0
M  V30 575 H 53.4184 -4.25283 -0.0378494 0
M  V30 576 N 51.7335 -0.305618 -1.54608 0
M  V30 577 C 53.1495 0.0476228 -1.59529 0
M  V30 578 C 53.3495 1.52025 -1.32252 0
M  V30 579 O 52.4055 2.27368 -1.09818 0
M  V30 580 C 53.7185 -0.354471 -2.98603 0
M  V30 581 C 55.2665 -0.303622 -3.11524 0
M  V30 582 C 55.7415 -0.680608 -4.52915 0
M  V30 583 N 57.2325 -0.63332 -4.5885 0
M  V30 584 C 57.9675 -0.897432 -5.66334 0
M  V30 585 N 57.4635 -1.22775 -6.81834 0
M  V30 586 N 59.2565 -0.824186 -5.56025 0
M  V30 587 H 51.4075 -1.2653 -1.70599 0
M  V30 588 H 53.6705 -0.513291 -0.797017 0
M  V30 589 H 53.3765 -1.3798 -3.23503 0
M  V30 590 H 53.2505 0.289568 -3.76087 0
M  V30 591 H 55.6375 0.712472 -2.8637 0
M  V30 592 H 55.7185 -0.982348 -2.36185 0
M  V30 593 H 55.3625 -1.69453 -4.78799 0
M  V30 594 H 55.2925 0.0202385 -5.26596 0
M  V30 595 H 57.7835 -0.389138 -3.75891 0
M  V30 596 H 58.0965 -1.41513 -7.59733 0
M  V30 597 H 56.4415 -1.26583 -6.83375 0
M  V30 598 H 59.6325 -0.565748 -4.64669 0
M  V30 599 H 59.8055 -1.03338 -6.39707 0
M  V30 600 N 53.2116 1.57565 -0.0334293 0
M  V30 601 C 54.4606 1.91155 0.643639 0
M  V30 602 C 54.7736 0.91192 1.73042 0
M  V30 603 O 55.9796 1.13923 2.46442 0
M  V30 604 C 54.4356 3.39443 1.1961 0
M  V30 605 C 54.0436 4.47774 0.142381 0
M  V30 606 C 55.7876 3.82094 1.84944 0
M  V30 607 C 53.6946 5.87162 0.706727 0
M  V30 608 H 52.6246 0.713368 0.244176 0
M  V30 609 H 55.2756 1.8323 -0.0994323 0
M  V30 610 H 53.6576 3.42313 1.99092 0
M  V30 611 H 54.8316 4.56469 -0.630296 0
M  V30 612 H 53.1466 4.14352 -0.412446 0
M  V30 613 H 55.7436 4.83591 2.2813 0
M  V30 614 H 56.0866 3.17386 2.69392 0
M  V30 615 H 56.6196 3.81665 1.12145 0
M  V30 616 H 53.3586 6.55424 -0.0997178 0
M  V30 617 H 52.8786 5.82064 1.44779 0
M  V30 618 H 54.5576 6.35866 1.19514 0
M  V30 619 N 54.6897 -0.239769 1.55765 0
M  V30 620 C 56.1057 -0.588624 1.48349 0
M  V30 621 C 56.3057 -1.88005 0.72502 0
M  V30 622 O 55.3617 -2.51186 0.257269 0
M  V30 623 C 56.6747 -0.68474 2.928 0
M  V30 624 C 58.2227 -0.77659 3.03213 0
M  V30 625 C 58.6977 -0.904207 4.48986 0
M  V30 626 N 60.1887 -0.968896 4.52953 0
M  V30 627 C 60.9237 -1.08703 5.63002 0
M  V30 628 N 60.4197 -1.17026 6.82845 0
M  V30 629 N 62.2127 -1.12074 5.50814 0
M  V30 630 H 54.3637 0.607911 2.03515 0
M  V30 631 H 56.6267 0.21083 0.924259 0
M  V30 632 H 56.3327 0.194284 3.51163 0
M  V30 633 H 56.2067 -1.55435 3.43686 0
M  V30 634 H 58.5937 -1.64606 2.44926 0
M  V30 635 H 58.6747 0.118315 2.55526 0
M  V30 636 H 58.3187 -0.0392633 5.07885 0
M  V30 637 H 58.2487 -1.81426 4.9436 0
M  V30 638 H 60.7397 -0.915633 3.6664 0
M  V30 639 H 61.0527 -1.25966 7.62465 0
M  V30 640 H 59.3977 -1.13971 6.85591 0
M  V30 641 H 62.5887 -1.05226 4.5612 0
M  V30 642 H 62.7617 -1.20936 6.36615 0
M  V30 643 N 56.1678 -1.49265 -0.50573 0
M  V30 644 C 57.1308 -1.65075 -1.59006 0
M  V30 645 C 58.1308 -0.522768 -1.52065 0
M  V30 646 O 59.3208 -0.789117 -1.55302 0
M  V30 647 C 56.4528 -1.64369 -2.98656 0
M  V30 648 H 57.6458 -2.61784 -1.46319 0
M  V30 649 H 55.1988 -1.38226 -0.729616 0
M  V30 650 H 55.9338 -0.692272 -3.16825 0
M  V30 651 H 55.7188 -2.46282 -3.05103 0
M  V30 652 H 57.2088 -1.78674 -3.77446 0
M  V30 653 N 57.6459 0.756429 -1.3826 0
M  V30 654 C 58.6089 1.85176 -1.35065 0
M  V30 655 C 59.6089 1.58818 -0.251703 0
M  V30 656 O 60.7989 1.66615 -0.508433 0
M  V30 657 C 57.9309 3.22596 -1.10201 0
M  V30 658 H 59.1239 1.89417 -2.3251 0
M  V30 659 H 56.6769 0.95783 -1.23512 0
M  V30 660 H 57.4119 3.24025 -0.133504 0
M  V30 661 H 57.1969 3.43122 -1.89762 0
M  V30 662 H 58.6869 4.02673 -1.10654 0
M  V30 663 N 59.124 1.23083 0.984299 0
M  V30 664 C 60.054 1.03292 2.09411 0
M  V30 665 C 61.035 -0.048923 1.7003 0
M  V30 666 O 62.22 0.114967 1.93859 0
M  V30 667 C 59.35 0.619155 3.41736 0
M  V30 668 C 58.304 1.64791 3.95004 0
M  V30 669 C 57.63 1.0897 5.23478 0
M  V30 670 C 58.93 3.03999 4.24714 0
M  V30 671 H 60.624 1.96119 2.26225 0
M  V30 672 H 58.17 0.944344 1.08711 0
M  V30 673 H 60.123 0.467777 4.18796 0
M  V30 674 H 58.847 -0.344786 3.24775 0
M  V30 675 H 57.506 1.78721 3.20085 0
M  V30 676 H 57.154 0.11686 5.02864 0
M  V30 677 H 56.854 1.77704 5.60085 0
M  V30 678 H 58.378 0.950093 6.03163 0
M  V30 679 H 59.792 2.93393 4.92538 0
M  V30 680 H 58.189 3.69936 4.72512 0
M  V30 681 H 59.259 3.53285 3.32142 0
M  V30 682 N 60.6021 -1.18246 1.0419 0
M  V30 683 C 62.0131 -1.69914 0.773698 0
M  V30 684 C 62.3641 -1.83085 -0.705297 0
M  V30 685 O 61.4891 -1.51123 -1.5489 0
M  V30 686 C 62.0841 -3.08619 1.39784 0
M  V30 687 C 60.6431 -3.57494 1.17792 0
M  V30 688 C 59.7901 -2.34013 1.48773 0
M  V30 689 H 62.7411 -1.02904 1.20816 0
M  V30 690 H 62.7621 -3.71958 0.801714 0
M  V30 691 H 62.2741 -2.99001 2.47426 0
M  V30 692 H 60.3751 -3.72406 0.120295 0
M  V30 693 H 60.4881 -4.40852 1.87581 0
M  V30 694 H 58.8521 -2.37986 0.907463 0
M  V30 695 H 59.6351 -2.27013 2.57527 0
M  V30 696 N 62.0802 -0.821533 -1.34494 0
M  V30 697 C 63.3082 -0.421884 -2.02553 0
M  V30 698 C 63.7232 0.971745 -1.61872 0
M  V30 699 O 63.0802 1.62864 -0.823496 0
M  V30 700 C 63.1312 -0.51285 -3.57844 0
M  V30 701 O 62.8522 -1.85155 -3.97051 0
M  V30 702 C 64.3532 -0.107921 -4.43169 0
M  V30 703 H 61.5732 -0.169482 -0.649243 0
M  V30 704 H 64.1172 -1.1093 -1.71798 0
M  V30 705 H 62.2722 0.126474 -3.87193 0
M  V30 706 H 62.6862 -1.82482 -4.91732 0
M  V30 707 H 64.1602 -0.222657 -5.51551 0
M  V30 708 H 64.6372 0.948401 -4.28838 0
M  V30 709 H 65.2432 -0.720989 -4.19144 0
M  V30 710 N 63.5583 1.46682 -0.576371 0
M  V30 711 C 64.8073 2.01619 -0.0572825 0
M  V30 712 C 65.1203 1.45417 1.30818 0
M  V30 713 O 66.3263 1.92133 1.91825 0
M  V30 714 C 64.7823 3.59863 -0.0518371 0
M  V30 715 C 64.3903 4.25059 -1.41523 0
M  V30 716 C 66.1343 4.2248 0.413639 0
M  V30 717 C 64.0413 5.75364 -1.36785 0
M  V30 718 H 62.9713 0.753794 -0.0176448 0
M  V30 719 H 65.6223 1.68481 -0.727076 0
M  V30 720 H 64.0043 3.90048 0.683994 0
M  V30 721 H 65.1783 4.06491 -2.17029 0
M  V30 722 H 63.4933 3.7451 -1.8202 0
M  V30 723 H 66.0903 5.3265 0.467779 0
M  V30 724 H 66.4333 3.90976 1.42982 0
M  V30 725 H 66.9663 3.96897 -0.267929 0
M  V30 726 H 63.7053 6.11518 -2.36063 0
M  V30 727 H 63.2253 5.96214 -0.654895 0
M  V30 728 H 64.9043 6.37955 -1.07805 0
M  V30 729 N 65.0364 0.313813 1.54444 0
M  V30 730 C 65.9834 -0.55655 2.23989 0
M  V30 731 C 66.9534 -1.11943 1.22711 0
M  V30 732 O 68.1384 -1.16158 1.51367 0
M  V30 733 C 65.2784 -1.71635 2.99392 0
M  V30 734 C 64.3914 -1.18364 4.15468 0
M  V30 735 C 63.5264 -2.30834 4.78424 0
M  V30 736 C 62.5654 -1.74762 5.86622 0
M  V30 737 N 61.7024 -2.80855 6.43479 0
M  V30 738 H 66.5424 0.0430893 2.97969 0
M  V30 739 H 64.0794 0.0330359 1.47063 0
M  V30 740 H 66.0374 -2.39868 3.41349 0
M  V30 741 H 64.6674 -2.28742 2.27765 0
M  V30 742 H 63.7194 -0.393163 3.78363 0
M  V30 743 H 65.0314 -0.733262 4.93381 0
M  V30 744 H 64.1854 -3.0699 5.23299 0
M  V30 745 H 62.9244 -2.79204 3.99871 0
M  V30 746 H 61.9294 -0.970995 5.41158 0
M  V30 747 H 63.1544 -1.2728 6.67066 0
M  V30 748 H 61.1004 -3.28535 5.67804 0
M  V30 749 H 61.0174 -2.40351 7.16776 0
M  V30 750 H 62.2854 -3.5687 6.93011 0
M  V30 751 N 66.5145 -1.57545 0.0417849 0
M  V30 752 C 67.7445 -1.96339 -0.642995 0
M  V30 753 C 68.1525 -0.917536 -1.65463 0
M  V30 754 O 67.4955 0.107747 -1.83384 0
M  V30 755 C 67.5575 -3.31333 -1.39494 0
M  V30 756 C 67.2215 -4.53796 -0.540204 0
M  V30 757 C 68.2185 -5.19553 0.189806 0
M  V30 758 C 65.9035 -5.0006 -0.473886 0
M  V30 759 C 67.8975 -6.29904 0.974674 0
M  V30 760 C 65.5845 -6.10289 0.314677 0
M  V30 761 C 66.5825 -6.75072 1.03765 0
M  V30 762 O 66.2705 -7.83183 1.81327 0
M  V30 763 H 66.0025 -0.651241 -0.181277 0
M  V30 764 H 68.5565 -2.05148 0.101665 0
M  V30 765 H 66.7865 -3.19052 -2.18502 0
M  V30 766 H 68.4755 -3.54942 -1.96904 0
M  V30 767 H 69.2415 -4.84774 0.147981 0
M  V30 768 H 65.1205 -4.49433 -1.0262 0
M  V30 769 H 68.6645 -6.80401 1.5395 0
M  V30 770 H 64.5615 -6.44506 0.358174 0
M  V30 771 H 65.3295 -7.99913 1.73438 0
M  V30 772 N 67.9926 0.231505 -1.5589 0
M  V30 773 C 68.9556 1.27028 -1.90779 0
M  V30 774 C 69.9556 1.40308 -0.785507 0
M  V30 775 O 71.1456 1.38744 -1.05336 0
M  V30 776 C 68.2776 2.64566 -2.14983 0
M  V30 777 H 69.4706 0.973017 -2.83677 0
M  V30 778 H 67.0236 0.471486 -1.49019 0
M  V30 779 H 67.7586 2.99406 -1.24604 0
M  V30 780 H 67.5436 2.56305 -2.96732 0
M  V30 781 H 69.0336 3.39543 -2.43105 0
M  V30 782 N 69.4707 1.49531 0.497807 0
M  V30 783 C 70.4007 1.6935 1.60757 0
M  V30 784 C 71.3817 0.542218 1.61227 0
M  V30 785 O 72.5667 0.778417 1.77917 0
M  V30 786 C 69.6967 1.76298 2.99226 0
M  V30 787 C 68.6507 2.91248 3.13622 0
M  V30 788 C 67.9767 2.83312 4.53474 0
M  V30 789 C 69.2767 4.3214 2.93346 0
M  V30 790 H 70.9707 2.62263 1.44425 0
M  V30 791 H 68.5167 1.26208 0.693367 0
M  V30 792 H 70.4697 1.88749 3.76765 0
M  V30 793 H 69.1937 0.799871 3.16654 0
M  V30 794 H 67.8527 2.78404 2.38509 0
M  V30 795 H 67.5007 1.84902 4.67782 0
M  V30 796 H 67.2007 3.60465 4.64046 0
M  V30 797 H 68.7247 2.97775 5.33069 0
M  V30 798 H 70.1387 4.45649 3.60652 0
M  V30 799 H 68.5357 5.1054 3.15387 0
M  V30 800 H 69.6057 4.46363 1.89441 0
M  V30 801 N 70.9488 -0.749086 1.3866 0
M  V30 802 C 71.8588 -1.89358 1.38494 0
M  V30 803 C 72.8748 -1.71708 0.281476 0
M  V30 804 O 74.0508 -1.94554 0.520643 0
M  V30 805 C 71.1158 -3.24782 1.21316 0
M  V30 806 C 70.1768 -3.54926 2.41508 0
M  V30 807 C 69.4098 -4.83888 2.2514 0
M  V30 808 O 69.6328 -5.56592 1.24746 0
M  V30 809 O 68.5668 -5.13612 3.13826 0
M  V30 810 H 72.3928 -1.92452 2.34938 0
M  V30 811 H 69.9778 -0.894981 1.19626 0
M  V30 812 H 71.8598 -4.05739 1.13814 0
M  V30 813 H 70.5348 -3.2249 0.279592 0
M  V30 814 H 69.4418 -2.74112 2.54585 0
M  V30 815 H 70.7748 -3.61983 3.3351 0
M  V30 816 N 72.4269 -1.23603 -0.977757 0
M  V30 817 C 73.3589 -0.977369 -2.07317 0
M  V30 818 C 74.3719 0.0495845 -1.62724 0
M  V30 819 O 75.5609 -0.186261 -1.77526 0
M  V30 820 C 72.6609 -0.451216 -3.35883 0
M  V30 821 C 71.8339 -1.53896 -4.09432 0
M  V30 822 C 70.8929 -1.01721 -5.16274 0
M  V30 823 O 69.9189 -1.70676 -5.43009 0
M  V30 824 N 71.1209 0.153594 -5.80297 0
M  V30 825 H 73.8859 -1.92047 -2.30082 0
M  V30 826 H 71.4469 -1.14497 -1.14465 0
M  V30 827 H 73.4389 -0.0871574 -4.04606 0
M  V30 828 H 72.0089 0.397368 -3.10064 0
M  V30 829 H 71.2289 -2.07566 -3.35127 0
M  V30 830 H 72.5169 -2.27037 -4.55337 0
M  V30 831 H 71.9149 0.730323 -5.60966 0
M  V30 832 H 70.4719 0.458892 -6.50183 0
M  V30 833 N 73.905 1.17692 -1.04816 0
M  V30 834 C 75.153 1.87488 -0.754497 0
M  V30 835 C 75.474 1.81205 0.720407 0
M  V30 836 O 74.744 1.23544 1.52032 0
M  V30 837 H 73.324 0.694101 -0.276102 0
M  V30 838 H 75.986 1.42793 -1.32651 0
M  V30 839 H 75.082 2.93328 -1.06606 0
M  V30 840 N 75.3831 0.828654 1.34056 0
M  V30 841 C 76.3461 0.259927 2.27721 0
M  V30 842 C 77.3461 -0.565478 1.50529 0
M  V30 843 O 78.5361 -0.38075 1.69988 0
M  V30 844 C 75.6681 -0.634944 3.34935 0
M  V30 845 H 76.8611 1.0863 2.79534 0
M  V30 846 H 74.4141 0.600951 1.44285 0
M  V30 847 H 75.1491 -1.48416 2.88346 0
M  V30 848 H 74.9341 -0.0444999 3.92075 0
M  V30 849 H 76.4241 -1.02648 4.04788 0
M  V30 850 N 76.8612 -1.46375 0.584142 0
M  V30 851 C 77.8082 -2.30323 -0.148286 0
M  V30 852 C 78.7782 -1.40703 -0.882713 0
M  V30 853 O 79.9632 -1.69651 -0.873099 0
M  V30 854 C 77.1032 -3.25196 -1.15507 0
M  V30 855 C 76.2162 -4.29915 -0.423943 0
M  V30 856 C 75.3512 -5.11914 -1.41838 0
M  V30 857 C 74.3902 -6.08381 -0.673736 0
M  V30 858 N 73.5272 -6.83242 -1.6163 0
M  V30 859 H 78.3672 -2.92427 0.573644 0
M  V30 860 H 75.9042 -1.44118 0.294703 0
M  V30 861 H 77.8622 -3.78646 -1.75166 0
M  V30 862 H 76.4922 -2.64898 -1.8447 0
M  V30 863 H 75.5442 -3.7931 0.287714 0
M  V30 864 H 76.8562 -4.98549 0.158128 0
M  V30 865 H 76.0102 -5.69648 -2.08773 0
M  V30 866 H 74.7492 -4.43243 -2.03438 0
M  V30 867 H 73.7542 -5.49799 0.00938483 0
M  V30 868 H 74.9792 -6.79071 -0.0631082 0
M  V30 869 H 72.9252 -6.1728 -2.22038 0
M  V30 870 H 72.8422 -7.48144 -1.08707 0
M  V30 871 H 74.1102 -7.45534 -2.27596 0
M  V30 872 N 78.3393 -0.321999 -1.54275 0
M  V30 873 C 79.5853 0.281461 -2.00837 0
M  V30 874 C 79.9183 1.51909 -1.20985 0
M  V30 875 O 79.1933 1.923 -0.291733 0
M  V30 876 C 79.4763 0.617162 -3.54772 0
M  V30 877 C 79.3293 -0.631064 -4.45351 0
M  V30 878 C 80.6483 1.43542 -4.16033 0
M  V30 879 H 77.7673 0.100826 -0.730071 0
M  V30 880 H 80.4093 -0.438268 -1.84876 0
M  V30 881 H 78.5593 1.23034 -3.68504 0
M  V30 882 H 80.2313 -1.26934 -4.43492 0
M  V30 883 H 78.4743 -1.26025 -4.15091 0
M  V30 884 H 79.1453 -0.351735 -5.50878 0
M  V30 885 H 81.6213 0.917134 -4.05867 0
M  V30 886 H 80.4973 1.63907 -5.23856 0
M  V30 887 H 80.7583 2.43108 -3.69257 0
M  V30 888 N 79.8174 1.5752 -0.0501392 0
M  V30 889 C 81.0664 1.91827 0.623328 0
M  V30 890 C 81.3794 0.930222 1.72065 0
M  V30 891 O 82.5854 1.1653 2.4522 0
M  V30 892 C 81.0414 3.40692 1.16003 0
M  V30 893 C 80.6494 4.479 0.0948811 0
M  V30 894 C 82.3934 3.84034 1.80881 0
M  V30 895 C 80.3004 5.87879 0.644411 0
M  V30 896 H 79.2304 0.715918 0.236596 0
M  V30 897 H 81.8814 1.83115 -0.118861 0
M  V30 898 H 80.2634 3.44405 1.9545 0
M  V30 899 H 81.4374 4.55775 -0.678675 0
M  V30 900 H 79.7524 4.13892 -0.45637 0
M  V30 901 H 82.3494 4.85984 2.22988 0
M  V30 902 H 82.6924 3.20225 2.6601 0
M  V30 903 H 83.2254 3.82833 1.0809 0
M  V30 904 H 79.9644 6.55282 -0.169229 0
M  V30 905 H 79.4844 5.83567 1.38598 0
M  V30 906 H 81.1634 6.37098 1.12763 0
M  V30 907 N 81.2955 -0.223234 1.56011 0
M  V30 908 C 82.2255 -1.27988 1.95298 0
M  V30 909 C 83.2065 -1.48976 0.820979 0
M  V30 910 O 84.3915 -1.61188 1.08315 0
M  V30 911 C 81.5215 -2.63 2.26822 0
M  V30 912 C 80.4755 -2.56671 3.42497 0
M  V30 913 C 79.8015 -3.95697 3.59622 0
M  V30 914 C 81.1015 -2.11601 4.77517 0
M  V30 915 H 82.7955 -0.953525 2.8381 0
M  V30 916 H 80.3415 -0.457244 1.36548 0
M  V30 917 H 82.2945 -3.37077 2.52898 0
M  V30 918 H 81.0185 -2.9732 1.35161 0
M  V30 919 H 79.6775 -1.85051 3.16467 0
M  V30 920 H 79.3255 -4.27322 2.6534 0
M  V30 921 H 79.0255 -3.92345 4.37424 0
M  V30 922 H 80.5495 -4.71438 3.88044 0
M  V30 923 H 81.9635 -2.7542 5.02809 0
M  V30 924 H 80.3605 -2.19311 5.5859 0
M  V30 925 H 81.4305 -1.06824 4.72987 0
M  V30 926 N 82.7736 -1.49793 -0.48987 0
M  V30 927 C 83.7036 -1.70201 -1.59856 0
M  V30 928 C 84.6846 -0.55076 -1.60937 0
M  V30 929 O 85.8696 -0.787841 -1.77501 0
M  V30 930 C 82.9996 -1.77882 -2.98287 0
M  V30 931 C 81.9536 -2.92907 -3.12073 0
M  V30 932 C 81.2796 -2.85712 -4.51965 0
M  V30 933 C 82.5796 -4.3369 -2.91051 0
M  V30 934 H 84.2736 -2.63025 -1.43032 0
M  V30 935 H 81.8196 -1.26574 -0.686664 0
M  V30 936 H 83.7726 -1.90744 -3.75759 0
M  V30 937 H 82.4966 -0.816653 -3.16225 0
M  V30 938 H 81.1556 -2.79665 -2.37029 0
M  V30 939 H 80.8036 -1.8738 -4.66795 0
M  V30 940 H 80.5036 -3.62921 -4.62128 0
M  V30 941 H 82.0276 -3.00598 -5.31482 0
M  V30 942 H 83.4416 -4.47555 -3.58284 0
M  V30 943 H 81.8386 -5.12205 -3.12675 0
M  V30 944 H 82.9086 -4.47362 -1.87071 0
M  V30 945 N 84.2517 0.741722 -1.39055 0
M  V30 946 C 85.4767 1.53607 -1.39354 0
M  V30 947 C 85.9017 1.88096 0.0116905 0
M  V30 948 O 85.2597 1.5143 0.996924 0
M  V30 949 C 85.3077 2.80441 -2.26682 0
M  V30 950 O 84.4117 3.76088 -1.69208 0
M  V30 951 H 83.7527 0.464142 -0.474835 0
M  V30 952 H 86.2827 0.915665 -1.82967 0
M  V30 953 H 86.2927 3.29246 -2.40959 0
M  V30 954 H 84.9677 2.5467 -3.2881 0
M  V30 955 H 83.5447 3.34833 -1.64138 0
M  V30 956 N 85.7298 1.2412 0.971189 0
M  V30 957 C 86.6798 0.997551 2.05019 0
M  V30 958 C 87.6638 -0.0597747 1.60789 0
M  V30 959 O 88.8558 0.153516 1.76333 0
M  V30 960 C 85.9848 0.600557 3.38006 0
M  V30 961 C 85.0708 1.69377 3.88809 0
M  V30 962 N 85.4618 2.92586 4.12586 0
M  V30 963 C 83.7598 1.57048 4.17435 0
M  V30 964 C 84.4608 3.63431 4.54195 0
M  V30 965 N 83.4368 2.90979 4.59165 0
M  V30 966 H 87.2388 1.93316 2.21374 0
M  V30 967 H 84.7528 1.14194 1.1547 0
M  V30 968 H 86.7498 0.40725 4.14906 0
M  V30 969 H 85.4098 -0.327903 3.2304 0
M  V30 970 H 86.4208 3.288 4.00139 0
M  V30 971 H 83.0978 0.709798 4.11422 0
M  V30 972 H 84.4878 4.69102 4.81033 0
M  V30 973 N 87.2079 -1.17134 1.05439 0
M  V30 974 C 88.1379 -2.2342 0.678649 0
M  V30 975 C 89.1189 -1.66971 -0.32476 0
M  V30 976 O 90.3039 -1.93149 -0.201802 0
M  V30 977 C 87.4339 -3.47256 0.0552099 0
M  V30 978 C 86.3879 -4.16543 0.98365 0
M  V30 979 C 85.7139 -5.34231 0.223961 0
M  V30 980 C 87.0139 -4.68495 2.3089 0
M  V30 981 H 88.7079 -2.55105 1.56722 0
M  V30 982 H 86.2539 -1.2262 0.754998 0
M  V30 983 H 88.2069 -4.20828 -0.21946 0
M  V30 984 H 86.9309 -3.14846 -0.868319 0
M  V30 985 H 85.5899 -3.44887 1.24293 0
M  V30 986 H 85.2379 -4.98071 -0.702412 0
M  V30 987 H 84.9379 -5.81527 0.842627 0
M  V30 988 H 86.4619 -6.10585 -0.0433671 0
M  V30 989 H 87.8759 -5.33691 2.09396 0
M  V30 990 H 86.2729 -5.26379 2.88176 0
M  V30 991 H 87.3429 -3.85169 2.94572 0
M  V30 992 N 88.686 -0.835752 -1.33615 0
M  V30 993 C 89.934 -0.429109 -1.97492 0
M  V30 994 C 90.255 1.01433 -1.66543 0
M  V30 995 O 89.525 1.70611 -0.962744 0
M  V30 996 H 88.105 -0.155686 -0.730596 0
M  V30 997 H 90.767 -1.06802 -1.63031 0
M  V30 998 H 89.863 -0.55861 -3.0706 0
M  V30 999 N 90.1641 1.46063 -0.591896 0
M  V30 1000 C 91.5801 1.57561 -0.254288 0
M  V30 1001 C 91.7801 1.58565 1.24336 0
M  V30 1002 O 90.8361 1.50753 2.02558 0
M  V30 1003 C 92.1491 2.86549 -0.911611 0
M  V30 1004 C 93.6971 3.00197 -0.886059 0
M  V30 1005 C 94.1721 4.31933 -1.5231 0
M  V30 1006 N 95.6631 4.38654 -1.48786 0
M  V30 1007 C 96.3981 5.39222 -1.95006 0
M  V30 1008 N 95.8941 6.46414 -2.49241 0
M  V30 1009 N 97.6871 5.3048 -1.85868 0
M  V30 1010 H 89.8381 1.43655 -1.56451 0
M  V30 1011 H 92.1011 0.68583 -0.654478 0
M  V30 1012 H 91.8071 2.91651 -1.96551 0
M  V30 1013 H 91.6811 3.74794 -0.425368 0
M  V30 1014 H 94.0681 2.9467 0.159246 0
M  V30 1015 H 94.1491 2.13403 -1.41041 0
M  V30 1016 H 93.7931 4.38217 -2.56765 0
M  V30 1017 H 93.7231 5.17516 -0.973891 0
M  V30 1018 H 96.2141 3.61793 -1.09151 0
M  V30 1019 H 96.5271 7.19376 -2.82344 0
M  V30 1020 H 94.8721 6.47208 -2.53272 0
M  V30 1021 H 98.0631 4.45643 -1.43248 0
M  V30 1022 H 98.2361 6.08711 -2.22204 0
M  V30 1023 N 91.6422 0.330177 1.54103 0
M  V30 1024 C 93.0532 -0.15652 1.86043 0
M  V30 1025 C 93.4042 -1.51086 1.2517 0
M  V30 1026 O 92.5292 -2.09023 0.560217 0
M  V30 1027 C 93.1242 -0.290784 3.3755 0
M  V30 1028 C 91.6832 -0.721705 3.69416 0
M  V30 1029 C 90.8302 0.152622 2.7688 0
M  V30 1030 H 93.7812 0.550237 1.48856 0
M  V30 1031 H 93.8022 -1.12058 3.63625 0
M  V30 1032 H 93.3142 0.695068 3.81825 0
M  V30 1033 H 91.4152 -1.71706 3.30678 0
M  V30 1034 H 91.5282 -0.520869 4.7626 0
M  V30 1035 H 89.8922 -0.372894 2.51956 0
M  V30 1036 H 90.6752 1.13536 3.23982 0
M  V30 1037 N 93.1203 -1.57491 0.0584922 0
M  V30 1038 C 94.0673 -2.11958 -0.913376 0
M  V30 1039 C 95.0373 -1.02875 -1.30407 0
M  V30 1040 O 96.2223 -1.30464 -1.39226 0
M  V30 1041 C 93.3623 -2.67497 -2.18035 0
M  V30 1042 C 92.4753 -3.90691 -1.84349 0
M  V30 1043 C 91.6103 -4.3452 -3.05559 0
M  V30 1044 C 90.6493 -5.50395 -2.67827 0
M  V30 1045 N 89.7863 -5.89244 -3.81754 0
M  V30 1046 H 94.6263 -2.94704 -0.442017 0
M  V30 1047 H 92.1633 -1.45643 -0.206545 0
M  V30 1048 H 94.1213 -2.978 -2.92183 0
M  V30 1049 H 92.7513 -1.87537 -2.62735 0
M  V30 1050 H 91.8033 -3.66934 -1.00319 0
M  V30 1051 H 93.1153 -4.7489 -1.5258 0
M  V30 1052 H 92.2693 -4.66414 -3.87998 0
M  V30 1053 H 91.0083 -3.49147 -3.40511 0
M  V30 1054 H 90.0133 -5.18165 -1.83806 0
M  V30 1055 H 91.2383 -6.3749 -2.34059 0
M  V30 1056 H 89.1843 -5.06823 -4.16493 0
M  V30 1057 H 89.1013 -6.68151 -3.53708 0
M  V30 1058 H 90.3693 -6.25756 -4.64811 0
M  V30 1059 N 94.5984 0.214957 -1.56127 0
M  V30 1060 C 95.8464 0.936518 -1.79091 0
M  V30 1061 C 96.1674 1.84606 -0.628148 0
M  V30 1062 O 95.4374 1.92664 0.35462 0
M  V30 1063 H 94.0174 0.3488 -0.660566 0
M  V30 1064 H 96.6794 0.22523 -1.93594 0
M  V30 1065 H 95.7754 1.53943 -2.71492 0
M  V30 1066 N 96.0765 1.50051 0.48192 0
M  V30 1067 C 96.9865 1.7089 1.60728 0
M  V30 1068 C 98.0025 0.591788 1.63627 0
M  V30 1069 O 99.1785 0.868817 1.81696 0
M  V30 1070 C 96.2435 1.78855 2.97005 0
M  V30 1071 C 95.3045 3.02537 3.04581 0
M  V30 1072 C 94.5375 3.10112 4.34357 0
M  V30 1073 O 94.7605 2.24765 5.24249 0
M  V30 1074 O 93.6945 4.02747 4.47301 0
M  V30 1075 H 97.5205 2.66264 1.46072 0
M  V30 1076 H 95.1055 1.34018 0.660264 0
M  V30 1077 H 96.9875 1.86336 3.77964 0
M  V30 1078 H 95.6625 0.866628 3.11883 0
M  V30 1079 H 94.5695 3.00563 2.22739 0
M  V30 1080 H 95.9025 3.94272 2.94636 0
M  V30 1081 N 97.5546 -0.734337 1.39446 0
M  V30 1082 C 98.9656 -1.31264 1.32766 0
M  V30 1083 C 99.3166 -1.96198 -0.00767497 0
M  V30 1084 O 98.4416 -1.96346 -0.909796 0
M  V30 1085 C 99.0366 -2.38682 2.4045 0
M  V30 1086 C 97.5956 -2.92184 2.37288 0
M  V30 1087 C 96.7426 -1.6576 2.22304 0
M  V30 1088 H 99.6936 -0.531799 1.49525 0
M  V30 1089 H 99.7146 -3.19087 2.07276 0
M  V30 1090 H 99.2266 -1.91392 3.37625 0
M  V30 1091 H 97.3276 -3.43752 1.43754 0
M  V30 1092 H 97.4406 -3.45253 3.3217 0
M  V30 1093 H 95.8046 -1.9012 1.69489 0
M  V30 1094 H 96.5876 -1.20521 3.21449 0
M  V30 1095 N 99.0327 -1.24633 -0.964593 0
M  V30 1096 C 100.258 -1.11596 -1.74818 0
M  V30 1097 C 100.683 0.32723 -1.85232 0
M  V30 1098 O 100.041 1.23695 -1.32549 0
M  V30 1099 C 100.089 -1.76397 -3.1451 0
M  V30 1100 O 99.1927 -1.03685 -3.99153 0
M  V30 1101 H 98.5337 -0.390196 -0.537255 0
M  V30 1102 H 101.064 -1.65002 -1.20977 0
M  V30 1103 H 101.074 -1.8228 -3.65018 0
M  V30 1104 H 99.7487 -2.81401 -3.06246 0
M  V30 1105 H 98.3257 -1.05611 -3.57632 0
M  V30 1106 N 100.511 1.16574 -1.06058 0
M  V30 1107 C 101.922 1.68662 -0.800632 0
M  V30 1108 C 102.273 1.84184 0.67608 0
M  V30 1109 O 101.398 1.53568 1.52466 0
M  V30 1110 C 101.993 3.06356 -1.44676 0
M  V30 1111 C 100.552 3.55575 -1.23465 0
M  V30 1112 C 99.6988 2.31616 -1.52477 0
M  V30 1113 H 102.65 1.00969 -1.22438 0
M  V30 1114 H 102.671 3.70636 -0.860788 0
M  V30 1115 H 102.183 2.95027 -2.52152 0
M  V30 1116 H 100.284 3.72167 -0.179527 0
M  V30 1117 H 100.397 4.37812 -1.94571 0
M  V30 1118 H 98.7608 2.36512 -0.945209 0
M  V30 1119 H 99.5438 2.22887 -2.61106 0
M  V30 1120 N 101.989 0.842826 1.3317 0
M  V30 1121 C 102.899 0.281444 2.32906 0
M  V30 1122 C 103.915 -0.594587 1.63526 0
M  V30 1123 O 105.091 -0.49777 1.95152 0
M  V30 1124 C 102.156 -0.530929 3.42611 0
M  V30 1125 C 101.217 0.369843 4.27704 0
M  V30 1126 C 100.45 -0.403853 5.3217 0
M  V30 1127 O 100.673 -1.63513 5.46461 0
M  V30 1128 O 99.6069 0.224199 6.01482 0
M  V30 1129 H 103.433 1.10744 2.82789 0
M  V30 1130 H 101.018 0.60545 1.36582 0
M  V30 1131 H 102.9 -0.992437 4.09547 0
M  V30 1132 H 101.575 -1.33392 2.94938 0
M  V30 1133 H 100.482 0.879275 3.6362 0
M  V30 1134 H 101.815 1.13771 4.78871 0
M  V30 1135 N 103.467 -1.45747 0.599634 0
M  V30 1136 C 104.714 -2.02292 0.0917284 0
M  V30 1137 C 105.042 -1.46906 -1.27472 0
M  V30 1138 O 104.297 -0.630652 -1.8526 0
M  V30 1139 C 104.596 -3.57399 -0.00602758 0
M  V30 1140 C 104.262 -4.31902 1.29503 0
M  V30 1141 C 102.924 -4.51974 1.65144 0
M  V30 1142 C 105.276 -4.74551 2.15525 0
M  V30 1143 C 102.604 -5.11949 2.86574 0
M  V30 1144 C 104.956 -5.35868 3.36196 0
M  V30 1145 C 103.62 -5.54165 3.72099 0
M  V30 1146 H 102.89 -0.740239 0.0335658 0
M  V30 1147 H 105.537 -1.7491 0.779661 0
M  V30 1148 H 103.842 -3.84014 -0.777183 0
M  V30 1149 H 105.539 -3.98846 -0.415038 0
M  V30 1150 H 102.129 -4.16588 1.00761 0
M  V30 1151 H 106.313 -4.58784 1.8929 0
M  V30 1152 H 101.569 -5.24305 3.14507 0
M  V30 1153 H 105.743 -5.6787 4.03109 0
M  V30 1154 H 103.37 -6.00406 4.6628 0
M  V30 1155 N 104.945 -0.338344 -1.53925 0
M  V30 1156 C 106.17 0.263987 -2.05713 0
M  V30 1157 C 106.595 1.43847 -1.21201 0
M  V30 1158 O 105.953 1.79904 -0.224535 0
M  V30 1159 C 106.001 0.662 -3.54471 0
M  V30 1160 O 105.105 1.76265 -3.72833 0
M  V30 1161 H 104.446 0.0448722 -0.662482 0
M  V30 1162 H 106.976 -0.491048 -1.9862 0
M  V30 1163 H 106.986 0.940594 -3.9701 0
M  V30 1164 H 105.661 -0.196937 -4.15433 0
M  V30 1165 H 104.238 1.48173 -3.42198 0
M  V30 1166 N 106.423 1.57458 -0.0668435 0
M  V30 1167 C 107.353 2.15468 0.899764 0
M  V30 1168 C 108.334 1.08042 1.31381 0
M  V30 1169 O 109.519 1.36054 1.38574 0
M  V30 1170 C 106.649 2.71232 2.16911 0
M  V30 1171 C 105.603 3.83781 1.89463 0
M  V30 1172 C 104.929 4.26127 3.22986 0
M  V30 1173 C 106.229 5.08238 1.20381 0
M  V30 1174 H 107.923 2.96488 0.416529 0
M  V30 1175 H 105.469 1.4262 0.198908 0
M  V30 1176 H 107.422 3.10458 2.84945 0
M  V30 1177 H 106.146 1.87426 2.67468 0
M  V30 1178 H 104.805 3.45051 1.23836 0
M  V30 1179 H 104.453 3.39249 3.71374 0
M  V30 1180 H 104.153 5.01993 3.05413 0
M  V30 1181 H 105.677 4.67966 3.92225 0
M  V30 1182 H 107.091 5.44811 1.78475 0
M  V30 1183 H 105.488 5.89349 1.13083 0
M  V30 1184 H 106.558 4.84558 0.182153 0
M  V30 1185 N 107.901 -0.206675 1.56239 0
M  V30 1186 C 108.864 -1.23976 1.92776 0
M  V30 1187 C 109.864 -1.39041 0.807729 0
M  V30 1188 O 111.054 -1.37051 1.0753 0
M  V30 1189 C 108.186 -2.61112 2.19165 0
M  V30 1190 H 109.379 -0.927764 2.85189 0
M  V30 1191 H 106.932 -0.447718 1.4975 0
M  V30 1192 H 107.667 -2.97386 1.29352 0
M  V30 1193 H 107.452 -2.51552 3.00772 0
M  V30 1194 H 108.942 -3.35633 2.48476 0
M  V30 1195 N 109.379 -1.50304 -0.473955 0
M  V30 1196 C 110.79 -1.54042 -1.0549 0
M  V30 1197 C 111.141 -0.342248 -1.93192 0
M  V30 1198 O 110.266 0.545157 -2.09421 0
M  V30 1199 C 110.861 -2.79152 -1.91989 0
M  V30 1200 C 109.42 -2.8558 -2.45196 0
M  V30 1201 C 108.567 -2.48295 -1.2347 0
M  V30 1202 H 111.518 -1.5661 -0.256693 0
M  V30 1203 H 111.539 -2.60845 -2.7702 0
M  V30 1204 H 111.051 -3.66339 -1.28131 0
M  V30 1205 H 109.152 -2.02738 -3.12615 0
M  V30 1206 H 109.265 -3.88403 -2.80499 0
M  V30 1207 H 107.629 -2.00669 -1.56856 0
M  V30 1208 H 108.412 -3.37787 -0.612789 0
M  V30 1209 N 110.857 0.726932 -1.39834 0
M  V30 1210 C 112.103 1.48884 -1.377 0
M  V30 1211 C 112.436 1.94185 0.0244852 0
M  V30 1212 O 111.711 1.67361 0.990986 0
M  V30 1213 C 111.994 2.72288 -2.3565 0
M  V30 1214 C 111.847 2.32956 -3.84775 0
M  V30 1215 C 113.166 3.74414 -2.31306 0
M  V30 1216 H 110.285 0.540062 -0.5015 0
M  V30 1217 H 112.927 0.830547 -1.70886 0
M  V30 1218 H 111.077 3.28457 -2.07481 0
M  V30 1219 H 112.749 1.82356 -4.23726 0
M  V30 1220 H 110.992 1.65088 -4.01159 0
M  V30 1221 H 111.663 3.21362 -4.4881 0
M  V30 1222 H 114.139 3.27849 -2.56231 0
M  V30 1223 H 113.015 4.58414 -3.01907 0
M  V30 1224 H 113.276 4.21909 -1.32081 0
M  V30 1225 N 112.336 1.25143 0.95797 0
M  V30 1226 C 113.299 1.05321 2.03569 0
M  V30 1227 C 114.299 0.007152 1.60798 0
M  V30 1228 O 115.489 0.24903 1.72411 0
M  V30 1229 C 112.621 0.598394 3.35607 0
M  V30 1230 H 113.814 2.00986 2.22586 0
M  V30 1231 H 111.367 1.07502 1.13459 0
M  V30 1232 H 112.102 -0.361014 3.22284 0
M  V30 1233 H 111.887 1.35351 3.67998 0
M  V30 1234 H 113.377 0.48104 4.1482 0
M  V30 1235 N 113.814 -1.1601 1.06675 0
M  V30 1236 C 114.761 -2.20525 0.680967 0
M  V30 1237 C 115.731 -1.62904 -0.324283 0
M  V30 1238 O 116.916 -1.89615 -0.212294 0
M  V30 1239 C 114.056 -3.45013 0.0776551 0
M  V30 1240 C 113.169 -4.16863 1.13355 0
M  V30 1241 C 112.304 -5.2888 0.49597 0
M  V30 1242 C 111.343 -5.92537 1.53513 0
M  V30 1243 N 110.48 -6.96038 0.920631 0
M  V30 1244 H 115.32 -2.52876 1.57663 0
M  V30 1245 H 112.857 -1.24199 0.788223 0
M  V30 1246 H 114.815 -4.16193 -0.289704 0
M  V30 1247 H 113.445 -3.132 -0.781393 0
M  V30 1248 H 112.497 -3.44248 1.61857 0
M  V30 1249 H 113.809 -4.60294 1.92174 0
M  V30 1250 H 112.963 -6.06653 0.0758604 0
M  V30 1251 H 111.702 -4.86622 -0.324062 0
M  V30 1252 H 110.707 -5.13482 1.9651 0
M  V30 1253 H 111.932 -6.36873 2.35733 0
M  V30 1254 H 109.878 -6.55888 0.12138 0
M  V30 1255 H 109.795 -7.3786 1.64616 0
M  V30 1256 H 111.063 -7.77725 0.525795 0
M  V30 1257 N 115.292 -0.849877 -1.32721 0
M  V30 1258 C 116.708 -0.539102 -1.50219 0
M  V30 1259 C 116.908 0.931271 -1.78689 0
M  V30 1260 O 115.964 1.71455 -1.85363 0
M  V30 1261 C 117.277 -1.42196 -2.64954 0
M  V30 1262 C 118.825 -1.42189 -2.78839 0
M  V30 1263 C 119.3 -2.28985 -3.96648 0
M  V30 1264 N 120.791 -2.26754 -4.03902 0
M  V30 1265 C 121.526 -2.90644 -4.94281 0
M  V30 1266 N 121.022 -3.63629 -5.897 0
M  V30 1267 N 122.815 -2.80057 -4.87365 0
M  V30 1268 H 114.966 -1.80156 -1.12506 0
M  V30 1269 H 117.229 -0.769217 -0.554085 0
M  V30 1270 H 116.935 -2.46733 -2.50631 0
M  V30 1271 H 116.809 -1.10591 -3.60624 0
M  V30 1272 H 119.196 -0.38419 -2.92588 0
M  V30 1273 H 119.277 -1.77807 -1.83898 0
M  V30 1274 H 118.921 -3.32819 -3.83658 0
M  V30 1275 H 118.851 -1.90702 -4.90857 0
M  V30 1276 H 121.342 -1.73688 -3.3562 0
M  V30 1277 H 121.655 -4.09558 -6.55349 0
M  V30 1278 H 120 -3.67737 -5.89741 0
M  V30 1279 H 123.191 -2.22593 -4.11789 0
M  V30 1280 H 123.364 -3.30132 -5.57599 0
M  V30 1281 N 116.77 1.45427 -0.607355 0
M  V30 1282 C 117.7 2.3329 0.0989352 0
M  V30 1283 C 118.681 1.46816 0.859007 0
M  V30 1284 O 119.866 1.75588 0.829604 0
M  V30 1285 C 116.996 3.29518 1.09705 0
M  V30 1286 C 115.95 4.25626 0.450206 0
M  V30 1287 C 115.276 5.11542 1.55655 0
M  V30 1288 C 116.576 5.18505 -0.628455 0
M  V30 1289 H 118.27 2.92595 -0.634716 0
M  V30 1290 H 115.816 1.40696 -0.306681 0
M  V30 1291 H 117.769 3.89855 1.59971 0
M  V30 1292 H 116.493 2.68372 1.86129 0
M  V30 1293 H 115.152 3.66586 -0.0315886 0
M  V30 1294 H 114.8 4.46765 2.31107 0
M  V30 1295 H 114.5 5.76647 1.12925 0
M  V30 1296 H 116.024 5.74748 2.06148 0
M  V30 1297 H 117.438 5.72916 -0.209877 0
M  V30 1298 H 115.835 5.92085 -0.977489 0
M  V30 1299 H 116.905 4.60948 -1.50514 0
M  V30 1300 N 118.248 0.346503 1.53744 0
M  V30 1301 C 119.473 -0.253074 2.0585 0
M  V30 1302 C 119.898 -1.43202 1.21962 0
M  V30 1303 O 119.256 -1.79783 0.234073 0
M  V30 1304 C 119.304 -0.643193 3.54817 0
M  V30 1305 O 118.408 -1.74286 3.73762 0
M  V30 1306 H 117.749 -0.0413583 0.662711 0
M  V30 1307 H 120.279 0.501574 1.98357 0
M  V30 1308 H 120.289 -0.919526 3.97503 0
M  V30 1309 H 118.964 0.218966 4.15323 0
M  V30 1310 H 117.541 -1.46356 3.42979 0
M  V30 1311 N 119.726 -1.57421 0.075193 0
M  V30 1312 C 120.636 -2.1642 -0.905511 0
M  V30 1313 C 121.652 -1.12828 -1.32461 0
M  V30 1314 O 122.828 -1.45109 -1.39661 0
M  V30 1315 C 119.893 -2.71693 -2.15369 0
M  V30 1316 C 118.954 -3.90171 -1.79068 0
M  V30 1317 C 118.187 -4.42798 -2.97936 0
M  V30 1318 O 118.41 -3.94416 -4.12058 0
M  V30 1319 O 117.344 -5.34085 -2.77555 0
M  V30 1320 H 121.17 -3.00588 -0.433626 0
M  V30 1321 H 118.755 -1.48664 -0.148067 0
M  V30 1322 H 120.637 -3.07104 -2.88557 0
M  V30 1323 H 119.312 -1.90582 -2.61649 0
M  V30 1324 H 118.219 -3.59606 -1.03122 0
M  V30 1325 H 119.552 -4.72584 -1.37569 0
M  V30 1326 N 121.204 0.198386 -1.56346 0
M  V30 1327 C 122.134 1.24865 -1.9731 0
M  V30 1328 C 123.115 1.47651 -0.844576 0
M  V30 1329 O 124.3 1.59444 -1.10866 0
M  V30 1330 C 121.43 2.59358 -2.30977 0
M  V30 1331 C 120.384 2.5119 -3.46537 0
M  V30 1332 C 119.71 3.89926 -3.65871 0
M  V30 1333 C 121.01 2.03977 -4.80823 0
M  V30 1334 H 122.704 0.908252 -2.85291 0
M  V30 1335 H 120.25 0.435462 -1.37258 0
M  V30 1336 H 122.203 3.33011 -2.58228 0
M  V30 1337 H 120.927 2.95132 -1.39874 0
M  V30 1338 H 119.586 1.79993 -3.19371 0
M  V30 1339 H 119.234 4.23046 -2.72105 0
M  V30 1340 H 118.934 3.85336 -4.4361 0
M  V30 1341 H 120.458 4.65205 -3.95495 0
M  V30 1342 H 121.872 2.67386 -5.07127 0
M  V30 1343 H 120.269 2.10397 -5.62008 0
M  V30 1344 H 121.339 0.992861 -4.74626 0
M  V30 1345 N 122.682 1.50554 0.465978 0
M  V30 1346 C 123.612 1.72722 1.57128 0
M  V30 1347 C 124.593 0.576294 1.6004 0
M  V30 1348 O 125.778 0.81598 1.76225 0
M  V30 1349 C 122.908 1.82605 2.95419 0
M  V30 1350 C 121.862 2.97835 3.07373 0
M  V30 1351 C 121.188 2.92867 4.47363 0
M  V30 1352 C 122.488 4.38265 2.84114 0
M  V30 1353 H 124.182 2.65267 1.38829 0
M  V30 1354 H 121.728 1.2765 0.666441 0
M  V30 1355 H 123.681 1.96698 3.72677 0
M  V30 1356 H 122.405 0.866858 3.14886 0
M  V30 1357 H 121.064 2.83401 2.3255 0
M  V30 1358 H 120.712 1.94783 4.63755 0
M  V30 1359 H 120.412 3.70227 4.56296 0
M  V30 1360 H 121.936 3.09015 5.26633 0
M  V30 1361 H 123.35 4.53198 3.51118 0
M  V30 1362 H 121.747 5.17115 3.04487 0
M  V30 1363 H 122.817 4.50281 1.7993 0
M  V30 1364 N 124.16 -0.719506 1.40217 0
M  V30 1365 C 125.408 -1.47641 1.3801 0
M  V30 1366 C 125.729 -1.94992 -0.018145 0
M  V30 1367 O 124.999 -1.70073 -0.972207 0
M  V30 1368 H 123.579 -0.547744 0.507923 0
M  V30 1369 H 126.241 -0.853187 1.75233 0
M  V30 1370 H 125.337 -2.35112 2.05253 0
M  V30 1371 N 125.638 -1.25649 -0.95132 0
M  V30 1372 C 126.585 -1.06323 -2.04851 0
M  V30 1373 C 127.555 0.0286491 -1.66075 0
M  V30 1374 O 128.74 -0.12917 -1.90362 0
M  V30 1375 C 125.88 -0.691529 -3.381 0
M  V30 1376 C 124.993 -1.85861 -3.89974 0
M  V30 1377 C 124.128 -1.43096 -5.11563 0
M  V30 1378 C 123.167 -2.56696 -5.55674 0
M  V30 1379 N 122.304 -2.14684 -6.68472 0
M  V30 1380 H 127.144 -2.00222 -2.20715 0
M  V30 1381 H 124.681 -0.997027 -1.08156 0
M  V30 1382 H 126.639 -0.456963 -4.1469 0
M  V30 1383 H 125.269 0.210474 -3.22113 0
M  V30 1384 H 124.321 -2.20639 -3.09875 0
M  V30 1385 H 125.633 -2.71161 -4.18657 0
M  V30 1386 H 124.787 -1.15624 -5.9558 0
M  V30 1387 H 123.526 -0.548722 -4.84603 0
M  V30 1388 H 122.531 -2.84909 -4.7022 0
M  V30 1389 H 123.756 -3.45503 -5.8464 0
M  V30 1390 H 121.702 -1.28881 -6.43215 0
M  V30 1391 H 121.619 -2.9353 -6.96689 0
M  V30 1392 H 122.887 -1.90397 -7.5589 0
M  V30 1393 N 127.117 1.15442 -1.07289 0
M  V30 1394 C 128.027 2.23786 -0.704057 0
M  V30 1395 C 129.043 1.7166 0.284413 0
M  V30 1396 O 130.219 2.00972 0.131205 0
M  V30 1397 C 127.284 3.46535 -0.106792 0
M  V30 1398 C 126.345 4.13654 -1.14842 0
M  V30 1399 C 125.578 5.30544 -0.57956 0
M  V30 1400 O 125.801 5.67187 0.604585 0
M  V30 1401 O 124.735 5.87154 -1.32414 0
M  V30 1402 H 128.561 2.57664 -1.60757 0
M  V30 1403 H 126.146 1.23152 -0.845803 0
M  V30 1404 H 128.028 4.20804 0.224048 0
M  V30 1405 H 126.703 3.14407 0.770049 0
M  V30 1406 H 125.61 3.4131 -1.5316 0
M  V30 1407 H 126.943 4.49861 -1.99714 0
M  V30 1408 N 128.595 0.856903 1.32268 0
M  V30 1409 C 129.841 0.462069 1.97466 0
M  V30 1410 C 130.174 -0.980298 1.67642 0
M  V30 1411 O 129.449 -1.68824 0.965858 0
M  V30 1412 C 129.732 0.704336 3.53145 0
M  V30 1413 C 129.585 2.19529 3.9259 0
M  V30 1414 C 130.904 0.1622 4.39801 0
M  V30 1415 H 128.023 0.169357 0.717278 0
M  V30 1416 H 130.665 1.07574 1.56614 0
M  V30 1417 H 128.815 0.181999 3.88073 0
M  V30 1418 H 130.487 2.78387 3.67829 0
M  V30 1419 H 128.73 2.67292 3.41668 0
M  V30 1420 H 129.401 2.31549 5.01088 0
M  V30 1421 H 131.877 0.608905 4.11621 0
M  V30 1422 H 130.753 0.361265 5.4771 0
M  V30 1423 H 131.014 -0.935158 4.32096 0
M  V30 1424 N 130.073 -1.45103 0.615059 0
M  V30 1425 C 131.02 -2.30586 -0.0993978 0
M  V30 1426 C 131.99 -1.42544 -0.852669 0
M  V30 1427 O 133.175 -1.71465 -0.836917 0
M  V30 1428 C 130.315 -3.27572 -1.08583 0
M  V30 1429 C 129.428 -4.30717 -0.332656 0
M  V30 1430 C 128.563 -5.14807 -1.30947 0
M  V30 1431 C 127.602 -6.09673 -0.544538 0
M  V30 1432 N 126.739 -6.86517 -1.47101 0
M  V30 1433 H 131.579 -2.91144 0.635542 0
M  V30 1434 H 129.116 -1.4346 0.325206 0
M  V30 1435 H 131.074 -3.82276 -1.67095 0
M  V30 1436 H 129.704 -2.68751 -1.78809 0
M  V30 1437 H 128.756 -3.78615 0.368107 0
M  V30 1438 H 130.068 -4.98102 0.263842 0
M  V30 1439 H 129.222 -5.73948 -1.96643 0
M  V30 1440 H 127.961 -4.47458 -1.9399 0
M  V30 1441 H 126.966 -5.49656 0.126003 0
M  V30 1442 H 128.191 -6.79052 0.080947 0
M  V30 1443 H 126.137 -6.21851 -2.08895 0
M  V30 1444 H 126.054 -7.50281 -0.928137 0
M  V30 1445 H 127.322 -7.50194 -2.11731 0
M  V30 1446 N 131.551 -0.354651 -1.53558 0
M  V30 1447 C 132.798 0.238443 -2.01091 0
M  V30 1448 C 133.126 1.49663 -1.24222 0
M  V30 1449 O 132.381 1.93049 -0.321003 0
M  V30 1450 C 132.68 0.587121 -3.52545 0
M  V30 1451 C 132.346 -0.575472 -4.47213 0
M  V30 1452 C 131.008 -0.894497 -4.72813 0
M  V30 1453 C 133.36 -1.35489 -5.03281 0
M  V30 1454 C 130.688 -1.99511 -5.51736 0
M  V30 1455 C 133.04 -2.44583 -5.83405 0
M  V30 1456 C 131.704 -2.77033 -6.07296 0
M  V30 1457 H 130.974 0.0872526 -0.735845 0
M  V30 1458 H 133.621 -0.484859 -1.8526 0
M  V30 1459 H 131.926 1.39129 -3.66265 0
M  V30 1460 H 133.623 1.05809 -3.86789 0
M  V30 1461 H 130.213 -0.316774 -4.27428 0
M  V30 1462 H 134.397 -1.12167 -4.83459 0
M  V30 1463 H 129.653 -2.25063 -5.68469 0
M  V30 1464 H 133.827 -3.05401 -6.25862 0
M  V30 1465 H 131.454 -3.6244 -6.68237 0
M  V30 1466 N 133.029 1.57378 -0.0835403 0
M  V30 1467 C 134.275 1.94217 0.583733 0
M  V30 1468 C 134.608 0.964653 1.68547 0
M  V30 1469 O 133.883 -0.00422258 1.945 0
M  V30 1470 C 134.166 3.41253 1.14972 0
M  V30 1471 C 134.019 4.49768 0.0538277 0
M  V30 1472 C 135.338 3.89352 2.05166 0
M  V30 1473 H 132.457 0.706233 0.210724 0
M  V30 1474 H 135.099 1.89392 -0.1519 0
M  V30 1475 H 133.249 3.45496 1.77665 0
M  V30 1476 H 134.921 4.57641 -0.579851 0
M  V30 1477 H 133.164 4.29432 -0.614068 0
M  V30 1478 H 133.835 5.49817 0.490452 0
M  V30 1479 H 136.311 3.87189 1.52393 0
M  V30 1480 H 135.187 4.92822 2.41698 0
M  V30 1481 H 135.448 3.27973 2.96456 0
M  V30 1482 N 134.507 -0.190092 1.56449 0
M  V30 1483 C 135.918 -0.754312 1.70784 0
M  V30 1484 C 136.269 -1.83631 0.690951 0
M  V30 1485 O 135.394 -2.15868 -0.151604 0
M  V30 1486 C 135.989 -1.37503 3.09642 0
M  V30 1487 C 134.548 -1.88628 3.25725 0
M  V30 1488 C 133.695 -0.758098 2.66736 0
M  V30 1489 H 136.646 0.0350524 1.58661 0
M  V30 1490 H 136.667 -2.2445 3.0725 0
M  V30 1491 H 136.179 -0.587302 3.83631 0
M  V30 1492 H 134.28 -2.70103 2.56661 0
M  V30 1493 H 134.393 -2.04462 4.3328 0
M  V30 1494 H 132.757 -1.17369 2.26046 0
M  V30 1495 H 133.54 0.0174705 3.43296 0
M  V30 1496 N 135.985 -1.50799 -0.457987 0
M  V30 1497 C 136.948 -1.7005 -1.53674 0
M  V30 1498 C 137.948 -0.570881 -1.50325 0
M  V30 1499 O 139.138 -0.838126 -1.52712 0
M  V30 1500 C 136.27 -1.73788 -2.93276 0
M  V30 1501 H 137.463 -2.66306 -1.37917 0
M  V30 1502 H 135.016 -1.40477 -0.685271 0
M  V30 1503 H 135.751 -0.792717 -3.14462 0
M  V30 1504 H 135.536 -2.55864 -2.97113 0
M  V30 1505 H 137.026 -1.90591 -3.71571 0
M  V30 1506 N 137.463 0.71206 -1.40597 0
M  V30 1507 C 138.709 1.47416 -1.39271 0
M  V30 1508 C 139.042 1.942 0.00388791 0
M  V30 1509 O 138.317 1.68403 0.973179 0
M  V30 1510 C 138.6 2.69774 -2.38525 0
M  V30 1511 C 138.453 2.28861 -3.87224 0
M  V30 1512 C 139.772 3.71939 -2.35264 0
M  V30 1513 H 136.891 0.534713 -0.5072 0
M  V30 1514 H 139.533 0.812375 -1.71757 0
M  V30 1515 H 137.683 3.26238 -2.10953 0
M  V30 1516 H 139.355 1.77852 -4.25636 0
M  V30 1517 H 137.598 1.60824 -4.02887 0
M  V30 1518 H 138.269 3.16584 -4.52193 0
M  V30 1519 H 140.745 3.25113 -2.59694 0
M  V30 1520 H 139.621 4.55186 -3.06753 0
M  V30 1521 H 139.882 4.20484 -1.36549 0
M  V30 1522 N 138.941 1.26152 0.944643 0
M  V30 1523 C 140.187 1.11657 1.69294 0
M  V30 1524 C 140.52 -0.339926 1.91202 0
M  V30 1525 O 139.795 -1.24994 1.49019 0
M  V30 1526 C 140.078 1.88236 3.06984 0
M  V30 1527 C 139.931 3.41772 2.92424 0
M  V30 1528 C 141.25 1.67343 4.07043 0
M  V30 1529 H 138.369 0.407004 0.614424 0
M  V30 1530 H 141.011 1.55106 1.09737 0
M  V30 1531 H 139.161 1.51308 3.57824 0
M  V30 1532 H 140.833 3.88433 2.48832 0
M  V30 1533 H 139.076 3.68974 2.28124 0
M  V30 1534 H 139.747 3.90579 3.90067 0
M  V30 1535 H 142.223 1.99509 3.65151 0
M  V30 1536 H 141.099 2.23346 5.01406 0
M  V30 1537 H 141.36 0.617158 4.37771 0
M  V30 1538 N 140.419 -1.14872 1.07899 0
M  V30 1539 C 141.667 -1.85422 0.803941 0
M  V30 1540 C 141.988 -1.83051 -0.67211 0
M  V30 1541 O 141.258 -1.27532 -1.48703 0
M  V30 1542 H 139.838 -0.686537 0.294408 0
M  V30 1543 H 142.5 -1.39226 1.3639 0
M  V30 1544 H 141.596 -2.90399 1.14346 0
M  V30 1545 N 141.898 -0.863906 -1.31812 0
M  V30 1546 C 143.175 -0.39275 -1.91616 0
M  V30 1547 C 143.555 1.12461 -1.7865 0
M  V30 1548 O 142.903 1.95045 -1.19037 0
M  V30 1549 C 143.113 -0.867385 -3.38049 0
M  V30 1550 C 144.461 -0.889966 -4.15168 0
M  V30 1551 O 145.485 -0.812635 -3.46806 0
M  V30 1552 O 144.344 -1.00079 -5.37258 0
M  V30 1553 H 141.438 -0.116358 -0.818773 0
M  V30 1554 H 143.984 -0.951418 -1.40521 0
M  V30 1555 H 142.756 -1.91081 -3.41473 0
M  V30 1556 H 142.379 -0.286687 -3.96565 0
M  V30 1557 N 143.376 1.44774 -0.622745 0
M  V30 1558 C 144.286 2.34433 0.0886031 0
M  V30 1559 C 145.302 1.52131 0.844529 0
M  V30 1560 O 146.478 1.84886 0.798691 0
M  V30 1561 C 143.543 3.29986 1.0635 0
M  V30 1562 C 142.604 4.28195 0.307873 0
M  V30 1563 C 141.837 5.19183 1.23633 0
M  V30 1564 O 142.06 5.13918 2.47476 0
M  V30 1565 O 140.994 5.97515 0.725189 0
M  V30 1566 H 144.82 2.96693 -0.648599 0
M  V30 1567 H 142.405 1.44408 -0.382957 0
M  V30 1568 H 144.287 3.88825 1.6246 0
M  V30 1569 H 142.962 2.70269 1.78146 0
M  V30 1570 H 141.869 3.72927 -0.296064 0
M  V30 1571 H 143.202 4.90808 -0.3699 0
M  V30 1572 N 144.854 0.36279 1.53368 0
M  V30 1573 C 146.1 -0.228113 2.01513 0
M  V30 1574 C 146.433 -1.48648 1.2497 0
M  V30 1575 O 145.708 -1.91459 0.342616 0
M  V30 1576 C 145.991 -0.522884 3.56284 0
M  V30 1577 C 145.844 0.74892 4.43521 0
M  V30 1578 C 147.163 -1.32461 4.19693 0
M  V30 1579 H 144.282 -0.0814343 0.732487 0
M  V30 1580 H 146.924 0.48713 1.83649 0
M  V30 1581 H 145.074 -1.1322 3.71636 0
M  V30 1582 H 146.746 1.38648 4.39971 0
M  V30 1583 H 144.989 1.36986 4.11603 0
M  V30 1584 H 145.66 0.497667 5.49752 0
M  V30 1585 H 148.136 -0.809203 4.08156 0
M  V30 1586 H 147.012 -1.49961 5.28018 0
M  V30 1587 H 147.273 -2.33232 3.75573 0
M  V30 1588 N 146.332 -1.57332 0.0918853 0
M  V30 1589 C 147.279 -2.13847 -0.868211 0
M  V30 1590 C 148.249 -1.05618 -1.28196 0
M  V30 1591 O 149.434 -1.33387 -1.36427 0
M  V30 1592 C 146.574 -2.72062 -2.12312 0
M  V30 1593 C 145.687 -3.94514 -1.7602 0
M  V30 1594 C 144.822 -4.40903 -2.96273 0
M  V30 1595 C 143.861 -5.55953 -2.56092 0
M  V30 1596 N 142.998 -5.97209 -3.69169 0
M  V30 1597 H 147.838 -2.95575 -0.379406 0
M  V30 1598 H 145.375 -1.46048 -0.175606 0
M  V30 1599 H 147.333 -3.03931 -2.858 0
M  V30 1600 H 145.963 -1.93068 -2.58698 0
M  V30 1601 H 145.015 -3.68979 -0.925135 0
M  V30 1602 H 146.327 -4.7802 -1.42472 0
M  V30 1603 H 145.481 -4.74539 -3.78018 0
M  V30 1604 H 144.22 -3.56291 -3.33029 0
M  V30 1605 H 143.225 -5.21948 -1.72773 0
M  V30 1606 H 144.45 -6.42311 -2.20484 0
M  V30 1607 H 142.396 -5.15543 -4.05649 0
M  V30 1608 H 142.313 -6.75504 -3.39456 0
M  V30 1609 H 143.581 -6.35475 -4.51434 0
M  V30 1610 N 147.81 0.181792 -1.56548 0
M  V30 1611 C 148.757 1.22521 -1.95595 0
M  V30 1612 C 149.727 1.4454 -0.818373 0
M  V30 1613 O 150.912 1.57454 -1.07763 0
M  V30 1614 C 148.052 2.56193 -2.31212 0
M  V30 1615 C 147.165 2.41641 -3.58097 0
M  V30 1616 C 146.3 3.68108 -3.82975 0
M  V30 1617 C 145.339 3.48445 -5.03242 0
M  V30 1618 N 144.476 4.66956 -5.24306 0
M  V30 1619 H 149.316 0.885226 -2.84548 0
M  V30 1620 H 146.853 0.425718 -1.40805 0
M  V30 1621 H 148.811 3.34088 -2.49882 0
M  V30 1622 H 147.441 2.88208 -1.45382 0
M  V30 1623 H 146.493 1.54976 -3.474 0
M  V30 1624 H 147.805 2.23052 -4.46149 0
M  V30 1625 H 146.959 4.54441 -4.01956 0
M  V30 1626 H 145.698 3.89666 -2.93278 0
M  V30 1627 H 144.703 2.60499 -4.8417 0
M  V30 1628 H 145.928 3.2832 -5.9446 0
M  V30 1629 H 143.874 4.88752 -4.37559 0
M  V30 1630 H 143.791 4.51242 -6.06561 0
M  V30 1631 H 145.059 5.54602 -5.47756 0
M  V30 1632 N 149.288 1.51039 0.449983 0
M  V30 1633 C 150.251 1.70863 1.5277 0
M  V30 1634 C 151.251 0.578846 1.5002 0
M  V30 1635 O 152.441 0.846213 1.52266 0
M  V30 1636 C 149.573 1.75341 2.9235 0
M  V30 1637 H 150.766 2.67034 1.36502 0
M  V30 1638 H 148.319 1.40838 0.677812 0
M  V30 1639 H 149.054 0.809383 3.14037 0
M  V30 1640 H 148.839 2.57436 2.95752 0
M  V30 1641 H 150.329 1.92559 3.70555 0
M  V30 1642 N 150.766 -0.704594 1.40972 0
M  V30 1643 C 152.012 -1.46675 1.40051 0
M  V30 1644 C 152.345 -1.94199 0.00641102 0
M  V30 1645 O 151.62 -1.68916 -0.964235 0
M  V30 1646 C 151.903 -2.68505 2.39952 0
M  V30 1647 C 151.756 -2.26805 3.88432 0
M  V30 1648 C 153.075 -3.70686 2.37233 0
M  V30 1649 H 150.194 -0.532015 0.510028 0
M  V30 1650 H 152.836 -0.803255 1.72185 0
M  V30 1651 H 150.986 -3.25114 2.1268 0
M  V30 1652 H 152.658 -1.75592 4.26574 0
M  V30 1653 H 150.901 -1.58685 4.03734 0
M  V30 1654 H 151.572 -3.14181 4.53866 0
M  V30 1655 H 154.048 -3.23731 2.61415 0
M  V30 1656 H 152.924 -4.53553 3.09162 0
M  V30 1657 H 153.185 -4.19754 1.38777 0
M  V30 1658 N 152.244 -1.26651 -0.937939 0
M  V30 1659 C 153.154 -1.10276 -2.07066 0
M  V30 1660 C 154.17 -0.0354197 -1.73964 0
M  V30 1661 O 155.346 -0.239816 -1.99967 0
M  V30 1662 C 152.411 -0.740887 -3.38691 0
M  V30 1663 C 151.472 -1.88799 -3.85556 0
M  V30 1664 C 150.705 -1.54329 -5.10899 0
M  V30 1665 O 150.928 -0.446494 -5.6865 0
M  V30 1666 O 149.862 -2.37911 -5.52885 0
M  V30 1667 H 153.688 -2.05309 -2.23789 0
M  V30 1668 H 151.273 -1.05743 -1.0554 0
M  V30 1669 H 153.155 -0.55195 -4.1777 0
M  V30 1670 H 151.83 0.180022 -3.23199 0
M  V30 1671 H 150.737 -2.13191 -3.07409 0
M  V30 1672 H 152.07 -2.78874 -4.05574 0
M  V30 1673 N 153.722 1.14298 -1.08507 0
M  V30 1674 C 154.632 2.23027 -0.727753 0
M  V30 1675 C 155.648 1.71952 0.26619 0
M  V30 1676 O 156.824 2.011 0.109882 0
M  V30 1677 C 153.889 3.46403 -0.143541 0
M  V30 1678 C 152.95 4.12413 -1.19223 0
M  V30 1679 C 152.183 5.29899 -0.635798 0
M  V30 1680 O 152.406 5.67796 0.544393 0
M  V30 1681 O 151.34 5.85717 -1.38634 0
M  V30 1682 H 155.166 2.55945 -1.63481 0
M  V30 1683 H 152.751 1.22248 -0.858817 0
M  V30 1684 H 154.633 4.21018 0.179404 0
M  V30 1685 H 153.308 3.15206 0.736659 0
M  V30 1686 H 152.215 3.39667 -1.56772 0
M  V30 1687 H 153.548 4.47718 -2.04474 0
M  V30 1688 N 155.201 0.870884 1.31352 0
M  V30 1689 C 156.131 0.343096 2.30966 0
M  V30 1690 C 157.112 -0.566507 1.60389 0
M  V30 1691 O 158.297 -0.483336 1.88089 0
M  V30 1692 C 155.427 -0.455487 3.443 0
M  V30 1693 C 154.381 0.361103 4.26474 0
M  V30 1694 C 153.707 -0.563221 5.31725 0
M  V30 1695 C 155.007 1.59566 4.97329 0
M  V30 1696 H 156.701 1.17548 2.75359 0
M  V30 1697 H 154.247 0.566686 1.32381 0
M  V30 1698 H 156.2 -0.83525 4.13039 0
M  V30 1699 H 154.924 -1.32139 2.98675 0
M  V30 1700 H 153.583 0.722825 3.59403 0
M  V30 1701 H 153.231 -1.42643 4.82351 0
M  V30 1702 H 152.931 -0.0207409 5.87596 0
M  V30 1703 H 154.455 -0.939808 6.03324 0
M  V30 1704 H 155.869 1.28728 5.58661 0
M  V30 1705 H 154.266 2.07728 5.63 0
M  V30 1706 H 155.336 2.34798 4.24262 0
M  V30 1707 N 156.679 -1.44442 0.630414 0
M  V30 1708 C 157.626 -2.30678 -0.0749355 0
M  V30 1709 C 158.596 -1.4344 -0.837502 0
M  V30 1710 O 159.781 -1.72343 -0.818684 0
M  V30 1711 C 156.921 -3.28706 -1.05103 0
M  V30 1712 C 156.034 -4.31046 -0.286954 0
M  V30 1713 C 155.169 -5.16167 -1.2548 0
M  V30 1714 C 154.208 -6.10216 -0.479843 0
M  V30 1715 N 153.345 -6.88039 -1.39811 0
M  V30 1716 H 158.185 -2.90454 0.666386 0
M  V30 1717 H 155.722 -1.43107 0.340404 0
M  V30 1718 H 157.68 -3.84027 -1.63031 0
M  V30 1719 H 156.31 -2.70632 -1.75949 0
M  V30 1720 H 155.362 -3.78203 0.408243 0
M  V30 1721 H 156.674 -4.97794 0.316657 0
M  V30 1722 H 155.828 -5.76002 -1.90544 0
M  V30 1723 H 154.567 -4.49491 -1.89233 0
M  V30 1724 H 153.572 -5.49491 0.184295 0
M  V30 1725 H 154.797 -6.78928 0.152965 0
M  V30 1726 H 152.743 -6.24032 -2.02287 0
M  V30 1727 H 152.66 -7.51223 -0.848508 0
M  V30 1728 H 153.928 -7.52397 -2.03762 0
M  V30 1729 N 158.157 -0.370918 -1.53173 0
M  V30 1730 C 159.067 0.480823 -2.2962 0
M  V30 1731 C 160.083 1.08789 -1.35798 0
M  V30 1732 O 161.259 1.09768 -1.68858 0
M  V30 1733 C 158.324 1.60227 -3.07454 0
M  V30 1734 C 157.385 1.0222 -4.16953 0
M  V30 1735 C 156.618 2.0902 -4.91066 0
M  V30 1736 O 156.841 3.30222 -4.65091 0
M  V30 1737 O 155.775 1.71778 -5.76867 0
M  V30 1738 H 159.601 -0.141421 -3.03371 0
M  V30 1739 H 157.186 -0.135146 -1.48787 0
M  V30 1740 H 159.068 2.25417 -3.56041 0
M  V30 1741 H 157.743 2.20982 -2.36535 0
M  V30 1742 H 156.65 0.334064 -3.72605 0
M  V30 1743 H 157.983 0.459131 -4.90054 0
M  V30 1744 N 159.635 1.57281 -0.100228 0
M  V30 1745 C 160.883 1.94153 0.561157 0
M  V30 1746 C 161.204 0.983157 1.68401 0
M  V30 1747 O 160.474 0.0361132 1.95867 0
M  V30 1748 H 159.054 0.716791 0.210283 0
M  V30 1749 H 161.716 1.94202 -0.164765 0
M  V30 1750 H 160.812 2.96709 0.968008 0
M  V30 1751 N 161.113 -0.173488 1.56642 0
M  V30 1752 C 162.023 -1.23482 1.99473 0
M  V30 1753 C 163.039 -1.48567 0.905752 0
M  V30 1754 O 164.215 -1.60758 1.21321 0
M  V30 1755 C 161.28 -2.55444 2.34413 0
M  V30 1756 C 160.341 -2.38241 3.57127 0
M  V30 1757 C 159.574 -3.63909 3.90392 0
M  V30 1758 O 159.797 -4.68996 3.24653 0
M  V30 1759 O 158.731 -3.58149 4.83749 0
M  V30 1760 H 162.557 -0.901279 2.90018 0
M  V30 1761 H 160.142 -0.380185 1.44482 0
M  V30 1762 H 162.024 -3.33292 2.57865 0
M  V30 1763 H 160.699 -2.88382 1.4703 0
M  V30 1764 H 159.606 -1.58431 3.38896 0
M  V30 1765 H 160.939 -2.10228 4.45045 0
M  V30 1766 N 162.591 -1.51276 -0.441967 0
M  V30 1767 C 163.837 -1.63958 -1.19355 0
M  V30 1768 C 164.17 -0.352543 -1.90973 0
M  V30 1769 O 163.445 0.647627 -1.83401 0
M  V30 1770 C 163.728 -2.83979 -2.21422 0
M  V30 1771 C 163.581 -4.22646 -1.53918 0
M  V30 1772 C 164.9 -2.99521 -3.22451 0
M  V30 1773 H 162.019 -0.596709 -0.432559 0
M  V30 1774 H 164.661 -1.83748 -0.483398 0
M  V30 1775 H 162.811 -2.67237 -2.81987 0
M  V30 1776 H 164.483 -4.51045 -0.967256 0
M  V30 1777 H 162.726 -4.25558 -0.841615 0
M  V30 1778 H 163.397 -5.02609 -2.28229 0
M  V30 1779 H 165.873 -3.14944 -2.71937 0
M  V30 1780 H 164.749 -3.85072 -3.91166 0
M  V30 1781 H 165.01 -2.11391 -3.88287 0
M  V30 1782 N 164.069 0.697108 -1.41344 0
M  V30 1783 C 164.999 1.82353 -1.45841 0
M  V30 1784 C 165.98 1.67115 -0.317247 0
M  V30 1785 O 167.165 1.86871 -0.528474 0
M  V30 1786 C 164.295 3.20476 -1.33838 0
M  V30 1787 C 163.249 3.50415 -2.4575 0
M  V30 1788 C 162.575 4.87878 -2.18813 0
M  V30 1789 C 163.875 3.49546 -3.88091 0
M  V30 1790 H 165.569 1.78846 -2.40113 0
M  V30 1791 H 163.115 0.859028 -1.15571 0
M  V30 1792 H 165.068 3.98988 -1.35596 0
M  V30 1793 H 163.792 3.24604 -0.360498 0
M  V30 1794 H 162.451 2.74253 -2.43271 0
M  V30 1795 H 162.099 4.8863 -1.19371 0
M  V30 1796 H 161.799 5.08875 -2.93803 0
M  V30 1797 H 163.323 5.68702 -2.22284 0
M  V30 1798 H 164.737 4.18066 -3.92293 0
M  V30 1799 H 163.134 3.82075 -4.62751 0
M  V30 1800 H 164.204 2.48552 -4.16353 0
M  V30 1801 N 165.547 1.27147 0.931209 0
M  V30 1802 C 166.477 1.12081 2.04842 0
M  V30 1803 C 167.458 0.0232364 1.70084 0
M  V30 1804 O 168.643 0.197085 1.93197 0
M  V30 1805 C 165.773 0.76354 3.38803 0
M  V30 1806 C 164.727 1.81396 3.87659 0
M  V30 1807 C 164.053 1.31075 5.18385 0
M  V30 1808 C 165.353 3.21739 4.11438 0
M  V30 1809 H 167.047 2.05537 2.17703 0
M  V30 1810 H 164.593 0.989603 1.04608 0
M  V30 1811 H 166.546 0.644982 4.16435 0
M  V30 1812 H 165.27 -0.206727 3.25945 0
M  V30 1813 H 163.929 1.92136 3.12217 0
M  V30 1814 H 163.577 0.330037 5.01916 0
M  V30 1815 H 163.277 2.013 5.52044 0
M  V30 1816 H 164.801 1.20506 5.98591 0
M  V30 1817 H 166.215 3.14019 4.79651 0
M  V30 1818 H 164.612 3.89644 4.56397 0
M  V30 1819 H 165.682 3.67054 3.16859 0
M  V30 1820 N 167.025 -1.13721 1.09112 0
M  V30 1821 C 167.955 -2.21148 0.749385 0
M  V30 1822 C 168.936 -1.6792 -0.271475 0
M  V30 1823 O 170.121 -1.93693 -0.140251 0
M  V30 1824 C 167.251 -3.46905 0.165659 0
M  V30 1825 C 166.205 -4.13203 1.11567 0
M  V30 1826 C 165.531 -5.33248 0.393809 0
M  V30 1827 C 166.831 -4.60912 2.45678 0
M  V30 1828 H 168.525 -2.4999 1.64758 0
M  V30 1829 H 166.071 -1.20156 0.793626 0
M  V30 1830 H 168.024 -4.21313 -0.085466 0
M  V30 1831 H 166.748 -3.17449 -0.767714 0
M  V30 1832 H 165.407 -3.40758 1.35202 0
M  V30 1833 H 165.055 -5.00054 -0.543599 0
M  V30 1834 H 164.755 -5.78552 1.02721 0
M  V30 1835 H 166.279 -6.10413 0.150908 0
M  V30 1836 H 167.693 -5.26759 2.26269 0
M  V30 1837 H 166.09 -5.16944 3.04776 0
M  V30 1838 H 167.16 -3.75603 3.06677 0
M  V30 1839 N 168.503 -0.877838 -1.30888 0
M  V30 1840 C 169.413 -0.343096 -2.32078 0
M  V30 1841 C 170.429 0.551022 -1.65045 0
M  V30 1842 O 171.605 0.445854 -1.96403 0
M  V30 1843 C 168.67 0.439905 -3.43898 0
M  V30 1844 C 167.731 -0.483111 -4.26573 0
M  V30 1845 C 166.964 0.262616 -5.33053 0
M  V30 1846 O 167.187 1.48967 -5.50604 0
M  V30 1847 O 166.121 -0.383593 -6.00676 0
M  V30 1848 H 169.947 -1.18203 -2.79753 0
M  V30 1849 H 167.532 -0.64145 -1.34929 0
M  V30 1850 H 169.414 0.883504 -4.12034 0
M  V30 1851 H 168.089 1.25526 -2.98371 0
M  V30 1852 H 166.996 -0.975374 -3.61161 0
M  V30 1853 H 168.329 -1.26427 -4.75686 0
M  V30 1854 N 169.982 1.44106 -0.638065 0
M  V30 1855 C 170.93 2.3248 0.0748149 0
M  V30 1856 C 171.924 1.47746 0.828702 0
M  V30 1857 O 173.13 1.64049 0.740816 0
M  V30 1858 H 169.505 0.750771 0.0429686 0
M  V30 1859 H 171.476 2.90348 -0.688504 0
M  V30 1860 C 170.225 3.31843 1.03805 0
M  V30 1861 H 169.548 3.97059 0.467375 0
M  V30 1862 H 170.988 3.96345 1.50622 0
M  V30 1863 C 169.447 2.61291 2.1267 0
M  V30 1864 O 169.977 2.41702 3.20847 0
M  V30 1865 N 168.183 2.20915 1.88798 0
M  V30 1866 H 167.73 2.37047 1.00829 0
M  V30 1867 H 167.688 1.74038 2.61836 0
M  V30 1868 N 171.46 0.379036 1.52974 0
M  V30 1869 C 172.688 -0.20679 2.05864 0
M  V30 1870 C 173.103 -1.41356 1.25155 0
M  V30 1871 O 172.46 -1.8009 0.295588 0
M  V30 1872 C 172.511 -0.587045 3.56702 0
M  V30 1873 O 172.232 0.571776 4.34353 0
M  V30 1874 C 173.733 -1.22983 4.25899 0
M  V30 1875 H 170.953 -0.0336123 0.670158 0
M  V30 1876 H 173.497 0.541298 1.97206 0
M  V30 1877 H 171.652 -1.28504 3.65466 0
M  V30 1878 H 172.066 0.261544 5.23847 0
M  V30 1879 H 173.54 -1.44635 5.32715 0
M  V30 1880 H 174.017 -2.19416 3.80465 0
M  V30 1881 H 174.623 -0.572892 4.21424 0
M  V30 1882 N 172.938 -1.57226 0.108567 0
M  V30 1883 C 174.354 -1.5766 -0.248058 0
M  V30 1884 C 174.554 -1.12063 -1.67464 0
M  V30 1885 O 173.61 -0.803236 -2.39383 0
M  V30 1886 C 174.923 -3.0069 -0.0242287 0
M  V30 1887 C 176.471 -3.12868 -0.0909372 0
M  V30 1888 C 176.946 -4.57879 0.105067 0
M  V30 1889 N 178.437 -4.63172 0.0506846 0
M  V30 1890 C 179.172 -5.73126 0.177396 0
M  V30 1891 N 178.668 -6.91866 0.359696 0
M  V30 1892 N 180.461 -5.61977 0.117709 0
M  V30 1893 H 172.612 -1.85169 1.04049 0
M  V30 1894 H 174.875 -0.85529 0.40888 0
M  V30 1895 H 174.581 -3.38299 0.961604 0
M  V30 1896 H 174.455 -3.6945 -0.76068 0
M  V30 1897 H 176.842 -2.75124 -1.06729 0
M  V30 1898 H 176.923 -2.46672 0.677225 0
M  V30 1899 H 176.567 -4.96321 1.07834 0
M  V30 1900 H 176.497 -5.22153 -0.682954 0
M  V30 1901 H 178.988 -3.778 -0.0871266 0
M  V30 1902 H 179.301 -7.71503 0.447529 0
M  V30 1903 H 177.646 -6.93874 0.395536 0
M  V30 1904 H 180.837 -4.68094 -0.0236741 0
M  V30 1905 H 181.01 -6.47627 0.219905 0
M  V30 1906 N 174.416 0.165178 -1.56732 0
M  V30 1907 C 175.663 0.880807 -1.8234 0
M  V30 1908 C 175.991 1.81977 -0.686621 0
M  V30 1909 O 175.246 1.92971 0.325697 0
M  V30 1910 C 175.545 1.70405 -3.1416 0
M  V30 1911 C 175.211 0.913475 -4.4155 0
M  V30 1912 C 173.873 0.695303 -4.7615 0
M  V30 1913 C 176.225 0.359349 -5.1996 0
M  V30 1914 C 173.553 -0.0879947 -5.86634 0
M  V30 1915 C 175.905 -0.410893 -6.31264 0
M  V30 1916 C 174.569 -0.639808 -6.64427 0
M  V30 1917 H 173.839 0.32231 -0.667231 0
M  V30 1918 H 176.486 0.145402 -1.90947 0
M  V30 1919 H 174.791 2.50903 -3.00923 0
M  V30 1920 H 176.488 2.26091 -3.31186 0
M  V30 1921 H 173.078 1.09357 -4.14414 0
M  V30 1922 H 177.262 0.515228 -4.93618 0
M  V30 1923 H 172.518 -0.27503 -6.10781 0
M  V30 1924 H 176.692 -0.847494 -6.91224 0
M  V30 1925 H 174.319 -1.24864 -7.49875 0
M  V30 1926 N 175.894 1.51508 0.433938 0
M  V30 1927 C 176.844 1.69451 1.52546 0
M  V30 1928 C 177.828 0.548474 1.51263 0
M  V30 1929 O 179.02 0.804529 1.57659 0
M  V30 1930 C 176.149 1.82604 2.90707 0
M  V30 1931 C 175.235 3.03002 2.96733 0
M  V30 1932 N 175.626 4.26121 2.72496 0
M  V30 1933 C 173.924 3.02327 3.27894 0
M  V30 1934 C 174.625 5.07407 2.84452 0
M  V30 1935 N 173.601 4.42126 3.16269 0
M  V30 1936 H 177.403 2.62305 1.32564 0
M  V30 1937 H 174.917 1.49202 0.641297 0
M  V30 1938 H 176.914 1.93569 3.69238 0
M  V30 1939 H 175.574 0.909339 3.11707 0
M  V30 1940 H 176.585 4.55009 2.4736 0
M  V30 1941 H 173.262 2.20301 3.54646 0
M  V30 1942 H 174.652 6.15422 2.69639 0
M  V30 1943 N 177.372 -0.689602 1.41712 0
M  V30 1944 C 178.783 -1.26973 1.36875 0
M  V30 1945 C 179.134 -1.96124 0.054748 0
M  V30 1946 O 178.259 -1.99141 -0.84687 0
M  V30 1947 C 178.854 -2.30912 2.47922 0
M  V30 1948 C 177.413 -2.84486 2.46464 0
M  V30 1949 C 176.56 -1.58603 2.27465 0
M  V30 1950 H 179.511 -0.48396 1.51141 0
M  V30 1951 H 179.532 -3.12331 2.17323 0
M  V30 1952 H 179.044 -1.80554 3.43543 0
M  V30 1953 H 177.145 -3.39005 1.54617 0
M  V30 1954 H 177.258 -3.34511 3.42986 0
M  V30 1955 H 175.622 -1.84632 1.75451 0
M  V30 1956 H 176.405 -1.10233 3.25121 0
M  V30 1957 N 178.85 -1.27639 -0.924453 0
M  V30 1958 C 180.098 -1.13941 -1.66918 0
M  V30 1959 C 180.419 0.314589 -1.92446 0
M  V30 1960 O 179.689 1.21964 -1.53303 0
M  V30 1961 H 178.269 -0.418678 -0.618642 0
M  V30 1962 H 180.931 -1.60213 -1.10985 0
M  V30 1963 H 180.027 -1.67094 -2.63602 0
M  V30 1964 N 180.328 1.1314 -1.09713 0
M  V30 1965 C 181.238 2.22242 -0.751367 0
M  V30 1966 C 182.254 1.72224 0.247938 0
M  V30 1967 O 183.43 2.01205 0.0885463 0
M  V30 1968 C 180.495 3.46231 -0.180274 0
M  V30 1969 C 179.556 4.11125 -1.2359 0
M  V30 1970 C 178.789 5.29195 -0.691966 0
M  V30 1971 O 179.012 5.68342 0.48414 0
M  V30 1972 O 177.946 5.84214 -1.44838 0
M  V30 1973 H 181.772 2.54197 -1.66186 0
M  V30 1974 H 179.357 1.21331 -0.871735 0
M  V30 1975 H 181.239 4.21185 0.134739 0
M  V30 1976 H 179.914 3.1597 0.703185 0
M  V30 1977 H 178.821 3.37985 -1.60366 0
M  V30 1978 H 180.154 4.45524 -2.09211 0
M  V30 1979 N 181.806 0.884767 1.30421 0
M  V30 1980 C 183.034 0.518044 2.0031 0
M  V30 1981 C 183.449 -0.893408 1.66324 0
M  V30 1982 O 182.806 -1.5875 0.900262 0
M  V30 1983 C 182.857 0.682997 3.54989 0
M  V30 1984 O 182.578 2.03888 3.87764 0
M  V30 1985 C 184.079 0.31924 4.42149 0
M  V30 1986 H 181.299 0.200265 0.640418 0
M  V30 1987 H 183.843 1.19001 1.6631 0
M  V30 1988 H 181.998 0.0584052 3.87356 0
M  V30 1989 H 182.412 2.05735 4.82466 0
M  V30 1990 H 183.886 0.485555 5.4986 0
M  V30 1991 H 184.363 -0.742717 4.32875 0
M  V30 1992 H 184.969 0.920147 4.15227 0
M  V30 1993 N 183.284 -1.43765 0.645699 0
M  V30 1994 C 184.231 -2.30745 -0.0504648 0
M  V30 1995 C 185.201 -1.4432 -0.822241 0
M  V30 1996 O 186.386 -1.73202 -0.800358 0
M  V30 1997 C 183.526 -3.29802 -1.0161 0
M  V30 1998 C 182.639 -4.31326 -0.241219 0
M  V30 1999 C 181.774 -5.17469 -1.19998 0
M  V30 2000 C 180.813 -6.10691 -0.415094 0
M  V30 2001 N 179.95 -6.89483 -1.32506 0
M  V30 2002 H 184.79 -2.8973 0.697155 0
M  V30 2003 H 182.327 -1.42738 0.355563 0
M  V30 2004 H 184.285 -3.85734 -1.58949 0
M  V30 2005 H 182.915 -2.72483 -1.73069 0
M  V30 2006 H 181.967 -3.77749 0.448334 0
M  V30 2007 H 183.279 -4.9743 0.369437 0
M  V30 2008 H 182.433 -5.7799 -1.84424 0
M  V30 2009 H 181.172 -4.51473 -1.84455 0
M  V30 2010 H 180.177 -5.49265 0.242565 0
M  V30 2011 H 181.402 -6.78727 0.224966 0
M  V30 2012 H 179.348 -6.26142 -1.95657 0
M  V30 2013 H 179.265 -7.52081 -0.768783 0
M  V30 2014 H 180.533 -7.54516 -1.9577 0
M  V30 2015 N 184.763 -0.387143 -1.52771 0
M  V30 2016 C 185.711 0.463953 -2.27926 0
M  V30 2017 C 186.705 1.06493 -1.31741 0
M  V30 2018 O 187.911 1.00565 -1.49287 0
M  V30 2019 H 184.286 0.16837 -0.732909 0
M  V30 2020 H 186.257 -0.19141 -2.97785 0
M  V30 2021 C 185.006 1.5803 -3.09713 0
M  V30 2022 H 184.329 1.12718 -3.83581 0
M  V30 2023 H 185.769 2.15008 -3.65442 0
M  V30 2024 C 184.228 2.53509 -2.2189 0
M  V30 2025 O 184.758 3.56863 -1.84422 0
M  V30 2026 N 182.964 2.23199 -1.86093 0
M  V30 2027 H 182.511 1.39185 -2.16761 0
M  V30 2028 H 182.469 2.87333 -1.27621 0
M  V30 2029 N 186.241 1.57166 -0.116904 0
M  V30 2030 C 187.518 1.86645 0.585049 0
M  V30 2031 C 187.898 1.0177 1.84949 0
M  V30 2032 O 187.246 0.0960379 2.28298 0
M  V30 2033 C 187.456 3.37736 0.879507 0
M  V30 2034 C 188.804 4.06289 1.23348 0
M  V30 2035 O 189.828 3.42743 0.969836 0
M  V30 2036 O 188.687 5.18455 1.7282 0
M  V30 2037 H 185.781 0.772593 0.295007 0
M  V30 2038 H 188.327 1.69025 -0.151249 0
M  V30 2039 H 187.099 3.91296 -0.0166136 0
M  V30 2040 H 186.722 3.6078 1.67103 0
M  V30 2041 N 187.719 -0.156864 1.56817 0
M  V30 2042 C 189.13 -0.717916 1.72345 0
M  V30 2043 C 189.481 -1.82124 0.729747 0
M  V30 2044 O 188.606 -2.16141 -0.105781 0
M  V30 2045 C 189.201 -1.30904 3.12489 0
M  V30 2046 C 187.76 -1.81676 3.29653 0
M  V30 2047 C 186.907 -0.701349 2.68284 0
M  V30 2048 H 189.858 0.0686989 1.58551 0
M  V30 2049 H 189.879 -2.17882 3.11942 0
M  V30 2050 H 189.391 -0.505796 3.8479 0
M  V30 2051 H 187.492 -2.64598 2.62333 0
M  V30 2052 H 187.605 -1.95226 4.3752 0
M  V30 2053 H 185.969 -1.12548 2.28484 0
M  V30 2054 H 186.752 0.0902846 3.43181 0
M  V30 2055 N 189.197 -1.51736 -0.425897 0
M  V30 2056 C 190.107 -1.76738 -1.54275 0
M  V30 2057 C 191.123 -0.65211 -1.61318 0
M  V30 2058 O 192.299 -0.935654 -1.78346 0
M  V30 2059 C 189.364 -1.89755 -2.90162 0
M  V30 2060 C 188.425 -3.13633 -2.93143 0
M  V30 2061 C 187.658 -3.2602 -4.22548 0
M  V30 2062 O 187.881 -2.44067 -5.15546 0
M  V30 2063 O 186.815 -4.19071 -4.32046 0
M  V30 2064 H 190.641 -2.71502 -1.36089 0
M  V30 2065 H 188.226 -1.36376 -0.610069 0
M  V30 2066 H 190.108 -2.00236 -3.70788 0
M  V30 2067 H 188.783 -0.981785 -3.08452 0
M  V30 2068 H 187.69 -3.08622 -2.11431 0
M  V30 2069 H 189.023 -4.04936 -2.798 0
M  V30 2070 N 190.675 0.682077 -1.42076 0
M  V30 2071 C 191.605 1.80796 -1.47767 0
M  V30 2072 C 192.586 1.6677 -0.334954 0
M  V30 2073 O 193.771 1.863 -0.548264 0
M  V30 2074 C 190.901 3.19038 -1.37229 0
M  V30 2075 C 189.855 3.47789 -2.49453 0
M  V30 2076 C 189.181 4.8553 -2.23975 0
M  V30 2077 C 190.481 3.45411 -3.91776 0
M  V30 2078 H 192.175 1.7629 -2.41997 0
M  V30 2079 H 189.721 0.846721 -1.16476 0
M  V30 2080 H 191.674 3.97528 -1.39821 0
M  V30 2081 H 190.398 3.24204 -0.394907 0
M  V30 2082 H 189.057 2.71657 -2.46166 0
M  V30 2083 H 188.705 4.87337 -1.24547 0
M  V30 2084 H 188.405 5.0573 -2.99184 0
M  V30 2085 H 189.929 5.66312 -2.28304 0
M  V30 2086 H 191.343 4.13882 -3.96705 0
M  V30 2087 H 189.74 3.77145 -4.66778 0
M  V30 2088 H 190.81 2.44122 -4.18966 0
M  V30 2089 N 192.153 1.28127 0.917671 0
M  V30 2090 C 193.116 1.11744 2.00115 0
M  V30 2091 C 194.116 0.0583052 1.60694 0
M  V30 2092 O 195.306 0.303755 1.71531 0
M  V30 2093 C 192.438 0.704862 3.33533 0
M  V30 2094 H 193.631 2.07966 2.16079 0
M  V30 2095 H 191.184 1.11058 1.09981 0
M  V30 2096 H 191.919 -0.258299 3.2327 0
M  V30 2097 H 191.704 1.4699 3.63505 0
M  V30 2098 H 193.194 0.612768 4.1308 0
M  V30 2099 N 193.631 -1.12557 1.10312 0
M  V30 2100 C 194.578 -2.18247 0.750781 0
M  V30 2101 C 195.548 -1.63853 -0.272293 0
M  V30 2102 O 196.733 -1.90195 -0.151862 0
M  V30 2103 C 193.873 -3.44591 0.187379 0
M  V30 2104 C 192.986 -4.13046 1.2656 0
M  V30 2105 C 192.121 -5.27034 0.663978 0
M  V30 2106 C 191.16 -5.87353 1.72287 0
M  V30 2107 N 190.297 -6.92757 1.1416 0
M  V30 2108 H 195.137 -2.47732 1.65628 0
M  V30 2109 H 192.674 -1.21629 0.827337 0
M  V30 2110 H 194.632 -4.16904 -0.157148 0
M  V30 2111 H 193.262 -3.15527 -0.681355 0
M  V30 2112 H 192.314 -3.38924 1.72727 0
M  V30 2113 H 193.626 -4.53947 2.06721 0
M  V30 2114 H 192.78 -6.06104 0.268824 0
M  V30 2115 H 191.519 -4.87407 -0.169082 0
M  V30 2116 H 190.524 -5.06971 2.12746 0
M  V30 2117 H 191.749 -6.29051 2.55875 0
M  V30 2118 H 189.695 -6.5517 0.329984 0
M  V30 2119 H 189.612 -7.3225 1.88007 0
M  V30 2120 H 190.88 -7.75658 0.772956 0
M  V30 2121 N 195.109 -0.891671 -1.2995 0
M  V30 2122 C 196.356 -0.513501 -1.95881 0
M  V30 2123 C 196.684 0.938655 -1.70351 0
M  V30 2124 O 195.939 1.67936 -1.00478 0
M  V30 2125 C 196.238 -0.742868 -3.49594 0
M  V30 2126 C 195.904 -2.17114 -3.95186 0
M  V30 2127 C 194.566 -2.56169 -4.07346 0
M  V30 2128 C 196.918 -3.10162 -4.18866 0
M  V30 2129 C 194.246 -3.87469 -4.4055 0
M  V30 2130 C 196.598 -4.41001 -4.53542 0
M  V30 2131 C 195.262 -4.79941 -4.63911 0
M  V30 2132 H 194.532 -0.187903 -0.71678 0
M  V30 2133 H 197.179 -1.1288 -1.54694 0
M  V30 2134 H 195.484 -0.044586 -3.91775 0
M  V30 2135 H 197.181 -0.429767 -3.9869 0
M  V30 2136 H 193.771 -1.85801 -3.86233 0
M  V30 2137 H 197.955 -2.81206 -4.08946 0
M  V30 2138 H 193.211 -4.17371 -4.46779 0
M  V30 2139 H 197.385 -5.13133 -4.70815 0
M  V30 2140 H 195.012 -5.81719 -4.89395 0
M  V30 2141 N 196.587 1.43421 -0.653314 0
M  V30 2142 C 197.833 2.02641 -0.175593 0
M  V30 2143 C 198.188 1.5062 1.19713 0
M  V30 2144 O 197.481 0.689697 1.78756 0
M  V30 2145 C 197.675 3.57176 -0.126623 0
M  V30 2146 C 197.504 4.24191 -1.49306 0
M  V30 2147 C 196.274 4.60257 -2.08547 0
M  V30 2148 C 198.472 4.53193 -2.43148 0
M  V30 2149 N 196.454 5.12345 -3.38194 0
M  V30 2150 C 197.825 5.06601 -3.57429 0
M  V30 2151 C 199.88 4.35161 -2.41949 0
M  V30 2152 C 198.583 5.43875 -4.70736 0
M  V30 2153 C 200.609 4.73498 -3.54336 0
M  V30 2154 C 199.971 5.27039 -4.67343 0
M  V30 2155 H 196.07 0.77441 -0.108686 0
M  V30 2156 H 198.654 1.74596 -0.861638 0
M  V30 2157 H 196.825 3.84784 0.528766 0
M  V30 2158 H 198.557 4.03078 0.36198 0
M  V30 2159 H 195.312 4.45302 -1.61255 0
M  V30 2160 H 195.736 5.42842 -4.04538 0
M  V30 2161 H 200.378 3.9304 -1.55818 0
M  V30 2162 H 198.096 5.8494 -5.57558 0
M  V30 2163 H 201.682 4.61241 -3.5461 0
M  V30 2164 H 200.562 5.56153 -5.52868 0
M  V30 2165 N 198.065 0.39524 1.52563 0
M  V30 2166 C 199.028 -0.425001 2.25225 0
M  V30 2167 C 200.028 -0.985266 1.27079 0
M  V30 2168 O 201.218 -0.866332 1.5113 0
M  V30 2169 C 198.35 -1.59686 3.01186 0
M  V30 2170 H 199.543 0.211233 2.99155 0
M  V30 2171 H 197.096 0.147472 1.55603 0
M  V30 2172 H 197.831 -2.27035 2.31572 0
M  V30 2173 H 197.616 -1.20176 3.73229 0
M  V30 2174 H 199.106 -2.17743 3.5634 0
M  V30 2175 N 199.544 -1.57102 0.125237 0
M  V30 2176 C 200.769 -2.0019 -0.542101 0
M  V30 2177 C 201.194 -1.00449 -1.59034 0
M  V30 2178 O 200.552 0.0229423 -1.81285 0
M  V30 2179 C 200.6 -3.42129 -1.13929 0
M  V30 2180 O 199.704 -3.45307 -2.2547 0
M  V30 2181 H 199.045 -0.650171 -0.134812 0
M  V30 2182 H 201.575 -2.03461 0.215553 0
M  V30 2183 H 201.585 -3.80471 -1.4733 0
M  V30 2184 H 200.26 -4.14237 -0.371531 0
M  V30 2185 H 198.837 -3.1879 -1.93462 0
M  V30 2186 N 201.022 0.148545 -1.56898 0
M  V30 2187 C 201.952 1.18524 -2.01182 0
M  V30 2188 C 202.933 1.4489 -0.891123 0
M  V30 2189 O 204.118 1.55836 -1.15882 0
M  V30 2190 C 201.248 2.51879 -2.39112 0
M  V30 2191 C 200.202 2.40038 -3.54353 0
M  V30 2192 C 199.528 3.78089 -3.78091 0
M  V30 2193 C 200.828 1.88577 -4.87069 0
M  V30 2194 H 202.522 0.817029 -2.88036 0
M  V30 2195 H 200.068 0.391575 -1.38574 0
M  V30 2196 H 202.021 3.24627 -2.68692 0
M  V30 2197 H 200.745 2.90532 -1.49193 0
M  V30 2198 H 199.404 1.69742 -3.24936 0
M  V30 2199 H 199.052 4.14175 -2.85426 0
M  V30 2200 H 198.752 3.71028 -4.55645 0
M  V30 2201 H 200.276 4.52387 -4.10095 0
M  V30 2202 H 201.69 2.51117 -5.15377 0
M  V30 2203 H 200.087 1.9241 -5.68417 0
M  V30 2204 H 201.157 0.84136 -4.77545 0
M  V30 2205 N 202.5 1.5196 0.417844 0
M  V30 2206 C 203.463 1.74065 1.49111 0
M  V30 2207 C 204.463 0.610537 1.48758 0
M  V30 2208 O 205.653 0.87832 1.50437 0
M  V30 2209 C 202.785 1.81502 2.88565 0
M  V30 2210 H 203.978 2.69869 1.30807 0
M  V30 2211 H 201.531 1.42244 0.647785 0
M  V30 2212 H 202.266 0.875813 3.1225 0
M  V30 2213 H 202.051 2.63651 2.90225 0
M  V30 2214 H 203.541 2.00376 3.66387 0
M  V30 2215 N 203.978 -0.674533 1.42435 0
M  V30 2216 C 205.255 -1.4305 1.33402 0
M  V30 2217 C 205.635 -2.11081 -0.0284674 0
M  V30 2218 O 204.983 -2.03257 -1.04397 0
M  V30 2219 C 205.193 -2.43272 2.50239 0
M  V30 2220 C 206.541 -3.07907 2.92367 0
M  V30 2221 O 207.565 -2.53599 2.50132 0
M  V30 2222 O 206.424 -4.0632 3.65467 0
M  V30 2223 H 203.518 -0.638076 0.526106 0
M  V30 2224 H 206.064 -0.703235 1.54443 0
M  V30 2225 H 204.836 -1.91803 3.41068 0
M  V30 2226 H 204.459 -3.23479 2.31186 0
M  V30 2227 N 205.456 -1.28612 -0.910864 0
M  V30 2228 C 206.705 -1.15311 -1.65488 0
M  V30 2229 C 207.018 0.296999 -1.93332 0
M  V30 2230 O 208.224 0.551168 -2.65847 0
M  V30 2231 C 206.68 -2.01599 -2.98137 0
M  V30 2232 C 206.288 -3.51367 -2.7793 0
M  V30 2233 C 208.032 -1.96993 -3.76024 0
M  V30 2234 C 205.939 -4.29797 -4.06237 0
M  V30 2235 H 204.869 -0.42796 -0.620779 0
M  V30 2236 H 207.52 -1.53166 -1.01057 0
M  V30 2237 H 205.902 -1.56603 -3.63719 0
M  V30 2238 H 207.076 -4.0434 -2.21011 0
M  V30 2239 H 205.391 -3.57529 -2.13452 0
M  V30 2240 H 207.988 -2.52856 -4.71135 0
M  V30 2241 H 208.331 -0.94733 -4.05378 0
M  V30 2242 H 208.864 -2.39973 -3.17266 0
M  V30 2243 H 205.603 -5.32648 -3.82055 0
M  V30 2244 H 205.123 -3.81596 -4.62757 0
M  V30 2245 H 206.802 -4.39869 -4.74473 0
M  V30 2246 N 206.934 1.1197 -1.10907 0
M  V30 2247 C 207.884 2.15946 -0.731538 0
M  V30 2248 C 208.868 1.58758 0.261699 0
M  V30 2249 O 210.06 1.76863 0.0696722 0
M  V30 2250 C 207.189 3.42877 -0.170299 0
M  V30 2251 C 206.275 4.07037 -1.19087 0
M  V30 2252 N 206.666 4.46135 -2.38322 0
M  V30 2253 C 204.964 4.33884 -1.03252 0
M  V30 2254 C 205.665 4.96331 -3.03366 0
M  V30 2255 N 204.641 4.9214 -2.30865 0
M  V30 2256 H 208.443 2.43947 -1.63912 0
M  V30 2257 H 205.957 1.28927 -0.987505 0
M  V30 2258 H 207.954 4.16732 0.118271 0
M  V30 2259 H 206.614 3.16343 0.731935 0
M  V30 2260 H 207.625 4.38345 -2.75815 0
M  V30 2261 H 204.302 4.17084 -0.186256 0
M  V30 2262 H 205.692 5.36257 -4.04818 0
M  V30 2263 N 208.412 0.89855 1.29475 0
M  V30 2264 C 209.658 0.524658 1.95896 0
M  V30 2265 C 209.991 -0.926468 1.70676 0
M  V30 2266 O 209.266 -1.65665 1.01908 0
M  V30 2267 C 209.549 0.81633 3.50725 0
M  V30 2268 C 209.402 2.31907 3.85408 0
M  V30 2269 C 210.721 0.302038 4.39062 0
M  V30 2270 H 207.84 0.19209 0.711527 0
M  V30 2271 H 210.482 1.12502 1.53112 0
M  V30 2272 H 208.632 0.305369 3.87298 0
M  V30 2273 H 210.304 2.89949 3.58786 0
M  V30 2274 H 208.547 2.78027 3.32992 0
M  V30 2275 H 209.218 2.47373 4.93468 0
M  V30 2276 H 211.694 0.739551 4.09475 0
M  V30 2277 H 210.57 0.535331 5.46283 0
M  V30 2278 H 210.831 -0.797216 4.34853 0
M  V30 2279 N 209.89 -1.43072 0.660911 0
M  V30 2280 C 210.838 -2.32569 -0.0378199 0
M  V30 2281 C 211.832 -1.49046 -0.805092 0
M  V30 2282 O 213.038 -1.65206 -0.714624 0
M  V30 2283 H 209.413 -0.75136 -0.031019 0
M  V30 2284 H 211.384 -2.89216 0.734609 0
M  V30 2285 C 210.133 -3.33453 -0.985124 0
M  V30 2286 H 209.456 -3.97752 -0.404147 0
M  V30 2287 H 210.896 -3.98691 -1.44297 0
M  V30 2288 C 209.355 -2.64642 -2.08486 0
M  V30 2289 O 209.885 -2.46776 -3.16961 0
M  V30 2290 N 208.091 -2.23891 -1.8526 0
M  V30 2291 H 207.638 -2.38621 -0.970449 0
M  V30 2292 H 207.596 -1.78181 -2.59034 0
M  V30 2293 N 211.368 -0.403325 -1.52352 0
M  V30 2294 C 212.645 0.232611 -1.94212 0
M  V30 2295 C 213.025 1.63133 -1.33981 0
M  V30 2296 O 212.373 2.22659 -0.513344 0
M  V30 2297 C 212.583 0.244811 -3.4814 0
M  V30 2298 C 213.931 0.46698 -4.22024 0
M  V30 2299 O 214.955 0.324419 -3.5472 0
M  V30 2300 O 213.814 0.74747 -5.41364 0
M  V30 2301 H 210.908 0.148223 -0.813609 0
M  V30 2302 H 213.454 -0.458848 -1.63379 0
M  V30 2303 H 212.226 -0.734378 -3.84347 0
M  V30 2304 H 211.849 0.980611 -3.85318 0
M  V30 2305 N 212.846 1.57033 -0.133567 0
M  V30 2306 C 213.809 2.14897 0.796995 0
M  V30 2307 C 214.809 1.0874 1.18458 0
M  V30 2308 O 215.999 1.34446 1.1077 0
M  V30 2309 C 213.131 2.70112 2.07973 0
M  V30 2310 H 214.324 2.98457 0.293873 0
M  V30 2311 H 211.877 1.55871 0.115787 0
M  V30 2312 H 212.612 1.9018 2.62682 0
M  V30 2313 H 212.397 3.47764 1.81115 0
M  V30 2314 H 213.887 3.14738 2.74462 0
M  V30 2315 N 214.325 -0.140222 1.56975 0
M  V30 2316 C 215.572 -0.851687 1.83719 0
M  V30 2317 C 215.9 -1.80862 0.715485 0
M  V30 2318 O 215.155 -1.93464 -0.294956 0
M  V30 2319 C 215.454 -1.65386 3.16832 0
M  V30 2320 C 215.12 -0.843112 4.42947 0
M  V30 2321 C 213.782 -0.619464 4.77196 0
M  V30 2322 C 216.134 -0.276582 5.20466 0
M  V30 2323 C 213.462 0.181312 5.8642 0
M  V30 2324 C 215.814 0.51127 6.30531 0
M  V30 2325 C 214.478 0.745432 6.63325 0
M  V30 2326 H 213.748 -0.311654 0.672274 0
M  V30 2327 H 216.395 -0.115006 1.91154 0
M  V30 2328 H 214.7 -2.46084 3.04877 0
M  V30 2329 H 216.397 -2.20793 3.34741 0
M  V30 2330 H 212.987 -1.0275 4.16101 0
M  V30 2331 H 217.171 -0.436632 4.94376 0
M  V30 2332 H 212.427 0.372165 6.10266 0
M  V30 2333 H 216.601 0.957354 6.89788 0
M  V30 2334 H 214.228 1.36778 7.47794 0
M  V30 2335 N 215.803 -1.52179 -0.40978 0
M  V30 2336 C 217.051 -1.65878 -1.15451 0
M  V30 2337 C 217.372 -0.390771 -1.91044 0
M  V30 2338 O 216.642 0.594323 -1.86667 0
M  V30 2339 H 215.222 -0.611405 -0.429177 0
M  V30 2340 H 217.884 -1.89219 -0.467134 0
M  V30 2341 H 216.98 -2.49954 -1.86894 0
M  V30 2342 N 217.281 0.66697 -1.42791 0
M  V30 2343 C 218.509 1.45505 -1.47091 0
M  V30 2344 C 218.924 1.8861 -0.0845873 0
M  V30 2345 O 218.281 1.58632 0.90234 0
M  V30 2346 C 218.332 2.69906 -2.40485 0
M  V30 2347 O 218.053 2.28608 -3.73725 0
M  V30 2348 C 219.554 3.63396 -2.53886 0
M  V30 2349 H 216.774 0.447459 -0.500022 0
M  V30 2350 H 219.318 0.818866 -1.8739 0
M  V30 2351 H 217.473 3.29696 -2.03419 0
M  V30 2352 H 217.887 3.08997 -4.23817 0
M  V30 2353 H 219.361 4.47387 -3.2334 0
M  V30 2354 H 219.838 4.09824 -1.57927 0
M  V30 2355 H 220.444 3.09495 -2.91706 0
M  V30 2356 N 218.759 1.29093 0.90403 0
M  V30 2357 C 219.722 1.1386 1.98919 0
M  V30 2358 C 220.722 0.0753457 1.60623 0
M  V30 2359 O 221.912 0.321931 1.71199 0
M  V30 2360 C 219.044 0.740198 3.32767 0
M  V30 2361 H 220.237 2.10246 2.13861 0
M  V30 2362 H 217.79 1.12218 1.08797 0
M  V30 2363 H 218.525 -0.223997 3.23525 0
M  V30 2364 H 218.31 1.50838 3.61926 0
M  V30 2365 H 219.8 0.656546 4.12407 0
M  V30 2366 N 220.237 -1.11381 1.11499 0
M  V30 2367 C 221.187 -2.15555 0.74298 0
M  V30 2368 C 222.171 -1.58894 -0.253276 0
M  V30 2369 O 223.363 -1.76897 -0.0602918 0
M  V30 2370 C 220.492 -3.42782 0.188481 0
M  V30 2371 C 219.578 -4.064 1.21244 0
M  V30 2372 N 219.969 -4.44864 2.40685 0
M  V30 2373 C 218.267 -4.3333 1.05552 0
M  V30 2374 C 218.968 -4.94715 3.05994 0
M  V30 2375 N 217.944 -4.90909 2.33472 0
M  V30 2376 H 221.746 -2.43074 1.65203 0
M  V30 2377 H 219.26 -1.28401 0.994329 0
M  V30 2378 H 221.257 -4.16789 -0.0961693 0
M  V30 2379 H 219.917 -3.16727 -0.715149 0
M  V30 2380 H 220.928 -4.36876 2.78136 0
M  V30 2381 H 217.605 -4.1698 0.208372 0
M  V30 2382 H 218.995 -5.34103 4.07656 0
M  V30 2383 N 221.715 -0.905404 -1.28997 0
M  V30 2384 C 223.131 -0.60233 -1.47798 0
M  V30 2385 C 223.331 0.854645 -1.82478 0
M  V30 2386 O 222.387 1.63439 -1.92468 0
M  V30 2387 C 223.7 -1.53306 -2.58685 0
M  V30 2388 C 225.248 -1.53887 -2.72558 0
M  V30 2389 C 225.723 -2.45602 -3.86579 0
M  V30 2390 N 227.214 -2.43681 -3.93921 0
M  V30 2391 C 227.949 -3.11347 -4.81509 0
M  V30 2392 N 227.445 -3.88313 -5.73746 0
M  V30 2393 N 229.238 -3.00476 -4.75048 0
M  V30 2394 H 221.389 -1.84765 -1.04764 0
M  V30 2395 H 223.652 -0.792025 -0.520961 0
M  V30 2396 H 223.358 -2.57141 -2.39941 0
M  V30 2397 H 223.232 -1.25787 -3.55609 0
M  V30 2398 H 225.619 -0.507941 -2.90696 0
M  V30 2399 H 225.7 -1.85447 -1.76191 0
M  V30 2400 H 225.344 -3.48792 -3.69197 0
M  V30 2401 H 225.274 -2.11349 -4.82327 0
M  V30 2402 H 227.765 -1.87767 -3.27951 0
M  V30 2403 H 228.078 -4.36985 -6.37389 0
M  V30 2404 H 226.423 -3.92419 -5.73614 0
M  V30 2405 H 229.614 -2.39858 -4.01977 0
M  V30 2406 H 229.787 -3.53485 -5.43095 0
M  V30 2407 N 223.193 1.4272 -0.668489 0
M  V30 2408 C 224.156 2.292 0.00448567 0
M  V30 2409 C 225.156 1.43001 0.735339 0
M  V30 2410 O 226.346 1.64461 0.57429 0
M  V30 2411 C 223.478 3.25375 1.01705 0
M  V30 2412 H 224.671 2.90199 -0.756608 0
M  V30 2413 H 222.224 1.50254 -0.430506 0
M  V30 2414 H 222.959 2.69301 1.80686 0
M  V30 2415 H 222.744 3.88944 0.496463 0
M  V30 2416 H 224.234 3.90245 1.48655 0
M  V30 2417 N 224.671 0.411399 1.52136 0
M  V30 2418 C 225.621 -0.430376 2.23901 0
M  V30 2419 C 226.605 -1.0116 1.25121 0
M  V30 2420 O 227.797 -0.934044 1.50348 0
M  V30 2421 C 224.926 -1.54527 3.06556 0
M  V30 2422 C 224.012 -0.9747 4.12747 0
M  V30 2423 N 224.403 -0.130991 5.0563 0
M  V30 2424 C 222.701 -1.24497 4.28271 0
M  V30 2425 C 223.402 0.186689 5.814 0
M  V30 2426 N 222.378 -0.42304 5.41951 0
M  V30 2427 H 226.18 0.220509 2.93072 0
M  V30 2428 H 223.694 0.221952 1.60876 0
M  V30 2429 H 225.691 -2.16093 3.56524 0
M  V30 2430 H 224.351 -2.19875 2.38925 0
M  V30 2431 H 225.362 0.23349 5.17373 0
M  V30 2432 H 222.039 -1.89787 3.7187 0
M  V30 2433 H 223.429 0.871673 6.66222 0
M  V30 2434 N 226.149 -1.5696 0.141893 0
M  V30 2435 C 227.112 -2.15316 -0.785587 0
M  V30 2436 C 228.112 -1.09366 -1.1788 0
M  V30 2437 O 229.302 -1.35031 -1.10056 0
M  V30 2438 C 226.434 -2.71211 -2.06537 0
M  V30 2439 H 227.627 -2.98608 -0.278041 0
M  V30 2440 H 225.18 -1.5593 -0.107519 0
M  V30 2441 H 225.915 -1.91571 -2.6167 0
M  V30 2442 H 225.7 -3.4872 -1.79268 0
M  V30 2443 H 227.19 -3.16189 -2.72789 0
M  V30 2444 N 227.627 0.131896 -1.57047 0
M  V30 2445 C 228.852 0.860418 -1.8871 0
M  V30 2446 C 229.277 1.73251 -0.73251 0
M  V30 2447 O 228.635 1.785 0.317429 0
M  V30 2448 C 228.683 1.68047 -3.19049 0
M  V30 2449 O 227.787 2.7862 -3.04047 0
M  V30 2450 H 227.128 0.238743 -0.619595 0
M  V30 2451 H 229.658 0.118169 -2.04258 0
M  V30 2452 H 229.668 2.07238 -3.51449 0
M  V30 2453 H 228.343 1.04018 -4.02682 0
M  V30 2454 H 226.92 2.42726 -2.83088 0
M  V30 2455 N 229.106 1.52395 0.401703 0
M  V30 2456 C 230.054 1.7689 1.51039 0
M  V30 2457 C 231.048 0.636298 1.56996 0
M  V30 2458 O 232.254 0.818507 1.60314 0
M  V30 2459 H 228.629 0.559502 0.502456 0
M  V30 2460 H 230.6 2.69757 1.27568 0
M  V30 2461 C 229.349 1.94331 2.88324 0
M  V30 2462 H 228.672 2.80905 2.84486 0
M  V30 2463 H 230.112 2.15466 3.65172 0
M  V30 2464 C 228.571 0.712396 3.29282 0
M  V30 2465 O 229.101 -0.116218 4.01532 0
M  V30 2466 N 227.307 0.546154 2.85422 0
M  V30 2467 H 226.854 1.22156 2.26794 0
M  V30 2468 H 226.812 -0.276113 3.13185 0
M  V30 2469 N 230.584 -0.659388 1.43143 0
M  V30 2470 C 231.83 -1.42145 1.44647 0
M  V30 2471 C 232.163 -1.9408 0.0681907 0
M  V30 2472 O 231.438 -1.71899 -0.910007 0
M  V30 2473 C 231.721 -2.60735 2.48373 0
M  V30 2474 C 231.574 -2.14332 3.95451 0
M  V30 2475 C 232.893 -3.62951 2.48906 0
M  V30 2476 H 230.012 -0.51552 0.526696 0
M  V30 2477 H 232.654 -0.748069 1.74654 0
M  V30 2478 H 230.804 -3.18184 2.22916 0
M  V30 2479 H 232.476 -1.61932 4.31944 0
M  V30 2480 H 230.719 -1.4576 4.08578 0
M  V30 2481 H 231.39 -2.99583 4.63631 0
M  V30 2482 H 233.866 -3.1525 2.71582 0
M  V30 2483 H 232.742 -4.43487 3.23435 0
M  V30 2484 H 233.003 -4.15126 1.52061 0
M  V30 2485 N 232.062 -1.29571 -0.897171 0
M  V30 2486 C 233.31 -1.17456 -1.64464 0
M  V30 2487 C 233.631 0.273698 -1.9307 0
M  V30 2488 O 232.901 1.18684 -1.55855 0
M  V30 2489 H 231.481 -0.431706 -0.609622 0
M  V30 2490 H 234.143 -1.62531 -1.07562 0
M  V30 2491 H 233.239 -1.72648 -2.59998 0
M  V30 2492 N 233.54 1.10788 -1.12088 0
M  V30 2493 C 234.789 1.82036 -0.868659 0
M  V30 2494 C 235.102 1.85929 0.607426 0
M  V30 2495 O 236.308 2.53346 0.97613 0
M  V30 2496 C 234.764 3.26951 -1.50435 0
M  V30 2497 C 234.372 3.31367 -3.01496 0
M  V30 2498 C 236.116 4.03053 -1.33225 0
M  V30 2499 C 234.023 4.7072 -3.58017 0
M  V30 2500 H 232.953 0.682108 -0.321318 0
M  V30 2501 H 235.604 1.24618 -1.34694 0
M  V30 2502 H 233.986 3.84343 -0.953735 0
M  V30 2503 H 235.16 2.83819 -3.6302 0
M  V30 2504 H 233.475 2.6875 -3.18061 0
M  V30 2505 H 236.072 5.05981 -1.72878 0
M  V30 2506 H 236.415 4.15387 -0.275529 0
M  V30 2507 H 236.948 3.52066 -1.85188 0
M  V30 2508 H 233.687 4.63585 -4.63432 0
M  V30 2509 H 233.207 5.1865 -3.01268 0
M  V30 2510 H 234.886 5.39685 -3.56859 0
M  V30 2511 N 235.018 0.912232 1.28515 0
M  V30 2512 C 235.981 0.404223 2.25607 0
M  V30 2513 C 236.981 -0.468602 1.53821 0
M  V30 2514 O 238.171 -0.271873 1.72065 0
M  V30 2515 C 235.303 -0.420653 3.38295 0
M  V30 2516 H 236.496 1.26188 2.7206 0
M  V30 2517 H 234.049 0.691495 1.40171 0
M  V30 2518 H 234.784 -1.29777 2.97201 0
M  V30 2519 H 234.569 0.204935 3.91564 0
M  V30 2520 H 236.059 -0.766971 4.10496 0
M  V30 2521 N 236.496 -1.42363 0.676048 0
M  V30 2522 C 237.428 -2.29164 -0.0404605 0
M  V30 2523 C 238.441 -1.43747 -0.764245 0
M  V30 2524 O 239.63 -1.67453 -0.618195 0
M  V30 2525 C 236.73 -3.21196 -1.08103 0
M  V30 2526 C 235.903 -4.35273 -0.430812 0
M  V30 2527 C 234.962 -5.08017 -1.37133 0
M  V30 2528 O 233.988 -5.62494 -0.87116 0
M  V30 2529 N 235.19 -5.13647 -2.70456 0
M  V30 2530 H 237.955 -2.91298 0.704667 0
M  V30 2531 H 235.516 -1.53303 0.520559 0
M  V30 2532 H 237.508 -3.66728 -1.71152 0
M  V30 2533 H 236.078 -2.60505 -1.72788 0
M  V30 2534 H 235.298 -3.92372 0.379209 0
M  V30 2535 H 236.586 -5.08795 0.0221132 0
M  V30 2536 H 235.984 -4.708 -3.1363 0
M  V30 2537 H 234.541 -5.62821 -3.28749 0
M  V30 2538 N 237.974 -0.419461 -1.51915 0
M  V30 2539 C 239.221 0.152939 -2.01922 0
M  V30 2540 C 239.549 1.4426 -1.30458 0
M  V30 2541 O 238.804 1.91514 -0.402593 0
M  V30 2542 C 239.103 0.437067 -3.54717 0
M  V30 2543 C 238.769 -0.764632 -4.44369 0
M  V30 2544 C 237.431 -1.09423 -4.68594 0
M  V30 2545 C 239.783 -1.56713 -4.97082 0
M  V30 2546 C 237.111 -2.22732 -5.42777 0
M  V30 2547 C 239.463 -2.69107 -5.72507 0
M  V30 2548 C 238.127 -3.02541 -5.95 0
M  V30 2549 H 237.397 0.0559644 -0.738884 0
M  V30 2550 H 240.044 -0.562998 -1.83037 0
M  V30 2551 H 238.349 1.23469 -3.71837 0
M  V30 2552 H 240.046 0.893083 -3.90928 0
M  V30 2553 H 236.636 -0.497775 -4.257 0
M  V30 2554 H 240.82 -1.32571 -4.78266 0
M  V30 2555 H 236.076 -2.48971 -5.58411 0
M  V30 2556 H 240.25 -3.31671 -6.12346 0
M  V30 2557 H 237.877 -3.90457 -6.52264 0
M  V30 2558 N 239.452 1.56882 -0.150215 0
M  V30 2559 C 240.701 1.95403 0.500071 0
M  V30 2560 C 241.014 1.03777 1.658 0
M  V30 2561 O 242.22 1.31889 2.37313 0
M  V30 2562 C 240.676 3.4738 0.941018 0
M  V30 2563 C 240.284 4.47596 -0.190158 0
M  V30 2564 C 242.028 3.9476 1.56091 0
M  V30 2565 C 239.935 5.90787 0.269237 0
M  V30 2566 H 238.865 0.729515 0.190588 0
M  V30 2567 H 241.516 1.81988 -0.235074 0
M  V30 2568 H 239.898 3.56138 1.73152 0
M  V30 2569 H 241.072 4.50536 -0.967157 0
M  V30 2570 H 239.387 4.10151 -0.718666 0
M  V30 2571 H 241.984 4.99181 1.9163 0
M  V30 2572 H 242.327 3.36494 2.45107 0
M  V30 2573 H 242.86 3.88932 0.835249 0
M  V30 2574 H 239.599 6.52879 -0.585621 0
M  V30 2575 H 239.119 5.912 1.01204 0
M  V30 2576 H 240.798 6.42979 0.720176 0
M  V30 2577 N 240.93 -0.123565 1.57115 0
M  V30 2578 C 242.341 -0.681198 1.73829 0
M  V30 2579 C 242.692 -1.80535 0.768214 0
M  V30 2580 O 241.817 -2.16317 -0.0599103 0
M  V30 2581 C 242.412 -1.24246 3.15196 0
M  V30 2582 C 240.971 -1.74643 3.33432 0
M  V30 2583 C 240.118 -0.644284 2.69711 0
M  V30 2584 H 243.069 0.102315 1.5837 0
M  V30 2585 H 243.09 -2.11216 3.16493 0
M  V30 2586 H 242.602 -0.424062 3.85776 0
M  V30 2587 H 240.703 -2.58974 2.67886 0
M  V30 2588 H 240.816 -1.85902 4.41562 0
M  V30 2589 H 239.18 -1.07676 2.3082 0
M  V30 2590 H 239.963 0.163058 3.42913 0
M  V30 2591 N 242.408 -1.52605 -0.393616 0
M  V30 2592 C 243.633 -1.71592 -1.16495 0
M  V30 2593 C 244.058 -0.43133 -1.83088 0
M  V30 2594 O 243.416 0.612523 -1.7064 0
M  V30 2595 C 243.464 -2.86318 -2.19213 0
M  V30 2596 O 242.568 -2.52969 -3.257 0
M  V30 2597 H 241.909 -0.570734 -0.33935 0
M  V30 2598 H 244.439 -1.99377 -0.459324 0
M  V30 2599 H 244.449 -3.1168 -2.63286 0
M  V30 2600 H 243.124 -3.79511 -1.7013 0
M  V30 2601 H 241.701 -2.38332 -2.86797 0
M  V30 2602 N 243.887 0.651787 -1.4349 0
M  V30 2603 C 245.133 1.41376 -1.45398 0
M  V30 2604 C 245.466 1.94041 -0.0784823 0
M  V30 2605 O 244.741 1.72379 0.900878 0
M  V30 2606 C 245.024 2.59414 -2.49752 0
M  V30 2607 C 244.877 2.12232 -3.96582 0
M  V30 2608 C 246.196 3.61626 -2.50827 0
M  V30 2609 H 243.315 0.512719 -0.529422 0
M  V30 2610 H 245.957 0.738796 -1.75048 0
M  V30 2611 H 244.107 3.16997 -2.246 0
M  V30 2612 H 245.779 1.59639 -4.32797 0
M  V30 2613 H 244.022 1.43592 -4.09346 0
M  V30 2614 H 244.693 2.9712 -4.65214 0
M  V30 2615 H 247.169 3.13805 -2.7325 0
M  V30 2616 H 246.045 4.41766 -3.25783 0
M  V30 2617 H 246.306 4.14314 -1.5426 0
M  V30 2618 N 245.365 1.30045 0.890287 0
M  V30 2619 C 246.328 1.15963 1.977 0
M  V30 2620 C 247.328 0.0923777 1.60534 0
M  V30 2621 O 248.518 0.340071 1.70848 0
M  V30 2622 C 245.65 0.775451 3.31963 0
M  V30 2623 H 246.843 2.12502 2.11619 0
M  V30 2624 H 244.396 1.13366 1.07601 0
M  V30 2625 H 245.131 -0.189671 3.23745 0
M  V30 2626 H 244.916 1.54668 3.60306 0
M  V30 2627 H 246.406 0.700251 4.11687 0
M  V30 2628 N 246.843 -1.10192 1.12674 0
M  V30 2629 C 248.091 -1.81845 0.881861 0
M  V30 2630 C 248.412 -1.85737 -0.593867 0
M  V30 2631 O 247.682 -1.33724 -1.4316 0
M  V30 2632 H 246.262 -0.673432 0.323261 0
M  V30 2633 H 248.924 -1.33316 1.42172 0
M  V30 2634 H 248.02 -2.85288 1.2656 0
M  V30 2635 N 248.321 -0.919034 -1.28029 0
M  V30 2636 C 249.568 -0.554934 -1.94748 0
M  V30 2637 C 249.896 0.90231 -1.72304 0
M  V30 2638 O 249.151 1.65767 -1.04018 0
M  V30 2639 C 249.45 -0.816855 -3.4794 0
M  V30 2640 C 249.116 -2.25448 -3.90492 0
M  V30 2641 C 247.778 -2.64752 -4.01821 0
M  V30 2642 C 250.13 -3.18977 -4.12193 0
M  V30 2643 C 247.458 -3.96727 -4.32232 0
M  V30 2644 C 249.81 -4.50523 -4.44086 0
M  V30 2645 C 248.474 -4.89673 -4.53626 0
M  V30 2646 H 247.744 -0.203065 -0.712633 0
M  V30 2647 H 250.391 -1.16136 -1.52265 0
M  V30 2648 H 248.696 -0.127677 -3.91592 0
M  V30 2649 H 250.393 -0.514238 -3.97689 0
M  V30 2650 H 246.983 -1.93952 -3.82205 0
M  V30 2651 H 251.167 -2.89817 -4.02889 0
M  V30 2652 H 246.423 -4.26754 -4.37825 0
M  V30 2653 H 250.597 -5.23005 -4.59825 0
M  V30 2654 H 248.224 -5.91969 -4.76946 0
M  V30 2655 N 249.799 1.42003 -0.683588 0
M  V30 2656 C 250.729 2.33487 -0.024866 0
M  V30 2657 C 251.71 1.51163 0.779975 0
M  V30 2658 O 252.895 1.79739 0.735362 0
M  V30 2659 C 250.025 3.3487 0.920836 0
M  V30 2660 C 248.979 4.27414 0.223958 0
M  V30 2661 C 248.305 5.19074 1.2832 0
M  V30 2662 C 249.605 5.14445 -0.90242 0
M  V30 2663 H 251.299 2.88819 -0.788921 0
M  V30 2664 H 248.845 1.38873 -0.38083 0
M  V30 2665 H 250.798 3.97787 1.39081 0
M  V30 2666 H 249.522 2.77861 1.71642 0
M  V30 2667 H 248.181 3.65904 -0.225864 0
M  V30 2668 H 247.829 4.58387 2.071 0
M  V30 2669 H 247.529 5.81822 0.821995 0
M  V30 2670 H 249.053 5.84867 1.75392 0
M  V30 2671 H 250.467 5.70998 -0.513272 0
M  V30 2672 H 248.864 5.86072 -1.28997 0
M  V30 2673 H 249.934 4.52322 -1.74737 0
M  V30 2674 N 251.277 0.427512 1.51691 0
M  V30 2675 C 252.21 -0.433876 2.24037 0
M  V30 2676 C 253.188 -1.03287 1.25581 0
M  V30 2677 O 254.372 -1.07722 1.54688 0
M  V30 2678 C 251.499 -1.60385 2.98319 0
M  V30 2679 C 250.545 -1.12648 4.11355 0
M  V30 2680 S 251.378 -0.076543 5.35445 0
M  V30 2681 C 252.534 -1.25141 6.13262 0
M  V30 2682 H 252.767 0.180367 2.96752 0
M  V30 2683 H 250.3 0.211946 1.52938 0
M  V30 2684 H 252.258 -2.27462 3.41718 0
M  V30 2685 H 250.919 -2.18948 2.25213 0
M  V30 2686 H 250.112 -2.0011 4.62571 0
M  V30 2687 H 249.714 -0.534088 3.70167 0
M  V30 2688 H 252.006 -2.17162 6.41753 0
M  V30 2689 H 252.949 -0.779411 7.03797 0
M  V30 2690 H 253.357 -1.48553 5.44603 0
M  V30 2691 N 252.755 -1.56801 0.158532 0
M  V30 2692 C 253.665 -2.20916 -0.789518 0
M  V30 2693 C 254.681 -1.1969 -1.26294 0
M  V30 2694 O 255.857 -1.52308 -1.31773 0
M  V30 2695 C 252.922 -2.82727 -2.00665 0
M  V30 2696 C 251.983 -3.99114 -1.58134 0
M  V30 2697 C 251.216 -4.57968 -2.74045 0
M  V30 2698 O 251.439 -4.15704 -3.90572 0
M  V30 2699 O 250.373 -5.48047 -2.48855 0
M  V30 2700 H 254.199 -3.02464 -0.273681 0
M  V30 2701 H 251.784 -1.4924 -0.0690548 0
M  V30 2702 H 253.666 -3.21968 -2.71872 0
M  V30 2703 H 252.341 -2.04184 -2.51179 0
M  V30 2704 H 251.248 -3.64567 -0.839155 0
M  V30 2705 H 252.581 -4.79212 -1.12325 0
M  V30 2706 N 254.233 0.115231 -1.57178 0
M  V30 2707 C 255.18 1.14115 -2.00615 0
M  V30 2708 C 256.15 1.40939 -0.878941 0
M  V30 2709 O 257.335 1.52741 -1.14345 0
M  V30 2710 C 254.475 2.46156 -2.4187 0
M  V30 2711 C 253.588 2.26236 -3.68024 0
M  V30 2712 C 252.723 3.51534 -3.98243 0
M  V30 2713 C 251.762 3.26787 -5.17568 0
M  V30 2714 N 250.899 4.44298 -5.43639 0
M  V30 2715 H 255.739 0.763743 -2.88047 0
M  V30 2716 H 253.276 0.365615 -1.42484 0
M  V30 2717 H 255.234 3.23189 -2.63827 0
M  V30 2718 H 253.864 2.81783 -1.57475 0
M  V30 2719 H 252.916 1.40102 -3.5366 0
M  V30 2720 H 254.228 2.03929 -4.55208 0
M  V30 2721 H 253.382 4.36984 -4.20868 0
M  V30 2722 H 252.121 3.76876 -3.09541 0
M  V30 2723 H 251.126 2.39729 -4.94783 0
M  V30 2724 H 252.351 3.02812 -6.0785 0
M  V30 2725 H 250.297 4.69754 -4.57895 0
M  V30 2726 H 250.214 4.25109 -6.25154 0
M  V30 2727 H 251.482 5.3087 -5.70786 0
M  V30 2728 N 255.711 1.52812 0.385517 0
M  V30 2729 C 256.621 1.80766 1.49535 0
M  V30 2730 C 257.637 0.694651 1.59532 0
M  V30 2731 O 258.813 0.982611 1.75803 0
M  V30 2732 C 255.878 1.97381 2.85029 0
M  V30 2733 C 254.939 3.21295 2.84724 0
M  V30 2734 C 254.172 3.37108 4.13756 0
M  V30 2735 O 254.395 2.5765 5.08893 0
M  V30 2736 O 253.329 4.30378 4.20783 0
M  V30 2737 H 257.155 2.75015 1.28842 0
M  V30 2738 H 254.74 1.37946 0.573697 0
M  V30 2739 H 256.622 2.09996 3.65349 0
M  V30 2740 H 255.297 1.06322 3.05741 0
M  V30 2741 H 254.204 3.1412 2.03174 0
M  V30 2742 H 255.537 4.12212 2.68965 0
M  V30 2743 N 257.189 -0.644168 1.43834 0
M  V30 2744 C 258.438 -1.39985 1.45214 0
M  V30 2745 C 258.751 -1.95421 0.0835494 0
M  V30 2746 O 259.957 -2.71488 -0.0251748 0
M  V30 2747 C 258.413 -2.53384 2.55587 0
M  V30 2748 C 258.021 -2.04517 3.98594 0
M  V30 2749 C 259.765 -3.30685 2.66172 0
M  V30 2750 C 257.672 -3.1518 5.00416 0
M  V30 2751 H 256.602 -0.526005 0.540218 0
M  V30 2752 H 259.253 -0.694367 1.69855 0
M  V30 2753 H 257.635 -3.26446 2.24163 0
M  V30 2754 H 258.809 -1.38405 4.39523 0
M  V30 2755 H 257.124 -1.40068 3.92135 0
M  V30 2756 H 259.721 -4.13158 3.39418 0
M  V30 2757 H 260.064 -3.79312 1.71546 0
M  V30 2758 H 260.597 -2.64708 2.96942 0
M  V30 2759 H 257.336 -2.71511 5.96625 0
M  V30 2760 H 256.856 -3.79974 4.64091 0
M  V30 2761 H 258.535 -3.80166 5.23529 0
M  V30 2762 N 258.668 -1.30515 -0.883378 0
M  V30 2763 C 259.615 -1.17032 -1.98927 0
M  V30 2764 C 260.585 -0.0594241 -1.65994 0
M  V30 2765 O 261.77 -0.229895 -1.8941 0
M  V30 2766 C 258.91 -0.869777 -3.33959 0
M  V30 2767 C 258.023 -2.06271 -3.79574 0
M  V30 2768 C 257.158 -1.70011 -5.03259 0
M  V30 2769 C 256.197 -2.8579 -5.41286 0
M  V30 2770 N 255.334 -2.49816 -6.56153 0
M  V30 2771 H 260.174 -2.1164 -2.09792 0
M  V30 2772 H 257.711 -1.05296 -1.02719 0
M  V30 2773 H 259.669 -0.676138 -4.11685 0
M  V30 2774 H 258.299 0.0394332 -3.22776 0
M  V30 2775 H 257.351 -2.36755 -2.97744 0
M  V30 2776 H 258.663 -2.92971 -4.03694 0
M  V30 2777 H 257.817 -1.47032 -5.88614 0
M  V30 2778 H 256.556 -0.804829 -4.81013 0
M  V30 2779 H 255.561 -3.09434 -4.54456 0
M  V30 2780 H 256.786 -3.76008 -5.65504 0
M  V30 2781 H 254.732 -1.62795 -6.35479 0
M  V30 2782 H 254.649 -3.30048 -6.8015 0
M  V30 2783 H 255.917 -2.30197 -7.44735 0
M  V30 2784 N 260.146 1.09593 -1.13257 0
M  V30 2785 C 261.393 1.81734 -0.893257 0
M  V30 2786 C 261.721 1.8563 0.580656 0
M  V30 2787 O 260.976 1.31906 1.44566 0
M  V30 2788 C 261.275 3.27802 -1.42411 0
M  V30 2789 C 260.941 3.44041 -2.91456 0
M  V30 2790 C 259.603 3.48181 -3.3215 0
M  V30 2791 C 261.955 3.48719 -3.87356 0
M  V30 2792 C 259.283 3.54575 -4.67433 0
M  V30 2793 C 261.635 3.56648 -5.2248 0
M  V30 2794 C 260.299 3.59055 -5.62704 0
M  V30 2795 H 259.569 0.665011 -0.326866 0
M  V30 2796 H 262.216 1.2912 -1.41422 0
M  V30 2797 H 260.521 3.83042 -0.823795 0
M  V30 2798 H 262.218 3.82149 -1.21503 0
M  V30 2799 H 258.808 3.41502 -2.58987 0
M  V30 2800 H 262.992 3.44763 -3.57004 0
M  V30 2801 H 258.248 3.54725 -4.97976 0
M  V30 2802 H 262.422 3.59212 -5.96607 0
M  V30 2803 H 260.049 3.63763 -6.67518 0
M  V30 2804 N 261.624 0.925811 1.2754 0
M  V30 2805 C 262.554 0.440748 2.29303 0
M  V30 2806 C 263.535 -0.497971 1.62648 0
M  V30 2807 O 264.72 -0.403126 1.8997 0
M  V30 2808 C 261.85 -0.309048 3.45922 0
M  V30 2809 C 260.804 0.54166 4.24559 0
M  V30 2810 C 260.13 -0.337191 5.33636 0
M  V30 2811 C 261.43 1.80516 4.90114 0
M  V30 2812 H 263.124 1.29121 2.70126 0
M  V30 2813 H 260.67 0.622323 1.29858 0
M  V30 2814 H 262.623 -0.659315 4.1621 0
M  V30 2815 H 261.347 -1.19352 3.04011 0
M  V30 2816 H 260.006 0.874609 3.56014 0
M  V30 2817 H 259.654 -1.22056 4.87966 0
M  V30 2818 H 259.354 0.228497 5.87156 0
M  V30 2819 H 260.878 -0.683072 6.06767 0
M  V30 2820 H 262.292 1.52307 5.52698 0
M  V30 2821 H 260.689 2.3142 5.53683 0
M  V30 2822 H 261.759 2.52581 4.13921 0
M  V30 2823 N 263.102 -1.41638 0.69111 0
M  V30 2824 C 264.327 -2.06148 0.227583 0
M  V30 2825 C 264.752 -1.51652 -1.11281 0
M  V30 2826 O 264.11 -0.64164 -1.69566 0
M  V30 2827 C 264.158 -3.60095 0.190858 0
M  V30 2828 O 263.262 -4.03845 -0.835664 0
M  V30 2829 H 262.603 -0.654434 0.112306 0
M  V30 2830 H 265.133 -1.81484 0.944714 0
M  V30 2831 H 265.143 -4.07995 0.020207 0
M  V30 2832 H 263.818 -3.99129 1.16915 0
M  V30 2833 H 262.395 -3.67458 -0.63473 0
M  V30 2834 N 264.58 -0.43555 -1.51462 0
M  V30 2835 C 265.527 0.376797 -2.27703 0
M  V30 2836 C 266.497 1.01838 -1.31219 0
M  V30 2837 O 267.682 1.03762 -1.60119 0
M  V30 2838 C 264.822 1.47301 -3.12084 0
M  V30 2839 C 263.935 0.849744 -4.2356 0
M  V30 2840 C 263.07 1.92086 -4.95254 0
M  V30 2841 C 262.109 1.27593 -5.98654 0
M  V30 2842 N 261.246 2.28833 -6.63762 0
M  V30 2843 H 266.086 -0.279734 -2.96684 0
M  V30 2844 H 263.623 -0.149795 -1.46335 0
M  V30 2845 H 265.581 2.11984 -3.59331 0
M  V30 2846 H 264.211 2.0992 -2.45221 0
M  V30 2847 H 263.263 0.0912529 -3.80291 0
M  V30 2848 H 264.575 0.338878 -4.97648 0
M  V30 2849 H 263.729 2.64435 -5.46039 0
M  V30 2850 H 262.468 2.46545 -4.20793 0
M  V30 2851 H 261.473 0.537893 -5.47162 0
M  V30 2852 H 262.698 0.738693 -6.7507 0
M  V30 2853 H 260.644 2.82375 -5.92115 0
M  V30 2854 H 260.561 1.82632 -7.33608 0
M  V30 2855 H 261.829 3.00671 -7.19178 0
M  V30 2856 N 266.058 1.56714 -0.166846 0
M  V30 2857 C 267.304 1.97039 0.479962 0
M  V30 2858 C 267.637 1.05264 1.63197 0
M  V30 2859 O 266.912 0.0988833 1.94248 0
M  V30 2860 C 267.195 3.46867 0.967212 0
M  V30 2861 C 267.048 4.49421 -0.18466 0
M  V30 2862 C 268.367 3.9968 1.84238 0
M  V30 2863 H 265.486 0.71641 0.172992 0
M  V30 2864 H 268.128 1.8832 -0.252079 0
M  V30 2865 H 266.278 3.54428 1.59101 0
M  V30 2866 H 267.95 4.53924 -0.821621 0
M  V30 2867 H 266.193 4.25573 -0.840837 0
M  V30 2868 H 266.864 5.51644 0.198317 0
M  V30 2869 H 269.34 3.94723 1.31655 0
M  V30 2870 H 268.216 5.04941 2.15234 0
M  V30 2871 H 268.477 3.43226 2.78654 0
M  V30 2872 N 267.536 -0.106894 1.57237 0
M  V30 2873 C 268.764 -0.826389 1.8968 0
M  V30 2874 C 269.179 -1.72856 0.759353 0
M  V30 2875 O 268.536 -1.80503 -0.269263 0
M  V30 2876 C 268.587 -1.64967 3.21665 0
M  V30 2877 O 268.308 -0.783804 4.31031 0
M  V30 2878 C 269.809 -2.47326 3.67892 0
M  V30 2879 H 267.029 -0.236927 0.627779 0
M  V30 2880 H 269.573 -0.0876593 2.04312 0
M  V30 2881 H 267.728 -2.34103 3.08666 0
M  V30 2882 H 268.142 -1.35284 5.06753 0
M  V30 2883 H 269.616 -3.00604 4.6297 0
M  V30 2884 H 270.093 -3.25247 2.95146 0
M  V30 2885 H 270.699 -1.83411 3.83719 0
M  V30 2886 N 269.014 -1.53014 -0.377408 0
M  V30 2887 C 270.244 -1.72265 -1.14054 0
M  V30 2888 C 270.652 -0.44601 -1.83868 0
M  V30 2889 O 269.995 0.590095 -1.73964 0
M  V30 2890 C 270.057 -2.82492 -2.22348 0
M  V30 2891 C 269.721 -4.23233 -1.72402 0
M  V30 2892 C 270.718 -5.05992 -1.19448 0
M  V30 2893 C 268.403 -4.696 -1.78273 0
M  V30 2894 C 270.397 -6.33203 -0.730268 0
M  V30 2895 C 268.084 -5.96792 -1.31464 0
M  V30 2896 C 269.082 -6.78424 -0.789297 0
M  V30 2897 O 268.77 -8.0323 -0.328077 0
M  V30 2898 H 268.502 -0.579873 -0.347453 0
M  V30 2899 H 271.056 -2.00502 -0.445882 0
M  V30 2900 H 269.286 -2.49702 -2.95272 0
M  V30 2901 H 270.975 -2.90034 -2.83963 0
M  V30 2902 H 271.741 -4.71349 -1.14259 0
M  V30 2903 H 267.62 -4.06142 -2.18106 0
M  V30 2904 H 271.164 -6.96868 -0.319542 0
M  V30 2905 H 267.061 -6.30937 -1.36342 0
M  V30 2906 H 267.829 -8.1727 -0.448493 0
M  V30 2907 N 270.492 0.636531 -1.44174 0
M  V30 2908 C 271.44 1.76995 -1.50915 0
M  V30 2909 C 272.434 1.65053 -0.381295 0
M  V30 2910 O 273.64 1.71197 -0.55601 0
M  V30 2911 H 270.015 0.584247 -0.473455 0
M  V30 2912 H 271.986 1.68432 -2.4632 0
M  V30 2913 C 270.735 3.15314 -1.46534 0
M  V30 2914 H 270.058 3.25149 -2.32633 0
M  V30 2915 H 271.498 3.9453 -1.55312 0
M  V30 2916 C 269.957 3.3639 -0.185305 0
M  V30 2917 O 270.487 3.94699 0.746688 0
M  V30 2918 N 268.693 2.9046 -0.0901606 0
M  V30 2919 H 268.24 2.43193 -0.849416 0
M  V30 2920 H 268.198 3.04937 0.765553 0
M  V30 2921 N 271.97 1.30982 0.876444 0
M  V30 2922 C 273.381 1.18277 1.44456 0
M  V30 2923 C 273.732 -0.213265 1.95037 0
M  V30 2924 O 272.857 -1.11057 1.85729 0
M  V30 2925 C 273.452 2.1411 2.62569 0
M  V30 2926 C 272.011 2.05358 3.15444 0
M  V30 2927 C 271.158 2.03706 1.88146 0
M  V30 2928 H 274.109 1.43127 0.685584 0
M  V30 2929 H 274.13 1.72692 3.39054 0
M  V30 2930 H 273.642 3.15706 2.25724 0
M  V30 2931 H 271.743 1.06934 3.56926 0
M  V30 2932 H 271.856 2.94156 3.78166 0
M  V30 2933 H 270.22 1.48629 2.06837 0
M  V30 2934 H 271.003 3.07047 1.53547 0
M  V30 2935 N 273.449 -1.08991 1.13837 0
M  V30 2936 C 274.359 -2.19301 0.833333 0
M  V30 2937 C 275.375 -1.73026 -0.183847 0
M  V30 2938 O 276.551 -2.01395 -0.0138092 0
M  V30 2939 C 273.616 -3.45323 0.308651 0
M  V30 2940 C 272.677 -4.06255 1.38764 0
M  V30 2941 C 271.91 -5.26262 0.887896 0
M  V30 2942 O 272.133 -5.69747 -0.27287 0
M  V30 2943 O 271.067 -5.78435 1.66421 0
M  V30 2944 H 274.893 -2.47854 1.75506 0
M  V30 2945 H 272.478 -1.18012 0.916166 0
M  V30 2946 H 274.36 -4.21394 0.0216739 0
M  V30 2947 H 273.035 -3.18362 -0.585431 0
M  V30 2948 H 271.942 -3.318 1.72799 0
M  V30 2949 H 273.275 -4.37452 2.25602 0
M  V30 2950 N 274.927 -0.932562 -1.27047 0
M  V30 2951 C 275.874 -0.434072 -2.26681 0
M  V30 2952 C 276.844 0.501639 -1.58344 0
M  V30 2953 O 278.029 0.419734 -1.86126 0
M  V30 2954 C 275.169 0.30261 -3.43771 0
M  V30 2955 C 274.282 -0.667774 -4.26808 0
M  V30 2956 C 273.417 0.0892393 -5.31125 0
M  V30 2957 C 272.456 -0.873532 -6.05835 0
M  V30 2958 N 271.593 -0.148832 -7.01942 0
M  V30 2959 H 276.433 -1.28868 -2.68695 0
M  V30 2960 H 273.97 -0.646713 -1.32121 0
M  V30 2961 H 275.928 0.746092 -4.10474 0
M  V30 2962 H 274.558 1.12142 -3.02695 0
M  V30 2963 H 273.61 -1.22978 -3.59973 0
M  V30 2964 H 274.922 -1.40337 -4.78651 0
M  V30 2965 H 274.076 0.592409 -6.03801 0
M  V30 2966 H 272.815 0.85777 -4.80097 0
M  V30 2967 H 271.82 -1.38791 -5.31994 0
M  V30 2968 H 273.045 -1.64193 -6.58952 0
M  V30 2969 H 270.991 0.601365 -6.53238 0
M  V30 2970 H 270.908 -0.82391 -7.51497 0
M  V30 2971 H 272.176 0.333527 -7.78786 0
M  V30 2972 N 276.405 1.4127 -0.698611 0
M  V30 2973 C 277.816 1.84187 -0.305289 0
M  V30 2974 C 278.167 1.58449 1.15708 0
M  V30 2975 O 277.292 1.05651 1.88856 0
M  V30 2976 C 277.887 3.3435 -0.547314 0
M  V30 2977 C 276.446 3.75826 -0.207878 0
M  V30 2978 C 275.593 2.64647 -0.828099 0
M  V30 2979 H 278.544 1.30778 -0.89904 0
M  V30 2980 H 278.565 3.8001 0.192998 0
M  V30 2981 H 278.077 3.53051 -1.61172 0
M  V30 2982 H 276.178 3.62725 0.852143 0
M  V30 2983 H 276.291 4.74462 -0.665021 0
M  V30 2984 H 274.655 2.53395 -0.257458 0
M  V30 2985 H 275.438 2.86165 -1.89643 0
M  V30 2986 N 277.883 0.443576 1.51229 0
M  V30 2987 C 279.113 -0.119117 2.06256 0
M  V30 2988 C 279.521 -1.36471 1.31043 0
M  V30 2989 O 278.864 -1.80034 0.365151 0
M  V30 2990 C 278.926 -0.500546 3.55998 0
M  V30 2991 C 278.59 0.639125 4.52509 0
M  V30 2992 C 279.587 1.51311 4.97394 0
M  V30 2993 C 277.272 0.821632 4.95535 0
M  V30 2994 C 279.266 2.55425 5.83984 0
M  V30 2995 C 276.953 1.86603 5.81913 0
M  V30 2996 C 277.951 2.73072 6.26036 0
M  V30 2997 O 277.639 3.75718 7.10698 0
M  V30 2998 H 277.371 -0.00857665 0.675946 0
M  V30 2999 H 279.925 0.623288 1.95715 0
M  V30 3000 H 278.155 -1.29575 3.64345 0
M  V30 3001 H 279.844 -0.995116 3.93513 0
M  V30 3002 H 280.61 1.38367 4.64844 0
M  V30 3003 H 276.489 0.158149 4.60729 0
M  V30 3004 H 280.033 3.22949 6.18344 0
M  V30 3005 H 275.93 1.99564 6.13876 0
M  V30 3006 H 276.698 3.72374 7.2889 0
M  V30 3007 N 279.361 -1.56624 0.175154 0
M  V30 3008 C 280.607 -1.9729 -0.469506 0
M  V30 3009 C 280.94 -1.06128 -1.62636 0
M  V30 3010 O 280.215 -0.109183 -1.94193 0
M  V30 3011 C 280.498 -3.47375 -0.948804 0
M  V30 3012 C 280.351 -4.49317 0.208491 0
M  V30 3013 C 281.67 -4.00652 -1.82116 0
M  V30 3014 H 278.789 -0.717317 -0.16919 0
M  V30 3015 H 281.431 -1.88184 0.262062 0
M  V30 3016 H 279.581 -3.55267 -1.57219 0
M  V30 3017 H 281.253 -4.53482 0.845682 0
M  V30 3018 H 279.496 -4.25121 0.863395 0
M  V30 3019 H 280.167 -5.51741 -0.169059 0
M  V30 3020 H 282.643 -3.95416 -1.2956 0
M  V30 3021 H 281.519 -5.06075 -2.12554 0
M  V30 3022 H 281.78 -3.44699 -2.7683 0
M  V30 3023 N 280.839 0.0985539 -1.57292 0
M  V30 3024 C 282.085 0.803867 -1.86188 0
M  V30 3025 C 282.418 1.78549 -0.763794 0
M  V30 3026 O 281.693 1.93153 0.22855 0
M  V30 3027 C 281.976 1.53568 -3.25713 0
M  V30 3028 C 281.829 0.572277 -4.46145 0
M  V30 3029 C 283.148 2.48708 -3.63087 0
M  V30 3030 H 280.267 0.290781 -0.677211 0
M  V30 3031 H 282.909 0.0675783 -1.8988 0
M  V30 3032 H 281.059 2.16332 -3.22696 0
M  V30 3033 H 282.731 -0.0480894 -4.61275 0
M  V30 3034 H 280.974 -0.114618 -4.33649 0
M  V30 3035 H 281.645 1.12139 -5.40489 0
M  V30 3036 H 284.121 1.96039 -3.67026 0
M  V30 3037 H 282.997 2.96932 -4.61652 0
M  V30 3038 H 283.258 3.32309 -2.91588 0
M  V30 3039 N 282.317 1.53212 0.369288 0
M  V30 3040 C 283.563 1.69466 1.11397 0
M  V30 3041 C 283.896 0.443257 1.89074 0
M  V30 3042 O 283.171 -0.559386 1.86282 0
M  V30 3043 C 283.454 2.9422 2.07621 0
M  V30 3044 C 283.307 4.29508 1.33577 0
M  V30 3045 C 284.626 3.14565 3.07794 0
M  V30 3046 H 281.745 0.616667 0.403597 0
M  V30 3047 H 284.387 1.85845 0.395179 0
M  V30 3048 H 282.537 2.80387 2.68916 0
M  V30 3049 H 284.209 4.55147 0.750955 0
M  V30 3050 H 282.452 4.29088 0.637618 0
M  V30 3051 H 283.123 5.12926 2.03989 0
M  V30 3052 H 285.599 3.2756 2.56601 0
M  V30 3053 H 284.475 4.03297 3.72348 0
M  V30 3054 H 284.736 2.29675 3.77759 0
M  V30 3055 N 283.795 -0.628877 1.44509 0
M  V30 3056 C 284.725 -1.75187 1.54376 0
M  V30 3057 C 285.706 -1.65411 0.396618 0
M  V30 3058 O 286.891 -1.84137 0.617031 0
M  V30 3059 C 284.021 -3.13725 1.48976 0
M  V30 3060 C 282.975 -3.38291 2.62189 0
M  V30 3061 C 282.301 -4.76883 2.41841 0
M  V30 3062 C 283.601 -3.30632 4.04326 0
M  V30 3063 H 285.295 -1.67187 2.48373 0
M  V30 3064 H 282.841 -0.802909 1.19538 0
M  V30 3065 H 284.794 -3.92064 1.54478 0
M  V30 3066 H 283.518 -3.22515 0.514961 0
M  V30 3067 H 282.177 -2.62334 2.56079 0
M  V30 3068 H 281.825 -4.82378 1.42548 0
M  V30 3069 H 281.525 -4.94278 3.17747 0
M  V30 3070 H 283.049 -5.57449 2.49165 0
M  V30 3071 H 284.463 -3.98873 4.11793 0
M  V30 3072 H 282.86 -3.59561 4.80454 0
M  V30 3073 H 283.93 -2.28404 4.27738 0
M  V30 3074 N 285.273 -1.31445 -0.869486 0
M  V30 3075 C 286.521 -1.20918 -1.61936 0
M  V30 3076 C 286.842 0.232683 -1.93607 0
M  V30 3077 O 286.112 1.15352 -1.58338 0
M  V30 3078 H 284.692 -0.44454 -0.600328 0
M  V30 3079 H 287.354 -1.64776 -1.0409 0
M  V30 3080 H 286.45 -1.78124 -2.56278 0
M  V30 3081 N 286.751 1.08385 -1.14413 0
M  V30 3082 C 287.999 1.80419 -0.910679 0
M  V30 3083 C 288.32 1.86658 0.564243 0
M  V30 3084 O 287.59 1.35985 1.41014 0
M  V30 3085 H 286.17 0.668204 -0.333934 0
M  V30 3086 H 288.832 1.31037 -1.44275 0
M  V30 3087 H 287.928 2.83238 -1.31082 0
M  V30 3088 N 288.23 0.939286 1.26551 0
M  V30 3089 C 289.193 0.451987 2.24699 0
M  V30 3090 C 290.193 -0.435869 1.5478 0
M  V30 3091 O 291.383 -0.235314 1.72603 0
M  V30 3092 C 288.515 -0.348801 3.39111 0
M  V30 3093 H 289.708 1.3193 2.69322 0
M  V30 3094 H 287.261 0.721072 1.38673 0
M  V30 3095 H 287.996 -1.23444 2.99887 0
M  V30 3096 H 287.781 0.287945 3.91041 0
M  V30 3097 H 289.271 -0.679726 4.12031 0
M  V30 3098 N 289.708 -1.40897 0.706093 0
M  V30 3099 C 290.655 -2.30751 0.0474474 0
M  V30 3100 C 291.625 -1.47678 -0.76029 0
M  V30 3101 O 292.81 -1.76441 -0.726177 0
M  V30 3102 C 289.95 -3.33815 -0.875309 0
M  V30 3103 C 289.063 -4.31961 -0.0580623 0
M  V30 3104 C 288.198 -5.22093 -0.979425 0
M  V30 3105 C 287.237 -6.11902 -0.155706 0
M  V30 3106 N 286.374 -6.94482 -1.03144 0
M  V30 3107 H 291.214 -2.86513 0.819413 0
M  V30 3108 H 288.751 -1.41102 0.415783 0
M  V30 3109 H 290.709 -3.92129 -1.42446 0
M  V30 3110 H 289.339 -2.79579 -1.61356 0
M  V30 3111 H 288.391 -3.75507 0.608147 0
M  V30 3112 H 289.703 -4.95415 0.580082 0
M  V30 3113 H 288.857 -5.85292 -1.59744 0
M  V30 3114 H 287.596 -4.5889 -1.65141 0
M  V30 3115 H 286.601 -5.47742 0.475309 0
M  V30 3116 H 287.826 -6.77162 0.512635 0
M  V30 3117 H 285.772 -6.33877 -1.68924 0
M  V30 3118 H 285.689 -7.54665 -0.449108 0
M  V30 3119 H 286.957 -7.6214 -1.63593 0
M  V30 3120 N 291.186 -0.45159 -1.50991 0
M  V30 3121 C 292.432 0.110237 -2.025 0
M  V30 3122 C 292.765 1.41109 -1.33424 0
M  V30 3123 O 292.04 1.89135 -0.453659 0
M  V30 3124 C 292.323 0.314271 -3.58726 0
M  V30 3125 C 292.176 -1.00623 -4.38401 0
M  V30 3126 C 293.495 1.07767 -4.26702 0
M  V30 3127 H 290.614 0.0385897 -0.735989 0
M  V30 3128 H 293.256 -0.593374 -1.80497 0
M  V30 3129 H 291.406 0.913601 -3.77605 0
M  V30 3130 H 293.078 -1.64064 -4.31139 0
M  V30 3131 H 291.321 -1.6075 -4.02917 0
M  V30 3132 H 291.992 -0.817341 -5.45915 0
M  V30 3133 H 294.468 0.56986 -4.12179 0
M  V30 3134 H 293.344 1.18921 -5.35863 0
M  V30 3135 H 293.605 2.10939 -3.88532 0
M  V30 3136 N 292.664 1.56529 -0.183458 0
M  V30 3137 C 293.889 2.02064 0.467428 0
M  V30 3138 C 294.314 1.06282 1.55196 0
M  V30 3139 O 293.672 0.0443565 1.81246 0
M  V30 3140 C 293.72 3.46122 1.01153 0
M  V30 3141 O 292.824 3.53437 2.12499 0
M  V30 3142 H 292.165 0.654726 0.110588 0
M  V30 3143 H 294.695 2.02521 -0.290917 0
M  V30 3144 H 294.705 3.85676 1.33108 0
M  V30 3145 H 293.38 4.15331 0.217533 0
M  V30 3146 H 291.957 3.2575 1.81497 0
M  V30 3147 N 294.142 -0.090211 1.57342 0
M  V30 3148 C 295.419 -0.824761 1.77361 0
M  V30 3149 C 295.799 -1.96698 0.76637 0
M  V30 3150 O 295.147 -2.27586 -0.204179 0
M  V30 3151 C 295.357 -1.31481 3.23286 0
M  V30 3152 C 296.705 -1.75563 3.86604 0
M  V30 3153 O 297.729 -1.41093 3.27065 0
M  V30 3154 O 296.588 -2.39317 4.91314 0
M  V30 3155 H 293.682 -0.393776 0.727234 0
M  V30 3156 H 296.228 -0.0717138 1.69548 0
M  V30 3157 H 295 -0.496671 3.88135 0
M  V30 3158 H 294.623 -2.12973 3.35751 0
M  V30 3159 N 295.62 -1.53406 -0.361157 0
M  V30 3160 C 296.567 -1.80156 -1.44265 0
M  V30 3161 C 297.537 -0.646183 -1.53015 0
M  V30 3162 O 298.722 -0.888818 -1.68833 0
M  V30 3163 C 295.862 -2.00116 -2.81154 0
M  V30 3164 C 294.975 -3.27833 -2.81335 0
M  V30 3165 C 294.11 -3.37957 -4.09828 0
M  V30 3166 C 293.149 -4.59689 -4.04168 0
M  V30 3167 N 292.286 -4.66942 -5.24318 0
M  V30 3168 H 297.126 -2.72438 -1.20754 0
M  V30 3169 H 294.663 -1.34954 -0.585296 0
M  V30 3170 H 296.621 -2.09677 -3.60682 0
M  V30 3171 H 295.251 -1.11167 -3.03054 0
M  V30 3172 H 294.303 -3.27204 -1.94014 0
M  V30 3173 H 295.615 -4.17442 -2.73027 0
M  V30 3174 H 294.769 -3.46853 -4.97773 0
M  V30 3175 H 293.508 -2.46372 -4.20894 0
M  V30 3176 H 292.513 -4.50889 -3.14609 0
M  V30 3177 H 293.738 -5.5262 -3.947 0
M  V30 3178 H 291.684 -3.7826 -5.35962 0
M  V30 3179 H 291.601 -5.50462 -5.18197 0
M  V30 3180 H 292.869 -4.80127 -6.14084 0
M  V30 3181 N 297.098 0.621204 -1.44841 0
M  V30 3182 C 298.347 1.37658 -1.47422 0
M  V30 3183 C 298.66 1.95264 -0.114629 0
M  V30 3184 O 299.866 2.71494 -0.0180199 0
M  V30 3185 C 298.322 2.49285 -2.59586 0
M  V30 3186 C 297.93 1.98149 -4.01797 0
M  V30 3187 C 299.674 3.26409 -2.71399 0
M  V30 3188 C 297.581 3.07178 -5.05367 0
M  V30 3189 H 296.511 0.517344 -0.548517 0
M  V30 3190 H 299.162 0.667257 -1.70938 0
M  V30 3191 H 297.544 3.22839 -2.29328 0
M  V30 3192 H 298.718 1.31395 -4.41669 0
M  V30 3193 H 297.033 1.33812 -3.94314 0
M  V30 3194 H 299.63 4.07706 -3.45948 0
M  V30 3195 H 299.973 3.76535 -1.77559 0
M  V30 3196 H 300.506 2.5995 -3.01116 0
M  V30 3197 H 297.245 2.61985 -6.00869 0
M  V30 3198 H 296.765 3.72542 -4.70077 0
M  V30 3199 H 298.444 3.71789 -5.29511 0
M  V30 3200 N 298.576 1.31904 0.862503 0
M  V30 3201 C 299.824 1.21776 1.61292 0
M  V30 3202 C 300.145 -0.222413 1.93727 0
M  V30 3203 O 299.415 -1.1451 1.58947 0
M  V30 3204 H 297.995 0.447717 0.597962 0
M  V30 3205 H 300.657 1.65326 1.03215 0
M  V30 3206 H 299.753 1.7948 2.5533 0
M  V30 3207 N 300.054 -1.07777 1.14986 0
M  V30 3208 C 301.3 -1.80557 0.923422 0
M  V30 3209 C 301.633 -1.86298 -0.548337 0
M  V30 3210 O 300.908 -1.34354 -1.40639 0
M  V30 3211 C 301.191 -3.25839 1.53299 0
M  V30 3212 C 301.044 -3.28269 3.07505 0
M  V30 3213 C 302.363 -4.22991 1.21518 0
M  V30 3214 H 299.482 -0.655493 0.336894 0
M  V30 3215 H 302.124 -1.26144 1.42083 0
M  V30 3216 H 300.274 -3.72306 1.10999 0
M  V30 3217 H 301.946 -2.90079 3.58681 0
M  V30 3218 H 300.189 -2.67355 3.4162 0
M  V30 3219 H 300.86 -4.30691 3.45266 0
M  V30 3220 H 303.336 -3.84894 1.581 0
M  V30 3221 H 302.212 -5.22945 1.66793 0
M  V30 3222 H 302.473 -4.41904 0.131505 0
M  V30 3223 N 301.532 -0.945985 -1.26051 0
M  V30 3224 C 302.781 -0.591836 -1.92822 0
M  V30 3225 C 303.094 0.873956 -1.7499 0
M  V30 3226 O 304.3 1.33769 -2.36259 0
M  V30 3227 C 302.756 -1.00776 -3.45503 0
M  V30 3228 C 302.364 -2.4955 -3.7206 0
M  V30 3229 C 304.108 -0.725735 -4.1825 0
M  V30 3230 C 302.015 -2.84988 -5.18205 0
M  V30 3231 H 300.945 -0.217635 -0.721908 0
M  V30 3232 H 303.596 -1.14927 -1.43052 0
M  V30 3233 H 301.978 -0.378812 -3.94184 0
M  V30 3234 H 303.152 -3.1739 -3.34066 0
M  V30 3235 H 301.467 -2.75133 -3.12555 0
M  V30 3236 H 304.064 -0.966771 -5.25887 0
M  V30 3237 H 304.407 0.337639 -4.14929 0
M  V30 3238 H 304.94 -1.31463 -3.7545 0
M  V30 3239 H 301.679 -3.90307 -5.26631 0
M  V30 3240 H 301.199 -2.21813 -5.57278 0
M  V30 3241 H 302.878 -2.73712 -5.86252 0
M  V30 3242 N 303.011 1.40521 -0.713556 0
M  V30 3243 C 304.239 2.05237 -0.261775 0
M  V30 3244 C 304.654 1.53755 1.09567 0
M  V30 3245 O 304.011 0.693268 1.6882 0
M  V30 3246 C 304.062 3.60763 -0.230706 0
M  V30 3247 O 303.783 4.10345 -1.53455 0
M  V30 3248 C 305.284 4.42651 0.239874 0
M  V30 3249 H 302.504 0.660533 -0.118057 0
M  V30 3250 H 305.048 1.79967 -0.971192 0
M  V30 3251 H 303.203 3.8501 0.429661 0
M  V30 3252 H 303.617 5.04526 -1.43366 0
M  V30 3253 H 305.091 5.51599 0.210468 0
M  V30 3254 H 305.568 4.20082 1.28171 0
M  V30 3255 H 306.174 4.23507 -0.390142 0
M  V30 3256 N 304.489 0.459591 1.5075 0
M  V30 3257 C 305.437 -0.354678 2.2988 0
M  V30 3258 C 306.431 -1.00086 1.36672 0
M  V30 3259 O 307.637 -0.933277 1.53915 0
M  V30 3260 H 304.012 -0.13321 0.740107 0
M  V30 3261 H 305.983 0.333269 2.96533 0
M  V30 3262 C 304.732 -1.43073 3.169 0
M  V30 3263 H 304.055 -0.942882 3.88523 0
M  V30 3264 H 305.495 -1.97328 3.75284 0
M  V30 3265 C 303.954 -2.42633 2.33732 0
M  V30 3266 O 304.484 -3.47658 2.01238 0
M  V30 3267 N 302.69 -2.14066 1.9653 0
M  V30 3268 H 302.237 -1.28685 2.23155 0
M  V30 3269 H 302.195 -2.80917 1.41185 0
M  V30 3270 N 305.967 -1.56429 0.191757 0
M  V30 3271 C 306.897 -2.21937 -0.725696 0
M  V30 3272 C 307.878 -1.1814 -1.2238 0
M  V30 3273 O 309.063 -1.46636 -1.27325 0
M  V30 3274 C 306.193 -2.87611 -1.94672 0
M  V30 3275 C 305.147 -3.97623 -1.58366 0
M  V30 3276 C 304.473 -4.50446 -2.88102 0
M  V30 3277 C 305.773 -5.16197 -0.796133 0
M  V30 3278 H 307.467 -2.98861 -0.179606 0
M  V30 3279 H 305.013 -1.43749 -0.0849464 0
M  V30 3280 H 306.966 -3.3212 -2.59373 0
M  V30 3281 H 305.69 -2.08087 -2.51728 0
M  V30 3282 H 304.349 -3.53801 -0.960247 0
M  V30 3283 H 303.997 -3.67688 -3.43241 0
M  V30 3284 H 303.697 -5.24675 -2.64556 0
M  V30 3285 H 305.221 -4.97654 -3.53798 0
M  V30 3286 H 306.635 -5.57271 -1.34618 0
M  V30 3287 H 305.032 -5.96471 -0.658928 0
M  V30 3288 H 306.102 -4.84473 0.203478 0
M  V30 3289 N 307.445 0.0818655 -1.57387 0
M  V30 3290 C 308.378 1.12986 -1.98266 0
M  V30 3291 C 309.356 1.38123 -0.857954 0
M  V30 3292 O 310.54 1.51663 -1.1194 0
M  V30 3293 C 307.667 2.47632 -2.31076 0
M  V30 3294 C 306.713 2.38693 -3.53452 0
M  V30 3295 S 307.546 1.79071 -5.04672 0
M  V30 3296 C 308.702 3.15316 -5.40673 0
M  V30 3297 H 308.935 0.781435 -2.86846 0
M  V30 3298 H 306.468 0.290034 -1.51651 0
M  V30 3299 H 308.426 3.25089 -2.50654 0
M  V30 3300 H 307.087 2.79638 -1.43043 0
M  V30 3301 H 306.28 3.37964 -3.73893 0
M  V30 3302 H 305.882 1.69369 -3.33452 0
M  V30 3303 H 308.174 4.11613 -5.38127 0
M  V30 3304 H 309.117 2.99664 -6.41566 0
M  V30 3305 H 309.525 3.15457 -4.68132 0
M  V30 3306 N 308.923 1.53595 0.353017 0
M  V30 3307 C 309.833 1.83897 1.45667 0
M  V30 3308 C 310.849 0.728334 1.58023 0
M  V30 3309 O 312.025 1.01968 1.73679 0
M  V30 3310 C 309.09 2.03383 2.80778 0
M  V30 3311 C 308.151 3.27262 2.77845 0
M  V30 3312 C 307.384 3.45809 4.06512 0
M  V30 3313 O 307.607 2.68387 5.03314 0
M  V30 3314 O 306.541 4.39207 4.11559 0
M  V30 3315 H 310.367 2.77686 1.2298 0
M  V30 3316 H 307.952 1.39132 0.544308 0
M  V30 3317 H 309.834 2.17698 3.60812 0
M  V30 3318 H 308.509 1.12783 3.03417 0
M  V30 3319 H 307.416 3.18359 1.96465 0
M  V30 3320 H 308.749 4.17824 2.60161 0
M  V30 3321 N 310.401 -0.613514 1.45168 0
M  V30 3322 C 311.348 -1.72456 1.53387 0
M  V30 3323 C 312.318 -1.6169 0.380191 0
M  V30 3324 O 313.503 -1.81356 0.592836 0
M  V30 3325 C 310.643 -3.10753 1.50088 0
M  V30 3326 C 309.756 -3.32368 2.75963 0
M  V30 3327 C 308.891 -4.60737 2.64376 0
M  V30 3328 C 307.93 -4.7559 3.85332 0
M  V30 3329 N 307.067 -5.95253 3.72315 0
M  V30 3330 H 311.907 -1.64768 2.48305 0
M  V30 3331 H 309.444 -0.803503 1.23216 0
M  V30 3332 H 311.402 -3.90758 1.46164 0
M  V30 3333 H 310.032 -3.17413 0.587243 0
M  V30 3334 H 309.084 -2.4618 2.89999 0
M  V30 3335 H 310.396 -3.39218 3.65695 0
M  V30 3336 H 309.55 -5.48928 2.58385 0
M  V30 3337 H 308.289 -4.56275 1.72233 0
M  V30 3338 H 307.294 -3.85824 3.91688 0
M  V30 3339 H 308.519 -4.81854 4.78533 0
M  V30 3340 H 306.465 -5.91847 2.82937 0
M  V30 3341 H 306.382 -6.03236 4.55677 0
M  V30 3342 H 307.65 -6.85958 3.70246 0
M  V30 3343 N 311.879 -1.3236 -0.855495 0
M  V30 3344 C 312.842 -1.21164 -1.94556 0
M  V30 3345 C 313.842 -0.134908 -1.60233 0
M  V30 3346 O 315.032 -0.385249 -1.69887 0
M  V30 3347 C 312.164 -0.863192 -3.29791 0
M  V30 3348 H 313.357 -2.18038 -2.05911 0
M  V30 3349 H 310.91 -1.16179 -1.04557 0
M  V30 3350 H 311.645 0.103769 -3.24134 0
M  V30 3351 H 311.43 -1.64166 -3.56078 0
M  V30 3352 H 312.92 -0.809156 -4.09686 0
M  V30 3353 N 313.357 1.07166 -1.15556 0
M  V30 3354 C 314.634 1.76546 -0.842069 0
M  V30 3355 C 315.014 2.00453 0.661939 0
M  V30 3356 O 314.362 1.62452 1.60691 0
M  V30 3357 C 314.572 3.07266 -1.65495 0
M  V30 3358 C 315.92 3.81578 -1.86234 0
M  V30 3359 O 316.944 3.17083 -1.62287 0
M  V30 3360 O 315.803 4.97419 -2.26355 0
M  V30 3361 H 312.897 0.766756 -0.309862 0
M  V30 3362 H 315.443 1.13514 -1.26145 0
M  V30 3363 H 314.215 2.85494 -2.67598 0
M  V30 3364 H 313.838 3.7803 -1.23203 0
M  V30 3365 N 314.835 0.952656 1.25548 0
M  V30 3366 C 316.251 0.656769 1.4546 0
M  V30 3367 C 316.451 -0.78633 1.85524 0
M  V30 3368 O 315.507 -1.56183 1.98402 0
M  V30 3369 C 316.82 1.62801 2.52817 0
M  V30 3370 C 318.368 1.63897 2.66659 0
M  V30 3371 C 318.843 2.5978 3.77198 0
M  V30 3372 N 320.334 2.58133 3.84606 0
M  V30 3373 C 321.069 3.29003 4.69621 0
M  V30 3374 N 320.565 4.09339 5.58939 0
M  V30 3375 N 322.358 3.179 4.63569 0
M  V30 3376 H 314.509 1.88526 0.978344 0
M  V30 3377 H 316.772 0.810815 0.491206 0
M  V30 3378 H 316.478 2.65869 2.30232 0
M  V30 3379 H 316.352 1.38898 3.50695 0
M  V30 3380 H 318.739 0.615481 2.8861 0
M  V30 3381 H 318.82 1.91858 1.69187 0
M  V30 3382 H 318.464 3.62254 3.55997 0
M  V30 3383 H 318.394 2.29105 4.7415 0
M  V30 3384 H 320.885 1.99809 3.20757 0
M  V30 3385 H 321.198 4.6034 6.20731 0
M  V30 3386 H 319.543 4.13438 5.58654 0
M  V30 3387 H 322.734 2.54612 3.92798 0
M  V30 3388 H 322.907 3.73398 5.29602 0
M  V30 3389 N 316.313 -1.40141 0.720998 0
M  V30 3390 C 317.562 -2.0002 0.259804 0
M  V30 3391 C 317.875 -1.57839 -1.15526 0
M  V30 3392 O 319.081 -2.10455 -1.71525 0
M  V30 3393 C 317.537 -3.57516 0.413566 0
M  V30 3394 C 317.145 -4.08667 1.83562 0
M  V30 3395 C 318.889 -4.24498 0.0134387 0
M  V30 3396 C 316.796 -5.58686 1.93968 0
M  V30 3397 H 315.726 -0.748195 0.0933806 0
M  V30 3398 H 318.377 -1.60313 0.892866 0
M  V30 3399 H 316.759 -3.9495 -0.288169 0
M  V30 3400 H 317.933 -3.82598 2.56817 0
M  V30 3401 H 316.248 -3.543 2.1877 0
M  V30 3402 H 318.845 -5.34654 0.0703954 0
M  V30 3403 H 319.188 -4.03375 -1.02927 0
M  V30 3404 H 319.721 -3.92188 0.665815 0
M  V30 3405 H 316.46 -5.8467 2.96379 0
M  V30 3406 H 315.98 -5.86602 1.25131 0
M  V30 3407 H 317.659 -6.23875 1.71431 0
M  V30 3408 N 317.792 -0.46758 -1.50504 0
M  V30 3409 C 318.722 0.318381 -2.31319 0
M  V30 3410 C 319.703 0.993564 -1.38066 0
M  V30 3411 O 320.888 0.991411 -1.66987 0
M  V30 3412 C 318.018 1.40275 -3.17711 0
M  V30 3413 C 316.972 0.849373 -4.19487 0
M  V30 3414 C 316.298 2.03177 -4.94594 0
M  V30 3415 C 317.598 -0.136942 -5.2212 0
M  V30 3416 H 319.292 -0.356106 -2.97275 0
M  V30 3417 H 316.838 -0.172703 -1.42961 0
M  V30 3418 H 318.791 1.96004 -3.73042 0
M  V30 3419 H 317.515 2.10596 -2.49634 0
M  V30 3420 H 316.174 0.314076 -3.65252 0
M  V30 3421 H 315.822 2.72187 -4.22993 0
M  V30 3422 H 315.522 1.66774 -5.63436 0
M  V30 3423 H 317.046 2.59403 -5.52759 0
M  V30 3424 H 318.46 0.331056 -5.72343 0
M  V30 3425 H 316.857 -0.41507 -5.98663 0
M  V30 3426 H 317.927 -1.06398 -4.73083 0
M  V30 3427 N 319.27 1.56325 -0.20005 0
M  V30 3428 C 320.519 1.96895 0.437652 0
M  V30 3429 C 320.832 1.08999 1.62415 0
M  V30 3430 O 322.038 1.39372 2.32997 0
M  V30 3431 C 320.494 3.50198 0.830025 0
M  V30 3432 C 320.102 4.46765 -0.332461 0
M  V30 3433 C 321.846 3.99526 1.43453 0
M  V30 3434 C 319.753 5.91344 0.0811468 0
M  V30 3435 H 318.683 0.735209 0.167282 0
M  V30 3436 H 321.334 1.81148 -0.292853 0
M  V30 3437 H 319.716 3.61467 1.61734 0
M  V30 3438 H 320.89 4.47231 -1.11 0
M  V30 3439 H 319.205 4.07657 -0.848789 0
M  V30 3440 H 321.802 5.05025 1.75652 0
M  V30 3441 H 322.145 3.44122 2.34277 0
M  V30 3442 H 322.678 3.91393 0.71109 0
M  V30 3443 H 319.417 6.50685 -0.793033 0
M  V30 3444 H 318.937 5.94121 0.823445 0
M  V30 3445 H 320.616 6.44945 0.515252 0
M  V30 3446 N 320.748 -0.0735177 1.57428 0
M  V30 3447 C 321.996 -0.771472 1.86796 0
M  V30 3448 C 322.317 -1.78201 0.791804 0
M  V30 3449 O 321.587 -1.95074 -0.179718 0
M  V30 3450 H 320.167 -0.28791 0.689287 0
M  V30 3451 H 322.829 -0.0500161 1.94836 0
M  V30 3452 H 321.925 -1.28874 2.8425 0
M  V30 3453 N 322.226 -1.5378 -0.344866 0
M  V30 3454 C 323.474 -1.70625 -1.08311 0
M  V30 3455 C 323.795 -0.471447 -1.89215 0
M  V30 3456 O 323.065 0.514616 -1.8902 0
M  V30 3457 H 321.645 -0.629058 -0.402859 0
M  V30 3458 H 324.307 -1.9103 -0.386459 0
M  V30 3459 H 323.403 -2.57656 -1.76124 0
M  V30 3460 N 323.704 0.605807 -1.45491 0
M  V30 3461 C 324.667 1.69836 -1.5391 0
M  V30 3462 C 325.667 1.55261 -0.418424 0
M  V30 3463 O 326.857 1.60296 -0.681965 0
M  V30 3464 C 323.989 3.09117 -1.43734 0
M  V30 3465 H 325.182 1.63738 -2.51257 0
M  V30 3466 H 322.735 0.821689 -1.32959 0
M  V30 3467 H 323.47 3.20791 -0.475788 0
M  V30 3468 H 323.255 3.21104 -2.25021 0
M  V30 3469 H 324.745 3.88696 -1.52661 0
M  V30 3470 N 325.182 1.32811 0.848464 0
M  V30 3471 C 326.115 1.16601 1.96162 0
M  V30 3472 C 327.093 0.0638855 1.62474 0
M  V30 3473 O 328.277 0.224348 1.8716 0
M  V30 3474 C 325.404 0.786333 3.29446 0
M  V30 3475 C 324.45 1.89459 3.8211 0
M  V30 3476 S 325.283 3.50395 4.04949 0
M  V30 3477 C 326.439 3.14413 5.41198 0
M  V30 3478 H 326.672 2.10832 2.09612 0
M  V30 3479 H 324.205 1.17543 1.00115 0
M  V30 3480 H 326.163 0.574044 4.06466 0
M  V30 3481 H 324.824 -0.137218 3.138 0
M  V30 3482 H 324.017 1.58207 4.78526 0
M  V30 3483 H 323.619 2.06304 3.11953 0
M  V30 3484 H 325.911 2.64642 6.23675 0
M  V30 3485 H 326.854 4.09874 5.77416 0
M  V30 3486 H 327.262 2.51266 5.05495 0
M  V30 3487 N 326.66 -1.06551 1.16123 0
M  V30 3488 C 327.593 -2.13382 0.80892 0
M  V30 3489 C 328.571 -1.61128 -0.21827 0
M  V30 3490 O 329.755 -1.88219 -0.102952 0
M  V30 3491 C 326.882 -3.38083 0.204303 0
M  V30 3492 C 325.928 -4.09133 1.20469 0
M  V30 3493 S 326.761 -4.5948 2.75024 0
M  V30 3494 C 327.917 -5.87446 2.16005 0
M  V30 3495 H 328.15 -2.42937 1.71373 0
M  V30 3496 H 325.683 -1.18947 0.984428 0
M  V30 3497 H 327.641 -4.10268 -0.138081 0
M  V30 3498 H 326.302 -3.0669 -0.678234 0
M  V30 3499 H 325.495 -4.98685 0.730019 0
M  V30 3500 H 325.097 -3.4295 1.49202 0
M  V30 3501 H 327.389 -6.60065 1.5271 0
M  V30 3502 H 328.332 -6.39639 3.03756 0
M  V30 3503 H 328.74 -5.41354 1.59989 0
M  V30 3504 N 328.138 -0.959301 -1.25041 0
M  V30 3505 C 329.385 -0.616611 -1.92884 0
M  V30 3506 C 329.713 0.847036 -1.75087 0
M  V30 3507 O 328.968 1.62374 -1.09239 0
M  V30 3508 C 329.267 -0.927136 -3.45165 0
M  V30 3509 C 328.933 -2.37757 -3.83122 0
M  V30 3510 C 327.595 -2.77402 -3.93194 0
M  V30 3511 C 329.947 -3.31929 -4.01836 0
M  V30 3512 C 327.275 -4.10277 -4.19392 0
M  V30 3513 C 329.627 -4.64423 -4.29528 0
M  V30 3514 C 328.291 -5.03857 -4.37818 0
M  V30 3515 H 327.561 -0.225634 -0.705812 0
M  V30 3516 H 330.208 -1.20921 -1.48493 0
M  V30 3517 H 328.513 -0.252195 -3.90987 0
M  V30 3518 H 330.21 -0.6405 -3.95852 0
M  V30 3519 H 326.8 -2.06013 -3.75841 0
M  V30 3520 H 330.984 -3.02488 -3.93465 0
M  V30 3521 H 326.24 -4.40467 -4.24027 0
M  V30 3522 H 330.414 -5.37369 -4.42953 0
M  V30 3523 H 328.041 -6.06843 -4.57871 0
M  V30 3524 N 329.616 1.39756 -0.72842 0
M  V30 3525 C 330.844 2.04948 -0.283528 0
M  V30 3526 C 331.259 1.54908 1.0793 0
M  V30 3527 O 330.616 0.711135 1.68075 0
M  V30 3528 C 330.667 3.60498 -0.268957 0
M  V30 3529 O 330.388 4.08695 -1.57798 0
M  V30 3530 C 331.889 4.4288 0.192912 0
M  V30 3531 H 329.109 0.659243 -0.125056 0
M  V30 3532 H 331.653 1.78927 -0.990226 0
M  V30 3533 H 329.808 3.85444 0.388801 0
M  V30 3534 H 330.222 5.02977 -1.48709 0
M  V30 3535 H 331.696 5.51791 0.151952 0
M  V30 3536 H 332.173 4.21418 1.23708 0
M  V30 3537 H 332.779 4.23069 -0.435039 0
M  V30 3538 N 331.094 0.475555 1.50254 0
M  V30 3539 C 332.341 -0.0778919 2.0235 0
M  V30 3540 C 332.669 -1.39319 1.35722 0
M  V30 3541 O 331.924 -1.89888 0.473395 0
M  V30 3542 C 332.223 -0.305114 3.56095 0
M  V30 3543 C 331.889 0.92903 4.41225 0
M  V30 3544 C 330.551 1.26739 4.6421 0
M  V30 3545 C 332.903 1.75054 4.90923 0
M  V30 3546 C 330.231 2.42724 5.34137 0
M  V30 3547 C 332.583 2.9017 5.62125 0
M  V30 3548 C 331.247 3.24416 5.83362 0
M  V30 3549 H 330.517 -0.0285027 0.740452 0
M  V30 3550 H 333.164 0.630543 1.80821 0
M  V30 3551 H 331.469 -1.09584 3.76163 0
M  V30 3552 H 333.166 -0.747377 3.93974 0
M  V30 3553 H 329.756 0.655428 4.23559 0
M  V30 3554 H 333.94 1.50231 4.73016 0
M  V30 3555 H 329.196 2.69525 5.48786 0
M  V30 3556 H 333.37 3.54169 5.99614 0
M  V30 3557 H 330.997 4.14396 6.37323 0
M  V30 3558 N 332.573 -1.56217 0.208337 0
M  V30 3559 C 333.503 -2.22694 -0.702116 0
M  V30 3560 C 334.484 -1.19432 -1.2112 0
M  V30 3561 O 335.669 -1.47978 -1.25762 0
M  V30 3562 C 332.799 -2.8966 -1.9161 0
M  V30 3563 C 331.753 -3.9928 -1.5414 0
M  V30 3564 C 331.079 -4.53476 -2.83308 0
M  V30 3565 C 332.379 -5.17012 -0.741339 0
M  V30 3566 H 334.073 -2.99034 -0.147898 0
M  V30 3567 H 331.619 -1.43831 -0.0696951 0
M  V30 3568 H 333.572 -3.34852 -2.55836 0
M  V30 3569 H 332.296 -2.10746 -2.49507 0
M  V30 3570 H 330.955 -3.54799 -0.922668 0
M  V30 3571 H 330.603 -3.71308 -3.39322 0
M  V30 3572 H 330.303 -5.27451 -2.58976 0
M  V30 3573 H 331.827 -5.01378 -3.485 0
M  V30 3574 H 333.241 -5.58667 -1.28699 0
M  V30 3575 H 331.638 -5.97137 -0.595627 0
M  V30 3576 H 332.708 -4.8423 0.254851 0
M  V30 3577 N 334.051 0.0651679 -1.57465 0
M  V30 3578 C 334.998 1.07675 -2.04144 0
M  V30 3579 C 335.968 1.38071 -0.923335 0
M  V30 3580 O 337.153 1.49026 -1.19146 0
M  V30 3581 C 334.293 2.38337 -2.49579 0
M  V30 3582 C 333.406 2.14413 -3.75035 0
M  V30 3583 C 332.541 3.38686 -4.09225 0
M  V30 3584 C 331.58 3.10156 -5.27702 0
M  V30 3585 N 330.717 4.26778 -5.57499 0
M  V30 3586 H 335.557 0.671716 -2.90331 0
M  V30 3587 H 333.094 0.3201 -1.43575 0
M  V30 3588 H 335.052 3.14632 -2.73975 0
M  V30 3589 H 333.682 2.7663 -1.6636 0
M  V30 3590 H 332.734 1.2878 -3.57939 0
M  V30 3591 H 334.046 1.89344 -4.61466 0
M  V30 3592 H 333.2 4.23373 -4.34558 0
M  V30 3593 H 331.939 3.66837 -3.21374 0
M  V30 3594 H 330.944 2.23866 -5.02159 0
M  V30 3595 H 332.169 2.8332 -6.17176 0
M  V30 3596 H 330.115 4.54948 -4.72608 0
M  V30 3597 H 330.032 4.05005 -6.38362 0
M  V30 3598 H 331.3 5.12443 -5.87386 0
M  V30 3599 N 335.529 1.53961 0.336706 0
M  V30 3600 C 336.492 1.81724 1.39675 0
M  V30 3601 C 337.492 0.688532 1.45313 0
M  V30 3602 O 338.682 0.956829 1.45569 0
M  V30 3603 C 335.814 1.96543 2.78538 0
M  V30 3604 H 337.007 2.76424 1.16318 0
M  V30 3605 H 334.56 1.45478 0.571474 0
M  V30 3606 H 335.295 1.0401 3.07168 0
M  V30 3607 H 335.08 2.78665 2.75841 0
M  V30 3608 H 336.57 2.19516 3.5525 0
M  V30 3609 N 337.007 -0.598083 1.45811 0
M  V30 3610 C 337.937 -1.71873 1.58057 0
M  V30 3611 C 338.918 -1.64533 0.431615 0
M  V30 3612 O 340.103 -1.82787 0.65595 0
M  V30 3613 C 337.233 -3.10495 1.55597 0
M  V30 3614 C 336.187 -3.32654 2.69305 0
M  V30 3615 C 335.513 -4.71646 2.51902 0
M  V30 3616 C 336.813 -3.21981 4.11248 0
M  V30 3617 H 338.507 -1.61881 2.51863 0
M  V30 3618 H 336.053 -0.777372 1.21214 0
M  V30 3619 H 338.006 -3.88699 1.6276 0
M  V30 3620 H 336.73 -3.2135 0.583255 0
M  V30 3621 H 335.389 -2.56843 2.61586 0
M  V30 3622 H 335.037 -4.79246 1.52748 0
M  V30 3623 H 334.737 -4.87426 3.2816 0
M  V30 3624 H 336.261 -5.52038 2.60933 0
M  V30 3625 H 337.675 -3.90049 4.20161 0
M  V30 3626 H 336.072 -3.49289 4.87972 0
M  V30 3627 H 337.142 -2.1928 4.32486 0
M  V30 3628 N 338.485 -1.33259 -0.841409 0
M  V30 3629 C 339.733 -1.24326 -1.59334 0
M  V30 3630 C 340.054 0.191564 -1.94057 0
M  V30 3631 O 339.324 1.11967 -1.60749 0
M  V30 3632 H 337.904 -0.457174 -0.590763 0
M  V30 3633 H 340.566 -1.66947 -1.00571 0
M  V30 3634 H 339.662 -1.8352 -2.52442 0
M  V30 3635 N 339.963 1.05934 -1.16686 0
M  V30 3636 C 340.91 2.13499 -0.876748 0
M  V30 3637 C 341.88 1.65162 0.176299 0
M  V30 3638 O 343.065 1.90757 0.0407143 0
M  V30 3639 C 340.205 3.42912 -0.387967 0
M  V30 3640 C 339.318 4.04964 -1.50426 0
M  V30 3641 C 338.453 5.22266 -0.970125 0
M  V30 3642 C 337.492 5.76309 -2.06238 0
M  V30 3643 N 336.629 6.84922 -1.54356 0
M  V30 3644 H 341.469 2.37654 -1.7979 0
M  V30 3645 H 339.006 1.16598 -0.896843 0
M  V30 3646 H 340.964 4.17111 -0.086186 0
M  V30 3647 H 339.594 3.18963 0.496235 0
M  V30 3648 H 338.646 3.28277 -1.92193 0
M  V30 3649 H 339.958 4.41122 -2.32836 0
M  V30 3650 H 339.112 6.03506 -0.621743 0
M  V30 3651 H 337.851 4.87564 -0.115377 0
M  V30 3652 H 336.856 4.93704 -2.41942 0
M  V30 3653 H 338.081 6.13062 -2.92115 0
M  V30 3654 H 336.027 6.52131 -0.711406 0
M  V30 3655 H 335.944 7.20043 -2.30379 0
M  V30 3656 H 337.212 7.69832 -1.22387 0
M  V30 3657 N 341.441 0.965919 1.2453 0
M  V30 3658 C 342.351 0.502154 2.29163 0
M  V30 3659 C 343.367 -0.436017 1.68448 0
M  V30 3660 O 344.543 -0.309497 1.99008 0
M  V30 3661 C 341.608 -0.201956 3.46111 0
M  V30 3662 C 340.669 0.775821 4.22232 0
M  V30 3663 C 339.902 0.105217 5.33596 0
M  V30 3664 O 340.125 -1.10683 5.59558 0
M  V30 3665 O 339.059 0.796475 5.96607 0
M  V30 3666 H 342.885 1.37194 2.70946 0
M  V30 3667 H 340.47 0.732875 1.30189 0
M  V30 3668 H 342.352 -0.597564 4.17142 0
M  V30 3669 H 341.027 -1.04673 3.06309 0
M  V30 3670 H 339.934 1.22185 3.53584 0
M  V30 3671 H 341.267 1.58896 4.65846 0
M  V30 3672 N 342.919 -1.39368 0.735821 0
M  V30 3673 C 344.165 -2.00794 0.284544 0
M  V30 3674 C 344.498 -1.58255 -1.12557 0
M  V30 3675 O 343.773 -0.811819 -1.76748 0
M  V30 3676 C 344.056 -3.58011 0.387337 0
M  V30 3677 C 343.909 -4.10566 1.83728 0
M  V30 3678 C 345.228 -4.395 -0.22975 0
M  V30 3679 H 342.347 -0.729501 0.104866 0
M  V30 3680 H 344.989 -1.65564 0.93213 0
M  V30 3681 H 343.139 -3.88154 -0.164006 0
M  V30 3682 H 344.811 -3.91139 2.44556 0
M  V30 3683 H 343.054 -3.64095 2.35833 0
M  V30 3684 H 343.725 -5.19702 1.86047 0
M  V30 3685 H 346.201 -4.15406 0.240257 0
M  V30 3686 H 345.077 -5.48752 -0.127485 0
M  V30 3687 H 345.338 -4.22062 -1.3159 0
M  V30 3688 N 344.397 -0.483516 -1.5 0
M  V30 3689 C 345.645 0.067027 -2.01989 0
M  V30 3690 C 345.966 1.3909 -1.36671 0
M  V30 3691 O 345.236 1.88978 -0.516152 0
M  V30 3692 H 343.816 0.0277606 -0.746484 0
M  V30 3693 H 346.478 -0.636773 -1.84204 0
M  V30 3694 H 345.574 0.209484 -3.11396 0
M  V30 3695 N 345.875 1.56104 -0.216619 0
M  V30 3696 C 347.1 2.0301 0.424462 0
M  V30 3697 C 347.525 1.0955 1.52907 0
M  V30 3698 O 346.883 0.0827914 1.81111 0
M  V30 3699 C 346.931 3.4819 0.937883 0
M  V30 3700 O 346.035 3.57865 2.04955 0
M  V30 3701 H 345.376 0.656925 0.0966755 0
M  V30 3702 H 347.906 2.01859 -0.33381 0
M  V30 3703 H 347.916 3.88413 1.24897 0
M  V30 3704 H 346.591 4.15699 0.129387 0
M  V30 3705 H 345.168 3.29527 1.74546 0
M  V30 3706 N 347.353 -0.0568162 1.57498 0
M  V30 3707 C 348.578 -0.769402 1.92601 0
M  V30 3708 C 349.003 -1.69559 0.814336 0
M  V30 3709 O 348.361 -1.79811 -0.231903 0
M  V30 3710 C 348.409 -1.52634 3.26704 0
M  V30 3711 O 347.513 -2.63797 3.16994 0
M  V30 3712 H 346.854 -0.208909 0.63028 0
M  V30 3713 H 349.384 -0.0205798 2.0459 0
M  V30 3714 H 349.394 -1.90234 3.60936 0
M  V30 3715 H 348.069 -0.846875 4.07186 0
M  V30 3716 H 346.646 -2.28943 2.94346 0
M  V30 3717 N 348.832 -1.54138 -0.328536 0
M  V30 3718 C 350.248 -1.44736 -0.672574 0
M  V30 3719 C 350.448 -0.616217 -1.91846 0
M  V30 3720 O 349.504 -0.113067 -2.52247 0
M  V30 3721 C 350.817 -2.884 -0.851217 0
M  V30 3722 C 352.365 -2.98271 -0.948877 0
M  V30 3723 C 352.84 -4.43074 -1.15973 0
M  V30 3724 N 354.331 -4.46665 -1.22658 0
M  V30 3725 C 355.066 -5.55857 -1.40751 0
M  V30 3726 N 354.562 -6.75026 -1.5592 0
M  V30 3727 N 356.355 -5.43495 -1.4342 0
M  V30 3728 H 348.506 -2.06661 0.490421 0
M  V30 3729 H 350.769 -0.934812 0.157579 0
M  V30 3730 H 350.475 -3.51699 -0.00704236 0
M  V30 3731 H 350.349 -3.34225 -1.74853 0
M  V30 3732 H 352.736 -2.35102 -1.78356 0
M  V30 3733 H 352.817 -2.55785 -0.0281435 0
M  V30 3734 H 352.461 -5.06827 -0.329915 0
M  V30 3735 H 352.391 -4.83165 -2.09426 0
M  V30 3736 H 354.882 -3.60797 -1.124 0
M  V30 3737 H 355.195 -7.54004 -1.69404 0
M  V30 3738 H 353.54 -6.77944 -1.53027 0
M  V30 3739 H 356.731 -4.49349 -1.31162 0
M  V30 3740 H 356.904 -6.28649 -1.57178 0
M  V30 3741 N 350.31 0.590341 -1.46126 0
M  V30 3742 C 351.556 1.35082 -1.51264 0
M  V30 3743 C 351.889 1.93534 -0.160711 0
M  V30 3744 O 351.164 1.76045 0.826956 0
M  V30 3745 C 351.447 2.48588 -2.6053 0
M  V30 3746 C 351.3 1.95221 -4.05227 0
M  V30 3747 C 352.619 3.50662 -2.6594 0
M  V30 3748 H 349.738 0.489803 -0.550692 0
M  V30 3749 H 352.38 0.663887 -1.78024 0
M  V30 3750 H 350.53 3.07186 -2.37843 0
M  V30 3751 H 352.202 1.41139 -4.39178 0
M  V30 3752 H 350.445 1.26101 -4.15068 0
M  V30 3753 H 351.116 2.77121 -4.77397 0
M  V30 3754 H 353.592 3.01934 -2.86313 0
M  V30 3755 H 352.468 4.27551 -3.44226 0
M  V30 3756 H 352.729 4.07399 -1.71694 0
M  V30 3757 N 351.788 1.33704 0.83433 0
M  V30 3758 C 352.698 1.26382 1.97648 0
M  V30 3759 C 353.714 0.173548 1.73132 0
M  V30 3760 O 354.89 0.397962 1.97429 0
M  V30 3761 C 351.955 1.00769 3.31733 0
M  V30 3762 C 351.016 2.1884 3.69334 0
M  V30 3763 C 350.249 1.9444 4.9702 0
M  V30 3764 O 350.472 0.896961 5.63303 0
M  V30 3765 O 349.406 2.81093 5.32231 0
M  V30 3766 H 353.232 2.22444 2.06767 0
M  V30 3767 H 350.817 1.13795 0.968037 0
M  V30 3768 H 352.699 0.882186 4.12062 0
M  V30 3769 H 351.374 0.0773783 3.23608 0
M  V30 3770 H 350.281 2.36946 2.89495 0
M  V30 3771 H 351.614 3.10221 3.82131 0
M  V30 3772 N 353.266 -1.05314 1.17247 0
M  V30 3773 C 354.176 -2.16538 0.90268 0
M  V30 3774 C 355.192 -1.73523 -0.128707 0
M  V30 3775 O 356.368 -2.01337 0.0502701 0
M  V30 3776 C 353.433 -3.44167 0.418356 0
M  V30 3777 C 352.494 -4.01635 1.51618 0
M  V30 3778 C 351.727 -5.23171 1.05487 0
M  V30 3779 O 351.95 -5.70327 -0.0914715 0
M  V30 3780 O 350.884 -5.72848 1.8474 0
M  V30 3781 H 354.71 -2.42145 1.83302 0
M  V30 3782 H 352.295 -1.15037 0.953246 0
M  V30 3783 H 354.177 -4.21112 0.155726 0
M  V30 3784 H 352.852 -3.20063 -0.48385 0
M  V30 3785 H 351.759 -3.26135 1.83268 0
M  V30 3786 H 353.092 -4.30053 2.39405 0
M  V30 3787 N 354.744 -0.972509 -1.24016 0
M  V30 3788 C 356.021 -0.553733 -1.87598 0
M  V30 3789 C 356.401 0.969158 -1.87538 0
M  V30 3790 O 355.749 1.84255 -1.35139 0
M  V30 3791 C 355.959 -1.15076 -3.29482 0
M  V30 3792 C 357.307 -1.23862 -4.06132 0
M  V30 3793 O 358.331 -1.10363 -3.38672 0
M  V30 3794 O 357.19 -1.45252 -5.26844 0
M  V30 3795 H 354.284 -0.185331 -0.805966 0
M  V30 3796 H 356.83 -1.06709 -1.31952 0
M  V30 3797 H 355.602 -2.19333 -3.2405 0
M  V30 3798 H 355.225 -0.621746 -3.92709 0
M  V30 3799 N 356.222 1.38976 -0.743202 0
M  V30 3800 C 357.169 2.30544 -0.10861 0
M  V30 3801 C 358.139 1.49642 0.720869 0
M  V30 3802 O 359.324 1.78304 0.679142 0
M  V30 3803 C 356.464 3.36018 0.786496 0
M  V30 3804 C 355.577 4.31963 -0.0564849 0
M  V30 3805 C 354.712 5.24506 0.840657 0
M  V30 3806 C 353.751 6.121 -0.00658363 0
M  V30 3807 N 352.888 6.96973 0.846943 0
M  V30 3808 H 357.728 2.8424 -0.895088 0
M  V30 3809 H 355.265 1.3995 -0.453048 0
M  V30 3810 H 357.223 3.95768 1.31999 0
M  V30 3811 H 355.853 2.83758 1.53887 0
M  V30 3812 H 354.905 3.73763 -0.707492 0
M  V30 3813 H 356.217 4.93703 -0.711229 0
M  V30 3814 H 355.371 5.89322 1.4417 0
M  V30 3815 H 354.11 4.63107 1.52916 0
M  V30 3816 H 353.115 5.46289 -0.620366 0
M  V30 3817 H 354.34 6.75565 -0.691992 0
M  V30 3818 H 352.286 6.38133 1.52059 0
M  V30 3819 H 352.203 7.5559 0.248864 0
M  V30 3820 H 353.471 7.6621 1.43328 0
M  V30 3821 N 357.7 0.491464 1.49741 0
M  V30 3822 C 358.949 -0.0582189 2.01616 0
M  V30 3823 C 359.262 -1.38927 1.3769 0
M  V30 3824 O 360.468 -2.02509 1.80838 0
M  V30 3825 C 358.924 -0.154235 3.59569 0
M  V30 3826 C 358.532 1.1696 4.32463 0
M  V30 3827 C 360.276 -0.65479 4.1942 0
M  V30 3828 C 358.183 1.03627 5.8225 0
M  V30 3829 H 357.113 -0.0255317 0.753568 0
M  V30 3830 H 359.764 0.629445 1.72367 0
M  V30 3831 H 358.146 -0.906138 3.85493 0
M  V30 3832 H 359.32 1.93405 4.18248 0
M  V30 3833 H 357.635 1.60285 3.84315 0
M  V30 3834 H 360.232 -0.771903 5.29099 0
M  V30 3835 H 360.575 -1.65127 3.8215 0
M  V30 3836 H 361.108 0.040304 3.9778 0
M  V30 3837 H 357.847 2.00672 6.24028 0
M  V30 3838 H 357.367 0.312546 5.98985 0
M  V30 3839 H 359.046 0.711114 6.4308 0
M  V30 3840 N 359.178 -1.55987 0.224894 0
M  V30 3841 C 360.455 -1.90232 -0.455083 0
M  V30 3842 C 360.835 -1.14269 -1.77499 0
M  V30 3843 O 360.183 -0.253079 -2.27094 0
M  V30 3844 C 360.393 -3.42993 -0.644758 0
M  V30 3845 C 361.741 -4.13821 -0.950669 0
M  V30 3846 O 362.765 -3.4861 -0.731423 0
M  V30 3847 O 361.624 -5.29128 -1.36695 0
M  V30 3848 H 358.718 -0.79108 -0.241084 0
M  V30 3849 H 361.264 -1.67581 0.267327 0
M  V30 3850 H 360.036 -3.90252 0.28613 0
M  V30 3851 H 359.659 -3.71434 -1.41853 0
M  V30 3852 N 360.656 0.0484629 -1.57525 0
M  V30 3853 C 361.586 1.0549 -2.08313 0
M  V30 3854 C 362.567 1.38929 -0.981463 0
M  V30 3855 O 363.752 1.48151 -1.25558 0
M  V30 3856 C 360.882 2.36162 -2.54646 0
M  V30 3857 C 359.836 2.17016 -3.68901 0
M  V30 3858 C 359.162 3.53278 -4.01371 0
M  V30 3859 C 360.462 1.57219 -4.98076 0
M  V30 3860 H 362.156 0.632195 -2.92649 0
M  V30 3861 H 359.702 0.302654 -1.40784 0
M  V30 3862 H 361.655 3.06882 -2.88793 0
M  V30 3863 H 360.379 2.80456 -1.67368 0
M  V30 3864 H 359.038 1.48733 -3.35073 0
M  V30 3865 H 358.686 3.95185 -3.11188 0
M  V30 3866 H 358.386 3.41299 -4.78318 0
M  V30 3867 H 359.91 4.25391 -4.38035 0
M  V30 3868 H 361.324 2.17832 -5.30304 0
M  V30 3869 H 359.721 1.55871 -5.79503 0
M  V30 3870 H 360.791 0.535956 -4.81929 0
M  V30 3871 N 362.134 1.5431 0.320358 0
M  V30 3872 C 363.097 1.83195 1.3774 0
M  V30 3873 C 364.097 0.703906 1.44575 0
M  V30 3874 O 365.287 0.972214 1.44546 0
M  V30 3875 C 362.419 1.99487 2.76438 0
M  V30 3876 H 363.612 2.77642 1.1338 0
M  V30 3877 H 361.165 1.46076 0.556012 0
M  V30 3878 H 361.9 1.07262 3.06048 0
M  V30 3879 H 361.685 2.81575 2.7287 0
M  V30 3880 H 363.175 2.23271 3.52902 0
M  V30 3881 N 363.613 -0.582584 1.46437 0
M  V30 3882 C 364.56 -1.69164 1.5701 0
M  V30 3883 C 365.53 -1.60847 0.414403 0
M  V30 3884 O 366.715 -1.80058 0.631171 0
M  V30 3885 C 363.855 -3.075 1.56646 0
M  V30 3886 C 362.968 -3.2644 2.82951 0
M  V30 3887 C 362.103 -4.55026 2.7409 0
M  V30 3888 C 361.142 -4.6731 3.95333 0
M  V30 3889 N 360.279 -5.87221 3.84858 0
M  V30 3890 H 365.119 -1.59464 2.51744 0
M  V30 3891 H 362.656 -0.777186 1.24893 0
M  V30 3892 H 364.614 -3.8757 1.5442 0
M  V30 3893 H 363.244 -3.16096 0.654439 0
M  V30 3894 H 362.296 -2.39974 2.95155 0
M  V30 3895 H 363.608 -3.31385 3.72808 0
M  V30 3896 H 362.762 -5.43324 2.6997 0
M  V30 3897 H 361.501 -4.52519 1.81873 0
M  V30 3898 H 360.506 -3.77429 3.99784 0
M  V30 3899 H 361.731 -4.71595 4.88646 0
M  V30 3900 H 359.677 -5.85712 2.95427 0
M  V30 3901 H 359.594 -5.93435 4.6837 0
M  V30 3902 H 360.862 -6.7795 3.84713 0
M  V30 3903 N 365.091 -1.34144 -0.827227 0
M  V30 3904 C 366.001 -1.27428 -1.96975 0
M  V30 3905 C 367.017 -0.182728 -1.73038 0
M  V30 3906 O 368.193 -0.408426 -1.97215 0
M  V30 3907 C 365.258 -1.02526 -3.31194 0
M  V30 3908 C 364.319 -2.20796 -3.68168 0
M  V30 3909 C 363.552 -1.97073 -4.95982 0
M  V30 3910 O 363.775 -0.926822 -5.6282 0
M  V30 3911 O 362.709 -2.83912 -5.30733 0
M  V30 3912 H 366.535 -2.23537 -2.05584 0
M  V30 3913 H 364.12 -1.14307 -0.961989 0
M  V30 3914 H 366.002 -0.904026 -4.11589 0
M  V30 3915 H 364.677 -0.0945389 -3.23562 0
M  V30 3916 H 363.584 -2.38477 -2.88235 0
M  V30 3917 H 364.917 -3.12243 -3.8048 0
M  V30 3918 N 366.569 1.04691 -1.17803 0
M  V30 3919 C 367.499 2.14494 -0.92275 0
M  V30 3920 C 368.48 1.69546 0.137179 0
M  V30 3921 O 369.665 1.94195 -0.0141108 0
M  V30 3922 C 366.795 3.44491 -0.440803 0
M  V30 3923 C 365.749 4.03031 -1.4405 0
M  V30 3924 C 365.075 5.28432 -0.81631 0
M  V30 3925 C 366.375 4.39932 -2.81527 0
M  V30 3926 H 368.069 2.36107 -1.84103 0
M  V30 3927 H 365.615 1.1347 -0.886599 0
M  V30 3928 H 367.568 4.2066 -0.249602 0
M  V30 3929 H 366.292 3.22546 0.513025 0
M  V30 3930 H 364.951 3.28937 -1.61853 0
M  V30 3931 H 364.599 5.02792 0.144511 0
M  V30 3932 H 364.299 5.68559 -1.48371 0
M  V30 3933 H 365.823 6.07284 -0.635496 0
M  V30 3934 H 367.237 5.07113 -2.67412 0
M  V30 3935 H 365.634 4.9109 -3.44892 0
M  V30 3936 H 366.704 3.50045 -3.35554 0
M  V30 3937 N 368.047 0.979072 1.23499 0
M  V30 3938 C 368.977 0.537606 2.27227 0
M  V30 3939 C 369.958 -0.428539 1.64613 0
M  V30 3940 O 371.143 -0.322191 1.91509 0
M  V30 3941 C 368.273 -0.162052 3.46922 0
M  V30 3942 C 367.227 0.721242 4.21879 0
M  V30 3943 C 366.553 -0.110555 5.34586 0
M  V30 3944 C 367.853 2.01141 4.82016 0
M  V30 3945 H 369.547 1.40462 2.64406 0
M  V30 3946 H 367.093 0.67684 1.27102 0
M  V30 3947 H 369.046 -0.482192 4.18632 0
M  V30 3948 H 367.77 -1.06351 3.08799 0
M  V30 3949 H 366.429 1.02482 3.51984 0
M  V30 3950 H 366.077 -1.0125 4.92704 0
M  V30 3951 H 365.777 0.477325 5.85658 0
M  V30 3952 H 367.301 -0.425107 6.09118 0
M  V30 3953 H 368.715 1.75612 5.45741 0
M  V30 3954 H 367.112 2.54695 5.43369 0
M  V30 3955 H 368.182 2.69909 4.02836 0
M  V30 3956 N 369.525 -1.3858 0.750561 0
M  V30 3957 C 370.435 -2.34278 0.122825 0
M  V30 3958 C 371.451 -1.59116 -0.704131 0
M  V30 3959 O 372.627 -1.91326 -0.628987 0
M  V30 3960 C 369.692 -3.38221 -0.762086 0
M  V30 3961 C 368.753 -4.29227 0.078896 0
M  V30 3962 C 367.986 -5.28205 -0.763874 0
M  V30 3963 O 368.209 -5.34112 -2.00201 0
M  V30 3964 O 367.143 -6.01618 -0.18428 0
M  V30 3965 H 370.969 -2.89649 0.913088 0
M  V30 3966 H 368.554 -1.40374 0.511417 0
M  V30 3967 H 370.436 -4.01872 -1.26793 0
M  V30 3968 H 369.111 -2.85211 -1.5309 0
M  V30 3969 H 368.018 -3.68747 0.630621 0
M  V30 3970 H 369.351 -4.85484 0.810289 0
M  V30 3971 N 371.003 -0.499398 -1.49478 0
M  V30 3972 C 371.95 0.279881 -2.29097 0
M  V30 3973 C 372.92 0.961805 -1.3542 0
M  V30 3974 O 374.105 0.968777 -1.64376 0
M  V30 3975 C 371.245 1.33932 -3.18051 0
M  V30 3976 C 370.358 0.669333 -4.26783 0
M  V30 3977 C 369.493 1.70907 -5.02955 0
M  V30 3978 C 368.532 1.02087 -6.03527 0
M  V30 3979 N 367.669 2.00474 -6.7287 0
M  V30 3980 H 372.509 -0.405317 -2.95231 0
M  V30 3981 H 370.046 -0.211726 -1.45568 0
M  V30 3982 H 372.004 1.96553 -3.67998 0
M  V30 3983 H 370.634 1.9933 -2.53904 0
M  V30 3984 H 369.686 -0.0701234 -3.80335 0
M  V30 3985 H 370.998 0.127503 -4.98637 0
M  V30 3986 H 370.152 2.41037 -5.56764 0
M  V30 3987 H 368.891 2.28476 -4.30871 0
M  V30 3988 H 367.896 0.305338 -5.48951 0
M  V30 3989 H 369.121 0.451708 -6.77596 0
M  V30 3990 H 367.067 2.57007 -6.03559 0
M  V30 3991 H 366.984 1.51353 -7.40694 0
M  V30 3992 H 368.252 2.69897 -7.31284 0
M  V30 3993 N 372.481 1.55866 -0.233164 0
M  V30 3994 C 373.444 2.1953 0.658715 0
M  V30 3995 C 374.444 1.16053 1.11303 0
M  V30 3996 O 375.634 1.41218 1.01996 0
M  V30 3997 C 372.766 2.82791 1.90373 0
M  V30 3998 H 373.959 2.99721 0.10347 0
M  V30 3999 H 371.512 1.56291 0.0164245 0
M  V30 4000 H 372.247 2.06501 2.50056 0
M  V30 4001 H 372.032 3.58578 1.58632 0
M  V30 4002 H 373.522 3.31556 2.53891 0
M  V30 4003 N 373.959 -0.0401083 1.57549 0
M  V30 4004 C 374.906 -1.04413 2.05831 0
M  V30 4005 C 375.876 -1.36585 0.945184 0
M  V30 4006 O 377.061 -1.47112 1.21502 0
M  V30 4007 C 374.201 -2.34336 2.53339 0
M  V30 4008 C 373.314 -2.08419 3.78398 0
M  V30 4009 C 372.449 -3.32133 4.14561 0
M  V30 4010 C 371.488 -3.01721 5.3257 0
M  V30 4011 N 370.625 -4.17855 5.64218 0
M  V30 4012 H 375.465 -0.625442 2.91363 0
M  V30 4013 H 373.002 -0.297218 1.44066 0
M  V30 4014 H 374.96 -3.10234 2.78946 0
M  V30 4015 H 373.59 -2.73948 1.7074 0
M  V30 4016 H 372.642 -1.23069 3.59942 0
M  V30 4017 H 373.954 -1.81978 4.64419 0
M  V30 4018 H 373.108 -4.16406 4.41238 0
M  V30 4019 H 371.847 -3.61678 3.2717 0
M  V30 4020 H 370.852 -2.15849 5.05657 0
M  V30 4021 H 372.077 -2.73466 6.21605 0
M  V30 4022 H 370.023 -4.47372 4.79786 0
M  V30 4023 H 369.94 -3.94798 6.44725 0
M  V30 4024 H 371.208 -5.03033 5.95465 0
M  V30 4025 N 375.437 -1.54477 -0.31217 0
M  V30 4026 C 376.347 -1.87695 -1.4074 0
M  V30 4027 C 377.363 -0.769975 -1.56036 0
M  V30 4028 O 378.539 -1.06537 -1.70915 0
M  V30 4029 C 375.604 -2.10755 -2.75287 0
M  V30 4030 C 374.665 -3.34514 -2.69071 0
M  V30 4031 C 373.898 -3.56465 -3.97201 0
M  V30 4032 O 374.121 -2.81637 -4.96021 0
M  V30 4033 O 373.055 -4.49964 -3.9977 0
M  V30 4034 H 376.881 -2.80849 -1.15574 0
M  V30 4035 H 374.466 -1.40526 -0.507228 0
M  V30 4036 H 376.348 -2.27188 -3.54913 0
M  V30 4037 H 375.023 -1.20788 -3.0032 0
M  V30 4038 H 373.93 -3.23456 -1.87955 0
M  V30 4039 H 375.263 -4.24575 -2.48992 0
M  V30 4040 N 376.915 0.57481 -1.46744 0
M  V30 4041 C 377.862 1.68329 -1.57905 0
M  V30 4042 C 378.832 1.60625 -0.422927 0
M  V30 4043 O 380.017 1.79721 -0.640711 0
M  V30 4044 C 377.157 3.06665 -1.58274 0
M  V30 4045 C 376.27 3.24935 -2.84678 0
M  V30 4046 C 375.405 4.53566 -2.76499 0
M  V30 4047 C 374.444 4.65207 -3.97806 0
M  V30 4048 N 373.581 5.85172 -3.87967 0
M  V30 4049 H 378.421 1.58127 -2.52587 0
M  V30 4050 H 375.958 0.770552 -1.25303 0
M  V30 4051 H 377.916 3.86745 -1.56473 0
M  V30 4052 H 376.546 3.15745 -0.671194 0
M  V30 4053 H 375.598 2.38405 -2.96424 0
M  V30 4054 H 376.91 3.29403 -3.7456 0
M  V30 4055 H 376.064 5.41885 -2.72848 0
M  V30 4056 H 374.803 4.51548 -1.8427 0
M  V30 4057 H 373.808 3.75304 -4.0178 0
M  V30 4058 H 375.033 4.68997 -4.9114 0
M  V30 4059 H 372.979 5.84137 -2.98529 0
M  V30 4060 H 372.896 5.90943 -4.71511 0
M  V30 4061 H 374.164 6.759 -3.88303 0
M  V30 4062 N 378.394 1.34581 0.820102 0
M  V30 4063 C 379.642 1.26845 1.57336 0
M  V30 4064 C 379.963 -0.160667 1.94337 0
M  V30 4065 O 379.233 -1.09396 1.6251 0
M  V30 4066 H 377.813 0.466514 0.583415 0
M  V30 4067 H 380.475 1.68526 0.979027 0
M  V30 4068 H 379.571 1.87513 2.4949 0
M  V30 4069 N 379.872 -1.04064 1.18357 0
M  V30 4070 C 381.118 -1.77528 0.980397 0
M  V30 4071 C 381.451 -1.87948 -0.48879 0
M  V30 4072 O 380.726 -1.3876 -1.36293 0
M  V30 4073 C 381.009 -3.20797 1.63588 0
M  V30 4074 C 380.862 -3.1832 3.17793 0
M  V30 4075 C 382.181 -4.18911 1.34914 0
M  V30 4076 H 379.3 -0.644443 0.357578 0
M  V30 4077 H 381.942 -1.2156 1.46024 0
M  V30 4078 H 380.092 -3.68586 1.22788 0
M  V30 4079 H 381.764 -2.78521 3.67728 0
M  V30 4080 H 380.007 -2.56351 3.49952 0
M  V30 4081 H 380.678 -4.19489 3.58794 0
M  V30 4082 H 383.154 -3.7967 1.70265 0
M  V30 4083 H 382.03 -5.17374 1.83346 0
M  V30 4084 H 382.291 -4.41262 0.272027 0
M  V30 4085 N 381.35 -0.985608 -1.22978 0
M  V30 4086 C 382.26 -0.538548 -2.28335 0
M  V30 4087 C 383.276 0.409163 -1.69121 0
M  V30 4088 O 384.452 0.277797 -1.99475 0
M  V30 4089 C 381.517 0.146867 -3.46389 0
M  V30 4090 C 380.578 -0.842896 -4.20944 0
M  V30 4091 C 379.811 -0.190095 -5.33361 0
M  V30 4092 O 380.034 1.01767 -5.61248 0
M  V30 4093 O 378.968 -0.891289 -5.95264 0
M  V30 4094 H 382.794 -1.41487 -2.68729 0
M  V30 4095 H 380.379 -0.753495 -1.29007 0
M  V30 4096 H 382.261 0.531125 -4.1804 0
M  V30 4097 H 380.936 0.997871 -3.07935 0
M  V30 4098 H 379.843 -1.27795 -3.51595 0
M  V30 4099 H 381.176 -1.66287 -4.6326 0
M  V30 4100 N 382.828 1.3818 -0.7579 0
M  V30 4101 C 384.077 1.99261 -0.312744 0
M  V30 4102 C 384.39 1.60846 1.11301 0
M  V30 4103 O 385.596 2.14929 1.65885 0
M  V30 4104 C 384.052 3.56294 -0.50821 0
M  V30 4105 C 383.66 4.03657 -1.94333 0
M  V30 4106 C 385.404 4.24313 -0.125982 0
M  V30 4107 C 383.311 5.53347 -2.08712 0
M  V30 4108 H 382.241 0.745456 -0.113185 0
M  V30 4109 H 384.892 1.57889 -0.935056 0
M  V30 4110 H 383.274 3.95575 0.183353 0
M  V30 4111 H 384.448 3.75655 -2.66871 0
M  V30 4112 H 382.763 3.48376 -2.28086 0
M  V30 4113 H 385.36 5.34279 -0.212125 0
M  V30 4114 H 385.703 4.05962 0.921964 0
M  V30 4115 H 386.236 3.90285 -0.769563 0
M  V30 4116 H 382.975 5.76607 -3.11777 0
M  V30 4117 H 382.495 5.83078 -1.4064 0
M  V30 4118 H 384.174 6.19111 -1.87912 0
M  V30 4119 N 384.306 0.507319 1.49211 0
M  V30 4120 C 385.552 -0.0350047 2.0277 0
M  V30 4121 C 385.885 -1.3606 1.38569 0
M  V30 4122 O 385.16 -1.87321 0.523542 0
M  V30 4123 C 385.443 -0.180916 3.59645 0
M  V30 4124 C 385.296 1.16825 4.34364 0
M  V30 4125 C 386.615 -0.918558 4.30407 0
M  V30 4126 H 383.734 -0.0112473 0.736914 0
M  V30 4127 H 386.376 0.659956 1.7817 0
M  V30 4128 H 384.526 -0.772826 3.80736 0
M  V30 4129 H 386.198 1.79952 4.24753 0
M  V30 4130 H 384.441 1.75594 3.96673 0
M  V30 4131 H 385.112 1.01939 5.42506 0
M  V30 4132 H 387.588 -0.41649 4.1401 0
M  V30 4133 H 386.464 -0.989505 5.39907 0
M  V30 4134 H 386.725 -1.96373 3.96093 0
M  V30 4135 N 385.784 -1.5574 0.241426 0
M  V30 4136 C 386.714 -2.24133 -0.654722 0
M  V30 4137 C 387.695 -1.21974 -1.1856 0
M  V30 4138 O 388.88 -1.50612 -1.22595 0
M  V30 4139 C 386.01 -2.93659 -1.85423 0
M  V30 4140 C 384.964 -4.0246 -1.45636 0
M  V30 4141 C 384.29 -4.59383 -2.73626 0
M  V30 4142 C 385.59 -5.18468 -0.631506 0
M  V30 4143 H 387.284 -2.99281 -0.0844353 0
M  V30 4144 H 384.83 -1.43947 -0.0391707 0
M  V30 4145 H 386.783 -3.40203 -2.48676 0
M  V30 4146 H 385.507 -2.15991 -2.44981 0
M  V30 4147 H 384.166 -3.56676 -0.847202 0
M  V30 4148 H 383.814 -3.78422 -3.3137 0
M  V30 4149 H 383.514 -5.32826 -2.4773 0
M  V30 4150 H 385.038 -5.08658 -3.37786 0
M  V30 4151 H 386.452 -5.61272 -1.1682 0
M  V30 4152 H 384.849 -5.98266 -0.468831 0
M  V30 4153 H 385.919 -4.8358 0.357506 0
M  V30 4154 N 387.262 0.0317525 -1.57568 0
M  V30 4155 C 388.673 0.578692 -1.77505 0
M  V30 4156 C 389.024 1.75749 -0.872164 0
M  V30 4157 O 388.149 2.16298 -0.0663106 0
M  V30 4158 C 388.744 1.05658 -3.21904 0
M  V30 4159 C 387.303 1.54906 -3.43047 0
M  V30 4160 C 386.45 0.485939 -2.73009 0
M  V30 4161 H 389.401 -0.194475 -1.57504 0
M  V30 4162 H 389.422 1.92404 -3.28269 0
M  V30 4163 H 388.934 0.198422 -3.87592 0
M  V30 4164 H 387.035 2.42915 -2.82529 0
M  V30 4165 H 387.148 1.59841 -4.5165 0
M  V30 4166 H 385.512 0.940354 -2.36705 0
M  V30 4167 H 386.295 -0.362709 -3.41379 0
M  V30 4168 N 388.74 1.54641 0.303973 0
M  V30 4169 C 389.986 1.74038 1.04109 0
M  V30 4170 C 390.319 0.523051 1.87024 0
M  V30 4171 O 389.594 -0.479874 1.88487 0
M  V30 4172 C 389.877 3.02761 1.94955 0
M  V30 4173 C 389.73 4.34787 1.1524 0
M  V30 4174 C 391.049 3.27336 2.94175 0
M  V30 4175 H 388.168 0.63323 0.377079 0
M  V30 4176 H 390.81 1.87354 0.316001 0
M  V30 4177 H 388.96 2.9154 2.56782 0
M  V30 4178 H 390.632 4.57922 0.557236 0
M  V30 4179 H 388.875 4.31407 0.455053 0
M  V30 4180 H 389.546 5.21116 1.8205 0
M  V30 4181 H 392.022 3.38148 2.42477 0
M  V30 4182 H 390.898 4.18726 3.54908 0
M  V30 4183 H 391.159 2.45491 3.67677 0
M  V30 4184 N 390.218 -0.567019 1.47046 0
M  V30 4185 C 391.495 -1.3276 1.43646 0
M  V30 4186 C 391.875 -2.1071 0.128186 0
M  V30 4187 O 391.223 -2.10441 -0.890326 0
M  V30 4188 C 391.433 -2.2404 2.67595 0
M  V30 4189 C 392.781 -2.85372 3.14401 0
M  V30 4190 O 393.805 -2.34346 2.68254 0
M  V30 4191 O 392.664 -3.78091 3.946 0
M  V30 4192 H 389.758 -0.597293 0.571988 0
M  V30 4193 H 392.304 -0.586735 1.59234 0
M  V30 4194 H 391.076 -1.65975 3.54356 0
M  V30 4195 H 390.699 -3.05439 2.54544 0
M  V30 4196 N 391.696 -1.35014 -0.812953 0
M  V30 4197 C 392.659 -1.27292 -1.90602 0
M  V30 4198 C 393.659 -0.185817 -1.59723 0
M  V30 4199 O 394.849 -0.439102 -1.68575 0
M  V30 4200 C 391.981 -0.967676 -3.26877 0
M  V30 4201 H 393.174 -2.24479 -1.9887 0
M  V30 4202 H 390.727 -1.19446 -1.00808 0
M  V30 4203 H 391.462 0.0005954 -3.243 0
M  V30 4204 H 391.247 -1.75412 -3.50675 0
M  V30 4205 H 392.737 -0.939085 -4.06904 0
M  V30 4206 N 393.175 1.03435 -1.18907 0
M  V30 4207 C 394.421 1.77005 -0.989798 0
M  V30 4208 C 394.754 1.88205 0.478816 0
M  V30 4209 O 394.029 1.39481 1.35556 0
M  V30 4210 C 394.312 3.19925 -1.65287 0
M  V30 4211 C 394.165 3.1663 -3.19477 0
M  V30 4212 C 395.484 4.18189 -1.37134 0
M  V30 4213 H 392.603 0.642538 -0.360991 0
M  V30 4214 H 395.245 1.20784 -1.46667 0
M  V30 4215 H 393.395 3.67929 -1.24741 0
M  V30 4216 H 395.067 2.76567 -3.692 0
M  V30 4217 H 393.31 2.54491 -3.51307 0
M  V30 4218 H 393.981 4.1758 -3.61013 0
M  V30 4219 H 396.457 3.78761 -1.72276 0
M  V30 4220 H 395.333 5.16394 -1.86087 0
M  V30 4221 H 395.594 4.41112 -0.295424 0
M  V30 4222 N 394.653 0.992116 1.22453 0
M  V30 4223 C 395.902 0.662992 1.90492 0
M  V30 4224 C 396.215 -0.808407 1.78113 0
M  V30 4225 O 397.421 -1.24908 2.41061 0
M  V30 4226 C 395.877 1.1353 3.41524 0
M  V30 4227 C 395.485 2.63187 3.62542 0
M  V30 4228 C 397.229 0.880465 4.15269 0
M  V30 4229 C 395.136 3.04024 5.0727 0
M  V30 4230 H 394.066 0.244278 0.713333 0
M  V30 4231 H 396.717 1.20157 1.38688 0
M  V30 4232 H 395.099 0.52485 3.92506 0
M  V30 4233 H 396.273 3.2957 3.22056 0
M  V30 4234 H 394.588 2.86543 3.02129 0
M  V30 4235 H 397.185 1.16128 5.21937 0
M  V30 4236 H 397.528 -0.183408 4.15896 0
M  V30 4237 H 398.061 1.45307 3.70312 0
M  V30 4238 H 394.8 4.09584 5.11782 0
M  V30 4239 H 394.32 2.42343 5.48662 0
M  V30 4240 H 395.999 2.95282 5.75689 0
M  V30 4241 N 396.131 -1.37776 0.765217 0
M  V30 4242 C 397.094 -2.28686 0.153416 0
M  V30 4243 C 398.094 -1.47727 -0.635081 0
M  V30 4244 O 399.284 -1.68027 -0.459632 0
M  V30 4245 C 396.416 -3.31608 -0.790495 0
M  V30 4246 H 397.609 -2.84297 0.954723 0
M  V30 4247 H 395.162 -1.46932 0.53299 0
M  V30 4248 H 395.897 -2.81109 -1.61705 0
M  V30 4249 H 395.682 -3.9144 -0.227348 0
M  V30 4250 H 397.172 -3.99559 -1.21419 0
M  V30 4251 N 397.609 -0.515225 -1.4894 0
M  V30 4252 C 398.541 0.292481 -2.27326 0
M  V30 4253 C 399.554 0.917838 -1.3446 0
M  V30 4254 O 400.743 0.798772 -1.5963 0
M  V30 4255 C 397.843 1.42803 -3.07344 0
M  V30 4256 C 397.016 0.907347 -4.27885 0
M  V30 4257 C 396.075 1.92222 -4.89834 0
M  V30 4258 O 395.101 1.48506 -5.49486 0
M  V30 4259 N 396.303 3.25355 -4.80754 0
M  V30 4260 H 399.068 -0.379721 -2.97285 0
M  V30 4261 H 396.629 -0.348638 -1.58102 0
M  V30 4262 H 398.621 2.10481 -3.45658 0
M  V30 4263 H 397.191 2.00414 -2.39902 0
M  V30 4264 H 396.411 0.0550218 -3.94162 0
M  V30 4265 H 397.699 0.538108 -5.05946 0
M  V30 4266 H 397.097 3.6355 -4.33414 0
M  V30 4267 H 395.654 3.88707 -5.23211 0
M  V30 4268 N 399.087 1.5561 -0.249682 0
M  V30 4269 C 400.034 2.21496 0.648694 0
M  V30 4270 C 401.004 1.17977 1.16921 0
M  V30 4271 O 402.189 1.46434 1.22318 0
M  V30 4272 C 399.329 2.92039 1.83868 0
M  V30 4273 C 398.442 4.10219 1.35442 0
M  V30 4274 C 397.577 4.6847 2.50419 0
M  V30 4275 C 396.616 5.78893 1.98869 0
M  V30 4276 N 395.753 6.31315 3.07223 0
M  V30 4277 H 400.593 2.97892 0.0801582 0
M  V30 4278 H 398.13 1.47074 0.0278031 0
M  V30 4279 H 400.088 3.31138 2.53778 0
M  V30 4280 H 398.718 2.18111 2.37965 0
M  V30 4281 H 397.77 3.76413 0.54928 0
M  V30 4282 H 399.082 4.89927 0.936649 0
M  V30 4283 H 398.236 5.10158 3.28366 0
M  V30 4284 H 396.975 3.87984 2.95499 0
M  V30 4285 H 395.98 5.3668 1.19393 0
M  V30 4286 H 397.205 6.61232 1.54755 0
M  V30 4287 H 395.151 5.53733 3.51732 0
M  V30 4288 H 395.068 7.06224 2.69784 0
M  V30 4289 H 396.336 6.77662 3.8522 0
M  V30 4290 N 400.565 -0.0233959 1.57583 0
M  V30 4291 C 401.814 -0.712133 1.8871 0
M  V30 4292 C 402.127 -1.76217 0.848944 0
M  V30 4293 O 403.333 -2.50389 1.04964 0
M  V30 4294 C 401.789 -1.3177 3.3491 0
M  V30 4295 C 401.397 -0.303715 4.46969 0
M  V30 4296 C 403.141 -1.98598 3.75179 0
M  V30 4297 C 401.048 -0.917945 5.84233 0
M  V30 4298 H 399.978 -0.269735 0.704101 0
M  V30 4299 H 402.629 0.0333114 1.8347 0
M  V30 4300 H 401.011 -2.11304 3.34913 0
M  V30 4301 H 402.185 0.465325 4.58445 0
M  V30 4302 H 400.5 0.2628 4.1557 0
M  V30 4303 H 403.097 -2.45416 4.75053 0
M  V30 4304 H 403.44 -2.80659 3.07468 0
M  V30 4305 H 403.973 -1.25831 3.77374 0
M  V30 4306 H 400.712 -0.136633 6.55358 0
M  V30 4307 H 400.232 -1.65669 5.76467 0
M  V30 4308 H 401.911 -1.4236 6.31144 0
M  V30 4309 N 402.043 -1.548 -0.295768 0
M  V30 4310 C 402.953 -1.89177 -1.38742 0
M  V30 4311 C 403.969 -0.786481 -1.55211 0
M  V30 4312 O 405.145 -1.08344 -1.69775 0
M  V30 4313 C 402.21 -2.13663 -2.73036 0
M  V30 4314 C 401.271 -3.37349 -2.65508 0
M  V30 4315 C 400.504 -3.60658 -3.93398 0
M  V30 4316 O 400.727 -2.86882 -4.93006 0
M  V30 4317 O 399.661 -4.54179 -3.94975 0
M  V30 4318 H 403.487 -2.82059 -1.12589 0
M  V30 4319 H 401.072 -1.41056 -0.492295 0
M  V30 4320 H 402.954 -2.3094 -3.52484 0
M  V30 4321 H 401.629 -1.23967 -2.99022 0
M  V30 4322 H 400.536 -3.25431 -1.84514 0
M  V30 4323 H 401.869 -4.27192 -2.44474 0
M  V30 4324 N 403.521 0.559213 -1.47345 0
M  V30 4325 C 404.932 1.14134 -1.47751 0
M  V30 4326 C 405.283 1.94834 -0.231103 0
M  V30 4327 O 404.408 2.05957 0.664137 0
M  V30 4328 C 405.003 2.07653 -2.67705 0
M  V30 4329 C 403.562 2.61141 -2.71076 0
M  V30 4330 C 402.709 1.3748 -2.40821 0
M  V30 4331 H 405.66 0.345917 -1.54884 0
M  V30 4332 H 405.681 2.91497 -2.44561 0
M  V30 4333 H 405.193 1.4889 -3.58404 0
M  V30 4334 H 403.294 3.23707 -1.84511 0
M  V30 4335 H 403.407 3.02272 -3.7171 0
M  V30 4336 H 401.771 1.68086 -1.91362 0
M  V30 4337 H 402.554 0.805135 -3.33725 0
M  V30 4338 N 404.999 1.35443 0.805782 0
M  V30 4339 C 406.247 1.28507 1.55982 0
M  V30 4340 C 406.568 -0.140046 1.94496 0
M  V30 4341 O 405.838 -1.07666 1.63661 0
M  V30 4342 H 404.418 0.472676 0.578434 0
M  V30 4343 H 407.08 1.69555 0.961098 0
M  V30 4344 H 406.176 1.90148 2.47488 0
M  V30 4345 N 406.477 -1.02803 1.19454 0
M  V30 4346 C 407.723 -1.76478 0.999171 0
M  V30 4347 C 408.056 -1.88456 -0.468828 0
M  V30 4348 O 407.331 -1.40198 -1.34814 0
M  V30 4349 C 407.614 -3.19044 1.66981 0
M  V30 4350 C 407.467 -3.14932 3.21151 0
M  V30 4351 C 408.786 -4.17456 1.39349 0
M  V30 4352 H 405.905 -0.640614 0.364393 0
M  V30 4353 H 408.547 -1.20005 1.47305 0
M  V30 4354 H 406.697 -3.67263 1.2669 0
M  V30 4355 H 408.369 -2.74605 3.70661 0
M  V30 4356 H 406.612 -2.52625 3.52652 0
M  V30 4357 H 407.283 -4.1566 3.63223 0
M  V30 4358 H 409.759 -3.77842 1.74283 0
M  V30 4359 H 408.635 -5.154 1.88823 0
M  V30 4360 H 408.896 -4.40949 0.318813 0
M  V30 4361 N 407.956 -0.998596 -1.21925 0
M  V30 4362 C 408.866 -0.562736 -2.27751 0
M  V30 4363 C 409.882 0.391203 -1.69545 0
M  V30 4364 O 411.058 0.256625 -1.99758 0
M  V30 4365 C 408.123 0.11012 -3.46525 0
M  V30 4366 C 407.184 -0.887495 -4.20026 0
M  V30 4367 C 406.417 -0.246654 -5.3313 0
M  V30 4368 O 406.64 0.958088 -5.62296 0
M  V30 4369 O 405.574 -0.954374 -5.94286 0
M  V30 4370 H 409.4 -1.44329 -2.67213 0
M  V30 4371 H 406.985 -0.767135 -1.28201 0
M  V30 4372 H 408.867 0.486756 -4.18579 0
M  V30 4373 H 407.542 0.965154 -3.08976 0
M  V30 4374 H 406.449 -1.31517 -3.5022 0
M  V30 4375 H 407.782 -1.71191 -4.6147 0
M  V30 4376 N 409.434 1.37368 -0.772513 0
M  V30 4377 C 410.381 2.30262 -0.157488 0
M  V30 4378 C 411.351 1.51137 0.688965 0
M  V30 4379 O 412.536 1.79704 0.641168 0
M  V30 4380 C 409.676 3.37611 0.715045 0
M  V30 4381 C 408.789 4.31746 -0.148098 0
M  V30 4382 C 407.924 5.26171 0.729213 0
M  V30 4383 C 406.963 6.11948 -0.136418 0
M  V30 4384 N 406.1 6.98613 0.698914 0
M  V30 4385 H 410.94 2.82277 -0.955179 0
M  V30 4386 H 408.477 1.38957 -0.482631 0
M  V30 4387 H 410.435 3.98479 1.23575 0
M  V30 4388 H 409.065 2.86959 1.47833 0
M  V30 4389 H 408.117 3.72178 -0.786613 0
M  V30 4390 H 409.429 4.92084 -0.81579 0
M  V30 4391 H 408.583 5.92247 1.31637 0
M  V30 4392 H 407.322 4.66246 1.43059 0
M  V30 4393 H 406.327 5.4485 -0.736102 0
M  V30 4394 H 407.552 6.73945 -0.835134 0
M  V30 4395 H 405.498 6.41215 1.38489 0
M  V30 4396 H 405.415 7.55948 0.0885358 0
M  V30 4397 H 406.683 7.69077 1.27044 0
M  V30 4398 N 410.912 0.523116 1.48665 0
M  V30 4399 C 411.859 -0.243398 2.29513 0
M  V30 4400 C 412.829 -0.940139 1.36933 0
M  V30 4401 O 414.014 -0.942503 1.65896 0
M  V30 4402 C 411.154 -1.28855 3.20141 0
M  V30 4403 C 410.267 -0.60135 4.27794 0
M  V30 4404 C 409.402 -1.62884 5.05611 0
M  V30 4405 C 408.441 -0.924726 6.05075 0
M  V30 4406 N 407.578 -1.89744 6.75975 0
M  V30 4407 H 412.418 0.452234 2.94549 0
M  V30 4408 H 409.955 0.234858 1.45213 0
M  V30 4409 H 411.913 -1.90674 3.71079 0
M  V30 4410 H 410.543 -1.95266 2.57043 0
M  V30 4411 H 409.595 0.130623 3.80176 0
M  V30 4412 H 410.907 -0.0481585 4.98777 0
M  V30 4413 H 410.061 -2.32149 5.60528 0
M  V30 4414 H 408.8 -2.21592 4.34452 0
M  V30 4415 H 407.805 -0.217966 5.49368 0
M  V30 4416 H 409.03 -0.343851 6.78229 0
M  V30 4417 H 406.976 -2.47373 6.07571 0
M  V30 4418 H 406.893 -1.3955 7.43009 0
M  V30 4419 H 408.161 -2.58229 7.35485 0
M  V30 4420 N 412.39 -1.55475 0.257931 0
M  V30 4421 C 413.636 -1.99502 -0.364266 0
M  V30 4422 C 413.969 -1.146 -1.56782 0
M  V30 4423 O 413.244 -0.211968 -1.93342 0
M  V30 4424 C 413.527 -3.51917 -0.763333 0
M  V30 4425 C 413.38 -4.4758 0.446371 0
M  V30 4426 C 414.699 -4.09742 -1.60623 0
M  V30 4427 H 411.818 -0.725277 -0.130929 0
M  V30 4428 H 414.46 -1.8653 0.361446 0
M  V30 4429 H 412.61 -3.63101 -1.38166 0
M  V30 4430 H 414.282 -4.48362 1.08487 0
M  V30 4431 H 412.525 -4.19947 1.08753 0
M  V30 4432 H 413.196 -5.51862 0.123645 0
M  V30 4433 H 415.672 -4.01727 -1.08418 0
M  V30 4434 H 414.548 -5.16631 -1.85429 0
M  V30 4435 H 414.809 -3.58889 -2.58169 0
M  V30 4436 N 413.868 0.0150385 -1.57593 0
M  V30 4437 C 415.114 0.704043 -1.90187 0
M  V30 4438 C 415.447 1.74249 -0.857366 0
M  V30 4439 O 414.722 1.94092 0.125843 0
M  V30 4440 C 415.005 1.36087 -3.33395 0
M  V30 4441 C 414.858 0.334981 -4.48551 0
M  V30 4442 C 416.177 2.29112 -3.7576 0
M  V30 4443 H 413.296 0.254475 -0.691673 0
M  V30 4444 H 415.938 -0.0331678 -1.89971 0
M  V30 4445 H 414.088 1.98922 -3.3371 0
M  V30 4446 H 415.76 -0.292534 -4.60372 0
M  V30 4447 H 414.003 -0.344325 -4.32431 0
M  V30 4448 H 414.674 0.833316 -5.45674 0
M  V30 4449 H 417.15 1.76308 -3.76902 0
M  V30 4450 H 416.026 2.72043 -4.76743 0
M  V30 4451 H 416.287 3.16385 -3.08793 0
M  V30 4452 N 415.346 1.54954 0.287554 0
M  V30 4453 C 416.762 1.46469 0.633964 0
M  V30 4454 C 416.962 0.666865 1.90145 0
M  V30 4455 O 416.018 0.179906 2.51858 0
M  V30 4456 C 417.331 2.90556 0.774454 0
M  V30 4457 C 418.879 3.00681 0.869462 0
M  V30 4458 C 419.354 4.45993 1.04184 0
M  V30 4459 N 420.845 4.4976 1.10772 0
M  V30 4460 C 421.58 5.59393 1.25964 0
M  V30 4461 N 421.076 6.78923 1.37968 0
M  V30 4462 N 422.869 5.47107 1.28959 0
M  V30 4463 H 415.02 2.05288 -0.545041 0
M  V30 4464 H 417.283 0.930305 -0.182308 0
M  V30 4465 H 416.989 3.51594 -0.086207 0
M  V30 4466 H 416.863 3.38743 1.6593 0
M  V30 4467 H 419.25 2.39749 1.7206 0
M  V30 4468 H 419.331 2.55769 -0.0396831 0
M  V30 4469 H 418.975 5.07524 0.195422 0
M  V30 4470 H 418.905 4.88548 1.96542 0
M  V30 4471 H 421.396 3.63651 1.02794 0
M  V30 4472 H 421.709 7.58231 1.49353 0
M  V30 4473 H 420.054 6.81763 1.34999 0
M  V30 4474 H 423.245 4.52668 1.19202 0
M  V30 4475 H 423.418 6.32595 1.40455 0
M  V30 4476 N 416.824 -0.551391 1.4764 0
M  V30 4477 C 418.073 -1.30467 1.53822 0
M  V30 4478 C 418.386 -1.94495 0.207661 0
M  V30 4479 O 419.592 -2.71099 0.147533 0
M  V30 4480 C 418.048 -2.36616 2.71184 0
M  V30 4481 C 417.656 -1.78754 4.10793 0
M  V30 4482 C 419.4 -3.13088 2.86663 0
M  V30 4483 C 417.307 -2.82717 5.19447 0
M  V30 4484 H 416.237 -0.490584 0.572576 0
M  V30 4485 H 418.888 -0.58494 1.73927 0
M  V30 4486 H 417.27 -3.11529 2.4447 0
M  V30 4487 H 418.444 -1.10173 4.47435 0
M  V30 4488 H 416.759 -1.14846 4.00249 0
M  V30 4489 H 419.356 -3.90736 3.65007 0
M  V30 4490 H 419.699 -3.67635 1.95321 0
M  V30 4491 H 420.232 -2.45288 3.13175 0
M  V30 4492 H 416.971 -2.33018 6.12685 0
M  V30 4493 H 416.491 -3.4969 4.87316 0
M  V30 4494 H 418.17 -3.46102 5.46646 0
M  V30 4495 N 418.302 -1.35869 -0.798587 0
M  V30 4496 C 419.579 -1.20145 -1.54352 0
M  V30 4497 C 419.959 0.216161 -2.0999 0
M  V30 4498 O 419.307 1.22068 -1.93162 0
M  V30 4499 C 419.517 -2.27602 -2.64572 0
M  V30 4500 C 420.865 -2.63811 -3.32699 0
M  V30 4501 O 421.889 -2.26576 -2.74849 0
M  V30 4502 O 420.748 -3.27866 -4.37226 0
M  V30 4503 H 417.842 -0.467248 -0.682355 0
M  V30 4504 H 420.388 -1.47574 -0.837859 0
M  V30 4505 H 419.16 -3.2265 -2.21388 0
M  V30 4506 H 418.783 -2.01488 -3.42766 0
M  V30 4507 N 419.78 1.02168 -1.19998 0
M  V30 4508 C 421.057 1.72816 -0.916191 0
M  V30 4509 C 421.437 2.03081 0.576325 0
M  V30 4510 O 420.785 1.69122 1.53656 0
M  V30 4511 C 420.995 2.9997 -1.78378 0
M  V30 4512 C 422.343 3.73336 -2.02251 0
M  V30 4513 O 423.367 3.09914 -1.75589 0
M  V30 4514 O 422.226 4.87371 -2.47249 0
M  V30 4515 H 419.32 0.752924 -0.342103 0
M  V30 4516 H 421.866 1.08062 -1.30846 0
M  V30 4517 H 420.638 2.73888 -2.79466 0
M  V30 4518 H 420.261 3.72464 -1.39126 0
M  V30 4519 N 421.258 1.00505 1.21394 0
M  V30 4520 C 422.506 0.686415 1.90086 0
M  V30 4521 C 422.827 -0.785264 1.7849 0
M  V30 4522 O 422.097 -1.56387 1.17983 0
M  V30 4523 H 420.677 0.2509 0.703604 0
M  V30 4524 H 423.339 1.27417 1.47482 0
M  V30 4525 H 422.435 0.959621 2.96981 0
M  V30 4526 N 422.737 -1.36956 0.779787 0
M  V30 4527 C 423.986 -1.98738 0.344405 0
M  V30 4528 C 424.299 -1.62596 -1.08728 0
M  V30 4529 O 425.505 -2.1754 -1.62445 0
M  V30 4530 C 423.961 -3.5544 0.564829 0
M  V30 4531 C 423.569 -4.00514 2.0073 0
M  V30 4532 C 425.313 -4.24059 0.193471 0
M  V30 4533 C 423.22 -5.49957 2.17489 0
M  V30 4534 H 422.15 -0.743561 0.12503 0
M  V30 4535 H 424.801 -1.56381 0.960057 0
M  V30 4536 H 423.183 -3.95817 -0.120397 0
M  V30 4537 H 424.357 -3.71362 2.72814 0
M  V30 4538 H 422.672 -3.44703 2.336 0
M  V30 4539 H 425.269 -5.33874 0.297097 0
M  V30 4540 H 425.612 -4.07378 -0.857263 0
M  V30 4541 H 426.145 -3.89012 0.831556 0
M  V30 4542 H 422.884 -5.71574 3.2091 0
M  V30 4543 H 422.404 -5.80767 1.49899 0
M  V30 4544 H 424.083 -6.16043 1.97738 0
M  V30 4545 N 424.215 -0.530993 -1.48385 0
M  V30 4546 C 425.626 -0.0907905 -1.86479 0
M  V30 4547 C 425.977 1.33213 -1.44044 0
M  V30 4548 O 425.102 1.99783 -0.831615 0
M  V30 4549 C 425.697 -0.157987 -3.38431 0
M  V30 4550 C 424.256 0.227026 -3.75715 0
M  V30 4551 C 423.403 -0.5173 -2.72432 0
M  V30 4552 H 426.354 -0.742186 -1.40276 0
M  V30 4553 H 426.375 0.630053 -3.75247 0
M  V30 4554 H 425.887 -1.19372 -3.69286 0
M  V30 4555 H 423.988 1.26486 -3.50474 0
M  V30 4556 H 424.101 -0.113288 -4.78966 0
M  V30 4557 H 422.465 0.0365527 -2.54674 0
M  V30 4558 H 423.248 -1.55368 -3.0613 0
M  V30 4559 N 425.693 1.55336 -0.266172 0
M  V30 4560 C 426.603 2.2583 0.635458 0
M  V30 4561 C 427.619 1.28106 1.17749 0
M  V30 4562 O 428.795 1.61024 1.20968 0
M  V30 4563 C 425.86 2.95879 1.80712 0
M  V30 4564 C 424.921 4.09059 1.30265 0
M  V30 4565 C 424.154 4.75759 2.41846 0
M  V30 4566 O 424.377 4.41622 3.61007 0
M  V30 4567 O 423.311 5.63888 2.1051 0
M  V30 4568 H 427.137 3.03631 0.0646693 0
M  V30 4569 H 424.722 1.49361 -0.0339177 0
M  V30 4570 H 426.604 3.39932 2.49047 0
M  V30 4571 H 425.279 2.21002 2.36516 0
M  V30 4572 H 424.186 3.69482 0.586019 0
M  V30 4573 H 425.519 4.85811 0.790458 0
M  V30 4574 N 427.171 -0.0066808 1.57599 0
M  V30 4575 C 428.419 -0.691552 1.899 0
M  V30 4576 C 428.74 -1.74682 0.866672 0
M  V30 4577 O 428.01 -1.95661 -0.0968189 0
M  V30 4578 H 426.59 -0.258416 0.700878 0
M  V30 4579 H 429.252 0.0326655 1.94873 0
M  V30 4580 H 428.348 -1.16702 2.8946 0
M  V30 4581 N 428.649 -1.55105 -0.279332 0
M  V30 4582 C 429.895 -1.76597 -1.00921 0
M  V30 4583 C 430.25 -0.556831 -1.84166 0
M  V30 4584 O 429.543 0.450573 -1.86227 0
M  V30 4585 C 429.737 -3.0086 -1.92919 0
M  V30 4586 C 429.566 -4.33744 -1.18728 0
M  V30 4587 C 428.336 -4.9712 -0.905545 0
M  V30 4588 C 430.534 -5.11009 -0.580857 0
M  V30 4589 N 428.516 -6.13749 -0.136169 0
M  V30 4590 C 429.887 -6.19976 0.0546661 0
M  V30 4591 C 431.942 -4.95502 -0.488067 0
M  V30 4592 C 430.645 -7.15123 0.774028 0
M  V30 4593 C 432.671 -5.90999 0.217688 0
M  V30 4594 C 432.033 -6.9935 0.841975 0
M  V30 4595 H 428.132 -0.698553 -0.351493 0
M  V30 4596 H 430.716 -1.92595 -0.285531 0
M  V30 4597 H 428.887 -2.86249 -2.62519 0
M  V30 4598 H 430.619 -3.10784 -2.59221 0
M  V30 4599 H 427.374 -4.57903 -1.20921 0
M  V30 4600 H 427.798 -6.7659 0.235665 0
M  V30 4601 H 432.44 -4.11841 -0.956406 0
M  V30 4602 H 430.158 -7.9831 1.25407 0
M  V30 4603 H 433.744 -5.81078 0.289717 0
M  V30 4604 H 432.624 -7.71973 1.37939 0
M  V30 4605 N 430.127 0.543554 -1.4793 0
M  V30 4606 C 431.06 1.66556 -1.55995 0
M  V30 4607 C 432.038 1.57315 -0.411205 0
M  V30 4608 O 433.222 1.7798 -0.620922 0
M  V30 4609 C 430.349 3.04883 -1.47527 0
M  V30 4610 C 429.395 3.32526 -2.67074 0
M  V30 4611 S 430.228 3.20282 -4.29162 0
M  V30 4612 C 431.384 4.61079 -4.23269 0
M  V30 4613 H 431.617 1.59462 -2.50917 0
M  V30 4614 H 429.15 0.725456 -1.36296 0
M  V30 4615 H 431.108 3.84665 -1.43328 0
M  V30 4616 H 429.769 3.09429 -0.539665 0
M  V30 4617 H 428.962 4.33403 -2.5725 0
M  V30 4618 H 428.564 2.60389 -2.68466 0
M  V30 4619 H 430.856 5.52318 -3.92365 0
M  V30 4620 H 431.799 4.75959 -5.24279 0
M  V30 4621 H 432.207 4.39766 -3.5393 0
M  V30 4622 N 431.605 1.3629 0.791371 0
M  V30 4623 C 432.853 1.30154 1.5461 0
M  V30 4624 C 433.174 -0.119409 1.94634 0
M  V30 4625 O 432.444 -1.05924 1.64794 0
M  V30 4626 H 431.024 0.478784 0.573389 0
M  V30 4627 H 433.686 1.70565 0.94306 0
M  V30 4628 H 432.782 1.92762 2.45457 0
M  V30 4629 N 433.083 -1.0153 1.20538 0
M  V30 4630 C 434.013 -2.11972 0.979295 0
M  V30 4631 C 434.994 -1.6985 -0.0921787 0
M  V30 4632 O 436.179 -1.94089 0.0655932 0
M  V30 4633 C 433.309 -3.43201 0.531984 0
M  V30 4634 C 432.263 -3.9907 1.54685 0
M  V30 4635 C 431.589 -5.26082 0.956127 0
M  V30 4636 C 432.889 -4.32313 2.93092 0
M  V30 4637 H 434.583 -2.31143 1.90298 0
M  V30 4638 H 432.129 -1.11079 0.916372 0
M  V30 4639 H 434.082 -4.1985 0.361044 0
M  V30 4640 H 432.806 -3.23792 -0.427327 0
M  V30 4641 H 431.465 -3.2453 1.70517 0
M  V30 4642 H 431.113 -5.02999 -0.0111538 0
M  V30 4643 H 430.813 -5.64426 1.63393 0
M  V30 4644 H 432.337 -6.05386 0.796284 0
M  V30 4645 H 433.751 -4.99845 2.80763 0
M  V30 4646 H 432.148 -4.81774 3.57791 0
M  V30 4647 H 433.218 -3.41025 3.44717 0
M  V30 4648 N 434.561 -1.01147 -1.20859 0
M  V30 4649 C 435.838 -0.613136 -1.85742 0
M  V30 4650 C 436.218 0.909004 -1.90526 0
M  V30 4651 O 435.566 1.79862 -1.40932 0
M  V30 4652 C 435.776 -1.255 -3.25654 0
M  V30 4653 C 437.124 -1.3672 -4.01986 0
M  V30 4654 O 438.148 -1.21082 -3.34989 0
M  V30 4655 O 437.007 -1.6194 -5.21956 0
M  V30 4656 H 434.101 -0.210878 -0.799662 0
M  V30 4657 H 436.647 -1.10853 -1.2849 0
M  V30 4658 H 435.419 -2.29532 -3.16908 0
M  V30 4659 H 435.042 -0.746369 -3.90532 0
M  V30 4660 N 436.039 1.36541 -0.78704 0
M  V30 4661 C 437.288 1.98552 -0.35494 0
M  V30 4662 C 437.601 1.63171 1.07864 0
M  V30 4663 O 438.807 2.18399 1.61289 0
M  V30 4664 C 437.263 3.55136 -0.583671 0
M  V30 4665 C 436.871 3.99444 -2.02851 0
M  V30 4666 C 438.615 4.2395 -0.215957 0
M  V30 4667 C 436.522 5.48796 -2.20403 0
M  V30 4668 H 435.452 0.742888 -0.128972 0
M  V30 4669 H 438.103 1.5587 -0.968337 0
M  V30 4670 H 436.485 3.95875 0.0994046 0
M  V30 4671 H 437.659 3.6991 -2.74779 0
M  V30 4672 H 435.974 3.43459 -2.35425 0
M  V30 4673 H 438.571 5.33709 -0.325405 0
M  V30 4674 H 438.914 4.07827 0.835646 0
M  V30 4675 H 439.447 3.88565 -0.852175 0
M  V30 4676 H 436.186 5.69864 -3.23937 0
M  V30 4677 H 435.706 5.79964 -1.52977 0
M  V30 4678 H 437.385 6.14986 -2.01002 0
M  V30 4679 N 437.518 0.538854 1.48102 0
M  V30 4680 C 438.766 0.00798599 2.02098 0
M  V30 4681 C 439.087 -1.33922 1.41739 0
M  V30 4682 O 438.357 -1.86932 0.585934 0
M  V30 4683 H 436.937 -3.62179e-05 0.747 0
M  V30 4684 H 439.599 0.7047 1.81714 0
M  V30 4685 H 438.695 -0.0937672 3.11959 0
M  V30 4686 N 438.996 -1.55193 0.274407 0
M  V30 4687 C 440.407 -1.85358 -0.223488 0
M  V30 4688 C 440.758 -1.19642 -1.555 0
M  V30 4689 O 439.883 -0.484498 -2.10907 0
M  V30 4690 C 440.478 -3.36282 -0.412285 0
M  V30 4691 C 439.037 -3.66574 -0.854413 0
M  V30 4692 C 438.184 -2.7725 0.0527056 0
M  V30 4693 H 441.135 -1.50743 0.496215 0
M  V30 4694 H 441.156 -3.59349 -1.25094 0
M  V30 4695 H 440.668 -3.84083 0.556965 0
M  V30 4696 H 438.769 -3.24273 -1.83516 0
M  V30 4697 H 438.882 -4.74073 -0.692226 0
M  V30 4698 H 437.246 -2.50447 -0.463484 0
M  V30 4699 H 438.029 -3.27865 1.01783 0
M  V30 4700 N 440.474 -0.00167713 -1.576 0
M  V30 4701 C 441.384 1.00548 -2.1196 0
M  V30 4702 C 442.4 1.3758 -1.06526 0
M  V30 4703 O 443.576 1.46278 -1.38436 0
M  V30 4704 C 440.641 2.27809 -2.6135 0
M  V30 4705 C 439.702 1.97074 -3.81393 0
M  V30 4706 C 438.935 3.18267 -4.28417 0
M  V30 4707 O 439.158 4.30009 -3.74765 0
M  V30 4708 O 438.092 3.02167 -5.20556 0
M  V30 4709 H 441.918 0.573373 -2.98238 0
M  V30 4710 H 439.503 0.217255 -1.47812 0
M  V30 4711 H 441.385 3.02568 -2.93309 0
M  V30 4712 H 440.06 2.70254 -1.78169 0
M  V30 4713 H 438.967 1.19785 -3.54404 0
M  V30 4714 H 440.3 1.59464 -4.65652 0
M  V30 4715 N 441.952 1.55251 0.271103 0
M  V30 4716 C 443.18 1.79974 1.02064 0
M  V30 4717 C 443.595 0.574003 1.79863 0
M  V30 4718 O 442.952 -0.456962 1.76686 0
M  V30 4719 C 443.003 3.02603 1.97772 0
M  V30 4720 O 442.724 4.20443 1.23124 0
M  V30 4721 C 444.225 3.39944 2.84522 0
M  V30 4722 H 441.445 0.599489 0.301419 0
M  V30 4723 H 443.989 2.02268 0.301313 0
M  V30 4724 H 442.144 2.8243 2.65165 0
M  V30 4725 H 442.558 4.89783 1.87651 0
M  V30 4726 H 444.032 4.28915 3.47471 0
M  V30 4727 H 444.509 2.59432 3.54389 0
M  V30 4728 H 445.115 3.62383 2.22618 0
M  V30 4729 N 443.43 -0.535701 1.48216 0
M  V30 4730 C 444.679 -1.28828 1.55197 0
M  V30 4731 C 444.992 -1.94263 0.228278 0
M  V30 4732 O 446.198 -2.70927 0.176278 0
M  V30 4733 C 444.654 -2.33727 2.73678 0
M  V30 4734 C 444.262 -1.74386 4.12666 0
M  V30 4735 C 446.006 -3.1003 2.89968 0
M  V30 4736 C 443.913 -2.77192 5.22416 0
M  V30 4737 H 442.843 -0.484484 0.577747 0
M  V30 4738 H 445.494 -0.56646 1.74538 0
M  V30 4739 H 443.876 -3.08919 2.4776 0
M  V30 4740 H 445.05 -1.05421 4.48579 0
M  V30 4741 H 443.365 -1.10595 4.01445 0
M  V30 4742 H 445.962 -3.86842 3.6913 0
M  V30 4743 H 446.305 -3.65542 1.9921 0
M  V30 4744 H 446.838 -2.41952 3.15759 0
M  V30 4745 H 443.577 -2.26507 6.15122 0
M  V30 4746 H 443.097 -3.44502 4.90998 0
M  V30 4747 H 444.776 -3.40285 5.50286 0
M  V30 4748 N 444.908 -1.36708 -0.784132 0
M  V30 4749 C 445.818 -1.3363 -1.92822 0
M  V30 4750 C 446.834 -0.237686 -1.72369 0
M  V30 4751 O 448.01 -0.470962 -1.95816 0
M  V30 4752 C 445.075 -1.13011 -3.27764 0
M  V30 4753 C 444.136 -2.32397 -3.60957 0
M  V30 4754 C 443.369 -2.12752 -4.89461 0
M  V30 4755 O 443.592 -1.10541 -5.59586 0
M  V30 4756 O 442.526 -3.00653 -5.21432 0
M  V30 4757 H 446.352 -2.29964 -1.98369 0
M  V30 4758 H 443.937 -1.1731 -0.925136 0
M  V30 4759 H 445.819 -1.03451 -4.08504 0
M  V30 4760 H 444.494 -0.19743 -3.23097 0
M  V30 4761 H 443.401 -2.47527 -2.80502 0
M  V30 4762 H 444.734 -3.2419 -3.70354 0
M  V30 4763 N 446.386 1.0089 -1.21074 0
M  V30 4764 C 447.316 2.1145 -0.990523 0
M  V30 4765 C 448.297 1.69897 0.0831699 0
M  V30 4766 O 449.482 1.94052 -0.0758853 0
M  V30 4767 C 446.612 3.42914 -0.550177 0
M  V30 4768 C 445.566 3.98244 -1.56799 0
M  V30 4769 C 444.892 5.25568 -0.984013 0
M  V30 4770 C 446.192 4.30752 -2.95381 0
M  V30 4771 H 447.886 2.3013 -1.91521 0
M  V30 4772 H 445.432 1.10592 -0.92225 0
M  V30 4773 H 447.385 4.19653 -0.383305 0
M  V30 4774 H 446.109 3.24014 0.41015 0
M  V30 4775 H 444.768 3.23621 -1.72236 0
M  V30 4776 H 444.416 5.02998 -0.0155216 0
M  V30 4777 H 444.116 5.63551 -1.66384 0
M  V30 4778 H 445.64 6.04955 -0.828378 0
M  V30 4779 H 447.054 4.98349 -2.8341 0
M  V30 4780 H 445.451 4.79869 -3.60341 0
M  V30 4781 H 446.521 3.39192 -3.46521 0
M  V30 4782 N 447.864 1.01787 1.20321 0
M  V30 4783 C 449.111 0.707936 1.89722 0
M  V30 4784 C 449.439 -0.762535 1.78929 0
M  V30 4785 O 448.694 -1.56977 1.16861 0
M  V30 4786 C 448.993 1.09076 3.40349 0
M  V30 4787 C 448.659 2.55765 3.71342 0
M  V30 4788 C 447.321 2.95845 3.79511 0
M  V30 4789 C 449.673 3.50723 3.85542 0
M  V30 4790 C 447.001 4.2982 3.99339 0
M  V30 4791 C 449.353 4.84387 4.06881 0
M  V30 4792 C 448.017 5.24172 4.1328 0
M  V30 4793 H 447.287 0.259052 0.694243 0
M  V30 4794 H 449.934 1.27868 1.42555 0
M  V30 4795 H 448.239 0.438453 3.89339 0
M  V30 4796 H 449.936 0.828636 3.92345 0
M  V30 4797 H 446.526 2.2371 3.65584 0
M  V30 4798 H 450.71 3.20916 3.78585 0
M  V30 4799 H 445.966 4.60196 4.02529 0
M  V30 4800 H 450.14 5.57891 4.1681 0
M  V30 4801 H 447.767 6.27997 4.28396 0
M  V30 4802 N 449.342 -1.36122 0.79427 0
M  V30 4803 C 450.289 -2.29982 0.194101 0
M  V30 4804 C 451.259 -1.52214 -0.664833 0
M  V30 4805 O 452.444 -1.80702 -0.612498 0
M  V30 4806 C 449.584 -3.38706 -0.661244 0
M  V30 4807 C 448.697 -4.31456 0.216766 0
M  V30 4808 C 447.832 -5.27265 -0.645411 0
M  V30 4809 C 446.871 -6.11653 0.233756 0
M  V30 4810 N 446.008 -6.99636 -0.587682 0
M  V30 4811 H 450.848 -2.80722 0.999965 0
M  V30 4812 H 448.385 -1.38172 0.504677 0
M  V30 4813 H 450.343 -4.00394 -1.17219 0
M  V30 4814 H 448.973 -2.89274 -1.43249 0
M  V30 4815 H 448.025 -3.7088 0.845724 0
M  V30 4816 H 449.337 -4.90724 0.893973 0
M  V30 4817 H 448.491 -5.94266 -1.22198 0
M  V30 4818 H 447.23 -4.68463 -1.35623 0
M  V30 4819 H 446.235 -5.4361 0.82269 0
M  V30 4820 H 447.46 -6.72531 0.942247 0
M  V30 4821 H 445.406 -6.43337 -1.2827 0
M  V30 4822 H 445.323 -7.55993 0.0317402 0
M  V30 4823 H 446.591 -7.71001 -1.14792 0
M  V30 4824 N 450.82 -0.546701 -1.47814 0
M  V30 4825 C 451.752 0.244196 -2.27895 0
M  V30 4826 C 452.765 0.88911 -1.36377 0
M  V30 4827 O 453.954 0.764733 -1.61289 0
M  V30 4828 C 451.054 1.36252 -3.10304 0
M  V30 4829 C 450.227 0.816382 -4.29714 0
M  V30 4830 C 449.286 1.81789 -4.93801 0
M  V30 4831 O 448.312 1.36818 -5.52512 0
M  V30 4832 N 449.514 3.15085 -4.87547 0
M  V30 4833 H 452.279 -0.442694 -2.96412 0
M  V30 4834 H 449.84 -0.382095 -1.57327 0
M  V30 4835 H 451.832 2.03102 -3.50045 0
M  V30 4836 H 450.402 1.95281 -2.44099 0
M  V30 4837 H 449.622 -0.0285981 -3.9419 0
M  V30 4838 H 450.91 0.430668 -5.06974 0
M  V30 4839 H 450.308 3.54275 -4.41028 0
M  V30 4840 H 448.865 3.77522 -5.31339 0
M  V30 4841 N 452.299 1.55045 -0.282633 0
M  V30 4842 C 453.246 2.22822 0.601566 0
M  V30 4843 C 454.216 1.20431 1.14392 0
M  V30 4844 O 455.401 1.48996 1.19184 0
M  V30 4845 C 452.541 2.95873 1.77632 0
M  V30 4846 C 451.654 4.12999 1.26711 0
M  V30 4847 C 450.789 4.73676 2.40426 0
M  V30 4848 C 449.828 5.82981 1.86545 0
M  V30 4849 N 448.965 6.3769 2.93762 0
M  V30 4850 H 453.805 2.97995 0.0169528 0
M  V30 4851 H 451.342 1.471 -0.00339964 0
M  V30 4852 H 453.3 3.36447 2.46697 0
M  V30 4853 H 451.93 2.2311 2.33285 0
M  V30 4854 H 450.982 3.77494 0.469314 0
M  V30 4855 H 452.294 4.91803 0.832518 0
M  V30 4856 H 451.448 5.17008 3.17471 0
M  V30 4857 H 450.187 3.94164 2.87203 0
M  V30 4858 H 449.192 5.39092 1.07983 0
M  V30 4859 H 450.417 6.64366 1.40694 0
M  V30 4860 H 448.363 5.61069 3.39908 0
M  V30 4861 H 448.28 7.11788 2.54744 0
M  V30 4862 H 449.548 6.8568 3.7076 0
M  V30 4863 N 453.777 0.010035 1.57597 0
M  V30 4864 C 454.707 -0.976857 2.12084 0
M  V30 4865 C 455.688 -1.35191 1.03235 0
M  V30 4866 O 456.873 -1.43389 1.3097 0
M  V30 4867 C 454.003 -2.26548 2.63236 0
M  V30 4868 C 452.957 -2.03175 3.76701 0
M  V30 4869 C 452.283 -3.38138 4.14206 0
M  V30 4870 C 453.583 -1.38625 5.03568 0
M  V30 4871 H 455.277 -0.523145 2.94794 0
M  V30 4872 H 452.823 -0.250195 1.4181 0
M  V30 4873 H 454.776 -2.95952 2.99984 0
M  V30 4874 H 453.5 -2.74051 1.77661 0
M  V30 4875 H 452.159 -1.36195 3.40362 0
M  V30 4876 H 451.807 -3.83363 3.25641 0
M  V30 4877 H 451.507 -3.23312 4.90656 0
M  V30 4878 H 453.031 -4.08841 4.53521 0
M  V30 4879 H 454.445 -1.98 5.38023 0
M  V30 4880 H 452.842 -1.34256 5.84889 0
M  V30 4881 H 453.912 -0.356722 4.83586 0
M  V30 4882 N 455.255 -1.55392 -0.262866 0
M  V30 4883 C 456.48 -1.80847 -1.01533 0
M  V30 4884 C 456.905 -0.584946 -1.78774 0
M  V30 4885 O 456.263 0.465701 -1.75217 0
M  V30 4886 C 456.311 -3.03866 -1.94159 0
M  V30 4887 O 455.415 -2.79662 -3.03089 0
M  V30 4888 H 454.756 -0.597441 -0.289759 0
M  V30 4889 H 457.286 -2.02553 -0.288698 0
M  V30 4890 H 457.296 -3.32872 -2.35924 0
M  V30 4891 H 455.971 -3.92564 -1.37354 0
M  V30 4892 H 454.548 -2.61781 -2.65566 0
M  V30 4893 N 456.733 0.527833 -1.48498 0
M  V30 4894 C 458.01 1.28905 -1.47115 0
M  V30 4895 C 458.39 2.10297 -0.184007 0
M  V30 4896 O 457.738 2.12728 0.834218 0
M  V30 4897 C 457.948 2.16866 -2.73441 0
M  V30 4898 C 459.296 2.76936 -3.21857 0
M  V30 4899 O 460.32 2.27152 -2.74373 0
M  V30 4900 O 459.179 3.67496 -4.04486 0
M  V30 4901 H 456.273 0.581918 -0.587623 0
M  V30 4902 H 458.819 0.544311 -1.60734 0
M  V30 4903 H 457.591 1.56521 -3.58632 0
M  V30 4904 H 457.214 2.98583 -2.62553 0
M  V30 4905 N 458.211 1.37122 0.776871 0
M  V30 4906 C 459.174 1.32301 1.8716 0
M  V30 4907 C 460.174 0.228099 1.59174 0
M  V30 4908 O 461.364 0.483642 1.67352 0
M  V30 4909 C 458.496 1.054 3.24197 0
M  V30 4910 H 459.689 2.29673 1.92848 0
M  V30 4911 H 457.242 1.22077 0.97606 0
M  V30 4912 H 457.977 0.0853872 3.24188 0
M  V30 4913 H 457.762 1.84648 3.45901 0
M  V30 4914 H 459.252 1.04664 4.04271 0
M  V30 4915 N 459.689 -1.00246 1.21608 0
M  V30 4916 C 460.636 -2.09073 0.977613 0
M  V30 4917 C 461.606 -1.65815 -0.097297 0
M  V30 4918 O 462.791 -1.90734 0.0503445 0
M  V30 4919 C 459.931 -3.40671 0.551133 0
M  V30 4920 C 459.044 -3.97326 1.69576 0
M  V30 4921 C 458.179 -5.17043 1.2182 0
M  V30 4922 C 457.218 -5.65813 2.335 0
M  V30 4923 N 456.355 -6.76778 1.86859 0
M  V30 4924 H 461.195 -2.28806 1.90924 0
M  V30 4925 H 458.732 -1.12186 0.951452 0
M  V30 4926 H 460.69 -4.16225 0.285097 0
M  V30 4927 H 459.32 -3.20967 -0.343489 0
M  V30 4928 H 458.372 -3.18734 2.07637 0
M  V30 4929 H 459.684 -4.29511 2.53617 0
M  V30 4930 H 458.838 -5.99852 0.908975 0
M  V30 4931 H 457.577 -4.86458 0.347869 0
M  V30 4932 H 456.582 -4.81599 2.65222 0
M  V30 4933 H 457.807 -5.98427 3.21033 0
M  V30 4934 H 455.753 -6.47994 1.02174 0
M  V30 4935 H 455.67 -7.08231 2.64471 0
M  V30 4936 H 456.938 -7.63116 1.58978 0
M  V30 4937 N 461.167 -1.02423 -1.1978 0
M  V30 4938 C 462.395 -0.737456 -1.93311 0
M  V30 4939 C 462.81 0.703023 -1.75223 0
M  V30 4940 O 462.167 1.47761 -1.07112 0
M  V30 4941 C 462.218 -1.0733 -3.45199 0
M  V30 4942 O 461.939 -2.4572 -3.62702 0
M  V30 4943 C 463.44 -0.80866 -4.35862 0
M  V30 4944 H 460.66 -0.2702 -0.614193 0
M  V30 4945 H 463.204 -1.36747 -1.52054 0
M  V30 4946 H 461.359 -0.488545 -3.84307 0
M  V30 4947 H 461.773 -2.58081 -4.56612 0
M  V30 4948 H 463.247 -1.09365 -5.41057 0
M  V30 4949 H 463.724 0.257025 -4.38447 0
M  V30 4950 H 464.33 -1.37592 -4.02428 0
M  V30 4951 N 462.645 1.35699 -0.801477 0
M  V30 4952 C 463.891 1.99208 -0.380022 0
M  V30 4953 C 464.224 1.63445 1.04878 0
M  V30 4954 O 463.499 0.895223 1.72673 0
M  V30 4955 C 463.782 3.55755 -0.557708 0
M  V30 4956 C 463.635 4.01332 -2.03107 0
M  V30 4957 C 464.954 4.40096 0.0197968 0
M  V30 4958 H 462.073 0.723667 -0.139552 0
M  V30 4959 H 464.715 1.60928 -1.01006 0
M  V30 4960 H 462.865 3.88494 -0.0213741 0
M  V30 4961 H 464.537 3.79026 -2.62939 0
M  V30 4962 H 462.78 3.52429 -2.52936 0
M  V30 4963 H 463.451 5.10234 -2.1063 0
M  V30 4964 H 465.927 4.13786 -0.438179 0
M  V30 4965 H 464.803 5.48735 -0.134477 0
M  V30 4966 H 465.064 4.2786 1.11303 0
M  V30 4967 N 464.123 0.554532 1.47522 0
M  V30 4968 C 465.369 0.0295227 2.02779 0
M  V30 4969 C 465.702 -1.31582 1.42828 0
M  V30 4970 O 464.977 -1.85561 0.582872 0
M  V30 4971 C 465.26 -0.0664057 3.60039 0
M  V30 4972 C 465.113 1.30585 4.30427 0
M  V30 4973 C 466.432 -0.781162 4.33112 0
M  V30 4974 H 463.551 0.0122027 0.736899 0
M  V30 4975 H 466.193 0.716305 1.7598 0
M  V30 4976 H 464.343 -0.651307 3.83002 0
M  V30 4977 H 466.015 1.93374 4.18813 0
M  V30 4978 H 464.258 1.88125 3.90886 0
M  V30 4979 H 464.929 1.19147 5.38988 0
M  V30 4980 H 467.405 -0.284565 4.15126 0
M  V30 4981 H 466.281 -0.817237 5.42782 0
M  V30 4982 H 466.542 -1.83672 4.0214 0
M  V30 4983 N 465.601 -1.54893 0.290851 0
M  V30 4984 C 466.847 -2.00949 -0.314784 0
M  V30 4985 C 467.202 -1.1757 -1.52299 0
M  V30 4986 O 466.495 -0.241558 -1.90071 0
M  V30 4987 C 466.689 -3.49815 -0.732397 0
M  V30 4988 C 466.518 -4.47603 0.433799 0
M  V30 4989 C 465.288 -4.96806 0.922599 0
M  V30 4990 C 467.486 -4.98233 1.27546 0
M  V30 4991 N 465.468 -5.78426 2.05662 0
M  V30 4992 C 466.839 -5.77455 2.25712 0
M  V30 4993 C 468.894 -4.80439 1.307 0
M  V30 4994 C 467.597 -6.40778 3.26796 0
M  V30 4995 C 469.623 -5.44574 2.30637 0
M  V30 4996 C 468.985 -6.23619 3.27533 0
M  V30 4997 H 465.084 -0.777905 -0.0799257 0
M  V30 4998 H 467.668 -1.9015 0.418458 0
M  V30 4999 H 465.839 -3.60925 -1.43483 0
M  V30 5000 H 467.571 -3.82681 -1.31671 0
M  V30 5001 H 464.326 -4.70961 0.49926 0
M  V30 5002 H 464.75 -6.23923 2.62772 0
M  V30 5003 H 469.392 -4.18918 0.571622 0
M  V30 5004 H 467.11 -7.01439 4.01258 0
M  V30 5005 H 470.696 -5.32739 2.33838 0
M  V30 5006 H 469.576 -6.72367 4.03599 0
M  V30 5007 N 467.08 -0.0183926 -1.57589 0
M  V30 5008 C 468.028 0.985111 -2.10709 0
M  V30 5009 C 469.022 1.34397 -1.0312 0
M  V30 5010 O 470.228 1.32746 -1.21567 0
M  V30 5011 H 466.603 0.335418 -0.673052 0
M  V30 5012 H 468.574 0.511689 -2.9398 0
M  V30 5013 C 467.323 2.26202 -2.64061 0
M  V30 5014 H 466.646 1.9946 -3.4649 0
M  V30 5015 H 468.086 2.94652 -3.04887 0
M  V30 5016 C 466.545 2.98444 -1.5631 0
M  V30 5017 O 467.075 3.90142 -0.956674 0
M  V30 5018 N 465.281 2.6059 -1.28612 0
M  V30 5019 H 464.828 1.86101 -1.78112 0
M  V30 5020 H 464.786 3.09238 -0.567406 0
M  V30 5021 N 468.558 1.5553 0.254621 0
M  V30 5022 C 469.806 1.7665 0.981793 0
M  V30 5023 C 470.127 0.580963 1.86145 0
M  V30 5024 O 469.397 -0.403537 1.91699 0
M  V30 5025 H 467.977 0.651475 0.365498 0
M  V30 5026 H 470.639 1.92958 0.274426 0
M  V30 5027 H 469.735 2.67486 1.60802 0
M  V30 5028 N 470.036 -0.519951 1.48776 0
M  V30 5029 C 471.447 -1.10177 1.50725 0
M  V30 5030 C 471.798 -1.94153 0.282678 0
M  V30 5031 O 470.923 -2.07645 -0.609298 0
M  V30 5032 C 471.518 -2.00482 2.73116 0
M  V30 5033 C 470.077 -2.53862 2.77905 0
M  V30 5034 C 469.224 -1.31047 2.44381 0
M  V30 5035 H 472.175 -0.30473 1.55747 0
M  V30 5036 H 472.196 -2.8491 2.52203 0
M  V30 5037 H 471.708 -1.39335 3.62225 0
M  V30 5038 H 469.809 -3.18702 1.93029 0
M  V30 5039 H 469.922 -2.9231 3.79594 0
M  V30 5040 H 468.286 -1.62953 1.95751 0
M  V30 5041 H 469.069 -0.71637 3.35743 0
M  V30 5042 N 471.514 -1.37532 -0.769588 0
M  V30 5043 C 472.447 -1.27839 -1.8903 0
M  V30 5044 C 473.425 -0.158504 -1.61826 0
M  V30 5045 O 474.609 -0.333086 -1.85534 0
M  V30 5046 C 471.736 -0.977072 -3.24301 0
M  V30 5047 C 470.782 -2.11414 -3.70414 0
M  V30 5048 S 471.615 -3.73409 -3.83831 0
M  V30 5049 C 472.771 -3.45432 -5.21946 0
M  V30 5050 H 473.004 -2.22694 -1.96963 0
M  V30 5051 H 470.537 -1.2318 -0.930914 0
M  V30 5052 H 472.495 -0.810049 -4.02428 0
M  V30 5053 H 471.156 -0.0459701 -3.14066 0
M  V30 5054 H 470.349 -1.85837 -4.68488 0
M  V30 5055 H 469.951 -2.24141 -2.99394 0
M  V30 5056 H 472.243 -3.00554 -6.07185 0
M  V30 5057 H 473.186 -4.42841 -5.52537 0
M  V30 5058 H 473.594 -2.80311 -4.89986 0
M  V30 5059 N 472.992 0.995999 -1.22138 0
M  V30 5060 C 474.24 1.73167 -1.042 0
M  V30 5061 C 474.561 1.90329 0.42423 0
M  V30 5062 O 473.831 1.4607 1.30539 0
M  V30 5063 H 472.411 0.641593 -0.38258 0
M  V30 5064 H 475.073 1.19974 -1.53598 0
M  V30 5065 H 474.169 2.72734 -1.51731 0
M  V30 5066 N 474.47 1.03057 1.19235 0
M  V30 5067 C 475.716 0.729098 1.89241 0
M  V30 5068 C 476.049 -0.740573 1.79525 0
M  V30 5069 O 475.324 -1.53946 1.18874 0
M  V30 5070 C 475.607 1.18304 3.40112 0
M  V30 5071 C 475.46 2.71406 3.5869 0
M  V30 5072 C 476.779 0.765161 4.33397 0
M  V30 5073 H 473.898 0.266338 0.687192 0
M  V30 5074 H 476.54 1.28079 1.40341 0
M  V30 5075 H 474.69 0.713672 3.81889 0
M  V30 5076 H 476.362 3.26303 3.26074 0
M  V30 5077 H 474.605 3.11717 3.01687 0
M  V30 5078 H 475.276 2.98225 4.64506 0
M  V30 5079 H 477.752 1.16889 3.99345 0
M  V30 5080 H 476.628 1.11065 5.37546 0
M  V30 5081 H 476.889 -0.332372 4.40849 0
M  V30 5082 N 475.948 -1.35272 0.808662 0
M  V30 5083 C 477.195 -1.98709 0.390003 0
M  V30 5084 C 477.523 -1.64148 -1.04335 0
M  V30 5085 O 476.778 -0.897797 -1.73891 0
M  V30 5086 C 477.077 -3.53556 0.522798 0
M  V30 5087 C 476.743 -4.0799 1.91977 0
M  V30 5088 C 475.405 -4.22568 2.30195 0
M  V30 5089 C 477.757 -4.37442 2.83361 0
M  V30 5090 C 475.085 -4.63918 3.59162 0
M  V30 5091 C 477.437 -4.80232 4.11776 0
M  V30 5092 C 476.101 -4.93016 4.49991 0
M  V30 5093 H 475.371 -0.727127 0.142712 0
M  V30 5094 H 478.018 -1.6145 1.02985 0
M  V30 5095 H 476.323 -3.91287 -0.200494 0
M  V30 5096 H 478.02 -4.00598 0.179608 0
M  V30 5097 H 474.61 -3.97096 1.61284 0
M  V30 5098 H 478.794 -4.25731 2.55083 0
M  V30 5099 H 474.05 -4.72005 3.88615 0
M  V30 5100 H 478.224 -5.01982 4.82687 0
M  V30 5101 H 475.851 -5.24814 5.49976 0
M  V30 5102 N 477.426 -0.562348 -1.47226 0
M  V30 5103 C 478.336 0.185466 -2.33866 0
M  V30 5104 C 479.352 0.906713 -1.48508 0
M  V30 5105 O 480.528 0.874458 -1.81425 0
M  V30 5106 C 477.593 1.19904 -3.25306 0
M  V30 5107 C 476.654 0.484669 -4.26555 0
M  V30 5108 C 475.887 1.44996 -5.13626 0
M  V30 5109 O 476.11 2.68515 -5.03245 0
M  V30 5110 O 475.044 0.971642 -5.94006 0
M  V30 5111 H 478.87 -0.525361 -2.99121 0
M  V30 5112 H 476.455 -0.322916 -1.45868 0
M  V30 5113 H 478.337 1.78399 -3.81774 0
M  V30 5114 H 477.012 1.8917 -2.62672 0
M  V30 5115 H 475.919 -0.141605 -3.73832 0
M  V30 5116 H 477.252 -0.166634 -4.91918 0
M  V30 5117 N 478.904 1.54736 -0.299062 0
M  V30 5118 C 480.153 1.99279 0.311549 0
M  V30 5119 C 480.466 1.19107 1.55154 0
M  V30 5120 O 481.672 1.53908 2.23662 0
M  V30 5121 C 480.128 3.54768 0.605632 0
M  V30 5122 C 479.736 4.43746 -0.615914 0
M  V30 5123 C 481.48 4.07841 1.17754 0
M  V30 5124 C 479.387 5.90663 -0.29509 0
M  V30 5125 H 478.317 0.744359 0.120187 0
M  V30 5126 H 480.968 1.78919 -0.407464 0
M  V30 5127 H 479.35 3.71021 1.38419 0
M  V30 5128 H 480.524 4.39267 -1.39218 0
M  V30 5129 H 478.839 4.01434 -1.10633 0
M  V30 5130 H 481.436 5.15174 1.43179 0
M  V30 5131 H 481.779 3.58324 2.11918 0
M  V30 5132 H 482.312 3.95123 0.460739 0
M  V30 5133 H 479.051 6.44325 -1.20524 0
M  V30 5134 H 478.571 5.98155 0.44394 0
M  V30 5135 H 480.25 6.46916 0.104048 0
M  V30 5136 N 480.382 0.0267497 1.57577 0
M  V30 5137 C 481.659 -0.690926 1.82991 0
M  V30 5138 C 482.039 -1.90471 0.910164 0
M  V30 5139 O 481.387 -2.28474 -0.0347985 0
M  V30 5140 C 481.597 -1.07139 3.32148 0
M  V30 5141 C 482.945 -1.46402 3.98562 0
M  V30 5142 O 483.969 -1.16443 3.36629 0
M  V30 5143 O 482.828 -2.02214 5.07712 0
M  V30 5144 H 479.922 -0.338747 0.75444 0
M  V30 5145 H 482.468 0.0542506 1.69613 0
M  V30 5146 H 481.24 -0.207394 3.9075 0
M  V30 5147 H 480.863 -1.87481 3.50623 0
M  V30 5148 N 481.861 -1.55662 -0.24637 0
M  V30 5149 C 483.138 -1.68272 -0.997198 0
M  V30 5150 C 483.518 -0.566785 -2.03349 0
M  V30 5151 O 482.866 0.429688 -2.24424 0
M  V30 5152 C 483.076 -3.08594 -1.63006 0
M  V30 5153 C 484.424 -3.6721 -2.13171 0
M  V30 5154 O 485.448 -3.11397 -1.72946 0
M  V30 5155 O 484.307 -4.65054 -2.87031 0
M  V30 5156 H 481.401 -0.684429 -0.464205 0
M  V30 5157 H 483.947 -1.67993 -0.240114 0
M  V30 5158 H 482.719 -3.81264 -0.880527 0
M  V30 5159 H 482.342 -3.12886 -2.45333 0
M  V30 5160 N 483.339 0.512053 -1.4905 0
M  V30 5161 C 484.586 1.26686 -1.57978 0
M  V30 5162 C 484.914 1.92733 -0.261553 0
M  V30 5163 O 484.169 1.80772 0.749667 0
M  V30 5164 C 484.468 2.36446 -2.68008 0
M  V30 5165 C 484.134 1.87932 -4.09869 0
M  V30 5166 C 482.796 1.74419 -4.48477 0
M  V30 5167 C 485.148 1.5149 -4.98698 0
M  V30 5168 C 482.476 1.22827 -5.73699 0
M  V30 5169 C 484.828 1.01355 -6.24428 0
M  V30 5170 C 483.492 0.864735 -6.61875 0
M  V30 5171 H 482.762 0.463577 -0.578081 0
M  V30 5172 H 485.409 0.569421 -1.82838 0
M  V30 5173 H 483.714 3.11933 -2.37076 0
M  V30 5174 H 485.411 2.9453 -2.72127 0
M  V30 5175 H 482.001 1.99405 -3.79389 0
M  V30 5176 H 486.185 1.60782 -4.69535 0
M  V30 5177 H 481.441 1.10008 -6.01422 0
M  V30 5178 H 485.615 0.722351 -6.92644 0
M  V30 5179 H 483.242 0.462777 -7.5879 0
M  V30 5180 N 484.817 1.37938 0.762283 0
M  V30 5181 C 485.78 1.34279 1.85747 0
M  V30 5182 C 486.78 0.244969 1.58923 0
M  V30 5183 O 487.97 0.501365 1.66829 0
M  V30 5184 C 485.102 1.08833 3.23061 0
M  V30 5185 H 486.295 2.31705 1.90401 0
M  V30 5186 H 483.848 1.23105 0.963057 0
M  V30 5187 H 484.583 0.119767 3.24079 0
M  V30 5188 H 484.368 1.88306 3.43923 0
M  V30 5189 H 485.858 1.08946 4.03138 0
M  V30 5190 N 486.295 -0.989507 1.22664 0
M  V30 5191 C 487.205 -2.11449 1.01619 0
M  V30 5192 C 488.221 -1.73962 -0.036545 0
M  V30 5193 O 489.397 -2.00788 0.156924 0
M  V30 5194 C 486.462 -3.41465 0.600204 0
M  V30 5195 C 485.523 -3.93033 1.72695 0
M  V30 5196 C 484.756 -5.16844 1.33071 0
M  V30 5197 O 484.979 -5.7001 0.210975 0
M  V30 5198 O 483.913 -5.6225 2.14845 0
M  V30 5199 H 487.739 -2.32088 1.9588 0
M  V30 5200 H 485.324 -1.09823 1.01289 0
M  V30 5201 H 487.206 -4.19695 0.37873 0
M  V30 5202 H 485.881 -3.22178 -0.313511 0
M  V30 5203 H 484.788 -3.15961 2.00298 0
M  V30 5204 H 486.121 -4.16758 2.61865 0
M  V30 5205 N 487.773 -1.03688 -1.18687 0
M  V30 5206 C 489.021 -0.736572 -1.88199 0
M  V30 5207 C 489.342 0.737665 -1.80509 0
M  V30 5208 O 488.612 1.53204 -1.22088 0
M  V30 5209 H 487.192 -0.269466 -0.696704 0
M  V30 5210 H 489.854 -1.31282 -1.44052 0
M  V30 5211 H 488.95 -1.03802 -2.94332 0
M  V30 5212 N 489.251 1.34841 -0.815825 0
M  V30 5213 C 490.479 2.0273 -0.413294 0
M  V30 5214 C 490.894 1.61459 0.978599 0
M  V30 5215 O 490.251 0.816584 1.63212 0
M  V30 5216 C 490.302 3.58058 -0.497676 0
M  V30 5217 O 490.023 3.97832 -1.8347 0
M  V30 5218 C 491.524 4.4321 -0.0891339 0
M  V30 5219 H 488.744 0.649956 -0.166728 0
M  V30 5220 H 491.288 1.72267 -1.10201 0
M  V30 5221 H 489.443 3.87136 0.142886 0
M  V30 5222 H 489.857 4.92501 -1.80396 0
M  V30 5223 H 491.331 5.5164 -0.199274 0
M  V30 5224 H 491.808 4.28432 0.966571 0
M  V30 5225 H 492.414 4.19446 -0.703214 0
M  V30 5226 N 490.729 0.570148 1.46925 0
M  V30 5227 C 491.676 -0.170257 2.30171 0
M  V30 5228 C 492.646 -0.896099 1.39855 0
M  V30 5229 O 493.831 -0.889248 1.68811 0
M  V30 5230 C 490.971 -1.18605 3.24079 0
M  V30 5231 C 490.084 -0.464947 4.29491 0
M  V30 5232 C 489.219 -1.46716 5.10537 0
M  V30 5233 C 488.258 -0.731758 6.0771 0
M  V30 5234 N 487.395 -1.68142 6.81669 0
M  V30 5235 H 492.235 0.545713 2.92961 0
M  V30 5236 H 489.772 0.280938 1.44392 0
M  V30 5237 H 491.73 -1.78771 3.76957 0
M  V30 5238 H 490.36 -1.86989 2.63125 0
M  V30 5239 H 489.412 0.251506 3.79568 0
M  V30 5240 H 490.724 0.110548 4.98677 0
M  V30 5241 H 489.878 -2.14199 5.6763 0
M  V30 5242 H 488.617 -2.07658 4.41282 0
M  V30 5243 H 487.622 -0.0430787 5.49783 0
M  V30 5244 H 488.847 -0.127904 6.7898 0
M  V30 5245 H 486.793 -2.27918 6.15134 0
M  V30 5246 H 486.71 -1.15841 7.47072 0
M  V30 5247 H 487.978 -2.347 7.43328 0
M  V30 5248 N 492.207 -1.54576 0.307264 0
M  V30 5249 C 493.139 -2.21212 -0.599807 0
M  V30 5250 C 494.152 -1.20685 -1.09266 0
M  V30 5251 O 495.341 -1.47244 -1.00903 0
M  V30 5252 C 492.441 -2.84994 -1.83389 0
M  V30 5253 C 491.614 -4.11511 -1.48248 0
M  V30 5254 C 490.673 -4.59038 -2.57237 0
M  V30 5255 O 489.699 -5.24095 -2.22065 0
M  V30 5256 N 490.901 -4.31884 -3.87887 0
M  V30 5257 H 493.666 -2.99686 -0.0293075 0
M  V30 5258 H 491.227 -1.61379 0.129738 0
M  V30 5259 H 493.219 -3.1372 -2.5566 0
M  V30 5260 H 491.789 -2.10324 -2.31263 0
M  V30 5261 H 491.009 -3.89728 -0.592122 0
M  V30 5262 H 492.297 -4.93879 -1.22316 0
M  V30 5263 H 491.695 -3.79778 -4.19268 0
M  V30 5264 H 490.252 -4.65304 -4.56438 0
M  V30 5265 N 493.685 -0.035106 -1.57561 0
M  V30 5266 C 494.931 0.64318 -1.92331 0
M  V30 5267 C 495.264 1.71434 -0.912368 0
M  V30 5268 O 494.539 1.94395 0.0640303 0
M  V30 5269 C 494.822 1.25411 -3.37556 0
M  V30 5270 C 494.675 0.192109 -4.4939 0
M  V30 5271 C 495.994 2.17041 -3.82859 0
M  V30 5272 H 493.113 0.232341 -0.699419 0
M  V30 5273 H 495.755 -0.0935889 -1.89769 0
M  V30 5274 H 493.905 1.88205 -3.39869 0
M  V30 5275 H 495.577 -0.438849 -4.59208 0
M  V30 5276 H 493.82 -0.481725 -4.31117 0
M  V30 5277 H 494.491 0.659292 -5.48049 0
M  V30 5278 H 496.967 1.64228 -3.8232 0
M  V30 5279 H 495.843 2.56738 -4.85157 0
M  V30 5280 H 496.104 3.06401 -3.18702 0
M  V30 5281 N 495.163 1.55791 0.238111 0
M  V30 5282 C 496.126 1.90239 1.27835 0
M  V30 5283 C 497.126 0.779552 1.4064 0
M  V30 5284 O 498.316 1.04747 1.3919 0
M  V30 5285 C 495.448 2.13859 2.65475 0
M  V30 5286 H 496.641 2.83262 0.985034 0
M  V30 5287 H 494.194 1.48818 0.477799 0
M  V30 5288 H 494.929 1.23334 2.99932 0
M  V30 5289 H 494.714 2.95643 2.57561 0
M  V30 5290 H 496.204 2.41664 3.40571 0
M  V30 5291 N 496.642 -0.504142 1.49319 0
M  V30 5292 C 497.572 -1.61473 1.68667 0
M  V30 5293 C 498.553 -1.61455 0.535378 0
M  V30 5294 O 499.738 -1.78245 0.770868 0
M  V30 5295 C 496.868 -2.99971 1.75028 0
M  V30 5296 C 495.822 -3.14854 2.89916 0
M  V30 5297 C 495.148 -4.54671 2.81387 0
M  V30 5298 C 496.448 -2.95176 4.30893 0
M  V30 5299 H 498.142 -1.45535 2.61648 0
M  V30 5300 H 495.688 -0.698711 1.25913 0
M  V30 5301 H 497.641 -3.77562 1.8715 0
M  V30 5302 H 496.365 -3.1699 0.786441 0
M  V30 5303 H 495.024 -2.39687 2.77391 0
M  V30 5304 H 494.672 -4.68562 1.82917 0
M  V30 5305 H 494.372 -4.6557 3.58494 0
M  V30 5306 H 495.896 -5.34327 2.95512 0
M  V30 5307 H 497.31 -3.62538 4.44116 0
M  V30 5308 H 495.707 -3.17549 5.09198 0
M  V30 5309 H 496.777 -1.91332 4.45556 0
M  V30 5310 N 498.12 -1.38341 -0.754957 0
M  V30 5311 C 499.083 -1.35262 -1.85032 0
M  V30 5312 C 500.083 -0.253393 -1.58791 0
M  V30 5313 O 501.273 -0.510205 -1.66561 0
M  V30 5314 C 498.405 -1.10544 -3.22479 0
M  V30 5315 H 499.598 -2.32712 -1.8917 0
M  V30 5316 H 497.151 -1.23614 -0.956515 0
M  V30 5317 H 497.886 -0.136952 -3.24011 0
M  V30 5318 H 497.671 -1.90127 -3.4292 0
M  V30 5319 H 499.161 -1.11082 -4.02555 0
M  V30 5320 N 499.598 0.982988 -1.23187 0
M  V30 5321 C 500.847 1.71817 -1.05649 0
M  V30 5322 C 501.16 1.91315 0.407176 0
M  V30 5323 O 502.366 2.62256 0.702436 0
M  V30 5324 C 500.822 3.09188 -1.84203 0
M  V30 5325 C 500.43 2.97586 -3.34882 0
M  V30 5326 C 502.174 3.86684 -1.75146 0
M  V30 5327 C 500.081 4.30173 -4.05839 0
M  V30 5328 H 499.011 0.644258 -0.391724 0
M  V30 5329 H 501.662 1.09659 -1.4713 0
M  V30 5330 H 500.044 3.72087 -1.35527 0
M  V30 5331 H 501.218 2.43793 -3.91026 0
M  V30 5332 H 499.533 2.33567 -3.44725 0
M  V30 5333 H 502.13 4.84836 -2.25473 0
M  V30 5334 H 502.473 4.10136 -0.713737 0
M  V30 5335 H 503.006 3.30482 -2.21419 0
M  V30 5336 H 499.745 4.11918 -5.09906 0
M  V30 5337 H 499.265 4.83841 -3.54482 0
M  V30 5338 H 500.944 4.98873 -4.11989 0
M  V30 5339 N 501.076 1.04316 1.18135 0
M  V30 5340 C 502.039 0.640794 2.2006 0
M  V30 5341 C 503.039 -0.303124 1.57917 0
M  V30 5342 O 504.229 -0.0881855 1.73977 0
M  V30 5343 C 501.361 -0.060148 3.40847 0
M  V30 5344 H 502.554 1.54281 2.57172 0
M  V30 5345 H 500.107 0.836004 1.32063 0
M  V30 5346 H 500.842 -0.975845 3.0927 0
M  V30 5347 H 500.627 0.618319 3.87194 0
M  V30 5348 H 502.117 -0.328082 4.16309 0
M  V30 5349 N 502.554 -1.34406 0.822964 0
M  V30 5350 C 503.517 -2.2783 0.250271 0
M  V30 5351 C 504.517 -1.50288 -0.571854 0
M  V30 5352 O 505.707 -1.69825 -0.387952 0
M  V30 5353 C 502.839 -3.34663 -0.649137 0
M  V30 5354 H 504.032 -2.79992 1.07444 0
M  V30 5355 H 501.585 -1.44539 0.594829 0
M  V30 5356 H 502.32 -2.87714 -1.49637 0
M  V30 5357 H 502.105 -3.92052 -0.0611199 0
M  V30 5358 H 503.595 -4.04349 -1.04363 0
M  V30 5359 N 504.032 -0.577932 -1.46621 0
M  V30 5360 C 504.962 0.145917 -2.33044 0
M  V30 5361 C 505.943 0.888412 -1.45056 0
M  V30 5362 O 507.128 0.864812 -1.73881 0
M  V30 5363 C 504.258 1.16322 -3.27241 0
M  V30 5364 C 503.212 0.535868 -4.24632 0
M  V30 5365 C 502.538 1.65929 -5.08303 0
M  V30 5366 C 503.838 -0.523861 -5.19666 0
M  V30 5367 H 505.532 -0.575636 -2.93814 0
M  V30 5368 H 503.078 -0.278272 -1.41286 0
M  V30 5369 H 505.031 1.67793 -3.86553 0
M  V30 5370 H 503.755 1.91498 -2.64567 0
M  V30 5371 H 502.414 0.0422759 -3.66576 0
M  V30 5372 H 502.062 2.40061 -4.42018 0
M  V30 5373 H 501.762 1.2452 -5.74255 0
M  V30 5374 H 503.286 2.17686 -5.70478 0
M  V30 5375 H 504.7 -0.0944059 -5.73222 0
M  V30 5376 H 503.097 -0.858 -5.93935 0
M  V30 5377 H 504.167 -1.41197 -4.63887 0
M  V30 5378 N 505.51 1.54411 -0.315457 0
M  V30 5379 C 506.738 2.04833 0.291738 0
M  V30 5380 C 507.153 1.19203 1.46411 0
M  V30 5381 O 506.51 0.220867 1.81159 0
M  V30 5382 C 506.561 3.53969 0.73404 0
M  V30 5383 O 506.282 4.36346 -0.391682 0
M  V30 5384 C 507.783 4.2045 1.40489 0
M  V30 5385 H 505.003 0.668195 0.0612947 0
M  V30 5386 H 507.547 1.99276 -0.45929 0
M  V30 5387 H 505.702 3.5984 1.43506 0
M  V30 5388 H 506.116 5.24481 -0.0447088 0
M  V30 5389 H 507.59 5.26278 1.66539 0
M  V30 5390 H 508.067 3.71067 2.3496 0
M  V30 5391 H 508.673 4.18694 0.746662 0
M  V30 5392 N 506.988 0.0434614 1.5754 0
M  V30 5393 C 507.898 -0.94893 2.14552 0
M  V30 5394 C 508.914 -1.34707 1.10136 0
M  V30 5395 O 510.09 -1.42557 1.42266 0
M  V30 5396 C 507.155 -2.208 2.67298 0
M  V30 5397 C 506.216 -1.86893 3.86484 0
M  V30 5398 C 505.449 -3.06797 4.36705 0
M  V30 5399 O 505.672 -4.19921 3.86034 0
M  V30 5400 O 504.606 -2.8826 5.28384 0
M  V30 5401 H 508.432 -0.494099 2.99654 0
M  V30 5402 H 506.017 -0.177989 1.48336 0
M  V30 5403 H 507.899 -2.94686 3.01228 0
M  V30 5404 H 506.574 -2.65436 1.85272 0
M  V30 5405 H 505.481 -1.10347 3.57455 0
M  V30 5406 H 506.814 -1.47062 4.69716 0
M  V30 5407 N 508.466 -1.55915 -0.229846 0
M  V30 5408 C 509.413 -1.91734 -1.28478 0
M  V30 5409 C 510.383 -0.773539 -1.46988 0
M  V30 5410 O 511.568 -1.02871 -1.60693 0
M  V30 5411 C 508.708 -2.23224 -2.63182 0
M  V30 5412 C 507.821 -3.50497 -2.52539 0
M  V30 5413 C 506.956 -3.71474 -3.79711 0
M  V30 5414 C 505.995 -4.92289 -3.63755 0
M  V30 5415 N 505.132 -5.09698 -4.82858 0
M  V30 5416 H 509.972 -2.81692 -0.972308 0
M  V30 5417 H 507.509 -1.39429 -0.468815 0
M  V30 5418 H 509.467 -2.3949 -3.41614 0
M  V30 5419 H 508.097 -1.36451 -2.92542 0
M  V30 5420 H 507.149 -3.4247 -1.65585 0
M  V30 5421 H 508.461 -4.39079 -2.36666 0
M  V30 5422 H 507.615 -3.87791 -4.66586 0
M  V30 5423 H 506.354 -2.81157 -3.985 0
M  V30 5424 H 505.359 -4.7593 -2.75264 0
M  V30 5425 H 506.584 -5.84083 -3.46445 0
M  V30 5426 H 504.53 -4.22322 -5.01976 0
M  V30 5427 H 504.447 -5.92399 -4.69681 0
M  V30 5428 H 505.715 -5.30443 -5.71183 0
M  V30 5429 N 509.944 0.496216 -1.49584 0
M  V30 5430 C 511.192 1.24756 -1.58998 0
M  V30 5431 C 511.513 1.92968 -0.280775 0
M  V30 5432 O 510.783 1.82959 0.700198 0
M  V30 5433 H 509.363 0.463471 -0.585836 0
M  V30 5434 H 512.025 0.574678 -1.86235 0
M  V30 5435 H 511.121 2.00895 -2.38847 0
M  V30 5436 N 511.423 1.38739 0.74761 0
M  V30 5437 C 512.386 1.36241 1.84312 0
M  V30 5438 C 513.386 0.261811 1.58654 0
M  V30 5439 O 514.576 0.519031 1.66288 0
M  V30 5440 C 511.708 1.12253 3.21888 0
M  V30 5441 H 512.901 2.33712 1.87933 0
M  V30 5442 H 510.454 1.2412 0.949946 0
M  V30 5443 H 511.189 0.154133 3.23934 0
M  V30 5444 H 510.974 1.91943 3.41907 0
M  V30 5445 H 512.464 1.13215 4.0196 0
M  V30 5446 N 512.901 -0.976442 1.23707 0
M  V30 5447 C 514.15 -1.71254 1.06559 0
M  V30 5448 C 514.463 -1.91528 -0.397024 0
M  V30 5449 O 515.669 -2.62625 -0.688518 0
M  V30 5450 C 514.125 -3.08207 1.8584 0
M  V30 5451 C 513.733 -2.95806 3.36456 0
M  V30 5452 C 515.477 -3.85749 1.77194 0
M  V30 5453 C 513.384 -4.28015 4.08114 0
M  V30 5454 H 512.314 -0.642171 0.395136 0
M  V30 5455 H 514.965 -1.08877 1.4771 0
M  V30 5456 H 513.347 -3.71363 1.37498 0
M  V30 5457 H 514.521 -2.41716 3.92314 0
M  V30 5458 H 512.836 -2.31736 3.45959 0
M  V30 5459 H 515.433 -4.83633 2.28041 0
M  V30 5460 H 515.776 -4.09752 0.735477 0
M  V30 5461 H 516.309 -3.29303 2.23169 0
M  V30 5462 H 513.048 -4.09208 5.12083 0
M  V30 5463 H 512.568 -4.81955 3.57043 0
M  V30 5464 H 514.247 -4.96681 4.14629 0
M  V30 5465 N 514.379 -1.04941 -1.1758 0
M  V30 5466 C 515.607 -0.778294 -1.91703 0
M  V30 5467 C 516.022 0.665697 -1.76675 0
M  V30 5468 O 515.379 1.45456 -1.10222 0
M  V30 5469 C 515.43 -1.14628 -3.42845 0
M  V30 5470 O 515.151 -2.53359 -3.57409 0
M  V30 5471 C 516.652 -0.900931 -4.34049 0
M  V30 5472 H 513.872 -0.283167 -0.608323 0
M  V30 5473 H 516.416 -1.39942 -1.49119 0
M  V30 5474 H 514.571 -0.569953 -3.83184 0
M  V30 5475 H 514.985 -2.67709 -4.51035 0
M  V30 5476 H 516.459 -1.20817 -5.38616 0
M  V30 5477 H 516.936 0.163966 -4.38894 0
M  V30 5478 H 517.542 -1.46097 -3.99419 0
M  V30 5479 N 515.857 1.33968 -0.830081 0
M  V30 5480 C 517.103 1.98357 -0.422191 0
M  V30 5481 C 517.436 1.65633 1.01387 0
M  V30 5482 O 516.711 0.931648 1.70735 0
M  V30 5483 C 516.994 3.54492 -0.633043 0
M  V30 5484 C 516.847 3.96934 -2.11574 0
M  V30 5485 C 518.166 4.40039 -0.0735584 0
M  V30 5486 H 515.285 0.720544 -0.154871 0
M  V30 5487 H 517.927 1.58749 -1.04397 0
M  V30 5488 H 516.077 3.88361 -0.103775 0
M  V30 5489 H 517.749 3.73363 -2.7092 0
M  V30 5490 H 515.992 3.46984 -2.60354 0
M  V30 5491 H 516.663 5.05651 -2.21406 0
M  V30 5492 H 519.139 4.12764 -0.52585 0
M  V30 5493 H 518.015 5.48327 -0.250841 0
M  V30 5494 H 518.276 4.30124 1.02202 0
M  V30 5495 N 517.335 0.585699 1.46312 0
M  V30 5496 C 518.581 0.0725284 2.0267 0
M  V30 5497 C 518.914 -1.28523 1.45586 0
M  V30 5498 O 518.189 -1.84283 0.622101 0
M  V30 5499 C 518.472 0.0099788 3.60099 0
M  V30 5500 C 518.325 1.39685 4.27561 0
M  V30 5501 C 519.644 -0.689117 4.34671 0
M  V30 5502 H 516.763 0.0278307 0.736474 0
M  V30 5503 H 519.405 0.753472 1.74421 0
M  V30 5504 H 517.555 -0.56992 3.84297 0
M  V30 5505 H 519.227 2.02215 4.14617 0
M  V30 5506 H 517.47 1.96374 3.86807 0
M  V30 5507 H 518.141 1.30553 5.36339 0
M  V30 5508 H 520.617 -0.196446 4.15636 0
M  V30 5509 H 519.493 -0.701921 5.44393 0
M  V30 5510 H 519.754 -1.75101 4.05946 0
M  V30 5511 N 518.813 -1.54241 0.323641 0
M  V30 5512 C 520.061 -2.00174 -0.278359 0
M  V30 5513 C 520.382 -1.2134 -1.52648 0
M  V30 5514 O 519.652 -0.315244 -1.93347 0
M  V30 5515 H 518.232 -0.739463 -0.105845 0
M  V30 5516 H 520.894 -1.89864 0.440204 0
M  V30 5517 H 519.99 -3.07486 -0.5347 0
M  V30 5518 N 520.291 -0.0518155 -1.57515 0
M  V30 5519 C 521.539 0.620595 -1.92336 0
M  V30 5520 C 521.86 1.71345 -0.930907 0
M  V30 5521 O 521.13 1.95885 0.0241341 0
M  V30 5522 H 519.71 0.232226 -0.709986 0
M  V30 5523 H 522.372 -0.104969 -1.94617 0
M  V30 5524 H 521.468 1.05879 -2.93592 0
M  V30 5525 N 521.769 1.56035 0.221574 0
M  V30 5526 C 523.017 1.78693 0.944102 0
M  V30 5527 C 523.338 0.620317 1.8487 0
M  V30 5528 O 522.608 -0.362784 1.92512 0
M  V30 5529 H 521.188 0.659082 0.351597 0
M  V30 5530 H 523.85 1.93497 0.233435 0
M  V30 5531 H 522.946 2.70837 1.55093 0
M  V30 5532 N 523.247 -0.488276 1.49845 0
M  V30 5533 C 524.524 -1.24959 1.50481 0
M  V30 5534 C 524.904 -2.09735 0.239698 0
M  V30 5535 O 524.252 -2.14865 -0.777524 0
M  V30 5536 C 524.462 -2.0954 2.79095 0
M  V30 5537 C 525.81 -2.68305 3.29086 0
M  V30 5538 O 526.834 -2.19797 2.80299 0
M  V30 5539 O 525.693 -3.56643 4.14087 0
M  V30 5540 H 522.787 -0.566133 0.602845 0
M  V30 5541 H 525.333 -0.501504 1.6212 0
M  V30 5542 H 524.105 -1.46958 3.62656 0
M  V30 5543 H 523.728 -2.91517 2.70377 0
M  V30 5544 N 524.725 -1.39134 -0.740242 0
M  V30 5545 C 525.95 -1.39518 -1.53459 0
M  V30 5546 C 526.375 0.00968883 -1.88098 0
M  V30 5547 O 525.733 0.995312 -1.51536 0
M  V30 5548 C 525.781 -2.26981 -2.802 0
M  V30 5549 O 524.885 -1.69609 -3.75908 0
M  V30 5550 H 524.226 -0.475328 -0.463637 0
M  V30 5551 H 526.756 -1.83064 -0.913717 0
M  V30 5552 H 526.766 -2.41309 -3.28989 0
M  V30 5553 H 525.441 -3.29081 -2.5432 0
M  V30 5554 H 524.018 -1.64495 -3.34658 0
M  V30 5555 N 526.204 0.969867 -1.24223 0
M  V30 5556 C 527.167 2.04564 -1.03373 0
M  V30 5557 C 528.167 1.60798 0.00819206 0
M  V30 5558 O 529.357 1.72641 -0.232567 0
M  V30 5559 C 526.489 3.36163 -0.566343 0
M  V30 5560 H 527.682 2.24494 -1.98853 0
M  V30 5561 H 525.235 1.1448 -1.06415 0
M  V30 5562 H 525.97 3.21925 0.391751 0
M  V30 5563 H 525.755 3.69273 -1.31834 0
M  V30 5564 H 527.245 4.1526 -0.441435 0
M  V30 5565 N 527.682 1.05563 1.17022 0
M  V30 5566 C 528.645 0.664098 2.19368 0
M  V30 5567 C 529.645 -0.286358 1.5823 0
M  V30 5568 O 530.835 -0.069728 1.7406 0
M  V30 5569 C 527.967 -0.0239932 3.40892 0
M  V30 5570 H 529.16 1.57 2.55521 0
M  V30 5571 H 526.713 0.849964 1.31169 0
M  V30 5572 H 527.448 -0.942988 3.10287 0
M  V30 5573 H 527.233 0.659351 3.86516 0
M  V30 5574 H 528.723 -0.283909 4.16634 0
M  V30 5575 N 529.16 -1.33526 0.837174 0
M  V30 5576 C 530.123 -2.27551 0.274421 0
M  V30 5577 C 531.123 -1.50886 -0.555881 0
M  V30 5578 O 532.313 -1.70227 -0.369918 0
M  V30 5579 C 529.445 -3.35332 -0.613605 0
M  V30 5580 H 530.638 -2.78837 1.10408 0
M  V30 5581 H 528.191 -1.439 0.610126 0
M  V30 5582 H 528.926 -2.89285 -1.46577 0
M  V30 5583 H 528.711 -3.92095 -0.0195341 0
M  V30 5584 H 530.201 -4.05433 -1.00068 0
M  V30 5585 N 530.638 -0.59345 -1.46 0
M  V30 5586 C 531.884 -0.0832754 -2.02629 0
M  V30 5587 C 532.217 1.27749 -1.46266 0
M  V30 5588 O 531.492 1.8395 -0.631866 0
M  V30 5589 C 531.775 -0.0290756 -3.60088 0
M  V30 5590 C 531.628 -1.41951 -4.26814 0
M  V30 5591 C 532.947 0.666055 -4.35031 0
M  V30 5592 H 530.066 -0.031736 -0.736316 0
M  V30 5593 H 532.708 -0.762711 -1.74019 0
M  V30 5594 H 530.858 0.549532 -3.84594 0
M  V30 5595 H 532.53 -2.04411 -4.13538 0
M  V30 5596 H 530.773 -1.98422 -3.8576 0
M  V30 5597 H 531.444 -1.33395 -5.3564 0
M  V30 5598 H 533.92 0.174401 -4.15734 0
M  V30 5599 H 532.796 0.673041 -5.44758 0
M  V30 5600 H 533.057 1.72946 -4.06869 0
M  V30 5601 N 532.116 1.54067 -0.331816 0
M  V30 5602 C 533.064 2.26105 0.54582 0
M  V30 5603 C 534.058 1.27816 1.11173 0
M  V30 5604 O 535.264 1.45565 1.05882 0
M  V30 5605 H 531.639 0.726363 0.194683 0
M  V30 5606 H 533.61 2.98282 -0.083931 0
M  V30 5607 C 532.359 3.03814 1.69092 0
M  V30 5608 H 531.682 3.79269 1.26473 0
M  V30 5609 H 533.122 3.57453 2.28043 0
M  V30 5610 C 531.581 2.12606 2.61343 0
M  V30 5611 O 532.111 1.71437 3.6328 0
M  V30 5612 N 530.317 1.77925 2.29763 0
M  V30 5613 H 529.864 2.11602 1.46909 0
M  V30 5614 H 529.822 1.1718 2.91747 0
M  V30 5615 N 533.594 0.0601682 1.57485 0
M  V30 5616 C 534.541 -0.91112 2.12055 0
M  V30 5617 C 535.511 -1.30298 1.03013 0
M  V30 5618 O 536.696 -1.39087 1.30612 0
M  V30 5619 C 533.836 -2.1775 2.67729 0
M  V30 5620 C 532.949 -1.83933 3.90887 0
M  V30 5621 C 532.084 -3.05096 4.34845 0
M  V30 5622 C 531.123 -2.67241 5.5068 0
M  V30 5623 N 530.26 -3.81127 5.8965 0
M  V30 5624 H 535.1 -0.43888 2.9475 0
M  V30 5625 H 532.637 -0.204995 1.45665 0
M  V30 5626 H 534.595 -2.91866 2.98111 0
M  V30 5627 H 533.225 -2.62535 1.87816 0
M  V30 5628 H 532.277 -0.999287 3.6704 0
M  V30 5629 H 533.589 -1.52074 4.75052 0
M  V30 5630 H 532.743 -3.87502 4.66827 0
M  V30 5631 H 531.482 -3.40139 3.49509 0
M  V30 5632 H 530.487 -1.83254 5.18361 0
M  V30 5633 H 531.712 -2.3338 6.37738 0
M  V30 5634 H 529.658 -4.15954 5.07266 0
M  V30 5635 H 529.575 -3.52997 6.68528 0
M  V30 5636 H 530.843 -4.64145 6.2625 0
M  V30 5637 N 535.072 -1.5615 -0.213296 0
M  V30 5638 C 536.319 -1.79546 -0.936462 0
M  V30 5639 C 536.647 -0.630337 -1.84003 0
M  V30 5640 O 535.902 0.384883 -1.91878 0
M  V30 5641 C 536.201 -3.08772 -1.79985 0
M  V30 5642 C 535.867 -4.38532 -1.04882 0
M  V30 5643 C 534.529 -4.73787 -0.841393 0
M  V30 5644 C 536.881 -5.18609 -0.51907 0
M  V30 5645 C 534.209 -5.86627 -0.0924403 0
M  V30 5646 C 536.561 -6.32229 0.216581 0
M  V30 5647 C 535.225 -6.6608 0.435191 0
M  V30 5648 H 534.495 -0.657004 -0.342676 0
M  V30 5649 H 537.142 -1.9041 -0.204051 0
M  V30 5650 H 535.447 -2.93065 -2.60038 0
M  V30 5651 H 537.144 -3.24077 -2.36168 0
M  V30 5652 H 533.734 -4.10855 -1.22048 0
M  V30 5653 H 537.918 -4.91801 -0.666775 0
M  V30 5654 H 533.174 -6.11338 0.087081 0
M  V30 5655 H 537.348 -6.93503 0.634538 0
M  V30 5656 H 534.975 -7.5336 1.01746 0
M  V30 5657 N 536.55 0.480323 -1.50102 0
M  V30 5658 C 537.798 1.23063 -1.60312 0
M  V30 5659 C 538.119 1.92659 -0.301226 0
M  V30 5660 O 537.389 1.83691 0.680753 0
M  V30 5661 H 535.969 0.457231 -0.590719 0
M  V30 5662 H 538.631 0.554893 -1.86834 0
M  V30 5663 H 537.727 1.9835 -2.40964 0
M  V30 5664 N 538.028 1.39524 0.732853 0
M  V30 5665 C 538.958 1.41153 1.86005 0
M  V30 5666 C 539.939 0.274614 1.67869 0
M  V30 5667 O 541.124 0.480745 1.88155 0
M  V30 5668 C 538.254 1.25638 3.23778 0
M  V30 5669 C 537.208 2.36752 3.56556 0
M  V30 5670 C 536.534 2.06326 4.93289 0
M  V30 5671 C 537.834 3.79069 3.5931 0
M  V30 5672 H 539.528 2.35484 1.84899 0
M  V30 5673 H 537.074 1.13348 0.888162 0
M  V30 5674 H 539.027 1.25398 4.0231 0
M  V30 5675 H 537.751 0.277772 3.25417 0
M  V30 5676 H 536.41 2.36213 2.80355 0
M  V30 5677 H 536.058 1.06897 4.9151 0
M  V30 5678 H 535.758 2.80757 5.16187 0
M  V30 5679 H 537.282 2.07739 5.74175 0
M  V30 5680 H 538.696 3.81526 4.27914 0
M  V30 5681 H 537.093 4.52878 3.93728 0
M  V30 5682 H 538.163 4.09893 2.59068 0
M  V30 5683 N 539.506 -0.963266 1.24736 0
M  V30 5684 C 540.416 -2.09246 1.06082 0
M  V30 5685 C 541.432 -1.74 0.000363101 0
M  V30 5686 O 542.608 -2.0041 0.199479 0
M  V30 5687 C 539.673 -3.40115 0.672498 0
M  V30 5688 C 538.734 -3.89282 1.80993 0
M  V30 5689 C 537.967 -5.13905 1.44004 0
M  V30 5690 O 538.19 -5.69434 0.331835 0
M  V30 5691 O 537.124 -5.57566 2.26723 0
M  V30 5692 H 540.95 -2.27881 2.00759 0
M  V30 5693 H 538.535 -1.07649 1.03595 0
M  V30 5694 H 540.417 -4.18797 0.467668 0
M  V30 5695 H 539.092 -3.22771 -0.245102 0
M  V30 5696 H 537.999 -3.11642 2.06955 0
M  V30 5697 H 539.332 -4.1111 2.70646 0
M  V30 5698 N 540.985 -1.06182 -1.16461 0
M  V30 5699 C 542.262 -0.691364 -1.82974 0
M  V30 5700 C 542.642 0.827377 -1.9421 0
M  V30 5701 O 541.99 1.73723 -1.48434 0
M  V30 5702 C 542.2 -1.39199 -3.20038 0
M  V30 5703 C 543.548 -1.53647 -3.95825 0
M  V30 5704 O 544.572 -1.35181 -3.29552 0
M  V30 5705 O 543.431 -1.83932 -5.14618 0
M  V30 5706 H 540.525 -0.244605 -0.789998 0
M  V30 5707 H 543.071 -1.16203 -1.23673 0
M  V30 5708 H 541.843 -2.42766 -3.06888 0
M  V30 5709 H 541.466 -0.911335 -3.87015 0
M  V30 5710 N 542.463 1.3308 -0.844243 0
M  V30 5711 C 543.41 2.29104 -0.279323 0
M  V30 5712 C 544.38 1.54577 0.607882 0
M  V30 5713 O 545.565 1.8285 0.545009 0
M  V30 5714 C 542.705 3.40927 0.53508 0
M  V30 5715 C 541.818 4.30354 -0.376749 0
M  V30 5716 C 540.953 5.29297 0.449276 0
M  V30 5717 C 539.992 6.10365 -0.460606 0
M  V30 5718 N 539.129 7.01335 0.327612 0
M  V30 5719 H 543.969 2.76817 -1.10346 0
M  V30 5720 H 541.506 1.36203 -0.555611 0
M  V30 5721 H 543.464 4.04469 1.02278 0
M  V30 5722 H 542.094 2.94391 1.32414 0
M  V30 5723 H 541.146 3.67485 -0.982791 0
M  V30 5724 H 542.458 4.87067 -1.07549 0
M  V30 5725 H 541.612 5.98392 1.00058 0
M  V30 5726 H 540.351 4.73174 1.18143 0
M  V30 5727 H 539.356 5.40182 -1.02388 0
M  V30 5728 H 540.581 6.68571 -1.1912 0
M  V30 5729 H 538.527 6.47655 1.04305 0
M  V30 5730 H 538.444 7.55355 -0.3123 0
M  V30 5731 H 539.712 7.74731 0.86098 0
M  V30 5732 N 543.941 0.601185 1.45683 0
M  V30 5733 C 545.188 0.0938811 2.02282 0
M  V30 5734 C 545.516 -1.27315 1.47041 0
M  V30 5735 O 544.771 -1.85193 0.632623 0
M  V30 5736 C 545.07 -0.00222425 3.574 0
M  V30 5737 C 544.736 1.29963 4.31764 0
M  V30 5738 C 543.398 1.65625 4.51798 0
M  V30 5739 C 545.75 2.1603 4.74321 0
M  V30 5740 C 543.078 2.87119 5.11644 0
M  V30 5741 C 545.43 3.36766 5.3551 0
M  V30 5742 C 544.094 3.72689 5.53768 0
M  V30 5743 H 543.364 0.0343535 0.740203 0
M  V30 5744 H 546.011 0.781522 1.74827 0
M  V30 5745 H 544.316 -0.773096 3.84097 0
M  V30 5746 H 546.013 -0.410794 3.9889 0
M  V30 5747 H 542.603 1.01204 4.1648 0
M  V30 5748 H 546.787 1.89778 4.58582 0
M  V30 5749 H 542.043 3.15065 5.2397 0
M  V30 5750 H 546.217 4.03713 5.67441 0
M  V30 5751 H 543.844 4.66918 5.99909 0
M  V30 5752 N 545.419 -1.53889 0.339982 0
M  V30 5753 C 546.644 -2.05741 -0.261798 0
M  V30 5754 C 547.069 -1.21354 -1.43718 0
M  V30 5755 O 546.427 -0.22645 -1.7988 0
M  V30 5756 C 546.475 -3.54542 -0.658228 0
M  V30 5757 O 545.579 -3.7302 -1.75869 0
M  V30 5758 H 544.92 -0.662529 -0.0441672 0
M  V30 5759 H 547.45 -1.98568 0.493161 0
M  V30 5760 H 547.46 -3.9711 -0.936368 0
M  V30 5761 H 546.135 -4.15412 0.201358 0
M  V30 5762 H 544.712 -3.42355 -1.47809 0
M  V30 5763 N 546.897 -0.0685191 -1.57451 0
M  V30 5764 C 547.847 0.909895 -2.09057 0
M  V30 5765 C 548.831 1.26088 -0.999528 0
M  V30 5766 O 550.023 1.24041 -1.26265 0
M  V30 5767 C 547.152 2.17863 -2.65312 0
M  V30 5768 C 546.238 1.85427 -3.81415 0
M  V30 5769 N 546.629 1.23426 -4.9051 0
M  V30 5770 C 544.927 2.15196 -3.90649 0
M  V30 5771 C 545.628 1.09008 -5.71395 0
M  V30 5772 N 544.604 1.59871 -5.1956 0
M  V30 5773 H 548.406 0.426145 -2.90794 0
M  V30 5774 H 545.92 0.135462 -1.61834 0
M  V30 5775 H 547.917 2.88872 -3.00597 0
M  V30 5776 H 546.577 2.66829 -1.85021 0
M  V30 5777 H 547.588 0.904305 -5.09944 0
M  V30 5778 H 544.265 2.66562 -3.21327 0
M  V30 5779 H 545.655 0.607305 -6.6915 0
M  V30 5780 N 548.375 1.56261 0.205012 0
M  V30 5781 C 549.621 1.80306 0.9283 0
M  V30 5782 C 549.954 0.640932 1.83319 0
M  V30 5783 O 549.229 -0.359032 1.91158 0
M  V30 5784 C 549.512 3.14547 1.75306 0
M  V30 5785 C 549.365 4.41236 0.873562 0
M  V30 5786 C 550.684 3.45382 2.72762 0
M  V30 5787 H 547.803 0.655929 0.336044 0
M  V30 5788 H 550.445 1.88984 0.196211 0
M  V30 5789 H 548.595 3.0728 2.37721 0
M  V30 5790 H 550.267 4.60539 0.264887 0
M  V30 5791 H 548.51 4.33427 0.179773 0
M  V30 5792 H 549.181 5.31639 1.48541 0
M  V30 5793 H 551.657 3.52884 2.20481 0
M  V30 5794 H 550.533 4.40449 3.2756 0
M  V30 5795 H 550.794 2.68377 3.51321 0
M  V30 5796 N 549.853 -0.472356 1.50355 0
M  V30 5797 C 551.078 -1.25251 1.65309 0
M  V30 5798 C 551.503 -1.85081 0.335643 0
M  V30 5799 O 550.861 -1.67227 -0.700335 0
M  V30 5800 C 550.909 -2.3379 2.74544 0
M  V30 5801 O 550.013 -3.38401 2.35709 0
M  V30 5802 H 549.354 -0.368539 0.552336 0
M  V30 5803 H 551.884 -0.562271 1.96722 0
M  V30 5804 H 551.894 -2.79121 2.97583 0
M  V30 5805 H 550.569 -1.89614 3.70161 0
M  V30 5806 H 549.146 -2.9879 2.23112 0
M  V30 5807 N 551.331 -1.39911 -0.725443 0
M  V30 5808 C 552.559 -1.40949 -1.51463 0
M  V30 5809 C 552.974 -0.0065242 -1.88799 0
M  V30 5810 O 552.331 0.967163 -1.54765 0
M  V30 5811 C 552.382 -2.29119 -2.79619 0
M  V30 5812 O 552.103 -3.63952 -2.43866 0
M  V30 5813 C 553.604 -2.38642 -3.73584 0
M  V30 5814 H 550.824 -0.481091 -0.467752 0
M  V30 5815 H 553.368 -1.83843 -0.895651 0
M  V30 5816 H 551.523 -1.89612 -3.37826 0
M  V30 5817 H 551.937 -4.10677 -3.26258 0
M  V30 5818 H 553.411 -3.04563 -4.60375 0
M  V30 5819 H 553.888 -1.40846 -4.16004 0
M  V30 5820 H 554.494 -2.78659 -3.21293 0
M  V30 5821 N 552.809 0.956637 -1.25245 0
M  V30 5822 C 554.057 1.69764 -1.09657 0
M  V30 5823 C 554.378 1.91583 0.363464 0
M  V30 5824 O 553.648 1.50149 1.25825 0
M  V30 5825 H 552.228 0.629097 -0.402798 0
M  V30 5826 H 554.89 1.15026 -1.57337 0
M  V30 5827 H 553.986 2.67769 -1.60331 0
M  V30 5828 N 554.287 1.06798 1.15896 0
M  V30 5829 C 555.535 0.786211 1.8618 0
M  V30 5830 C 555.856 -0.689547 1.82401 0
M  V30 5831 O 555.126 -1.49913 1.26107 0
M  V30 5832 H 553.706 0.287843 0.689315 0
M  V30 5833 H 556.368 1.35055 1.40521 0
M  V30 5834 H 555.464 1.1157 2.91477 0
M  V30 5835 N 555.766 -1.3263 0.851289 0
M  V30 5836 C 557.014 -1.96978 0.452128 0
M  V30 5837 C 557.335 -1.67715 -0.99482 0
M  V30 5838 O 556.605 -0.98259 -1.69476 0
M  V30 5839 H 555.185 -0.72873 0.164202 0
M  V30 5840 H 557.847 -1.61774 1.08698 0
M  V30 5841 H 556.943 -3.06387 0.594407 0
M  V30 5842 N 557.244 -0.608902 -1.45362 0
M  V30 5843 C 558.207 0.0992563 -2.28985 0
M  V30 5844 C 559.207 0.793841 -1.39838 0
M  V30 5845 O 560.397 0.641804 -1.61946 0
M  V30 5846 C 557.529 1.15073 -3.20891 0
M  V30 5847 H 558.722 -0.635964 -2.93079 0
M  V30 5848 H 556.275 -0.368007 -1.51906 0
M  V30 5849 H 557.01 1.91667 -2.616 0
M  V30 5850 H 556.795 0.656867 -3.86559 0
M  V30 5851 H 558.285 1.64665 -3.83765 0
M  V30 5852 N 558.722 1.53707 -0.348139 0
M  V30 5853 C 559.947 2.05877 0.250883 0
M  V30 5854 C 560.372 1.22115 1.43072 0
M  V30 5855 O 559.73 0.235986 1.79758 0
M  V30 5856 C 559.778 3.54886 0.639416 0
M  V30 5857 O 558.882 3.73948 1.73888 0
M  V30 5858 H 558.223 0.662754 0.040653 0
M  V30 5859 H 560.753 1.98303 -0.503685 0
M  V30 5860 H 560.763 3.97601 0.915295 0
M  V30 5861 H 559.438 4.153 -0.223386 0
M  V30 5862 H 558.015 3.43134 1.45991 0
M  V30 5863 N 560.2 0.0768682 1.57412 0
M  V30 5864 C 561.13 -0.886026 2.16037 0
M  V30 5865 C 562.111 -1.30691 1.08876 0
M  V30 5866 O 563.296 -1.37705 1.36934 0
M  V30 5867 C 560.426 -2.1518 2.72608 0
M  V30 5868 C 559.38 -1.87015 3.8498 0
M  V30 5869 C 558.706 -3.20266 4.28175 0
M  V30 5870 C 560.006 -1.17143 5.08994 0
M  V30 5871 H 561.7 -0.397642 2.96748 0
M  V30 5872 H 559.246 -0.189823 1.42743 0
M  V30 5873 H 561.199 -2.82962 3.12266 0
M  V30 5874 H 559.923 -2.66269 1.89125 0
M  V30 5875 H 558.582 -1.21636 3.45833 0
M  V30 5876 H 558.23 -3.69207 3.41607 0
M  V30 5877 H 557.93 -3.0221 5.03927 0
M  V30 5878 H 559.454 -3.89237 4.70454 0
M  V30 5879 H 560.868 -1.75003 5.45937 0
M  V30 5880 H 559.265 -1.09328 5.90057 0
M  V30 5881 H 560.335 -0.151295 4.84664 0
M  V30 5882 N 561.678 -1.56367 -0.196722 0
M  V30 5883 C 562.588 -1.97617 -1.2643 0
M  V30 5884 C 563.604 -0.883598 -1.49895 0
M  V30 5885 O 564.78 -1.18921 -1.62541 0
M  V30 5886 C 561.845 -2.30595 -2.58895 0
M  V30 5887 C 560.906 -3.53551 -2.43516 0
M  V30 5888 C 560.139 -3.84946 -3.69665 0
M  V30 5889 O 560.362 -3.17655 -4.73763 0
M  V30 5890 O 559.296 -4.78379 -3.65291 0
M  V30 5891 H 563.122 -2.88648 -0.944233 0
M  V30 5892 H 560.707 -1.43901 -0.401592 0
M  V30 5893 H 562.589 -2.52889 -3.37083 0
M  V30 5894 H 561.264 -1.42732 -2.90533 0
M  V30 5895 H 560.171 -3.36507 -1.63445 0
M  V30 5896 H 561.504 -4.41875 -2.16812 0
M  V30 5897 N 563.156 0.464375 -1.50603 0
M  V30 5898 C 564.403 1.21596 -1.61928 0
M  V30 5899 C 564.731 1.91804 -0.322737 0
M  V30 5900 O 563.986 1.83065 0.691776 0
M  V30 5901 C 564.285 2.278 -2.75394 0
M  V30 5902 C 563.951 1.74797 -4.1564 0
M  V30 5903 C 562.613 1.60063 -4.53799 0
M  V30 5904 C 564.965 1.35548 -5.03266 0
M  V30 5905 C 562.293 1.04514 -5.77316 0
M  V30 5906 C 564.645 0.814381 -6.27336 0
M  V30 5907 C 563.309 0.653726 -6.64291 0
M  V30 5908 H 562.579 0.444951 -0.592536 0
M  V30 5909 H 565.226 0.510964 -1.84557 0
M  V30 5910 H 563.531 3.04233 -2.46879 0
M  V30 5911 H 565.228 2.85723 -2.81359 0
M  V30 5912 H 561.818 1.87234 -3.8554 0
M  V30 5913 H 566.002 1.45763 -4.74412 0
M  V30 5914 H 561.258 0.908186 -6.04617 0
M  V30 5915 H 565.432 0.501626 -6.94591 0
M  V30 5916 H 563.059 0.22114 -7.59878 0
M  V30 5917 N 564.634 1.40294 0.718013 0
M  V30 5918 C 565.564 1.43118 1.84498 0
M  V30 5919 C 566.545 0.292403 1.67568 0
M  V30 5920 O 567.73 0.500675 1.87635 0
M  V30 5921 C 564.86 1.29065 3.22427 0
M  V30 5922 C 563.814 2.40521 3.54025 0
M  V30 5923 C 563.14 2.11546 4.91073 0
M  V30 5924 C 564.44 3.82859 3.55269 0
M  V30 5925 H 566.134 2.37432 1.82391 0
M  V30 5926 H 563.68 1.14283 0.87609 0
M  V30 5927 H 565.633 1.29658 4.00957 0
M  V30 5928 H 564.357 0.312271 3.25104 0
M  V30 5929 H 563.016 2.39173 2.77834 0
M  V30 5930 H 562.664 1.12104 4.90348 0
M  V30 5931 H 562.364 2.86216 5.1318 0
M  V30 5932 H 563.888 2.13817 5.71939 0
M  V30 5933 H 565.302 3.86044 4.23843 0
M  V30 5934 H 563.699 4.57029 3.88902 0
M  V30 5935 H 564.769 4.12617 2.54706 0
M  V30 5936 N 566.112 -0.949982 1.2575 0
M  V30 5937 C 567.022 -2.08109 1.08295 0
M  V30 5938 C 568.038 -1.7399 0.0188181 0
M  V30 5939 O 569.214 -2.00187 0.220724 0
M  V30 5940 C 566.279 -3.39383 0.708534 0
M  V30 5941 C 565.34 -3.8734 1.85111 0
M  V30 5942 C 564.573 -5.12349 1.49447 0
M  V30 5943 O 564.796 -5.6905 0.392212 0
M  V30 5944 O 563.73 -5.5513 2.32624 0
M  V30 5945 H 567.556 -2.25738 2.03165 0
M  V30 5946 H 565.141 -1.06545 1.04731 0
M  V30 5947 H 567.023 -4.18277 0.512061 0
M  V30 5948 H 565.698 -3.23013 -0.210854 0
M  V30 5949 H 564.605 -3.09429 2.10248 0
M  V30 5950 H 565.938 -4.08216 2.74991 0
M  V30 5951 N 567.59 -1.07411 -1.15328 0
M  V30 5952 C 568.838 -0.796073 -1.85761 0
M  V30 5953 C 569.159 0.679864 -1.82764 0
M  V30 5954 O 568.429 1.49242 -1.269 0
M  V30 5955 H 567.009 -0.291495 -0.687779 0
M  V30 5956 H 569.671 -1.35799 -1.39802 0
M  V30 5957 H 568.767 -1.13114 -2.90881 0
M  V30 5958 N 569.068 1.32177 -0.85831 0
M  V30 5959 C 570.015 2.28794 -0.303607 0
M  V30 5960 C 570.985 1.55213 0.591453 0
M  V30 5961 O 572.17 1.83418 0.525585 0
M  V30 5962 C 569.31 3.41475 0.49889 0
M  V30 5963 C 568.423 4.2993 -0.422373 0
M  V30 5964 C 567.558 5.29743 0.393111 0
M  V30 5965 C 566.597 6.09842 -0.525317 0
M  V30 5966 N 565.734 7.01643 0.253208 0
M  V30 5967 H 570.574 2.75631 -1.13276 0
M  V30 5968 H 568.111 1.35606 -0.570026 0
M  V30 5969 H 570.069 4.05531 0.979826 0
M  V30 5970 H 568.699 2.95779 1.29284 0
M  V30 5971 H 567.751 3.66422 -1.02171 0
M  V30 5972 H 569.063 4.85899 -1.12709 0
M  V30 5973 H 568.217 5.9942 0.937056 0
M  V30 5974 H 566.956 4.744 1.13117 0
M  V30 5975 H 565.961 5.39066 -1.08112 0
M  V30 5976 H 567.186 6.6727 -1.26205 0
M  V30 5977 H 565.132 6.48725 0.974295 0
M  V30 5978 H 565.049 7.54981 -0.392398 0
M  V30 5979 H 566.317 7.756 0.778761 0
M  V30 5980 N 570.547 0.616602 1.45037 0
M  V30 5981 C 571.457 -0.0985401 2.34393 0
M  V30 5982 C 572.473 -0.850971 1.51771 0
M  V30 5983 O 573.649 -0.806521 1.84546 0
M  V30 5984 C 570.714 -1.07748 3.29532 0
M  V30 5985 C 569.775 -0.326022 4.2806 0
M  V30 5986 C 569.008 -1.25833 5.18654 0
M  V30 5987 O 569.231 -2.49652 5.12864 0
M  V30 5988 O 568.165 -0.750512 5.97203 0
M  V30 5989 H 571.991 0.636016 2.96966 0
M  V30 5990 H 569.576 0.376832 1.44569 0
M  V30 5991 H 571.458 -1.64107 3.88133 0
M  V30 5992 H 570.133 -1.79291 2.69512 0
M  V30 5993 H 569.04 0.280253 3.73049 0
M  V30 5994 H 570.373 0.349091 4.9096 0
M  V30 5995 N 572.025 -1.5352 0.356285 0
M  V30 5996 C 572.955 -2.28372 -0.486661 0
M  V30 5997 C 573.936 -1.30432 -1.09185 0
M  V30 5998 O 575.121 -1.59291 -1.11085 0
M  V30 5999 C 572.251 -3.06604 -1.63129 0
M  V30 6000 C 571.205 -4.12154 -1.15381 0
M  V30 6001 C 570.531 -4.78415 -2.38796 0
M  V30 6002 C 571.831 -5.21724 -0.245179 0
M  V30 6003 H 573.525 -2.99083 0.137797 0
M  V30 6004 H 571.071 -1.43841 0.0677134 0
M  V30 6005 H 573.024 -3.57712 -2.22755 0
M  V30 6006 H 571.748 -2.33568 -2.28284 0
M  V30 6007 H 570.407 -3.61978 -0.580294 0
M  V30 6008 H 570.055 -4.01959 -3.02387 0
M  V30 6009 H 569.755 -5.49734 -2.07524 0
M  V30 6010 H 571.279 -5.32313 -2.99125 0
M  V30 6011 H 572.693 -5.68391 -0.748646 0
M  V30 6012 H 571.09 -6.00095 -0.0237608 0
M  V30 6013 H 572.16 -4.79596 0.715229 0
M  V30 6014 N 573.503 -0.0852151 -1.57369 0
M  V30 6015 C 574.914 0.445428 -1.81309 0
M  V30 6016 C 575.265 1.68795 -1.00013 0
M  V30 6017 O 574.39 2.15211 -0.226573 0
M  V30 6018 C 574.985 0.814887 -3.28854 0
M  V30 6019 C 573.544 1.29032 -3.53592 0
M  V30 6020 C 572.691 0.282089 -2.75861 0
M  V30 6021 H 575.642 -0.310771 -1.55627 0
M  V30 6022 H 575.663 1.67524 -3.41637 0
M  V30 6023 H 575.175 -0.0896309 -3.87996 0
M  V30 6024 H 573.276 2.21289 -2.9977 0
M  V30 6025 H 573.389 1.25898 -4.62262 0
M  V30 6026 H 571.753 0.762182 -2.43029 0
M  V30 6027 H 572.536 -0.614936 -3.37748 0
M  V30 6028 N 574.981 1.5647 0.188427 0
M  V30 6029 C 576.229 1.80655 0.905986 0
M  V30 6030 C 576.55 0.659391 1.83513 0
M  V30 6031 O 575.82 -0.321868 1.93238 0
M  V30 6032 H 574.4 0.666391 0.337538 0
M  V30 6033 H 577.062 1.93949 0.192339 0
M  V30 6034 H 576.158 2.74066 1.49313 0
M  V30 6035 N 576.459 -0.456382 1.50847 0
M  V30 6036 C 577.708 -1.2042 1.61808 0
M  V30 6037 C 578.021 -1.9278 0.330932 0
M  V30 6038 O 579.227 -2.69612 0.319643 0
M  V30 6039 C 577.683 -2.18891 2.85683 0
M  V30 6040 C 577.291 -1.52267 4.2133 0
M  V30 6041 C 579.035 -2.94224 3.05994 0
M  V30 6042 C 576.942 -2.4911 5.36375 0
M  V30 6043 H 575.872 -0.453177 0.602616 0
M  V30 6044 H 578.523 -0.473144 1.77295 0
M  V30 6045 H 576.905 -2.95351 2.63787 0
M  V30 6046 H 578.079 -0.814949 4.53536 0
M  V30 6047 H 576.394 -0.891594 4.06743 0
M  V30 6048 H 578.991 -3.66732 3.89117 0
M  V30 6049 H 579.334 -3.54469 2.18306 0
M  V30 6050 H 579.867 -2.24874 3.28141 0
M  V30 6051 H 576.606 -1.93582 6.26264 0
M  V30 6052 H 576.126 -3.17991 5.08569 0
M  V30 6053 H 577.805 -3.10637 5.67551 0
M  V30 6054 N 577.937 -1.40673 -0.710563 0
M  V30 6055 C 578.9 -1.4108 -1.80635 0
M  V30 6056 C 579.9 -0.303783 -1.57904 0
M  V30 6057 O 581.09 -0.562937 -1.64853 0
M  V30 6058 C 578.222 -1.20748 -3.18799 0
M  V30 6059 H 579.415 -2.38612 -1.81671 0
M  V30 6060 H 576.968 -1.26595 -0.916704 0
M  V30 6061 H 577.703 -0.239964 -3.23411 0
M  V30 6062 H 577.488 -2.00941 -3.36698 0
M  V30 6063 H 578.978 -1.23833 -3.98817 0
M  V30 6064 N 579.415 0.9433 -1.26252 0
M  V30 6065 C 580.64 1.72898 -1.14547 0
M  V30 6066 C 581.065 1.85761 0.295743 0
M  V30 6067 O 580.423 1.3463 1.21427 0
M  V30 6068 C 580.471 3.11471 -1.8171 0
M  V30 6069 O 579.575 3.97336 -1.10445 0
M  V30 6070 H 578.916 0.530555 -0.399259 0
M  V30 6071 H 581.446 1.18159 -1.67032 0
M  V30 6072 H 581.456 3.61872 -1.88449 0
M  V30 6073 H 580.131 3.01425 -2.86558 0
M  V30 6074 H 578.708 3.55788 -1.11666 0
M  V30 6075 N 580.893 1.08022 1.14757 0
M  V30 6076 C 582.142 0.802468 1.8505 0
M  V30 6077 C 582.455 -0.674061 1.83619 0
M  V30 6078 O 583.661 -1.06683 2.49662 0
M  V30 6079 C 582.117 1.38551 3.32162 0
M  V30 6080 C 581.725 2.89354 3.42021 0
M  V30 6081 C 583.469 1.18608 4.07594 0
M  V30 6082 C 581.376 3.40815 4.83321 0
M  V30 6083 H 580.306 0.296518 0.693248 0
M  V30 6084 H 582.957 1.30114 1.29393 0
M  V30 6085 H 581.339 0.814556 3.87532 0
M  V30 6086 H 582.513 3.52552 2.96722 0
M  V30 6087 H 580.828 3.08165 2.80041 0
M  V30 6088 H 583.425 1.54525 5.11885 0
M  V30 6089 H 583.768 0.125599 4.1611 0
M  V30 6090 H 584.301 1.72375 3.58513 0
M  V30 6091 H 581.04 4.46418 4.79991 0
M  V30 6092 H 580.56 2.82374 5.29174 0
M  V30 6093 H 582.239 3.37171 5.522 0
M  V30 6094 N 582.371 -1.3172 0.865308 0
M  V30 6095 C 583.334 -2.26918 0.322627 0
M  V30 6096 C 584.334 -1.52031 -0.523751 0
M  V30 6097 O 585.524 -1.70973 -0.333727 0
M  V30 6098 C 582.656 -3.36558 -0.542338 0
M  V30 6099 H 583.849 -2.76432 1.16298 0
M  V30 6100 H 581.402 -1.42573 0.640512 0
M  V30 6101 H 582.137 -2.92329 -1.40407 0
M  V30 6102 H 581.922 -3.92048 0.0636395 0
M  V30 6103 H 583.412 -4.07465 -0.91446 0
M  V30 6104 N 583.85 -0.624285 -1.44708 0
M  V30 6105 C 585.127 -0.0572781 -1.95516 0
M  V30 6106 C 585.507 1.41516 -1.56641 0
M  V30 6107 O 584.855 2.12614 -0.837111 0
M  V30 6108 C 585.065 -0.272944 -3.47931 0
M  V30 6109 C 586.413 -0.162529 -4.24289 0
M  V30 6110 O 587.437 -0.203946 -3.55616 0
M  V30 6111 O 586.296 -0.0616847 -5.46465 0
M  V30 6112 H 583.389 0.0262219 -0.826584 0
M  V30 6113 H 585.936 -0.695512 -1.54793 0
M  V30 6114 H 584.707 -1.29492 -3.69253 0
M  V30 6115 H 584.331 0.399756 -3.95585 0
M  V30 6116 N 585.328 1.53329 -0.364422 0
M  V30 6117 C 586.275 2.25698 0.482607 0
M  V30 6118 C 587.245 1.26325 1.07848 0
M  V30 6119 O 588.43 1.55104 1.11119 0
M  V30 6120 C 585.57 3.04873 1.61699 0
M  V30 6121 C 584.683 4.19135 1.0464 0
M  V30 6122 C 583.818 4.85754 2.14979 0
M  V30 6123 C 582.857 5.9205 1.5538 0
M  V30 6124 N 581.994 6.52365 2.59547 0
M  V30 6125 H 586.834 2.97666 -0.141032 0
M  V30 6126 H 584.371 1.46875 -0.0813692 0
M  V30 6127 H 586.329 3.49051 2.28516 0
M  V30 6128 H 584.959 2.35162 2.2113 0
M  V30 6129 H 584.011 3.79451 0.268553 0
M  V30 6130 H 585.323 4.95525 0.570653 0
M  V30 6131 H 584.477 5.3311 2.89619 0
M  V30 6132 H 583.216 4.08834 2.65906 0
M  V30 6133 H 582.221 5.44058 0.792549 0
M  V30 6134 H 583.446 6.7089 1.0528 0
M  V30 6135 H 581.392 5.78298 3.09689 0
M  V30 6136 H 581.309 7.2429 2.16655 0
M  V30 6137 H 582.577 7.0437 3.33892 0
M  V30 6138 N 586.806 0.0935595 1.57322 0
M  V30 6139 C 587.753 -0.865935 2.1394 0
M  V30 6140 C 588.723 -1.28083 1.05754 0
M  V30 6141 O 589.908 -1.36285 1.33533 0
M  V30 6142 C 587.048 -2.12023 2.72287 0
M  V30 6143 C 586.161 -1.756 3.94701 0
M  V30 6144 C 585.296 -2.95804 4.41218 0
M  V30 6145 C 584.335 -2.555 5.56225 0
M  V30 6146 N 583.472 -3.68534 5.97601 0
M  V30 6147 H 588.312 -0.376261 2.95615 0
M  V30 6148 H 585.849 -0.174052 1.46067 0
M  V30 6149 H 587.807 -2.85477 3.04235 0
M  V30 6150 H 586.437 -2.58492 1.93343 0
M  V30 6151 H 585.489 -0.921208 3.69077 0
M  V30 6152 H 586.801 -1.41964 4.78171 0
M  V30 6153 H 585.955 -3.77513 4.74941 0
M  V30 6154 H 584.694 -3.32649 3.56645 0
M  V30 6155 H 583.699 -1.72218 5.22131 0
M  V30 6156 H 584.924 -2.19801 6.42545 0
M  V30 6157 H 582.87 -4.051 5.15974 0
M  V30 6158 H 582.787 -3.38737 6.75865 0
M  V30 6159 H 584.055 -4.50757 6.35955 0
M  V30 6160 N 588.284 -1.56567 -0.180126 0
M  V30 6161 C 589.231 -1.95725 -1.22313 0
M  V30 6162 C 590.201 -0.819911 -1.44453 0
M  V30 6163 O 591.386 -1.07931 -1.57339 0
M  V30 6164 C 588.526 -2.31484 -2.55947 0
M  V30 6165 C 587.639 -3.58354 -2.4126 0
M  V30 6166 C 586.774 -3.83366 -3.67701 0
M  V30 6167 C 585.813 -5.03612 -3.47909 0
M  V30 6168 N 584.95 -5.24802 -4.66398 0
M  V30 6169 H 589.79 -2.84642 -0.882198 0
M  V30 6170 H 587.327 -1.4085 -0.42422 0
M  V30 6171 H 589.285 -2.50237 -3.33822 0
M  V30 6172 H 587.915 -1.45689 -2.88053 0
M  V30 6173 H 586.967 -3.47565 -1.54606 0
M  V30 6174 H 588.279 -4.46386 -2.22577 0
M  V30 6175 H 587.433 -4.02439 -4.54013 0
M  V30 6176 H 586.172 -2.93692 -3.89353 0
M  V30 6177 H 585.177 -4.84447 -2.59983 0
M  V30 6178 H 586.402 -5.94809 -3.27688 0
M  V30 6179 H 584.348 -4.38079 -4.88286 0
M  V30 6180 H 584.265 -6.07041 -4.50596 0
M  V30 6181 H 585.533 -5.48346 -5.54019 0
M  V30 6182 N 589.762 0.448376 -1.51087 0
M  V30 6183 C 591.011 1.19561 -1.62444 0
M  V30 6184 C 591.324 1.92602 -0.341151 0
M  V30 6185 O 592.53 2.69439 -0.333936 0
M  V30 6186 C 590.986 2.17373 -2.8684 0
M  V30 6187 C 590.594 1.5003 -4.22131 0
M  V30 6188 C 592.338 2.92597 -3.0755 0
M  V30 6189 C 590.245 2.46262 -5.37689 0
M  V30 6190 H 589.175 0.449975 -0.605011 0
M  V30 6191 H 591.826 0.463735 -1.77544 0
M  V30 6192 H 590.208 2.93948 -2.65349 0
M  V30 6193 H 591.382 0.790886 -4.53962 0
M  V30 6194 H 589.697 0.870011 -4.0721 0
M  V30 6195 H 592.294 3.64663 -3.91056 0
M  V30 6196 H 592.637 3.53306 -2.20183 0
M  V30 6197 H 593.17 2.23131 -3.29329 0
M  V30 6198 H 589.909 1.90258 -6.27281 0
M  V30 6199 H 589.429 3.15289 -5.10248 0
M  V30 6200 H 591.108 3.07623 -5.6919 0
M  V30 6201 N 591.24 1.41047 0.703093 0
M  V30 6202 C 592.468 1.4334 1.49202 0
M  V30 6203 C 592.883 0.0365596 1.88765 0
M  V30 6204 O 592.24 -0.942419 1.56284 0
M  V30 6205 C 592.291 2.33538 2.75939 0
M  V30 6206 O 592.012 3.67786 2.38045 0
M  V30 6207 C 593.513 2.44555 3.6974 0
M  V30 6208 H 590.733 0.488472 0.460039 0
M  V30 6209 H 593.277 1.85245 0.86629 0
M  V30 6210 H 591.432 1.94962 3.34766 0
M  V30 6211 H 591.846 4.15816 3.19683 0
M  V30 6212 H 593.32 3.11849 4.55471 0
M  V30 6213 H 593.797 1.47447 4.1371 0
M  V30 6214 H 594.403 2.83735 3.16819 0
M  V30 6215 N 592.718 -0.936591 1.26751 0
M  V30 6216 C 594.134 -1.21095 1.03963 0
M  V30 6217 C 594.334 -2.00156 -0.232372 0
M  V30 6218 O 593.39 -2.3434 -0.940274 0
M  V30 6219 C 594.703 -1.96775 2.27377 0
M  V30 6220 C 596.251 -2.09749 2.32324 0
M  V30 6221 C 596.726 -2.88832 3.55443 0
M  V30 6222 N 598.217 -2.96404 3.55948 0
M  V30 6223 C 598.952 -3.58036 4.47881 0
M  V30 6224 N 598.448 -4.21132 5.50109 0
M  V30 6225 N 600.241 -3.55353 4.35523 0
M  V30 6226 H 592.392 -0.408173 2.08441 0
M  V30 6227 H 594.655 -0.243139 0.91629 0
M  V30 6228 H 594.361 -1.46094 3.19921 0
M  V30 6229 H 594.235 -2.97424 2.31989 0
M  V30 6230 H 596.622 -2.5962 1.40291 0
M  V30 6231 H 596.703 -1.08347 2.31721 0
M  V30 6232 H 596.347 -2.39647 4.47808 0
M  V30 6233 H 596.277 -3.90499 3.53296 0
M  V30 6234 H 598.768 -2.51552 2.82011 0
M  V30 6235 H 599.081 -4.66071 6.16439 0
M  V30 6236 H 597.426 -4.19705 5.53961 0
M  V30 6237 H 600.617 -3.05256 3.54875 0
M  V30 6238 H 600.79 -4.03097 5.07363 0
M  V30 6239 N 594.196 -1.08629 -1.14182 0
M  V30 6240 C 595.143 -0.718299 -2.19338 0
M  V30 6241 C 596.113 0.296587 -1.63431 0
M  V30 6242 O 597.298 0.180079 -1.89948 0
M  V30 6243 C 594.438 -0.136203 -3.44831 0
M  V30 6244 C 593.551 -1.20414 -4.14879 0
M  V30 6245 C 592.686 -0.585666 -5.27962 0
M  V30 6246 C 591.725 -1.63548 -5.89846 0
M  V30 6247 N 590.862 -1.03864 -6.94375 0
M  V30 6248 H 595.702 -1.61932 -2.50164 0
M  V30 6249 H 593.239 -0.80919 -1.22844 0
M  V30 6250 H 595.197 0.219021 -4.16625 0
M  V30 6251 H 593.827 0.728121 -3.14481 0
M  V30 6252 H 592.879 -1.67676 -3.41451 0
M  V30 6253 H 594.191 -1.99959 -4.56966 0
M  V30 6254 H 593.345 -0.178818 -6.06436 0
M  V30 6255 H 592.084 0.24142 -4.87102 0
M  V30 6256 H 591.089 -2.05197 -5.10073 0
M  V30 6257 H 592.314 -2.46509 -6.3278 0
M  V30 6258 H 590.26 -0.232687 -6.55587 0
M  V30 6259 H 590.177 -1.77116 -7.3496 0
M  V30 6260 H 591.445 -0.657724 -7.7672 0
M  V30 6261 N 595.674 1.31259 -0.872281 0
M  V30 6262 C 596.604 2.30929 -0.345554 0
M  V30 6263 C 597.585 1.60449 0.5648 0
M  V30 6264 O 598.77 1.8814 0.481335 0
M  V30 6265 C 595.9 3.44348 0.451823 0
M  V30 6266 C 594.854 4.26435 -0.365641 0
M  V30 6267 C 594.18 5.31785 0.557562 0
M  V30 6268 C 595.48 4.97159 -1.60095 0
M  V30 6269 H 597.174 2.75234 -1.17841 0
M  V30 6270 H 594.72 1.3232 -0.568094 0
M  V30 6271 H 596.673 4.13128 0.830854 0
M  V30 6272 H 595.397 2.98816 1.31821 0
M  V30 6273 H 594.056 3.59326 -0.726649 0
M  V30 6274 H 593.704 4.82502 1.4213 0
M  V30 6275 H 593.404 5.87598 0.0144878 0
M  V30 6276 H 594.928 6.03424 0.933387 0
M  V30 6277 H 596.342 5.58523 -1.29323 0
M  V30 6278 H 594.739 5.62779 -2.08327 0
M  V30 6279 H 595.809 4.24012 -2.35249 0
M  V30 6280 N 597.152 0.631951 1.44375 0
M  V30 6281 C 598.401 0.134214 2.01253 0
M  V30 6282 C 598.714 -1.25171 1.50305 0
M  V30 6283 O 599.92 -1.8435 1.99317 0
M  V30 6284 C 598.376 0.189187 3.59402 0
M  V30 6285 C 597.984 1.57647 4.19346 0
M  V30 6286 C 599.728 -0.252044 4.23751 0
M  V30 6287 C 597.635 1.58651 5.69722 0
M  V30 6288 H 596.565 0.0464101 0.75257 0
M  V30 6289 H 599.216 0.790868 1.65582 0
M  V30 6290 H 597.598 -0.534584 3.92375 0
M  V30 6291 H 598.772 2.32389 3.97909 0
M  V30 6292 H 597.087 1.96186 3.67288 0
M  V30 6293 H 599.684 -0.264084 5.34047 0
M  V30 6294 H 600.027 -1.27951 3.96149 0
M  V30 6295 H 600.56 0.41926 3.95584 0
M  V30 6296 H 597.299 2.59237 6.0206 0
M  V30 6297 H 596.819 0.882039 5.93279 0
M  V30 6298 H 598.498 1.32082 6.33375 0
M  V30 6299 N 598.631 -1.53133 0.372548 0
M  V30 6300 C 599.561 -2.28876 -0.462412 0
M  V30 6301 C 600.542 -1.31583 -1.07796 0
M  V30 6302 O 601.727 -1.60461 -1.09389 0
M  V30 6303 C 598.857 -3.08317 -1.59868 0
M  V30 6304 C 597.811 -4.13355 -1.11003 0
M  V30 6305 C 597.137 -4.8092 -2.33708 0
M  V30 6306 C 598.437 -5.21955 -0.18983 0
M  V30 6307 H 600.131 -2.9892 0.169511 0
M  V30 6308 H 597.677 -1.43761 0.0829658 0
M  V30 6309 H 599.63 -3.60055 -2.18949 0
M  V30 6310 H 598.354 -2.35976 -2.25794 0
M  V30 6311 H 597.013 -3.62573 -0.541869 0
M  V30 6312 H 596.661 -4.05144 -2.98106 0
M  V30 6313 H 596.361 -5.51904 -2.01682 0
M  V30 6314 H 597.885 -5.35455 -2.93462 0
M  V30 6315 H 599.299 -5.69153 -0.688319 0
M  V30 6316 H 597.696 -6.00087 0.0398887 0
M  V30 6317 H 598.766 -4.78811 0.766057 0
M  V30 6318 N 600.109 -0.101901 -1.5727 0
M  V30 6319 C 601.072 0.840129 -2.13247 0
M  V30 6320 C 602.072 1.20625 -1.06331 0
M  V30 6321 O 603.262 1.13456 -1.32186 0
M  V30 6322 C 600.394 2.13372 -2.65867 0
M  V30 6323 H 601.587 0.353945 -2.97804 0
M  V30 6324 H 599.14 0.147167 -1.55606 0
M  V30 6325 H 599.875 2.66461 -1.84849 0
M  V30 6326 H 599.66 1.88085 -3.44044 0
M  V30 6327 H 601.15 2.80748 -3.09145 0
M  V30 6328 N 601.587 1.56661 0.17182 0
M  V30 6329 C 602.835 1.81606 0.886774 0
M  V30 6330 C 603.156 0.678818 1.82803 0
M  V30 6331 O 602.426 -0.301354 1.93568 0
M  V30 6332 H 601.006 0.669934 0.330451 0
M  V30 6333 H 603.668 1.94142 0.171757 0
M  V30 6334 H 602.764 2.75634 1.46398 0
M  V30 6335 N 603.065 -0.440357 1.51323 0
M  V30 6336 C 604.013 -1.55492 1.72988 0
M  V30 6337 C 605.007 -1.58564 0.596138 0
M  V30 6338 O 606.213 -1.62345 0.777443 0
M  V30 6339 H 602.588 -0.516532 0.546533 0
M  V30 6340 H 604.559 -1.34392 2.66423 0
M  V30 6341 C 603.308 -2.93176 1.86931 0
M  V30 6342 H 602.631 -2.91543 2.73574 0
M  V30 6343 H 604.071 -3.70537 2.06103 0
M  V30 6344 C 602.53 -3.30988 0.628365 0
M  V30 6345 O 603.06 -4.01106 -0.218367 0
M  V30 6346 N 601.266 -2.86719 0.473339 0
M  V30 6347 H 600.813 -2.2983 1.16345 0
M  V30 6348 H 600.771 -3.12381 -0.355727 0
M  V30 6349 N 604.543 -1.41418 -0.695603 0
M  V30 6350 C 605.789 -1.41983 -1.45645 0
M  V30 6351 C 606.144 -0.0282216 -1.92379 0
M  V30 6352 O 605.437 0.945916 -1.66622 0
M  V30 6353 C 605.631 -2.36112 -2.68302 0
M  V30 6354 C 605.46 -3.84288 -2.33566 0
M  V30 6355 C 604.23 -4.52971 -2.23932 0
M  V30 6356 C 606.428 -4.75264 -1.96543 0
M  V30 6357 N 604.41 -5.86276 -1.82081 0
M  V30 6358 C 605.781 -5.97517 -1.6545 0
M  V30 6359 C 607.836 -4.62911 -1.83352 0
M  V30 6360 C 606.539 -7.08793 -1.22492 0
M  V30 6361 C 608.565 -5.74149 -1.41799 0
M  V30 6362 C 607.927 -6.95501 -1.11617 0
M  V30 6363 H 604.026 -0.574771 -0.530247 0
M  V30 6364 H 606.61 -1.77289 -0.804788 0
M  V30 6365 H 604.781 -2.02902 -3.31188 0
M  V30 6366 H 606.513 -2.27397 -3.34773 0
M  V30 6367 H 603.268 -4.06909 -2.42327 0
M  V30 6368 H 603.692 -6.56926 -1.63638 0
M  V30 6369 H 608.334 -3.69588 -2.05341 0
M  V30 6370 H 606.052 -8.01982 -0.992482 0
M  V30 6371 H 609.638 -5.66595 -1.32143 0
M  V30 6372 H 608.518 -7.80114 -0.799493 0
M  V30 6373 N 606.021 0.929856 -1.27246 0
M  V30 6374 C 606.968 2.03017 -1.09785 0
M  V30 6375 C 607.938 1.661 0.000456744 0
M  V30 6376 O 609.123 1.90116 -0.161462 0
M  V30 6377 C 606.263 3.36878 -0.748816 0
M  V30 6378 C 605.376 3.86763 -1.92453 0
M  V30 6379 C 604.511 5.09061 -1.51758 0
M  V30 6380 C 603.55 5.51237 -2.66091 0
M  V30 6381 N 602.687 6.64732 -2.25999 0
M  V30 6382 H 607.527 2.17285 -2.03939 0
M  V30 6383 H 605.064 1.06448 -1.01524 0
M  V30 6384 H 607.022 4.13855 -0.527283 0
M  V30 6385 H 605.652 3.22424 0.155771 0
M  V30 6386 H 604.704 3.06086 -2.25867 0
M  V30 6387 H 606.016 4.13994 -2.78227 0
M  V30 6388 H 605.17 5.93532 -1.25716 0
M  V30 6389 H 603.909 4.83602 -0.630896 0
M  V30 6390 H 602.914 4.65316 -2.92849 0
M  V30 6391 H 604.139 5.78692 -3.55377 0
M  V30 6392 H 602.085 6.40935 -1.3978 0
M  V30 6393 H 602.002 6.91607 -3.05313 0
M  V30 6394 H 603.27 7.52549 -2.03199 0
M  V30 6395 N 607.499 1.09233 1.13605 0
M  V30 6396 C 608.432 0.6739 2.18023 0
M  V30 6397 C 609.41 -0.318603 1.59448 0
M  V30 6398 O 610.594 -0.220452 1.87206 0
M  V30 6399 C 607.721 -0.00751458 3.38699 0
M  V30 6400 C 606.767 0.946481 4.15865 0
M  V30 6401 S 607.6 2.45753 4.75779 0
M  V30 6402 C 608.756 1.78846 5.99804 0
M  V30 6403 H 608.989 1.55846 2.53178 0
M  V30 6404 H 606.522 0.908118 1.2487 0
M  V30 6405 H 608.48 -0.394368 4.08601 0
M  V30 6406 H 607.141 -0.868693 3.01849 0
M  V30 6407 H 606.334 0.416742 5.02274 0
M  V30 6408 H 605.936 1.27464 3.51609 0
M  V30 6409 H 608.228 1.11135 6.68323 0
M  V30 6410 H 609.171 2.63163 6.57382 0
M  V30 6411 H 609.579 1.25823 5.50299 0
M  V30 6412 N 608.977 -1.30795 0.87923 0
M  V30 6413 C 609.927 -2.25838 0.313276 0
M  V30 6414 C 610.911 -1.51025 -0.55499 0
M  V30 6415 O 612.103 -1.72413 -0.400353 0
M  V30 6416 C 609.232 -3.39981 -0.476204 0
M  V30 6417 C 608.318 -4.22154 0.405826 0
M  V30 6418 N 608.709 -4.82934 1.50362 0
M  V30 6419 C 607.007 -4.45552 0.199909 0
M  V30 6420 C 607.708 -5.44444 2.0483 0
M  V30 6421 N 606.684 -5.26723 1.34403 0
M  V30 6422 H 610.486 -2.70374 1.15218 0
M  V30 6423 H 608 -1.45168 0.728003 0
M  V30 6424 H 609.997 -4.07108 -0.898251 0
M  V30 6425 H 608.657 -2.96986 -1.31261 0
M  V30 6426 H 609.668 -4.82319 1.8865 0
M  V30 6427 H 606.345 -4.13169 -0.599795 0
M  V30 6428 H 607.735 -6.02701 2.96986 0
M  V30 6429 N 610.455 -0.639598 -1.44038 0
M  V30 6430 C 611.402 0.0602458 -2.30721 0
M  V30 6431 C 612.372 0.828352 -1.43971 0
M  V30 6432 O 613.557 0.807693 -1.72861 0
M  V30 6433 C 610.697 1.03008 -3.29368 0
M  V30 6434 C 609.81 0.259502 -4.3122 0
M  V30 6435 C 608.945 1.22191 -5.16955 0
M  V30 6436 C 607.984 0.440978 -6.10509 0
M  V30 6437 N 607.121 1.35428 -6.88915 0
M  V30 6438 H 611.961 -0.684867 -2.90023 0
M  V30 6439 H 609.498 -0.349509 -1.42888 0
M  V30 6440 H 611.456 1.60583 -3.85057 0
M  V30 6441 H 610.086 1.74222 -2.71747 0
M  V30 6442 H 609.138 -0.432317 -3.77935 0
M  V30 6443 H 610.45 -0.348347 -4.97582 0
M  V30 6444 H 609.604 1.86873 -5.77203 0
M  V30 6445 H 608.343 1.86367 -4.50687 0
M  V30 6446 H 607.348 -0.219279 -5.49363 0
M  V30 6447 H 608.573 -0.196192 -6.78817 0
M  V30 6448 H 606.519 1.9831 -6.25307 0
M  V30 6449 H 606.436 0.800657 -7.51748 0
M  V30 6450 H 607.704 1.98967 -7.53679 0
M  V30 6451 N 611.933 1.52934 -0.380664 0
M  V30 6452 C 613.161 2.05886 0.204599 0
M  V30 6453 C 613.576 1.25305 1.41223 0
M  V30 6454 O 612.933 0.297504 1.80059 0
M  V30 6455 C 612.984 3.56764 0.583249 0
M  V30 6456 O 612.705 4.34292 -0.576398 0
M  V30 6457 C 614.206 4.2603 1.2253 0
M  V30 6458 H 611.426 0.670193 0.0328991 0
M  V30 6459 H 613.97 1.97148 -0.543397 0
M  V30 6460 H 612.125 3.65603 1.28115 0
M  V30 6461 H 612.539 5.23819 -0.267119 0
M  V30 6462 H 614.013 5.32868 1.44068 0
M  V30 6463 H 614.49 3.80698 2.19011 0
M  V30 6464 H 615.096 4.21485 0.568407 0
M  V30 6465 N 613.412 0.11024 1.57214 0
M  V30 6466 C 614.661 -0.549638 1.94067 0
M  V30 6467 C 614.974 -1.68388 0.995234 0
M  V30 6468 O 616.18 -2.40593 1.25807 0
M  V30 6469 C 614.636 -1.02912 3.44873 0
M  V30 6470 C 614.244 0.0761861 4.47935 0
M  V30 6471 C 615.988 -1.66087 3.9066 0
M  V30 6472 C 613.895 -0.419502 5.8991 0
M  V30 6473 H 612.825 -0.209092 0.724428 0
M  V30 6474 H 615.476 0.188683 1.82527 0
M  V30 6475 H 613.858 -1.82159 3.51616 0
M  V30 6476 H 615.032 0.852185 4.52851 0
M  V30 6477 H 613.347 0.614052 4.11847 0
M  V30 6478 H 615.944 -2.04272 4.94143 0
M  V30 6479 H 616.287 -2.53591 3.30148 0
M  V30 6480 H 616.82 -0.933959 3.86681 0
M  V30 6481 H 613.559 0.419277 6.54158 0
M  V30 6482 H 613.079 -1.16217 5.88433 0
M  V30 6483 H 614.758 -0.883577 6.40938 0
M  V30 6484 N 614.89 -1.56749 -0.16351 0
M  V30 6485 C 616.115 -1.86938 -0.898264 0
M  V30 6486 C 616.54 -0.697456 -1.74692 0
M  V30 6487 O 615.898 0.353327 -1.77824 0
M  V30 6488 C 615.946 -3.15599 -1.74441 0
M  V30 6489 O 615.05 -2.98371 -2.8469 0
M  V30 6490 H 614.391 -0.614659 -0.251178 0
M  V30 6491 H 616.921 -2.03979 -0.159298 0
M  V30 6492 H 616.931 -3.47202 -2.14277 0
M  V30 6493 H 615.606 -4.00505 -1.1211 0
M  V30 6494 H 614.183 -2.7814 -2.4838 0
M  V30 6495 N 616.368 0.432326 -1.51554 0
M  V30 6496 C 617.278 1.55023 -1.76082 0
M  V30 6497 C 618.294 1.61593 -0.645265 0
M  V30 6498 O 619.47 1.78742 -0.928086 0
M  V30 6499 C 616.535 2.90964 -1.88523 0
M  V30 6500 C 615.596 2.9447 -3.12388 0
M  V30 6501 C 614.829 4.23926 -3.24225 0
M  V30 6502 O 615.052 5.16576 -2.4188 0
M  V30 6503 O 613.986 4.33818 -4.17235 0
M  V30 6504 H 617.812 1.37238 -2.70923 0
M  V30 6505 H 615.397 0.615845 -1.36117 0
M  V30 6506 H 617.279 3.71633 -1.98662 0
M  V30 6507 H 615.954 3.08865 -0.9687 0
M  V30 6508 H 614.861 2.12737 -3.07723 0
M  V30 6509 H 616.194 2.81514 -4.03746 0
M  V30 6510 N 617.846 1.41785 0.688094 0
M  V30 6511 C 618.809 1.43936 1.78368 0
M  V30 6512 C 619.809 0.328866 1.57401 0
M  V30 6513 O 620.999 0.589093 1.63937 0
M  V30 6514 C 618.131 1.25804 3.16838 0
M  V30 6515 H 619.324 2.41472 1.77852 0
M  V30 6516 H 616.877 1.28037 0.896448 0
M  V30 6517 H 617.612 0.291386 3.22988 0
M  V30 6518 H 617.397 2.06272 3.33458 0
M  V30 6519 H 618.887 1.30162 3.96797 0
M  V30 6520 N 619.324 -0.923095 1.27737 0
M  V30 6521 C 620.271 -2.02432 1.1086 0
M  V30 6522 C 621.241 -1.66098 0.00835195 0
M  V30 6523 O 622.426 -1.90027 0.171542 0
M  V30 6524 C 619.566 -3.36476 0.766671 0
M  V30 6525 C 618.679 -3.85737 1.94501 0
M  V30 6526 C 617.814 -5.08249 1.54455 0
M  V30 6527 C 616.853 -5.49818 2.6901 0
M  V30 6528 N 615.99 -6.63524 2.29521 0
M  V30 6529 H 620.83 -2.16201 2.05089 0
M  V30 6530 H 618.367 -1.05909 1.02087 0
M  V30 6531 H 620.325 -4.13569 0.549223 0
M  V30 6532 H 618.955 -3.22502 -0.13867 0
M  V30 6533 H 618.007 -3.04883 2.27487 0
M  V30 6534 H 619.319 -4.12513 2.80419 0
M  V30 6535 H 618.473 -5.92857 1.28862 0
M  V30 6536 H 617.212 -4.83261 0.656534 0
M  V30 6537 H 616.217 -4.63757 2.95313 0
M  V30 6538 H 617.442 -5.76799 3.5844 0
M  V30 6539 H 615.388 -6.40185 1.43177 0
M  V30 6540 H 615.305 -6.89978 3.08977 0
M  V30 6541 H 616.573 -7.51461 2.07187 0
M  V30 6542 N 620.802 -1.09834 -1.13024 0
M  V30 6543 C 621.749 -0.741522 -2.18564 0
M  V30 6544 C 622.719 0.279236 -1.63736 0
M  V30 6545 O 623.904 0.159923 -1.90129 0
M  V30 6546 C 621.044 -0.17277 -3.44667 0
M  V30 6547 C 620.157 -1.24808 -4.13578 0
M  V30 6548 C 619.292 -0.641631 -5.27311 0
M  V30 6549 C 618.331 -1.69795 -5.88078 0
M  V30 6550 N 617.468 -1.11223 -6.93234 0
M  V30 6551 H 622.308 -1.64576 -2.48432 0
M  V30 6552 H 619.845 -0.822174 -1.21978 0
M  V30 6553 H 621.803 0.17482 -4.16834 0
M  V30 6554 H 620.433 0.694725 -3.15235 0
M  V30 6555 H 619.485 -1.71288 -3.39653 0
M  V30 6556 H 620.797 -2.04795 -4.54819 0
M  V30 6557 H 619.951 -0.243128 -6.06213 0
M  V30 6558 H 618.69 0.189742 -4.87331 0
M  V30 6559 H 617.695 -2.10595 -5.07868 0
M  V30 6560 H 618.92 -2.53206 -6.3013 0
M  V30 6561 H 616.866 -0.302208 -6.55304 0
M  V30 6562 H 616.783 -1.84901 -7.3304 0
M  V30 6563 H 618.051 -0.740068 -7.75979 0
M  V30 6564 N 622.28 1.30327 -0.886154 0
M  V30 6565 C 623.527 1.96097 -0.505192 0
M  V30 6566 C 623.855 1.69952 0.945868 0
M  V30 6567 O 623.11 0.997653 1.68361 0
M  V30 6568 C 623.409 3.49906 -0.728042 0
M  V30 6569 C 623.075 3.96103 -2.15437 0
M  V30 6570 C 621.737 4.08428 -2.5444 0
M  V30 6571 C 624.089 4.20177 -3.08384 0
M  V30 6572 C 621.417 4.42189 -3.85598 0
M  V30 6573 C 623.769 4.55407 -4.39075 0
M  V30 6574 C 622.433 4.65941 -4.7797 0
M  V30 6575 H 621.703 0.71757 -0.184863 0
M  V30 6576 H 624.35 1.55171 -1.12223 0
M  V30 6577 H 622.655 3.9179 -0.027978 0
M  V30 6578 H 624.352 3.98869 -0.412862 0
M  V30 6579 H 620.942 3.87017 -1.84162 0
M  V30 6580 H 625.126 4.10134 -2.7947 0
M  V30 6581 H 620.382 4.48544 -4.15473 0
M  V30 6582 H 624.556 4.72986 -5.11133 0
M  V30 6583 H 622.183 4.91856 -5.79639 0
M  V30 6584 N 623.758 0.647228 1.43697 0
M  V30 6585 C 625.004 0.158422 2.0218 0
M  V30 6586 C 625.337 -1.22233 1.50907 0
M  V30 6587 O 624.612 -1.81478 0.699702 0
M  V30 6588 C 624.895 0.1627 3.59732 0
M  V30 6589 C 624.748 1.57694 4.21251 0
M  V30 6590 C 626.067 -0.504138 4.37203 0
M  V30 6591 H 623.186 0.059042 0.734631 0
M  V30 6592 H 625.828 0.826772 1.71069 0
M  V30 6593 H 623.978 -0.406414 3.86368 0
M  V30 6594 H 625.65 2.19618 4.05667 0
M  V30 6595 H 623.893 2.12603 3.7813 0
M  V30 6596 H 624.564 1.53183 5.3032 0
M  V30 6597 H 627.04 -0.0199841 4.16095 0
M  V30 6598 H 625.916 -0.470394 5.46881 0
M  V30 6599 H 626.177 -1.57726 4.13007 0
M  V30 6600 N 625.236 -1.5273 0.388769 0
M  V30 6601 C 626.461 -2.0647 -0.19621 0
M  V30 6602 C 626.886 -1.25865 -1.39784 0
M  V30 6603 O 626.244 -0.283562 -1.79069 0
M  V30 6604 C 626.292 -3.56456 -0.5451 0
M  V30 6605 O 625.396 -3.78426 -1.63912 0
M  V30 6606 H 624.737 -0.663599 -0.023067 0
M  V30 6607 H 627.267 -1.96898 0.556084 0
M  V30 6608 H 627.277 -3.99888 -0.809557 0
M  V30 6609 H 625.952 -4.14561 0.333417 0
M  V30 6610 H 624.529 -3.46884 -1.36842 0
M  V30 6611 N 626.714 -0.118576 -1.57153 0
M  V30 6612 C 627.644 0.828436 -2.1831 0
M  V30 6613 C 628.625 1.27758 -1.12303 0
M  V30 6614 O 629.81 1.34026 -1.40537 0
M  V30 6615 C 626.94 2.07876 -2.78217 0
M  V30 6616 C 625.894 1.76742 -3.89803 0
M  V30 6617 C 625.22 3.08801 -4.36516 0
M  V30 6618 C 626.52 1.03606 -5.11921 0
M  V30 6619 H 628.214 0.318824 -2.97698 0
M  V30 6620 H 625.76 0.151911 -1.43196 0
M  V30 6621 H 627.713 2.74584 -3.19659 0
M  V30 6622 H 626.437 2.61161 -1.96118 0
M  V30 6623 H 625.096 1.12424 -3.48936 0
M  V30 6624 H 624.744 3.6002 -3.51276 0
M  V30 6625 H 624.444 2.88743 -5.11763 0
M  V30 6626 H 625.968 3.76627 -4.80608 0
M  V30 6627 H 627.382 1.60467 -5.50385 0
M  V30 6628 H 625.779 0.936454 -5.92748 0
M  V30 6629 H 626.849 0.0227421 -4.84895 0
M  V30 6630 N 628.193 1.56834 0.155195 0
M  V30 6631 C 629.123 2.00678 1.19376 0
M  V30 6632 C 630.104 0.884973 1.45266 0
M  V30 6633 O 631.289 1.1522 1.56326 0
M  V30 6634 C 628.419 2.38042 2.5289 0
M  V30 6635 C 627.373 3.53332 2.41538 0
M  V30 6636 C 626.699 3.76485 3.79688 0
M  V30 6637 C 627.999 4.86265 1.9064 0
M  V30 6638 H 629.693 2.87688 0.829232 0
M  V30 6639 H 627.239 1.38407 0.397445 0
M  V30 6640 H 629.192 2.67314 3.25763 0
M  V30 6641 H 627.916 1.4796 2.91162 0
M  V30 6642 H 626.575 3.24213 1.71117 0
M  V30 6643 H 626.223 2.83667 4.15382 0
M  V30 6644 H 625.923 4.54068 3.72956 0
M  V30 6645 H 627.447 4.08174 4.54122 0
M  V30 6646 H 628.861 5.14308 2.53299 0
M  V30 6647 H 627.258 5.67597 1.94818 0
M  V30 6648 H 628.328 4.77184 0.861596 0
M  V30 6649 N 629.671 -0.424282 1.51781 0
M  V30 6650 C 630.917 -1.17434 1.6534 0
M  V30 6651 C 631.25 -1.90549 0.374806 0
M  V30 6652 O 630.525 -1.84145 -0.626179 0
M  V30 6653 C 630.808 -2.18093 2.86544 0
M  V30 6654 C 630.661 -1.48975 4.24413 0
M  V30 6655 C 631.98 -3.18934 3.03264 0
M  V30 6656 H 629.099 -0.425566 0.601716 0
M  V30 6657 H 631.741 -0.461921 1.84299 0
M  V30 6658 H 629.891 -2.78849 2.7051 0
M  V30 6659 H 631.563 -0.914551 4.52143 0
M  V30 6660 H 629.806 -0.791893 4.26511 0
M  V30 6661 H 630.477 -2.22347 5.05238 0
M  V30 6662 H 632.953 -2.68243 3.18096 0
M  V30 6663 H 631.829 -3.86645 3.89611 0
M  V30 6664 H 632.09 -3.85793 2.15908 0
M  V30 6665 N 631.149 -1.42148 -0.680565 0
M  V30 6666 C 632.097 -1.45401 -1.81552 0
M  V30 6667 C 633.091 -0.33036 -1.66147 0
M  V30 6668 O 634.297 -0.503103 -1.72826 0
M  V30 6669 H 630.672 -0.455265 -0.59853 0
M  V30 6670 H 632.643 -2.41024 -1.75926 0
M  V30 6671 C 631.392 -1.36769 -3.19671 0
M  V30 6672 H 630.715 -2.22525 -3.32149 0
M  V30 6673 H 632.155 -1.43106 -3.9912 0
M  V30 6674 C 630.614 -0.0817752 -3.36801 0
M  V30 6675 O 631.144 0.867707 -3.92216 0
M  V30 6676 N 629.35 -0.000799811 -2.906 0
M  V30 6677 H 628.897 -0.774231 -2.4569 0
M  V30 6678 H 628.855 0.858961 -3.02439 0
M  V30 6679 N 632.627 0.916307 -1.28225 0
M  V30 6680 C 633.537 2.05165 -1.13775 0
M  V30 6681 C 634.553 1.73879 -0.0649418 0
M  V30 6682 O 635.729 1.99531 -0.273722 0
M  V30 6683 C 632.794 3.37385 -0.798267 0
M  V30 6684 C 631.855 3.82296 -1.95316 0
M  V30 6685 C 631.088 5.08206 -1.62978 0
M  V30 6686 O 631.311 5.6781 -0.542948 0
M  V30 6687 O 630.245 5.48768 -2.47261 0
M  V30 6688 H 634.071 2.20273 -2.09078 0
M  V30 6689 H 631.656 1.0373 -1.07519 0
M  V30 6690 H 633.538 4.16773 -0.62278 0
M  V30 6691 H 632.213 3.23458 0.125139 0
M  V30 6692 H 631.12 3.03746 -2.18378 0
M  V30 6693 H 632.453 4.00782 -2.85718 0
M  V30 6694 N 634.105 1.10431 1.1244 0
M  V30 6695 C 635.035 0.775143 2.20258 0
M  V30 6696 C 636.016 -0.25186 1.68225 0
M  V30 6697 O 637.201 -0.117637 1.93843 0
M  V30 6698 C 634.331 0.206133 3.46688 0
M  V30 6699 C 633.285 1.16382 4.11873 0
M  V30 6700 C 632.611 0.456014 5.32752 0
M  V30 6701 C 633.911 2.5104 4.58013 0
M  V30 6702 H 635.605 1.67665 2.4805 0
M  V30 6703 H 633.151 0.807595 1.19222 0
M  V30 6704 H 635.104 -0.036291 4.21384 0
M  V30 6705 H 633.828 -0.730614 3.18323 0
M  V30 6706 H 632.487 1.39169 3.39157 0
M  V30 6707 H 632.135 -0.485203 5.00654 0
M  V30 6708 H 631.835 1.09466 5.77314 0
M  V30 6709 H 633.359 0.222135 6.10196 0
M  V30 6710 H 634.773 2.32401 5.24083 0
M  V30 6711 H 633.17 3.10789 5.13352 0
M  V30 6712 H 634.24 3.11039 3.71998 0
M  V30 6713 N 635.583 -1.29855 0.893053 0
M  V30 6714 C 636.533 -2.25493 0.337211 0
M  V30 6715 C 637.517 -1.51606 -0.53894 0
M  V30 6716 O 638.709 -1.72828 -0.382043 0
M  V30 6717 C 635.838 -3.40467 -0.440117 0
M  V30 6718 C 634.924 -4.217 0.450578 0
M  V30 6719 N 635.315 -4.81312 1.55476 0
M  V30 6720 C 633.613 -4.45315 0.247154 0
M  V30 6721 C 634.314 -5.42241 2.10593 0
M  V30 6722 N 633.29 -5.25267 1.39982 0
M  V30 6723 H 637.092 -2.69137 1.18079 0
M  V30 6724 H 634.606 -1.44388 0.743359 0
M  V30 6725 H 636.603 -4.08038 -0.855021 0
M  V30 6726 H 635.263 -2.98361 -1.28104 0
M  V30 6727 H 636.274 -4.80291 1.93755 0
M  V30 6728 H 632.951 -4.13782 -0.555939 0
M  V30 6729 H 634.341 -5.99517 3.03362 0
M  V30 6730 N 637.061 -0.65484 -1.43351 0
M  V30 6731 C 638.338 -0.0987371 -1.95351 0
M  V30 6732 C 638.718 1.38161 -1.59608 0
M  V30 6733 O 638.066 2.10791 -0.882021 0
M  V30 6734 C 638.276 -0.346684 -3.47274 0
M  V30 6735 C 639.624 -0.25249 -4.23849 0
M  V30 6736 O 640.648 -0.279332 -3.55103 0
M  V30 6737 O 639.507 -0.177584 -5.46211 0
M  V30 6738 H 636.601 0.0086829 -0.826954 0
M  V30 6739 H 639.147 -0.728189 -1.53282 0
M  V30 6740 H 637.919 -1.37296 -3.66423 0
M  V30 6741 H 637.542 0.315757 -3.96344 0
M  V30 6742 N 638.539 1.52521 -0.396863 0
M  V30 6743 C 639.785 2.01971 0.183169 0
M  V30 6744 C 640.118 1.2825 1.45827 0
M  V30 6745 O 639.393 0.385179 1.90648 0
M  V30 6746 C 639.676 3.5736 0.443391 0
M  V30 6747 C 639.529 4.41743 -0.84753 0
M  V30 6748 C 640.848 4.22539 1.2308 0
M  V30 6749 H 637.967 0.734119 0.0650976 0
M  V30 6750 H 640.609 1.82519 -0.527918 0
M  V30 6751 H 638.759 3.74066 1.04914 0
M  V30 6752 H 640.431 4.36773 -1.48414 0
M  V30 6753 H 638.674 4.0845 -1.4612 0
M  V30 6754 H 639.345 5.48507 -0.620003 0
M  V30 6755 H 641.821 4.09857 0.718084 0
M  V30 6756 H 640.697 5.31227 1.38162 0
M  V30 6757 H 640.958 3.80675 2.24808 0
M  V30 6758 N 640.017 0.126909 1.57088 0
M  V30 6759 C 640.964 -0.82036 2.15728 0
M  V30 6760 C 641.934 -1.25811 1.08447 0
M  V30 6761 O 643.119 -1.33422 1.36393 0
M  V30 6762 C 640.259 -2.06199 2.76724 0
M  V30 6763 C 639.372 -1.67188 3.98337 0
M  V30 6764 C 638.507 -2.86378 4.47393 0
M  V30 6765 C 637.546 -2.43644 5.61519 0
M  V30 6766 N 636.683 -3.55775 6.05284 0
M  V30 6767 H 641.523 -0.313472 2.96347 0
M  V30 6768 H 639.06 -0.14303 1.46403 0
M  V30 6769 H 641.018 -2.78959 3.10222 0
M  V30 6770 H 639.648 -2.54333 1.98782 0
M  V30 6771 H 638.7 -0.842714 3.70948 0
M  V30 6772 H 640.012 -1.31789 4.81075 0
M  V30 6773 H 639.166 -3.67353 4.82842 0
M  V30 6774 H 637.905 -3.25009 3.63621 0
M  V30 6775 H 636.91 -1.61104 5.25667 0
M  V30 6776 H 638.135 -2.06122 6.47063 0
M  V30 6777 H 636.081 -3.94065 5.24451 0
M  V30 6778 H 635.998 -3.24325 6.82898 0
M  V30 6779 H 637.266 -4.37166 6.45373 0
M  V30 6780 N 641.495 -1.56914 -0.146875 0
M  V30 6781 C 642.405 -2.0154 -1.20079 0
M  V30 6782 C 643.421 -0.930838 -1.47008 0
M  V30 6783 O 644.597 -1.24032 -1.58676 0
M  V30 6784 C 641.662 -2.38715 -2.51428 0
M  V30 6785 C 640.723 -3.6112 -2.32145 0
M  V30 6786 C 639.956 -3.96512 -3.57231 0
M  V30 6787 O 640.179 -3.32566 -4.63418 0
M  V30 6788 O 639.113 -4.89758 -3.49887 0
M  V30 6789 H 642.939 -2.91506 -0.851924 0
M  V30 6790 H 640.524 -1.45106 -0.355607 0
M  V30 6791 H 642.406 -2.63485 -3.28867 0
M  V30 6792 H 641.081 -1.51903 -2.85845 0
M  V30 6793 H 639.988 -3.41536 -1.52656 0
M  V30 6794 H 641.321 -4.48549 -2.02644 0
M  V30 6795 N 642.974 0.416227 -1.52004 0
M  V30 6796 C 644.221 1.16383 -1.65714 0
M  V30 6797 C 644.549 1.9068 -0.383594 0
M  V30 6798 O 643.804 1.85174 0.633185 0
M  V30 6799 C 644.103 2.18923 -2.82502 0
M  V30 6800 C 643.769 1.61485 -4.20991 0
M  V30 6801 C 642.431 1.45545 -4.58661 0
M  V30 6802 C 644.783 1.19468 -5.07323 0
M  V30 6803 C 642.111 0.860937 -5.80349 0
M  V30 6804 C 644.463 0.614386 -6.29609 0
M  V30 6805 C 643.127 0.442056 -6.66035 0
M  V30 6806 H 642.397 0.425875 -0.606392 0
M  V30 6807 H 645.044 0.45199 -1.8609 0
M  V30 6808 H 643.349 2.96225 -2.56433 0
M  V30 6809 H 645.046 2.76628 -2.90307 0
M  V30 6810 H 641.636 1.74873 -3.91302 0
M  V30 6811 H 645.82 1.30596 -4.78809 0
M  V30 6812 H 641.076 0.715372 -6.072 0
M  V30 6813 H 645.25 0.280393 -6.95835 0
M  V30 6814 H 642.877 -0.0207218 -7.60197 0
M  V30 6815 N 644.452 1.42507 0.673017 0
M  V30 6816 C 645.362 1.4853 1.81593 0
M  V30 6817 C 646.378 0.373907 1.69935 0
M  V30 6818 O 647.554 0.625078 1.91454 0
M  V30 6819 C 644.619 1.387 3.17747 0
M  V30 6820 C 643.68 2.60346 3.41348 0
M  V30 6821 C 642.913 2.50975 4.71007 0
M  V30 6822 O 643.136 1.54659 5.49033 0
M  V30 6823 O 642.07 3.41138 4.95892 0
M  V30 6824 H 645.896 2.45001 1.79467 0
M  V30 6825 H 643.481 1.2429 0.82899 0
M  V30 6826 H 645.363 1.35586 3.98992 0
M  V30 6827 H 644.038 0.453555 3.20507 0
M  V30 6828 H 642.945 2.69034 2.59945 0
M  V30 6829 H 644.278 3.52595 3.43421 0
M  V30 6830 N 645.93 -0.909495 1.28709 0
M  V30 6831 C 647.179 -1.65365 1.15487 0
M  V30 6832 C 647.492 -1.93364 -0.294941 0
M  V30 6833 O 648.698 -2.65905 -0.548338 0
M  V30 6834 C 647.154 -2.97923 2.01916 0
M  V30 6835 C 646.762 -2.77556 3.51663 0
M  V30 6836 C 648.506 -3.75814 1.97393 0
M  V30 6837 C 646.413 -4.0578 4.30229 0
M  V30 6838 H 645.343 -0.620323 0.42862 0
M  V30 6839 H 647.994 -1.00894 1.53273 0
M  V30 6840 H 646.376 -3.63552 1.5699 0
M  V30 6841 H 647.55 -2.2058 4.04575 0
M  V30 6842 H 645.865 -2.13072 3.57756 0
M  V30 6843 H 648.462 -4.70866 2.53357 0
M  V30 6844 H 648.805 -4.05277 0.951643 0
M  V30 6845 H 649.338 -3.1701 2.40311 0
M  V30 6846 H 646.077 -3.81488 5.33055 0
M  V30 6847 H 645.597 -4.62351 3.82089 0
M  V30 6848 H 647.276 -4.74004 4.40374 0
M  V30 6849 N 647.408 -1.11026 -1.11852 0
M  V30 6850 C 648.654 -0.857729 -1.83768 0
M  V30 6851 C 648.987 0.615143 -1.842 0
M  V30 6852 O 648.262 1.45391 -1.29196 0
M  V30 6853 C 648.545 -1.41453 -3.31154 0
M  V30 6854 C 648.398 -2.95471 -3.39142 0
M  V30 6855 C 649.717 -1.0619 -4.27097 0
M  V30 6856 H 646.836 -0.313044 -0.667212 0
M  V30 6857 H 649.478 -1.37443 -1.31185 0
M  V30 6858 H 647.628 -0.975052 -3.76065 0
M  V30 6859 H 649.3 -3.4799 -3.02821 0
M  V30 6860 H 647.543 -3.31759 -2.79497 0
M  V30 6861 H 648.214 -3.29515 -4.42859 0
M  V30 6862 H 650.69 -1.44122 -3.90344 0
M  V30 6863 H 649.566 -1.47832 -5.28618 0
M  V30 6864 H 649.827 0.0278912 -4.42091 0
M  V30 6865 N 648.886 1.2938 -0.899927 0
M  V30 6866 C 650.132 1.9584 -0.526742 0
M  V30 6867 C 650.465 1.70774 0.924651 0
M  V30 6868 O 649.74 1.02084 1.65557 0
M  V30 6869 C 650.023 3.50638 -0.820062 0
M  V30 6870 C 649.876 3.85161 -2.32317 0
M  V30 6871 C 651.195 4.3903 -0.30671 0
M  V30 6872 H 648.314 0.711322 -0.192848 0
M  V30 6873 H 650.956 1.52992 -1.12665 0
M  V30 6874 H 649.106 3.87265 -0.309491 0
M  V30 6875 H 650.778 3.58477 -2.9033 0
M  V30 6876 H 649.021 3.32696 -2.78381 0
M  V30 6877 H 649.692 4.93204 -2.47898 0
M  V30 6878 H 652.168 4.09396 -0.743908 0
M  V30 6879 H 651.044 5.46226 -0.541144 0
M  V30 6880 H 651.305 4.34937 0.792588 0
M  V30 6881 N 650.364 0.662433 1.43002 0
M  V30 6882 C 651.604 0.183312 2.03576 0
M  V30 6883 C 651.968 -1.18354 1.51183 0
M  V30 6884 O 653.169 -1.7566 2.03462 0
M  V30 6885 C 651.44 0.202908 3.56824 0
M  V30 6886 S 652.999 -0.20702 4.38311 0
M  V30 6887 H 649.817 0.0765001 0.706872 0
M  V30 6888 H 652.419 0.872827 1.74934 0
M  V30 6889 H 651.123 1.20028 3.92456 0
M  V30 6890 H 650.654 -0.506845 3.90121 0
M  V30 6891 H 652.669 -1.44358 4.74737 0
M  V30 6892 N 651.842 -1.52309 0.404946 0
M  V30 6893 C 653.253 -1.86585 -0.0655926 0
M  V30 6894 C 653.604 -1.3239 -1.44801 0
M  V30 6895 O 652.729 -0.6615 -2.06042 0
M  V30 6896 C 653.324 -3.38566 -0.125801 0
M  V30 6897 C 651.883 -3.72497 -0.540666 0
M  V30 6898 C 651.03 -2.75806 0.287487 0
M  V30 6899 H 653.981 -1.45995 0.622185 0
M  V30 6900 H 654.002 -3.68658 -0.941888 0
M  V30 6901 H 653.514 -3.77981 0.880473 0
M  V30 6902 H 651.615 -3.38659 -1.55373 0
M  V30 6903 H 651.728 -4.78234 -0.287956 0
M  V30 6904 H 650.092 -2.53474 -0.249561 0
M  V30 6905 H 650.875 -3.18059 1.29203 0
M  V30 6906 N 653.32 -0.135238 -1.57019 0
M  V30 6907 C 654.731 0.387521 -1.82634 0
M  V30 6908 C 655.082 1.65528 -1.05332 0
M  V30 6909 O 654.207 2.14381 -0.294926 0
M  V30 6910 C 654.802 0.709852 -3.3128 0
M  V30 6911 C 653.361 1.17718 -3.57518 0
M  V30 6912 C 652.508 0.194183 -2.76619 0
M  V30 6913 H 655.459 -0.360126 -1.5456 0
M  V30 6914 H 655.48 1.5657 -3.46794 0
M  V30 6915 H 654.992 -0.213024 -3.87515 0
M  V30 6916 H 653.093 2.1164 -3.06658 0
M  V30 6917 H 653.206 1.11128 -4.66034 0
M  V30 6918 H 651.57 0.684478 -2.4533 0
M  V30 6919 H 652.353 -0.722076 -3.3562 0
M  V30 6920 N 654.798 1.5699 0.138552 0
M  V30 6921 C 656.045 1.83809 0.849732 0
M  V30 6922 C 656.373 0.717409 1.80786 0
M  V30 6923 O 655.628 -0.292897 1.93496 0
M  V30 6924 C 655.927 3.17007 1.65049 0
M  V30 6925 C 655.593 4.43037 0.838398 0
M  V30 6926 C 654.255 4.77262 0.614385 0
M  V30 6927 C 656.607 5.20495 0.271044 0
M  V30 6928 C 653.935 5.864 -0.187552 0
M  V30 6929 C 656.287 6.30476 -0.517979 0
M  V30 6930 C 654.951 6.63245 -0.75249 0
M  V30 6931 H 654.221 0.672605 0.310939 0
M  V30 6932 H 656.868 1.91166 0.112971 0
M  V30 6933 H 655.173 3.05138 2.4576 0
M  V30 6934 H 656.87 3.34975 2.20437 0
M  V30 6935 H 653.46 4.16211 1.02307 0
M  V30 6936 H 657.644 4.94422 0.431371 0
M  V30 6937 H 652.9 6.10226 -0.378659 0
M  V30 6938 H 657.074 6.89686 -0.964694 0
M  V30 6939 H 654.701 7.47648 -1.37573 0
M  V30 6940 N 656.276 -0.40816 1.52223 0
M  V30 6941 C 657.504 -1.17672 1.70179 0
M  V30 6942 C 657.919 -1.84257 0.411696 0
M  V30 6943 O 657.276 -1.7192 -0.612354 0
M  V30 6944 C 657.327 -2.23911 2.83806 0
M  V30 6945 O 657.048 -1.60044 4.0782 0
M  V30 6946 C 658.549 -3.1364 3.13281 0
M  V30 6947 H 655.769 -0.353562 0.570293 0
M  V30 6948 H 658.313 -0.480083 1.98785 0
M  V30 6949 H 656.468 -2.89242 2.57717 0
M  V30 6950 H 656.882 -2.30484 4.71145 0
M  V30 6951 H 658.356 -3.84255 3.96298 0
M  V30 6952 H 658.833 -3.76066 2.26872 0
M  V30 6953 H 659.439 -2.53977 3.41139 0
M  V30 6954 N 657.755 -1.42862 -0.66545 0
M  V30 6955 C 658.718 -1.46756 -1.76055 0
M  V30 6956 C 659.718 -0.353866 -1.56858 0
M  V30 6957 O 660.908 -0.615099 -1.62979 0
M  V30 6958 C 658.04 -1.30829 -3.14796 0
M  V30 6959 H 659.233 -2.44271 -1.73987 0
M  V30 6960 H 656.786 -1.29447 -0.875965 0
M  V30 6961 H 657.521 -0.342733 -3.22484 0
M  V30 6962 H 657.306 -2.11551 -3.30134 0
M  V30 6963 H 658.796 -1.36458 -3.94676 0
M  V30 6964 N 659.233 0.902656 -1.29189 0
M  V30 6965 C 660.163 2.02294 -1.16616 0
M  V30 6966 C 661.144 1.6999 -0.0611175 0
M  V30 6967 O 662.329 1.9271 -0.240072 0
M  V30 6968 C 659.459 3.37018 -0.83882 0
M  V30 6969 C 658.413 3.83522 -1.89986 0
M  V30 6970 C 657.739 5.15337 -1.42589 0
M  V30 6971 C 659.039 4.04169 -3.30824 0
M  V30 6972 H 660.733 2.13071 -2.10336 0
M  V30 6973 H 658.279 1.02378 -1.01266 0
M  V30 6974 H 660.232 4.14895 -0.737584 0
M  V30 6975 H 658.956 3.26325 0.134071 0
M  V30 6976 H 657.615 3.07859 -1.99043 0
M  V30 6977 H 657.263 5.01056 -0.441759 0
M  V30 6978 H 656.963 5.47423 -2.13547 0
M  V30 6979 H 658.487 5.95758 -1.3381 0
M  V30 6980 H 659.901 4.72537 -3.24626 0
M  V30 6981 H 658.298 4.47604 -3.99713 0
M  V30 6982 H 659.368 3.08604 -3.74021 0
M  V30 6983 N 660.711 1.11618 1.11262 0
M  V30 6984 C 661.936 0.889013 1.8738 0
M  V30 6985 C 662.361 -0.555884 1.79698 0
M  V30 6986 O 661.719 -1.39272 1.16073 0
M  V30 6987 C 661.767 1.35759 3.34069 0
M  V30 6988 O 660.871 0.530499 4.08974 0
M  V30 6989 H 660.212 0.320082 0.581759 0
M  V30 6990 H 662.742 1.48611 1.40627 0
M  V30 6991 H 662.752 1.35291 3.84916 0
M  V30 6992 H 661.427 2.40973 3.38976 0
M  V30 6993 H 660.004 0.601439 3.68018 0
M  V30 6994 N 662.189 -1.289 0.906776 0
M  V30 6995 C 663.099 -2.31256 0.394707 0
M  V30 6996 C 664.115 -1.66231 -0.514121 0
M  V30 6997 O 665.291 -1.97347 -0.401994 0
M  V30 6998 C 662.356 -3.44792 -0.363191 0
M  V30 6999 C 661.417 -4.25391 0.578012 0
M  V30 7000 C 660.65 -5.33506 -0.143811 0
M  V30 7001 O 660.873 -5.53786 -1.36665 0
M  V30 7002 O 659.807 -5.99673 0.5173 0
M  V30 7003 H 663.633 -2.77051 1.24405 0
M  V30 7004 H 661.218 -1.33466 0.671346 0
M  V30 7005 H 663.1 -4.139 -0.791503 0
M  V30 7006 H 661.775 -3.01093 -1.18848 0
M  V30 7007 H 660.682 -3.58899 1.05558 0
M  V30 7008 H 662.015 -4.72752 1.36992 0
M  V30 7009 N 663.667 -0.670007 -1.42649 0
M  V30 7010 C 664.913 -0.190568 -2.01903 0
M  V30 7011 C 665.246 1.19817 -1.52832 0
M  V30 7012 O 664.521 1.80342 -0.728485 0
M  V30 7013 C 664.804 -0.21991 -3.59428 0
M  V30 7014 C 664.657 -1.64376 -4.18689 0
M  V30 7015 C 665.976 0.434519 -4.3795 0
M  V30 7016 H 663.095 -0.0707219 -0.733599 0
M  V30 7017 H 665.737 -0.853883 -1.69732 0
M  V30 7018 H 663.887 0.344894 -3.86966 0
M  V30 7019 H 665.559 -2.26044 -4.02122 0
M  V30 7020 H 663.802 -2.18591 -3.747 0
M  V30 7021 H 664.473 -1.61601 -5.27815 0
M  V30 7022 H 666.949 -0.0462156 -4.16074 0
M  V30 7023 H 665.825 0.38333 -5.4756 0
M  V30 7024 H 666.086 1.51135 -4.15464 0
M  V30 7025 N 665.145 1.52092 -0.413018 0
M  V30 7026 C 666.393 2.01456 0.161178 0
M  V30 7027 C 666.714 1.30034 1.45314 0
M  V30 7028 O 665.984 0.427435 1.9118 0
M  V30 7029 H 664.564 0.744376 0.0625526 0
M  V30 7030 H 667.226 1.86974 -0.550151 0
M  V30 7031 H 666.322 3.1008 0.354517 0
M  V30 7032 N 666.623 0.143563 1.56945 0
M  V30 7033 C 667.533 -0.810562 2.20152 0
M  V30 7034 C 668.549 -1.27431 1.1848 0
M  V30 7035 O 669.725 -1.33221 1.51044 0
M  V30 7036 C 666.79 -2.03353 2.80799 0
M  V30 7037 C 665.851 -1.61936 3.97587 0
M  V30 7038 C 665.084 -2.78403 4.55332 0
M  V30 7039 O 665.307 -3.94521 4.11958 0
M  V30 7040 O 664.241 -2.54073 5.45647 0
M  V30 7041 H 668.067 -0.30253 3.02189 0
M  V30 7042 H 665.652 -0.0832925 1.49168 0
M  V30 7043 H 667.534 -2.74932 3.19359 0
M  V30 7044 H 666.209 -2.53116 2.01777 0
M  V30 7045 H 665.116 -0.873904 3.6375 0
M  V30 7046 H 666.449 -1.16892 4.78118 0
M  V30 7047 N 668.101 -1.57061 -0.130224 0
M  V30 7048 C 669.35 -1.83446 -0.838488 0
M  V30 7049 C 669.663 -0.727468 -1.81569 0
M  V30 7050 O 670.869 -0.877394 -2.56932 0
M  V30 7051 C 669.325 -3.25201 -1.54182 0
M  V30 7052 C 668.933 -4.4388 -0.606178 0
M  V30 7053 C 670.677 -3.60844 -2.23588 0
M  V30 7054 C 668.584 -5.76661 -1.31209 0
M  V30 7055 H 667.514 -0.684185 -0.316871 0
M  V30 7056 H 670.165 -1.83273 -0.0912059 0
M  V30 7057 H 668.547 -3.1981 -2.33533 0
M  V30 7058 H 669.721 -4.60545 0.153308 0
M  V30 7059 H 668.036 -4.16395 -0.0196705 0
M  V30 7060 H 670.633 -4.57313 -2.77072 0
M  V30 7061 H 670.976 -2.87724 -3.00867 0
M  V30 7062 H 671.509 -3.67971 -1.51137 0
M  V30 7063 H 668.248 -6.52922 -0.580823 0
M  V30 7064 H 667.768 -5.63902 -2.04387 0
M  V30 7065 H 669.447 -6.20035 -1.8484 0
M  V30 7066 N 669.579 0.400081 -1.52437 0
M  V30 7067 C 670.509 1.4947 -1.7939 0
M  V30 7068 C 671.49 1.57383 -0.645329 0
M  V30 7069 O 672.675 1.72511 -0.891826 0
M  V30 7070 C 669.805 2.87201 -1.95276 0
M  V30 7071 C 668.759 2.94134 -3.10917 0
M  V30 7072 C 668.085 4.34207 -3.1204 0
M  V30 7073 C 669.385 2.64791 -4.50203 0
M  V30 7074 H 671.079 1.27165 -2.71052 0
M  V30 7075 H 668.625 0.610312 -1.30427 0
M  V30 7076 H 670.578 3.63772 -2.12715 0
M  V30 7077 H 669.302 3.10819 -1.00294 0
M  V30 7078 H 667.961 2.20009 -2.93243 0
M  V30 7079 H 667.609 4.54848 -2.14761 0
M  V30 7080 H 667.309 4.39768 -3.89715 0
M  V30 7081 H 668.833 5.127 -3.31619 0
M  V30 7082 H 670.247 3.31083 -4.68035 0
M  V30 7083 H 668.644 2.81717 -5.29864 0
M  V30 7084 H 669.714 1.60184 -4.57678 0
M  V30 7085 N 671.057 1.43213 0.657864 0
M  V30 7086 C 672.282 1.48227 1.45064 0
M  V30 7087 C 672.707 0.0999939 1.87834 0
M  V30 7088 O 672.065 -0.905269 1.57081 0
M  V30 7089 C 672.113 2.42931 2.6649 0
M  V30 7090 O 671.217 1.91237 3.6538 0
M  V30 7091 H 670.558 0.501551 0.435135 0
M  V30 7092 H 673.088 1.8808 0.805431 0
M  V30 7093 H 673.098 2.6008 3.1436 0
M  V30 7094 H 671.773 3.43348 2.34701 0
M  V30 7095 H 670.35 1.83726 3.24498 0
M  V30 7096 N 672.536 -0.895792 1.29666 0
M  V30 7097 C 673.784 -1.64339 1.17631 0
M  V30 7098 C 674.105 -1.93099 -0.271643 0
M  V30 7099 O 673.375 -1.55981 -1.18518 0
M  V30 7100 H 671.955 -0.609162 0.432354 0
M  V30 7101 H 674.617 -1.07389 1.62646 0
M  V30 7102 H 673.713 -2.59815 1.72924 0
M  V30 7103 N 674.014 -1.12206 -1.10668 0
M  V30 7104 C 675.43 -0.857619 -1.346 0
M  V30 7105 C 675.63 0.513542 -1.94846 0
M  V30 7106 O 674.686 1.26273 -2.18658 0
M  V30 7107 C 675.999 -1.97212 -2.26998 0
M  V30 7108 C 677.547 -2.00272 -2.40542 0
M  V30 7109 C 678.022 -3.10948 -3.36267 0
M  V30 7110 N 679.513 -3.10375 -3.43834 0
M  V30 7111 C 680.248 -3.92651 -4.17867 0
M  V30 7112 N 679.744 -4.84911 -4.94807 0
M  V30 7113 N 681.537 -3.80798 -4.1346 0
M  V30 7114 H 673.688 -2.00558 -0.699306 0
M  V30 7115 H 675.951 -0.872612 -0.370477 0
M  V30 7116 H 675.657 -2.96002 -1.89936 0
M  V30 7117 H 675.531 -1.87521 -3.27286 0
M  V30 7118 H 677.918 -1.02103 -2.76874 0
M  V30 7119 H 677.999 -2.14037 -1.40077 0
M  V30 7120 H 677.643 -4.09348 -3.00661 0
M  V30 7121 H 677.573 -2.94421 -4.36605 0
M  V30 7122 H 680.064 -2.43536 -2.88961 0
M  V30 7123 H 680.377 -5.44207 -5.48688 0
M  V30 7124 H 678.722 -4.88926 -4.93939 0
M  V30 7125 H 681.913 -3.08058 -3.52445 0
M  V30 7126 H 682.086 -4.4515 -4.70898 0
M  V30 7127 N 675.492 1.28418 -0.913599 0
M  V30 7128 C 676.44 2.29272 -0.392037 0
M  V30 7129 C 677.434 1.61344 0.516198 0
M  V30 7130 O 678.64 1.75557 0.39746 0
M  V30 7131 H 675.015 0.744178 -0.108178 0
M  V30 7132 H 676.986 2.70691 -1.25574 0
M  V30 7133 C 675.735 3.45905 0.352815 0
M  V30 7134 H 675.058 3.98378 -0.336848 0
M  V30 7135 H 676.498 4.18473 0.682398 0
M  V30 7136 C 674.957 2.98572 1.56065 0
M  V30 7137 O 675.487 3.01033 2.65974 0
M  V30 7138 N 673.693 2.54235 1.40759 0
M  V30 7139 H 673.24 2.52432 0.513403 0
M  V30 7140 H 673.198 2.22925 2.21702 0
M  V30 7141 N 676.97 0.677563 1.42291 0
M  V30 7142 C 678.219 0.198173 2.00724 0
M  V30 7143 C 678.532 -1.20325 1.54211 0
M  V30 7144 O 679.738 -1.77916 2.05081 0
M  V30 7145 C 678.194 0.303432 3.58619 0
M  V30 7146 C 677.802 1.70909 4.14119 0
M  V30 7147 C 679.546 -0.117103 4.24338 0
M  V30 7148 C 677.453 1.76696 5.64387 0
M  V30 7149 H 676.383 0.070329 0.750713 0
M  V30 7150 H 679.034 0.843147 1.62982 0
M  V30 7151 H 677.416 -0.409482 3.93877 0
M  V30 7152 H 678.59 2.44931 3.90315 0
M  V30 7153 H 676.905 2.07771 3.6086 0
M  V30 7154 H 679.502 -0.0940471 5.34617 0
M  V30 7155 H 679.845 -1.15283 4.00019 0
M  V30 7156 H 680.378 0.5449 3.9405 0
M  V30 7157 H 677.117 2.7826 5.93508 0
M  V30 7158 H 676.637 1.07034 5.90173 0
M  V30 7159 H 678.316 1.52166 6.28852 0
M  V30 7160 N 678.448 -1.51871 0.421078 0
M  V30 7161 C 679.395 -2.27334 -0.398508 0
M  V30 7162 C 680.365 -1.30241 -1.03085 0
M  V30 7163 O 681.55 -1.59121 -1.05285 0
M  V30 7164 C 678.69 -3.10664 -1.50272 0
M  V30 7165 C 677.803 -4.2273 -0.890122 0
M  V30 7166 C 676.938 -4.93399 -1.96803 0
M  V30 7167 C 675.977 -5.97409 -1.333 0
M  V30 7168 N 675.114 -6.61548 -2.35156 0
M  V30 7169 H 679.954 -2.96938 0.251411 0
M  V30 7170 H 677.491 -1.46472 0.135825 0
M  V30 7171 H 679.449 -3.57292 -2.15403 0
M  V30 7172 H 678.079 -2.43207 -2.1225 0
M  V30 7173 H 677.131 -3.80186 -0.127537 0
M  V30 7174 H 678.443 -4.97302 -0.386349 0
M  V30 7175 H 677.597 -5.43491 -2.69633 0
M  V30 7176 H 676.336 -4.18421 -2.50549 0
M  V30 7177 H 675.341 -5.46624 -0.59008 0
M  V30 7178 H 676.566 -6.74335 -0.803076 0
M  V30 7179 H 674.512 -5.89394 -2.88012 0
M  V30 7180 H 674.429 -7.31832 -1.89624 0
M  V30 7181 H 675.697 -7.16276 -3.0752 0
M  V30 7182 N 679.926 -0.151884 -1.56866 0
M  V30 7183 C 680.856 0.781943 -2.20018 0
M  V30 7184 C 681.837 1.25347 -1.14987 0
M  V30 7185 O 683.022 1.31015 -1.43348 0
M  V30 7186 C 680.152 2.01928 -2.82564 0
M  V30 7187 C 679.106 1.68434 -3.93464 0
M  V30 7188 C 678.432 2.99472 -4.42968 0
M  V30 7189 C 679.732 0.927244 -5.14003 0
M  V30 7190 H 681.426 0.255607 -2.98307 0
M  V30 7191 H 678.972 0.121502 -1.43486 0
M  V30 7192 H 680.925 2.67741 -3.25411 0
M  V30 7193 H 679.649 2.56943 -2.01614 0
M  V30 7194 H 678.308 1.04998 -3.51242 0
M  V30 7195 H 677.956 3.52488 -3.58834 0
M  V30 7196 H 677.656 2.77823 -5.17772 0
M  V30 7197 H 679.18 3.66348 -4.88489 0
M  V30 7198 H 680.594 1.48756 -5.53665 0
M  V30 7199 H 678.991 0.810513 -5.94601 0
M  V30 7200 H 680.061 -0.0801163 -4.84834 0
M  V30 7201 N 681.404 1.57128 0.121893 0
M  V30 7202 C 682.652 1.84335 0.828548 0
M  V30 7203 C 682.973 0.736632 1.80551 0
M  V30 7204 O 682.243 -0.23962 1.94429 0
M  V30 7205 H 680.823 0.680108 0.30897 0
M  V30 7206 H 683.485 1.9459 0.109906 0
M  V30 7207 H 682.581 2.80152 1.37554 0
M  V30 7208 N 682.882 -0.391992 1.52647 0
M  V30 7209 C 683.845 -1.46135 1.7657 0
M  V30 7210 C 684.845 -1.47701 0.635698 0
M  V30 7211 O 686.035 -1.48924 0.903728 0
M  V30 7212 C 683.167 -2.85443 1.86374 0
M  V30 7213 H 684.36 -1.26208 2.72051 0
M  V30 7214 H 681.913 -0.623549 1.43323 0
M  V30 7215 H 682.648 -3.10718 0.928685 0
M  V30 7216 H 682.433 -2.85708 2.68539 0
M  V30 7217 H 683.923 -3.62933 2.06566 0
M  V30 7218 N 684.36 -1.4356 -0.65026 0
M  V30 7219 C 685.292 -1.44918 -1.77571 0
M  V30 7220 C 686.305 -0.344925 -1.59104 0
M  V30 7221 O 687.494 -0.609537 -1.6777 0
M  V30 7222 C 684.594 -1.24914 -3.15039 0
M  V30 7223 C 683.767 -2.48232 -3.60138 0
M  V30 7224 C 682.826 -2.23409 -4.76419 0
M  V30 7225 O 681.852 -2.9678 -4.85706 0
M  V30 7226 N 683.054 -1.25259 -5.66825 0
M  V30 7227 H 685.819 -2.41935 -1.76883 0
M  V30 7228 H 683.38 -1.38754 -0.834202 0
M  V30 7229 H 685.372 -1.06185 -3.90521 0
M  V30 7230 H 683.942 -0.363319 -3.10481 0
M  V30 7231 H 683.162 -2.82366 -2.75069 0
M  V30 7232 H 684.45 -3.30296 -3.87017 0
M  V30 7233 H 683.848 -0.646246 -5.61997 0
M  V30 7234 H 682.405 -1.12513 -6.42016 0
M  V30 7235 N 685.838 0.888903 -1.30139 0
M  V30 7236 C 686.786 2.0156 -1.16088 0
M  V30 7237 C 687.78 1.69239 -0.0737413 0
M  V30 7238 O 688.986 1.78468 -0.234313 0
M  V30 7239 H 685.361 0.660825 -0.358907 0
M  V30 7240 H 687.332 2.10547 -2.11453 0
M  V30 7241 C 686.081 3.36758 -0.865426 0
M  V30 7242 H 685.404 3.62137 -1.69402 0
M  V30 7243 H 686.844 4.16246 -0.807192 0
M  V30 7244 C 685.303 3.34124 0.431577 0
M  V30 7245 O 685.833 3.7445 1.45431 0
M  V30 7246 N 684.039 2.87229 0.441321 0
M  V30 7247 H 683.586 2.54609 -0.391433 0
M  V30 7248 H 683.544 2.8585 1.30909 0
M  V30 7249 N 687.317 1.12792 1.10072 0
M  V30 7250 C 688.563 0.886857 1.82381 0
M  V30 7251 C 688.896 -0.58576 1.85155 0
M  V30 7252 O 688.171 -1.43317 1.31493 0
M  V30 7253 C 688.454 1.46703 3.28862 0
M  V30 7254 C 688.307 3.00829 3.34398 0
M  V30 7255 C 689.626 1.12971 4.25353 0
M  V30 7256 H 686.745 0.32362 0.662148 0
M  V30 7257 H 689.387 1.39513 1.28982 0
M  V30 7258 H 687.537 1.03476 3.74466 0
M  V30 7259 H 689.209 3.52764 2.97247 0
M  V30 7260 H 687.452 3.36164 2.74183 0
M  V30 7261 H 688.123 3.36519 4.3756 0
M  V30 7262 H 690.599 1.50313 3.88001 0
M  V30 7263 H 689.475 1.56223 5.26199 0
M  V30 7264 H 689.736 0.0424452 4.4208 0
M  V30 7265 N 688.795 -1.27931 0.920396 0
M  V30 7266 C 690.042 -1.94689 0.557007 0
M  V30 7267 C 690.37 -1.724 -0.900476 0
M  V30 7268 O 689.625 -1.04194 -1.65657 0
M  V30 7269 C 689.924 -3.47853 0.820558 0
M  V30 7270 C 689.59 -3.90252 2.25863 0
M  V30 7271 C 688.252 -4.01539 2.65179 0
M  V30 7272 C 690.604 -4.11853 3.19415 0
M  V30 7273 C 687.932 -4.3181 3.97187 0
M  V30 7274 C 690.284 -4.43606 4.50995 0
M  V30 7275 C 688.948 -4.53105 4.90155 0
M  V30 7276 H 688.218 -0.712416 0.203823 0
M  V30 7277 H 690.865 -1.52142 1.16298 0
M  V30 7278 H 689.17 -3.91578 0.131844 0
M  V30 7279 H 690.867 -3.97634 0.51847 0
M  V30 7280 H 687.457 -3.81999 1.94358 0
M  V30 7281 H 691.641 -4.0258 2.90246 0
M  V30 7282 H 686.897 -4.37371 4.2722 0
M  V30 7283 H 691.071 -4.59268 5.23494 0
M  V30 7284 H 688.698 -4.76315 5.92476 0
M  V30 7285 N 690.273 -0.685099 -1.4193 0
M  V30 7286 C 691.503 -0.220052 -2.05425 0
M  V30 7287 C 691.911 1.13185 -1.51611 0
M  V30 7288 O 691.254 1.71631 -0.654875 0
M  V30 7289 C 691.316 -0.0888364 -3.5939 0
M  V30 7290 C 690.98 -1.37109 -4.35947 0
M  V30 7291 C 691.977 -2.30675 -4.65924 0
M  V30 7292 C 689.662 -1.62155 -4.75406 0
M  V30 7293 C 691.656 -3.47556 -5.34306 0
M  V30 7294 C 689.343 -2.79324 -5.43527 0
M  V30 7295 C 690.341 -3.71848 -5.72903 0
M  V30 7296 O 690.029 -4.86966 -6.39624 0
M  V30 7297 H 689.761 -0.102165 -0.668235 0
M  V30 7298 H 692.315 -0.935194 -1.82875 0
M  V30 7299 H 690.545 0.681981 -3.80639 0
M  V30 7300 H 692.234 0.337669 -4.04493 0
M  V30 7301 H 693 -2.12579 -4.3593 0
M  V30 7302 H 688.879 -0.910053 -4.51928 0
M  V30 7303 H 692.423 -4.19794 -5.57153 0
M  V30 7304 H 688.32 -2.97342 -5.72938 0
M  V30 7305 H 689.088 -4.86644 -6.58118 0
M  V30 7306 N 691.751 1.51645 -0.429126 0
M  V30 7307 C 692.661 2.31288 0.392809 0
M  V30 7308 C 693.677 1.39852 1.03525 0
M  V30 7309 O 694.853 1.72926 1.03241 0
M  V30 7310 C 691.918 3.13347 1.48372 0
M  V30 7311 C 690.979 4.20551 0.862268 0
M  V30 7312 C 690.212 4.98688 1.9012 0
M  V30 7313 O 690.435 4.77359 3.12225 0
M  V30 7314 O 689.369 5.83005 1.4963 0
M  V30 7315 H 693.195 3.02609 -0.257138 0
M  V30 7316 H 690.78 1.48163 -0.191851 0
M  V30 7317 H 692.662 3.64387 2.1166 0
M  V30 7318 H 691.337 2.44799 2.1179 0
M  V30 7319 H 690.244 3.73609 0.191568 0
M  V30 7320 H 691.577 4.91449 0.271704 0
M  V30 7321 N 693.229 0.160201 1.56784 0
M  V30 7322 C 694.506 -0.533355 1.88188 0
M  V30 7323 C 694.886 -1.82072 1.06831 0
M  V30 7324 O 694.234 -2.27946 0.158959 0
M  V30 7325 C 694.444 -0.786034 3.40033 0
M  V30 7326 C 695.792 -1.12097 4.09536 0
M  V30 7327 O 696.816 -0.874949 3.45287 0
M  V30 7328 O 695.675 -1.58457 5.23023 0
M  V30 7329 H 692.769 -0.273589 0.780434 0
M  V30 7330 H 695.315 0.197803 1.68543 0
M  V30 7331 H 694.087 0.124515 3.91102 0
M  V30 7332 H 693.71 -1.57091 3.65251 0
M  V30 7333 N 694.707 -1.5719 -0.113559 0
M  V30 7334 C 695.639 -1.97393 -1.16484 0
M  V30 7335 C 696.652 -0.873964 -1.37352 0
M  V30 7336 O 697.841 -1.15222 -1.36331 0
M  V30 7337 C 694.941 -2.26174 -2.52386 0
M  V30 7338 C 694.114 -3.57479 -2.52046 0
M  V30 7339 C 693.173 -3.74409 -3.69735 0
M  V30 7340 O 692.199 -4.46463 -3.53071 0
M  V30 7341 N 693.401 -3.13588 -4.88511 0
M  V30 7342 H 696.166 -2.88184 -0.822814 0
M  V30 7343 H 693.727 -1.59044 -0.302769 0
M  V30 7344 H 695.719 -2.3471 -3.29687 0
M  V30 7345 H 694.289 -1.41483 -2.7875 0
M  V30 7346 H 693.509 -3.60081 -1.60421 0
M  V30 7347 H 694.797 -4.43775 -2.48881 0
M  V30 7348 H 694.195 -2.55026 -5.04953 0
M  V30 7349 H 692.752 -3.27637 -5.63469 0
M  V30 7350 N 696.185 0.383891 -1.52853 0
M  V30 7351 C 697.433 1.12619 -1.67814 0
M  V30 7352 C 697.754 1.90354 -0.423141 0
M  V30 7353 O 697.024 1.87649 0.562554 0
M  V30 7354 H 695.604 0.418738 -0.618601 0
M  V30 7355 H 698.266 0.43495 -1.89985 0
M  V30 7356 H 697.362 1.82624 -2.5309 0
M  V30 7357 N 697.663 1.43903 0.642637 0
M  V30 7358 C 698.626 1.49538 1.73698 0
M  V30 7359 C 699.626 0.378776 1.56275 0
M  V30 7360 O 700.816 0.64095 1.6198 0
M  V30 7361 C 697.948 1.35821 3.12675 0
M  V30 7362 H 699.141 2.47008 1.70079 0
M  V30 7363 H 696.694 1.30824 0.85526 0
M  V30 7364 H 697.429 0.393994 3.21898 0
M  V30 7365 H 697.214 2.16776 3.26727 0
M  V30 7366 H 698.704 1.4272 3.92455 0
M  V30 7367 N 699.141 -0.881989 1.30609 0
M  V30 7368 C 700.388 -1.63405 1.19604 0
M  V30 7369 C 700.716 -1.92905 -0.248574 0
M  V30 7370 O 699.971 -1.55062 -1.19391 0
M  V30 7371 C 700.27 -2.97999 1.97311 0
M  V30 7372 C 699.936 -2.88039 3.46907 0
M  V30 7373 C 698.598 -2.85029 3.877 0
M  V30 7374 C 700.95 -2.75948 4.42156 0
M  V30 7375 C 698.278 -2.67772 5.2203 0
M  V30 7376 C 700.63 -2.60228 5.76597 0
M  V30 7377 C 699.294 -2.55595 6.16626 0
M  V30 7378 H 698.564 -0.597941 0.437662 0
M  V30 7379 H 701.211 -1.02524 1.61744 0
M  V30 7380 H 699.516 -3.62847 1.47815 0
M  V30 7381 H 701.213 -3.55156 1.86186 0
M  V30 7382 H 697.803 -2.91192 3.14492 0
M  V30 7383 H 701.987 -2.77337 4.1158 0
M  V30 7384 H 697.243 -2.62601 5.52133 0
M  V30 7385 H 701.417 -2.49847 6.50038 0
M  V30 7386 H 699.044 -2.41981 7.20659 0
M  V30 7387 N 700.619 -1.13374 -1.09472 0
M  V30 7388 C 701.847 -0.918351 -1.85402 0
M  V30 7389 C 702.262 0.53281 -1.81126 0
M  V30 7390 O 701.619 1.36879 -1.20708 0
M  V30 7391 C 701.67 -1.39743 -3.33398 0
M  V30 7392 O 701.391 -2.79172 -3.37631 0
M  V30 7393 C 702.892 -1.22042 -4.2617 0
M  V30 7394 H 700.112 -0.327511 -0.585643 0
M  V30 7395 H 702.656 -1.50617 -1.38328 0
M  V30 7396 H 700.811 -0.852619 -3.77901 0
M  V30 7397 H 701.225 -3.00428 -4.29934 0
M  V30 7398 H 702.699 -1.60438 -5.2817 0
M  V30 7399 H 703.176 -0.162047 -4.38901 0
M  V30 7400 H 703.782 -1.75323 -3.87482 0
M  V30 7401 N 702.098 1.27442 -0.927168 0
M  V30 7402 C 703.346 1.94007 -0.566203 0
M  V30 7403 C 703.667 1.7323 0.895345 0
M  V30 7404 O 702.937 1.07973 1.63459 0
M  V30 7405 H 701.517 0.717917 -0.206409 0
M  V30 7406 H 704.179 1.55161 -1.17945 0
M  V30 7407 H 703.275 3.02401 -0.772028 0
M  V30 7408 N 703.576 0.692616 1.41565 0
M  V30 7409 C 704.486 0.0258451 2.34586 0
M  V30 7410 C 705.502 -0.769324 1.56069 0
M  V30 7411 O 706.678 -0.707563 1.88562 0
M  V30 7412 C 703.743 -0.901289 3.3478 0
M  V30 7413 C 702.804 -0.0986579 4.29187 0
M  V30 7414 C 702.037 -0.981634 5.24595 0
M  V30 7415 O 702.26 -2.22115 5.25377 0
M  V30 7416 O 701.194 -0.432892 6.00341 0
M  V30 7417 H 705.02 0.792537 2.93177 0
M  V30 7418 H 702.605 0.452935 1.42369 0
M  V30 7419 H 704.487 -1.43302 3.96286 0
M  V30 7420 H 703.162 -1.64752 2.78637 0
M  V30 7421 H 702.069 0.477604 3.71039 0
M  V30 7422 H 703.402 0.608848 4.8842 0
M  V30 7423 N 705.054 -1.51416 0.437162 0
M  V30 7424 C 706.303 -2.01275 -0.130865 0
M  V30 7425 C 706.616 -1.32593 -1.438 0
M  V30 7426 O 707.822 -1.7342 -2.08897 0
M  V30 7427 C 706.278 -3.5878 -0.283763 0
M  V30 7428 C 705.886 -4.36399 1.01293 0
M  V30 7429 C 707.63 -4.16786 -0.805569 0
M  V30 7430 C 705.537 -5.85608 0.825687 0
M  V30 7431 H 704.467 -0.752157 -0.0526818 0
M  V30 7432 H 707.118 -1.74524 0.566896 0
M  V30 7433 H 705.5 -3.81976 -1.04452 0
M  V30 7434 H 706.674 -4.24948 1.78201 0
M  V30 7435 H 704.989 -3.89843 1.46326 0
M  V30 7436 H 707.586 -5.25972 -0.962146 0
M  V30 7437 H 707.929 -3.75949 -1.78796 0
M  V30 7438 H 708.462 -3.97666 -0.103125 0
M  V30 7439 H 705.201 -6.30857 1.78045 0
M  V30 7440 H 704.721 -5.99723 0.0964029 0
M  V30 7441 H 706.4 -6.45226 0.478815 0
M  V30 7442 N 706.532 -0.168513 -1.56696 0
M  V30 7443 C 707.757 0.486688 -2.01609 0
M  V30 7444 C 708.182 1.56203 -1.04796 0
M  V30 7445 O 707.54 1.8128 -0.0270596 0
M  V30 7446 C 707.588 1.04451 -3.45141 0
M  V30 7447 O 706.692 2.15862 -3.51393 0
M  V30 7448 H 706.033 0.116831 -0.653641 0
M  V30 7449 H 708.563 -0.271579 -2.0279 0
M  V30 7450 H 708.573 1.36782 -3.84389 0
M  V30 7451 H 707.248 0.257155 -4.15104 0
M  V30 7452 H 705.825 1.84597 -3.24004 0
M  V30 7453 N 708.01 1.57248 0.105221 0
M  V30 7454 C 709.421 1.74612 0.660865 0
M  V30 7455 C 709.772 0.789231 1.79626 0
M  V30 7456 O 708.897 -0.0346611 2.16372 0
M  V30 7457 C 709.492 3.16624 1.20559 0
M  V30 7458 C 708.051 3.35447 1.7074 0
M  V30 7459 C 707.198 2.70445 0.612764 0
M  V30 7460 H 710.149 1.5824 -0.12079 0
M  V30 7461 H 710.17 3.18937 2.07508 0
M  V30 7462 H 709.682 3.86245 0.379012 0
M  V30 7463 H 707.783 2.7089 2.5583 0
M  V30 7464 H 707.896 4.43702 1.80736 0
M  V30 7465 H 706.26 2.32061 1.04975 0
M  V30 7466 H 707.043 3.42699 -0.203066 0
M  V30 7467 N 709.488 -0.375779 1.53054 0
M  V30 7468 C 710.418 -1.46598 1.81745 0
M  V30 7469 C 711.399 -1.56337 0.670286 0
M  V30 7470 O 712.584 -1.71071 0.919158 0
M  V30 7471 C 709.714 -2.84058 1.99821 0
M  V30 7472 C 708.668 -2.8915 3.15557 0
M  V30 7473 C 707.994 -4.29187 3.18908 0
M  V30 7474 C 709.294 -2.57595 4.54359 0
M  V30 7475 H 710.988 -1.22837 2.73041 0
M  V30 7476 H 708.534 -0.589485 1.31381 0
M  V30 7477 H 710.487 -3.60342 2.18475 0
M  V30 7478 H 709.211 -3.09184 1.05226 0
M  V30 7479 H 707.87 -2.15316 2.96706 0
M  V30 7480 H 707.518 -4.51374 2.2197 0
M  V30 7481 H 707.218 -4.33512 3.96662 0
M  V30 7482 H 708.742 -5.07359 3.39734 0
M  V30 7483 H 710.156 -3.23595 4.73243 0
M  V30 7484 H 708.553 -2.73252 5.34279 0
M  V30 7485 H 709.623 -1.52882 4.60169 0
M  V30 7486 N 710.966 -1.44241 -0.634997 0
M  V30 7487 C 711.899 -1.45274 -1.75985 0
M  V30 7488 C 712.877 -0.312025 -1.59578 0
M  V30 7489 O 714.061 -0.508409 -1.81514 0
M  V30 7490 C 711.188 -1.28173 -3.13511 0
M  V30 7491 C 710.234 -2.45757 -3.48576 0
M  V30 7492 S 711.067 -4.08293 -3.46492 0
M  V30 7493 C 712.223 -3.93608 -4.86645 0
M  V30 7494 H 712.456 -2.40454 -1.74841 0
M  V30 7495 H 709.989 -1.31492 -0.809268 0
M  V30 7496 H 711.947 -1.18993 -3.92875 0
M  V30 7497 H 710.608 -0.34511 -3.12198 0
M  V30 7498 H 709.801 -2.29644 -4.48642 0
M  V30 7499 H 709.403 -2.51657 -2.76667 0
M  V30 7500 H 711.695 -3.57059 -5.75774 0
M  V30 7501 H 712.638 -4.9349 -5.07813 0
M  V30 7502 H 713.046 -3.25737 -4.61038 0
M  V30 7503 N 712.444 0.87505 -1.31075 0
M  V30 7504 C 713.374 1.99775 -1.20881 0
M  V30 7505 C 714.355 1.69822 -0.0971612 0
M  V30 7506 O 715.54 1.92158 -0.280895 0
M  V30 7507 C 712.67 3.35163 -0.910118 0
M  V30 7508 C 711.624 3.79406 -1.98078 0
M  V30 7509 C 710.95 5.12197 -1.53488 0
M  V30 7510 C 712.25 3.97061 -3.39323 0
M  V30 7511 H 713.944 2.08562 -2.14808 0
M  V30 7512 H 711.49 1.00207 -1.03415 0
M  V30 7513 H 713.443 4.13237 -0.825423 0
M  V30 7514 H 712.167 3.26536 0.064822 0
M  V30 7515 H 710.826 3.03568 -2.05528 0
M  V30 7516 H 710.474 5.00007 -0.547941 0
M  V30 7517 H 710.174 5.4277 -2.2511 0
M  V30 7518 H 711.698 5.92785 -1.46417 0
M  V30 7519 H 713.112 4.65545 -3.34576 0
M  V30 7520 H 711.509 4.39025 -4.09118 0
M  V30 7521 H 712.579 3.00601 -3.80483 0
M  V30 7522 N 713.922 1.13953 1.08869 0
M  V30 7523 C 714.854 0.779906 2.15523 0
M  V30 7524 C 715.867 -0.20102 1.61554 0
M  V30 7525 O 717.056 0.0200049 1.78489 0
M  V30 7526 C 714.156 0.136226 3.38626 0
M  V30 7527 C 713.329 1.15069 4.21993 0
M  V30 7528 C 712.388 0.531645 5.23507 0
M  V30 7529 O 711.414 1.19327 5.56552 0
M  V30 7530 N 712.616 -0.693734 5.7634 0
M  V30 7531 H 715.381 1.69769 2.46979 0
M  V30 7532 H 712.942 1.03331 1.24637 0
M  V30 7533 H 714.934 -0.290295 4.03658 0
M  V30 7534 H 713.504 -0.684603 3.05011 0
M  V30 7535 H 712.724 1.75431 3.53012 0
M  V30 7536 H 714.012 1.83614 4.74514 0
M  V30 7537 H 713.41 -1.24994 5.51718 0
M  V30 7538 H 711.967 -1.06283 6.43076 0
M  V30 7539 N 715.4 -1.26948 0.933913 0
M  V30 7540 C 716.31 -2.30366 0.443671 0
M  V30 7541 C 717.326 -1.67284 -0.478745 0
M  V30 7542 O 718.502 -1.98156 -0.360043 0
M  V30 7543 C 715.567 -3.45485 -0.289974 0
M  V30 7544 C 714.628 -4.24069 0.668114 0
M  V30 7545 C 713.861 -5.33691 -0.0306138 0
M  V30 7546 O 714.084 -5.5656 -1.24888 0
M  V30 7547 O 713.018 -5.98441 0.644384 0
M  V30 7548 H 716.844 -2.74349 1.30254 0
M  V30 7549 H 714.429 -1.32012 0.699506 0
M  V30 7550 H 716.311 -4.15486 -0.70353 0
M  V30 7551 H 714.986 -3.03546 -1.12435 0
M  V30 7552 H 713.893 -3.56579 1.13147 0
M  V30 7553 H 715.226 -4.69739 1.46989 0
M  V30 7554 N 716.879 -0.700114 -1.41195 0
M  V30 7555 C 718.128 -0.230082 -2.00383 0
M  V30 7556 C 718.441 1.17857 -1.56106 0
M  V30 7557 O 719.647 1.74631 -2.07885 0
M  V30 7558 C 718.103 -0.360447 -3.5809 0
M  V30 7559 C 717.711 -1.77475 -4.11347 0
M  V30 7560 C 719.455 0.0495799 -4.24471 0
M  V30 7561 C 717.362 -1.85653 -5.61504 0
M  V30 7562 H 716.292 -0.0822633 -0.749499 0
M  V30 7563 H 718.943 -0.868969 -1.6162 0
M  V30 7564 H 717.325 0.346768 -3.94479 0
M  V30 7565 H 718.499 -2.51109 -3.86369 0
M  V30 7566 H 716.814 -2.13486 -3.57509 0
M  V30 7567 H 719.411 0.00898219 -5.34699 0
M  V30 7568 H 719.754 1.08904 -4.01803 0
M  V30 7569 H 720.287 -0.607521 -3.93134 0
M  V30 7570 H 717.026 -2.87667 -5.89006 0
M  V30 7571 H 716.546 -1.1641 -5.88395 0
M  V30 7572 H 718.225 -1.62151 -6.26351 0
M  V30 7573 N 718.357 1.51182 -0.445186 0
M  V30 7574 C 719.605 2.01753 0.11841 0
M  V30 7575 C 719.926 1.33087 1.42523 0
M  V30 7576 O 719.196 0.467891 1.9023 0
M  V30 7577 H 717.776 0.745536 0.0467492 0
M  V30 7578 H 720.438 1.85765 -0.589688 0
M  V30 7579 H 719.534 3.10762 0.288665 0
M  V30 7580 N 719.835 0.176821 1.56605 0
M  V30 7581 C 721.081 -0.467406 1.9734 0
M  V30 7582 C 721.414 -1.62523 1.06301 0
M  V30 7583 O 720.689 -1.94182 0.11125 0
M  V30 7584 C 720.972 -0.945106 3.47476 0
M  V30 7585 C 720.825 0.213273 4.49294 0
M  V30 7586 C 722.144 -1.8169 4.00845 0
M  V30 7587 H 719.263 -0.168426 0.717497 0
M  V30 7588 H 721.905 0.264065 1.88156 0
M  V30 7589 H 720.055 -1.56841 3.55434 0
M  V30 7590 H 721.727 0.850508 4.53392 0
M  V30 7591 H 719.97 0.867918 4.25029 0
M  V30 7592 H 720.641 -0.163187 5.51759 0
M  V30 7593 H 723.117 -1.29139 3.95553 0
M  V30 7594 H 721.993 -2.12015 5.06301 0
M  V30 7595 H 722.254 -2.76463 3.44994 0
M  V30 7596 N 721.313 -1.57302 -0.09688 0
M  V30 7597 C 722.223 -2.05258 -1.13606 0
M  V30 7598 C 723.239 -0.977137 -1.43972 0
M  V30 7599 O 724.415 -1.29018 -1.54649 0
M  V30 7600 C 721.48 -2.46593 -2.43706 0
M  V30 7601 C 720.541 -3.68322 -2.20538 0
M  V30 7602 C 719.774 -4.07676 -3.44435 0
M  V30 7603 O 719.997 -3.47141 -4.52603 0
M  V30 7604 O 718.931 -5.00641 -3.34129 0
M  V30 7605 H 722.757 -2.94069 -0.758752 0
M  V30 7606 H 720.342 -1.46164 -0.309263 0
M  V30 7607 H 722.224 -2.73814 -3.20318 0
M  V30 7608 H 720.899 -1.6092 -2.80867 0
M  V30 7609 H 719.806 -3.4622 -1.41713 0
M  V30 7610 H 721.139 -4.54769 -1.88271 0
M  V30 7611 N 722.791 0.367657 -1.53252 0
M  V30 7612 C 724.021 1.12955 -1.72988 0
M  V30 7613 C 724.429 1.8358 -0.457708 0
M  V30 7614 O 723.772 1.74336 0.579006 0
M  V30 7615 C 723.834 2.20545 -2.83902 0
M  V30 7616 C 723.498 1.69704 -4.24323 0
M  V30 7617 C 724.495 1.16223 -5.06743 0
M  V30 7618 C 722.18 1.7528 -4.70725 0
M  V30 7619 C 724.174 0.689935 -6.33655 0
M  V30 7620 C 721.861 1.27662 -5.97617 0
M  V30 7621 C 722.859 0.746083 -6.78913 0
M  V30 7622 O 722.547 0.276925 -8.03423 0
M  V30 7623 H 722.279 0.343753 -0.582074 0
M  V30 7624 H 724.833 0.433106 -2.00782 0
M  V30 7625 H 723.063 2.93676 -2.51577 0
M  V30 7626 H 724.752 2.82111 -2.91836 0
M  V30 7627 H 725.518 1.11256 -4.72067 0
M  V30 7628 H 721.397 2.15515 -4.07522 0
M  V30 7629 H 724.941 0.275164 -6.97057 0
M  V30 7630 H 720.838 1.32322 -6.31792 0
M  V30 7631 H 721.606 0.396445 -8.17539 0
M  V30 7632 N 724.269 1.44576 0.627338 0
M  V30 7633 C 725.515 1.47777 1.38888 0
M  V30 7634 C 725.848 0.111406 1.9388 0
M  V30 7635 O 725.123 -0.87149 1.73883 0
M  V30 7636 C 725.406 2.54119 2.55138 0
M  V30 7637 C 725.259 4.00128 2.0547 0
M  V30 7638 C 726.578 2.56929 3.57317 0
M  V30 7639 H 723.697 0.538048 0.50366 0
M  V30 7640 H 726.339 1.76277 0.708978 0
M  V30 7641 H 724.489 2.29948 3.13139 0
M  V30 7642 H 726.161 4.35444 1.5227 0
M  V30 7643 H 724.404 4.11724 1.36623 0
M  V30 7644 H 725.075 4.7019 2.89181 0
M  V30 7645 H 727.551 2.78536 3.09122 0
M  V30 7646 H 726.427 3.33234 4.36173 0
M  V30 7647 H 726.688 1.6127 4.11636 0
M  V30 7648 N 725.747 -0.868086 1.31537 0
M  V30 7649 C 726.996 -1.61607 1.20689 0
M  V30 7650 C 727.309 -1.94204 -0.233275 0
M  V30 7651 O 728.515 -2.67515 -0.463465 0
M  V30 7652 C 726.971 -2.91348 2.11292 0
M  V30 7653 C 726.579 -2.66227 3.60315 0
M  V30 7654 C 728.323 -3.69344 2.09249 0
M  V30 7655 C 726.23 -3.91887 4.42921 0
M  V30 7656 H 725.16 -0.606373 0.448138 0
M  V30 7657 H 727.811 -0.959666 1.56405 0
M  V30 7658 H 726.193 -3.58374 1.68477 0
M  V30 7659 H 727.367 -2.07597 4.11388 0
M  V30 7660 H 725.682 -2.01582 3.64354 0
M  V30 7661 H 728.279 -4.62567 2.68209 0
M  V30 7662 H 728.622 -4.02044 1.0801 0
M  V30 7663 H 729.155 -3.09205 2.50274 0
M  V30 7664 H 725.894 -3.64336 5.44922 0
M  V30 7665 H 725.414 -4.49961 3.96605 0
M  V30 7666 H 727.093 -4.59754 4.55231 0
M  V30 7667 N 727.225 -1.14528 -1.08264 0
M  V30 7668 C 728.471 -0.91576 -1.80947 0
M  V30 7669 C 728.804 0.55623 -1.86064 0
M  V30 7670 O 728.079 1.41207 -1.33756 0
M  V30 7671 C 728.362 -1.51917 -3.26486 0
M  V30 7672 C 728.215 -3.06111 -3.2957 0
M  V30 7673 C 729.534 -1.19724 -4.23502 0
M  V30 7674 H 726.653 -0.334113 -0.656915 0
M  V30 7675 H 729.295 -1.41547 -1.26746 0
M  V30 7676 H 727.445 -1.0942 -3.72773 0
M  V30 7677 H 729.117 -3.57448 -2.91597 0
M  V30 7678 H 727.36 -3.40483 -2.688 0
M  V30 7679 H 728.031 -3.43438 -4.32151 0
M  V30 7680 H 730.507 -1.56467 -3.85561 0
M  V30 7681 H 729.383 -1.64575 -5.23647 0
M  V30 7682 H 729.644 -0.112771 -4.41956 0
M  V30 7683 N 728.703 1.26451 -0.940633 0
M  V30 7684 C 729.951 1.93395 -0.586748 0
M  V30 7685 C 730.272 1.7417 0.876921 0
M  V30 7686 O 729.542 1.097 1.62304 0
M  V30 7687 H 728.122 0.715687 -0.214012 0
M  V30 7688 H 730.784 1.53902 -1.19584 0
M  V30 7689 H 729.88 3.01565 -0.804059 0
M  V30 7690 N 730.181 0.707592 1.40822 0
M  V30 7691 C 731.131 0.0265008 2.27985 0
M  V30 7692 C 732.115 -0.740685 1.42838 0
M  V30 7693 O 733.307 -0.6142 1.66002 0
M  V30 7694 C 730.436 -0.900382 3.31282 0
M  V30 7695 C 729.522 -0.128807 4.23904 0
M  V30 7696 N 729.913 0.883744 4.9802 0
M  V30 7697 C 728.211 -0.362539 4.44524 0
M  V30 7698 C 728.912 1.34666 5.65898 0
M  V30 7699 N 727.888 0.670306 5.39451 0
M  V30 7700 H 731.69 0.802667 2.82727 0
M  V30 7701 H 729.204 0.539475 1.53178 0
M  V30 7702 H 731.201 -1.40357 3.92563 0
M  V30 7703 H 729.861 -1.67601 2.781 0
M  V30 7704 H 730.872 1.26435 5.0223 0
M  V30 7705 H 727.549 -1.11512 4.02332 0
M  V30 7706 H 728.939 2.18756 6.35292 0
M  V30 7707 N 731.66 -1.50943 0.453197 0
M  V30 7708 C 732.885 -2.07116 -0.108463 0
M  V30 7709 C 733.31 -1.31681 -1.3432 0
M  V30 7710 O 732.668 -0.359256 -1.77705 0
M  V30 7711 C 732.716 -3.58447 -0.393424 0
M  V30 7712 O 731.82 -3.85038 -1.47714 0
M  V30 7713 H 731.161 -0.66398 0.0050993 0
M  V30 7714 H 733.691 -1.94362 0.639095 0
M  V30 7715 H 733.701 -4.02961 -0.639222 0
M  V30 7716 H 732.376 -4.12774 0.508946 0
M  V30 7717 H 730.953 -3.52376 -1.22006 0
M  V30 7718 N 733.138 -0.185124 -1.56509 0
M  V30 7719 C 734.048 0.751908 -2.22224 0
M  V30 7720 C 735.064 1.24244 -1.21817 0
M  V30 7721 O 736.24 1.29169 -1.54523 0
M  V30 7722 C 733.305 1.95837 -2.86092 0
M  V30 7723 C 732.366 1.51337 -4.01741 0
M  V30 7724 C 731.599 2.66233 -4.62554 0
M  V30 7725 O 731.822 3.8346 -4.22273 0
M  V30 7726 O 730.756 2.39517 -5.52191 0
M  V30 7727 H 734.582 0.222304 -3.02885 0
M  V30 7728 H 732.167 0.0437141 -1.49336 0
M  V30 7729 H 734.049 2.66368 -3.26536 0
M  V30 7730 H 732.724 2.47677 -2.08417 0
M  V30 7731 H 731.631 0.777155 -3.65939 0
M  V30 7732 H 732.964 1.04175 -4.81049 0
M  V30 7733 N 734.616 1.57351 0.0885366 0
M  V30 7734 C 736.032 1.53331 0.442916 0
M  V30 7735 C 736.232 0.902831 1.80142 0
M  V30 7736 O 735.288 0.498147 2.47537 0
M  V30 7737 C 736.601 2.98036 0.399372 0
M  V30 7738 C 738.149 3.09286 0.480759 0
M  V30 7739 C 738.624 4.5561 0.467296 0
M  V30 7740 N 740.115 4.60182 0.52786 0
M  V30 7741 C 740.85 5.70857 0.539388 0
M  V30 7742 N 740.346 6.90944 0.506729 0
M  V30 7743 N 742.139 5.59051 0.584691 0
M  V30 7744 H 734.29 1.96709 -0.801215 0
M  V30 7745 H 736.553 0.899639 -0.298922 0
M  V30 7746 H 736.259 3.47656 -0.531806 0
M  V30 7747 H 736.133 3.57066 1.21589 0
M  V30 7748 H 738.52 2.5965 1.40236 0
M  V30 7749 H 738.601 2.53197 -0.364023 0
M  V30 7750 H 738.245 5.05899 -0.450384 0
M  V30 7751 H 738.175 5.09544 1.32938 0
M  V30 7752 H 740.666 3.73757 0.558028 0
M  V30 7753 H 740.979 7.71055 0.518989 0
M  V30 7754 H 739.324 6.93384 0.473675 0
M  V30 7755 H 742.515 4.64138 0.607781 0
M  V30 7756 H 742.688 6.45307 0.590206 0
M  V30 7757 N 736.094 -0.359525 1.53444 0
M  V30 7758 C 737.51 -0.701599 1.43352 0
M  V30 7759 C 737.71 -1.93049 0.577439 0
M  V30 7760 O 736.766 -2.52423 0.0622224 0
M  V30 7761 C 738.079 -0.90915 2.86627 0
M  V30 7762 C 739.627 -1.00878 2.96298 0
M  V30 7763 C 740.102 -1.24876 4.40647 0
M  V30 7764 N 741.593 -1.31632 4.44103 0
M  V30 7765 C 742.328 -1.51922 5.52908 0
M  V30 7766 N 741.824 -1.69489 6.71748 0
M  V30 7767 N 743.617 -1.54341 5.40496 0
M  V30 7768 H 735.768 0.448685 2.07607 0
M  V30 7769 H 738.031 0.138713 0.937797 0
M  V30 7770 H 737.737 -0.0778997 3.51614 0
M  V30 7771 H 737.611 -1.81551 3.30634 0
M  V30 7772 H 739.998 -1.83057 2.31461 0
M  V30 7773 H 740.079 -0.0796721 2.55676 0
M  V30 7774 H 739.723 -0.431961 5.0606 0
M  V30 7775 H 739.653 -2.19118 4.78848 0
M  V30 7776 H 742.144 -1.19646 3.5846 0
M  V30 7777 H 742.457 -1.84561 7.50438 0
M  V30 7778 H 740.802 -1.66655 6.74723 0
M  V30 7779 H 743.993 -1.40188 4.46615 0
M  V30 7780 H 744.166 -1.69812 6.25354 0
M  V30 7781 N 737.572 -1.44907 -0.619662 0
M  V30 7782 C 738.988 -1.29046 -0.939107 0
M  V30 7783 C 739.188 -0.23462 -2.00129 0
M  V30 7784 O 738.244 0.37558 -2.49691 0
M  V30 7785 C 739.557 -2.66567 -1.39149 0
M  V30 7786 C 741.105 -2.74368 -1.50635 0
M  V30 7787 C 741.58 -4.12386 -1.99253 0
M  V30 7788 N 743.071 -4.1462 -2.06506 0
M  V30 7789 C 743.806 -5.18272 -2.4532 0
M  V30 7790 N 743.302 -6.32278 -2.83189 0
M  V30 7791 N 745.095 -5.05628 -2.45554 0
M  V30 7792 H 737.246 -2.12239 0.0826135 0
M  V30 7793 H 739.509 -0.947652 -0.0256829 0
M  V30 7794 H 739.215 -3.4496 -0.685254 0
M  V30 7795 H 739.089 -2.94224 -2.36034 0
M  V30 7796 H 741.476 -1.96287 -2.20353 0
M  V30 7797 H 741.557 -2.50439 -0.520963 0
M  V30 7798 H 741.201 -4.90947 -1.30127 0
M  V30 7799 H 741.131 -4.33699 -2.98684 0
M  V30 7800 H 743.622 -3.32343 -1.79878 0
M  V30 7801 H 743.935 -7.07172 -3.11652 0
M  V30 7802 H 742.28 -6.35699 -2.80913 0
M  V30 7803 H 745.471 -4.15613 -2.15367 0
M  V30 7804 H 745.644 -5.86529 -2.75478 0
M  V30 7805 N 739.05 0.861098 -1.31996 0
M  V30 7806 C 740.299 1.60965 -1.21545 0
M  V30 7807 C 740.612 1.94325 0.222972 0
M  V30 7808 O 741.818 2.67757 0.449272 0
M  V30 7809 C 740.274 2.90223 -2.12834 0
M  V30 7810 C 739.882 2.64313 -3.61722 0
M  V30 7811 C 741.626 3.68229 -2.11205 0
M  V30 7812 C 739.533 3.89532 -4.44993 0
M  V30 7813 H 738.463 0.603988 -0.451348 0
M  V30 7814 H 741.114 0.951358 -1.56912 0
M  V30 7815 H 739.496 3.57475 -1.70375 0
M  V30 7816 H 740.67 2.05413 -4.12483 0
M  V30 7817 H 738.985 1.99647 -3.65418 0
M  V30 7818 H 741.582 4.61138 -2.70658 0
M  V30 7819 H 741.925 4.01466 -1.1014 0
M  V30 7820 H 742.458 3.07873 -2.51911 0
M  V30 7821 H 739.197 3.61441 -5.46846 0
M  V30 7822 H 738.717 4.47851 -3.98985 0
M  V30 7823 H 740.396 4.57334 -4.57663 0
M  V30 7824 N 740.528 1.15101 1.07655 0
M  V30 7825 C 741.775 0.923974 1.80191 0
M  V30 7826 C 742.103 -0.549065 1.86589 0
M  V30 7827 O 741.358 -1.42307 1.3434 0
M  V30 7828 C 741.657 1.47954 3.25337 0
M  V30 7829 C 741.323 2.97253 3.39044 0
M  V30 7830 C 739.985 3.38012 3.42493 0
M  V30 7831 C 742.337 3.93219 3.42094 0
M  V30 7832 C 739.665 4.73384 3.4659 0
M  V30 7833 C 742.017 5.28458 3.47728 0
M  V30 7834 C 740.681 5.68717 3.49453 0
M  V30 7835 H 739.951 0.338106 0.659367 0
M  V30 7836 H 742.598 1.43594 1.26701 0
M  V30 7837 H 740.903 0.888691 3.81588 0
M  V30 7838 H 742.6 1.27972 3.80032 0
M  V30 7839 H 739.19 2.64746 3.37057 0
M  V30 7840 H 743.374 3.62805 3.38654 0
M  V30 7841 H 738.63 5.03925 3.46222 0
M  V30 7842 H 742.804 6.02618 3.49034 0
M  V30 7843 H 740.431 6.73596 3.5238 0
M  V30 7844 N 742.006 -1.2595 0.947325 0
M  V30 7845 C 742.953 -2.26159 0.460497 0
M  V30 7846 C 743.923 -1.58919 -0.483125 0
M  V30 7847 O 745.108 -1.86603 -0.397983 0
M  V30 7848 C 742.248 -3.441 -0.26247 0
M  V30 7849 C 741.361 -4.25999 0.717539 0
M  V30 7850 C 740.496 -5.31193 -0.0272486 0
M  V30 7851 C 739.535 -6.04774 0.944177 0
M  V30 7852 N 738.672 -7.01721 0.230741 0
M  V30 7853 H 743.512 -2.67173 1.31995 0
M  V30 7854 H 741.049 -1.31358 0.662088 0
M  V30 7855 H 743.007 -4.11317 -0.698137 0
M  V30 7856 H 741.637 -3.03983 -1.08602 0
M  V30 7857 H 740.689 -3.58513 1.27171 0
M  V30 7858 H 742.001 -4.76981 1.45913 0
M  V30 7859 H 741.155 -6.04451 -0.521903 0
M  V30 7860 H 739.894 -4.81066 -0.801682 0
M  V30 7861 H 738.899 -5.30338 1.4499 0
M  V30 7862 H 740.124 -6.56991 1.71872 0
M  V30 7863 H 738.07 -6.53895 -0.525088 0
M  V30 7864 H 737.987 -7.50484 0.911556 0
M  V30 7865 H 739.255 -7.79122 -0.242616 0
M  V30 7866 N 743.484 -0.715051 -1.40445 0
M  V30 7867 C 744.394 -0.0631624 -2.34515 0
M  V30 7868 C 745.41 0.744397 -1.57273 0
M  V30 7869 O 746.586 0.677475 -1.89663 0
M  V30 7870 C 743.651 0.847915 -3.36172 0
M  V30 7871 C 742.712 0.0303655 -4.29289 0
M  V30 7872 C 741.945 0.898051 -5.2609 0
M  V30 7873 O 742.168 2.13729 -5.28844 0
M  V30 7874 O 741.102 0.337328 -6.00954 0
M  V30 7875 H 744.928 -0.839078 -2.91879 0
M  V30 7876 H 742.513 -0.475527 -1.4163 0
M  V30 7877 H 744.395 1.3698 -3.98515 0
M  V30 7878 H 743.07 1.60299 -2.81222 0
M  V30 7879 H 741.977 -0.536573 -3.70232 0
M  V30 7880 H 743.31 -0.686474 -4.87389 0
M  V30 7881 N 744.962 1.50701 -0.461195 0
M  V30 7882 C 746.239 1.94958 0.158296 0
M  V30 7883 C 746.619 1.40111 1.57899 0
M  V30 7884 O 745.967 0.597976 2.20537 0
M  V30 7885 C 746.177 3.48821 0.11172 0
M  V30 7886 C 747.525 4.23499 0.30552 0
M  V30 7887 O 748.549 3.557 0.188758 0
M  V30 7888 O 747.408 5.43823 0.540244 0
M  V30 7889 H 744.502 0.818674 0.117054 0
M  V30 7890 H 747.048 1.61508 -0.520888 0
M  V30 7891 H 745.82 3.81263 -0.880577 0
M  V30 7892 H 745.443 3.88781 0.832791 0
M  V30 7893 N 746.441 0.193421 1.56409 0
M  V30 7894 C 747.718 -0.493318 1.89277 0
M  V30 7895 C 748.098 -1.79765 1.10669 0
M  V30 7896 O 747.446 -2.27558 0.207274 0
M  V30 7897 C 747.656 -0.713732 3.41624 0
M  V30 7898 C 749.004 -1.03385 4.11821 0
M  V30 7899 O 750.028 -0.801511 3.47065 0
M  V30 7900 O 748.887 -1.47327 5.26267 0
M  V30 7901 H 745.981 -0.256973 0.786062 0
M  V30 7902 H 748.527 0.23351 1.68086 0
M  V30 7903 H 747.299 0.207446 3.9075 0
M  V30 7904 H 746.922 -1.49308 3.68501 0
M  V30 7905 N 747.919 -1.57396 -0.0801906 0
M  V30 7906 C 748.829 -2.06451 -1.11423 0
M  V30 7907 C 749.845 -0.992352 -1.42928 0
M  V30 7908 O 751.021 -1.30651 -1.53272 0
M  V30 7909 C 748.086 -2.49164 -2.41077 0
M  V30 7910 C 747.147 -3.70641 -2.16619 0
M  V30 7911 C 746.38 -4.11307 -3.40092 0
M  V30 7912 O 746.603 -3.51922 -4.48895 0
M  V30 7913 O 745.537 -5.04157 -3.288 0
M  V30 7914 H 749.363 -2.94857 -0.727519 0
M  V30 7915 H 746.948 -1.46484 -0.293743 0
M  V30 7916 H 748.83 -2.77196 -3.17396 0
M  V30 7917 H 747.505 -1.6389 -2.79145 0
M  V30 7918 H 746.412 -3.47703 -1.38033 0
M  V30 7919 H 747.745 -4.5674 -1.83437 0
M  V30 7920 N 749.397 0.351382 -1.53633 0
M  V30 7921 C 750.644 1.0925 -1.70502 0
M  V30 7922 C 750.972 1.88881 -0.464123 0
M  V30 7923 O 750.227 1.87693 0.554077 0
M  V30 7924 C 750.526 2.06744 -2.91533 0
M  V30 7925 C 750.192 1.43484 -4.27461 0
M  V30 7926 C 748.854 1.2596 -4.64422 0
M  V30 7927 C 751.206 0.978436 -5.11934 0
M  V30 7928 C 748.534 0.614017 -5.83478 0
M  V30 7929 C 750.886 0.346795 -6.31649 0
M  V30 7930 C 749.55 0.15917 -6.6731 0
M  V30 7931 H 748.82 0.399773 -0.623909 0
M  V30 7932 H 751.467 0.372656 -1.87839 0
M  V30 7933 H 749.772 2.85082 -2.68767 0
M  V30 7934 H 751.469 2.64066 -3.01778 0
M  V30 7935 H 748.059 1.5812 -3.98367 0
M  V30 7936 H 752.243 1.1017 -4.83918 0
M  V30 7937 H 747.499 0.457194 -6.09688 0
M  V30 7938 H 751.673 -0.0149864 -6.96398 0
M  V30 7939 H 749.3 -0.343129 -7.59425 0
M  V30 7940 N 750.875 1.45233 0.611969 0
M  V30 7941 C 752.124 1.48296 1.36716 0
M  V30 7942 C 752.437 0.12706 1.95187 0
M  V30 7943 O 753.643 0.0353066 2.71477 0
M  V30 7944 C 752.099 2.61168 2.47627 0
M  V30 7945 C 751.707 4.03051 1.95587 0
M  V30 7946 C 753.451 2.73472 3.24674 0
M  V30 7947 C 751.358 5.07312 3.03954 0
M  V30 7948 H 750.288 0.5518 0.513841 0
M  V30 7949 H 752.939 1.7136 0.656359 0
M  V30 7950 H 751.321 2.31379 3.21372 0
M  V30 7951 H 752.495 4.42497 1.2858 0
M  V30 7952 H 750.81 3.95158 1.31298 0
M  V30 7953 H 753.407 3.48537 4.05494 0
M  V30 7954 H 753.75 1.79953 3.75397 0
M  V30 7955 H 754.283 3.02765 2.58028 0
M  V30 7956 H 751.022 6.02525 2.58154 0
M  V30 7957 H 750.542 4.7244 3.69541 0
M  V30 7958 H 752.221 5.31867 3.6841 0
M  V30 7959 N 752.353 -0.854086 1.3245 0
M  V30 7960 C 753.301 -1.98411 1.21391 0
M  V30 7961 C 754.295 -1.68984 0.118586 0
M  V30 7962 O 755.501 -1.77784 0.281549 0
M  V30 7963 H 751.876 -0.651077 0.376301 0
M  V30 7964 H 753.847 -2.04867 2.16961 0
M  V30 7965 C 752.596 -3.34345 0.954407 0
M  V30 7966 H 751.919 -3.57518 1.78944 0
M  V30 7967 H 753.359 -4.13959 0.917269 0
M  V30 7968 C 751.818 -3.35151 -0.342838 0
M  V30 7969 O 752.348 -3.78174 -1.35452 0
M  V30 7970 N 750.554 -2.88298 -0.365012 0
M  V30 7971 H 750.101 -2.53481 0.4588 0
M  V30 7972 H 750.059 -2.8922 -1.23284 0
M  V30 7973 N 753.831 -1.1567 -1.07043 0
M  V30 7974 C 755.247 -0.900006 -1.31803 0
M  V30 7975 C 755.447 0.451293 -1.96381 0
M  V30 7976 O 754.503 1.19252 -2.22565 0
M  V30 7977 C 755.816 -2.04334 -2.20609 0
M  V30 7978 C 757.364 -2.07823 -2.34048 0
M  V30 7979 C 757.839 -3.21488 -3.26204 0
M  V30 7980 N 759.33 -3.21156 -3.33786 0
M  V30 7981 C 760.065 -4.05746 -4.05163 0
M  V30 7982 N 759.561 -5.00407 -4.79129 0
M  V30 7983 N 761.354 -3.93759 -4.01136 0
M  V30 7984 H 753.505 -2.02681 -0.635146 0
M  V30 7985 H 755.768 -0.883956 -0.342528 0
M  V30 7986 H 755.474 -3.01895 -1.80423 0
M  V30 7987 H 755.348 -1.97838 -3.21154 0
M  V30 7988 H 757.735 -1.1086 -2.73485 0
M  V30 7989 H 757.816 -2.18386 -1.33197 0
M  V30 7990 H 757.46 -4.18706 -2.87485 0
M  V30 7991 H 757.39 -3.08162 -4.27017 0
M  V30 7992 H 759.881 -2.52606 -2.81067 0
M  V30 7993 H 760.194 -5.61387 -5.31097 0
M  V30 7994 H 758.539 -5.04393 -4.78135 0
M  V30 7995 H 761.73 -3.19115 -3.42466 0
M  V30 7996 H 761.903 -4.59906 -4.56498 0
M  V30 7997 N 755.309 1.25446 -0.953992 0
M  V30 7998 C 756.256 2.25912 -0.472485 0
M  V30 7999 C 757.226 1.59173 0.47469 0
M  V30 8000 O 758.411 1.86812 0.388082 0
M  V30 8001 C 755.551 3.44235 0.244218 0
M  V30 8002 C 754.664 4.25613 -0.740121 0
M  V30 8003 C 753.799 5.312 -0.000922267 0
M  V30 8004 C 752.838 6.04265 -0.976236 0
M  V30 8005 N 751.975 7.01589 -0.267952 0
M  V30 8006 H 756.815 2.66469 -1.3341 0
M  V30 8007 H 754.352 1.31005 -0.669045 0
M  V30 8008 H 756.31 4.11682 0.676314 0
M  V30 8009 H 754.94 3.04554 1.06988 0
M  V30 8010 H 753.992 3.57834 -1.2907 0
M  V30 8011 H 755.304 4.762 -1.48441 0
M  V30 8012 H 754.458 6.04719 0.48984 0
M  V30 8013 H 753.197 4.81484 0.776159 0
M  V30 8014 H 752.202 5.29561 -1.478 0
M  V30 8015 H 753.427 6.5607 -1.75354 0
M  V30 8016 H 751.373 6.54164 0.490403 0
M  V30 8017 H 751.29 7.4999 -0.951344 0
M  V30 8018 H 752.558 7.7924 0.201294 0
M  V30 8019 N 756.787 0.722489 1.40064 0
M  V30 8020 C 758.033 0.265371 2.01056 0
M  V30 8021 C 758.366 -1.14062 1.57174 0
M  V30 8022 O 757.641 -1.77514 0.794916 0
M  V30 8023 C 757.924 0.353157 3.58364 0
M  V30 8024 C 757.777 1.79802 4.123 0
M  V30 8025 C 759.096 -0.271677 4.39261 0
M  V30 8026 H 756.215 0.0979002 0.730469 0
M  V30 8027 H 758.857 0.916289 1.66446 0
M  V30 8028 H 757.007 -0.201037 3.87979 0
M  V30 8029 H 758.679 2.40813 3.93455 0
M  V30 8030 H 756.922 2.32348 3.66329 0
M  V30 8031 H 757.593 1.81079 5.21454 0
M  V30 8032 H 760.069 0.200607 4.15616 0
M  V30 8033 H 758.945 -0.179843 5.48605 0
M  V30 8034 H 759.206 -1.35611 4.20787 0
M  V30 8035 N 758.265 -1.50454 0.469181 0
M  V30 8036 C 759.212 -2.28486 -0.325982 0
M  V30 8037 C 760.182 -1.33455 -0.988893 0
M  V30 8038 O 761.367 -1.6239 -1.0017 0
M  V30 8039 C 758.507 -3.15288 -1.40313 0
M  V30 8040 C 757.62 -4.25348 -0.755183 0
M  V30 8041 C 756.755 -4.9941 -1.81006 0
M  V30 8042 C 755.794 -6.01348 -1.14226 0
M  V30 8043 N 754.931 -6.68695 -2.1399 0
M  V30 8044 H 759.771 -2.95987 0.345753 0
M  V30 8045 H 757.308 -1.45965 0.182355 0
M  V30 8046 H 759.266 -3.63964 -2.03927 0
M  V30 8047 H 757.896 -2.49837 -2.04405 0
M  V30 8048 H 756.948 -3.80399 -0.00651901 0
M  V30 8049 H 758.26 -4.98279 -0.227941 0
M  V30 8050 H 757.414 -5.51794 -2.52206 0
M  V30 8051 H 756.153 -4.26181 -2.3711 0
M  V30 8052 H 755.158 -5.48225 -0.415876 0
M  V30 8053 H 756.383 -6.76548 -0.588135 0
M  V30 8054 H 754.329 -5.98258 -2.69115 0
M  V30 8055 H 754.246 -7.37495 -1.66246 0
M  V30 8056 H 755.514 -7.25697 -2.84576 0
M  V30 8057 N 759.743 -0.201713 -1.56304 0
M  V30 8058 C 760.706 0.702811 -2.18159 0
M  V30 8059 C 761.706 1.13619 -1.13787 0
M  V30 8060 O 762.896 1.0482 -1.39134 0
M  V30 8061 C 760.028 1.96032 -2.78898 0
M  V30 8062 H 761.221 0.163836 -2.99452 0
M  V30 8063 H 758.774 0.04791 -1.56227 0
M  V30 8064 H 759.509 2.54165 -2.01421 0
M  V30 8065 H 759.294 1.65824 -3.55309 0
M  V30 8066 H 760.784 2.60519 -3.26373 0
M  V30 8067 N 761.222 1.57436 0.0718424 0
M  V30 8068 C 762.468 1.87525 0.772149 0
M  V30 8069 C 762.801 0.79399 1.77227 0
M  V30 8070 O 762.076 -0.195733 1.93513 0
M  V30 8071 C 762.359 3.28272 1.48018 0
M  V30 8072 C 762.212 4.47052 0.49647 0
M  V30 8073 C 763.531 3.67256 2.42509 0
M  V30 8074 H 760.65 0.682049 0.279245 0
M  V30 8075 H 763.292 1.89967 0.03534 0
M  V30 8076 H 761.442 3.26321 2.10824 0
M  V30 8077 H 763.114 4.61127 -0.126375 0
M  V30 8078 H 761.357 4.33392 -0.188205 0
M  V30 8079 H 762.028 5.42315 1.02949 0
M  V30 8080 H 764.504 3.70301 1.89781 0
M  V30 8081 H 763.38 4.66626 2.89053 0
M  V30 8082 H 763.641 2.97186 3.27312 0
M  V30 8083 N 762.7 -0.34323 1.53817 0
M  V30 8084 C 763.63 -1.42709 1.84814 0
M  V30 8085 C 764.611 -1.5488 0.703297 0
M  V30 8086 O 765.796 -1.69082 0.955237 0
M  V30 8087 C 762.926 -2.79756 2.05801 0
M  V30 8088 C 761.88 -2.82392 3.21619 0
M  V30 8089 C 761.206 -4.22326 3.2794 0
M  V30 8090 C 762.506 -2.479 4.59721 0
M  V30 8091 H 764.2 -1.17018 2.75585 0
M  V30 8092 H 761.746 -0.561485 1.32602 0
M  V30 8093 H 763.699 -3.55627 2.26069 0
M  V30 8094 H 762.423 -3.06883 1.11761 0
M  V30 8095 H 761.082 -2.08974 3.01207 0
M  V30 8096 H 760.73 -4.46564 2.31494 0
M  V30 8097 H 760.43 -4.25001 4.05768 0
M  V30 8098 H 761.954 -5.00039 3.50419 0
M  V30 8099 H 763.368 -3.13484 4.80001 0
M  V30 8100 H 761.765 -2.61857 5.39954 0
M  V30 8101 H 762.835 -1.43087 4.63308 0
M  V30 8102 N 764.178 -1.45556 -0.604258 0
M  V30 8103 C 765.088 -1.57025 -1.74299 0
M  V30 8104 C 766.104 -0.45456 -1.67958 0
M  V30 8105 O 767.28 -0.715711 -1.88254 0
M  V30 8106 C 764.345 -1.53702 -3.10768 0
M  V30 8107 C 763.406 -2.76335 -3.28538 0
M  V30 8108 C 762.639 -2.73161 -4.58496 0
M  V30 8109 O 762.862 -1.80678 -5.41028 0
M  V30 8110 O 761.796 -3.64409 -4.79051 0
M  V30 8111 H 765.622 -2.53284 -1.67573 0
M  V30 8112 H 763.207 -1.28104 -0.768745 0
M  V30 8113 H 765.089 -1.54468 -3.92068 0
M  V30 8114 H 763.764 -0.605957 -3.17978 0
M  V30 8115 H 762.671 -2.8113 -2.46813 0
M  V30 8116 H 764.004 -3.68578 -3.26207 0
M  V30 8117 N 765.656 0.84705 -1.32902 0
M  V30 8118 C 766.603 1.95624 -1.22473 0
M  V30 8119 C 767.573 1.65767 -0.105178 0
M  V30 8120 O 768.758 1.88704 -0.282042 0
M  V30 8121 C 765.898 3.31434 -0.961542 0
M  V30 8122 C 765.011 3.73741 -2.1666 0
M  V30 8123 C 764.146 4.98379 -1.83825 0
M  V30 8124 C 763.185 5.33199 -3.00609 0
M  V30 8125 N 762.322 6.49014 -2.67816 0
M  V30 8126 H 767.162 2.03875 -2.17345 0
M  V30 8127 H 764.699 0.997764 -1.08088 0
M  V30 8128 H 766.657 4.09663 -0.789411 0
M  V30 8129 H 765.287 3.22762 -0.0495938 0
M  V30 8130 H 764.339 2.91102 -2.44875 0
M  V30 8131 H 765.651 3.95462 -3.03993 0
M  V30 8132 H 764.805 5.84336 -1.63208 0
M  V30 8133 H 763.544 4.78611 -0.937172 0
M  V30 8134 H 762.549 4.4575 -3.21849 0
M  V30 8135 H 763.774 5.5492 -3.9146 0
M  V30 8136 H 761.72 6.30748 -1.80258 0
M  V30 8137 H 761.637 6.7079 -3.48679 0
M  V30 8138 H 762.905 7.38103 -2.50647 0
M  V30 8139 N 767.134 1.16236 1.06428 0
M  V30 8140 C 768.382 0.941171 1.78847 0
M  V30 8141 C 768.703 -0.53248 1.87589 0
M  V30 8142 O 767.973 -1.38686 1.38358 0
M  V30 8143 H 766.553 0.345228 0.66244 0
M  V30 8144 H 769.215 1.46479 1.28569 0
M  V30 8145 H 768.311 1.35871 2.80972 0
M  V30 8146 N 768.612 -1.24939 0.960631 0
M  V30 8147 C 769.545 -2.24116 0.429804 0
M  V30 8148 C 770.523 -1.54972 -0.492188 0
M  V30 8149 O 771.707 -1.83642 -0.42519 0
M  V30 8150 C 768.834 -3.36558 -0.380312 0
M  V30 8151 C 767.88 -4.23757 0.482941 0
M  V30 8152 S 768.713 -4.9994 1.91885 0
M  V30 8153 C 769.869 -6.15846 1.11732 0
M  V30 8154 H 770.102 -2.68795 1.27029 0
M  V30 8155 H 767.635 -1.34108 0.765141 0
M  V30 8156 H 769.593 -4.01777 -0.841764 0
M  V30 8157 H 768.254 -2.90451 -1.19569 0
M  V30 8158 H 767.447 -5.03809 -0.138699 0
M  V30 8159 H 767.049 -3.63504 0.879839 0
M  V30 8160 H 769.341 -6.76495 0.368898 0
M  V30 8161 H 770.284 -6.82356 1.89198 0
M  V30 8162 H 770.692 -5.60805 0.644812 0
M  V30 8163 N 770.09 -0.729906 -1.39679 0
M  V30 8164 C 771.318 -0.285709 -2.04918 0
M  V30 8165 C 771.733 1.07765 -1.55023 0
M  V30 8166 O 771.09 1.67999 -0.712923 0
M  V30 8167 C 771.141 -0.272793 -3.60469 0
M  V30 8168 O 770.862 -1.58233 -4.08527 0
M  V30 8169 C 772.363 0.188199 -4.429 0
M  V30 8170 H 769.583 -0.125758 -0.65911 0
M  V30 8171 H 772.127 -0.992129 -1.78821 0
M  V30 8172 H 770.282 0.384699 -3.85485 0
M  V30 8173 H 770.696 -1.49245 -5.02818 0
M  V30 8174 H 772.17 0.14608 -5.51807 0
M  V30 8175 H 772.647 1.2326 -4.21549 0
M  V30 8176 H 773.253 -0.439541 -4.23023 0
M  V30 8177 N 771.568 1.50203 -0.477153 0
M  V30 8178 C 772.979 1.86685 -0.0235041 0
M  V30 8179 C 773.33 1.39148 1.38319 0
M  V30 8180 O 772.455 0.759051 2.02651 0
M  V30 8181 C 773.05 3.38781 -0.0358767 0
M  V30 8182 C 771.609 3.74652 0.362327 0
M  V30 8183 C 770.756 2.7412 -0.41875 0
M  V30 8184 H 773.707 1.4286 -0.691133 0
M  V30 8185 H 773.728 3.72732 0.764924 0
M  V30 8186 H 773.24 3.73349 -1.05981 0
M  V30 8187 H 771.341 3.45686 1.39039 0
M  V30 8188 H 771.454 4.79063 0.059457 0
M  V30 8189 H 769.818 2.54376 0.128341 0
M  V30 8190 H 770.601 3.11532 -1.44231 0
M  V30 8191 N 773.046 0.209999 1.56195 0
M  V30 8192 C 774.295 -0.425106 1.97169 0
M  V30 8193 C 774.608 -1.61718 1.10031 0
M  V30 8194 O 775.814 -2.32105 1.40853 0
M  V30 8195 C 774.27 -0.80771 3.50719 0
M  V30 8196 C 773.878 0.360902 4.46544 0
M  V30 8197 C 775.622 -1.40906 4.00432 0
M  V30 8198 C 773.529 -0.0434919 5.91384 0
M  V30 8199 H 772.459 -0.162598 0.736259 0
M  V30 8200 H 775.11 0.304382 1.80958 0
M  V30 8201 H 773.492 -1.59429 3.62489 0
M  V30 8202 H 774.666 1.13846 4.46515 0
M  V30 8203 H 772.981 0.874729 4.07109 0
M  V30 8204 H 775.578 -1.72433 5.06133 0
M  V30 8205 H 775.921 -2.32081 3.45607 0
M  V30 8206 H 776.454 -0.686154 3.91838 0
M  V30 8207 H 773.193 0.834448 6.50167 0
M  V30 8208 H 772.713 -0.785598 5.94633 0
M  V30 8209 H 774.392 -0.474176 6.4526 0
M  V30 8210 N 774.524 -1.57472 -0.0634922 0
M  V30 8211 C 775.454 -2.07297 -1.07473 0
M  V30 8212 C 776.435 -0.968162 -1.39859 0
M  V30 8213 O 777.62 -1.24139 -1.49343 0
M  V30 8214 C 774.75 -2.52381 -2.38581 0
M  V30 8215 C 773.704 -3.66813 -2.20526 0
M  V30 8216 C 773.03 -3.97982 -3.57092 0
M  V30 8217 C 774.33 -4.96553 -1.61965 0
M  V30 8218 H 776.024 -2.92033 -0.660092 0
M  V30 8219 H 773.57 -1.40488 -0.316074 0
M  V30 8220 H 775.523 -2.85852 -3.09624 0
M  V30 8221 H 774.247 -1.64684 -2.8204 0
M  V30 8222 H 772.906 -3.33639 -1.51924 0
M  V30 8223 H 772.554 -3.07403 -3.98136 0
M  V30 8224 H 772.254 -4.7504 -3.45848 0
M  V30 8225 H 773.778 -4.33956 -4.29552 0
M  V30 8226 H 775.192 -5.28201 -2.22883 0
M  V30 8227 H 773.589 -5.7799 -1.61394 0
M  V30 8228 H 774.659 -4.81396 -0.581918 0
M  V30 8229 N 776.003 0.335068 -1.53997 0
M  V30 8230 C 777.243 1.0827 -1.7337 0
M  V30 8231 C 777.607 1.85618 -0.490913 0
M  V30 8232 O 778.808 2.62864 -0.561799 0
M  V30 8233 C 777.079 1.99212 -2.96731 0
M  V30 8234 S 778.638 2.81083 -3.36954 0
M  V30 8235 H 775.456 0.365698 -0.609743 0
M  V30 8236 H 778.058 0.360079 -1.92155 0
M  V30 8237 H 776.762 1.41204 -3.85344 0
M  V30 8238 H 776.293 2.75898 -2.80436 0
M  V30 8239 H 778.308 4.01657 -2.91352 0
M  V30 8240 N 777.481 1.45874 0.596531 0
M  V30 8241 C 778.727 1.5069 1.35722 0
M  V30 8242 C 779.06 0.152506 1.936 0
M  V30 8243 O 778.335 -0.834411 1.75692 0
M  V30 8244 C 778.618 2.59474 2.4969 0
M  V30 8245 C 778.471 4.04396 1.96937 0
M  V30 8246 C 779.79 2.64451 3.51787 0
M  V30 8247 H 776.909 0.548611 0.492133 0
M  V30 8248 H 779.551 1.77741 0.671428 0
M  V30 8249 H 777.701 2.36539 3.08191 0
M  V30 8250 H 779.373 4.38576 1.43 0
M  V30 8251 H 777.616 4.14529 1.27859 0
M  V30 8252 H 778.287 4.76218 2.79143 0
M  V30 8253 H 780.763 2.85031 3.03145 0
M  V30 8254 H 779.639 3.42411 4.29006 0
M  V30 8255 H 779.9 1.69965 4.08123 0
M  V30 8256 N 778.959 -0.83999 1.33349 0
M  V30 8257 C 780.207 -1.59202 1.24496 0
M  V30 8258 C 780.528 -1.94077 -0.189499 0
M  V30 8259 O 779.798 -1.60868 -1.11796 0
M  V30 8260 H 778.378 -0.590276 0.457802 0
M  V30 8261 H 781.04 -1.00394 1.67054 0
M  V30 8262 H 780.136 -2.52247 1.83788 0
M  V30 8263 N 780.437 -1.16799 -1.0581 0
M  V30 8264 C 781.347 -0.893492 -2.16919 0
M  V30 8265 C 782.363 0.136061 -1.73467 0
M  V30 8266 O 783.539 -0.0417348 -2.01357 0
M  V30 8267 C 780.604 -0.403763 -3.44341 0
M  V30 8268 C 779.665 -1.49914 -4.02274 0
M  V30 8269 C 778.898 -1.03269 -5.23614 0
M  V30 8270 O 779.121 0.115647 -5.70283 0
M  V30 8271 O 778.055 -1.8231 -5.73626 0
M  V30 8272 H 781.881 -1.82274 -2.42919 0
M  V30 8273 H 779.466 -0.948361 -1.1544 0
M  V30 8274 H 781.348 -0.137874 -4.21174 0
M  V30 8275 H 780.023 0.497413 -3.19855 0
M  V30 8276 H 778.93 -1.81883 -3.26909 0
M  V30 8277 H 780.263 -2.3758 -4.31064 0
M  V30 8278 N 781.915 1.24427 -0.967243 0
M  V30 8279 C 783.143 1.96541 -0.646477 0
M  V30 8280 C 783.558 1.71753 0.783996 0
M  V30 8281 O 782.915 1.00102 1.52597 0
M  V30 8282 C 782.966 3.4983 -0.911098 0
M  V30 8283 O 782.687 3.7377 -2.28534 0
M  V30 8284 C 784.188 4.3916 -0.604458 0
M  V30 8285 H 781.408 0.626129 -0.241255 0
M  V30 8286 H 783.952 1.58268 -1.29505 0
M  V30 8287 H 782.107 3.86168 -0.308741 0
M  V30 8288 H 782.521 4.68154 -2.365 0
M  V30 8289 H 783.995 5.4557 -0.840069 0
M  V30 8290 H 784.472 4.36771 0.461273 0
M  V30 8291 H 785.078 4.08409 -1.1867 0
M  V30 8292 N 783.393 0.737304 1.3929 0
M  V30 8293 C 784.323 0.113988 2.33222 0
M  V30 8294 C 785.304 -0.721695 1.54031 0
M  V30 8295 O 786.489 -0.666206 1.82415 0
M  V30 8296 C 783.619 -0.792319 3.38141 0
M  V30 8297 C 782.573 -0.0606178 4.27957 0
M  V30 8298 C 781.899 -1.08409 5.23595 0
M  V30 8299 C 783.199 1.09817 5.10625 0
M  V30 8300 H 784.893 0.898611 2.85596 0
M  V30 8301 H 782.439 0.433571 1.37318 0
M  V30 8302 H 784.392 -1.23793 4.02807 0
M  V30 8303 H 783.116 -1.60908 2.84211 0
M  V30 8304 H 781.775 0.365393 3.64775 0
M  V30 8305 H 781.423 -1.89449 4.6596 0
M  V30 8306 H 781.123 -0.599269 5.84536 0
M  V30 8307 H 782.647 -1.52936 5.91137 0
M  V30 8308 H 784.061 0.730892 5.68622 0
M  V30 8309 H 782.458 1.51278 5.80719 0
M  V30 8310 H 783.528 1.91878 4.45321 0
M  V30 8311 N 784.871 -1.49948 0.485112 0
M  V30 8312 C 785.781 -2.32587 -0.306697 0
M  V30 8313 C 786.797 -1.43598 -0.982632 0
M  V30 8314 O 787.973 -1.76638 -0.967519 0
M  V30 8315 C 785.038 -3.18638 -1.3664 0
M  V30 8316 C 784.099 -4.23462 -0.705589 0
M  V30 8317 C 783.332 -5.05401 -1.7148 0
M  V30 8318 O 783.555 -4.88618 -2.94293 0
M  V30 8319 O 782.489 -5.88157 -1.27889 0
M  V30 8320 H 786.315 -3.01447 0.369272 0
M  V30 8321 H 783.9 -1.47349 0.246709 0
M  V30 8322 H 785.782 -3.71992 -1.9799 0
M  V30 8323 H 784.457 -2.52491 -2.02559 0
M  V30 8324 H 783.364 -3.74063 -0.0527733 0
M  V30 8325 H 784.697 -4.92119 -0.0891187 0
M  V30 8326 N 786.349 -0.21828 -1.56081 0
M  V30 8327 C 787.259 0.704602 -2.23769 0
M  V30 8328 C 788.275 1.21633 -1.24425 0
M  V30 8329 O 789.451 1.25862 -1.57228 0
M  V30 8330 C 786.516 1.89725 -2.90182 0
M  V30 8331 C 785.577 1.42782 -4.0486 0
M  V30 8332 C 784.81 2.56361 -4.68097 0
M  V30 8333 O 785.033 3.74417 -4.30312 0
M  V30 8334 O 783.967 2.2775 -5.57148 0
M  V30 8335 H 787.793 0.158007 -3.03289 0
M  V30 8336 H 785.378 0.0120279 -1.49395 0
M  V30 8337 H 787.26 2.59382 -3.32113 0
M  V30 8338 H 785.935 2.432 -2.13624 0
M  V30 8339 H 784.842 0.699359 -3.67505 0
M  V30 8340 H 786.175 0.939474 -4.83151 0
M  V30 8341 N 787.827 1.57504 0.0551401 0
M  V30 8342 C 789.243 1.54236 0.410292 0
M  V30 8343 C 789.443 0.940839 1.78187 0
M  V30 8344 O 788.499 0.550541 2.46425 0
M  V30 8345 C 789.812 2.98816 0.336064 0
M  V30 8346 C 791.36 3.10236 0.415047 0
M  V30 8347 C 791.835 4.56499 0.37055 0
M  V30 8348 N 793.326 4.61199 0.43013 0
M  V30 8349 C 794.061 5.71873 0.418179 0
M  V30 8350 N 793.557 6.91864 0.360056 0
M  V30 8351 N 795.35 5.60165 0.465977 0
M  V30 8352 H 787.501 1.94965 -0.842759 0
M  V30 8353 H 789.764 0.893096 -0.317937 0
M  V30 8354 H 789.47 3.4645 -0.605429 0
M  V30 8355 H 789.344 3.59564 1.13988 0
M  V30 8356 H 791.731 2.62566 1.34697 0
M  V30 8357 H 791.812 2.52367 -0.417648 0
M  V30 8358 H 791.456 5.0483 -0.557592 0
M  V30 8359 H 791.386 5.12249 1.221 0
M  V30 8360 H 793.877 3.74857 0.478623 0
M  V30 8361 H 794.19 7.71983 0.35532 0
M  V30 8362 H 792.535 6.94233 0.326492 0
M  V30 8363 H 795.726 4.65322 0.509194 0
M  V30 8364 H 795.899 6.46413 0.453194 0
M  V30 8365 N 789.305 -0.326896 1.54172 0
M  V30 8366 C 790.215 -1.42525 1.86343 0
M  V30 8367 C 791.231 -1.56764 0.75505 0
M  V30 8368 O 792.407 -1.71924 1.04901 0
M  V30 8369 C 789.472 -2.77286 2.08119 0
M  V30 8370 C 788.533 -2.7225 3.31931 0
M  V30 8371 C 787.766 -4.00584 3.52659 0
M  V30 8372 O 787.989 -4.98686 2.76891 0
M  V30 8373 O 786.923 -4.04045 4.46129 0
M  V30 8374 H 790.749 -1.18249 2.79734 0
M  V30 8375 H 788.334 -0.520614 1.40036 0
M  V30 8376 H 790.216 -3.57065 2.23791 0
M  V30 8377 H 788.891 -3.01459 1.17917 0
M  V30 8378 H 787.798 -1.91033 3.21647 0
M  V30 8379 H 789.131 -2.53032 4.2218 0
M  V30 8380 N 790.784 -1.46188 -0.588786 0
M  V30 8381 C 791.731 -1.56292 -1.69828 0
M  V30 8382 C 792.701 -0.407581 -1.61022 0
M  V30 8383 O 793.886 -0.623532 -1.80324 0
M  V30 8384 C 791.026 -1.55341 -3.08161 0
M  V30 8385 C 790.139 -2.81564 -3.27636 0
M  V30 8386 C 789.274 -2.72158 -4.56183 0
M  V30 8387 C 788.313 -3.93348 -4.68981 0
M  V30 8388 N 787.45 -3.82365 -5.88848 0
M  V30 8389 H 792.29 -2.51066 -1.6053 0
M  V30 8390 H 789.827 -1.24562 -0.782474 0
M  V30 8391 H 791.785 -1.52776 -3.88221 0
M  V30 8392 H 790.415 -0.641034 -3.16371 0
M  V30 8393 H 789.467 -2.94136 -2.41223 0
M  V30 8394 H 790.779 -3.714 -3.32962 0
M  V30 8395 H 789.933 -2.67665 -5.44464 0
M  V30 8396 H 788.672 -1.79953 -4.53286 0
M  V30 8397 H 787.677 -3.98181 -3.7912 0
M  V30 8398 H 788.902 -4.86643 -4.73662 0
M  V30 8399 H 786.848 -2.92942 -5.86959 0
M  V30 8400 H 786.765 -4.65851 -5.95415 0
M  V30 8401 H 788.033 -3.81836 -6.79575 0
M  V30 8402 N 792.262 0.832906 -1.33792 0
M  V30 8403 C 793.51 1.58539 -1.25338 0
M  V30 8404 C 793.831 1.94175 0.179204 0
M  V30 8405 O 793.101 1.61458 1.10941 0
M  V30 8406 H 791.681 0.58784 -0.460926 0
M  V30 8407 H 794.343 0.995064 -1.67584 0
M  V30 8408 H 793.439 2.51268 -1.85123 0
M  V30 8409 N 793.74 1.17359 1.05189 0
M  V30 8410 C 794.67 0.91365 2.14883 0
M  V30 8411 C 795.651 -0.144365 1.69486 0
M  V30 8412 O 796.836 0.00587861 1.94199 0
M  V30 8413 C 793.966 0.426196 3.44675 0
M  V30 8414 C 792.92 1.4234 4.03638 0
M  V30 8415 C 792.246 0.793902 5.28773 0
M  V30 8416 C 793.546 2.7966 4.41121 0
M  V30 8417 H 795.24 1.831 2.36885 0
M  V30 8418 H 792.786 0.881781 1.13845 0
M  V30 8419 H 794.739 0.231767 4.20762 0
M  V30 8420 H 793.463 -0.526693 3.22325 0
M  V30 8421 H 792.122 1.60457 3.2962 0
M  V30 8422 H 791.77 -0.165824 5.02727 0
M  V30 8423 H 791.47 1.45959 5.69183 0
M  V30 8424 H 792.994 0.609747 6.07548 0
M  V30 8425 H 794.408 2.6526 5.08242 0
M  V30 8426 H 792.805 3.42807 4.92548 0
M  V30 8427 H 793.875 3.34068 3.51464 0
M  V30 8428 N 795.218 -1.23913 0.973828 0
M  V30 8429 C 796.446 -1.96195 0.656891 0
M  V30 8430 C 796.861 -1.72166 -0.774876 0
M  V30 8431 O 796.218 -1.0091 -1.52064 0
M  V30 8432 C 796.269 -3.49342 0.929638 0
M  V30 8433 O 795.99 -3.72553 2.30512 0
M  V30 8434 C 797.491 -4.38833 0.627739 0
M  V30 8435 H 794.711 -0.624841 0.244572 0
M  V30 8436 H 797.255 -1.57579 1.30343 0
M  V30 8437 H 795.41 -3.85999 0.329216 0
M  V30 8438 H 795.824 -4.66893 2.3898 0
M  V30 8439 H 797.298 -5.45117 0.868991 0
M  V30 8440 H 797.775 -4.37009 -0.438104 0
M  V30 8441 H 798.381 -4.07773 1.20834 0
M  V30 8442 N 796.696 -0.74468 -1.38897 0
M  V30 8443 C 797.943 -0.296884 -2.00312 0
M  V30 8444 C 798.271 1.11878 -1.59102 0
M  V30 8445 O 797.526 1.7789 -0.815702 0
M  V30 8446 C 797.825 -0.357302 -3.55609 0
M  V30 8447 C 797.491 -1.72736 -4.16501 0
M  V30 8448 C 796.153 -2.10232 -4.32846 0
M  V30 8449 C 798.505 -2.62647 -4.50184 0
M  V30 8450 C 795.833 -3.3713 -4.80167 0
M  V30 8451 C 798.185 -3.88926 -4.98918 0
M  V30 8452 C 796.849 -4.26503 -5.1347 0
M  V30 8453 H 796.119 -0.108638 -0.732993 0
M  V30 8454 H 798.766 -0.953419 -1.66079 0
M  V30 8455 H 797.071 0.382805 -3.89925 0
M  V30 8456 H 798.768 0.0074596 -4.00999 0
M  V30 8457 H 795.358 -1.42585 -4.04187 0
M  V30 8458 H 799.542 -2.34945 -4.37166 0
M  V30 8459 H 794.798 -3.66174 -4.89619 0
M  V30 8460 H 798.972 -4.58745 -5.23952 0
M  V30 8461 H 796.599 -5.24896 -5.49898 0
M  V30 8462 N 798.174 1.49689 -0.493057 0
M  V30 8463 C 799.414 2.04332 0.0527374 0
M  V30 8464 C 799.778 1.36522 1.35003 0
M  V30 8465 O 800.979 1.81842 1.97957 0
M  V30 8466 C 799.25 3.56782 0.210044 0
M  V30 8467 S 800.809 4.32998 0.711232 0
M  V30 8468 H 797.627 0.710978 0.00554853 0
M  V30 8469 H 800.229 1.83835 -0.665213 0
M  V30 8470 H 798.933 4.03681 -0.739566 0
M  V30 8471 H 798.464 3.81671 0.953468 0
M  V30 8472 H 800.479 4.54916 1.98156 0
M  V30 8473 N 799.652 0.226554 1.55963 0
M  V30 8474 C 800.898 -0.404387 1.98727 0
M  V30 8475 C 801.231 -1.59059 1.11418 0
M  V30 8476 O 800.506 -1.93729 0.172971 0
M  V30 8477 C 800.789 -0.834081 3.50307 0
M  V30 8478 C 800.642 0.356104 4.48388 0
M  V30 8479 C 801.961 -1.68845 4.06423 0
M  V30 8480 H 799.08 -0.145515 0.722492 0
M  V30 8481 H 801.722 0.323791 1.87221 0
M  V30 8482 H 799.872 -1.45454 3.60244 0
M  V30 8483 H 801.544 0.99432 4.50456 0
M  V30 8484 H 799.787 1.0027 4.22053 0
M  V30 8485 H 800.458 0.0124333 5.51999 0
M  V30 8486 H 802.934 -1.16489 3.99461 0
M  V30 8487 H 801.81 -1.958 5.1279 0
M  V30 8488 H 802.071 -2.65347 3.53615 0
M  V30 8489 N 801.13 -1.57531 -0.0467866 0
M  V30 8490 C 802.376 -1.8873 -0.742218 0
M  V30 8491 C 802.709 -0.822084 -1.75941 0
M  V30 8492 O 801.984 0.164922 -1.938 0
M  V30 8493 C 802.267 -3.30586 -1.42776 0
M  V30 8494 C 802.12 -4.47785 -0.425285 0
M  V30 8495 C 803.439 -3.71068 -2.36636 0
M  V30 8496 H 800.558 -0.686406 -0.268359 0
M  V30 8497 H 803.2 -1.89999 -0.00511341 0
M  V30 8498 H 801.35 -3.29634 -2.05605 0
M  V30 8499 H 803.022 -4.60867 0.199721 0
M  V30 8500 H 801.265 -4.33037 0.25713 0
M  V30 8501 H 801.936 -5.43884 -0.943086 0
M  V30 8502 H 804.412 -3.73273 -1.83866 0
M  V30 8503 H 803.288 -4.71165 -2.81593 0
M  V30 8504 H 803.549 -3.02355 -3.22542 0
M  V30 8505 N 802.608 0.318715 -1.54344 0
M  V30 8506 C 803.518 1.41535 -1.87097 0
M  V30 8507 C 804.534 1.56361 -0.763353 0
M  V30 8508 O 805.71 1.71365 -1.05811 0
M  V30 8509 C 802.775 2.76178 -2.09587 0
M  V30 8510 C 801.836 2.70486 -3.3337 0
M  V30 8511 C 801.069 3.98708 -3.54778 0
M  V30 8512 O 801.292 4.9721 -2.79532 0
M  V30 8513 O 800.226 4.01674 -4.48266 0
M  V30 8514 H 804.052 1.16764 -2.80357 0
M  V30 8515 H 801.637 0.51318 -1.4031 0
M  V30 8516 H 803.519 3.55873 -2.25682 0
M  V30 8517 H 802.194 3.00829 -1.19514 0
M  V30 8518 H 801.101 1.89325 -3.22656 0
M  V30 8519 H 802.434 2.50789 -4.23516 0
M  V30 8520 N 804.086 1.46499 0.581025 0
M  V30 8521 C 805.033 1.5719 1.68997 0
M  V30 8522 C 806.003 0.416114 1.60803 0
M  V30 8523 O 807.188 0.633086 1.79991 0
M  V30 8524 C 804.328 1.56973 3.07333 0
M  V30 8525 C 803.441 2.83298 3.26139 0
M  V30 8526 C 802.576 2.74574 4.54734 0
M  V30 8527 C 801.615 3.9583 4.66889 0
M  V30 8528 N 800.752 3.85482 5.86811 0
M  V30 8529 H 805.592 2.51914 1.59196 0
M  V30 8530 H 803.129 1.24975 0.775857 0
M  V30 8531 H 805.087 1.54832 3.87405 0
M  V30 8532 H 803.717 0.657803 3.16027 0
M  V30 8533 H 802.769 2.95411 2.3966 0
M  V30 8534 H 804.081 3.7316 3.30988 0
M  V30 8535 H 803.235 2.70548 5.43036 0
M  V30 8536 H 801.974 1.82354 4.52325 0
M  V30 8537 H 800.979 4.00186 3.77003 0
M  V30 8538 H 802.204 4.89148 4.71075 0
M  V30 8539 H 800.15 2.96051 5.85397 0
M  V30 8540 H 800.067 4.69002 5.92936 0
M  V30 8541 H 801.335 3.85434 6.7754 0
M  V30 8542 N 805.565 -0.825799 1.34232 0
M  V30 8543 C 806.497 -1.94401 1.21413 0
M  V30 8544 C 807.51 -1.6218 0.141902 0
M  V30 8545 O 808.699 -1.74109 0.3935 0
M  V30 8546 C 805.799 -3.28257 0.842635 0
M  V30 8547 C 804.972 -3.88521 2.00924 0
M  V30 8548 C 804.031 -5.00752 1.61661 0
M  V30 8549 O 803.057 -5.19201 2.33279 0
M  V30 8550 N 804.259 -5.78084 0.52911 0
M  V30 8551 H 807.024 -2.05931 2.17744 0
M  V30 8552 H 804.585 -1.00223 1.27149 0
M  V30 8553 H 806.577 -4.00781 0.561822 0
M  V30 8554 H 805.147 -3.12585 -0.0304029 0
M  V30 8555 H 804.367 -3.08425 2.45495 0
M  V30 8556 H 805.655 -4.25516 2.78951 0
M  V30 8557 H 805.053 -5.65661 -0.0663322 0
M  V30 8558 H 803.61 -6.51072 0.308017 0
M  V30 8559 N 807.043 -1.17915 -1.04565 0
M  V30 8560 C 808.289 -0.972863 -1.77942 0
M  V30 8561 C 808.622 0.496753 -1.87739 0
M  V30 8562 O 807.897 1.3688 -1.38181 0
M  V30 8563 C 808.18 -1.62227 -3.21488 0
M  V30 8564 C 808.033 -3.16441 -3.19664 0
M  V30 8565 C 809.352 -1.33137 -4.19479 0
M  V30 8566 H 806.471 -0.354843 -0.645953 0
M  V30 8567 H 809.113 -1.45508 -1.22178 0
M  V30 8568 H 807.263 -1.21224 -3.69103 0
M  V30 8569 H 808.935 -3.66544 -2.80077 0
M  V30 8570 H 807.178 -3.48863 -2.57832 0
M  V30 8571 H 807.849 -3.57012 -4.21006 0
M  V30 8572 H 810.325 -1.68654 -3.80388 0
M  V30 8573 H 809.201 -1.81151 -5.18146 0
M  V30 8574 H 809.462 -0.253319 -4.41374 0
M  V30 8575 N 808.521 1.23394 -0.980386 0
M  V30 8576 C 809.937 1.43961 -0.689008 0
M  V30 8577 C 810.137 1.87229 0.744809 0
M  V30 8578 O 809.193 2.01831 1.51725 0
M  V30 8579 C 810.506 2.49128 -1.68392 0
M  V30 8580 C 812.054 2.62941 -1.69796 0
M  V30 8581 C 812.529 3.71317 -2.68118 0
M  V30 8582 N 814.02 3.7876 -2.66636 0
M  V30 8583 C 814.755 4.62176 -3.39383 0
M  V30 8584 N 814.251 5.49682 -4.21688 0
M  V30 8585 N 816.044 4.56372 -3.28147 0
M  V30 8586 H 808.195 0.936106 -1.90659 0
M  V30 8587 H 810.458 0.473023 -0.821555 0
M  V30 8588 H 810.164 2.24252 -2.70931 0
M  V30 8589 H 810.038 3.47514 -1.46675 0
M  V30 8590 H 812.425 2.87168 -0.679617 0
M  V30 8591 H 812.506 1.64871 -1.95579 0
M  V30 8592 H 812.15 3.4784 -3.70095 0
M  V30 8593 H 812.08 4.68929 -2.3961 0
M  V30 8594 H 814.571 3.16226 -2.06904 0
M  V30 8595 H 814.884 6.10323 -4.74053 0
M  V30 8596 H 813.229 5.49306 -4.25779 0
M  V30 8597 H 816.42 3.87029 -2.63299 0
M  V30 8598 H 816.593 5.21153 -3.85102 0
M  V30 8599 N 809.999 0.752036 1.385 0
M  V30 8600 C 810.909 0.125318 2.34265 0
M  V30 8601 C 811.925 -0.702437 1.59191 0
M  V30 8602 O 813.101 -0.626951 1.91393 0
M  V30 8603 C 810.166 -0.758486 3.38301 0
M  V30 8604 C 809.227 0.0834636 4.29219 0
M  V30 8605 C 808.46 -0.758252 5.28286 0
M  V30 8606 O 808.683 -1.99632 5.34325 0
M  V30 8607 O 807.617 -0.177878 6.01637 0
M  V30 8608 H 811.443 0.91617 2.89551 0
M  V30 8609 H 809.028 0.512911 1.4032 0
M  V30 8610 H 810.91 -1.26365 4.02007 0
M  V30 8611 H 809.585 -1.52786 2.85374 0
M  V30 8612 H 808.492 0.634545 3.68679 0
M  V30 8613 H 809.825 0.815455 4.85398 0
M  V30 8614 N 811.477 -1.49425 0.500989 0
M  V30 8615 C 812.725 -2.02053 -0.0434495 0
M  V30 8616 C 813.046 -1.38285 -1.37486 0
M  V30 8617 O 812.316 -0.538171 -1.88363 0
M  V30 8618 H 810.896 -0.746757 -0.0190469 0
M  V30 8619 H 813.558 -1.83449 0.658227 0
M  V30 8620 H 812.654 -3.11619 -0.173129 0
M  V30 8621 N 812.955 -0.234822 -1.55841 0
M  V30 8622 C 814.202 0.39326 -1.98645 0
M  V30 8623 C 814.53 1.58823 -1.12274 0
M  V30 8624 O 813.785 1.94954 -0.170731 0
M  V30 8625 C 814.084 0.858032 -3.46947 0
M  V30 8626 C 813.75 -0.227858 -4.50324 0
M  V30 8627 C 812.412 -0.526128 -4.78315 0
M  V30 8628 C 814.764 -0.961576 -5.12253 0
M  V30 8629 C 812.092 -1.5624 -5.65514 0
M  V30 8630 C 814.444 -1.98728 -6.00575 0
M  V30 8631 C 813.108 -2.29233 -6.26904 0
M  V30 8632 H 812.378 0.143904 -0.726892 0
M  V30 8633 H 815.025 -0.34012 -1.88455 0
M  V30 8634 H 813.33 1.67041 -3.54408 0
M  V30 8635 H 815.027 1.35407 -3.77447 0
M  V30 8636 H 811.617 0.0147624 -4.28597 0
M  V30 8637 H 815.801 -0.744388 -4.90686 0
M  V30 8638 H 811.057 -1.80422 -5.84173 0
M  V30 8639 H 815.231 -2.5608 -6.47608 0
M  V30 8640 H 812.858 -3.09671 -6.94268 0
M  V30 8641 N 814.433 1.57553 0.0384317 0
M  V30 8642 C 815.663 1.92813 0.742064 0
M  V30 8643 C 816.071 0.832157 1.69917 0
M  V30 8644 O 815.414 -0.200917 1.82598 0
M  V30 8645 C 815.476 3.23806 1.56172 0
M  V30 8646 C 815.14 4.50459 0.770407 0
M  V30 8647 C 816.137 5.19846 0.0748006 0
M  V30 8648 C 813.822 4.97001 0.727714 0
M  V30 8649 C 815.816 6.34047 -0.652902 0
M  V30 8650 C 813.503 6.111 -0.00373992 0
M  V30 8651 C 814.501 6.79477 -0.692816 0
M  V30 8652 O 814.189 7.91395 -1.41241 0
M  V30 8653 H 813.921 0.641174 0.214179 0
M  V30 8654 H 816.475 2.054 0.00285095 0
M  V30 8655 H 814.705 3.0752 2.34453 0
M  V30 8656 H 816.394 3.44463 2.14709 0
M  V30 8657 H 817.16 4.84899 0.098875 0
M  V30 8658 H 813.039 4.43629 1.25355 0
M  V30 8659 H 816.583 6.87353 -1.1913 0
M  V30 8660 H 812.48 6.45493 -0.0297703 0
M  V30 8661 H 813.248 8.07702 -1.32512 0
M  V30 8662 N 815.911 -0.310526 1.54511 0
M  V30 8663 C 817.159 -1.04484 1.72996 0
M  V30 8664 C 817.48 -1.88118 0.513479 0
M  V30 8665 O 816.75 -1.90119 -0.472384 0
M  V30 8666 H 815.33 -0.388747 0.637875 0
M  V30 8667 H 817.992 -0.343811 1.91844 0
M  V30 8668 H 817.088 -1.70341 2.61515 0
M  V30 8669 N 817.389 -1.46805 -0.573248 0
M  V30 8670 C 818.319 -1.60951 -1.69165 0
M  V30 8671 C 819.3 -0.45948 -1.63777 0
M  V30 8672 O 820.485 -0.68688 -1.81647 0
M  V30 8673 C 817.615 -1.60844 -3.07809 0
M  V30 8674 C 816.569 -2.74913 -3.28035 0
M  V30 8675 C 815.895 -2.59871 -4.67302 0
M  V30 8676 C 817.195 -4.16654 -3.14955 0
M  V30 8677 H 818.889 -2.54574 -1.57582 0
M  V30 8678 H 816.435 -1.22516 -0.756686 0
M  V30 8679 H 818.388 -1.69334 -3.85881 0
M  V30 8680 H 817.112 -0.637714 -3.20314 0
M  V30 8681 H 815.771 -2.65908 -2.52366 0
M  V30 8682 H 815.419 -1.60861 -4.76585 0
M  V30 8683 H 815.119 -3.36386 -4.81786 0
M  V30 8684 H 816.643 -2.70265 -5.4753 0
M  V30 8685 H 818.057 -4.26721 -3.82861 0
M  V30 8686 H 816.454 -4.93831 -3.40956 0
M  V30 8687 H 817.524 -4.36146 -2.11908 0
M  V30 8688 N 818.867 0.818669 -1.34668 0
M  V30 8689 C 820.144 1.56118 -1.17841 0
M  V30 8690 C 820.524 2.09646 0.24731 0
M  V30 8691 O 819.872 1.91329 1.24922 0
M  V30 8692 C 820.082 2.67922 -2.23649 0
M  V30 8693 C 821.43 3.36579 -2.58843 0
M  V30 8694 O 822.454 2.78182 -2.22471 0
M  V30 8695 O 821.313 4.42045 -3.21339 0
M  V30 8696 H 818.407 0.689216 -0.457067 0
M  V30 8697 H 820.953 0.859674 -1.46314 0
M  V30 8698 H 819.725 2.26153 -3.19328 0
M  V30 8699 H 819.348 3.45719 -1.96377 0
M  V30 8700 N 820.346 1.18468 1.03938 0
M  V30 8701 C 821.293 0.912859 2.1198 0
M  V30 8702 C 822.263 -0.14824 1.65437 0
M  V30 8703 O 823.448 -0.008331 1.90798 0
M  V30 8704 C 820.588 0.446114 3.42204 0
M  V30 8705 C 819.701 1.57278 4.02353 0
M  V30 8706 C 818.836 1.05863 5.20544 0
M  V30 8707 C 817.875 2.1599 5.72726 0
M  V30 8708 N 817.012 1.65959 6.82204 0
M  V30 8709 H 821.852 1.83798 2.34569 0
M  V30 8710 H 819.389 0.916504 1.15059 0
M  V30 8711 H 821.347 0.15697 4.16905 0
M  V30 8712 H 819.977 -0.442025 3.19759 0
M  V30 8713 H 819.029 1.97737 3.24968 0
M  V30 8714 H 820.341 2.40289 4.37107 0
M  V30 8715 H 819.495 0.724087 6.02364 0
M  V30 8716 H 818.234 0.198116 4.87297 0
M  V30 8717 H 817.239 2.50287 4.89527 0
M  V30 8718 H 818.464 3.02479 6.08016 0
M  V30 8719 H 816.41 0.82199 6.5083 0
M  V30 8720 H 816.327 2.42567 7.16029 0
M  V30 8721 H 817.595 1.35436 7.67644 0
M  V30 8722 N 821.824 -1.22873 0.986916 0
M  V30 8723 C 822.734 -2.28277 0.540978 0
M  V30 8724 C 823.75 -1.69164 -0.407363 0
M  V30 8725 O 824.926 -1.99504 -0.275674 0
M  V30 8726 C 821.991 -3.46404 -0.143181 0
M  V30 8727 C 821.052 -4.20854 0.847375 0
M  V30 8728 C 820.285 -5.33341 0.19577 0
M  V30 8729 O 820.508 -5.61356 -1.0117 0
M  V30 8730 O 819.442 -5.95169 0.897623 0
M  V30 8731 H 823.268 -2.68578 1.41773 0
M  V30 8732 H 820.853 -1.28927 0.754867 0
M  V30 8733 H 822.735 -4.18096 -0.526676 0
M  V30 8734 H 821.41 -3.08041 -0.994593 0
M  V30 8735 H 820.317 -3.51459 1.28169 0
M  V30 8736 H 821.65 -4.63082 1.6678 0
M  V30 8737 N 823.302 -0.75937 -1.38099 0
M  V30 8738 C 824.212 -0.13774 -2.34195 0
M  V30 8739 C 825.228 0.693985 -1.59561 0
M  V30 8740 O 826.404 0.616792 -1.91723 0
M  V30 8741 C 823.469 0.740535 -3.38699 0
M  V30 8742 C 822.53 -0.106225 -4.29169 0
M  V30 8743 C 821.763 0.730225 -5.28681 0
M  V30 8744 O 821.986 1.96796 -5.35376 0
M  V30 8745 O 820.92 0.145969 -6.01723 0
M  V30 8746 H 824.746 -0.931512 -2.89061 0
M  V30 8747 H 822.331 -0.520345 -1.40046 0
M  V30 8748 H 824.213 1.24232 -4.02672 0
M  V30 8749 H 822.888 1.51271 -2.8618 0
M  V30 8750 H 821.795 -0.654088 -3.68337 0
M  V30 8751 H 823.128 -0.841186 -4.84959 0
M  V30 8752 N 824.78 1.49157 -0.508906 0
M  V30 8753 C 825.743 2.27784 0.25434 0
M  V30 8754 C 826.743 1.34132 0.88686 0
M  V30 8755 O 827.933 1.5722 0.750168 0
M  V30 8756 C 825.065 3.12347 1.36573 0
M  V30 8757 H 826.258 2.96718 -0.435714 0
M  V30 8758 H 823.811 1.54052 -0.264128 0
M  V30 8759 H 824.546 2.47997 2.08969 0
M  V30 8760 H 824.331 3.81213 0.917543 0
M  V30 8761 H 825.821 3.71712 1.90315 0
M  V30 8762 N 826.258 0.243083 1.55714 0
M  V30 8763 C 827.205 -0.658078 2.21219 0
M  V30 8764 C 828.175 -1.1742 1.17481 0
M  V30 8765 O 829.36 -1.22937 1.45915 0
M  V30 8766 C 826.5 -1.85104 2.91257 0
M  V30 8767 C 825.613 -1.3718 4.09641 0
M  V30 8768 C 824.748 -2.52403 4.67404 0
M  V30 8769 C 823.787 -2.01321 5.78045 0
M  V30 8770 N 822.924 -3.09896 6.30007 0
M  V30 8771 H 827.764 -0.0927854 2.97856 0
M  V30 8772 H 825.301 -0.0340375 1.47061 0
M  V30 8773 H 827.259 -2.55179 3.3006 0
M  V30 8774 H 825.889 -2.38887 2.17101 0
M  V30 8775 H 824.941 -0.565232 3.76177 0
M  V30 8776 H 826.253 -0.957409 4.89525 0
M  V30 8777 H 825.407 -3.30525 5.08761 0
M  V30 8778 H 824.146 -2.97142 3.86728 0
M  V30 8779 H 823.151 -1.21667 5.36169 0
M  V30 8780 H 824.376 -1.57556 6.6057 0
M  V30 8781 H 822.322 -3.54077 5.52237 0
M  V30 8782 H 822.239 -2.72776 7.05074 0
M  V30 8783 H 823.507 -3.8809 6.76023 0
M  V30 8784 N 827.736 -1.57571 -0.0300757 0
M  V30 8785 C 829.152 -1.54869 -0.385703 0
M  V30 8786 C 829.352 -0.969068 -1.76667 0
M  V30 8787 O 828.408 -0.589676 -2.45518 0
M  V30 8788 C 829.721 -2.99313 -0.288482 0
M  V30 8789 C 831.269 -3.10857 -0.365638 0
M  V30 8790 C 831.744 -4.5703 -0.297878 0
M  V30 8791 N 833.235 -4.61825 -0.356703 0
M  V30 8792 C 833.97 -5.72466 -0.327146 0
M  V30 8793 N 833.466 -6.92349 -0.249941 0
M  V30 8794 N 835.259 -5.60836 -0.376801 0
M  V30 8795 H 827.41 -1.936 0.87367 0
M  V30 8796 H 829.673 -0.887924 0.332106 0
M  V30 8797 H 829.379 -3.45443 0.66047 0
M  V30 8798 H 829.253 -3.61332 -1.08253 0
M  V30 8799 H 831.64 -2.64676 -1.30502 0
M  V30 8800 H 831.721 -2.51671 0.457744 0
M  V30 8801 H 831.365 -5.03879 0.637835 0
M  V30 8802 H 831.295 -5.14127 -1.13935 0
M  V30 8803 H 833.786 -3.75571 -0.418926 0
M  V30 8804 H 834.099 -7.7245 -0.23246 0
M  V30 8805 H 832.444 -6.94664 -0.216004 0
M  V30 8806 H 835.635 -4.66073 -0.435101 0
M  V30 8807 H 835.808 -6.47052 -0.350298 0
M  V30 8808 N 829.214 0.302327 -1.54673 0
M  V30 8809 C 830.46 1.03924 -1.74149 0
M  V30 8810 C 830.793 1.86968 -0.525041 0
M  V30 8811 O 830.068 1.88538 0.477868 0
M  V30 8812 C 830.351 1.94633 -3.02969 0
M  V30 8813 C 830.204 1.14778 -4.34909 0
M  V30 8814 C 831.523 2.93826 -3.27649 0
M  V30 8815 H 828.642 0.376405 -0.633631 0
M  V30 8816 H 831.284 0.314007 -1.87387 0
M  V30 8817 H 829.434 2.56471 -2.91813 0
M  V30 8818 H 831.106 0.552363 -4.57981 0
M  V30 8819 H 829.349 0.450462 -4.31455 0
M  V30 8820 H 830.02 1.81495 -5.21309 0
M  V30 8821 H 832.496 2.42117 -3.38406 0
M  V30 8822 H 831.372 3.54462 -4.19104 0
M  V30 8823 H 831.633 3.67416 -2.45882 0
M  V30 8824 N 830.692 1.47107 0.565454 0
M  V30 8825 C 831.938 1.53535 1.32495 0
M  V30 8826 C 832.271 0.193537 1.93233 0
M  V30 8827 O 831.546 -0.796956 1.77423 0
M  V30 8828 C 831.829 2.64712 2.4413 0
M  V30 8829 C 831.682 4.08482 1.88314 0
M  V30 8830 C 833.001 2.71853 3.46098 0
M  V30 8831 H 830.12 0.558926 0.480386 0
M  V30 8832 H 832.762 1.79125 0.633575 0
M  V30 8833 H 830.912 2.43023 3.03104 0
M  V30 8834 H 832.584 4.4151 1.33665 0
M  V30 8835 H 830.827 4.17148 1.19037 0
M  V30 8836 H 831.498 4.82032 2.68978 0
M  V30 8837 H 833.974 2.91397 2.97031 0
M  V30 8838 H 832.85 3.51433 4.21646 0
M  V30 8839 H 833.111 1.78584 4.04426 0
M  V30 8840 N 832.17 -0.811516 1.35101 0
M  V30 8841 C 833.419 -1.56343 1.27435 0
M  V30 8842 C 833.732 -1.95019 -0.150696 0
M  V30 8843 O 834.938 -2.6924 -0.349586 0
M  V30 8844 C 833.394 -2.82124 2.23459 0
M  V30 8845 C 833.002 -2.50706 3.71283 0
M  V30 8846 C 834.746 -3.60137 2.24726 0
M  V30 8847 C 832.653 -3.72748 4.59143 0
M  V30 8848 H 831.583 -0.58682 0.473453 0
M  V30 8849 H 834.234 -0.892465 1.60335 0
M  V30 8850 H 832.616 -3.50905 1.83525 0
M  V30 8851 H 833.79 -1.89962 4.19823 0
M  V30 8852 H 832.105 -1.85947 3.72576 0
M  V30 8853 H 834.702 -4.50775 2.87587 0
M  V30 8854 H 835.045 -3.97101 1.24965 0
M  V30 8855 H 835.578 -2.98311 2.63164 0
M  V30 8856 H 832.317 -3.40896 5.59884 0
M  V30 8857 H 831.837 -4.32735 4.15332 0
M  V30 8858 H 833.516 -4.40033 4.74321 0
M  V30 8859 N 833.648 -1.19017 -1.03309 0
M  V30 8860 C 834.611 -0.926076 -2.09658 0
M  V30 8861 C 835.611 0.0917077 -1.60538 0
M  V30 8862 O 836.801 -0.142574 -1.73616 0
M  V30 8863 C 833.933 -0.390958 -3.38651 0
M  V30 8864 H 835.126 -1.86923 -2.3452 0
M  V30 8865 H 832.679 -1.00325 -1.19853 0
M  V30 8866 H 833.414 0.558446 -3.19456 0
M  V30 8867 H 833.199 -1.12474 -3.75622 0
M  V30 8868 H 834.689 -0.225131 -4.16993 0
M  V30 8869 N 835.127 1.22348 -0.993418 0
M  V30 8870 C 836.357 1.94842 -0.687023 0
M  V30 8871 C 836.765 1.73594 0.752445 0
M  V30 8872 O 836.108 1.03238 1.51946 0
M  V30 8873 C 836.17 3.47694 -0.913754 0
M  V30 8874 C 835.834 3.92678 -2.33781 0
M  V30 8875 C 836.831 4.0031 -3.31734 0
M  V30 8876 C 834.516 4.25311 -2.67237 0
M  V30 8877 C 836.51 4.39951 -4.61218 0
M  V30 8878 C 834.197 4.64631 -3.9694 0
M  V30 8879 C 835.195 4.71919 -4.93742 0
M  V30 8880 O 834.883 5.10349 -6.21127 0
M  V30 8881 H 834.615 0.626771 -0.253247 0
M  V30 8882 H 837.169 1.56436 -1.33105 0
M  V30 8883 H 835.399 3.86115 -0.212552 0
M  V30 8884 H 837.088 4.01403 -0.602528 0
M  V30 8885 H 837.854 3.75288 -3.07219 0
M  V30 8886 H 833.733 4.18842 -1.92594 0
M  V30 8887 H 837.277 4.45555 -5.36774 0
M  V30 8888 H 833.174 4.89104 -4.21245 0
M  V30 8889 H 833.942 5.2842 -6.25072 0
M  V30 8890 N 836.605 0.766683 1.37694 0
M  V30 8891 C 837.515 0.150158 2.34119 0
M  V30 8892 C 838.531 -0.685513 1.59927 0
M  V30 8893 O 839.707 -0.606616 1.92047 0
M  V30 8894 C 836.772 -0.722562 3.39087 0
M  V30 8895 C 835.833 0.128983 4.29106 0
M  V30 8896 C 835.066 -0.702178 5.29061 0
M  V30 8897 O 835.289 -1.93954 5.36412 0
M  V30 8898 O 834.223 -0.114056 6.01792 0
M  V30 8899 H 838.049 0.946829 2.88563 0
M  V30 8900 H 835.634 0.527765 1.39768 0
M  V30 8901 H 837.516 -1.22095 4.03325 0
M  V30 8902 H 836.191 -1.49751 2.86978 0
M  V30 8903 H 835.098 0.673612 3.67985 0
M  V30 8904 H 836.431 0.866892 4.84506 0
M  V30 8905 N 838.083 -1.48885 0.516809 0
M  V30 8906 C 839.494 -1.86557 0.0729921 0
M  V30 8907 C 839.845 -1.42767 -1.34581 0
M  V30 8908 O 838.97 -0.812514 -2.00567 0
M  V30 8909 C 839.565 -3.38567 0.125686 0
M  V30 8910 C 838.124 -3.75481 -0.262867 0
M  V30 8911 C 837.271 -2.72913 0.491281 0
M  V30 8912 H 840.222 -1.40978 0.728767 0
M  V30 8913 H 840.243 -3.74629 -0.665831 0
M  V30 8914 H 839.755 -3.70408 1.15842 0
M  V30 8915 H 837.856 -3.49251 -1.29824 0
M  V30 8916 H 837.969 -4.79052 0.067579 0
M  V30 8917 H 836.333 -2.54627 -0.0608525 0
M  V30 8918 H 837.116 -3.07599 1.5244 0
M  V30 8919 N 839.561 -0.251338 -1.55583 0
M  V30 8920 C 840.807 0.37272 -1.99346 0
M  V30 8921 C 841.14 1.57266 -1.13934 0
M  V30 8922 O 840.415 1.9343 -0.20377 0
M  V30 8923 C 840.698 0.778245 -3.5159 0
M  V30 8924 C 840.551 -0.427394 -4.47765 0
M  V30 8925 C 841.87 1.62358 -4.09057 0
M  V30 8926 H 838.989 0.134002 -0.724715 0
M  V30 8927 H 841.631 -0.353536 -1.86682 0
M  V30 8928 H 839.781 1.39704 -3.62512 0
M  V30 8929 H 841.453 -1.06586 -4.48818 0
M  V30 8930 H 839.696 -1.06972 -4.20404 0
M  V30 8931 H 840.367 -0.10025 -5.51909 0
M  V30 8932 H 842.843 1.1012 -4.01264 0
M  V30 8933 H 841.719 1.87617 -5.1584 0
M  V30 8934 H 841.98 2.59688 -3.57791 0
M  V30 8935 N 841.039 1.57585 0.0217189 0
M  V30 8936 C 842.285 1.90733 0.706582 0
M  V30 8937 C 842.64 0.850732 1.7257 0
M  V30 8938 O 841.933 -0.139715 1.9109 0
M  V30 8939 C 842.127 3.28377 1.41079 0
M  V30 8940 C 841.956 4.47327 0.461395 0
M  V30 8941 C 840.726 5.05237 0.0797404 0
M  V30 8942 C 842.924 5.13626 -0.263302 0
M  V30 8943 N 840.906 6.07702 -0.870139 0
M  V30 8944 C 842.277 6.10722 -1.06859 0
M  V30 8945 C 844.332 4.96809 -0.329461 0
M  V30 8946 C 843.035 6.92813 -1.93397 0
M  V30 8947 C 845.061 5.79468 -1.18199 0
M  V30 8948 C 844.423 6.7614 -1.97519 0
M  V30 8949 H 840.522 0.74666 0.232427 0
M  V30 8950 H 843.106 1.94671 -0.0335228 0
M  V30 8951 H 841.277 3.25354 2.12131 0
M  V30 8952 H 843.009 3.49018 2.04862 0
M  V30 8953 H 839.764 4.71519 0.443498 0
M  V30 8954 H 840.188 6.6361 -1.33981 0
M  V30 8955 H 844.83 4.2194 0.269485 0
M  V30 8956 H 842.548 7.67022 -2.54369 0
M  V30 8957 H 846.134 5.68502 -1.23681 0
M  V30 8958 H 845.014 7.38989 -2.62421 0
M  V30 8959 N 842.517 -0.29412 1.54831 0
M  V30 8960 C 843.48 -1.3461 1.85507 0
M  V30 8961 C 844.48 -1.43359 0.728343 0
M  V30 8962 O 845.67 -1.42875 0.996609 0
M  V30 8963 C 842.802 -2.73012 2.0415 0
M  V30 8964 H 843.995 -1.08651 2.79526 0
M  V30 8965 H 841.548 -0.531138 1.46999 0
M  V30 8966 H 842.283 -3.04183 1.12441 0
M  V30 8967 H 842.068 -2.68051 2.86166 0
M  V30 8968 H 843.558 -3.49061 2.29229 0
M  V30 8969 N 843.995 -1.47404 -0.557645 0
M  V30 8970 C 845.244 -1.53268 -1.31118 0
M  V30 8971 C 845.557 -0.199414 -1.94581 0
M  V30 8972 O 846.763 -0.136039 -2.71159 0
M  V30 8973 C 845.219 -2.70178 -2.37764 0
M  V30 8974 C 844.827 -4.10032 -1.80493 0
M  V30 8975 C 846.571 -2.85334 -3.14301 0
M  V30 8976 C 844.478 -5.18244 -2.84916 0
M  V30 8977 H 843.408 -0.570491 -0.493007 0
M  V30 8978 H 846.059 -1.73678 -0.592308 0
M  V30 8979 H 844.441 -2.43147 -3.12563 0
M  V30 8980 H 845.615 -4.46964 -1.12069 0
M  V30 8981 H 843.93 -3.99759 -1.16542 0
M  V30 8982 H 846.527 -3.63347 -3.92279 0
M  V30 8983 H 846.87 -1.93761 -3.68459 0
M  V30 8984 H 847.403 -3.12133 -2.46613 0
M  V30 8985 H 844.142 -6.11691 -2.35614 0
M  V30 8986 H 843.662 -4.85829 -3.51753 0
M  V30 8987 H 845.341 -5.45174 -3.48417 0
M  V30 8988 N 845.473 0.80434 -1.35529 0
M  V30 8989 C 846.721 1.55845 -1.28673 0
M  V30 8990 C 847.042 1.94511 0.137976 0
M  V30 8991 O 846.312 1.63775 1.07492 0
M  V30 8992 H 844.892 0.577931 -0.473291 0
M  V30 8993 H 847.554 0.959293 -1.69657 0
M  V30 8994 H 846.65 2.47285 -1.90411 0
M  V30 8995 N 846.951 1.19563 1.02676 0
M  V30 8996 C 848.179 1.02488 1.79732 0
M  V30 8997 C 848.594 -0.426302 1.83924 0
M  V30 8998 O 847.951 -1.29609 1.28483 0
M  V30 8999 C 848.002 1.58944 3.24683 0
M  V30 9000 O 847.723 2.98382 3.2078 0
M  V30 9001 C 849.224 1.46681 4.1833 0
M  V30 9002 H 846.444 0.361098 0.565552 0
M  V30 9003 H 848.988 1.58426 1.29311 0
M  V30 9004 H 847.143 1.0715 3.72287 0
M  V30 9005 H 847.557 3.24983 4.11687 0
M  V30 9006 H 849.031 1.90959 5.17918 0
M  V30 9007 H 849.508 0.417663 4.3721 0
M  V30 9008 H 850.114 1.97616 3.76601 0
M  V30 9009 N 848.429 -1.21819 0.999893 0
M  V30 9010 C 849.677 -1.90375 0.678351 0
M  V30 9011 C 849.998 -1.78155 -0.792824 0
M  V30 9012 O 849.268 -1.17319 -1.56885 0
M  V30 9013 H 847.848 -0.704661 0.247915 0
M  V30 9014 H 850.51 -1.48021 1.2679 0
M  V30 9015 H 849.606 -2.97385 0.947023 0
M  V30 9016 N 849.908 -0.773975 -1.37286 0
M  V30 9017 C 851.324 -0.45386 -1.53011 0
M  V30 9018 C 851.524 1.03018 -1.73175 0
M  V30 9019 O 850.58 1.81597 -1.75438 0
M  V30 9020 C 851.893 -1.27087 -2.72524 0
M  V30 9021 C 853.441 -1.26299 -2.86387 0
M  V30 9022 C 853.916 -2.0634 -4.08886 0
M  V30 9023 N 855.407 -2.03706 -4.16003 0
M  V30 9024 C 856.142 -2.62418 -5.09828 0
M  V30 9025 N 855.638 -3.29926 -6.09197 0
M  V30 9026 N 857.431 -2.52236 -5.02328 0
M  V30 9027 H 849.582 -1.73551 -1.22449 0
M  V30 9028 H 851.845 -0.736874 -0.596423 0
M  V30 9029 H 851.551 -2.32263 -2.64096 0
M  V30 9030 H 851.425 -0.90157 -3.66267 0
M  V30 9031 H 853.812 -0.219213 -2.94285 0
M  V30 9032 H 853.893 -1.67195 -1.93596 0
M  V30 9033 H 853.537 -3.10741 -4.01749 0
M  V30 9034 H 853.467 -1.62825 -5.00795 0
M  V30 9035 H 855.958 -1.54559 -3.44848 0
M  V30 9036 H 856.271 -3.72095 -6.77322 0
M  V30 9037 H 854.616 -3.34026 -6.09469 0
M  V30 9038 H 857.807 -1.99108 -4.23643 0
M  V30 9039 H 857.98 -2.98286 -5.75265 0
M  V30 9040 N 851.386 1.48609 -0.524698 0
M  V30 9041 C 852.632 2.02797 0.0113382 0
M  V30 9042 C 852.965 1.40147 1.34433 0
M  V30 9043 O 852.24 0.545368 1.86698 0
M  V30 9044 C 852.523 3.59832 0.138931 0
M  V30 9045 C 852.376 4.32971 -1.21886 0
M  V30 9046 C 853.695 4.3145 0.868265 0
M  V30 9047 H 850.814 0.736995 0.00264645 0
M  V30 9048 H 853.456 1.77388 -0.680704 0
M  V30 9049 H 851.606 3.81612 0.72834 0
M  V30 9050 H 853.278 4.22624 -1.84897 0
M  V30 9051 H 851.521 3.94597 -1.80211 0
M  V30 9052 H 852.192 5.41279 -1.08263 0
M  V30 9053 H 854.668 4.14468 0.368145 0
M  V30 9054 H 853.544 5.41025 0.926428 0
M  V30 9055 H 853.805 3.98358 1.91737 0
M  V30 9056 N 852.864 0.259585 1.55447 0
M  V30 9057 C 853.827 -0.621359 2.20617 0
M  V30 9058 C 854.827 -1.09317 1.17925 0
M  V30 9059 O 856.017 -0.995842 1.42929 0
M  V30 9060 C 853.149 -1.85546 2.85982 0
M  V30 9061 H 854.342 -0.0525833 2.99854 0
M  V30 9062 H 851.895 0.0101055 1.56297 0
M  V30 9063 H 852.63 -2.46515 2.10715 0
M  V30 9064 H 852.415 -1.52523 3.61219 0
M  V30 9065 H 853.905 -2.48227 3.35817 0
M  V30 9066 N 854.342 -1.57594 -0.0133615 0
M  V30 9067 C 855.57 -1.94251 -0.712328 0
M  V30 9068 C 855.985 -0.86063 -1.68043 0
M  V30 9069 O 855.342 0.161632 -1.81783 0
M  V30 9070 C 855.393 -3.30891 -1.45581 0
M  V30 9071 O 855.114 -4.34924 -0.526539 0
M  V30 9072 C 856.615 -3.81926 -2.2505 0
M  V30 9073 H 853.835 -0.640737 -0.199241 0
M  V30 9074 H 856.379 -2.04472 0.0337855 0
M  V30 9075 H 854.534 -3.22019 -2.15366 0
M  V30 9076 H 854.948 -5.1389 -1.04962 0
M  V30 9077 H 856.422 -4.79999 -2.72589 0
M  V30 9078 H 856.899 -3.13934 -3.07152 0
M  V30 9079 H 857.505 -3.93931 -1.60308 0
M  V30 9080 N 855.82 0.285905 -1.54985 0
M  V30 9081 C 857.231 0.857869 -1.65824 0
M  V30 9082 C 857.582 1.87531 -0.576763 0
M  V30 9083 O 856.707 2.14528 0.284016 0
M  V30 9084 C 857.302 1.56277 -3.00604 0
M  V30 9085 C 855.861 2.08294 -3.13513 0
M  V30 9086 C 855.008 0.920633 -2.61571 0
M  V30 9087 H 857.959 0.0625463 -1.58577 0
M  V30 9088 H 857.98 2.42912 -2.92872 0
M  V30 9089 H 857.492 0.822017 -3.79295 0
M  V30 9090 H 855.593 2.8537 -2.39572 0
M  V30 9091 H 855.706 2.3071 -4.19892 0
M  V30 9092 H 854.07 1.31043 -2.18403 0
M  V30 9093 H 854.853 0.193594 -3.42754 0
M  V30 9094 N 857.298 1.47698 0.54982 0
M  V30 9095 C 858.23 1.56806 1.67166 0
M  V30 9096 C 859.243 0.453709 1.5635 0
M  V30 9097 O 860.432 0.723663 1.63173 0
M  V30 9098 C 857.532 1.4632 3.05686 0
M  V30 9099 C 856.705 2.72452 3.42182 0
M  V30 9100 C 855.764 2.55698 4.59897 0
M  V30 9101 O 854.79 3.29534 4.64108 0
M  V30 9102 N 855.992 1.64009 5.56849 0
M  V30 9103 H 858.757 2.53545 1.59797 0
M  V30 9104 H 856.318 1.44171 0.736635 0
M  V30 9105 H 858.31 1.32835 3.82279 0
M  V30 9106 H 856.88 0.57634 3.07241 0
M  V30 9107 H 856.1 3.00644 2.54964 0
M  V30 9108 H 857.388 3.56172 3.63344 0
M  V30 9109 H 856.786 1.03186 5.5621 0
M  V30 9110 H 855.343 1.56473 6.3274 0
M  V30 9111 N 858.776 -0.797141 1.35954 0
M  V30 9112 C 859.708 -1.91782 1.25509 0
M  V30 9113 C 860.721 -1.61843 0.176271 0
M  V30 9114 O 861.91 -1.73235 0.430343 0
M  V30 9115 C 859.01 -3.26396 0.912073 0
M  V30 9116 C 858.183 -3.84171 2.0912 0
M  V30 9117 C 857.242 -4.9721 1.72246 0
M  V30 9118 O 856.268 -5.14136 2.44239 0
M  V30 9119 N 857.47 -5.76831 0.651611 0
M  V30 9120 H 860.235 -2.01266 2.22063 0
M  V30 9121 H 857.796 -0.975033 1.29247 0
M  V30 9122 H 859.788 -3.99499 0.646707 0
M  V30 9123 H 858.358 -3.12579 0.0359079 0
M  V30 9124 H 857.578 -3.03148 2.51982 0
M  V30 9125 H 858.866 -4.19503 2.87914 0
M  V30 9126 H 858.264 -5.65675 0.0536678 0
M  V30 9127 H 856.821 -6.50272 0.44605 0
M  V30 9128 N 860.254 -1.20106 -1.0204 0
M  V30 9129 C 861.217 -0.948261 -2.08664 0
M  V30 9130 C 862.217 0.0746753 -1.60627 0
M  V30 9131 O 863.407 -0.160981 -1.73455 0
M  V30 9132 C 860.539 -0.426854 -3.38217 0
M  V30 9133 H 861.732 -1.894 -2.32524 0
M  V30 9134 H 859.285 -1.0159 -1.18782 0
M  V30 9135 H 860.02 0.524532 -3.2003 0
M  V30 9136 H 859.805 -1.16451 -3.74408 0
M  V30 9137 H 861.295 -0.269346 -4.1673 0
M  V30 9138 N 861.732 1.21287 -1.00634 0
M  V30 9139 C 862.664 2.2308 -0.526094 0
M  V30 9140 C 863.677 1.58157 0.386031 0
M  V30 9141 O 864.866 1.77528 0.186016 0
M  V30 9142 C 861.966 3.37937 0.255289 0
M  V30 9143 C 861.139 4.32449 -0.656236 0
M  V30 9144 C 860.198 5.26145 0.0757714 0
M  V30 9145 O 859.224 5.66601 -0.543325 0
M  V30 9146 N 860.426 5.6449 1.35391 0
M  V30 9147 H 863.191 2.64913 -1.40147 0
M  V30 9148 H 860.752 1.35724 -0.882641 0
M  V30 9149 H 862.744 3.97614 0.753977 0
M  V30 9150 H 861.314 2.95078 1.03187 0
M  V30 9151 H 860.534 3.70892 -1.3354 0
M  V30 9152 H 861.822 4.92526 -1.27653 0
M  V30 9153 H 861.22 5.33617 1.878 0
M  V30 9154 H 859.777 6.26524 1.79753 0
M  V30 9155 N 863.21 0.781244 1.36873 0
M  V30 9156 C 864.12 0.174981 2.33947 0
M  V30 9157 C 865.136 -0.668512 1.60645 0
M  V30 9158 O 866.312 -0.586213 1.9268 0
M  V30 9159 C 863.377 -0.686557 3.39834 0
M  V30 9160 C 862.438 0.174489 4.28945 0
M  V30 9161 C 861.671 -0.646024 5.29776 0
M  V30 9162 O 861.894 -1.88254 5.38439 0
M  V30 9163 O 860.828 -0.0502214 6.01879 0
M  V30 9164 H 864.654 0.977382 2.87543 0
M  V30 9165 H 862.239 0.542559 1.392 0
M  V30 9166 H 864.121 -1.1781 4.04597 0
M  V30 9167 H 862.796 -1.46699 2.8855 0
M  V30 9168 H 861.703 0.712604 3.6725 0
M  V30 9169 H 863.036 0.918232 4.83559 0
M  V30 9170 N 864.689 -1.48329 0.532571 0
M  V30 9171 C 865.935 -2.028 -0.000583219 0
M  V30 9172 C 866.268 -1.40858 -1.33688 0
M  V30 9173 O 865.543 -0.555261 -1.86406 0
M  V30 9174 C 865.826 -3.59901 -0.119846 0
M  V30 9175 C 865.679 -4.32318 1.2418 0
M  V30 9176 C 866.998 -4.31904 -0.845372 0
M  V30 9177 H 864.117 -0.736999 0.00126205 0
M  V30 9178 H 866.759 -1.77024 0.690102 0
M  V30 9179 H 864.909 -3.81993 -0.708092 0
M  V30 9180 H 866.581 -4.21637 1.87136 0
M  V30 9181 H 864.824 -3.93635 1.82301 0
M  V30 9182 H 865.495 -5.40697 1.11132 0
M  V30 9183 H 867.971 -4.14658 -0.346159 0
M  V30 9184 H 866.847 -5.41509 -0.897723 0
M  V30 9185 H 867.108 -3.99369 -1.89622 0
M  V30 9186 N 866.167 -0.267825 -1.55308 0
M  V30 9187 C 867.117 0.637168 -2.18916 0
M  V30 9188 C 868.101 1.12381 -1.15149 0
M  V30 9189 O 869.293 1.0701 -1.40989 0
M  V30 9190 C 866.422 1.82423 -2.90821 0
M  V30 9191 C 865.508 1.35512 -4.01867 0
M  V30 9192 N 865.899 0.601644 -5.02209 0
M  V30 9193 C 864.197 1.63868 -4.14805 0
M  V30 9194 C 864.898 0.35596 -5.8061 0
M  V30 9195 N 863.874 0.926271 -5.3565 0
M  V30 9196 H 867.676 0.0535787 -2.93851 0
M  V30 9197 H 865.19 -0.0710577 -1.62244 0
M  V30 9198 H 867.187 2.48379 -3.34834 0
M  V30 9199 H 865.847 2.41185 -2.17394 0
M  V30 9200 H 866.858 0.249693 -5.17298 0
M  V30 9201 H 863.535 2.23618 -3.52564 0
M  V30 9202 H 864.925 -0.246994 -6.71446 0
M  V30 9203 N 867.645 1.57599 0.00500368 0
M  V30 9204 C 868.608 2.07058 0.982832 0
M  V30 9205 C 869.608 0.979045 1.27559 0
M  V30 9206 O 870.798 1.24187 1.22161 0
M  V30 9207 C 867.93 2.50782 2.30914 0
M  V30 9208 H 869.123 2.94718 0.555119 0
M  V30 9209 H 866.676 1.54249 0.25237 0
M  V30 9210 H 867.411 1.66351 2.78385 0
M  V30 9211 H 867.196 3.30495 2.10987 0
M  V30 9212 H 868.686 2.89391 3.0107 0
M  V30 9213 N 869.123 -0.277682 1.55134 0
M  V30 9214 C 870.37 -1.0099 1.7552 0
M  V30 9215 C 870.698 -1.86452 0.553712 0
M  V30 9216 O 869.953 -1.90122 -0.463896 0
M  V30 9217 C 870.252 -1.92599 3.01065 0
M  V30 9218 C 869.918 -1.22926 4.3382 0
M  V30 9219 C 868.58 -1.03659 4.69902 0
M  V30 9220 C 870.932 -0.733071 5.16019 0
M  V30 9221 C 868.26 -0.334933 5.85743 0
M  V30 9222 C 870.612 -0.0450319 6.32584 0
M  V30 9223 C 869.276 0.159393 6.6731 0
M  V30 9224 H 868.546 -0.36955 0.642273 0
M  V30 9225 H 871.193 -0.282611 1.89403 0
M  V30 9226 H 869.498 -2.71934 2.82062 0
M  V30 9227 H 871.195 -2.49367 3.14034 0
M  V30 9228 H 867.785 -1.38933 4.05457 0
M  V30 9229 H 871.969 -0.869565 4.88623 0
M  V30 9230 H 867.225 -0.165783 6.11175 0
M  V30 9231 H 871.399 0.34723 6.95534 0
M  V30 9232 H 869.026 0.70507 7.56923 0
M  V30 9233 N 870.601 -1.47988 -0.541979 0
M  V30 9234 C 871.85 -1.5465 -1.29485 0
M  V30 9235 C 872.163 -0.220041 -1.94358 0
M  V30 9236 O 873.369 -0.164792 -2.70999 0
M  V30 9237 C 871.825 -2.72685 -2.34885 0
M  V30 9238 C 871.433 -4.11923 -1.76134 0
M  V30 9239 C 873.177 -2.88651 -3.11257 0
M  V30 9240 C 871.084 -5.21237 -2.79404 0
M  V30 9241 H 870.014 -0.575688 -0.486928 0
M  V30 9242 H 872.665 -1.74296 -0.573853 0
M  V30 9243 H 871.047 -2.46448 -3.09966 0
M  V30 9244 H 872.221 -4.48128 -1.07322 0
M  V30 9245 H 870.536 -4.00972 -1.12295 0
M  V30 9246 H 873.133 -3.67487 -3.88404 0
M  V30 9247 H 873.476 -1.97658 -3.66384 0
M  V30 9248 H 874.009 -3.14731 -2.43288 0
M  V30 9249 H 870.748 -6.14156 -2.29113 0
M  V30 9250 H 870.268 -4.89533 -3.4658 0
M  V30 9251 H 871.947 -5.48839 -3.42615 0
M  V30 9252 N 872.079 0.78992 -1.36375 0
M  V30 9253 C 873.495 1.0879 -1.16777 0
M  V30 9254 C 873.695 2.01498 0.00848236 0
M  V30 9255 O 872.751 2.43338 0.674007 0
M  V30 9256 C 874.064 1.70285 -2.47837 0
M  V30 9257 C 875.612 1.82629 -2.54196 0
M  V30 9258 C 876.087 2.47539 -3.85342 0
M  V30 9259 N 877.578 2.55008 -3.86685 0
M  V30 9260 C 878.313 3.06041 -4.84898 0
M  V30 9261 N 877.809 3.57385 -5.93505 0
M  V30 9262 N 879.602 3.04748 -4.72319 0
M  V30 9263 H 871.753 0.173985 -2.11686 0
M  V30 9264 H 874.016 0.139798 -0.937636 0
M  V30 9265 H 873.722 1.09633 -3.34176 0
M  V30 9266 H 873.596 2.69799 -2.63607 0
M  V30 9267 H 875.983 2.42419 -1.68276 0
M  V30 9268 H 876.064 0.81923 -2.42327 0
M  V30 9269 H 875.708 1.88393 -4.71668 0
M  V30 9270 H 875.638 3.48815 -3.94507 0
M  V30 9271 H 878.129 2.18651 -3.08221 0
M  V30 9272 H 878.442 3.94674 -6.64419 0
M  V30 9273 H 876.787 3.55538 -5.97175 0
M  V30 9274 H 879.978 2.63925 -3.86602 0
M  V30 9275 H 880.151 3.44212 -5.49019 0
M  V30 9276 N 873.557 1.20646 1.01402 0
M  V30 9277 C 874.504 0.957618 2.09996 0
M  V30 9278 C 875.474 -0.113115 1.65714 0
M  V30 9279 O 876.659 0.032142 1.90773 0
M  V30 9280 C 873.799 0.5186 3.41181 0
M  V30 9281 C 872.912 1.65777 3.98926 0
M  V30 9282 C 872.047 1.16881 5.18182 0
M  V30 9283 C 871.086 2.2809 5.68015 0
M  V30 9284 N 870.223 1.80392 6.7853 0
M  V30 9285 H 875.063 1.88732 2.30617 0
M  V30 9286 H 872.6 0.940703 1.13089 0
M  V30 9287 H 874.558 0.245367 4.16478 0
M  V30 9288 H 873.188 -0.3741 3.20625 0
M  V30 9289 H 872.24 2.04586 3.207 0
M  V30 9290 H 873.552 2.49507 4.31912 0
M  V30 9291 H 872.706 0.851694 6.00692 0
M  V30 9292 H 871.445 0.301434 4.86768 0
M  V30 9293 H 870.45 2.60614 4.84108 0
M  V30 9294 H 871.675 3.15308 6.01463 0
M  V30 9295 H 869.621 0.959856 6.4894 0
M  V30 9296 H 869.538 2.57701 7.10722 0
M  V30 9297 H 870.806 1.51688 7.64598 0
M  V30 9298 N 875.035 -1.20752 1.01276 0
M  V30 9299 C 875.965 -2.25658 0.600064 0
M  V30 9300 C 876.946 -1.65733 -0.38298 0
M  V30 9301 O 878.131 -1.92324 -0.269256 0
M  V30 9302 C 875.261 -3.47237 -0.0663197 0
M  V30 9303 C 874.215 -4.1973 0.83731 0
M  V30 9304 C 873.541 -5.34687 0.0369102 0
M  V30 9305 C 874.841 -4.76286 2.14357 0
M  V30 9306 H 876.535 -2.60432 1.477 0
M  V30 9307 H 874.081 -1.25187 0.711634 0
M  V30 9308 H 876.034 -4.19803 -0.366563 0
M  V30 9309 H 874.758 -3.11615 -0.977944 0
M  V30 9310 H 873.417 -3.49024 1.1215 0
M  V30 9311 H 873.065 -4.95309 -0.876244 0
M  V30 9312 H 872.765 -5.84119 0.63865 0
M  V30 9313 H 874.289 -6.10059 -0.256968 0
M  V30 9314 H 875.703 -5.40691 1.90595 0
M  V30 9315 H 874.1 -5.36139 2.69583 0
M  V30 9316 H 875.17 -3.9524 2.80916 0
M  V30 9317 N 876.513 -0.788492 -1.36457 0
M  V30 9318 C 877.443 -0.200468 -2.32638 0
M  V30 9319 C 878.424 0.664031 -1.56603 0
M  V30 9320 O 879.609 0.598045 -1.84762 0
M  V30 9321 C 876.739 0.666274 -3.40849 0
M  V30 9322 C 875.693 -0.0982574 -4.27887 0
M  V30 9323 C 875.019 0.889018 -5.27258 0
M  V30 9324 C 876.319 -1.28692 -5.06197 0
M  V30 9325 H 878.013 -1.00399 -2.82065 0
M  V30 9326 H 875.559 -0.484237 -1.35614 0
M  V30 9327 H 877.512 1.08757 -4.07124 0
M  V30 9328 H 876.236 1.50249 -2.89987 0
M  V30 9329 H 874.895 -0.500525 -3.63167 0
M  V30 9330 H 874.543 1.72024 -4.7267 0
M  V30 9331 H 874.243 0.381909 -5.86358 0
M  V30 9332 H 875.767 1.30891 -5.96406 0
M  V30 9333 H 877.181 -0.941429 -5.65517 0
M  V30 9334 H 875.578 -1.72726 -5.74705 0
M  V30 9335 H 876.648 -2.08273 -4.37893 0
M  V30 9336 N 877.991 1.48044 -0.54043 0
M  V30 9337 C 879.216 2.07396 -0.0124765 0
M  V30 9338 C 879.641 1.39288 1.26414 0
M  V30 9339 O 878.999 0.462252 1.75308 0
M  V30 9340 C 879.047 3.60131 0.18377 0
M  V30 9341 O 878.151 3.92995 1.25014 0
M  V30 9342 H 877.492 0.662554 -0.0438026 0
M  V30 9343 H 880.022 1.90306 -0.751327 0
M  V30 9344 H 880.032 4.06003 0.403197 0
M  V30 9345 H 878.707 4.09105 -0.74874 0
M  V30 9346 H 877.284 3.5889 1.01254 0
M  V30 9347 N 879.47 0.276058 1.55163 0
M  V30 9348 C 880.38 -0.621066 2.2623 0
M  V30 9349 C 881.396 -1.16931 1.28853 0
M  V30 9350 O 882.572 -1.1994 1.61791 0
M  V30 9351 C 879.637 -1.78824 2.97023 0
M  V30 9352 C 878.698 -1.27657 4.09881 0
M  V30 9353 C 877.931 -2.38812 4.77289 0
M  V30 9354 O 878.154 -3.58188 4.43912 0
M  V30 9355 O 877.088 -2.06915 5.65217 0
M  V30 9356 H 880.914 -0.0453346 3.03666 0
M  V30 9357 H 878.499 0.0434275 1.49337 0
M  V30 9358 H 880.381 -2.46877 3.41511 0
M  V30 9359 H 879.056 -2.35104 2.22503 0
M  V30 9360 H 877.963 -0.56248 3.69847 0
M  V30 9361 H 879.296 -0.759509 4.86305 0
M  V30 9362 N 880.948 -1.576 0.00335426 0
M  V30 9363 C 881.881 -2.04085 -1.021 0
M  V30 9364 C 882.859 -0.931382 -1.33282 0
M  V30 9365 O 884.043 -1.19976 -1.45389 0
M  V30 9366 C 881.17 -2.44128 -2.34775 0
M  V30 9367 C 880.216 -3.65841 -2.19232 0
M  V30 9368 S 881.049 -5.13616 -1.51521 0
M  V30 9369 C 882.205 -5.56931 -2.8562 0
M  V30 9370 H 882.438 -2.90652 -0.625192 0
M  V30 9371 H 879.971 -1.52998 -0.207611 0
M  V30 9372 H 881.929 -2.67866 -3.1106 0
M  V30 9373 H 880.59 -1.57954 -2.71495 0
M  V30 9374 H 879.783 -3.9162 -3.17253 0
M  V30 9375 H 879.385 -3.42122 -1.51091 0
M  V30 9376 H 881.677 -5.59596 -3.81914 0
M  V30 9377 H 882.62 -6.5683 -2.64536 0
M  V30 9378 H 883.028 -4.84504 -2.89683 0
M  V30 9379 N 882.426 0.269451 -1.5528 0
M  V30 9380 C 883.656 1.01724 -1.79821 0
M  V30 9381 C 884.064 1.80298 -0.573532 0
M  V30 9382 O 883.407 1.77666 0.466963 0
M  V30 9383 C 883.469 2.02043 -2.97353 0
M  V30 9384 C 883.133 1.42375 -4.34256 0
M  V30 9385 C 884.13 0.837611 -5.13108 0
M  V30 9386 C 881.815 1.44988 -4.8092 0
M  V30 9387 C 883.809 0.285557 -6.3676 0
M  V30 9388 C 881.496 0.893969 -6.04526 0
M  V30 9389 C 882.494 0.312809 -6.82283 0
M  V30 9390 O 882.182 -0.234582 -8.03558 0
M  V30 9391 H 881.914 0.30604 -0.602757 0
M  V30 9392 H 884.468 0.30454 -2.0313 0
M  V30 9393 H 882.698 2.77082 -2.69745 0
M  V30 9394 H 884.387 2.6298 -3.09187 0
M  V30 9395 H 885.153 0.81009 -4.78187 0
M  V30 9396 H 881.032 1.89162 -4.20403 0
M  V30 9397 H 884.576 -0.168696 -6.97396 0
M  V30 9398 H 880.473 0.918742 -6.38928 0
M  V30 9399 H 881.241 -0.124282 -8.18406 0
M  V30 9400 N 883.904 1.48273 0.534124 0
M  V30 9401 C 885.181 1.46567 1.29528 0
M  V30 9402 C 885.561 0.17509 2.10373 0
M  V30 9403 O 884.909 -0.843228 2.12372 0
M  V30 9404 C 885.119 2.72519 2.18023 0
M  V30 9405 C 886.467 3.2068 2.78298 0
M  V30 9406 O 887.491 2.73408 2.28313 0
M  V30 9407 O 886.35 4.02924 3.69208 0
M  V30 9408 H 883.444 0.585151 0.584403 0
M  V30 9409 H 885.99 1.60502 0.551119 0
M  V30 9410 H 884.762 3.57965 1.5804 0
M  V30 9411 H 884.385 2.61285 2.99693 0
M  V30 9412 N 885.382 -0.782676 1.36792 0
M  V30 9413 C 886.292 -1.92679 1.33835 0
M  V30 9414 C 887.308 -1.72344 0.23952 0
M  V30 9415 O 888.484 -1.95766 0.473045 0
M  V30 9416 C 885.549 -3.27644 1.1336 0
M  V30 9417 C 884.61 -3.6071 2.32781 0
M  V30 9418 C 883.843 -4.89234 2.13273 0
M  V30 9419 O 884.066 -5.59468 1.11136 0
M  V30 9420 O 883 -5.21112 3.01208 0
M  V30 9421 H 886.826 -1.98124 2.30175 0
M  V30 9422 H 884.411 -0.923887 1.17408 0
M  V30 9423 H 886.293 -4.08394 1.03886 0
M  V30 9424 H 884.968 -3.23076 0.200868 0
M  V30 9425 H 883.875 -2.80238 2.47825 0
M  V30 9426 H 885.208 -3.70008 3.24584 0
M  V30 9427 N 886.86 -1.21182 -1.00761 0
M  V30 9428 C 887.77 -0.984691 -2.12934 0
M  V30 9429 C 888.786 0.0623657 -1.73888 0
M  V30 9430 O 889.962 -0.1271 -2.00999 0
M  V30 9431 C 887.027 -0.549447 -3.42319 0
M  V30 9432 C 886.088 -1.66841 -3.95553 0
M  V30 9433 C 885.321 -1.25384 -5.18763 0
M  V30 9434 O 885.544 -0.126333 -5.7026 0
M  V30 9435 O 884.478 -2.06475 -5.65377 0
M  V30 9436 H 888.304 -1.92413 -2.3497 0
M  V30 9437 H 885.889 -0.99647 -1.11314 0
M  V30 9438 H 887.771 -0.316384 -4.20211 0
M  V30 9439 H 886.446 0.361304 -3.21677 0
M  V30 9440 H 885.353 -1.95585 -3.189 0
M  V30 9441 H 886.686 -2.55649 -4.206 0
M  V30 9442 N 888.338 1.20213 -1.01915 0
M  V30 9443 C 889.566 1.93622 -0.729255 0
M  V30 9444 C 889.981 1.74923 0.710444 0
M  V30 9445 O 889.338 1.06484 1.48214 0
M  V30 9446 C 889.389 3.45651 -1.05865 0
M  V30 9447 O 889.11 3.63741 -2.44181 0
M  V30 9448 C 890.611 4.36201 -0.790176 0
M  V30 9449 H 887.831 0.615333 -0.267594 0
M  V30 9450 H 890.375 1.52633 -1.36101 0
M  V30 9451 H 888.53 3.84511 -0.47225 0
M  V30 9452 H 888.944 4.57702 -2.56143 0
M  V30 9453 H 890.418 5.41516 -1.07071 0
M  V30 9454 H 890.895 4.38334 0.275609 0
M  V30 9455 H 891.501 4.03008 -1.35885 0
M  V30 9456 N 889.816 0.795718 1.36037 0
M  V30 9457 C 890.779 0.204318 2.28287 0
M  V30 9458 C 891.779 -0.602017 1.49105 0
M  V30 9459 O 892.969 -0.422089 1.69009 0
M  V30 9460 C 890.101 -0.716431 3.33287 0
M  V30 9461 H 891.294 1.01781 2.821 0
M  V30 9462 H 888.847 0.565588 1.45708 0
M  V30 9463 H 889.582 -1.55403 2.84641 0
M  V30 9464 H 889.367 -0.140096 3.9185 0
M  V30 9465 H 890.857 -1.12488 4.02164 0
M  V30 9466 N 891.294 -1.47756 0.548274 0
M  V30 9467 C 892.542 -2.02089 0.0208542 0
M  V30 9468 C 892.863 -1.42589 -1.33017 0
M  V30 9469 O 892.133 -0.597825 -1.86555 0
M  V30 9470 H 890.713 -0.746985 0.00472023 0
M  V30 9471 H 893.375 -1.81262 0.716257 0
M  V30 9472 H 892.471 -3.12012 -0.0739016 0
M  V30 9473 N 892.772 -0.284283 -1.55015 0
M  V30 9474 C 893.997 0.335799 -2.04664 0
M  V30 9475 C 894.422 1.47999 -1.16094 0
M  V30 9476 O 893.78 1.8058 -0.161454 0
M  V30 9477 C 893.828 0.785615 -3.51938 0
M  V30 9478 O 892.932 1.89202 -3.66437 0
M  V30 9479 H 892.273 0.0680233 -0.660506 0
M  V30 9480 H 894.803 -0.421255 -2.00216 0
M  V30 9481 H 894.813 1.07892 -3.93476 0
M  V30 9482 H 893.488 -0.0514675 -4.15868 0
M  V30 9483 H 892.065 1.60055 -3.36804 0
M  V30 9484 N 894.251 1.57596 -0.0117121 0
M  V30 9485 C 895.5 1.9025 0.669921 0
M  V30 9486 C 895.813 0.887986 1.74282 0
M  V30 9487 O 897.019 1.10516 2.47989 0
M  V30 9488 C 895.475 3.37762 1.24277 0
M  V30 9489 C 895.083 4.47535 0.204076 0
M  V30 9490 C 896.827 3.79509 1.90192 0
M  V30 9491 C 894.734 5.86132 0.787577 0
M  V30 9492 H 893.664 0.709935 0.253984 0
M  V30 9493 H 896.315 1.8335 -0.0741718 0
M  V30 9494 H 894.697 3.39537 2.03791 0
M  V30 9495 H 895.871 4.57294 -0.56733 0
M  V30 9496 H 894.186 4.14881 -0.355305 0
M  V30 9497 H 896.783 4.80402 2.34773 0
M  V30 9498 H 897.126 3.13643 2.7374 0
M  V30 9499 H 897.659 3.80084 1.17394 0
M  V30 9500 H 894.398 6.55499 -0.00938418 0
M  V30 9501 H 893.918 5.80014 1.52787 0
M  V30 9502 H 895.597 6.34158 1.28265 0
M  V30 9503 N 895.729 -0.261212 1.5542 0
M  V30 9504 C 897.145 -0.609012 1.47524 0
M  V30 9505 C 897.345 -1.88986 0.699042 0
M  V30 9506 O 896.401 -2.51517 0.222628 0
M  V30 9507 C 897.714 -0.725025 2.91828 0
M  V30 9508 C 899.262 -0.818302 3.02114 0
M  V30 9509 C 899.737 -0.965996 4.47697 0
M  V30 9510 N 901.228 -1.03123 4.51575 0
M  V30 9511 C 901.963 -1.16451 5.6145 0
M  V30 9512 N 901.459 -1.26425 6.81167 0
M  V30 9513 N 903.252 -1.19655 5.49217 0
M  V30 9514 H 895.403 0.579807 2.04333 0
M  V30 9515 H 897.666 0.198072 0.927077 0
M  V30 9516 H 897.372 0.145871 3.51397 0
M  V30 9517 H 897.246 -1.60156 3.41511 0
M  V30 9518 H 899.633 -1.67966 2.42634 0
M  V30 9519 H 899.714 0.0830895 2.55665 0
M  V30 9520 H 899.358 -0.109251 5.07782 0
M  V30 9521 H 899.288 -1.88221 4.91813 0
M  V30 9522 H 901.779 -0.966072 3.65343 0
M  V30 9523 H 902.092 -1.36462 7.60656 0
M  V30 9524 H 900.437 -1.23408 6.83956 0
M  V30 9525 H 903.628 -1.11501 4.54626 0
M  V30 9526 H 903.801 -1.29698 6.34888 0
M  V30 9527 N 897.207 -1.48554 -0.526253 0
M  V30 9528 C 898.456 -1.56014 -1.27837 0
M  V30 9529 C 898.769 -0.240643 -1.94114 0
M  V30 9530 O 899.975 -0.193525 -2.70809 0
M  V30 9531 C 898.431 -2.75161 -2.31979 0
M  V30 9532 C 898.039 -4.13768 -1.71755 0
M  V30 9533 C 899.783 -2.91936 -3.08178 0
M  V30 9534 C 897.69 -5.24171 -2.7386 0
M  V30 9535 H 896.62 -0.58082 -0.480795 0
M  V30 9536 H 899.271 -1.74895 -0.555335 0
M  V30 9537 H 897.653 -2.49722 -3.07335 0
M  V30 9538 H 898.827 -4.49241 -1.02563 0
M  V30 9539 H 897.142 -4.02141 -1.08036 0
M  V30 9540 H 899.739 -3.71586 -3.84484 0
M  V30 9541 H 900.082 -2.01533 -3.64267 0
M  V30 9542 H 900.615 -3.17294 -2.39937 0
M  V30 9543 H 897.354 -6.16552 -2.22586 0
M  V30 9544 H 896.874 -4.93181 -3.41368 0
M  V30 9545 H 898.553 -5.52442 -3.36774 0
M  V30 9546 N 898.685 0.775411 -1.37205 0
M  V30 9547 C 899.615 1.90258 -1.35367 0
M  V30 9548 C 900.596 1.68634 -0.222864 0
M  V30 9549 O 901.781 1.89545 -0.422659 0
M  V30 9550 C 898.911 3.27488 -1.15623 0
M  V30 9551 C 897.865 3.63668 -2.25676 0
M  V30 9552 C 897.191 4.994 -1.91059 0
M  V30 9553 C 898.491 3.70797 -3.67841 0
M  V30 9554 H 900.185 1.92053 -2.29687 0
M  V30 9555 H 897.731 0.922597 -1.10563 0
M  V30 9556 H 899.684 4.05976 -1.12968 0
M  V30 9557 H 898.408 3.26117 -0.177573 0
M  V30 9558 H 897.067 2.87486 -2.2748 0
M  V30 9559 H 896.715 4.94565 -0.917324 0
M  V30 9560 H 896.415 5.24576 -2.64751 0
M  V30 9561 H 897.939 5.80291 -1.89985 0
M  V30 9562 H 899.353 4.39444 -3.68187 0
M  V30 9563 H 897.75 4.07468 -4.40556 0
M  V30 9564 H 898.82 2.71549 -4.01732 0
M  V30 9565 N 900.163 1.21714 1.00117 0
M  V30 9566 C 901.393 1.06124 1.77261 0
M  V30 9567 C 901.801 -0.391717 1.85101 0
M  V30 9568 O 901.144 -1.28347 1.31426 0
M  V30 9569 C 901.206 1.58778 3.22536 0
M  V30 9570 C 900.87 3.07289 3.38264 0
M  V30 9571 C 901.867 4.04801 3.26239 0
M  V30 9572 C 899.552 3.46574 3.63582 0
M  V30 9573 C 901.546 5.39585 3.39303 0
M  V30 9574 C 899.233 4.81509 3.76288 0
M  V30 9575 C 900.231 5.77824 3.64155 0
M  V30 9576 O 899.919 7.1031 3.7645 0
M  V30 9577 H 899.651 0.372979 0.563793 0
M  V30 9578 H 902.205 1.61589 1.26799 0
M  V30 9579 H 900.435 0.977129 3.74151 0
M  V30 9580 H 902.124 1.38974 3.81367 0
M  V30 9581 H 902.89 3.75795 3.066 0
M  V30 9582 H 898.769 2.72137 3.72106 0
M  V30 9583 H 902.313 6.14744 3.2975 0
M  V30 9584 H 898.21 5.102 3.95432 0
M  V30 9585 H 898.978 7.17774 3.93374 0
M  V30 9586 N 901.641 -1.19671 1.02551 0
M  V30 9587 C 902.889 -1.88894 0.71858 0
M  V30 9588 C 903.21 -1.79797 -0.754856 0
M  V30 9589 O 902.48 -1.20621 -1.54362 0
M  V30 9590 H 901.06 -0.699244 0.262806 0
M  V30 9591 H 903.722 -1.45298 1.29902 0
M  V30 9592 H 902.818 -2.95309 1.00989 0
M  V30 9593 N 903.119 -0.802921 -1.35613 0
M  V30 9594 C 904.367 -0.380822 -1.9848 0
M  V30 9595 C 904.688 1.05464 -1.6402 0
M  V30 9596 O 903.958 1.72908 -0.920854 0
M  V30 9597 H 902.538 -0.137824 -0.734176 0
M  V30 9598 H 905.2 -1.02795 -1.65587 0
M  V30 9599 H 904.296 -0.483565 -3.08331 0
M  V30 9600 N 904.597 1.47463 -0.556102 0
M  V30 9601 C 905.822 2.07371 -0.0344729 0
M  V30 9602 C 906.247 1.40621 1.2493 0
M  V30 9603 O 905.605 0.48082 1.74808 0
M  V30 9604 C 905.653 3.60306 0.145563 0
M  V30 9605 O 904.757 3.94299 1.20839 0
M  V30 9606 H 904.098 0.662052 -0.0508274 0
M  V30 9607 H 906.628 1.89498 -0.771469 0
M  V30 9608 H 906.638 4.06408 0.360112 0
M  V30 9609 H 905.313 4.08288 -0.792089 0
M  V30 9610 H 903.89 3.59944 0.97442 0
M  V30 9611 N 906.075 0.2925 1.54862 0
M  V30 9612 C 907.324 -0.319994 1.99146 0
M  V30 9613 C 907.637 -1.55658 1.18448 0
M  V30 9614 O 908.843 -2.24312 1.52959 0
M  V30 9615 C 907.299 -0.620665 3.54508 0
M  V30 9616 C 906.907 0.597098 4.44003 0
M  V30 9617 C 908.651 -1.19482 4.07338 0
M  V30 9618 C 906.558 0.270049 5.90783 0
M  V30 9619 H 905.488 -0.123342 0.743843 0
M  V30 9620 H 908.139 0.399876 1.7909 0
M  V30 9621 H 906.521 -1.3999 3.7043 0
M  V30 9622 H 907.695 1.37354 4.39853 0
M  V30 9623 H 906.01 1.0893 4.019 0
M  V30 9624 H 908.607 -1.45362 5.14562 0
M  V30 9625 H 908.95 -2.13435 3.57423 0
M  V30 9626 H 909.483 -0.477485 3.94924 0
M  V30 9627 H 906.222 1.17791 6.4483 0
M  V30 9628 H 905.742 -0.469292 5.97961 0
M  V30 9629 H 907.421 -0.131471 6.46866 0
M  V30 9630 N 907.553 -1.57587 0.0200696 0
M  V30 9631 C 908.5 -2.09667 -0.964791 0
M  V30 9632 C 909.47 -0.99664 -1.32877 0
M  V30 9633 O 910.655 -1.2703 -1.42366 0
M  V30 9634 C 907.795 -2.62101 -2.24493 0
M  V30 9635 C 906.908 -3.8608 -1.93821 0
M  V30 9636 C 906.043 -4.26939 -3.16064 0
M  V30 9637 C 905.082 -5.43701 -2.81169 0
M  V30 9638 N 904.219 -5.79759 -3.9601 0
M  V30 9639 H 909.059 -2.93538 -0.513751 0
M  V30 9640 H 906.596 -1.45096 -0.242 0
M  V30 9641 H 908.554 -2.90587 -2.99358 0
M  V30 9642 H 907.184 -1.81074 -2.6723 0
M  V30 9643 H 906.236 -3.64378 -1.09237 0
M  V30 9644 H 907.548 -4.71028 -1.64115 0
M  V30 9645 H 906.702 -4.56814 -3.99257 0
M  V30 9646 H 905.441 -3.40739 -3.48924 0
M  V30 9647 H 904.446 -5.13529 -1.96387 0
M  V30 9648 H 905.671 -6.31593 -2.49535 0
M  V30 9649 H 903.617 -4.96516 -4.28729 0
M  V30 9650 H 903.534 -6.59327 -3.69896 0
M  V30 9651 H 904.802 -6.14235 -4.79933 0
M  V30 9652 N 909.032 0.252966 -1.55557 0
M  V30 9653 C 910.443 0.822503 -1.67606 0
M  V30 9654 C 910.794 1.86265 -0.616411 0
M  V30 9655 O 909.919 2.15082 0.238447 0
M  V30 9656 C 910.514 1.49866 -3.03852 0
M  V30 9657 C 909.073 2.01597 -3.17861 0
M  V30 9658 C 908.22 0.864943 -2.63465 0
M  V30 9659 H 911.171 0.0288958 -1.58674 0
M  V30 9660 H 911.192 2.36646 -2.97958 0
M  V30 9661 H 910.704 0.741378 -3.80953 0
M  V30 9662 H 908.805 2.80224 -2.45571 0
M  V30 9663 H 908.918 2.21752 -4.24692 0
M  V30 9664 H 907.282 1.2638 -2.21134 0
M  V30 9665 H 908.065 0.120847 -3.43087 0
M  V30 9666 N 910.51 1.48831 0.518367 0
M  V30 9667 C 911.787 1.47933 1.27966 0
M  V30 9668 C 912.167 0.197393 2.10175 0
M  V30 9669 O 911.515 -0.820656 2.13255 0
M  V30 9670 C 911.725 2.74816 2.15121 0
M  V30 9671 C 913.073 3.23613 2.74881 0
M  V30 9672 O 914.097 2.75814 2.254 0
M  V30 9673 O 912.956 4.06818 3.64913 0
M  V30 9674 H 910.05 0.591316 0.578164 0
M  V30 9675 H 912.596 1.61077 0.534065 0
M  V30 9676 H 911.368 3.59621 1.54234 0
M  V30 9677 H 910.991 2.64449 2.96905 0
M  V30 9678 N 911.988 -0.768124 1.37614 0
M  V30 9679 C 912.936 -1.9029 1.33763 0
M  V30 9680 C 913.93 -1.67888 0.225814 0
M  V30 9681 O 915.136 -1.75634 0.394043 0
M  V30 9682 H 911.511 -0.625828 0.416945 0
M  V30 9683 H 913.482 -1.90654 2.29551 0
M  V30 9684 C 912.231 -3.27598 1.16511 0
M  V30 9685 H 911.554 -3.45414 2.01318 0
M  V30 9686 H 912.994 -4.07288 1.17867 0
M  V30 9687 C 911.453 -3.36653 -0.129001 0
M  V30 9688 O 911.983 -3.86023 -1.11128 0
M  V30 9689 N 910.189 -2.90036 -0.180926 0
M  V30 9690 H 909.736 -2.5005 0.619076 0
M  V30 9691 H 909.694 -2.96475 -1.04641 0
M  V30 9692 N 913.466 -1.22244 -0.994698 0
M  V30 9693 C 914.713 -1.04591 -1.73398 0
M  V30 9694 C 915.041 0.419223 -1.89928 0
M  V30 9695 O 914.296 1.32714 -1.43824 0
M  V30 9696 C 914.595 -1.70014 -3.14372 0
M  V30 9697 C 914.261 -3.19903 -3.17762 0
M  V30 9698 C 912.923 -3.60803 -3.18394 0
M  V30 9699 C 915.275 -4.15851 -3.14194 0
M  V30 9700 C 912.603 -4.96135 -3.13157 0
M  V30 9701 C 914.955 -5.51157 -3.10498 0
M  V30 9702 C 913.619 -5.91439 -3.09445 0
M  V30 9703 H 912.889 -0.382725 -0.63451 0
M  V30 9704 H 915.536 -1.51981 -1.16508 0
M  V30 9705 H 913.841 -1.14945 -3.7456 0
M  V30 9706 H 915.538 -1.53848 -3.70313 0
M  V30 9707 H 912.128 -2.87336 -3.18019 0
M  V30 9708 H 916.312 -3.85272 -3.12857 0
M  V30 9709 H 911.568 -5.26578 -3.10685 0
M  V30 9710 H 915.742 -6.2523 -3.06692 0
M  V30 9711 H 913.369 -6.96271 -3.05141 0
M  V30 9712 N 914.944 1.19125 -1.03184 0
M  V30 9713 C 915.874 2.24675 -0.635889 0
M  V30 9714 C 916.855 1.66321 0.356565 0
M  V30 9715 O 918.04 1.92728 0.238625 0
M  V30 9716 C 915.17 3.47298 0.011069 0
M  V30 9717 C 914.124 4.18345 -0.903979 0
M  V30 9718 C 913.45 5.34561 -0.12197 0
M  V30 9719 C 914.75 4.72816 -2.21907 0
M  V30 9720 H 916.444 2.5805 -1.51825 0
M  V30 9721 H 913.99 1.24039 -0.73146 0
M  V30 9722 H 915.943 4.20333 0.299729 0
M  V30 9723 H 914.667 3.13131 0.928245 0
M  V30 9724 H 913.326 3.47196 -1.17688 0
M  V30 9725 H 912.974 4.9664 0.797334 0
M  V30 9726 H 912.674 5.83029 -0.731498 0
M  V30 9727 H 914.198 6.10391 0.159881 0
M  V30 9728 H 915.612 5.3759 -1.99173 0
M  V30 9729 H 914.009 5.31782 -2.78078 0
M  V30 9730 H 915.079 3.9072 -2.87168 0
M  V30 9731 N 916.422 0.810101 1.35185 0
M  V30 9732 C 917.67 0.391343 1.98275 0
M  V30 9733 C 917.991 -1.04592 1.64577 0
M  V30 9734 O 917.261 -1.72417 0.93001 0
M  V30 9735 H 915.841 0.141715 0.733434 0
M  V30 9736 H 918.503 1.03672 1.6504 0
M  V30 9737 H 917.599 0.49991 3.0807 0
M  V30 9738 N 917.9 -1.47166 0.563914 0
M  V30 9739 C 918.83 -2.32894 -0.168148 0
M  V30 9740 C 919.811 -1.44202 -0.902214 0
M  V30 9741 O 920.996 -1.73048 -0.881365 0
M  V30 9742 C 918.126 -3.26116 -1.19439 0
M  V30 9743 C 917.08 -4.24101 -0.576363 0
M  V30 9744 C 916.406 -5.06696 -1.70772 0
M  V30 9745 C 917.706 -5.20142 0.47425 0
M  V30 9746 H 919.4 -2.9435 0.547573 0
M  V30 9747 H 916.946 -1.41545 0.264778 0
M  V30 9748 H 918.899 -3.84935 -1.71474 0
M  V30 9749 H 917.623 -2.62728 -1.94014 0
M  V30 9750 H 916.282 -3.66519 -0.0772534 0
M  V30 9751 H 915.93 -4.39707 -2.44268 0
M  V30 9752 H 915.63 -5.7304 -1.29994 0
M  V30 9753 H 917.154 -5.68375 -2.2312 0
M  V30 9754 H 918.568 -5.73286 0.0397035 0
M  V30 9755 H 916.965 -5.94726 0.801287 0
M  V30 9756 H 918.035 -4.65214 1.36764 0
M  V30 9757 N 919.378 -0.300708 -1.54705 0
M  V30 9758 C 920.627 0.309428 -1.99312 0
M  V30 9759 C 920.94 1.55027 -1.19272 0
M  V30 9760 O 922.146 2.23498 -1.54146 0
M  V30 9761 C 920.602 0.601856 -3.54832 0
M  V30 9762 C 920.21 -0.620636 -4.4368 0
M  V30 9763 C 921.954 1.1732 -4.07966 0
M  V30 9764 C 919.861 -0.301376 -5.90632 0
M  V30 9765 H 918.791 0.119395 -0.744487 0
M  V30 9766 H 921.442 -0.409368 -1.78875 0
M  V30 9767 H 919.824 1.38024 -3.71168 0
M  V30 9768 H 920.998 -1.39685 -4.39118 0
M  V30 9769 H 919.313 -1.1106 -4.01316 0
M  V30 9770 H 921.91 1.42631 -5.15326 0
M  V30 9771 H 922.253 2.11537 -3.5855 0
M  V30 9772 H 922.786 0.456534 -3.95172 0
M  V30 9773 H 919.525 -1.21209 -6.44196 0
M  V30 9774 H 919.045 0.437574 -5.98202 0
M  V30 9775 H 920.724 0.097164 -6.46927 0
M  V30 9776 N 920.856 1.57574 -0.0284266 0
M  V30 9777 C 922.102 1.92056 0.651327 0
M  V30 9778 C 922.435 0.905092 1.71819 0
M  V30 9779 O 921.71 -0.0722703 1.94366 0
M  V30 9780 C 921.993 3.37021 1.26841 0
M  V30 9781 C 921.846 4.49304 0.211157 0
M  V30 9782 C 923.165 3.81936 2.18662 0
M  V30 9783 H 920.284 0.698428 0.235304 0
M  V30 9784 H 922.926 1.89807 -0.0855435 0
M  V30 9785 H 921.076 3.39068 1.89644 0
M  V30 9786 H 922.748 4.5939 -0.419379 0
M  V30 9787 H 920.991 4.31317 -0.463445 0
M  V30 9788 H 921.662 5.47764 0.682518 0
M  V30 9789 H 924.138 3.8162 1.65847 0
M  V30 9790 H 923.014 4.84064 2.58792 0
M  V30 9791 H 923.275 3.174 3.07749 0
M  V30 9792 N 922.334 -0.244713 1.55689 0
M  V30 9793 C 923.266 -1.32595 1.86952 0
M  V30 9794 C 924.279 -1.44185 0.755948 0
M  V30 9795 O 925.468 -1.45496 1.03408 0
M  V30 9796 C 922.568 -2.70429 2.04258 0
M  V30 9797 C 921.741 -2.8108 3.35131 0
M  V30 9798 C 920.8 -3.99773 3.42152 0
M  V30 9799 O 919.826 -3.89197 4.15348 0
M  V30 9800 N 921.028 -5.13041 2.71604 0
M  V30 9801 H 923.793 -1.06111 2.80287 0
M  V30 9802 H 921.354 -0.434811 1.55952 0
M  V30 9803 H 923.346 -3.48173 2.06295 0
M  V30 9804 H 921.916 -2.89612 1.17658 0
M  V30 9805 H 921.136 -1.89994 3.45392 0
M  V30 9806 H 922.424 -2.85147 4.21389 0
M  V30 9807 H 921.822 -5.24525 2.11872 0
M  V30 9808 H 920.379 -5.88912 2.79331 0
M  V30 9809 N 923.813 -1.49104 -0.510467 0
M  V30 9810 C 924.76 -1.65074 -1.61305 0
M  V30 9811 C 925.73 -0.492362 -1.58635 0
M  V30 9812 O 926.915 -0.718241 -1.76765 0
M  V30 9813 C 924.055 -1.71457 -2.99493 0
M  V30 9814 C 923.168 -2.98536 -3.12251 0
M  V30 9815 C 922.303 -2.95957 -4.41116 0
M  V30 9816 C 921.342 -4.17655 -4.47471 0
M  V30 9817 N 920.479 -4.13041 -5.67751 0
M  V30 9818 H 925.319 -2.59222 -1.46996 0
M  V30 9819 H 922.856 -1.28535 -0.715346 0
M  V30 9820 H 924.814 -1.7314 -3.79577 0
M  V30 9821 H 923.444 -0.807834 -3.12528 0
M  V30 9822 H 922.496 -3.06509 -2.25292 0
M  V30 9823 H 923.808 -3.88527 -3.12807 0
M  V30 9824 H 922.962 -2.96149 -5.2951 0
M  V30 9825 H 921.701 -2.03728 -4.4311 0
M  V30 9826 H 920.706 -4.17717 -3.57481 0
M  V30 9827 H 921.931 -5.11066 -4.472 0
M  V30 9828 H 919.877 -3.23643 -5.70606 0
M  V30 9829 H 919.794 -4.96757 -5.69884 0
M  V30 9830 H 921.062 -4.17322 -6.58379 0
M  V30 9831 N 925.291 0.760815 -1.38019 0
M  V30 9832 C 926.568 1.5098 -1.24356 0
M  V30 9833 C 926.948 2.10507 0.158169 0
M  V30 9834 O 926.296 1.96455 1.16695 0
M  V30 9835 C 926.506 2.58195 -2.34811 0
M  V30 9836 C 927.854 3.25297 -2.72886 0
M  V30 9837 O 928.878 2.68496 -2.34069 0
M  V30 9838 O 927.737 4.28018 -3.39799 0
M  V30 9839 H 924.831 0.66921 -0.485888 0
M  V30 9840 H 927.377 0.796844 -1.49828 0
M  V30 9841 H 926.149 2.12406 -3.28633 0
M  V30 9842 H 925.772 3.37079 -2.10864 0
M  V30 9843 N 926.769 1.22769 0.988202 0
M  V30 9844 C 928.018 1.0492 1.72263 0
M  V30 9845 C 928.331 -0.415282 1.91141 0
M  V30 9846 O 929.537 -0.713547 2.61956 0
M  V30 9847 C 927.993 1.82891 3.09966 0
M  V30 9848 C 927.601 3.33618 2.99003 0
M  V30 9849 C 929.345 1.73505 3.87423 0
M  V30 9850 C 927.252 4.04012 4.3189 0
M  V30 9851 H 926.182 0.38899 0.645912 0
M  V30 9852 H 928.833 1.46664 1.10281 0
M  V30 9853 H 927.215 1.33948 3.72658 0
M  V30 9854 H 928.389 3.8999 2.45448 0
M  V30 9855 H 926.704 3.43732 2.35027 0
M  V30 9856 H 929.301 2.23416 4.85787 0
M  V30 9857 H 929.644 0.696344 4.10435 0
M  V30 9858 H 930.177 2.20016 3.31418 0
M  V30 9859 H 926.916 5.08155 4.14075 0
M  V30 9860 H 926.436 3.52428 4.8534 0
M  V30 9861 H 928.115 4.0987 5.00615 0
M  V30 9862 N 928.247 -1.18576 1.03814 0
M  V30 9863 C 929.524 -1.8433 0.654358 0
M  V30 9864 C 929.904 -1.92504 -0.866338 0
M  V30 9865 O 929.252 -1.44904 -1.76678 0
M  V30 9866 C 929.462 -3.22778 1.32723 0
M  V30 9867 C 930.81 -3.98841 1.45641 0
M  V30 9868 O 931.834 -3.32209 1.28514 0
M  V30 9869 O 930.693 -5.18219 1.73526 0
M  V30 9870 H 927.787 -0.794766 0.228638 0
M  V30 9871 H 930.333 -1.25989 1.13687 0
M  V30 9872 H 929.105 -3.11717 2.36534 0
M  V30 9873 H 928.728 -3.88772 0.833176 0
M  V30 9874 N 929.725 -0.817259 -1.34754 0
M  V30 9875 C 930.973 -0.401852 -1.98065 0
M  V30 9876 C 931.294 1.03718 -1.65129 0
M  V30 9877 O 930.564 1.71921 -0.939141 0
M  V30 9878 H 929.144 -0.145603 -0.732672 0
M  V30 9879 H 931.806 -1.04545 -1.64488 0
M  V30 9880 H 930.902 -0.516241 -3.07801 0
M  V30 9881 N 931.203 1.46865 -0.571711 0
M  V30 9882 C 932.451 2.0203 -0.0530022 0
M  V30 9883 C 932.772 1.44687 1.30731 0
M  V30 9884 O 932.042 0.627429 1.85581 0
M  V30 9885 H 930.622 0.746815 -0.0166035 0
M  V30 9886 H 933.284 1.80099 -0.745003 0
M  V30 9887 H 932.38 3.12091 0.0242538 0
M  V30 9888 N 932.681 0.308908 1.54543 0
M  V30 9889 C 933.611 -0.556657 2.26768 0
M  V30 9890 C 934.592 -1.13145 1.27013 0
M  V30 9891 O 935.777 -1.15931 1.558 0
M  V30 9892 C 932.907 -1.72481 3.01443 0
M  V30 9893 C 931.861 -1.28001 4.08411 0
M  V30 9894 C 931.187 -2.53395 4.70845 0
M  V30 9895 C 932.487 -0.405497 5.20724 0
M  V30 9896 H 934.181 0.0457618 2.99365 0
M  V30 9897 H 931.727 0.0234495 1.43981 0
M  V30 9898 H 933.68 -2.3365 3.50693 0
M  V30 9899 H 932.404 -2.35359 2.26437 0
M  V30 9900 H 931.063 -0.69133 3.60022 0
M  V30 9901 H 930.711 -3.14604 3.92471 0
M  V30 9902 H 930.411 -2.2433 5.43093 0
M  V30 9903 H 931.935 -3.15352 5.22863 0
M  V30 9904 H 933.349 -0.923076 5.6582 0
M  V30 9905 H 931.746 -0.208282 5.99738 0
M  V30 9906 H 932.816 0.567412 4.81569 0
M  V30 9907 N 934.159 -1.57557 0.0367827 0
M  V30 9908 C 935.405 -1.92399 -0.641133 0
M  V30 9909 C 935.738 -0.914191 -1.71336 0
M  V30 9910 O 935.013 0.0619616 -1.94401 0
M  V30 9911 C 935.296 -3.37689 -1.25052 0
M  V30 9912 C 935.149 -4.4941 -0.187326 0
M  V30 9913 C 936.468 -3.8309 -2.16634 0
M  V30 9914 H 933.587 -0.699666 -0.231597 0
M  V30 9915 H 936.229 -1.89759 0.0956083 0
M  V30 9916 H 934.379 -3.40069 -1.87843 0
M  V30 9917 H 936.051 -4.59161 0.443736 0
M  V30 9918 H 934.294 -4.31065 0.486313 0
M  V30 9919 H 934.965 -5.48119 -0.653459 0
M  V30 9920 H 937.441 -3.82494 -1.63821 0
M  V30 9921 H 936.317 -4.85429 -2.56222 0
M  V30 9922 H 936.578 -3.19028 -3.06062 0
M  V30 9923 N 935.637 0.236453 -1.55816 0
M  V30 9924 C 936.885 0.96111 -1.77784 0
M  V30 9925 C 937.206 1.85454 -0.602648 0
M  V30 9926 O 936.476 1.92157 0.381137 0
M  V30 9927 H 935.056 0.35787 -0.655697 0
M  V30 9928 H 937.718 0.251888 -1.93265 0
M  V30 9929 H 936.814 1.5767 -2.69345 0
M  V30 9930 N 937.115 1.49373 0.502552 0
M  V30 9931 C 938.363 1.58467 1.25429 0
M  V30 9932 C 938.684 0.272593 1.93085 0
M  V30 9933 O 937.954 -0.707947 1.82661 0
M  V30 9934 H 936.534 0.583866 0.46595 0
M  V30 9935 H 939.196 1.8599 0.582568 0
M  V30 9936 H 938.292 2.37993 2.01906 0
M  V30 9937 N 938.594 -0.753485 1.38421 0
M  V30 9938 C 939.557 -1.84888 1.35459 0
M  V30 9939 C 940.557 -1.58764 0.255083 0
M  V30 9940 O 941.747 -1.66507 0.511978 0
M  V30 9941 C 938.879 -3.22361 1.10888 0
M  V30 9942 H 940.072 -1.88922 2.32913 0
M  V30 9943 H 937.625 -0.955199 1.23716 0
M  V30 9944 H 938.36 -3.23996 0.1404 0
M  V30 9945 H 938.145 -3.42717 1.90492 0
M  V30 9946 H 939.635 -4.02437 1.1151 0
M  V30 9947 N 940.072 -1.23292 -0.981677 0
M  V30 9948 C 941.297 -1.09176 -1.76339 0
M  V30 9949 C 941.722 0.352726 -1.84763 0
M  V30 9950 O 941.08 1.25509 -1.30832 0
M  V30 9951 C 941.128 -1.72046 -3.16911 0
M  V30 9952 O 940.232 -0.98174 -4.00544 0
M  V30 9953 H 939.573 -0.382755 -0.542581 0
M  V30 9954 H 942.103 -1.63319 -1.23239 0
M  V30 9955 H 942.113 -1.77232 -3.67495 0
M  V30 9956 H 940.788 -2.77154 -3.10095 0
M  V30 9957 H 939.365 -1.00672 -3.59054 0
M  V30 9958 N 941.55 1.18024 -1.04442 0
M  V30 9959 C 942.48 2.23988 -0.659683 0
M  V30 9960 C 943.461 1.6669 0.338904 0
M  V30 9961 O 944.646 1.92971 0.21817 0
M  V30 9962 C 941.776 3.4729 -0.0257672 0
M  V30 9963 C 940.73 4.17362 -0.948299 0
M  V30 9964 C 940.056 5.34401 -0.17866 0
M  V30 9965 C 941.356 4.70435 -2.26909 0
M  V30 9966 H 943.05 2.56425 -1.54553 0
M  V30 9967 H 940.596 1.23256 -0.744575 0
M  V30 9968 H 942.549 4.20627 0.255131 0
M  V30 9969 H 941.273 3.14098 0.894981 0
M  V30 9970 H 939.932 3.45928 -1.21364 0
M  V30 9971 H 939.58 4.97458 0.744614 0
M  V30 9972 H 939.28 5.8222 -0.793294 0
M  V30 9973 H 940.804 6.10526 0.0951315 0
M  V30 9974 H 942.218 5.35447 -2.04864 0
M  V30 9975 H 940.615 5.28803 -2.83703 0
M  V30 9976 H 941.685 3.87653 -2.91296 0
M  V30 9977 N 943.028 0.824394 1.34319 0
M  V30 9978 C 943.975 0.245282 2.29493 0
M  V30 9979 C 944.945 -0.630762 1.53657 0
M  V30 9980 O 946.13 -0.572094 1.82021 0
M  V30 9981 C 943.27 -0.585631 3.40095 0
M  V30 9982 C 942.383 0.312821 4.30866 0
M  V30 9983 C 941.518 -0.527801 5.28571 0
M  V30 9984 C 940.557 0.369946 6.10981 0
M  V30 9985 N 939.694 -0.43169 7.00772 0
M  V30 9986 H 944.534 1.06225 2.78425 0
M  V30 9987 H 942.071 0.53533 1.37013 0
M  V30 9988 H 944.029 -1.08271 4.02906 0
M  V30 9989 H 942.659 -1.3677 2.92393 0
M  V30 9990 H 941.711 0.928129 3.68904 0
M  V30 9991 H 943.023 1.00306 4.8861 0
M  V30 9992 H 942.177 -1.0893 5.96841 0
M  V30 9993 H 940.916 -1.25154 4.71368 0
M  V30 9994 H 939.921 0.943577 5.41643 0
M  V30 9995 H 941.146 1.09182 6.70266 0
M  V30 9996 H 939.092 -1.13908 6.46035 0
M  V30 9997 H 939.009 0.200133 7.55735 0
M  V30 9998 H 940.277 -0.975894 7.73367 0
M  V30 9999 N 944.506 -1.46559 0.579492 0
M  V30 10000 C 945.416 -2.34066 -0.15816 0
M  V30 10001 C 946.432 -1.49556 -0.88932 0
M  V30 10002 O 947.608 -1.82434 -0.853226 0
M  V30 10003 C 944.673 -3.26683 -1.161 0
M  V30 10004 C 943.734 -4.27092 -0.434855 0
M  V30 10005 C 942.967 -5.15283 -1.38992 0
M  V30 10006 O 943.19 -5.06345 -2.62623 0
M  V30 10007 O 942.124 -5.95099 -0.902253 0
M  V30 10008 H 945.95 -2.98488 0.560234 0
M  V30 10009 H 943.535 -1.45482 0.339918 0
M  V30 10010 H 945.417 -3.8383 -1.73932 0
M  V30 10011 H 944.092 -2.64862 -1.86091 0
M  V30 10012 H 942.999 -3.73641 0.185224 0
M  V30 10013 H 944.332 -4.9169 0.224031 0
M  V30 10014 N 945.984 -0.3171 -1.54377 0
M  V30 10015 C 947.209 0.292311 -2.0533 0
M  V30 10016 C 947.634 1.45503 -1.19207 0
M  V30 10017 O 946.992 1.80197 -0.199721 0
M  V30 10018 C 947.04 0.710787 -3.53525 0
M  V30 10019 O 946.144 1.81387 -3.70368 0
M  V30 10020 H 945.485 0.0539976 -0.661801 0
M  V30 10021 H 948.015 -0.463629 -1.99278 0
M  V30 10022 H 948.025 0.995216 -3.95676 0
M  V30 10023 H 946.7 -0.139668 -4.15665 0
M  V30 10024 H 945.277 1.52875 -3.40123 0
M  V30 10025 N 947.462 1.57535 -0.0451378 0
M  V30 10026 C 948.709 1.92451 0.629987 0
M  V30 10027 C 949.037 0.92298 1.71206 0
M  V30 10028 O 948.292 -0.0656626 1.9559 0
M  V30 10029 C 948.591 3.34065 1.27024 0
M  V30 10030 C 948.257 4.49785 0.316971 0
M  V30 10031 C 946.919 4.81169 0.0546406 0
M  V30 10032 C 949.271 5.20111 -0.336693 0
M  V30 10033 C 946.599 5.8023 -0.86889 0
M  V30 10034 C 948.951 6.2016 -1.24838 0
M  V30 10035 C 947.615 6.49976 -1.51944 0
M  V30 10036 H 946.885 0.704228 0.230529 0
M  V30 10037 H 949.532 1.91182 -0.110328 0
M  V30 10038 H 947.837 3.31672 2.08568 0
M  V30 10039 H 949.534 3.58359 1.79945 0
M  V30 10040 H 946.124 4.2529 0.531614 0
M  V30 10041 H 950.308 4.96082 -0.147105 0
M  V30 10042 H 945.564 6.0167 -1.08643 0
M  V30 10043 H 949.738 6.73767 -1.76098 0
M  V30 10044 H 947.365 7.26551 -2.2367 0
M  V30 10045 N 948.94 -0.228186 1.55939 0
M  V30 10046 C 950.189 -0.951563 1.77843 0
M  V30 10047 C 950.502 -1.85763 0.612501 0
M  V30 10048 O 951.708 -2.61916 0.715006 0
M  V30 10049 C 950.164 -1.74216 3.14923 0
M  V30 10050 C 949.772 -0.882569 4.39221 0
M  V30 10051 C 951.516 -2.45715 3.46156 0
M  V30 10052 C 949.423 -1.67014 5.67327 0
M  V30 10053 H 948.353 -0.359035 0.663031 0
M  V30 10054 H 951.004 -0.205636 1.82344 0
M  V30 10055 H 949.386 -2.53075 3.0458 0
M  V30 10056 H 950.56 -0.13499 4.60602 0
M  V30 10057 H 948.875 -0.280022 4.15457 0
M  V30 10058 H 951.472 -3.05127 4.39092 0
M  V30 10059 H 951.815 -3.1827 2.68346 0
M  V30 10060 H 952.348 -1.73852 3.57799 0
M  V30 10061 H 949.087 -0.987985 6.48012 0
M  V30 10062 H 948.607 -2.3925 5.50018 0
M  V30 10063 H 950.286 -2.23252 6.07262 0
M  V30 10064 N 950.418 -1.49637 -0.494624 0
M  V30 10065 C 951.328 -1.69522 -1.62172 0
M  V30 10066 C 952.344 -0.577894 -1.64123 0
M  V30 10067 O 953.52 -0.853382 -1.82426 0
M  V30 10068 C 950.585 -1.7633 -2.9851 0
M  V30 10069 C 949.646 -2.99944 -3.07135 0
M  V30 10070 C 948.879 -3.06419 -4.36971 0
M  V30 10071 O 949.102 -2.20312 -5.26136 0
M  V30 10072 O 948.036 -3.9894 -4.507 0
M  V30 10073 H 951.862 -2.65017 -1.48324 0
M  V30 10074 H 949.447 -1.33454 -0.671603 0
M  V30 10075 H 951.329 -1.83125 -3.7953 0
M  V30 10076 H 950.004 -0.840155 -3.12607 0
M  V30 10077 H 948.911 -2.98664 -2.2528 0
M  V30 10078 H 950.244 -3.9176 -2.97968 0
M  V30 10079 N 951.896 0.746133 -1.38819 0
M  V30 10080 C 952.826 1.87344 -1.39372 0
M  V30 10081 C 953.807 1.68123 -0.258583 0
M  V30 10082 O 954.992 1.88606 -0.462769 0
M  V30 10083 C 952.122 3.24962 -1.22543 0
M  V30 10084 C 951.076 3.58799 -2.33339 0
M  V30 10085 C 950.402 4.95235 -2.01609 0
M  V30 10086 C 951.702 3.62911 -3.75624 0
M  V30 10087 H 953.396 1.87138 -2.33709 0
M  V30 10088 H 950.942 0.898937 -1.12495 0
M  V30 10089 H 952.895 4.03488 -1.21554 0
M  V30 10090 H 951.619 3.25667 -0.246707 0
M  V30 10091 H 950.278 2.82596 -2.33527 0
M  V30 10092 H 949.926 4.92508 -1.02202 0
M  V30 10093 H 949.626 5.18843 -2.75819 0
M  V30 10094 H 951.15 5.76131 -2.02251 0
M  V30 10095 H 952.564 4.31535 -3.77426 0
M  V30 10096 H 950.961 3.98031 -4.491 0
M  V30 10097 H 952.031 2.62967 -4.07402 0
M  V30 10098 N 953.375 1.23811 0.975125 0
M  V30 10099 C 954.338 1.02505 2.05001 0
M  V30 10100 C 955.338 -0.0150084 1.60793 0
M  V30 10101 O 956.528 0.225246 1.72738 0
M  V30 10102 C 953.66 0.552087 3.364 0
M  V30 10103 H 954.853 1.979 2.25335 0
M  V30 10104 H 952.406 1.05929 1.1493 0
M  V30 10105 H 953.141 -0.405394 3.21756 0
M  V30 10106 H 952.926 1.30267 3.69828 0
M  V30 10107 H 954.416 0.423828 4.15444 0
M  V30 10108 N 954.853 -1.17469 1.05066 0
M  V30 10109 C 956.269 -1.39699 0.771769 0
M  V30 10110 C 956.469 -1.91253 -0.634382 0
M  V30 10111 O 955.525 -2.10334 -1.39699 0
M  V30 10112 C 956.838 -2.38886 1.82631 0
M  V30 10113 C 958.386 -2.52595 1.84838 0
M  V30 10114 C 958.861 -3.55054 2.89311 0
M  V30 10115 N 960.352 -3.6257 2.88266 0
M  V30 10116 C 961.087 -4.41603 3.65752 0
M  V30 10117 N 960.583 -5.24162 4.53019 0
M  V30 10118 N 962.376 -4.36464 3.54197 0
M  V30 10119 H 954.527 -0.823355 1.95792 0
M  V30 10120 H 956.79 -0.42432 0.847736 0
M  V30 10121 H 956.496 -2.08075 2.83545 0
M  V30 10122 H 956.37 -3.38371 1.66687 0
M  V30 10123 H 958.757 -2.82717 0.845888 0
M  V30 10124 H 958.838 -1.53188 2.04859 0
M  V30 10125 H 958.482 -3.2567 3.89745 0
M  V30 10126 H 958.412 -4.54162 2.66542 0
M  V30 10127 H 960.903 -3.03625 2.24989 0
M  V30 10128 H 961.216 -5.81646 5.0883 0
M  V30 10129 H 959.561 -5.23547 4.57081 0
M  V30 10130 H 962.752 -3.7102 2.85416 0
M  V30 10131 H 962.925 -4.97814 4.14832 0
M  V30 10132 N 956.331 -0.831506 -1.3388 0
M  V30 10133 C 957.58 -0.420028 -1.97278 0
M  V30 10134 C 957.893 1.02441 -1.66629 0
M  V30 10135 O 959.099 1.54021 -2.23584 0
M  V30 10136 C 957.555 -0.700116 -3.53025 0
M  V30 10137 C 957.163 -2.15874 -3.92559 0
M  V30 10138 C 958.907 -0.355226 -4.23011 0
M  V30 10139 C 956.814 -2.38327 -5.41252 0
M  V30 10140 H 955.744 -0.153326 -0.738246 0
M  V30 10141 H 958.395 -1.01906 -1.52602 0
M  V30 10142 H 956.777 -0.0308044 -3.95988 0
M  V30 10143 H 957.951 -2.86792 -3.60675 0
M  V30 10144 H 956.266 -2.4659 -3.35533 0
M  V30 10145 H 958.863 -0.500701 -5.32351 0
M  V30 10146 H 959.206 0.70111 -4.10354 0
M  V30 10147 H 959.739 -0.979466 -3.85553 0
M  V30 10148 H 956.478 -3.42498 -5.58906 0
M  V30 10149 H 955.998 -1.71962 -5.74621 0
M  V30 10150 H 957.677 -2.21113 -6.08045 0
M  V30 10151 N 957.809 1.4625 -0.587256 0
M  V30 10152 C 958.742 2.27392 0.191837 0
M  V30 10153 C 959.72 1.35905 0.89267 0
M  V30 10154 O 960.904 1.65319 0.905643 0
M  V30 10155 C 958.031 3.13758 1.27567 0
M  V30 10156 C 957.077 4.21041 0.680186 0
M  V30 10157 S 957.91 5.33194 -0.496419 0
M  V30 10158 C 959.066 6.23127 0.588506 0
M  V30 10159 H 959.299 2.93123 -0.496635 0
M  V30 10160 H 956.832 1.49795 -0.37426 0
M  V30 10161 H 958.79 3.6408 1.8962 0
M  V30 10162 H 957.451 2.47332 1.93612 0
M  V30 10163 H 956.644 4.81316 1.49503 0
M  V30 10164 H 956.246 3.73755 0.135227 0
M  V30 10165 H 958.538 6.61294 1.47298 0
M  V30 10166 H 959.481 7.08096 0.0224093 0
M  V30 10167 H 959.889 5.57365 0.894696 0
M  V30 10168 N 959.287 0.325282 1.54207 0
M  V30 10169 C 960.703 -0.0273036 1.59577 0
M  V30 10170 C 960.903 -1.50329 1.34177 0
M  V30 10171 O 959.959 -2.25951 1.12705 0
M  V30 10172 C 961.272 0.392468 2.98128 0
M  V30 10173 C 962.82 0.343269 3.11112 0
M  V30 10174 C 963.295 0.738229 4.52011 0
M  V30 10175 N 964.786 0.691701 4.58006 0
M  V30 10176 C 965.521 0.969479 5.65145 0
M  V30 10177 N 965.017 1.31448 6.80216 0
M  V30 10178 N 966.81 0.894926 5.5493 0
M  V30 10179 H 958.961 1.28692 1.68974 0
M  V30 10180 H 961.224 0.523399 0.790416 0
M  V30 10181 H 960.93 1.42089 3.2172 0
M  V30 10182 H 960.804 -0.241651 3.76425 0
M  V30 10183 H 963.191 -0.675946 2.87254 0
M  V30 10184 H 963.272 1.01235 2.34915 0
M  V30 10185 H 962.916 1.75537 4.76602 0
M  V30 10186 H 962.846 0.0468226 5.26579 0
M  V30 10187 H 965.337 0.436975 3.75365 0
M  V30 10188 H 965.65 1.51177 7.57869 0
M  V30 10189 H 963.995 1.35276 6.81708 0
M  V30 10190 H 967.186 0.624876 4.6391 0
M  V30 10191 H 967.359 1.11476 6.38339 0
M  V30 10192 N 960.765 -1.57509 0.0534917 0
M  V30 10193 C 962.013 -1.92402 -0.618548 0
M  V30 10194 C 962.334 -0.93273 -1.71246 0
M  V30 10195 O 961.604 0.0220495 -1.95888 0
M  V30 10196 H 960.184 -0.710233 -0.23147 0
M  V30 10197 H 962.846 -1.94606 0.10704 0
M  V30 10198 H 961.942 -2.93704 -1.05566 0
M  V30 10199 N 962.243 0.219913 -1.56058 0
M  V30 10200 C 963.489 0.945463 -1.79412 0
M  V30 10201 C 963.822 1.83922 -0.62341 0
M  V30 10202 O 963.097 1.90806 0.377256 0
M  V30 10203 C 963.38 1.783 -3.1286 0
M  V30 10204 C 963.233 0.915626 -4.40382 0
M  V30 10205 C 964.552 2.76045 -3.42764 0
M  V30 10206 H 961.671 0.342288 -0.652693 0
M  V30 10207 H 964.313 0.214235 -1.88788 0
M  V30 10208 H 962.463 2.40642 -3.04998 0
M  V30 10209 H 964.135 0.30882 -4.60265 0
M  V30 10210 H 962.378 0.221124 -4.33236 0
M  V30 10211 H 963.049 1.53607 -5.30197 0
M  V30 10212 H 965.525 2.23838 -3.50764 0
M  V30 10213 H 964.401 3.31748 -4.37304 0
M  V30 10214 H 964.662 3.53866 -2.65012 0
M  V30 10215 N 963.721 1.49897 0.486681 0
M  V30 10216 C 964.97 1.59349 1.23656 0
M  V30 10217 C 965.283 0.292024 1.93408 0
M  V30 10218 O 966.489 0.265258 2.70201 0
M  V30 10219 C 964.945 2.81215 2.24602 0
M  V30 10220 C 964.553 4.18177 1.60725 0
M  V30 10221 C 966.297 3.00004 3.00329 0
M  V30 10222 C 964.204 5.31247 2.59866 0
M  V30 10223 H 963.134 0.593363 0.465227 0
M  V30 10224 H 965.785 1.76306 0.508769 0
M  V30 10225 H 964.167 2.57783 3.00606 0
M  V30 10226 H 965.341 4.51802 0.90616 0
M  V30 10227 H 963.656 4.04864 0.973362 0
M  V30 10228 H 966.253 3.81649 3.74497 0
M  V30 10229 H 966.596 2.1112 3.58795 0
M  V30 10230 H 967.129 3.23544 2.3144 0
M  V30 10231 H 963.868 6.22236 2.06161 0
M  V30 10232 H 963.388 5.02059 3.28172 0
M  V30 10233 H 965.067 5.61177 3.22009 0
M  V30 10234 N 965.199 -0.738761 1.39212 0
M  V30 10235 C 966.424 -1.5331 1.39681 0
M  V30 10236 C 966.849 -1.88098 -0.00768715 0
M  V30 10237 O 966.207 -1.51642 -0.993699 0
M  V30 10238 C 966.255 -2.79958 2.27279 0
M  V30 10239 O 965.359 -3.75727 1.70008 0
M  V30 10240 H 964.7 -0.463131 0.475821 0
M  V30 10241 H 967.23 -0.911768 1.83161 0
M  V30 10242 H 967.24 -3.28732 2.41659 0
M  V30 10243 H 965.915 -2.5397 3.29351 0
M  V30 10244 H 964.492 -3.34483 1.64851 0
M  V30 10245 O 966.716 -1.35434 -0.879766 0
M  V30 10246 H 967.407 -1.20393 -1.51741 0
M  V30 END ATOM
M  V30 BEGIN BOND
M  V30 END BOND
M  V30 END CTAB
M  END
$$$$
