drugbank_target|P36578 60S ribosomal protein L4 (DB11638)
 OpenBabel12092121093D

  0  0  0     0  0            999 V3000
M  V30 BEGIN CTAB
M  V30 COUNTS 6959 7020 0 0 0
M  V30 BEGIN ATOM
M  V30 1 H -0.908 1.98254 -0.117106 0
M  V30 2 N 0 1.576 0 0
M  V30 3 C 0.933 2.03868 1.02534 0
M  V30 4 C 1.911 0.928543 1.3348 0
M  V30 5 O 3.095 1.19667 1.45644 0
M  V30 6 C 0.222 2.43627 2.35294 0
M  V30 7 C -0.732 3.65373 2.2001 0
M  V30 8 S 0.101 5.13292 1.52614 0
M  V30 9 C 1.257 5.56322 2.86805 0
M  V30 10 H 1.49 2.90518 0.631377 0
M  V30 11 H -0.977 1.52953 0.210867 0
M  V30 12 H 0.981 2.67203 3.11629 0
M  V30 13 H -0.358 1.57376 2.7183 0
M  V30 14 H -1.165 3.90944 3.18086 0
M  V30 15 H -1.563 3.418 1.51819 0
M  V30 16 H 0.729 5.58782 3.83104 0
M  V30 17 H 1.672 6.56266 2.65933 0
M  V30 18 H 2.08 4.83886 2.90714 0
M  V30 19 N 1.4781 -0.272755 1.55222 0
M  V30 20 C 2.4411 -1.32041 1.87344 0
M  V30 21 C 3.4411 -1.42342 0.74803 0
M  V30 22 O 4.6311 -1.41488 1.0162 0
M  V30 23 C 1.7631 -2.70173 2.07893 0
M  V30 24 H 2.9561 -1.04789 2.80997 0
M  V30 25 H 0.5091 -0.51083 1.47717 0
M  V30 26 H 1.2441 -3.02605 1.16622 0
M  V30 27 H 1.0291 -2.64082 2.89833 0
M  V30 28 H 2.5191 -3.45869 2.34017 0
M  V30 29 N 2.9562 -1.48159 -0.537278 0
M  V30 30 C 4.1962 -1.57397 -1.30405 0
M  V30 31 C 4.5602 -0.239202 -1.90504 0
M  V30 32 O 5.7612 -0.206528 -2.68005 0
M  V30 33 C 4.0322 -2.6754 -2.36974 0
M  V30 34 S 5.5912 -2.96496 -3.23475 0
M  V30 35 H 2.4092 -0.555577 -0.443684 0
M  V30 36 H 5.0112 -1.85644 -0.612912 0
M  V30 37 H 3.7152 -3.63092 -1.91291 0
M  V30 38 H 3.2462 -2.41172 -3.10805 0
M  V30 39 H 5.2612 -2.35234 -4.36897 0
M  V30 40 N 4.4343 0.785586 -1.36625 0
M  V30 41 C 5.3973 1.87999 -1.31107 0
M  V30 42 C 6.3973 1.59316 -0.217959 0
M  V30 43 O 7.5873 1.67656 -0.472977 0
M  V30 44 C 4.7193 3.24861 -1.03334 0
M  V30 45 H 5.9123 1.94307 -2.2844 0
M  V30 46 H 3.4653 0.983813 -1.21453 0
M  V30 47 H 4.2003 3.24235 -0.0647432 0
M  V30 48 H 3.9853 3.4707 -1.82441 0
M  V30 49 H 5.4753 4.04929 -1.02088 0
M  V30 50 N 5.9124 1.20967 1.01018 0
M  V30 51 C 7.3284 0.965905 1.27053 0
M  V30 52 C 7.5284 -0.350785 1.98423 0
M  V30 53 O 6.5844 -1.07773 2.28344 0
M  V30 54 C 7.8974 2.15294 2.09926 0
M  V30 55 C 9.4454 2.19463 2.23171 0
M  V30 56 C 9.9204 3.3767 3.09424 0
M  V30 57 N 11.4114 3.37724 3.17012 0
M  V30 58 C 12.1464 4.25837 3.83993 0
M  V30 59 N 11.6424 5.24138 4.53047 0
M  V30 60 N 13.4354 4.1366 3.80581 0
M  V30 61 H 5.5864 2.0565 0.531194 0
M  V30 62 H 7.8494 0.90024 0.297106 0
M  V30 63 H 7.5554 3.10684 1.64828 0
M  V30 64 H 7.4294 2.13923 3.10672 0
M  V30 65 H 9.8164 1.24632 2.6749 0
M  V30 66 H 9.8974 2.2488 1.21912 0
M  V30 67 H 9.5414 4.32791 2.65808 0
M  V30 68 H 9.4714 3.29491 4.10784 0
M  V30 69 H 11.9624 2.6658 2.6785 0
M  V30 70 H 12.2754 5.87684 5.01844 0
M  V30 71 H 10.6204 5.28068 4.5185 0
M  V30 72 H 13.8114 3.36127 3.25785 0
M  V30 73 H 13.9844 4.82538 4.32505 0
M  V30 74 N 7.3905 -1.2043 1.01659 0
M  V30 75 C 8.8015 -1.71517 0.737482 0
M  V30 76 C 9.1525 -1.81547 -0.743973 0
M  V30 77 O 8.2775 -1.47803 -1.58061 0
M  V30 78 C 8.8725 -3.11515 1.33206 0
M  V30 79 C 7.4315 -3.59912 1.10183 0
M  V30 80 C 6.5785 -2.37116 1.43776 0
M  V30 81 H 9.5295 -1.05444 1.18606 0
M  V30 82 H 9.5505 -3.73575 0.722636 0
M  V30 83 H 9.0625 -3.04182 2.41028 0
M  V30 84 H 7.1635 -3.72577 0.0412756 0
M  V30 85 H 7.2765 -4.44731 1.78188 0
M  V30 86 H 5.6405 -2.39857 0.856778 0
M  V30 87 H 6.4235 -2.32424 2.52654 0
M  V30 88 N 8.8686 -0.792821 -1.36206 0
M  V30 89 C 9.7986 -0.207853 -2.32573 0
M  V30 90 C 10.7796 0.659055 -1.56813 0
M  V30 91 O 11.9646 0.592176 -1.84951 0
M  V30 92 C 9.0946 0.655449 -3.41059 0
M  V30 93 C 8.0486 -0.111842 -4.27854 0
M  V30 94 C 7.3746 0.872274 -5.27537 0
M  V30 95 C 8.6746 -1.30299 -5.05786 0
M  V30 96 H 10.3686 -1.01294 -2.81744 0
M  V30 97 H 7.9146 -0.48854 -1.3546 0
M  V30 98 H 9.8676 1.07464 -4.07467 0
M  V30 99 H 8.5916 1.49328 -2.90463 0
M  V30 100 H 7.2506 -0.512053 -3.63006 0
M  V30 101 H 6.8986 1.70523 -4.73214 0
M  V30 102 H 6.5986 0.363291 -5.86476 0
M  V30 103 H 8.1226 1.28996 -5.96818 0
M  V30 104 H 9.5366 -0.959379 -5.65216 0
M  V30 105 H 7.9336 -1.7455 -5.74154 0
M  V30 106 H 9.0036 -2.09663 -4.37229 0
M  V30 107 N 10.3467 1.47872 -0.545128 0
M  V30 108 C 11.5957 2.01695 -0.0145033 0
M  V30 109 C 11.9087 1.42609 1.33873 0
M  V30 110 O 13.1147 1.88021 1.95858 0
M  V30 111 C 11.5707 3.59892 0.0245068 0
M  V30 112 C 11.1787 4.27966 -1.32475 0
M  V30 113 C 12.9227 4.21507 0.50316 0
M  V30 114 C 10.8297 5.78136 -1.2455 0
M  V30 115 H 9.7597 0.753998 -0.00165172 0
M  V30 116 H 12.4107 1.69985 -0.691175 0
M  V30 117 H 10.7927 3.88509 0.766575 0
M  V30 118 H 11.9667 4.11003 -2.08357 0
M  V30 119 H 10.2817 3.78286 -1.74036 0
M  V30 120 H 12.8787 5.31538 0.580656 0
M  V30 121 H 13.2217 3.87855 1.51243 0
M  V30 122 H 13.7547 3.97376 -0.183681 0
M  V30 123 H 10.4937 6.16388 -2.23039 0
M  V30 124 H 10.0137 5.97469 -0.528282 0
M  V30 125 H 11.6927 6.40099 -0.942488 0
M  V30 126 N 11.8248 0.280983 1.55075 0
M  V30 127 C 13.0498 -0.340154 2.04592 0
M  V30 128 C 13.4748 -1.48246 1.15779 0
M  V30 129 O 12.8328 -1.80614 0.15761 0
M  V30 130 C 12.8808 -0.793104 3.5177 0
M  V30 131 O 11.9848 -1.89981 3.66034 0
M  V30 132 H 11.3258 -0.0694289 0.66036 0
M  V30 133 H 13.8558 0.416993 2.00306 0
M  V30 134 H 13.8658 -1.08729 3.93245 0
M  V30 135 H 12.5408 0.0426163 4.15878 0
M  V30 136 H 11.1178 -1.60771 3.36463 0
M  V30 137 N 13.3029 -1.57598 0.00835791 0
M  V30 138 C 14.5489 -1.91211 -0.675732 0
M  V30 139 C 14.8819 -0.883139 -1.72958 0
M  V30 140 O 14.1569 0.097016 -1.94258 0
M  V30 141 C 14.4399 -3.35379 -1.31123 0
M  V30 142 C 14.2929 -4.48999 -0.268356 0
M  V30 143 C 15.6119 -3.7912 -2.23508 0
M  V30 144 H 12.7309 -0.695374 -0.244179 0
M  V30 145 H 15.3729 -1.89901 0.0613655 0
M  V30 146 H 13.5229 -3.36626 -1.93946 0
M  V30 147 H 15.1949 -4.59887 0.360844 0
M  V30 148 H 13.4379 -4.31873 0.408482 0
M  V30 149 H 14.1089 -5.46851 -0.752218 0
M  V30 150 H 16.5849 -3.79477 -1.70693 0
M  V30 151 H 15.4609 -4.80729 -2.64936 0
M  V30 152 H 15.7219 -3.13455 -3.11766 0
M  V30 153 N 14.781 0.264519 -1.55364 0
M  V30 154 C 16.011 1.01153 -1.80143 0
M  V30 155 C 16.419 1.80115 -0.579253 0
M  V30 156 O 15.762 1.77813 0.46132 0
M  V30 157 C 15.824 2.01098 -2.97993 0
M  V30 158 C 15.488 1.40995 -4.34706 0
M  V30 159 C 16.485 0.821316 -5.13372 0
M  V30 160 C 14.17 1.43461 -4.81378 0
M  V30 161 C 16.164 0.265339 -6.36847 0
M  V30 162 C 13.851 0.874771 -6.04807 0
M  V30 163 C 14.849 0.291146 -6.82379 0
M  V30 164 O 14.537 -0.260093 -8.03479 0
M  V30 165 H 14.269 0.304125 -0.603725 0
M  V30 166 H 16.823 0.298089 -2.03225 0
M  V30 167 H 15.053 2.76224 -2.70623 0
M  V30 168 H 16.742 2.61997 -3.1002 0
M  V30 169 H 17.508 0.794903 -4.78442 0
M  V30 170 H 13.387 1.87826 -4.21002 0
M  V30 171 H 16.931 -0.190837 -6.97339 0
M  V30 172 H 12.828 0.898452 -6.39217 0
M  V30 173 H 13.596 -0.150265 -8.18362 0
M  V30 174 N 16.2591 1.48442 0.529413 0
M  V30 175 C 17.4841 1.60406 1.31471 0
M  V30 176 C 17.9091 0.264738 1.86228 0
M  V30 177 O 17.2671 -0.763668 1.64432 0
M  V30 178 C 17.3151 2.65419 2.44101 0
M  V30 179 O 16.4191 2.22618 3.47153 0
M  V30 180 H 15.7601 0.537863 0.389357 0
M  V30 181 H 18.2901 1.94432 0.636965 0
M  V30 182 H 18.3001 2.86709 2.90279 0
M  V30 183 H 16.9751 3.62652 2.03608 0
M  V30 184 H 15.5521 2.11543 3.0709 0
M  V30 185 N 17.7372 -0.778329 1.37039 0
M  V30 186 C 18.6472 -1.92253 1.34446 0
M  V30 187 C 19.6632 -1.72267 0.244991 0
M  V30 188 O 20.8392 -1.95615 0.479258 0
M  V30 189 C 17.9042 -3.27282 1.144 0
M  V30 190 C 16.9652 -3.59969 2.33925 0
M  V30 191 C 16.1982 -4.88555 2.14825 0
M  V30 192 O 16.4212 -5.59113 1.12912 0
M  V30 193 O 15.3552 -5.20153 3.02861 0
M  V30 194 H 19.1812 -1.97392 2.30803 0
M  V30 195 H 16.7662 -0.920154 1.17701 0
M  V30 196 H 18.6482 -4.08062 1.05182 0
M  V30 197 H 17.3232 -3.23011 0.211124 0
M  V30 198 H 16.2302 -2.7945 2.48714 0
M  V30 199 H 17.5632 -3.68976 3.25757 0
M  V30 200 N 19.2153 -1.21501 -1.00376 0
M  V30 201 C 20.1623 -0.975387 -2.09177 0
M  V30 202 C 21.1323 0.0990615 -1.65804 0
M  V30 203 O 22.3173 -0.0483147 -1.90739 0
M  V30 204 C 19.4573 -0.547507 -3.40729 0
M  V30 205 C 18.5703 -1.69153 -3.97506 0
M  V30 206 C 17.7053 -1.2127 -5.17172 0
M  V30 207 C 16.7443 -2.32897 -5.66061 0
M  V30 208 N 15.8813 -1.86138 -6.76976 0
M  V30 209 H 20.7213 -1.9068 -2.29009 0
M  V30 210 H 18.2583 -0.950257 -1.12288 0
M  V30 211 H 20.2163 -0.280667 -4.16255 0
M  V30 212 H 18.8463 0.346904 -3.20931 0
M  V30 213 H 17.8983 -2.07298 -3.18954 0
M  V30 214 H 19.2103 -2.5316 -4.29781 0
M  V30 215 H 18.3643 -0.902591 -5.99948 0
M  V30 216 H 17.1033 -0.342692 -4.86495 0
M  V30 217 H 16.1083 -2.64709 -4.81881 0
M  V30 218 H 17.3333 -3.20396 -5.98768 0
M  V30 219 H 15.2793 -1.01484 -6.48103 0
M  V30 220 H 15.1963 -2.63717 -7.08512 0
M  V30 221 H 16.4643 -1.58165 -7.63285 0
M  V30 222 N 20.6934 1.19889 -1.02296 0
M  V30 223 C 21.9414 1.89046 -0.714558 0
M  V30 224 C 22.2624 1.79636 0.758681 0
M  V30 225 O 21.5324 1.20292 1.54618 0
M  V30 226 H 20.1124 0.699802 -0.261317 0
M  V30 227 H 22.7744 1.45574 -1.29592 0
M  V30 228 H 21.8704 2.95524 -1.0036 0
M  V30 229 N 22.1715 0.800033 1.35784 0
M  V30 230 C 23.0815 0.207204 2.33683 0
M  V30 231 C 24.0975 -0.64631 1.61551 0
M  V30 232 O 25.2735 -0.559604 1.93469 0
M  V30 233 C 22.3385 -0.639659 3.40748 0
M  V30 234 C 21.3995 0.233585 4.28664 0
M  V30 235 C 20.6325 -0.572954 5.30616 0
M  V30 236 O 20.8555 -1.80816 5.40982 0
M  V30 237 O 19.7895 0.0327285 6.01891 0
M  V30 238 H 23.6155 1.01692 2.86169 0
M  V30 239 H 21.2005 0.561691 1.38439 0
M  V30 240 H 23.0825 -1.12223 4.06182 0
M  V30 241 H 21.7575 -1.42708 2.90544 0
M  V30 242 H 20.6645 0.763147 3.66233 0
M  V30 243 H 21.9975 0.984784 4.82248 0
M  V30 244 N 23.6496 -1.47581 0.552962 0
M  V30 245 C 24.8746 -2.07378 0.0300593 0
M  V30 246 C 25.2996 -1.40355 -1.25229 0
M  V30 247 O 24.6576 -0.477099 -1.7491 0
M  V30 248 C 24.7056 -3.60274 -0.153231 0
M  V30 249 O 23.8096 -3.94041 -1.21678 0
M  V30 250 H 23.1506 -0.662158 0.0494182 0
M  V30 251 H 25.6806 -1.89662 0.767434 0
M  V30 252 H 25.6906 -4.0633 -0.368761 0
M  V30 253 H 24.3656 -4.08455 0.783397 0
M  V30 254 H 22.9426 -3.59735 -0.982079 0
M  V30 255 N 25.1277 -0.289203 -1.54924 0
M  V30 256 C 26.3527 0.329299 -2.04769 0
M  V30 257 C 26.7777 1.4763 -1.16564 0
M  V30 258 O 26.1357 1.80527 -0.167186 0
M  V30 259 C 26.1837 0.774438 -3.52186 0
M  V30 260 O 25.2877 1.88038 -3.67036 0
M  V30 261 H 24.6287 0.0659259 -0.660719 0
M  V30 262 H 27.1587 -0.42761 -2.00082 0
M  V30 263 H 27.1687 1.06642 -3.93816 0
M  V30 264 H 25.8437 -0.0646707 -4.1585 0
M  V30 265 H 24.4207 1.58985 -3.3731 0
M  V30 266 N 26.6058 1.57591 -0.0167156 0
M  V30 267 C 27.8538 1.90906 0.663285 0
M  V30 268 C 28.1748 0.892509 1.73376 0
M  V30 269 O 27.4448 -0.0677623 1.95783 0
M  V30 270 H 26.0248 0.704637 0.247983 0
M  V30 271 H 28.6868 1.94803 -0.0615909 0
M  V30 272 H 27.7828 2.9116 1.12393 0
M  V30 273 N 28.0839 -0.256276 1.55502 0
M  V30 274 C 29.0309 -1.31714 1.89526 0
M  V30 275 C 30.0009 -1.4828 0.748479 0
M  V30 276 O 31.1859 -1.62416 1.00128 0
M  V30 277 C 28.3259 -2.66933 2.18725 0
M  V30 278 C 27.4389 -2.58452 3.4616 0
M  V30 279 C 26.5739 -3.85961 3.64976 0
M  V30 280 C 25.6129 -3.72059 4.86044 0
M  V30 281 N 24.7499 -4.9144 5.01429 0
M  V30 282 H 29.5899 -1.01998 2.80001 0
M  V30 283 H 27.1269 -0.492413 1.38613 0
M  V30 284 H 29.0849 -3.4563 2.33657 0
M  V30 285 H 27.7149 -2.94816 1.31466 0
M  V30 286 H 26.7669 -1.71374 3.3961 0
M  V30 287 H 28.0789 -2.44085 4.34999 0
M  V30 288 H 27.2329 -4.73101 3.79816 0
M  V30 289 H 25.9719 -4.03215 2.74353 0
M  V30 290 H 24.9769 -2.83302 4.7119 0
M  V30 291 H 26.2019 -3.56309 5.78118 0
M  V30 292 H 24.1479 -5.09072 4.13741 0
M  V30 293 H 24.0649 -4.79668 5.84341 0
M  V30 294 H 25.3329 -5.80104 5.20672 0
M  V30 295 N 29.562 -1.4872 -0.521534 0
M  V30 296 C 30.51 -1.64328 -1.64618 0
M  V30 297 C 31.504 -0.50953 -1.61555 0
M  V30 298 O 32.71 -0.688525 -1.66311 0
M  V30 299 H 29.085 -0.517805 -0.545328 0
M  V30 300 H 31.056 -2.58767 -1.48601 0
M  V30 301 C 29.805 -1.70805 -3.02855 0
M  V30 302 H 29.128 -2.5741 -3.05909 0
M  V30 303 H 30.568 -1.85766 -3.81139 0
M  V30 304 C 29.027 -0.448479 -3.33902 0
M  V30 305 O 29.557 0.434928 -3.99339 0
M  V30 306 N 27.763 -0.317616 -2.88859 0
M  V30 307 H 27.31 -1.03748 -2.35784 0
M  V30 308 H 27.268 0.524113 -3.10001 0
M  V30 309 N 31.0401 0.771051 -1.3745 0
M  V30 310 C 32.2861 1.5319 -1.32894 0
M  V30 311 C 32.6191 1.94008 0.0862511 0
M  V30 312 O 31.8941 1.64124 1.04373 0
M  V30 313 C 32.1771 2.79648 -2.26868 0
M  V30 314 C 32.0301 2.45079 -3.77169 0
M  V30 315 C 33.3491 3.81583 -2.19277 0
M  V30 316 H 30.4681 0.555744 -0.484064 0
M  V30 317 H 33.1101 0.884492 -1.68157 0
M  V30 318 H 31.2601 3.34891 -1.96926 0
M  V30 319 H 32.9321 1.95745 -4.1771 0
M  V30 320 H 31.1751 1.77767 -3.95704 0
M  V30 321 H 31.8461 3.35478 -4.38359 0
M  V30 322 H 34.3221 3.35835 -2.45671 0
M  V30 323 H 33.1981 4.67787 -2.87171 0
M  V30 324 H 33.4591 4.25897 -1.18592 0
M  V30 325 N 32.5182 1.22032 0.997298 0
M  V30 326 C 33.7462 1.06841 1.7718 0
M  V30 327 C 34.1612 -0.381325 1.84909 0
M  V30 328 O 33.5182 -1.26437 1.31605 0
M  V30 329 C 33.5692 1.66814 3.20711 0
M  V30 330 O 33.2902 3.06116 3.13408 0
M  V30 331 C 34.7912 1.56838 4.14628 0
M  V30 332 H 32.0112 0.374782 0.556578 0
M  V30 333 H 34.5552 1.61532 1.2541 0
M  V30 334 H 32.7102 1.16196 3.69564 0
M  V30 335 H 33.1242 3.34926 4.0364 0
M  V30 336 H 34.5982 2.03532 5.13107 0
M  V30 337 H 35.0752 0.524155 4.36061 0
M  V30 338 H 35.6812 2.06741 3.7167 0
M  V30 339 N 33.9963 -1.19345 1.0293 0
M  V30 340 C 34.9263 -2.2481 0.631105 0
M  V30 341 C 35.9073 -1.66245 -0.360104 0
M  V30 342 O 37.0923 -1.92677 -0.242726 0
M  V30 343 C 34.2223 -3.47295 -0.0184607 0
M  V30 344 C 33.1763 -4.18536 0.895073 0
M  V30 345 C 32.5023 -5.34586 0.110592 0
M  V30 346 C 33.8023 -4.73287 2.209 0
M  V30 347 H 35.4963 -2.58372 1.51275 0
M  V30 348 H 33.0423 -1.24194 0.728818 0
M  V30 349 H 34.9953 -4.20268 -0.308675 0
M  V30 350 H 33.7193 -3.12933 -0.934907 0
M  V30 351 H 32.3783 -3.47446 1.16949 0
M  V30 352 H 32.0263 -4.96469 -0.807902 0
M  V30 353 H 31.7263 -5.83183 0.719087 0
M  V30 354 H 33.2503 -6.10355 -0.172871 0
M  V30 355 H 34.6643 -5.38013 1.98028 0
M  V30 356 H 33.0613 -5.32373 2.76946 0
M  V30 357 H 34.1313 -3.91331 2.86336 0
M  V30 358 N 35.4744 -0.807222 -1.35358 0
M  V30 359 C 36.8854 -0.44876 -1.81226 0
M  V30 360 C 37.2364 1.02929 -1.67033 0
M  V30 361 O 36.3614 1.79991 -1.20133 0
M  V30 362 C 36.9564 -0.807774 -3.2903 0
M  V30 363 C 35.5154 -0.501901 -3.73039 0
M  V30 364 C 34.6624 -1.03304 -2.57339 0
M  V30 365 H 37.6134 -0.998808 -1.23327 0
M  V30 366 H 37.6344 -0.10554 -3.80354 0
M  V30 367 H 37.1464 -1.88357 -3.39328 0
M  V30 368 H 35.2474 0.565128 -3.68289 0
M  V30 369 H 35.3604 -1.03497 -4.67787 0
M  V30 370 H 33.7244 -0.455339 -2.50597 0
M  V30 371 H 34.5074 -2.11496 -2.70415 0
M  V30 372 N 36.9525 1.47285 -0.560781 0
M  V30 373 C 37.9155 2.28535 0.174488 0
M  V30 374 C 38.9155 1.37153 0.839388 0
M  V30 375 O 40.1055 1.59748 0.694702 0
M  V30 376 C 37.2375 3.16934 1.25561 0
M  V30 377 H 38.4305 2.95012 -0.539262 0
M  V30 378 H 35.9835 1.53034 -0.317865 0
M  V30 379 H 36.7185 2.55157 2.00164 0
M  V30 380 H 36.5035 3.8419 0.783604 0
M  V30 381 H 37.9935 3.78143 1.77193 0
M  V30 382 N 38.4306 0.297415 1.54768 0
M  V30 383 C 39.6766 -0.313376 2.00364 0
M  V30 384 C 40.0096 -1.53815 1.18553 0
M  V30 385 O 39.2846 -1.92739 0.261103 0
M  V30 386 C 39.5676 -0.673525 3.53745 0
M  V30 387 C 39.4206 0.560133 4.46299 0
M  V30 388 C 40.7396 -1.50143 4.13697 0
M  V30 389 H 37.8586 -0.112428 0.728374 0
M  V30 390 H 40.5006 0.4088 1.8555 0
M  V30 391 H 38.6506 -1.28881 3.665 0
M  V30 392 H 40.3226 1.19863 4.45455 0
M  V30 393 H 38.5656 1.19405 4.17043 0
M  V30 394 H 39.2366 0.26405 5.51368 0
M  V30 395 H 41.7126 -0.981588 4.04356 0
M  V30 396 H 40.5886 -1.72221 5.21182 0
M  V30 397 H 40.8496 -2.48952 3.65343 0
M  V30 398 N 39.9087 -1.5758 0.0250728 0
M  V30 399 C 41.1557 -1.91633 -0.654444 0
M  V30 400 C 41.4837 -0.901103 -1.72367 0
M  V30 401 O 40.7387 0.0905647 -1.9549 0
M  V30 402 C 41.0377 -3.32421 -1.31268 0
M  V30 403 C 40.7037 -4.49344 -0.374223 0
M  V30 404 C 39.3657 -4.8106 -0.115911 0
M  V30 405 C 41.7177 -5.20498 0.270432 0
M  V30 406 C 39.0457 -5.8129 0.79493 0
M  V30 407 C 41.3977 -6.21699 1.1693 0
M  V30 408 C 40.0617 -6.51859 1.43655 0
M  V30 409 H 39.3317 -0.701236 -0.239478 0
M  V30 410 H 41.9787 -1.91307 0.0859734 0
M  V30 411 H 40.2837 -3.28989 -2.12775 0
M  V30 412 H 41.9807 -3.56038 -1.84494 0
M  V30 413 H 38.5707 -4.24579 -0.58573 0
M  V30 414 H 42.7547 -4.96229 0.0839194 0
M  V30 415 H 38.0107 -6.03005 1.00973 0
M  V30 416 H 42.1847 -6.75955 1.67504 0
M  V30 417 H 39.8117 -7.2934 2.144 0
M  V30 418 N 41.3868 0.248026 -1.55636 0
M  V30 419 C 42.3338 1.30707 -1.90222 0
M  V30 420 C 43.3038 1.47881 -0.756332 0
M  V30 421 O 44.4888 1.61883 -1.00988 0
M  V30 422 C 41.6288 2.65769 -2.20138 0
M  V30 423 C 40.7418 2.56612 -3.47526 0
M  V30 424 C 39.8768 3.8402 -3.67017 0
M  V30 425 C 38.9158 3.69476 -4.8801 0
M  V30 426 N 38.0528 4.88774 -5.04029 0
M  V30 427 H 42.8928 1.00512 -2.80538 0
M  V30 428 H 40.4298 0.485055 -1.38873 0
M  V30 429 H 42.3878 3.44386 -2.35487 0
M  V30 430 H 41.0178 2.94115 -1.33027 0
M  V30 431 H 40.0698 1.69571 -3.40514 0
M  V30 432 H 41.3818 2.41774 -4.36287 0
M  V30 433 H 40.5358 4.7108 -3.8232 0
M  V30 434 H 39.2748 4.01754 -2.76487 0
M  V30 435 H 38.2798 2.80799 -4.72686 0
M  V30 436 H 39.5048 3.53238 -5.8 0
M  V30 437 H 37.4508 5.0687 -4.16435 0
M  V30 438 H 37.3678 4.76562 -5.86877 0
M  V30 439 H 38.6358 5.77335 -5.23741 0
M  V30 440 N 42.8649 1.48995 0.513639 0
M  V30 441 C 43.8279 1.64229 1.59879 0
M  V30 442 C 44.8279 0.514696 1.5234 0
M  V30 443 O 46.0179 0.78087 1.55718 0
M  V30 444 C 43.1499 1.62783 2.99524 0
M  V30 445 H 44.3429 2.61004 1.47705 0
M  V30 446 H 41.8959 1.37837 0.736936 0
M  V30 447 H 42.6309 0.675461 3.17188 0
M  V30 448 H 42.4159 2.4466 3.06404 0
M  V30 449 H 43.9059 1.76669 3.78388 0
M  V30 450 N 44.343 -0.763751 1.37857 0
M  V30 451 C 45.754 -1.3405 1.29952 0
M  V30 452 C 46.105 -1.96138 -0.0492898 0
M  V30 453 O 45.23 -1.94372 -0.951239 0
M  V30 454 C 45.825 -2.43729 2.35333 0
M  V30 455 C 44.384 -2.97151 2.31037 0
M  V30 456 C 43.531 -1.70438 2.18738 0
M  V30 457 H 46.482 -0.563396 1.48363 0
M  V30 458 H 46.503 -3.23412 2.00462 0
M  V30 459 H 46.015 -1.9851 3.33489 0
M  V30 460 H 44.116 -3.46724 1.3643 0
M  V30 461 H 44.229 -3.52221 3.24772 0
M  V30 462 H 42.593 -1.93673 1.65418 0
M  V30 463 H 43.376 -1.27312 3.18821 0
M  V30 464 N 45.8211 -1.22559 -0.990812 0
M  V30 465 C 47.0701 -1.04553 -1.72486 0
M  V30 466 C 47.3831 0.419349 -1.91052 0
M  V30 467 O 48.5891 0.719121 -2.61803 0
M  V30 468 C 47.0451 -1.82231 -3.10355 0
M  V30 469 C 46.6531 -3.32981 -2.99713 0
M  V30 470 C 48.3971 -1.7268 -3.87791 0
M  V30 471 C 46.3041 -4.03091 -4.32748 0
M  V30 472 H 45.2341 -0.387614 -0.646739 0
M  V30 473 H 47.8851 -1.46429 -1.10593 0
M  V30 474 H 46.2671 -1.33155 -3.72942 0
M  V30 475 H 47.4411 -3.89466 -2.46278 0
M  V30 476 H 45.7561 -3.43231 -2.35758 0
M  V30 477 H 48.3531 -2.22381 -4.86262 0
M  V30 478 H 48.6961 -0.687607 -4.10582 0
M  V30 479 H 49.2291 -2.1931 -3.31885 0
M  V30 480 H 45.9681 -5.07273 -4.15156 0
M  V30 481 H 45.4881 -3.51394 -4.86089 0
M  V30 482 H 47.1671 -4.08804 -5.01486 0
M  V30 483 N 47.2992 1.18797 -1.03562 0
M  V30 484 C 48.7152 1.40671 -0.753917 0
M  V30 485 C 48.9152 1.9043 0.658686 0
M  V30 486 O 47.9712 2.08538 1.42366 0
M  V30 487 C 49.2842 2.41192 -1.79574 0
M  V30 488 C 50.8322 2.54928 -1.81606 0
M  V30 489 C 51.3072 3.58709 -2.84766 0
M  V30 490 N 52.7982 3.66212 -2.83625 0
M  V30 491 C 53.5332 4.46225 -3.60098 0
M  V30 492 N 53.0292 5.29888 -4.46308 0
M  V30 493 N 54.8222 4.40939 -3.4861 0
M  V30 494 H 46.9732 0.848221 -1.94728 0
M  V30 495 H 49.2362 0.435081 -0.842264 0
M  V30 496 H 48.9422 2.11669 -2.80872 0
M  V30 497 H 48.8162 3.40467 -1.62365 0
M  V30 498 H 51.2032 2.83771 -0.809817 0
M  V30 499 H 51.2842 1.55784 -2.02891 0
M  V30 500 H 50.9282 3.30607 -3.85566 0
M  V30 501 H 50.8582 4.57519 -2.60737 0
M  V30 502 H 53.3492 3.06466 -2.21105 0
M  V30 503 H 53.6622 5.88078 -5.01382 0
M  V30 504 H 52.0072 5.29326 -4.50377 0
M  V30 505 H 55.1982 3.74624 -2.80668 0
M  V30 506 H 55.3712 5.03056 -4.08459 0
M  V30 507 N 48.7773 0.814389 1.34928 0
M  V30 508 C 50.1883 0.458364 1.80986 0
M  V30 509 C 50.5393 -1.02042 1.67577 0
M  V30 510 O 49.6643 -1.79352 1.21086 0
M  V30 511 C 50.2593 0.825212 3.28597 0
M  V30 512 C 48.8183 0.521677 3.72767 0
M  V30 513 C 47.9653 1.04668 2.56788 0
M  V30 514 H 50.9163 1.00533 1.22795 0
M  V30 515 H 50.9373 0.12571 3.80292 0
M  V30 516 H 50.4493 1.90154 3.38324 0
M  V30 517 H 48.5503 -0.545589 3.68584 0
M  V30 518 H 48.6633 1.05977 4.67232 0
M  V30 519 H 47.0273 0.468622 2.50352 0
M  V30 520 H 47.8103 2.12927 2.6929 0
M  V30 521 N 50.2554 -1.46986 0.568584 0
M  V30 522 C 51.5324 -1.95592 -0.0174074 0
M  V30 523 C 51.9124 -1.51124 -1.47393 0
M  V30 524 O 51.2604 -0.755329 -2.15655 0
M  V30 525 C 51.4704 -3.48719 0.139913 0
M  V30 526 C 52.8184 -4.246 0.000426376 0
M  V30 527 O 53.8424 -3.56135 0.0680316 0
M  V30 528 O 52.7014 -5.46302 -0.146988 0
M  V30 529 H 49.7954 -0.82498 -0.0577599 0
M  V30 530 H 52.3414 -1.57335 0.635909 0
M  V30 531 H 51.1134 -3.73927 1.15301 0
M  V30 532 H 50.7364 -3.93771 -0.550491 0
M  V30 533 N 51.7335 -0.305618 -1.54608 0
M  V30 534 C 52.9825 0.303098 -1.9941 0
M  V30 535 C 53.2955 1.54648 -1.19764 0
M  V30 536 O 54.5015 2.23007 -1.54855 0
M  V30 537 C 52.9575 0.590588 -3.55021 0
M  V30 538 C 52.5655 -0.634719 -4.43481 0
M  V30 539 C 54.3095 1.16025 -4.08336 0
M  V30 540 C 52.2165 -0.320126 -5.90533 0
M  V30 541 H 51.1465 0.117031 -0.744862 0
M  V30 542 H 53.7975 -0.415045 -1.78745 0
M  V30 543 H 52.1795 1.36845 -3.71604 0
M  V30 544 H 53.3535 -1.41079 -4.38672 0
M  V30 545 H 51.6685 -1.12333 -4.00962 0
M  V30 546 H 54.2655 1.40994 -5.15776 0
M  V30 547 H 54.6085 2.10397 -3.5922 0
M  V30 548 H 55.1415 0.443985 -3.95315 0
M  V30 549 H 51.8805 -1.23254 -6.43808 0
M  V30 550 H 51.4005 0.418579 -5.98338 0
M  V30 551 H 53.0795 0.0766241 -6.46955 0
M  V30 552 N 53.2116 1.57565 -0.0334293 0
M  V30 553 C 54.4576 1.92262 0.645226 0
M  V30 554 C 54.7906 0.910543 1.71531 0
M  V30 555 O 54.0656 -0.066099 1.94388 0
M  V30 556 C 54.3486 3.37422 1.2577 0
M  V30 557 C 54.2016 4.49369 0.196891 0
M  V30 558 C 55.5206 3.82628 2.17449 0
M  V30 559 H 52.6396 0.699171 0.233085 0
M  V30 560 H 55.2816 1.89779 -0.0915694 0
M  V30 561 H 53.4316 3.39669 1.88566 0
M  V30 562 H 55.1036 4.59254 -0.433962 0
M  V30 563 H 53.3466 4.31168 -0.477137 0
M  V30 564 H 54.0176 5.47978 0.665124 0
M  V30 565 H 56.4936 3.82145 1.64634 0
M  V30 566 H 55.3696 4.84883 2.57254 0
M  V30 567 H 55.6306 3.18376 3.0674 0
M  V30 568 N 54.6897 -0.239769 1.55765 0
M  V30 569 C 55.6377 -1.31668 1.91745 0
M  V30 570 C 56.6317 -1.49462 0.797338 0
M  V30 571 O 57.8377 -1.50852 0.982021 0
M  V30 572 H 54.2127 -0.441048 0.609082 0
M  V30 573 H 56.1837 -0.985923 2.81642 0
M  V30 574 C 54.9327 -2.66368 2.2348 0
M  V30 575 H 54.2557 -2.53478 3.09175 0
M  V30 576 H 55.6957 -3.40578 2.52553 0
M  V30 577 C 54.1547 -3.20002 1.05359 0
M  V30 578 O 54.6847 -4.00538 0.305261 0
M  V30 579 N 52.8907 -2.78126 0.842292 0
M  V30 580 H 52.4377 -2.12742 1.45253 0
M  V30 581 H 52.3957 -3.14354 0.053652 0
M  V30 582 N 56.1678 -1.49265 -0.50573 0
M  V30 583 C 57.4148 -1.58513 -1.26015 0
M  V30 584 C 57.7428 -0.26972 -1.92621 0
M  V30 585 O 56.9978 0.741997 -1.81088 0
M  V30 586 C 57.2968 -2.69008 -2.35308 0
M  V30 587 C 56.9628 -4.10662 -1.86192 0
M  V30 588 C 55.6248 -4.49212 -1.72516 0
M  V30 589 C 57.9768 -4.99336 -1.49375 0
M  V30 590 C 55.3048 -5.74214 -1.20394 0
M  V30 591 C 57.6568 -6.24852 -0.987072 0
M  V30 592 C 56.3208 -6.62236 -0.836669 0
M  V30 593 H 55.5908 -0.580041 -0.461122 0
M  V30 594 H 58.2378 -1.83078 -0.561665 0
M  V30 595 H 56.5428 -2.38396 -3.10926 0
M  V30 596 H 58.2398 -2.73373 -2.93374 0
M  V30 597 H 54.8298 -3.8023 -1.97795 0
M  V30 598 H 59.0138 -4.70212 -1.5879 0
M  V30 599 H 54.2698 -6.01883 -1.07458 0
M  V30 600 H 58.4438 -6.92944 -0.692983 0
M  V30 601 H 56.0708 -7.58979 -0.430607 0
M  V30 602 N 57.6459 0.756429 -1.3826 0
M  V30 603 C 58.8919 1.51772 -1.34511 0
M  V30 604 C 59.2249 1.94089 0.0656691 0
M  V30 605 O 58.4999 1.65221 1.02626 0
M  V30 606 C 58.7829 2.77226 -2.29821 0
M  V30 607 C 58.6359 2.41065 -3.79747 0
M  V30 608 C 59.9549 3.79236 -2.23312 0
M  V30 609 H 57.0739 0.550578 -0.489931 0
M  V30 610 H 59.7159 0.866607 -1.69086 0
M  V30 611 H 57.8659 3.32784 -2.00467 0
M  V30 612 H 59.5379 1.91303 -4.19763 0
M  V30 613 H 57.7809 1.7356 -3.97567 0
M  V30 614 H 58.4519 3.3081 -4.41892 0
M  V30 615 H 60.9279 3.3321 -2.49219 0
M  V30 616 H 59.8039 4.64714 -2.92116 0
M  V30 617 H 60.0649 4.24615 -1.23102 0
M  V30 618 N 59.124 1.23083 0.984299 0
M  V30 619 C 60.074 0.975749 2.06066 0
M  V30 620 C 61.058 -0.0768251 1.60716 0
M  V30 621 O 62.25 0.134805 1.76486 0
M  V30 622 C 59.379 0.564673 3.38624 0
M  V30 623 C 58.465 1.65244 3.90583 0
M  V30 624 N 58.856 2.88193 4.15666 0
M  V30 625 C 57.154 1.52612 4.19077 0
M  V30 626 C 57.855 3.58593 4.58024 0
M  V30 627 N 56.831 2.86093 4.62225 0
M  V30 628 H 60.633 1.90957 2.23411 0
M  V30 629 H 58.147 1.12963 1.16675 0
M  V30 630 H 60.144 0.36322 4.15315 0
M  V30 631 H 58.804 -0.362147 3.22674 0
M  V30 632 H 59.815 3.24537 4.03604 0
M  V30 633 H 56.492 0.666121 4.12152 0
M  V30 634 H 57.882 4.63974 4.85982 0
M  V30 635 N 60.6021 -1.18246 1.0419 0
M  V30 636 C 61.8301 -1.92195 0.766072 0
M  V30 637 C 62.2451 -1.76247 -0.676933 0
M  V30 638 O 61.6021 -1.09293 -1.46155 0
M  V30 639 C 61.6531 -3.43568 1.12442 0
M  V30 640 O 61.3741 -3.59015 2.51078 0
M  V30 641 C 62.8751 -4.34613 0.873275 0
M  V30 642 H 60.0951 -0.610114 0.279288 0
M  V30 643 H 62.6391 -1.50007 1.38989 0
M  V30 644 H 60.7941 -3.8354 0.545542 0
M  V30 645 H 61.2081 -4.5273 2.64831 0
M  V30 646 H 62.6821 -5.39374 1.17385 0
M  V30 647 H 63.1591 -4.38781 -0.191909 0
M  V30 648 H 63.7651 -4.00341 1.43551 0
M  V30 649 N 62.0802 -0.821533 -1.34494 0
M  V30 650 C 63.0282 -0.230702 -2.31453 0
M  V30 651 C 64.0222 0.627793 -1.57338 0
M  V30 652 O 65.2282 0.519288 -1.72347 0
M  V30 653 H 61.6032 -0.0558577 -0.749923 0
M  V30 654 H 63.5742 -1.06332 -2.78812 0
M  V30 655 C 62.3232 0.59391 -3.4259 0
M  V30 656 H 61.6462 -0.0573588 -3.99759 0
M  V30 657 H 63.0862 0.973446 -4.12674 0
M  V30 658 C 61.5452 1.76568 -2.86924 0
M  V30 659 O 62.0752 2.8638 -2.81691 0
M  V30 660 N 60.2812 1.58198 -2.43766 0
M  V30 661 H 59.8282 0.68872 -2.48222 0
M  V30 662 H 59.7862 2.36752 -2.06871 0
M  V30 663 N 63.5583 1.46682 -0.576371 0
M  V30 664 C 64.4883 2.33028 0.148397 0
M  V30 665 C 65.4693 1.44961 0.889956 0
M  V30 666 O 66.6543 1.73789 0.866662 0
M  V30 667 C 63.7843 3.27117 1.1667 0
M  V30 668 C 62.7383 4.24575 0.540386 0
M  V30 669 C 62.0643 5.08126 1.6647 0
M  V30 670 C 63.3643 5.19722 -0.518331 0
M  V30 671 H 65.0583 2.93875 -0.572509 0
M  V30 672 H 62.6043 1.41315 -0.276768 0
M  V30 673 H 64.5573 3.86374 1.68204 0
M  V30 674 H 63.2813 2.64364 1.9178 0
M  V30 675 H 61.9403 3.66571 0.0461769 0
M  V30 676 H 61.5883 4.41762 2.40531 0
M  V30 677 H 61.2883 5.74122 1.25131 0
M  V30 678 H 62.8123 5.70246 2.18293 0
M  V30 679 H 64.2263 5.73232 -0.0883058 0
M  V30 680 H 62.6233 5.94026 -0.851679 0
M  V30 681 H 63.6933 4.64037 -1.40703 0
M  V30 682 N 65.0364 0.313813 1.54444 0
M  V30 683 C 66.4524 -0.0391619 1.59552 0
M  V30 684 C 66.6524 -1.51322 1.33056 0
M  V30 685 O 65.7084 -2.26782 1.11022 0
M  V30 686 C 67.0214 0.370302 2.98411 0
M  V30 687 C 68.5694 0.320139 3.11358 0
M  V30 688 C 69.0444 0.704617 4.52547 0
M  V30 689 N 70.5354 0.657645 4.58508 0
M  V30 690 C 71.2704 0.927453 5.6585 0
M  V30 691 N 70.7664 1.26389 6.81174 0
M  V30 692 N 72.5594 0.853662 5.5558 0
M  V30 693 H 64.7104 1.27433 1.69925 0
M  V30 694 H 66.9734 0.517511 0.794284 0
M  V30 695 H 66.6794 1.39694 3.22767 0
M  V30 696 H 66.5534 -0.269619 3.76235 0
M  V30 697 H 68.9404 -0.697275 2.86744 0
M  V30 698 H 69.0214 0.99486 2.35661 0
M  V30 699 H 68.6654 1.7199 4.77893 0
M  V30 700 H 68.5954 0.00768843 5.26599 0
M  V30 701 H 71.0864 0.409067 3.75679 0
M  V30 702 H 71.3994 1.4554 7.58972 0
M  V30 703 H 69.7444 1.30206 6.82694 0
M  V30 704 H 72.9354 0.590383 4.64362 0
M  V30 705 H 73.1084 1.0673 6.3915 0
M  V30 706 N 66.5145 -1.57545 0.0417849 0
M  V30 707 C 67.4615 -2.10977 -0.935805 0
M  V30 708 C 68.4315 -1.01486 -1.31491 0
M  V30 709 O 69.6165 -1.2898 -1.40602 0
M  V30 710 C 66.7565 -2.65169 -2.2086 0
M  V30 711 C 65.8695 -3.88714 -1.88482 0
M  V30 712 C 65.0045 -4.31254 -3.1015 0
M  V30 713 C 64.0435 -5.47524 -2.7365 0
M  V30 714 N 63.1805 -5.85162 -3.87982 0
M  V30 715 H 68.0205 -2.94218 -0.473249 0
M  V30 716 H 65.5575 -1.45415 -0.221981 0
M  V30 717 H 67.5155 -2.94685 -2.95325 0
M  V30 718 H 66.1455 -1.8474 -2.64709 0
M  V30 719 H 65.1975 -3.65849 -1.04205 0
M  V30 720 H 66.5095 -4.73245 -1.57608 0
M  V30 721 H 65.6635 -4.62273 -3.92923 0
M  V30 722 H 64.4025 -3.45516 -3.44195 0
M  V30 723 H 63.4075 -5.16187 -1.89291 0
M  V30 724 H 64.6325 -6.34971 -2.40807 0
M  V30 725 H 62.5785 -5.02377 -4.21846 0
M  V30 726 H 62.4955 -6.64362 -3.60775 0
M  V30 727 H 63.7635 -6.20791 -4.71422 0
M  V30 728 N 67.9926 0.231505 -1.5589 0
M  V30 729 C 68.9406 1.30649 -1.92441 0
M  V30 730 C 69.9346 1.49037 -0.805254 0
M  V30 731 O 71.1406 1.50329 -0.990007 0
M  V30 732 H 67.5156 0.437812 -0.611412 0
M  V30 733 H 69.4866 0.970973 -2.82161 0
M  V30 734 C 68.2356 2.65179 -2.24889 0
M  V30 735 H 67.5586 2.51835 -3.10514 0
M  V30 736 H 68.9986 3.39234 -2.54355 0
M  V30 737 C 67.4576 3.19439 -1.07054 0
M  V30 738 O 67.9876 4.00371 -0.326499 0
M  V30 739 N 66.1936 2.77675 -0.85703 0
M  V30 740 H 65.7406 2.11969 -1.46379 0
M  V30 741 H 65.6986 3.14321 -0.0703223 0
M  V30 742 N 69.4707 1.49531 0.497807 0
M  V30 743 C 70.4187 1.66926 1.61983 0
M  V30 744 C 71.4127 0.535167 1.60724 0
M  V30 745 O 72.6187 0.714896 1.65195 0
M  V30 746 H 68.9937 0.526415 0.537021 0
M  V30 747 H 70.9647 2.61098 1.44465 0
M  V30 748 C 69.7137 1.75602 3.00099 0
M  V30 749 H 69.0367 2.62244 3.01775 0
M  V30 750 H 70.4767 1.91807 3.78135 0
M  V30 751 C 68.9357 0.501543 3.33146 0
M  V30 752 O 69.4657 -0.371342 3.9998 0
M  V30 753 N 67.6717 0.363531 2.88317 0
M  V30 754 H 67.2187 1.07485 2.34104 0
M  V30 755 H 67.1767 -0.474728 3.10795 0
M  V30 756 N 70.9488 -0.749086 1.3866 0
M  V30 757 C 72.3648 -1.05276 1.19955 0
M  V30 758 C 72.5648 -2.01435 0.05134 0
M  V30 759 O 71.6208 -2.45232 -0.60147 0
M  V30 760 C 72.9338 -1.62853 2.52783 0
M  V30 761 C 74.4818 -1.75002 2.59506 0
M  V30 762 C 74.9568 -2.35991 3.92521 0
M  V30 763 N 76.4478 -2.43416 3.94085 0
M  V30 764 C 77.1828 -2.91511 4.9377 0
M  V30 765 N 76.6788 -3.39608 6.03853 0
M  V30 766 N 78.4718 -2.90592 4.81157 0
M  V30 767 H 70.6228 -0.111066 2.12109 0
M  V30 768 H 72.8858 -0.111901 0.941373 0
M  V30 769 H 72.5918 -0.99664 3.37283 0
M  V30 770 H 72.4658 -2.61854 2.715 0
M  V30 771 H 74.8528 -2.37317 1.75398 0
M  V30 772 H 74.9338 -0.74693 2.44652 0
M  V30 773 H 74.5778 -1.74308 4.77053 0
M  V30 774 H 74.5078 -3.3695 4.04688 0
M  V30 775 H 76.9988 -2.09405 3.14576 0
M  V30 776 H 77.3118 -3.74775 6.75843 0
M  V30 777 H 75.6568 -3.37653 6.07466 0
M  V30 778 H 78.8478 -2.52332 3.94267 0
M  V30 779 H 79.0208 -3.27762 5.58996 0
M  V30 780 N 72.4269 -1.23603 -0.977757 0
M  V30 781 C 73.3589 -0.977369 -2.07317 0
M  V30 782 C 74.3719 0.0495845 -1.62724 0
M  V30 783 O 75.5609 -0.186261 -1.77526 0
M  V30 784 C 72.6609 -0.451216 -3.35883 0
M  V30 785 C 71.8339 -1.53896 -4.09432 0
M  V30 786 C 70.8929 -1.01721 -5.16274 0
M  V30 787 O 69.9189 -1.70676 -5.43009 0
M  V30 788 N 71.1209 0.153594 -5.80297 0
M  V30 789 H 73.8859 -1.92047 -2.30082 0
M  V30 790 H 71.4469 -1.14497 -1.14465 0
M  V30 791 H 73.4389 -0.0871574 -4.04606 0
M  V30 792 H 72.0089 0.397368 -3.10064 0
M  V30 793 H 71.2289 -2.07566 -3.35127 0
M  V30 794 H 72.5169 -2.27037 -4.55337 0
M  V30 795 H 71.9149 0.730323 -5.60966 0
M  V30 796 H 70.4719 0.458892 -6.50183 0
M  V30 797 N 73.905 1.17692 -1.04816 0
M  V30 798 C 75.316 1.69501 -0.782698 0
M  V30 799 C 75.667 1.83456 0.695577 0
M  V30 800 O 74.792 1.51942 1.54086 0
M  V30 801 C 75.387 3.07874 -1.41419 0
M  V30 802 C 73.946 3.56864 -1.19686 0
M  V30 803 C 73.093 2.3322 -1.50012 0
M  V30 804 H 76.044 1.02262 -1.2136 0
M  V30 805 H 76.065 3.71528 -0.821428 0
M  V30 806 H 75.577 2.97685 -2.49009 0
M  V30 807 H 73.678 3.72337 -0.140043 0
M  V30 808 H 73.791 4.39851 -1.89916 0
M  V30 809 H 72.155 2.37501 -0.920071 0
M  V30 810 H 72.938 2.25644 -2.58727 0
M  V30 811 N 75.3831 0.828654 1.34056 0
M  V30 812 C 76.6131 0.431993 2.02033 0
M  V30 813 C 77.0211 -0.96844 1.62536 0
M  V30 814 O 76.3641 -1.6391 0.829408 0
M  V30 815 C 76.4261 0.461224 3.56529 0
M  V30 816 C 76.0901 1.81599 4.1937 0
M  V30 817 C 77.0871 2.7777 4.39477 0
M  V30 818 C 74.7721 2.10604 4.56017 0
M  V30 819 C 76.7661 4.01115 4.95364 0
M  V30 820 C 74.4531 3.34207 5.11614 0
M  V30 821 C 75.4511 4.2928 5.31232 0
M  V30 822 O 75.1391 5.50699 5.8565 0
M  V30 823 H 74.8711 0.170943 0.654029 0
M  V30 824 H 77.4251 1.11988 1.72185 0
M  V30 825 H 75.6551 -0.283388 3.8566 0
M  V30 826 H 77.3441 0.0838149 4.05813 0
M  V30 827 H 78.1101 2.56659 4.11523 0
M  V30 828 H 73.9891 1.37402 4.40047 0
M  V30 829 H 77.5331 4.75333 5.10592 0
M  V30 830 H 73.4301 3.55179 5.38997 0
M  V30 831 H 74.1981 5.52298 6.04077 0
M  V30 832 N 76.8612 -1.46375 0.584142 0
M  V30 833 C 77.8242 -2.28784 -0.138108 0
M  V30 834 C 78.8242 -1.38471 -0.817462 0
M  V30 835 O 80.0142 -1.60833 -0.669199 0
M  V30 836 C 77.1462 -3.18892 -1.20503 0
M  V30 837 H 78.3392 -2.94117 0.586127 0
M  V30 838 H 75.8922 -1.52509 0.342171 0
M  V30 839 H 76.6272 -2.58309 -1.96079 0
M  V30 840 H 76.4122 -3.85388 -0.722384 0
M  V30 841 H 77.9022 -3.80914 -1.71155 0
M  V30 842 N 78.3393 -0.321999 -1.54275 0
M  V30 843 C 79.5853 0.281461 -2.00837 0
M  V30 844 C 79.9183 1.51909 -1.20985 0
M  V30 845 O 79.1933 1.923 -0.291733 0
M  V30 846 C 79.4763 0.617162 -3.54772 0
M  V30 847 C 79.3293 -0.631064 -4.45351 0
M  V30 848 C 80.6483 1.43542 -4.16033 0
M  V30 849 H 77.7673 0.100826 -0.730071 0
M  V30 850 H 80.4093 -0.438268 -1.84876 0
M  V30 851 H 78.5593 1.23034 -3.68504 0
M  V30 852 H 80.2313 -1.26934 -4.43492 0
M  V30 853 H 78.4743 -1.26025 -4.15091 0
M  V30 854 H 79.1453 -0.351735 -5.50878 0
M  V30 855 H 81.6213 0.917134 -4.05867 0
M  V30 856 H 80.4973 1.63907 -5.23856 0
M  V30 857 H 80.7583 2.43108 -3.69257 0
M  V30 858 N 79.8174 1.5752 -0.0501392 0
M  V30 859 C 81.0424 1.97376 0.636997 0
M  V30 860 C 81.4674 0.927466 1.63645 0
M  V30 861 O 80.8254 -0.10941 1.8097 0
M  V30 862 C 80.8734 3.36304 1.30123 0
M  V30 863 O 79.9774 3.34156 2.41689 0
M  V30 864 H 79.3184 0.642998 0.165679 0
M  V30 865 H 81.8484 2.04258 -0.118233 0
M  V30 866 H 81.8584 3.73008 1.65315 0
M  V30 867 H 80.5334 4.11993 0.568746 0
M  V30 868 H 79.1104 3.09196 2.08451 0
M  V30 869 N 81.2955 -0.223234 1.56011 0
M  V30 870 C 82.2055 -1.29766 1.95443 0
M  V30 871 C 83.2215 -1.51373 0.858028 0
M  V30 872 O 84.3975 -1.64536 1.16146 0
M  V30 873 C 81.4625 -2.62772 2.26167 0
M  V30 874 C 80.5235 -2.49482 3.49367 0
M  V30 875 C 79.7565 -3.76145 3.78616 0
M  V30 876 O 79.9795 -4.79087 3.09568 0
M  V30 877 O 78.9135 -3.73358 4.72109 0
M  V30 878 H 82.7395 -0.99309 2.87004 0
M  V30 879 H 80.3245 -0.425958 1.43199 0
M  V30 880 H 82.2065 -3.41327 2.47131 0
M  V30 881 H 80.8815 -2.92913 1.37781 0
M  V30 882 H 79.7885 -1.69133 3.33684 0
M  V30 883 H 81.1215 -2.2428 4.38131 0
M  V30 884 N 82.7736 -1.49793 -0.48987 0
M  V30 885 C 83.7036 -1.70201 -1.59856 0
M  V30 886 C 84.6846 -0.55076 -1.60937 0
M  V30 887 O 85.8696 -0.787841 -1.77501 0
M  V30 888 C 82.9996 -1.77882 -2.98287 0
M  V30 889 C 81.9536 -2.92907 -3.12073 0
M  V30 890 C 81.2796 -2.85712 -4.51965 0
M  V30 891 C 82.5796 -4.3369 -2.91051 0
M  V30 892 H 84.2736 -2.63025 -1.43032 0
M  V30 893 H 81.8196 -1.26574 -0.686664 0
M  V30 894 H 83.7726 -1.90744 -3.75759 0
M  V30 895 H 82.4966 -0.816653 -3.16225 0
M  V30 896 H 81.1556 -2.79665 -2.37029 0
M  V30 897 H 80.8036 -1.8738 -4.66795 0
M  V30 898 H 80.5036 -3.62921 -4.62128 0
M  V30 899 H 82.0276 -3.00598 -5.31482 0
M  V30 900 H 83.4416 -4.47555 -3.58284 0
M  V30 901 H 81.8386 -5.12205 -3.12675 0
M  V30 902 H 82.9086 -4.47362 -1.87071 0
M  V30 903 N 84.2517 0.741722 -1.39055 0
M  V30 904 C 85.2147 1.83733 -1.37021 0
M  V30 905 C 86.2147 1.58542 -0.268534 0
M  V30 906 O 87.4047 1.66067 -0.526076 0
M  V30 907 C 84.5367 3.2141 -1.13617 0
M  V30 908 H 85.7297 1.86941 -2.34506 0
M  V30 909 H 83.2827 0.944676 -1.24521 0
M  V30 910 H 84.0177 3.23865 -0.167863 0
M  V30 911 H 83.8027 3.4109 -1.93391 0
M  V30 912 H 85.2927 4.01477 -1.14918 0
M  V30 913 N 85.7298 1.2412 0.971189 0
M  V30 914 C 86.9778 1.07668 1.71032 0
M  V30 915 C 87.2988 -0.385797 1.91146 0
M  V30 916 O 86.5688 -1.27569 1.4867 0
M  V30 917 H 85.1488 0.395429 0.633755 0
M  V30 918 H 87.8108 1.55984 1.16855 0
M  V30 919 H 86.9068 1.57195 2.69622 0
M  V30 920 N 87.2079 -1.17134 1.05439 0
M  V30 921 C 88.1579 -2.1919 0.627675 0
M  V30 922 C 89.1419 -1.57328 -0.337147 0
M  V30 923 O 90.3339 -1.76329 -0.153976 0
M  V30 924 C 87.4629 -3.43299 0.00651435 0
M  V30 925 C 86.5489 -4.12255 0.995312 0
M  V30 926 N 86.9399 -4.56997 2.16765 0
M  V30 927 C 85.2379 -4.38316 0.824336 0
M  V30 928 C 85.9389 -5.10239 2.7934 0
M  V30 929 N 84.9149 -5.02595 2.07122 0
M  V30 930 H 88.7169 -2.5149 1.52086 0
M  V30 931 H 86.2309 -1.33491 0.924868 0
M  V30 932 H 88.2279 -4.15693 -0.316965 0
M  V30 933 H 86.8879 -3.1249 -0.882033 0
M  V30 934 H 87.8989 -4.51006 2.54587 0
M  V30 935 H 84.5759 -4.17498 -0.0129526 0
M  V30 936 H 85.9659 -5.54961 3.78772 0
M  V30 937 N 88.686 -0.835752 -1.33615 0
M  V30 938 C 89.618 -0.224151 -2.28101 0
M  V30 939 C 90.631 0.593331 -1.51603 0
M  V30 940 O 91.82 0.420911 -1.73466 0
M  V30 941 C 88.92 0.703309 -3.31522 0
M  V30 942 C 88.093 -0.0741528 -4.37337 0
M  V30 943 C 87.152 0.776176 -5.20444 0
M  V30 944 O 86.178 0.216506 -5.68788 0
M  V30 945 N 87.38 2.09401 -5.41416 0
M  V30 946 H 90.145 -1.03598 -2.81225 0
M  V30 947 H 87.706 -0.69392 -1.46275 0
M  V30 948 H 89.698 1.27707 -3.84022 0
M  V30 949 H 88.268 1.41585 -2.78698 0
M  V30 950 H 87.488 -0.82928 -3.85378 0
M  V30 951 H 88.776 -0.608863 -5.05144 0
M  V30 952 H 88.174 2.57229 -5.03835 0
M  V30 953 H 86.731 2.61633 -5.96985 0
M  V30 954 N 90.1641 1.46063 -0.591896 0
M  V30 955 C 91.3921 2.06717 -0.0868936 0
M  V30 956 C 91.8071 1.43916 1.22203 0
M  V30 957 O 91.1641 0.547698 1.74088 0
M  V30 958 C 91.2151 3.6142 0.0758725 0
M  V30 959 O 90.9361 4.21874 -1.18126 0
M  V30 960 C 92.4371 4.39025 0.61416 0
M  V30 961 H 89.6571 0.668162 -0.0616518 0
M  V30 962 H 92.2011 1.8755 -0.815175 0
M  V30 963 H 90.3561 3.79983 0.754413 0
M  V30 964 H 90.7701 5.14861 -1.00092 0
M  V30 965 H 92.2441 5.4783 0.677193 0
M  V30 966 H 92.7211 4.07708 1.63312 0
M  V30 967 H 93.3271 4.2529 -0.0298142 0
M  V30 968 N 91.6422 0.330177 1.54103 0
M  V30 969 C 92.8672 -0.274893 2.0557 0
M  V30 970 C 93.2922 -1.44487 1.20437 0
M  V30 971 O 92.6502 -1.80021 0.214991 0
M  V30 972 C 92.6982 -0.68079 3.54115 0
M  V30 973 O 91.8022 -1.7824 3.71893 0
M  V30 974 H 91.1432 -0.0483849 0.662235 0
M  V30 975 H 93.6732 0.480508 1.98878 0
M  V30 976 H 93.6832 -0.961635 3.96505 0
M  V30 977 H 92.3582 0.174903 4.15532 0
M  V30 978 H 90.9352 -1.49985 3.41407 0
M  V30 979 N 93.1203 -1.57491 0.0584922 0
M  V30 980 C 94.0833 -2.1085 -0.898617 0
M  V30 981 C 95.0833 -1.02964 -1.23511 0
M  V30 982 O 96.2733 -1.29007 -1.17059 0
M  V30 983 C 93.4053 -2.59881 -2.20623 0
M  V30 984 H 94.5983 -2.96715 -0.435936 0
M  V30 985 H 92.1513 -1.55141 -0.190023 0
M  V30 986 H 92.8863 -1.77431 -2.71457 0
M  V30 987 H 92.6713 -3.38727 -1.97501 0
M  V30 988 H 94.1613 -3.01285 -2.89166 0
M  V30 989 N 94.5984 0.214957 -1.56127 0
M  V30 990 C 95.5084 1.28727 -1.96129 0
M  V30 991 C 96.5244 1.50916 -0.866044 0
M  V30 992 O 97.7004 1.63918 -1.17016 0
M  V30 993 C 94.7654 2.61569 -2.27558 0
M  V30 994 C 93.8264 2.47625 -3.50685 0
M  V30 995 C 93.0594 3.74132 -3.80606 0
M  V30 996 O 93.2824 4.77438 -3.12104 0
M  V30 997 O 92.2164 3.70849 -4.74083 0
M  V30 998 H 96.0424 0.977855 -2.87527 0
M  V30 999 H 93.6274 0.418358 -1.43423 0
M  V30 1000 H 95.5094 3.40012 -2.48938 0
M  V30 1001 H 94.1844 2.92178 -1.39332 0
M  V30 1002 H 93.0914 1.67361 -3.34576 0
M  V30 1003 H 94.4244 2.21954 -4.39315 0
M  V30 1004 N 96.0765 1.50051 0.48192 0
M  V30 1005 C 97.3015 1.64508 1.26301 0
M  V30 1006 C 97.7265 0.323851 1.85291 0
M  V30 1007 O 97.0845 -0.710969 1.66778 0
M  V30 1008 C 97.1325 2.7305 2.35533 0
M  V30 1009 O 96.2365 2.3355 3.39895 0
M  V30 1010 H 95.5775 0.549978 0.372048 0
M  V30 1011 H 98.1075 1.9636 0.574786 0
M  V30 1012 H 98.1175 2.95799 2.8101 0
M  V30 1013 H 96.7925 3.68946 1.91967 0
M  V30 1014 H 95.3695 2.21205 3.00204 0
M  V30 1015 N 97.5546 -0.734337 1.39446 0
M  V30 1016 C 98.8006 -1.49505 1.37913 0
M  V30 1017 C 99.1556 -1.92384 -0.0248416 0
M  V30 1018 O 98.4486 -1.6395 -0.991506 0
M  V30 1019 C 98.6426 -2.74711 2.28623 0
M  V30 1020 C 98.4716 -2.44075 3.777 0
M  V30 1021 C 97.2416 -2.36338 4.46623 0
M  V30 1022 C 99.4396 -2.09574 4.69663 0
M  V30 1023 N 97.4216 -1.9818 5.81032 0
M  V30 1024 C 98.7926 -1.81865 5.92727 0
M  V30 1025 C 100.848 -1.96048 4.57678 0
M  V30 1026 C 99.5506 -1.41992 7.05146 0
M  V30 1027 C 101.577 -1.57579 5.7002 0
M  V30 1028 C 100.939 -1.30754 6.92158 0
M  V30 1029 H 97.0376 -0.545896 0.55993 0
M  V30 1030 H 99.6216 -0.853373 1.75002 0
M  V30 1031 H 97.7926 -3.36657 1.93692 0
M  V30 1032 H 99.5246 -3.40916 2.18078 0
M  V30 1033 H 96.2796 -2.53456 4.00071 0
M  V30 1034 H 96.7036 -1.81691 6.52163 0
M  V30 1035 H 101.346 -2.15455 3.63784 0
M  V30 1036 H 99.0636 -1.21327 7.9894 0
M  V30 1037 H 102.65 -1.47718 5.62735 0
M  V30 1038 H 101.53 -1.01432 7.77612 0
M  V30 1039 N 99.0327 -1.24633 -0.964593 0
M  V30 1040 C 100.281 -1.08573 -1.70459 0
M  V30 1041 C 100.602 0.375655 -1.91347 0
M  V30 1042 O 99.8717 1.26779 -1.49345 0
M  V30 1043 H 98.4517 -0.398784 -0.631649 0
M  V30 1044 H 101.114 -1.56601 -1.16026 0
M  V30 1045 H 100.21 -1.58623 -2.68785 0
M  V30 1046 N 100.511 1.16574 -1.06058 0
M  V30 1047 C 101.739 1.90952 -0.796552 0
M  V30 1048 C 102.154 1.77302 0.648808 0
M  V30 1049 O 101.511 1.11605 1.44397 0
M  V30 1050 C 101.562 3.41736 -1.17894 0
M  V30 1051 O 101.283 3.54975 -2.56758 0
M  V30 1052 C 102.784 4.33169 -0.942308 0
M  V30 1053 H 100.004 0.605594 -0.288959 0
M  V30 1054 H 102.548 1.47777 -1.41358 0
M  V30 1055 H 100.703 3.82623 -0.606491 0
M  V30 1056 H 101.117 4.4846 -2.72 0
M  V30 1057 H 102.591 5.37439 -1.25952 0
M  V30 1058 H 103.068 4.3903 0.122078 0
M  V30 1059 H 103.674 3.98007 -1.49902 0
M  V30 1060 N 101.989 0.842826 1.3317 0
M  V30 1061 C 103.237 0.439577 1.97262 0
M  V30 1062 C 103.558 -1.00548 1.67078 0
M  V30 1063 O 102.828 -1.70098 0.971779 0
M  V30 1064 H 101.408 0.159558 0.72976 0
M  V30 1065 H 104.07 1.07665 1.62463 0
M  V30 1066 H 103.166 0.574886 3.0676 0
M  V30 1067 N 103.467 -1.45747 0.599634 0
M  V30 1068 C 104.883 -1.57424 0.26264 0
M  V30 1069 C 105.083 -1.59222 -1.23493 0
M  V30 1070 O 104.139 -1.51825 -2.01756 0
M  V30 1071 C 105.452 -2.86061 0.926795 0
M  V30 1072 C 107 -2.99722 0.901967 0
M  V30 1073 C 107.475 -4.31119 1.54598 0
M  V30 1074 N 108.966 -4.37858 1.5111 0
M  V30 1075 C 109.701 -5.3818 1.97863 0
M  V30 1076 N 109.197 -6.45083 2.52666 0
M  V30 1077 N 110.99 -5.29487 1.88679 0
M  V30 1078 H 103.141 -1.42823 1.57211 0
M  V30 1079 H 105.404 -0.68235 0.658105 0
M  V30 1080 H 105.11 -2.90605 1.98095 0
M  V30 1081 H 104.984 -3.74563 0.445238 0
M  V30 1082 H 107.371 -2.9475 -0.143617 0
M  V30 1083 H 107.452 -2.12652 1.42171 0
M  V30 1084 H 107.096 -4.36849 2.59085 0
M  V30 1085 H 107.026 -5.16992 1.00132 0
M  V30 1086 H 109.517 -3.61209 1.11068 0
M  V30 1087 H 109.83 -7.17869 2.86155 0
M  V30 1088 H 108.175 -6.45856 2.56701 0
M  V30 1089 H 111.366 -4.44877 1.4561 0
M  V30 1090 H 111.539 -6.07524 2.25429 0
M  V30 1091 N 104.945 -0.338344 -1.53925 0
M  V30 1092 C 105.908 0.508299 -2.23493 0
M  V30 1093 C 106.908 1.03175 -1.23335 0
M  V30 1094 O 108.098 0.921826 -1.47811 0
M  V30 1095 C 105.23 1.70754 -2.95052 0
M  V30 1096 H 106.423 -0.100058 -2.99733 0
M  V30 1097 H 103.976 -0.0896198 -1.56043 0
M  V30 1098 H 104.711 2.35474 -2.22986 0
M  V30 1099 H 104.496 1.33946 -3.68512 0
M  V30 1100 H 105.986 2.30818 -3.48013 0
M  V30 1101 N 106.423 1.57458 -0.0668435 0
M  V30 1102 C 107.669 1.93587 0.6043 0
M  V30 1103 C 108.002 0.946722 1.69561 0
M  V30 1104 O 107.277 -0.0248516 1.94484 0
M  V30 1105 C 107.56 3.40014 1.18585 0
M  V30 1106 C 107.413 4.49685 0.101529 0
M  V30 1107 C 108.732 3.87154 2.09284 0
M  V30 1108 H 105.851 0.703958 0.218202 0
M  V30 1109 H 108.493 1.89542 -0.131804 0
M  V30 1110 H 106.643 3.43592 1.81319 0
M  V30 1111 H 108.315 4.5823 -0.531279 0
M  V30 1112 H 106.558 4.30059 -0.568487 0
M  V30 1113 H 107.229 5.49266 0.54874 0
M  V30 1114 H 109.705 3.85551 1.56491 0
M  V30 1115 H 108.581 4.90231 2.46911 0
M  V30 1116 H 108.842 3.2481 2.99918 0
M  V30 1117 N 107.901 -0.206675 1.56239 0
M  V30 1118 C 108.864 -1.23976 1.92776 0
M  V30 1119 C 109.864 -1.39041 0.807729 0
M  V30 1120 O 111.054 -1.37051 1.0753 0
M  V30 1121 C 108.186 -2.61112 2.19165 0
M  V30 1122 H 109.379 -0.927764 2.85189 0
M  V30 1123 H 106.932 -0.447718 1.4975 0
M  V30 1124 H 107.667 -2.97386 1.29352 0
M  V30 1125 H 107.452 -2.51552 3.00772 0
M  V30 1126 H 108.942 -3.35633 2.48476 0
M  V30 1127 N 109.379 -1.50304 -0.473955 0
M  V30 1128 C 110.795 -1.37667 -0.807466 0
M  V30 1129 C 110.995 -0.430555 -1.96846 0
M  V30 1130 O 110.051 0.127874 -2.52176 0
M  V30 1131 C 111.364 -2.78974 -1.12223 0
M  V30 1132 C 112.912 -2.87868 -1.22885 0
M  V30 1133 C 113.387 -4.30003 -1.57676 0
M  V30 1134 N 114.878 -4.3294 -1.64673 0
M  V30 1135 C 115.613 -5.3991 -1.93091 0
M  V30 1136 N 115.109 -6.57092 -2.1955 0
M  V30 1137 N 116.902 -5.27351 -1.94569 0
M  V30 1138 H 109.053 -2.10394 0.291212 0
M  V30 1139 H 111.316 -0.945575 0.0677609 0
M  V30 1140 H 111.022 -3.50031 -0.342229 0
M  V30 1141 H 110.896 -3.16038 -2.05913 0
M  V30 1142 H 113.283 -2.17032 -1.99953 0
M  V30 1143 H 113.364 -2.54352 -0.271814 0
M  V30 1144 H 113.008 -5.01375 -0.81149 0
M  V30 1145 H 112.938 -4.61004 -2.54525 0
M  V30 1146 H 115.429 -3.48441 -1.46277 0
M  V30 1147 H 115.742 -7.34425 -2.405 0
M  V30 1148 H 114.087 -6.60272 -2.16948 0
M  V30 1149 H 117.278 -4.34801 -1.73394 0
M  V30 1150 H 117.451 -6.10805 -2.16381 0
M  V30 1151 N 110.857 0.726932 -1.39834 0
M  V30 1152 C 112.106 1.48214 -1.36805 0
M  V30 1153 C 112.419 1.95576 0.0305291 0
M  V30 1154 O 113.625 2.7088 0.183417 0
M  V30 1155 C 112.081 2.67854 -2.40379 0
M  V30 1156 C 111.689 2.27408 -3.85992 0
M  V30 1157 C 113.433 3.45641 -2.46439 0
M  V30 1158 C 111.34 3.43819 -4.81189 0
M  V30 1159 H 110.27 0.556606 -0.508631 0
M  V30 1160 H 112.921 0.792216 -1.65518 0
M  V30 1161 H 111.303 3.3896 -2.04749 0
M  V30 1162 H 112.477 1.63795 -4.30706 0
M  V30 1163 H 110.792 1.62692 -3.83302 0
M  V30 1164 H 113.389 4.32244 -3.14753 0
M  V30 1165 H 113.732 3.88669 -1.49139 0
M  V30 1166 H 114.265 2.8157 -2.81004 0
M  V30 1167 H 111.004 3.05834 -5.79781 0
M  V30 1168 H 110.524 4.06385 -4.41148 0
M  V30 1169 H 112.203 4.10043 -5.00474 0
M  V30 1170 N 112.336 1.25143 0.95797 0
M  V30 1171 C 113.747 1.08851 1.51685 0
M  V30 1172 C 114.098 -0.33687 1.93286 0
M  V30 1173 O 113.223 -1.22644 1.7829 0
M  V30 1174 C 113.818 1.96978 2.75654 0
M  V30 1175 C 112.377 1.84881 3.27866 0
M  V30 1176 C 111.524 1.91329 2.0072 0
M  V30 1177 H 114.475 1.38478 0.77522 0
M  V30 1178 H 114.496 1.5078 3.4935 0
M  V30 1179 H 114.008 3.00712 2.45345 0
M  V30 1180 H 112.109 0.840182 3.63004 0
M  V30 1181 H 112.222 2.6951 3.96107 0
M  V30 1182 H 110.586 1.35174 2.15871 0
M  V30 1183 H 111.369 2.96661 1.72764 0
M  V30 1184 N 113.814 -1.1601 1.06675 0
M  V30 1185 C 115.23 -1.38622 0.790948 0
M  V30 1186 C 115.43 -1.92109 -0.607965 0
M  V30 1187 O 114.486 -2.12239 -1.36787 0
M  V30 1188 C 115.799 -2.36347 1.85905 0
M  V30 1189 C 117.347 -2.50023 1.88301 0
M  V30 1190 C 117.822 -3.51033 2.94176 0
M  V30 1191 N 119.313 -3.58563 2.93235 0
M  V30 1192 C 120.048 -4.36521 3.71803 0
M  V30 1193 N 119.544 -5.17869 4.602 0
M  V30 1194 N 121.337 -4.31541 3.60178 0
M  V30 1195 H 113.488 -0.796294 1.96908 0
M  V30 1196 H 115.751 -0.412597 0.853503 0
M  V30 1197 H 115.457 -2.04147 2.86386 0
M  V30 1198 H 115.331 -3.36042 1.71334 0
M  V30 1199 H 117.718 -2.81524 0.884769 0
M  V30 1200 H 117.799 -1.5035 2.06951 0
M  V30 1201 H 117.443 -3.20268 3.94196 0
M  V30 1202 H 117.373 -4.50445 2.72776 0
M  V30 1203 H 119.864 -3.00496 2.29152 0
M  V30 1204 H 120.177 -5.74578 5.16797 0
M  V30 1205 H 118.522 -5.17199 4.64253 0
M  V30 1206 H 121.713 -3.67051 2.90502 0
M  V30 1207 H 121.886 -4.9205 4.21653 0
M  V30 1208 N 115.292 -0.849877 -1.32721 0
M  V30 1209 C 116.538 -0.451591 -1.97708 0
M  V30 1210 C 116.871 0.989175 -1.6712 0
M  V30 1211 O 116.146 1.69334 -0.956891 0
M  V30 1212 C 116.429 -0.685598 -3.53513 0
M  V30 1213 C 116.282 -2.17444 -3.93749 0
M  V30 1214 C 117.601 -0.138874 -4.39881 0
M  V30 1215 H 114.72 -0.16555 -0.718166 0
M  V30 1216 H 117.362 -1.06742 -1.57182 0
M  V30 1217 H 115.512 -0.161416 -3.88165 0
M  V30 1218 H 117.184 -2.76433 -3.693 0
M  V30 1219 H 115.427 -2.65476 -3.43081 0
M  V30 1220 H 116.098 -2.28888 -5.02309 0
M  V30 1221 H 118.574 -0.587068 -4.11938 0
M  V30 1222 H 117.45 -0.332213 -5.47894 0
M  V30 1223 H 117.711 0.95806 -4.31594 0
M  V30 1224 N 116.77 1.45427 -0.607355 0
M  V30 1225 C 118.186 1.57283 -0.270985 0
M  V30 1226 C 118.386 1.59875 1.22647 0
M  V30 1227 O 117.442 1.52893 2.00948 0
M  V30 1228 C 118.755 2.85566 -0.941952 0
M  V30 1229 C 120.303 2.9924 -0.917849 0
M  V30 1230 C 120.778 4.30293 -1.56882 0
M  V30 1231 N 122.269 4.37051 -1.5343 0
M  V30 1232 C 123.004 5.37123 -2.00715 0
M  V30 1233 N 122.5 6.43734 -2.56084 0
M  V30 1234 N 124.293 5.28479 -1.91484 0
M  V30 1235 H 116.444 1.41988 -1.57966 0
M  V30 1236 H 118.707 0.67885 -0.661715 0
M  V30 1237 H 118.413 2.8955 -1.99633 0
M  V30 1238 H 118.287 3.74322 -0.465096 0
M  V30 1239 H 120.674 2.94822 0.127984 0
M  V30 1240 H 120.755 2.11895 -1.43297 0
M  V30 1241 H 120.399 4.35469 -2.61398 0
M  V30 1242 H 120.329 5.16454 -1.02873 0
M  V30 1243 H 122.82 3.60615 -1.12982 0
M  V30 1244 H 123.133 7.16341 -2.89958 0
M  V30 1245 H 121.478 6.44485 -2.60122 0
M  V30 1246 H 124.669 4.44098 -1.47967 0
M  V30 1247 H 124.842 6.0632 -2.28648 0
M  V30 1248 N 118.248 0.346503 1.53744 0
M  V30 1249 C 119.496 -0.248612 2.00565 0
M  V30 1250 C 119.817 -1.5083 1.23593 0
M  V30 1251 O 119.087 -1.92858 0.343912 0
M  V30 1252 H 117.667 -0.0948564 0.740953 0
M  V30 1253 H 120.329 0.468341 1.89189 0
M  V30 1254 H 119.425 -0.488994 3.08245 0
M  V30 1255 N 119.726 -1.57421 0.075193 0
M  V30 1256 C 120.974 -1.93236 -0.591974 0
M  V30 1257 C 121.295 -0.956241 -1.69944 0
M  V30 1258 O 120.565 -0.00494792 -1.95899 0
M  V30 1259 H 119.145 -0.713355 -0.22166 0
M  V30 1260 H 121.807 -1.9444 0.133848 0
M  V30 1261 H 120.903 -2.95131 -1.01509 0
M  V30 1262 N 121.204 0.198386 -1.56346 0
M  V30 1263 C 122.452 0.91747 -1.80075 0
M  V30 1264 C 122.773 1.83929 -0.647692 0
M  V30 1265 O 122.043 1.93029 0.334166 0
M  V30 1266 H 120.623 0.341774 -0.664228 0
M  V30 1267 H 123.285 0.204684 -1.93822 0
M  V30 1268 H 122.381 1.51055 -2.7311 0
M  V30 1269 N 122.682 1.50554 0.465978 0
M  V30 1270 C 123.91 1.65563 1.24083 0
M  V30 1271 C 124.325 0.341051 1.85694 0
M  V30 1272 O 123.682 -0.677543 1.69457 0
M  V30 1273 C 123.733 2.75051 2.34583 0
M  V30 1274 O 123.454 4.01413 1.75497 0
M  V30 1275 C 124.955 3.01078 3.25372 0
M  V30 1276 H 122.175 0.55638 0.375077 0
M  V30 1277 H 124.719 1.96807 0.555624 0
M  V30 1278 H 122.874 2.46486 2.9887 0
M  V30 1279 H 123.288 4.62002 2.48303 0
M  V30 1280 H 124.762 3.81339 3.99105 0
M  V30 1281 H 125.239 2.12349 3.84453 0
M  V30 1282 H 125.845 3.31194 2.66816 0
M  V30 1283 N 124.16 -0.719506 1.40217 0
M  V30 1284 C 125.11 -1.8251 1.36653 0
M  V30 1285 C 126.094 -1.59028 0.244732 0
M  V30 1286 O 127.286 -1.70268 0.483524 0
M  V30 1287 C 124.415 -3.20599 1.22763 0
M  V30 1288 C 123.501 -3.49858 2.39708 0
M  V30 1289 N 123.892 -3.49957 3.6519 0
M  V30 1290 C 122.19 -3.80297 2.33002 0
M  V30 1291 C 122.891 -3.77449 4.42614 0
M  V30 1292 N 121.867 -3.96002 3.72402 0
M  V30 1293 H 125.669 -1.80914 2.31619 0
M  V30 1294 H 123.183 -0.918455 1.33933 0
M  V30 1295 H 125.18 -3.99766 1.18292 0
M  V30 1296 H 123.84 -3.23424 0.287614 0
M  V30 1297 H 124.851 -3.309 3.98404 0
M  V30 1298 H 121.528 -3.90635 1.47346 0
M  V30 1299 H 122.918 -3.83863 5.51451 0
M  V30 1300 N 125.638 -1.25649 -0.95132 0
M  V30 1301 C 127.054 -1.02542 -1.223 0
M  V30 1302 C 127.254 0.255715 -1.99871 0
M  V30 1303 O 126.31 0.967558 -2.33226 0
M  V30 1304 C 127.623 -2.25065 -1.99415 0
M  V30 1305 C 129.171 -2.29861 -2.12446 0
M  V30 1306 C 129.646 -3.52048 -2.92961 0
M  V30 1307 N 131.137 -3.52465 -3.00538 0
M  V30 1308 C 131.872 -4.43672 -3.63239 0
M  V30 1309 N 131.368 -5.45157 -4.27523 0
M  V30 1310 N 133.161 -4.31346 -3.60412 0
M  V30 1311 H 125.312 -2.07951 -0.432471 0
M  V30 1312 H 127.575 -0.91339 -0.253816 0
M  V30 1313 H 127.281 -3.18194 -1.49817 0
M  V30 1314 H 127.155 -2.28502 -3.00111 0
M  V30 1315 H 129.542 -1.37252 -2.61239 0
M  V30 1316 H 129.623 -2.3044 -1.11044 0
M  V30 1317 H 129.267 -4.44981 -2.44856 0
M  V30 1318 H 129.197 -3.48715 -3.94596 0
M  V30 1319 H 131.688 -2.79056 -2.54826 0
M  V30 1320 H 132.001 -6.10958 -4.73234 0
M  V30 1321 H 130.346 -5.49025 -4.26141 0
M  V30 1322 H 133.537 -3.51288 -3.09377 0
M  V30 1323 H 133.71 -5.02624 -4.0899 0
M  V30 1324 N 127.117 1.15442 -1.07289 0
M  V30 1325 C 128.342 1.90638 -0.816828 0
M  V30 1326 C 128.767 1.77445 0.624083 0
M  V30 1327 O 128.125 1.10671 1.43602 0
M  V30 1328 C 128.173 3.39008 -1.22906 0
M  V30 1329 O 127.277 4.10701 -0.373975 0
M  V30 1330 H 126.618 0.593555 -0.297638 0
M  V30 1331 H 129.148 1.46198 -1.43134 0
M  V30 1332 H 129.158 3.89801 -1.20497 0
M  V30 1333 H 127.833 3.47929 -2.27856 0
M  V30 1334 H 126.41 3.70046 -0.460499 0
M  V30 1335 N 128.595 0.856903 1.32268 0
M  V30 1336 C 129.843 0.460474 1.96784 0
M  V30 1337 C 130.164 -0.987701 1.68135 0
M  V30 1338 O 129.434 -1.69058 0.989765 0
M  V30 1339 H 128.014 0.167289 0.728027 0
M  V30 1340 H 130.676 1.09383 1.61312 0
M  V30 1341 H 129.772 0.60739 3.06133 0
M  V30 1342 N 130.073 -1.45103 0.615059 0
M  V30 1343 C 131.005 -2.28786 -0.13762 0
M  V30 1344 C 132.018 -1.40376 -0.824525 0
M  V30 1345 O 133.207 -1.64681 -0.688662 0
M  V30 1346 C 130.307 -3.16322 -1.21628 0
M  V30 1347 C 129.48 -4.33054 -0.615039 0
M  V30 1348 C 128.539 -5.01743 -1.58556 0
M  V30 1349 O 127.565 -5.58293 -1.10895 0
M  V30 1350 N 128.767 -5.01714 -2.91998 0
M  V30 1351 H 131.532 -2.94025 0.580483 0
M  V30 1352 H 129.093 -1.55373 0.45507 0
M  V30 1353 H 131.085 -3.59139 -1.86552 0
M  V30 1354 H 129.655 -2.52943 -1.83681 0
M  V30 1355 H 128.875 -3.93627 0.21245 0
M  V30 1356 H 130.163 -5.08431 -0.193704 0
M  V30 1357 H 129.561 -4.57075 -3.33316 0
M  V30 1358 H 128.118 -5.48371 -3.52325 0
M  V30 1359 N 131.551 -0.354651 -1.53558 0
M  V30 1360 C 132.799 0.237972 -2.00694 0
M  V30 1361 C 133.12 1.50173 -1.24391 0
M  V30 1362 O 132.39 1.92673 -0.354135 0
M  V30 1363 H 130.97 0.0909256 -0.741446 0
M  V30 1364 H 133.632 -0.478368 -1.88938 0
M  V30 1365 H 132.728 0.47264 -3.085 0
M  V30 1366 N 133.029 1.57378 -0.0835403 0
M  V30 1367 C 133.992 2.12252 0.864959 0
M  V30 1368 C 134.992 1.04916 1.21858 0
M  V30 1369 O 136.182 1.30853 1.14991 0
M  V30 1370 C 133.314 2.63358 2.16461 0
M  V30 1371 H 134.507 2.97371 0.388676 0
M  V30 1372 H 132.06 1.55423 0.165317 0
M  V30 1373 H 132.795 1.81727 2.686 0
M  V30 1374 H 132.58 3.41826 1.92087 0
M  V30 1375 H 134.07 3.05847 2.84337 0
M  V30 1376 N 134.507 -0.190092 1.56449 0
M  V30 1377 C 135.754 -0.909705 1.80916 0
M  V30 1378 C 136.082 -1.83047 0.657583 0
M  V30 1379 O 135.337 -1.92428 -0.356356 0
M  V30 1380 C 135.636 -1.75382 3.1141 0
M  V30 1381 C 135.302 -0.983606 4.40041 0
M  V30 1382 C 133.964 -0.770967 4.74984 0
M  V30 1383 C 136.316 -0.442024 5.19322 0
M  V30 1384 C 133.644 -0.0053448 5.867 0
M  V30 1385 C 135.996 0.310412 6.31838 0
M  V30 1386 C 134.66 0.534023 6.6536 0
M  V30 1387 H 133.93 -0.332885 0.662019 0
M  V30 1388 H 136.577 -0.175762 1.90692 0
M  V30 1389 H 134.882 -2.55659 2.96893 0
M  V30 1390 H 136.579 -2.31331 3.27547 0
M  V30 1391 H 133.169 -1.15936 4.12622 0
M  V30 1392 H 137.353 -0.593693 4.92736 0
M  V30 1393 H 132.609 0.177825 6.11141 0
M  V30 1394 H 136.783 0.737419 6.92485 0
M  V30 1395 H 134.41 1.12918 7.51767 0
M  V30 1396 N 135.985 -1.50799 -0.457987 0
M  V30 1397 C 137.233 -1.62121 -1.2067 0
M  V30 1398 C 137.554 -0.329793 -1.92191 0
M  V30 1399 O 136.824 0.653409 -1.84682 0
M  V30 1400 H 135.404 -0.597441 -0.448411 0
M  V30 1401 H 138.066 -1.87637 -0.527096 0
M  V30 1402 H 137.162 -2.43882 -1.94751 0
M  V30 1403 N 137.463 0.71206 -1.40597 0
M  V30 1404 C 138.411 1.84746 -1.41321 0
M  V30 1405 C 139.405 1.66842 -0.293268 0
M  V30 1406 O 140.611 1.73904 -0.464481 0
M  V30 1407 H 136.986 0.608522 -0.441819 0
M  V30 1408 H 138.957 1.81252 -2.37045 0
M  V30 1409 C 137.706 3.22638 -1.29614 0
M  V30 1410 H 137.029 3.37023 -2.15071 0
M  V30 1411 H 138.469 4.02209 -1.3418 0
M  V30 1412 C 136.928 3.36899 -0.00673121 0
M  V30 1413 O 137.458 3.90186 0.954859 0
M  V30 1414 N 135.664 2.9053 0.0639327 0
M  V30 1415 H 135.211 2.47353 -0.719311 0
M  V30 1416 H 135.169 3.0045 0.926118 0
M  V30 1417 N 138.941 1.26152 0.944643 0
M  V30 1418 C 139.874 1.01729 2.04271 0
M  V30 1419 C 140.852 -0.0568101 1.62501 0
M  V30 1420 O 142.036 0.0848987 1.88309 0
M  V30 1421 C 139.163 0.539792 3.34371 0
M  V30 1422 C 138.209 1.60593 3.9511 0
M  V30 1423 S 139.042 3.19392 4.29825 0
M  V30 1424 C 140.198 2.73402 5.63029 0
M  V30 1425 H 140.431 1.94703 2.24673 0
M  V30 1426 H 137.964 1.09793 1.08558 0
M  V30 1427 H 139.922 0.270956 4.09605 0
M  V30 1428 H 138.583 -0.369609 3.11918 0
M  V30 1429 H 137.776 1.22275 4.88943 0
M  V30 1430 H 137.378 1.82596 3.26397 0
M  V30 1431 H 139.67 2.1765 6.41588 0
M  V30 1432 H 140.613 3.65913 6.06229 0
M  V30 1433 H 141.021 2.13077 5.22741 0
M  V30 1434 N 140.419 -1.14872 1.07899 0
M  V30 1435 C 141.659 -1.8745 0.814965 0
M  V30 1436 C 142.023 -1.80758 -0.64733 0
M  V30 1437 O 143.224 -2.48422 -1.02664 0
M  V30 1438 C 141.495 -3.32286 1.31607 0
M  V30 1439 S 143.054 -4.22537 1.18357 0
M  V30 1440 H 139.872 -0.646833 0.295174 0
M  V30 1441 H 142.474 -1.38555 1.37923 0
M  V30 1442 H 141.178 -3.34703 2.37491 0
M  V30 1443 H 140.709 -3.86238 0.747261 0
M  V30 1444 H 142.724 -4.96044 0.124586 0
M  V30 1445 N 141.898 -0.863906 -1.31812 0
M  V30 1446 C 143.314 -0.555004 -1.49639 0
M  V30 1447 C 143.514 0.912266 -1.79666 0
M  V30 1448 O 142.57 1.69479 -1.87171 0
M  V30 1449 C 143.883 -1.44998 -2.63431 0
M  V30 1450 C 145.431 -1.45138 -2.77316 0
M  V30 1451 C 145.906 -2.33179 -3.94197 0
M  V30 1452 N 147.397 -2.31025 -4.01474 0
M  V30 1453 C 148.132 -2.95871 -4.9117 0
M  V30 1454 N 147.628 -3.69863 -5.8581 0
M  V30 1455 N 149.421 -2.85211 -4.84367 0
M  V30 1456 H 141.572 -1.81339 -1.10589 0
M  V30 1457 H 143.835 -0.77505 -0.545895 0
M  V30 1458 H 143.541 -2.49377 -2.48 0
M  V30 1459 H 143.415 -1.14409 -3.59431 0
M  V30 1460 H 145.802 -0.415201 -2.92164 0
M  V30 1461 H 145.883 -1.79747 -1.82001 0
M  V30 1462 H 145.527 -3.3687 -3.80107 0
M  V30 1463 H 145.457 -1.95897 -4.88807 0
M  V30 1464 H 147.948 -1.77238 -3.33759 0
M  V30 1465 H 148.261 -4.16486 -6.50968 0
M  V30 1466 H 146.606 -3.73971 -5.85808 0
M  V30 1467 H 149.797 -2.26948 -4.09405 0
M  V30 1468 H 149.97 -3.36027 -5.54066 0
M  V30 1469 N 143.376 1.44774 -0.622745 0
M  V30 1470 C 144.624 2.01721 -0.123655 0
M  V30 1471 C 144.945 1.49172 1.25589 0
M  V30 1472 O 144.215 0.691974 1.83272 0
M  V30 1473 H 142.795 0.745777 -0.0427225 0
M  V30 1474 H 145.457 1.77382 -0.807559 0
M  V30 1475 H 144.553 3.11984 -0.0849534 0
M  V30 1476 N 144.854 0.36279 1.53368 0
M  V30 1477 C 146.102 -0.227326 2.00817 0
M  V30 1478 C 146.423 -1.49511 1.25186 0
M  V30 1479 O 145.693 -1.92482 0.364348 0
M  V30 1480 H 144.273 -0.0869923 0.741917 0
M  V30 1481 H 146.935 0.488381 1.88682 0
M  V30 1482 H 146.031 -0.456273 3.08747 0
M  V30 1483 N 146.332 -1.57332 0.0918853 0
M  V30 1484 C 147.748 -1.57389 -0.264766 0
M  V30 1485 C 147.948 -1.10281 -1.68643 0
M  V30 1486 O 147.004 -0.777801 -2.40222 0
M  V30 1487 C 148.317 -3.00648 -0.0561195 0
M  V30 1488 C 149.865 -3.12754 -0.124116 0
M  V30 1489 C 150.34 -4.57965 0.0564972 0
M  V30 1490 N 151.831 -4.632 0.00155611 0
M  V30 1491 C 152.566 -5.73281 0.116598 0
M  V30 1492 N 152.062 -6.92208 0.286294 0
M  V30 1493 N 153.855 -5.6207 0.0580973 0
M  V30 1494 H 146.006 -1.86262 1.02079 0
M  V30 1495 H 148.269 -0.859579 0.399786 0
M  V30 1496 H 147.975 -3.393 0.925669 0
M  V30 1497 H 147.849 -3.68623 -0.799823 0
M  V30 1498 H 150.236 -2.73976 -1.09641 0
M  V30 1499 H 150.317 -2.47377 0.651024 0
M  V30 1500 H 149.961 -4.97436 1.02564 0
M  V30 1501 H 149.891 -5.21399 -0.738297 0
M  V30 1502 H 152.382 -3.77686 -0.127192 0
M  V30 1503 H 152.695 -7.71934 0.365676 0
M  V30 1504 H 151.04 -6.94254 0.32192 0
M  V30 1505 H 154.231 -4.68043 -0.0733204 0
M  V30 1506 H 154.404 -6.47824 0.151203 0
M  V30 1507 N 147.81 0.181792 -1.56548 0
M  V30 1508 C 148.743 1.25366 -1.90679 0
M  V30 1509 C 149.721 1.43299 -0.768376 0
M  V30 1510 O 150.905 1.58475 -1.02068 0
M  V30 1511 C 148.032 2.61826 -2.1486 0
M  V30 1512 C 147.078 2.60688 -3.37556 0
M  V30 1513 S 147.911 2.10804 -4.92262 0
M  V30 1514 C 149.067 3.49062 -5.19525 0
M  V30 1515 H 149.3 0.962277 -2.81296 0
M  V30 1516 H 146.833 0.385892 -1.495 0
M  V30 1517 H 148.791 3.40371 -2.29473 0
M  V30 1518 H 147.452 2.88169 -1.24969 0
M  V30 1519 H 146.645 3.61058 -3.51643 0
M  V30 1520 H 146.247 1.90232 -3.22006 0
M  V30 1521 H 148.539 4.45003 -5.10861 0
M  V30 1522 H 149.482 3.39859 -6.2121 0
M  V30 1523 H 149.89 3.4459 -4.47122 0
M  V30 1524 N 149.288 1.51039 0.449983 0
M  V30 1525 C 150.535 1.63081 1.20045 0
M  V30 1526 C 150.863 0.341024 1.91487 0
M  V30 1527 O 150.118 -0.674276 1.83717 0
M  V30 1528 C 150.417 2.77556 2.25161 0
M  V30 1529 C 150.083 4.17289 1.70823 0
M  V30 1530 C 148.745 4.55305 1.55725 0
M  V30 1531 C 151.097 5.04536 1.3074 0
M  V30 1532 C 148.425 5.78287 0.989999 0
M  V30 1533 C 150.777 6.28085 0.754482 0
M  V30 1534 C 149.441 6.64885 0.590308 0
M  V30 1535 H 148.711 0.596755 0.439277 0
M  V30 1536 H 151.358 1.85037 0.49333 0
M  V30 1537 H 149.663 2.49771 3.01863 0
M  V30 1538 H 151.36 2.84073 2.83026 0
M  V30 1539 H 147.95 3.8731 1.83546 0
M  V30 1540 H 152.134 4.75782 1.41229 0
M  V30 1541 H 147.39 6.05456 0.850451 0
M  V30 1542 H 151.564 6.95038 0.435324 0
M  V30 1543 H 149.191 7.60055 0.14862 0
M  V30 1544 N 150.766 -0.704594 1.40972 0
M  V30 1545 C 151.729 -1.80035 1.41845 0
M  V30 1546 C 152.729 -1.57774 0.310474 0
M  V30 1547 O 153.919 -1.64613 0.56992 0
M  V30 1548 C 151.051 -3.18284 1.22098 0
M  V30 1549 H 152.244 -1.80658 2.3938 0
M  V30 1550 H 149.797 -0.911329 1.26982 0
M  V30 1551 H 150.532 -3.23306 0.253672 0
M  V30 1552 H 150.317 -3.35843 2.02366 0
M  V30 1553 H 151.807 -3.98289 1.25522 0
M  V30 1554 N 152.244 -1.26651 -0.937939 0
M  V30 1555 C 153.655 -1.1125 -1.49934 0
M  V30 1556 C 154.006 0.306077 -1.93798 0
M  V30 1557 O 153.131 1.19792 -1.80219 0
M  V30 1558 C 153.726 -2.01339 -2.72485 0
M  V30 1559 C 152.285 -1.90074 -3.24883 0
M  V30 1560 C 151.432 -1.94498 -1.97651 0
M  V30 1561 H 154.383 -1.39693 -0.753091 0
M  V30 1562 H 154.404 -1.56319 -3.46907 0
M  V30 1563 H 153.916 -3.04577 -2.40529 0
M  V30 1564 H 152.017 -0.897827 -3.61621 0
M  V30 1565 H 152.13 -2.75778 -3.9177 0
M  V30 1566 H 150.494 -1.38591 -2.13693 0
M  V30 1567 H 151.277 -2.99372 -1.68022 0
M  V30 1568 N 153.722 1.14298 -1.08507 0
M  V30 1569 C 154.95 1.89219 -0.836876 0
M  V30 1570 C 155.365 1.78638 0.611054 0
M  V30 1571 O 154.722 1.14643 1.41998 0
M  V30 1572 C 154.773 3.39158 -1.25116 0
M  V30 1573 O 154.494 3.49449 -2.64229 0
M  V30 1574 C 155.995 4.31073 -1.03398 0
M  V30 1575 H 153.215 0.599328 -0.301739 0
M  V30 1576 H 155.759 1.44746 -1.44461 0
M  V30 1577 H 153.914 3.81251 -0.687514 0
M  V30 1578 H 154.328 4.42589 -2.81452 0
M  V30 1579 H 155.802 5.34646 -1.37323 0
M  V30 1580 H 156.279 4.3919 0.0289259 0
M  V30 1581 H 156.885 3.94738 -1.58311 0
M  V30 1582 N 155.201 0.870884 1.31352 0
M  V30 1583 C 156.148 0.325425 2.28494 0
M  V30 1584 C 157.118 -0.576615 1.5577 0
M  V30 1585 O 158.303 -0.508059 1.83911 0
M  V30 1586 C 155.443 -0.466283 3.41935 0
M  V30 1587 C 154.556 0.463378 4.29508 0
M  V30 1588 C 153.691 -0.342544 5.30094 0
M  V30 1589 C 152.73 0.583486 6.09313 0
M  V30 1590 N 151.867 -0.186244 7.01853 0
M  V30 1591 H 156.707 1.15901 2.74538 0
M  V30 1592 H 154.244 0.58294 1.35056 0
M  V30 1593 H 156.202 -0.941085 4.06447 0
M  V30 1594 H 154.832 -1.26456 2.97 0
M  V30 1595 H 153.884 1.05663 3.65431 0
M  V30 1596 H 155.196 1.1734 4.84802 0
M  V30 1597 H 154.35 -0.879816 6.00287 0
M  V30 1598 H 153.089 -1.08585 4.75458 0
M  V30 1599 H 152.094 1.13251 5.3801 0
M  V30 1600 H 153.319 1.32566 6.66035 0
M  V30 1601 H 151.265 -0.912348 6.49625 0
M  V30 1602 H 151.182 0.464422 7.54572 0
M  V30 1603 H 152.45 -0.704716 7.76308 0
M  V30 1604 N 156.679 -1.44442 0.630414 0
M  V30 1605 C 157.907 -2.06414 0.141671 0
M  V30 1606 C 158.322 -1.47105 -1.18345 0
M  V30 1607 O 157.679 -0.593662 -1.72574 0
M  V30 1608 C 157.73 -3.61494 0.0199784 0
M  V30 1609 O 157.451 -4.18594 1.29269 0
M  V30 1610 C 158.952 -4.40499 -0.497544 0
M  V30 1611 H 156.172 -0.666292 0.0793452 0
M  V30 1612 H 158.716 -1.85323 0.864614 0
M  V30 1613 H 156.871 -3.8185 -0.653402 0
M  V30 1614 H 157.285 -5.12026 1.13707 0
M  V30 1615 H 158.759 -5.49433 -0.531708 0
M  V30 1616 H 159.236 -4.11895 -1.52445 0
M  V30 1617 H 159.842 -4.25061 0.142562 0
M  V30 1618 N 158.157 -0.370918 -1.53173 0
M  V30 1619 C 159.403 0.209976 -2.02313 0
M  V30 1620 C 159.758 1.45987 -1.25322 0
M  V30 1621 O 159.051 1.8856 -0.339965 0
M  V30 1622 C 159.245 0.549696 -3.53147 0
M  V30 1623 C 159.074 -0.665721 -4.44745 0
M  V30 1624 C 157.844 -1.17942 -4.91343 0
M  V30 1625 C 160.042 -1.53255 -4.90935 0
M  V30 1626 N 158.024 -2.35431 -5.66962 0
M  V30 1627 C 159.395 -2.55403 -5.64951 0
M  V30 1628 C 161.45 -1.5548 -4.73002 0
M  V30 1629 C 160.153 -3.5964 -6.22938 0
M  V30 1630 C 162.179 -2.58613 -5.31858 0
M  V30 1631 C 161.541 -3.59485 -6.05764 0
M  V30 1632 H 157.64 0.0394095 -0.781006 0
M  V30 1633 H 160.224 -0.516666 -1.8772 0
M  V30 1634 H 158.395 1.24541 -3.67891 0
M  V30 1635 H 160.127 1.11614 -3.89004 0
M  V30 1636 H 156.882 -0.743228 -4.67732 0
M  V30 1637 H 157.306 -2.94827 -6.09431 0
M  V30 1638 H 161.948 -0.788457 -4.15383 0
M  V30 1639 H 159.666 -4.37153 -6.79649 0
M  V30 1640 H 163.252 -2.61195 -5.19873 0
M  V30 1641 H 162.132 -4.3798 -6.50495 0
M  V30 1642 N 159.635 1.57281 -0.100228 0
M  V30 1643 C 161.051 1.57527 0.256416 0
M  V30 1644 C 161.251 1.11173 1.68056 0
M  V30 1645 O 160.307 0.79053 2.39806 0
M  V30 1646 C 161.62 3.00673 0.0401747 0
M  V30 1647 C 163.168 3.12815 0.107528 0
M  V30 1648 C 163.643 4.57929 -0.0807834 0
M  V30 1649 N 165.134 4.63193 -0.0261207 0
M  V30 1650 C 165.869 5.73212 -0.146999 0
M  V30 1651 N 165.365 6.92047 -0.322999 0
M  V30 1652 N 167.158 5.62031 -0.0879044 0
M  V30 1653 H 159.309 1.85718 -1.03065 0
M  V30 1654 H 161.572 0.857446 -0.404339 0
M  V30 1655 H 161.278 3.38804 -0.943649 0
M  V30 1656 H 161.152 3.69042 0.780262 0
M  V30 1657 H 163.539 2.74554 1.08186 0
M  V30 1658 H 163.62 2.47028 -0.664134 0
M  V30 1659 H 163.264 4.96886 -1.05201 0
M  V30 1660 H 163.194 5.21783 0.710635 0
M  V30 1661 H 165.685 3.77748 0.107161 0
M  V30 1662 H 165.998 7.7173 -0.406608 0
M  V30 1663 H 164.343 6.94074 -0.358733 0
M  V30 1664 H 167.534 4.68075 0.048498 0
M  V30 1665 H 167.707 6.47734 -0.185557 0
M  V30 1666 N 161.113 -0.173488 1.56642 0
M  V30 1667 C 162.529 -0.525174 1.50712 0
M  V30 1668 C 162.729 -1.8476 0.804107 0
M  V30 1669 O 161.785 -2.49869 0.363574 0
M  V30 1670 C 163.098 -0.559937 2.95441 0
M  V30 1671 C 164.646 -0.647288 3.06234 0
M  V30 1672 C 165.121 -0.712963 4.52417 0
M  V30 1673 N 166.612 -0.775911 4.56655 0
M  V30 1674 C 167.347 -0.847264 5.67106 0
M  V30 1675 N 166.843 -0.879585 6.87194 0
M  V30 1676 N 168.636 -0.886117 5.55071 0
M  V30 1677 H 160.787 0.693681 2.00753 0
M  V30 1678 H 163.05 0.249841 0.914485 0
M  V30 1679 H 162.756 0.343049 3.50023 0
M  V30 1680 H 162.63 -1.40718 3.49969 0
M  V30 1681 H 165.017 -1.5407 2.51687 0
M  V30 1682 H 165.098 0.226586 2.54794 0
M  V30 1683 H 164.742 0.176183 5.07594 0
M  V30 1684 H 164.672 -1.60295 5.0161 0
M  V30 1685 H 167.163 -0.759304 3.70193 0
M  V30 1686 H 167.476 -0.935144 7.67121 0
M  V30 1687 H 165.821 -0.847898 6.89808 0
M  V30 1688 H 169.012 -0.857853 4.60172 0
M  V30 1689 H 169.185 -0.938263 6.41171 0
M  V30 1690 N 162.591 -1.51276 -0.441967 0
M  V30 1691 C 163.837 -1.6492 -1.1905 0
M  V30 1692 C 164.192 -0.358731 -1.89026 0
M  V30 1693 O 163.485 0.645193 -1.8041 0
M  V30 1694 C 163.679 -2.78746 -2.23686 0
M  V30 1695 C 163.508 -4.18737 -1.63979 0
M  V30 1696 C 162.278 -4.84739 -1.42674 0
M  V30 1697 C 164.476 -5.01988 -1.11858 0
M  V30 1698 N 162.458 -6.08858 -0.785159 0
M  V30 1699 C 163.829 -6.17071 -0.601989 0
M  V30 1700 C 165.884 -4.87551 -1.0099 0
M  V30 1701 C 164.587 -7.19299 0.0126012 0
M  V30 1702 C 166.613 -5.89983 -0.409206 0
M  V30 1703 C 165.975 -7.04333 0.0968651 0
M  V30 1704 H 162.074 -0.657416 -0.423471 0
M  V30 1705 H 164.658 -1.8849 -0.48782 0
M  V30 1706 H 162.829 -2.56848 -2.91348 0
M  V30 1707 H 164.561 -2.81595 -2.90666 0
M  V30 1708 H 161.316 -4.42528 -1.68719 0
M  V30 1709 H 161.74 -6.75282 -0.481942 0
M  V30 1710 H 166.382 -3.99401 -1.38703 0
M  V30 1711 H 164.1 -8.071 0.401879 0
M  V30 1712 H 167.686 -5.8088 -0.327079 0
M  V30 1713 H 166.566 -7.82238 0.554373 0
M  V30 1714 N 164.069 0.697108 -1.41344 0
M  V30 1715 C 165.019 1.80313 -1.39539 0
M  V30 1716 C 166.003 1.58618 -0.270001 0
M  V30 1717 O 167.195 1.69477 -0.510551 0
M  V30 1718 C 164.324 3.18606 -1.27848 0
M  V30 1719 C 163.41 3.46001 -2.45244 0
M  V30 1720 N 163.801 3.44103 -3.70711 0
M  V30 1721 C 162.099 3.76542 -2.39023 0
M  V30 1722 C 162.8 3.7036 -4.48563 0
M  V30 1723 N 161.776 3.90027 -3.78655 0
M  V30 1724 H 165.578 1.77207 -2.34468 0
M  V30 1725 H 163.092 0.897031 -1.35378 0
M  V30 1726 H 165.089 3.97833 -1.24637 0
M  V30 1727 H 163.749 3.22925 -0.339032 0
M  V30 1728 H 164.76 3.2452 -4.03618 0
M  V30 1729 H 161.437 3.88241 -1.53542 0
M  V30 1730 H 162.827 3.75042 -5.57488 0
M  V30 1731 N 165.547 1.27147 0.931209 0
M  V30 1732 C 166.963 1.04475 1.20653 0
M  V30 1733 C 167.163 -0.223885 2.00252 0
M  V30 1734 O 166.219 -0.930332 2.34736 0
M  V30 1735 C 167.532 2.28209 1.95809 0
M  V30 1736 C 169.08 2.33211 2.08762 0
M  V30 1737 C 169.555 3.56665 2.87323 0
M  V30 1738 N 171.046 3.57201 2.94892 0
M  V30 1739 C 171.781 4.49395 3.56134 0
M  V30 1740 N 171.277 5.51889 4.18796 0
M  V30 1741 N 173.07 4.37026 3.53504 0
M  V30 1742 H 165.221 2.08612 0.399333 0
M  V30 1743 H 167.484 0.917312 0.239253 0
M  V30 1744 H 167.19 3.20538 1.44736 0
M  V30 1745 H 167.064 2.33247 2.96438 0
M  V30 1746 H 169.451 1.41391 2.59023 0
M  V30 1747 H 169.532 2.32178 1.07364 0
M  V30 1748 H 169.176 4.4882 2.37746 0
M  V30 1749 H 169.106 3.54948 3.88998 0
M  V30 1750 H 171.597 2.83074 2.50354 0
M  V30 1751 H 171.91 6.18409 4.63454 0
M  V30 1752 H 170.255 5.55735 4.17353 0
M  V30 1753 H 173.446 3.56166 3.03749 0
M  V30 1754 H 173.619 5.09067 4.00942 0
M  V30 1755 N 167.025 -1.13721 1.09112 0
M  V30 1756 C 168.441 -1.36914 0.820174 0
M  V30 1757 C 168.641 -1.93356 -0.567079 0
M  V30 1758 O 167.697 -2.15093 -1.32255 0
M  V30 1759 C 169.01 -2.3235 1.90877 0
M  V30 1760 C 170.558 -2.45973 1.93562 0
M  V30 1761 C 171.033 -3.44714 3.01556 0
M  V30 1762 N 172.524 -3.52263 3.00775 0
M  V30 1763 C 173.259 -4.28536 3.80978 0
M  V30 1764 N 172.755 -5.07991 4.71081 0
M  V30 1765 N 174.548 -4.23804 3.69251 0
M  V30 1766 H 166.699 -0.754348 1.98553 0
M  V30 1767 H 168.962 -0.3944 0.862063 0
M  V30 1768 H 168.668 -1.98027 2.90651 0
M  V30 1769 H 168.542 -3.32332 1.78424 0
M  V30 1770 H 170.929 -2.79584 0.944286 0
M  V30 1771 H 171.01 -1.45926 2.10093 0
M  V30 1772 H 170.654 -3.11835 4.00901 0
M  V30 1773 H 170.584 -4.44558 2.82269 0
M  V30 1774 H 173.075 -2.95567 2.35475 0
M  V30 1775 H 173.388 -5.63487 5.28869 0
M  V30 1776 H 171.733 -5.07235 4.75119 0
M  V30 1777 H 174.924 -3.60806 2.98222 0
M  V30 1778 H 175.097 -4.82995 4.31995 0
M  V30 1779 N 168.503 -0.877838 -1.30888 0
M  V30 1780 C 169.749 -0.493426 -1.96706 0
M  V30 1781 C 170.082 0.953504 -1.6918 0
M  V30 1782 O 169.357 1.67266 -0.992594 0
M  V30 1783 C 169.64 -0.760429 -3.51979 0
M  V30 1784 C 169.493 -2.25747 -3.89048 0
M  V30 1785 C 170.812 -0.232148 -4.39487 0
M  V30 1786 H 167.931 -0.180746 -0.714493 0
M  V30 1787 H 170.573 -1.10052 -1.54882 0
M  V30 1788 H 168.723 -0.243715 -3.87735 0
M  V30 1789 H 170.395 -2.84204 -3.63354 0
M  V30 1790 H 168.638 -2.72694 -3.37373 0
M  V30 1791 H 169.309 -2.39491 -4.97341 0
M  V30 1792 H 171.785 -0.674314 -4.106 0
M  V30 1793 H 170.661 -0.448355 -5.47066 0
M  V30 1794 H 170.922 0.866297 -4.33529 0
M  V30 1795 N 169.982 1.44106 -0.638065 0
M  V30 1796 C 170.93 2.3248 0.0748149 0
M  V30 1797 C 171.924 1.47746 0.828702 0
M  V30 1798 O 173.13 1.64049 0.740816 0
M  V30 1799 H 169.505 0.750771 0.0429686 0
M  V30 1800 H 171.476 2.90348 -0.688504 0
M  V30 1801 C 170.225 3.31843 1.03805 0
M  V30 1802 H 169.548 3.97059 0.467375 0
M  V30 1803 H 170.988 3.96345 1.50622 0
M  V30 1804 C 169.447 2.61291 2.1267 0
M  V30 1805 O 169.977 2.41702 3.20847 0
M  V30 1806 N 168.183 2.20915 1.88798 0
M  V30 1807 H 167.73 2.37047 1.00829 0
M  V30 1808 H 167.688 1.74038 2.61836 0
M  V30 1809 N 171.46 0.379036 1.52974 0
M  V30 1810 C 172.688 -0.20679 2.05864 0
M  V30 1811 C 173.103 -1.41356 1.25155 0
M  V30 1812 O 172.46 -1.8009 0.295588 0
M  V30 1813 C 172.511 -0.587045 3.56702 0
M  V30 1814 O 172.232 0.571776 4.34353 0
M  V30 1815 C 173.733 -1.22983 4.25899 0
M  V30 1816 H 170.953 -0.0336123 0.670158 0
M  V30 1817 H 173.497 0.541298 1.97206 0
M  V30 1818 H 171.652 -1.28504 3.65466 0
M  V30 1819 H 172.066 0.261544 5.23847 0
M  V30 1820 H 173.54 -1.44635 5.32715 0
M  V30 1821 H 174.017 -2.19416 3.80465 0
M  V30 1822 H 174.623 -0.572892 4.21424 0
M  V30 1823 N 172.938 -1.57226 0.108567 0
M  V30 1824 C 174.166 -1.99179 -0.559954 0
M  V30 1825 C 174.581 -0.988022 -1.60884 0
M  V30 1826 O 173.938 0.0205512 -1.82488 0
M  V30 1827 C 173.989 -3.41159 -1.19552 0
M  V30 1828 O 173.71 -4.37694 -0.188577 0
M  V30 1829 C 175.211 -3.98188 -1.94837 0
M  V30 1830 H 172.431 -0.654228 -0.149088 0
M  V30 1831 H 174.975 -2.03598 0.19183 0
M  V30 1832 H 173.13 -3.37711 -1.89815 0
M  V30 1833 H 173.544 -5.20469 -0.649014 0
M  V30 1834 H 175.018 -4.99644 -2.34648 0
M  V30 1835 H 175.495 -3.3675 -2.81951 0
M  V30 1836 H 176.101 -4.0515 -1.2936 0
M  V30 1837 N 174.416 0.165178 -1.56732 0
M  V30 1838 C 175.348 1.22911 -1.93457 0
M  V30 1839 C 176.361 1.40152 -0.828333 0
M  V30 1840 O 177.55 1.40046 -1.10677 0
M  V30 1841 C 174.65 2.59686 -2.17753 0
M  V30 1842 C 173.823 2.63663 -3.48999 0
M  V30 1843 C 172.882 3.81845 -3.62051 0
M  V30 1844 O 171.908 3.67559 -4.34613 0
M  V30 1845 N 173.11 4.98557 -2.97357 0
M  V30 1846 H 175.875 0.917118 -2.85323 0
M  V30 1847 H 173.436 0.354895 -1.57962 0
M  V30 1848 H 175.428 3.37225 -2.23743 0
M  V30 1849 H 173.998 2.83251 -1.32242 0
M  V30 1850 H 173.218 1.72173 -3.54612 0
M  V30 1851 H 174.506 2.63336 -4.35352 0
M  V30 1852 H 173.904 5.13065 -2.38287 0
M  V30 1853 H 172.461 5.73936 -3.08934 0
M  V30 1854 N 175.894 1.51508 0.433938 0
M  V30 1855 C 176.841 1.73068 1.52696 0
M  V30 1856 C 177.811 0.572441 1.55924 0
M  V30 1857 O 178.996 0.807253 1.72882 0
M  V30 1858 C 176.136 1.86474 2.90381 0
M  V30 1859 C 175.249 3.14037 2.96656 0
M  V30 1860 C 174.384 3.18019 4.25485 0
M  V30 1861 C 173.423 4.39882 4.2564 0
M  V30 1862 N 172.56 4.41394 5.45999 0
M  V30 1863 H 177.4 2.66366 1.33615 0
M  V30 1864 H 174.937 1.32008 0.649018 0
M  V30 1865 H 176.895 1.92229 3.70275 0
M  V30 1866 H 175.525 0.965809 3.08013 0
M  V30 1867 H 174.577 3.17575 2.09404 0
M  V30 1868 H 175.889 4.0394 2.92633 0
M  V30 1869 H 175.043 3.22708 5.13755 0
M  V30 1870 H 173.782 2.2601 4.3217 0
M  V30 1871 H 172.787 4.35366 3.35763 0
M  V30 1872 H 174.012 5.33159 4.20617 0
M  V30 1873 H 171.958 3.52258 5.53399 0
M  V30 1874 H 171.875 5.25111 5.4387 0
M  V30 1875 H 173.143 4.50281 6.36292 0
M  V30 1876 N 177.372 -0.689602 1.41712 0
M  V30 1877 C 178.788 -1.00093 1.24312 0
M  V30 1878 C 178.988 -2.01036 0.136729 0
M  V30 1879 O 178.044 -2.47562 -0.496918 0
M  V30 1880 C 179.357 -1.51985 2.59463 0
M  V30 1881 C 180.905 -1.63838 2.66695 0
M  V30 1882 C 181.38 -2.1913 4.02177 0
M  V30 1883 N 182.871 -2.26483 4.04054 0
M  V30 1884 C 183.606 -2.70306 5.0569 0
M  V30 1885 N 183.102 -3.13691 6.17713 0
M  V30 1886 N 184.895 -2.69923 4.9305 0
M  V30 1887 H 177.046 -0.0210029 2.1239 0
M  V30 1888 H 179.309 -0.0718733 0.945272 0
M  V30 1889 H 179.015 -0.85269 3.41207 0
M  V30 1890 H 178.889 -2.50103 2.82362 0
M  V30 1891 H 181.276 -2.29664 1.85306 0
M  V30 1892 H 181.357 -0.642492 2.476 0
M  V30 1893 H 181.001 -1.53918 4.84016 0
M  V30 1894 H 180.931 -3.19482 4.18615 0
M  V30 1895 H 183.422 -1.95874 3.23174 0
M  V30 1896 H 183.735 -3.45773 6.9113 0
M  V30 1897 H 182.08 -3.11585 6.21241 0
M  V30 1898 H 185.271 -2.35382 4.04614 0
M  V30 1899 H 185.444 -3.03758 5.72394 0
M  V30 1900 N 178.85 -1.27639 -0.924453 0
M  V30 1901 C 180.08 -1.16819 -1.70402 0
M  V30 1902 C 180.488 0.277191 -1.87158 0
M  V30 1903 O 179.831 1.20025 -1.39067 0
M  V30 1904 C 179.893 -1.78305 -3.12166 0
M  V30 1905 C 179.557 -3.27502 -3.18734 0
M  V30 1906 C 180.554 -4.2409 -3.00738 0
M  V30 1907 C 178.239 -3.68269 -3.4159 0
M  V30 1908 C 180.233 -5.59422 -3.05492 0
M  V30 1909 C 177.92 -5.0373 -3.45977 0
M  V30 1910 C 178.918 -5.99116 -3.27946 0
M  V30 1911 O 178.606 -7.32108 -3.32074 0
M  V30 1912 H 178.338 -0.406931 -0.539799 0
M  V30 1913 H 180.892 -1.69078 -1.16626 0
M  V30 1914 H 179.122 -1.20528 -3.67437 0
M  V30 1915 H 180.811 -1.62154 -3.72103 0
M  V30 1916 H 181.577 -3.93931 -2.82919 0
M  V30 1917 H 177.456 -2.94496 -3.54673 0
M  V30 1918 H 181 -6.33852 -2.91337 0
M  V30 1919 H 176.897 -5.33543 -3.63321 0
M  V30 1920 H 177.665 -7.40598 -3.48507 0
M  V30 1921 N 180.328 1.1314 -1.09713 0
M  V30 1922 C 181.291 2.16831 -0.742751 0
M  V30 1923 C 182.291 1.59159 0.229129 0
M  V30 1924 O 183.481 1.74199 0.00693237 0
M  V30 1925 C 180.613 3.40756 -0.0989168 0
M  V30 1926 H 181.806 2.49695 -1.66109 0
M  V30 1927 H 179.359 1.2802 -0.896699 0
M  V30 1928 H 180.094 3.13485 0.830514 0
M  V30 1929 H 179.879 3.83888 -0.798265 0
M  V30 1930 H 181.369 4.17386 0.133524 0
M  V30 1931 N 181.806 0.884767 1.30421 0
M  V30 1932 C 183.055 0.499164 1.95426 0
M  V30 1933 C 183.368 -0.95645 1.70621 0
M  V30 1934 O 184.574 -1.44889 2.29607 0
M  V30 1935 C 183.03 0.84177 3.49917 0
M  V30 1936 C 182.638 2.31514 3.83543 0
M  V30 1937 C 184.382 0.525355 4.21237 0
M  V30 1938 C 182.289 2.59939 5.31212 0
M  V30 1939 H 181.219 0.182944 0.73147 0
M  V30 1940 H 183.87 1.07971 1.48373 0
M  V30 1941 H 182.252 0.190311 3.95542 0
M  V30 1942 H 183.426 3.0109 3.48829 0
M  V30 1943 H 181.741 2.59907 3.25326 0
M  V30 1944 H 184.338 0.714762 5.29901 0
M  V30 1945 H 184.681 -0.535222 4.12845 0
M  V30 1946 H 185.214 1.134 3.81294 0
M  V30 1947 H 181.953 3.64736 5.44654 0
M  V30 1948 H 181.473 1.94972 5.67227 0
M  V30 1949 H 183.152 2.45429 5.98643 0
M  V30 1950 N 183.284 -1.43765 0.645699 0
M  V30 1951 C 184.524 -2.03776 0.159542 0
M  V30 1952 C 184.888 -1.49792 -1.2011 0
M  V30 1953 O 186.089 -2.01398 -1.78023 0
M  V30 1954 C 184.36 -3.57036 0.161251 0
M  V30 1955 S 185.919 -4.3804 -0.258159 0
M  V30 1956 H 182.737 -0.707717 0.0682454 0
M  V30 1957 H 185.339 -1.75941 0.852352 0
M  V30 1958 H 184.043 -3.9383 1.15439 0
M  V30 1959 H 183.574 -3.89503 -0.552339 0
M  V30 1960 H 185.589 -4.7302 -1.49889 0
M  V30 1961 N 184.763 -0.387143 -1.52771 0
M  V30 1962 C 185.988 0.198407 -2.06449 0
M  V30 1963 C 186.413 1.39918 -1.25716 0
M  V30 1964 O 185.771 1.79099 -0.281657 0
M  V30 1965 C 185.819 0.548893 -3.56398 0
M  V30 1966 O 184.923 1.64315 -3.78252 0
M  V30 1967 H 184.264 0.0237731 -0.663574 0
M  V30 1968 H 186.794 -0.553989 -1.96957 0
M  V30 1969 H 186.804 0.813812 -3.99801 0
M  V30 1970 H 185.479 -0.329005 -4.14597 0
M  V30 1971 H 184.056 1.37211 -3.46738 0
M  V30 1972 N 186.241 1.57166 -0.116904 0
M  V30 1973 C 187.204 2.14039 0.819742 0
M  V30 1974 C 188.204 1.07477 1.19605 0
M  V30 1975 O 189.394 1.33263 1.1219 0
M  V30 1976 C 186.526 2.67891 2.10826 0
M  V30 1977 H 187.719 2.98128 0.325511 0
M  V30 1978 H 185.272 1.55739 0.132312 0
M  V30 1979 H 186.007 1.87384 2.64685 0
M  V30 1980 H 185.792 3.45823 1.84793 0
M  V30 1981 H 187.282 3.11809 2.77785 0
M  V30 1982 N 187.719 -0.156864 1.56817 0
M  V30 1983 C 188.649 -1.19589 2.00551 0
M  V30 1984 C 189.63 -1.4536 0.883426 0
M  V30 1985 O 190.815 -1.56449 1.15054 0
M  V30 1986 C 187.945 -2.53143 2.37773 0
M  V30 1987 C 186.899 -2.41913 3.53075 0
M  V30 1988 C 186.225 -3.80088 3.76081 0
M  V30 1989 C 187.525 -1.91157 4.86062 0
M  V30 1990 H 189.219 -0.832293 2.87599 0
M  V30 1991 H 186.765 -0.398918 1.38364 0
M  V30 1992 H 188.718 -3.26047 2.66967 0
M  V30 1993 H 187.442 -2.91319 1.4765 0
M  V30 1994 H 186.101 -1.71462 3.24031 0
M  V30 1995 H 185.749 -4.15683 2.83225 0
M  V30 1996 H 185.449 -3.73439 4.53671 0
M  V30 1997 H 186.973 -4.54556 4.0769 0
M  V30 1998 H 188.387 -2.53846 5.14038 0
M  V30 1999 H 186.784 -1.95422 5.67389 0
M  V30 2000 H 187.854 -0.866673 4.77092 0
M  V30 2001 N 189.197 -1.51736 -0.425897 0
M  V30 2002 C 190.16 -1.73271 -1.50032 0
M  V30 2003 C 191.16 -0.602639 -1.4908 0
M  V30 2004 O 192.35 -0.87033 -1.509 0
M  V30 2005 C 189.482 -1.79969 -2.89523 0
M  V30 2006 H 190.675 -2.69172 -1.32237 0
M  V30 2007 H 188.228 -1.41899 -0.65532 0
M  V30 2008 H 188.963 -0.859241 -3.1271 0
M  V30 2009 H 188.748 -2.62109 -2.91619 0
M  V30 2010 H 190.238 -1.9843 -3.67444 0
M  V30 2011 N 190.675 0.682077 -1.42076 0
M  V30 2012 C 191.638 1.77756 -1.44691 0
M  V30 2013 C 192.638 1.5726 -0.335535 0
M  V30 2014 O 193.828 1.63686 -0.596037 0
M  V30 2015 C 190.96 3.16301 -1.27146 0
M  V30 2016 H 192.153 1.76826 -2.42224 0
M  V30 2017 H 189.706 0.891012 -1.28416 0
M  V30 2018 H 190.441 3.22862 -0.305075 0
M  V30 2019 H 190.226 3.32581 -2.07683 0
M  V30 2020 H 191.716 3.96241 -1.31843 0
M  V30 2021 N 192.153 1.28127 0.917671 0
M  V30 2022 C 193.378 1.18007 1.70555 0
M  V30 2023 C 193.803 -0.258257 1.86319 0
M  V30 2024 O 193.161 -1.1869 1.37049 0
M  V30 2025 C 193.209 1.87948 3.07746 0
M  V30 2026 O 192.313 1.18427 3.9503 0
M  V30 2027 H 191.654 0.409867 0.522403 0
M  V30 2028 H 194.184 1.69379 1.1477 0
M  V30 2029 H 194.194 1.95701 3.58001 0
M  V30 2030 H 192.869 2.92573 2.95591 0
M  V30 2031 H 191.446 1.18811 3.53466 0
M  V30 2032 N 193.631 -1.12557 1.10312 0
M  V30 2033 C 194.594 -2.16434 0.75424 0
M  V30 2034 C 195.594 -1.59278 -0.220685 0
M  V30 2035 O 196.784 -1.742 0.00230591 0
M  V30 2036 C 193.916 -3.40699 0.116987 0
M  V30 2037 H 195.109 -2.48811 1.67431 0
M  V30 2038 H 192.662 -1.27542 0.903475 0
M  V30 2039 H 193.397 -3.13921 -0.813877 0
M  V30 2040 H 193.182 -3.83459 0.818613 0
M  V30 2041 H 194.672 -4.17451 -0.111387 0
M  V30 2042 N 195.109 -0.891671 -1.2995 0
M  V30 2043 C 196.039 -0.379797 -2.30391 0
M  V30 2044 C 197.02 0.540919 -1.6127 0
M  V30 2045 O 198.205 0.453352 -1.88834 0
M  V30 2046 C 195.335 0.400654 -3.44981 0
M  V30 2047 C 194.289 -0.428905 -4.25846 0
M  V30 2048 C 193.615 0.478557 -5.32554 0
M  V30 2049 C 194.915 -1.67458 -4.94727 0
M  V30 2050 H 196.609 -1.21914 -2.73454 0
M  V30 2051 H 194.155 -0.587675 -1.31462 0
M  V30 2052 H 196.108 0.769434 -4.14316 0
M  V30 2053 H 194.832 1.27371 -3.0074 0
M  V30 2054 H 193.491 -0.779911 -3.58208 0
M  V30 2055 H 193.139 1.34951 -4.84559 0
M  V30 2056 H 192.839 -0.0727433 -5.87555 0
M  V30 2057 H 194.363 0.843705 -6.04743 0
M  V30 2058 H 195.777 -1.376 -5.56542 0
M  V30 2059 H 194.174 -2.16659 -5.59624 0
M  V30 2060 H 195.244 -2.41518 -4.20473 0
M  V30 2061 N 196.587 1.43421 -0.653314 0
M  V30 2062 C 197.998 1.85065 -0.246537 0
M  V30 2063 C 198.349 1.54688 1.2069 0
M  V30 2064 O 197.474 0.995896 1.92122 0
M  V30 2065 C 198.069 3.35922 -0.440666 0
M  V30 2066 C 196.628 3.76297 -0.0882064 0
M  V30 2067 C 195.775 2.67147 -0.743484 0
M  V30 2068 H 198.726 1.33572 -0.856979 0
M  V30 2069 H 198.747 3.79204 0.313798 0
M  V30 2070 H 198.259 3.58 -1.49858 0
M  V30 2071 H 196.36 3.5983 0.96711 0
M  V30 2072 H 196.473 4.76338 -0.513738 0
M  V30 2073 H 194.837 2.54086 -0.176712 0
M  V30 2074 H 195.62 2.92053 -1.80443 0
M  V30 2075 N 198.065 0.39524 1.52563 0
M  V30 2076 C 199.028 -0.425001 2.25225 0
M  V30 2077 C 200.028 -0.985266 1.27079 0
M  V30 2078 O 201.218 -0.866332 1.5113 0
M  V30 2079 C 198.35 -1.59686 3.01186 0
M  V30 2080 H 199.543 0.211233 2.99155 0
M  V30 2081 H 197.096 0.147472 1.55603 0
M  V30 2082 H 197.831 -2.27035 2.31572 0
M  V30 2083 H 197.616 -1.20176 3.73229 0
M  V30 2084 H 199.106 -2.17743 3.5634 0
M  V30 2085 N 199.544 -1.57102 0.125237 0
M  V30 2086 C 200.474 -2.18659 -0.819174 0
M  V30 2087 C 201.455 -1.12843 -1.27281 0
M  V30 2088 O 202.64 -1.41104 -1.33429 0
M  V30 2089 C 199.77 -2.79096 -2.06695 0
M  V30 2090 C 198.724 -3.90548 -1.75088 0
M  V30 2091 C 198.05 -4.37821 -3.06948 0
M  V30 2092 C 199.35 -5.12356 -1.01435 0
M  V30 2093 H 201.044 -2.9783 -0.306202 0
M  V30 2094 H 198.59 -1.4326 -0.145839 0
M  V30 2095 H 200.543 -3.2082 -2.73226 0
M  V30 2096 H 199.267 -1.97223 -2.60328 0
M  V30 2097 H 197.926 -3.49409 -1.10944 0
M  V30 2098 H 197.574 -3.52799 -3.58527 0
M  V30 2099 H 197.274 -5.12982 -2.86571 0
M  V30 2100 H 198.798 -4.822 -3.74587 0
M  V30 2101 H 200.212 -5.5106 -1.58132 0
M  V30 2102 H 198.609 -5.9314 -0.911319 0
M  V30 2103 H 199.679 -4.849 -0.00218681 0
M  V30 2104 N 201.022 0.148545 -1.56898 0
M  V30 2105 C 202.268 0.862694 -1.83536 0
M  V30 2106 C 202.601 1.80889 -0.706604 0
M  V30 2107 O 201.876 1.92328 0.289885 0
M  V30 2108 C 202.159 1.63853 -3.20662 0
M  V30 2109 C 202.012 0.713925 -4.44098 0
M  V30 2110 C 203.331 2.60133 -3.54991 0
M  V30 2111 H 200.45 0.312179 -0.667618 0
M  V30 2112 H 203.092 0.127953 -1.89569 0
M  V30 2113 H 201.242 2.26489 -3.1565 0
M  V30 2114 H 202.914 0.098686 -4.61194 0
M  V30 2115 H 201.157 0.0234019 -4.33794 0
M  V30 2116 H 201.828 1.29278 -5.36648 0
M  V30 2117 H 204.304 2.07616 -3.60603 0
M  V30 2118 H 203.18 3.11468 -4.51972 0
M  V30 2119 H 203.441 3.41417 -2.80868 0
M  V30 2120 N 202.5 1.5196 0.417844 0
M  V30 2121 C 203.433 1.69387 1.52916 0
M  V30 2122 C 204.411 0.541419 1.53321 0
M  V30 2123 O 205.595 0.767695 1.72159 0
M  V30 2124 C 202.722 1.72525 2.91467 0
M  V30 2125 C 201.768 2.93967 3.09008 0
M  V30 2126 S 202.601 4.54461 2.83242 0
M  V30 2127 C 203.757 4.60372 4.24038 0
M  V30 2128 H 203.99 2.63382 1.37903 0
M  V30 2129 H 201.523 1.41889 0.608845 0
M  V30 2130 H 203.481 1.75018 3.7132 0
M  V30 2131 H 202.142 0.796733 3.03827 0
M  V30 2132 H 201.335 2.92619 4.10353 0
M  V30 2133 H 200.937 2.89316 2.37007 0
M  V30 2134 H 203.229 4.37213 5.17544 0
M  V30 2135 H 204.172 5.62273 4.30412 0
M  V30 2136 H 204.58 3.89492 4.08602 0
M  V30 2137 N 203.978 -0.674533 1.42435 0
M  V30 2138 C 205.203 -1.46784 1.46524 0
M  V30 2139 C 205.628 -1.87938 0.078066 0
M  V30 2140 O 204.986 -1.56014 -0.92354 0
M  V30 2141 C 205.034 -2.69307 2.39805 0
M  V30 2142 O 204.138 -3.67587 1.86959 0
M  V30 2143 H 203.479 -0.440959 0.496439 0
M  V30 2144 H 206.009 -0.827326 1.87127 0
M  V30 2145 H 206.019 -3.17374 2.56393 0
M  V30 2146 H 204.694 -2.38692 3.40586 0
M  V30 2147 H 203.271 -3.2662 1.79927 0
M  V30 2148 N 205.456 -1.28612 -0.910864 0
M  V30 2149 C 206.403 -1.12786 -2.01365 0
M  V30 2150 C 207.373 -0.024201 -1.66082 0
M  V30 2151 O 208.558 -0.189667 -1.89855 0
M  V30 2152 C 205.698 -0.798743 -3.35729 0
M  V30 2153 C 204.811 -1.98173 -3.83864 0
M  V30 2154 C 203.946 -1.59298 -5.06752 0
M  V30 2155 C 202.985 -2.74245 -5.47226 0
M  V30 2156 N 202.122 -2.35842 -6.61304 0
M  V30 2157 H 206.962 -2.07142 -2.14234 0
M  V30 2158 H 204.499 -1.03093 -1.0493 0
M  V30 2159 H 206.457 -0.588662 -4.13026 0
M  V30 2160 H 205.087 0.10789 -3.2262 0
M  V30 2161 H 204.139 -2.30386 -3.02699 0
M  V30 2162 H 205.451 -2.84343 -4.09818 0
M  V30 2163 H 204.605 -1.34513 -5.916 0
M  V30 2164 H 203.344 -0.702618 -4.82612 0
M  V30 2165 H 202.349 -2.99725 -4.60918 0
M  V30 2166 H 203.574 -3.63928 -5.73353 0
M  V30 2167 H 201.52 -1.49279 -6.38789 0
M  V30 2168 H 201.437 -3.15546 -6.86998 0
M  V30 2169 H 202.705 -2.14348 -7.4945 0
M  V30 2170 N 206.934 1.1197 -1.10907 0
M  V30 2171 C 208.182 1.83225 -0.852819 0
M  V30 2172 C 208.503 1.84769 0.623341 0
M  V30 2173 O 207.773 1.3143 1.45269 0
M  V30 2174 H 206.353 0.67849 -0.312507 0
M  V30 2175 H 209.015 1.3556 -1.40033 0
M  V30 2176 H 208.111 2.87265 -1.22005 0
M  V30 2177 N 208.412 0.89855 1.29475 0
M  V30 2178 C 209.362 0.346767 2.25348 0
M  V30 2179 C 210.346 -0.532509 1.51833 0
M  V30 2180 O 211.538 -0.374714 1.72988 0
M  V30 2181 C 208.667 -0.425681 3.40651 0
M  V30 2182 C 207.753 0.46845 4.21505 0
M  V30 2183 N 208.144 1.57514 4.80648 0
M  V30 2184 C 206.442 0.26603 4.45206 0
M  V30 2185 C 207.143 2.12889 5.41344 0
M  V30 2186 N 206.119 1.42208 5.24669 0
M  V30 2187 H 209.921 1.19219 2.68634 0
M  V30 2188 H 207.435 0.749473 1.44072 0
M  V30 2189 H 209.432 -0.837716 4.08397 0
M  V30 2190 H 208.092 -1.26838 2.98902 0
M  V30 2191 H 209.103 1.95789 4.79465 0
M  V30 2192 H 205.78 -0.538394 4.14014 0
M  V30 2193 H 207.17 3.05901 5.98226 0
M  V30 2194 N 209.89 -1.43072 0.660911 0
M  V30 2195 C 211.306 -1.56169 0.329173 0
M  V30 2196 C 211.506 -1.64317 -1.16629 0
M  V30 2197 O 210.562 -1.60245 -1.95135 0
M  V30 2198 C 211.875 -2.81873 1.04729 0
M  V30 2199 C 213.423 -2.95627 1.02828 0
M  V30 2200 C 213.898 -4.24174 1.72744 0
M  V30 2201 N 215.389 -4.31055 1.69545 0
M  V30 2202 C 216.124 -5.29304 2.20511 0
M  V30 2203 N 215.62 -6.33786 2.79799 0
M  V30 2204 N 217.413 -5.21008 2.10966 0
M  V30 2205 H 209.564 -1.36027 1.63127 0
M  V30 2206 H 211.827 -0.653823 0.686454 0
M  V30 2207 H 211.533 -2.81942 2.10242 0
M  V30 2208 H 211.407 -3.72338 0.603702 0
M  V30 2209 H 213.794 -2.95094 -0.0184742 0
M  V30 2210 H 213.875 -2.06431 1.51063 0
M  V30 2211 H 213.519 -4.25467 2.7738 0
M  V30 2212 H 213.449 -5.1228 1.2197 0
M  V30 2213 H 215.94 -3.56174 1.26288 0
M  V30 2214 H 216.253 -7.05086 3.16344 0
M  V30 2215 H 214.598 -6.34387 2.83863 0
M  V30 2216 H 217.789 -4.38301 1.64347 0
M  V30 2217 H 217.962 -5.97416 2.50993 0
M  V30 2218 N 211.368 -0.403325 -1.52352 0
M  V30 2219 C 212.617 0.175668 -2.00934 0
M  V30 2220 C 212.93 1.46718 -1.29356 0
M  V30 2221 O 214.136 2.12708 -1.68724 0
M  V30 2222 C 212.592 0.363612 -3.58058 0
M  V30 2223 C 212.2 -0.915472 -4.38547 0
M  V30 2224 C 213.944 0.89821 -4.14888 0
M  V30 2225 C 211.851 -0.695035 -5.87302 0
M  V30 2226 H 210.781 0.0694234 -0.750797 0
M  V30 2227 H 213.432 -0.527879 -1.75743 0
M  V30 2228 H 211.814 1.12935 -3.79555 0
M  V30 2229 H 212.988 -1.68691 -4.28812 0
M  V30 2230 H 211.303 -1.37606 -3.93006 0
M  V30 2231 H 213.9 1.07907 -5.23699 0
M  V30 2232 H 214.243 1.87126 -3.71873 0
M  V30 2233 H 214.776 0.191681 -3.97338 0
M  V30 2234 H 211.515 -1.63948 -6.34666 0
M  V30 2235 H 211.035 0.0372116 -5.99788 0
M  V30 2236 H 212.714 -0.33497 -6.46132 0
M  V30 2237 N 212.846 1.57033 -0.133567 0
M  V30 2238 C 213.756 2.19632 0.824564 0
M  V30 2239 C 214.772 1.17666 1.28182 0
M  V30 2240 O 215.948 1.50193 1.3418 0
M  V30 2241 C 213.013 2.79499 2.05137 0
M  V30 2242 C 212.074 3.96548 1.64464 0
M  V30 2243 C 211.307 4.5355 2.81297 0
M  V30 2244 O 211.53 4.09438 3.97136 0
M  V30 2245 O 210.464 5.44018 2.57542 0
M  V30 2246 H 214.29 3.01991 0.321766 0
M  V30 2247 H 211.875 1.49112 0.0927889 0
M  V30 2248 H 213.757 3.17602 2.7696 0
M  V30 2249 H 212.432 2.00162 2.54395 0
M  V30 2250 H 211.339 3.63186 0.897048 0
M  V30 2251 H 212.672 4.77364 1.19934 0
M  V30 2252 N 214.325 -0.140222 1.56975 0
M  V30 2253 C 215.235 -1.19223 2.02047 0
M  V30 2254 C 216.251 -1.46612 0.937062 0
M  V30 2255 O 217.427 -1.58148 1.24704 0
M  V30 2256 C 214.492 -2.50414 2.39778 0
M  V30 2257 C 213.553 -2.30612 3.621 0
M  V30 2258 C 212.786 -3.55547 3.98023 0
M  V30 2259 O 213.009 -4.62004 3.34528 0
M  V30 2260 O 211.943 -3.47808 4.91237 0
M  V30 2261 H 215.769 -0.839559 2.91865 0
M  V30 2262 H 213.354 -0.349453 1.45256 0
M  V30 2263 H 215.236 -3.27747 2.64877 0
M  V30 2264 H 213.911 -2.85198 1.53114 0
M  V30 2265 H 212.818 -1.51207 3.4218 0
M  V30 2266 H 214.151 -2.00741 4.49404 0
M  V30 2267 N 215.803 -1.52179 -0.40978 0
M  V30 2268 C 217.049 -1.66453 -1.15851 0
M  V30 2269 C 217.382 -0.392972 -1.90182 0
M  V30 2270 O 216.657 0.608579 -1.84734 0
M  V30 2271 C 216.94 -2.88612 -2.15349 0
M  V30 2272 C 216.793 -4.25815 -1.44918 0
M  V30 2273 C 218.112 -3.06294 -3.16026 0
M  V30 2274 H 215.231 -0.60575 -0.419805 0
M  V30 2275 H 217.873 -1.84732 -0.444314 0
M  V30 2276 H 216.023 -2.73158 -2.76255 0
M  V30 2277 H 217.695 -4.52995 -0.871365 0
M  V30 2278 H 215.938 -4.27247 -0.751159 0
M  V30 2279 H 216.609 -5.07337 -2.17516 0
M  V30 2280 H 219.085 -3.20641 -2.65195 0
M  V30 2281 H 217.961 -3.93283 -3.8291 0
M  V30 2282 H 218.222 -2.19579 -3.83715 0
M  V30 2283 N 217.281 0.66697 -1.42791 0
M  V30 2284 C 218.692 1.2478 -1.38877 0
M  V30 2285 C 219.043 1.96012 -0.0859426 0
M  V30 2286 O 218.168 2.00463 0.815081 0
M  V30 2287 C 218.763 2.26938 -2.51564 0
M  V30 2288 C 217.322 2.80529 -2.50959 0
M  V30 2289 C 216.469 1.54965 -2.29959 0
M  V30 2290 H 219.42 0.459853 -1.51892 0
M  V30 2291 H 219.441 3.08834 -2.22265 0
M  V30 2292 H 218.953 1.75065 -3.46372 0
M  V30 2293 H 217.054 3.36502 -1.59991 0
M  V30 2294 H 217.167 3.29012 -3.48265 0
M  V30 2295 H 215.531 1.81817 -1.78366 0
M  V30 2296 H 216.314 1.05047 -3.26833 0
M  V30 2297 N 218.759 1.29093 0.90403 0
M  V30 2298 C 219.669 1.15727 2.0407 0
M  V30 2299 C 220.685 0.0815308 1.73809 0
M  V30 2300 O 221.861 0.292749 1.99261 0
M  V30 2301 C 218.926 0.830424 3.36608 0
M  V30 2302 C 217.987 1.98955 3.80415 0
M  V30 2303 C 217.22 1.6782 5.06628 0
M  V30 2304 O 217.443 0.597105 5.67266 0
M  V30 2305 O 216.377 2.52486 5.46383 0
M  V30 2306 H 220.203 2.11171 2.18267 0
M  V30 2307 H 217.788 1.08504 1.027 0
M  V30 2308 H 219.67 0.662521 4.16159 0
M  V30 2309 H 218.345 -0.0942678 3.23563 0
M  V30 2310 H 217.252 2.21267 3.01648 0
M  V30 2311 H 218.585 2.89529 3.98037 0
M  V30 2312 N 220.237 -1.11381 1.11499 0
M  V30 2313 C 221.167 -2.19509 0.796125 0
M  V30 2314 C 222.148 -1.68458 -0.235796 0
M  V30 2315 O 223.333 -1.93947 -0.0991344 0
M  V30 2316 C 220.463 -3.46475 0.239205 0
M  V30 2317 C 219.417 -4.10744 1.20307 0
M  V30 2318 C 218.743 -5.32293 0.50683 0
M  V30 2319 C 220.043 -4.55597 2.55399 0
M  V30 2320 H 221.737 -2.46439 1.70024 0
M  V30 2321 H 219.283 -1.18446 0.818935 0
M  V30 2322 H 221.236 -4.214 0.00392006 0
M  V30 2323 H 219.96 -3.19006 -0.700206 0
M  V30 2324 H 218.619 -3.37813 1.42399 0
M  V30 2325 H 218.267 -5.01095 -0.437408 0
M  V30 2326 H 217.967 -5.76243 1.1497 0
M  V30 2327 H 219.491 -6.09956 0.280351 0
M  V30 2328 H 220.905 -5.21841 2.37391 0
M  V30 2329 H 219.302 -5.10363 3.15673 0
M  V30 2330 H 220.372 -3.69013 3.14575 0
M  V30 2331 N 221.715 -0.905404 -1.28997 0
M  V30 2332 C 223.126 -0.581953 -1.77398 0
M  V30 2333 C 223.477 0.902552 -1.74208 0
M  V30 2334 O 222.602 1.70584 -1.33154 0
M  V30 2335 C 223.197 -1.04961 -3.22131 0
M  V30 2336 C 221.756 -0.777229 -3.68288 0
M  V30 2337 C 220.903 -1.22109 -2.48967 0
M  V30 2338 H 223.854 -1.08754 -1.15578 0
M  V30 2339 H 223.875 -0.387387 -3.78523 0
M  V30 2340 H 223.387 -2.13008 -3.24421 0
M  V30 2341 H 221.488 0.290383 -3.71467 0
M  V30 2342 H 221.601 -1.37911 -4.58822 0
M  V30 2343 H 219.965 -0.639971 -2.46529 0
M  V30 2344 H 220.748 -2.30972 -2.53982 0
M  V30 2345 N 223.193 1.4272 -0.668489 0
M  V30 2346 C 224.123 2.335 -0.000100175 0
M  V30 2347 C 225.104 1.50328 0.795964 0
M  V30 2348 O 226.289 1.78949 0.754385 0
M  V30 2349 C 223.419 3.33874 0.956302 0
M  V30 2350 C 222.373 4.27152 0.269278 0
M  V30 2351 C 221.699 5.17684 1.33818 0
M  V30 2352 C 222.999 5.15373 -0.847805 0
M  V30 2353 H 224.693 2.89639 -0.758244 0
M  V30 2354 H 222.239 1.39269 -0.366079 0
M  V30 2355 H 224.192 3.9629 1.43292 0
M  V30 2356 H 222.916 2.76025 1.74579 0
M  V30 2357 H 221.575 3.66123 -0.187042 0
M  V30 2358 H 221.223 4.56165 2.1195 0
M  V30 2359 H 220.923 5.80918 0.883659 0
M  V30 2360 H 222.447 5.82974 1.81586 0
M  V30 2361 H 223.861 5.7151 -0.452681 0
M  V30 2362 H 222.258 5.87407 -1.22773 0
M  V30 2363 H 223.328 4.5415 -1.69929 0
M  V30 2364 N 224.671 0.411399 1.52136 0
M  V30 2365 C 225.917 -0.163888 2.02137 0
M  V30 2366 C 226.25 -1.44597 1.29636 0
M  V30 2367 O 225.525 -1.90272 0.403353 0
M  V30 2368 C 225.808 -0.40927 3.57767 0
M  V30 2369 C 225.661 0.889643 4.40914 0
M  V30 2370 C 226.98 -1.19042 4.23694 0
M  V30 2371 H 224.099 -0.0580896 0.734707 0
M  V30 2372 H 226.741 0.54531 1.82007 0
M  V30 2373 H 224.891 -1.0134 3.7505 0
M  V30 2374 H 226.563 1.52575 4.35337 0
M  V30 2375 H 224.806 1.50011 4.07037 0
M  V30 2376 H 225.477 0.672314 5.4789 0
M  V30 2377 H 227.953 -0.678942 4.10524 0
M  V30 2378 H 226.829 -1.33086 5.32522 0
M  V30 2379 H 227.09 -2.21166 3.82803 0
M  V30 2380 N 226.149 -1.5696 0.141893 0
M  V30 2381 C 227.395 -1.9625 -0.511248 0
M  V30 2382 C 227.728 -1.02654 -1.64851 0
M  V30 2383 O 227.003 -0.0679676 -1.94381 0
M  V30 2384 C 227.286 -3.45285 -1.02227 0
M  V30 2385 C 227.139 -4.49658 0.113138 0
M  V30 2386 C 228.458 -3.96698 -1.90574 0
M  V30 2387 H 225.577 -0.713567 -0.184367 0
M  V30 2388 H 228.219 -1.88698 0.222087 0
M  V30 2389 H 226.369 -3.51852 -1.64719 0
M  V30 2390 H 228.041 -4.55174 0.749302 0
M  V30 2391 H 226.284 -4.26857 0.773026 0
M  V30 2392 H 226.955 -5.51258 -0.286053 0
M  V30 2393 H 229.431 -3.92578 -1.37918 0
M  V30 2394 H 228.307 -5.01453 -2.2324 0
M  V30 2395 H 228.568 -3.3875 -2.84079 0
M  V30 2396 N 227.627 0.131896 -1.57047 0
M  V30 2397 C 228.537 1.1815 -2.02676 0
M  V30 2398 C 229.553 1.46113 -0.944824 0
M  V30 2399 O 230.729 1.57485 -1.25541 0
M  V30 2400 C 227.794 2.49139 -2.41103 0
M  V30 2401 C 226.855 2.28688 -3.63318 0
M  V30 2402 C 226.088 3.53431 -3.99903 0
M  V30 2403 O 226.311 4.60223 -3.36973 0
M  V30 2404 O 225.245 3.45198 -4.93074 0
M  V30 2405 H 229.071 0.824069 -2.92306 0
M  V30 2406 H 226.656 0.341745 -1.45439 0
M  V30 2407 H 228.538 3.26338 -2.66611 0
M  V30 2408 H 227.213 2.84382 -1.54624 0
M  V30 2409 H 226.12 1.4939 -3.42977 0
M  V30 2410 H 227.453 1.98355 -4.50462 0
M  V30 2411 N 229.106 1.52395 0.401703 0
M  V30 2412 C 230.383 1.57387 1.16141 0
M  V30 2413 C 230.763 0.359359 2.08019 0
M  V30 2414 O 230.111 -0.65326 2.18963 0
M  V30 2415 C 230.321 2.90631 1.93221 0
M  V30 2416 C 231.669 3.43904 2.49028 0
M  V30 2417 O 232.693 2.92421 2.03393 0
M  V30 2418 O 231.552 4.33823 3.32356 0
M  V30 2419 H 228.646 0.634262 0.530698 0
M  V30 2420 H 231.192 1.64725 0.407883 0
M  V30 2421 H 229.964 3.70473 1.25958 0
M  V30 2422 H 229.587 2.8662 2.75563 0
M  V30 2423 N 230.584 -0.659388 1.43143 0
M  V30 2424 C 231.531 -1.77249 1.47822 0
M  V30 2425 C 232.501 -1.62818 0.328558 0
M  V30 2426 O 233.686 -1.83151 0.534838 0
M  V30 2427 C 230.826 -3.15371 1.40126 0
M  V30 2428 C 229.939 -3.4098 2.65249 0
M  V30 2429 C 229.074 -4.68915 2.49584 0
M  V30 2430 C 228.113 -4.87608 3.70006 0
M  V30 2431 N 227.25 -6.06796 3.53189 0
M  V30 2432 H 232.09 -1.72584 2.42938 0
M  V30 2433 H 229.627 -0.842297 1.20598 0
M  V30 2434 H 231.585 -3.9521 1.33659 0
M  V30 2435 H 230.215 -3.19121 0.485964 0
M  V30 2436 H 229.267 -2.55282 2.8202 0
M  V30 2437 H 230.579 -3.50681 3.54717 0
M  V30 2438 H 229.733 -5.56871 2.4079 0
M  V30 2439 H 228.472 -4.61524 1.5763 0
M  V30 2440 H 227.477 -3.9809 3.79215 0
M  V30 2441 H 228.702 -4.96834 4.62961 0
M  V30 2442 H 226.648 -6.00549 2.63965 0
M  V30 2443 H 226.565 -6.17428 4.36255 0
M  V30 2444 H 227.833 -6.9739 3.48236 0
M  V30 2445 N 232.062 -1.29571 -0.897171 0
M  V30 2446 C 233.308 -1.17863 -1.65034 0
M  V30 2447 C 233.641 0.268729 -1.92332 0
M  V30 2448 O 232.916 1.19378 -1.53555 0
M  V30 2449 C 233.199 -1.995 -2.99786 0
M  V30 2450 C 233.052 -3.5239 -2.79538 0
M  V30 2451 C 234.371 -1.82335 -4.00552 0
M  V30 2452 H 231.49 -0.429528 -0.598895 0
M  V30 2453 H 234.132 -1.59072 -1.03905 0
M  V30 2454 H 232.282 -1.64485 -3.51962 0
M  V30 2455 H 233.954 -3.97401 -2.34244 0
M  V30 2456 H 232.197 -3.77187 -2.14273 0
M  V30 2457 H 232.868 -4.04787 -3.75302 0
M  V30 2458 H 235.344 -2.12924 -3.57495 0
M  V30 2459 H 234.22 -2.41801 -4.92771 0
M  V30 2460 H 234.481 -0.779209 -4.35179 0
M  V30 2461 N 233.54 1.10788 -1.12088 0
M  V30 2462 C 234.45 2.20599 -0.798338 0
M  V30 2463 C 235.466 1.72712 0.21135 0
M  V30 2464 O 236.642 2.01348 0.0458477 0
M  V30 2465 C 233.707 3.45771 -0.253674 0
M  V30 2466 C 232.768 4.08411 -1.32283 0
M  V30 2467 C 232.001 5.27608 -0.80406 0
M  V30 2468 O 232.224 5.69241 0.363478 0
M  V30 2469 O 231.158 5.8101 -1.57198 0
M  V30 2470 H 234.984 2.50614 -1.7154 0
M  V30 2471 H 232.569 1.19454 -0.897275 0
M  V30 2472 H 234.451 4.21376 0.0453691 0
M  V30 2473 H 233.126 3.1739 0.636005 0
M  V30 2474 H 232.033 3.34507 -1.67499 0
M  V30 2475 H 233.366 4.40986 -2.18614 0
M  V30 2476 N 235.018 0.912232 1.28515 0
M  V30 2477 C 236.266 0.543523 1.94654 0
M  V30 2478 C 236.587 -0.9155 1.72173 0
M  V30 2479 O 235.857 -1.64708 1.06058 0
M  V30 2480 H 234.437 0.198017 0.720277 0
M  V30 2481 H 237.099 1.16126 1.56527 0
M  V30 2482 H 236.195 0.736684 3.03281 0
M  V30 2483 N 236.496 -1.42363 0.676048 0
M  V30 2484 C 237.726 -2.05561 0.206967 0
M  V30 2485 C 238.134 -1.50887 -1.14148 0
M  V30 2486 O 237.477 -0.643933 -1.72044 0
M  V30 2487 C 237.539 -3.5944 0.0659508 0
M  V30 2488 C 237.203 -4.36812 1.34331 0
M  V30 2489 C 238.2 -4.67383 2.27704 0
M  V30 2490 C 235.885 -4.76429 1.59125 0
M  V30 2491 C 237.879 -5.36509 3.44147 0
M  V30 2492 C 235.566 -5.45294 2.75857 0
M  V30 2493 C 236.564 -5.75259 3.68193 0
M  V30 2494 O 236.252 -6.42712 4.82883 0
M  V30 2495 H 235.984 -0.668872 0.0979084 0
M  V30 2496 H 238.538 -1.83467 0.923531 0
M  V30 2497 H 236.768 -3.80197 -0.706204 0
M  V30 2498 H 238.457 -4.0427 -0.363418 0
M  V30 2499 H 239.223 -4.37275 2.09799 0
M  V30 2500 H 235.102 -4.52498 0.881258 0
M  V30 2501 H 238.646 -5.59814 4.16238 0
M  V30 2502 H 234.543 -5.7482 2.93688 0
M  V30 2503 H 235.311 -6.61204 4.82444 0
M  V30 2504 N 237.974 -0.419461 -1.51915 0
M  V30 2505 C 238.921 0.400927 -2.27291 0
M  V30 2506 C 239.891 1.03224 -1.30131 0
M  V30 2507 O 241.076 1.05455 -1.59009 0
M  V30 2508 C 238.216 1.50603 -3.10504 0
M  V30 2509 C 237.329 0.89462 -4.22635 0
M  V30 2510 C 236.464 1.97328 -4.93189 0
M  V30 2511 C 235.503 1.33935 -5.97267 0
M  V30 2512 N 234.64 2.3586 -6.61298 0
M  V30 2513 H 239.48 -0.248251 -2.96964 0
M  V30 2514 H 237.017 -0.134266 -1.46486 0
M  V30 2515 H 238.975 2.15783 -3.57062 0
M  V30 2516 H 237.605 2.12509 -2.42981 0
M  V30 2517 H 236.657 0.131583 -3.80172 0
M  V30 2518 H 237.969 0.391641 -4.9726 0
M  V30 2519 H 237.123 2.70211 -5.43204 0
M  V30 2520 H 235.862 2.50994 -4.18155 0
M  V30 2521 H 234.867 0.595896 -5.46561 0
M  V30 2522 H 236.092 0.810252 -6.74249 0
M  V30 2523 H 234.038 2.88639 -5.89087 0
M  V30 2524 H 233.955 1.90403 -7.3163 0
M  V30 2525 H 235.223 3.08282 -7.15949 0
M  V30 2526 N 239.452 1.56882 -0.150215 0
M  V30 2527 C 240.399 2.16922 0.788244 0
M  V30 2528 C 241.369 1.10303 1.24187 0
M  V30 2529 O 242.554 1.38359 1.31383 0
M  V30 2530 C 239.694 2.79754 2.02068 0
M  V30 2531 C 238.807 4.00775 1.61257 0
M  V30 2532 C 237.942 4.51595 2.79705 0
M  V30 2533 C 236.981 5.65074 2.35282 0
M  V30 2534 N 236.118 6.10499 3.4675 0
M  V30 2535 H 240.958 2.96779 0.269444 0
M  V30 2536 H 238.495 1.46599 0.12128 0
M  V30 2537 H 240.453 3.14329 2.74323 0
M  V30 2538 H 239.083 2.02536 2.51354 0
M  V30 2539 H 238.135 3.72158 0.787553 0
M  V30 2540 H 239.447 4.82978 1.24633 0
M  V30 2541 H 238.601 4.88242 3.60145 0
M  V30 2542 H 237.34 3.68406 3.19576 0
M  V30 2543 H 236.345 5.28 1.53283 0
M  V30 2544 H 237.57 6.50052 1.96493 0
M  V30 2545 H 235.516 5.30243 3.86236 0
M  V30 2546 H 235.433 6.87637 3.14152 0
M  V30 2547 H 236.701 6.51791 4.27537 0
M  V30 2548 N 240.93 -0.123565 1.57115 0
M  V30 2549 C 242.158 -0.846461 1.88793 0
M  V30 2550 C 242.573 -1.73652 0.740976 0
M  V30 2551 O 241.93 -1.80207 -0.288393 0
M  V30 2552 C 241.981 -1.6837 3.19897 0
M  V30 2553 O 241.702 -0.829477 4.30176 0
M  V30 2554 C 243.203 -2.51214 3.65248 0
M  V30 2555 H 240.423 -0.243573 0.625231 0
M  V30 2556 H 242.967 -0.109324 2.04208 0
M  V30 2557 H 241.122 -2.37364 3.06165 0
M  V30 2558 H 241.536 -1.40651 5.0529 0
M  V30 2559 H 243.01 -3.05497 4.59756 0
M  V30 2560 H 243.487 -3.28359 2.9168 0
M  V30 2561 H 244.093 -1.8747 3.81752 0
M  V30 2562 N 242.408 -1.52605 -0.393616 0
M  V30 2563 C 243.355 -1.77055 -1.48054 0
M  V30 2564 C 244.325 -0.61358 -1.54352 0
M  V30 2565 O 245.51 -0.852806 -1.70681 0
M  V30 2566 C 242.65 -1.94108 -2.85335 0
M  V30 2567 C 241.763 -3.21792 -2.88226 0
M  V30 2568 C 240.898 -3.29188 -4.16904 0
M  V30 2569 C 239.937 -4.51013 -4.13828 0
M  V30 2570 N 239.074 -4.55716 -5.34105 0
M  V30 2571 H 243.914 -2.69815 -1.26506 0
M  V30 2572 H 241.451 -1.33683 -0.61379 0
M  V30 2573 H 243.409 -2.01979 -3.65049 0
M  V30 2574 H 242.039 -1.04713 -3.05344 0
M  V30 2575 H 241.091 -3.23015 -2.00911 0
M  V30 2576 H 242.403 -4.11557 -2.8182 0
M  V30 2577 H 241.557 -3.36216 -5.05018 0
M  V30 2578 H 240.296 -2.37389 -4.26026 0
M  V30 2579 H 239.301 -4.44115 -3.24102 0
M  V30 2580 H 240.526 -5.44123 -4.06333 0
M  V30 2581 H 238.472 -3.66807 -5.43865 0
M  V30 2582 H 238.389 -5.39346 -5.29756 0
M  V30 2583 H 239.657 -4.66993 -6.2413 0
M  V30 2584 N 243.887 0.651787 -1.4349 0
M  V30 2585 C 244.797 1.79368 -1.5121 0
M  V30 2586 C 245.813 1.69361 -0.399093 0
M  V30 2587 O 246.989 1.90505 -0.653431 0
M  V30 2588 C 244.054 3.15653 -1.43401 0
M  V30 2589 C 243.115 3.37446 -2.65384 0
M  V30 2590 C 242.348 4.67229 -2.57939 0
M  V30 2591 O 242.571 5.46676 -1.62792 0
M  V30 2592 O 241.505 4.90773 -3.48462 0
M  V30 2593 H 245.331 1.7581 -2.47638 0
M  V30 2594 H 242.916 0.810447 -1.25507 0
M  V30 2595 H 244.798 3.96935 -1.41494 0
M  V30 2596 H 243.473 3.19798 -0.501085 0
M  V30 2597 H 242.38 2.55923 -2.72863 0
M  V30 2598 H 243.713 3.38148 -3.57654 0
M  V30 2599 N 245.365 1.30045 0.890287 0
M  V30 2600 C 246.328 1.15963 1.977 0
M  V30 2601 C 247.328 0.0923777 1.60534 0
M  V30 2602 O 248.518 0.340071 1.70848 0
M  V30 2603 C 245.65 0.775451 3.31963 0
M  V30 2604 H 246.843 2.12502 2.11619 0
M  V30 2605 H 244.396 1.13366 1.07601 0
M  V30 2606 H 245.131 -0.189671 3.23745 0
M  V30 2607 H 244.916 1.54668 3.60306 0
M  V30 2608 H 246.406 0.700251 4.11687 0
M  V30 2609 N 246.843 -1.10192 1.12674 0
M  V30 2610 C 248.089 -1.82475 0.884915 0
M  V30 2611 C 248.422 -1.85093 -0.58773 0
M  V30 2612 O 247.697 -1.3134 -1.43457 0
M  V30 2613 C 247.98 -3.29018 1.46353 0
M  V30 2614 C 247.833 -3.34718 3.00473 0
M  V30 2615 C 249.152 -4.25473 1.12519 0
M  V30 2616 H 246.271 -0.662492 0.322915 0
M  V30 2617 H 248.913 -1.2913 1.39375 0
M  V30 2618 H 247.063 -3.74576 1.03077 0
M  V30 2619 H 248.735 -2.97622 3.52447 0
M  V30 2620 H 246.978 -2.74541 3.35872 0
M  V30 2621 H 247.649 -4.37918 3.36053 0
M  V30 2622 H 250.125 -3.88161 1.499 0
M  V30 2623 H 249.001 -5.26365 1.55663 0
M  V30 2624 H 249.262 -4.42084 0.0377407 0
M  V30 2625 N 248.321 -0.919034 -1.28029 0
M  V30 2626 C 249.251 -0.428581 -2.29533 0
M  V30 2627 C 250.232 0.50659 -1.62381 0
M  V30 2628 O 251.417 0.413195 -1.89753 0
M  V30 2629 C 248.547 0.327388 -3.45753 0
M  V30 2630 C 247.501 -0.519137 -4.2484 0
M  V30 2631 C 246.827 0.365486 -5.33449 0
M  V30 2632 C 248.127 -1.77914 -4.91064 0
M  V30 2633 H 249.821 -1.27687 -2.70807 0
M  V30 2634 H 247.367 -0.615428 -1.30186 0
M  V30 2635 H 249.32 0.681378 -4.15855 0
M  V30 2636 H 248.044 1.20963 -3.03374 0
M  V30 2637 H 246.703 -0.855717 -3.56473 0
M  V30 2638 H 246.351 1.24642 -4.87312 0
M  V30 2639 H 246.051 -0.197356 -5.87268 0
M  V30 2640 H 247.575 0.715241 -6.06396 0
M  V30 2641 H 248.989 -1.49374 -5.53498 0
M  V30 2642 H 247.386 -2.2848 -5.54903 0
M  V30 2643 H 248.456 -2.50382 -4.15255 0
M  V30 2644 N 249.799 1.42003 -0.683588 0
M  V30 2645 C 250.729 2.33487 -0.024866 0
M  V30 2646 C 251.71 1.51163 0.779975 0
M  V30 2647 O 252.895 1.79739 0.735362 0
M  V30 2648 C 250.025 3.3487 0.920836 0
M  V30 2649 C 248.979 4.27414 0.223958 0
M  V30 2650 C 248.305 5.19074 1.2832 0
M  V30 2651 C 249.605 5.14445 -0.90242 0
M  V30 2652 H 251.299 2.88819 -0.788921 0
M  V30 2653 H 248.845 1.38873 -0.38083 0
M  V30 2654 H 250.798 3.97787 1.39081 0
M  V30 2655 H 249.522 2.77861 1.71642 0
M  V30 2656 H 248.181 3.65904 -0.225864 0
M  V30 2657 H 247.829 4.58387 2.071 0
M  V30 2658 H 247.529 5.81822 0.821995 0
M  V30 2659 H 249.053 5.84867 1.75392 0
M  V30 2660 H 250.467 5.70998 -0.513272 0
M  V30 2661 H 248.864 5.86072 -1.28997 0
M  V30 2662 H 249.934 4.52322 -1.74737 0
M  V30 2663 N 251.277 0.427512 1.51691 0
M  V30 2664 C 252.207 -0.3796 2.30394 0
M  V30 2665 C 253.188 -1.02982 1.35384 0
M  V30 2666 O 254.373 -1.03534 1.643 0
M  V30 2667 C 251.503 -1.48649 3.1388 0
M  V30 2668 C 250.457 -0.960294 4.17088 0
M  V30 2669 C 249.783 -2.16219 4.89033 0
M  V30 2670 C 251.083 -0.00153679 5.223 0
M  V30 2671 H 252.777 0.277164 2.98114 0
M  V30 2672 H 250.323 0.134739 1.43368 0
M  V30 2673 H 252.276 -2.05826 3.67714 0
M  V30 2674 H 251 -2.1714 2.43962 0
M  V30 2675 H 249.659 -0.410806 3.64291 0
M  V30 2676 H 249.307 -2.83307 4.15628 0
M  V30 2677 H 249.007 -1.81654 5.58816 0
M  V30 2678 H 250.531 -2.73968 5.45687 0
M  V30 2679 H 251.945 -0.482687 5.71264 0
M  V30 2680 H 250.342 0.256199 5.99553 0
M  V30 2681 H 251.412 0.938174 4.75738 0
M  V30 2682 N 252.755 -1.56801 0.158532 0
M  V30 2683 C 253.702 -2.17337 -0.776729 0
M  V30 2684 C 254.672 -1.1096 -1.23601 0
M  V30 2685 O 255.857 -1.39054 -1.30647 0
M  V30 2686 C 252.997 -2.80822 -2.00582 0
M  V30 2687 C 252.11 -4.01624 -1.59129 0
M  V30 2688 C 251.245 -4.53072 -2.77306 0
M  V30 2689 C 250.284 -5.66314 -2.32282 0
M  V30 2690 N 249.421 -6.12329 -3.43508 0
M  V30 2691 H 254.261 -2.96918 -0.253701 0
M  V30 2692 H 251.798 -1.46661 -0.113504 0
M  V30 2693 H 253.756 -3.15779 -2.72652 0
M  V30 2694 H 252.386 -2.03866 -2.50277 0
M  V30 2695 H 251.438 -3.72571 -0.767806 0
M  V30 2696 H 252.75 -4.83633 -1.2207 0
M  V30 2697 H 251.904 -4.90145 -3.57551 0
M  V30 2698 H 250.643 -3.70095 -3.17617 0
M  V30 2699 H 249.648 -5.28806 -1.5048 0
M  V30 2700 H 250.873 -6.51085 -1.93043 0
M  V30 2701 H 248.819 -5.32284 -3.83418 0
M  V30 2702 H 248.736 -6.89293 -3.105 0
M  V30 2703 H 250.004 -6.5405 -4.24075 0
M  V30 2704 N 254.233 0.115231 -1.57178 0
M  V30 2705 C 255.18 1.14115 -2.00615 0
M  V30 2706 C 256.15 1.40939 -0.878941 0
M  V30 2707 O 257.335 1.52741 -1.14345 0
M  V30 2708 C 254.475 2.46156 -2.4187 0
M  V30 2709 C 253.588 2.26236 -3.68024 0
M  V30 2710 C 252.723 3.51534 -3.98243 0
M  V30 2711 C 251.762 3.26787 -5.17568 0
M  V30 2712 N 250.899 4.44298 -5.43639 0
M  V30 2713 H 255.739 0.763743 -2.88047 0
M  V30 2714 H 253.276 0.365615 -1.42484 0
M  V30 2715 H 255.234 3.23189 -2.63827 0
M  V30 2716 H 253.864 2.81783 -1.57475 0
M  V30 2717 H 252.916 1.40102 -3.5366 0
M  V30 2718 H 254.228 2.03929 -4.55208 0
M  V30 2719 H 253.382 4.36984 -4.20868 0
M  V30 2720 H 252.121 3.76876 -3.09541 0
M  V30 2721 H 251.126 2.39729 -4.94783 0
M  V30 2722 H 252.351 3.02812 -6.0785 0
M  V30 2723 H 250.297 4.69754 -4.57895 0
M  V30 2724 H 250.214 4.25109 -6.25154 0
M  V30 2725 H 251.482 5.3087 -5.70786 0
M  V30 2726 N 255.711 1.52812 0.385517 0
M  V30 2727 C 256.641 1.80808 1.47752 0
M  V30 2728 C 257.622 0.660318 1.5676 0
M  V30 2729 O 258.807 0.908246 1.71652 0
M  V30 2730 C 255.937 1.98008 2.85324 0
M  V30 2731 C 254.891 3.13709 2.91154 0
M  V30 2732 C 254.217 3.16169 4.31209 0
M  V30 2733 C 255.517 4.52709 2.60483 0
M  V30 2734 H 257.211 2.72253 1.24573 0
M  V30 2735 H 254.757 1.31003 0.597839 0
M  V30 2736 H 256.71 2.16176 3.61726 0
M  V30 2737 H 255.434 1.03255 3.09848 0
M  V30 2738 H 254.093 2.95329 2.17201 0
M  V30 2739 H 253.741 2.19092 4.52778 0
M  V30 2740 H 253.441 3.93894 4.36029 0
M  V30 2741 H 254.965 3.36496 5.09512 0
M  V30 2742 H 256.379 4.71173 3.26602 0
M  V30 2743 H 254.776 5.32528 2.76648 0
M  V30 2744 H 255.846 4.59186 1.55809 0
M  V30 2745 N 257.189 -0.644168 1.43834 0
M  V30 2746 C 258.136 -1.75671 1.49694 0
M  V30 2747 C 259.106 -1.6246 0.345809 0
M  V30 2748 O 260.291 -1.82573 0.554234 0
M  V30 2749 C 257.431 -3.13867 1.43463 0
M  V30 2750 C 256.544 -3.38147 2.6885 0
M  V30 2751 C 255.679 -4.66241 2.54544 0
M  V30 2752 C 254.718 -4.83657 3.75157 0
M  V30 2753 N 253.855 -6.03016 3.59605 0
M  V30 2754 H 258.695 -1.69998 2.44754 0
M  V30 2755 H 256.232 -0.829458 1.21484 0
M  V30 2756 H 258.19 -3.9377 1.37843 0
M  V30 2757 H 256.82 -3.18588 0.519783 0
M  V30 2758 H 255.872 -2.52276 2.84712 0
M  V30 2759 H 257.184 -3.46899 3.58417 0
M  V30 2760 H 256.338 -5.54285 2.46683 0
M  V30 2761 H 255.077 -4.59826 1.62516 0
M  V30 2762 H 254.082 -3.94046 3.83416 0
M  V30 2763 H 255.307 -4.91896 4.68204 0
M  V30 2764 H 253.253 -5.97715 2.7032 0
M  V30 2765 H 253.17 -6.12766 4.42779 0
M  V30 2766 H 254.438 -6.93657 3.55613 0
M  V30 2767 N 258.668 -1.30515 -0.883378 0
M  V30 2768 C 259.631 -1.1701 -1.97082 0
M  V30 2769 C 260.631 -0.10089 -1.60483 0
M  V30 2770 O 261.821 -0.349127 -1.70666 0
M  V30 2771 C 258.953 -0.793045 -3.31547 0
M  V30 2772 H 260.146 -2.13622 -2.10489 0
M  V30 2773 H 257.699 -1.13935 -1.06998 0
M  V30 2774 H 258.434 0.172499 -3.23841 0
M  V30 2775 H 258.219 -1.56576 -3.5948 0
M  V30 2776 H 259.709 -0.722073 -4.1131 0
M  V30 2777 N 260.146 1.09593 -1.13257 0
M  V30 2778 C 261.392 1.82181 -0.904521 0
M  V30 2779 C 261.747 1.83967 0.563358 0
M  V30 2780 O 261.04 1.29566 1.41149 0
M  V30 2781 C 261.234 3.27802 -1.42411 0
M  V30 2782 C 261.063 3.40201 -2.94097 0
M  V30 2783 C 259.833 3.52104 -3.62424 0
M  V30 2784 C 262.031 3.32875 -3.92044 0
M  V30 2785 N 260.013 3.53169 -5.0214 0
M  V30 2786 C 261.384 3.40789 -5.17941 0
M  V30 2787 C 263.439 3.16531 -3.84334 0
M  V30 2788 C 262.142 3.34042 -6.37031 0
M  V30 2789 C 264.168 3.11109 -5.02956 0
M  V30 2790 C 263.53 3.19614 -6.27715 0
M  V30 2791 H 259.629 0.681015 -0.384373 0
M  V30 2792 H 262.213 1.3099 -1.44048 0
M  V30 2793 H 260.384 3.77466 -0.915086 0
M  V30 2794 H 262.116 3.88393 -1.13722 0
M  V30 2795 H 258.871 3.5548 -3.12939 0
M  V30 2796 H 259.295 3.57291 -5.75041 0
M  V30 2797 H 263.937 3.08827 -2.88766 0
M  V30 2798 H 261.655 3.4051 -7.32857 0
M  V30 2799 H 265.241 2.99601 -4.98729 0
M  V30 2800 H 264.121 3.15432 -7.17964 0
M  V30 2801 N 261.624 0.925811 1.2754 0
M  V30 2802 C 262.572 0.413897 2.28888 0
M  V30 2803 C 263.566 -0.500779 1.61829 0
M  V30 2804 O 264.772 -0.38069 1.75928 0
M  V30 2805 H 261.147 0.115274 0.743112 0
M  V30 2806 H 263.118 1.28151 2.69481 0
M  V30 2807 C 261.867 -0.319792 3.46226 0
M  V30 2808 H 261.19 0.374846 3.98039 0
M  V30 2809 H 262.63 -0.642435 4.19105 0
M  V30 2810 C 261.089 -1.53209 3.00048 0
M  V30 2811 O 261.619 -2.6309 3.03557 0
M  V30 2812 N 259.825 -1.38326 2.55566 0
M  V30 2813 H 259.372 -0.489292 2.5291 0
M  V30 2814 H 259.33 -2.19564 2.25031 0
M  V30 2815 N 263.102 -1.41638 0.69111 0
M  V30 2816 C 264.379 -1.95036 0.148421 0
M  V30 2817 C 264.759 -1.63072 -1.34055 0
M  V30 2818 O 264.107 -0.93538 -2.08478 0
M  V30 2819 C 264.317 -3.46279 0.434951 0
M  V30 2820 C 265.665 -4.23069 0.360275 0
M  V30 2821 O 266.689 -3.54277 0.369613 0
M  V30 2822 O 265.548 -5.45583 0.316534 0
M  V30 2823 H 262.642 -0.826908 0.0123654 0
M  V30 2824 H 265.188 -1.5138 0.766963 0
M  V30 2825 H 263.96 -3.6281 1.46576 0
M  V30 2826 H 263.583 -3.97019 -0.214787 0
M  V30 2827 N 264.58 -0.43555 -1.51462 0
M  V30 2828 C 265.829 0.133007 -2.01261 0
M  V30 2829 C 266.142 1.43942 -1.32439 0
M  V30 2830 O 267.348 2.09081 -1.73198 0
M  V30 2831 C 265.804 0.287581 -3.58749 0
M  V30 2832 C 265.412 -1.00829 -4.36506 0
M  V30 2833 C 267.156 0.810004 -4.167 0
M  V30 2834 C 265.063 -0.819454 -5.85695 0
M  V30 2835 H 263.993 0.0534822 -0.752101 0
M  V30 2836 H 266.644 -0.565038 -1.74584 0
M  V30 2837 H 265.026 1.04859 -3.81865 0
M  V30 2838 H 266.2 -1.77749 -4.25138 0
M  V30 2839 H 264.515 -1.45911 -3.89999 0
M  V30 2840 H 267.112 0.967743 -5.2587 0
M  V30 2841 H 267.455 1.79196 -3.75758 0
M  V30 2842 H 267.988 0.107357 -3.97655 0
M  V30 2843 H 264.727 -1.77374 -6.31046 0
M  V30 2844 H 264.247 -0.0900208 -5.99732 0
M  V30 2845 H 265.926 -0.471949 -6.45276 0
M  V30 2846 N 266.058 1.56714 -0.166846 0
M  V30 2847 C 267.005 2.17746 0.765193 0
M  V30 2848 C 267.975 1.11614 1.23011 0
M  V30 2849 O 269.16 1.39745 1.29908 0
M  V30 2850 C 266.3 2.81882 1.9909 0
M  V30 2851 C 265.413 4.02462 1.56997 0
M  V30 2852 C 264.548 4.54537 2.749 0
M  V30 2853 C 263.587 5.67538 2.29275 0
M  V30 2854 N 262.724 6.14142 3.40255 0
M  V30 2855 H 267.564 2.97048 0.237952 0
M  V30 2856 H 265.101 1.4672 0.105725 0
M  V30 2857 H 267.059 3.17221 2.70974 0
M  V30 2858 H 265.689 2.05191 2.49192 0
M  V30 2859 H 264.741 3.72973 0.748037 0
M  V30 2860 H 266.053 4.84273 1.19503 0
M  V30 2861 H 265.207 4.92035 3.54946 0
M  V30 2862 H 263.946 3.71774 3.1565 0
M  V30 2863 H 262.951 5.29597 1.47674 0
M  V30 2864 H 264.176 6.52099 1.89588 0
M  V30 2865 H 262.122 5.3431 3.8059 0
M  V30 2866 H 262.039 6.9093 3.06841 0
M  V30 2867 H 263.307 6.56289 4.206 0
M  V30 2868 N 267.536 -0.106894 1.57237 0
M  V30 2869 C 268.483 -1.13049 2.01217 0
M  V30 2870 C 269.453 -1.40471 0.886403 0
M  V30 2871 O 270.638 -1.52133 1.15153 0
M  V30 2872 C 267.778 -2.4487 2.43172 0
M  V30 2873 C 266.891 -2.24281 3.69218 0
M  V30 2874 C 266.026 -3.49417 4.00101 0
M  V30 2875 C 265.065 -3.24038 5.19294 0
M  V30 2876 N 264.202 -4.41409 5.45988 0
M  V30 2877 H 269.042 -0.748456 2.88448 0
M  V30 2878 H 266.579 -0.358054 1.42676 0
M  V30 2879 H 268.537 -3.21786 2.65537 0
M  V30 2880 H 267.167 -2.80944 1.58967 0
M  V30 2881 H 266.219 -1.38224 3.54398 0
M  V30 2882 H 267.531 -2.01512 4.56283 0
M  V30 2883 H 266.685 -4.34746 4.2318 0
M  V30 2884 H 265.424 -3.75229 3.11535 0
M  V30 2885 H 264.429 -2.37102 4.96047 0
M  V30 2886 H 265.654 -2.99584 6.09447 0
M  V30 2887 H 263.6 -4.67319 4.60379 0
M  V30 2888 H 263.517 -4.21788 6.274 0
M  V30 2889 H 264.785 -5.27836 5.73593 0
M  V30 2890 N 269.014 -1.53014 -0.377408 0
M  V30 2891 C 270.26 -1.68872 -1.12294 0
M  V30 2892 C 270.593 -0.433224 -1.89306 0
M  V30 2893 O 269.868 0.569258 -1.85983 0
M  V30 2894 C 270.151 -2.93115 -2.09179 0
M  V30 2895 C 270.004 -4.28794 -1.35853 0
M  V30 2896 C 271.323 -3.12928 -3.09458 0
M  V30 2897 H 268.442 -0.614518 -0.406862 0
M  V30 2898 H 271.084 -1.85633 -0.40503 0
M  V30 2899 H 269.234 -2.78956 -2.70399 0
M  V30 2900 H 270.906 -4.54742 -0.775082 0
M  V30 2901 H 269.149 -4.28744 -0.660364 0
M  V30 2902 H 269.82 -5.11837 -2.06706 0
M  V30 2903 H 272.296 -3.26194 -2.58334 0
M  V30 2904 H 271.172 -4.01316 -3.74482 0
M  V30 2905 H 271.433 -2.27669 -3.78971 0
M  V30 2906 N 270.492 0.636531 -1.44174 0
M  V30 2907 C 271.722 1.42146 -1.49927 0
M  V30 2908 C 272.13 1.88812 -0.121063 0
M  V30 2909 O 271.473 1.61126 0.882267 0
M  V30 2910 C 271.535 2.67883 -2.39748 0
M  V30 2911 C 271.199 2.43048 -3.8701 0
M  V30 2912 C 272.196 2.05216 -4.77684 0
M  V30 2913 C 269.881 2.56856 -4.3166 0
M  V30 2914 C 271.875 1.81512 -6.11009 0
M  V30 2915 C 269.562 2.32766 -5.65034 0
M  V30 2916 C 270.56 1.95152 -6.54526 0
M  V30 2917 O 270.248 1.71326 -7.85431 0
M  V30 2918 H 269.98 0.442567 -0.51099 0
M  V30 2919 H 272.534 0.786158 -1.8976 0
M  V30 2920 H 270.764 3.34032 -1.94832 0
M  V30 2921 H 272.453 3.29874 -2.36513 0
M  V30 2922 H 273.219 1.94111 -4.44462 0
M  V30 2923 H 269.098 2.85104 -3.62266 0
M  V30 2924 H 272.642 1.52077 -6.80822 0
M  V30 2925 H 268.539 2.43479 -5.97819 0
M  V30 2926 H 269.307 1.85616 -7.97176 0
M  V30 2927 N 271.97 1.30982 0.876444 0
M  V30 2928 C 272.933 1.18054 1.96459 0
M  V30 2929 C 273.933 0.109399 1.60427 0
M  V30 2930 O 275.123 0.358173 1.70478 0
M  V30 2931 C 272.255 0.810616 3.31122 0
M  V30 2932 H 273.448 2.14735 2.09354 0
M  V30 2933 H 271.001 1.145 1.06392 0
M  V30 2934 H 271.736 -0.155322 3.23928 0
M  V30 2935 H 271.521 1.58481 3.58645 0
M  V30 2936 H 273.011 0.743876 4.10921 0
M  V30 2937 N 273.449 -1.08991 1.13837 0
M  V30 2938 C 274.674 -1.85551 0.926585 0
M  V30 2939 C 275.099 -1.80782 -0.519566 0
M  V30 2940 O 274.457 -1.18855 -1.36906 0
M  V30 2941 C 274.505 -3.31266 1.42462 0
M  V30 2942 O 273.609 -4.07822 0.612789 0
M  V30 2943 H 272.95 -0.575192 0.331738 0
M  V30 2944 H 275.48 -1.37604 1.51414 0
M  V30 2945 H 275.49 -3.82112 1.43019 0
M  V30 2946 H 274.165 -3.34052 2.47754 0
M  V30 2947 H 272.742 -3.66731 0.675463 0
M  V30 2948 N 274.927 -0.932562 -1.27047 0
M  V30 2949 C 275.859 -0.392734 -2.2581 0
M  V30 2950 C 276.872 0.479241 -1.55586 0
M  V30 2951 O 278.061 0.291078 -1.76111 0
M  V30 2952 C 275.161 0.455456 -3.35826 0
M  V30 2953 C 274.334 -0.398355 -4.35582 0
M  V30 2954 C 273.393 0.387985 -5.24768 0
M  V30 2955 O 272.419 -0.206003 -5.68827 0
M  V30 2956 N 273.621 1.68664 -5.55457 0
M  V30 2957 H 276.386 -1.24173 -2.72766 0
M  V30 2958 H 273.947 -0.800511 -1.40725 0
M  V30 2959 H 275.939 0.988692 -3.92437 0
M  V30 2960 H 274.509 1.20522 -2.88432 0
M  V30 2961 H 273.729 -1.11286 -3.78165 0
M  V30 2962 H 275.017 -0.981889 -4.99236 0
M  V30 2963 H 274.415 2.19147 -5.21528 0
M  V30 2964 H 272.972 2.1663 -6.14748 0
M  V30 2965 N 276.405 1.4127 -0.698611 0
M  V30 2966 C 277.821 1.55241 -0.370462 0
M  V30 2967 C 278.021 1.67351 1.12231 0
M  V30 2968 O 277.077 1.65363 1.90818 0
M  V30 2969 C 278.39 2.78997 -1.12165 0
M  V30 2970 C 279.938 2.92797 -1.1063 0
M  V30 2971 C 280.413 4.19445 -1.8393 0
M  V30 2972 N 281.904 4.26409 -1.80914 0
M  V30 2973 C 282.639 5.23271 -2.34467 0
M  V30 2974 N 282.135 6.26145 -2.96504 0
M  V30 2975 N 283.928 5.15232 -2.24706 0
M  V30 2976 H 276.079 1.31654 -1.66676 0
M  V30 2977 H 278.342 0.635393 -0.703548 0
M  V30 2978 H 278.048 2.76268 -2.17644 0
M  V30 2979 H 277.922 3.70606 -0.702209 0
M  V30 2980 H 280.309 2.95039 -0.0597713 0
M  V30 2981 H 280.39 2.02353 -1.56483 0
M  V30 2982 H 280.034 4.17964 -2.88563 0
M  V30 2983 H 279.964 5.08866 -1.35509 0
M  V30 2984 H 282.455 3.527 -1.35687 0
M  V30 2985 H 282.768 6.96451 -3.34927 0
M  V30 2986 H 281.113 6.26638 -3.00583 0
M  V30 2987 H 284.304 4.33789 -1.7591 0
M  V30 2988 H 284.477 5.90552 -2.66745 0
M  V30 2989 N 277.883 0.443576 1.51229 0
M  V30 2990 C 278.816 -0.410089 2.24485 0
M  V30 2991 C 279.794 -1.01949 1.26669 0
M  V30 2992 O 280.978 -1.06075 1.55821 0
M  V30 2993 C 278.105 -1.57211 3.00004 0
M  V30 2994 C 277.151 -1.08279 4.12526 0
M  V30 2995 S 277.984 -0.0197476 5.35496 0
M  V30 2996 C 279.14 -1.18629 6.14555 0
M  V30 2997 H 279.373 0.211832 2.96544 0
M  V30 2998 H 276.906 0.228156 1.52705 0
M  V30 2999 H 278.864 -2.23825 3.44111 0
M  V30 3000 H 277.525 -2.16547 2.27522 0
M  V30 3001 H 276.718 -1.95193 4.64667 0
M  V30 3002 H 276.32 -0.494797 3.70713 0
M  V30 3003 H 278.612 -2.10344 6.4402 0
M  V30 3004 H 279.555 -0.70472 7.04584 0
M  V30 3005 H 279.963 -1.42768 5.46148 0
M  V30 3006 N 279.361 -1.56624 0.175154 0
M  V30 3007 C 280.777 -1.58571 -0.180966 0
M  V30 3008 C 280.977 -1.19065 -1.6256 0
M  V30 3009 O 280.033 -0.904044 -2.35761 0
M  V30 3010 C 281.346 -3.00522 0.103326 0
M  V30 3011 C 282.894 -3.12972 0.0418426 0
M  V30 3012 C 283.369 -4.57022 0.299175 0
M  V30 3013 N 284.86 -4.62541 0.247086 0
M  V30 3014 C 285.595 -5.71857 0.420318 0
M  V30 3015 N 285.091 -6.89717 0.652816 0
M  V30 3016 N 286.884 -5.60972 0.355957 0
M  V30 3017 H 279.035 -1.80589 1.11809 0
M  V30 3018 H 281.298 -0.837178 0.444788 0
M  V30 3019 H 281.004 -3.33916 1.10422 0
M  V30 3020 H 280.878 -3.72344 -0.603299 0
M  V30 3021 H 283.265 -2.79403 -0.949636 0
M  V30 3022 H 283.346 -2.43578 0.781238 0
M  V30 3023 H 282.99 -4.913 1.28788 0
M  V30 3024 H 282.92 -5.24579 -0.460876 0
M  V30 3025 H 285.411 -3.77829 0.0731895 0
M  V30 3026 H 285.724 -7.68911 0.774347 0
M  V30 3027 H 284.069 -6.91572 0.689476 0
M  V30 3028 H 287.26 -4.67773 0.174882 0
M  V30 3029 H 287.433 -6.46111 0.494388 0
M  V30 3030 N 280.839 0.0985539 -1.57292 0
M  V30 3031 C 281.802 1.10402 -2.00858 0
M  V30 3032 C 282.802 1.33146 -0.901593 0
M  V30 3033 O 283.992 1.29318 -1.16716 0
M  V30 3034 C 281.124 2.45394 -2.36632 0
M  V30 3035 H 282.317 0.729099 -2.90902 0
M  V30 3036 H 279.87 0.343495 -1.52479 0
M  V30 3037 H 280.605 2.87769 -1.49531 0
M  V30 3038 H 280.39 2.30235 -3.17387 0
M  V30 3039 H 281.88 3.17718 -2.71007 0
M  V30 3040 N 282.317 1.53212 0.369288 0
M  V30 3041 C 283.565 1.68881 1.11012 0
M  V30 3042 C 283.886 0.441285 1.89941 0
M  V30 3043 O 283.156 -0.544623 1.88177 0
M  V30 3044 H 281.736 0.622569 0.412816 0
M  V30 3045 H 284.398 1.90391 0.416802 0
M  V30 3046 H 283.494 2.54822 1.80201 0
M  V30 3047 N 283.795 -0.628877 1.44509 0
M  V30 3048 C 284.742 -1.74074 1.51549 0
M  V30 3049 C 285.712 -1.62084 0.363021 0
M  V30 3050 O 286.897 -1.81975 0.573567 0
M  V30 3051 C 284.037 -3.12328 1.46784 0
M  V30 3052 C 283.15 -3.35277 2.72422 0
M  V30 3053 C 282.285 -4.63515 2.59475 0
M  V30 3054 C 281.324 -4.7965 3.80266 0
M  V30 3055 N 280.461 -5.99168 3.65981 0
M  V30 3056 H 285.301 -1.67392 2.46544 0
M  V30 3057 H 282.838 -0.816527 1.22357 0
M  V30 3058 H 284.796 -3.92286 1.42012 0
M  V30 3059 H 283.426 -3.18018 0.553544 0
M  V30 3060 H 282.478 -2.49242 2.87372 0
M  V30 3061 H 283.79 -3.43078 3.62076 0
M  V30 3062 H 282.944 -5.51638 2.52548 0
M  V30 3063 H 281.683 -4.58076 1.67384 0
M  V30 3064 H 280.688 -3.89957 3.87574 0
M  V30 3065 H 281.913 -4.86902 4.73395 0
M  V30 3066 H 279.859 -5.94814 2.76644 0
M  V30 3067 H 279.776 -6.08035 4.49254 0
M  V30 3068 H 281.044 -6.89846 3.6295 0
M  V30 3069 N 285.273 -1.31445 -0.869486 0
M  V30 3070 C 286.521 -1.20918 -1.61936 0
M  V30 3071 C 286.842 0.232683 -1.93607 0
M  V30 3072 O 286.112 1.15352 -1.58338 0
M  V30 3073 H 284.692 -0.44454 -0.600328 0
M  V30 3074 H 287.354 -1.64776 -1.0409 0
M  V30 3075 H 286.45 -1.78124 -2.56278 0
M  V30 3076 N 286.751 1.08385 -1.14413 0
M  V30 3077 C 287.698 2.15311 -0.831265 0
M  V30 3078 C 288.668 1.64751 0.211292 0
M  V30 3079 O 289.853 1.90627 0.0811674 0
M  V30 3080 C 286.993 3.43658 -0.315143 0
M  V30 3081 C 286.106 4.08064 -1.41802 0
M  V30 3082 C 285.241 5.24207 -0.859126 0
M  V30 3083 C 284.28 5.80554 -1.93967 0
M  V30 3084 N 283.417 6.88042 -1.39793 0
M  V30 3085 H 288.257 2.41415 -1.74708 0
M  V30 3086 H 285.794 1.18474 -0.871909 0
M  V30 3087 H 287.752 4.172 0.00230884 0
M  V30 3088 H 286.382 3.17839 0.56378 0
M  V30 3089 H 285.434 3.3228 -1.85187 0
M  V30 3090 H 286.746 4.45962 -2.23427 0
M  V30 3091 H 285.9 6.04689 -0.49359 0
M  V30 3092 H 284.639 4.87699 -0.011932 0
M  V30 3093 H 283.644 4.98725 -2.31415 0
M  V30 3094 H 284.869 6.19121 -2.79046 0
M  V30 3095 H 282.815 6.53493 -0.572919 0
M  V30 3096 H 282.732 7.24767 -2.15054 0
M  V30 3097 H 284 7.72255 -1.0603 0
M  V30 3098 N 288.23 0.939286 1.26551 0
M  V30 3099 C 289.163 0.391702 2.24813 0
M  V30 3100 C 290.141 -0.518421 1.54114 0
M  V30 3101 O 291.325 -0.456299 1.82894 0
M  V30 3102 C 288.452 -0.437382 3.35864 0
M  V30 3103 C 287.498 0.410946 4.24516 0
M  V30 3104 S 288.331 1.83372 5.03125 0
M  V30 3105 C 289.487 1.01264 6.17654 0
M  V30 3106 H 289.72 1.22448 2.70913 0
M  V30 3107 H 287.253 0.742269 1.35387 0
M  V30 3108 H 289.211 -0.909837 4.0029 0
M  V30 3109 H 287.872 -1.24482 2.8838 0
M  V30 3110 H 287.065 -0.224191 5.03501 0
M  V30 3111 H 286.667 0.818014 3.64945 0
M  V30 3112 H 288.959 0.254023 6.77024 0
M  V30 3113 H 289.902 1.77589 6.85469 0
M  V30 3114 H 290.31 0.549532 5.61819 0
M  V30 3115 N 289.708 -1.40897 0.706093 0
M  V30 3116 C 291.124 -1.55042 0.37869 0
M  V30 3117 C 291.324 -1.67944 -1.11342 0
M  V30 3118 O 290.38 -1.66372 -1.89938 0
M  V30 3119 C 291.693 -2.78398 1.13643 0
M  V30 3120 C 293.241 -2.92206 1.12181 0
M  V30 3121 C 293.716 -4.18463 1.86152 0
M  V30 3122 N 295.207 -4.25443 1.83173 0
M  V30 3123 C 295.942 -5.2202 2.37239 0
M  V30 3124 N 295.438 -6.24563 2.99821 0
M  V30 3125 N 297.231 -5.14033 2.27435 0
M  V30 3126 H 289.382 -1.30769 1.67372 0
M  V30 3127 H 291.645 -0.631653 0.706907 0
M  V30 3128 H 291.351 -2.7511 2.19106 0
M  V30 3129 H 291.225 -3.70228 0.721853 0
M  V30 3130 H 293.612 -2.95004 0.0754171 0
M  V30 3131 H 293.693 -2.01521 1.57554 0
M  V30 3132 H 293.337 -4.16427 2.90776 0
M  V30 3133 H 293.267 -5.08141 1.38206 0
M  V30 3134 H 295.758 -3.51976 1.37556 0
M  V30 3135 H 296.071 -6.94665 3.38616 0
M  V30 3136 H 294.416 -6.25035 3.03902 0
M  V30 3137 H 297.607 -4.3285 1.78208 0
M  V30 3138 H 297.78 -5.89129 2.69873 0
M  V30 3139 N 291.186 -0.45159 -1.50991 0
M  V30 3140 C 292.134 0.366864 -2.29689 0
M  V30 3141 C 293.128 1.00809 -1.36139 0
M  V30 3142 O 294.334 0.941427 -1.53418 0
M  V30 3143 H 290.709 0.137133 -0.739391 0
M  V30 3144 H 292.68 -0.317538 -2.96706 0
M  V30 3145 C 291.429 1.44751 -3.16137 0
M  V30 3146 H 290.752 0.963473 -3.88017 0
M  V30 3147 H 292.192 1.99315 -3.74232 0
M  V30 3148 C 290.651 2.43869 -2.32442 0
M  V30 3149 O 291.181 3.4872 -1.99392 0
M  V30 3150 N 289.387 2.15105 -1.95392 0
M  V30 3151 H 288.934 1.29866 -2.22469 0
M  V30 3152 H 288.892 2.81661 -1.39693 0
M  V30 3153 N 292.664 1.56529 -0.183458 0
M  V30 3154 C 294.08 1.58664 0.172554 0
M  V30 3155 C 294.28 1.19925 1.61926 0
M  V30 3156 O 293.336 0.916534 2.35278 0
M  V30 3157 C 294.649 3.00463 -0.119262 0
M  V30 3158 C 296.197 3.12945 -0.0584396 0
M  V30 3159 C 296.672 4.56857 -0.323408 0
M  V30 3160 N 298.163 4.62403 -0.271612 0
M  V30 3161 C 298.898 5.71626 -0.450639 0
M  V30 3162 N 298.394 6.89362 -0.689384 0
M  V30 3163 N 300.187 5.60775 -0.385701 0
M  V30 3164 H 292.338 1.79994 -1.12765 0
M  V30 3165 H 294.601 0.834808 -0.449222 0
M  V30 3166 H 294.307 3.33326 -1.12192 0
M  V30 3167 H 294.181 3.72659 0.583544 0
M  V30 3168 H 296.568 2.79902 0.934805 0
M  V30 3169 H 296.649 2.4316 -0.794144 0
M  V30 3170 H 296.293 4.9061 -1.31392 0
M  V30 3171 H 296.223 5.24816 0.43305 0
M  V30 3172 H 298.714 3.77785 -0.0932256 0
M  V30 3173 H 299.027 7.68489 -0.815113 0
M  V30 3174 H 297.372 6.91196 -0.726142 0
M  V30 3175 H 300.563 4.67674 -0.199687 0
M  V30 3176 H 300.736 6.4584 -0.528646 0
M  V30 3177 N 294.142 -0.090211 1.57342 0
M  V30 3178 C 295.558 -0.444547 1.53284 0
M  V30 3179 C 295.758 -1.80238 0.900914 0
M  V30 3180 O 294.814 -2.4759 0.495513 0
M  V30 3181 C 296.127 -0.402543 2.97993 0
M  V30 3182 C 297.675 -0.48405 3.09234 0
M  V30 3183 C 298.15 -0.472144 4.5556 0
M  V30 3184 N 299.641 -0.532757 4.60126 0
M  V30 3185 C 300.376 -0.545462 5.708 0
M  V30 3186 N 299.872 -0.514082 6.9089 0
M  V30 3187 N 301.665 -0.59064 5.58988 0
M  V30 3188 H 293.816 0.799121 1.96794 0
M  V30 3189 H 296.079 0.297965 0.899956 0
M  V30 3190 H 295.785 0.528106 3.47712 0
M  V30 3191 H 295.659 -1.21969 3.56936 0
M  V30 3192 H 298.046 -1.40512 2.595 0
M  V30 3193 H 298.127 0.361328 2.53235 0
M  V30 3194 H 297.771 0.445 5.05947 0
M  V30 3195 H 297.701 -1.3348 5.09402 0
M  V30 3196 H 300.192 -0.562006 3.73698 0
M  V30 3197 H 300.505 -0.527195 7.71 0
M  V30 3198 H 298.85 -0.481054 6.93333 0
M  V30 3199 H 302.041 -0.61272 4.64073 0
M  V30 3200 H 302.214 -0.597073 6.45243 0
M  V30 3201 N 295.62 -1.53406 -0.361157 0
M  V30 3202 C 297.036 -1.43277 -0.703124 0
M  V30 3203 C 297.236 -0.575384 -1.9311 0
M  V30 3204 O 296.292 -0.0595362 -2.5243 0
M  V30 3205 C 297.605 -2.8653 -0.9122 0
M  V30 3206 C 299.153 -2.96191 -1.01193 0
M  V30 3207 C 299.628 -4.40514 -1.25345 0
M  V30 3208 N 301.119 -4.43962 -1.32105 0
M  V30 3209 C 301.854 -5.52746 -1.5251 0
M  V30 3210 N 301.35 -6.71567 -1.70203 0
M  V30 3211 N 303.143 -5.40331 -1.54916 0
M  V30 3212 H 295.294 -2.07654 0.446475 0
M  V30 3213 H 297.557 -0.937944 0.137715 0
M  V30 3214 H 297.263 -3.51605 -0.0816414 0
M  V30 3215 H 297.137 -3.30441 -1.81903 0
M  V30 3216 H 299.524 -2.31266 -1.83303 0
M  V30 3217 H 299.605 -2.55667 -0.0823929 0
M  V30 3218 H 299.249 -5.06014 -0.437346 0
M  V30 3219 H 299.179 -4.78614 -2.19627 0
M  V30 3220 H 301.67 -3.58332 -1.20028 0
M  V30 3221 H 301.983 -7.50241 -1.85359 0
M  V30 3222 H 300.328 -6.74545 -1.67373 0
M  V30 3223 H 303.519 -4.46465 -1.40663 0
M  V30 3224 H 303.692 -6.25173 -1.70477 0
M  V30 3225 N 297.098 0.621204 -1.44841 0
M  V30 3226 C 298.347 1.37658 -1.47422 0
M  V30 3227 C 298.66 1.95264 -0.114629 0
M  V30 3228 O 299.866 2.71494 -0.0180199 0
M  V30 3229 C 298.322 2.49285 -2.59586 0
M  V30 3230 C 297.93 1.98149 -4.01797 0
M  V30 3231 C 299.674 3.26409 -2.71399 0
M  V30 3232 C 297.581 3.07178 -5.05367 0
M  V30 3233 H 296.511 0.517344 -0.548517 0
M  V30 3234 H 299.162 0.667257 -1.70938 0
M  V30 3235 H 297.544 3.22839 -2.29328 0
M  V30 3236 H 298.718 1.31395 -4.41669 0
M  V30 3237 H 297.033 1.33812 -3.94314 0
M  V30 3238 H 299.63 4.07706 -3.45948 0
M  V30 3239 H 299.973 3.76535 -1.77559 0
M  V30 3240 H 300.506 2.5995 -3.01116 0
M  V30 3241 H 297.245 2.61985 -6.00869 0
M  V30 3242 H 296.765 3.72542 -4.70077 0
M  V30 3243 H 298.444 3.71789 -5.29511 0
M  V30 3244 N 298.576 1.31904 0.862503 0
M  V30 3245 C 299.508 1.16005 1.97675 0
M  V30 3246 C 300.521 0.0971234 1.6251 0
M  V30 3247 O 301.71 0.345337 1.75128 0
M  V30 3248 C 298.81 0.751791 3.30456 0
M  V30 3249 C 297.983 1.90133 3.93914 0
M  V30 3250 C 297.042 1.4779 5.05019 0
M  V30 3251 O 296.068 2.18872 5.25437 0
M  V30 3252 N 297.27 0.369491 5.79323 0
M  V30 3253 H 300.035 2.11982 2.11857 0
M  V30 3254 H 297.596 1.24337 1.03691 0
M  V30 3255 H 299.588 0.451084 4.02178 0
M  V30 3256 H 298.158 -0.116593 3.12382 0
M  V30 3257 H 297.378 2.36896 3.15078 0
M  V30 3258 H 298.666 2.67111 4.33047 0
M  V30 3259 H 298.064 -0.222299 5.65263 0
M  V30 3260 H 296.621 0.128354 6.51674 0
M  V30 3261 N 300.054 -1.07777 1.14986 0
M  V30 3262 C 301.47 -1.32373 0.891596 0
M  V30 3263 C 301.67 -1.9609 -0.463788 0
M  V30 3264 O 300.726 -2.21801 -1.20667 0
M  V30 3265 C 302.039 -2.21905 2.02925 0
M  V30 3266 C 303.587 -2.35367 2.06329 0
M  V30 3267 C 304.062 -3.28245 3.19405 0
M  V30 3268 N 305.553 -3.35824 3.19024 0
M  V30 3269 C 306.288 -4.07739 4.03158 0
M  V30 3270 N 305.784 -4.82306 4.97346 0
M  V30 3271 N 307.577 -4.03635 3.91197 0
M  V30 3272 H 299.728 -0.648039 2.02273 0
M  V30 3273 H 301.991 -0.348149 0.881757 0
M  V30 3274 H 301.697 -1.82342 3.0074 0
M  V30 3275 H 301.571 -3.22407 1.95789 0
M  V30 3276 H 303.958 -2.74186 1.09116 0
M  V30 3277 H 304.039 -1.34585 2.17533 0
M  V30 3278 H 303.683 -2.90146 4.16867 0
M  V30 3279 H 303.613 -4.28971 3.05437 0
M  V30 3280 H 306.104 -2.8267 2.50811 0
M  V30 3281 H 306.417 -5.34661 5.57994 0
M  V30 3282 H 304.762 -4.81337 5.01338 0
M  V30 3283 H 307.953 -3.44491 3.16928 0
M  V30 3284 H 308.126 -4.59417 4.5699 0
M  V30 3285 N 301.532 -0.945985 -1.26051 0
M  V30 3286 C 302.948 -0.649045 -1.45807 0
M  V30 3287 C 303.148 0.796158 -1.85104 0
M  V30 3288 O 302.204 1.57233 -1.97571 0
M  V30 3289 C 303.517 -1.61458 -2.53677 0
M  V30 3290 C 305.065 -1.62481 -2.67524 0
M  V30 3291 C 305.54 -2.57776 -3.7857 0
M  V30 3292 N 307.031 -2.5609 -3.85969 0
M  V30 3293 C 307.766 -3.26508 -4.7136 0
M  V30 3294 N 307.262 -4.0637 -5.61102 0
M  V30 3295 N 309.055 -3.15437 -4.65248 0
M  V30 3296 H 301.206 -1.88005 -0.988328 0
M  V30 3297 H 303.469 -0.808198 -0.4955 0
M  V30 3298 H 303.175 -2.64644 -2.31638 0
M  V30 3299 H 303.049 -1.37036 -3.51427 0
M  V30 3300 H 305.436 -0.600167 -2.88933 0
M  V30 3301 H 305.517 -1.90958 -1.70202 0
M  V30 3302 H 305.161 -3.60361 -3.57913 0
M  V30 3303 H 305.091 -2.26587 -4.75359 0
M  V30 3304 H 307.582 -1.98105 -3.21812 0
M  V30 3305 H 307.895 -4.57042 -6.23164 0
M  V30 3306 H 306.24 -4.10469 -5.60839 0
M  V30 3307 H 309.431 -2.52525 -3.94143 0
M  V30 3308 H 309.604 -3.70584 -5.31575 0
M  V30 3309 N 303.011 1.40521 -0.713556 0
M  V30 3310 C 304.259 2.00527 -0.251692 0
M  V30 3311 C 304.58 1.56857 1.15848 0
M  V30 3312 O 303.85 0.807127 1.785 0
M  V30 3313 H 302.43 0.741551 -0.0900646 0
M  V30 3314 H 305.092 1.71887 -0.918733 0
M  V30 3315 H 304.188 3.10813 -0.283192 0
M  V30 3316 N 304.489 0.459591 1.5075 0
M  V30 3317 C 305.9 0.00171547 1.867 0
M  V30 3318 C 306.251 -1.39934 1.37525 0
M  V30 3319 O 305.376 -2.03523 0.735349 0
M  V30 3320 C 305.971 -0.00366298 3.388 0
M  V30 3321 C 304.53 -0.406026 3.74204 0
M  V30 3322 C 303.677 0.38673 2.7459 0
M  V30 3323 H 306.628 0.674413 1.43657 0
M  V30 3324 H 306.649 -0.808371 3.71814 0
M  V30 3325 H 306.161 1.01617 3.74561 0
M  V30 3326 H 304.262 -1.43063 3.4404 0
M  V30 3327 H 304.375 -0.115362 4.78961 0
M  V30 3328 H 302.739 -0.158019 2.54209 0
M  V30 3329 H 303.522 1.40585 3.13194 0
M  V30 3330 N 305.967 -1.56429 0.191757 0
M  V30 3331 C 307.207 -1.99383 -0.450099 0
M  V30 3332 C 307.571 -1.07581 -1.59029 0
M  V30 3333 O 308.772 -1.39758 -2.29611 0
M  V30 3334 C 307.043 -3.45841 -0.901611 0
M  V30 3335 S 308.602 -4.10822 -1.54177 0
M  V30 3336 H 305.42 -0.696253 -0.144057 0
M  V30 3337 H 308.022 -1.93276 0.294036 0
M  V30 3338 H 306.726 -4.10354 -0.0616596 0
M  V30 3339 H 306.257 -3.55757 -1.67929 0
M  V30 3340 H 308.272 -4.07553 -2.83046 0
M  V30 3341 N 307.445 0.0818655 -1.57387 0
M  V30 3342 C 308.694 0.781681 -1.85937 0
M  V30 3343 C 309.007 1.79246 -0.782957 0
M  V30 3344 O 310.213 2.54112 -0.955987 0
M  V30 3345 C 308.669 1.44109 -3.29789 0
M  V30 3346 C 308.277 0.469396 -4.45534 0
M  V30 3347 C 310.021 2.12386 -3.67549 0
M  V30 3348 C 307.928 1.13415 -5.80423 0
M  V30 3349 H 306.858 0.295682 -0.693605 0
M  V30 3350 H 309.509 0.0348051 -1.83467 0
M  V30 3351 H 307.891 2.23588 -3.2684 0
M  V30 3352 H 309.065 -0.294856 -4.59856 0
M  V30 3353 H 307.38 -0.108383 -4.16259 0
M  V30 3354 H 309.977 2.62878 -4.65617 0
M  V30 3355 H 310.32 2.91877 -2.96839 0
M  V30 3356 H 310.853 1.39751 -3.72444 0
M  V30 3357 H 307.592 0.379771 -6.54399 0
M  V30 3358 H 307.112 1.8695 -5.69921 0
M  V30 3359 H 308.791 1.65686 -6.25426 0
M  V30 3360 N 308.923 1.53595 0.353017 0
M  V30 3361 C 310.172 1.69603 1.09168 0
M  V30 3362 C 310.485 0.460925 1.90092 0
M  V30 3363 O 311.691 0.501774 2.66823 0
M  V30 3364 C 310.147 2.99872 1.9901 0
M  V30 3365 C 309.755 4.30687 1.23339 0
M  V30 3366 C 311.499 3.25246 2.72792 0
M  V30 3367 C 309.406 5.52036 2.12156 0
M  V30 3368 H 308.336 0.631966 0.411261 0
M  V30 3369 H 310.987 1.80096 0.351802 0
M  V30 3370 H 309.369 2.83212 2.7678 0
M  V30 3371 H 310.543 4.58019 0.505456 0
M  V30 3372 H 308.858 4.11853 0.613663 0
M  V30 3373 H 311.455 4.13095 3.39495 0
M  V30 3374 H 311.798 2.41846 3.38846 0
M  V30 3375 H 312.331 3.42638 2.021 0
M  V30 3376 H 309.07 6.37951 1.50659 0
M  V30 3377 H 308.59 5.28966 2.82764 0
M  V30 3378 H 310.269 5.87313 2.71427 0
M  V30 3379 N 310.401 -0.613514 1.45168 0
M  V30 3380 C 311.631 -1.39743 1.52169 0
M  V30 3381 C 312.039 -1.88596 0.151086 0
M  V30 3382 O 311.382 -1.6251 -0.856521 0
M  V30 3383 C 311.444 -2.64035 2.43979 0
M  V30 3384 C 311.108 -2.36861 3.90827 0
M  V30 3385 C 312.105 -1.97591 4.80889 0
M  V30 3386 C 309.79 -2.49956 4.35692 0
M  V30 3387 C 311.784 -1.71768 6.1382 0
M  V30 3388 C 309.471 -2.23747 5.68665 0
M  V30 3389 C 310.469 -1.84714 6.57548 0
M  V30 3390 O 310.157 -1.58809 7.88058 0
M  V30 3391 H 309.889 -0.434382 0.517966 0
M  V30 3392 H 312.443 -0.75587 1.90986 0
M  V30 3393 H 310.673 -3.3089 2.00122 0
M  V30 3394 H 312.362 -3.26069 2.41731 0
M  V30 3395 H 313.128 -1.87015 4.47493 0
M  V30 3396 H 309.007 -2.79305 3.66756 0
M  V30 3397 H 312.551 -1.41227 6.83155 0
M  V30 3398 H 308.448 -2.33938 6.01617 0
M  V30 3399 H 309.216 -1.7291 8.00028 0
M  V30 3400 N 311.879 -1.3236 -0.855495 0
M  V30 3401 C 312.827 -1.2118 -1.9854 0
M  V30 3402 C 313.821 -0.116788 -1.68997 0
M  V30 3403 O 315.027 -0.279657 -1.77814 0
M  V30 3404 H 311.402 -0.375608 -0.651477 0
M  V30 3405 H 313.373 -2.16743 -2.05098 0
M  V30 3406 C 312.122 -0.950849 -3.34446 0
M  V30 3407 H 311.445 -1.78563 -3.57708 0
M  V30 3408 H 312.885 -0.912863 -4.14057 0
M  V30 3409 C 311.344 0.346404 -3.35114 0
M  V30 3410 O 311.874 1.35855 -3.7803 0
M  V30 3411 N 310.08 0.36808 -2.88259 0
M  V30 3412 H 309.627 -0.456102 -2.5353 0
M  V30 3413 H 309.585 1.23591 -2.89089 0
M  V30 3414 N 313.357 1.07166 -1.15556 0
M  V30 3415 C 314.267 2.17947 -0.868116 0
M  V30 3416 C 315.283 1.73297 0.156297 0
M  V30 3417 O 316.459 2.01392 -0.0182327 0
M  V30 3418 C 313.524 3.44789 -0.36355 0
M  V30 3419 C 312.585 4.03996 -1.45209 0
M  V30 3420 C 311.818 5.24783 -0.971508 0
M  V30 3421 O 312.041 5.70109 0.182194 0
M  V30 3422 O 310.975 5.75715 -1.75603 0
M  V30 3423 H 314.801 2.4503 -1.79427 0
M  V30 3424 H 312.386 1.16539 -0.934824 0
M  V30 3425 H 314.268 4.21307 -0.0887113 0
M  V30 3426 H 312.943 3.19253 0.534708 0
M  V30 3427 H 311.85 3.29009 -1.78056 0
M  V30 3428 H 313.183 4.33808 -2.32533 0
M  V30 3429 N 314.835 0.952656 1.25548 0
M  V30 3430 C 316.112 0.523818 1.88456 0
M  V30 3431 C 316.492 -0.998871 1.85973 0
M  V30 3432 O 315.84 -1.86381 1.3219 0
M  V30 3433 C 316.05 1.0982 3.31271 0
M  V30 3434 C 317.398 1.17385 4.08051 0
M  V30 3435 O 318.422 1.04961 3.40384 0
M  V30 3436 O 317.281 1.36852 5.29088 0
M  V30 3437 H 314.375 0.172485 0.808813 0
M  V30 3438 H 316.921 1.04596 1.33633 0
M  V30 3439 H 315.693 2.1415 3.27499 0
M  V30 3440 H 315.316 0.559191 3.93648 0
M  V30 3441 N 316.313 -1.40141 0.720998 0
M  V30 3442 C 317.261 -2.3252 0.0608547 0
M  V30 3443 C 318.255 -1.52326 -0.741152 0
M  V30 3444 O 319.461 -1.68089 -0.643911 0
M  V30 3445 H 315.836 -0.751999 0.000876664 0
M  V30 3446 H 317.807 -2.8584 0.856614 0
M  V30 3447 C 316.556 -3.37331 -0.842809 0
M  V30 3448 H 315.879 -3.99108 -0.235084 0
M  V30 3449 H 317.319 -4.04452 -1.27257 0
M  V30 3450 C 315.778 -2.73246 -1.97074 0
M  V30 3451 O 316.308 -2.59998 -3.06209 0
M  V30 3452 N 314.514 -2.31547 -1.75597 0
M  V30 3453 H 314.061 -2.42522 -0.868368 0
M  V30 3454 H 314.019 -1.89007 -2.51244 0
M  V30 3455 N 317.792 -0.46758 -1.50504 0
M  V30 3456 C 319.04 0.0884469 -2.01906 0
M  V30 3457 C 319.361 1.40532 -1.35188 0
M  V30 3458 O 318.631 1.89515 -0.496079 0
M  V30 3459 H 317.211 0.0356765 -0.746148 0
M  V30 3460 H 319.873 -0.6172 -1.84869 0
M  V30 3461 H 318.969 0.2425 -3.11156 0
M  V30 3462 N 319.27 1.56325 -0.20005 0
M  V30 3463 C 320.519 1.96895 0.437652 0
M  V30 3464 C 320.832 1.08999 1.62415 0
M  V30 3465 O 322.038 1.39372 2.32997 0
M  V30 3466 C 320.494 3.50198 0.830025 0
M  V30 3467 C 320.102 4.46765 -0.332461 0
M  V30 3468 C 321.846 3.99526 1.43453 0
M  V30 3469 C 319.753 5.91344 0.0811468 0
M  V30 3470 H 318.683 0.735209 0.167282 0
M  V30 3471 H 321.334 1.81148 -0.292853 0
M  V30 3472 H 319.716 3.61467 1.61734 0
M  V30 3473 H 320.89 4.47231 -1.11 0
M  V30 3474 H 319.205 4.07657 -0.848789 0
M  V30 3475 H 321.802 5.05025 1.75652 0
M  V30 3476 H 322.145 3.44122 2.34277 0
M  V30 3477 H 322.678 3.91393 0.71109 0
M  V30 3478 H 319.417 6.50685 -0.793033 0
M  V30 3479 H 318.937 5.94121 0.823445 0
M  V30 3480 H 320.616 6.44945 0.515252 0
M  V30 3481 N 320.748 -0.0735177 1.57428 0
M  V30 3482 C 321.997 -0.771809 1.86349 0
M  V30 3483 C 322.31 -1.78828 0.792452 0
M  V30 3484 O 323.516 -2.53602 0.96945 0
M  V30 3485 C 321.972 -1.42358 3.30548 0
M  V30 3486 C 321.58 -0.445761 4.45777 0
M  V30 3487 C 323.324 -2.10434 3.6867 0
M  V30 3488 C 321.231 -1.10335 5.81016 0
M  V30 3489 H 320.161 -0.291999 0.695164 0
M  V30 3490 H 322.812 -0.0250749 1.83483 0
M  V30 3491 H 321.194 -2.21852 3.28021 0
M  V30 3492 H 322.368 0.319239 4.59693 0
M  V30 3493 H 320.683 0.130457 4.16196 0
M  V30 3494 H 323.28 -2.60405 4.67004 0
M  V30 3495 H 323.623 -2.90298 2.98383 0
M  V30 3496 H 324.156 -1.37773 3.7318 0
M  V30 3497 H 320.895 -0.345061 6.54591 0
M  V30 3498 H 320.415 -1.83925 5.70904 0
M  V30 3499 H 322.094 -1.62367 6.26295 0
M  V30 3500 N 322.226 -1.5378 -0.344866 0
M  V30 3501 C 323.173 -1.81676 -1.42346 0
M  V30 3502 C 324.143 -0.662376 -1.52321 0
M  V30 3503 O 325.328 -0.906675 -1.67881 0
M  V30 3504 C 322.468 -2.03087 -2.79015 0
M  V30 3505 C 321.581 -3.30799 -2.77842 0
M  V30 3506 C 320.716 -3.42285 -4.0622 0
M  V30 3507 C 319.755 -4.6395 -3.9927 0
M  V30 3508 N 318.892 -4.72477 -5.19336 0
M  V30 3509 H 323.732 -2.73703 -1.17858 0
M  V30 3510 H 321.269 -1.35568 -0.570949 0
M  V30 3511 H 323.227 -2.1349 -3.58438 0
M  V30 3512 H 321.857 -1.14375 -3.01858 0
M  V30 3513 H 320.909 -3.29244 -1.90533 0
M  V30 3514 H 322.221 -4.20314 -2.68584 0
M  V30 3515 H 321.375 -3.52113 -4.94066 0
M  V30 3516 H 320.114 -2.50823 -4.18258 0
M  V30 3517 H 319.119 -4.54201 -3.09809 0
M  V30 3518 H 320.344 -5.56775 -3.88817 0
M  V30 3519 H 318.29 -3.83924 -5.3192 0
M  V30 3520 H 318.207 -5.55927 -5.12329 0
M  V30 3521 H 319.475 -4.86613 -6.08957 0
M  V30 3522 N 323.704 0.605807 -1.45491 0
M  V30 3523 C 324.667 1.69836 -1.5391 0
M  V30 3524 C 325.667 1.55261 -0.418424 0
M  V30 3525 O 326.857 1.60296 -0.681965 0
M  V30 3526 C 323.989 3.09117 -1.43734 0
M  V30 3527 H 325.182 1.63738 -2.51257 0
M  V30 3528 H 322.735 0.821689 -1.32959 0
M  V30 3529 H 323.47 3.20791 -0.475788 0
M  V30 3530 H 323.255 3.21104 -2.25021 0
M  V30 3531 H 324.745 3.88696 -1.52661 0
M  V30 3532 N 325.182 1.32811 0.848464 0
M  V30 3533 C 326.429 1.23724 1.60308 0
M  V30 3534 C 326.757 -0.1994 1.93475 0
M  V30 3535 O 326.012 -1.15406 1.5805 0
M  V30 3536 C 326.311 2.04831 2.92881 0
M  V30 3537 C 325.977 3.54125 2.79117 0
M  V30 3538 C 324.639 3.94829 2.7507 0
M  V30 3539 C 326.991 4.49036 2.64606 0
M  V30 3540 C 324.319 5.28675 2.544 0
M  V30 3541 C 326.671 5.83033 2.4547 0
M  V30 3542 C 325.335 6.22931 2.39819 0
M  V30 3543 H 324.605 0.452737 0.586609 0
M  V30 3544 H 327.252 1.64301 0.983743 0
M  V30 3545 H 325.557 1.57001 3.58968 0
M  V30 3546 H 327.254 1.95164 3.50303 0
M  V30 3547 H 323.844 3.21801 2.83094 0
M  V30 3548 H 328.028 4.18505 2.66772 0
M  V30 3549 H 323.284 5.58637 2.48465 0
M  V30 3550 H 327.458 6.56186 2.33222 0
M  V30 3551 H 325.085 7.26584 2.23562 0
M  V30 3552 N 326.66 -1.06551 1.16123 0
M  V30 3553 C 328.076 -1.3142 0.905585 0
M  V30 3554 C 328.276 -1.96571 -0.442964 0
M  V30 3555 O 327.332 -2.23068 -1.18308 0
M  V30 3556 C 328.645 -2.19741 2.05267 0
M  V30 3557 C 330.193 -2.33165 2.08813 0
M  V30 3558 C 330.668 -3.24838 3.22868 0
M  V30 3559 N 332.159 -3.32421 3.22568 0
M  V30 3560 C 332.894 -4.0344 4.0746 0
M  V30 3561 N 332.39 -4.77003 5.02434 0
M  V30 3562 N 334.183 -3.99464 3.95456 0
M  V30 3563 H 326.334 -0.626548 2.02949 0
M  V30 3564 H 328.597 -0.338777 0.8854 0
M  V30 3565 H 328.303 -1.79142 3.02657 0
M  V30 3566 H 328.177 -3.20313 1.99198 0
M  V30 3567 H 330.564 -2.73013 1.12018 0
M  V30 3568 H 330.645 -1.3227 2.18948 0
M  V30 3569 H 330.289 -2.85708 4.19921 0
M  V30 3570 H 330.219 -4.25707 3.0997 0
M  V30 3571 H 332.71 -2.79994 2.53795 0
M  V30 3572 H 333.023 -5.28712 5.63634 0
M  V30 3573 H 331.368 -4.75992 5.06415 0
M  V30 3574 H 334.559 -3.4111 3.20564 0
M  V30 3575 H 334.732 -4.54544 4.61837 0
M  V30 3576 N 328.138 -0.959301 -1.25041 0
M  V30 3577 C 329.086 -0.474437 -2.2771 0
M  V30 3578 C 330.08 0.457697 -1.631 0
M  V30 3579 O 331.286 0.333912 -1.76876 0
M  V30 3580 H 327.661 -0.134936 -0.739795 0
M  V30 3581 H 329.632 -1.35251 -2.65988 0
M  V30 3582 C 328.381 0.227884 -3.46952 0
M  V30 3583 H 327.704 -0.480248 -3.96905 0
M  V30 3584 H 329.144 0.531091 -4.20661 0
M  V30 3585 C 327.603 1.452 -3.04004 0
M  V30 3586 O 328.133 2.54949 -3.10426 0
M  V30 3587 N 326.339 1.31502 -2.59144 0
M  V30 3588 H 325.886 0.422065 -2.54119 0
M  V30 3589 H 325.844 2.13521 -2.30773 0
M  V30 3590 N 329.616 1.39756 -0.72842 0
M  V30 3591 C 330.865 1.99879 -0.270407 0
M  V30 3592 C 331.178 1.58449 1.14688 0
M  V30 3593 O 332.384 2.11362 1.70407 0
M  V30 3594 C 330.84 3.57292 -0.43252 0
M  V30 3595 C 330.448 4.07688 -1.85727 0
M  V30 3596 C 332.192 4.24485 -0.0359507 0
M  V30 3597 C 330.099 5.5765 -1.96928 0
M  V30 3598 H 329.029 0.747689 -0.0973472 0
M  V30 3599 H 331.68 1.59837 -0.901355 0
M  V30 3600 H 330.062 3.95097 0.267219 0
M  V30 3601 H 331.236 3.81231 -2.58843 0
M  V30 3602 H 329.551 3.53135 -2.20646 0
M  V30 3603 H 332.148 5.34609 -0.0987484 0
M  V30 3604 H 332.491 4.03915 1.00787 0
M  V30 3605 H 333.024 3.9183 -0.686604 0
M  V30 3606 H 329.763 5.8309 -2.99476 0
M  V30 3607 H 329.283 5.8593 -1.28241 0
M  V30 3608 H 330.962 6.22957 -1.74737 0
M  V30 3609 N 331.094 0.475555 1.50254 0
M  V30 3610 C 332.505 0.0215174 1.86688 0
M  V30 3611 C 332.856 -1.38467 1.39001 0
M  V30 3612 O 331.981 -2.02732 0.756894 0
M  V30 3613 C 332.576 0.0322715 3.38785 0
M  V30 3614 C 331.135 -0.366314 3.74613 0
M  V30 3615 C 330.282 0.415832 2.74164 0
M  V30 3616 H 333.233 0.689612 1.42934 0
M  V30 3617 H 333.254 -0.76889 3.7265 0
M  V30 3618 H 332.766 1.05584 3.73462 0
M  V30 3619 H 330.867 -1.39406 3.45538 0
M  V30 3620 H 330.98 -0.064555 4.79057 0
M  V30 3621 H 329.344 -0.131048 2.54363 0
M  V30 3622 H 330.127 1.43899 3.11686 0
M  V30 3623 N 332.573 -1.56217 0.208337 0
M  V30 3624 C 333.821 -1.97558 -0.426076 0
M  V30 3625 C 334.142 -1.09683 -1.61229 0
M  V30 3626 O 333.412 -0.170956 -1.95153 0
M  V30 3627 H 331.992 -0.729575 -0.160405 0
M  V30 3628 H 334.654 -1.92606 0.298155 0
M  V30 3629 H 333.75 -3.02672 -0.761312 0
M  V30 3630 N 334.051 0.0651679 -1.57465 0
M  V30 3631 C 335.3 0.761916 -1.86756 0
M  V30 3632 C 335.613 1.78406 -0.801925 0
M  V30 3633 O 336.819 2.53084 -0.982885 0
M  V30 3634 C 335.275 1.40603 -3.31299 0
M  V30 3635 C 334.883 0.422115 -4.46007 0
M  V30 3636 C 336.627 2.08476 -3.69781 0
M  V30 3637 C 334.534 1.07252 -5.81593 0
M  V30 3638 H 333.464 0.288308 -0.696702 0
M  V30 3639 H 336.115 0.015344 -1.83494 0
M  V30 3640 H 334.497 2.20109 -3.29193 0
M  V30 3641 H 335.671 -0.343613 -4.59517 0
M  V30 3642 H 333.986 -0.152527 -4.16121 0
M  V30 3643 H 336.583 2.57925 -4.68379 0
M  V30 3644 H 336.926 2.88712 -2.99919 0
M  V30 3645 H 337.459 1.35792 -3.73905 0
M  V30 3646 H 334.198 0.310342 -6.54765 0
M  V30 3647 H 333.718 1.80895 -5.71872 0
M  V30 3648 H 335.397 1.59043 -6.27148 0
M  V30 3649 N 335.529 1.53961 0.336706 0
M  V30 3650 C 336.757 1.75483 1.09605 0
M  V30 3651 C 337.172 0.4972 1.82136 0
M  V30 3652 O 336.529 -0.53149 1.74589 0
M  V30 3653 C 336.58 2.93943 2.10428 0
M  V30 3654 O 336.301 4.14842 1.40846 0
M  V30 3655 C 337.802 3.27571 2.98684 0
M  V30 3656 H 335.022 0.586166 0.326574 0
M  V30 3657 H 337.566 2.00808 0.38683 0
M  V30 3658 H 335.721 2.70929 2.76905 0
M  V30 3659 H 336.135 4.81383 2.08255 0
M  V30 3660 H 337.609 4.13791 3.6535 0
M  V30 3661 H 338.086 2.44168 3.65074 0
M  V30 3662 H 338.692 3.52615 2.37787 0
M  V30 3663 N 337.007 -0.598083 1.45811 0
M  V30 3664 C 337.937 -1.71873 1.58057 0
M  V30 3665 C 338.918 -1.64533 0.431615 0
M  V30 3666 O 340.103 -1.82787 0.65595 0
M  V30 3667 C 337.233 -3.10495 1.55597 0
M  V30 3668 C 336.187 -3.32654 2.69305 0
M  V30 3669 C 335.513 -4.71646 2.51902 0
M  V30 3670 C 336.813 -3.21981 4.11248 0
M  V30 3671 H 338.507 -1.61881 2.51863 0
M  V30 3672 H 336.053 -0.777372 1.21214 0
M  V30 3673 H 338.006 -3.88699 1.6276 0
M  V30 3674 H 336.73 -3.2135 0.583255 0
M  V30 3675 H 335.389 -2.56843 2.61586 0
M  V30 3676 H 335.037 -4.79246 1.52748 0
M  V30 3677 H 334.737 -4.87426 3.2816 0
M  V30 3678 H 336.261 -5.52038 2.60933 0
M  V30 3679 H 337.675 -3.90049 4.20161 0
M  V30 3680 H 336.072 -3.49289 4.87972 0
M  V30 3681 H 337.142 -2.1928 4.32486 0
M  V30 3682 N 338.485 -1.33259 -0.841409 0
M  V30 3683 C 339.415 -1.25926 -1.96634 0
M  V30 3684 C 340.396 -0.140349 -1.6952 0
M  V30 3685 O 341.581 -0.329707 -1.91381 0
M  V30 3686 C 338.711 -0.99512 -3.32738 0
M  V30 3687 C 337.665 -2.0767 -3.74242 0
M  V30 3688 C 336.991 -1.66474 -5.08125 0
M  V30 3689 C 338.291 -3.49318 -3.88297 0
M  V30 3690 H 339.985 -2.20046 -2.03027 0
M  V30 3691 H 337.531 -1.05931 -0.975425 0
M  V30 3692 H 339.484 -0.930323 -4.11002 0
M  V30 3693 H 338.208 -0.0183004 -3.26595 0
M  V30 3694 H 336.867 -2.13187 -2.98239 0
M  V30 3695 H 336.515 -0.675012 -4.9845 0
M  V30 3696 H 336.215 -2.3885 -5.36865 0
M  V30 3697 H 337.739 -1.61455 -5.88867 0
M  V30 3698 H 339.153 -3.46316 -4.56879 0
M  V30 3699 H 337.55 -4.20158 -4.28471 0
M  V30 3700 H 338.62 -3.8801 -2.9082 0
M  V30 3701 N 339.963 1.05934 -1.16686 0
M  V30 3702 C 340.911 2.15603 -0.872817 0
M  V30 3703 C 341.905 1.68647 0.159576 0
M  V30 3704 O 343.111 1.79995 0.0132125 0
M  V30 3705 H 339.486 0.703885 -0.264671 0
M  V30 3706 H 341.457 2.37613 -1.80507 0
M  V30 3707 C 340.206 3.45457 -0.394344 0
M  V30 3708 H 339.529 3.81984 -1.18019 0
M  V30 3709 H 340.969 4.2339 -0.227408 0
M  V30 3710 C 339.428 3.25021 0.88673 0
M  V30 3711 O 339.958 3.50906 1.95519 0
M  V30 3712 N 338.164 2.78437 0.831925 0
M  V30 3713 H 337.711 2.57572 -0.0377619 0
M  V30 3714 H 337.669 2.65144 1.68956 0
M  V30 3715 N 341.441 0.965919 1.2453 0
M  V30 3716 C 342.687 0.62776 1.92839 0
M  V30 3717 C 343.02 -0.834694 1.75347 0
M  V30 3718 O 342.295 -1.60031 1.10546 0
M  V30 3719 C 342.578 1.00109 3.45905 0
M  V30 3720 C 342.431 2.52011 3.72573 0
M  V30 3721 C 343.75 0.53435 4.36844 0
M  V30 3722 H 340.869 0.229537 0.700344 0
M  V30 3723 H 343.511 1.2046 1.46933 0
M  V30 3724 H 341.661 0.510238 3.85135 0
M  V30 3725 H 343.333 3.08559 3.42912 0
M  V30 3726 H 341.576 2.95287 3.17786 0
M  V30 3727 H 342.247 2.73183 4.79661 0
M  V30 3728 H 344.723 0.955565 4.04979 0
M  V30 3729 H 343.599 0.824152 5.42678 0
M  V30 3730 H 343.86 -0.565589 4.38467 0
M  V30 3731 N 342.919 -1.39368 0.735821 0
M  V30 3732 C 344.144 -2.05319 0.293052 0
M  V30 3733 C 344.569 -1.55115 -1.064 0
M  V30 3734 O 343.927 -0.695261 -1.67439 0
M  V30 3735 C 343.975 -3.59305 0.305323 0
M  V30 3736 O 343.079 -4.06299 -0.706761 0
M  V30 3737 H 342.42 -0.650529 0.13307 0
M  V30 3738 H 344.95 -1.78386 1.00197 0
M  V30 3739 H 344.96 -4.07724 0.149997 0
M  V30 3740 H 343.635 -3.95207 1.29553 0
M  V30 3741 H 342.212 -3.69292 -0.517504 0
M  V30 3742 N 344.397 -0.483516 -1.5 0
M  V30 3743 C 345.344 0.304164 -2.28787 0
M  V30 3744 C 346.314 0.976114 -1.34392 0
M  V30 3745 O 347.499 0.986156 -1.63339 0
M  V30 3746 C 344.639 1.37298 -3.16612 0
M  V30 3747 C 343.752 0.714561 -4.26049 0
M  V30 3748 C 342.887 1.76232 -5.01114 0
M  V30 3749 C 341.926 1.08483 -6.0241 0
M  V30 3750 N 341.063 2.076 -6.70706 0
M  V30 3751 H 345.903 -0.373981 -2.95644 0
M  V30 3752 H 343.44 -0.196275 -1.45785 0
M  V30 3753 H 345.398 2.00445 -3.65893 0
M  V30 3754 H 344.028 2.02012 -2.51776 0
M  V30 3755 H 343.08 -0.0297798 -3.80388 0
M  V30 3756 H 344.392 0.180383 -4.98474 0
M  V30 3757 H 343.546 2.46929 -5.54176 0
M  V30 3758 H 342.285 2.33033 -4.28424 0
M  V30 3759 H 341.29 0.363545 -5.48597 0
M  V30 3760 H 342.515 0.523551 -6.77079 0
M  V30 3761 H 340.461 2.63394 -6.00799 0
M  V30 3762 H 340.378 1.59201 -7.39047 0
M  V30 3763 H 341.646 2.77639 -7.2838 0
M  V30 3764 N 345.875 1.56104 -0.216619 0
M  V30 3765 C 346.805 2.23063 0.690296 0
M  V30 3766 C 347.786 1.20072 1.20485 0
M  V30 3767 O 348.971 1.48643 1.24976 0
M  V30 3768 C 346.101 2.90672 1.90072 0
M  V30 3769 C 345.055 4.00092 1.5202 0
M  V30 3770 C 344.381 4.54972 2.80899 0
M  V30 3771 C 345.681 5.17398 0.71391 0
M  V30 3772 H 347.375 2.99109 0.132038 0
M  V30 3773 H 344.921 1.43866 0.0620664 0
M  V30 3774 H 346.874 3.36204 2.54057 0
M  V30 3775 H 345.598 2.12066 2.48386 0
M  V30 3776 H 344.257 3.55283 0.903839 0
M  V30 3777 H 343.905 3.73102 3.37348 0
M  V30 3778 H 343.605 5.28817 2.56176 0
M  V30 3779 H 345.129 5.0322 3.45836 0
M  V30 3780 H 346.543 5.59342 1.25735 0
M  V30 3781 H 344.94 5.97444 0.563951 0
M  V30 3782 H 346.01 4.84088 -0.280527 0
M  V30 3783 N 347.353 -0.0568162 1.57498 0
M  V30 3784 C 348.301 -1.08452 2.05769 0
M  V30 3785 C 349.295 -1.39164 0.965903 0
M  V30 3786 O 350.501 -1.38395 1.15095 0
M  V30 3787 H 346.876 -0.367148 0.656282 0
M  V30 3788 H 348.847 -0.651368 2.91204 0
M  V30 3789 C 347.596 -2.38543 2.52968 0
M  V30 3790 H 346.919 -2.15765 3.36579 0
M  V30 3791 H 348.359 -3.08863 2.90481 0
M  V30 3792 C 346.818 -3.05562 1.41893 0
M  V30 3793 O 347.348 -3.94262 0.769442 0
M  V30 3794 N 345.554 -2.6643 1.16032 0
M  V30 3795 H 345.101 -1.94387 1.6903 0
M  V30 3796 H 345.059 -3.11593 0.419219 0
M  V30 3797 N 348.832 -1.54138 -0.328536 0
M  V30 3798 C 350.081 -1.71318 -1.06456 0
M  V30 3799 C 350.394 -0.491109 -1.89334 0
M  V30 3800 O 351.6 -0.54416 -2.65991 0
M  V30 3801 C 350.056 -3.03 -1.94214 0
M  V30 3802 C 349.664 -4.32595 -1.16471 0
M  V30 3803 C 351.408 -3.29544 -2.67583 0
M  V30 3804 C 349.315 -5.55341 -2.03347 0
M  V30 3805 H 348.245 -0.638429 -0.401155 0
M  V30 3806 H 350.896 -1.80633 -0.323106 0
M  V30 3807 H 349.278 -2.87579 -2.72239 0
M  V30 3808 H 350.452 -4.58766 -0.432525 0
M  V30 3809 H 348.767 -4.12777 -0.548063 0
M  V30 3810 H 351.364 -4.18444 -3.3288 0
M  V30 3811 H 351.707 -2.47206 -3.34955 0
M  V30 3812 H 352.24 -3.45809 -1.96623 0
M  V30 3813 H 348.979 -6.40268 -1.40491 0
M  V30 3814 H 348.499 -5.33397 -2.74313 0
M  V30 3815 H 350.178 -5.91557 -2.62049 0
M  V30 3816 N 350.31 0.590341 -1.46126 0
M  V30 3817 C 351.24 1.71032 -1.58966 0
M  V30 3818 C 352.221 1.64302 -0.440335 0
M  V30 3819 O 353.406 1.82436 -0.665634 0
M  V30 3820 C 350.536 3.09665 -1.57241 0
M  V30 3821 C 349.49 3.31221 -2.71066 0
M  V30 3822 C 348.816 4.70303 -2.54399 0
M  V30 3823 C 350.116 3.19796 -4.1295 0
M  V30 3824 H 351.81 1.60543 -2.52718 0
M  V30 3825 H 349.356 0.770933 -1.21625 0
M  V30 3826 H 351.309 3.87831 -1.64819 0
M  V30 3827 H 350.033 3.21036 -0.600289 0
M  V30 3828 H 348.692 2.55452 -2.62944 0
M  V30 3829 H 348.34 4.78429 -1.55288 0
M  V30 3830 H 348.04 4.85679 -3.30741 0
M  V30 3831 H 349.564 5.50647 -2.63857 0
M  V30 3832 H 350.978 3.87815 -4.22223 0
M  V30 3833 H 349.375 3.46696 -4.89818 0
M  V30 3834 H 350.445 2.16983 -4.33643 0
M  V30 3835 N 351.788 1.33704 0.83433 0
M  V30 3836 C 352.735 1.24335 1.94447 0
M  V30 3837 C 353.705 0.120991 1.65659 0
M  V30 3838 O 354.89 0.300035 1.88426 0
M  V30 3839 C 352.03 0.993124 3.30501 0
M  V30 3840 C 351.143 2.20217 3.71657 0
M  V30 3841 C 350.278 1.88572 4.96602 0
M  V30 3842 C 349.317 3.05683 5.30306 0
M  V30 3843 N 348.454 2.73997 6.46429 0
M  V30 3844 H 353.294 2.1928 2.01792 0
M  V30 3845 H 350.831 1.09035 0.987404 0
M  V30 3846 H 352.789 0.828467 4.08892 0
M  V30 3847 H 351.419 0.0803902 3.227 0
M  V30 3848 H 350.471 2.47642 2.88752 0
M  V30 3849 H 351.783 3.07752 3.92543 0
M  V30 3850 H 350.937 1.68776 5.82752 0
M  V30 3851 H 349.676 0.982799 4.77695 0
M  V30 3852 H 348.681 3.26088 4.42659 0
M  V30 3853 H 349.906 3.96737 5.51159 0
M  V30 3854 H 347.852 1.86268 6.28999 0
M  V30 3855 H 347.769 3.55064 6.67432 0
M  V30 3856 H 349.037 2.57679 7.35678 0
M  V30 3857 N 353.266 -1.05314 1.17247 0
M  V30 3858 C 354.196 -2.1498 0.911362 0
M  V30 3859 C 355.177 -1.69471 -0.146169 0
M  V30 3860 O 356.362 -1.942 0.003812 0
M  V30 3861 C 353.492 -3.4472 0.422528 0
M  V30 3862 C 352.446 -4.03789 1.4191 0
M  V30 3863 C 351.772 -5.28858 0.788274 0
M  V30 3864 C 353.072 -4.41418 2.7919 0
M  V30 3865 H 354.766 -2.3708 1.82848 0
M  V30 3866 H 352.312 -1.13938 0.880569 0
M  V30 3867 H 354.265 -4.20787 0.227289 0
M  V30 3868 H 352.989 -3.22269 -0.530123 0
M  V30 3869 H 351.648 -3.2979 1.60106 0
M  V30 3870 H 351.296 -5.02709 -0.171173 0
M  V30 3871 H 350.996 -5.69338 1.45353 0
M  V30 3872 H 352.52 -6.07612 0.603282 0
M  V30 3873 H 353.934 -5.08524 2.64719 0
M  V30 3874 H 352.331 -4.92913 3.42282 0
M  V30 3875 H 353.401 -3.51819 3.33693 0
M  V30 3876 N 354.744 -0.972509 -1.24016 0
M  V30 3877 C 355.707 -0.511403 -2.23422 0
M  V30 3878 C 356.707 0.394679 -1.55881 0
M  V30 3879 O 357.897 0.189469 -1.73167 0
M  V30 3880 C 355.029 0.258769 -3.39916 0
M  V30 3881 H 356.222 -1.39024 -2.6573 0
M  V30 3882 H 353.775 -0.757585 -1.36713 0
M  V30 3883 H 354.51 1.1545 -3.03054 0
M  V30 3884 H 354.295 -0.391522 -3.9014 0
M  V30 3885 H 355.785 0.570244 -4.13688 0
M  V30 3886 N 356.222 1.38976 -0.743202 0
M  V30 3887 C 357.633 1.83123 -0.363732 0
M  V30 3888 C 357.984 1.6205 1.10609 0
M  V30 3889 O 357.109 1.11606 1.854 0
M  V30 3890 C 357.704 3.32439 -0.653408 0
M  V30 3891 C 356.263 3.74974 -0.327338 0
M  V30 3892 C 355.41 2.61878 -0.911875 0
M  V30 3893 H 358.361 1.27852 -0.940191 0
M  V30 3894 H 358.382 3.80432 0.0720031 0
M  V30 3895 H 357.894 3.47745 -1.72323 0
M  V30 3896 H 355.995 3.65252 0.736314 0
M  V30 3897 H 356.108 4.72106 -0.815631 0
M  V30 3898 H 354.472 2.52448 -0.337944 0
M  V30 3899 H 355.255 2.79987 -1.98651 0
M  V30 3900 N 357.7 0.491464 1.49741 0
M  V30 3901 C 358.948 -0.0563141 2.02022 0
M  V30 3902 C 359.269 -1.38363 1.37407 0
M  V30 3903 O 358.539 -1.88702 0.526166 0
M  V30 3904 H 357.119 -0.0238014 0.746621 0
M  V30 3905 H 359.781 0.646533 1.83864 0
M  V30 3906 H 358.877 -0.192967 3.11503 0
M  V30 3907 N 359.178 -1.55987 0.224894 0
M  V30 3908 C 360.426 -1.97998 -0.405099 0
M  V30 3909 C 360.747 -1.11387 -1.60056 0
M  V30 3910 O 360.017 -0.191645 -1.9496 0
M  V30 3911 H 358.597 -0.731235 -0.152658 0
M  V30 3912 H 361.259 -1.92279 0.318567 0
M  V30 3913 H 360.355 -3.03463 -0.729167 0
M  V30 3914 N 360.656 0.0484629 -1.57525 0
M  V30 3915 C 361.606 1.06246 -2.01732 0
M  V30 3916 C 362.59 1.33155 -0.903245 0
M  V30 3917 O 363.782 1.33065 -1.16717 0
M  V30 3918 C 360.911 2.36943 -2.48421 0
M  V30 3919 C 359.997 2.13208 -3.6661 0
M  V30 3920 N 360.388 1.5947 -4.80003 0
M  V30 3921 C 358.686 2.43581 -3.7361 0
M  V30 3922 C 359.387 1.51092 -5.61735 0
M  V30 3923 N 358.363 1.9797 -5.0627 0
M  V30 3924 H 362.165 0.640675 -2.86832 0
M  V30 3925 H 359.679 0.255134 -1.60383 0
M  V30 3926 H 361.676 3.10374 -2.78341 0
M  V30 3927 H 360.336 2.79818 -1.64718 0
M  V30 3928 H 361.347 1.28008 -5.01831 0
M  V30 3929 H 358.024 2.89662 -3.00669 0
M  V30 3930 H 359.414 1.10199 -6.62801 0
M  V30 3931 N 362.134 1.5431 0.320358 0
M  V30 3932 C 363.38 1.72924 1.05949 0
M  V30 3933 C 363.713 0.503185 1.87568 0
M  V30 3934 O 362.988 -0.499839 1.87968 0
M  V30 3935 C 363.271 3.00676 1.98156 0
M  V30 3936 C 363.124 4.3354 1.19845 0
M  V30 3937 C 364.443 3.24198 2.9763 0
M  V30 3938 H 361.562 0.629195 0.383774 0
M  V30 3939 H 364.204 1.87008 0.335854 0
M  V30 3940 H 362.354 2.888 2.59859 0
M  V30 3941 H 364.026 4.57305 0.605773 0
M  V30 3942 H 362.269 4.309 0.500784 0
M  V30 3943 H 362.94 5.19156 1.87567 0
M  V30 3944 H 365.416 3.35557 2.4605 0
M  V30 3945 H 364.292 4.14938 3.59329 0
M  V30 3946 H 364.553 2.41577 3.7026 0
M  V30 3947 N 363.613 -0.582584 1.46437 0
M  V30 3948 C 364.861 -1.33814 1.51453 0
M  V30 3949 C 365.182 -1.94277 0.167792 0
M  V30 3950 O 364.452 -1.78566 -0.805677 0
M  V30 3951 H 363.032 -0.496838 0.557818 0
M  V30 3952 H 365.694 -0.682281 1.82568 0
M  V30 3953 H 364.79 -2.14479 2.26728 0
M  V30 3954 N 365.091 -1.34144 -0.827227 0
M  V30 3955 C 366.507 -1.13732 -1.11969 0
M  V30 3956 C 366.707 0.0640463 -2.01398 0
M  V30 3957 O 365.763 0.740856 -2.41387 0
M  V30 3958 C 367.076 -2.43047 -1.77055 0
M  V30 3959 C 368.624 -2.49063 -1.89569 0
M  V30 3960 C 369.099 -3.78369 -2.58072 0
M  V30 3961 N 370.59 -3.79505 -2.65575 0
M  V30 3962 C 371.325 -4.76274 -3.19297 0
M  V30 3963 N 370.821 -5.83424 -3.73616 0
M  V30 3964 N 372.614 -4.63735 -3.17658 0
M  V30 3965 H 364.765 -2.11126 -0.232296 0
M  V30 3966 H 367.028 -0.933424 -0.165602 0
M  V30 3967 H 366.734 -3.31025 -1.18807 0
M  V30 3968 H 366.608 -2.56066 -2.76966 0
M  V30 3969 H 368.995 -1.61527 -2.46968 0
M  V30 3970 H 369.076 -2.39975 -0.885745 0
M  V30 3971 H 368.72 -4.66293 -2.01329 0
M  V30 3972 H 368.65 -3.84737 -3.59562 0
M  V30 3973 H 371.141 -3.02074 -2.27068 0
M  V30 3974 H 371.454 -6.53282 -4.12846 0
M  V30 3975 H 369.799 -5.87143 -3.71871 0
M  V30 3976 H 372.99 -3.79177 -2.74486 0
M  V30 3977 H 373.163 -5.39318 -3.59221 0
M  V30 3978 N 366.569 1.04691 -1.17803 0
M  V30 3979 C 367.816 1.77782 -0.969532 0
M  V30 3980 C 368.144 1.87926 0.501401 0
M  V30 3981 O 367.399 1.37918 1.38842 0
M  V30 3982 C 367.698 3.21467 -1.56186 0
M  V30 3983 C 367.364 3.3137 -3.05786 0
M  V30 3984 C 366.026 3.3378 -3.46619 0
M  V30 3985 C 368.378 3.31976 -4.01797 0
M  V30 3986 C 365.706 3.34431 -4.82051 0
M  V30 3987 C 368.058 3.34167 -5.37136 0
M  V30 3988 C 366.722 3.34866 -5.77426 0
M  V30 3989 H 365.992 0.650549 -0.354777 0
M  V30 3990 H 368.639 1.23006 -1.46772 0
M  V30 3991 H 366.944 3.79203 -0.985515 0
M  V30 3992 H 368.641 3.76652 -1.37602 0
M  V30 3993 H 365.231 3.3021 -2.73238 0
M  V30 3994 H 369.415 3.29311 -3.71306 0
M  V30 3995 H 364.671 3.33285 -5.12573 0
M  V30 3996 H 368.845 3.33585 -6.11305 0
M  V30 3997 H 366.472 3.35124 -6.82346 0
M  V30 3998 N 368.047 0.979072 1.23499 0
M  V30 3999 C 369.287 0.655228 1.93613 0
M  V30 4000 C 369.651 -0.796336 1.74707 0
M  V30 4001 O 370.852 -1.23094 2.38959 0
M  V30 4002 C 369.123 1.03337 3.42135 0
M  V30 4003 S 370.682 0.825793 4.3096 0
M  V30 4004 H 367.5 0.240004 0.669267 0
M  V30 4005 H 370.102 1.25843 1.49612 0
M  V30 4006 H 368.806 2.08646 3.53405 0
M  V30 4007 H 368.337 0.421397 3.91137 0
M  V30 4008 H 370.352 -0.290991 4.95346 0
M  V30 4009 N 369.525 -1.3858 0.750561 0
M  V30 4010 C 370.774 -1.99424 0.302172 0
M  V30 4011 C 371.087 -1.60254 -1.12152 0
M  V30 4012 O 372.293 -2.14046 -1.67023 0
M  V30 4013 C 370.749 -3.56558 0.489307 0
M  V30 4014 C 370.357 -4.04682 1.92189 0
M  V30 4015 C 372.101 -4.24374 0.103478 0
M  V30 4016 C 370.008 -5.54446 2.05775 0
M  V30 4017 H 368.938 -0.746046 0.10923 0
M  V30 4018 H 371.589 -1.58383 0.92667 0
M  V30 4019 H 369.971 -3.95472 -0.204329 0
M  V30 4020 H 371.145 -3.77065 2.64875 0
M  V30 4021 H 369.46 -3.4958 2.26236 0
M  V30 4022 H 372.057 -5.34384 0.183787 0
M  V30 4023 H 372.4 -4.05468 -0.943481 0
M  V30 4024 H 372.933 -3.90688 0.748854 0
M  V30 4025 H 369.672 -5.78252 3.08714 0
M  V30 4026 H 369.192 -5.83816 1.37546 0
M  V30 4027 H 370.871 -6.20099 1.84626 0
M  V30 4028 N 371.003 -0.499398 -1.49478 0
M  V30 4029 C 372.249 0.0377587 -2.03365 0
M  V30 4030 C 372.604 1.3484 -1.37244 0
M  V30 4031 O 371.897 1.85 -0.498547 0
M  V30 4032 C 372.091 0.248424 -3.56536 0
M  V30 4033 C 371.92 -1.04025 -4.37503 0
M  V30 4034 C 370.69 -1.59159 -4.79579 0
M  V30 4035 C 372.888 -1.9431 -4.76181 0
M  V30 4036 N 370.87 -2.82634 -5.44969 0
M  V30 4037 C 372.241 -3.02364 -5.41272 0
M  V30 4038 C 374.296 -1.95008 -4.58123 0
M  V30 4039 C 372.999 -4.1114 -5.90217 0
M  V30 4040 C 375.025 -3.02758 -5.08027 0
M  V30 4041 C 374.387 -4.09531 -5.73118 0
M  V30 4042 H 370.486 -0.026923 -0.781536 0
M  V30 4043 H 373.07 -0.673901 -1.82665 0
M  V30 4044 H 371.241 0.929139 -3.77123 0
M  V30 4045 H 372.973 0.782445 -3.97064 0
M  V30 4046 H 369.728 -1.13696 -4.5975 0
M  V30 4047 H 370.152 -3.45416 -5.82252 0
M  V30 4048 H 374.794 -1.13766 -4.07207 0
M  V30 4049 H 372.512 -4.93181 -6.40155 0
M  V30 4050 H 376.098 -3.04315 -4.95866 0
M  V30 4051 H 374.978 -4.91534 -6.11035 0
M  V30 4052 N 372.481 1.55866 -0.233164 0
M  V30 4053 C 373.709 2.02998 0.399905 0
M  V30 4054 C 374.124 1.11274 1.52524 0
M  V30 4055 O 373.481 0.124528 1.82075 0
M  V30 4056 C 373.532 3.4958 0.920639 0
M  V30 4057 O 373.253 4.37808 -0.159834 0
M  V30 4058 C 374.754 4.12411 1.62578 0
M  V30 4059 H 371.974 0.664006 0.0966281 0
M  V30 4060 H 374.518 2.0143 -0.353013 0
M  V30 4061 H 372.673 3.51727 1.62379 0
M  V30 4062 H 373.087 5.23981 0.23337 0
M  V30 4063 H 374.561 5.16711 1.94201 0
M  V30 4064 H 375.038 3.5809 2.54299 0
M  V30 4065 H 375.644 4.14148 0.967553 0
M  V30 4066 N 373.959 -0.0401083 1.57549 0
M  V30 4067 C 374.869 -1.06133 2.0922 0
M  V30 4068 C 375.885 -1.40356 1.0284 0
M  V30 4069 O 377.061 -1.49897 1.34509 0
M  V30 4070 C 374.126 -2.34658 2.55218 0
M  V30 4071 C 373.187 -2.07117 3.76033 0
M  V30 4072 C 372.42 -3.29514 4.19829 0
M  V30 4073 O 372.643 -4.39794 3.63232 0
M  V30 4074 O 371.577 -3.15863 5.12362 0
M  V30 4075 H 375.403 -0.652244 2.96613 0
M  V30 4076 H 372.988 -0.256368 1.47184 0
M  V30 4077 H 374.87 -3.10239 2.85184 0
M  V30 4078 H 373.545 -2.74883 1.70941 0
M  V30 4079 H 372.452 -1.29139 3.51104 0
M  V30 4080 H 373.785 -1.71754 4.61261 0
M  V30 4081 N 375.437 -1.54477 -0.31217 0
M  V30 4082 C 376.662 -1.77526 -1.07235 0
M  V30 4083 C 377.087 -0.527775 -1.80544 0
M  V30 4084 O 376.445 0.52121 -1.73646 0
M  V30 4085 C 376.493 -2.97535 -2.03728 0
M  V30 4086 O 375.597 -2.69878 -3.11833 0
M  V30 4087 H 374.938 -0.58792 -0.30862 0
M  V30 4088 H 377.468 -2.01532 -0.352993 0
M  V30 4089 H 377.478 -3.25198 -2.46395 0
M  V30 4090 H 376.153 -3.87996 -1.49774 0
M  V30 4091 H 374.73 -2.53199 -2.7376 0
M  V30 4092 N 376.915 0.57481 -1.46744 0
M  V30 4093 C 377.878 1.66533 -1.57478 0
M  V30 4094 C 378.878 1.54338 -0.451263 0
M  V30 4095 O 380.068 1.58814 -0.715813 0
M  V30 4096 C 377.2 3.05999 -1.50259 0
M  V30 4097 H 378.393 1.58372 -2.54673 0
M  V30 4098 H 375.946 0.793301 -1.34672 0
M  V30 4099 H 376.681 3.19709 -0.543725 0
M  V30 4100 H 376.466 3.16259 -2.31781 0
M  V30 4101 H 377.956 3.8537 -1.60872 0
M  V30 4102 N 378.394 1.34581 0.820102 0
M  V30 4103 C 379.641 1.27096 1.57648 0
M  V30 4104 C 379.969 -0.158317 1.93855 0
M  V30 4105 O 379.224 -1.12028 1.60463 0
M  V30 4106 C 379.523 2.10997 2.8847 0
M  V30 4107 C 379.189 3.59966 2.71543 0
M  V30 4108 C 377.851 4.00575 2.66634 0
M  V30 4109 C 380.203 4.54548 2.55021 0
M  V30 4110 C 377.531 5.33953 2.43128 0
M  V30 4111 C 379.883 5.88109 2.33047 0
M  V30 4112 C 378.547 6.27878 2.26552 0
M  V30 4113 H 377.817 0.465078 0.576874 0
M  V30 4114 H 380.464 1.6635 0.948671 0
M  V30 4115 H 378.769 1.6458 3.55557 0
M  V30 4116 H 380.466 2.0255 3.46084 0
M  V30 4117 H 377.056 3.27733 2.76205 0
M  V30 4118 H 381.24 4.24069 2.57835 0
M  V30 4119 H 376.496 5.63781 2.3656 0
M  V30 4120 H 380.67 6.60985 2.19251 0
M  V30 4121 H 378.297 7.31162 2.081 0
M  V30 4122 N 379.872 -1.04064 1.18357 0
M  V30 4123 C 381.288 -1.2947 0.933258 0
M  V30 4124 C 381.488 -1.97466 -0.401169 0
M  V30 4125 O 380.544 -2.25528 -1.13549 0
M  V30 4126 C 381.857 -2.15337 2.09882 0
M  V30 4127 C 383.405 -2.28683 2.13712 0
M  V30 4128 C 383.88 -3.17917 3.29686 0
M  V30 4129 N 385.371 -3.25504 3.29547 0
M  V30 4130 C 386.106 -3.94706 4.15926 0
M  V30 4131 N 385.602 -4.66239 5.12439 0
M  V30 4132 N 387.395 -3.90986 4.0384 0
M  V30 4133 H 379.546 -0.583359 2.04232 0
M  V30 4134 H 381.809 -0.319921 0.892387 0
M  V30 4135 H 381.515 -1.72682 3.06389 0
M  V30 4136 H 381.389 -3.16015 2.05947 0
M  V30 4137 H 383.776 -2.70575 1.17784 0
M  V30 4138 H 383.857 -1.27596 2.21705 0
M  V30 4139 H 383.501 -2.76736 4.25887 0
M  V30 4140 H 383.431 -4.19036 3.1893 0
M  V30 4141 H 385.922 -2.74547 2.59677 0
M  V30 4142 H 386.235 -5.16638 5.74722 0
M  V30 4143 H 384.58 -4.65143 5.16398 0
M  V30 4144 H 387.771 -3.34234 3.27727 0
M  V30 4145 H 387.944 -4.44646 4.71375 0
M  V30 4146 N 381.35 -0.985608 -1.22978 0
M  V30 4147 C 382.297 -0.529825 -2.24636 0
M  V30 4148 C 383.267 0.434028 -1.60329 0
M  V30 4149 O 384.452 0.340414 -1.87739 0
M  V30 4150 C 381.592 0.156533 -3.44745 0
M  V30 4151 C 380.705 -0.848197 -4.23591 0
M  V30 4152 C 379.84 -0.136109 -5.31026 0
M  V30 4153 C 378.879 -1.1297 -6.01585 0
M  V30 4154 N 378.016 -0.446415 -7.00679 0
M  V30 4155 H 382.856 -1.40148 -2.62988 0
M  V30 4156 H 380.393 -0.702168 -1.29259 0
M  V30 4157 H 382.351 0.571324 -4.1327 0
M  V30 4158 H 380.981 0.992025 -3.07179 0
M  V30 4159 H 380.033 -1.38135 -3.54433 0
M  V30 4160 H 381.345 -1.60512 -4.72268 0
M  V30 4161 H 380.499 0.335784 -6.0577 0
M  V30 4162 H 379.238 0.653373 -4.83304 0
M  V30 4163 H 378.243 -1.6123 -5.25628 0
M  V30 4164 H 379.468 -1.91993 -6.51395 0
M  V30 4165 H 377.414 0.323763 -6.55201 0
M  V30 4166 H 377.331 -1.1419 -7.47326 0
M  V30 4167 H 378.599 0.00291697 -7.795 0
M  V30 4168 N 382.828 1.3818 -0.7579 0
M  V30 4169 C 383.758 2.33027 -0.148597 0
M  V30 4170 C 384.739 1.55085 0.69875 0
M  V30 4171 O 385.924 1.83384 0.639053 0
M  V30 4172 C 383.054 3.3928 0.742034 0
M  V30 4173 C 382.008 4.28 -0.00291946 0
M  V30 4174 C 381.334 5.25146 1.00625 0
M  V30 4175 C 382.634 5.08938 -1.17385 0
M  V30 4176 H 384.328 2.84231 -0.940909 0
M  V30 4177 H 381.874 1.36659 -0.453908 0
M  V30 4178 H 383.827 4.046 1.17799 0
M  V30 4179 H 382.551 2.86569 1.56671 0
M  V30 4180 H 381.21 3.64192 -0.419504 0
M  V30 4181 H 380.858 4.68721 1.8251 0
M  V30 4182 H 380.558 5.85361 0.512428 0
M  V30 4183 H 382.082 5.93342 1.44143 0
M  V30 4184 H 383.496 5.67474 -0.815224 0
M  V30 4185 H 381.893 5.7841 -1.59882 0
M  V30 4186 H 382.963 4.42424 -1.98468 0
M  V30 4187 N 384.306 0.507319 1.49211 0
M  V30 4188 C 385.583 -0.0982702 1.95353 0
M  V30 4189 C 385.963 -1.53516 1.449 0
M  V30 4190 O 385.311 -2.18594 0.66551 0
M  V30 4191 C 385.521 -0.00440283 3.49 0
M  V30 4192 C 386.869 -0.175147 4.24239 0
M  V30 4193 O 387.893 -0.0792891 3.56112 0
M  V30 4194 O 386.752 -0.37276 5.45227 0
M  V30 4195 H 383.846 -0.0918236 0.821887 0
M  V30 4196 H 386.392 0.570307 1.5983 0
M  V30 4197 H 385.164 0.997402 3.78375 0
M  V30 4198 H 384.787 -0.712845 3.91158 0
M  V30 4199 N 385.784 -1.5574 0.241426 0
M  V30 4200 C 386.694 -2.2479 -0.671305 0
M  V30 4201 C 387.71 -1.26217 -1.19772 0
M  V30 4202 O 388.886 -1.59079 -1.23514 0
M  V30 4203 C 385.951 -2.92966 -1.85396 0
M  V30 4204 C 385.012 -4.06935 -1.36756 0
M  V30 4205 C 384.245 -4.71851 -2.49384 0
M  V30 4206 O 384.468 -4.35823 -3.67987 0
M  V30 4207 O 383.402 -5.60467 -2.19454 0
M  V30 4208 H 387.228 -3.0349 -0.112966 0
M  V30 4209 H 384.813 -1.49397 0.0101513 0
M  V30 4210 H 386.695 -3.35927 -2.54423 0
M  V30 4211 H 385.37 -2.17211 -2.40002 0
M  V30 4212 H 384.277 -3.68503 -0.644726 0
M  V30 4213 H 385.61 -4.84492 -0.867647 0
M  V30 4214 N 387.262 0.0317525 -1.57568 0
M  V30 4215 C 388.192 1.03274 -2.0942 0
M  V30 4216 C 389.173 1.3788 -0.996143 0
M  V30 4217 O 390.358 1.46811 -1.27122 0
M  V30 4218 C 387.488 2.33448 -2.57137 0
M  V30 4219 C 386.442 2.13091 -3.71182 0
M  V30 4220 C 385.768 3.49001 -4.05095 0
M  V30 4221 C 387.068 1.51928 -4.99715 0
M  V30 4222 H 388.762 0.60112 -2.93303 0
M  V30 4223 H 386.308 0.287705 -1.41097 0
M  V30 4224 H 388.261 3.03802 -2.92032 0
M  V30 4225 H 386.985 2.78665 -1.70333 0
M  V30 4226 H 385.644 1.45171 -3.36632 0
M  V30 4227 H 385.292 3.91862 -3.15362 0
M  V30 4228 H 384.992 3.36207 -4.81911 0
M  V30 4229 H 386.516 4.20721 -4.42522 0
M  V30 4230 H 387.93 2.12196 -5.32584 0
M  V30 4231 H 386.327 1.49716 -5.81124 0
M  V30 4232 H 387.397 0.484811 -4.8247 0
M  V30 4233 N 388.74 1.54641 0.303973 0
M  V30 4234 C 389.97 1.77511 1.05705 0
M  V30 4235 C 390.378 0.533228 1.81531 0
M  V30 4236 O 389.721 -0.506423 1.76582 0
M  V30 4237 C 389.783 2.92779 2.08617 0
M  V30 4238 C 389.447 4.30977 1.52013 0
M  V30 4239 C 390.444 5.11115 0.9517 0
M  V30 4240 C 388.129 4.77571 1.55665 0
M  V30 4241 C 390.123 6.35966 0.427327 0
M  V30 4242 C 387.81 6.02384 1.02841 0
M  V30 4243 C 388.808 6.81417 0.464713 0
M  V30 4244 O 388.496 8.03881 -0.0555283 0
M  V30 4245 H 388.228 0.59579 0.319391 0
M  V30 4246 H 390.782 2.02401 0.349712 0
M  V30 4247 H 389.012 2.63506 2.83022 0
M  V30 4248 H 390.701 3.03252 2.69802 0
M  V30 4249 H 391.467 4.76264 0.916407 0
M  V30 4250 H 387.346 4.16085 1.9848 0
M  V30 4251 H 390.89 6.97599 -0.0133062 0
M  V30 4252 H 386.787 6.36723 1.06084 0
M  V30 4253 H 387.555 8.18479 0.0580522 0
M  V30 4254 N 390.218 -0.567019 1.47046 0
M  V30 4255 C 391.466 -1.322 1.52864 0
M  V30 4256 C 391.787 -1.94088 0.188388 0
M  V30 4257 O 391.057 -1.7941 -0.786693 0
M  V30 4258 H 389.637 -0.490894 0.563056 0
M  V30 4259 H 392.299 -0.662879 1.83281 0
M  V30 4260 H 391.395 -2.12062 2.2899 0
M  V30 4261 N 391.696 -1.35014 -0.812953 0
M  V30 4262 C 392.924 -1.31031 -1.6012 0
M  V30 4263 C 393.339 0.113558 -1.88458 0
M  V30 4264 O 392.696 1.06363 -1.48301 0
M  V30 4265 C 392.747 -2.10872 -2.93624 0
M  V30 4266 O 392.468 -3.47706 -2.66518 0
M  V30 4267 C 393.969 -2.14401 -3.88004 0
M  V30 4268 H 391.189 -0.45037 -0.497401 0
M  V30 4269 H 393.733 -1.77775 -1.01076 0
M  V30 4270 H 391.888 -1.67744 -3.492 0
M  V30 4271 H 392.302 -3.89097 -3.51715 0
M  V30 4272 H 393.776 -2.74669 -4.78812 0
M  V30 4273 H 394.253 -1.14105 -4.24119 0
M  V30 4274 H 394.859 -2.57662 -3.38364 0
M  V30 4275 N 393.175 1.03435 -1.18907 0
M  V30 4276 C 394.421 1.7713 -0.99982 0
M  V30 4277 C 394.776 1.86695 0.465049 0
M  V30 4278 O 394.069 1.36866 1.34083 0
M  V30 4279 C 394.263 3.19792 -1.59586 0
M  V30 4280 C 394.092 3.24134 -3.11717 0
M  V30 4281 C 392.862 3.32398 -3.80578 0
M  V30 4282 C 395.06 3.11625 -4.09138 0
M  V30 4283 N 393.042 3.26055 -5.20155 0
M  V30 4284 C 394.413 3.12855 -5.35277 0
M  V30 4285 C 396.468 2.95713 -4.00572 0
M  V30 4286 C 395.171 2.99805 -6.53842 0
M  V30 4287 C 397.197 2.84011 -5.1874 0
M  V30 4288 C 396.559 2.8589 -6.43775 0
M  V30 4289 H 392.658 0.659683 -0.419931 0
M  V30 4290 H 395.242 1.2317 -1.50789 0
M  V30 4291 H 393.413 3.72085 -1.11389 0
M  V30 4292 H 395.145 3.81819 -1.3415 0
M  V30 4293 H 391.9 3.38392 -3.31342 0
M  V30 4294 H 392.324 3.26307 -5.93172 0
M  V30 4295 H 396.966 2.93086 -3.0473 0
M  V30 4296 H 394.684 3.01184 -7.49876 0
M  V30 4297 H 398.27 2.72744 -5.13909 0
M  V30 4298 H 397.15 2.76931 -7.33675 0
M  V30 4299 N 394.653 0.992116 1.22453 0
M  V30 4300 C 396.069 0.702713 1.43297 0
M  V30 4301 C 396.269 -0.726909 1.87932 0
M  V30 4302 O 395.325 -1.49792 2.0327 0
M  V30 4303 C 396.638 1.70762 2.47509 0
M  V30 4304 C 398.186 1.72298 2.61309 0
M  V30 4305 C 398.661 2.71649 3.68742 0
M  V30 4306 N 400.152 2.70239 3.76199 0
M  V30 4307 C 400.887 3.43778 4.58917 0
M  V30 4308 N 400.383 4.26914 5.45633 0
M  V30 4309 N 402.176 3.32487 4.5322 0
M  V30 4310 H 394.327 1.91543 0.917871 0
M  V30 4311 H 396.59 0.826031 0.465162 0
M  V30 4312 H 396.296 2.73059 2.21657 0
M  V30 4313 H 396.17 1.49985 3.46099 0
M  V30 4314 H 398.557 0.706989 2.86506 0
M  V30 4315 H 398.638 1.97143 1.62997 0
M  V30 4316 H 398.282 3.73397 3.44292 0
M  V30 4317 H 398.212 2.44074 4.66622 0
M  V30 4318 H 400.703 2.09912 3.14237 0
M  V30 4319 H 401.016 4.79855 6.05771 0
M  V30 4320 H 399.361 4.31002 5.45218 0
M  V30 4321 H 402.552 2.6698 3.84499 0
M  V30 4322 H 402.725 3.90058 5.17454 0
M  V30 4323 N 396.131 -1.37776 0.765217 0
M  V30 4324 C 397.078 -2.30342 0.145274 0
M  V30 4325 C 398.048 -1.5077 -0.696971 0
M  V30 4326 O 399.233 -1.79362 -0.650689 0
M  V30 4327 C 396.373 -3.37227 -0.732939 0
M  V30 4328 C 395.486 -4.31819 0.125199 0
M  V30 4329 C 394.621 -5.25777 -0.757107 0
M  V30 4330 C 393.66 -6.12012 0.103963 0
M  V30 4331 N 392.797 -6.98232 -0.735953 0
M  V30 4332 H 397.637 -2.8278 0.940195 0
M  V30 4333 H 395.174 -1.39211 0.475255 0
M  V30 4334 H 397.132 -3.97818 -1.25686 0
M  V30 4335 H 395.762 -2.86171 -1.49353 0
M  V30 4336 H 394.814 -3.7259 0.766865 0
M  V30 4337 H 396.126 -4.92509 0.789683 0
M  V30 4338 H 395.28 -5.91541 -1.34776 0
M  V30 4339 H 394.019 -4.65481 -1.45529 0
M  V30 4340 H 393.024 -5.45233 0.707197 0
M  V30 4341 H 394.249 -6.74379 0.799381 0
M  V30 4342 H 392.195 -6.40472 -1.41887 0
M  V30 4343 H 392.112 -7.55891 -0.128624 0
M  V30 4344 H 393.38 -7.68393 -1.31121 0
M  V30 4345 N 397.609 -0.515225 -1.4894 0
M  V30 4346 C 398.572 0.244681 -2.2789 0
M  V30 4347 C 399.572 0.881166 -1.34507 0
M  V30 4348 O 400.762 0.743497 -1.57537 0
M  V30 4349 C 397.894 1.35247 -3.12923 0
M  V30 4350 H 399.087 -0.448289 -2.96531 0
M  V30 4351 H 396.64 -0.270656 -1.53939 0
M  V30 4352 H 397.375 2.07916 -2.48881 0
M  V30 4353 H 397.16 0.901374 -3.81599 0
M  V30 4354 H 398.65 1.88737 -3.72516 0
M  V30 4355 N 399.087 1.5561 -0.249682 0
M  V30 4356 C 400.05 2.20217 0.635394 0
M  V30 4357 C 401.05 1.17227 1.10066 0
M  V30 4358 O 402.24 1.42292 1.00492 0
M  V30 4359 C 399.372 2.84794 1.87363 0
M  V30 4360 H 400.565 2.99814 0.0716752 0
M  V30 4361 H 398.118 1.563 -0.000153234 0
M  V30 4362 H 398.853 2.09142 2.47851 0
M  V30 4363 H 398.638 3.60241 1.5482 0
M  V30 4364 H 400.128 3.3423 2.5036 0
M  V30 4365 N 400.565 -0.0233959 1.57583 0
M  V30 4366 C 401.79 -0.728376 1.94189 0
M  V30 4367 C 402.215 -1.67793 0.850119 0
M  V30 4368 O 401.573 -1.80262 -0.19371 0
M  V30 4369 C 401.621 -1.45669 3.29868 0
M  V30 4370 O 400.725 -2.57013 3.22518 0
M  V30 4371 H 400.066 -0.195493 0.63457 0
M  V30 4372 H 402.596 0.0228214 2.04587 0
M  V30 4373 H 402.606 -1.82535 3.6489 0
M  V30 4374 H 401.281 -0.760314 4.08891 0
M  V30 4375 H 399.858 -2.22648 2.99136 0
M  V30 4376 N 402.043 -1.548 -0.295768 0
M  V30 4377 C 402.973 -1.89115 -1.36959 0
M  V30 4378 C 403.954 -0.75059 -1.52644 0
M  V30 4379 O 405.139 -1.00678 -1.66065 0
M  V30 4380 C 402.269 -2.14307 -2.73295 0
M  V30 4381 C 401.223 -3.30151 -2.72368 0
M  V30 4382 C 400.549 -3.40772 -4.12042 0
M  V30 4383 C 401.849 -4.67126 -2.33646 0
M  V30 4384 H 403.543 -2.79053 -1.08488 0
M  V30 4385 H 401.089 -1.34266 -0.520443 0
M  V30 4386 H 403.042 -2.36898 -3.48507 0
M  V30 4387 H 401.766 -1.21145 -3.03301 0
M  V30 4388 H 400.425 -3.0749 -1.99613 0
M  V30 4389 H 400.073 -2.45117 -4.39234 0
M  V30 4390 H 399.773 -4.18645 -4.12322 0
M  V30 4391 H 401.297 -3.6563 -4.89027 0
M  V30 4392 H 402.711 -4.89414 -2.98575 0
M  V30 4393 H 401.108 -5.47751 -2.45129 0
M  V30 4394 H 402.178 -4.67489 -1.28772 0
M  V30 4395 N 403.521 0.559213 -1.47345 0
M  V30 4396 C 404.468 1.66645 -1.59682 0
M  V30 4397 C 405.438 1.60168 -0.43994 0
M  V30 4398 O 406.623 1.79031 -0.659736 0
M  V30 4399 C 403.763 3.04969 -1.61518 0
M  V30 4400 C 402.876 3.21897 -2.88108 0
M  V30 4401 C 402.011 4.50608 -2.81294 0
M  V30 4402 C 401.05 4.60961 -4.02717 0
M  V30 4403 N 400.187 5.81024 -3.94151 0
M  V30 4404 H 405.027 1.55439 -2.54249 0
M  V30 4405 H 402.564 0.757219 -1.26113 0
M  V30 4406 H 404.522 3.85064 -1.60566 0
M  V30 4407 H 403.152 3.15015 -0.704645 0
M  V30 4408 H 402.204 2.35248 -2.98936 0
M  V30 4409 H 403.516 3.25412 -3.78032 0
M  V30 4410 H 402.67 5.3896 -2.7858 0
M  V30 4411 H 401.409 4.49568 -1.89049 0
M  V30 4412 H 400.414 3.71021 -4.05738 0
M  V30 4413 H 401.639 4.63761 -4.96087 0
M  V30 4414 H 399.585 5.80938 -3.04708 0
M  V30 4415 H 399.502 5.85909 -4.77752 0
M  V30 4416 H 400.77 6.71744 -3.9545 0
M  V30 4417 N 404.999 1.35443 0.805782 0
M  V30 4418 C 406.224 1.32037 1.59941 0
M  V30 4419 C 406.649 -0.0994215 1.87837 0
M  V30 4420 O 406.007 -1.06648 1.46615 0
M  V30 4421 C 406.055 2.13354 2.90711 0
M  V30 4422 O 405.159 1.5148 3.83572 0
M  V30 4423 H 404.5 0.452666 0.485787 0
M  V30 4424 H 407.03 1.78496 1.00002 0
M  V30 4425 H 407.04 2.25338 3.40128 0
M  V30 4426 H 405.715 3.16572 2.69732 0
M  V30 4427 H 404.292 1.4834 3.42125 0
M  V30 4428 N 406.477 -1.02803 1.19454 0
M  V30 4429 C 407.425 -2.13213 0.929673 0
M  V30 4430 C 408.419 -1.69011 -0.114806 0
M  V30 4431 O 409.625 -1.79967 0.0345147 0
M  V30 4432 H 406 -0.69662 0.28324 0
M  V30 4433 H 407.971 -2.32744 1.86743 0
M  V30 4434 C 406.72 -3.4429 0.485797 0
M  V30 4435 H 406.043 -3.7872 1.28105 0
M  V30 4436 H 407.483 -4.22638 0.339582 0
M  V30 4437 C 405.942 -3.27258 -0.800244 0
M  V30 4438 O 406.472 -3.55967 -1.86146 0
M  V30 4439 N 404.678 -2.80545 -0.75781 0
M  V30 4440 H 404.225 -2.57382 0.106039 0
M  V30 4441 H 404.183 -2.6953 -1.61867 0
M  V30 4442 N 407.956 -0.998596 -1.21925 0
M  V30 4443 C 409.186 -0.695276 -1.94549 0
M  V30 4444 C 409.594 0.745079 -1.73911 0
M  V30 4445 O 408.937 1.51507 -1.03881 0
M  V30 4446 C 408.999 -0.928485 -3.47303 0
M  V30 4447 C 408.663 -2.35443 -3.91683 0
M  V30 4448 C 409.66 -3.33428 -3.98901 0
M  V30 4449 C 407.345 -2.69038 -4.24174 0
M  V30 4450 C 409.339 -4.63079 -4.37992 0
M  V30 4451 C 407.026 -3.98906 -4.62944 0
M  V30 4452 C 408.024 -4.95738 -4.69822 0
M  V30 4453 O 407.712 -6.23285 -5.07711 0
M  V30 4454 H 407.444 -0.255902 -0.625692 0
M  V30 4455 H 409.998 -1.33767 -1.5587 0
M  V30 4456 H 408.228 -0.228917 -3.86022 0
M  V30 4457 H 409.917 -0.619539 -4.01144 0
M  V30 4458 H 410.683 -3.08807 -3.73983 0
M  V30 4459 H 406.562 -1.94367 -4.18022 0
M  V30 4460 H 410.106 -5.38658 -4.43275 0
M  V30 4461 H 406.003 -4.23314 -4.87314 0
M  V30 4462 H 406.771 -6.27306 -5.25766 0
M  V30 4463 N 409.434 1.37368 -0.772513 0
M  V30 4464 C 410.382 2.32134 -0.147111 0
M  V30 4465 C 411.376 1.54972 0.684106 0
M  V30 4466 O 412.582 1.70363 0.581083 0
M  V30 4467 H 408.957 0.751449 -0.028786 0
M  V30 4468 H 410.928 2.82464 -0.962112 0
M  V30 4469 C 409.677 3.40226 0.71703 0
M  V30 4470 H 409 3.99706 0.0867951 0
M  V30 4471 H 410.44 4.08897 1.12159 0
M  V30 4472 C 408.899 2.80372 1.86797 0
M  V30 4473 O 409.429 2.71183 2.96349 0
M  V30 4474 N 407.635 2.37904 1.66883 0
M  V30 4475 H 407.182 2.45578 0.777759 0
M  V30 4476 H 407.14 1.98202 2.44056 0
M  V30 4477 N 410.912 0.523116 1.48665 0
M  V30 4478 C 411.842 -0.23231 2.32342 0
M  V30 4479 C 412.823 -0.941637 1.41659 0
M  V30 4480 O 414.008 -0.928751 1.70552 0
M  V30 4481 C 411.138 -1.28387 3.22698 0
M  V30 4482 C 410.092 -0.693098 4.22351 0
M  V30 4483 C 409.418 -1.8468 5.01794 0
M  V30 4484 C 410.718 0.33063 5.21252 0
M  V30 4485 H 412.412 0.466192 2.95748 0
M  V30 4486 H 409.958 0.225643 1.42221 0
M  V30 4487 H 411.911 -1.82024 3.80059 0
M  V30 4488 H 410.635 -2.01186 2.57278 0
M  V30 4489 H 409.294 -0.178299 3.66166 0
M  V30 4490 H 408.942 -2.56301 4.32804 0
M  V30 4491 H 408.642 -1.45747 5.69238 0
M  V30 4492 H 410.166 -2.38709 5.62006 0
M  V30 4493 H 411.58 -0.118407 5.73178 0
M  V30 4494 H 409.977 0.636974 5.9671 0
M  V30 4495 H 411.047 1.23883 4.68808 0
M  V30 4496 N 412.39 -1.55475 0.257931 0
M  V30 4497 C 413.801 -1.8511 -0.243135 0
M  V30 4498 C 414.152 -1.17986 -1.5676 0
M  V30 4499 O 413.277 -0.462102 -2.11409 0
M  V30 4500 C 413.872 -3.35826 -0.447929 0
M  V30 4501 C 412.431 -3.65647 -0.893245 0
M  V30 4502 C 411.578 -2.7729 0.0232965 0
M  V30 4503 H 414.529 -1.51261 0.480199 0
M  V30 4504 H 414.55 -3.58002 -1.28898 0
M  V30 4505 H 414.062 -3.84652 0.516196 0
M  V30 4506 H 412.163 -3.22308 -1.86945 0
M  V30 4507 H 412.276 -4.73312 -0.742469 0
M  V30 4508 H 410.64 -2.49942 -0.490021 0
M  V30 4509 H 411.423 -3.28926 0.982994 0
M  V30 4510 N 413.868 0.0150385 -1.57593 0
M  V30 4511 C 414.801 1.04475 -2.0288 0
M  V30 4512 C 415.779 1.3436 -0.915764 0
M  V30 4513 O 416.963 1.46779 -1.18271 0
M  V30 4514 C 414.09 2.37608 -2.41371 0
M  V30 4515 C 413.136 2.23487 -3.63257 0
M  V30 4516 S 413.969 1.57505 -5.11813 0
M  V30 4517 C 415.125 2.921 -5.5356 0
M  V30 4518 H 415.358 0.65907 -2.89903 0
M  V30 4519 H 412.891 0.225452 -1.52745 0
M  V30 4520 H 414.849 3.14165 -2.64217 0
M  V30 4521 H 413.51 2.7332 -1.54775 0
M  V30 4522 H 412.703 3.21802 -3.87891 0
M  V30 4523 H 412.305 1.55074 -3.40335 0
M  V30 4524 H 414.597 3.88419 -5.55101 0
M  V30 4525 H 415.54 2.72184 -6.53698 0
M  V30 4526 H 415.948 2.95318 -4.8109 0
M  V30 4527 N 415.346 1.54954 0.287554 0
M  V30 4528 C 416.296 1.8322 1.357 0
M  V30 4529 C 417.28 0.690152 1.45347 0
M  V30 4530 O 418.472 0.951137 1.49273 0
M  V30 4531 C 415.601 2.09481 2.71979 0
M  V30 4532 C 414.687 3.29906 2.66502 0
M  V30 4533 N 415.078 4.50154 2.30641 0
M  V30 4534 C 413.376 3.32203 2.97585 0
M  V30 4535 C 414.077 5.32209 2.34794 0
M  V30 4536 N 413.053 4.70258 2.72688 0
M  V30 4537 H 416.855 2.73746 1.0696 0
M  V30 4538 H 414.369 1.54635 0.496167 0
M  V30 4539 H 416.366 2.27882 3.49107 0
M  V30 4540 H 415.026 1.2023 3.0162 0
M  V30 4541 H 416.037 4.76515 2.02865 0
M  V30 4542 H 412.714 2.53101 3.32034 0
M  V30 4543 H 414.104 6.38321 2.09753 0
M  V30 4544 N 416.824 -0.551391 1.4764 0
M  V30 4545 C 417.771 -1.65796 1.60563 0
M  V30 4546 C 418.741 -1.59932 0.448428 0
M  V30 4547 O 419.926 -1.78679 0.669222 0
M  V30 4548 C 417.066 -3.04108 1.63133 0
M  V30 4549 C 416.179 -3.20365 2.89811 0
M  V30 4550 C 415.314 -4.49109 2.8368 0
M  V30 4551 C 414.353 -4.58819 4.05156 0
M  V30 4552 N 413.49 -5.78926 3.97227 0
M  V30 4553 H 418.33 -1.54088 2.5507 0
M  V30 4554 H 415.867 -0.75052 1.26513 0
M  V30 4555 H 417.825 -3.84207 1.62606 0
M  V30 4556 H 416.455 -3.14637 0.721341 0
M  V30 4557 H 415.507 -2.33659 3.00179 0
M  V30 4558 H 416.819 -3.23402 3.79753 0
M  V30 4559 H 415.973 -5.37475 2.81434 0
M  V30 4560 H 414.712 -4.4856 1.91431 0
M  V30 4561 H 413.717 -3.68864 4.077 0
M  V30 4562 H 414.942 -4.61124 4.98539 0
M  V30 4563 H 412.888 -5.79314 3.07785 0
M  V30 4564 H 412.805 -5.83367 4.80853 0
M  V30 4565 H 414.073 -6.69637 3.99007 0
M  V30 4566 N 418.302 -1.35869 -0.798587 0
M  V30 4567 C 419.235 -1.23801 -1.91699 0
M  V30 4568 C 420.213 -0.124143 -1.62125 0
M  V30 4569 O 421.397 -0.293656 -1.86199 0
M  V30 4570 C 418.524 -0.908063 -3.263 0
M  V30 4571 C 417.57 -2.0351 -3.74815 0
M  V30 4572 S 418.403 -3.65183 -3.91665 0
M  V30 4573 C 419.559 -3.34283 -5.29156 0
M  V30 4574 H 419.792 -2.18466 -2.01643 0
M  V30 4575 H 417.325 -1.21178 -0.956833 0
M  V30 4576 H 419.283 -0.724506 -4.04056 0
M  V30 4577 H 417.944 0.0206584 -3.14093 0
M  V30 4578 H 417.137 -1.75858 -4.72324 0
M  V30 4579 H 416.739 -2.1774 -3.04081 0
M  V30 4580 H 419.031 -2.87607 -6.13424 0
M  V30 4581 H 419.974 -4.31022 -5.61806 0
M  V30 4582 H 420.382 -2.69854 -4.95822 0
M  V30 4583 N 419.78 1.02168 -1.19998 0
M  V30 4584 C 421.029 1.75091 -1.0013 0
M  V30 4585 C 421.342 1.89923 0.467835 0
M  V30 4586 O 422.548 2.59888 0.785515 0
M  V30 4587 C 421.004 3.14892 -1.74273 0
M  V30 4588 C 420.612 3.0809 -3.25245 0
M  V30 4589 C 422.356 3.9206 -1.62755 0
M  V30 4590 C 420.263 4.42867 -3.91948 0
M  V30 4591 H 419.193 0.656394 -0.37103 0
M  V30 4592 H 421.844 1.14284 -1.43567 0
M  V30 4593 H 420.226 3.7621 -1.2362 0
M  V30 4594 H 421.4 2.5611 -3.83072 0
M  V30 4595 H 419.715 2.44416 -3.3712 0
M  V30 4596 H 422.312 4.91764 -2.09934 0
M  V30 4597 H 422.655 4.12199 -0.582894 0
M  V30 4598 H 423.188 3.37359 -2.10793 0
M  V30 4599 H 419.927 4.27931 -4.96543 0
M  V30 4600 H 419.447 4.94874 -3.3891 0
M  V30 4601 H 421.126 5.11728 -3.95909 0
M  V30 4602 N 421.258 1.00505 1.21394 0
M  V30 4603 C 422.206 0.558623 2.25792 0
M  V30 4604 C 423.2 -0.396848 1.64686 0
M  V30 4605 O 424.406 -0.268035 1.77993 0
M  V30 4606 H 420.781 0.1623 0.734277 0
M  V30 4607 H 422.752 1.4503 2.60785 0
M  V30 4608 C 421.501 -0.0989574 3.47559 0
M  V30 4609 H 420.824 0.627225 3.94849 0
M  V30 4610 H 422.264 -0.3746 4.22342 0
M  V30 4611 C 420.723 -1.33817 3.09184 0
M  V30 4612 O 421.253 -2.43252 3.19674 0
M  V30 4613 N 419.459 -1.21793 2.63846 0
M  V30 4614 H 419.006 -0.32746 2.5551 0
M  V30 4615 H 418.964 -2.04809 2.38539 0
M  V30 4616 N 422.737 -1.36956 0.779787 0
M  V30 4617 C 423.965 -2.03755 0.359398 0
M  V30 4618 C 424.38 -1.58807 -1.02106 0
M  V30 4619 O 423.737 -0.773024 -1.6532 0
M  V30 4620 C 423.788 -3.59251 0.402568 0
M  V30 4621 O 423.509 -4.02557 1.72858 0
M  V30 4622 C 425.01 -4.43291 -0.0284068 0
M  V30 4623 H 422.23 -0.654148 0.149437 0
M  V30 4624 H 424.774 -1.75128 1.05595 0
M  V30 4625 H 422.929 -3.86621 -0.245478 0
M  V30 4626 H 423.343 -4.97111 1.67275 0
M  V30 4627 H 424.817 -5.51975 0.0529466 0
M  V30 4628 H 425.294 -4.25719 -1.07982 0
M  V30 4629 H 425.9 -4.21163 0.591758 0
M  V30 4630 N 424.215 -0.530993 -1.48385 0
M  V30 4631 C 425.492 0.0671788 -1.95485 0
M  V30 4632 C 425.872 1.51191 -1.47324 0
M  V30 4633 O 425.22 2.17507 -0.700202 0
M  V30 4634 C 425.43 -0.0511206 -3.48963 0
M  V30 4635 C 426.778 0.107632 -4.24464 0
M  V30 4636 O 427.802 0.0226248 -3.56193 0
M  V30 4637 O 426.661 0.285972 -5.45751 0
M  V30 4638 H 423.755 0.0787365 -0.823243 0
M  V30 4639 H 426.301 -0.595662 -1.58902 0
M  V30 4640 H 425.073 -1.05747 -3.7674 0
M  V30 4641 H 424.696 0.650525 -3.92242 0
M  V30 4642 N 425.693 1.55336 -0.266172 0
M  V30 4643 C 426.623 2.25146 0.618981 0
M  V30 4644 C 427.604 1.23845 1.16604 0
M  V30 4645 O 428.789 1.52544 1.20183 0
M  V30 4646 C 425.919 2.96572 1.80728 0
M  V30 4647 C 424.873 4.04726 1.39215 0
M  V30 4648 C 424.199 4.63678 2.66283 0
M  V30 4649 C 425.499 5.19407 0.548942 0
M  V30 4650 H 427.193 2.99377 0.0368116 0
M  V30 4651 H 424.739 1.43991 0.0162651 0
M  V30 4652 H 426.692 3.44116 2.43232 0
M  V30 4653 H 425.416 2.19861 2.41514 0
M  V30 4654 H 424.075 3.57979 0.790351 0
M  V30 4655 H 423.723 3.83646 3.25308 0
M  V30 4656 H 423.423 5.367 2.39222 0
M  V30 4657 H 424.947 5.13967 3.29651 0
M  V30 4658 H 426.361 5.63059 1.07876 0
M  V30 4659 H 424.758 5.98936 0.373593 0
M  V30 4660 H 425.828 4.8295 -0.434394 0
M  V30 4661 N 427.171 -0.0066808 1.57599 0
M  V30 4662 C 428.396 -0.707738 1.94951 0
M  V30 4663 C 428.821 -1.66882 0.867868 0
M  V30 4664 O 428.179 -1.80457 -0.17458 0
M  V30 4665 C 428.227 -1.42162 3.31394 0
M  V30 4666 O 427.331 -2.53578 3.25226 0
M  V30 4667 H 426.672 -0.188752 0.636607 0
M  V30 4668 H 429.202 0.0445193 2.04552 0
M  V30 4669 H 429.212 -1.78655 3.66806 0
M  V30 4670 H 427.887 -0.716903 4.09675 0
M  V30 4671 H 426.464 -2.19463 3.01481 0
M  V30 4672 N 428.649 -1.55105 -0.279332 0
M  V30 4673 C 430.065 -1.46803 -0.626187 0
M  V30 4674 C 430.265 -0.676939 -1.89789 0
M  V30 4675 O 429.321 -0.19326 -2.51759 0
M  V30 4676 C 430.634 -2.90962 -0.759034 0
M  V30 4677 C 432.182 -3.01138 -0.853504 0
M  V30 4678 C 432.657 -4.46539 -1.01818 0
M  V30 4679 N 434.148 -4.50341 -1.08386 0
M  V30 4680 C 434.883 -5.60053 -1.22996 0
M  V30 4681 N 434.379 -6.79645 -1.34366 0
M  V30 4682 N 436.172 -5.47783 -1.26056 0
M  V30 4683 H 428.323 -2.04996 0.555921 0
M  V30 4684 H 430.586 -0.929325 0.187239 0
M  V30 4685 H 430.292 -3.51544 0.104852 0
M  V30 4686 H 430.166 -3.39619 -1.64131 0
M  V30 4687 H 432.553 -2.40658 -1.70786 0
M  V30 4688 H 432.634 -2.55745 0.0532466 0
M  V30 4689 H 432.278 -5.0762 -0.168504 0
M  V30 4690 H 432.208 -4.89583 -1.93948 0
M  V30 4691 H 434.699 -3.64191 -1.00864 0
M  V30 4692 H 435.012 -7.59012 -1.4533 0
M  V30 4693 H 433.357 -6.82469 -1.31382 0
M  V30 4694 H 436.548 -4.53294 -1.168 0
M  V30 4695 H 436.721 -6.33331 -1.37098 0
M  V30 4696 N 430.127 0.543554 -1.4793 0
M  V30 4697 C 431.376 1.29649 -1.54512 0
M  V30 4698 C 431.689 1.94382 -0.217973 0
M  V30 4699 O 432.895 2.71017 -0.161908 0
M  V30 4700 C 431.351 2.35175 -2.72435 0
M  V30 4701 C 430.959 1.76572 -4.11736 0
M  V30 4702 C 432.703 3.11564 -2.8832 0
M  V30 4703 C 430.61 2.79958 -5.20939 0
M  V30 4704 H 429.54 0.487541 -0.57517 0
M  V30 4705 H 432.191 0.575708 -1.74235 0
M  V30 4706 H 430.573 3.10229 -2.46118 0
M  V30 4707 H 431.747 1.07799 -4.48013 0
M  V30 4708 H 430.062 1.12722 -4.00852 0
M  V30 4709 H 432.659 3.88794 -3.67074 0
M  V30 4710 H 433.002 3.66594 -1.97268 0
M  V30 4711 H 433.535 2.43623 -3.14472 0
M  V30 4712 H 430.274 2.29766 -6.13912 0
M  V30 4713 H 429.794 3.47101 -4.89164 0
M  V30 4714 H 431.473 3.43198 -5.48474 0
M  V30 4715 N 431.605 1.3629 0.791371 0
M  V30 4716 C 432.535 1.33137 1.91825 0
M  V30 4717 C 433.516 0.203168 1.68882 0
M  V30 4718 O 434.701 0.400509 1.90025 0
M  V30 4719 C 431.831 1.11793 3.28816 0
M  V30 4720 C 430.785 2.21417 3.66277 0
M  V30 4721 C 430.111 1.85218 5.01596 0
M  V30 4722 C 431.411 3.63489 3.75064 0
M  V30 4723 H 433.105 2.2743 1.9472 0
M  V30 4724 H 430.651 1.09479 0.935437 0
M  V30 4725 H 432.604 1.08222 4.07266 0
M  V30 4726 H 431.328 0.139501 3.26302 0
M  V30 4727 H 429.987 2.2411 2.90121 0
M  V30 4728 H 429.635 0.859544 4.95602 0
M  V30 4729 H 429.335 2.58611 5.27631 0
M  V30 4730 H 430.859 1.832 5.82469 0
M  V30 4731 H 432.273 3.63034 4.43711 0
M  V30 4732 H 430.67 4.35771 4.12582 0
M  V30 4733 H 431.74 3.98536 2.76219 0
M  V30 4734 N 433.083 -1.0153 1.20538 0
M  V30 4735 C 434.03 -2.10098 0.955383 0
M  V30 4736 C 435 -1.65702 -0.114878 0
M  V30 4737 O 436.185 -1.90776 0.0301118 0
M  V30 4738 C 433.325 -3.41236 0.514969 0
M  V30 4739 C 432.438 -3.99102 1.65353 0
M  V30 4740 C 431.573 -5.18306 1.16329 0
M  V30 4741 C 430.612 -5.68258 2.27485 0
M  V30 4742 N 429.749 -6.78722 1.7967 0
M  V30 4743 H 434.589 -2.30818 1.88486 0
M  V30 4744 H 432.126 -1.13189 0.939499 0
M  V30 4745 H 434.084 -4.16504 0.240935 0
M  V30 4746 H 432.714 -3.20585 -0.377512 0
M  V30 4747 H 431.766 -3.20918 2.04245 0
M  V30 4748 H 433.078 -4.32177 2.49047 0
M  V30 4749 H 432.232 -6.00782 0.845302 0
M  V30 4750 H 430.971 -4.86799 0.296254 0
M  V30 4751 H 429.976 -4.84385 2.60099 0
M  V30 4752 H 431.201 -6.01798 3.14667 0
M  V30 4753 H 429.147 -6.49042 0.95295 0
M  V30 4754 H 429.064 -7.10996 2.56944 0
M  V30 4755 H 430.332 -7.64759 1.50875 0
M  V30 4756 N 434.561 -1.01147 -1.20859 0
M  V30 4757 C 435.786 -0.716698 -1.94623 0
M  V30 4758 C 436.211 0.715415 -1.73964 0
M  V30 4759 O 435.569 1.49157 -1.03062 0
M  V30 4760 C 435.617 -1.0513 -3.44935 0
M  V30 4761 O 434.721 -0.160131 -4.12089 0
M  V30 4762 H 434.062 -0.266404 -0.608214 0
M  V30 4763 H 436.592 -1.35346 -1.53436 0
M  V30 4764 H 436.602 -1.00086 -3.95533 0
M  V30 4765 H 435.277 -2.09475 -3.59295 0
M  V30 4766 H 433.854 -0.267657 -3.71938 0
M  V30 4767 N 436.039 1.36541 -0.78704 0
M  V30 4768 C 437.45 1.81873 -0.421807 0
M  V30 4769 C 437.801 1.65487 1.05397 0
M  V30 4770 O 436.926 1.17448 1.81755 0
M  V30 4771 C 437.521 3.30192 -0.758841 0
M  V30 4772 C 436.08 3.73743 -0.446468 0
M  V30 4773 C 435.227 2.58844 -0.994728 0
M  V30 4774 H 438.178 1.24796 -0.98039 0
M  V30 4775 H 438.199 3.80468 -0.0490648 0
M  V30 4776 H 437.711 3.42087 -1.83299 0
M  V30 4777 H 435.812 3.6741 0.619739 0
M  V30 4778 H 435.925 4.69272 -0.965415 0
M  V30 4779 H 434.289 2.51245 -0.418087 0
M  V30 4780 H 435.072 2.73525 -2.07458 0
M  V30 4781 N 437.518 0.538854 1.48102 0
M  V30 4782 C 438.428 -0.222648 2.33541 0
M  V30 4783 C 439.444 -0.930225 1.47047 0
M  V30 4784 O 440.62 -0.903211 1.80011 0
M  V30 4785 C 437.685 -1.25064 3.23357 0
M  V30 4786 C 436.746 -0.552469 4.2573 0
M  V30 4787 C 435.979 -1.53149 5.11254 0
M  V30 4788 O 436.202 -2.76487 4.9891 0
M  V30 4789 O 435.136 -1.06602 5.92385 0
M  V30 4790 H 438.962 0.477707 2.99919 0
M  V30 4791 H 436.547 0.299669 1.46364 0
M  V30 4792 H 438.429 -1.8445 3.78888 0
M  V30 4793 H 437.104 -1.93325 2.59629 0
M  V30 4794 H 436.011 0.082114 3.7401 0
M  V30 4795 H 437.344 0.0883526 4.92121 0
M  V30 4796 N 438.996 -1.55193 0.274407 0
M  V30 4797 C 440.245 -1.98758 -0.343213 0
M  V30 4798 C 440.558 -1.16624 -1.5703 0
M  V30 4799 O 441.764 -1.5033 -2.26082 0
M  V30 4800 C 440.22 -3.53759 -0.661996 0
M  V30 4801 C 439.828 -4.4467 0.54524 0
M  V30 4802 C 441.572 -4.05916 -1.24228 0
M  V30 4803 C 439.479 -5.91058 0.201084 0
M  V30 4804 H 438.409 -0.742353 -0.132014 0
M  V30 4805 H 441.06 -1.79545 0.378948 0
M  V30 4806 H 439.442 -3.68772 -1.44304 0
M  V30 4807 H 440.616 -4.41426 1.32212 0
M  V30 4808 H 438.931 -4.03143 1.04232 0
M  V30 4809 H 441.528 -5.12831 -1.51357 0
M  V30 4810 H 441.871 -3.54908 -2.17592 0
M  V30 4811 H 442.404 -3.9434 -0.523542 0
M  V30 4812 H 439.143 -6.46161 1.10258 0
M  V30 4813 H 438.663 -5.97373 -0.539045 0
M  V30 4814 H 440.342 -6.46669 -0.206954 0
M  V30 4815 N 440.474 -0.00167713 -1.576 0
M  V30 4816 C 441.406 1.0174 -2.05382 0
M  V30 4817 C 442.419 1.30595 -0.972052 0
M  V30 4818 O 443.608 1.27542 -1.24882 0
M  V30 4819 C 440.708 2.35174 -2.44022 0
M  V30 4820 C 439.881 2.25234 -3.74951 0
M  V30 4821 C 438.94 3.4137 -4.00441 0
M  V30 4822 O 437.966 3.19483 -4.71083 0
M  V30 4823 N 439.168 4.64275 -3.48467 0
M  V30 4824 H 441.933 0.609902 -2.93428 0
M  V30 4825 H 439.494 0.185672 -1.60832 0
M  V30 4826 H 441.486 3.11643 -2.58187 0
M  V30 4827 H 440.056 2.67659 -1.61485 0
M  V30 4828 H 439.276 1.33664 -3.70847 0
M  V30 4829 H 440.564 2.15767 -4.60784 0
M  V30 4830 H 439.962 4.84955 -2.91264 0
M  V30 4831 H 438.519 5.38005 -3.67959 0
M  V30 4832 N 441.952 1.55251 0.271103 0
M  V30 4833 C 443.368 1.47133 0.618393 0
M  V30 4834 C 443.568 0.686994 1.89427 0
M  V30 4835 O 442.624 0.206609 2.51653 0
M  V30 4836 C 443.937 2.91361 0.743593 0
M  V30 4837 C 445.485 3.01587 0.837522 0
M  V30 4838 C 445.96 4.47073 0.994483 0
M  V30 4839 N 447.451 4.50909 1.05996 0
M  V30 4840 C 448.186 5.60698 1.20024 0
M  V30 4841 N 447.682 6.80348 1.30759 0
M  V30 4842 N 449.475 5.48444 1.23149 0
M  V30 4843 H 441.626 2.04698 -0.566784 0
M  V30 4844 H 443.889 0.928319 -0.192165 0
M  V30 4845 H 443.595 3.51483 -0.123493 0
M  V30 4846 H 443.469 3.40484 1.62328 0
M  V30 4847 H 445.856 2.4156 1.69507 0
M  V30 4848 H 445.937 2.55713 -0.0668086 0
M  V30 4849 H 445.581 5.07703 0.141582 0
M  V30 4850 H 445.511 4.90605 1.91349 0
M  V30 4851 H 448.002 3.6472 0.989316 0
M  V30 4852 H 448.315 7.59772 1.41303 0
M  V30 4853 H 446.66 6.83156 1.27761 0
M  V30 4854 H 449.851 4.53907 1.14394 0
M  V30 4855 H 450.024 6.34049 1.33738 0
M  V30 4856 N 443.43 -0.535701 1.48216 0
M  V30 4857 C 444.393 -1.623 1.61838 0
M  V30 4858 C 445.393 -1.53087 0.492024 0
M  V30 4859 O 446.583 -1.5686 0.757668 0
M  V30 4860 C 443.715 -3.01907 1.58319 0
M  V30 4861 H 444.908 -1.51564 2.58783 0
M  V30 4862 H 442.461 -0.757317 1.36727 0
M  V30 4863 H 443.196 -3.18155 0.628299 0
M  V30 4864 H 442.981 -3.10003 2.40085 0
M  V30 4865 H 444.471 -3.80969 1.71033 0
M  V30 4866 N 444.908 -1.36708 -0.784132 0
M  V30 4867 C 445.838 -1.34153 -1.91116 0
M  V30 4868 C 446.819 -0.212121 -1.68772 0
M  V30 4869 O 448.004 -0.410581 -1.8981 0
M  V30 4870 C 445.134 -1.13535 -3.28218 0
M  V30 4871 C 444.088 -2.23356 -3.65097 0
M  V30 4872 C 443.414 -1.87875 -5.00607 0
M  V30 4873 C 444.714 -3.65473 -3.73131 0
M  V30 4874 H 446.408 -2.28459 -1.93512 0
M  V30 4875 H 443.954 -1.09973 -0.929618 0
M  V30 4876 H 445.907 -1.10381 -4.06687 0
M  V30 4877 H 444.631 -0.156804 -3.26223 0
M  V30 4878 H 443.29 -2.25645 -2.88929 0
M  V30 4879 H 442.938 -0.885814 -4.95139 0
M  V30 4880 H 442.638 -2.61406 -5.26252 0
M  V30 4881 H 444.162 -1.86286 -5.81489 0
M  V30 4882 H 445.576 -3.65382 -4.41779 0
M  V30 4883 H 443.973 -4.37953 -4.10265 0
M  V30 4884 H 445.043 -3.99995 -2.74102 0
M  V30 4885 N 446.386 1.0089 -1.21074 0
M  V30 4886 C 447.802 1.2695 -0.967257 0
M  V30 4887 C 448.002 1.9846 0.348673 0
M  V30 4888 O 447.058 2.28459 1.0753 0
M  V30 4889 C 448.371 2.09697 -2.15517 0
M  V30 4890 C 449.919 2.22937 -2.197 0
M  V30 4891 C 450.394 3.09064 -3.37999 0
M  V30 4892 N 451.885 3.16653 -3.38061 0
M  V30 4893 C 452.62 3.8354 -4.26245 0
M  V30 4894 N 452.116 4.52488 -5.2462 0
M  V30 4895 N 453.909 3.80141 -4.14064 0
M  V30 4896 H 446.06 0.529005 -2.05707 0
M  V30 4897 H 448.323 0.296148 -0.900556 0
M  V30 4898 H 448.029 1.64497 -3.10859 0
M  V30 4899 H 447.903 3.10444 -2.14253 0
M  V30 4900 H 450.29 2.67357 -1.24916 0
M  V30 4901 H 450.371 1.21673 -2.2501 0
M  V30 4902 H 450.015 2.65347 -4.33074 0
M  V30 4903 H 449.945 4.10433 -3.29928 0
M  V30 4904 H 452.436 2.67566 -2.66865 0
M  V30 4905 H 452.749 5.01219 -5.88217 0
M  V30 4906 H 451.094 4.51288 -5.28549 0
M  V30 4907 H 454.285 3.25427 -3.36474 0
M  V30 4908 H 454.458 4.31992 -4.82998 0
M  V30 4909 N 447.864 1.01787 1.20321 0
M  V30 4910 C 448.827 0.593972 2.2137 0
M  V30 4911 C 449.827 -0.336553 1.57239 0
M  V30 4912 O 451.017 -0.125069 1.7375 0
M  V30 4913 C 448.149 -0.132433 3.40643 0
M  V30 4914 H 449.342 1.48791 2.60387 0
M  V30 4915 H 446.895 0.807803 1.33807 0
M  V30 4916 H 447.63 -1.04123 3.0713 0
M  V30 4917 H 447.415 0.53605 3.88418 0
M  V30 4918 H 448.905 -0.416314 4.1552 0
M  V30 4919 N 449.342 -1.36122 0.79427 0
M  V30 4920 C 450.753 -1.81646 0.431446 0
M  V30 4921 C 451.104 -1.66043 -1.04518 0
M  V30 4922 O 450.229 -1.1841 -1.8113 0
M  V30 4923 C 450.824 -3.29785 0.776341 0
M  V30 4924 C 449.383 -3.73501 0.466282 0
M  V30 4925 C 448.53 -2.58313 1.00844 0
M  V30 4926 H 451.481 -1.24274 0.986995 0
M  V30 4927 H 451.502 -3.80437 0.0692413 0
M  V30 4928 H 451.014 -3.4111 1.8511 0
M  V30 4929 H 449.115 -3.67733 -0.600245 0
M  V30 4930 H 449.228 -4.68754 0.990288 0
M  V30 4931 H 447.592 -2.5102 0.431406 0
M  V30 4932 H 448.375 -2.72421 2.08906 0
M  V30 4933 N 450.82 -0.546701 -1.47814 0
M  V30 4934 C 452.236 -0.205717 -1.58269 0
M  V30 4935 C 452.436 1.29153 -1.54667 0
M  V30 4936 O 451.492 2.07098 -1.44453 0
M  V30 4937 C 452.805 -0.823065 -2.89216 0
M  V30 4938 C 454.353 -0.793328 -3.02779 0
M  V30 4939 C 454.828 -1.38955 -4.36412 0
M  V30 4940 N 456.319 -1.35227 -4.43021 0
M  V30 4941 C 457.054 -1.78333 -5.44963 0
M  V30 4942 N 456.55 -2.29246 -6.53772 0
M  V30 4943 N 458.343 -1.69467 -5.35945 0
M  V30 4944 H 450.494 -1.5196 -1.48398 0
M  V30 4945 H 452.757 -0.633078 -0.705632 0
M  V30 4946 H 452.463 -1.8749 -2.97558 0
M  V30 4947 H 452.337 -0.309915 -3.75925 0
M  V30 4948 H 454.724 0.249784 -2.94041 0
M  V30 4949 H 454.805 -1.34412 -2.17639 0
M  V30 4950 H 454.449 -2.43168 -4.45906 0
M  V30 4951 H 454.379 -0.814291 -5.20266 0
M  V30 4952 H 456.87 -0.979739 -3.64979 0
M  V30 4953 H 457.183 -2.60089 -7.27718 0
M  V30 4954 H 455.528 -2.3325 -6.5469 0
M  V30 4955 H 458.719 -1.29477 -4.49837 0
M  V30 4956 H 458.892 -2.03381 -6.15256 0
M  V30 4957 N 452.299 1.55045 -0.282633 0
M  V30 4958 C 453.246 2.22822 0.601566 0
M  V30 4959 C 454.216 1.20431 1.14392 0
M  V30 4960 O 455.401 1.48996 1.19184 0
M  V30 4961 C 452.541 2.95873 1.77632 0
M  V30 4962 C 451.654 4.12999 1.26711 0
M  V30 4963 C 450.789 4.73676 2.40426 0
M  V30 4964 C 449.828 5.82981 1.86545 0
M  V30 4965 N 448.965 6.3769 2.93762 0
M  V30 4966 H 453.805 2.97995 0.0169528 0
M  V30 4967 H 451.342 1.471 -0.00339964 0
M  V30 4968 H 453.3 3.36447 2.46697 0
M  V30 4969 H 451.93 2.2311 2.33285 0
M  V30 4970 H 450.982 3.77494 0.469314 0
M  V30 4971 H 452.294 4.91803 0.832518 0
M  V30 4972 H 451.448 5.17008 3.17471 0
M  V30 4973 H 450.187 3.94164 2.87203 0
M  V30 4974 H 449.192 5.39092 1.07983 0
M  V30 4975 H 450.417 6.64366 1.40694 0
M  V30 4976 H 448.363 5.61069 3.39908 0
M  V30 4977 H 448.28 7.11788 2.54744 0
M  V30 4978 H 449.548 6.8568 3.7076 0
M  V30 4979 N 453.777 0.010035 1.57597 0
M  V30 4980 C 454.724 -0.978122 2.09049 0
M  V30 4981 C 455.694 -1.33509 0.988159 0
M  V30 4982 O 456.879 -1.43172 1.26121 0
M  V30 4983 C 454.019 -2.26158 2.60666 0
M  V30 4984 C 453.132 -1.96275 3.84838 0
M  V30 4985 C 452.267 -3.18776 4.24918 0
M  V30 4986 C 451.306 -2.84625 5.41899 0
M  V30 4987 N 450.443 -3.99693 5.77226 0
M  V30 4988 H 455.283 -0.532431 2.93205 0
M  V30 4989 H 452.82 -0.251234 1.44939 0
M  V30 4990 H 454.778 -3.01202 2.88675 0
M  V30 4991 H 453.408 -2.68378 1.79369 0
M  V30 4992 H 452.46 -1.11555 3.63675 0
M  V30 4993 H 453.772 -1.67111 4.69974 0
M  V30 4994 H 452.926 -4.02157 4.54262 0
M  V30 4995 H 451.665 -3.51087 3.38511 0
M  V30 4996 H 450.67 -1.99653 5.12268 0
M  V30 4997 H 451.895 -2.53551 6.29991 0
M  V30 4998 H 449.841 -4.31882 4.93776 0
M  V30 4999 H 449.758 -3.74087 6.56959 0
M  V30 5000 H 451.026 -4.83834 6.11167 0
M  V30 5001 N 455.255 -1.55392 -0.262866 0
M  V30 5002 C 456.504 -1.75679 -0.990943 0
M  V30 5003 C 456.817 -0.57097 -1.87081 0
M  V30 5004 O 458.023 -0.656486 -2.63444 0
M  V30 5005 C 456.479 -3.10964 -1.81188 0
M  V30 5006 C 456.087 -4.37146 -0.980188 0
M  V30 5007 C 457.831 -3.40597 -2.53365 0
M  V30 5008 C 455.738 -5.63466 -1.7961 0
M  V30 5009 H 454.668 -0.654868 -0.373716 0
M  V30 5010 H 457.319 -1.81841 -0.246203 0
M  V30 5011 H 455.701 -2.98867 -2.59797 0
M  V30 5012 H 456.875 -4.60187 -0.237558 0
M  V30 5013 H 455.19 -4.14731 -0.372497 0
M  V30 5014 H 457.787 -4.32186 -3.14833 0
M  V30 5015 H 458.13 -2.6119 -3.24169 0
M  V30 5016 H 458.663 -3.53838 -1.81779 0
M  V30 5017 H 455.402 -6.4565 -1.13209 0
M  V30 5018 H 454.922 -5.44552 -2.51443 0
M  V30 5019 H 456.601 -6.02139 -2.36723 0
M  V30 5020 N 456.733 0.527833 -1.48498 0
M  V30 5021 C 457.683 1.62844 -1.5958 0
M  V30 5022 C 458.667 1.54397 -0.452809 0
M  V30 5023 O 459.859 1.62381 -0.704364 0
M  V30 5024 C 456.988 3.01557 -1.64067 0
M  V30 5025 C 456.074 3.151 -2.83853 0
M  V30 5026 N 456.465 2.9861 -4.08247 0
M  V30 5027 C 454.763 3.46158 -2.8123 0
M  V30 5028 C 455.464 3.15626 -4.88626 0
M  V30 5029 N 454.44 3.43298 -4.21483 0
M  V30 5030 H 458.242 1.48708 -2.53502 0
M  V30 5031 H 455.756 0.733343 -1.44899 0
M  V30 5032 H 457.753 3.8062 -1.70101 0
M  V30 5033 H 456.413 3.16783 -0.712636 0
M  V30 5034 H 457.424 2.75329 -4.3865 0
M  V30 5035 H 454.101 3.67728 -1.97692 0
M  V30 5036 H 455.491 3.07596 -5.97356 0
M  V30 5037 N 458.211 1.37122 0.776871 0
M  V30 5038 C 459.627 1.1781 1.07671 0
M  V30 5039 C 459.827 0.0107454 2.01497 0
M  V30 5040 O 458.883 -0.650756 2.4397 0
M  V30 5041 C 460.196 2.49451 1.67913 0
M  V30 5042 C 461.744 2.55927 1.80195 0
M  V30 5043 C 462.219 3.87686 2.43851 0
M  V30 5044 N 463.71 3.891 2.51307 0
M  V30 5045 C 464.445 4.87797 3.014 0
M  V30 5046 N 463.941 5.96888 3.51705 0
M  V30 5047 N 465.734 4.75205 3.00227 0
M  V30 5048 H 457.885 2.11843 0.153778 0
M  V30 5049 H 460.148 0.938927 0.130844 0
M  V30 5050 H 459.854 3.35207 1.06439 0
M  V30 5051 H 459.728 2.66169 2.67271 0
M  V30 5052 H 462.115 1.70582 2.40803 0
M  V30 5053 H 462.196 2.43097 0.796069 0
M  V30 5054 H 461.84 4.73444 1.83884 0
M  V30 5055 H 461.77 3.97817 3.45035 0
M  V30 5056 H 464.261 3.10293 2.157 0
M  V30 5057 H 464.574 6.68155 3.88316 0
M  V30 5058 H 462.919 6.0054 3.49824 0
M  V30 5059 H 466.11 3.89103 2.60224 0
M  V30 5060 H 466.283 5.52279 3.38957 0
M  V30 5061 N 459.689 -1.00246 1.21608 0
M  V30 5062 C 461.105 -1.26435 0.973975 0
M  V30 5063 C 461.305 -1.98642 -0.338143 0
M  V30 5064 O 460.361 -2.29026 -1.06317 0
M  V30 5065 C 461.674 -2.08551 2.16626 0
M  V30 5066 C 463.222 -2.21769 2.20879 0
M  V30 5067 C 463.697 -3.07267 3.39633 0
M  V30 5068 N 465.188 -3.14855 3.39736 0
M  V30 5069 C 465.923 -3.81274 4.28273 0
M  V30 5070 N 465.419 -4.497 5.27012 0
M  V30 5071 N 467.212 -3.7794 4.16074 0
M  V30 5072 H 459.363 -0.518089 2.05984 0
M  V30 5073 H 461.626 -0.291368 0.902113 0
M  V30 5074 H 461.332 -1.62847 3.11727 0
M  V30 5075 H 461.206 -3.09303 2.15897 0
M  V30 5076 H 463.593 -2.66691 1.26332 0
M  V30 5077 H 463.674 -1.20478 2.25652 0
M  V30 5078 H 463.318 -2.63047 4.34475 0
M  V30 5079 H 463.248 -4.08678 3.321 0
M  V30 5080 H 465.739 -2.66147 2.6828 0
M  V30 5081 H 466.052 -4.98092 5.90867 0
M  V30 5082 H 464.397 -4.48479 5.30935 0
M  V30 5083 H 467.588 -3.23638 3.38195 0
M  V30 5084 H 467.761 -4.29424 4.85282 0
M  V30 5085 N 461.167 -1.02423 -1.1978 0
M  V30 5086 C 462.413 -0.719051 -1.89625 0
M  V30 5087 C 462.746 0.750083 -1.7913 0
M  V30 5088 O 462.021 1.54574 -1.18056 0
M  V30 5089 C 462.304 -1.16499 -3.40735 0
M  V30 5090 C 462.157 -2.695 -3.60125 0
M  V30 5091 C 463.476 -0.742166 -4.33797 0
M  V30 5092 H 460.595 -0.26269 -0.688595 0
M  V30 5093 H 463.237 -1.27333 -1.41018 0
M  V30 5094 H 461.387 -0.69341 -3.82262 0
M  V30 5095 H 463.059 -3.24569 -3.278 0
M  V30 5096 H 461.302 -3.10113 -3.03336 0
M  V30 5097 H 461.973 -2.95757 -4.66081 0
M  V30 5098 H 464.449 -1.1477 -3.99959 0
M  V30 5099 H 463.325 -1.08213 -5.38127 0
M  V30 5100 H 463.586 0.355747 -4.40666 0
M  V30 5101 N 462.645 1.35699 -0.801477 0
M  V30 5102 C 463.575 2.32436 -0.222658 0
M  V30 5103 C 464.556 1.5723 0.649057 0
M  V30 5104 O 465.741 1.85324 0.580387 0
M  V30 5105 C 462.871 3.41469 0.633719 0
M  V30 5106 C 461.825 4.27774 -0.139083 0
M  V30 5107 C 461.151 5.28082 0.838666 0
M  V30 5108 C 462.451 5.04946 -1.33517 0
M  V30 5109 H 464.145 2.81094 -1.03086 0
M  V30 5110 H 461.691 1.35146 -0.497155 0
M  V30 5111 H 463.644 4.08143 1.04868 0
M  V30 5112 H 462.368 2.91408 1.47475 0
M  V30 5113 H 461.027 3.62673 -0.535156 0
M  V30 5114 H 460.675 4.7429 1.67506 0
M  V30 5115 H 460.375 5.86695 0.32594 0
M  V30 5116 H 461.899 5.97628 1.25194 0
M  V30 5117 H 463.313 5.64593 -0.995349 0
M  V30 5118 H 461.71 5.7303 -1.78202 0
M  V30 5119 H 462.78 4.35886 -2.12442 0
M  V30 5120 N 464.123 0.554532 1.47522 0
M  V30 5121 C 465.07 -0.19466 2.29978 0
M  V30 5122 C 466.04 -0.910882 1.38896 0
M  V30 5123 O 467.225 -0.907102 1.67858 0
M  V30 5124 C 464.365 -1.22035 3.22802 0
M  V30 5125 C 463.478 -0.510474 4.28973 0
M  V30 5126 C 462.613 -1.52123 5.08952 0
M  V30 5127 C 461.652 -0.796173 6.069 0
M  V30 5128 N 460.789 -1.75363 6.79847 0
M  V30 5129 H 465.629 0.51461 2.93523 0
M  V30 5130 H 463.166 0.265607 1.44682 0
M  V30 5131 H 465.124 -1.8276 3.7504 0
M  V30 5132 H 463.754 -1.89769 2.61127 0
M  V30 5133 H 462.806 0.211234 3.79813 0
M  V30 5134 H 464.118 0.0576503 4.98767 0
M  V30 5135 H 463.272 -2.20207 5.65326 0
M  V30 5136 H 462.011 -2.12327 4.39054 0
M  V30 5137 H 461.016 -0.101388 5.49707 0
M  V30 5138 H 462.241 -0.199911 6.78806 0
M  V30 5139 H 460.187 -2.3443 6.12682 0
M  V30 5140 H 460.104 -1.23759 7.45801 0
M  V30 5141 H 461.372 -2.4257 7.40797 0
M  V30 5142 N 465.601 -1.54893 0.290851 0
M  V30 5143 C 466.548 -2.23138 -0.58974 0
M  V30 5144 C 467.518 -1.21036 -1.13752 0
M  V30 5145 O 468.703 -1.49626 -1.18392 0
M  V30 5146 C 465.843 -2.96811 -1.76061 0
M  V30 5147 C 464.956 -4.13665 -1.24519 0
M  V30 5148 C 464.091 -4.74944 -2.3791 0
M  V30 5149 C 463.13 -5.83963 -1.83451 0
M  V30 5150 N 462.267 -6.39239 -2.90376 0
M  V30 5151 H 467.107 -2.98 -0.00114915 0
M  V30 5152 H 464.644 -1.47096 0.0112006 0
M  V30 5153 H 466.602 -3.37751 -2.44909 0
M  V30 5154 H 465.232 -2.24344 -2.32098 0
M  V30 5155 H 464.284 -3.77737 -0.449288 0
M  V30 5156 H 465.596 -4.92238 -0.806424 0
M  V30 5157 H 464.75 -5.18684 -3.14724 0
M  V30 5158 H 463.489 -3.95682 -2.85109 0
M  V30 5159 H 462.494 -5.39657 -1.05122 0
M  V30 5160 H 463.719 -6.65103 -1.37169 0
M  V30 5161 H 461.665 -5.62864 -3.36927 0
M  V30 5162 H 461.582 -7.13129 -2.50965 0
M  V30 5163 H 462.85 -6.87637 -3.67118 0
M  V30 5164 N 467.08 -0.0183926 -1.57589 0
M  V30 5165 C 468.028 0.985111 -2.10709 0
M  V30 5166 C 469.022 1.34397 -1.0312 0
M  V30 5167 O 470.228 1.32746 -1.21567 0
M  V30 5168 H 466.603 0.335418 -0.673052 0
M  V30 5169 H 468.574 0.511689 -2.9398 0
M  V30 5170 C 467.323 2.26202 -2.64061 0
M  V30 5171 H 466.646 1.9946 -3.4649 0
M  V30 5172 H 468.086 2.94652 -3.04887 0
M  V30 5173 C 466.545 2.98444 -1.5631 0
M  V30 5174 O 467.075 3.90142 -0.956674 0
M  V30 5175 N 465.281 2.6059 -1.28612 0
M  V30 5176 H 464.828 1.86101 -1.78112 0
M  V30 5177 H 464.786 3.09238 -0.567406 0
M  V30 5178 N 468.558 1.5553 0.254621 0
M  V30 5179 C 469.969 1.67518 0.824286 0
M  V30 5180 C 470.32 0.614429 1.86331 0
M  V30 5181 O 469.445 -0.240736 2.15057 0
M  V30 5182 C 470.04 3.03692 1.50189 0
M  V30 5183 C 468.599 3.17646 2.01935 0
M  V30 5184 C 467.746 2.63373 0.867746 0
M  V30 5185 H 470.697 1.58671 0.0305843 0
M  V30 5186 H 470.718 2.97706 2.36962 0
M  V30 5187 H 470.23 3.80874 0.745431 0
M  V30 5188 H 468.331 2.45273 2.80485 0
M  V30 5189 H 468.444 4.24455 2.22204 0
M  V30 5190 H 466.808 2.20999 1.26616 0
M  V30 5191 H 467.591 3.43074 0.124498 0
M  V30 5192 N 470.036 -0.519951 1.48776 0
M  V30 5193 C 470.966 -1.63253 1.66945 0
M  V30 5194 C 471.947 -1.62014 0.518224 0
M  V30 5195 O 473.132 -1.79053 0.751919 0
M  V30 5196 C 470.262 -3.0181 1.71836 0
M  V30 5197 C 469.216 -3.17911 2.8656 0
M  V30 5198 C 468.542 -4.5763 2.76548 0
M  V30 5199 C 469.842 -2.99729 4.27738 0
M  V30 5200 H 471.536 -1.48302 2.6009 0
M  V30 5201 H 469.082 -0.712026 1.25165 0
M  V30 5202 H 471.035 -3.79525 1.83135 0
M  V30 5203 H 469.759 -3.17806 0.752775 0
M  V30 5204 H 468.418 -2.42616 2.74833 0
M  V30 5205 H 468.066 -4.70476 1.77937 0
M  V30 5206 H 467.766 -4.69346 3.53536 0
M  V30 5207 H 469.29 -5.37431 2.89828 0
M  V30 5208 H 470.704 -3.67228 4.40246 0
M  V30 5209 H 469.101 -3.22932 5.05801 0
M  V30 5210 H 470.171 -1.96047 4.43502 0
M  V30 5211 N 471.514 -1.37532 -0.769588 0
M  V30 5212 C 472.461 -1.3347 -1.88293 0
M  V30 5213 C 473.431 -0.199891 -1.64893 0
M  V30 5214 O 474.616 -0.389594 -1.8678 0
M  V30 5215 C 471.756 -1.14968 -3.25387 0
M  V30 5216 C 470.869 -2.37698 -3.60727 0
M  V30 5217 C 470.004 -2.12051 -4.8704 0
M  V30 5218 C 469.043 -3.30636 -5.15117 0
M  V30 5219 N 468.18 -3.04527 -6.3262 0
M  V30 5220 H 473.02 -2.28658 -1.911 0
M  V30 5221 H 470.557 -1.13622 -0.934257 0
M  V30 5222 H 472.515 -1.02261 -4.04473 0
M  V30 5223 H 471.145 -0.234263 -3.21949 0
M  V30 5224 H 470.197 -2.61137 -2.76608 0
M  V30 5225 H 471.509 -3.26131 -3.77413 0
M  V30 5226 H 470.663 -1.96388 -5.74035 0
M  V30 5227 H 469.402 -1.20959 -4.72462 0
M  V30 5228 H 468.407 -3.46836 -4.26597 0
M  V30 5229 H 469.632 -4.22582 -5.31603 0
M  V30 5230 H 467.578 -2.16067 -6.19396 0
M  V30 5231 H 467.495 -3.86503 -6.49732 0
M  V30 5232 H 468.763 -2.92485 -7.22546 0
M  V30 5233 N 472.992 0.995999 -1.22138 0
M  V30 5234 C 473.94 2.10673 -0.985876 0
M  V30 5235 C 474.934 1.69255 0.0699553 0
M  V30 5236 O 476.14 1.79812 -0.0822176 0
M  V30 5237 H 472.515 0.688865 -0.30161 0
M  V30 5238 H 474.486 2.27711 -1.92848 0
M  V30 5239 C 473.235 3.42881 -0.576909 0
M  V30 5240 H 472.558 3.75191 -1.38101 0
M  V30 5241 H 473.998 4.21589 -0.451518 0
M  V30 5242 C 472.457 3.29265 0.713196 0
M  V30 5243 O 472.987 3.60777 1.76643 0
M  V30 5244 N 471.193 2.82456 0.683162 0
M  V30 5245 H 470.74 2.5701 -0.174242 0
M  V30 5246 H 470.698 2.73727 1.54663 0
M  V30 5247 N 474.47 1.03057 1.19235 0
M  V30 5248 C 475.4 0.633497 2.24742 0
M  V30 5249 C 476.381 -0.358335 1.66283 0
M  V30 5250 O 477.566 -0.240676 1.92703 0
M  V30 5251 C 474.696 -0.0147648 3.47297 0
M  V30 5252 C 473.65 0.899527 4.18441 0
M  V30 5253 C 472.976 0.116281 5.34574 0
M  V30 5254 C 474.276 2.21404 4.73051 0
M  V30 5255 H 475.97 1.5155 2.58211 0
M  V30 5256 H 473.516 0.73014 1.24117 0
M  V30 5257 H 475.469 -0.304202 4.20301 0
M  V30 5258 H 474.193 -0.931577 3.13032 0
M  V30 5259 H 472.852 1.17319 3.47321 0
M  V30 5260 H 472.5 -0.802619 4.96555 0
M  V30 5261 H 472.2 0.725293 5.83107 0
M  V30 5262 H 473.724 -0.166376 6.10373 0
M  V30 5263 H 475.138 1.98601 5.37802 0
M  V30 5264 H 473.535 2.77512 5.32078 0
M  V30 5265 H 474.605 2.86752 3.91026 0
M  V30 5266 N 475.948 -1.35272 0.808662 0
M  V30 5267 C 477.364 -1.51806 0.492653 0
M  V30 5268 C 477.564 -1.7574 -0.985778 0
M  V30 5269 O 476.62 -1.80003 -1.77074 0
M  V30 5270 C 477.933 -2.69202 1.33981 0
M  V30 5271 C 479.481 -2.8308 1.33547 0
M  V30 5272 C 479.956 -4.03502 2.16679 0
M  V30 5273 N 481.447 -4.10684 2.14227 0
M  V30 5274 C 482.182 -5.02984 2.75308 0
M  V30 5275 N 481.678 -6.00603 3.45323 0
M  V30 5276 N 483.471 -4.95746 2.64938 0
M  V30 5277 H 475.622 -1.17993 1.76611 0
M  V30 5278 H 477.885 -0.577476 0.751814 0
M  V30 5279 H 477.591 -2.581 2.38909 0
M  V30 5280 H 477.465 -3.63854 0.994491 0
M  V30 5281 H 479.852 -2.93631 0.294036 0
M  V30 5282 H 479.933 -1.89278 1.72068 0
M  V30 5283 H 479.577 -3.93711 3.20864 0
M  V30 5284 H 479.507 -4.96489 1.75517 0
M  V30 5285 H 481.998 -3.40802 1.63285 0
M  V30 5286 H 482.311 -6.67633 3.89212 0
M  V30 5287 H 480.656 -6.0077 3.49428 0
M  V30 5288 H 483.847 -4.18439 2.09825 0
M  V30 5289 H 484.02 -5.67487 3.12829 0
M  V30 5290 N 477.426 -0.562348 -1.47226 0
M  V30 5291 C 478.675 -0.038041 -2.01664 0
M  V30 5292 C 478.988 1.32199 -1.44162 0
M  V30 5293 O 480.194 1.9365 -1.90294 0
M  V30 5294 C 478.65 -0.0174958 -3.59896 0
M  V30 5295 C 478.258 -1.3746 -4.2639 0
M  V30 5296 C 480.002 0.453934 -4.22066 0
M  V30 5297 C 477.909 -1.31289 -5.76643 0
M  V30 5298 H 476.839 -0.0104511 -0.753928 0
M  V30 5299 H 479.49 -0.710966 -1.69167 0
M  V30 5300 H 477.872 0.721182 -3.89378 0
M  V30 5301 H 479.046 -2.1314 -4.08544 0
M  V30 5302 H 477.361 -1.78438 -3.7623 0
M  V30 5303 H 479.958 0.518584 -5.32179 0
M  V30 5304 H 480.301 1.46706 -3.89594 0
M  V30 5305 H 480.834 -0.230044 -3.97134 0
M  V30 5306 H 477.573 -2.30217 -6.13743 0
M  V30 5307 H 477.093 -0.597973 -5.96812 0
M  V30 5308 H 478.772 -1.01713 -6.38955 0
M  V30 5309 N 478.904 1.54736 -0.299062 0
M  V30 5310 C 479.837 2.1962 0.619851 0
M  V30 5311 C 480.815 1.16496 1.13434 0
M  V30 5312 O 481.999 1.4513 1.2029 0
M  V30 5313 C 479.126 2.8385 1.84788 0
M  V30 5314 C 478.172 4.00484 1.46679 0
M  V30 5315 S 479.005 5.32926 0.524389 0
M  V30 5316 C 480.161 6.00638 1.76026 0
M  V30 5317 H 480.394 2.97221 0.0686177 0
M  V30 5318 H 477.927 1.54176 -0.0832085 0
M  V30 5319 H 479.885 3.21483 2.55263 0
M  V30 5320 H 478.546 2.06099 2.37028 0
M  V30 5321 H 477.739 4.44201 2.38121 0
M  V30 5322 H 477.341 3.64398 0.842008 0
M  V30 5323 H 479.633 6.21327 2.70109 0
M  V30 5324 H 480.576 6.94805 1.36569 0
M  V30 5325 H 480.984 5.3026 1.93609 0
M  V30 5326 N 480.382 0.0267497 1.57577 0
M  V30 5327 C 481.312 -0.954308 2.13108 0
M  V30 5328 C 482.293 -1.34088 1.04663 0
M  V30 5329 O 483.478 -1.41992 1.32484 0
M  V30 5330 C 480.608 -2.23744 2.65624 0
M  V30 5331 C 479.562 -1.99168 3.78835 0
M  V30 5332 C 478.888 -3.33726 4.17769 0
M  V30 5333 C 480.188 -1.33277 5.0501 0
M  V30 5334 H 481.882 -0.491848 2.95332 0
M  V30 5335 H 479.428 -0.23514 1.42067 0
M  V30 5336 H 481.381 -2.92754 3.03106 0
M  V30 5337 H 480.105 -2.72151 1.80558 0
M  V30 5338 H 478.764 -1.32577 3.41788 0
M  V30 5339 H 478.412 -3.79888 3.29688 0
M  V30 5340 H 478.112 -3.18089 4.94058 0
M  V30 5341 H 479.636 -4.04008 4.57832 0
M  V30 5342 H 481.05 -1.92283 5.40093 0
M  V30 5343 H 479.447 -1.28045 5.8628 0
M  V30 5344 H 480.517 -0.305411 4.83937 0
M  V30 5345 N 481.861 -1.55662 -0.24637 0
M  V30 5346 C 482.808 -1.90361 -1.30504 0
M  V30 5347 C 483.778 -0.757905 -1.47801 0
M  V30 5348 O 484.963 -1.01161 -1.61775 0
M  V30 5349 C 482.103 -2.2042 -2.65535 0
M  V30 5350 C 481.216 -3.47799 -2.56242 0
M  V30 5351 C 480.351 -3.67426 -3.8363 0
M  V30 5352 C 479.39 -4.88403 -3.68956 0
M  V30 5353 N 478.527 -5.04548 -4.88237 0
M  V30 5354 H 483.367 -2.80645 -1.00213 0
M  V30 5355 H 480.904 -1.38924 -0.483577 0
M  V30 5356 H 482.862 -2.35853 -3.44135 0
M  V30 5357 H 481.492 -1.3334 -2.93973 0
M  V30 5358 H 480.544 -3.40694 -1.69208 0
M  V30 5359 H 481.856 -4.36544 -2.4131 0
M  V30 5360 H 481.01 -3.82821 -4.70673 0
M  V30 5361 H 479.749 -2.76914 -4.01459 0
M  V30 5362 H 478.754 -4.72984 -2.80296 0
M  V30 5363 H 479.979 -5.80375 -3.52621 0
M  V30 5364 H 477.925 -4.16974 -5.06427 0
M  V30 5365 H 477.842 -5.87384 -4.75937 0
M  V30 5366 H 479.11 -5.24355 -5.76777 0
M  V30 5367 N 483.339 0.512053 -1.4905 0
M  V30 5368 C 484.269 1.62365 -1.67809 0
M  V30 5369 C 485.25 1.61737 -0.526809 0
M  V30 5370 O 486.435 1.78651 -0.761404 0
M  V30 5371 C 483.565 3.00895 -1.73435 0
M  V30 5372 C 482.519 3.16387 -2.88242 0
M  V30 5373 C 481.845 4.56157 -2.78971 0
M  V30 5374 C 483.145 2.97457 -4.29321 0
M  V30 5375 H 484.839 1.46921 -2.60873 0
M  V30 5376 H 482.385 0.705379 -1.2554 0
M  V30 5377 H 484.338 3.78549 -1.85145 0
M  V30 5378 H 483.062 3.17403 -0.769619 0
M  V30 5379 H 481.721 2.41155 -2.76116 0
M  V30 5380 H 481.369 4.69525 -1.8043 0
M  V30 5381 H 481.069 4.67465 -3.5602 0
M  V30 5382 H 482.593 5.35886 -2.92675 0
M  V30 5383 H 484.007 3.64888 -4.42187 0
M  V30 5384 H 482.404 3.20245 -5.07507 0
M  V30 5385 H 483.474 1.93692 -4.44535 0
M  V30 5386 N 484.817 1.37938 0.762283 0
M  V30 5387 C 485.765 1.34569 1.89721 0
M  V30 5388 C 486.759 0.232929 1.67791 0
M  V30 5389 O 487.965 0.401485 1.75465 0
M  V30 5390 H 484.34 0.419594 0.624055 0
M  V30 5391 H 486.311 2.30357 1.8968 0
M  V30 5392 C 485.06 1.17898 3.27101 0
M  V30 5393 H 484.383 2.02781 3.44558 0
M  V30 5394 H 485.823 1.19593 4.06784 0
M  V30 5395 C 484.282 -0.114728 3.36705 0
M  V30 5396 O 484.812 -1.0949 3.8649 0
M  V30 5397 N 483.018 -0.16863 2.9011 0
M  V30 5398 H 482.565 0.62967 2.49786 0
M  V30 5399 H 482.523 -1.03383 2.96916 0
M  V30 5400 N 486.295 -0.989507 1.22664 0
M  V30 5401 C 487.706 -1.54406 1.04955 0
M  V30 5402 C 488.057 -1.92366 -0.385951 0
M  V30 5403 O 487.182 -1.75111 -1.27142 0
M  V30 5404 C 487.777 -2.80578 1.89899 0
M  V30 5405 C 486.336 -3.32464 1.76478 0
M  V30 5406 C 485.483 -2.05524 1.86159 0
M  V30 5407 H 488.434 -0.810211 1.3646 0
M  V30 5408 H 488.455 -3.53075 1.4184 0
M  V30 5409 H 487.967 -2.52918 2.94371 0
M  V30 5410 H 486.068 -3.65024 0.747528 0
M  V30 5411 H 486.181 -4.02838 2.59342 0
M  V30 5412 H 484.545 -2.19241 1.29636 0
M  V30 5413 H 485.328 -1.80258 2.92168 0
M  V30 5414 N 487.773 -1.03688 -1.18687 0
M  V30 5415 C 489.003 -0.756819 -1.92239 0
M  V30 5416 C 489.411 0.689374 -1.76194 0
M  V30 5417 O 488.754 1.48126 -1.08648 0
M  V30 5418 C 488.816 -1.03851 -3.44173 0
M  V30 5419 C 488.48 -2.47785 -3.83994 0
M  V30 5420 C 489.477 -3.4595 -3.88091 0
M  V30 5421 C 487.162 -2.82397 -4.154 0
M  V30 5422 C 489.156 -4.76779 -4.23038 0
M  V30 5423 C 486.843 -4.13433 -4.50018 0
M  V30 5424 C 487.841 -5.10434 -4.53813 0
M  V30 5425 O 487.529 -6.39122 -4.87625 0
M  V30 5426 H 487.261 -0.275678 -0.617234 0
M  V30 5427 H 489.815 -1.38658 -1.51536 0
M  V30 5428 H 488.045 -0.351612 -3.85098 0
M  V30 5429 H 489.734 -0.746846 -3.9897 0
M  V30 5430 H 490.5 -3.20549 -3.63969 0
M  V30 5431 H 486.379 -2.07568 -4.11627 0
M  V30 5432 H 489.923 -5.52488 -4.25914 0
M  V30 5433 H 485.82 -4.38604 -4.736 0
M  V30 5434 H 486.588 -6.43715 -5.05542 0
M  V30 5435 N 489.251 1.34841 -0.815825 0
M  V30 5436 C 490.214 2.27959 -0.238185 0
M  V30 5437 C 491.214 1.49983 0.579816 0
M  V30 5438 O 492.404 1.69617 0.396953 0
M  V30 5439 C 489.536 3.34314 0.666876 0
M  V30 5440 H 490.729 2.80558 -1.05958 0
M  V30 5441 H 488.282 1.44852 -0.587156 0
M  V30 5442 H 489.017 2.86916 1.5116 0
M  V30 5443 H 488.802 3.92014 0.0819106 0
M  V30 5444 H 490.292 4.0379 1.06506 0
M  V30 5445 N 490.729 0.570148 1.46925 0
M  V30 5446 C 491.676 -0.170257 2.30171 0
M  V30 5447 C 492.646 -0.896099 1.39855 0
M  V30 5448 O 493.831 -0.889248 1.68811 0
M  V30 5449 C 490.971 -1.18605 3.24079 0
M  V30 5450 C 490.084 -0.464947 4.29491 0
M  V30 5451 C 489.219 -1.46716 5.10537 0
M  V30 5452 C 488.258 -0.731758 6.0771 0
M  V30 5453 N 487.395 -1.68142 6.81669 0
M  V30 5454 H 492.235 0.545713 2.92961 0
M  V30 5455 H 489.772 0.280938 1.44392 0
M  V30 5456 H 491.73 -1.78771 3.76957 0
M  V30 5457 H 490.36 -1.86989 2.63125 0
M  V30 5458 H 489.412 0.251506 3.79568 0
M  V30 5459 H 490.724 0.110548 4.98677 0
M  V30 5460 H 489.878 -2.14199 5.6763 0
M  V30 5461 H 488.617 -2.07658 4.41282 0
M  V30 5462 H 487.622 -0.0430787 5.49783 0
M  V30 5463 H 488.847 -0.127904 6.7898 0
M  V30 5464 H 486.793 -2.27918 6.15134 0
M  V30 5465 H 486.71 -1.15841 7.47072 0
M  V30 5466 H 487.978 -2.347 7.43328 0
M  V30 5467 N 492.207 -1.54576 0.307264 0
M  V30 5468 C 493.435 -2.04675 -0.302597 0
M  V30 5469 C 493.85 -1.18425 -1.47041 0
M  V30 5470 O 493.207 -0.211257 -1.81273 0
M  V30 5471 C 493.258 -3.53575 -0.752801 0
M  V30 5472 O 492.979 -4.36547 0.368536 0
M  V30 5473 C 494.48 -4.19699 -1.42717 0
M  V30 5474 H 491.7 -0.66786 -0.0648374 0
M  V30 5475 H 494.244 -1.99516 0.448716 0
M  V30 5476 H 492.399 -3.59074 -1.45412 0
M  V30 5477 H 492.813 -5.24497 0.0168937 0
M  V30 5478 H 494.287 -5.25388 -1.69327 0
M  V30 5479 H 494.764 -3.69815 -2.36925 0
M  V30 5480 H 495.37 -4.18293 -0.768856 0
M  V30 5481 N 493.685 -0.035106 -1.57561 0
M  V30 5482 C 494.618 0.979673 -2.06101 0
M  V30 5483 C 495.596 1.31378 -0.958046 0
M  V30 5484 O 496.78 1.42942 -1.22881 0
M  V30 5485 C 493.907 2.29809 -2.48808 0
M  V30 5486 C 492.953 2.11817 -3.70184 0
M  V30 5487 S 493.786 1.41143 -5.16565 0
M  V30 5488 C 494.942 2.74341 -5.62572 0
M  V30 5489 H 495.175 0.566506 -2.91853 0
M  V30 5490 H 492.708 0.176744 -1.53385 0
M  V30 5491 H 494.666 3.056 -2.74078 0
M  V30 5492 H 493.327 2.68257 -1.63392 0
M  V30 5493 H 492.52 3.09299 -3.97933 0
M  V30 5494 H 492.122 1.44168 -3.45097 0
M  V30 5495 H 494.414 3.70562 -5.67177 0
M  V30 5496 H 495.357 2.51249 -6.62027 0
M  V30 5497 H 495.765 2.79863 -4.90242 0
M  V30 5498 N 495.163 1.55791 0.238111 0
M  V30 5499 C 496.579 1.48411 0.587045 0
M  V30 5500 C 496.779 0.72702 1.87927 0
M  V30 5501 O 495.835 0.259942 2.51158 0
M  V30 5502 C 497.148 2.92873 0.681623 0
M  V30 5503 C 498.696 3.03295 0.773363 0
M  V30 5504 C 499.171 4.49082 0.899428 0
M  V30 5505 N 500.662 4.53056 0.964075 0
M  V30 5506 C 501.397 5.63117 1.08104 0
M  V30 5507 N 500.893 6.82969 1.16299 0
M  V30 5508 N 502.686 5.50933 1.11488 0
M  V30 5509 H 494.837 2.0345 -0.610076 0
M  V30 5510 H 497.1 0.924034 -0.211813 0
M  V30 5511 H 496.806 3.51142 -0.19802 0
M  V30 5512 H 496.68 3.43851 1.55069 0
M  V30 5513 H 499.067 2.45101 1.64346 0
M  V30 5514 H 499.148 2.55513 -0.121034 0
M  V30 5515 H 498.792 5.07889 0.0338586 0
M  V30 5516 H 498.722 4.94553 1.809 0
M  V30 5517 H 501.213 3.66737 0.91173 0
M  V30 5518 H 501.526 7.62598 1.25155 0
M  V30 5519 H 499.871 6.85712 1.13241 0
M  V30 5520 H 503.062 4.56231 1.0474 0
M  V30 5521 H 503.235 6.36743 1.20259 0
M  V30 5522 N 496.642 -0.504142 1.49319 0
M  V30 5523 C 498.058 -0.835039 1.36012 0
M  V30 5524 C 498.258 -1.97674 0.390808 0
M  V30 5525 O 497.314 -2.51867 -0.178655 0
M  V30 5526 C 498.627 -1.17821 2.76656 0
M  V30 5527 C 500.175 -1.2866 2.85334 0
M  V30 5528 C 500.65 -1.66307 4.26739 0
M  V30 5529 N 502.141 -1.73362 4.29534 0
M  V30 5530 C 502.876 -2.0393 5.35911 0
M  V30 5531 N 502.372 -2.32744 6.52535 0
M  V30 5532 N 504.165 -2.05155 5.23324 0
M  V30 5533 H 496.316 0.248764 2.10938 0
M  V30 5534 H 498.579 0.0486962 0.946748 0
M  V30 5535 H 498.285 -0.412682 3.4927 0
M  V30 5536 H 498.159 -2.12239 3.11825 0
M  V30 5537 H 500.546 -2.04285 2.1296 0
M  V30 5538 H 500.627 -0.323004 2.53752 0
M  V30 5539 H 500.271 -0.91234 4.99639 0
M  V30 5540 H 500.201 -2.63761 4.55782 0
M  V30 5541 H 502.692 -1.53268 3.45424 0
M  V30 5542 H 503.005 -2.55248 7.2943 0
M  V30 5543 H 501.35 -2.30207 6.55767 0
M  V30 5544 H 504.541 -1.82119 4.3122 0
M  V30 5545 H 504.714 -2.28644 6.06322 0
M  V30 5546 N 498.12 -1.38341 -0.754957 0
M  V30 5547 C 499.068 -1.35573 -1.89005 0
M  V30 5548 C 500.062 -0.241824 -1.67665 0
M  V30 5549 O 501.268 -0.410785 -1.7525 0
M  V30 5550 H 497.643 -0.422898 -0.621821 0
M  V30 5551 H 499.614 -2.31359 -1.88455 0
M  V30 5552 C 498.363 -1.19631 -3.26471 0
M  V30 5553 H 497.686 -2.04605 -3.43477 0
M  V30 5554 H 499.126 -1.21748 -4.06144 0
M  V30 5555 C 497.585 0.0968705 -3.36761 0
M  V30 5556 O 498.115 1.07439 -3.87066 0
M  V30 5557 N 496.321 0.153242 -2.90196 0
M  V30 5558 H 495.868 -0.642908 -2.49448 0
M  V30 5559 H 495.826 1.01807 -2.9746 0
M  V30 5560 N 499.598 0.982988 -1.23187 0
M  V30 5561 C 500.826 1.75921 -1.08901 0
M  V30 5562 C 501.241 1.85341 0.359719 0
M  V30 5563 O 500.598 1.33072 1.24892 0
M  V30 5564 C 500.649 3.18742 -1.70545 0
M  V30 5565 O 500.37 3.09814 -3.09753 0
M  V30 5566 C 501.871 4.1277 -1.61667 0
M  V30 5567 H 499.091 0.552166 -0.381252 0
M  V30 5568 H 501.635 1.23516 -1.62985 0
M  V30 5569 H 499.79 3.68182 -1.20501 0
M  V30 5570 H 500.204 3.99703 -3.39614 0
M  V30 5571 H 501.678 5.10697 -2.09506 0
M  V30 5572 H 502.155 4.3542 -0.575009 0
M  V30 5573 H 502.761 3.69232 -2.11064 0
M  V30 5574 N 501.076 1.04316 1.18135 0
M  V30 5575 C 502.325 0.74319 1.87509 0
M  V30 5576 C 502.638 -0.732136 1.81381 0
M  V30 5577 O 503.844 -1.14572 2.46141 0
M  V30 5578 C 502.3 1.27913 3.36402 0
M  V30 5579 C 501.908 2.78326 3.51053 0
M  V30 5580 C 503.652 1.0558 4.11161 0
M  V30 5581 C 501.559 3.25266 4.93919 0
M  V30 5582 H 500.489 0.274313 0.702331 0
M  V30 5583 H 503.14 1.25931 1.33467 0
M  V30 5584 H 501.522 0.690853 3.89927 0
M  V30 5585 H 502.696 3.42933 3.07788 0
M  V30 5586 H 501.011 2.991 2.89704 0
M  V30 5587 H 503.608 1.38161 5.16542 0
M  V30 5588 H 503.951 -0.00684729 4.16299 0
M  V30 5589 H 504.484 1.60882 3.63816 0
M  V30 5590 H 501.223 4.30922 4.9395 0
M  V30 5591 H 500.743 2.65396 5.3789 0
M  V30 5592 H 502.422 3.19433 5.62647 0
M  V30 5593 N 502.554 -1.34406 0.822964 0
M  V30 5594 C 503.484 -2.32052 0.259608 0
M  V30 5595 C 504.465 -1.58243 -0.623961 0
M  V30 5596 O 505.65 -1.86224 -0.55083 0
M  V30 5597 C 502.78 -3.42434 -0.579314 0
M  V30 5598 C 501.734 -4.27499 0.20712 0
M  V30 5599 C 501.06 -5.29349 -0.754547 0
M  V30 5600 C 502.36 -5.02758 1.41533 0
M  V30 5601 H 504.054 -2.79418 1.07545 0
M  V30 5602 H 501.6 -1.34338 0.518593 0
M  V30 5603 H 503.553 -4.0976 -0.983612 0
M  V30 5604 H 502.277 -2.93717 -1.4282 0
M  V30 5605 H 500.936 -3.61776 0.592787 0
M  V30 5606 H 500.584 -4.76895 -1.59939 0
M  V30 5607 H 500.284 -5.8714 -0.232561 0
M  V30 5608 H 501.808 -5.99544 -1.1567 0
M  V30 5609 H 503.222 -5.62938 1.08504 0
M  V30 5610 H 501.619 -5.70123 1.87296 0
M  V30 5611 H 502.689 -4.32451 2.1935 0
M  V30 5612 N 504.032 -0.577932 -1.46621 0
M  V30 5613 C 505.448 -0.239242 -1.57797 0
M  V30 5614 C 505.648 1.25843 -1.57371 0
M  V30 5615 O 504.704 2.03988 -1.48813 0
M  V30 5616 C 506.017 -0.884227 -2.87405 0
M  V30 5617 C 507.565 -0.857373 -3.01028 0
M  V30 5618 C 508.04 -1.48181 -4.33366 0
M  V30 5619 N 509.531 -1.44593 -4.40053 0
M  V30 5620 C 510.266 -1.89852 -5.41058 0
M  V30 5621 N 509.762 -2.43062 -6.48762 0
M  V30 5622 N 511.555 -1.80797 -5.3223 0
M  V30 5623 H 503.706 -1.55073 -1.45142 0
M  V30 5624 H 505.969 -0.647903 -0.692044 0
M  V30 5625 H 505.675 -1.93759 -2.93514 0
M  V30 5626 H 505.549 -0.389585 -3.75183 0
M  V30 5627 H 507.936 0.187357 -2.94505 0
M  V30 5628 H 508.017 -1.38999 -2.14739 0
M  V30 5629 H 507.661 -2.52572 -4.40647 0
M  V30 5630 H 507.591 -0.924464 -5.18422 0
M  V30 5631 H 510.082 -1.05694 -3.62819 0
M  V30 5632 H 510.395 -2.75466 -7.22038 0
M  V30 5633 H 508.74 -2.47085 -6.49595 0
M  V30 5634 H 511.931 -1.38989 -4.46989 0
M  V30 5635 H 512.104 -2.16385 -6.10804 0
M  V30 5636 N 505.51 1.54411 -0.315457 0
M  V30 5637 C 506.442 2.21527 0.588067 0
M  V30 5638 C 507.455 1.21263 1.08624 0
M  V30 5639 O 508.644 1.47777 1.00121 0
M  V30 5640 C 505.744 2.85963 1.81875 0
M  V30 5641 C 504.917 4.12291 1.46063 0
M  V30 5642 C 503.976 4.60396 2.54799 0
M  V30 5643 O 503.002 5.25265 2.19283 0
M  V30 5644 N 504.204 4.33935 3.85591 0
M  V30 5645 H 506.969 2.99697 0.013414 0
M  V30 5646 H 504.53 1.61308 -0.138295 0
M  V30 5647 H 506.522 3.15071 2.53993 0
M  V30 5648 H 505.092 2.11548 2.30144 0
M  V30 5649 H 504.312 3.90036 0.571445 0
M  V30 5650 H 505.6 4.9452 1.19695 0
M  V30 5651 H 504.998 3.81996 4.17248 0
M  V30 5652 H 503.555 4.67718 4.53964 0
M  V30 5653 N 506.988 0.0434614 1.5754 0
M  V30 5654 C 507.951 -0.918696 2.09982 0
M  V30 5655 C 508.951 -1.24488 1.01781 0
M  V30 5656 O 510.141 -1.18284 1.27885 0
M  V30 5657 C 507.273 -2.23093 2.57764 0
M  V30 5658 H 508.466 -0.464229 2.96285 0
M  V30 5659 H 506.019 -0.204818 1.54952 0
M  V30 5660 H 506.754 -2.73137 1.74832 0
M  V30 5661 H 506.539 -2.00724 3.36827 0
M  V30 5662 H 508.029 -2.92028 2.98512 0
M  V30 5663 N 508.466 -1.55915 -0.229846 0
M  V30 5664 C 509.882 -1.48721 -0.579166 0
M  V30 5665 C 510.082 -0.736976 -1.87539 0
M  V30 5666 O 509.138 -0.273258 -2.51017 0
M  V30 5667 C 510.451 -2.9323 -0.666082 0
M  V30 5668 C 511.999 -3.03701 -0.757267 0
M  V30 5669 C 512.474 -4.49552 -0.8756 0
M  V30 5670 N 513.965 -4.53561 -0.940035 0
M  V30 5671 C 514.7 -5.63683 -1.05116 0
M  V30 5672 N 514.196 -6.83576 -1.12675 0
M  V30 5673 N 515.989 -5.51516 -1.08565 0
M  V30 5674 H 508.14 -2.03123 0.620857 0
M  V30 5675 H 510.403 -0.922898 0.21671 0
M  V30 5676 H 510.109 -3.51032 0.21664 0
M  V30 5677 H 509.983 -3.44668 -1.53243 0
M  V30 5678 H 512.37 -2.45969 -1.63043 0
M  V30 5679 H 512.451 -2.55446 0.134583 0
M  V30 5680 H 512.095 -5.079 -0.00692351 0
M  V30 5681 H 512.025 -4.95506 -1.78274 0
M  V30 5682 H 514.516 -3.67215 -0.892269 0
M  V30 5683 H 514.829 -7.63251 -1.21109 0
M  V30 5684 H 513.174 -6.86303 -1.09603 0
M  V30 5685 H 516.365 -4.5678 -1.02319 0
M  V30 5686 H 516.538 -6.37372 -1.1688 0
M  V30 5687 N 509.944 0.496216 -1.49584 0
M  V30 5688 C 510.892 1.61805 -1.67098 0
M  V30 5689 C 511.886 1.60667 -0.536877 0
M  V30 5690 O 513.092 1.65118 -0.716654 0
M  V30 5691 H 509.467 0.53646 -0.526986 0
M  V30 5692 H 511.438 1.44187 -2.61252 0
M  V30 5693 C 510.187 2.99912 -1.75921 0
M  V30 5694 H 509.51 3.01496 -2.62565 0
M  V30 5695 H 510.95 3.77931 -1.92209 0
M  V30 5696 C 509.409 3.33092 -0.505088 0
M  V30 5697 O 509.939 4.00019 0.367085 0
M  V30 5698 N 508.145 2.88278 -0.366599 0
M  V30 5699 H 507.692 2.33989 -1.07735 0
M  V30 5700 H 507.65 3.10846 0.47142 0
M  V30 5701 N 511.423 1.38739 0.74761 0
M  V30 5702 C 512.373 1.32948 1.85226 0
M  V30 5703 C 513.357 0.212642 1.59489 0
M  V30 5704 O 514.549 0.449121 1.71207 0
M  V30 5705 C 511.678 1.16279 3.23008 0
M  V30 5706 C 510.764 2.32611 3.54617 0
M  V30 5707 N 511.155 3.58065 3.57244 0
M  V30 5708 C 509.453 2.25293 3.84914 0
M  V30 5709 C 510.154 4.34919 3.8629 0
M  V30 5710 N 509.13 3.64348 4.03425 0
M  V30 5711 H 512.932 2.27927 1.85544 0
M  V30 5712 H 510.446 1.32056 0.945253 0
M  V30 5713 H 512.443 1.10214 4.02068 0
M  V30 5714 H 511.103 0.222394 3.23937 0
M  V30 5715 H 512.114 3.91656 3.3886 0
M  V30 5716 H 508.791 1.39446 3.93524 0
M  V30 5717 H 510.181 5.43605 3.94896 0
M  V30 5718 N 512.901 -0.976442 1.23707 0
M  V30 5719 C 513.848 -2.06952 1.02174 0
M  V30 5720 C 514.818 -1.65984 -0.0621034 0
M  V30 5721 O 516.003 -1.90584 0.0907906 0
M  V30 5722 C 513.143 -3.39425 0.62327 0
M  V30 5723 C 512.256 -3.9364 1.77966 0
M  V30 5724 C 511.391 -5.14343 1.3276 0
M  V30 5725 C 510.43 -5.60733 2.45449 0
M  V30 5726 N 509.567 -6.72662 2.01172 0
M  V30 5727 H 514.407 -2.24704 1.95734 0
M  V30 5728 H 511.944 -1.10143 0.975034 0
M  V30 5729 H 513.902 -4.15526 0.37332 0
M  V30 5730 H 512.532 -3.21624 -0.275329 0
M  V30 5731 H 511.584 -3.14258 2.14351 0
M  V30 5732 H 512.896 -4.24035 2.62671 0
M  V30 5733 H 512.05 -5.97789 1.03601 0
M  V30 5734 H 510.789 -4.8561 0.450975 0
M  V30 5735 H 509.794 -4.75865 2.75378 0
M  V30 5736 H 511.019 -5.91483 3.33654 0
M  V30 5737 H 508.965 -6.45681 1.15895 0
M  V30 5738 H 508.882 -7.02462 2.79434 0
M  V30 5739 H 510.15 -7.59572 1.75129 0
M  V30 5740 N 514.379 -1.04941 -1.1758 0
M  V30 5741 C 515.309 -0.669172 -2.23706 0
M  V30 5742 C 516.29 0.331835 -1.66832 0
M  V30 5743 O 517.475 0.209988 -1.93061 0
M  V30 5744 C 514.605 -0.0404889 -3.47276 0
M  V30 5745 C 513.559 -0.965983 -4.16957 0
M  V30 5746 C 512.885 -0.201312 -5.34321 0
M  V30 5747 C 514.185 -2.28902 -4.69469 0
M  V30 5748 H 515.879 -1.55639 -2.55767 0
M  V30 5749 H 513.425 -0.749793 -1.22939 0
M  V30 5750 H 515.378 0.237298 -4.20731 0
M  V30 5751 H 514.102 0.881658 -3.14475 0
M  V30 5752 H 512.761 -1.22829 -3.45411 0
M  V30 5753 H 512.409 0.723519 -4.97769 0
M  V30 5754 H 512.109 -0.817968 -5.81879 0
M  V30 5755 H 513.633 0.0692499 -6.10561 0
M  V30 5756 H 515.047 -2.07132 -5.34574 0
M  V30 5757 H 513.444 -2.85942 -5.27596 0
M  V30 5758 H 514.514 -2.92937 -3.86414 0
M  V30 5759 N 515.857 1.33968 -0.830081 0
M  V30 5760 C 517.273 1.51003 -0.516742 0
M  V30 5761 C 517.473 1.77286 0.957694 0
M  V30 5762 O 516.529 1.82797 1.74188 0
M  V30 5763 C 517.842 2.67036 -1.38247 0
M  V30 5764 C 519.39 2.80919 -1.38034 0
M  V30 5765 C 519.865 4.00004 -2.23071 0
M  V30 5766 N 521.356 4.07224 -2.20733 0
M  V30 5767 C 522.091 4.98541 -2.83275 0
M  V30 5768 N 521.587 5.95033 -3.54835 0
M  V30 5769 N 523.38 4.91469 -2.72791 0
M  V30 5770 H 515.531 1.15168 -1.78466 0
M  V30 5771 H 517.794 0.565443 -0.760906 0
M  V30 5772 H 517.5 2.54266 -2.42985 0
M  V30 5773 H 517.374 3.62226 -1.05225 0
M  V30 5774 H 519.761 2.93127 -0.340713 0
M  V30 5775 H 519.842 1.86517 -1.75057 0
M  V30 5776 H 519.486 3.88557 -3.27087 0
M  V30 5777 H 519.416 4.93634 -1.83394 0
M  V30 5778 H 521.907 3.38162 -1.68687 0
M  V30 5779 H 522.22 6.61357 -3.99784 0
M  V30 5780 H 520.565 5.95135 -3.58942 0
M  V30 5781 H 523.756 4.15048 -2.16456 0
M  V30 5782 H 523.929 5.62439 -3.21818 0
M  V30 5783 N 517.335 0.585699 1.46312 0
M  V30 5784 C 518.581 0.0725284 2.0267 0
M  V30 5785 C 518.914 -1.28523 1.45586 0
M  V30 5786 O 518.189 -1.84283 0.622101 0
M  V30 5787 C 518.472 0.0099788 3.60099 0
M  V30 5788 C 518.325 1.39685 4.27561 0
M  V30 5789 C 519.644 -0.689117 4.34671 0
M  V30 5790 H 516.763 0.0278307 0.736474 0
M  V30 5791 H 519.405 0.753472 1.74421 0
M  V30 5792 H 517.555 -0.56992 3.84297 0
M  V30 5793 H 519.227 2.02215 4.14617 0
M  V30 5794 H 517.47 1.96374 3.86807 0
M  V30 5795 H 518.141 1.30553 5.36339 0
M  V30 5796 H 520.617 -0.196446 4.15636 0
M  V30 5797 H 519.493 -0.701921 5.44393 0
M  V30 5798 H 519.754 -1.75101 4.05946 0
M  V30 5799 N 518.813 -1.54241 0.323641 0
M  V30 5800 C 520.09 -1.92741 -0.333181 0
M  V30 5801 C 520.47 -1.25326 -1.69872 0
M  V30 5802 O 519.818 -0.396991 -2.25025 0
M  V30 5803 C 520.028 -3.46399 -0.425322 0
M  V30 5804 C 521.376 -4.19029 -0.68557 0
M  V30 5805 O 522.4 -3.52555 -0.50824 0
M  V30 5806 O 521.259 -5.36751 -1.02767 0
M  V30 5807 H 518.353 -0.804811 -0.190286 0
M  V30 5808 H 520.899 -1.65542 0.373361 0
M  V30 5809 H 519.671 -3.87643 0.533737 0
M  V30 5810 H 519.294 -3.79704 -1.17944 0
M  V30 5811 N 520.291 -0.0518155 -1.57515 0
M  V30 5812 C 521.238 0.922352 -2.11569 0
M  V30 5813 C 522.208 1.30842 -1.02321 0
M  V30 5814 O 523.393 1.39778 -1.29872 0
M  V30 5815 C 520.533 2.19167 -2.6657 0
M  V30 5816 C 519.646 1.86003 -3.89906 0
M  V30 5817 C 518.781 3.07398 -4.33221 0
M  V30 5818 C 517.82 2.70158 -5.49255 0
M  V30 5819 N 516.957 3.84248 -5.8762 0
M  V30 5820 H 521.797 0.454506 -2.94514 0
M  V30 5821 H 519.334 0.212718 -1.45554 0
M  V30 5822 H 521.292 2.93443 -2.96559 0
M  V30 5823 H 519.922 2.63528 -1.86421 0
M  V30 5824 H 518.974 1.01874 -3.66505 0
M  V30 5825 H 520.286 1.54592 -4.74239 0
M  V30 5826 H 519.44 3.89972 -4.64765 0
M  V30 5827 H 518.179 3.41988 -3.477 0
M  V30 5828 H 517.184 1.86001 -5.17382 0
M  V30 5829 H 518.409 2.36759 -6.36492 0
M  V30 5830 H 516.355 4.18638 -5.05053 0
M  V30 5831 H 516.272 3.56538 -6.66646 0
M  V30 5832 H 517.54 4.6746 -6.2378 0
M  V30 5833 N 521.769 1.56035 0.221574 0
M  V30 5834 C 522.732 1.91584 1.2581 0
M  V30 5835 C 523.732 0.794425 1.39805 0
M  V30 5836 O 524.922 1.06217 1.38071 0
M  V30 5837 C 522.054 2.16663 2.63192 0
M  V30 5838 H 523.247 2.8429 0.954935 0
M  V30 5839 H 520.8 1.49316 0.461988 0
M  V30 5840 H 521.535 1.26508 2.98607 0
M  V30 5841 H 521.32 2.98358 2.5441 0
M  V30 5842 H 522.81 2.45262 3.37988 0
M  V30 5843 N 523.247 -0.488276 1.49845 0
M  V30 5844 C 524.21 -1.57069 1.66919 0
M  V30 5845 C 525.21 -1.51445 0.540479 0
M  V30 5846 O 526.4 -1.5437 0.807188 0
M  V30 5847 C 523.532 -2.96718 1.67844 0
M  V30 5848 H 524.725 -1.43254 2.63474 0
M  V30 5849 H 522.278 -0.713435 1.39068 0
M  V30 5850 H 523.013 -3.15996 0.7292 0
M  V30 5851 H 522.798 -3.02208 2.49826 0
M  V30 5852 H 524.288 -3.75335 1.83066 0
M  V30 5853 N 524.725 -1.39134 -0.740242 0
M  V30 5854 C 525.688 -1.37217 -1.83587 0
M  V30 5855 C 526.688 -0.270221 -1.58513 0
M  V30 5856 O 527.878 -0.527843 -1.6601 0
M  V30 5857 C 525.01 -1.13959 -3.21288 0
M  V30 5858 H 526.203 -2.34705 -1.86691 0
M  V30 5859 H 523.756 -1.24622 -0.94335 0
M  V30 5860 H 524.491 -0.17131 -3.23847 0
M  V30 5861 H 524.276 -1.93754 -3.40884 0
M  V30 5862 H 525.766 -1.15346 -4.01354 0
M  V30 5863 N 526.204 0.969867 -1.24223 0
M  V30 5864 C 527.167 2.04564 -1.03373 0
M  V30 5865 C 528.167 1.60798 0.00819206 0
M  V30 5866 O 529.357 1.72641 -0.232567 0
M  V30 5867 C 526.489 3.36163 -0.566343 0
M  V30 5868 H 527.682 2.24494 -1.98853 0
M  V30 5869 H 525.235 1.1448 -1.06415 0
M  V30 5870 H 525.97 3.21925 0.391751 0
M  V30 5871 H 525.755 3.69273 -1.31834 0
M  V30 5872 H 527.245 4.1526 -0.441435 0
M  V30 5873 N 527.682 1.05563 1.17022 0
M  V30 5874 C 528.645 0.664098 2.19368 0
M  V30 5875 C 529.645 -0.286358 1.5823 0
M  V30 5876 O 530.835 -0.069728 1.7406 0
M  V30 5877 C 527.967 -0.0239932 3.40892 0
M  V30 5878 H 529.16 1.57 2.55521 0
M  V30 5879 H 526.713 0.849964 1.31169 0
M  V30 5880 H 527.448 -0.942988 3.10287 0
M  V30 5881 H 527.233 0.659351 3.86516 0
M  V30 5882 H 528.723 -0.283909 4.16634 0
M  V30 5883 N 529.16 -1.33526 0.837174 0
M  V30 5884 C 530.123 -2.27551 0.274421 0
M  V30 5885 C 531.123 -1.50886 -0.555881 0
M  V30 5886 O 532.313 -1.70227 -0.369918 0
M  V30 5887 C 529.445 -3.35332 -0.613605 0
M  V30 5888 H 530.638 -2.78837 1.10408 0
M  V30 5889 H 528.191 -1.439 0.610126 0
M  V30 5890 H 528.926 -2.89285 -1.46577 0
M  V30 5891 H 528.711 -3.92095 -0.0195341 0
M  V30 5892 H 530.201 -4.05433 -1.00068 0
M  V30 5893 N 530.638 -0.59345 -1.46 0
M  V30 5894 C 531.601 0.123538 -2.28867 0
M  V30 5895 C 532.601 0.808628 -1.38989 0
M  V30 5896 O 533.791 0.658945 -1.61256 0
M  V30 5897 C 530.923 1.1847 -3.19653 0
M  V30 5898 H 532.116 -0.604843 -2.93737 0
M  V30 5899 H 529.669 -0.351875 -1.52288 0
M  V30 5900 H 530.404 1.94431 -2.59552 0
M  V30 5901 H 530.189 0.69783 -3.8584 0
M  V30 5902 H 531.679 1.68726 -3.81997 0
M  V30 5903 N 532.116 1.54067 -0.331816 0
M  V30 5904 C 533.046 2.27569 0.522932 0
M  V30 5905 C 534.027 1.28679 1.11247 0
M  V30 5906 O 535.212 1.57504 1.13605 0
M  V30 5907 C 532.342 3.0397 1.67987 0
M  V30 5908 C 531.296 4.10267 1.21924 0
M  V30 5909 C 530.622 4.74555 2.46377 0
M  V30 5910 C 531.922 5.21268 0.32815 0
M  V30 5911 H 533.616 2.99264 -0.0901977 0
M  V30 5912 H 531.162 1.4393 -0.044821 0
M  V30 5913 H 533.115 3.54123 2.28418 0
M  V30 5914 H 531.839 2.29906 2.31971 0
M  V30 5915 H 530.498 3.61009 0.637809 0
M  V30 5916 H 530.146 3.97098 3.08743 0
M  V30 5917 H 529.846 5.46363 2.16243 0
M  V30 5918 H 531.37 5.27487 3.07555 0
M  V30 5919 H 532.784 5.67128 0.838978 0
M  V30 5920 H 531.181 5.99982 0.119228 0
M  V30 5921 H 532.251 4.80673 -0.638839 0
M  V30 5922 N 533.594 0.0601682 1.57485 0
M  V30 5923 C 534.526 -0.94047 2.09016 0
M  V30 5924 C 535.539 -1.26897 1.01985 0
M  V30 5925 O 536.728 -1.22819 1.29529 0
M  V30 5926 C 533.828 -2.25955 2.52582 0
M  V30 5927 C 533.001 -2.11163 3.83052 0
M  V30 5928 C 532.06 -3.26273 4.12835 0
M  V30 5929 O 531.086 -3.01779 4.82616 0
M  V30 5930 N 532.288 -4.51022 3.65458 0
M  V30 5931 H 535.053 -0.500578 2.9549 0
M  V30 5932 H 532.614 -0.125852 1.6141 0
M  V30 5933 H 534.606 -3.01846 2.69575 0
M  V30 5934 H 533.176 -2.61481 1.71308 0
M  V30 5935 H 532.396 -1.19808 3.75552 0
M  V30 5936 H 533.684 -1.98517 4.68475 0
M  V30 5937 H 533.082 -4.73811 3.09062 0
M  V30 5938 H 531.639 -5.23978 3.87673 0
M  V30 5939 N 535.072 -1.5615 -0.213296 0
M  V30 5940 C 536.035 -1.92249 -1.24792 0
M  V30 5941 C 537.035 -0.801828 -1.39382 0
M  V30 5942 O 538.225 -1.06948 -1.37506 0
M  V30 5943 C 535.357 -2.18056 -2.62039 0
M  V30 5944 H 536.55 -2.84793 -0.939845 0
M  V30 5945 H 534.103 -1.49559 -0.454062 0
M  V30 5946 H 534.838 -1.2809 -2.97932 0
M  V30 5947 H 534.623 -2.99703 -2.52825 0
M  V30 5948 H 536.113 -2.47051 -3.36683 0
M  V30 5949 N 536.55 0.480323 -1.50102 0
M  V30 5950 C 537.497 1.57946 -1.6829 0
M  V30 5951 C 538.467 1.57611 -0.524223 0
M  V30 5952 O 539.652 1.75282 -0.753709 0
M  V30 5953 C 536.792 2.95978 -1.77457 0
M  V30 5954 C 535.905 3.06173 -3.04766 0
M  V30 5955 C 535.04 4.35063 -3.04784 0
M  V30 5956 C 534.079 4.38966 -4.26586 0
M  V30 5957 N 533.216 5.59314 -4.24396 0
M  V30 5958 H 538.056 1.41743 -2.62131 0
M  V30 5959 H 535.593 0.689304 -1.2995 0
M  V30 5960 H 537.551 3.76011 -1.80752 0
M  V30 5961 H 536.181 3.10837 -0.870637 0
M  V30 5962 H 535.233 2.19071 -3.10986 0
M  V30 5963 H 536.545 3.04916 -3.9475 0
M  V30 5964 H 535.699 5.23436 -3.06757 0
M  V30 5965 H 534.438 4.38915 -2.12614 0
M  V30 5966 H 533.443 3.48992 -4.24835 0
M  V30 5967 H 534.668 4.36813 -5.19972 0
M  V30 5968 H 532.614 5.63969 -3.35074 0
M  V30 5969 H 532.531 5.5976 -5.08138 0
M  V30 5970 H 533.799 6.49837 -4.30502 0
M  V30 5971 N 538.028 1.39524 0.732853 0
M  V30 5972 C 539.253 1.40329 1.52717 0
M  V30 5973 C 539.678 0.000286574 1.881 0
M  V30 5974 O 539.036 -0.987262 1.52062 0
M  V30 5975 C 539.084 2.28464 2.78992 0
M  V30 5976 O 538.188 1.716 3.75003 0
M  V30 5977 H 537.529 0.47778 0.461109 0
M  V30 5978 H 540.059 1.83546 0.903996 0
M  V30 5979 H 540.069 2.43051 3.27705 0
M  V30 5980 H 538.744 3.30425 2.52572 0
M  V30 5981 H 537.321 1.66267 3.33781 0
M  V30 5982 N 539.506 -0.963266 1.24736 0
M  V30 5983 C 540.783 -1.68248 0.9976 0
M  V30 5984 C 541.163 -2.05599 -0.478776 0
M  V30 5985 O 540.511 -1.7626 -1.45412 0
M  V30 5986 C 540.721 -2.91118 1.92487 0
M  V30 5987 C 542.069 -3.63261 2.19833 0
M  V30 5988 O 543.093 -3.01184 1.90176 0
M  V30 5989 O 541.952 -4.75019 2.7022 0
M  V30 5990 H 539.046 -0.735744 0.377637 0
M  V30 5991 H 541.592 -1.01696 1.35853 0
M  V30 5992 H 540.364 -2.60242 2.92215 0
M  V30 5993 H 539.987 -3.65402 1.56738 0
M  V30 5994 N 540.985 -1.06182 -1.16461 0
M  V30 5995 C 541.895 -0.682671 -2.24448 0
M  V30 5996 C 542.911 0.30078 -1.71381 0
M  V30 5997 O 544.087 0.150376 -2.00838 0
M  V30 5998 C 541.152 -0.0737202 -3.46622 0
M  V30 5999 C 540.213 -1.10889 -4.14731 0
M  V30 6000 C 539.446 -0.528908 -5.31073 0
M  V30 6001 O 539.669 0.65868 -5.66584 0
M  V30 6002 O 538.603 -1.26805 -5.88391 0
M  V30 6003 H 542.429 -1.58291 -2.59187 0
M  V30 6004 H 540.014 -0.834013 -1.23954 0
M  V30 6005 H 541.896 0.264192 -4.20571 0
M  V30 6006 H 540.571 0.800015 -3.13658 0
M  V30 6007 H 539.478 -1.49896 -3.42756 0
M  V30 6008 H 540.811 -1.95412 -4.51747 0
M  V30 6009 N 542.463 1.3308 -0.844243 0
M  V30 6010 C 543.41 2.29104 -0.279323 0
M  V30 6011 C 544.38 1.54577 0.607882 0
M  V30 6012 O 545.565 1.8285 0.545009 0
M  V30 6013 C 542.705 3.40927 0.53508 0
M  V30 6014 C 541.818 4.30354 -0.376749 0
M  V30 6015 C 540.953 5.29297 0.449276 0
M  V30 6016 C 539.992 6.10365 -0.460606 0
M  V30 6017 N 539.129 7.01335 0.327612 0
M  V30 6018 H 543.969 2.76817 -1.10346 0
M  V30 6019 H 541.506 1.36203 -0.555611 0
M  V30 6020 H 543.464 4.04469 1.02278 0
M  V30 6021 H 542.094 2.94391 1.32414 0
M  V30 6022 H 541.146 3.67485 -0.982791 0
M  V30 6023 H 542.458 4.87067 -1.07549 0
M  V30 6024 H 541.612 5.98392 1.00058 0
M  V30 6025 H 540.351 4.73174 1.18143 0
M  V30 6026 H 539.356 5.40182 -1.02388 0
M  V30 6027 H 540.581 6.68571 -1.1912 0
M  V30 6028 H 538.527 6.47655 1.04305 0
M  V30 6029 H 538.444 7.55355 -0.3123 0
M  V30 6030 H 539.712 7.74731 0.86098 0
M  V30 6031 N 543.941 0.601185 1.45683 0
M  V30 6032 C 544.904 -0.111398 2.28929 0
M  V30 6033 C 545.904 -0.801246 1.39416 0
M  V30 6034 O 547.094 -0.650383 1.61603 0
M  V30 6035 C 544.226 -1.16773 3.20276 0
M  V30 6036 H 545.419 0.620412 2.93413 0
M  V30 6037 H 542.972 0.359946 1.52099 0
M  V30 6038 H 543.707 -1.93051 2.60579 0
M  V30 6039 H 543.492 -0.677358 3.86205 0
M  V30 6040 H 544.982 -1.66698 3.82886 0
M  V30 6041 N 545.419 -1.53889 0.339982 0
M  V30 6042 C 546.382 -2.23547 -0.50592 0
M  V30 6043 C 547.382 -1.23445 -1.03044 0
M  V30 6044 O 548.572 -1.47909 -0.920253 0
M  V30 6045 C 545.704 -2.95234 -1.7044 0
M  V30 6046 H 546.897 -2.99722 0.103247 0
M  V30 6047 H 544.45 -1.56033 0.0912804 0
M  V30 6048 H 545.185 -2.23236 -2.35236 0
M  V30 6049 H 544.97 -3.68654 -1.33553 0
M  V30 6050 H 546.46 -3.48258 -2.30447 0
M  V30 6051 N 546.897 -0.0685191 -1.57451 0
M  V30 6052 C 548.143 0.602239 -1.93652 0
M  V30 6053 C 548.476 1.6946 -0.948526 0
M  V30 6054 O 547.751 1.94487 0.022782 0
M  V30 6055 C 548.034 1.18223 -3.4014 0
M  V30 6056 C 547.887 0.0967431 -4.49696 0
M  V30 6057 C 549.206 2.08872 -3.87377 0
M  V30 6058 H 546.325 0.217453 -0.70419 0
M  V30 6059 H 548.967 -0.133821 -1.89528 0
M  V30 6060 H 547.117 1.80953 -3.43785 0
M  V30 6061 H 548.789 -0.536155 -4.58174 0
M  V30 6062 H 547.032 -0.573063 -4.29998 0
M  V30 6063 H 547.703 0.542894 -5.49324 0
M  V30 6064 H 550.179 1.56081 -3.85717 0
M  V30 6065 H 549.055 2.46389 -4.90493 0
M  V30 6066 H 549.316 2.99572 -3.25129 0
M  V30 6067 N 548.375 1.56261 0.205012 0
M  V30 6068 C 549.338 1.92908 1.23771 0
M  V30 6069 C 550.338 0.809208 1.38955 0
M  V30 6070 O 551.528 1.07676 1.36936 0
M  V30 6071 C 548.66 2.19442 2.60879 0
M  V30 6072 H 549.853 2.85287 0.924728 0
M  V30 6073 H 547.406 1.49798 0.446125 0
M  V30 6074 H 548.141 1.29668 2.97248 0
M  V30 6075 H 547.926 3.0104 2.51232 0
M  V30 6076 H 549.416 2.48833 3.35368 0
M  V30 6077 N 549.853 -0.472356 1.50355 0
M  V30 6078 C 551.101 -1.22211 1.60962 0
M  V30 6079 C 551.422 -1.92497 0.311439 0
M  V30 6080 O 550.692 -1.8405 -0.671002 0
M  V30 6081 H 549.272 -0.454092 0.593135 0
M  V30 6082 H 551.934 -0.544977 1.87126 0
M  V30 6083 H 551.03 -1.9707 2.42012 0
M  V30 6084 N 551.331 -1.39911 -0.725443 0
M  V30 6085 C 552.278 -1.39393 -1.83952 0
M  V30 6086 C 553.248 -0.252249 -1.64173 0
M  V30 6087 O 554.433 -0.44882 -1.85446 0
M  V30 6088 C 551.573 -1.25262 -3.21564 0
M  V30 6089 C 550.686 -2.49054 -3.52982 0
M  V30 6090 C 549.821 -2.27439 -4.80047 0
M  V30 6091 C 548.86 -3.46857 -5.04338 0
M  V30 6092 N 547.997 -3.24499 -6.22611 0
M  V30 6093 H 552.837 -2.34622 -1.83729 0
M  V30 6094 H 550.374 -1.16537 -0.897636 0
M  V30 6095 H 552.332 -1.15077 -4.01015 0
M  V30 6096 H 550.962 -0.33657 -3.21041 0
M  V30 6097 H 550.014 -2.69805 -2.6816 0
M  V30 6098 H 551.326 -3.37973 -3.66846 0
M  V30 6099 H 550.48 -2.14551 -5.67497 0
M  V30 6100 H 549.219 -1.35929 -4.68374 0
M  V30 6101 H 548.224 -3.60232 -4.15346 0
M  V30 6102 H 549.449 -4.3928 -5.17889 0
M  V30 6103 H 547.395 -2.35663 -6.12208 0
M  V30 6104 H 547.312 -4.06978 -6.37106 0
M  V30 6105 H 548.58 -3.15325 -7.12875 0
M  V30 6106 N 552.809 0.956637 -1.25245 0
M  V30 6107 C 553.756 2.053 -1.05454 0
M  V30 6108 C 554.726 1.66062 0.0356889 0
M  V30 6109 O 555.911 1.90415 -0.121099 0
M  V30 6110 C 553.051 3.38391 -0.677191 0
M  V30 6111 C 552.164 3.90758 -1.84206 0
M  V30 6112 C 551.299 5.12165 -1.40926 0
M  V30 6113 C 550.338 5.56757 -2.54338 0
M  V30 6114 N 549.475 6.69376 -2.11848 0
M  V30 6115 H 554.315 2.21562 -1.99284 0
M  V30 6116 H 551.852 1.08578 -0.992434 0
M  V30 6117 H 553.81 4.1488 -0.43938 0
M  V30 6118 H 552.44 3.22021 0.224127 0
M  V30 6119 H 551.492 3.10808 -2.19323 0
M  V30 6120 H 552.804 4.19802 -2.69383 0
M  V30 6121 H 551.958 5.96065 -1.13098 0
M  V30 6122 H 550.697 4.84832 -0.528175 0
M  V30 6123 H 549.702 4.71423 -2.82913 0
M  V30 6124 H 550.927 5.861 -3.43022 0
M  V30 6125 H 548.873 6.43756 -1.26153 0
M  V30 6126 H 548.79 6.97927 -2.90574 0
M  V30 6127 H 550.058 7.5669 -1.87191 0
M  V30 6128 N 554.287 1.06798 1.15896 0
M  V30 6129 C 555.698 0.811355 1.68149 0
M  V30 6130 C 556.049 -0.664339 1.8461 0
M  V30 6131 O 555.174 -1.51485 1.54535 0
M  V30 6132 C 555.769 1.46624 3.05429 0
M  V30 6133 C 554.328 1.25726 3.54781 0
M  V30 6134 C 553.475 1.53949 2.3064 0
M  V30 6135 H 556.426 1.23078 1.00187 0
M  V30 6136 H 556.447 0.88437 3.7008 0
M  V30 6137 H 555.959 2.54025 2.93416 0
M  V30 6138 H 554.06 0.20322 3.72045 0
M  V30 6139 H 554.173 1.97354 4.36564 0
M  V30 6140 H 552.537 0.96025 2.35905 0
M  V30 6141 H 553.32 2.6252 2.2122 0
M  V30 6142 N 555.766 -1.3263 0.851289 0
M  V30 6143 C 557.012 -1.9766 0.453694 0
M  V30 6144 C 557.345 -1.67225 -0.987396 0
M  V30 6145 O 556.62 -0.958693 -1.69232 0
M  V30 6146 C 556.903 -3.5344 0.68936 0
M  V30 6147 C 556.756 -3.93517 2.17862 0
M  V30 6148 C 558.075 -4.39866 0.143555 0
M  V30 6149 H 555.194 -0.717989 0.166314 0
M  V30 6150 H 557.836 -1.57068 1.06909 0
M  V30 6151 H 555.986 -3.88147 0.165546 0
M  V30 6152 H 557.658 -3.69006 2.76826 0
M  V30 6153 H 555.901 -3.42798 2.65841 0
M  V30 6154 H 556.572 -5.02065 2.29422 0
M  V30 6155 H 559.048 -4.11875 0.591451 0
M  V30 6156 H 557.924 -5.47858 0.338043 0
M  V30 6157 H 558.185 -4.31696 -0.953466 0
M  V30 6158 N 557.244 -0.608902 -1.45362 0
M  V30 6159 C 558.49 -0.104762 -2.02529 0
M  V30 6160 C 558.823 1.26191 -1.47613 0
M  V30 6161 O 558.098 1.8327 -0.65134 0
M  V30 6162 C 558.381 -0.0672661 -3.60037 0
M  V30 6163 C 558.234 -1.4647 -4.25284 0
M  V30 6164 C 559.553 0.619877 -4.35713 0
M  V30 6165 H 556.672 -0.0395438 -0.735938 0
M  V30 6166 H 559.314 -0.781126 -1.73201 0
M  V30 6167 H 557.464 0.50871 -3.85155 0
M  V30 6168 H 559.136 -2.08785 -4.11347 0
M  V30 6169 H 557.379 -2.02502 -3.83634 0
M  V30 6170 H 558.05 -1.39069 -5.34195 0
M  V30 6171 H 560.526 0.130297 -4.15896 0
M  V30 6172 H 559.402 0.615224 -5.45441 0
M  V30 6173 H 559.663 1.68621 -4.0868 0
M  V30 6174 N 558.722 1.53707 -0.348139 0
M  V30 6175 C 559.97 2.00591 0.246478 0
M  V30 6176 C 560.291 1.23753 1.50699 0
M  V30 6177 O 559.561 0.345964 1.92821 0
M  V30 6178 H 558.141 0.741053 0.0940679 0
M  V30 6179 H 560.803 1.89139 -0.470354 0
M  V30 6180 H 559.899 3.08297 0.485714 0
M  V30 6181 N 560.2 0.0768682 1.57412 0
M  V30 6182 C 561.147 -0.888577 2.13009 0
M  V30 6183 C 562.117 -1.29198 1.0439 0
M  V30 6184 O 563.302 -1.37694 1.3208 0
M  V30 6185 C 560.442 -2.14899 2.70023 0
M  V30 6186 C 559.555 -1.79777 3.92816 0
M  V30 6187 C 558.69 -3.00467 4.38056 0
M  V30 6188 C 557.729 -2.61385 5.53484 0
M  V30 6189 N 556.866 -3.74851 5.93659 0
M  V30 6190 H 561.706 -0.407593 2.95199 0
M  V30 6191 H 559.243 -0.189534 1.45874 0
M  V30 6192 H 561.201 -2.88688 3.0119 0
M  V30 6193 H 559.831 -2.60529 1.9059 0
M  V30 6194 H 558.883 -0.960301 3.68079 0
M  V30 6195 H 560.195 -1.47027 4.76639 0
M  V30 6196 H 559.349 -3.82529 4.7091 0
M  V30 6197 H 558.088 -3.36413 3.53097 0
M  V30 6198 H 557.093 -1.77746 5.20275 0
M  V30 6199 H 558.318 -2.26603 6.40178 0
M  V30 6200 H 556.264 -4.1055 5.11649 0
M  V30 6201 H 556.181 -3.45887 6.72234 0
M  V30 6202 H 557.449 -4.57477 6.31138 0
M  V30 6203 N 561.678 -1.56367 -0.196722 0
M  V30 6204 C 562.625 -1.94417 -1.24382 0
M  V30 6205 C 563.595 -0.804543 -1.45315 0
M  V30 6206 O 564.78 -1.06256 -1.58475 0
M  V30 6207 C 561.92 -2.28757 -2.58388 0
M  V30 6208 C 561.033 -3.55775 -2.45047 0
M  V30 6209 C 560.168 -3.79445 -3.71746 0
M  V30 6210 C 559.207 -4.99894 -3.53231 0
M  V30 6211 N 558.344 -5.19826 -4.71938 0
M  V30 6212 H 563.184 -2.83691 -0.912338 0
M  V30 6213 H 560.721 -1.40392 -0.439135 0
M  V30 6214 H 562.679 -2.46682 -3.36457 0
M  V30 6215 H 561.309 -1.42625 -2.89582 0
M  V30 6216 H 560.361 -3.45905 -1.58284 0
M  V30 6217 H 561.673 -4.44 -2.27299 0
M  V30 6218 H 560.827 -3.97601 -4.58256 0
M  V30 6219 H 559.566 -2.89546 -3.92446 0
M  V30 6220 H 558.571 -4.81662 -2.65107 0
M  V30 6221 H 559.796 -5.913 -3.33978 0
M  V30 6222 H 557.742 -4.32875 -4.92905 0
M  V30 6223 H 557.659 -6.02228 -4.57009 0
M  V30 6224 H 558.927 -5.42439 -5.59803 0
M  V30 6225 N 563.156 0.464375 -1.50603 0
M  V30 6226 C 564.404 1.21356 -1.61608 0
M  V30 6227 C 564.725 1.92329 -0.321643 0
M  V30 6228 O 563.995 1.84403 0.661232 0
M  V30 6229 H 562.575 0.45094 -0.595535 0
M  V30 6230 H 565.237 0.535046 -1.87412 0
M  V30 6231 H 564.333 1.95783 -2.43054 0
M  V30 6232 N 564.634 1.40294 0.718013 0
M  V30 6233 C 565.581 1.40367 1.8321 0
M  V30 6234 C 566.551 0.260952 1.64037 0
M  V30 6235 O 567.736 0.458648 1.85205 0
M  V30 6236 C 564.876 1.26965 3.20895 0
M  V30 6237 C 563.989 2.50922 3.51656 0
M  V30 6238 C 563.124 2.29981 4.78834 0
M  V30 6239 C 562.163 3.49527 5.02491 0
M  V30 6240 N 561.3 3.27796 6.20882 0
M  V30 6241 H 566.14 2.35593 1.82482 0
M  V30 6242 H 563.677 1.17012 0.891444 0
M  V30 6243 H 565.635 1.17202 4.00399 0
M  V30 6244 H 564.265 0.353591 3.20858 0
M  V30 6245 H 563.317 2.71223 2.66725 0
M  V30 6246 H 564.629 3.39913 3.65048 0
M  V30 6247 H 563.783 2.17558 5.66351 0
M  V30 6248 H 562.522 1.38411 4.67647 0
M  V30 6249 H 561.527 3.6243 4.1343 0
M  V30 6250 H 562.752 4.42021 5.15553 0
M  V30 6251 H 560.698 2.38906 6.1095 0
M  V30 6252 H 560.615 4.10351 6.34939 0
M  V30 6253 H 561.883 3.19101 7.11193 0
M  V30 6254 N 566.112 -0.949982 1.2575 0
M  V30 6255 C 567.059 -2.04738 1.06541 0
M  V30 6256 C 568.029 -1.66078 -0.0268818 0
M  V30 6257 O 569.214 -1.90348 0.131196 0
M  V30 6258 C 566.354 -3.38027 0.695127 0
M  V30 6259 C 565.467 -3.89776 1.86276 0
M  V30 6260 C 564.602 -5.11411 1.4364 0
M  V30 6261 C 563.641 -5.554 2.57287 0
M  V30 6262 N 562.778 -6.68244 2.15395 0
M  V30 6263 H 567.618 -2.20502 2.00457 0
M  V30 6264 H 565.155 -1.0805 0.998178 0
M  V30 6265 H 567.113 -4.14641 0.461375 0
M  V30 6266 H 565.743 -3.22135 -0.207046 0
M  V30 6267 H 564.795 -3.0964 2.20969 0
M  V30 6268 H 566.107 -4.18368 2.71606 0
M  V30 6269 H 565.261 -5.95457 1.16257 0
M  V30 6270 H 564 -4.84545 0.553879 0
M  V30 6271 H 563.005 -4.69916 2.85409 0
M  V30 6272 H 564.23 -5.84272 3.46125 0
M  V30 6273 H 562.176 -6.43078 1.29565 0
M  V30 6274 H 562.093 -6.96377 2.94272 0
M  V30 6275 H 563.361 -7.55687 1.91201 0
M  V30 6276 N 567.59 -1.07411 -1.15328 0
M  V30 6277 C 568.553 -0.698914 -2.18284 0
M  V30 6278 C 569.553 0.261149 -1.58665 0
M  V30 6279 O 570.743 0.0420277 -1.74149 0
M  V30 6280 C 567.875 -0.0302427 -3.40887 0
M  V30 6281 H 569.068 -1.61045 -2.52991 0
M  V30 6282 H 566.621 -0.870724 -1.298 0
M  V30 6283 H 567.356 0.893505 -3.11748 0
M  V30 6284 H 567.141 -0.720759 -3.85419 0
M  V30 6285 H 568.631 0.21759 -4.17033 0
M  V30 6286 N 569.068 1.32177 -0.85831 0
M  V30 6287 C 570.031 2.27086 -0.310588 0
M  V30 6288 C 571.031 1.51751 0.531806 0
M  V30 6289 O 572.221 1.70794 0.34279 0
M  V30 6290 C 569.353 3.36266 0.560179 0
M  V30 6291 H 570.546 2.77045 -1.1483 0
M  V30 6292 H 568.099 1.42911 -0.632942 0
M  V30 6293 H 568.834 2.9158 1.41956 0
M  V30 6294 H 568.619 3.92077 -0.0428473 0
M  V30 6295 H 570.109 4.06974 0.936056 0
M  V30 6296 N 570.547 0.616602 1.45037 0
M  V30 6297 C 571.793 0.115501 2.02471 0
M  V30 6298 C 572.126 -1.25406 1.4828 0
M  V30 6299 O 571.401 -1.82922 0.661051 0
M  V30 6300 C 571.684 0.0863588 3.59996 0
M  V30 6301 C 571.537 1.48723 4.24501 0
M  V30 6302 C 572.856 -0.596762 4.36035 0
M  V30 6303 H 569.975 0.0434461 0.735718 0
M  V30 6304 H 572.617 0.7903 1.72784 0
M  V30 6305 H 570.767 -0.488277 3.85419 0
M  V30 6306 H 572.439 2.10964 4.10234 0
M  V30 6307 H 570.682 2.04534 3.82555 0
M  V30 6308 H 571.353 1.419 5.3345 0
M  V30 6309 H 573.829 -0.10824 4.15959 0
M  V30 6310 H 572.705 -0.586289 5.4576 0
M  V30 6311 H 572.966 -1.66451 4.09569 0
M  V30 6312 N 572.025 -1.5352 0.356285 0
M  V30 6313 C 573.273 -2.00719 -0.235837 0
M  V30 6314 C 573.594 -1.24551 -1.5004 0
M  V30 6315 O 572.864 -0.356185 -1.92635 0
M  V30 6316 H 571.444 -0.741542 -0.0901366 0
M  V30 6317 H 574.106 -1.88887 0.480378 0
M  V30 6318 H 573.202 -3.08551 -0.469357 0
M  V30 6319 N 573.503 -0.0852151 -1.57369 0
M  V30 6320 C 574.749 0.581666 -1.94279 0
M  V30 6321 C 575.082 1.68444 -0.966446 0
M  V30 6322 O 574.357 1.945 0.00215277 0
M  V30 6323 C 574.64 1.14609 -3.41375 0
M  V30 6324 C 574.493 0.0490414 -4.49773 0
M  V30 6325 C 575.812 2.04751 -3.8957 0
M  V30 6326 H 572.931 0.209972 -0.706456 0
M  V30 6327 H 575.573 -0.153915 -1.89376 0
M  V30 6328 H 573.723 1.77297 -3.45685 0
M  V30 6329 H 575.395 -0.584721 -4.57579 0
M  V30 6330 H 573.638 -0.618638 -4.29366 0
M  V30 6331 H 574.309 0.484601 -5.49869 0
M  V30 6332 H 576.785 1.51981 -3.87351 0
M  V30 6333 H 575.661 2.41173 -4.93079 0
M  V30 6334 H 575.922 2.96107 -3.28288 0
M  V30 6335 N 574.981 1.5647 0.188427 0
M  V30 6336 C 575.928 1.95073 1.23349 0
M  V30 6337 C 576.898 0.812238 1.44886 0
M  V30 6338 O 578.083 1.07095 1.57909 0
M  V30 6339 C 575.223 2.30124 2.57171 0
M  V30 6340 C 574.336 3.57069 2.43157 0
M  V30 6341 C 573.471 3.81411 3.69729 0
M  V30 6342 C 572.51 5.0176 3.50575 0
M  V30 6343 N 571.647 5.22321 4.69175 0
M  V30 6344 H 576.487 2.84171 0.89728 0
M  V30 6345 H 574.024 1.40623 0.431683 0
M  V30 6346 H 575.982 2.48463 3.35145 0
M  V30 6347 H 574.612 1.44159 2.88822 0
M  V30 6348 H 573.664 3.4674 1.56447 0
M  V30 6349 H 574.976 4.452 2.24942 0
M  V30 6350 H 574.13 4.00026 4.56141 0
M  V30 6351 H 572.869 2.91624 3.90905 0
M  V30 6352 H 571.874 4.83061 2.62549 0
M  V30 6353 H 573.099 5.93063 3.30837 0
M  V30 6354 H 571.045 4.35483 4.90602 0
M  V30 6355 H 570.962 6.04643 4.53809 0
M  V30 6356 H 572.23 5.45401 5.56919 0
M  V30 6357 N 576.459 -0.456382 1.50847 0
M  V30 6358 C 577.406 -1.55249 1.70782 0
M  V30 6359 C 578.376 -1.56757 0.549231 0
M  V30 6360 O 579.561 -1.74061 0.7815 0
M  V30 6361 C 576.701 -2.93118 1.82143 0
M  V30 6362 C 575.814 -3.01285 3.09598 0
M  V30 6363 C 574.949 -4.30159 3.11667 0
M  V30 6364 C 573.988 -4.32124 4.33515 0
M  V30 6365 N 573.125 -5.52492 4.3324 0
M  V30 6366 H 577.965 -1.37555 2.64353 0
M  V30 6367 H 575.502 -0.668543 1.3103 0
M  V30 6368 H 577.46 -3.73088 1.86711 0
M  V30 6369 H 576.09 -3.09413 0.919978 0
M  V30 6370 H 575.142 -2.14096 3.14431 0
M  V30 6371 H 576.454 -2.98597 3.99551 0
M  V30 6372 H 575.608 -5.18489 3.15046 0
M  V30 6373 H 574.347 -4.35477 2.1957 0
M  V30 6374 H 573.352 -3.42189 4.30333 0
M  V30 6375 H 574.577 -4.28485 5.26856 0
M  V30 6376 H 572.523 -5.58567 3.44004 0
M  V30 6377 H 572.44 -5.51605 5.16979 0
M  V30 6378 H 573.708 -6.42906 4.40786 0
M  V30 6379 N 577.937 -1.40673 -0.710563 0
M  V30 6380 C 578.869 -1.37256 -1.83558 0
M  V30 6381 C 579.882 -0.277133 -1.60424 0
M  V30 6382 O 581.071 -0.537831 -1.70205 0
M  V30 6383 C 578.171 -1.1144 -3.20054 0
M  V30 6384 C 577.344 -2.32734 -3.70342 0
M  V30 6385 C 576.403 -2.03002 -4.85465 0
M  V30 6386 O 575.429 -2.75912 -4.97857 0
M  V30 6387 N 576.631 -1.01105 -5.71627 0
M  V30 6388 H 579.396 -2.34215 -1.86985 0
M  V30 6389 H 576.957 -1.35091 -0.892301 0
M  V30 6390 H 578.949 -0.895265 -3.94673 0
M  V30 6391 H 577.519 -0.231307 -3.11743 0
M  V30 6392 H 576.739 -2.70446 -2.86798 0
M  V30 6393 H 578.027 -3.13584 -4.00678 0
M  V30 6394 H 577.425 -0.407303 -5.64232 0
M  V30 6395 H 575.982 -0.85182 -6.4621 0
M  V30 6396 N 579.415 0.9433 -1.26252 0
M  V30 6397 C 580.362 2.0417 -1.07625 0
M  V30 6398 C 581.332 1.6609 0.0180738 0
M  V30 6399 O 582.517 1.90276 -0.141289 0
M  V30 6400 C 579.657 3.37653 -0.713043 0
M  V30 6401 C 578.77 3.88783 -1.8834 0
M  V30 6402 C 577.905 5.10642 -1.4635 0
M  V30 6403 C 576.944 5.54028 -2.60229 0
M  V30 6404 N 576.081 6.67092 -2.18936 0
M  V30 6405 H 580.921 2.19436 -2.01623 0
M  V30 6406 H 578.458 1.07519 -1.00389 0
M  V30 6407 H 580.416 4.14391 -0.483358 0
M  V30 6408 H 579.046 3.22241 0.18996 0
M  V30 6409 H 578.098 3.08464 -2.22608 0
M  V30 6410 H 579.41 4.16922 -2.73821 0
M  V30 6411 H 578.564 5.94832 -1.19414 0
M  V30 6412 H 577.303 4.84244 -0.579568 0
M  V30 6413 H 576.308 4.68396 -2.87898 0
M  V30 6414 H 577.533 5.82429 -3.49219 0
M  V30 6415 H 575.479 6.42381 -1.32974 0
M  V30 6416 H 575.396 6.94806 -2.97961 0
M  V30 6417 H 576.664 7.54662 -1.95206 0
M  V30 6418 N 580.893 1.08022 1.14757 0
M  V30 6419 C 581.84 0.706657 2.19716 0
M  V30 6420 C 582.81 -0.30525 1.63271 0
M  V30 6421 O 583.995 -0.19015 1.8985 0
M  V30 6422 C 581.135 0.117914 3.44898 0
M  V30 6423 C 580.248 1.18212 4.15512 0
M  V30 6424 C 579.383 0.557659 5.28265 0
M  V30 6425 C 578.422 1.60418 5.90705 0
M  V30 6426 N 577.559 1.0018 6.94916 0
M  V30 6427 H 582.399 1.60603 2.51019 0
M  V30 6428 H 579.936 0.802664 1.23271 0
M  V30 6429 H 581.894 -0.241112 4.16503 0
M  V30 6430 H 580.524 -0.744788 3.1409 0
M  V30 6431 H 579.576 1.65863 3.42335 0
M  V30 6432 H 580.888 1.97533 4.5802 0
M  V30 6433 H 580.042 0.146654 6.06523 0
M  V30 6434 H 578.781 -0.267249 4.86967 0
M  V30 6435 H 577.786 2.02489 5.11154 0
M  V30 6436 H 579.011 2.43149 6.34078 0
M  V30 6437 H 576.957 0.197917 6.55701 0
M  V30 6438 H 576.874 1.73216 7.35889 0
M  V30 6439 H 578.142 0.616523 7.77058 0
M  V30 6440 N 582.371 -1.3172 0.865308 0
M  V30 6441 C 583.782 -1.79104 0.527126 0
M  V30 6442 C 584.133 -1.7135 -0.955695 0
M  V30 6443 O 583.258 -1.27845 -1.74598 0
M  V30 6444 C 583.853 -3.25207 0.950061 0
M  V30 6445 C 582.412 -3.70504 0.663611 0
M  V30 6446 C 581.559 -2.52605 1.14395 0
M  V30 6447 H 584.51 -1.18868 1.05148 0
M  V30 6448 H 584.531 -3.79535 0.270805 0
M  V30 6449 H 584.043 -3.30818 2.02931 0
M  V30 6450 H 582.144 -3.70398 -0.404474 0
M  V30 6451 H 582.257 -4.62845 1.23737 0
M  V30 6452 H 580.621 -2.4838 0.563859 0
M  V30 6453 H 581.404 -2.60964 2.23053 0
M  V30 6454 N 583.85 -0.624285 -1.44708 0
M  V30 6455 C 584.779 0.0717025 -2.3339 0
M  V30 6456 C 585.76 0.841814 -1.47809 0
M  V30 6457 O 586.946 0.809056 -1.76544 0
M  V30 6458 C 584.076 1.05852 -3.30776 0
M  V30 6459 C 583.029 0.400503 -4.26122 0
M  V30 6460 C 582.356 1.49674 -5.13324 0
M  V30 6461 C 583.656 -0.688924 -5.17737 0
M  V30 6462 H 585.35 -0.668819 -2.91834 0
M  V30 6463 H 582.896 -0.32308 -1.40329 0
M  V30 6464 H 584.849 1.5541 -3.91696 0
M  V30 6465 H 583.572 1.82984 -2.70526 0
M  V30 6466 H 582.231 -0.0743687 -3.66525 0
M  V30 6467 H 581.88 2.25877 -4.49431 0
M  V30 6468 H 581.58 1.06188 -5.77926 0
M  V30 6469 H 583.104 1.99427 -5.77115 0
M  V30 6470 H 584.518 -0.276724 -5.72632 0
M  V30 6471 H 582.915 -1.04652 -5.90904 0
M  V30 6472 H 583.985 -1.55884 -4.5916 0
M  V30 6473 N 585.328 1.53329 -0.364422 0
M  V30 6474 C 586.574 2.01537 0.225969 0
M  V30 6475 C 586.907 1.25128 1.48515 0
M  V30 6476 O 586.182 0.344653 1.91422 0
M  V30 6477 C 586.465 3.56339 0.519092 0
M  V30 6478 C 586.318 4.43441 -0.753639 0
M  V30 6479 C 587.637 4.19833 1.32015 0
M  V30 6480 H 584.756 0.732573 0.0806548 0
M  V30 6481 H 587.398 1.83597 -0.489084 0
M  V30 6482 H 585.548 3.71756 1.12825 0
M  V30 6483 H 587.22 4.39823 -1.39116 0
M  V30 6484 H 585.463 4.11457 -1.37424 0
M  V30 6485 H 586.134 5.49699 -0.503517 0
M  V30 6486 H 588.61 4.08242 0.804859 0
M  V30 6487 H 587.486 5.28177 1.49399 0
M  V30 6488 H 587.747 3.75821 2.32832 0
M  V30 6489 N 586.806 0.0935595 1.57322 0
M  V30 6490 C 588.054 -0.569383 1.93913 0
M  V30 6491 C 588.375 -1.68817 0.976009 0
M  V30 6492 O 587.645 -1.9588 0.0278099 0
M  V30 6493 H 586.225 -0.21332 0.715894 0
M  V30 6494 H 588.887 0.156531 1.9427 0
M  V30 6495 H 587.983 -0.980577 2.96296 0
M  V30 6496 N 588.284 -1.56567 -0.180126 0
M  V30 6497 C 589.231 -1.95725 -1.22313 0
M  V30 6498 C 590.201 -0.819911 -1.44453 0
M  V30 6499 O 591.386 -1.07931 -1.57339 0
M  V30 6500 C 588.526 -2.31484 -2.55947 0
M  V30 6501 C 587.639 -3.58354 -2.4126 0
M  V30 6502 C 586.774 -3.83366 -3.67701 0
M  V30 6503 C 585.813 -5.03612 -3.47909 0
M  V30 6504 N 584.95 -5.24802 -4.66398 0
M  V30 6505 H 589.79 -2.84642 -0.882198 0
M  V30 6506 H 587.327 -1.4085 -0.42422 0
M  V30 6507 H 589.285 -2.50237 -3.33822 0
M  V30 6508 H 587.915 -1.45689 -2.88053 0
M  V30 6509 H 586.967 -3.47565 -1.54606 0
M  V30 6510 H 588.279 -4.46386 -2.22577 0
M  V30 6511 H 587.433 -4.02439 -4.54013 0
M  V30 6512 H 586.172 -2.93692 -3.89353 0
M  V30 6513 H 585.177 -4.84447 -2.59983 0
M  V30 6514 H 586.402 -5.94809 -3.27688 0
M  V30 6515 H 584.348 -4.38079 -4.88286 0
M  V30 6516 H 584.265 -6.07041 -4.50596 0
M  V30 6517 H 585.533 -5.48346 -5.54019 0
M  V30 6518 N 589.762 0.448376 -1.51087 0
M  V30 6519 C 590.709 1.54341 -1.71603 0
M  V30 6520 C 591.679 1.56463 -0.557536 0
M  V30 6521 O 592.864 1.73644 -0.79072 0
M  V30 6522 C 590.004 2.92148 -1.83695 0
M  V30 6523 C 589.117 2.99639 -3.11192 0
M  V30 6524 C 588.252 4.285 -3.13944 0
M  V30 6525 C 587.291 4.29819 -4.35801 0
M  V30 6526 N 586.428 5.50186 -4.36164 0
M  V30 6527 H 591.268 1.36151 -2.65079 0
M  V30 6528 H 588.805 0.661585 -1.31383 0
M  V30 6529 H 590.763 3.72093 -1.88687 0
M  V30 6530 H 589.393 3.0892 -0.936374 0
M  V30 6531 H 588.445 2.12425 -3.15562 0
M  V30 6532 H 589.757 2.96474 -4.01129 0
M  V30 6533 H 588.911 5.16811 -3.17791 0
M  V30 6534 H 587.65 4.34307 -2.21876 0
M  V30 6535 H 586.655 3.39902 -4.32142 0
M  V30 6536 H 587.88 4.25685 -5.29121 0
M  V30 6537 H 585.826 5.56735 -3.46961 0
M  V30 6538 H 585.743 5.48856 -5.19897 0
M  V30 6539 H 587.011 6.40559 -4.44189 0
M  V30 6540 N 591.24 1.41047 0.703093 0
M  V30 6541 C 592.203 1.42036 1.79884 0
M  V30 6542 C 593.203 0.312153 1.57741 0
M  V30 6543 O 594.393 0.571672 1.64553 0
M  V30 6544 C 591.525 1.22437 3.18154 0
M  V30 6545 H 592.718 2.39572 1.80403 0
M  V30 6546 H 590.271 1.27079 0.909977 0
M  V30 6547 H 591.006 0.257112 3.23279 0
M  V30 6548 H 590.791 2.02723 3.35627 0
M  V30 6549 H 592.281 1.25946 3.98155 0
M  V30 6550 N 592.718 -0.936591 1.26751 0
M  V30 6551 C 593.681 -2.01752 1.08761 0
M  V30 6552 C 594.681 -1.60763 0.0344435 0
M  V30 6553 O 595.871 -1.71963 0.278258 0
M  V30 6554 C 593.003 -3.34543 0.655271 0
M  V30 6555 H 594.196 -2.19143 2.04735 0
M  V30 6556 H 591.749 -1.11618 1.09413 0
M  V30 6557 H 592.484 -3.22851 -0.30626 0
M  V30 6558 H 592.269 -3.65647 1.41578 0
M  V30 6559 H 593.759 -4.13944 0.551378 0
M  V30 6560 N 594.196 -1.08629 -1.14182 0
M  V30 6561 C 595.159 -0.722027 -2.1753 0
M  V30 6562 C 596.159 0.244305 -1.58933 0
M  V30 6563 O 597.349 0.0235545 -1.74184 0
M  V30 6564 C 594.481 -0.0663966 -3.40835 0
M  V30 6565 H 595.674 -1.63719 -2.51269 0
M  V30 6566 H 593.227 -0.884442 -1.28869 0
M  V30 6567 H 593.962 0.860389 -3.12678 0
M  V30 6568 H 593.747 -0.761598 -3.84632 0
M  V30 6569 H 595.237 0.173346 -4.1724 0
M  V30 6570 N 595.674 1.31259 -0.872281 0
M  V30 6571 C 596.902 2.00795 -0.498907 0
M  V30 6572 C 597.317 1.65464 0.909238 0
M  V30 6573 O 596.674 0.885073 1.59602 0
M  V30 6574 C 596.725 3.55625 -0.649092 0
M  V30 6575 O 596.446 3.89692 -2.00179 0
M  V30 6576 C 597.947 4.42434 -0.277034 0
M  V30 6577 H 595.167 0.642299 -0.194145 0
M  V30 6578 H 597.711 1.67438 -1.17408 0
M  V30 6579 H 595.866 3.87394 -0.0214402 0
M  V30 6580 H 596.28 4.84407 -2.01122 0
M  V30 6581 H 597.754 5.50299 -0.433064 0
M  V30 6582 H 598.231 4.32146 0.783989 0
M  V30 6583 H 598.837 4.16086 -0.880483 0
M  V30 6584 N 597.152 0.631951 1.44375 0
M  V30 6585 C 598.099 -0.0724807 2.30686 0
M  V30 6586 C 599.069 -0.835975 1.43529 0
M  V30 6587 O 600.254 -0.816849 1.7243 0
M  V30 6588 C 597.394 -1.04753 3.28817 0
M  V30 6589 C 596.507 -0.282367 4.31076 0
M  V30 6590 C 595.642 -1.2493 5.163 0
M  V30 6591 C 594.681 -0.473349 6.10267 0
M  V30 6592 N 593.818 -1.39079 6.88187 0
M  V30 6593 H 598.658 0.669477 2.90383 0
M  V30 6594 H 596.195 0.341927 1.43071 0
M  V30 6595 H 598.153 -1.62623 3.842 0
M  V30 6596 H 596.783 -1.75661 2.70819 0
M  V30 6597 H 595.835 0.412268 3.78159 0
M  V30 6598 H 597.147 0.321955 4.9776 0
M  V30 6599 H 596.301 -1.89931 5.76204 0
M  V30 6600 H 595.04 -1.88755 4.49692 0
M  V30 6601 H 594.045 0.190142 5.49471 0
M  V30 6602 H 595.27 0.16019 6.78911 0
M  V30 6603 H 593.216 -2.01623 6.24247 0
M  V30 6604 H 593.133 -0.840513 7.51313 0
M  V30 6605 H 594.401 -2.02961 7.52613 0
M  V30 6606 N 598.631 -1.53133 0.372548 0
M  V30 6607 C 599.578 -2.25951 -0.470631 0
M  V30 6608 C 600.548 -1.26895 -1.07176 0
M  V30 6609 O 601.733 -1.55691 -1.10294 0
M  V30 6610 C 598.873 -3.05726 -1.6008 0
M  V30 6611 C 597.986 -4.19684 -1.02416 0
M  V30 6612 C 597.121 -4.86888 -2.124 0
M  V30 6613 C 596.16 -5.92866 -1.52238 0
M  V30 6614 N 595.297 -6.53732 -2.56084 0
M  V30 6615 H 600.137 -2.97587 0.156816 0
M  V30 6616 H 597.674 -1.4683 0.0891571 0
M  V30 6617 H 599.632 -3.50258 -2.26661 0
M  V30 6618 H 598.262 -2.36331 -2.1988 0
M  V30 6619 H 597.314 -3.79588 -0.248426 0
M  V30 6620 H 598.626 -4.95821 -0.544366 0
M  V30 6621 H 597.78 -5.34638 -2.86787 0
M  V30 6622 H 596.519 -4.10239 -2.63734 0
M  V30 6623 H 595.524 -5.4447 -0.763685 0
M  V30 6624 H 596.749 -6.71439 -1.0172 0
M  V30 6625 H 594.695 -5.79932 -3.06618 0
M  V30 6626 H 594.612 -7.25429 -2.12811 0
M  V30 6627 H 595.88 -7.0613 -3.30152 0
M  V30 6628 N 600.109 -0.101901 -1.5727 0
M  V30 6629 C 601.52 0.426173 -1.81771 0
M  V30 6630 C 601.871 1.67725 -1.01797 0
M  V30 6631 O 600.996 2.14958 -0.249386 0
M  V30 6632 C 601.591 0.779962 -3.297 0
M  V30 6633 C 600.15 1.25275 -3.54941 0
M  V30 6634 C 599.297 0.252814 -2.76145 0
M  V30 6635 H 602.248 -0.32726 -1.55289 0
M  V30 6636 H 602.269 1.63891 -3.43395 0
M  V30 6637 H 601.781 -0.130778 -3.8788 0
M  V30 6638 H 599.882 2.18097 -3.021 0
M  V30 6639 H 599.995 1.20988 -4.63572 0
M  V30 6640 H 598.359 0.736362 -2.43823 0
M  V30 6641 H 599.142 -0.650724 -3.37076 0
M  V30 6642 N 601.587 1.56661 0.17182 0
M  V30 6643 C 602.55 1.9549 1.19651 0
M  V30 6644 C 603.55 0.838501 1.37207 0
M  V30 6645 O 604.74 1.10556 1.34622 0
M  V30 6646 C 601.872 2.24927 2.56166 0
M  V30 6647 H 603.065 2.87184 0.864007 0
M  V30 6648 H 600.618 1.50711 0.41425 0
M  V30 6649 H 601.353 1.35944 2.94431 0
M  V30 6650 H 601.138 3.06301 2.4479 0
M  V30 6651 H 602.628 2.55891 3.30014 0
M  V30 6652 N 603.065 -0.440357 1.51323 0
M  V30 6653 C 604.476 -1.02032 1.56353 0
M  V30 6654 C 604.827 -1.92382 0.385197 0
M  V30 6655 O 603.952 -2.10583 -0.498373 0
M  V30 6656 C 604.547 -1.85723 2.83359 0
M  V30 6657 C 603.106 -2.38774 2.90971 0
M  V30 6658 C 602.253 -1.17908 2.50984 0
M  V30 6659 H 605.204 -0.221744 1.57143 0
M  V30 6660 H 605.225 -2.71141 2.66951 0
M  V30 6661 H 604.737 -1.19939 3.69102 0
M  V30 6662 H 602.838 -3.08021 2.09651 0
M  V30 6663 H 602.951 -2.71778 3.94555 0
M  V30 6664 H 601.315 -1.52347 2.04114 0
M  V30 6665 H 602.098 -0.537393 3.39068 0
M  V30 6666 N 604.543 -1.41418 -0.695603 0
M  V30 6667 C 605.453 -1.45622 -1.83933 0
M  V30 6668 C 606.469 -0.346825 -1.70508 0
M  V30 6669 O 607.645 -0.59454 -1.92424 0
M  V30 6670 C 604.71 -1.33627 -3.19914 0
M  V30 6671 C 603.771 -2.54882 -3.45447 0
M  V30 6672 C 603.004 -2.43449 -4.7494 0
M  V30 6673 O 603.227 -1.45905 -5.51424 0
M  V30 6674 O 602.161 -3.33206 -5.01256 0
M  V30 6675 H 605.987 -2.42114 -1.83342 0
M  V30 6676 H 603.572 -1.22956 -0.848658 0
M  V30 6677 H 605.454 -1.29221 -4.01098 0
M  V30 6678 H 604.129 -0.402508 -3.21188 0
M  V30 6679 H 603.036 -2.64865 -2.64192 0
M  V30 6680 H 604.369 -3.47087 -3.48987 0
M  V30 6681 N 606.021 0.929856 -1.27246 0
M  V30 6682 C 606.968 2.03017 -1.09785 0
M  V30 6683 C 607.938 1.661 0.000456744 0
M  V30 6684 O 609.123 1.90116 -0.161462 0
M  V30 6685 C 606.263 3.36878 -0.748816 0
M  V30 6686 C 605.376 3.86763 -1.92453 0
M  V30 6687 C 604.511 5.09061 -1.51758 0
M  V30 6688 C 603.55 5.51237 -2.66091 0
M  V30 6689 N 602.687 6.64732 -2.25999 0
M  V30 6690 H 607.527 2.17285 -2.03939 0
M  V30 6691 H 605.064 1.06448 -1.01524 0
M  V30 6692 H 607.022 4.13855 -0.527283 0
M  V30 6693 H 605.652 3.22424 0.155771 0
M  V30 6694 H 604.704 3.06086 -2.25867 0
M  V30 6695 H 606.016 4.13994 -2.78227 0
M  V30 6696 H 605.17 5.93532 -1.25716 0
M  V30 6697 H 603.909 4.83602 -0.630896 0
M  V30 6698 H 602.914 4.65316 -2.92849 0
M  V30 6699 H 604.139 5.78692 -3.55377 0
M  V30 6700 H 602.085 6.40935 -1.3978 0
M  V30 6701 H 602.002 6.91607 -3.05313 0
M  V30 6702 H 603.27 7.52549 -2.03199 0
M  V30 6703 N 607.499 1.09233 1.13605 0
M  V30 6704 C 608.446 0.729921 2.18954 0
M  V30 6705 C 609.416 -0.287916 1.63586 0
M  V30 6706 O 610.601 -0.170003 1.90041 0
M  V30 6707 C 607.741 0.154489 3.44754 0
M  V30 6708 C 606.854 1.22613 4.14234 0
M  V30 6709 C 605.989 0.613657 5.27644 0
M  V30 6710 C 605.028 1.66674 5.8897 0
M  V30 6711 N 604.165 1.07545 6.93814 0
M  V30 6712 H 609.005 1.63257 2.49302 0
M  V30 6713 H 606.542 0.815693 1.22413 0
M  V30 6714 H 608.5 -0.196923 4.16735 0
M  V30 6715 H 607.13 -0.711433 3.14863 0
M  V30 6716 H 606.182 1.69485 3.40557 0
M  V30 6717 H 607.494 2.0238 4.55899 0
M  V30 6718 H 606.648 0.210976 6.06333 0
M  V30 6719 H 605.387 -0.215584 4.87223 0
M  V30 6720 H 604.392 2.07899 5.08978 0
M  V30 6721 H 605.617 2.49861 6.31464 0
M  V30 6722 H 603.563 0.267451 6.55455 0
M  V30 6723 H 603.48 1.81011 7.3401 0
M  V30 6724 H 604.748 0.698906 7.7636 0
M  V30 6725 N 608.977 -1.30795 0.87923 0
M  V30 6726 C 610.388 -1.78535 0.546093 0
M  V30 6727 C 610.739 -1.72354 -0.937467 0
M  V30 6728 O 609.864 -1.2969 -1.73233 0
M  V30 6729 C 610.459 -3.24181 0.9845 0
M  V30 6730 C 609.018 -3.69779 0.702871 0
M  V30 6731 C 608.165 -2.51377 1.17068 0
M  V30 6732 H 611.116 -1.17746 1.06403 0
M  V30 6733 H 611.137 -3.79227 0.311045 0
M  V30 6734 H 610.649 -3.28647 2.06429 0
M  V30 6735 H 608.75 -3.70806 -0.365166 0
M  V30 6736 H 608.863 -4.61507 1.28639 0
M  V30 6737 H 607.227 -2.47768 0.590172 0
M  V30 6738 H 608.01 -2.58584 2.25808 0
M  V30 6739 N 610.455 -0.639598 -1.44038 0
M  V30 6740 C 611.418 0.0506628 -2.29144 0
M  V30 6741 C 612.418 0.764001 -1.41491 0
M  V30 6742 O 613.608 0.607309 -1.63271 0
M  V30 6743 C 610.74 1.0824 -3.2326 0
M  V30 6744 H 611.933 -0.697987 -2.91664 0
M  V30 6745 H 609.486 -0.400146 -1.51091 0
M  V30 6746 H 610.221 1.86075 -2.65606 0
M  V30 6747 H 610.006 0.574725 -3.87865 0
M  V30 6748 H 611.496 1.56487 -3.87171 0
M  V30 6749 N 611.933 1.52934 -0.380664 0
M  V30 6750 C 612.843 2.29921 0.466192 0
M  V30 6751 C 613.859 1.36488 1.07922 0
M  V30 6752 O 615.035 1.69553 1.0869 0
M  V30 6753 C 612.1 3.08468 1.58266 0
M  V30 6754 C 611.161 4.17595 0.995627 0
M  V30 6755 C 610.394 4.92387 2.05889 0
M  V30 6756 O 610.617 4.67184 3.27254 0
M  V30 6757 O 609.551 5.77949 1.68102 0
M  V30 6758 H 613.377 3.03274 -0.160735 0
M  V30 6759 H 610.962 1.48698 -0.144617 0
M  V30 6760 H 612.844 3.57469 2.23145 0
M  V30 6761 H 611.519 2.37937 2.19471 0
M  V30 6762 H 610.426 3.72811 0.310332 0
M  V30 6763 H 611.759 4.90336 0.427918 0
M  V30 6764 N 613.412 0.11024 1.57214 0
M  V30 6765 C 614.359 -0.843195 2.14846 0
M  V30 6766 C 615.329 -1.26954 1.07107 0
M  V30 6767 O 616.514 -1.34861 1.34971 0
M  V30 6768 C 613.654 -2.09123 2.74521 0
M  V30 6769 C 612.767 -1.71404 3.96541 0
M  V30 6770 C 611.902 -2.91107 4.44331 0
M  V30 6771 C 610.941 -2.49586 5.58903 0
M  V30 6772 N 610.078 -3.62175 6.01477 0
M  V30 6773 H 614.918 -0.344886 2.95998 0
M  V30 6774 H 612.455 -0.15855 1.46243 0
M  V30 6775 H 614.413 -2.82234 3.07246 0
M  V30 6776 H 613.043 -2.56427 1.96074 0
M  V30 6777 H 612.095 -0.88201 3.70033 0
M  V30 6778 H 613.407 -1.36884 4.7965 0
M  V30 6779 H 612.561 -3.72454 4.78919 0
M  V30 6780 H 611.3 -3.28848 3.60153 0
M  V30 6781 H 610.305 -1.6667 5.23929 0
M  V30 6782 H 611.53 -2.12973 6.4484 0
M  V30 6783 H 609.476 -3.99605 5.20242 0
M  V30 6784 H 609.393 -3.3155 6.79419 0
M  V30 6785 H 610.661 -4.43987 6.407 0
M  V30 6786 N 614.89 -1.56749 -0.16351 0
M  V30 6787 C 615.837 -1.97011 -1.2023 0
M  V30 6788 C 616.807 -0.835186 -1.43575 0
M  V30 6789 O 617.992 -1.09594 -1.56185 0
M  V30 6790 C 615.132 -2.34186 -2.53478 0
M  V30 6791 C 614.245 -3.60893 -2.37446 0
M  V30 6792 C 613.38 -3.87245 -3.63614 0
M  V30 6793 C 612.419 -5.07274 -3.42548 0
M  V30 6794 N 611.556 -5.29719 -4.60806 0
M  V30 6795 H 616.396 -2.85562 -0.851958 0
M  V30 6796 H 613.933 -1.41292 -0.409257 0
M  V30 6797 H 615.891 -2.53764 -3.31149 0
M  V30 6798 H 614.521 -1.48736 -2.86492 0
M  V30 6799 H 613.573 -3.49185 -1.50911 0
M  V30 6800 H 614.885 -4.48722 -2.1783 0
M  V30 6801 H 614.039 -4.07232 -4.49719 0
M  V30 6802 H 612.778 -2.97806 -3.86216 0
M  V30 6803 H 611.783 -4.87177 -2.5483 0
M  V30 6804 H 613.008 -5.98251 -3.2136 0
M  V30 6805 H 610.954 -4.43233 -4.83612 0
M  V30 6806 H 610.871 -6.11786 -4.44132 0
M  V30 6807 H 612.139 -5.54192 -5.48171 0
M  V30 6808 N 616.368 0.432326 -1.51554 0
M  V30 6809 C 617.779 1.01202 -1.56892 0
M  V30 6810 C 618.13 1.92175 -0.395394 0
M  V30 6811 O 617.255 2.10844 0.487198 0
M  V30 6812 C 617.85 1.84217 -2.8434 0
M  V30 6813 C 616.409 2.37228 -2.92233 0
M  V30 6814 C 615.556 1.16576 -2.51606 0
M  V30 6815 H 618.507 0.213407 -1.57259 0
M  V30 6816 H 618.528 2.69721 -2.68385 0
M  V30 6817 H 618.04 1.17979 -3.69733 0
M  V30 6818 H 616.141 3.06905 -2.11282 0
M  V30 6819 H 616.254 2.69682 -3.95991 0
M  V30 6820 H 614.618 1.51263 -2.04919 0
M  V30 6821 H 615.401 0.519404 -3.39348 0
M  V30 6822 N 617.846 1.41785 0.688094 0
M  V30 6823 C 619.074 1.44915 1.47673 0
M  V30 6824 C 619.489 0.0565786 1.88715 0
M  V30 6825 O 618.846 -0.92579 1.57275 0
M  V30 6826 C 618.897 2.36452 2.73446 0
M  V30 6827 O 618.618 3.7029 2.34131 0
M  V30 6828 C 620.119 2.48463 3.67125 0
M  V30 6829 H 617.339 0.493324 0.454832 0
M  V30 6830 H 619.883 1.86153 0.846594 0
M  V30 6831 H 618.038 1.98502 3.3268 0
M  V30 6832 H 618.452 4.19183 3.15255 0
M  V30 6833 H 619.926 3.16662 4.52138 0
M  V30 6834 H 620.403 1.51826 4.12123 0
M  V30 6835 H 621.009 2.8708 3.13792 0
M  V30 6836 N 619.324 -0.923095 1.27737 0
M  V30 6837 C 620.552 -1.70525 1.17171 0
M  V30 6838 C 620.967 -1.86847 -0.270881 0
M  V30 6839 O 620.324 -1.38879 -1.18401 0
M  V30 6840 C 620.375 -3.10242 1.85559 0
M  V30 6841 O 620.096 -2.94683 3.24182 0
M  V30 6842 C 621.597 -4.04586 1.81176 0
M  V30 6843 H 618.817 -0.533347 0.407163 0
M  V30 6844 H 621.361 -1.15599 1.68692 0
M  V30 6845 H 619.516 -3.62014 1.3793 0
M  V30 6846 H 619.93 -3.83045 3.58297 0
M  V30 6847 H 621.404 -5.00119 2.33633 0
M  V30 6848 H 621.881 -4.3218 0.782099 0
M  V30 6849 H 622.487 -3.58741 2.2844 0
M  V30 6850 N 620.802 -1.09834 -1.13024 0
M  V30 6851 C 621.712 -0.753731 -2.22162 0
M  V30 6852 C 622.728 0.246105 -1.72251 0
M  V30 6853 O 623.904 0.0864051 -2.01215 0
M  V30 6854 C 620.969 -0.183958 -3.46212 0
M  V30 6855 C 620.03 -1.24028 -4.10993 0
M  V30 6856 C 619.263 -0.697597 -5.29121 0
M  V30 6857 O 619.486 0.478092 -5.68393 0
M  V30 6858 O 618.42 -1.4546 -5.84059 0
M  V30 6859 H 622.246 -1.66456 -2.5402 0
M  V30 6860 H 619.831 -0.873026 -1.21238 0
M  V30 6861 H 621.713 0.130257 -4.21199 0
M  V30 6862 H 620.388 0.699823 -3.16045 0
M  V30 6863 H 619.295 -1.60725 -3.37814 0
M  V30 6864 H 620.628 -2.09685 -4.45301 0
M  V30 6865 N 622.28 1.30327 -0.886154 0
M  V30 6866 C 623.19 2.31854 -0.357866 0
M  V30 6867 C 624.206 1.65392 0.540502 0
M  V30 6868 O 625.382 1.96683 0.433339 0
M  V30 6869 C 622.447 3.44171 0.417999 0
M  V30 6870 C 621.508 4.26257 -0.510263 0
M  V30 6871 C 620.741 5.3321 0.228669 0
M  V30 6872 O 620.964 5.51542 1.45458 0
M  V30 6873 O 619.898 6.0042 -0.421832 0
M  V30 6874 H 623.724 2.78995 -1.19982 0
M  V30 6875 H 621.309 1.34518 -0.650028 0
M  V30 6876 H 623.191 4.12588 0.857251 0
M  V30 6877 H 621.866 2.99164 1.23623 0
M  V30 6878 H 620.773 3.60533 -0.99835 0
M  V30 6879 H 622.106 4.74871 -1.29454 0
M  V30 6880 N 623.758 0.647228 1.43697 0
M  V30 6881 C 624.705 -0.0480092 2.3075 0
M  V30 6882 C 625.675 -0.820705 1.44408 0
M  V30 6883 O 626.86 -0.798515 1.73287 0
M  V30 6884 C 624 -1.01259 3.2991 0
M  V30 6885 C 623.113 -0.236629 4.31351 0
M  V30 6886 C 622.248 -1.19447 5.17596 0
M  V30 6887 C 621.287 -0.408595 6.10735 0
M  V30 6888 N 620.424 -1.31772 6.89623 0
M  V30 6889 H 625.264 0.700238 2.89656 0
M  V30 6890 H 622.801 0.357082 1.427 0
M  V30 6891 H 624.759 -1.58538 3.85903 0
M  V30 6892 H 623.389 -1.72778 2.72667 0
M  V30 6893 H 622.441 0.452353 3.77701 0
M  V30 6894 H 623.753 0.374731 4.9739 0
M  V30 6895 H 622.907 -1.83809 5.78186 0
M  V30 6896 H 621.646 -1.83975 4.51669 0
M  V30 6897 H 620.651 0.24841 5.49239 0
M  V30 6898 H 621.876 0.232188 6.78703 0
M  V30 6899 H 619.822 -1.94991 6.2635 0
M  V30 6900 H 619.739 -0.760779 7.52162 0
M  V30 6901 H 621.007 -1.94967 7.54724 0
M  V30 6902 N 625.236 -1.5273 0.388769 0
M  V30 6903 C 626.183 -2.26437 -0.446639 0
M  V30 6904 C 627.153 -1.28025 -1.05824 0
M  V30 6905 O 628.338 -1.56852 -1.08637 0
M  V30 6906 C 625.478 -3.07407 -1.56828 0
M  V30 6907 C 624.591 -4.20747 -0.979589 0
M  V30 6908 C 623.726 -4.89113 -2.07224 0
M  V30 6909 C 622.765 -5.94447 -1.45942 0
M  V30 6910 N 621.902 -6.56411 -2.49135 0
M  V30 6911 H 626.742 -2.97404 0.18837 0
M  V30 6912 H 624.279 -1.46727 0.104725 0
M  V30 6913 H 626.237 -3.52642 -2.22934 0
M  V30 6914 H 624.867 -2.3865 -2.17361 0
M  V30 6915 H 623.919 -3.7983 -0.208151 0
M  V30 6916 H 625.231 -4.9637 -0.491747 0
M  V30 6917 H 624.385 -5.3765 -2.81101 0
M  V30 6918 H 623.124 -4.13013 -2.59368 0
M  V30 6919 H 622.129 -5.4525 -0.705894 0
M  V30 6920 H 623.354 -6.7248 -0.945932 0
M  V30 6921 H 621.3 -5.83152 -3.00449 0
M  V30 6922 H 621.217 -7.27645 -2.05105 0
M  V30 6923 H 622.485 -7.09592 -3.22644 0
M  V30 6924 N 626.714 -0.118576 -1.57153 0
M  V30 6925 C 628.125 0.40687 -1.82213 0
M  V30 6926 C 628.476 1.66636 -1.03571 0
M  V30 6927 O 627.601 2.14682 -0.272171 0
M  V30 6928 C 628.196 0.744949 -3.30509 0
M  V30 6929 C 626.755 1.21503 -3.5625 0
M  V30 6930 C 625.902 0.223511 -2.76398 0
M  V30 6931 H 628.853 -0.343712 -1.54933 0
M  V30 6932 H 628.874 1.6024 -3.45114 0
M  V30 6933 H 628.386 -0.171911 -3.87719 0
M  V30 6934 H 626.487 2.1488 -3.04396 0
M  V30 6935 H 626.6 1.16065 -4.64829 0
M  V30 6936 H 624.964 0.71046 -2.44591 0
M  V30 6937 H 625.747 -0.686439 -3.36367 0
M  V30 6938 N 628.193 1.56834 0.155195 0
M  V30 6939 C 629.156 1.96748 1.17571 0
M  V30 6940 C 630.156 0.853006 1.3631 0
M  V30 6941 O 631.346 1.11978 1.33441 0
M  V30 6942 C 628.478 2.27631 2.53765 0
M  V30 6943 H 629.671 2.88085 0.833498 0
M  V30 6944 H 627.224 1.51141 0.398242 0
M  V30 6945 H 627.959 1.39059 2.92973 0
M  V30 6946 H 627.744 3.0888 2.41527 0
M  V30 6947 H 629.234 2.59377 3.27282 0
M  V30 6948 N 629.671 -0.424282 1.51781 0
M  V30 6949 C 630.634 -1.49848 1.73431 0
M  V30 6950 C 631.634 -1.49016 0.604225 0
M  V30 6951 O 632.824 -1.50808 0.871935 0
M  V30 6952 C 629.956 -2.89332 1.80277 0
M  V30 6953 H 631.149 -1.3195 2.69312 0
M  V30 6954 H 628.702 -0.653809 1.41968 0
M  V30 6955 H 629.437 -3.12618 0.862568 0
M  V30 6956 H 629.222 -2.9134 2.62419 0
M  V30 6957 H 630.712 -3.67233 1.98821 0
M  V30 6958 O 631.188 -1.51103 -0.570103 0
M  V30 6959 H 631.879 -1.50032 -1.22516 0
M  V30 END ATOM
M  V30 BEGIN BOND
M  V30 END BOND
M  V30 END CTAB
M  END
$$$$
