drugbank_target|P36683 Aconitate hydratase B (DB04351)
 OpenBabel12092120023D

  0  0  0     0  0            999 V3000
M  V30 BEGIN CTAB
M  V30 COUNTS 13165 13299 0 0 0
M  V30 BEGIN ATOM
M  V30 1 H -0.908 1.98254 -0.117106 0
M  V30 2 N 0 1.576 0 0
M  V30 3 C 0.933 2.03868 1.02534 0
M  V30 4 C 1.911 0.928543 1.3348 0
M  V30 5 O 3.095 1.19667 1.45644 0
M  V30 6 C 0.222 2.43627 2.35294 0
M  V30 7 C -0.732 3.65373 2.2001 0
M  V30 8 S 0.101 5.13292 1.52614 0
M  V30 9 C 1.257 5.56322 2.86805 0
M  V30 10 H 1.49 2.90518 0.631377 0
M  V30 11 H -0.977 1.52953 0.210867 0
M  V30 12 H 0.981 2.67203 3.11629 0
M  V30 13 H -0.358 1.57376 2.7183 0
M  V30 14 H -1.165 3.90944 3.18086 0
M  V30 15 H -1.563 3.418 1.51819 0
M  V30 16 H 0.729 5.58782 3.83104 0
M  V30 17 H 1.672 6.56266 2.65933 0
M  V30 18 H 2.08 4.83886 2.90714 0
M  V30 19 N 1.4781 -0.272755 1.55222 0
M  V30 20 C 2.4081 -1.34136 1.91127 0
M  V30 21 C 3.3891 -1.51513 0.773168 0
M  V30 22 O 4.5741 -1.64552 1.03132 0
M  V30 23 C 1.7041 -2.70083 2.1834 0
M  V30 24 C 0.6581 -2.67437 3.34158 0
M  V30 25 C -0.0159 -4.06938 3.46851 0
M  V30 26 C 1.2841 -2.26686 4.70543 0
M  V30 27 H 2.9781 -1.04333 2.80633 0
M  V30 28 H 0.5241 -0.500454 1.35024 0
M  V30 29 H 2.4771 -3.44952 2.42046 0
M  V30 30 H 1.2011 -3.01469 1.25634 0
M  V30 31 H -0.1399 -1.95026 3.1042 0
M  V30 32 H -0.4919 -4.35547 2.51611 0
M  V30 33 H -0.7919 -4.06062 4.2472 0
M  V30 34 H 0.7321 -4.83545 3.72849 0
M  V30 35 H 2.1461 -2.91277 4.93792 0
M  V30 36 H 0.5431 -2.36971 5.5133 0
M  V30 37 H 1.6131 -1.21818 4.69349 0
M  V30 38 N 2.9562 -1.48159 -0.537278 0
M  V30 39 C 3.8662 -1.64807 -1.6696 0
M  V30 40 C 4.8822 -0.530651 -1.65711 0
M  V30 41 O 6.0582 -0.800784 -1.84796 0
M  V30 42 C 3.1232 -1.67708 -3.03438 0
M  V30 43 C 2.1842 -2.91025 -3.156 0
M  V30 44 C 1.4172 -2.93778 -4.45567 0
M  V30 45 O 1.6402 -2.05153 -5.3223 0
M  V30 46 O 0.5742 -3.85868 -4.61941 0
M  V30 47 H 4.4002 -2.6066 -1.55853 0
M  V30 48 H 1.9852 -1.31475 -0.709549 0
M  V30 49 H 3.8672 -1.7218 -3.84619 0
M  V30 50 H 2.5422 -0.750278 -3.14885 0
M  V30 51 H 1.4492 -2.92089 -2.33741 0
M  V30 52 H 2.7822 -3.83065 -3.09066 0
M  V30 53 N 4.4343 0.785586 -1.36625 0
M  V30 54 C 5.3443 1.92964 -1.33425 0
M  V30 55 C 6.3603 1.72394 -0.235851 0
M  V30 56 O 7.5363 1.95866 -0.468878 0
M  V30 57 C 4.6013 3.27884 -1.12662 0
M  V30 58 C 3.6623 3.61204 -2.32013 0
M  V30 59 C 2.8953 4.89687 -2.12231 0
M  V30 60 O 3.1183 5.59704 -1.09945 0
M  V30 61 O 2.0523 5.21752 -3.00098 0
M  V30 62 H 5.8783 1.98613 -2.29753 0
M  V30 63 H 3.4633 0.926384 -1.17211 0
M  V30 64 H 5.3453 4.08614 -1.03016 0
M  V30 65 H 4.0203 3.23118 -0.193991 0
M  V30 66 H 2.9273 2.80765 -2.47228 0
M  V30 67 H 4.2603 3.70698 -3.23796 0
M  V30 68 N 5.9124 1.20967 1.01018 0
M  V30 69 C 7.1424 1.04803 1.78044 0
M  V30 70 C 7.5504 -0.405462 1.84804 0
M  V30 71 O 6.8934 -1.2932 1.30468 0
M  V30 72 C 6.9554 1.56377 3.23707 0
M  V30 73 C 6.6194 3.04767 3.40538 0
M  V30 74 C 7.6164 4.02366 3.29239 0
M  V30 75 C 5.3014 3.43862 3.66147 0
M  V30 76 C 7.2954 5.37049 3.43304 0
M  V30 77 C 4.9824 4.78699 3.79855 0
M  V30 78 C 5.9804 5.75101 3.68439 0
M  V30 79 O 5.6684 7.07493 3.81719 0
M  V30 80 H 5.4004 0.368778 0.56655 0
M  V30 81 H 7.9544 1.60642 1.27997 0
M  V30 82 H 6.1844 0.949297 3.74867 0
M  V30 83 H 7.8734 1.36136 3.8239 0
M  V30 84 H 8.6394 3.73506 3.09384 0
M  V30 85 H 4.5184 2.69364 3.74118 0
M  V30 86 H 8.0624 6.12277 3.34309 0
M  V30 87 H 3.9594 5.07247 3.99213 0
M  V30 88 H 4.7274 7.1483 3.98697 0
M  V30 89 N 7.3905 -1.2043 1.01659 0
M  V30 90 C 8.8065 -1.41852 0.731442 0
M  V30 91 C 9.0065 -1.89358 -0.688898 0
M  V30 92 O 8.0625 -2.06247 -1.45666 0
M  V30 93 C 9.3755 -2.44019 1.75714 0
M  V30 94 C 10.9235 -2.57785 1.77527 0
M  V30 95 C 11.3985 -3.63194 2.79023 0
M  V30 96 N 12.8895 -3.70678 2.77763 0
M  V30 97 C 13.6245 -4.51897 3.52954 0
M  V30 98 N 13.1205 -5.36921 4.37821 0
M  V30 99 N 14.9135 -4.4643 3.41551 0
M  V30 100 H 7.0645 -0.879093 1.93354 0
M  V30 101 H 9.3275 -0.448425 0.835236 0
M  V30 102 H 9.0335 -2.1611 2.77469 0
M  V30 103 H 8.9075 -3.43007 1.56927 0
M  V30 104 H 11.2945 -2.85023 0.764569 0
M  V30 105 H 11.3755 -1.58992 2.00387 0
M  V30 106 H 11.0195 -3.36699 3.80258 0
M  V30 107 H 10.9495 -4.61609 2.53425 0
M  V30 108 H 13.4405 -3.09944 2.16201 0
M  V30 109 H 13.7535 -5.95981 4.91962 0
M  V30 110 H 12.0985 -5.36424 4.41899 0
M  V30 111 H 15.2895 -3.79042 2.74672 0
M  V30 112 H 15.4625 -5.09491 4.00404 0
M  V30 113 N 8.8686 -0.792821 -1.36206 0
M  V30 114 C 9.8156 -0.191653 -2.30003 0
M  V30 115 C 10.7856 0.666453 -1.52143 0
M  V30 116 O 11.9706 0.61442 -1.80636 0
M  V30 117 C 9.1106 0.664848 -3.38635 0
M  V30 118 C 8.2236 -0.212175 -4.31479 0
M  V30 119 C 7.3586 0.651022 -5.27196 0
M  V30 120 C 6.3976 -0.227247 -6.11678 0
M  V30 121 N 5.5346 0.595127 -6.99573 0
M  V30 122 H 10.3746 -0.996978 -2.80828 0
M  V30 123 H 7.9116 -0.503206 -1.38225 0
M  V30 124 H 9.8696 1.17645 -4.00269 0
M  V30 125 H 8.4996 1.43557 -2.89122 0
M  V30 126 H 7.5516 -0.841777 -3.70969 0
M  V30 127 H 8.8636 -0.888751 -4.90818 0
M  V30 128 H 8.0176 1.2283 -5.94136 0
M  V30 129 H 6.7566 1.36121 -4.68319 0
M  V30 130 H 5.7616 -0.816904 -5.43697 0
M  V30 131 H 6.9866 -0.93509 -6.72631 0
M  V30 132 H 4.9326 1.28955 -6.432 0
M  V30 133 H 4.8496 -0.0236952 -7.55996 0
M  V30 134 H 6.1176 1.15613 -7.70879 0
M  V30 135 N 10.3467 1.47872 -0.545128 0
M  V30 136 C 11.2967 2.26842 0.229456 0
M  V30 137 C 12.2807 1.33626 0.896267 0
M  V30 138 O 13.4727 1.58063 0.79657 0
M  V30 139 C 10.6017 3.19089 1.26638 0
M  V30 140 C 9.6877 4.19783 0.603598 0
M  V30 141 N 10.0787 5.0479 -0.319405 0
M  V30 142 C 8.3767 4.3765 0.858989 0
M  V30 143 C 9.0777 5.77433 -0.703241 0
M  V30 144 N 8.0537 5.43566 -0.0608309 0
M  V30 145 H 11.8557 2.89947 -0.480391 0
M  V30 146 H 9.3697 1.58263 -0.364209 0
M  V30 147 H 11.3667 3.74337 1.83515 0
M  V30 148 H 10.0267 2.5754 1.97745 0
M  V30 149 H 11.0377 5.13244 -0.692889 0
M  V30 150 H 7.7147 3.87281 1.55948 0
M  V30 151 H 9.1047 6.55824 -1.46098 0
M  V30 152 N 11.8248 0.280983 1.55075 0
M  V30 153 C 13.0708 -0.33461 2.00021 0
M  V30 154 C 13.4038 -1.55063 1.16915 0
M  V30 155 O 12.6788 -1.93006 0.240646 0
M  V30 156 C 12.9618 -0.711007 3.53011 0
M  V30 157 C 12.8148 0.512766 4.46868 0
M  V30 158 C 14.1338 -1.54522 4.12081 0
M  V30 159 H 11.2528 -0.120147 0.727141 0
M  V30 160 H 13.8948 0.389097 1.85973 0
M  V30 161 H 12.0448 -1.32761 3.65112 0
M  V30 162 H 13.7168 1.15131 4.46702 0
M  V30 163 H 11.9598 1.14975 4.18286 0
M  V30 164 H 12.6308 0.205556 5.51617 0
M  V30 165 H 15.1068 -1.02442 4.03293 0
M  V30 166 H 13.9828 -1.77739 5.19327 0
M  V30 167 H 14.2438 -2.52813 3.62682 0
M  V30 168 N 13.3029 -1.57598 0.00835791 0
M  V30 169 C 14.2659 -2.07884 -0.965242 0
M  V30 170 C 15.2659 -0.989825 -1.26725 0
M  V30 171 O 16.4559 -1.25218 -1.21104 0
M  V30 172 C 13.5879 -2.52731 -2.28779 0
M  V30 173 H 14.7809 -2.95178 -0.530112 0
M  V30 174 H 12.3339 -1.54458 -0.239283 0
M  V30 175 H 13.0689 -1.68705 -2.76964 0
M  V30 176 H 12.8539 -3.32272 -2.08177 0
M  V30 177 H 14.3439 -2.91933 -2.98605 0
M  V30 178 N 14.781 0.264519 -1.55364 0
M  V30 179 C 15.691 1.34902 -1.91934 0
M  V30 180 C 16.707 1.53595 -0.817593 0
M  V30 181 O 17.883 1.67558 -1.11742 0
M  V30 182 C 14.948 2.68676 -2.19121 0
M  V30 183 C 14.009 2.58657 -3.4263 0
M  V30 184 C 13.242 3.86051 -3.68511 0
M  V30 185 O 13.465 4.87126 -2.96757 0
M  V30 186 O 12.399 3.85744 -4.62045 0
M  V30 187 H 16.225 1.06883 -2.8427 0
M  V30 188 H 13.81 0.463775 -1.42019 0
M  V30 189 H 15.692 3.47759 -2.37995 0
M  V30 190 H 14.367 2.96463 -1.29966 0
M  V30 191 H 13.274 1.7792 -3.29082 0
M  V30 192 H 14.607 2.35818 -4.32031 0
M  V30 193 N 16.2591 1.48442 0.529413 0
M  V30 194 C 17.6751 1.34575 0.858004 0
M  V30 195 C 17.8751 0.3572 1.98309 0
M  V30 196 O 16.9311 -0.221379 2.51528 0
M  V30 197 C 18.2441 2.74617 1.22499 0
M  V30 198 C 19.7921 2.83109 1.33484 0
M  V30 199 C 20.2671 4.23854 1.73526 0
M  V30 200 N 21.7581 4.2653 1.80628 0
M  V30 201 C 22.4931 5.32372 2.12997 0
M  V30 202 N 21.9891 6.48491 2.43786 0
M  V30 203 N 23.7821 5.19766 2.14008 0
M  V30 204 H 15.9331 2.1133 -0.212925 0
M  V30 205 H 18.1961 0.947439 -0.0326199 0
M  V30 206 H 17.9021 3.4852 0.471905 0
M  V30 207 H 17.7761 3.08177 2.17501 0
M  V30 208 H 20.1631 2.09462 2.0787 0
M  V30 209 H 20.2441 2.53168 0.366027 0
M  V30 210 H 19.8881 4.98018 0.997013 0
M  V30 211 H 19.8181 4.5124 2.71459 0
M  V30 212 H 22.3091 3.42772 1.59108 0
M  V30 213 H 22.6221 7.24993 2.67592 0
M  V30 214 H 20.9671 6.51765 2.41304 0
M  V30 215 H 24.1581 4.28066 1.89412 0
M  V30 216 H 24.3311 6.02354 2.38902 0
M  V30 217 N 17.7372 -0.778329 1.37039 0
M  V30 218 C 18.7002 -1.87301 1.32102 0
M  V30 219 C 19.7002 -1.59198 0.226405 0
M  V30 220 O 20.8902 -1.67403 0.481861 0
M  V30 221 C 18.0222 -3.24309 1.05055 0
M  V30 222 H 19.2152 -1.93093 2.29467 0
M  V30 223 H 16.7682 -0.977358 1.21973 0
M  V30 224 H 17.5032 -3.24196 0.0819373 0
M  V30 225 H 17.2882 -3.46098 1.84279 0
M  V30 226 H 18.7782 -4.04382 1.04234 0
M  V30 227 N 19.2153 -1.21501 -1.00376 0
M  V30 228 C 20.1783 -0.976927 -2.07337 0
M  V30 229 C 21.1783 0.0525322 -1.60714 0
M  V30 230 O 22.3683 -0.184869 -1.73216 0
M  V30 231 C 19.5003 -0.473423 -3.37597 0
M  V30 232 H 20.6933 -1.92587 -2.29892 0
M  V30 233 H 18.2463 -1.03217 -1.17371 0
M  V30 234 H 18.9813 0.480379 -3.20722 0
M  V30 235 H 18.7663 -1.216 -3.72768 0
M  V30 236 H 20.2563 -0.32675 -4.1632 0
M  V30 237 N 20.6934 1.19889 -1.02296 0
M  V30 238 C 21.6034 2.26571 -0.608508 0
M  V30 239 C 22.6194 1.70299 0.356964 0
M  V30 240 O 23.7954 2.00235 0.216326 0
M  V30 241 C 20.8604 3.46677 0.0402814 0
M  V30 242 C 19.9214 4.18153 -0.97194 0
M  V30 243 C 19.1544 5.32525 -0.354016 0
M  V30 244 O 19.3774 5.64112 0.844604 0
M  V30 245 O 18.3114 5.92242 -1.07391 0
M  V30 246 H 22.1374 2.64251 -1.49684 0
M  V30 247 H 19.7224 1.26629 -0.792809 0
M  V30 248 H 21.6044 4.19475 0.402324 0
M  V30 249 H 20.2794 3.10858 0.902707 0
M  V30 250 H 19.1864 3.47499 -1.38546 0
M  V30 251 H 20.5194 4.57927 -1.80454 0
M  V30 252 N 22.1715 0.800033 1.35784 0
M  V30 253 C 23.4195 0.376597 1.9856 0
M  V30 254 C 23.7405 -1.05812 1.63795 0
M  V30 255 O 23.0105 -1.73103 0.917171 0
M  V30 256 H 21.5905 0.136261 0.734467 0
M  V30 257 H 24.2525 1.02442 1.65806 0
M  V30 258 H 23.3485 0.477002 3.08433 0
M  V30 259 N 23.6496 -1.47581 0.552962 0
M  V30 260 C 24.8986 -2.01684 0.0251995 0
M  V30 261 C 25.2116 -1.43317 -1.33115 0
M  V30 262 O 26.4176 -1.89057 -1.94858 0
M  V30 263 C 24.8736 -3.599 -0.00542052 0
M  V30 264 C 24.4816 -4.27257 1.34742 0
M  V30 265 C 26.2256 -4.21768 -0.4808 0
M  V30 266 C 24.1326 -5.77467 1.27614 0
M  V30 267 H 23.0626 -0.753979 0.00565033 0
M  V30 268 H 25.7136 -1.69616 0.70018 0
M  V30 269 H 24.0956 -3.88911 -0.745961 0
M  V30 270 H 25.2696 -4.09893 2.10534 0
M  V30 271 H 23.5846 -3.77358 1.76039 0
M  V30 272 H 26.1816 -5.31838 -0.55246 0
M  V30 273 H 26.5246 -3.88651 -1.49184 0
M  V30 274 H 27.0576 -3.97273 0.204752 0
M  V30 275 H 23.7966 -6.15196 2.26304 0
M  V30 276 H 23.3166 -5.9718 0.55996 0
M  V30 277 H 24.9956 -6.3959 0.976421 0
M  V30 278 N 25.1277 -0.289203 -1.54924 0
M  V30 279 C 26.0907 0.579144 -2.21762 0
M  V30 280 C 27.0907 1.07047 -1.1999 0
M  V30 281 O 28.2807 0.968384 -1.44803 0
M  V30 282 C 25.4127 1.80055 -2.8947 0
M  V30 283 H 26.6057 -0.00464908 -2.999 0
M  V30 284 H 24.1587 -0.0399306 -1.56249 0
M  V30 285 H 24.8937 2.42449 -2.15381 0
M  V30 286 H 24.6787 1.45602 -3.64064 0
M  V30 287 H 26.1687 2.41773 -3.40493 0
M  V30 288 N 26.6058 1.57591 -0.0167156 0
M  V30 289 C 28.0168 1.79201 0.523834 0
M  V30 290 C 28.3678 0.925796 1.72984 0
M  V30 291 O 27.4928 0.132792 2.15992 0
M  V30 292 C 28.0878 3.25 0.957091 0
M  V30 293 C 26.6468 3.47648 1.44283 0
M  V30 294 C 25.7938 2.74374 0.401757 0
M  V30 295 H 28.7448 1.56831 -0.242816 0
M  V30 296 H 28.7658 3.34031 1.82219 0
M  V30 297 H 28.2778 3.88019 0.0791415 0
M  V30 298 H 26.3788 2.89866 2.34113 0
M  V30 299 H 26.4918 4.56352 1.45877 0
M  V30 300 H 24.8558 2.39485 0.867121 0
M  V30 301 H 25.6388 3.40102 -0.467513 0
M  V30 302 N 28.0839 -0.256276 1.55502 0
M  V30 303 C 29.0309 -1.31714 1.89526 0
M  V30 304 C 30.0009 -1.4828 0.748479 0
M  V30 305 O 31.1859 -1.62416 1.00128 0
M  V30 306 C 28.3259 -2.66933 2.18725 0
M  V30 307 C 27.4389 -2.58452 3.4616 0
M  V30 308 C 26.5739 -3.85961 3.64976 0
M  V30 309 C 25.6129 -3.72059 4.86044 0
M  V30 310 N 24.7499 -4.9144 5.01429 0
M  V30 311 H 29.5899 -1.01998 2.80001 0
M  V30 312 H 27.1269 -0.492413 1.38613 0
M  V30 313 H 29.0849 -3.4563 2.33657 0
M  V30 314 H 27.7149 -2.94816 1.31466 0
M  V30 315 H 26.7669 -1.71374 3.3961 0
M  V30 316 H 28.0789 -2.44085 4.34999 0
M  V30 317 H 27.2329 -4.73101 3.79816 0
M  V30 318 H 25.9719 -4.03215 2.74353 0
M  V30 319 H 24.9769 -2.83302 4.7119 0
M  V30 320 H 26.2019 -3.56309 5.78118 0
M  V30 321 H 24.1479 -5.09072 4.13741 0
M  V30 322 H 24.0649 -4.79668 5.84341 0
M  V30 323 H 25.3329 -5.80104 5.20672 0
M  V30 324 N 29.562 -1.4872 -0.521534 0
M  V30 325 C 30.973 -1.50607 -1.10337 0
M  V30 326 C 31.324 -0.280612 -1.94183 0
M  V30 327 O 30.449 0.611507 -2.0758 0
M  V30 328 C 31.044 -2.72903 -2.00772 0
M  V30 329 C 29.603 -2.77634 -2.54158 0
M  V30 330 C 28.75 -2.44241 -1.31307 0
M  V30 331 H 31.701 -1.55714 -0.306388 0
M  V30 332 H 31.722 -2.519 -2.85178 0
M  V30 333 H 31.234 -3.62077 -1.39721 0
M  V30 334 H 29.335 -1.92689 -3.18907 0
M  V30 335 H 29.448 -3.79283 -2.92714 0
M  V30 336 H 27.812 -1.95577 -1.63161 0
M  V30 337 H 28.595 -3.35666 -0.719943 0
M  V30 338 N 31.0401 0.771051 -1.3745 0
M  V30 339 C 31.9701 1.89827 -1.3597 0
M  V30 340 C 32.9511 1.68562 -0.228216 0
M  V30 341 O 34.1361 1.8941 -0.428675 0
M  V30 342 C 31.2661 3.2712 -1.16662 0
M  V30 343 C 30.2201 3.6295 -2.2683 0
M  V30 344 C 29.5461 4.98791 -1.92644 0
M  V30 345 C 30.8461 3.69627 -3.69017 0
M  V30 346 H 32.5401 1.91323 -2.30295 0
M  V30 347 H 30.0861 0.919082 -1.10855 0
M  V30 348 H 32.0391 4.05615 -1.14256 0
M  V30 349 H 30.7631 3.26059 -0.187926 0
M  V30 350 H 29.4221 2.86763 -2.28392 0
M  V30 351 H 29.0701 4.94271 -0.933021 0
M  V30 352 H 28.7701 5.23733 -2.66416 0
M  V30 353 H 30.2941 5.79685 -1.91826 0
M  V30 354 H 31.7081 4.38273 -3.69581 0
M  V30 355 H 30.1051 4.06067 -4.41848 0
M  V30 356 H 31.1751 2.70273 -4.02592 0
M  V30 357 N 32.5182 1.22032 0.997298 0
M  V30 358 C 33.7952 0.950823 1.70935 0
M  V30 359 C 34.1752 -0.535292 2.042 0
M  V30 360 O 33.5232 -1.50217 1.72183 0
M  V30 361 C 33.7332 1.84386 2.96315 0
M  V30 362 C 35.0812 2.09732 3.69185 0
M  V30 363 O 36.1052 1.81798 3.06314 0
M  V30 364 O 34.9642 2.57018 4.82291 0
M  V30 365 H 32.0582 0.357204 0.745878 0
M  V30 366 H 34.6042 1.32997 1.05404 0
M  V30 367 H 33.3762 2.84928 2.68201 0
M  V30 368 H 32.9992 1.46602 3.69586 0
M  V30 369 N 33.9963 -1.19345 1.0293 0
M  V30 370 C 34.9593 -2.20793 0.615069 0
M  V30 371 C 35.9593 -1.57553 -0.321533 0
M  V30 372 O 37.1493 -1.73862 -0.108483 0
M  V30 373 C 34.2813 -3.40754 -0.0999222 0
M  V30 374 H 35.4743 -2.58955 1.51269 0
M  V30 375 H 33.0273 -1.3303 0.820534 0
M  V30 376 H 33.7623 -3.0811 -1.01187 0
M  V30 377 H 33.5473 -3.87889 0.57309 0
M  V30 378 H 35.0373 -4.15898 -0.376645 0
M  V30 379 N 35.4744 -0.807222 -1.35358 0
M  V30 380 C 36.4224 -0.20614 -2.31685 0
M  V30 381 C 37.4164 0.644445 -1.56663 0
M  V30 382 O 38.6224 0.537538 -1.71786 0
M  V30 383 H 34.9974 -0.0479006 -0.750473 0
M  V30 384 H 36.9684 -1.03369 -2.79924 0
M  V30 385 C 35.7174 0.630212 -3.41941 0
M  V30 386 H 35.0404 -0.0149558 -3.99797 0
M  V30 387 H 36.4804 1.01716 -4.11619 0
M  V30 388 C 34.9394 1.79601 -2.85035 0
M  V30 389 O 35.4694 2.89351 -2.78637 0
M  V30 390 N 33.6754 1.60774 -2.42074 0
M  V30 391 H 33.2224 0.715009 -2.47478 0
M  V30 392 H 33.1804 2.38933 -2.04349 0
M  V30 393 N 36.9525 1.47285 -0.560781 0
M  V30 394 C 37.8845 2.28118 0.222438 0
M  V30 395 C 38.8975 1.37219 0.876056 0
M  V30 396 O 40.0865 1.62011 0.749307 0
M  V30 397 C 37.1865 3.1159 1.33285 0
M  V30 398 C 36.3595 4.30473 0.77534 0
M  V30 399 C 35.4185 4.95513 1.77069 0
M  V30 400 O 34.4445 5.53792 1.31539 0
M  V30 401 N 35.6465 4.90531 3.10418 0
M  V30 402 H 38.4115 2.95976 -0.470958 0
M  V30 403 H 35.9725 1.56955 -0.39709 0
M  V30 404 H 37.9645 3.51967 1.99752 0
M  V30 405 H 36.5345 2.45951 1.92943 0
M  V30 406 H 35.7545 3.94144 -0.0662113 0
M  V30 407 H 37.0425 5.07362 0.382272 0
M  V30 408 H 36.4405 4.44389 3.5005 0
M  V30 409 H 34.9975 5.34917 3.72434 0
M  V30 410 N 38.4306 0.297415 1.54768 0
M  V30 411 C 39.3636 -0.622188 2.19554 0
M  V30 412 C 40.3416 -1.13558 1.16376 0
M  V30 413 O 41.5256 -1.20444 1.45002 0
M  V30 414 C 38.6526 -1.8509 2.83653 0
M  V30 415 C 37.6986 -1.47106 4.00328 0
M  V30 416 S 38.5316 -0.53006 5.3287 0
M  V30 417 C 39.6876 -1.76665 6.0045 0
M  V30 418 H 39.9206 -0.0717806 2.97213 0
M  V30 419 H 37.4536 0.0815678 1.54184 0
M  V30 420 H 39.4116 -2.55605 3.21211 0
M  V30 421 H 38.0726 -2.37247 2.05846 0
M  V30 422 H 37.2656 -2.38594 4.43947 0
M  V30 423 H 36.8676 -0.845885 3.64309 0
M  V30 424 H 39.1596 -2.7077 6.21039 0
M  V30 425 H 40.1026 -1.37308 6.9466 0
M  V30 426 H 40.5106 -1.94174 5.30054 0
M  V30 427 N 39.9087 -1.5758 0.0250728 0
M  V30 428 C 40.8717 -2.08896 -0.943139 0
M  V30 429 C 41.8717 -1.00321 -1.25668 0
M  V30 430 O 43.0617 -1.26495 -1.19769 0
M  V30 431 C 40.1937 -2.55143 -2.26086 0
M  V30 432 H 41.3867 -2.95723 -0.498775 0
M  V30 433 H 38.9397 -1.54703 -0.222888 0
M  V30 434 H 39.6747 -1.71633 -2.75159 0
M  V30 435 H 39.4597 -3.34461 -2.04641 0
M  V30 436 H 40.9497 -2.95083 -2.95492 0
M  V30 437 N 41.3868 0.248026 -1.55636 0
M  V30 438 C 42.3498 1.29044 -1.89421 0
M  V30 439 C 43.3498 1.41134 -0.770581 0
M  V30 440 O 44.5398 1.39854 -1.03858 0
M  V30 441 C 41.6718 2.66831 -2.12165 0
M  V30 442 H 42.8648 1.00305 -2.82629 0
M  V30 443 H 40.4178 0.487265 -1.48511 0
M  V30 444 H 41.1528 3.00711 -1.21422 0
M  V30 445 H 40.9378 2.59438 -2.93997 0
M  V30 446 H 42.4278 3.42103 -2.3949 0
M  V30 447 N 42.8649 1.48995 0.513639 0
M  V30 448 C 43.7949 1.67636 1.62544 0
M  V30 449 C 44.7759 0.525087 1.61793 0
M  V30 450 O 45.9609 0.759502 1.78732 0
M  V30 451 C 43.0909 1.73114 3.01079 0
M  V30 452 C 42.0449 2.87905 3.16693 0
M  V30 453 C 41.3709 2.78486 4.56453 0
M  V30 454 C 42.6709 4.29005 2.97913 0
M  V30 455 H 44.3649 2.60716 1.47198 0
M  V30 456 H 41.9109 1.25465 0.706714 0
M  V30 457 H 43.8639 1.84742 3.78746 0
M  V30 458 H 42.5879 0.766241 3.17484 0
M  V30 459 H 41.2469 2.75859 2.41448 0
M  V30 460 H 40.8949 1.7993 4.69717 0
M  V30 461 H 40.5949 3.55523 4.67843 0
M  V30 462 H 42.1189 2.92104 5.36197 0
M  V30 463 H 43.5329 4.41798 3.65359 0
M  V30 464 H 41.9299 5.07166 3.20785 0
M  V30 465 H 42.9999 4.44329 1.94165 0
M  V30 466 N 44.343 -0.763751 1.37857 0
M  V30 467 C 45.589 -1.52483 1.33704 0
M  V30 468 C 45.922 -1.94051 -0.0759612 0
M  V30 469 O 45.197 -1.64675 -1.03501 0
M  V30 470 C 45.48 -2.78441 2.28348 0
M  V30 471 C 45.333 -2.43075 3.78463 0
M  V30 472 C 46.652 -3.80415 2.21298 0
M  V30 473 H 43.771 -0.553169 0.487005 0
M  V30 474 H 46.413 -0.875562 1.68624 0
M  V30 475 H 44.563 -3.33842 1.987 0
M  V30 476 H 46.235 -1.93527 4.18742 0
M  V30 477 H 44.478 -1.75666 3.96641 0
M  V30 478 H 45.149 -3.33149 4.40132 0
M  V30 479 H 47.625 -3.34527 2.47449 0
M  V30 480 H 46.501 -4.66257 2.89647 0
M  V30 481 H 46.762 -4.25262 1.20849 0
M  V30 482 N 45.8211 -1.22559 -0.990812 0
M  V30 483 C 46.7311 -1.01394 -2.11557 0
M  V30 484 C 47.7471 0.0383962 -1.73958 0
M  V30 485 O 48.9231 -0.154787 -2.00804 0
M  V30 486 C 45.9881 -0.596569 -3.41529 0
M  V30 487 C 45.0491 -1.72276 -3.93217 0
M  V30 488 C 44.2821 -1.32521 -5.16985 0
M  V30 489 O 44.5051 -0.204909 -5.70032 0
M  V30 490 O 43.4391 -2.14247 -5.62478 0
M  V30 491 H 47.2651 -1.95633 -2.32296 0
M  V30 492 H 44.8501 -1.01172 -1.0993 0
M  V30 493 H 46.7321 -0.374263 -4.19735 0
M  V30 494 H 45.4071 0.316939 -3.22145 0
M  V30 495 H 44.3141 -1.99961 -3.16174 0
M  V30 496 H 45.6471 -2.61421 -4.17037 0
M  V30 497 N 47.2992 1.18797 -1.03562 0
M  V30 498 C 48.2292 2.24472 -0.643019 0
M  V30 499 C 49.2102 1.66433 0.351283 0
M  V30 500 O 50.3952 1.92803 0.232505 0
M  V30 501 C 47.5252 3.473 4.24935e-05 0
M  V30 502 C 46.4792 4.18055 -0.917257 0
M  V30 503 C 45.8052 5.34519 -0.138941 0
M  V30 504 C 47.1052 4.72109 -2.23407 0
M  V30 505 H 48.7992 2.57566 -1.52643 0
M  V30 506 H 46.3452 1.23806 -0.735394 0
M  V30 507 H 48.2982 4.20426 0.286383 0
M  V30 508 H 47.0222 3.13424 0.918299 0
M  V30 509 H 45.6812 3.46821 -1.1879 0
M  V30 510 H 45.3292 4.96891 0.781562 0
M  V30 511 H 45.0292 5.82794 -0.750005 0
M  V30 512 H 46.5532 6.10438 0.1405 0
M  V30 513 H 47.9672 5.36955 -2.00879 0
M  V30 514 H 46.3642 5.30897 -2.79765 0
M  V30 515 H 47.4342 3.89807 -2.88407 0
M  V30 516 N 48.7773 0.814389 1.34928 0
M  V30 517 C 49.7073 0.244827 2.32213 0
M  V30 518 C 50.6883 -0.634024 1.57842 0
M  V30 519 O 51.8733 -0.562676 1.8587 0
M  V30 520 C 49.0033 -0.601106 3.42058 0
M  V30 521 C 47.9573 0.179896 4.27622 0
M  V30 522 C 47.2833 -0.788237 5.28858 0
M  V30 523 C 48.5833 1.38329 5.03649 0
M  V30 524 H 50.2773 1.05763 2.80097 0
M  V30 525 H 47.8233 0.510029 1.34665 0
M  V30 526 H 49.7763 -1.00968 4.09125 0
M  V30 527 H 48.5003 -1.44688 2.92802 0
M  V30 528 H 47.1593 0.569739 3.62146 0
M  V30 529 H 46.8073 -1.62973 4.75866 0
M  V30 530 H 46.5073 -0.269942 5.8698 0
M  V30 531 H 48.0313 -1.19485 5.98795 0
M  V30 532 H 49.4453 1.04918 5.63618 0
M  V30 533 H 47.8423 1.83662 5.71304 0
M  V30 534 H 48.9123 2.16592 4.33839 0
M  V30 535 N 50.2554 -1.46986 0.568584 0
M  V30 536 C 51.2024 -2.30153 -0.172707 0
M  V30 537 C 52.1724 -1.39759 -0.897586 0
M  V30 538 O 53.3574 -1.68716 -0.891044 0
M  V30 539 C 50.4974 -3.23952 -1.1895 0
M  V30 540 C 49.6104 -4.29441 -0.469517 0
M  V30 541 C 48.7454 -5.1038 -1.47259 0
M  V30 542 C 47.7844 -6.07632 -0.738225 0
M  V30 543 N 46.9214 -6.8149 -1.68868 0
M  V30 544 H 51.7614 -2.93019 0.542596 0
M  V30 545 H 49.2984 -1.44422 0.279401 0
M  V30 546 H 51.2564 -3.76767 -1.79173 0
M  V30 547 H 49.8864 -2.62926 -1.87269 0
M  V30 548 H 48.9384 -3.79594 0.247467 0
M  V30 549 H 50.2504 -4.98689 0.105241 0
M  V30 550 H 49.4044 -5.67402 -2.14803 0
M  V30 551 H 48.1434 -4.4106 -2.08128 0
M  V30 552 H 47.1484 -5.49778 -0.0489293 0
M  V30 553 H 48.3734 -6.78966 -0.135129 0
M  V30 554 H 46.3194 -6.14891 -2.28573 0
M  V30 555 H 46.2364 -7.46948 -1.16636 0
M  V30 556 H 47.5044 -7.43078 -2.3549 0
M  V30 557 N 51.7335 -0.305618 -1.54608 0
M  V30 558 C 52.6815 0.584119 -2.25146 0
M  V30 559 C 53.6755 1.13326 -1.25911 0
M  V30 560 O 54.8815 1.08337 -1.43747 0
M  V30 561 H 51.2565 0.206983 -0.722954 0
M  V30 562 H 53.2275 -0.033291 -2.98381 0
M  V30 563 C 51.9765 1.74225 -3.009 0
M  V30 564 H 51.2995 1.32892 -3.77067 0
M  V30 565 H 52.7395 2.34077 -3.53531 0
M  V30 566 C 51.1985 2.64914 -2.0814 0
M  V30 567 O 51.7285 3.66137 -1.65246 0
M  V30 568 N 49.9345 2.3275 -1.74 0
M  V30 569 H 49.4815 1.50479 -2.09078 0
M  V30 570 H 49.4395 2.93694 -1.12211 0
M  V30 571 N 53.2116 1.57565 -0.0334293 0
M  V30 572 C 54.6226 1.79746 0.504798 0
M  V30 573 C 54.9736 0.944091 1.71992 0
M  V30 574 O 54.0986 0.155694 2.15839 0
M  V30 575 C 54.6936 3.25997 0.922567 0
M  V30 576 C 53.2526 3.49159 1.40588 0
M  V30 577 C 52.3996 2.74785 0.372633 0
M  V30 578 H 55.3506 1.56565 -0.259436 0
M  V30 579 H 55.3716 3.35945 1.78666 0
M  V30 580 H 54.8836 3.88081 0.0379825 0
M  V30 581 H 52.9846 2.92332 2.31025 0
M  V30 582 H 53.0976 4.57873 1.41028 0
M  V30 583 H 51.4616 2.40391 0.841672 0
M  V30 584 H 52.2446 3.39587 -0.503559 0
M  V30 585 N 54.6897 -0.239769 1.55765 0
M  V30 586 C 56.1007 -0.808263 1.68297 0
M  V30 587 C 56.4517 -1.85736 0.632181 0
M  V30 588 O 55.5767 -2.15277 -0.220204 0
M  V30 589 C 56.1717 -1.47284 3.05111 0
M  V30 590 C 54.7307 -1.98895 3.19559 0
M  V30 591 C 53.8777 -0.842575 2.64189 0
M  V30 592 H 56.8287 -0.0154422 1.58692 0
M  V30 593 H 56.8497 -2.34111 2.99954 0
M  V30 594 H 56.3617 -0.709053 3.81568 0
M  V30 595 H 54.4627 -2.78132 2.47938 0
M  V30 596 H 54.5757 -2.18143 4.26556 0
M  V30 597 H 52.9397 -1.24501 2.22197 0
M  V30 598 H 53.7227 -0.0917552 3.43177 0
M  V30 599 N 56.1678 -1.49265 -0.50573 0
M  V30 600 C 57.1308 -1.65075 -1.59006 0
M  V30 601 C 58.1308 -0.522768 -1.52065 0
M  V30 602 O 59.3208 -0.789117 -1.55302 0
M  V30 603 C 56.4528 -1.64369 -2.98656 0
M  V30 604 H 57.6458 -2.61784 -1.46319 0
M  V30 605 H 55.1988 -1.38226 -0.729616 0
M  V30 606 H 55.9338 -0.692272 -3.16825 0
M  V30 607 H 55.7188 -2.46282 -3.05103 0
M  V30 608 H 57.2088 -1.78674 -3.77446 0
M  V30 609 N 57.6459 0.756429 -1.3826 0
M  V30 610 C 58.8939 1.51248 -1.34047 0
M  V30 611 C 59.2149 1.94875 0.0698372 0
M  V30 612 O 58.4849 1.67436 1.01696 0
M  V30 613 H 57.0649 0.561018 -0.493222 0
M  V30 614 H 59.7269 0.899347 -1.7291 0
M  V30 615 H 58.8229 2.40472 -1.98947 0
M  V30 616 N 59.124 1.23083 0.984299 0
M  V30 617 C 60.034 1.02515 2.11016 0
M  V30 618 C 61.05 -0.0291702 1.73976 0
M  V30 619 O 62.226 0.165434 2.00719 0
M  V30 620 C 59.291 0.614673 3.41208 0
M  V30 621 C 58.352 1.74359 3.92297 0
M  V30 622 C 57.585 1.35261 5.16275 0
M  V30 623 O 57.808 0.235136 5.69915 0
M  V30 624 O 56.742 2.17227 5.61334 0
M  V30 625 H 60.568 1.96862 2.31255 0
M  V30 626 H 58.153 1.01753 1.09392 0
M  V30 627 H 60.035 0.396518 4.1953 0
M  V30 628 H 58.71 -0.299851 3.22308 0
M  V30 629 H 57.617 2.01635 3.1511 0
M  V30 630 H 58.95 2.63629 4.15645 0
M  V30 631 N 60.6021 -1.18246 1.0419 0
M  V30 632 C 61.5121 -2.25574 0.644476 0
M  V30 633 C 62.5281 -1.70845 -0.329826 0
M  V30 634 O 63.7041 -2.00554 -0.184443 0
M  V30 635 C 60.7691 -3.46697 0.014877 0
M  V30 636 C 59.8301 -4.16554 1.03834 0
M  V30 637 C 59.0631 -5.31894 0.438692 0
M  V30 638 O 59.2861 -5.65385 -0.754752 0
M  V30 639 O 58.2201 -5.90459 1.168 0
M  V30 640 H 62.0461 -2.61836 1.53869 0
M  V30 641 H 59.6311 -1.25352 0.812854 0
M  V30 642 H 61.5131 -4.20062 -0.335538 0
M  V30 643 H 60.1881 -3.12255 -0.853138 0
M  V30 644 H 59.0951 -3.45251 1.44057 0
M  V30 645 H 60.4281 -4.54998 1.87716 0
M  V30 646 N 62.0802 -0.821533 -1.34494 0
M  V30 647 C 62.9902 -0.244355 -2.33324 0
M  V30 648 C 64.0062 0.620527 -1.62559 0
M  V30 649 O 65.1822 0.528754 -1.94335 0
M  V30 650 C 62.2472 0.585368 -3.41723 0
M  V30 651 C 61.3082 -0.301752 -4.28238 0
M  V30 652 C 60.5412 0.488466 -5.3146 0
M  V30 653 O 60.7642 1.72186 -5.4379 0
M  V30 654 O 59.6982 -0.12848 -6.01763 0
M  V30 655 H 63.5242 -1.06231 -2.84515 0
M  V30 656 H 61.1092 -0.583645 -1.37528 0
M  V30 657 H 62.9912 1.05747 -4.07916 0
M  V30 658 H 61.6662 1.38068 -2.92778 0
M  V30 659 H 60.5732 -0.821315 -3.64973 0
M  V30 660 H 61.9062 -1.06138 -4.8062 0
M  V30 661 N 63.5583 1.46682 -0.576371 0
M  V30 662 C 64.8053 2.02412 -0.0595339 0
M  V30 663 C 65.1333 1.44859 1.29793 0
M  V30 664 O 64.3883 0.601099 1.8624 0
M  V30 665 C 64.6873 3.57345 0.062886 0
M  V30 666 C 64.3533 4.33908 -1.22616 0
M  V30 667 C 63.0153 4.54544 -1.57933 0
M  V30 668 C 65.3673 4.77919 -2.07948 0
M  V30 669 C 62.6953 5.16444 -2.78393 0
M  V30 670 C 65.0473 5.41149 -3.27629 0
M  V30 671 C 63.7113 5.60014 -3.63236 0
M  V30 672 H 62.9813 0.74068 -0.021785 0
M  V30 673 H 65.6283 1.76128 -0.751735 0
M  V30 674 H 63.9333 3.82729 0.838178 0
M  V30 675 H 65.6303 3.98136 0.478439 0
M  V30 676 H 62.2203 4.18138 -0.941202 0
M  V30 677 H 66.4043 4.61738 -1.81967 0
M  V30 678 H 61.6603 5.29242 -3.06126 0
M  V30 679 H 65.8343 5.74211 -3.94023 0
M  V30 680 H 63.4613 6.07748 -4.56669 0
M  V30 681 N 65.0364 0.313813 1.54444 0
M  V30 682 C 65.9664 -0.549454 2.26943 0
M  V30 683 C 66.9474 -1.12741 1.27372 0
M  V30 684 O 68.1324 -1.15436 1.56167 0
M  V30 685 C 65.2624 -1.71523 3.01989 0
M  V30 686 C 64.2164 -1.26703 4.08816 0
M  V30 687 C 63.5424 -2.51898 4.71647 0
M  V30 688 C 64.8424 -0.388962 5.2085 0
M  V30 689 H 66.5364 0.0552661 2.99349 0
M  V30 690 H 64.0824 0.0280207 1.43973 0
M  V30 691 H 66.0354 -2.32535 3.51433 0
M  V30 692 H 64.7594 -2.34639 2.27183 0
M  V30 693 H 63.4184 -0.679896 3.6024 0
M  V30 694 H 63.0664 -3.13356 3.93468 0
M  V30 695 H 62.7664 -2.22605 5.43802 0
M  V30 696 H 64.2904 -3.1369 5.23861 0
M  V30 697 H 65.7044 -0.905107 5.6611 0
M  V30 698 H 64.1014 -0.18924 5.99802 0
M  V30 699 H 65.1714 0.582699 4.81386 0
M  V30 700 N 66.5145 -1.57545 0.0417849 0
M  V30 701 C 67.4445 -2.14009 -0.933929 0
M  V30 702 C 68.4255 -1.05938 -1.33083 0
M  V30 703 O 69.6105 -1.33833 -1.40721 0
M  V30 704 C 66.7405 -2.67747 -2.21199 0
M  V30 705 C 65.6945 -3.80718 -1.95544 0
M  V30 706 C 65.0205 -4.20935 -3.29724 0
M  V30 707 C 66.3205 -5.06258 -1.28452 0
M  V30 708 H 68.0145 -2.95788 -0.463645 0
M  V30 709 H 65.5605 -1.42285 -0.221573 0
M  V30 710 H 67.5135 -3.05886 -2.89848 0
M  V30 711 H 66.2375 -1.83147 -2.70416 0
M  V30 712 H 64.8965 -3.43037 -1.2931 0
M  V30 713 H 64.5445 -3.33298 -3.76724 0
M  V30 714 H 64.2445 -4.9707 -3.13361 0
M  V30 715 H 65.7685 -4.61666 -3.9962 0
M  V30 716 H 67.1825 -5.41903 -1.8712 0
M  V30 717 H 65.5795 -5.87475 -1.22445 0
M  V30 718 H 66.6495 -4.84207 -0.259219 0
M  V30 719 N 67.9926 0.231505 -1.5589 0
M  V30 720 C 69.2696 0.981096 -1.69215 0
M  V30 721 C 69.6496 2.02799 -0.586164 0
M  V30 722 O 68.9976 2.24823 0.408253 0
M  V30 723 C 69.2076 1.60054 -3.10135 0
M  V30 724 C 70.5556 2.09658 -3.69227 0
M  V30 725 O 71.5796 1.69967 -3.13033 0
M  V30 726 O 70.4386 2.8258 -4.67772 0
M  V30 727 H 67.5326 0.457653 -0.688827 0
M  V30 728 H 70.0786 0.224073 -1.68214 0
M  V30 729 H 68.8506 0.844105 -3.82087 0
M  V30 730 H 68.4736 2.42336 -3.15212 0
M  V30 731 N 69.4707 1.49531 0.497807 0
M  V30 732 C 70.4007 1.6935 1.60757 0
M  V30 733 C 71.3817 0.542218 1.61227 0
M  V30 734 O 72.5667 0.778417 1.77917 0
M  V30 735 C 69.6967 1.76298 2.99226 0
M  V30 736 C 68.6507 2.91248 3.13622 0
M  V30 737 C 67.9767 2.83312 4.53474 0
M  V30 738 C 69.2767 4.3214 2.93346 0
M  V30 739 H 70.9707 2.62263 1.44425 0
M  V30 740 H 68.5167 1.26208 0.693367 0
M  V30 741 H 70.4697 1.88749 3.76765 0
M  V30 742 H 69.1937 0.799871 3.16654 0
M  V30 743 H 67.8527 2.78404 2.38509 0
M  V30 744 H 67.5007 1.84902 4.67782 0
M  V30 745 H 67.2007 3.60465 4.64046 0
M  V30 746 H 68.7247 2.97775 5.33069 0
M  V30 747 H 70.1387 4.45649 3.60652 0
M  V30 748 H 68.5357 5.1054 3.15387 0
M  V30 749 H 69.6057 4.46363 1.89441 0
M  V30 750 N 70.9488 -0.749086 1.3866 0
M  V30 751 C 71.8788 -1.8764 1.38973 0
M  V30 752 C 72.8598 -1.68178 0.255004 0
M  V30 753 O 74.0448 -1.88704 0.458754 0
M  V30 754 C 71.1748 -3.25222 1.21851 0
M  V30 755 C 70.1288 -3.59295 2.32575 0
M  V30 756 C 69.4548 -4.95663 2.00555 0
M  V30 757 C 70.7548 -3.63709 3.7485 0
M  V30 758 H 72.4488 -1.87635 2.3331 0
M  V30 759 H 69.9948 -0.901329 1.12303 0
M  V30 760 H 71.9478 -4.03746 1.20695 0
M  V30 761 H 70.6718 -3.25719 0.239775 0
M  V30 762 H 69.3308 -2.83093 2.32925 0
M  V30 763 H 68.9788 -4.92724 1.01154 0
M  V30 764 H 68.6788 -5.19429 2.74714 0
M  V30 765 H 70.2028 -5.7656 2.01024 0
M  V30 766 H 71.6168 -4.32338 3.76506 0
M  V30 767 H 70.0138 -3.98986 4.48252 0
M  V30 768 H 71.0838 -2.63834 4.06841 0
M  V30 769 N 72.4269 -1.23603 -0.977757 0
M  V30 770 C 73.6549 -1.09646 -1.75458 0
M  V30 771 C 74.0699 0.351859 -1.85492 0
M  V30 772 O 73.4269 1.24327 -1.336 0
M  V30 773 C 73.4779 -1.71895 -3.18016 0
M  V30 774 O 73.1989 -3.11063 -3.08498 0
M  V30 775 C 74.6999 -1.63415 -4.12081 0
M  V30 776 H 71.9199 -0.38359 -0.550545 0
M  V30 777 H 74.4639 -1.63507 -1.22824 0
M  V30 778 H 72.6189 -1.22061 -3.67668 0
M  V30 779 H 73.0329 -3.41305 -3.9826 0
M  V30 780 H 74.5069 -2.11669 -5.09804 0
M  V30 781 H 74.9839 -0.593462 -4.35172 0
M  V30 782 H 75.5899 -2.12628 -3.68334 0
M  V30 783 N 73.905 1.17692 -1.04816 0
M  V30 784 C 74.853 2.23632 -0.63966 0
M  V30 785 C 75.847 1.6601 0.337219 0
M  V30 786 O 77.053 1.78844 0.203693 0
M  V30 787 H 73.428 0.727949 -0.188665 0
M  V30 788 H 75.399 2.55387 -1.54337 0
M  V30 789 C 74.148 3.4769 -0.0264051 0
M  V30 790 H 73.471 3.92331 -0.769164 0
M  V30 791 H 74.911 4.23418 0.222098 0
M  V30 792 C 73.37 3.13807 1.22584 0
M  V30 793 O 73.9 3.28236 2.31569 0
M  V30 794 N 72.106 2.68065 1.12202 0
M  V30 795 H 71.653 2.56525 0.235133 0
M  V30 796 H 71.611 2.45767 1.96076 0
M  V30 797 N 75.3831 0.828654 1.34056 0
M  V30 798 C 76.7991 0.515135 1.51058 0
M  V30 799 C 76.9991 -0.959581 1.77184 0
M  V30 800 O 76.0551 -1.74382 1.82612 0
M  V30 801 C 77.3681 1.37963 2.67183 0
M  V30 802 C 78.9161 1.37735 2.81066 0
M  V30 803 C 79.3911 2.22645 4.00241 0
M  V30 804 N 80.8821 2.203 4.07458 0
M  V30 805 C 81.6171 2.82744 4.98842 0
M  V30 806 N 81.1131 3.54201 5.9541 0
M  V30 807 N 82.9061 2.72268 4.91759 0
M  V30 808 H 75.0571 1.78343 1.15358 0
M  V30 809 H 77.3201 0.760304 0.566252 0
M  V30 810 H 77.0261 2.42714 2.54525 0
M  V30 811 H 76.9001 1.0484 3.62338 0
M  V30 812 H 79.2871 0.337593 2.93163 0
M  V30 813 H 79.3681 1.74859 1.86703 0
M  V30 814 H 79.0121 3.26674 3.88905 0
M  V30 815 H 78.9421 1.82869 4.93829 0
M  V30 816 H 81.4331 1.68327 3.38341 0
M  V30 817 H 81.7461 3.9908 6.61782 0
M  V30 818 H 80.0911 3.58308 5.95517 0
M  V30 819 H 83.2821 2.16014 4.15278 0
M  V30 820 H 83.4551 3.21219 5.62781 0
M  V30 821 N 76.8612 -1.46375 0.584142 0
M  V30 822 C 78.1072 -2.02678 0.0703716 0
M  V30 823 C 78.4402 -1.4545 -1.28678 0
M  V30 824 O 77.7152 -0.62014 -1.84349 0
M  V30 825 C 77.9982 -3.60099 0.00614674 0
M  V30 826 C 77.8512 -4.27709 1.3923 0
M  V30 827 C 79.1702 -4.34598 -0.693742 0
M  V30 828 H 76.2892 -0.736504 0.027047 0
M  V30 829 H 78.9312 -1.74501 0.751615 0
M  V30 830 H 77.0812 -3.84236 -0.574009 0
M  V30 831 H 78.7532 -4.14832 2.01773 0
M  V30 832 H 76.9962 -3.87016 1.95962 0
M  V30 833 H 77.6672 -5.36478 1.29982 0
M  V30 834 H 80.1432 -4.15615 -0.200869 0
M  V30 835 H 79.0192 -5.44318 -0.707714 0
M  V30 836 H 79.2802 -4.05759 -1.75533 0
M  V30 837 N 78.3393 -0.321999 -1.54275 0
M  V30 838 C 79.7503 0.166384 -1.85957 0
M  V30 839 C 80.1013 1.51747 -1.24367 0
M  V30 840 O 79.2263 2.09317 -0.549124 0
M  V30 841 C 79.8213 0.308681 -3.37391 0
M  V30 842 C 78.3803 0.741286 -3.69028 0
M  V30 843 C 77.5273 -0.137937 -2.76957 0
M  V30 844 H 80.4783 -0.542335 -1.49146 0
M  V30 845 H 80.4993 1.13984 -3.63026 0
M  V30 846 H 80.0113 -0.674809 -3.82188 0
M  V30 847 H 78.1123 1.73458 -3.29762 0
M  V30 848 H 78.2253 0.546118 -4.75977 0
M  V30 849 H 76.5893 0.386251 -2.51754 0
M  V30 850 H 77.3723 -1.11816 -3.2458 0
M  V30 851 N 79.8174 1.5752 -0.0501392 0
M  V30 852 C 81.2284 1.80271 0.485705 0
M  V30 853 C 81.5794 0.96228 1.70981 0
M  V30 854 O 80.7044 0.178578 2.15662 0
M  V30 855 C 81.2994 3.26957 0.887938 0
M  V30 856 C 79.8584 3.5063 1.36877 0
M  V30 857 C 79.0054 2.75165 0.343468 0
M  V30 858 H 81.9564 1.56281 -0.276028 0
M  V30 859 H 81.9774 3.37821 1.75093 0
M  V30 860 H 81.4894 3.881 -0.0031809 0
M  V30 861 H 79.5904 2.94766 2.27911 0
M  V30 862 H 79.7034 4.59343 1.36164 0
M  V30 863 H 78.0674 2.4127 0.816128 0
M  V30 864 H 78.8504 3.39034 -0.539548 0
M  V30 865 N 81.2955 -0.223234 1.56011 0
M  V30 866 C 82.5435 -0.946003 1.78592 0
M  V30 867 C 82.8645 -1.84936 0.618349 0
M  V30 868 O 82.1345 -1.92473 -0.364833 0
M  V30 869 H 80.7145 -0.352298 0.658707 0
M  V30 870 H 83.3765 -0.235494 1.93472 0
M  V30 871 H 82.4725 -1.55381 2.70672 0
M  V30 872 N 82.7736 -1.49793 -0.48987 0
M  V30 873 C 84.0196 -1.60078 -1.24511 0
M  V30 874 C 84.3526 -0.291608 -1.91998 0
M  V30 875 O 83.6276 0.705647 -1.81248 0
M  V30 876 C 83.9106 -2.76791 -2.30345 0
M  V30 877 C 83.7636 -4.17535 -1.67286 0
M  V30 878 C 85.0826 -2.89111 -3.31817 0
M  V30 879 H 82.2016 -0.582645 -0.451324 0
M  V30 880 H 84.8436 -1.82117 -0.541612 0
M  V30 881 H 82.9936 -2.5813 -2.90346 0
M  V30 882 H 84.6656 -4.4774 -1.11026 0
M  V30 883 H 82.9086 -4.22665 -0.976577 0
M  V30 884 H 83.5796 -4.95094 -2.44103 0
M  V30 885 H 86.0556 -3.06133 -2.81819 0
M  V30 886 H 84.9316 -3.72433 -4.03219 0
M  V30 887 H 85.1926 -1.9893 -3.94815 0
M  V30 888 N 84.2517 0.741722 -1.39055 0
M  V30 889 C 85.5287 1.49252 -1.26425 0
M  V30 890 C 85.9087 2.10705 0.129144 0
M  V30 891 O 85.2567 1.98045 1.13976 0
M  V30 892 C 85.4667 2.54934 -2.38347 0
M  V30 893 C 86.8147 3.21506 -2.77343 0
M  V30 894 O 87.8387 2.65245 -2.37747 0
M  V30 895 O 86.6977 4.23294 -3.45665 0
M  V30 896 H 83.7917 0.662451 -0.495064 0
M  V30 897 H 86.3377 0.776121 -1.50912 0
M  V30 898 H 85.1097 2.07857 -3.31529 0
M  V30 899 H 84.7327 3.34141 -2.15489 0
M  V30 900 N 85.7298 1.2412 0.971189 0
M  V30 901 C 86.6398 1.04747 2.09917 0
M  V30 902 C 87.6558 -0.0107162 1.73997 0
M  V30 903 O 88.8318 0.186714 2.00533 0
M  V30 904 C 85.8968 0.650828 3.40537 0
M  V30 905 C 84.9578 1.7851 3.90426 0
M  V30 906 C 84.1908 1.40729 5.14812 0
M  V30 907 O 84.4138 0.29557 5.69634 0
M  V30 908 O 83.3478 2.23168 5.58999 0
M  V30 909 H 87.1738 1.99304 2.29154 0
M  V30 910 H 84.7588 1.02908 1.08307 0
M  V30 911 H 86.6408 0.440992 4.19086 0
M  V30 912 H 85.3158 -0.265649 3.22608 0
M  V30 913 H 84.2228 2.04966 3.12953 0
M  V30 914 H 85.5558 2.68023 4.12825 0
M  V30 915 N 87.2079 -1.17134 1.05439 0
M  V30 916 C 88.1709 -2.19439 0.661764 0
M  V30 917 C 89.1709 -1.58199 -0.288042 0
M  V30 918 O 90.3609 -1.74053 -0.0715803 0
M  V30 919 C 87.4929 -3.40889 -0.0276209 0
M  V30 920 H 88.6859 -2.55688 1.56728 0
M  V30 921 H 86.2389 -1.31259 0.848567 0
M  V30 922 H 86.9739 -3.10187 -0.94629 0
M  V30 923 H 86.7589 -3.86586 0.655238 0
M  V30 924 H 88.2489 -4.16603 -0.288342 0
M  V30 925 N 88.686 -0.835752 -1.33615 0
M  V30 926 C 89.649 -0.272 -2.2758 0
M  V30 927 C 90.649 0.557487 -1.50827 0
M  V30 928 O 91.839 0.37173 -1.70188 0
M  V30 929 C 88.971 0.617173 -3.35267 0
M  V30 930 H 90.164 -1.10111 -2.78954 0
M  V30 931 H 87.717 -0.608594 -1.43965 0
M  V30 932 H 88.452 1.46884 -2.89129 0
M  V30 933 H 88.237 0.0237066 -3.92093 0
M  V30 934 H 89.727 1.005 -4.05326 0
M  V30 935 N 90.1641 1.46063 -0.591896 0
M  V30 936 C 91.3941 2.06418 -0.0867676 0
M  V30 937 C 91.8021 1.43975 1.22751 0
M  V30 938 O 91.1451 0.542531 1.75506 0
M  V30 939 C 91.2071 3.59213 0.143725 0
M  V30 940 C 90.8711 4.439 -1.08635 0
M  V30 941 C 91.8681 4.79864 -2.00067 0
M  V30 942 C 89.5531 4.84896 -1.31077 0
M  V30 943 C 91.5471 5.55661 -3.12282 0
M  V30 944 C 89.2341 5.6045 -2.43596 0
M  V30 945 C 90.2321 5.95747 -3.34027 0
M  V30 946 O 89.9201 6.69772 -4.4459 0
M  V30 947 H 89.6521 0.673443 -0.0587447 0
M  V30 948 H 92.2061 1.88539 -0.814994 0
M  V30 949 H 90.4361 3.75433 0.926668 0
M  V30 950 H 92.1251 4.01463 0.5985 0
M  V30 951 H 92.8911 4.48763 -1.83947 0
M  V30 952 H 88.7701 4.56867 -0.61594 0
M  V30 953 H 92.3141 5.8313 -3.82891 0
M  V30 954 H 88.2111 5.90965 -2.59674 0
M  V30 955 H 88.9791 6.88207 -4.43073 0
M  V30 956 N 91.6422 0.330177 1.54103 0
M  V30 957 C 92.8882 -0.270806 2.00984 0
M  V30 958 C 93.2212 -1.51265 1.21789 0
M  V30 959 O 92.4962 -1.92142 0.301927 0
M  V30 960 C 92.7792 -0.598339 3.55094 0
M  V30 961 C 92.6322 0.654674 4.4501 0
M  V30 962 C 93.9512 -1.41334 4.16789 0
M  V30 963 H 91.0702 -0.0969531 0.730595 0
M  V30 964 H 93.7122 0.448066 1.84641 0
M  V30 965 H 91.8622 -1.21078 3.69151 0
M  V30 966 H 93.5342 1.29285 4.42813 0
M  V30 967 H 91.7772 1.28224 4.14416 0
M  V30 968 H 92.4482 0.380944 5.50684 0
M  V30 969 H 94.9242 -0.895597 4.06347 0
M  V30 970 H 93.8002 -1.61127 5.24718 0
M  V30 971 H 94.0612 -2.41146 3.70541 0
M  V30 972 N 93.1203 -1.57491 0.0584922 0
M  V30 973 C 94.0673 -2.11958 -0.913376 0
M  V30 974 C 95.0373 -1.02875 -1.30407 0
M  V30 975 O 96.2223 -1.30464 -1.39226 0
M  V30 976 C 93.3623 -2.67497 -2.18035 0
M  V30 977 C 92.4753 -3.90691 -1.84349 0
M  V30 978 C 91.6103 -4.3452 -3.05559 0
M  V30 979 C 90.6493 -5.50395 -2.67827 0
M  V30 980 N 89.7863 -5.89244 -3.81754 0
M  V30 981 H 94.6263 -2.94704 -0.442017 0
M  V30 982 H 92.1633 -1.45643 -0.206545 0
M  V30 983 H 94.1213 -2.978 -2.92183 0
M  V30 984 H 92.7513 -1.87537 -2.62735 0
M  V30 985 H 91.8033 -3.66934 -1.00319 0
M  V30 986 H 93.1153 -4.7489 -1.5258 0
M  V30 987 H 92.2693 -4.66414 -3.87998 0
M  V30 988 H 91.0083 -3.49147 -3.40511 0
M  V30 989 H 90.0133 -5.18165 -1.83806 0
M  V30 990 H 91.2383 -6.3749 -2.34059 0
M  V30 991 H 89.1843 -5.06823 -4.16493 0
M  V30 992 H 89.1013 -6.68151 -3.53708 0
M  V30 993 H 90.3693 -6.25756 -4.64811 0
M  V30 994 N 94.5984 0.214957 -1.56127 0
M  V30 995 C 95.5614 1.24997 -1.92116 0
M  V30 996 C 96.5614 1.39467 -0.800344 0
M  V30 997 O 97.7514 1.37619 -1.06802 0
M  V30 998 C 94.8834 2.62271 -2.17777 0
M  V30 999 H 96.0764 0.942875 -2.84693 0
M  V30 1000 H 93.6294 0.455654 -1.49511 0
M  V30 1001 H 94.3644 2.98068 -1.27773 0
M  V30 1002 H 94.1494 2.53143 -2.99434 0
M  V30 1003 H 95.6394 3.36946 -2.46693 0
M  V30 1004 N 96.0765 1.50051 0.48192 0
M  V30 1005 C 97.3245 1.60181 1.23234 0
M  V30 1006 C 97.6455 0.299176 1.92691 0
M  V30 1007 O 96.9155 -0.682708 1.83619 0
M  V30 1008 H 95.4955 0.590232 0.457859 0
M  V30 1009 H 98.1575 1.86775 0.556881 0
M  V30 1010 H 97.2535 2.40753 1.98607 0
M  V30 1011 N 97.5546 -0.734337 1.39446 0
M  V30 1012 C 98.8016 -1.49391 1.36706 0
M  V30 1013 C 99.1296 -1.94465 -0.0367813 0
M  V30 1014 O 98.3846 -1.67154 -1.01774 0
M  V30 1015 C 98.6836 -2.74711 2.28623 0
M  V30 1016 C 98.3496 -2.48501 3.76242 0
M  V30 1017 C 97.0116 -2.41062 4.16464 0
M  V30 1018 C 99.3636 -2.26098 4.69606 0
M  V30 1019 C 96.6916 -2.09262 5.48112 0
M  V30 1020 C 99.0436 -1.95814 6.01531 0
M  V30 1021 C 97.7076 -1.86845 6.40816 0
M  V30 1022 H 96.9776 -0.546661 0.500243 0
M  V30 1023 H 99.6246 -0.842788 1.71957 0
M  V30 1024 H 97.9296 -3.44569 1.86492 0
M  V30 1025 H 99.6266 -3.32741 2.23796 0
M  V30 1026 H 96.2166 -2.55169 3.44364 0
M  V30 1027 H 100.401 -2.30812 4.39363 0
M  V30 1028 H 95.6566 -2.00841 5.77471 0
M  V30 1029 H 99.8306 -1.77488 6.73403 0
M  V30 1030 H 97.4576 -1.6197 7.42745 0
M  V30 1031 N 99.0327 -1.24633 -0.964593 0
M  V30 1032 C 99.9627 -1.06611 -2.07741 0
M  V30 1033 C 100.944 0.0218666 -1.70086 0
M  V30 1034 O 102.129 -0.145793 -1.93652 0
M  V30 1035 C 99.2587 -0.673444 -3.40708 0
M  V30 1036 C 98.2127 -1.71054 -3.92332 0
M  V30 1037 C 97.5387 -1.17285 -5.21678 0
M  V30 1038 C 98.8387 -3.10718 -4.19824 0
M  V30 1039 H 100.533 -1.99693 -2.23076 0
M  V30 1040 H 98.0787 -0.96152 -1.07195 0
M  V30 1041 H 100.032 -0.534345 -4.17998 0
M  V30 1042 H 98.7557 0.293073 -3.25282 0
M  V30 1043 H 97.4147 -1.83791 -3.17201 0
M  V30 1044 H 97.0627 -0.196847 -5.02615 0
M  V30 1045 H 96.7627 -1.86592 -5.57187 0
M  V30 1046 H 98.2867 -1.04593 -6.01575 0
M  V30 1047 H 99.7007 -3.01192 -4.87808 0
M  V30 1048 H 98.0977 -3.77406 -4.66567 0
M  V30 1049 H 99.1677 -3.58524 -3.26479 0
M  V30 1050 N 100.511 1.16574 -1.06058 0
M  V30 1051 C 101.474 2.19085 -0.673392 0
M  V30 1052 C 102.474 1.5835 0.279648 0
M  V30 1053 O 103.664 1.74088 0.0623488 0
M  V30 1054 C 100.796 3.40899 0.00954234 0
M  V30 1055 H 101.989 2.54853 -1.58081 0
M  V30 1056 H 99.5418 1.30808 -0.855516 0
M  V30 1057 H 100.277 3.10684 0.929826 0
M  V30 1058 H 100.062 3.86233 -0.67573 0
M  V30 1059 H 101.552 4.1675 0.266245 0
M  V30 1060 N 101.989 0.842826 1.3317 0
M  V30 1061 C 102.952 0.284065 2.27433 0
M  V30 1062 C 103.952 -0.54948 1.5112 0
M  V30 1063 O 105.142 -0.362699 1.70382 0
M  V30 1064 C 102.274 -0.599384 3.35589 0
M  V30 1065 H 103.467 1.11589 2.78366 0
M  V30 1066 H 101.02 0.616221 1.4364 0
M  V30 1067 H 101.755 -1.45349 2.89904 0
M  V30 1068 H 101.54 -0.00291266 3.921 0
M  V30 1069 H 103.03 -0.983488 4.05854 0
M  V30 1070 N 103.467 -1.45747 0.599634 0
M  V30 1071 C 104.716 -2.01502 0.0893511 0
M  V30 1072 C 105.029 -1.4748 -1.28488 0
M  V30 1073 O 106.235 -1.95161 -1.88745 0
M  V30 1074 C 104.691 -3.59735 0.109082 0
M  V30 1075 C 104.299 -4.22754 1.48267 0
M  V30 1076 C 106.043 -4.23085 -0.346374 0
M  V30 1077 C 103.95 -5.73115 1.45921 0
M  V30 1078 H 102.88 -0.753417 0.0296347 0
M  V30 1079 H 105.531 -1.67303 0.753788 0
M  V30 1080 H 103.913 -3.91087 -0.621854 0
M  V30 1081 H 105.087 -4.02987 2.23468 0
M  V30 1082 H 103.402 -3.71567 1.87955 0
M  V30 1083 H 105.999 -5.33327 -0.38298 0
M  V30 1084 H 106.342 -3.93201 -1.36743 0
M  V30 1085 H 106.875 -3.9642 0.331038 0
M  V30 1086 H 103.614 -6.07685 2.45762 0
M  V30 1087 H 103.134 -5.95097 0.749665 0
M  V30 1088 H 104.813 -6.3616 1.17941 0
M  V30 1089 N 104.945 -0.338344 -1.53925 0
M  V30 1090 C 105.908 0.508299 -2.23493 0
M  V30 1091 C 106.908 1.03175 -1.23335 0
M  V30 1092 O 108.098 0.921826 -1.47811 0
M  V30 1093 C 105.23 1.70754 -2.95052 0
M  V30 1094 H 106.423 -0.100058 -2.99733 0
M  V30 1095 H 103.976 -0.0896198 -1.56043 0
M  V30 1096 H 104.711 2.35474 -2.22986 0
M  V30 1097 H 104.496 1.33946 -3.68512 0
M  V30 1098 H 105.986 2.30818 -3.48013 0
M  V30 1099 N 106.423 1.57458 -0.0668435 0
M  V30 1100 C 107.37 2.12439 0.902122 0
M  V30 1101 C 108.34 1.03565 1.2986 0
M  V30 1102 O 109.525 1.312 1.38532 0
M  V30 1103 C 106.665 2.6865 2.16614 0
M  V30 1104 C 105.778 3.91663 1.82274 0
M  V30 1105 C 104.913 4.36134 3.0325 0
M  V30 1106 C 103.952 5.51808 2.64904 0
M  V30 1107 N 103.089 5.9126 3.78624 0
M  V30 1108 H 107.929 2.94934 0.426382 0
M  V30 1109 H 105.466 1.4575 0.198819 0
M  V30 1110 H 107.424 2.99346 2.90599 0
M  V30 1111 H 106.054 1.88928 2.61737 0
M  V30 1112 H 105.106 3.6746 0.983719 0
M  V30 1113 H 106.418 4.75693 1.50059 0
M  V30 1114 H 105.572 4.68465 3.85519 0
M  V30 1115 H 104.311 3.50948 3.38655 0
M  V30 1116 H 103.316 5.19133 1.81055 0
M  V30 1117 H 104.541 6.38722 2.30675 0
M  V30 1118 H 102.487 5.09024 4.138 0
M  V30 1119 H 102.404 6.70018 3.5016 0
M  V30 1120 H 103.672 6.28212 4.61486 0
M  V30 1121 N 107.901 -0.206675 1.56239 0
M  V30 1122 C 109.149 -0.927007 1.79586 0
M  V30 1123 C 109.47 -1.8427 0.637929 0
M  V30 1124 O 108.74 -1.92849 -0.344398 0
M  V30 1125 H 107.32 -0.345292 0.662407 0
M  V30 1126 H 109.982 -0.21496 1.93711 0
M  V30 1127 H 109.078 -1.52501 2.72305 0
M  V30 1128 N 109.379 -1.50304 -0.473955 0
M  V30 1129 C 110.289 -1.7174 -1.5982 0
M  V30 1130 C 111.305 -0.600457 -1.63311 0
M  V30 1131 O 112.481 -0.878441 -1.81233 0
M  V30 1132 C 109.546 -1.80427 -2.96052 0
M  V30 1133 C 108.607 -3.04148 -3.02972 0
M  V30 1134 C 107.84 -3.12411 -4.32706 0
M  V30 1135 O 108.063 -2.27542 -5.23049 0
M  V30 1136 O 106.997 -4.05113 -4.45159 0
M  V30 1137 H 110.823 -2.67035 -1.44657 0
M  V30 1138 H 108.408 -1.34366 -0.653148 0
M  V30 1139 H 110.29 -1.88338 -3.7697 0
M  V30 1140 H 108.965 -0.883156 -3.11419 0
M  V30 1141 H 107.872 -3.0174 -2.21142 0
M  V30 1142 H 109.205 -3.95829 -2.92541 0
M  V30 1143 N 110.857 0.726932 -1.39834 0
M  V30 1144 C 111.82 1.82269 -1.38962 0
M  V30 1145 C 112.82 1.58248 -0.285334 0
M  V30 1146 O 114.01 1.65499 -0.54366 0
M  V30 1147 C 111.142 3.20186 -1.17019 0
M  V30 1148 H 112.335 1.84443 -2.36476 0
M  V30 1149 H 109.888 0.931416 -1.25516 0
M  V30 1150 H 110.623 3.23669 -0.202204 0
M  V30 1151 H 110.408 3.3902 -1.96998 0
M  V30 1152 H 111.898 4.00235 -1.1917 0
M  V30 1153 N 112.336 1.25143 0.95797 0
M  V30 1154 C 113.283 1.05235 2.05412 0
M  V30 1155 C 114.253 -0.0374561 1.66058 0
M  V30 1156 O 115.438 0.119073 1.90428 0
M  V30 1157 C 112.578 0.673589 3.38462 0
M  V30 1158 C 111.691 1.8379 3.90954 0
M  V30 1159 C 110.826 1.40381 5.12315 0
M  V30 1160 C 109.865 2.53746 5.57027 0
M  V30 1161 N 109.002 2.11136 6.69601 0
M  V30 1162 H 113.842 1.99048 2.21774 0
M  V30 1163 H 111.379 0.991277 1.08683 0
M  V30 1164 H 113.337 0.434964 4.14926 0
M  V30 1165 H 111.967 -0.227554 3.21997 0
M  V30 1166 H 111.019 2.18992 3.11041 0
M  V30 1167 H 112.331 2.68937 4.20089 0
M  V30 1168 H 111.485 1.12464 5.96185 0
M  V30 1169 H 110.224 0.523015 4.84887 0
M  V30 1170 H 109.229 2.82412 4.71724 0
M  V30 1171 H 110.454 3.42398 5.86464 0
M  V30 1172 H 108.4 1.25468 6.4389 0
M  V30 1173 H 108.317 2.89832 6.98236 0
M  V30 1174 H 109.585 1.86385 7.56889 0
M  V30 1175 N 113.814 -1.1601 1.06675 0
M  V30 1176 C 115.039 -1.91068 0.806706 0
M  V30 1177 C 115.464 -1.77112 -0.633485 0
M  V30 1178 O 114.822 -1.09908 -1.44187 0
M  V30 1179 C 114.87 -3.39655 1.21106 0
M  V30 1180 O 113.974 -4.10893 0.352189 0
M  V30 1181 H 113.315 -0.595125 0.294486 0
M  V30 1182 H 115.845 -1.46955 1.42356 0
M  V30 1183 H 115.855 -3.90434 1.18428 0
M  V30 1184 H 114.53 -3.49132 2.26008 0
M  V30 1185 H 113.107 -3.70285 0.440868 0
M  V30 1186 N 115.292 -0.849877 -1.32721 0
M  V30 1187 C 116.703 -0.506188 -1.79707 0
M  V30 1188 C 117.054 0.975627 -1.70223 0
M  V30 1189 O 116.179 1.76078 -1.25799 0
M  V30 1190 C 116.774 -0.912044 -3.26293 0
M  V30 1191 C 115.333 -0.620326 -3.71253 0
M  V30 1192 C 114.48 -1.11439 -2.53922 0
M  V30 1193 H 117.431 -1.03754 -1.20087 0
M  V30 1194 H 117.452 -0.226493 -3.79825 0
M  V30 1195 H 116.964 -1.99057 -3.33164 0
M  V30 1196 H 115.065 0.447674 -3.69901 0
M  V30 1197 H 115.178 -1.18327 -4.64258 0
M  V30 1198 H 113.542 -0.534834 -2.49021 0
M  V30 1199 H 114.325 -2.19992 -2.6355 0
M  V30 1200 N 116.77 1.45427 -0.607355 0
M  V30 1201 C 117.7 2.3329 0.0989352 0
M  V30 1202 C 118.681 1.46816 0.859007 0
M  V30 1203 O 119.866 1.75588 0.829604 0
M  V30 1204 C 116.996 3.29518 1.09705 0
M  V30 1205 C 115.95 4.25626 0.450206 0
M  V30 1206 C 115.276 5.11542 1.55655 0
M  V30 1207 C 116.576 5.18505 -0.628455 0
M  V30 1208 H 118.27 2.92595 -0.634716 0
M  V30 1209 H 115.816 1.40696 -0.306681 0
M  V30 1210 H 117.769 3.89855 1.59971 0
M  V30 1211 H 116.493 2.68372 1.86129 0
M  V30 1212 H 115.152 3.66586 -0.0315886 0
M  V30 1213 H 114.8 4.46765 2.31107 0
M  V30 1214 H 114.5 5.76647 1.12925 0
M  V30 1215 H 116.024 5.74748 2.06148 0
M  V30 1216 H 117.438 5.72916 -0.209877 0
M  V30 1217 H 115.835 5.92085 -0.977489 0
M  V30 1218 H 116.905 4.60948 -1.50514 0
M  V30 1219 N 118.248 0.346503 1.53744 0
M  V30 1220 C 119.178 -0.501193 2.28058 0
M  V30 1221 C 120.159 -1.10014 1.29734 0
M  V30 1222 O 121.344 -1.12097 1.58581 0
M  V30 1223 C 118.474 -1.65078 3.05559 0
M  V30 1224 C 117.428 -1.18003 4.11411 0
M  V30 1225 C 116.754 -2.41837 4.76884 0
M  V30 1226 C 118.054 -0.278394 5.21558 0
M  V30 1227 H 119.748 0.11875 2.99164 0
M  V30 1228 H 117.294 0.0585531 1.43881 0
M  V30 1229 H 119.247 -2.25028 3.56287 0
M  V30 1230 H 117.971 -2.29767 2.32109 0
M  V30 1231 H 116.63 -0.603331 3.61601 0
M  V30 1232 H 116.278 -3.0494 4.00026 0
M  V30 1233 H 115.978 -2.1102 5.48402 0
M  V30 1234 H 117.502 -3.02508 5.30397 0
M  V30 1235 H 118.916 -0.784823 5.67903 0
M  V30 1236 H 117.313 -0.0619707 6.00068 0
M  V30 1237 H 118.383 0.684677 4.80042 0
M  V30 1238 N 119.726 -1.57421 0.075193 0
M  V30 1239 C 120.954 -1.97946 -0.602076 0
M  V30 1240 C 121.369 -0.953674 -1.62943 0
M  V30 1241 O 120.726 0.0592551 -1.82404 0
M  V30 1242 C 120.777 -3.38546 -1.26762 0
M  V30 1243 O 120.498 -4.37195 -0.281376 0
M  V30 1244 C 121.999 -3.93966 -2.03239 0
M  V30 1245 H 119.219 -0.650918 -0.162931 0
M  V30 1246 H 121.763 -2.03959 0.148601 0
M  V30 1247 H 119.918 -3.33609 -1.96936 0
M  V30 1248 H 120.332 -5.18975 -0.759267 0
M  V30 1249 H 121.806 -4.94555 -2.45193 0
M  V30 1250 H 122.283 -3.30693 -2.8903 0
M  V30 1251 H 122.889 -4.02315 -1.37924 0
M  V30 1252 N 121.204 0.198386 -1.56346 0
M  V30 1253 C 122.615 0.763358 -1.70381 0
M  V30 1254 C 122.966 1.83995 -0.681203 0
M  V30 1255 O 122.091 2.15785 0.16305 0
M  V30 1256 C 122.686 1.39143 -3.08909 0
M  V30 1257 C 121.245 1.90352 -3.2472 0
M  V30 1258 C 120.392 0.772233 -2.6633 0
M  V30 1259 H 123.343 -0.0266377 -1.58678 0
M  V30 1260 H 123.364 2.26076 -3.06055 0
M  V30 1261 H 122.876 0.607638 -3.83314 0
M  V30 1262 H 120.977 2.71461 -2.55225 0
M  V30 1263 H 121.09 2.06757 -4.3219 0
M  V30 1264 H 119.454 1.18566 -2.2542 0
M  V30 1265 H 120.237 0.00073556 -3.433 0
M  V30 1266 N 122.682 1.50554 0.465978 0
M  V30 1267 C 123.592 1.72585 1.58907 0
M  V30 1268 C 124.608 0.60911 1.6299 0
M  V30 1269 O 125.784 0.88804 1.80765 0
M  V30 1270 C 122.849 1.81995 2.95091 0
M  V30 1271 C 121.91 3.05751 3.01355 0
M  V30 1272 C 121.143 3.14702 4.31043 0
M  V30 1273 O 121.366 2.30313 5.21835 0
M  V30 1274 O 120.3 4.07468 4.43005 0
M  V30 1275 H 124.126 2.67799 1.43239 0
M  V30 1276 H 121.711 1.34711 0.646013 0
M  V30 1277 H 123.593 1.90335 3.75966 0
M  V30 1278 H 122.268 0.899659 3.10947 0
M  V30 1279 H 121.175 3.02908 2.19539 0
M  V30 1280 H 122.508 3.97375 2.90437 0
M  V30 1281 N 124.16 -0.719506 1.40217 0
M  V30 1282 C 125.107 -1.83359 1.40172 0
M  V30 1283 C 126.077 -1.64065 0.259206 0
M  V30 1284 O 127.262 -1.85254 0.456677 0
M  V30 1285 C 124.402 -3.2103 1.26624 0
M  V30 1286 C 123.515 -3.51923 2.50548 0
M  V30 1287 C 122.65 -4.79079 2.29471 0
M  V30 1288 C 121.689 -5.02863 3.48992 0
M  V30 1289 N 120.826 -6.2123 3.27135 0
M  V30 1290 H 125.666 -1.82733 2.35399 0
M  V30 1291 H 123.203 -0.892688 1.16917 0
M  V30 1292 H 125.161 -4.00524 1.16776 0
M  V30 1293 H 123.791 -3.20895 0.350176 0
M  V30 1294 H 122.843 -2.67014 2.70939 0
M  V30 1295 H 124.155 -3.6541 3.39525 0
M  V30 1296 H 123.309 -5.66582 2.16955 0
M  V30 1297 H 122.048 -4.67794 1.37913 0
M  V30 1298 H 121.053 -4.13816 3.6199 0
M  V30 1299 H 122.278 -5.16023 4.41472 0
M  V30 1300 H 120.224 -6.11204 2.38256 0
M  V30 1301 H 120.141 -6.35375 4.09675 0
M  V30 1302 H 121.409 -7.11532 3.18344 0
M  V30 1303 N 125.638 -1.25649 -0.95132 0
M  V30 1304 C 126.601 -1.06399 -2.03007 0
M  V30 1305 C 127.601 -0.0156794 -1.60792 0
M  V30 1306 O 128.791 -0.25817 -1.72276 0
M  V30 1307 C 125.923 -0.616184 -3.35285 0
M  V30 1308 H 127.116 -2.02164 -2.21517 0
M  V30 1309 H 124.669 -1.08103 -1.12887 0
M  V30 1310 H 125.404 0.343917 -3.22471 0
M  V30 1311 H 125.189 -1.37301 -3.67275 0
M  V30 1312 H 126.679 -0.503032 -4.14559 0
M  V30 1313 N 127.117 1.15442 -1.07289 0
M  V30 1314 C 128.366 1.85557 -0.790669 0
M  V30 1315 C 128.679 1.83186 0.685739 0
M  V30 1316 O 129.885 2.48977 1.0827 0
M  V30 1317 C 128.341 3.33038 -1.36433 0
M  V30 1318 C 127.949 3.43856 -2.8717 0
M  V30 1319 C 129.693 4.0834 -1.1601 0
M  V30 1320 C 127.6 4.85482 -3.3773 0
M  V30 1321 H 126.53 0.695122 -0.292098 0
M  V30 1322 H 129.181 1.30219 -1.29287 0
M  V30 1323 H 127.563 3.88043 -0.789864 0
M  V30 1324 H 128.737 2.98961 -3.50655 0
M  V30 1325 H 127.052 2.81998 -3.06376 0
M  V30 1326 H 129.649 5.12859 -1.51262 0
M  V30 1327 H 129.992 4.16182 -0.0991007 0
M  V30 1328 H 130.525 3.59603 -1.70089 0
M  V30 1329 H 127.264 4.82823 -4.43353 0
M  V30 1330 H 126.784 5.30961 -2.78999 0
M  V30 1331 H 128.463 5.54335 -3.33648 0
M  V30 1332 N 128.595 0.856903 1.32268 0
M  V30 1333 C 129.505 0.306131 2.32594 0
M  V30 1334 C 130.521 -0.577209 1.64147 0
M  V30 1335 O 131.697 -0.477043 1.95669 0
M  V30 1336 C 128.762 -0.494561 3.43154 0
M  V30 1337 C 127.823 0.415186 4.27288 0
M  V30 1338 C 127.056 -0.347387 5.32568 0
M  V30 1339 O 127.279 -1.57708 5.48165 0
M  V30 1340 O 126.213 0.287982 6.01211 0
M  V30 1341 H 130.039 1.13737 2.81598 0
M  V30 1342 H 127.624 0.619902 1.35932 0
M  V30 1343 H 129.506 -0.948944 4.10576 0
M  V30 1344 H 128.181 -1.30257 2.96336 0
M  V30 1345 H 127.088 0.917793 3.62667 0
M  V30 1346 H 128.421 1.18844 4.77637 0
M  V30 1347 N 130.073 -1.45103 0.615059 0
M  V30 1348 C 131.003 -2.33339 -0.0865619 0
M  V30 1349 C 131.984 -1.4727 -0.851209 0
M  V30 1350 O 133.169 -1.76026 -0.820281 0
M  V30 1351 C 130.299 -3.30095 -1.07956 0
M  V30 1352 C 129.253 -4.25858 -0.427628 0
M  V30 1353 C 128.579 -5.12361 -1.5294 0
M  V30 1354 C 129.879 -5.18165 0.655944 0
M  V30 1355 H 131.573 -2.92254 0.650224 0
M  V30 1356 H 129.119 -1.40532 0.314138 0
M  V30 1357 H 131.072 -3.90698 -1.57901 0
M  V30 1358 H 129.796 -2.69355 -1.84703 0
M  V30 1359 H 128.455 -3.66564 0.0510292 0
M  V30 1360 H 128.103 -4.47984 -2.28734 0
M  V30 1361 H 127.803 -5.77238 -1.09865 0
M  V30 1362 H 129.327 -5.75833 -2.03098 0
M  V30 1363 H 130.741 -5.72796 0.240257 0
M  V30 1364 H 129.138 -5.91559 1.00888 0
M  V30 1365 H 130.208 -4.60144 1.52957 0
M  V30 1366 N 131.551 -0.354651 -1.53558 0
M  V30 1367 C 132.481 0.489091 -2.2832 0
M  V30 1368 C 133.462 1.09324 -1.30316 0
M  V30 1369 O 134.647 1.11255 -1.59173 0
M  V30 1370 C 131.777 1.63456 -3.0643 0
M  V30 1371 C 130.731 1.1582 -4.12031 0
M  V30 1372 C 130.057 2.39305 -4.7816 0
M  V30 1373 C 131.357 0.250731 -5.21698 0
M  V30 1374 H 133.051 -0.134614 -2.99097 0
M  V30 1375 H 130.597 -0.0661826 -1.43848 0
M  V30 1376 H 132.55 2.23136 -3.57475 0
M  V30 1377 H 131.274 2.28533 -2.33325 0
M  V30 1378 H 129.933 0.584146 -3.61916 0
M  V30 1379 H 129.581 3.02814 -4.01637 0
M  V30 1380 H 129.281 2.08109 -5.49513 0
M  V30 1381 H 130.805 2.99691 -5.31994 0
M  V30 1382 H 132.219 0.754695 -5.68311 0
M  V30 1383 H 130.616 0.0301468 -6.00092 0
M  V30 1384 H 131.686 -0.710125 -4.79672 0
M  V30 1385 N 133.029 1.57378 -0.0835403 0
M  V30 1386 C 134.277 1.93547 0.581718 0
M  V30 1387 C 134.598 0.96524 1.69435 0
M  V30 1388 O 133.868 0.0153369 1.95894 0
M  V30 1389 H 132.448 0.714521 0.217874 0
M  V30 1390 H 135.11 1.94366 -0.144158 0
M  V30 1391 H 134.206 2.95665 0.999423 0
M  V30 1392 N 134.507 -0.190092 1.56449 0
M  V30 1393 C 135.735 -0.925772 1.85033 0
M  V30 1394 C 136.15 -1.76638 0.666658 0
M  V30 1395 O 135.507 -1.78822 -0.364565 0
M  V30 1396 C 135.558 -1.81786 3.12468 0
M  V30 1397 O 135.279 -1.01118 4.26271 0
M  V30 1398 C 136.78 -2.6648 3.54265 0
M  V30 1399 H 134 -0.269872 0.614337 0
M  V30 1400 H 136.544 -0.195837 2.0356 0
M  V30 1401 H 134.699 -2.50136 2.95822 0
M  V30 1402 H 135.113 -1.61956 4.98869 0
M  V30 1403 H 136.587 -3.24722 4.46385 0
M  V30 1404 H 137.064 -3.40434 2.77491 0
M  V30 1405 H 137.67 -2.03493 3.73458 0
M  V30 1406 N 135.985 -1.50799 -0.457987 0
M  V30 1407 C 136.918 -1.65273 -1.57353 0
M  V30 1408 C 137.896 -0.500578 -1.54703 0
M  V30 1409 O 139.08 -0.721781 -1.74134 0
M  V30 1410 C 136.207 -1.64737 -2.95938 0
M  V30 1411 C 135.253 -2.8567 -3.16693 0
M  V30 1412 S 136.086 -4.46791 -2.95191 0
M  V30 1413 C 137.242 -4.48968 -4.36095 0
M  V30 1414 H 137.475 -2.59633 -1.44838 0
M  V30 1415 H 135.008 -1.40225 -0.64625 0
M  V30 1416 H 136.966 -1.65112 -3.7583 0
M  V30 1417 H 135.627 -0.715899 -3.05833 0
M  V30 1418 H 134.82 -2.81637 -4.17967 0
M  V30 1419 H 134.422 -2.8293 -2.44594 0
M  V30 1420 H 136.714 -4.23337 -5.28954 0
M  V30 1421 H 137.657 -5.50664 -4.45168 0
M  V30 1422 H 138.065 -3.78522 -4.18786 0
M  V30 1423 N 137.463 0.71206 -1.40597 0
M  V30 1424 C 138.395 1.83704 -1.37061 0
M  V30 1425 C 139.408 1.60453 -0.275426 0
M  V30 1426 O 140.597 1.70262 -0.53602 0
M  V30 1427 C 137.697 3.20172 -1.11099 0
M  V30 1428 C 136.87 3.7059 -2.3234 0
M  V30 1429 C 135.929 4.85681 -2.02485 0
M  V30 1430 O 134.955 4.9815 -2.75382 0
M  V30 1431 N 136.157 5.71735 -1.00497 0
M  V30 1432 H 138.922 1.87235 -2.34016 0
M  V30 1433 H 136.483 0.893739 -1.34996 0
M  V30 1434 H 138.475 3.94768 -0.891064 0
M  V30 1435 H 137.045 3.11767 -0.227989 0
M  V30 1436 H 136.265 2.87085 -2.7014 0
M  V30 1437 H 137.553 4.01011 -3.13157 0
M  V30 1438 H 136.951 5.64275 -0.401298 0
M  V30 1439 H 135.508 6.463 -0.844942 0
M  V30 1440 N 138.941 1.26152 0.944643 0
M  V30 1441 C 140.189 1.11271 1.6871 0
M  V30 1442 C 140.51 -0.345166 1.91921 0
M  V30 1443 O 139.78 -1.24387 1.51343 0
M  V30 1444 H 138.36 0.408783 0.625224 0
M  V30 1445 H 141.022 1.58427 1.1352 0
M  V30 1446 H 140.118 1.62879 2.66227 0
M  V30 1447 N 140.419 -1.14872 1.07899 0
M  V30 1448 C 141.667 -1.85422 0.803941 0
M  V30 1449 C 141.988 -1.83051 -0.67211 0
M  V30 1450 O 141.258 -1.27532 -1.48703 0
M  V30 1451 H 139.838 -0.686537 0.294408 0
M  V30 1452 H 142.5 -1.39226 1.3639 0
M  V30 1453 H 141.596 -2.90399 1.14346 0
M  V30 1454 N 141.898 -0.863906 -1.31812 0
M  V30 1455 C 143.128 -0.485406 -2.00817 0
M  V30 1456 C 143.536 0.925007 -1.65046 0
M  V30 1457 O 142.879 1.61653 -0.872574 0
M  V30 1458 C 142.941 -0.555589 -3.55181 0
M  V30 1459 C 142.605 -1.92654 -4.14407 0
M  V30 1460 C 143.602 -2.89324 -4.31958 0
M  V30 1461 C 141.287 -2.2262 -4.50273 0
M  V30 1462 C 143.281 -4.14108 -4.84555 0
M  V30 1463 C 140.968 -3.47654 -5.02573 0
M  V30 1464 C 141.966 -4.43214 -5.19664 0
M  V30 1465 O 141.654 -5.66033 -5.70843 0
M  V30 1466 H 141.386 -0.188224 -0.649267 0
M  V30 1467 H 143.94 -1.16514 -1.69156 0
M  V30 1468 H 142.17 0.181037 -3.86276 0
M  V30 1469 H 143.859 -0.19138 -4.05449 0
M  V30 1470 H 144.625 -2.6748 -4.04573 0
M  V30 1471 H 140.504 -1.4902 -4.3625 0
M  V30 1472 H 144.048 -4.88703 -4.9781 0
M  V30 1473 H 139.945 -3.69345 -5.29391 0
M  V30 1474 H 140.713 -5.6812 -5.89222 0
M  V30 1475 N 143.376 1.44774 -0.622745 0
M  V30 1476 C 144.324 2.32387 0.0994683 0
M  V30 1477 C 145.318 1.46859 0.844326 0
M  V30 1478 O 146.524 1.63254 0.758174 0
M  V30 1479 H 142.899 0.750273 0.0509291 0
M  V30 1480 H 144.87 2.91062 -0.65767 0
M  V30 1481 C 143.619 3.30723 1.07319 0
M  V30 1482 H 142.942 3.96541 0.509462 0
M  V30 1483 H 144.382 3.94725 1.54817 0
M  V30 1484 C 142.841 2.59021 2.15429 0
M  V30 1485 O 143.371 2.38286 3.23393 0
M  V30 1486 N 141.577 2.189 1.91131 0
M  V30 1487 H 141.124 2.35964 1.03337 0
M  V30 1488 H 141.082 1.71251 2.63668 0
M  V30 1489 N 144.854 0.36279 1.53368 0
M  V30 1490 C 146.103 -0.22888 2.00397 0
M  V30 1491 C 146.416 -1.50096 1.25421 0
M  V30 1492 O 147.622 -2.17106 1.63025 0
M  V30 1493 C 146.078 -0.458417 3.56969 0
M  V30 1494 C 145.686 0.798877 4.4082 0
M  V30 1495 C 147.43 -1.00789 4.12361 0
M  V30 1496 C 145.337 0.539078 5.88938 0
M  V30 1497 H 144.267 -0.089305 0.748693 0
M  V30 1498 H 146.918 0.481099 1.77081 0
M  V30 1499 H 145.3 -1.22959 3.76427 0
M  V30 1500 H 146.474 1.57262 4.33134 0
M  V30 1501 H 144.789 1.27137 3.96516 0
M  V30 1502 H 147.386 -1.21754 5.20653 0
M  V30 1503 H 147.729 -1.9692 3.66781 0
M  V30 1504 H 148.262 -0.296961 3.9669 0
M  V30 1505 H 145.001 1.47064 6.3879 0
M  V30 1506 H 144.521 -0.196222 5.99479 0
M  V30 1507 H 146.2 0.163542 6.46793 0
M  V30 1508 N 146.332 -1.57332 0.0918853 0
M  V30 1509 C 147.282 -2.10385 -0.87876 0
M  V30 1510 C 148.266 -1.01814 -1.24591 0
M  V30 1511 O 149.458 -1.28093 -1.22152 0
M  V30 1512 C 146.587 -2.68517 -2.13901 0
M  V30 1513 C 145.673 -3.84126 -1.79744 0
M  V30 1514 N 146.064 -4.92288 -1.1613 0
M  V30 1515 C 144.362 -3.93801 -2.09373 0
M  V30 1516 C 145.063 -5.7295 -1.00513 0
M  V30 1517 N 144.039 -5.21876 -1.5214 0
M  V30 1518 H 147.841 -2.91395 -0.38293 0
M  V30 1519 H 145.355 -1.62017 -0.111423 0
M  V30 1520 H 147.352 -3.04852 -2.84378 0
M  V30 1521 H 146.012 -1.88961 -2.64053 0
M  V30 1522 H 147.023 -5.1123 -0.828504 0
M  V30 1523 H 143.7 -3.25249 -2.61762 0
M  V30 1524 H 145.09 -6.69978 -0.507902 0
M  V30 1525 N 147.81 0.181792 -1.56548 0
M  V30 1526 C 149.221 0.745244 -1.71181 0
M  V30 1527 C 149.572 1.83262 -0.70068 0
M  V30 1528 O 148.697 2.15946 0.140154 0
M  V30 1529 C 149.292 1.35859 -3.10367 0
M  V30 1530 C 147.851 1.86898 -3.2672 0
M  V30 1531 C 146.998 0.743942 -2.67134 0
M  V30 1532 H 149.949 -0.0434661 -1.5864 0
M  V30 1533 H 149.97 2.22817 -3.08436 0
M  V30 1534 H 149.482 0.566948 -3.83937 0
M  V30 1535 H 147.583 2.68738 -2.5809 0
M  V30 1536 H 147.696 2.02162 -4.34359 0
M  V30 1537 H 146.06 1.16169 -2.26665 0
M  V30 1538 H 146.843 -0.035676 -3.43281 0
M  V30 1539 N 149.288 1.51039 0.449983 0
M  V30 1540 C 150.218 1.74379 1.55288 0
M  V30 1541 C 151.199 0.593236 1.5942 0
M  V30 1542 O 152.384 0.834625 1.7535 0
M  V30 1543 C 149.514 1.85728 2.93466 0
M  V30 1544 C 148.468 3.01078 3.04197 0
M  V30 1545 C 147.794 2.97595 4.44231 0
M  V30 1546 C 149.094 4.41254 2.7945 0
M  V30 1547 H 150.788 2.66725 1.36008 0
M  V30 1548 H 148.334 1.2835 0.652864 0
M  V30 1549 H 150.287 2.0064 3.70569 0
M  V30 1550 H 149.011 0.900207 3.13949 0
M  V30 1551 H 147.67 2.85851 2.29531 0
M  V30 1552 H 147.318 1.99691 4.61663 0
M  V30 1553 H 147.018 3.75046 4.52343 0
M  V30 1554 H 148.542 3.14583 5.23326 0
M  V30 1555 H 149.956 4.56897 3.46292 0
M  V30 1556 H 148.353 5.20315 2.98985 0
M  V30 1557 H 149.423 4.52164 1.75144 0
M  V30 1558 N 150.766 -0.704594 1.40972 0
M  V30 1559 C 152.015 -1.46018 1.39146 0
M  V30 1560 C 152.328 -1.956 0.000589254 0
M  V30 1561 O 153.534 -2.71137 -0.1403 0
M  V30 1562 C 151.99 -2.63996 2.4461 0
M  V30 1563 C 151.598 -2.21238 3.89561 0
M  V30 1564 C 153.342 -3.41677 2.51907 0
M  V30 1565 C 151.249 -3.3612 4.86598 0
M  V30 1566 H 150.179 -0.548444 0.517422 0
M  V30 1567 H 152.83 -0.765784 1.66757 0
M  V30 1568 H 151.212 -3.3566 2.10115 0
M  V30 1569 H 152.386 -1.56923 4.33257 0
M  V30 1570 H 150.701 -1.56574 3.85841 0
M  V30 1571 H 153.298 -4.27182 3.2159 0
M  V30 1572 H 153.641 -3.86247 1.55303 0
M  V30 1573 H 154.174 -2.77064 2.85448 0
M  V30 1574 H 150.913 -2.96572 5.84573 0
M  V30 1575 H 150.433 -3.99315 4.47557 0
M  V30 1576 H 152.112 -4.02029 5.06934 0
M  V30 1577 N 152.244 -1.26651 -0.937939 0
M  V30 1578 C 153.521 -1.0313 -1.66204 0
M  V30 1579 C 153.901 0.437256 -2.06522 0
M  V30 1580 O 153.249 1.41831 -1.79154 0
M  V30 1581 C 153.459 -1.98314 -2.87181 0
M  V30 1582 C 154.807 -2.27107 -3.58758 0
M  V30 1583 O 155.831 -1.96205 -2.97291 0
M  V30 1584 O 154.69 -2.79736 -4.69479 0
M  V30 1585 H 151.784 -0.392384 -0.727986 0
M  V30 1586 H 154.33 -1.37874 -0.989382 0
M  V30 1587 H 153.102 -2.97399 -2.54302 0
M  V30 1588 H 152.725 -1.64068 -3.6217 0
M  V30 1589 N 153.722 1.14298 -1.08507 0
M  V30 1590 C 154.685 2.17607 -0.719711 0
M  V30 1591 C 155.685 1.58907 0.245997 0
M  V30 1592 O 156.875 1.74181 0.0254081 0
M  V30 1593 C 154.007 3.40842 -0.0627695 0
M  V30 1594 H 155.2 2.51443 -1.63452 0
M  V30 1595 H 152.753 1.28963 -0.88307 0
M  V30 1596 H 153.488 3.12587 0.863716 0
M  V30 1597 H 153.273 3.84713 -0.757504 0
M  V30 1598 H 154.763 4.17221 0.177786 0
M  V30 1599 N 155.201 0.870884 1.31352 0
M  V30 1600 C 156.131 0.343096 2.30966 0
M  V30 1601 C 157.112 -0.566507 1.60389 0
M  V30 1602 O 158.297 -0.483336 1.88089 0
M  V30 1603 C 155.427 -0.455487 3.443 0
M  V30 1604 C 154.381 0.361103 4.26474 0
M  V30 1605 C 153.707 -0.563221 5.31725 0
M  V30 1606 C 155.007 1.59566 4.97329 0
M  V30 1607 H 156.701 1.17548 2.75359 0
M  V30 1608 H 154.247 0.566686 1.32381 0
M  V30 1609 H 156.2 -0.83525 4.13039 0
M  V30 1610 H 154.924 -1.32139 2.98675 0
M  V30 1611 H 153.583 0.722825 3.59403 0
M  V30 1612 H 153.231 -1.42643 4.82351 0
M  V30 1613 H 152.931 -0.0207409 5.87596 0
M  V30 1614 H 154.455 -0.939808 6.03324 0
M  V30 1615 H 155.869 1.28728 5.58661 0
M  V30 1616 H 154.266 2.07728 5.63 0
M  V30 1617 H 155.336 2.34798 4.24262 0
M  V30 1618 N 156.679 -1.44442 0.630414 0
M  V30 1619 C 157.956 -1.9549 0.0655657 0
M  V30 1620 C 158.336 -1.5724 -1.40851 0
M  V30 1621 O 157.684 -0.846116 -2.12257 0
M  V30 1622 C 157.894 -3.47812 0.287691 0
M  V30 1623 C 159.242 -4.24216 0.180513 0
M  V30 1624 O 160.266 -3.55526 0.219019 0
M  V30 1625 O 159.125 -5.46434 0.0848493 0
M  V30 1626 H 156.219 -0.826688 -0.0227177 0
M  V30 1627 H 158.765 -1.54496 0.702068 0
M  V30 1628 H 157.537 -3.687 1.31056 0
M  V30 1629 H 157.16 -3.95751 -0.382984 0
M  V30 1630 N 158.157 -0.370918 -1.53173 0
M  V30 1631 C 159.434 0.273754 -1.93675 0
M  V30 1632 C 159.814 1.65938 -1.3049 0
M  V30 1633 O 159.162 2.23698 -0.465999 0
M  V30 1634 C 159.372 0.318602 -3.47543 0
M  V30 1635 C 160.72 0.556392 -4.20939 0
M  V30 1636 O 161.744 0.399587 -3.53952 0
M  V30 1637 O 160.603 0.862133 -5.39657 0
M  V30 1638 H 157.697 0.165448 -0.810281 0
M  V30 1639 H 160.243 -0.42409 -1.64315 0
M  V30 1640 H 159.015 -0.652687 -3.85818 0
M  V30 1641 H 158.638 1.06212 -3.83151 0
M  V30 1642 N 159.635 1.57281 -0.100228 0
M  V30 1643 C 160.598 2.13158 0.842398 0
M  V30 1644 C 161.598 1.06202 1.20738 0
M  V30 1645 O 162.788 1.32066 1.13597 0
M  V30 1646 C 159.92 2.65639 2.13655 0
M  V30 1647 H 161.113 2.97766 0.357114 0
M  V30 1648 H 158.666 1.5559 0.148823 0
M  V30 1649 H 159.401 1.84566 2.66657 0
M  V30 1650 H 159.186 3.43844 1.88451 0
M  V30 1651 H 160.676 3.08846 2.81077 0
M  V30 1652 N 161.113 -0.173488 1.56642 0
M  V30 1653 C 162.06 -1.21482 1.96242 0
M  V30 1654 C 163.03 -1.44104 0.826027 0
M  V30 1655 O 164.215 -1.5688 1.08597 0
M  V30 1656 C 161.355 -2.54964 2.32567 0
M  V30 1657 C 160.468 -2.39739 3.59373 0
M  V30 1658 C 159.603 -3.66072 3.84921 0
M  V30 1659 C 158.642 -3.45771 5.05083 0
M  V30 1660 N 157.779 -4.64169 5.26775 0
M  V30 1661 H 162.619 -0.870123 2.85014 0
M  V30 1662 H 160.156 -0.418245 1.41029 0
M  V30 1663 H 162.114 -3.32758 2.5165 0
M  V30 1664 H 160.744 -2.87433 1.46908 0
M  V30 1665 H 159.796 -1.53131 3.48217 0
M  V30 1666 H 161.108 -2.20683 4.47326 0
M  V30 1667 H 160.262 -4.52303 4.0436 0
M  V30 1668 H 159.001 -3.88105 2.9534 0
M  V30 1669 H 158.006 -2.57927 4.85545 0
M  V30 1670 H 159.231 -3.25163 5.96193 0
M  V30 1671 H 157.177 -4.86425 4.40144 0
M  V30 1672 H 157.094 -4.48019 6.08946 0
M  V30 1673 H 158.362 -5.51689 5.5069 0
M  V30 1674 N 162.591 -1.51276 -0.441967 0
M  V30 1675 C 163.521 -1.752 -1.54361 0
M  V30 1676 C 164.502 -0.601682 -1.59103 0
M  V30 1677 O 165.687 -0.843913 -1.74905 0
M  V30 1678 C 162.817 -1.87282 -2.92477 0
M  V30 1679 C 161.771 -3.02687 -3.02596 0
M  V30 1680 C 161.097 -2.99947 -4.42647 0
M  V30 1681 C 162.397 -4.4273 -2.77106 0
M  V30 1682 H 164.091 -2.67442 -1.34592 0
M  V30 1683 H 161.637 -1.28694 -0.646048 0
M  V30 1684 H 163.59 -2.02602 -3.695 0
M  V30 1685 H 162.314 -0.916844 -3.13467 0
M  V30 1686 H 160.973 -2.87065 -2.28012 0
M  V30 1687 H 160.621 -2.02136 -4.60597 0
M  V30 1688 H 160.321 -3.77439 -4.50348 0
M  V30 1689 H 161.845 -3.17354 -5.2165 0
M  V30 1690 H 163.259 -4.58727 -3.43864 0
M  V30 1691 H 161.656 -5.21893 -2.96222 0
M  V30 1692 H 162.726 -4.53087 -1.72744 0
M  V30 1693 N 164.069 0.697108 -1.41344 0
M  V30 1694 C 165.032 1.79281 -1.42797 0
M  V30 1695 C 166.032 1.57607 -0.318837 0
M  V30 1696 O 167.222 1.64309 -0.578642 0
M  V30 1697 C 164.354 3.17632 -1.23785 0
M  V30 1698 H 165.547 1.79385 -2.40335 0
M  V30 1699 H 163.1 0.904582 -1.27464 0
M  V30 1700 H 163.835 3.23167 -0.270814 0
M  V30 1701 H 163.62 3.34765 -2.04144 0
M  V30 1702 H 165.11 3.97617 -1.27633 0
M  V30 1703 N 165.547 1.27147 0.931209 0
M  V30 1704 C 166.958 1.12044 1.49342 0
M  V30 1705 C 167.309 -0.295795 1.93957 0
M  V30 1706 O 166.434 -1.18835 1.80852 0
M  V30 1707 C 167.029 2.02781 2.71414 0
M  V30 1708 C 165.588 1.91794 3.2387 0
M  V30 1709 C 164.735 1.95543 1.96617 0
M  V30 1710 H 167.686 1.40091 0.745672 0
M  V30 1711 H 167.707 1.58156 3.46074 0
M  V30 1712 H 167.219 3.05848 2.38911 0
M  V30 1713 H 165.32 0.916992 3.6114 0
M  V30 1714 H 165.433 2.77852 3.90302 0
M  V30 1715 H 163.797 1.39722 2.12955 0
M  V30 1716 H 164.58 3.00259 1.66432 0
M  V30 1717 N 167.025 -1.13721 1.09112 0
M  V30 1718 C 168.274 -1.84275 0.82009 0
M  V30 1719 C 168.587 -1.84253 -0.656509 0
M  V30 1720 O 169.793 -2.50668 -1.04296 0
M  V30 1721 C 168.249 -3.30825 1.41714 0
M  V30 1722 C 167.857 -3.39244 2.92605 0
M  V30 1723 C 169.601 -4.06443 1.22492 0
M  V30 1724 C 167.508 -4.80047 3.45411 0
M  V30 1725 H 166.438 -0.690387 0.30312 0
M  V30 1726 H 169.089 -1.28146 1.31343 0
M  V30 1727 H 167.471 -3.86737 0.851498 0
M  V30 1728 H 168.645 -2.93344 3.55367 0
M  V30 1729 H 166.96 -2.77088 3.10823 0
M  V30 1730 H 169.557 -5.10387 1.59402 0
M  V30 1731 H 169.9 -4.15972 0.165299 0
M  V30 1732 H 170.433 -3.56852 1.75788 0
M  V30 1733 H 167.172 -4.75709 4.50978 0
M  V30 1734 H 166.692 -5.26455 2.87411 0
M  V30 1735 H 168.371 -5.48957 3.42425 0
M  V30 1736 N 168.503 -0.877838 -1.30888 0
M  V30 1737 C 169.466 -0.344265 -2.266 0
M  V30 1738 C 170.466 0.50922 -1.52524 0
M  V30 1739 O 171.656 0.317398 -1.71284 0
M  V30 1740 C 168.788 0.510198 -3.37061 0
M  V30 1741 H 169.981 -1.1893 -2.7531 0
M  V30 1742 H 167.534 -0.654088 -1.41956 0
M  V30 1743 H 168.269 1.37612 -2.93655 0
M  V30 1744 H 168.054 -0.101047 -3.9197 0
M  V30 1745 H 169.544 0.875537 -4.08319 0
M  V30 1746 N 169.982 1.44106 -0.638065 0
M  V30 1747 C 170.945 2.29138 0.0531013 0
M  V30 1748 C 171.945 1.41409 0.765506 0
M  V30 1749 O 173.135 1.63206 0.609046 0
M  V30 1750 C 170.267 3.23144 1.08584 0
M  V30 1751 H 171.46 2.91739 -0.694883 0
M  V30 1752 H 169.013 1.51134 -0.398538 0
M  V30 1753 H 169.748 2.65408 1.86357 0
M  V30 1754 H 169.533 3.87804 0.578852 0
M  V30 1755 H 171.023 3.87004 1.56899 0
M  V30 1756 N 171.46 0.379036 1.52974 0
M  V30 1757 C 172.407 -0.461048 2.26148 0
M  V30 1758 C 173.377 -1.06637 1.27349 0
M  V30 1759 O 174.562 -1.09633 1.56157 0
M  V30 1760 C 171.702 -1.58782 3.06402 0
M  V30 1761 C 170.815 -1.00636 4.20115 0
M  V30 1762 C 169.95 -2.10334 4.87784 0
M  V30 1763 C 168.989 -1.49724 5.93506 0
M  V30 1764 N 168.126 -2.5331 6.54812 0
M  V30 1765 H 172.966 0.169429 2.97518 0
M  V30 1766 H 170.503 0.0953806 1.4679 0
M  V30 1767 H 172.461 -2.25174 3.51215 0
M  V30 1768 H 171.091 -2.18876 2.37261 0
M  V30 1769 H 170.143 -0.232332 3.7969 0
M  V30 1770 H 171.455 -0.523343 4.96047 0
M  V30 1771 H 170.609 -2.84519 5.35849 0
M  V30 1772 H 169.348 -2.61992 4.11353 0
M  V30 1773 H 168.353 -0.740598 5.44789 0
M  V30 1774 H 169.578 -0.988732 6.71864 0
M  V30 1775 H 167.524 -3.04156 5.81227 0
M  V30 1776 H 167.441 -2.09734 7.26325 0
M  V30 1777 H 168.709 -3.27155 7.07524 0
M  V30 1778 N 172.938 -1.57226 0.108567 0
M  V30 1779 C 173.901 -2.13602 -0.831082 0
M  V30 1780 C 174.901 -1.06841 -1.20173 0
M  V30 1781 O 176.091 -1.32666 -1.12895 0
M  V30 1782 C 173.223 -2.66769 -2.12243 0
M  V30 1783 H 174.416 -2.97951 -0.341317 0
M  V30 1784 H 171.969 -1.55667 -0.14057 0
M  V30 1785 H 172.704 -1.85977 -2.65675 0
M  V30 1786 H 172.489 -3.44839 -1.86625 0
M  V30 1787 H 173.979 -3.10332 -2.79435 0
M  V30 1788 N 174.416 0.165178 -1.56732 0
M  V30 1789 C 175.346 1.20651 -1.99914 0
M  V30 1790 C 176.327 1.45827 -0.875705 0
M  V30 1791 O 177.512 1.57057 -1.14223 0
M  V30 1792 C 174.642 2.54401 -2.36427 0
M  V30 1793 C 173.596 2.43782 -3.51787 0
M  V30 1794 C 172.922 3.82078 -3.7406 0
M  V30 1795 C 174.222 1.93732 -4.85041 0
M  V30 1796 H 175.916 0.847534 -2.87154 0
M  V30 1797 H 173.462 0.40625 -1.38151 0
M  V30 1798 H 175.415 3.27458 -2.65234 0
M  V30 1799 H 174.139 2.92098 -1.46103 0
M  V30 1800 H 172.798 1.73178 -3.23117 0
M  V30 1801 H 172.446 4.17179 -2.81017 0
M  V30 1802 H 172.146 3.7584 -4.51684 0
M  V30 1803 H 173.67 4.56712 -4.05274 0
M  V30 1804 H 175.084 2.56569 -5.12684 0
M  V30 1805 H 173.481 1.98428 -5.66345 0
M  V30 1806 H 174.551 0.891962 -4.76626 0
M  V30 1807 N 175.894 1.51508 0.433938 0
M  V30 1808 C 177.119 1.68443 1.21003 0
M  V30 1809 C 177.544 0.382636 1.84167 0
M  V30 1810 O 176.902 -0.65755 1.68956 0
M  V30 1811 C 176.95 2.80405 2.26727 0
M  V30 1812 O 176.054 2.44245 3.32292 0
M  V30 1813 H 175.395 0.561536 0.354363 0
M  V30 1814 H 177.925 1.9809 0.512024 0
M  V30 1815 H 177.935 3.0459 2.71457 0
M  V30 1816 H 176.61 3.74867 1.80132 0
M  V30 1817 H 175.187 2.30644 2.93015 0
M  V30 1818 N 177.372 -0.689602 1.41712 0
M  V30 1819 C 178.322 -1.79571 1.40493 0
M  V30 1820 C 179.306 -1.58473 0.278409 0
M  V30 1821 O 180.498 -1.69204 0.519532 0
M  V30 1822 C 177.627 -3.17923 1.29536 0
M  V30 1823 C 176.713 -3.44695 2.47075 0
M  V30 1824 N 177.104 -3.42132 3.72531 0
M  V30 1825 C 175.402 -3.75269 2.41017 0
M  V30 1826 C 176.103 -3.67976 4.50521 0
M  V30 1827 N 175.079 -3.88014 3.80718 0
M  V30 1828 H 178.881 -1.75961 2.35404 0
M  V30 1829 H 176.395 -0.889839 1.35851 0
M  V30 1830 H 178.392 -3.97167 1.26745 0
M  V30 1831 H 177.052 -3.22741 0.356153 0
M  V30 1832 H 178.063 -3.22375 4.05333 0
M  V30 1833 H 174.74 -3.87421 1.55599 0
M  V30 1834 H 176.13 -3.7208 5.59469 0
M  V30 1835 N 178.85 -1.27639 -0.924453 0
M  V30 1836 C 180.078 -1.16989 -1.70649 0
M  V30 1837 C 180.493 0.272869 -1.86818 0
M  V30 1838 O 179.85 1.18549 -1.38753 0
M  V30 1839 C 179.901 -1.85229 -3.10439 0
M  V30 1840 O 179.622 -3.23868 -2.95028 0
M  V30 1841 C 181.123 -1.80746 -4.04779 0
M  V30 1842 H 178.343 -0.406595 -0.53378 0
M  V30 1843 H 180.887 -1.68569 -1.15778 0
M  V30 1844 H 179.042 -1.37545 -3.6216 0
M  V30 1845 H 179.456 -3.57889 -3.83426 0
M  V30 1846 H 180.93 -2.33101 -5.00368 0
M  V30 1847 H 181.407 -0.777499 -4.32263 0
M  V30 1848 H 182.013 -2.28059 -3.58984 0
M  V30 1849 N 180.328 1.1314 -1.09713 0
M  V30 1850 C 181.258 2.20748 -0.761102 0
M  V30 1851 C 182.239 1.68061 0.262566 0
M  V30 1852 O 183.424 1.93765 0.129977 0
M  V30 1853 C 180.554 3.46812 -0.184054 0
M  V30 1854 C 179.508 4.12606 -1.13757 0
M  V30 1855 C 178.834 5.33031 -0.422083 0
M  V30 1856 C 180.134 4.59603 -2.48118 0
M  V30 1857 H 181.828 2.49113 -1.66082 0
M  V30 1858 H 179.374 1.19734 -0.799987 0
M  V30 1859 H 181.327 4.21353 0.0631215 0
M  V30 1860 H 180.051 3.17851 0.750868 0
M  V30 1861 H 178.71 3.40036 -1.37007 0
M  V30 1862 H 178.358 5.00335 0.517072 0
M  V30 1863 H 178.058 5.77999 -1.05788 0
M  V30 1864 H 179.582 6.10325 -0.183277 0
M  V30 1865 H 180.996 5.25552 -2.29059 0
M  V30 1866 H 179.393 5.15321 -3.07514 0
M  V30 1867 H 180.463 3.73971 -3.08665 0
M  V30 1868 N 181.806 0.884767 1.30421 0
M  V30 1869 C 182.736 0.367574 2.30589 0
M  V30 1870 C 183.717 -0.549464 1.60981 0
M  V30 1871 O 184.902 -0.46336 1.88591 0
M  V30 1872 C 182.032 -0.418944 3.44764 0
M  V30 1873 C 180.986 0.406316 4.26067 0
M  V30 1874 C 180.312 -0.506793 5.32293 0
M  V30 1875 C 181.612 1.64832 4.95608 0
M  V30 1876 H 183.306 1.20462 2.74097 0
M  V30 1877 H 180.852 0.580695 1.31772 0
M  V30 1878 H 182.805 -0.791395 4.13902 0
M  V30 1879 H 181.529 -1.28964 3.0006 0
M  V30 1880 H 180.188 0.760903 3.58617 0
M  V30 1881 H 179.836 -1.37519 4.83836 0
M  V30 1882 H 179.536 0.0415828 5.87585 0
M  V30 1883 H 181.06 -0.875764 6.04287 0
M  V30 1884 H 182.474 1.34646 5.57264 0
M  V30 1885 H 180.871 2.13688 5.60765 0
M  V30 1886 H 181.941 2.39284 4.21748 0
M  V30 1887 N 183.284 -1.43765 0.645699 0
M  V30 1888 C 184.217 -2.2798 -0.100072 0
M  V30 1889 C 185.195 -1.39391 -0.837194 0
M  V30 1890 O 186.379 -1.68833 -0.838306 0
M  V30 1891 C 183.506 -3.18643 -1.14823 0
M  V30 1892 C 182.552 -4.2344 -0.510009 0
M  V30 1893 S 183.385 -5.30761 0.710824 0
M  V30 1894 C 184.541 -6.24992 -0.33699 0
M  V30 1895 H 184.774 -2.90884 0.614322 0
M  V30 1896 H 182.307 -1.48166 0.434304 0
M  V30 1897 H 184.265 -3.71424 -1.74799 0
M  V30 1898 H 182.926 -2.54932 -1.8349 0
M  V30 1899 H 182.119 -4.86948 -1.29991 0
M  V30 1900 H 181.721 -3.73997 0.0154577 0
M  V30 1901 H 184.013 -6.66691 -1.20537 0
M  V30 1902 H 184.956 -7.07612 0.262879 0
M  V30 1903 H 185.364 -5.60517 -0.669425 0
M  V30 1904 N 184.763 -0.387143 -1.52771 0
M  V30 1905 C 186.01 0.195735 -2.01552 0
M  V30 1906 C 186.338 1.46995 -1.27369 0
M  V30 1907 O 185.593 1.92325 -0.361879 0
M  V30 1908 C 185.892 0.512209 -3.53711 0
M  V30 1909 C 185.558 -0.670202 -4.45891 0
M  V30 1910 C 184.22 -0.994586 -4.70809 0
M  V30 1911 C 186.572 -1.46134 -5.00294 0
M  V30 1912 C 183.9 -2.11169 -5.4738 0
M  V30 1913 C 186.252 -2.56903 -5.78086 0
M  V30 1914 C 184.916 -2.89852 -6.01284 0
M  V30 1915 H 184.186 0.0716246 -0.73753 0
M  V30 1916 H 186.833 -0.524046 -1.8419 0
M  V30 1917 H 185.138 1.31329 -3.69134 0
M  V30 1918 H 186.835 0.975804 -3.88946 0
M  V30 1919 H 183.425 -0.407366 -4.2666 0
M  V30 1920 H 187.609 -1.22397 -4.80971 0
M  V30 1921 H 182.865 -2.3707 -5.63567 0
M  V30 1922 H 187.039 -3.18608 -6.19243 0
M  V30 1923 H 184.666 -3.76533 -6.60399 0
M  V30 1924 N 186.241 1.57166 -0.116904 0
M  V30 1925 C 187.518 1.86645 0.585049 0
M  V30 1926 C 187.898 1.0177 1.84949 0
M  V30 1927 O 187.246 0.0960379 2.28298 0
M  V30 1928 C 187.456 3.37736 0.879507 0
M  V30 1929 C 188.804 4.06289 1.23348 0
M  V30 1930 O 189.828 3.42743 0.969836 0
M  V30 1931 O 188.687 5.18455 1.7282 0
M  V30 1932 H 185.781 0.772593 0.295007 0
M  V30 1933 H 188.327 1.69025 -0.151249 0
M  V30 1934 H 187.099 3.91296 -0.0166136 0
M  V30 1935 H 186.722 3.6078 1.67103 0
M  V30 1936 N 187.719 -0.156864 1.56817 0
M  V30 1937 C 188.667 -1.21319 1.98455 0
M  V30 1938 C 189.661 -1.45025 0.875444 0
M  V30 1939 O 190.867 -1.45435 1.0606 0
M  V30 1940 H 187.242 -0.408142 0.631605 0
M  V30 1941 H 189.213 -0.835244 2.86472 0
M  V30 1942 C 187.962 -2.54148 2.37285 0
M  V30 1943 H 187.285 -2.36733 3.22176 0
M  V30 1944 H 188.725 -3.26712 2.70251 0
M  V30 1945 C 187.184 -3.13967 1.22173 0
M  V30 1946 O 187.714 -3.98357 0.517149 0
M  V30 1947 N 185.92 -2.7327 0.988536 0
M  V30 1948 H 185.467 -2.04744 1.56326 0
M  V30 1949 H 185.425 -3.13628 0.220209 0
M  V30 1950 N 189.197 -1.51736 -0.425897 0
M  V30 1951 C 190.444 -1.6497 -1.17436 0
M  V30 1952 C 190.772 -0.371445 -1.9092 0
M  V30 1953 O 190.027 0.644963 -1.84767 0
M  V30 1954 C 190.326 -2.81103 -2.20717 0
M  V30 1955 C 189.992 -4.19954 -1.64162 0
M  V30 1956 C 188.654 -4.57725 -1.48462 0
M  V30 1957 C 191.006 -5.06552 -1.22696 0
M  V30 1958 C 188.334 -5.79789 -0.897873 0
M  V30 1959 C 190.686 -6.29205 -0.654464 0
M  V30 1960 C 189.35 -6.6574 -0.484456 0
M  V30 1961 H 188.62 -0.603668 -0.429727 0
M  V30 1962 H 191.267 -1.85798 -0.463829 0
M  V30 1963 H 189.572 -2.54542 -2.97852 0
M  V30 1964 H 191.269 -2.8854 -2.78471 0
M  V30 1965 H 187.859 -3.90181 -1.77361 0
M  V30 1966 H 192.043 -4.77968 -1.33642 0
M  V30 1967 H 187.299 -6.06733 -0.75402 0
M  V30 1968 H 191.473 -6.95643 -0.324694 0
M  V30 1969 H 189.1 -7.60195 -0.0276833 0
M  V30 1970 N 190.675 0.682077 -1.42076 0
M  V30 1971 C 191.905 1.46844 -1.45329 0
M  V30 1972 C 192.313 1.89102 -0.0609328 0
M  V30 1973 O 191.656 1.58238 0.933082 0
M  V30 1974 C 191.718 2.75375 -2.31104 0
M  V30 1975 C 191.382 2.55238 -3.79081 0
M  V30 1976 C 192.379 2.20309 -4.70914 0
M  V30 1977 C 190.064 2.70459 -4.2327 0
M  V30 1978 C 192.058 2.00859 -6.04925 0
M  V30 1979 C 189.745 2.50624 -5.57343 0
M  V30 1980 C 190.743 2.15876 -6.47986 0
M  V30 1981 O 190.431 1.96227 -7.79583 0
M  V30 1982 H 190.163 0.4586 -0.496651 0
M  V30 1983 H 192.717 0.846131 -1.87162 0
M  V30 1984 H 190.947 3.40061 -1.84107 0
M  V30 1985 H 192.636 3.37231 -2.25898 0
M  V30 1986 H 193.402 2.08153 -4.38061 0
M  V30 1987 H 189.281 2.96485 -3.53012 0
M  V30 1988 H 192.825 1.7366 -6.75639 0
M  V30 1989 H 188.722 2.62375 -5.89771 0
M  V30 1990 H 189.49 2.10883 -7.90867 0
M  V30 1991 N 192.153 1.28127 0.917671 0
M  V30 1992 C 193.43 1.05761 1.64542 0
M  V30 1993 C 193.81 -0.404344 2.07191 0
M  V30 1994 O 193.158 -1.38963 1.81388 0
M  V30 1995 C 193.368 2.02857 2.83989 0
M  V30 1996 C 194.716 2.32786 3.551 0
M  V30 1997 O 195.74 2.0091 2.94132 0
M  V30 1998 O 194.599 2.87169 4.64969 0
M  V30 1999 H 191.693 0.403916 0.721652 0
M  V30 2000 H 194.239 1.39431 0.967322 0
M  V30 2001 H 193.011 3.01407 2.49538 0
M  V30 2002 H 192.634 1.69809 3.59514 0
M  V30 2003 N 193.631 -1.12557 1.10312 0
M  V30 2004 C 194.877 -1.84311 0.846011 0
M  V30 2005 C 195.21 -1.83805 -0.626859 0
M  V30 2006 O 194.485 -1.28268 -1.46211 0
M  V30 2007 C 194.768 -3.32048 1.39341 0
M  V30 2008 C 194.621 -3.41016 2.93305 0
M  V30 2009 C 195.94 -4.27764 1.03468 0
M  V30 2010 H 193.059 -0.669192 0.30879 0
M  V30 2011 H 195.701 -1.32057 1.36605 0
M  V30 2012 H 193.851 -3.76678 0.951087 0
M  V30 2013 H 195.523 -3.05031 3.46055 0
M  V30 2014 H 193.766 -2.81603 3.29973 0
M  V30 2015 H 194.437 -4.44948 3.26689 0
M  V30 2016 H 196.913 -3.91253 1.41633 0
M  V30 2017 H 195.789 -5.29549 1.44463 0
M  V30 2018 H 196.05 -4.42064 -0.0560404 0
M  V30 2019 N 195.109 -0.891671 -1.2995 0
M  V30 2020 C 196.019 -0.367691 -2.31701 0
M  V30 2021 C 197.035 0.533486 -1.6562 0
M  V30 2022 O 198.211 0.424997 -1.96865 0
M  V30 2023 C 195.276 0.403406 -3.44345 0
M  V30 2024 C 194.337 -0.528328 -4.26037 0
M  V30 2025 C 193.57 0.206063 -5.33302 0
M  V30 2026 O 193.793 1.43119 -5.52153 0
M  V30 2027 O 192.727 -0.447281 -6.00236 0
M  V30 2028 H 196.553 -1.21163 -2.78484 0
M  V30 2029 H 194.138 -0.655725 -1.34241 0
M  V30 2030 H 196.02 0.839753 -4.12948 0
M  V30 2031 H 194.695 1.22354 -2.99685 0
M  V30 2032 H 193.602 -1.01362 -3.60106 0
M  V30 2033 H 194.935 -1.31465 -4.74318 0
M  V30 2034 N 196.587 1.43421 -0.653314 0
M  V30 2035 C 197.497 2.34568 0.0388565 0
M  V30 2036 C 198.513 1.53888 0.81207 0
M  V30 2037 O 199.689 1.86539 0.759294 0
M  V30 2038 C 196.754 3.32167 0.993269 0
M  V30 2039 C 195.815 4.28751 0.216977 0
M  V30 2040 C 195.048 5.21688 1.12593 0
M  V30 2041 O 195.271 5.19052 2.36519 0
M  V30 2042 O 194.205 5.98919 0.598284 0
M  V30 2043 H 198.031 2.95251 -0.711386 0
M  V30 2044 H 195.616 1.43564 -0.413502 0
M  V30 2045 H 197.498 3.92183 1.54176 0
M  V30 2046 H 196.173 2.73987 1.72374 0
M  V30 2047 H 195.08 3.72215 -0.375101 0
M  V30 2048 H 196.413 4.89913 -0.473924 0
M  V30 2049 N 198.065 0.39524 1.52563 0
M  V30 2050 C 199.012 -0.437036 2.26624 0
M  V30 2051 C 199.982 -1.05281 1.28472 0
M  V30 2052 O 201.167 -1.07971 1.57311 0
M  V30 2053 C 198.307 -1.55524 3.08069 0
M  V30 2054 C 197.42 -0.961745 4.21158 0
M  V30 2055 C 196.555 -2.05149 4.89987 0
M  V30 2056 C 195.594 -1.4342 5.95061 0
M  V30 2057 N 194.731 -2.46351 6.57462 0
M  V30 2058 H 199.571 0.200976 2.97322 0
M  V30 2059 H 197.108 0.110944 1.46681 0
M  V30 2060 H 199.066 -2.21437 3.53584 0
M  V30 2061 H 197.696 -2.16348 2.3957 0
M  V30 2062 H 196.748 -0.192048 3.79915 0
M  V30 2063 H 198.06 -0.470701 4.96574 0
M  V30 2064 H 197.214 -2.78819 5.38837 0
M  V30 2065 H 195.953 -2.57615 4.14109 0
M  V30 2066 H 194.958 -0.682774 5.45544 0
M  V30 2067 H 196.183 -0.917416 6.72875 0
M  V30 2068 H 194.129 -2.97975 5.8442 0
M  V30 2069 H 194.046 -2.02019 7.28508 0
M  V30 2070 H 195.314 -3.19633 7.10954 0
M  V30 2071 N 199.544 -1.57102 0.125237 0
M  V30 2072 C 200.507 -2.14471 -0.80838 0
M  V30 2073 C 201.507 -1.0811 -1.19033 0
M  V30 2074 O 202.697 -1.33856 -1.11482 0
M  V30 2075 C 199.829 -2.69005 -2.09402 0
M  V30 2076 H 201.022 -2.98297 -0.309696 0
M  V30 2077 H 198.575 -1.55807 -0.124051 0
M  V30 2078 H 199.31 -1.88785 -2.63687 0
M  V30 2079 H 199.095 -3.46799 -1.82957 0
M  V30 2080 H 200.585 -3.13278 -2.76128 0
M  V30 2081 N 201.022 0.148545 -1.56898 0
M  V30 2082 C 201.969 1.18345 -1.98149 0
M  V30 2083 C 202.939 1.42772 -0.848848 0
M  V30 2084 O 204.124 1.55132 -1.11079 0
M  V30 2085 C 201.264 2.51231 -2.36594 0
M  V30 2086 C 200.377 2.33991 -3.63142 0
M  V30 2087 C 199.512 3.59902 -3.90697 0
M  V30 2088 C 198.551 3.37692 -5.1052 0
M  V30 2089 N 197.688 4.5573 -5.34092 0
M  V30 2090 H 202.528 0.82467 -2.86362 0
M  V30 2091 H 200.065 0.395756 -1.41676 0
M  V30 2092 H 202.023 3.28713 -2.56912 0
M  V30 2093 H 200.653 2.85059 -1.51463 0
M  V30 2094 H 199.705 1.47572 -3.50609 0
M  V30 2095 H 201.017 2.13539 -4.5078 0
M  V30 2096 H 200.171 4.45813 -4.11505 0
M  V30 2097 H 198.91 3.83357 -3.01477 0
M  V30 2098 H 197.915 2.5017 -4.89587 0
M  V30 2099 H 199.14 3.15637 -6.0129 0
M  V30 2100 H 197.086 4.79361 -4.47827 0
M  V30 2101 H 197.003 4.38274 -6.15996 0
M  V30 2102 H 198.271 5.42858 -5.59397 0
M  V30 2103 N 202.5 1.5196 0.417844 0
M  V30 2104 C 203.463 1.74065 1.49111 0
M  V30 2105 C 204.463 0.610537 1.48758 0
M  V30 2106 O 205.653 0.87832 1.50437 0
M  V30 2107 C 202.785 1.81502 2.88565 0
M  V30 2108 H 203.978 2.69869 1.30807 0
M  V30 2109 H 201.531 1.42244 0.647785 0
M  V30 2110 H 202.266 0.875813 3.1225 0
M  V30 2111 H 202.051 2.63651 2.90225 0
M  V30 2112 H 203.541 2.00376 3.66387 0
M  V30 2113 N 203.978 -0.674533 1.42435 0
M  V30 2114 C 205.226 -1.43175 1.42637 0
M  V30 2115 C 205.547 -1.94951 0.0438992 0
M  V30 2116 O 204.817 -1.7308 -0.917607 0
M  V30 2117 H 203.397 -0.531307 0.525092 0
M  V30 2118 H 206.059 -0.797006 1.77859 0
M  V30 2119 H 205.155 -2.28463 2.12629 0
M  V30 2120 N 205.456 -1.28612 -0.910864 0
M  V30 2121 C 206.404 -1.1265 -2.03501 0
M  V30 2122 C 207.398 -0.0450054 -1.6934 0
M  V30 2123 O 208.604 -0.203988 -1.7884 0
M  V30 2124 H 204.979 -0.347639 -0.666822 0
M  V30 2125 H 206.95 -2.07849 -2.14106 0
M  V30 2126 C 205.699 -0.808143 -3.38178 0
M  V30 2127 H 205.022 -1.63231 -3.6496 0
M  V30 2128 H 206.462 -0.736426 -4.17556 0
M  V30 2129 C 204.921 0.488226 -3.33344 0
M  V30 2130 O 205.451 1.51766 -3.71927 0
M  V30 2131 N 203.657 0.490009 -2.86439 0
M  V30 2132 H 203.204 -0.348161 -2.55236 0
M  V30 2133 H 203.162 1.35741 -2.83587 0
M  V30 2134 N 206.934 1.1197 -1.10907 0
M  V30 2135 C 207.844 2.21433 -0.774896 0
M  V30 2136 C 208.86 1.72478 0.229657 0
M  V30 2137 O 210.036 2.01288 0.0672008 0
M  V30 2138 C 207.101 3.4602 -0.216986 0
M  V30 2139 C 206.162 4.09791 -1.27944 0
M  V30 2140 C 205.395 5.28431 -0.748055 0
M  V30 2141 O 205.618 5.68823 0.423833 0
M  V30 2142 O 204.552 5.82644 -1.51027 0
M  V30 2143 H 208.378 2.5242 -1.68873 0
M  V30 2144 H 205.963 1.20399 -0.884555 0
M  V30 2145 H 207.845 4.21304 0.090059 0
M  V30 2146 H 206.52 3.16698 0.669633 0
M  V30 2147 H 205.427 3.36265 -1.63941 0
M  V30 2148 H 206.76 4.4328 -2.13925 0
M  V30 2149 N 208.412 0.89855 1.29475 0
M  V30 2150 C 209.642 0.538479 1.99459 0
M  V30 2151 C 210.05 -0.880922 1.67441 0
M  V30 2152 O 209.393 -1.59283 0.915127 0
M  V30 2153 C 209.455 0.649564 3.53583 0
M  V30 2154 C 209.119 2.03573 4.09154 0
M  V30 2155 C 210.116 3.00675 4.24135 0
M  V30 2156 C 207.801 2.3448 4.44212 0
M  V30 2157 C 209.795 4.26809 4.73405 0
M  V30 2158 C 207.482 3.60857 4.93179 0
M  V30 2159 C 208.48 4.56836 5.0773 0
M  V30 2160 O 208.168 5.80969 5.55635 0
M  V30 2161 H 207.9 0.205372 0.644048 0
M  V30 2162 H 210.454 1.20958 1.66007 0
M  V30 2163 H 208.684 -0.0785592 3.8662 0
M  V30 2164 H 210.373 0.29881 4.04799 0
M  V30 2165 H 211.139 2.78112 3.97339 0
M  V30 2166 H 207.018 1.60534 4.32145 0
M  V30 2167 H 210.562 5.0173 4.84678 0
M  V30 2168 H 206.459 3.83251 5.19412 0
M  V30 2169 H 207.227 5.83542 5.73952 0
M  V30 2170 N 209.89 -1.43072 0.660911 0
M  V30 2171 C 210.853 -2.29194 -0.0166406 0
M  V30 2172 C 211.853 -1.42609 -0.742912 0
M  V30 2173 O 213.043 -1.64155 -0.583004 0
M  V30 2174 C 210.175 -3.24831 -1.0343 0
M  V30 2175 H 211.368 -2.90596 0.741208 0
M  V30 2176 H 208.921 -1.5048 0.422532 0
M  V30 2177 H 209.656 -2.68339 -1.82111 0
M  V30 2178 H 209.441 -3.88676 -0.517082 0
M  V30 2179 H 210.931 -3.89451 -1.50723 0
M  V30 2180 N 211.368 -0.403325 -1.52352 0
M  V30 2181 C 212.315 0.425011 -2.26853 0
M  V30 2182 C 213.285 1.04598 -1.29029 0
M  V30 2183 O 214.47 1.07135 -1.57882 0
M  V30 2184 C 211.61 1.53888 -3.08889 0
M  V30 2185 C 210.723 0.939396 -4.21663 0
M  V30 2186 C 209.858 2.02547 -4.91068 0
M  V30 2187 C 208.897 1.40263 -5.95813 0
M  V30 2188 N 208.034 2.4286 -6.58759 0
M  V30 2189 H 212.874 -0.21674 -2.97211 0
M  V30 2190 H 210.411 -0.118722 -1.4662 0
M  V30 2191 H 212.369 2.19558 -3.54753 0
M  V30 2192 H 210.999 2.15074 -2.40714 0
M  V30 2193 H 210.051 0.171898 -3.80011 0
M  V30 2194 H 211.363 0.44436 -4.96817 0
M  V30 2195 H 210.517 2.75958 -5.40308 0
M  V30 2196 H 209.256 2.55415 -4.15469 0
M  V30 2197 H 208.261 0.653833 -5.45898 0
M  V30 2198 H 209.486 0.881719 -6.73352 0
M  V30 2199 H 207.432 2.94871 -5.85992 0
M  V30 2200 H 207.349 1.98152 -7.2957 0
M  V30 2201 H 208.617 3.15858 -7.12639 0
M  V30 2202 N 212.846 1.57033 -0.133567 0
M  V30 2203 C 213.778 2.13176 0.841944 0
M  V30 2204 C 214.791 1.07794 1.22001 0
M  V30 2205 O 215.98 1.35117 1.16643 0
M  V30 2206 C 213.08 2.62847 2.13926 0
M  V30 2207 C 212.253 3.92486 1.93064 0
M  V30 2208 C 211.312 4.27605 3.0666 0
M  V30 2209 O 210.338 4.96168 2.78937 0
M  V30 2210 N 211.54 3.861 4.33483 0
M  V30 2211 H 214.305 2.97503 0.362192 0
M  V30 2212 H 211.866 1.61821 0.05042 0
M  V30 2213 H 213.858 2.83363 2.88942 0
M  V30 2214 H 212.428 1.83319 2.53205 0
M  V30 2215 H 211.648 3.80732 1.02159 0
M  V30 2216 H 212.936 4.77225 1.76447 0
M  V30 2217 H 212.334 3.30828 4.58878 0
M  V30 2218 H 210.891 4.11694 5.05323 0
M  V30 2219 N 214.325 -0.140222 1.56975 0
M  V30 2220 C 215.571 -0.852949 1.83991 0
M  V30 2221 C 215.904 -1.80512 0.716187 0
M  V30 2222 O 215.179 -1.92479 -0.279681 0
M  V30 2223 C 215.462 -1.6215 3.21527 0
M  V30 2224 C 215.315 -0.690363 4.4447 0
M  V30 2225 C 216.634 -2.58247 3.56366 0
M  V30 2226 H 213.753 -0.308634 0.669264 0
M  V30 2227 H 216.395 -0.117898 1.89634 0
M  V30 2228 H 214.545 -2.24812 3.16847 0
M  V30 2229 H 216.217 -0.0742264 4.6124 0
M  V30 2230 H 214.46 -0.000396433 4.338 0
M  V30 2231 H 215.131 -1.2643 5.37326 0
M  V30 2232 H 217.607 -2.05701 3.61699 0
M  V30 2233 H 216.483 -3.09067 4.53617 0
M  V30 2234 H 216.744 -3.39923 2.82674 0
M  V30 2235 N 215.803 -1.52179 -0.40978 0
M  V30 2236 C 216.736 -1.70196 -1.52015 0
M  V30 2237 C 217.714 -0.549542 -1.53032 0
M  V30 2238 O 218.898 -0.776815 -1.71749 0
M  V30 2239 C 216.025 -1.74069 -2.90547 0
M  V30 2240 C 215.071 -2.95601 -3.07445 0
M  V30 2241 S 215.904 -4.55956 -2.80827 0
M  V30 2242 C 217.06 -4.62614 -4.21591 0
M  V30 2243 H 217.293 -2.64109 -1.36504 0
M  V30 2244 H 214.826 -1.4221 -0.601312 0
M  V30 2245 H 216.784 -1.76985 -3.70387 0
M  V30 2246 H 215.445 -0.812835 -3.034 0
M  V30 2247 H 214.638 -2.94791 -4.08796 0
M  V30 2248 H 214.24 -2.90569 -2.35469 0
M  V30 2249 H 216.532 -4.39951 -5.15218 0
M  V30 2250 H 217.475 -5.64548 -4.27424 0
M  V30 2251 H 217.883 -3.91654 -4.06531 0
M  V30 2252 N 217.281 0.66697 -1.42791 0
M  V30 2253 C 218.213 1.7925 -1.42836 0
M  V30 2254 C 219.226 1.59496 -0.326333 0
M  V30 2255 O 220.415 1.6847 -0.589916 0
M  V30 2256 C 217.515 3.16476 -1.21229 0
M  V30 2257 C 216.688 3.63011 -2.44013 0
M  V30 2258 C 215.747 4.78993 -2.17834 0
M  V30 2259 O 214.773 4.89137 -2.91091 0
M  V30 2260 N 215.975 5.68248 -1.18635 0
M  V30 2261 H 218.74 1.79695 -2.39854 0
M  V30 2262 H 216.301 0.850338 -1.37771 0
M  V30 2263 H 218.293 3.91734 -1.01621 0
M  V30 2264 H 216.863 3.10884 -0.32706 0
M  V30 2265 H 216.083 2.78346 -2.79137 0
M  V30 2266 H 217.371 3.90845 -3.25757 0
M  V30 2267 H 216.769 5.62712 -0.580615 0
M  V30 2268 H 215.326 6.43285 -1.05013 0
M  V30 2269 N 218.759 1.29093 0.90403 0
M  V30 2270 C 219.984 1.19809 1.69294 0
M  V30 2271 C 220.409 -0.238481 1.86582 0
M  V30 2272 O 219.767 -1.1723 1.383 0
M  V30 2273 C 219.815 1.91202 3.05736 0
M  V30 2274 O 218.919 1.22611 3.93752 0
M  V30 2275 H 218.26 0.415385 0.518027 0
M  V30 2276 H 220.79 1.70586 1.12967 0
M  V30 2277 H 220.8 1.99487 3.55906 0
M  V30 2278 H 219.475 2.95692 2.92471 0
M  V30 2279 H 218.052 1.22554 3.52186 0
M  V30 2280 N 220.237 -1.11381 1.11499 0
M  V30 2281 C 221.483 -1.83597 0.875423 0
M  V30 2282 C 221.838 -1.83048 -0.592555 0
M  V30 2283 O 221.131 -1.27304 -1.43193 0
M  V30 2284 C 221.325 -3.30026 1.37177 0
M  V30 2285 C 221.154 -3.44837 2.88647 0
M  V30 2286 C 219.924 -3.57825 3.56776 0
M  V30 2287 C 222.122 -3.3907 3.86699 0
M  V30 2288 N 220.104 -3.61113 4.96458 0
M  V30 2289 C 221.475 -3.48986 5.12454 0
M  V30 2290 C 223.53 -3.22605 3.7925 0
M  V30 2291 C 222.233 -3.44135 6.31636 0
M  V30 2292 C 224.259 -3.19072 4.97943 0
M  V30 2293 C 223.621 -3.29559 6.22551 0
M  V30 2294 H 219.72 -0.687044 0.37349 0
M  V30 2295 H 222.304 -1.33265 1.41946 0
M  V30 2296 H 220.475 -3.78874 0.854919 0
M  V30 2297 H 222.207 -3.90153 1.07529 0
M  V30 2298 H 218.962 -3.60414 3.07244 0
M  V30 2299 H 219.386 -3.66394 5.69284 0
M  V30 2300 H 224.028 -3.13382 2.83816 0
M  V30 2301 H 221.746 -3.52126 7.27347 0
M  V30 2302 H 225.332 -3.07498 4.93899 0
M  V30 2303 H 224.212 -3.26815 7.12855 0
M  V30 2304 N 221.715 -0.905404 -1.28997 0
M  V30 2305 C 222.678 -0.392253 -2.25819 0
M  V30 2306 C 223.678 0.476753 -1.5357 0
M  V30 2307 O 224.868 0.280994 -1.71919 0
M  V30 2308 C 222 0.438588 -3.38067 0
M  V30 2309 H 223.193 -1.24743 -2.72725 0
M  V30 2310 H 220.746 -0.684051 -1.40536 0
M  V30 2311 H 221.481 1.31352 -2.96508 0
M  V30 2312 H 221.266 -0.184167 -3.91667 0
M  V30 2313 H 222.756 0.78873 -4.10084 0
M  V30 2314 N 223.193 1.4272 -0.668489 0
M  V30 2315 C 224.47 1.95248 -0.117373 0
M  V30 2316 C 224.85 1.60919 1.36632 0
M  V30 2317 O 224.198 0.902095 2.09939 0
M  V30 2318 C 224.408 3.46927 -0.379806 0
M  V30 2319 C 225.756 4.23588 -0.292923 0
M  V30 2320 O 226.78 3.5482 -0.313204 0
M  V30 2321 O 225.639 5.46017 -0.229697 0
M  V30 2322 H 222.733 0.827 0.00079152 0
M  V30 2323 H 225.279 1.52581 -0.742783 0
M  V30 2324 H 224.051 3.65096 -1.40786 0
M  V30 2325 H 223.674 3.96627 0.277923 0
M  V30 2326 N 224.671 0.411399 1.52136 0
M  V30 2327 C 225.634 -0.401089 2.25663 0
M  V30 2328 C 226.634 -0.971732 1.28117 0
M  V30 2329 O 227.824 -0.850254 1.52041 0
M  V30 2330 C 224.956 -1.56483 3.02863 0
M  V30 2331 H 226.149 0.24295 2.98914 0
M  V30 2332 H 223.702 0.163968 1.55438 0
M  V30 2333 H 224.437 -2.24567 2.33967 0
M  V30 2334 H 224.222 -1.16211 3.74483 0
M  V30 2335 H 225.712 -2.13951 3.58629 0
M  V30 2336 N 226.149 -1.5696 0.141893 0
M  V30 2337 C 227.059 -2.20066 -0.812905 0
M  V30 2338 C 228.075 -1.18344 -1.27557 0
M  V30 2339 O 229.251 -1.50902 -1.33381 0
M  V30 2340 C 226.316 -2.80583 -2.03652 0
M  V30 2341 C 225.377 -3.97414 -1.62359 0
M  V30 2342 C 224.61 -4.55036 -2.78887 0
M  V30 2343 O 224.833 -4.11538 -3.94959 0
M  V30 2344 O 223.767 -5.45376 -2.54653 0
M  V30 2345 H 227.593 -3.02157 -0.305746 0
M  V30 2346 H 225.178 -1.49159 -0.0848799 0
M  V30 2347 H 227.06 -3.19067 -2.75272 0
M  V30 2348 H 225.735 -2.01508 -2.5333 0
M  V30 2349 H 224.642 -3.63656 -0.877775 0
M  V30 2350 H 225.975 -4.77994 -1.17401 0
M  V30 2351 N 227.627 0.131896 -1.57047 0
M  V30 2352 C 228.873 0.838268 -1.85323 0
M  V30 2353 C 229.228 1.78098 -0.727937 0
M  V30 2354 O 228.521 1.89645 0.27304 0
M  V30 2355 C 228.715 1.63703 -3.17704 0
M  V30 2356 C 228.544 0.773167 -4.43004 0
M  V30 2357 C 227.314 0.432956 -5.03442 0
M  V30 2358 C 229.512 0.0966216 -5.14209 0
M  V30 2359 N 227.494 -0.442924 -6.123 0
M  V30 2360 C 228.865 -0.638778 -6.16701 0
M  V30 2361 C 230.92 0.018861 -4.97896 0
M  V30 2362 C 229.623 -1.44462 -7.04644 0
M  V30 2363 C 231.649 -0.773762 -5.86316 0
M  V30 2364 C 231.011 -1.4974 -6.883 0
M  V30 2365 H 227.11 0.284086 -0.728573 0
M  V30 2366 H 229.694 0.102731 -1.94429 0
M  V30 2367 H 227.865 2.3437 -3.09718 0
M  V30 2368 H 229.597 2.28774 -3.33833 0
M  V30 2369 H 226.352 0.772237 -4.67262 0
M  V30 2370 H 226.776 -0.872332 -6.71356 0
M  V30 2371 H 231.418 0.56397 -4.19022 0
M  V30 2372 H 229.136 -2.00093 -7.82936 0
M  V30 2373 H 232.722 -0.83612 -5.75761 0
M  V30 2374 H 231.602 -2.10087 -7.55535 0
M  V30 2375 N 229.106 1.52395 0.401703 0
M  V30 2376 C 230.353 1.66817 1.14796 0
M  V30 2377 C 230.681 0.401772 1.90305 0
M  V30 2378 O 229.936 -0.615487 1.85769 0
M  V30 2379 C 230.235 2.84578 2.16217 0
M  V30 2380 C 229.901 4.22513 1.5746 0
M  V30 2381 C 228.563 4.60029 1.41161 0
M  V30 2382 C 230.915 5.0844 1.14622 0
M  V30 2383 C 228.243 5.81144 0.80552 0
M  V30 2384 C 230.595 6.30167 0.55428 0
M  V30 2385 C 229.259 6.66426 0.378482 0
M  V30 2386 H 228.529 0.610428 0.420069 0
M  V30 2387 H 231.176 1.86512 0.434212 0
M  V30 2388 H 229.481 2.59248 2.93764 0
M  V30 2389 H 231.178 2.92933 2.73845 0
M  V30 2390 H 227.768 3.92953 1.71132 0
M  V30 2391 H 231.952 4.80034 1.26021 0
M  V30 2392 H 227.208 6.07855 0.657399 0
M  V30 2393 H 231.382 6.96071 0.213983 0
M  V30 2394 H 229.009 7.60143 -0.0932606 0
M  V30 2395 N 230.584 -0.659388 1.43143 0
M  V30 2396 C 231.514 -1.78422 1.50625 0
M  V30 2397 C 232.495 -1.66216 0.361443 0
M  V30 2398 O 233.68 -1.85404 0.577834 0
M  V30 2399 C 230.81 -3.16815 1.42287 0
M  V30 2400 C 229.764 -3.43777 2.54954 0
M  V30 2401 C 229.09 -4.81905 2.31671 0
M  V30 2402 C 230.39 -3.39134 3.97222 0
M  V30 2403 H 232.084 -1.72417 2.44771 0
M  V30 2404 H 229.63 -0.828084 1.17808 0
M  V30 2405 H 231.583 -3.95253 1.46127 0
M  V30 2406 H 230.307 -3.23534 0.446435 0
M  V30 2407 H 228.966 -2.67707 2.50457 0
M  V30 2408 H 228.614 -4.85294 1.32284 0
M  V30 2409 H 228.314 -5.00906 3.07192 0
M  V30 2410 H 229.838 -5.62609 2.37284 0
M  V30 2411 H 231.252 -4.07518 4.03239 0
M  V30 2412 H 229.649 -3.69671 4.72719 0
M  V30 2413 H 230.719 -2.37426 4.22797 0
M  V30 2414 N 232.062 -1.29571 -0.897171 0
M  V30 2415 C 233.01 -1.14802 -2.02295 0
M  V30 2416 C 234.004 -0.0629637 -1.69283 0
M  V30 2417 O 235.21 -0.222945 -1.78614 0
M  V30 2418 H 231.585 -0.354692 -0.663097 0
M  V30 2419 H 233.556 -2.10108 -2.11889 0
M  V30 2420 C 232.305 -0.843966 -3.37302 0
M  V30 2421 H 231.628 -1.67093 -3.63208 0
M  V30 2422 H 233.068 -0.780672 -4.16751 0
M  V30 2423 C 231.527 0.452843 -3.33843 0
M  V30 2424 O 232.057 1.47813 -3.73516 0
M  V30 2425 N 230.263 0.459601 -2.86943 0
M  V30 2426 H 229.81 -0.375213 -2.54853 0
M  V30 2427 H 229.768 1.32726 -2.85011 0
M  V30 2428 N 233.54 1.10788 -1.12088 0
M  V30 2429 C 234.956 1.34691 -0.856186 0
M  V30 2430 C 235.156 1.94791 0.515615 0
M  V30 2431 O 234.212 2.18524 1.26505 0
M  V30 2432 C 235.525 2.27208 -1.9697 0
M  V30 2433 C 237.073 2.40755 -2.00016 0
M  V30 2434 C 237.548 3.36598 -3.1059 0
M  V30 2435 N 239.039 3.44164 -3.10008 0
M  V30 2436 C 239.774 4.18284 -3.92206 0
M  V30 2437 N 239.27 4.95322 -4.84384 0
M  V30 2438 N 241.063 4.13865 -3.80357 0
M  V30 2439 H 233.214 0.70144 -2.00483 0
M  V30 2440 H 235.477 0.371405 -0.872217 0
M  V30 2441 H 235.183 1.90251 -2.958 0
M  V30 2442 H 235.057 3.27485 -1.87172 0
M  V30 2443 H 237.444 2.76982 -1.01808 0
M  V30 2444 H 237.525 1.40305 -2.13888 0
M  V30 2445 H 237.169 3.01096 -4.09028 0
M  V30 2446 H 237.099 4.36918 -2.93956 0
M  V30 2447 H 239.59 2.8922 -2.43228 0
M  V30 2448 H 239.903 5.49267 -5.43623 0
M  V30 2449 H 238.248 4.94459 -4.884 0
M  V30 2450 H 241.439 3.52773 -3.07683 0
M  V30 2451 H 241.612 4.71372 -4.44649 0
M  V30 2452 N 235.018 0.912232 1.28515 0
M  V30 2453 C 236.429 0.591352 1.77087 0
M  V30 2454 C 236.78 -0.8933 1.74684 0
M  V30 2455 O 235.905 -1.69876 1.34056 0
M  V30 2456 C 236.5 1.06668 3.2157 0
M  V30 2457 C 235.059 0.79675 3.67871 0
M  V30 2458 C 234.206 1.23427 2.48316 0
M  V30 2459 H 237.157 1.09365 1.15 0
M  V30 2460 H 237.178 0.407455 3.78312 0
M  V30 2461 H 236.69 2.14726 3.23287 0
M  V30 2462 H 234.791 -0.270679 3.71616 0
M  V30 2463 H 234.904 1.40343 4.58084 0
M  V30 2464 H 233.268 0.653036 2.46186 0
M  V30 2465 H 234.051 2.32316 2.52753 0
M  V30 2466 N 236.496 -1.42363 0.676048 0
M  V30 2467 C 237.459 -2.29199 0.00766941 0
M  V30 2468 C 238.459 -1.43389 -0.727745 0
M  V30 2469 O 239.649 -1.64764 -0.56556 0
M  V30 2470 C 236.781 -3.2591 -0.999785 0
M  V30 2471 H 237.974 -2.89794 0.771988 0
M  V30 2472 H 235.527 -1.50024 0.438468 0
M  V30 2473 H 236.262 -2.70256 -1.79255 0
M  V30 2474 H 236.047 -3.89202 -0.475829 0
M  V30 2475 H 237.537 -3.91028 -1.46583 0
M  V30 2476 N 237.974 -0.419461 -1.51915 0
M  V30 2477 C 238.904 0.391813 -2.30189 0
M  V30 2478 C 239.885 1.03699 -1.34836 0
M  V30 2479 O 241.07 1.04403 -1.63748 0
M  V30 2480 C 238.2 1.50312 -3.13087 0
M  V30 2481 C 237.154 0.9824 -4.16573 0
M  V30 2482 C 236.48 2.18809 -4.8788 0
M  V30 2483 C 237.78 0.0292356 -5.22292 0
M  V30 2484 H 239.474 -0.26135 -2.98257 0
M  V30 2485 H 237.02 -0.127134 -1.43438 0
M  V30 2486 H 238.973 2.07773 -3.66617 0
M  V30 2487 H 237.697 2.18431 -2.42807 0
M  V30 2488 H 236.356 0.430119 -3.64068 0
M  V30 2489 H 236.004 2.85507 -4.14119 0
M  V30 2490 H 235.704 1.84615 -5.57845 0
M  V30 2491 H 237.228 2.76858 -5.44226 0
M  V30 2492 H 238.642 0.512976 -5.71 0
M  V30 2493 H 237.039 -0.2244 -5.9968 0
M  V30 2494 H 238.109 -0.912931 -4.76228 0
M  V30 2495 N 239.452 1.56882 -0.150215 0
M  V30 2496 C 240.415 2.1573 0.774157 0
M  V30 2497 C 241.415 1.0999 1.17298 0
M  V30 2498 O 242.605 1.35613 1.09338 0
M  V30 2499 C 239.737 2.72302 2.05096 0
M  V30 2500 H 240.93 2.98752 0.262201 0
M  V30 2501 H 238.483 1.55985 0.099248 0
M  V30 2502 H 239.218 1.92956 2.6065 0
M  V30 2503 H 239.003 3.49665 1.77416 0
M  V30 2504 H 240.493 3.17632 2.71109 0
M  V30 2505 N 240.93 -0.123565 1.57115 0
M  V30 2506 C 241.84 -1.17074 2.033 0
M  V30 2507 C 242.856 -1.4561 0.952559 0
M  V30 2508 O 244.032 -1.56817 1.26374 0
M  V30 2509 C 241.097 -2.47857 2.42421 0
M  V30 2510 C 240.158 -2.26758 3.64526 0
M  V30 2511 C 239.391 -3.51305 4.01771 0
M  V30 2512 O 239.614 -4.5843 3.39409 0
M  V30 2513 O 238.548 -3.42578 4.94898 0
M  V30 2514 H 242.374 -0.808555 2.92739 0
M  V30 2515 H 239.959 -0.334027 1.45618 0
M  V30 2516 H 241.841 -3.2492 2.68338 0
M  V30 2517 H 240.516 -2.83558 1.5613 0
M  V30 2518 H 239.423 -1.47569 3.43765 0
M  V30 2519 H 240.756 -1.95963 4.51508 0
M  V30 2520 N 242.408 -1.52605 -0.393616 0
M  V30 2521 C 243.355 -1.77055 -1.48054 0
M  V30 2522 C 244.325 -0.61358 -1.54352 0
M  V30 2523 O 245.51 -0.852806 -1.70681 0
M  V30 2524 C 242.65 -1.94108 -2.85335 0
M  V30 2525 C 241.763 -3.21792 -2.88226 0
M  V30 2526 C 240.898 -3.29188 -4.16904 0
M  V30 2527 C 239.937 -4.51013 -4.13828 0
M  V30 2528 N 239.074 -4.55716 -5.34105 0
M  V30 2529 H 243.914 -2.69815 -1.26506 0
M  V30 2530 H 241.451 -1.33683 -0.61379 0
M  V30 2531 H 243.409 -2.01979 -3.65049 0
M  V30 2532 H 242.039 -1.04713 -3.05344 0
M  V30 2533 H 241.091 -3.23015 -2.00911 0
M  V30 2534 H 242.403 -4.11557 -2.8182 0
M  V30 2535 H 241.557 -3.36216 -5.05018 0
M  V30 2536 H 240.296 -2.37389 -4.26026 0
M  V30 2537 H 239.301 -4.44115 -3.24102 0
M  V30 2538 H 240.526 -5.44123 -4.06333 0
M  V30 2539 H 238.472 -3.66807 -5.43865 0
M  V30 2540 H 238.389 -5.39346 -5.29756 0
M  V30 2541 H 239.657 -4.66993 -6.2413 0
M  V30 2542 N 243.887 0.651787 -1.4349 0
M  V30 2543 C 244.817 1.77621 -1.51569 0
M  V30 2544 C 245.798 1.66022 -0.370253 0
M  V30 2545 O 246.983 1.85095 -0.587658 0
M  V30 2546 C 244.113 3.16056 -1.43966 0
M  V30 2547 C 243.067 3.4242 -2.56774 0
M  V30 2548 C 242.393 4.8067 -2.34223 0
M  V30 2549 C 243.693 3.37023 -3.99015 0
M  V30 2550 H 245.387 1.71117 -2.45681 0
M  V30 2551 H 242.933 0.821825 -1.18246 0
M  V30 2552 H 244.886 3.94472 -1.48221 0
M  V30 2553 H 243.61 3.23293 -0.463586 0
M  V30 2554 H 242.269 2.66375 -2.51873 0
M  V30 2555 H 241.917 4.84585 -1.34856 0
M  V30 2556 H 241.617 4.9927 -3.09844 0
M  V30 2557 H 243.141 5.61342 -2.40265 0
M  V30 2558 H 244.555 4.05374 -4.05395 0
M  V30 2559 H 242.952 3.67159 -4.74673 0
M  V30 2560 H 244.022 2.3518 -4.2405 0
M  V30 2561 N 245.365 1.30045 0.890287 0
M  V30 2562 C 246.593 1.21472 1.67487 0
M  V30 2563 C 247.008 -0.223241 1.87476 0
M  V30 2564 O 246.365 -1.14828 1.41847 0
M  V30 2565 C 246.416 1.93394 3.05419 0
M  V30 2566 O 246.137 3.31576 2.86337 0
M  V30 2567 C 247.638 1.91414 3.99844 0
M  V30 2568 H 244.858 0.420604 0.522813 0
M  V30 2569 H 247.402 1.7158 1.11268 0
M  V30 2570 H 245.557 1.47099 3.58386 0
M  V30 2571 H 245.971 3.67929 3.73802 0
M  V30 2572 H 247.445 2.46285 4.94012 0
M  V30 2573 H 247.922 0.891833 4.3005 0
M  V30 2574 H 248.528 2.37496 3.52811 0
M  V30 2575 N 246.843 -1.10192 1.12674 0
M  V30 2576 C 248.089 -1.82475 0.884915 0
M  V30 2577 C 248.422 -1.85093 -0.58773 0
M  V30 2578 O 247.697 -1.3134 -1.43457 0
M  V30 2579 C 247.98 -3.29018 1.46353 0
M  V30 2580 C 247.833 -3.34718 3.00473 0
M  V30 2581 C 249.152 -4.25473 1.12519 0
M  V30 2582 H 246.271 -0.662492 0.322915 0
M  V30 2583 H 248.913 -1.2913 1.39375 0
M  V30 2584 H 247.063 -3.74576 1.03077 0
M  V30 2585 H 248.735 -2.97622 3.52447 0
M  V30 2586 H 246.978 -2.74541 3.35872 0
M  V30 2587 H 247.649 -4.37918 3.36053 0
M  V30 2588 H 250.125 -3.88161 1.499 0
M  V30 2589 H 249.001 -5.26365 1.55663 0
M  V30 2590 H 249.262 -4.42084 0.0377407 0
M  V30 2591 N 248.321 -0.919034 -1.28029 0
M  V30 2592 C 249.549 -0.570971 -1.98866 0
M  V30 2593 C 249.964 0.848996 -1.68634 0
M  V30 2594 O 249.321 1.56307 -0.942036 0
M  V30 2595 C 249.372 -0.776876 -3.53054 0
M  V30 2596 O 249.093 -2.14097 -3.82222 0
M  V30 2597 C 250.594 -0.436356 -4.41147 0
M  V30 2598 H 247.814 -0.217175 -0.634883 0
M  V30 2599 H 250.358 -1.23368 -1.63097 0
M  V30 2600 H 248.513 -0.161085 -3.87065 0
M  V30 2601 H 248.927 -2.18455 -4.76841 0
M  V30 2602 H 250.401 -0.63117 -5.4838 0
M  V30 2603 H 250.878 0.627686 -4.34692 0
M  V30 2604 H 251.484 -1.02991 -4.12641 0
M  V30 2605 N 249.799 1.42003 -0.683588 0
M  V30 2606 C 251.045 2.01712 -0.209825 0
M  V30 2607 C 251.378 1.53968 1.18353 0
M  V30 2608 O 250.653 0.745661 1.79639 0
M  V30 2609 C 250.936 3.59202 -0.254197 0
M  V30 2610 C 250.789 4.17102 -1.68363 0
M  V30 2611 C 252.108 4.38344 0.392709 0
M  V30 2612 H 249.227 0.732891 -0.0777189 0
M  V30 2613 H 251.869 1.68909 -0.87004 0
M  V30 2614 H 250.019 3.87278 0.307954 0
M  V30 2615 H 251.691 3.99946 -2.29871 0
M  V30 2616 H 249.934 3.72597 -2.22157 0
M  V30 2617 H 250.605 5.26249 -1.6663 0
M  V30 2618 H 253.081 4.16011 -0.0859162 0
M  V30 2619 H 251.957 5.47901 0.331063 0
M  V30 2620 H 252.218 4.16887 1.47164 0
M  V30 2621 N 251.277 0.427512 1.51691 0
M  V30 2622 C 252.524 -0.142229 2.02 0
M  V30 2623 C 252.852 -1.43566 1.31221 0
M  V30 2624 O 252.107 -1.91298 0.412744 0
M  V30 2625 C 252.406 -0.418249 3.54944 0
M  V30 2626 C 252.072 0.788187 4.43958 0
M  V30 2627 C 250.734 1.11906 4.68007 0
M  V30 2628 C 253.086 1.59347 4.96244 0
M  V30 2629 C 250.414 2.25608 5.41588 0
M  V30 2630 C 252.766 2.7214 5.71072 0
M  V30 2631 C 251.43 3.05692 5.93387 0
M  V30 2632 H 250.7 -0.0520451 0.73917 0
M  V30 2633 H 253.347 0.572697 1.82736 0
M  V30 2634 H 251.652 -1.21496 3.72486 0
M  V30 2635 H 253.349 -0.872339 3.91397 0
M  V30 2636 H 249.939 0.520344 4.2543 0
M  V30 2637 H 254.123 1.35106 4.77556 0
M  V30 2638 H 249.379 2.51929 5.57083 0
M  V30 2639 H 253.553 3.34914 6.10578 0
M  V30 2640 H 251.18 3.9391 6.50184 0
M  V30 2641 N 252.755 -1.56801 0.158532 0
M  V30 2642 C 253.702 -2.17337 -0.776729 0
M  V30 2643 C 254.672 -1.1096 -1.23601 0
M  V30 2644 O 255.857 -1.39054 -1.30647 0
M  V30 2645 C 252.997 -2.80822 -2.00582 0
M  V30 2646 C 252.11 -4.01624 -1.59129 0
M  V30 2647 C 251.245 -4.53072 -2.77306 0
M  V30 2648 C 250.284 -5.66314 -2.32282 0
M  V30 2649 N 249.421 -6.12329 -3.43508 0
M  V30 2650 H 254.261 -2.96918 -0.253701 0
M  V30 2651 H 251.798 -1.46661 -0.113504 0
M  V30 2652 H 253.756 -3.15779 -2.72652 0
M  V30 2653 H 252.386 -2.03866 -2.50277 0
M  V30 2654 H 251.438 -3.72571 -0.767806 0
M  V30 2655 H 252.75 -4.83633 -1.2207 0
M  V30 2656 H 251.904 -4.90145 -3.57551 0
M  V30 2657 H 250.643 -3.70095 -3.17617 0
M  V30 2658 H 249.648 -5.28806 -1.5048 0
M  V30 2659 H 250.873 -6.51085 -1.93043 0
M  V30 2660 H 248.819 -5.32284 -3.83418 0
M  V30 2661 H 248.736 -6.89293 -3.105 0
M  V30 2662 H 250.004 -6.5405 -4.24075 0
M  V30 2663 N 254.233 0.115231 -1.57178 0
M  V30 2664 C 255.479 0.82357 -1.85325 0
M  V30 2665 C 255.812 1.79349 -0.744814 0
M  V30 2666 O 255.087 1.92899 0.249024 0
M  V30 2667 C 255.37 1.57014 -3.24066 0
M  V30 2668 C 255.223 0.619565 -4.45513 0
M  V30 2669 C 256.542 2.52545 -3.60429 0
M  V30 2670 H 253.661 0.297948 -0.674089 0
M  V30 2671 H 256.303 0.0877138 -1.89797 0
M  V30 2672 H 254.453 2.19742 -3.20383 0
M  V30 2673 H 256.125 0.000837639 -4.613 0
M  V30 2674 H 254.368 -0.0686174 -4.33746 0
M  V30 2675 H 255.039 1.17866 -5.3927 0
M  V30 2676 H 257.515 1.9992 -3.64926 0
M  V30 2677 H 256.391 3.01811 -4.58477 0
M  V30 2678 H 256.652 3.35383 -2.88047 0
M  V30 2679 N 255.711 1.52812 0.385517 0
M  V30 2680 C 256.939 1.71907 1.15133 0
M  V30 2681 C 257.354 0.439004 1.83625 0
M  V30 2682 O 256.711 -0.586765 1.7281 0
M  V30 2683 C 256.762 2.87099 2.19673 0
M  V30 2684 O 256.483 4.10151 1.53973 0
M  V30 2685 C 257.984 3.17902 3.08955 0
M  V30 2686 H 255.204 0.575479 0.345057 0
M  V30 2687 H 257.748 1.99476 0.45052 0
M  V30 2688 H 255.903 2.61982 2.85384 0
M  V30 2689 H 256.317 4.74514 2.23465 0
M  V30 2690 H 257.791 4.01959 3.7833 0
M  V30 2691 H 258.268 2.3243 3.72657 0
M  V30 2692 H 258.874 3.44871 2.48885 0
M  V30 2693 N 257.189 -0.644168 1.43834 0
M  V30 2694 C 258.437 -1.40117 1.45642 0
M  V30 2695 C 258.758 -1.94814 0.0852413 0
M  V30 2696 O 258.028 -1.74988 -0.880688 0
M  V30 2697 H 256.608 -0.52005 0.536243 0
M  V30 2698 H 259.27 -0.7591 1.7951 0
M  V30 2699 H 258.366 -2.23902 2.17427 0
M  V30 2700 N 258.668 -1.30515 -0.883378 0
M  V30 2701 C 259.578 -1.18959 -2.02203 0
M  V30 2702 C 260.594 -0.109172 -1.73657 0
M  V30 2703 O 261.77 -0.324413 -1.9877 0
M  V30 2704 C 258.835 -0.883871 -3.35244 0
M  V30 2705 C 257.896 -2.04982 -3.77201 0
M  V30 2706 C 257.129 -1.75859 -5.03894 0
M  V30 2707 O 257.352 -0.687276 -5.66244 0
M  V30 2708 O 256.286 -2.61146 -5.42297 0
M  V30 2709 H 260.112 -2.14616 -2.1488 0
M  V30 2710 H 257.697 -1.10124 -1.0096 0
M  V30 2711 H 259.579 -0.728644 -4.15053 0
M  V30 2712 H 258.254 0.0427798 -3.23672 0
M  V30 2713 H 257.161 -2.26038 -2.9809 0
M  V30 2714 H 258.494 -2.95825 -3.93381 0
M  V30 2715 N 260.146 1.09593 -1.13257 0
M  V30 2716 C 261.374 1.855 -0.916378 0
M  V30 2717 C 261.789 1.81069 0.534738 0
M  V30 2718 O 261.146 1.20562 1.37007 0
M  V30 2719 C 261.197 3.33546 -1.39388 0
M  V30 2720 O 260.918 3.37927 -2.78813 0
M  V30 2721 C 262.419 4.26299 -1.21588 0
M  V30 2722 H 259.639 0.585991 -0.326887 0
M  V30 2723 H 262.183 1.38488 -1.5047 0
M  V30 2724 H 260.338 3.77992 -0.848597 0
M  V30 2725 H 260.752 4.30254 -2.9997 0
M  V30 2726 H 262.226 5.28341 -1.59876 0
M  V30 2727 H 262.703 4.38918 -0.157376 0
M  V30 2728 H 263.309 3.87668 -1.7491 0
M  V30 2729 N 261.624 0.925811 1.2754 0
M  V30 2730 C 262.572 0.413897 2.28888 0
M  V30 2731 C 263.566 -0.500779 1.61829 0
M  V30 2732 O 264.772 -0.38069 1.75928 0
M  V30 2733 H 261.147 0.115274 0.743112 0
M  V30 2734 H 263.118 1.28151 2.69481 0
M  V30 2735 C 261.867 -0.319792 3.46226 0
M  V30 2736 H 261.19 0.374846 3.98039 0
M  V30 2737 H 262.63 -0.642435 4.19105 0
M  V30 2738 C 261.089 -1.53209 3.00048 0
M  V30 2739 O 261.619 -2.6309 3.03557 0
M  V30 2740 N 259.825 -1.38326 2.55566 0
M  V30 2741 H 259.372 -0.489292 2.5291 0
M  V30 2742 H 259.33 -2.19564 2.25031 0
M  V30 2743 N 263.102 -1.41638 0.69111 0
M  V30 2744 C 264.33 -2.05628 0.22909 0
M  V30 2745 C 264.745 -1.51992 -1.11999 0
M  V30 2746 O 264.102 -0.666322 -1.69901 0
M  V30 2747 C 264.153 -3.61084 0.173283 0
M  V30 2748 O 263.874 -4.12735 1.46907 0
M  V30 2749 C 265.375 -4.42213 -0.310266 0
M  V30 2750 H 262.595 -0.662327 0.107534 0
M  V30 2751 H 265.139 -1.81489 0.942438 0
M  V30 2752 H 263.294 -3.84278 -0.490858 0
M  V30 2753 H 263.708 -5.06743 1.35322 0
M  V30 2754 H 265.182 -5.51194 -0.298196 0
M  V30 2755 H 265.659 -4.1799 -1.34838 0
M  V30 2756 H 266.265 -4.24074 0.322716 0
M  V30 2757 N 264.58 -0.43555 -1.51462 0
M  V30 2758 C 265.857 0.191364 -1.94662 0
M  V30 2759 C 266.237 1.60254 -1.37411 0
M  V30 2760 O 265.585 2.2152 -0.560458 0
M  V30 2761 C 265.795 0.17091 -3.48581 0
M  V30 2762 C 267.143 0.377357 -4.2292 0
M  V30 2763 O 268.167 0.249104 -3.55328 0
M  V30 2764 O 267.026 0.63247 -5.42828 0
M  V30 2765 H 264.12 0.130932 -0.816569 0
M  V30 2766 H 266.666 -0.4934 -1.62369 0
M  V30 2767 H 265.438 -0.815738 -3.82703 0
M  V30 2768 H 265.061 0.898659 -3.87311 0
M  V30 2769 N 266.058 1.56714 -0.166846 0
M  V30 2770 C 267.335 1.88412 0.525373 0
M  V30 2771 C 267.715 1.07602 1.81618 0
M  V30 2772 O 267.063 0.168621 2.27877 0
M  V30 2773 C 267.273 3.40363 0.771613 0
M  V30 2774 C 268.621 4.10007 1.1036 0
M  V30 2775 O 269.645 3.45655 0.860304 0
M  V30 2776 O 268.504 5.2369 1.56239 0
M  V30 2777 H 265.598 0.781587 0.270278 0
M  V30 2778 H 268.144 1.68458 -0.204946 0
M  V30 2779 H 266.916 3.91046 -0.141093 0
M  V30 2780 H 266.539 3.65914 1.55541 0
M  V30 2781 N 267.536 -0.106894 1.57237 0
M  V30 2782 C 268.466 -1.13148 2.04254 0
M  V30 2783 C 269.447 -1.42476 0.929224 0
M  V30 2784 O 270.632 -1.52709 1.19973 0
M  V30 2785 C 267.762 -2.4545 2.45706 0
M  V30 2786 C 266.716 -2.30558 3.60592 0
M  V30 2787 C 266.042 -3.67931 3.87983 0
M  V30 2788 C 267.342 -1.75597 4.91897 0
M  V30 2789 H 269.036 -0.740374 2.90101 0
M  V30 2790 H 266.582 -0.354696 1.39563 0
M  V30 2791 H 268.535 -3.17389 2.77205 0
M  V30 2792 H 267.259 -2.86475 1.56843 0
M  V30 2793 H 265.918 -1.61067 3.29322 0
M  V30 2794 H 265.566 -4.06462 2.96306 0
M  V30 2795 H 265.266 -3.58817 4.65322 0
M  V30 2796 H 266.79 -4.41356 4.21945 0
M  V30 2797 H 268.204 -2.37364 5.21854 0
M  V30 2798 H 266.601 -1.77272 5.73319 0
M  V30 2799 H 267.671 -0.714451 4.79608 0
M  V30 2800 N 269.014 -1.53014 -0.377408 0
M  V30 2801 C 270.239 -1.72818 -1.14668 0
M  V30 2802 C 270.664 -0.450725 -1.8262 0
M  V30 2803 O 270.022 0.59439 -1.7128 0
M  V30 2804 C 270.07 -2.88627 -2.16164 0
M  V30 2805 O 269.174 -2.56409 -3.22998 0
M  V30 2806 H 268.515 -0.574301 -0.333278 0
M  V30 2807 H 271.045 -1.99853 -0.438152 0
M  V30 2808 H 271.055 -3.14455 -2.59966 0
M  V30 2809 H 269.73 -3.81294 -1.66095 0
M  V30 2810 H 268.307 -2.4136 -2.84253 0
M  V30 2811 N 270.492 0.636531 -1.44174 0
M  V30 2812 C 271.903 1.21806 -1.41493 0
M  V30 2813 C 272.254 1.95785 -0.1275 0
M  V30 2814 O 271.379 2.02147 0.772376 0
M  V30 2815 C 271.974 2.21551 -2.56321 0
M  V30 2816 C 270.533 2.75143 -2.56853 0
M  V30 2817 C 269.68 1.50052 -2.33195 0
M  V30 2818 H 272.631 0.427531 -1.52833 0
M  V30 2819 H 272.652 3.0405 -2.28765 0
M  V30 2820 H 272.164 1.67679 -3.50008 0
M  V30 2821 H 270.265 3.33033 -1.67093 0
M  V30 2822 H 270.378 3.2155 -3.55165 0
M  V30 2823 H 268.742 1.77993 -1.82183 0
M  V30 2824 H 269.525 0.980903 -3.28988 0
M  V30 2825 N 271.97 1.30982 0.876444 0
M  V30 2826 C 272.933 1.18054 1.96459 0
M  V30 2827 C 273.933 0.109399 1.60427 0
M  V30 2828 O 275.123 0.358173 1.70478 0
M  V30 2829 C 272.255 0.810616 3.31122 0
M  V30 2830 H 273.448 2.14735 2.09354 0
M  V30 2831 H 271.001 1.145 1.06392 0
M  V30 2832 H 271.736 -0.155322 3.23928 0
M  V30 2833 H 271.521 1.58481 3.58645 0
M  V30 2834 H 273.011 0.743876 4.10921 0
M  V30 2835 N 273.449 -1.08991 1.13837 0
M  V30 2836 C 274.86 -1.62746 0.914917 0
M  V30 2837 C 275.211 -1.88403 -0.547594 0
M  V30 2838 O 274.336 -1.63706 -1.41525 0
M  V30 2839 C 274.931 -2.95662 1.65437 0
M  V30 2840 C 273.49 -3.46225 1.47666 0
M  V30 2841 C 272.637 -2.20562 1.6807 0
M  V30 2842 H 275.588 -0.922946 1.29102 0
M  V30 2843 H 275.609 -3.63825 1.11407 0
M  V30 2844 H 275.121 -2.76956 2.71877 0
M  V30 2845 H 273.222 -3.70046 0.435478 0
M  V30 2846 H 273.335 -4.23368 2.24268 0
M  V30 2847 H 271.699 -2.29439 1.10589 0
M  V30 2848 H 272.482 -2.0437 2.7584 0
M  V30 2849 N 274.927 -0.932562 -1.27047 0
M  V30 2850 C 276.204 -0.49377 -1.89265 0
M  V30 2851 C 276.584 1.02833 -1.8436 0
M  V30 2852 O 275.932 1.88461 -1.29209 0
M  V30 2853 C 276.142 -1.04536 -3.32976 0
M  V30 2854 C 277.49 -1.10879 -4.09867 0
M  V30 2855 O 278.514 -0.995327 -3.42011 0
M  V30 2856 O 277.373 -1.28417 -5.31198 0
M  V30 2857 H 274.467 -0.159596 -0.811454 0
M  V30 2858 H 277.013 -1.02457 -1.3528 0
M  V30 2859 H 275.785 -2.08913 -3.30864 0
M  V30 2860 H 275.408 -0.496494 -3.94488 0
M  V30 2861 N 276.405 1.4127 -0.698611 0
M  V30 2862 C 277.368 2.29158 -0.044132 0
M  V30 2863 C 278.368 1.44529 0.704841 0
M  V30 2864 O 279.558 1.65643 0.539276 0
M  V30 2865 C 276.69 3.27459 0.947809 0
M  V30 2866 H 277.883 2.88529 -0.817994 0
M  V30 2867 H 275.436 1.49307 -0.46228 0
M  V30 2868 H 276.171 2.73073 1.74933 0
M  V30 2869 H 275.956 3.8991 0.41385 0
M  V30 2870 H 277.446 3.93311 1.40344 0
M  V30 2871 N 277.883 0.443576 1.51229 0
M  V30 2872 C 279.129 -0.11321 2.03085 0
M  V30 2873 C 279.484 -1.39841 1.32145 0
M  V30 2874 O 278.777 -1.86723 0.429542 0
M  V30 2875 C 278.971 -0.380579 3.55368 0
M  V30 2876 C 278.8 0.877157 4.41062 0
M  V30 2877 C 277.57 1.4125 4.85156 0
M  V30 2878 C 279.768 1.76503 4.83064 0
M  V30 2879 N 277.75 2.62213 5.55083 0
M  V30 2880 C 279.121 2.82067 5.52122 0
M  V30 2881 C 281.176 1.7787 4.65045 0
M  V30 2882 C 279.879 3.88952 6.05069 0
M  V30 2883 C 281.905 2.83694 5.18914 0
M  V30 2884 C 281.267 3.87978 5.87922 0
M  V30 2885 H 277.366 -0.00210178 0.781997 0
M  V30 2886 H 279.95 0.605641 1.85041 0
M  V30 2887 H 278.121 -1.06847 3.73414 0
M  V30 2888 H 279.853 -0.929274 3.93887 0
M  V30 2889 H 276.608 0.965542 4.63653 0
M  V30 2890 H 277.032 3.23568 5.9467 0
M  V30 2891 H 281.674 0.985744 4.11148 0
M  V30 2892 H 279.392 4.69082 6.58018 0
M  V30 2893 H 282.978 2.85702 5.06819 0
M  V30 2894 H 281.858 4.68517 6.28857 0
M  V30 2895 N 279.361 -1.56624 0.175154 0
M  V30 2896 C 280.586 -2.01813 -0.478137 0
M  V30 2897 C 281.011 -1.05457 -1.55757 0
M  V30 2898 O 280.369 -0.0347439 -1.81267 0
M  V30 2899 C 280.417 -3.45581 -1.02987 0
M  V30 2900 O 279.521 -3.52305 -2.14371 0
M  V30 2901 H 278.862 -0.65413 -0.114059 0
M  V30 2902 H 281.392 -2.02673 0.280173 0
M  V30 2903 H 281.402 -3.84965 -1.35151 0
M  V30 2904 H 280.077 -4.1521 -0.239556 0
M  V30 2905 H 278.654 -3.24783 -1.83222 0
M  V30 2906 N 280.839 0.0985539 -1.57292 0
M  V30 2907 C 282.255 0.45267 -1.53046 0
M  V30 2908 C 282.455 1.80713 -0.891342 0
M  V30 2909 O 281.511 2.4785 -0.482375 0
M  V30 2910 C 282.824 0.418341 -2.97776 0
M  V30 2911 C 284.372 0.500443 -3.08973 0
M  V30 2912 C 284.847 0.496297 -4.55303 0
M  V30 2913 N 286.338 0.557151 -4.59837 0
M  V30 2914 C 287.073 0.575726 -5.70502 0
M  V30 2915 N 286.569 0.550714 -6.90608 0
M  V30 2916 N 288.362 0.620277 -5.58667 0
M  V30 2917 H 280.513 -0.788673 -1.97215 0
M  V30 2918 H 282.776 -0.293188 -0.901524 0
M  V30 2919 H 282.482 -0.509659 -3.47988 0
M  V30 2920 H 282.356 1.2386 -3.56284 0
M  V30 2921 H 284.743 1.41886 -2.58751 0
M  V30 2922 H 284.824 -0.347894 -2.53423 0
M  V30 2923 H 284.468 -0.418162 -5.06176 0
M  V30 2924 H 284.398 1.3618 -5.08687 0
M  V30 2925 H 286.889 0.581816 -3.73394 0
M  V30 2926 H 287.202 0.568075 -7.70709 0
M  V30 2927 H 285.547 0.517816 -6.93068 0
M  V30 2928 H 288.738 0.637322 -4.63741 0
M  V30 2929 H 288.911 0.631283 -6.44918 0
M  V30 2930 N 282.317 1.53212 0.369288 0
M  V30 2931 C 283.728 1.60943 0.946276 0
M  V30 2932 C 284.079 0.47452 1.90375 0
M  V30 2933 O 283.204 -0.399597 2.12679 0
M  V30 2934 C 283.799 2.91715 1.72302 0
M  V30 2935 C 282.358 3.01792 2.24941 0
M  V30 2936 C 281.505 2.56211 1.06072 0
M  V30 2937 H 284.456 1.58007 0.148198 0
M  V30 2938 H 284.477 2.79309 2.58393 0
M  V30 2939 H 283.989 3.74295 1.0259 0
M  V30 2940 H 282.09 2.23791 2.97906 0
M  V30 2941 H 282.203 4.06803 2.53077 0
M  V30 2942 H 280.567 2.10998 1.4266 0
M  V30 2943 H 281.35 3.41206 0.378639 0
M  V30 2944 N 283.795 -0.628877 1.44509 0
M  V30 2945 C 285.072 -1.38733 1.37886 0
M  V30 2946 C 285.452 -2.11065 0.0387008 0
M  V30 2947 O 284.8 -2.06476 -0.97878 0
M  V30 2948 C 285.01 -2.35188 2.57852 0
M  V30 2949 C 286.358 -2.9845 3.02014 0
M  V30 2950 O 287.382 -2.45513 2.58073 0
M  V30 2951 O 286.241 -3.94487 3.78209 0
M  V30 2952 H 283.335 -0.621015 0.54614 0
M  V30 2953 H 285.881 -0.653744 1.56602 0
M  V30 2954 H 284.653 -1.80855 3.46998 0
M  V30 2955 H 284.276 -3.1596 2.4136 0
M  V30 2956 N 285.273 -1.31445 -0.869486 0
M  V30 2957 C 286.522 -1.20517 -1.61736 0
M  V30 2958 C 286.835 0.235341 -1.94179 0
M  V30 2959 O 288.041 0.466312 -2.67465 0
M  V30 2960 C 286.497 -2.10982 -2.91573 0
M  V30 2961 C 286.105 -3.60032 -2.66611 0
M  V30 2962 C 287.849 -2.08856 -3.69567 0
M  V30 2963 C 285.756 -4.42503 -3.92358 0
M  V30 2964 H 284.686 -0.447493 -0.606849 0
M  V30 2965 H 287.337 -1.56303 -0.96133 0
M  V30 2966 H 285.719 -1.68095 -3.58553 0
M  V30 2967 H 286.893 -4.11167 -2.08035 0
M  V30 2968 H 285.208 -3.64139 -2.0197 0
M  V30 2969 H 287.805 -2.67716 -4.62852 0
M  V30 2970 H 288.148 -1.07582 -4.02159 0
M  V30 2971 H 288.681 -2.49945 -3.09471 0
M  V30 2972 H 285.42 -5.44533 -3.64916 0
M  V30 2973 H 284.94 -3.96125 -4.50383 0
M  V30 2974 H 286.619 -4.54741 -4.60238 0
M  V30 2975 N 286.751 1.08385 -1.14413 0
M  V30 2976 C 288.162 1.62258 -0.923535 0
M  V30 2977 C 288.513 1.88691 0.537595 0
M  V30 2978 O 287.638 1.64454 1.40655 0
M  V30 2979 C 288.233 2.94781 -1.67002 0
M  V30 2980 C 286.792 3.45437 -1.495 0
M  V30 2981 C 285.939 2.19668 -1.69238 0
M  V30 2982 H 288.89 0.916086 -1.2959 0
M  V30 2983 H 288.911 3.63229 -1.13334 0
M  V30 2984 H 288.423 2.7551 -2.73342 0
M  V30 2985 H 286.524 3.6981 -0.455097 0
M  V30 2986 H 286.637 4.22173 -2.2651 0
M  V30 2987 H 285.001 2.28849 -1.11804 0
M  V30 2988 H 285.784 2.02905 -2.7692 0
M  V30 2989 N 288.23 0.939286 1.26551 0
M  V30 2990 C 289.16 0.465044 2.28822 0
M  V30 2991 C 290.141 -0.480692 1.63167 0
M  V30 2992 O 291.326 -0.382955 1.90387 0
M  V30 2993 C 288.456 -0.27234 3.46231 0
M  V30 2994 C 287.41 0.58666 4.2396 0
M  V30 2995 C 286.736 -0.280573 5.33963 0
M  V30 2996 C 288.036 1.85704 4.88171 0
M  V30 2997 H 289.73 1.31979 2.68741 0
M  V30 2998 H 287.276 0.636061 1.29191 0
M  V30 2999 H 289.229 -0.615133 4.16886 0
M  V30 3000 H 287.953 -1.16121 3.0526 0
M  V30 3001 H 286.612 0.91232 3.55067 0
M  V30 3002 H 286.26 -1.16874 4.89234 0
M  V30 3003 H 285.96 0.29076 5.8688 0
M  V30 3004 H 287.484 -0.618678 6.07458 0
M  V30 3005 H 288.898 1.58161 5.51052 0
M  V30 3006 H 287.295 2.37279 5.51197 0
M  V30 3007 H 288.365 2.56957 4.11219 0
M  V30 3008 N 289.708 -1.40897 0.706093 0
M  V30 3009 C 290.658 -2.27987 0.0240746 0
M  V30 3010 C 291.642 -1.42759 -0.742204 0
M  V30 3011 O 292.834 -1.65936 -0.615966 0
M  V30 3012 C 289.963 -3.31186 -0.903907 0
M  V30 3013 C 289.049 -4.2389 -0.133318 0
M  V30 3014 N 289.44 -4.98113 0.878444 0
M  V30 3015 C 287.738 -4.44485 -0.367269 0
M  V30 3016 C 288.439 -5.6604 1.34064 0
M  V30 3017 N 287.415 -5.39522 0.664565 0
M  V30 3018 H 291.217 -2.82812 0.799658 0
M  V30 3019 H 288.731 -1.53235 0.537845 0
M  V30 3020 H 290.728 -3.92413 -1.40775 0
M  V30 3021 H 289.388 -2.77922 -1.67897 0
M  V30 3022 H 290.399 -5.02364 1.25901 0
M  V30 3023 H 287.076 -4.02213 -1.1194 0
M  V30 3024 H 288.466 -6.35524 2.1808 0
M  V30 3025 N 291.186 -0.45159 -1.50991 0
M  V30 3026 C 292.149 0.341117 -2.26647 0
M  V30 3027 C 293.149 0.937422 -1.30649 0
M  V30 3028 O 294.339 0.809644 -1.54241 0
M  V30 3029 C 291.471 1.48398 -3.06905 0
M  V30 3030 H 292.664 -0.322117 -2.98165 0
M  V30 3031 H 290.217 -0.205122 -1.54948 0
M  V30 3032 H 290.952 2.18284 -2.39838 0
M  V30 3033 H 290.737 1.06241 -3.77432 0
M  V30 3034 H 292.227 2.04367 -3.64176 0
M  V30 3035 N 292.664 1.56529 -0.183458 0
M  V30 3036 C 293.594 2.21549 0.737456 0
M  V30 3037 C 294.575 1.17489 1.23005 0
M  V30 3038 O 295.76 1.45959 1.281 0
M  V30 3039 C 292.89 2.86575 1.96194 0
M  V30 3040 C 291.844 3.96778 1.60473 0
M  V30 3041 C 291.17 4.48911 2.90487 0
M  V30 3042 C 292.47 5.15767 0.823497 0
M  V30 3043 H 294.164 2.98761 0.195453 0
M  V30 3044 H 291.71 1.43702 0.0925686 0
M  V30 3045 H 293.663 3.30739 2.61131 0
M  V30 3046 H 292.387 2.06749 2.52828 0
M  V30 3047 H 291.046 3.53286 0.978997 0
M  V30 3048 H 290.694 3.65862 3.45186 0
M  V30 3049 H 290.394 5.23265 2.67335 0
M  V30 3050 H 291.918 4.95771 3.56432 0
M  V30 3051 H 293.332 5.56549 1.37571 0
M  V30 3052 H 291.729 5.96114 0.690551 0
M  V30 3053 H 292.799 4.84574 -0.177782 0
M  V30 3054 N 294.142 -0.090211 1.57342 0
M  V30 3055 C 295.105 -1.09335 2.01441 0
M  V30 3056 C 296.105 -1.32666 0.908641 0
M  V30 3057 O 297.295 -1.28697 1.174 0
M  V30 3058 C 294.427 -2.44136 2.3793 0
M  V30 3059 H 295.62 -0.713662 2.91285 0
M  V30 3060 H 293.173 -0.335404 1.52659 0
M  V30 3061 H 293.908 -2.86972 1.51055 0
M  V30 3062 H 293.693 -2.28548 3.18603 0
M  V30 3063 H 295.183 -3.16277 2.72688 0
M  V30 3064 N 295.62 -1.53406 -0.361157 0
M  V30 3065 C 296.553 -1.74946 -1.46524 0
M  V30 3066 C 297.531 -0.59795 -1.51206 0
M  V30 3067 O 298.715 -0.831062 -1.69191 0
M  V30 3068 C 295.842 -1.83224 -2.84863 0
M  V30 3069 C 294.888 -3.05233 -2.97885 0
M  V30 3070 S 295.721 -4.6466 -2.66179 0
M  V30 3071 C 296.877 -4.75793 -4.06659 0
M  V30 3072 H 297.11 -2.68319 -1.28033 0
M  V30 3073 H 294.643 -1.44051 -0.555764 0
M  V30 3074 H 296.601 -1.88679 -3.64569 0
M  V30 3075 H 295.262 -0.908948 -3.00661 0
M  V30 3076 H 294.455 -3.07648 -3.9921 0
M  V30 3077 H 294.057 -2.97913 -2.26106 0
M  V30 3078 H 296.349 -4.5612 -5.0096 0
M  V30 3079 H 297.292 -5.7786 -4.09247 0
M  V30 3080 H 297.7 -4.04389 -3.93865 0
M  V30 3081 N 297.098 0.621204 -1.44841 0
M  V30 3082 C 298.028 1.74366 -1.55303 0
M  V30 3083 C 299.009 1.65199 -0.405385 0
M  V30 3084 O 300.194 1.83807 -0.626787 0
M  V30 3085 C 297.324 3.12931 -1.50637 0
M  V30 3086 C 296.278 3.36896 -2.63979 0
M  V30 3087 C 295.604 4.75594 -2.44366 0
M  V30 3088 C 296.904 3.28483 -4.06074 0
M  V30 3089 H 298.598 1.65867 -2.49256 0
M  V30 3090 H 296.144 0.796558 -1.19962 0
M  V30 3091 H 298.097 3.9124 -1.56555 0
M  V30 3092 H 296.821 3.22237 -0.532057 0
M  V30 3093 H 295.48 2.60972 -2.57467 0
M  V30 3094 H 295.128 4.81616 -1.45105 0
M  V30 3095 H 294.828 4.92586 -3.20364 0
M  V30 3096 H 296.352 5.5612 -2.52117 0
M  V30 3097 H 297.766 3.96684 -4.13902 0
M  V30 3098 H 296.163 3.57008 -4.82354 0
M  V30 3099 H 297.233 2.26133 -4.28943 0
M  V30 3100 N 298.576 1.31904 0.862503 0
M  V30 3101 C 299.523 1.20182 1.9704 0
M  V30 3102 C 300.493 0.0858247 1.65878 0
M  V30 3103 O 301.678 0.26 1.8902 0
M  V30 3104 C 298.818 0.922797 3.32533 0
M  V30 3105 C 297.931 2.12284 3.76244 0
M  V30 3106 C 297.066 1.77996 5.00491 0
M  V30 3107 C 296.105 2.94366 5.36671 0
M  V30 3108 N 295.242 2.60223 6.52095 0
M  V30 3109 H 300.082 2.14951 2.06398 0
M  V30 3110 H 297.619 1.06917 1.01031 0
M  V30 3111 H 299.577 0.741548 4.10557 0
M  V30 3112 H 298.207 0.0119227 3.22798 0
M  V30 3113 H 297.259 2.41461 2.9394 0
M  V30 3114 H 298.571 2.99357 3.98982 0
M  V30 3115 H 297.725 1.56377 5.862 0
M  V30 3116 H 296.464 0.881252 4.79672 0
M  V30 3117 H 295.469 3.16625 4.49476 0
M  V30 3118 H 296.694 3.84957 5.59451 0
M  V30 3119 H 294.64 1.72884 6.32809 0
M  V30 3120 H 294.557 3.40827 6.74814 0
M  V30 3121 H 295.825 2.42016 7.40978 0
M  V30 3122 N 300.054 -1.07777 1.14986 0
M  V30 3123 C 301.002 -2.16964 0.838406 0
M  V30 3124 C 301.996 -1.68372 -0.186386 0
M  V30 3125 O 303.202 -1.79951 -0.0418465 0
M  V30 3126 H 299.577 -0.708006 0.253439 0
M  V30 3127 H 301.548 -2.40454 1.76704 0
M  V30 3128 C 300.297 -3.4604 0.339335 0
M  V30 3129 H 299.62 -3.83813 1.11927 0
M  V30 3130 H 301.06 -4.23698 0.160021 0
M  V30 3131 C 299.519 -3.23569 -0.938325 0
M  V30 3132 O 300.049 -3.47752 -2.01077 0
M  V30 3133 N 298.255 -2.77079 -0.876117 0
M  V30 3134 H 297.802 -2.576 -0.00322037 0
M  V30 3135 H 297.76 -2.62422 -1.73153 0
M  V30 3136 N 301.532 -0.945985 -1.26051 0
M  V30 3137 C 302.495 -0.463897 -2.24456 0
M  V30 3138 C 303.495 0.427655 -1.55009 0
M  V30 3139 O 304.685 0.226157 -1.72726 0
M  V30 3140 C 301.817 0.330812 -3.39291 0
M  V30 3141 H 303.01 -1.33357 -2.68619 0
M  V30 3142 H 300.563 -0.728416 -1.38289 0
M  V30 3143 H 301.298 1.21852 -3.00537 0
M  V30 3144 H 301.083 -0.308679 -3.90883 0
M  V30 3145 H 302.573 0.657865 -4.12386 0
M  V30 3146 N 303.011 1.40521 -0.713556 0
M  V30 3147 C 304.427 1.54839 -0.386907 0
M  V30 3148 C 304.627 1.68532 1.1045 0
M  V30 3149 O 303.683 1.67377 1.89053 0
M  V30 3150 C 304.996 2.77792 -1.15118 0
M  V30 3151 C 306.544 2.91607 -1.13729 0
M  V30 3152 C 307.019 4.1747 -1.88368 0
M  V30 3153 N 308.51 4.24466 -1.85427 0
M  V30 3154 C 309.245 5.20755 -2.40004 0
M  V30 3155 N 308.741 6.22965 -3.03129 0
M  V30 3156 N 310.534 5.1282 -2.30158 0
M  V30 3157 H 302.685 1.29879 -1.68063 0
M  V30 3158 H 304.948 0.627896 -0.710247 0
M  V30 3159 H 304.654 2.73944 -2.20561 0
M  V30 3160 H 304.528 3.6984 -0.741477 0
M  V30 3161 H 306.915 2.94959 -0.0910608 0
M  V30 3162 H 306.996 2.00682 -1.5862 0
M  V30 3163 H 306.64 4.1488 -2.9298 0
M  V30 3164 H 306.57 5.074 -1.40898 0
M  V30 3165 H 309.061 3.51241 -1.3942 0
M  V30 3166 H 309.374 6.92859 -3.42295 0
M  V30 3167 H 307.719 6.23415 -3.07212 0
M  V30 3168 H 310.91 4.31899 -1.80501 0
M  V30 3169 H 311.083 5.87689 -2.72993 0
M  V30 3170 N 304.489 0.459591 1.5075 0
M  V30 3171 C 305.399 -0.34613 2.32033 0
M  V30 3172 C 306.415 -1.00686 1.41909 0
M  V30 3173 O 307.591 -0.997361 1.7497 0
M  V30 3174 C 304.656 -1.42029 3.16273 0
M  V30 3175 C 303.717 -0.777362 4.22203 0
M  V30 3176 C 302.95 -1.80034 5.02418 0
M  V30 3177 O 303.173 -3.02544 4.83553 0
M  V30 3178 O 302.107 -1.37853 5.85901 0
M  V30 3179 H 305.933 0.318054 3.0203 0
M  V30 3180 H 303.518 0.221663 1.47746 0
M  V30 3181 H 305.4 -2.04275 3.68578 0
M  V30 3182 H 304.075 -2.06815 2.49016 0
M  V30 3183 H 302.982 -0.116256 3.73919 0
M  V30 3184 H 304.315 -0.172634 4.91897 0
M  V30 3185 N 305.967 -1.56429 0.191757 0
M  V30 3186 C 307.215 -1.97095 -0.447006 0
M  V30 3187 C 307.536 -1.07967 -1.62383 0
M  V30 3188 O 306.806 -0.150248 -1.95323 0
M  V30 3189 H 305.386 -0.727832 -0.168135 0
M  V30 3190 H 308.048 -1.92911 0.27771 0
M  V30 3191 H 307.144 -3.01848 -0.793371 0
M  V30 3192 N 307.445 0.0818655 -1.57387 0
M  V30 3193 C 308.694 0.781681 -1.85937 0
M  V30 3194 C 309.007 1.79246 -0.782957 0
M  V30 3195 O 310.213 2.54112 -0.955987 0
M  V30 3196 C 308.669 1.44109 -3.29789 0
M  V30 3197 C 308.277 0.469396 -4.45534 0
M  V30 3198 C 310.021 2.12386 -3.67549 0
M  V30 3199 C 307.928 1.13415 -5.80423 0
M  V30 3200 H 306.858 0.295682 -0.693605 0
M  V30 3201 H 309.509 0.0348051 -1.83467 0
M  V30 3202 H 307.891 2.23588 -3.2684 0
M  V30 3203 H 309.065 -0.294856 -4.59856 0
M  V30 3204 H 307.38 -0.108383 -4.16259 0
M  V30 3205 H 309.977 2.62878 -4.65617 0
M  V30 3206 H 310.32 2.91877 -2.96839 0
M  V30 3207 H 310.853 1.39751 -3.72444 0
M  V30 3208 H 307.592 0.379771 -6.54399 0
M  V30 3209 H 307.112 1.8695 -5.69921 0
M  V30 3210 H 308.791 1.65686 -6.25426 0
M  V30 3211 N 308.923 1.53595 0.353017 0
M  V30 3212 C 309.833 1.83897 1.45667 0
M  V30 3213 C 310.849 0.728334 1.58023 0
M  V30 3214 O 312.025 1.01968 1.73679 0
M  V30 3215 C 309.09 2.03383 2.80778 0
M  V30 3216 C 308.151 3.27262 2.77845 0
M  V30 3217 C 307.384 3.45809 4.06512 0
M  V30 3218 O 307.607 2.68387 5.03314 0
M  V30 3219 O 306.541 4.39207 4.11559 0
M  V30 3220 H 310.367 2.77686 1.2298 0
M  V30 3221 H 307.952 1.39132 0.544308 0
M  V30 3222 H 309.834 2.17698 3.60812 0
M  V30 3223 H 308.509 1.12783 3.03417 0
M  V30 3224 H 307.416 3.18359 1.96465 0
M  V30 3225 H 308.749 4.17824 2.60161 0
M  V30 3226 N 310.401 -0.613514 1.45168 0
M  V30 3227 C 311.812 -1.19539 1.43413 0
M  V30 3228 C 312.163 -1.95558 0.158632 0
M  V30 3229 O 311.288 -2.0335 -0.740119 0
M  V30 3230 C 311.883 -2.17445 2.59813 0
M  V30 3231 C 310.442 -2.71022 2.61197 0
M  V30 3232 C 309.589 -1.46323 2.35552 0
M  V30 3233 H 312.54 -0.403163 1.53494 0
M  V30 3234 H 312.561 -3.00373 2.33574 0
M  V30 3235 H 312.073 -1.62089 3.52631 0
M  V30 3236 H 310.174 -3.30332 1.7237 0
M  V30 3237 H 310.287 -3.15859 3.60236 0
M  V30 3238 H 308.651 -1.75072 1.84992 0
M  V30 3239 H 309.434 -0.92844 3.30507 0
M  V30 3240 N 311.879 -1.3236 -0.855495 0
M  V30 3241 C 313.156 -1.13491 -1.59309 0
M  V30 3242 C 313.536 0.30503 -2.08885 0
M  V30 3243 O 312.884 1.30151 -1.87811 0
M  V30 3244 C 313.094 -2.16176 -2.73987 0
M  V30 3245 C 314.442 -2.49463 -3.43589 0
M  V30 3246 O 315.466 -2.14715 -2.84211 0
M  V30 3247 O 314.325 -3.09027 -4.50738 0
M  V30 3248 H 311.419 -0.437887 -0.701559 0
M  V30 3249 H 313.965 -1.43887 -0.899696 0
M  V30 3250 H 312.737 -3.1297 -2.34873 0
M  V30 3251 H 312.36 -1.86769 -3.51003 0
M  V30 3252 N 313.357 1.07166 -1.15556 0
M  V30 3253 C 314.289 2.14341 -0.811815 0
M  V30 3254 C 315.302 1.61835 0.177015 0
M  V30 3255 O 316.491 1.78439 -0.0464996 0
M  V30 3256 C 313.591 3.38387 -0.186481 0
M  V30 3257 C 312.764 4.20238 -1.21321 0
M  V30 3258 C 311.823 5.2266 -0.609302 0
M  V30 3259 O 310.849 5.54719 -1.27576 0
M  V30 3260 N 312.051 5.77306 0.608099 0
M  V30 3261 H 314.816 2.44431 -1.73417 0
M  V30 3262 H 312.377 1.23089 -1.0517 0
M  V30 3263 H 314.369 4.04044 0.230339 0
M  V30 3264 H 312.939 3.05994 0.639249 0
M  V30 3265 H 312.159 3.50369 -1.80652 0
M  V30 3266 H 313.447 4.71736 -1.90638 0
M  V30 3267 H 312.845 5.53513 1.1679 0
M  V30 3268 H 311.402 6.44583 0.96725 0
M  V30 3269 N 314.835 0.952656 1.25548 0
M  V30 3270 C 316.246 0.647392 1.75116 0
M  V30 3271 C 316.597 -0.837274 1.77438 0
M  V30 3272 O 315.722 -1.65525 1.39393 0
M  V30 3273 C 316.317 1.16845 3.18014 0
M  V30 3274 C 314.876 0.913382 3.6515 0
M  V30 3275 C 314.023 1.31265 2.44264 0
M  V30 3276 H 316.974 1.12968 1.11462 0
M  V30 3277 H 316.995 0.527606 3.76824 0
M  V30 3278 H 316.507 2.24902 3.16292 0
M  V30 3279 H 314.608 -0.152316 3.72289 0
M  V30 3280 H 314.721 1.54845 4.53387 0
M  V30 3281 H 313.085 0.731028 2.43984 0
M  V30 3282 H 313.868 2.40239 2.45234 0
M  V30 3283 N 316.313 -1.40141 0.720998 0
M  V30 3284 C 317.561 -2.0039 0.262323 0
M  V30 3285 C 317.882 -1.57469 -1.15015 0
M  V30 3286 O 317.152 -0.816582 -1.78069 0
M  V30 3287 H 315.732 -0.741063 0.093996 0
M  V30 3288 H 318.394 -1.71398 0.927835 0
M  V30 3289 H 317.49 -3.10658 0.299671 0
M  V30 3290 N 317.792 -0.46758 -1.50504 0
M  V30 3291 C 319.038 0.0887532 -2.02606 0
M  V30 3292 C 319.371 1.39686 -1.34913 0
M  V30 3293 O 318.646 1.88644 -0.473694 0
M  V30 3294 C 318.929 0.276206 -3.59039 0
M  V30 3295 C 318.782 -1.05267 -4.37309 0
M  V30 3296 C 320.101 1.03235 -4.27821 0
M  V30 3297 H 317.22 0.0307814 -0.736357 0
M  V30 3298 H 319.862 -0.612485 -1.79857 0
M  V30 3299 H 318.012 0.8735 -3.78553 0
M  V30 3300 H 319.684 -1.68628 -4.29374 0
M  V30 3301 H 317.927 -1.65015 -4.01189 0
M  V30 3302 H 318.598 -0.875197 -5.45018 0
M  V30 3303 H 321.074 0.526111 -4.12761 0
M  V30 3304 H 319.95 1.1323 -5.37094 0
M  V30 3305 H 320.211 2.06806 -3.90748 0
M  V30 3306 N 319.27 1.56325 -0.20005 0
M  V30 3307 C 320.516 1.98012 0.438059 0
M  V30 3308 C 320.849 1.08702 1.60927 0
M  V30 3309 O 320.124 0.140064 1.93995 0
M  V30 3310 C 320.407 3.48841 0.893419 0
M  V30 3311 C 320.26 4.48928 -0.279947 0
M  V30 3312 C 321.579 4.03498 1.75719 0
M  V30 3313 H 318.698 0.719918 0.157757 0
M  V30 3314 H 321.34 1.87743 -0.291968 0
M  V30 3315 H 319.49 3.57723 1.51547 0
M  V30 3316 H 321.162 4.52079 -0.91772 0
M  V30 3317 H 319.405 4.23694 -0.930919 0
M  V30 3318 H 320.076 5.5194 0.0812601 0
M  V30 3319 H 322.552 3.97427 1.23253 0
M  V30 3320 H 321.428 5.09393 2.04476 0
M  V30 3321 H 321.689 3.4906 2.71311 0
M  V30 3322 N 320.748 -0.0735177 1.57428 0
M  V30 3323 C 321.996 -0.771472 1.86796 0
M  V30 3324 C 322.317 -1.78201 0.791804 0
M  V30 3325 O 321.587 -1.95074 -0.179718 0
M  V30 3326 H 320.167 -0.28791 0.689287 0
M  V30 3327 H 322.829 -0.0500161 1.94836 0
M  V30 3328 H 321.925 -1.28874 2.8425 0
M  V30 3329 N 322.226 -1.5378 -0.344866 0
M  V30 3330 C 323.637 -1.62428 -0.920552 0
M  V30 3331 C 323.988 -0.504747 -1.89596 0
M  V30 3332 O 323.113 0.365711 -2.13287 0
M  V30 3333 C 323.708 -2.94419 -1.67639 0
M  V30 3334 C 322.267 -3.05333 -2.20111 0
M  V30 3335 C 321.414 -2.57866 -1.01982 0
M  V30 3336 H 324.365 -1.58222 -0.123042 0
M  V30 3337 H 324.386 -2.83384 -2.53917 0
M  V30 3338 H 323.898 -3.7588 -0.966224 0
M  V30 3339 H 321.999 -2.28502 -2.94308 0
M  V30 3340 H 322.112 -4.10778 -2.46573 0
M  V30 3341 H 320.476 -2.13241 -1.39285 0
M  V30 3342 H 321.259 -3.41765 -0.324308 0
M  V30 3343 N 323.704 0.605807 -1.45491 0
M  V30 3344 C 324.953 1.36086 -1.48874 0
M  V30 3345 C 325.266 1.95131 -0.135333 0
M  V30 3346 O 326.472 2.7146 -0.0468144 0
M  V30 3347 C 324.928 2.46518 -2.62215 0
M  V30 3348 C 324.536 1.93877 -4.03876 0
M  V30 3349 C 326.28 3.23512 -2.74846 0
M  V30 3350 C 324.187 3.01801 -5.08596 0
M  V30 3351 H 323.117 0.511497 -0.553974 0
M  V30 3352 H 325.768 0.649089 -1.71636 0
M  V30 3353 H 324.15 3.20388 -2.32739 0
M  V30 3354 H 325.324 1.26704 -4.43038 0
M  V30 3355 H 323.639 1.29622 -3.95711 0
M  V30 3356 H 326.236 4.04013 -3.50253 0
M  V30 3357 H 326.579 3.74631 -1.81542 0
M  V30 3358 H 327.112 2.56742 -3.03856 0
M  V30 3359 H 323.851 2.55597 -6.03614 0
M  V30 3360 H 323.371 3.67535 -4.74002 0
M  V30 3361 H 325.05 3.66152 -5.33424 0
M  V30 3362 N 325.182 1.32811 0.848464 0
M  V30 3363 C 326.129 1.22265 1.95755 0
M  V30 3364 C 327.099 0.103413 1.65778 0
M  V30 3365 O 328.284 0.280033 1.88734 0
M  V30 3366 C 325.424 0.958014 3.31536 0
M  V30 3367 C 324.537 2.16262 3.73971 0
M  V30 3368 C 323.672 1.83295 4.98575 0
M  V30 3369 C 322.711 3.00041 5.33518 0
M  V30 3370 N 321.848 2.67125 6.49299 0
M  V30 3371 H 326.688 2.17128 2.04107 0
M  V30 3372 H 324.225 1.07982 0.998913 0
M  V30 3373 H 326.183 0.785052 4.09747 0
M  V30 3374 H 324.813 0.046159 3.22767 0
M  V30 3375 H 323.865 2.44565 2.91362 0
M  V30 3376 H 325.177 3.03572 3.95785 0
M  V30 3377 H 324.331 1.62586 5.84509 0
M  V30 3378 H 323.07 0.932078 4.7871 0
M  V30 3379 H 322.075 3.21374 4.46093 0
M  V30 3380 H 323.3 3.90869 5.55336 0
M  V30 3381 H 321.246 1.79586 6.3094 0
M  V30 3382 H 321.163 3.47965 6.71161 0
M  V30 3383 H 322.431 2.49861 7.3837 0
M  V30 3384 N 326.66 -1.06551 1.16123 0
M  V30 3385 C 327.592 -2.13908 0.823171 0
M  V30 3386 C 328.605 -1.61926 -0.16843 0
M  V30 3387 O 329.794 -1.78412 0.055962 0
M  V30 3388 C 326.894 -3.38283 0.204424 0
M  V30 3389 C 326.067 -4.19589 1.23548 0
M  V30 3390 C 325.126 -5.2233 0.637011 0
M  V30 3391 O 324.152 -5.54034 1.30516 0
M  V30 3392 N 325.354 -5.77621 -0.577474 0
M  V30 3393 H 328.119 -2.43508 1.74711 0
M  V30 3394 H 325.68 -1.2253 1.05821 0
M  V30 3395 H 327.672 -4.0416 -0.208909 0
M  V30 3396 H 326.242 -3.06329 -0.623012 0
M  V30 3397 H 325.462 -3.49406 1.82507 0
M  V30 3398 H 326.75 -4.70718 1.93137 0
M  V30 3399 H 326.148 -5.54125 -1.13853 0
M  V30 3400 H 324.705 -6.45087 -0.933053 0
M  V30 3401 N 328.138 -0.959301 -1.25041 0
M  V30 3402 C 329.387 -0.612254 -1.92183 0
M  V30 3403 C 329.7 0.855347 -1.75907 0
M  V30 3404 O 330.906 1.31256 -2.37664 0
M  V30 3405 C 329.362 -1.04435 -3.44414 0
M  V30 3406 C 328.97 -2.53482 -3.69393 0
M  V30 3407 C 330.714 -0.770055 -4.17457 0
M  V30 3408 C 328.621 -2.90468 -5.15153 0
M  V30 3409 H 327.551 -0.225279 -0.719559 0
M  V30 3410 H 330.202 -1.16438 -1.41825 0
M  V30 3411 H 328.584 -0.4206 -3.9376 0
M  V30 3412 H 329.758 -3.20916 -3.30681 0
M  V30 3413 H 328.073 -2.78432 -3.0962 0
M  V30 3414 H 330.67 -1.02249 -5.24832 0
M  V30 3415 H 331.013 0.293611 -4.15263 0
M  V30 3416 H 331.546 -1.35437 -3.74034 0
M  V30 3417 H 328.285 -3.95871 -5.22462 0
M  V30 3418 H 327.805 -2.27711 -5.54894 0
M  V30 3419 H 329.484 -2.79914 -5.83315 0
M  V30 3420 N 329.616 1.39756 -0.72842 0
M  V30 3421 C 330.526 2.34444 -0.0855374 0
M  V30 3422 C 331.542 1.57976 0.729356 0
M  V30 3423 O 332.718 1.90301 0.659346 0
M  V30 3424 C 329.783 3.36965 0.815798 0
M  V30 3425 C 328.844 4.29299 -0.0105996 0
M  V30 3426 C 328.077 5.26923 0.84781 0
M  V30 3427 O 328.3 5.30859 2.08673 0
M  V30 3428 O 327.234 6.01249 0.279969 0
M  V30 3429 H 331.06 2.91065 -0.866892 0
M  V30 3430 H 328.645 1.4117 -0.48902 0
M  V30 3431 H 330.527 3.99804 1.33171 0
M  V30 3432 H 329.202 2.82739 1.57608 0
M  V30 3433 H 328.109 3.69703 -0.571877 0
M  V30 3434 H 329.442 4.86712 -0.73295 0
M  V30 3435 N 331.094 0.475555 1.50254 0
M  V30 3436 C 332.057 -0.305016 2.27161 0
M  V30 3437 C 333.057 -0.916519 1.32123 0
M  V30 3438 O 334.247 -0.785003 1.5551 0
M  V30 3439 C 331.379 -1.43496 3.09227 0
M  V30 3440 H 332.572 0.369511 2.97615 0
M  V30 3441 H 330.125 0.229747 1.54602 0
M  V30 3442 H 330.86 -2.14441 2.43281 0
M  V30 3443 H 330.645 -1.00223 3.79075 0
M  V30 3444 H 332.135 -1.98548 3.67381 0
M  V30 3445 N 332.573 -1.56217 0.208337 0
M  V30 3446 C 333.503 -2.22694 -0.702116 0
M  V30 3447 C 334.484 -1.19432 -1.2112 0
M  V30 3448 O 335.669 -1.47978 -1.25762 0
M  V30 3449 C 332.799 -2.8966 -1.9161 0
M  V30 3450 C 331.753 -3.9928 -1.5414 0
M  V30 3451 C 331.079 -4.53476 -2.83308 0
M  V30 3452 C 332.379 -5.17012 -0.741339 0
M  V30 3453 H 334.073 -2.99034 -0.147898 0
M  V30 3454 H 331.619 -1.43831 -0.0696951 0
M  V30 3455 H 333.572 -3.34852 -2.55836 0
M  V30 3456 H 332.296 -2.10746 -2.49507 0
M  V30 3457 H 330.955 -3.54799 -0.922668 0
M  V30 3458 H 330.603 -3.71308 -3.39322 0
M  V30 3459 H 330.303 -5.27451 -2.58976 0
M  V30 3460 H 331.827 -5.01378 -3.485 0
M  V30 3461 H 333.241 -5.58667 -1.28699 0
M  V30 3462 H 331.638 -5.97137 -0.595627 0
M  V30 3463 H 332.708 -4.8423 0.254851 0
M  V30 3464 N 334.051 0.0651679 -1.57465 0
M  V30 3465 C 334.983 1.10359 -2.00882 0
M  V30 3466 C 335.996 1.346 -0.915788 0
M  V30 3467 O 337.185 1.32723 -1.1936 0
M  V30 3468 C 334.285 2.45312 -2.33828 0
M  V30 3469 C 333.458 2.40934 -3.65061 0
M  V30 3470 C 332.517 3.58047 -3.85602 0
M  V30 3471 O 331.543 3.39175 -4.57109 0
M  V30 3472 N 332.745 4.78637 -3.28462 0
M  V30 3473 H 335.51 0.733807 -2.90578 0
M  V30 3474 H 333.071 0.253719 -1.599 0
M  V30 3475 H 335.063 3.22314 -2.44737 0
M  V30 3476 H 333.633 2.74267 -1.49988 0
M  V30 3477 H 332.853 1.49273 -3.64844 0
M  V30 3478 H 334.141 2.35117 -4.51218 0
M  V30 3479 H 333.539 4.96872 -2.70433 0
M  V30 3480 H 332.096 5.53127 -3.44809 0
M  V30 3481 N 335.529 1.53961 0.336706 0
M  V30 3482 C 336.461 1.78751 1.4346 0
M  V30 3483 C 337.474 0.669019 1.48418 0
M  V30 3484 O 338.663 0.945884 1.51378 0
M  V30 3485 C 335.763 1.87844 2.82078 0
M  V30 3486 C 334.936 3.17854 3.00479 0
M  V30 3487 C 333.995 3.17816 4.19379 0
M  V30 3488 O 333.021 3.91511 4.13168 0
M  V30 3489 N 334.223 2.40669 5.2826 0
M  V30 3490 H 336.988 2.73493 1.22563 0
M  V30 3491 H 334.549 1.53096 0.526625 0
M  V30 3492 H 336.541 1.85261 3.59806 0
M  V30 3493 H 335.111 1.00257 2.96086 0
M  V30 3494 H 334.331 3.33504 2.10163 0
M  V30 3495 H 335.619 4.03718 3.0966 0
M  V30 3496 H 335.017 1.8036 5.36178 0
M  V30 3497 H 333.574 2.43877 6.04456 0
M  V30 3498 N 337.007 -0.598083 1.45811 0
M  V30 3499 C 337.954 -1.7082 1.55207 0
M  V30 3500 C 338.924 -1.61278 0.39732 0
M  V30 3501 O 340.109 -1.80717 0.612038 0
M  V30 3502 C 337.249 -3.09144 1.53376 0
M  V30 3503 C 336.362 -3.29423 2.79472 0
M  V30 3504 C 335.497 -4.57907 2.69248 0
M  V30 3505 C 334.536 -4.71476 3.90354 0
M  V30 3506 N 333.673 -5.9127 3.78608 0
M  V30 3507 H 338.513 -1.62125 2.50039 0
M  V30 3508 H 336.05 -0.790389 1.24062 0
M  V30 3509 H 338.008 -3.89186 1.50301 0
M  V30 3510 H 336.638 -3.16773 0.620876 0
M  V30 3511 H 335.69 -2.43091 2.92594 0
M  V30 3512 H 337.002 -3.3532 3.69272 0
M  V30 3513 H 336.156 -5.46157 2.64192 0
M  V30 3514 H 334.895 -4.54423 1.77063 0
M  V30 3515 H 333.9 -3.81648 3.95759 0
M  V30 3516 H 335.125 -4.76751 4.83617 0
M  V30 3517 H 333.071 -5.88813 2.89199 0
M  V30 3518 H 332.988 -5.98369 4.6205 0
M  V30 3519 H 334.256 -6.81992 3.77501 0
M  V30 3520 N 338.485 -1.33259 -0.841409 0
M  V30 3521 C 339.733 -1.24326 -1.59334 0
M  V30 3522 C 340.054 0.191564 -1.94057 0
M  V30 3523 O 339.324 1.11967 -1.60749 0
M  V30 3524 H 337.904 -0.457174 -0.590763 0
M  V30 3525 H 340.566 -1.66947 -1.00571 0
M  V30 3526 H 339.662 -1.8352 -2.52442 0
M  V30 3527 N 339.963 1.05934 -1.16686 0
M  V30 3528 C 341.21 1.788 -0.950622 0
M  V30 3529 C 341.538 1.87384 0.521305 0
M  V30 3530 O 340.793 1.36438 1.40297 0
M  V30 3531 C 341.092 3.23105 -1.52767 0
M  V30 3532 C 340.758 3.34594 -3.02254 0
M  V30 3533 C 339.42 3.37437 -3.43059 0
M  V30 3534 C 341.772 3.36219 -3.98254 0
M  V30 3535 C 339.1 3.39525 -4.78477 0
M  V30 3536 C 341.452 3.39845 -5.33562 0
M  V30 3537 C 340.116 3.40971 -5.73842 0
M  V30 3538 H 339.386 0.654275 -0.347857 0
M  V30 3539 H 342.033 1.24555 -1.45459 0
M  V30 3540 H 340.338 3.80227 -0.94524 0
M  V30 3541 H 342.035 3.7809 -1.336 0
M  V30 3542 H 338.625 3.3309 -2.6972 0
M  V30 3543 H 342.809 3.33231 -3.67792 0
M  V30 3544 H 338.065 3.38703 -5.09009 0
M  V30 3545 H 342.239 3.4005 -6.07733 0
M  V30 3546 H 339.866 3.42342 -6.78753 0
M  V30 3547 N 341.441 0.965919 1.2453 0
M  V30 3548 C 342.852 0.665929 1.7442 0
M  V30 3549 C 343.203 -0.818407 1.78316 0
M  V30 3550 O 342.328 -1.64037 1.41141 0
M  V30 3551 C 342.923 1.20211 3.16757 0
M  V30 3552 C 341.482 0.952059 3.6416 0
M  V30 3553 C 340.629 1.33848 2.42858 0
M  V30 3554 H 343.58 1.14144 1.10258 0
M  V30 3555 H 343.601 0.567544 3.76244 0
M  V30 3556 H 343.113 2.28244 3.13889 0
M  V30 3557 H 341.214 -0.112821 3.72429 0
M  V30 3558 H 341.327 1.59645 4.51719 0
M  V30 3559 H 339.691 0.756864 2.43195 0
M  V30 3560 H 340.474 2.42827 2.42673 0
M  V30 3561 N 342.919 -1.39368 0.735821 0
M  V30 3562 C 343.849 -2.33234 0.111506 0
M  V30 3563 C 344.83 -1.53954 -0.723334 0
M  V30 3564 O 346.015 -1.82344 -0.668147 0
M  V30 3565 C 343.145 -3.38057 -0.795917 0
M  V30 3566 C 342.099 -4.2795 -0.065172 0
M  V30 3567 C 341.425 -5.23479 -1.08967 0
M  V30 3568 C 342.725 -5.10741 1.09273 0
M  V30 3569 H 344.419 -2.85692 0.895571 0
M  V30 3570 H 341.965 -1.37364 0.432109 0
M  V30 3571 H 343.918 -4.02675 -1.24221 0
M  V30 3572 H 342.642 -2.8404 -1.61211 0
M  V30 3573 H 341.301 -3.64813 0.361511 0
M  V30 3574 H 340.949 -4.65758 -1.89944 0
M  V30 3575 H 340.649 -5.84472 -0.605489 0
M  V30 3576 H 342.173 -5.90974 -1.53565 0
M  V30 3577 H 343.587 -5.68699 0.724841 0
M  V30 3578 H 341.984 -5.8088 1.50659 0
M  V30 3579 H 343.054 -4.45525 1.91404 0
M  V30 3580 N 344.397 -0.483516 -1.5 0
M  V30 3581 C 345.36 0.292965 -2.2732 0
M  V30 3582 C 346.36 0.909499 -1.32608 0
M  V30 3583 O 347.55 0.776745 -1.55924 0
M  V30 3584 C 344.682 1.41854 -3.09984 0
M  V30 3585 H 345.875 -0.385289 -2.97415 0
M  V30 3586 H 343.428 -0.237942 -1.54478 0
M  V30 3587 H 344.163 2.13148 -2.44414 0
M  V30 3588 H 343.948 0.982114 -3.79601 0
M  V30 3589 H 345.438 1.96597 -3.68429 0
M  V30 3590 N 345.875 1.56104 -0.216619 0
M  V30 3591 C 347.105 2.02269 0.420802 0
M  V30 3592 C 347.513 1.09575 1.5424 0
M  V30 3593 O 346.856 0.0967308 1.83445 0
M  V30 3594 C 346.918 3.44784 1.01806 0
M  V30 3595 C 346.582 4.56988 0.0325154 0
M  V30 3596 C 347.579 5.14225 -0.766055 0
M  V30 3597 C 345.264 5.02228 -0.0848092 0
M  V30 3598 C 347.258 6.15169 -1.6687 0
M  V30 3599 C 344.945 6.03011 -0.990994 0
M  V30 3600 C 345.943 6.59357 -1.78149 0
M  V30 3601 O 345.631 7.58179 -2.67245 0
M  V30 3602 H 345.363 0.667353 0.107776 0
M  V30 3603 H 347.917 2.02747 -0.329034 0
M  V30 3604 H 346.147 3.41359 1.81689 0
M  V30 3605 H 347.836 3.74626 1.56237 0
M  V30 3606 H 348.602 4.80126 -0.685836 0
M  V30 3607 H 344.481 4.58054 0.520349 0
M  V30 3608 H 348.025 6.59076 -2.28615 0
M  V30 3609 H 343.922 6.36532 -1.07225 0
M  V30 3610 H 344.69 7.75682 -2.61265 0
M  V30 3611 N 347.353 -0.0568162 1.57498 0
M  V30 3612 C 348.599 -0.75422 1.88253 0
M  V30 3613 C 348.932 -1.76461 0.810865 0
M  V30 3614 O 348.207 -1.93691 -0.177259 0
M  V30 3615 C 348.49 -1.44878 3.2967 0
M  V30 3616 C 348.343 -0.453789 4.47505 0
M  V30 3617 C 349.662 -2.38994 3.69554 0
M  V30 3618 H 346.781 -0.272724 0.684683 0
M  V30 3619 H 349.423 -0.0172113 1.89992 0
M  V30 3620 H 347.573 -2.077 3.28318 0
M  V30 3621 H 349.245 0.170371 4.60985 0
M  V30 3622 H 347.488 0.229552 4.33192 0
M  V30 3623 H 348.159 -0.977699 5.43273 0
M  V30 3624 H 350.635 -1.86239 3.72095 0
M  V30 3625 H 349.511 -2.84587 4.69363 0
M  V30 3626 H 349.772 -3.24461 3.00296 0
M  V30 3627 N 348.832 -1.54138 -0.328536 0
M  V30 3628 C 350.08 -1.71765 -1.06496 0
M  V30 3629 C 350.401 -0.49149 -1.88704 0
M  V30 3630 O 349.671 0.494539 -1.89555 0
M  V30 3631 H 348.251 -0.633295 -0.396164 0
M  V30 3632 H 350.913 -1.91429 -0.366176 0
M  V30 3633 H 350.009 -2.5951 -1.73381 0
M  V30 3634 N 350.31 0.590341 -1.46126 0
M  V30 3635 C 351.587 1.35029 -1.41515 0
M  V30 3636 C 351.967 2.10888 -0.0946472 0
M  V30 3637 O 351.315 2.08998 0.923693 0
M  V30 3638 C 351.525 2.28269 -2.63997 0
M  V30 3639 C 352.873 2.90338 -3.09821 0
M  V30 3640 O 353.897 2.38585 -2.64492 0
M  V30 3641 O 352.756 3.84321 -3.88535 0
M  V30 3642 H 349.85 0.606317 -0.562413 0
M  V30 3643 H 352.396 0.611994 -1.58281 0
M  V30 3644 H 351.168 1.71591 -3.51671 0
M  V30 3645 H 350.791 3.0945 -2.49652 0
M  V30 3646 N 351.788 1.33704 0.83433 0
M  V30 3647 C 353.034 1.25603 1.59222 0
M  V30 3648 C 353.367 -0.176659 1.93395 0
M  V30 3649 O 352.642 -1.11915 1.59076 0
M  V30 3650 C 352.925 2.13576 2.89926 0
M  V30 3651 C 352.778 3.65326 2.62406 0
M  V30 3652 C 354.097 2.01238 3.91397 0
M  V30 3653 H 351.216 0.457613 0.577719 0
M  V30 3654 H 353.858 1.63848 0.961972 0
M  V30 3655 H 352.008 1.8109 3.43713 0
M  V30 3656 H 353.68 4.08124 2.15017 0
M  V30 3657 H 351.923 3.8698 1.96033 0
M  V30 3658 H 352.594 4.22232 3.55562 0
M  V30 3659 H 355.07 2.29738 3.46929 0
M  V30 3660 H 353.946 2.65036 4.80673 0
M  V30 3661 H 354.207 0.985951 4.30966 0
M  V30 3662 N 353.266 -1.05314 1.17247 0
M  V30 3663 C 354.512 -1.78557 0.961513 0
M  V30 3664 C 354.845 -1.87419 -0.508697 0
M  V30 3665 O 354.12 -1.37307 -1.37757 0
M  V30 3666 C 354.403 -3.22514 1.60176 0
M  V30 3667 C 354.256 -3.21673 3.14399 0
M  V30 3668 C 355.575 -4.20318 1.30463 0
M  V30 3669 H 352.694 -0.6482 0.350723 0
M  V30 3670 H 355.336 -1.23102 1.44727 0
M  V30 3671 H 353.486 -3.69867 1.18871 0
M  V30 3672 H 355.158 -2.82405 3.64753 0
M  V30 3673 H 353.401 -2.60048 3.47214 0
M  V30 3674 H 354.072 -4.23271 3.54324 0
M  V30 3675 H 356.548 -3.81454 1.66229 0
M  V30 3676 H 355.424 -5.19289 1.77848 0
M  V30 3677 H 355.685 -4.41526 0.22521 0
M  V30 3678 N 354.744 -0.972509 -1.24016 0
M  V30 3679 C 355.992 -0.635776 -1.91839 0
M  V30 3680 C 356.313 0.832312 -1.76345 0
M  V30 3681 O 355.583 1.5946 -1.13795 0
M  V30 3682 H 354.163 -0.232157 -0.710009 0
M  V30 3683 H 356.825 -1.23462 -1.50809 0
M  V30 3684 H 355.921 -0.880545 -2.99421 0
M  V30 3685 N 356.222 1.38976 -0.743202 0
M  V30 3686 C 357.45 2.04636 -0.30525 0
M  V30 3687 C 357.865 1.56044 1.06281 0
M  V30 3688 O 357.222 0.728921 1.67311 0
M  V30 3689 C 357.273 3.60193 -0.307177 0
M  V30 3690 O 356.994 4.06998 -1.62124 0
M  V30 3691 C 358.495 4.4306 0.145928 0
M  V30 3692 H 355.715 0.65788 -0.132041 0
M  V30 3693 H 358.259 1.77866 -1.00915 0
M  V30 3694 H 356.414 3.85835 0.347898 0
M  V30 3695 H 356.828 5.01371 -1.54036 0
M  V30 3696 H 358.302 5.51921 0.0934183 0
M  V30 3697 H 358.779 4.22706 1.19231 0
M  V30 3698 H 359.385 4.22584 -0.479886 0
M  V30 3699 N 357.7 0.491464 1.49741 0
M  V30 3700 C 358.948 -0.0563141 2.02022 0
M  V30 3701 C 359.269 -1.38363 1.37407 0
M  V30 3702 O 358.539 -1.88702 0.526166 0
M  V30 3703 H 357.119 -0.0238014 0.746621 0
M  V30 3704 H 359.781 0.646533 1.83864 0
M  V30 3705 H 358.877 -0.192967 3.11503 0
M  V30 3706 N 359.178 -1.55987 0.224894 0
M  V30 3707 C 360.403 -2.03232 -0.41369 0
M  V30 3708 C 360.828 -1.10359 -1.52323 0
M  V30 3709 O 360.186 -0.092395 -1.81064 0
M  V30 3710 C 360.234 -3.48682 -0.919405 0
M  V30 3711 O 359.338 -3.58947 -2.03054 0
M  V30 3712 H 358.679 -0.657428 -0.0931903 0
M  V30 3713 H 361.209 -2.01679 0.34451 0
M  V30 3714 H 361.219 -3.8907 -1.22835 0
M  V30 3715 H 359.894 -4.15761 -0.107339 0
M  V30 3716 H 358.471 -3.30448 -1.72796 0
M  V30 3717 N 360.656 0.0484629 -1.57525 0
M  V30 3718 C 361.881 0.759177 -1.93006 0
M  V30 3719 C 362.306 1.69125 -0.823317 0
M  V30 3720 O 361.664 1.79931 0.222364 0
M  V30 3721 C 361.712 1.50899 -3.27509 0
M  V30 3722 O 360.816 2.62112 -3.18388 0
M  V30 3723 H 360.157 0.205564 -0.631379 0
M  V30 3724 H 362.687 0.00972959 -2.04598 0
M  V30 3725 H 362.697 1.88317 -3.6194 0
M  V30 3726 H 361.372 0.825269 -4.0763 0
M  V30 3727 H 359.949 2.27379 -2.95556 0
M  V30 3728 N 362.134 1.5431 0.320358 0
M  V30 3729 C 363.55 1.45091 0.664889 0
M  V30 3730 C 363.75 0.626382 1.91517 0
M  V30 3731 O 362.806 0.126443 2.52183 0
M  V30 3732 C 364.119 2.88848 0.83591 0
M  V30 3733 C 365.667 2.9877 0.933046 0
M  V30 3734 C 366.142 4.43683 1.13621 0
M  V30 3735 N 367.633 4.47309 1.20287 0
M  V30 3736 C 368.368 5.56595 1.37801 0
M  V30 3737 N 367.864 6.75844 1.52338 0
M  V30 3738 N 369.657 5.44248 1.40535 0
M  V30 3739 H 361.808 2.06398 -0.501374 0
M  V30 3740 H 364.071 0.933963 -0.162534 0
M  V30 3741 H 363.777 3.51698 -0.0116092 0
M  V30 3742 H 363.651 3.35148 1.73078 0
M  V30 3743 H 366.038 2.36045 1.77107 0
M  V30 3744 H 366.119 2.55796 0.0145782 0
M  V30 3745 H 365.763 5.06995 0.303032 0
M  V30 3746 H 365.693 4.84269 2.0686 0
M  V30 3747 H 368.184 3.61388 1.10485 0
M  V30 3748 H 368.497 7.54892 1.65403 0
M  V30 3749 H 366.842 6.78746 1.4943 0
M  V30 3750 H 370.033 4.50038 1.28777 0
M  V30 3751 H 370.206 6.29473 1.53842 0
M  V30 3752 N 363.613 -0.582584 1.46437 0
M  V30 3753 C 364.56 -1.69164 1.5701 0
M  V30 3754 C 365.53 -1.60847 0.414403 0
M  V30 3755 O 366.715 -1.80058 0.631171 0
M  V30 3756 C 363.855 -3.075 1.56646 0
M  V30 3757 C 362.968 -3.2644 2.82951 0
M  V30 3758 C 362.103 -4.55026 2.7409 0
M  V30 3759 C 361.142 -4.6731 3.95333 0
M  V30 3760 N 360.279 -5.87221 3.84858 0
M  V30 3761 H 365.119 -1.59464 2.51744 0
M  V30 3762 H 362.656 -0.777186 1.24893 0
M  V30 3763 H 364.614 -3.8757 1.5442 0
M  V30 3764 H 363.244 -3.16096 0.654439 0
M  V30 3765 H 362.296 -2.39974 2.95155 0
M  V30 3766 H 363.608 -3.31385 3.72808 0
M  V30 3767 H 362.762 -5.43324 2.6997 0
M  V30 3768 H 361.501 -4.52519 1.81873 0
M  V30 3769 H 360.506 -3.77429 3.99784 0
M  V30 3770 H 361.731 -4.71595 4.88646 0
M  V30 3771 H 359.677 -5.85712 2.95427 0
M  V30 3772 H 359.594 -5.93435 4.6837 0
M  V30 3773 H 360.862 -6.7795 3.84713 0
M  V30 3774 N 365.091 -1.34144 -0.827227 0
M  V30 3775 C 366.316 -1.29476 -1.62021 0
M  V30 3776 C 366.741 0.129292 -1.87655 0
M  V30 3777 O 366.099 1.08967 -1.449 0
M  V30 3778 C 366.147 -2.08702 -2.94068 0
M  V30 3779 O 365.251 -1.45359 -3.85933 0
M  V30 3780 H 364.592 -0.444881 -0.492927 0
M  V30 3781 H 367.122 -1.76882 -1.02829 0
M  V30 3782 H 367.132 -2.19898 -3.43669 0
M  V30 3783 H 365.807 -3.12241 -2.74734 0
M  V30 3784 H 364.384 -1.42879 -3.44442 0
M  V30 3785 N 366.569 1.04691 -1.17803 0
M  V30 3786 C 367.532 2.10724 -0.901545 0
M  V30 3787 C 368.532 1.6042 0.110437 0
M  V30 3788 O 369.722 1.7377 -0.122303 0
M  V30 3789 C 366.854 3.39084 -0.351409 0
M  V30 3790 H 368.047 2.36686 -1.84174 0
M  V30 3791 H 365.6 1.21015 -0.98919 0
M  V30 3792 H 366.335 3.18782 0.59569 0
M  V30 3793 H 366.12 3.76909 -1.08083 0
M  V30 3794 H 367.61 4.17227 -0.176451 0
M  V30 3795 N 368.047 0.979072 1.23499 0
M  V30 3796 C 369.275 0.665202 1.95915 0
M  V30 3797 C 369.69 -0.767571 1.72493 0
M  V30 3798 O 369.047 -1.51635 1.01554 0
M  V30 3799 C 369.098 0.944438 3.48945 0
M  V30 3800 O 368.819 2.3209 3.71572 0
M  V30 3801 C 370.32 0.646336 4.38563 0
M  V30 3802 H 367.54 0.247218 0.623798 0
M  V30 3803 H 370.084 1.31009 1.57025 0
M  V30 3804 H 368.239 0.345575 3.85856 0
M  V30 3805 H 368.653 2.40957 4.65876 0
M  V30 3806 H 370.127 0.892091 5.44744 0
M  V30 3807 H 370.604 -0.419575 4.37191 0
M  V30 3808 H 371.21 1.22562 4.07258 0
M  V30 3809 N 369.525 -1.3858 0.750561 0
M  V30 3810 C 370.473 -2.32339 0.110162 0
M  V30 3811 C 371.467 -1.53864 -0.708674 0
M  V30 3812 O 372.673 -1.69417 -0.608112 0
M  V30 3813 H 369.048 -0.751812 0.0168275 0
M  V30 3814 H 371.019 -2.83959 0.917053 0
M  V30 3815 C 369.768 -3.39043 -0.771067 0
M  V30 3816 H 369.091 -3.99517 -0.150374 0
M  V30 3817 H 370.531 -4.07061 -1.1865 0
M  V30 3818 C 368.99 -2.77365 -1.91234 0
M  V30 3819 O 369.52 -2.66434 -3.00626 0
M  V30 3820 N 367.726 -2.35219 -1.70646 0
M  V30 3821 H 367.273 -2.4431 -0.81673 0
M  V30 3822 H 367.231 -1.94294 -2.47178 0
M  V30 3823 N 371.003 -0.499398 -1.49478 0
M  V30 3824 C 372.228 0.044722 -2.07352 0
M  V30 3825 C 372.653 1.30207 -1.35749 0
M  V30 3826 O 372.011 1.76516 -0.413732 0
M  V30 3827 C 372.059 0.283013 -3.59488 0
M  V30 3828 O 371.163 1.35804 -3.89398 0
M  V30 3829 H 370.504 -0.0255147 -0.66351 0
M  V30 3830 H 373.034 -0.698561 -1.92305 0
M  V30 3831 H 373.044 0.515007 -4.04737 0
M  V30 3832 H 371.719 -0.635636 -4.11014 0
M  V30 3833 H 370.296 1.11113 -3.55961 0
M  V30 3834 N 372.481 1.55866 -0.233164 0
M  V30 3835 C 373.727 1.98897 0.395959 0
M  V30 3836 C 374.06 1.12091 1.58585 0
M  V30 3837 O 373.335 0.181182 1.93654 0
M  V30 3838 C 373.618 3.50658 0.819224 0
M  V30 3839 C 373.471 4.48233 -0.375109 0
M  V30 3840 C 374.79 4.07135 1.67121 0
M  V30 3841 H 371.909 0.723102 0.142451 0
M  V30 3842 H 374.551 1.87082 -0.331725 0
M  V30 3843 H 372.701 3.60857 1.43925 0
M  V30 3844 H 374.373 4.50031 -1.01341 0
M  V30 3845 H 372.616 4.21624 -1.02058 0
M  V30 3846 H 373.287 5.51988 -0.0358328 0
M  V30 3847 H 375.763 3.99952 1.14795 0
M  V30 3848 H 374.639 5.13615 1.93625 0
M  V30 3849 H 374.9 3.54736 2.63846 0
M  V30 3850 N 373.959 -0.0401083 1.57549 0
M  V30 3851 C 374.889 -1.04384 2.08869 0
M  V30 3852 C 375.87 -1.38407 0.988817 0
M  V30 3853 O 377.055 -1.47483 1.26342 0
M  V30 3854 C 374.185 -2.34808 2.55895 0
M  V30 3855 C 373.139 -2.15057 3.70047 0
M  V30 3856 C 372.465 -3.51145 4.03239 0
M  V30 3857 C 373.765 -1.54576 4.98902 0
M  V30 3858 H 375.459 -0.616666 2.92981 0
M  V30 3859 H 373.005 -0.295184 1.40942 0
M  V30 3860 H 374.958 -3.05346 2.90417 0
M  V30 3861 H 373.682 -2.79565 1.68853 0
M  V30 3862 H 372.341 -1.46954 3.35857 0
M  V30 3863 H 371.989 -3.93529 3.13279 0
M  V30 3864 H 371.689 -3.38758 4.80122 0
M  V30 3865 H 373.213 -4.23062 4.40285 0
M  V30 3866 H 374.627 -2.15017 5.31451 0
M  V30 3867 H 373.024 -1.52796 5.80322 0
M  V30 3868 H 374.094 -0.51039 4.82206 0
M  V30 3869 N 375.437 -1.54477 -0.31217 0
M  V30 3870 C 376.683 -1.74417 -1.04644 0
M  V30 3871 C 377.038 -0.517641 -1.85306 0
M  V30 3872 O 376.331 0.489973 -1.85229 0
M  V30 3873 C 376.525 -2.967 -1.99258 0
M  V30 3874 C 376.354 -4.31128 -1.27901 0
M  V30 3875 C 375.124 -4.95087 -1.01079 0
M  V30 3876 C 377.322 -5.09662 -0.689119 0
M  V30 3877 N 375.304 -6.13322 -0.266323 0
M  V30 3878 C 376.675 -6.19952 -0.0768523 0
M  V30 3879 C 378.73 -4.94355 -0.593061 0
M  V30 3880 C 377.433 -7.16604 0.622165 0
M  V30 3881 C 379.459 -5.91328 0.0922792 0
M  V30 3882 C 378.821 -7.00978 0.693443 0
M  V30 3883 H 374.92 -0.69094 -0.366231 0
M  V30 3884 H 377.504 -1.91946 -0.326319 0
M  V30 3885 H 375.675 -2.80616 -2.68532 0
M  V30 3886 H 377.407 -3.05216 -2.65755 0
M  V30 3887 H 374.162 -4.55235 -1.30607 0
M  V30 3888 H 374.586 -6.76937 0.0920973 0
M  V30 3889 H 379.228 -4.09719 -1.04355 0
M  V30 3890 H 376.946 -8.0079 1.08445 0
M  V30 3891 H 380.532 -5.81562 0.166396 0
M  V30 3892 H 379.412 -7.74725 1.21533 0
M  V30 3893 N 376.915 0.57481 -1.46744 0
M  V30 3894 C 378.162 1.33272 -1.52462 0
M  V30 3895 C 378.49 1.93669 -0.179572 0
M  V30 3896 O 377.745 1.7743 0.825664 0
M  V30 3897 C 378.044 2.476 -2.57738 0
M  V30 3898 C 377.71 2.05146 -4.01529 0
M  V30 3899 C 376.372 1.93284 -4.40676 0
M  V30 3900 C 378.724 1.72506 -4.91824 0
M  V30 3901 C 376.052 1.47049 -5.67973 0
M  V30 3902 C 378.404 1.27748 -6.19567 0
M  V30 3903 C 377.068 1.14468 -6.57612 0
M  V30 3904 H 376.338 0.487678 -0.557899 0
M  V30 3905 H 378.985 0.646456 -1.80259 0
M  V30 3906 H 377.29 3.21708 -2.23632 0
M  V30 3907 H 378.987 3.05807 -2.5939 0
M  V30 3908 H 375.577 2.15316 -3.7059 0
M  V30 3909 H 379.761 1.80552 -4.62293 0
M  V30 3910 H 375.017 1.35417 -5.96215 0
M  V30 3911 H 379.191 1.01547 -6.88957 0
M  V30 3912 H 376.818 0.78419 -7.56145 0
M  V30 3913 N 378.394 1.34581 0.820102 0
M  V30 3914 C 379.327 1.20735 1.93644 0
M  V30 3915 C 380.305 0.0983343 1.62302 0
M  V30 3916 O 381.489 0.263997 1.86642 0
M  V30 3917 C 378.616 0.856037 3.27704 0
M  V30 3918 C 377.662 1.97521 3.78005 0
M  V30 3919 S 378.495 3.58906 3.97425 0
M  V30 3920 C 379.651 3.25822 5.34407 0
M  V30 3921 H 379.884 2.15231 2.05093 0
M  V30 3922 H 377.417 1.1964 0.97599 0
M  V30 3923 H 379.375 0.660133 4.05157 0
M  V30 3924 H 378.036 -0.0706253 3.14021 0
M  V30 3925 H 377.229 1.68321 4.75062 0
M  V30 3926 H 376.831 2.12875 3.07507 0
M  V30 3927 H 379.123 2.77812 6.17922 0
M  V30 3928 H 380.066 4.22029 5.68592 0
M  V30 3929 H 380.474 2.61932 5.00052 0
M  V30 3930 N 379.872 -1.04064 1.18357 0
M  V30 3931 C 381.12 -1.76915 0.977013 0
M  V30 3932 C 381.441 -1.88624 -0.494577 0
M  V30 3933 O 380.711 -1.41125 -1.3587 0
M  V30 3934 H 379.291 -0.65535 0.358504 0
M  V30 3935 H 381.953 -1.25592 1.49039 0
M  V30 3936 H 381.049 -2.78178 1.41504 0
M  V30 3937 N 381.35 -0.985608 -1.22978 0
M  V30 3938 C 382.627 -0.573599 -1.87001 0
M  V30 3939 C 383.007 0.949213 -1.88555 0
M  V30 3940 O 382.355 1.82811 -1.37086 0
M  V30 3941 C 382.565 -1.18564 -3.28243 0
M  V30 3942 C 383.913 -1.28163 -4.04796 0
M  V30 3943 O 384.937 -1.13949 -3.37482 0
M  V30 3944 O 383.796 -1.50832 -5.25273 0
M  V30 3945 H 380.89 -0.193868 -0.803955 0
M  V30 3946 H 383.436 -1.08102 -1.30813 0
M  V30 3947 H 382.208 -2.22758 -3.21706 0
M  V30 3948 H 381.831 -0.663363 -3.92027 0
M  V30 3949 N 382.828 1.3818 -0.7579 0
M  V30 3950 C 384.105 1.94106 -0.241306 0
M  V30 3951 C 384.485 1.69282 1.26122 0
M  V30 3952 O 383.833 1.03378 2.03777 0
M  V30 3953 C 384.043 3.43809 -0.59967 0
M  V30 3954 C 385.391 4.20868 -0.561717 0
M  V30 3955 O 386.415 3.5211 -0.538222 0
M  V30 3956 O 385.274 5.43451 -0.576478 0
M  V30 3957 H 382.368 0.825376 -0.0518042 0
M  V30 3958 H 384.914 1.47548 -0.838315 0
M  V30 3959 H 383.686 3.55403 -1.6372 0
M  V30 3960 H 383.309 3.97592 0.0251197 0
M  V30 3961 N 384.306 0.507319 1.49211 0
M  V30 3962 C 385.555 -0.0368315 2.01666 0
M  V30 3963 C 385.868 -1.37459 1.39156 0
M  V30 3964 O 387.074 -2.00579 1.82976 0
M  V30 3965 C 385.53 -0.116089 3.59713 0
M  V30 3966 C 385.138 1.2154 4.31198 0
M  V30 3967 C 386.882 -0.610268 4.2009 0
M  V30 3968 C 384.789 1.09796 5.81119 0
M  V30 3969 H 383.719 -0.0175376 0.753796 0
M  V30 3970 H 386.37 0.647691 1.71689 0
M  V30 3971 H 384.752 -0.8652 3.86433 0
M  V30 3972 H 385.926 1.9783 4.16173 0
M  V30 3973 H 384.241 1.64352 3.82593 0
M  V30 3974 H 386.838 -0.715742 5.29888 0
M  V30 3975 H 387.181 -1.61064 3.8388 0
M  V30 3976 H 387.714 0.0824916 3.97714 0
M  V30 3977 H 384.453 2.0728 6.21864 0
M  V30 3978 H 383.973 0.376058 5.9862 0
M  V30 3979 H 385.652 0.779281 6.4229 0
M  V30 3980 N 385.784 -1.5574 0.241426 0
M  V30 3981 C 387.195 -1.84842 -0.262755 0
M  V30 3982 C 387.546 -1.16317 -1.58003 0
M  V30 3983 O 386.671 -0.439653 -2.11887 0
M  V30 3984 C 387.266 -3.35332 -0.483523 0
M  V30 3985 C 385.825 -3.6468 -0.931977 0
M  V30 3986 C 384.972 -2.77299 -0.0061151 0
M  V30 3987 H 387.923 -1.51761 0.464129 0
M  V30 3988 H 387.944 -3.56615 -1.32688 0
M  V30 3989 H 387.456 -3.85178 0.47537 0
M  V30 3990 H 385.557 -3.20307 -1.90353 0
M  V30 3991 H 385.67 -4.72498 -0.792628 0
M  V30 3992 H 384.034 -2.49408 -0.516503 0
M  V30 3993 H 384.817 -3.2995 0.948052 0
M  V30 3994 N 387.262 0.0317525 -1.57568 0
M  V30 3995 C 388.212 1.04101 -2.02847 0
M  V30 3996 C 389.196 1.3219 -0.917317 0
M  V30 3997 O 390.388 1.31819 -1.18121 0
M  V30 3998 C 387.517 2.34295 -2.5092 0
M  V30 3999 C 386.603 2.09308 -3.68851 0
M  V30 4000 N 386.994 1.5437 -4.81667 0
M  V30 4001 C 385.292 2.39604 -3.76172 0
M  V30 4002 C 385.993 1.45126 -5.63306 0
M  V30 4003 N 384.969 1.92589 -5.08341 0
M  V30 4004 H 388.771 0.610217 -2.87495 0
M  V30 4005 H 386.285 0.238108 -1.60645 0
M  V30 4006 H 388.282 3.07404 -2.81617 0
M  V30 4007 H 386.942 2.78055 -1.67677 0
M  V30 4008 H 387.953 1.22678 -5.03161 0
M  V30 4009 H 384.63 2.86457 -3.03724 0
M  V30 4010 H 386.02 1.03163 -6.63933 0
M  V30 4011 N 388.74 1.54641 0.303973 0
M  V30 4012 C 389.986 1.74038 1.04109 0
M  V30 4013 C 390.319 0.523051 1.87024 0
M  V30 4014 O 389.594 -0.479874 1.88487 0
M  V30 4015 C 389.877 3.02761 1.94955 0
M  V30 4016 C 389.73 4.34787 1.1524 0
M  V30 4017 C 391.049 3.27336 2.94175 0
M  V30 4018 H 388.168 0.63323 0.377079 0
M  V30 4019 H 390.81 1.87354 0.316001 0
M  V30 4020 H 388.96 2.9154 2.56782 0
M  V30 4021 H 390.632 4.57922 0.557236 0
M  V30 4022 H 388.875 4.31407 0.455053 0
M  V30 4023 H 389.546 5.21116 1.8205 0
M  V30 4024 H 392.022 3.38148 2.42477 0
M  V30 4025 H 390.898 4.18726 3.54908 0
M  V30 4026 H 391.159 2.45491 3.67677 0
M  V30 4027 N 390.218 -0.567019 1.47046 0
M  V30 4028 C 391.629 -1.14916 1.47143 0
M  V30 4029 C 391.98 -1.94954 0.220767 0
M  V30 4030 O 391.105 -2.05602 -0.67505 0
M  V30 4031 C 391.7 -2.09069 2.666 0
M  V30 4032 C 390.259 -2.62575 2.69687 0
M  V30 4033 C 389.406 -1.38755 2.40088 0
M  V30 4034 H 392.357 -0.354126 1.54699 0
M  V30 4035 H 392.378 -2.92789 2.43011 0
M  V30 4036 H 391.89 -1.50789 3.57609 0
M  V30 4037 H 389.991 -3.24681 1.82792 0
M  V30 4038 H 390.104 -3.04239 3.70102 0
M  V30 4039 H 388.468 -1.69098 1.90468 0
M  V30 4040 H 389.251 -0.822822 3.33293 0
M  V30 4041 N 391.696 -1.35014 -0.812953 0
M  V30 4042 C 392.644 -1.27435 -1.94585 0
M  V30 4043 C 393.638 -0.170494 -1.6854 0
M  V30 4044 O 394.844 -0.336085 -1.76835 0
M  V30 4045 H 391.219 -0.396144 -0.639198 0
M  V30 4046 H 393.19 -2.23158 -1.98098 0
M  V30 4047 C 391.939 -1.05677 -3.31252 0
M  V30 4048 H 391.262 -1.89853 -3.51846 0
M  V30 4049 H 392.702 -1.04413 -4.10943 0
M  V30 4050 C 391.161 0.239615 -3.36047 0
M  V30 4051 O 391.691 1.23759 -3.8216 0
M  V30 4052 N 389.897 0.276186 -2.89285 0
M  V30 4053 H 389.444 -0.53653 -2.51951 0
M  V30 4054 H 389.402 1.14332 -2.92875 0
M  V30 4055 N 393.175 1.03435 -1.18907 0
M  V30 4056 C 394.122 2.11591 -0.921837 0
M  V30 4057 C 395.092 1.65499 0.141226 0
M  V30 4058 O 396.277 1.908 0.000242829 0
M  V30 4059 C 393.417 3.42012 -0.460616 0
M  V30 4060 C 392.53 4.01682 -1.58982 0
M  V30 4061 C 391.665 5.20091 -1.08069 0
M  V30 4062 C 390.704 5.71805 -2.18416 0
M  V30 4063 N 389.841 6.81494 -1.68849 0
M  V30 4064 H 394.681 2.33787 -1.8479 0
M  V30 4065 H 392.218 1.1467 -0.921373 0
M  V30 4066 H 394.176 4.16834 -0.174642 0
M  V30 4067 H 392.806 3.19944 0.428467 0
M  V30 4068 H 391.858 3.24127 -1.99113 0
M  V30 4069 H 393.17 4.36084 -2.4214 0
M  V30 4070 H 392.324 6.02051 -0.749615 0
M  V30 4071 H 391.063 4.87209 -0.218771 0
M  V30 4072 H 390.068 4.88461 -2.5236 0
M  V30 4073 H 391.293 6.06728 -3.05054 0
M  V30 4074 H 389.239 6.50475 -0.849572 0
M  V30 4075 H 389.156 7.14994 -2.45601 0
M  V30 4076 H 390.424 7.67063 -1.38689 0
M  V30 4077 N 394.653 0.992116 1.22453 0
M  V30 4078 C 396.069 0.702713 1.43297 0
M  V30 4079 C 396.269 -0.726909 1.87932 0
M  V30 4080 O 395.325 -1.49792 2.0327 0
M  V30 4081 C 396.638 1.70762 2.47509 0
M  V30 4082 C 398.186 1.72298 2.61309 0
M  V30 4083 C 398.661 2.71649 3.68742 0
M  V30 4084 N 400.152 2.70239 3.76199 0
M  V30 4085 C 400.887 3.43778 4.58917 0
M  V30 4086 N 400.383 4.26914 5.45633 0
M  V30 4087 N 402.176 3.32487 4.5322 0
M  V30 4088 H 394.327 1.91543 0.917871 0
M  V30 4089 H 396.59 0.826031 0.465162 0
M  V30 4090 H 396.296 2.73059 2.21657 0
M  V30 4091 H 396.17 1.49985 3.46099 0
M  V30 4092 H 398.557 0.706989 2.86506 0
M  V30 4093 H 398.638 1.97143 1.62997 0
M  V30 4094 H 398.282 3.73397 3.44292 0
M  V30 4095 H 398.212 2.44074 4.66622 0
M  V30 4096 H 400.703 2.09912 3.14237 0
M  V30 4097 H 401.016 4.79855 6.05771 0
M  V30 4098 H 399.361 4.31002 5.45218 0
M  V30 4099 H 402.552 2.6698 3.84499 0
M  V30 4100 H 402.725 3.90058 5.17454 0
M  V30 4101 N 396.131 -1.37776 0.765217 0
M  V30 4102 C 397.379 -1.99454 0.325943 0
M  V30 4103 C 397.7 -1.61049 -1.09947 0
M  V30 4104 O 396.97 -0.872821 -1.75381 0
M  V30 4105 H 395.55 -0.737697 0.117525 0
M  V30 4106 H 398.212 -1.68359 0.981895 0
M  V30 4107 H 397.308 -3.09547 0.398353 0
M  V30 4108 N 397.609 -0.515225 -1.4894 0
M  V30 4109 C 398.857 0.0241671 -2.02086 0
M  V30 4110 C 399.178 1.3616 -1.3959 0
M  V30 4111 O 398.448 1.87841 -0.556121 0
M  V30 4112 H 397.028 0.0119203 -0.746905 0
M  V30 4113 H 399.69 -0.675702 -1.82812 0
M  V30 4114 H 398.786 0.143385 -3.1177 0
M  V30 4115 N 399.087 1.5561 -0.249682 0
M  V30 4116 C 400.335 1.98618 0.373548 0
M  V30 4117 C 400.656 1.13919 1.58264 0
M  V30 4118 O 399.926 0.222637 1.94631 0
M  V30 4119 H 398.506 0.733571 0.141006 0
M  V30 4120 H 401.168 1.91748 -0.349117 0
M  V30 4121 H 400.264 3.04584 0.680796 0
M  V30 4122 N 400.565 -0.0233959 1.57583 0
M  V30 4123 C 401.495 -1.02162 2.09965 0
M  V30 4124 C 402.476 -1.3735 1.00344 0
M  V30 4125 O 403.661 -1.46135 1.27899 0
M  V30 4126 C 400.791 -2.32081 2.58371 0
M  V30 4127 C 399.745 -2.1112 3.72307 0
M  V30 4128 C 399.071 -3.46848 4.06941 0
M  V30 4129 C 400.371 -1.49276 5.00514 0
M  V30 4130 H 402.065 -0.585557 2.93618 0
M  V30 4131 H 399.611 -0.280218 1.41247 0
M  V30 4132 H 401.564 -3.02249 2.93639 0
M  V30 4133 H 400.288 -2.77758 1.71808 0
M  V30 4134 H 398.947 -1.43384 3.37397 0
M  V30 4135 H 398.595 -3.90184 3.17436 0
M  V30 4136 H 398.295 -3.33646 4.83688 0
M  V30 4137 H 399.819 -4.18369 4.44747 0
M  V30 4138 H 401.233 -2.09368 5.33702 0
M  V30 4139 H 399.63 -1.46632 5.8191 0
M  V30 4140 H 400.7 -0.459217 4.82721 0
M  V30 4141 N 402.043 -1.548 -0.295768 0
M  V30 4142 C 403.283 -1.76069 -1.03823 0
M  V30 4143 C 403.647 -0.537992 -1.84309 0
M  V30 4144 O 404.848 -0.628514 -2.61349 0
M  V30 4145 C 403.119 -3.01705 -1.91596 0
M  V30 4146 S 404.678 -3.43998 -2.72416 0
M  V30 4147 H 401.496 -0.618852 -0.350062 0
M  V30 4148 H 404.098 -1.93009 -0.31106 0
M  V30 4149 H 402.802 -3.88812 -1.31351 0
M  V30 4150 H 402.333 -2.87366 -2.68671 0
M  V30 4151 H 404.348 -3.0148 -3.94112 0
M  V30 4152 N 403.521 0.559213 -1.47345 0
M  V30 4153 C 404.451 1.67622 -1.62558 0
M  V30 4154 C 405.432 1.63331 -0.475087 0
M  V30 4155 O 406.617 1.80983 -0.704182 0
M  V30 4156 C 403.747 3.0626 -1.63774 0
M  V30 4157 C 402.701 3.25397 -2.7803 0
M  V30 4158 C 402.027 4.64801 -2.64318 0
M  V30 4159 C 403.327 3.10965 -4.19641 0
M  V30 4160 H 405.021 1.55146 -2.56067 0
M  V30 4161 H 402.567 0.744961 -1.23233 0
M  V30 4162 H 404.52 3.84247 -1.73008 0
M  V30 4163 H 403.244 3.1969 -0.66825 0
M  V30 4164 H 401.903 2.49817 -2.68304 0
M  V30 4165 H 401.551 4.75028 -1.65401 0
M  V30 4166 H 401.251 4.78555 -3.40968 0
M  V30 4167 H 402.775 5.44926 -2.75478 0
M  V30 4168 H 404.189 3.78772 -4.30354 0
M  V30 4169 H 402.586 3.36229 -4.97062 0
M  V30 4170 H 403.656 2.07736 -4.38148 0
M  V30 4171 N 404.999 1.35443 0.805782 0
M  V30 4172 C 406.247 1.28507 1.55982 0
M  V30 4173 C 406.568 -0.140046 1.94496 0
M  V30 4174 O 405.838 -1.07666 1.63661 0
M  V30 4175 H 404.418 0.472676 0.578434 0
M  V30 4176 H 407.08 1.69555 0.961098 0
M  V30 4177 H 406.176 1.90148 2.47488 0
M  V30 4178 N 406.477 -1.02803 1.19454 0
M  V30 4179 C 407.725 -1.75869 0.995722 0
M  V30 4180 C 408.046 -1.89138 -0.474543 0
M  V30 4181 O 407.316 -1.42558 -1.34366 0
M  V30 4182 H 405.896 -0.651511 0.365435 0
M  V30 4183 H 408.558 -1.24004 1.50363 0
M  V30 4184 H 407.654 -2.76661 1.44447 0
M  V30 4185 N 407.956 -0.998596 -1.21925 0
M  V30 4186 C 408.903 -0.553621 -2.24062 0
M  V30 4187 C 409.873 0.416999 -1.6078 0
M  V30 4188 O 411.058 0.320482 -1.88089 0
M  V30 4189 C 408.198 0.119959 -3.44891 0
M  V30 4190 C 407.311 -0.893077 -4.22668 0
M  V30 4191 C 406.446 -0.192424 -5.30851 0
M  V30 4192 C 405.485 -1.19344 -6.00353 0
M  V30 4193 N 404.622 -0.520707 -7.00166 0
M  V30 4194 H 409.462 -1.4293 -2.61486 0
M  V30 4195 H 406.999 -0.715838 -1.28507 0
M  V30 4196 H 408.957 0.527459 -4.13852 0
M  V30 4197 H 407.587 0.959389 -3.08214 0
M  V30 4198 H 406.639 -1.41886 -3.52948 0
M  V30 4199 H 407.951 -1.65512 -4.70539 0
M  V30 4200 H 407.105 0.271515 -6.06092 0
M  V30 4201 H 405.844 0.602075 -4.83969 0
M  V30 4202 H 404.849 -1.66795 -5.23889 0
M  V30 4203 H 406.074 -1.98891 -6.49322 0
M  V30 4204 H 404.02 0.254252 -6.55507 0
M  V30 4205 H 403.937 -1.2211 -7.46073 0
M  V30 4206 H 405.205 -0.0797596 -7.79459 0
M  V30 4207 N 409.434 1.37368 -0.772513 0
M  V30 4208 C 410.683 1.98918 -0.333861 0
M  V30 4209 C 410.996 1.62017 1.09589 0
M  V30 4210 O 412.202 2.16676 1.63596 0
M  V30 4211 C 410.658 3.55735 -0.545971 0
M  V30 4212 C 410.266 4.01573 -1.98603 0
M  V30 4213 C 412.01 4.24156 -0.170979 0
M  V30 4214 C 409.917 5.51102 -2.1457 0
M  V30 4215 H 408.847 0.744214 -0.121085 0
M  V30 4216 H 411.498 1.56888 -0.95175 0
M  V30 4217 H 409.88 3.95748 0.141387 0
M  V30 4218 H 411.054 3.72803 -2.7084 0
M  V30 4219 H 409.369 3.45937 -2.31769 0
M  V30 4220 H 411.966 5.34024 -0.26878 0
M  V30 4221 H 412.309 4.06917 0.878855 0
M  V30 4222 H 412.842 3.89447 -0.810914 0
M  V30 4223 H 409.581 5.73268 -3.17875 0
M  V30 4224 H 409.101 5.81554 -1.46817 0
M  V30 4225 H 410.78 6.17083 -1.94468 0
M  V30 4226 N 410.912 0.523116 1.48665 0
M  V30 4227 C 411.875 -0.232592 2.28017 0
M  V30 4228 C 412.875 -0.874021 1.34972 0
M  V30 4229 O 414.065 -0.735132 1.57929 0
M  V30 4230 C 411.197 -1.33586 3.13636 0
M  V30 4231 H 412.39 0.464008 2.96289 0
M  V30 4232 H 409.943 0.278816 1.53793 0
M  V30 4233 H 410.678 -2.06593 2.4998 0
M  V30 4234 H 410.463 -0.881125 3.82071 0
M  V30 4235 H 411.953 -1.86759 3.73511 0
M  V30 4236 N 412.39 -1.55475 0.257931 0
M  V30 4237 C 413.801 -1.8511 -0.243135 0
M  V30 4238 C 414.152 -1.17986 -1.5676 0
M  V30 4239 O 413.277 -0.462102 -2.11409 0
M  V30 4240 C 413.872 -3.35826 -0.447929 0
M  V30 4241 C 412.431 -3.65647 -0.893245 0
M  V30 4242 C 411.578 -2.7729 0.0232965 0
M  V30 4243 H 414.529 -1.51261 0.480199 0
M  V30 4244 H 414.55 -3.58002 -1.28898 0
M  V30 4245 H 414.062 -3.84652 0.516196 0
M  V30 4246 H 412.163 -3.22308 -1.86945 0
M  V30 4247 H 412.276 -4.73312 -0.742469 0
M  V30 4248 H 410.64 -2.49942 -0.490021 0
M  V30 4249 H 411.423 -3.28926 0.982994 0
M  V30 4250 N 413.868 0.0150385 -1.57593 0
M  V30 4251 C 415.117 0.702115 -1.89085 0
M  V30 4252 C 415.43 1.75764 -0.858277 0
M  V30 4253 O 416.636 2.49829 -1.0629 0
M  V30 4254 C 415.092 1.29992 -3.35604 0
M  V30 4255 C 414.7 0.280007 -4.47124 0
M  V30 4256 C 416.444 1.96606 -3.76227 0
M  V30 4257 C 414.351 0.886949 -5.84711 0
M  V30 4258 H 413.281 0.265997 -0.705522 0
M  V30 4259 H 415.932 -0.0430408 -1.8345 0
M  V30 4260 H 414.314 2.09525 -3.36029 0
M  V30 4261 H 415.488 -0.489631 -4.58191 0
M  V30 4262 H 413.803 -0.284835 -4.15425 0
M  V30 4263 H 416.4 2.42893 -4.76347 0
M  V30 4264 H 416.743 2.79024 -3.08952 0
M  V30 4265 H 417.276 1.23828 -3.78036 0
M  V30 4266 H 414.015 0.101876 -6.55421 0
M  V30 4267 H 413.535 1.6261 -5.77337 0
M  V30 4268 H 415.214 1.39011 -6.3189 0
M  V30 4269 N 415.346 1.54954 0.287554 0
M  V30 4270 C 416.593 1.74873 1.02106 0
M  V30 4271 C 416.921 0.541829 1.86801 0
M  V30 4272 O 416.176 -0.475992 1.89823 0
M  V30 4273 C 416.475 2.99833 1.94512 0
M  V30 4274 C 416.141 4.33029 1.25686 0
M  V30 4275 C 414.803 4.69233 1.06649 0
M  V30 4276 C 417.155 5.15542 0.765913 0
M  V30 4277 C 414.483 5.85518 0.372222 0
M  V30 4278 C 416.835 6.32542 0.0853101 0
M  V30 4279 C 415.499 6.67398 -0.1169 0
M  V30 4280 H 414.769 0.639906 0.373632 0
M  V30 4281 H 417.416 1.89219 0.294665 0
M  V30 4282 H 415.721 2.80325 2.73725 0
M  V30 4283 H 417.418 3.1244 2.51361 0
M  V30 4284 H 414.008 4.04564 1.41512 0
M  V30 4285 H 418.192 4.88059 0.90066 0
M  V30 4286 H 413.448 6.11057 0.204695 0
M  V30 4287 H 417.622 6.95741 -0.302936 0
M  V30 4288 H 415.249 7.57357 -0.656859 0
M  V30 4289 N 416.824 -0.551391 1.4764 0
M  V30 4290 C 418.071 -1.3083 1.54563 0
M  V30 4291 C 418.399 -1.93359 0.210361 0
M  V30 4292 O 417.654 -1.78721 -0.797332 0
M  V30 4293 C 417.953 -2.43469 2.61644 0
M  V30 4294 C 417.619 -1.98732 4.04742 0
M  V30 4295 C 416.281 -1.86248 4.43695 0
M  V30 4296 C 418.633 -1.64659 4.94507 0
M  V30 4297 C 415.961 -1.37995 5.70241 0
M  V30 4298 C 418.313 -1.17875 6.21521 0
M  V30 4299 C 416.977 -1.03992 6.5935 0
M  V30 4300 H 416.247 -0.478741 0.565587 0
M  V30 4301 H 418.894 -0.617697 1.81264 0
M  V30 4302 H 417.199 -3.18109 2.28722 0
M  V30 4303 H 418.896 -3.01642 2.64222 0
M  V30 4304 H 415.486 -2.09393 3.73968 0
M  V30 4305 H 419.67 -1.73174 4.65107 0
M  V30 4306 H 414.926 -1.25915 5.98294 0
M  V30 4307 H 419.1 -0.905739 6.90485 0
M  V30 4308 H 416.727 -0.663794 7.57296 0
M  V30 4309 N 418.302 -1.35869 -0.798587 0
M  V30 4310 C 419.25 -1.29491 -1.93222 0
M  V30 4311 C 420.244 -0.18836 -1.6835 0
M  V30 4312 O 421.45 -0.354822 -1.76468 0
M  V30 4313 H 417.825 -0.402901 -0.63496 0
M  V30 4314 H 419.796 -2.25247 -1.9572 0
M  V30 4315 C 418.545 -1.09184 -3.30112 0
M  V30 4316 H 417.868 -1.93574 -3.49813 0
M  V30 4317 H 419.308 -1.08766 -4.09812 0
M  V30 4318 C 417.767 0.203959 -3.36282 0
M  V30 4319 O 418.297 1.19699 -3.83451 0
M  V30 4320 N 416.503 0.245488 -2.89561 0
M  V30 4321 H 416.05 -0.563223 -2.51367 0
M  V30 4322 H 416.008 1.11219 -2.94071 0
M  V30 4323 N 419.78 1.02168 -1.19998 0
M  V30 4324 C 421.008 1.79296 -1.03249 0
M  V30 4325 C 421.423 1.84103 0.418502 0
M  V30 4326 O 420.78 1.29031 1.29063 0
M  V30 4327 C 420.831 3.24007 -1.60319 0
M  V30 4328 O 420.552 3.19512 -2.99739 0
M  V30 4329 C 422.053 4.17704 -1.48453 0
M  V30 4330 H 419.273 0.564016 -0.363493 0
M  V30 4331 H 421.817 1.28639 -1.58973 0
M  V30 4332 H 419.972 3.7183 -1.08727 0
M  V30 4333 H 420.386 4.10306 -3.26725 0
M  V30 4334 H 421.86 5.17104 -1.93153 0
M  V30 4335 H 422.337 4.37029 -0.436193 0
M  V30 4336 H 422.943 3.7576 -1.99211 0
M  V30 4337 N 421.258 1.00505 1.21394 0
M  V30 4338 C 422.191 0.51032 2.22421 0
M  V30 4339 C 423.169 -0.436 1.56645 0
M  V30 4340 O 424.353 -0.358709 1.85055 0
M  V30 4341 C 421.48 -0.258733 3.3771 0
M  V30 4342 C 420.526 0.635395 4.2174 0
M  V30 4343 S 421.359 2.09783 4.92698 0
M  V30 4344 C 422.515 1.33862 6.11418 0
M  V30 4345 H 422.748 1.36637 2.64041 0
M  V30 4346 H 420.281 0.812991 1.31262 0
M  V30 4347 H 422.239 -0.696372 4.0455 0
M  V30 4348 H 420.9 -1.0902 2.94573 0
M  V30 4349 H 420.093 0.0430189 5.03982 0
M  V30 4350 H 419.695 1.01031 3.60095 0
M  V30 4351 H 421.987 0.612541 6.74725 0
M  V30 4352 H 422.93 2.13675 6.75092 0
M  V30 4353 H 423.338 0.846568 5.58116 0
M  V30 4354 N 422.737 -1.36956 0.779787 0
M  V30 4355 C 423.647 -2.33965 0.172491 0
M  V30 4356 C 424.663 -1.60574 -0.670222 0
M  V30 4357 O 425.839 -1.92617 -0.588263 0
M  V30 4358 C 422.904 -3.39761 -0.690173 0
M  V30 4359 C 421.965 -4.28964 0.169924 0
M  V30 4360 C 421.198 -5.29707 -0.651662 0
M  V30 4361 O 421.421 -5.38238 -1.88827 0
M  V30 4362 O 420.355 -6.01873 -0.0566264 0
M  V30 4363 H 424.181 -2.87647 0.974321 0
M  V30 4364 H 421.766 -1.39258 0.541078 0
M  V30 4365 H 423.648 -4.04471 -1.1824 0
M  V30 4366 H 422.323 -2.88394 -1.47006 0
M  V30 4367 H 421.23 -3.67326 0.708696 0
M  V30 4368 H 422.563 -4.83656 0.913085 0
M  V30 4369 N 424.215 -0.530993 -1.48385 0
M  V30 4370 C 425.492 0.0671788 -1.95485 0
M  V30 4371 C 425.872 1.51191 -1.47324 0
M  V30 4372 O 425.22 2.17507 -0.700202 0
M  V30 4373 C 425.43 -0.0511206 -3.48963 0
M  V30 4374 C 426.778 0.107632 -4.24464 0
M  V30 4375 O 427.802 0.0226248 -3.56193 0
M  V30 4376 O 426.661 0.285972 -5.45751 0
M  V30 4377 H 423.755 0.0787365 -0.823243 0
M  V30 4378 H 426.301 -0.595662 -1.58902 0
M  V30 4379 H 425.073 -1.05747 -3.7674 0
M  V30 4380 H 424.696 0.650525 -3.92242 0
M  V30 4381 N 425.693 1.55336 -0.266172 0
M  V30 4382 C 426.656 2.20878 0.612001 0
M  V30 4383 C 427.656 1.18388 1.08816 0
M  V30 4384 O 428.846 1.4335 0.989774 0
M  V30 4385 C 425.978 2.86765 1.84332 0
M  V30 4386 H 427.171 2.99873 0.0398718 0
M  V30 4387 H 424.724 1.56291 -0.0167309 0
M  V30 4388 H 425.459 2.11759 2.45619 0
M  V30 4389 H 425.244 3.61862 1.5099 0
M  V30 4390 H 426.734 3.36867 2.46801 0
M  V30 4391 N 427.171 -0.0066808 1.57599 0
M  V30 4392 C 428.419 -0.691552 1.899 0
M  V30 4393 C 428.74 -1.74682 0.866672 0
M  V30 4394 O 428.01 -1.95661 -0.0968189 0
M  V30 4395 H 426.59 -0.258416 0.700878 0
M  V30 4396 H 429.252 0.0326655 1.94873 0
M  V30 4397 H 428.348 -1.16702 2.8946 0
M  V30 4398 N 428.649 -1.55105 -0.279332 0
M  V30 4399 C 429.612 -1.86783 -1.32834 0
M  V30 4400 C 430.612 -0.74199 -1.42657 0
M  V30 4401 O 431.802 -1.0102 -1.41918 0
M  V30 4402 C 428.934 -2.06746 -2.71052 0
M  V30 4403 H 430.127 -2.8055 -1.05979 0
M  V30 4404 H 427.68 -1.47499 -0.517087 0
M  V30 4405 H 428.415 -1.15339 -3.03097 0
M  V30 4406 H 428.2 -2.88711 -2.65309 0
M  V30 4407 H 429.69 -2.32549 -3.46858 0
M  V30 4408 N 430.127 0.543554 -1.4793 0
M  V30 4409 C 431.057 1.65888 -1.64327 0
M  V30 4410 C 432.038 1.62818 -0.492383 0
M  V30 4411 O 433.223 1.80226 -0.723338 0
M  V30 4412 C 430.353 3.04506 -1.67013 0
M  V30 4413 C 429.307 3.2243 -2.81466 0
M  V30 4414 C 428.633 4.61972 -2.69233 0
M  V30 4415 C 429.933 3.06496 -4.22915 0
M  V30 4416 H 431.627 1.52421 -2.57698 0
M  V30 4417 H 429.173 0.731849 -1.24016 0
M  V30 4418 H 431.126 3.82391 -1.77074 0
M  V30 4419 H 429.85 3.18964 -0.70212 0
M  V30 4420 H 428.509 2.46957 -2.70938 0
M  V30 4421 H 428.157 4.73247 -1.7043 0
M  V30 4422 H 427.857 4.74911 -3.46025 0
M  V30 4423 H 429.381 5.41974 -2.81242 0
M  V30 4424 H 430.795 3.74186 -4.34348 0
M  V30 4425 H 429.192 3.30938 -5.006 0
M  V30 4426 H 430.262 2.03077 -4.40327 0
M  V30 4427 N 431.605 1.3629 0.791371 0
M  V30 4428 C 433.016 1.27225 1.36641 0
M  V30 4429 C 433.367 -0.0887968 1.95999 0
M  V30 4430 O 432.492 -0.990207 1.92416 0
M  V30 4431 C 433.087 2.30375 2.48421 0
M  V30 4432 C 431.646 2.25004 3.01746 0
M  V30 4433 C 430.793 2.15259 1.7481 0
M  V30 4434 H 433.744 1.47198 0.593173 0
M  V30 4435 H 433.765 1.93905 3.27385 0
M  V30 4436 H 433.277 3.29422 2.05189 0
M  V30 4437 H 431.378 1.29417 3.49403 0
M  V30 4438 H 431.491 3.1761 3.58693 0
M  V30 4439 H 429.855 1.61482 1.96966 0
M  V30 4440 H 430.638 3.16191 1.33709 0
M  V30 4441 N 433.083 -1.0153 1.20538 0
M  V30 4442 C 434.332 -1.74558 1.01057 0
M  V30 4443 C 434.645 -1.90168 -0.457756 0
M  V30 4444 O 435.851 -2.60301 -0.771722 0
M  V30 4445 C 434.307 -3.13963 1.75941 0
M  V30 4446 C 433.915 -3.06361 3.26875 0
M  V30 4447 C 435.659 -3.91191 1.64832 0
M  V30 4448 C 433.566 -4.40782 3.94291 0
M  V30 4449 H 432.496 -0.654417 0.374505 0
M  V30 4450 H 435.147 -1.13521 1.44171 0
M  V30 4451 H 433.529 -3.75549 1.25614 0
M  V30 4452 H 434.703 -2.54074 3.84425 0
M  V30 4453 H 433.018 -2.42625 3.38411 0
M  V30 4454 H 435.615 -4.90644 2.12539 0
M  V30 4455 H 435.958 -4.11884 0.604745 0
M  V30 4456 H 436.491 -3.36236 2.12579 0
M  V30 4457 H 433.23 -4.25292 4.98805 0
M  V30 4458 H 432.75 -4.9307 3.41529 0
M  V30 4459 H 434.429 -5.09621 3.98617 0
M  V30 4460 N 434.561 -1.01147 -1.20859 0
M  V30 4461 C 435.471 -0.58686 -2.27141 0
M  V30 4462 C 436.487 0.373198 -1.69951 0
M  V30 4463 O 437.663 0.235423 -2.00019 0
M  V30 4464 C 434.728 0.0733602 -3.46622 0
M  V30 4465 C 433.789 -0.931995 -4.19061 0
M  V30 4466 C 433.022 -0.303186 -5.32838 0
M  V30 4467 O 433.245 0.898395 -5.63281 0
M  V30 4468 O 432.179 -1.01735 -5.9324 0
M  V30 4469 H 436.005 -1.47155 -2.65667 0
M  V30 4470 H 433.59 -0.780689 -1.2738 0
M  V30 4471 H 435.472 0.442333 -4.19072 0
M  V30 4472 H 434.147 0.932329 -3.09983 0
M  V30 4473 H 433.054 -1.35224 -3.48805 0
M  V30 4474 H 434.387 -1.76076 -4.59628 0
M  V30 4475 N 436.039 1.36541 -0.78704 0
M  V30 4476 C 437.285 1.99599 -0.358872 0
M  V30 4477 C 437.618 1.62323 1.06606 0
M  V30 4478 O 436.893 0.876858 1.73613 0
M  V30 4479 C 437.176 3.56327 -0.519944 0
M  V30 4480 C 437.029 4.03464 -1.98839 0
M  V30 4481 C 438.348 4.4005 0.0664737 0
M  V30 4482 H 435.467 0.725107 -0.131869 0
M  V30 4483 H 438.109 1.6199 -0.992936 0
M  V30 4484 H 436.259 3.88495 0.0198321 0
M  V30 4485 H 437.931 3.81793 -2.58905 0
M  V30 4486 H 436.174 3.55092 -2.49183 0
M  V30 4487 H 436.845 5.12439 -2.05207 0
M  V30 4488 H 439.321 4.14228 -0.394267 0
M  V30 4489 H 438.197 5.48847 -0.0762682 0
M  V30 4490 H 438.458 4.26655 1.15835 0
M  V30 4491 N 437.518 0.538854 1.48102 0
M  V30 4492 C 438.795 -0.0568108 1.95517 0
M  V30 4493 C 439.175 -1.50408 1.48124 0
M  V30 4494 O 438.523 -2.17133 0.711727 0
M  V30 4495 C 438.733 0.0696262 3.48931 0
M  V30 4496 C 440.081 -0.0851202 4.24515 0
M  V30 4497 O 441.105 -0.0037347 3.562 0
M  V30 4498 O 439.964 -0.257025 5.45895 0
M  V30 4499 H 437.058 -0.0743695 0.823649 0
M  V30 4500 H 439.604 0.604081 1.58584 0
M  V30 4501 H 438.376 1.07744 3.76174 0
M  V30 4502 H 437.999 -0.629714 3.92582 0
M  V30 4503 N 438.996 -1.55193 0.274407 0
M  V30 4504 C 440.242 -1.99877 -0.343086 0
M  V30 4505 C 440.575 -1.16256 -1.55558 0
M  V30 4506 O 439.85 -0.232462 -1.93106 0
M  V30 4507 C 440.133 -3.52706 -0.725965 0
M  V30 4508 C 439.986 -4.47081 0.493818 0
M  V30 4509 C 441.305 -4.11422 -1.56268 0
M  V30 4510 H 438.424 -0.726625 -0.123229 0
M  V30 4511 H 441.066 -1.86136 0.38121 0
M  V30 4512 H 439.216 -3.64546 -1.34307 0
M  V30 4513 H 440.888 -4.47186 1.13237 0
M  V30 4514 H 439.131 -4.1877 1.13201 0
M  V30 4515 H 439.802 -5.51699 0.18217 0
M  V30 4516 H 442.278 -4.02855 -1.04151 0
M  V30 4517 H 441.154 -5.18568 -1.79939 0
M  V30 4518 H 441.415 -3.61607 -2.54348 0
M  V30 4519 N 440.474 -0.00167713 -1.576 0
M  V30 4520 C 441.699 0.69739 -1.95323 0
M  V30 4521 C 442.124 1.6642 -0.876706 0
M  V30 4522 O 441.482 1.80548 0.165007 0
M  V30 4523 C 441.53 1.40403 -3.32144 0
M  V30 4524 O 440.634 2.5185 -3.26566 0
M  V30 4525 H 439.975 0.185373 -0.637599 0
M  V30 4526 H 442.505 -0.0553665 -2.04525 0
M  V30 4527 H 442.515 1.76707 -3.67748 0
M  V30 4528 H 441.19 0.695167 -4.10049 0
M  V30 4529 H 439.767 2.17861 -3.0264 0
M  V30 4530 N 441.952 1.55251 0.271103 0
M  V30 4531 C 442.9 1.89054 1.35504 0
M  V30 4532 C 443.894 0.767064 1.51038 0
M  V30 4533 O 445.1 0.951429 1.528 0
M  V30 4534 H 441.475 0.600072 0.45323 0
M  V30 4535 H 443.446 2.79598 1.04247 0
M  V30 4536 C 442.195 2.18068 2.70817 0
M  V30 4537 H 441.518 3.04005 2.59656 0
M  V30 4538 H 442.958 2.4564 3.45597 0
M  V30 4539 C 441.417 0.988901 3.2206 0
M  V30 4540 O 441.947 0.224501 4.01072 0
M  V30 4541 N 440.153 0.786085 2.79766 0
M  V30 4542 H 439.7 1.40937 2.15626 0
M  V30 4543 H 439.658 -0.00969349 3.14399 0
M  V30 4544 N 443.43 -0.535701 1.48216 0
M  V30 4545 C 444.36 -1.65014 1.65204 0
M  V30 4546 C 445.341 -1.62554 0.501011 0
M  V30 4547 O 446.526 -1.7984 0.732886 0
M  V30 4548 C 443.656 -3.03616 1.68626 0
M  V30 4549 C 442.61 -3.20932 2.83172 0
M  V30 4550 C 441.936 -4.60537 2.71679 0
M  V30 4551 C 443.236 -3.04249 4.24535 0
M  V30 4552 H 444.93 -1.51053 2.58502 0
M  V30 4553 H 442.476 -0.725262 1.24402 0
M  V30 4554 H 444.429 -3.81446 1.79099 0
M  V30 4555 H 443.153 -3.18587 0.719026 0
M  V30 4556 H 441.812 -2.45517 2.72244 0
M  V30 4557 H 441.46 -4.72336 1.72937 0
M  V30 4558 H 441.16 -4.73069 3.48538 0
M  V30 4559 H 442.684 -5.40475 2.84112 0
M  V30 4560 H 444.098 -3.71877 4.36326 0
M  V30 4561 H 442.495 -3.28278 5.02348 0
M  V30 4562 H 443.565 -2.00739 4.41397 0
M  V30 4563 N 444.908 -1.36708 -0.784132 0
M  V30 4564 C 445.856 -1.31533 -1.91838 0
M  V30 4565 C 446.85 -0.206205 -1.6814 0
M  V30 4566 O 448.056 -0.373519 -1.76082 0
M  V30 4567 H 444.431 -0.409613 -0.630651 0
M  V30 4568 H 446.402 -2.2731 -1.9332 0
M  V30 4569 C 445.151 -1.12679 -3.28936 0
M  V30 4570 H 444.474 -1.97274 -3.4774 0
M  V30 4571 H 445.914 -1.13106 -4.08636 0
M  V30 4572 C 444.373 0.168281 -3.36479 0
M  V30 4573 O 444.903 1.15625 -3.84699 0
M  V30 4574 N 443.109 0.214762 -2.89805 0
M  V30 4575 H 442.656 -0.589852 -2.50756 0
M  V30 4576 H 442.614 1.08094 -2.95234 0
M  V30 4577 N 446.386 1.0089 -1.21074 0
M  V30 4578 C 447.319 2.09279 -0.909806 0
M  V30 4579 C 448.297 1.61986 0.141145 0
M  V30 4580 O 449.481 1.88495 0.0130332 0
M  V30 4581 C 446.608 3.36723 -0.365374 0
M  V30 4582 C 445.654 4.02919 -1.39852 0
M  V30 4583 S 446.487 4.45835 -2.96633 0
M  V30 4584 C 447.643 5.76471 -2.43786 0
M  V30 4585 H 447.876 2.34484 -1.82769 0
M  V30 4586 H 445.409 1.14115 -1.04006 0
M  V30 4587 H 447.367 4.10459 -0.0578203 0
M  V30 4588 H 446.028 3.09577 0.531136 0
M  V30 4589 H 445.221 4.94634 -0.967117 0
M  V30 4590 H 444.823 3.35441 -1.65395 0
M  V30 4591 H 447.115 6.52027 -1.84029 0
M  V30 4592 H 448.058 6.24418 -3.33928 0
M  V30 4593 H 448.466 5.33104 -1.85636 0
M  V30 4594 N 447.864 1.01787 1.20321 0
M  V30 4595 C 449.112 0.706538 1.89347 0
M  V30 4596 C 449.433 -0.766289 1.79313 0
M  V30 4597 O 448.703 -1.55126 1.19635 0
M  V30 4598 H 447.283 0.258348 0.700903 0
M  V30 4599 H 449.945 1.28974 1.46122 0
M  V30 4600 H 449.041 0.991066 2.95946 0
M  V30 4601 N 449.342 -1.36122 0.79427 0
M  V30 4602 C 450.619 -1.93398 0.292685 0
M  V30 4603 C 450.999 -1.72567 -1.21589 0
M  V30 4604 O 450.347 -1.08745 -2.00965 0
M  V30 4605 C 450.557 -3.42099 0.690614 0
M  V30 4606 C 451.905 -4.19231 0.673105 0
M  V30 4607 O 452.929 -3.50559 0.631389 0
M  V30 4608 O 451.788 -5.41732 0.720362 0
M  V30 4609 H 448.882 -0.823712 0.0736693 0
M  V30 4610 H 451.428 -1.45273 0.87714 0
M  V30 4611 H 450.2 -3.50938 1.73085 0
M  V30 4612 H 449.823 -3.97519 0.0803036 0
M  V30 4613 N 450.82 -0.546701 -1.47814 0
M  V30 4614 C 452.066 -0.0187684 -2.02791 0
M  V30 4615 C 452.399 1.32338 -1.42128 0
M  V30 4616 O 451.674 1.85867 -0.573023 0
M  V30 4617 C 451.957 0.0854985 -3.59998 0
M  V30 4618 C 451.81 -1.283 -4.31114 0
M  V30 4619 C 453.129 0.80412 -4.32691 0
M  V30 4620 H 450.248 -0.0082946 -0.736953 0
M  V30 4621 H 452.89 -0.706962 -1.76358 0
M  V30 4622 H 451.04 0.671609 -3.82651 0
M  V30 4623 H 452.712 -1.91151 -4.19832 0
M  V30 4624 H 450.955 -1.86049 -3.91878 0
M  V30 4625 H 451.626 -1.16287 -5.39612 0
M  V30 4626 H 454.102 0.306576 -4.14969 0
M  V30 4627 H 452.978 0.846011 -5.42341 0
M  V30 4628 H 453.239 1.85802 -4.01161 0
M  V30 4629 N 452.299 1.55045 -0.282633 0
M  V30 4630 C 453.548 1.98938 0.332667 0
M  V30 4631 C 453.861 1.17455 1.56409 0
M  V30 4632 O 455.067 1.51527 2.25282 0
M  V30 4633 C 453.523 3.54105 0.643226 0
M  V30 4634 C 453.131 4.44374 -0.568814 0
M  V30 4635 C 454.875 4.06569 1.22074 0
M  V30 4636 C 452.782 5.90943 -0.232426 0
M  V30 4637 H 451.712 0.743043 0.128075 0
M  V30 4638 H 454.363 1.79341 -0.388464 0
M  V30 4639 H 452.745 3.69532 1.42346 0
M  V30 4640 H 453.919 4.40718 -1.34551 0
M  V30 4641 H 452.234 4.02585 -1.06369 0
M  V30 4642 H 454.831 5.13626 1.48635 0
M  V30 4643 H 455.174 3.56057 2.15707 0
M  V30 4644 H 455.707 3.94612 0.502621 0
M  V30 4645 H 452.446 6.45567 -1.13683 0
M  V30 4646 H 451.966 5.9765 0.507357 0
M  V30 4647 H 453.645 6.4677 0.172657 0
M  V30 4648 N 453.777 0.010035 1.57597 0
M  V30 4649 C 455.054 -0.710296 1.82248 0
M  V30 4650 C 455.434 -1.91426 0.889911 0
M  V30 4651 O 454.782 -2.28424 -0.0590292 0
M  V30 4652 C 454.992 -1.10655 3.30993 0
M  V30 4653 C 456.34 -1.50621 3.96987 0
M  V30 4654 O 457.364 -1.20007 3.35375 0
M  V30 4655 O 456.223 -2.07587 5.05539 0
M  V30 4656 H 453.317 -0.34673 0.750804 0
M  V30 4657 H 455.863 0.0362578 1.69661 0
M  V30 4658 H 454.635 -0.248826 3.90508 0
M  V30 4659 H 454.258 -1.91189 3.48615 0
M  V30 4660 N 455.255 -1.55392 -0.262866 0
M  V30 4661 C 456.501 -1.76737 -0.99458 0
M  V30 4662 C 456.834 -0.572453 -1.85571 0
M  V30 4663 O 456.109 0.429732 -1.89693 0
M  V30 4664 C 456.392 -3.07824 -1.8686 0
M  V30 4665 C 456.245 -4.3769 -1.03672 0
M  V30 4666 C 457.564 -3.35021 -2.85393 0
M  V30 4667 H 454.683 -0.643005 -0.360157 0
M  V30 4668 H 457.325 -1.88126 -0.266216 0
M  V30 4669 H 455.475 -2.98245 -2.48962 0
M  V30 4670 H 457.147 -4.59238 -0.43563 0
M  V30 4671 H 455.39 -4.32461 -0.340513 0
M  V30 4672 H 456.061 -5.25759 -1.6817 0
M  V30 4673 H 458.537 -3.44458 -2.33426 0
M  V30 4674 H 457.413 -4.27989 -3.43681 0
M  V30 4675 H 457.674 -2.55153 -3.61039 0
M  V30 4676 N 456.733 0.527833 -1.48498 0
M  V30 4677 C 457.963 1.30633 -1.60058 0
M  V30 4678 C 458.371 1.87394 -0.260786 0
M  V30 4679 O 457.714 1.67227 0.760317 0
M  V30 4680 C 457.776 2.49361 -2.58958 0
M  V30 4681 C 457.44 2.13671 -4.03972 0
M  V30 4682 C 458.437 1.69217 -4.91591 0
M  V30 4683 C 456.122 2.24129 -4.49524 0
M  V30 4684 C 458.116 1.35689 -6.2279 0
M  V30 4685 C 455.803 1.90212 -5.80743 0
M  V30 4686 C 456.801 1.46063 -6.67199 0
M  V30 4687 O 456.489 1.12593 -7.95976 0
M  V30 4688 H 456.221 0.403444 -0.54241 0
M  V30 4689 H 458.775 0.643233 -1.95068 0
M  V30 4690 H 457.005 3.18659 -2.19073 0
M  V30 4691 H 458.694 3.11421 -2.6033 0
M  V30 4692 H 459.46 1.60607 -4.57636 0
M  V30 4693 H 455.339 2.57447 -3.82416 0
M  V30 4694 H 458.883 1.01157 -6.90227 0
M  V30 4695 H 454.78 1.98464 -6.14233 0
M  V30 4696 H 455.548 1.25972 -8.08748 0
M  V30 4697 N 458.211 1.37122 0.776871 0
M  V30 4698 C 459.622 1.28667 1.35284 0
M  V30 4699 C 459.973 -0.0680035 1.96082 0
M  V30 4700 O 459.098 -0.969743 1.93455 0
M  V30 4701 C 459.693 2.32997 2.45963 0
M  V30 4702 C 458.252 2.28191 2.99342 0
M  V30 4703 C 457.399 2.17101 1.72517 0
M  V30 4704 H 460.35 1.47819 0.577527 0
M  V30 4705 H 460.371 1.97366 3.2531 0
M  V30 4706 H 459.883 3.3158 2.01684 0
M  V30 4707 H 457.984 1.33115 3.4801 0
M  V30 4708 H 458.097 3.21397 3.55304 0
M  V30 4709 H 456.461 1.63562 1.95242 0
M  V30 4710 H 457.244 3.17591 1.30348 0
M  V30 4711 N 459.689 -1.00246 1.21608 0
M  V30 4712 C 460.919 -1.77373 1.05935 0
M  V30 4713 C 461.327 -1.85059 -0.393686 0
M  V30 4714 O 460.67 -1.31289 -1.28487 0
M  V30 4715 C 460.732 -3.22705 1.58435 0
M  V30 4716 C 460.396 -3.38591 3.06929 0
M  V30 4717 C 461.393 -3.2667 4.04454 0
M  V30 4718 C 459.078 -3.6395 3.46187 0
M  V30 4719 C 461.072 -3.39877 5.39224 0
M  V30 4720 C 458.759 -3.768 4.81108 0
M  V30 4721 C 459.757 -3.6477 5.77436 0
M  V30 4722 O 459.445 -3.77206 7.09909 0
M  V30 4723 H 459.177 -0.56419 0.372378 0
M  V30 4724 H 461.731 -1.26971 1.61454 0
M  V30 4725 H 459.961 -3.74255 0.973147 0
M  V30 4726 H 461.65 -3.81515 1.38568 0
M  V30 4727 H 462.416 -3.06999 3.75468 0
M  V30 4728 H 458.295 -3.72395 2.71741 0
M  V30 4729 H 461.839 -3.30404 6.14393 0
M  V30 4730 H 457.736 -3.95975 5.09779 0
M  V30 4731 H 458.504 -3.94138 7.17355 0
M  V30 4732 N 461.167 -1.02423 -1.1978 0
M  V30 4733 C 462.114 -0.601023 -2.22837 0
M  V30 4734 C 463.084 0.382801 -1.61629 0
M  V30 4735 O 464.269 0.280514 -1.88727 0
M  V30 4736 C 461.409 0.0467755 -3.45068 0
M  V30 4737 C 460.522 -0.98253 -4.20678 0
M  V30 4738 C 459.657 -0.304982 -5.30324 0
M  V30 4739 C 458.696 -1.32052 -5.97686 0
M  V30 4740 N 457.833 -0.669105 -6.98904 0
M  V30 4741 H 462.673 -1.48444 -2.58396 0
M  V30 4742 H 460.21 -0.742936 -1.2696 0
M  V30 4743 H 462.168 0.439556 -4.14878 0
M  V30 4744 H 460.798 0.893796 -3.10179 0
M  V30 4745 H 459.85 -1.49341 -3.49859 0
M  V30 4746 H 461.162 -1.75455 -4.66923 0
M  V30 4747 H 460.316 0.142893 -6.06532 0
M  V30 4748 H 459.055 0.499283 -4.85138 0
M  V30 4749 H 458.06 -1.7787 -5.20233 0
M  V30 4750 H 459.285 -2.1262 -6.44957 0
M  V30 4751 H 457.231 0.115152 -6.55899 0
M  V30 4752 H 457.148 -1.37908 -7.43315 0
M  V30 4753 H 458.416 -0.245076 -7.79115 0
M  V30 4754 N 462.645 1.35699 -0.801477 0
M  V30 4755 C 463.893 1.9852 -0.37871 0
M  V30 4756 C 464.214 1.63907 1.05638 0
M  V30 4757 O 463.484 0.919013 1.73006 0
M  V30 4758 H 462.064 0.734322 -0.137042 0
M  V30 4759 H 464.726 1.65697 -1.02619 0
M  V30 4760 H 463.822 3.08382 -0.480284 0
M  V30 4761 N 464.123 0.554532 1.47522 0
M  V30 4762 C 465.033 -0.197865 2.33764 0
M  V30 4763 C 466.049 -0.914576 1.48025 0
M  V30 4764 O 467.225 -0.884067 1.80959 0
M  V30 4765 C 464.29 -1.21628 3.24665 0
M  V30 4766 C 463.351 -0.507283 4.26292 0
M  V30 4767 C 462.584 -1.47718 5.1285 0
M  V30 4768 O 462.807 -2.7118 5.01814 0
M  V30 4769 O 461.741 -1.00313 5.93482 0
M  V30 4770 H 465.567 0.50949 2.99396 0
M  V30 4771 H 463.152 0.315176 1.46038 0
M  V30 4772 H 465.034 -1.80421 3.80823 0
M  V30 4773 H 463.709 -1.9056 2.61665 0
M  V30 4774 H 462.616 0.121778 3.73902 0
M  V30 4775 H 463.949 0.140544 4.91999 0
M  V30 4776 N 465.601 -1.54893 0.290851 0
M  V30 4777 C 466.847 -2.0023 -0.321867 0
M  V30 4778 C 467.18 -1.179 -1.54316 0
M  V30 4779 O 466.455 -0.25293 -1.92848 0
M  V30 4780 C 466.738 -3.53456 -0.688515 0
M  V30 4781 C 466.591 -4.46532 0.541209 0
M  V30 4782 C 467.91 -4.13057 -1.51895 0
M  V30 4783 H 465.029 -0.727891 -0.115515 0
M  V30 4784 H 467.671 -1.85722 0.400931 0
M  V30 4785 H 465.821 -3.6595 -1.30433 0
M  V30 4786 H 467.493 -4.4596 1.17973 0
M  V30 4787 H 465.736 -4.17545 1.17636 0
M  V30 4788 H 466.407 -5.51475 0.240675 0
M  V30 4789 H 468.883 -4.03937 -0.99872 0
M  V30 4790 H 467.759 -5.20448 -1.74429 0
M  V30 4791 H 468.02 -3.64284 -2.50498 0
M  V30 4792 N 467.08 -0.0183926 -1.57589 0
M  V30 4793 C 468.496 0.337897 -1.55982 0
M  V30 4794 C 468.696 1.73604 -1.02294 0
M  V30 4795 O 467.752 2.43589 -0.664895 0
M  V30 4796 C 469.065 0.196305 -3.00059 0
M  V30 4797 C 470.613 0.269875 -3.11834 0
M  V30 4798 C 471.088 0.157197 -4.5773 0
M  V30 4799 N 472.579 0.214521 -4.62703 0
M  V30 4800 C 473.314 0.150955 -5.73201 0
M  V30 4801 N 472.81 0.0369212 -6.9279 0
M  V30 4802 N 474.603 0.204162 -5.61729 0
M  V30 4803 H 466.754 -0.93279 -1.90821 0
M  V30 4804 H 469.017 -0.359253 -0.877292 0
M  V30 4805 H 468.723 -0.766383 -3.43248 0
M  V30 4806 H 468.597 0.970908 -3.6449 0
M  V30 4807 H 470.984 1.22302 -2.68563 0
M  V30 4808 H 471.065 -0.534918 -2.50144 0
M  V30 4809 H 470.709 -0.792479 -5.01679 0
M  V30 4810 H 470.639 0.980717 -5.17387 0
M  V30 4811 H 473.13 0.303238 -3.76681 0
M  V30 4812 H 473.443 -0.00518321 -7.728 0
M  V30 4813 H 471.788 0.0022886 -6.95 0
M  V30 4814 H 474.979 0.291575 -4.67191 0
M  V30 4815 H 475.152 0.15116 -6.47824 0
M  V30 4816 N 468.558 1.5553 0.254621 0
M  V30 4817 C 469.506 1.9048 1.33492 0
M  V30 4818 C 470.5 0.78304 1.50216 0
M  V30 4819 O 471.706 0.967582 1.51782 0
M  V30 4820 H 468.081 0.604846 0.44684 0
M  V30 4821 H 470.052 2.80688 1.01275 0
M  V30 4822 C 468.801 2.20928 2.68489 0
M  V30 4823 H 468.124 3.06742 2.56417 0
M  V30 4824 H 469.564 2.49291 3.42972 0
M  V30 4825 C 468.023 1.023 3.20993 0
M  V30 4826 O 468.553 0.267027 4.00811 0
M  V30 4827 N 466.759 0.815714 2.78917 0
M  V30 4828 H 466.306 1.43217 2.14119 0
M  V30 4829 H 466.264 0.0236532 3.14391 0
M  V30 4830 N 470.036 -0.519951 1.48776 0
M  V30 4831 C 470.986 -1.61995 1.60442 0
M  V30 4832 C 471.97 -1.54155 0.460991 0
M  V30 4833 O 473.162 -1.62006 0.712965 0
M  V30 4834 C 470.291 -3.00683 1.65664 0
M  V30 4835 C 469.377 -3.1359 2.8552 0
M  V30 4836 N 469.768 -2.96441 4.09825 0
M  V30 4837 C 468.066 -3.44662 2.83062 0
M  V30 4838 C 468.767 -3.1303 4.90293 0
M  V30 4839 N 467.743 -3.41058 4.23297 0
M  V30 4840 H 471.545 -1.47362 2.54287 0
M  V30 4841 H 469.059 -0.725649 1.45286 0
M  V30 4842 H 471.056 -3.79712 1.72117 0
M  V30 4843 H 469.716 -3.16401 0.729425 0
M  V30 4844 H 470.727 -2.72999 4.40104 0
M  V30 4845 H 467.404 -3.66675 1.9964 0
M  V30 4846 H 468.794 -3.04424 5.98979 0
M  V30 4847 N 471.514 -1.37532 -0.769588 0
M  V30 4848 C 472.424 -1.35668 -1.91393 0
M  V30 4849 C 473.44 -0.255954 -1.72107 0
M  V30 4850 O 474.616 -0.491704 -1.95305 0
M  V30 4851 C 471.681 -1.16481 -3.26547 0
M  V30 4852 C 470.742 -2.36212 -3.58472 0
M  V30 4853 C 469.975 -2.17932 -4.87177 0
M  V30 4854 O 470.198 -1.1647 -5.58382 0
M  V30 4855 O 469.132 -3.06167 -5.18214 0
M  V30 4856 H 472.958 -2.32055 -1.95918 0
M  V30 4857 H 470.543 -1.18284 -0.912641 0
M  V30 4858 H 472.425 -1.07778 -4.07384 0
M  V30 4859 H 471.1 -0.231687 -3.2287 0
M  V30 4860 H 470.007 -2.50488 -2.77861 0
M  V30 4861 H 471.34 -3.281 -3.66894 0
M  V30 4862 N 472.992 0.995999 -1.22138 0
M  V30 4863 C 474.22 1.77066 -1.07029 0
M  V30 4864 C 474.635 1.8495 0.379357 0
M  V30 4865 O 473.992 1.3174 1.26297 0
M  V30 4866 C 474.043 3.20533 -1.67155 0
M  V30 4867 O 473.764 3.13082 -3.06449 0
M  V30 4868 C 475.265 4.14461 -1.5728 0
M  V30 4869 H 472.485 0.556179 -0.375374 0
M  V30 4870 H 475.029 1.25238 -1.61666 0
M  V30 4871 H 473.184 3.6944 -1.16589 0
M  V30 4872 H 473.598 4.03283 -3.35355 0
M  V30 4873 H 475.072 5.1289 -2.04078 0
M  V30 4874 H 475.549 4.36005 -0.528795 0
M  V30 4875 H 476.155 3.71449 -2.07136 0
M  V30 4876 N 474.47 1.03057 1.19235 0
M  V30 4877 C 475.718 0.726581 1.88587 0
M  V30 4878 C 476.039 -0.747227 1.80115 0
M  V30 4879 O 475.309 -1.53849 1.21274 0
M  V30 4880 H 473.889 0.265768 0.698124 0
M  V30 4881 H 476.551 1.30516 1.44746 0
M  V30 4882 H 475.647 1.0224 2.94879 0
M  V30 4883 N 475.948 -1.35272 0.808662 0
M  V30 4884 C 476.858 -2.33546 0.222079 0
M  V30 4885 C 477.874 -1.6196 -0.636011 0
M  V30 4886 O 479.05 -1.93822 -0.547274 0
M  V30 4887 C 476.115 -3.41148 -0.61795 0
M  V30 4888 C 475.176 -4.28507 0.260875 0
M  V30 4889 C 474.409 -5.3097 -0.539156 0
M  V30 4890 O 474.632 -5.42123 -1.77367 0
M  V30 4891 O 473.566 -6.01858 0.0710526 0
M  V30 4892 H 477.392 -2.85515 1.03512 0
M  V30 4893 H 474.977 -1.38079 0.570495 0
M  V30 4894 H 476.859 -4.06889 -1.09634 0
M  V30 4895 H 475.534 -2.91447 -1.40855 0
M  V30 4896 H 474.441 -3.6574 0.786451 0
M  V30 4897 H 475.774 -4.81611 1.01547 0
M  V30 4898 N 477.426 -0.562348 -1.47226 0
M  V30 4899 C 478.356 0.170627 -2.32876 0
M  V30 4900 C 479.337 0.903748 -1.44106 0
M  V30 4901 O 480.522 0.883206 -1.72954 0
M  V30 4902 C 477.652 1.19786 -3.25989 0
M  V30 4903 C 476.606 0.580875 -4.2404 0
M  V30 4904 C 475.932 1.71311 -5.06514 0
M  V30 4905 C 477.232 -0.468714 -5.20193 0
M  V30 4906 H 478.926 -0.544441 -2.94408 0
M  V30 4907 H 476.472 -0.263271 -1.41573 0
M  V30 4908 H 478.425 1.71884 -3.84752 0
M  V30 4909 H 477.149 1.94294 -2.62521 0
M  V30 4910 H 475.808 0.0811538 -3.6651 0
M  V30 4911 H 475.456 2.44736 -4.39447 0
M  V30 4912 H 475.156 1.30604 -5.72902 0
M  V30 4913 H 476.68 2.23725 -5.68137 0
M  V30 4914 H 478.094 -0.0336028 -5.7329 0
M  V30 4915 H 476.491 -0.794957 -5.94811 0
M  V30 4916 H 477.561 -1.36269 -4.65359 0
M  V30 4917 N 478.904 1.54736 -0.299062 0
M  V30 4918 C 479.834 2.26409 0.571085 0
M  V30 4919 C 480.815 1.2629 1.13951 0
M  V30 4920 O 482 1.55059 1.16921 0
M  V30 4921 C 479.13 3.00338 1.74396 0
M  V30 4922 C 478.084 4.07588 1.30599 0
M  V30 4923 C 477.41 4.69222 2.56387 0
M  V30 4924 C 478.71 5.20455 0.438645 0
M  V30 4925 H 480.404 2.99388 -0.0266991 0
M  V30 4926 H 477.95 1.43993 -0.0142812 0
M  V30 4927 H 479.903 3.49198 2.35878 0
M  V30 4928 H 478.627 2.24934 2.36796 0
M  V30 4929 H 477.286 3.59575 0.71424 0
M  V30 4930 H 476.934 3.9046 3.17097 0
M  V30 4931 H 476.634 5.41653 2.27784 0
M  V30 4932 H 478.158 5.20844 3.18675 0
M  V30 4933 H 479.572 5.65221 0.959085 0
M  V30 4934 H 477.969 5.99594 0.246466 0
M  V30 4935 H 479.039 4.8192 -0.536738 0
M  V30 4936 N 480.382 0.0267497 1.57577 0
M  V30 4937 C 481.345 -0.940916 2.08996 0
M  V30 4938 C 482.345 -1.25561 1.00455 0
M  V30 4939 O 483.535 -1.19634 1.26623 0
M  V30 4940 C 480.667 -2.25814 2.55384 0
M  V30 4941 H 481.86 -0.495628 2.95776 0
M  V30 4942 H 479.413 -0.221241 1.54726 0
M  V30 4943 H 480.148 -2.74976 1.71926 0
M  V30 4944 H 479.933 -2.04285 3.34679 0
M  V30 4945 H 481.423 -2.95178 2.95398 0
M  V30 4946 N 481.861 -1.55662 -0.24637 0
M  V30 4947 C 483.089 -1.81575 -0.991876 0
M  V30 4948 C 483.504 -0.602545 -1.78927 0
M  V30 4949 O 482.861 0.428795 -1.77391 0
M  V30 4950 C 482.912 -3.05711 -1.92933 0
M  V30 4951 O 482.633 -4.22348 -1.1642 0
M  V30 4952 C 484.134 -3.44428 -2.79078 0
M  V30 4953 H 481.354 -0.604209 -0.291844 0
M  V30 4954 H 483.898 -2.02722 -0.269095 0
M  V30 4955 H 482.053 -2.86612 -2.60638 0
M  V30 4956 H 482.467 -4.92706 -1.79835 0
M  V30 4957 H 483.941 -4.34388 -3.40603 0
M  V30 4958 H 484.418 -2.65037 -3.50217 0
M  V30 4959 H 485.024 -3.65879 -2.16824 0
M  V30 4960 N 483.339 0.512053 -1.4905 0
M  V30 4961 C 484.586 1.26686 -1.57978 0
M  V30 4962 C 484.914 1.92733 -0.261553 0
M  V30 4963 O 484.169 1.80772 0.749667 0
M  V30 4964 C 484.468 2.36446 -2.68008 0
M  V30 4965 C 484.134 1.87932 -4.09869 0
M  V30 4966 C 482.796 1.74419 -4.48477 0
M  V30 4967 C 485.148 1.5149 -4.98698 0
M  V30 4968 C 482.476 1.22827 -5.73699 0
M  V30 4969 C 484.828 1.01355 -6.24428 0
M  V30 4970 C 483.492 0.864735 -6.61875 0
M  V30 4971 H 482.762 0.463577 -0.578081 0
M  V30 4972 H 485.409 0.569421 -1.82838 0
M  V30 4973 H 483.714 3.11933 -2.37076 0
M  V30 4974 H 485.411 2.9453 -2.72127 0
M  V30 4975 H 482.001 1.99405 -3.79389 0
M  V30 4976 H 486.185 1.60782 -4.69535 0
M  V30 4977 H 481.441 1.10008 -6.01422 0
M  V30 4978 H 485.615 0.722351 -6.92644 0
M  V30 4979 H 483.242 0.462777 -7.5879 0
M  V30 4980 N 484.817 1.37938 0.762283 0
M  V30 4981 C 485.727 1.36681 1.90671 0
M  V30 4982 C 486.743 0.265078 1.71969 0
M  V30 4983 O 487.919 0.502055 1.95042 0
M  V30 4984 C 484.984 1.18211 3.25925 0
M  V30 4985 C 484.045 2.3811 3.57214 0
M  V30 4986 C 483.278 2.20512 4.86014 0
M  V30 4987 O 483.501 1.19429 5.57757 0
M  V30 4988 O 482.435 3.08911 5.16583 0
M  V30 4989 H 486.261 2.33091 1.94685 0
M  V30 4990 H 483.846 1.18767 0.906356 0
M  V30 4991 H 485.728 1.09937 4.06807 0
M  V30 4992 H 484.403 0.248807 3.22742 0
M  V30 4993 H 483.31 2.51958 2.76529 0
M  V30 4994 H 484.643 3.30041 3.65149 0
M  V30 4995 N 486.295 -0.989507 1.22664 0
M  V30 4996 C 487.225 -2.09847 1.02404 0
M  V30 4997 C 488.206 -1.70007 -0.0561303 0
M  V30 4998 O 489.391 -1.93906 0.106748 0
M  V30 4999 C 486.521 -3.41996 0.604663 0
M  V30 5000 C 485.475 -3.95699 1.63115 0
M  V30 5001 C 484.801 -5.23936 1.0675 0
M  V30 5002 C 486.101 -4.25999 3.02196 0
M  V30 5003 H 487.795 -2.27054 1.95158 0
M  V30 5004 H 485.341 -1.09111 0.939727 0
M  V30 5005 H 487.294 -4.1899 0.45002 0
M  V30 5006 H 486.018 -3.24626 -0.35855 0
M  V30 5007 H 484.677 -3.2084 1.77362 0
M  V30 5008 H 484.325 -5.02909 0.0955422 0
M  V30 5009 H 484.025 -5.60833 1.75328 0
M  V30 5010 H 485.549 -6.0356 0.924516 0
M  V30 5011 H 486.963 -4.93777 2.91303 0
M  V30 5012 H 485.36 -4.74076 3.67929 0
M  V30 5013 H 486.43 -3.33636 3.51873 0
M  V30 5014 N 487.773 -1.03688 -1.18687 0
M  V30 5015 C 488.72 -0.624624 -2.22187 0
M  V30 5016 C 489.69 0.365636 -1.62026 0
M  V30 5017 O 490.875 0.260481 -1.89014 0
M  V30 5018 C 488.015 0.0101738 -3.45099 0
M  V30 5019 C 487.128 -1.02709 -4.19613 0
M  V30 5020 C 486.263 -0.361213 -5.2997 0
M  V30 5021 C 485.302 -1.38384 -5.96252 0
M  V30 5022 N 484.439 -0.743196 -6.98155 0
M  V30 5023 H 489.279 -1.51176 -2.56807 0
M  V30 5024 H 486.816 -0.75636 -1.26165 0
M  V30 5025 H 488.774 0.395528 -4.15321 0
M  V30 5026 H 487.404 0.860848 -3.1111 0
M  V30 5027 H 486.456 -1.53043 -3.48256 0
M  V30 5028 H 487.768 -1.80398 -4.65036 0
M  V30 5029 H 486.922 0.0785537 -6.06649 0
M  V30 5030 H 485.661 0.447799 -4.8564 0
M  V30 5031 H 484.666 -1.83378 -5.18317 0
M  V30 5032 H 485.891 -2.19448 -6.42666 0
M  V30 5033 H 483.837 0.0455789 -6.55984 0
M  V30 5034 H 483.754 -1.45784 -7.41811 0
M  V30 5035 H 485.022 -0.327698 -7.78811 0
M  V30 5036 N 489.251 1.34841 -0.815825 0
M  V30 5037 C 490.479 2.0273 -0.413294 0
M  V30 5038 C 490.894 1.61459 0.978599 0
M  V30 5039 O 490.251 0.816584 1.63212 0
M  V30 5040 C 490.302 3.58058 -0.497676 0
M  V30 5041 O 490.023 3.97832 -1.8347 0
M  V30 5042 C 491.524 4.4321 -0.0891339 0
M  V30 5043 H 488.744 0.649956 -0.166728 0
M  V30 5044 H 491.288 1.72267 -1.10201 0
M  V30 5045 H 489.443 3.87136 0.142886 0
M  V30 5046 H 489.857 4.92501 -1.80396 0
M  V30 5047 H 491.331 5.5164 -0.199274 0
M  V30 5048 H 491.808 4.28432 0.966571 0
M  V30 5049 H 492.414 4.19446 -0.703214 0
M  V30 5050 N 490.729 0.570148 1.46925 0
M  V30 5051 C 492.006 -0.0153259 1.95594 0
M  V30 5052 C 492.386 -1.47232 1.51281 0
M  V30 5053 O 491.734 -2.15574 0.757624 0
M  V30 5054 C 491.944 0.143624 3.48704 0
M  V30 5055 C 493.292 0.00494484 4.246 0
M  V30 5056 O 494.316 0.0718214 3.56128 0
M  V30 5057 O 493.175 -0.141175 5.46318 0
M  V30 5058 H 490.269 -0.0568819 0.825041 0
M  V30 5059 H 492.815 0.637583 1.57267 0
M  V30 5060 H 491.587 1.15699 3.73804 0
M  V30 5061 H 491.21 -0.5463 3.93829 0
M  V30 5062 N 492.207 -1.54576 0.307264 0
M  V30 5063 C 493.453 -2.0056 -0.300612 0
M  V30 5064 C 493.786 -1.1953 -1.53057 0
M  V30 5065 O 493.061 -0.27337 -1.92569 0
M  V30 5066 C 493.344 -3.54167 -0.650987 0
M  V30 5067 C 493.197 -4.45933 0.588539 0
M  V30 5068 C 494.516 -4.14645 -1.47506 0
M  V30 5069 H 491.635 -0.729075 -0.107788 0
M  V30 5070 H 494.277 -1.85286 0.420606 0
M  V30 5071 H 492.427 -3.67313 -1.26544 0
M  V30 5072 H 494.099 -4.44683 1.22697 0
M  V30 5073 H 492.342 -4.16274 1.22058 0
M  V30 5074 H 493.013 -5.51189 0.299153 0
M  V30 5075 H 495.489 -4.04973 -0.955821 0
M  V30 5076 H 494.365 -5.22269 -1.68899 0
M  V30 5077 H 494.626 -3.66921 -2.4662 0
M  V30 5078 N 493.685 -0.035106 -1.57561 0
M  V30 5079 C 494.615 0.942993 -2.13612 0
M  V30 5080 C 495.596 1.33531 -1.05373 0
M  V30 5081 O 496.781 1.41287 -1.33235 0
M  V30 5082 C 493.911 2.22332 -2.66807 0
M  V30 5083 C 492.865 1.97156 -3.79886 0
M  V30 5084 C 492.191 3.31506 -4.19533 0
M  V30 5085 C 493.491 1.30596 -5.05709 0
M  V30 5086 H 495.185 0.476179 -2.95589 0
M  V30 5087 H 492.731 0.227602 -1.4219 0
M  V30 5088 H 494.684 2.91142 -3.04654 0
M  V30 5089 H 493.408 2.7119 -1.81999 0
M  V30 5090 H 492.067 1.30763 -3.42486 0
M  V30 5091 H 491.715 3.78134 -3.31698 0
M  V30 5092 H 491.415 3.15465 -4.95738 0
M  V30 5093 H 492.939 4.01574 -4.59968 0
M  V30 5094 H 494.353 1.89416 -5.41105 0
M  V30 5095 H 492.75 1.24934 -5.86951 0
M  V30 5096 H 493.82 0.279742 -4.84092 0
M  V30 5097 N 495.163 1.55791 0.238111 0
M  V30 5098 C 496.412 1.77234 0.962868 0
M  V30 5099 C 496.725 0.600661 1.86149 0
M  V30 5100 O 497.931 0.698315 2.62366 0
M  V30 5101 C 496.387 3.13808 1.76218 0
M  V30 5102 C 495.995 4.3865 0.910518 0
M  V30 5103 C 497.739 3.44585 2.47914 0
M  V30 5104 C 495.646 5.66252 1.70623 0
M  V30 5105 H 494.576 0.660731 0.36325 0
M  V30 5106 H 497.227 1.8221 0.217242 0
M  V30 5107 H 495.609 3.02963 2.55009 0
M  V30 5108 H 496.783 4.60507 0.164316 0
M  V30 5109 H 495.098 4.15271 0.30647 0
M  V30 5110 H 497.695 4.3714 3.07917 0
M  V30 5111 H 498.038 2.66314 3.19973 0
M  V30 5112 H 498.571 3.56685 1.76127 0
M  V30 5113 H 495.31 6.47369 1.02923 0
M  V30 5114 H 494.83 5.48483 2.42748 0
M  V30 5115 H 496.509 6.05829 2.27114 0
M  V30 5116 N 496.642 -0.504142 1.49319 0
M  V30 5117 C 497.919 -1.26548 1.49147 0
M  V30 5118 C 498.299 -2.09977 0.21744 0
M  V30 5119 O 497.647 -2.14028 -0.800269 0
M  V30 5120 C 497.857 -2.12489 2.76857 0
M  V30 5121 C 499.205 -2.7178 3.26222 0
M  V30 5122 O 500.229 -2.22758 2.77952 0
M  V30 5123 O 499.088 -3.61015 4.10281 0
M  V30 5124 H 496.182 -0.572495 0.596806 0
M  V30 5125 H 498.728 -0.51867 1.61579 0
M  V30 5126 H 497.5 -1.50796 3.61077 0
M  V30 5127 H 497.123 -2.94368 2.6727 0
M  V30 5128 N 498.12 -1.38341 -0.754957 0
M  V30 5129 C 499.03 -1.3769 -1.89944 0
M  V30 5130 C 500.046 -0.274194 -1.71826 0
M  V30 5131 O 501.222 -0.512391 -1.94773 0
M  V30 5132 C 498.287 -1.19938 -3.25293 0
M  V30 5133 C 497.348 -2.40001 -3.55946 0
M  V30 5134 C 496.581 -2.23087 -4.84838 0
M  V30 5135 O 496.804 -1.22386 -5.57116 0
M  V30 5136 O 495.738 -3.11646 -5.14937 0
M  V30 5137 H 499.564 -2.3412 -1.93446 0
M  V30 5138 H 497.149 -1.19246 -0.900044 0
M  V30 5139 H 499.031 -1.12093 -4.06218 0
M  V30 5140 H 497.706 -0.265919 -3.22606 0
M  V30 5141 H 496.613 -2.53421 -2.75188 0
M  V30 5142 H 497.946 -3.31973 -3.63394 0
M  V30 5143 N 499.598 0.982988 -1.23187 0
M  V30 5144 C 500.844 1.72648 -1.06398 0
M  V30 5145 C 501.177 1.90066 0.398561 0
M  V30 5146 O 500.452 1.45105 1.29518 0
M  V30 5147 C 500.735 3.12627 -1.78707 0
M  V30 5148 C 500.588 3.02795 -3.32618 0
M  V30 5149 C 501.907 4.11997 -1.54747 0
M  V30 5150 H 499.026 0.626649 -0.387918 0
M  V30 5151 H 501.668 1.14455 -1.51658 0
M  V30 5152 H 499.818 3.62308 -1.40234 0
M  V30 5153 H 501.49 2.60659 -3.80598 0
M  V30 5154 H 499.733 2.39362 -3.61785 0
M  V30 5155 H 500.404 4.01893 -3.78399 0
M  V30 5156 H 502.88 3.71114 -1.88186 0
M  V30 5157 H 501.756 5.08037 -2.07821 0
M  V30 5158 H 502.017 4.39462 -0.482249 0
M  V30 5159 N 501.076 1.04316 1.18135 0
M  V30 5160 C 502.492 0.762858 1.40188 0
M  V30 5161 C 502.692 -0.646547 1.90846 0
M  V30 5162 O 501.748 -1.41036 2.0944 0
M  V30 5163 C 503.061 1.81106 2.40044 0
M  V30 5164 C 504.609 1.83226 2.53766 0
M  V30 5165 C 505.084 2.87044 3.56889 0
M  V30 5166 N 506.575 2.85951 3.64398 0
M  V30 5167 C 507.31 3.62932 4.43923 0
M  V30 5168 N 506.806 4.49672 5.27036 0
M  V30 5169 N 508.599 3.51411 4.38711 0
M  V30 5170 H 500.75 1.95264 0.835805 0
M  V30 5171 H 503.013 0.845017 0.429709 0
M  V30 5172 H 502.719 2.82214 2.09876 0
M  V30 5173 H 502.593 1.64529 3.39426 0
M  V30 5174 H 504.98 0.827869 2.8325 0
M  V30 5175 H 505.061 2.03879 1.54489 0
M  V30 5176 H 504.705 3.87663 3.28145 0
M  V30 5177 H 504.635 2.63645 4.5585 0
M  V30 5178 H 507.126 2.23051 3.05052 0
M  V30 5179 H 507.439 5.05116 5.84874 0
M  V30 5180 H 505.784 4.53738 5.26447 0
M  V30 5181 H 508.975 2.83047 3.72829 0
M  V30 5182 H 509.148 4.11654 5.00445 0
M  V30 5183 N 502.554 -1.34406 0.822964 0
M  V30 5184 C 503.517 -2.2783 0.250271 0
M  V30 5185 C 504.517 -1.50288 -0.571854 0
M  V30 5186 O 505.707 -1.69825 -0.387952 0
M  V30 5187 C 502.839 -3.34663 -0.649137 0
M  V30 5188 H 504.032 -2.79992 1.07444 0
M  V30 5189 H 501.585 -1.44539 0.594829 0
M  V30 5190 H 502.32 -2.87714 -1.49637 0
M  V30 5191 H 502.105 -3.92052 -0.0611199 0
M  V30 5192 H 503.595 -4.04349 -1.04363 0
M  V30 5193 N 504.032 -0.577932 -1.46621 0
M  V30 5194 C 505.28 -0.061566 -2.02006 0
M  V30 5195 C 505.601 1.30117 -1.4524 0
M  V30 5196 O 504.871 1.85313 -0.63529 0
M  V30 5197 H 503.451 -0.0197692 -0.746738 0
M  V30 5198 H 506.113 -0.752631 -1.79782 0
M  V30 5199 H 505.209 0.0110238 -3.12098 0
M  V30 5200 N 505.51 1.54411 -0.315457 0
M  V30 5201 C 506.758 2.00023 0.288971 0
M  V30 5202 C 507.079 1.20529 1.5329 0
M  V30 5203 O 506.349 0.304986 1.93511 0
M  V30 5204 H 504.929 0.738891 0.109766 0
M  V30 5205 H 507.591 1.90094 -0.430129 0
M  V30 5206 H 506.687 3.07198 0.550999 0
M  V30 5207 N 506.988 0.0434614 1.5754 0
M  V30 5208 C 508.404 -0.313039 1.565 0
M  V30 5209 C 508.604 -1.71954 1.05043 0
M  V30 5210 O 507.66 -2.425 0.703564 0
M  V30 5211 C 508.973 -0.148544 3.00333 0
M  V30 5212 C 510.521 -0.220231 3.12224 0
M  V30 5213 C 510.996 -0.0843565 4.57922 0
M  V30 5214 N 512.487 -0.140881 4.62986 0
M  V30 5215 C 513.222 -0.0597443 5.73369 0
M  V30 5216 N 512.718 0.0733004 6.92761 0
M  V30 5217 N 514.511 -0.11477 5.61983 0
M  V30 5218 H 506.662 0.96303 1.89313 0
M  V30 5219 H 508.925 0.373164 0.871466 0
M  V30 5220 H 508.631 0.820894 3.41986 0
M  V30 5221 H 508.505 -0.912798 3.65989 0
M  V30 5222 H 510.892 -1.18014 2.70475 0
M  V30 5223 H 510.973 0.574646 2.49262 0
M  V30 5224 H 510.617 0.872192 5.00355 0
M  V30 5225 H 510.547 -0.898281 5.18882 0
M  V30 5226 H 513.038 -0.243273 3.77116 0
M  V30 5227 H 513.351 0.128128 7.72694 0
M  V30 5228 H 511.696 0.10828 6.94916 0
M  V30 5229 H 514.887 -0.217212 4.67596 0
M  V30 5230 H 515.06 -0.0480779 6.47982 0
M  V30 5231 N 508.466 -1.55915 -0.229846 0
M  V30 5232 C 509.715 -1.77742 -0.953455 0
M  V30 5233 C 510.028 -0.610524 -1.85828 0
M  V30 5234 O 511.234 -0.712219 -2.61992 0
M  V30 5235 C 509.69 -3.14738 -1.74551 0
M  V30 5236 C 509.298 -4.39126 -0.887242 0
M  V30 5237 C 511.042 -3.45895 -2.46084 0
M  V30 5238 C 508.949 -5.67149 -1.67617 0
M  V30 5239 H 507.879 -0.662648 -0.359741 0
M  V30 5240 H 510.53 -1.82322 -0.207576 0
M  V30 5241 H 508.912 -3.04311 -2.53399 0
M  V30 5242 H 510.086 -4.60588 -0.139892 0
M  V30 5243 H 508.401 -4.15427 -0.284443 0
M  V30 5244 H 510.998 -4.38767 -3.05594 0
M  V30 5245 H 511.341 -2.68007 -3.18556 0
M  V30 5246 H 511.874 -3.57614 -1.74233 0
M  V30 5247 H 508.613 -6.47906 -0.994881 0
M  V30 5248 H 508.133 -5.49763 -2.39836 0
M  V30 5249 H 509.812 -6.07025 -2.23898 0
M  V30 5250 N 509.944 0.496216 -1.49584 0
M  V30 5251 C 511.355 1.07765 -1.52459 0
M  V30 5252 C 511.706 1.93679 -0.31353 0
M  V30 5253 O 510.831 2.08588 0.576186 0
M  V30 5254 C 511.426 1.96111 -2.76271 0
M  V30 5255 C 509.985 2.49409 -2.81908 0
M  V30 5256 C 509.132 1.27142 -2.46435 0
M  V30 5257 H 512.083 0.279914 -1.56212 0
M  V30 5258 H 512.104 2.80862 -2.56704 0
M  V30 5259 H 511.616 1.33555 -3.64396 0
M  V30 5260 H 509.717 3.1559 -1.98074 0
M  V30 5261 H 509.83 2.86234 -3.84196 0
M  V30 5262 H 508.194 1.59818 -1.98319 0
M  V30 5263 H 508.977 0.662866 -3.3684 0
M  V30 5264 N 511.423 1.38739 0.74761 0
M  V30 5265 C 512.353 1.39173 1.87492 0
M  V30 5266 C 513.334 0.256794 1.6815 0
M  V30 5267 O 514.519 0.460762 1.88655 0
M  V30 5268 C 511.649 1.22197 3.25093 0
M  V30 5269 C 510.603 2.32957 3.59047 0
M  V30 5270 C 509.929 2.01082 4.95449 0
M  V30 5271 C 511.229 3.75237 3.6331 0
M  V30 5272 H 512.923 2.3351 1.87386 0
M  V30 5273 H 510.469 1.12399 0.900134 0
M  V30 5274 H 512.422 1.21124 4.03617 0
M  V30 5275 H 511.146 0.243241 3.25693 0
M  V30 5276 H 509.805 2.33226 2.82845 0
M  V30 5277 H 509.453 1.01678 4.92616 0
M  V30 5278 H 509.153 2.75267 5.19136 0
M  V30 5279 H 510.677 2.01638 5.76346 0
M  V30 5280 H 512.091 3.76966 4.31937 0
M  V30 5281 H 510.488 4.48677 3.98509 0
M  V30 5282 H 511.558 4.07122 2.634 0
M  V30 5283 N 512.901 -0.976442 1.23707 0
M  V30 5284 C 514.15 -1.71254 1.06559 0
M  V30 5285 C 514.463 -1.91528 -0.397024 0
M  V30 5286 O 515.669 -2.62625 -0.688518 0
M  V30 5287 C 514.125 -3.08207 1.8584 0
M  V30 5288 C 513.733 -2.95806 3.36456 0
M  V30 5289 C 515.477 -3.85749 1.77194 0
M  V30 5290 C 513.384 -4.28015 4.08114 0
M  V30 5291 H 512.314 -0.642171 0.395136 0
M  V30 5292 H 514.965 -1.08877 1.4771 0
M  V30 5293 H 513.347 -3.71363 1.37498 0
M  V30 5294 H 514.521 -2.41716 3.92314 0
M  V30 5295 H 512.836 -2.31736 3.45959 0
M  V30 5296 H 515.433 -4.83633 2.28041 0
M  V30 5297 H 515.776 -4.09752 0.735477 0
M  V30 5298 H 516.309 -3.29303 2.23169 0
M  V30 5299 H 513.048 -4.09208 5.12083 0
M  V30 5300 H 512.568 -4.81955 3.57043 0
M  V30 5301 H 514.247 -4.96681 4.14629 0
M  V30 5302 N 514.379 -1.04941 -1.1758 0
M  V30 5303 C 515.628 -0.753124 -1.87112 0
M  V30 5304 C 515.941 0.722507 -1.81767 0
M  V30 5305 O 517.147 1.13265 -2.46746 0
M  V30 5306 C 515.603 -1.29695 -3.35719 0
M  V30 5307 C 515.211 -2.80184 -3.49572 0
M  V30 5308 C 516.955 -1.07759 -4.10595 0
M  V30 5309 C 514.862 -3.2788 -4.92187 0
M  V30 5310 H 513.792 -0.278034 -0.700866 0
M  V30 5311 H 516.443 -1.26637 -1.32798 0
M  V30 5312 H 514.825 -0.711522 -3.89555 0
M  V30 5313 H 515.999 -3.44561 -3.05965 0
M  V30 5314 H 514.314 -3.00632 -2.88113 0
M  V30 5315 H 516.911 -1.40899 -5.15802 0
M  V30 5316 H 517.254 -0.0152302 -4.16297 0
M  V30 5317 H 517.787 -1.62809 -3.62957 0
M  V30 5318 H 514.526 -4.33535 -4.91658 0
M  V30 5319 H 514.046 -2.68245 -5.36475 0
M  V30 5320 H 515.725 -3.22412 -5.60945 0
M  V30 5321 N 515.857 1.33968 -0.830081 0
M  V30 5322 C 517.105 1.97672 -0.420734 0
M  V30 5323 C 517.426 1.66111 1.02138 0
M  V30 5324 O 516.696 0.955503 1.71017 0
M  V30 5325 H 515.276 0.73125 -0.152587 0
M  V30 5326 H 517.938 1.63483 -1.0611 0
M  V30 5327 H 517.034 3.07294 -0.545588 0
M  V30 5328 N 517.335 0.585699 1.46312 0
M  V30 5329 C 518.751 0.247607 1.57668 0
M  V30 5330 C 518.951 -1.25007 1.58037 0
M  V30 5331 O 518.007 -2.03196 1.49893 0
M  V30 5332 C 519.32 0.899456 2.86933 0
M  V30 5333 C 520.868 0.873326 3.00569 0
M  V30 5334 C 521.343 1.50477 4.32574 0
M  V30 5335 N 522.834 1.46925 4.3928 0
M  V30 5336 C 523.569 1.92719 5.40044 0
M  V30 5337 N 523.065 2.46499 6.47464 0
M  V30 5338 N 524.858 1.83617 5.31264 0
M  V30 5339 H 517.009 1.55841 1.44317 0
M  V30 5340 H 519.272 0.651564 0.688599 0
M  V30 5341 H 518.978 1.95313 2.92482 0
M  V30 5342 H 518.852 0.409476 3.74971 0
M  V30 5343 H 521.239 -0.171736 2.946 0
M  V30 5344 H 521.32 1.40136 2.13999 0
M  V30 5345 H 520.964 2.54905 4.39302 0
M  V30 5346 H 520.894 0.951944 5.17924 0
M  V30 5347 H 523.385 1.07616 3.62253 0
M  V30 5348 H 523.698 2.79291 7.20567 0
M  V30 5349 H 522.043 2.50526 6.48276 0
M  V30 5350 H 525.234 1.41358 4.46246 0
M  V30 5351 H 525.407 2.19622 6.09648 0
M  V30 5352 N 518.813 -1.54241 0.323641 0
M  V30 5353 C 520.061 -2.00174 -0.278359 0
M  V30 5354 C 520.382 -1.2134 -1.52648 0
M  V30 5355 O 519.652 -0.315244 -1.93347 0
M  V30 5356 H 518.232 -0.739463 -0.105845 0
M  V30 5357 H 520.894 -1.89864 0.440204 0
M  V30 5358 H 519.99 -3.07486 -0.5347 0
M  V30 5359 N 520.291 -0.0518155 -1.57515 0
M  V30 5360 C 521.221 0.920283 -2.146 0
M  V30 5361 C 522.202 1.32406 -1.06783 0
M  V30 5362 O 523.387 1.39866 -1.34726 0
M  V30 5363 C 520.517 2.1949 -2.6915 0
M  V30 5364 C 519.471 1.93116 -3.81956 0
M  V30 5365 C 518.797 3.27037 -4.23026 0
M  V30 5366 C 520.097 1.25225 -5.07066 0
M  V30 5367 H 521.791 0.444801 -2.96077 0
M  V30 5368 H 519.337 0.212508 -1.42423 0
M  V30 5369 H 521.29 2.87894 -3.07725 0
M  V30 5370 H 520.014 2.69244 -1.84865 0
M  V30 5371 H 518.673 1.27123 -3.43854 0
M  V30 5372 H 518.321 3.74595 -3.3569 0
M  V30 5373 H 518.021 3.10189 -4.99056 0
M  V30 5374 H 519.545 3.96673 -4.64202 0
M  V30 5375 H 520.959 1.83666 -5.43083 0
M  V30 5376 H 519.356 1.18702 -5.88243 0
M  V30 5377 H 520.426 0.228382 -4.84362 0
M  V30 5378 N 521.769 1.56035 0.221574 0
M  V30 5379 C 522.997 1.8313 0.962864 0
M  V30 5380 C 523.412 0.630934 1.77946 0
M  V30 5381 O 522.769 -0.400519 1.78051 0
M  V30 5382 C 522.82 3.08742 1.88045 0
M  V30 5383 O 522.541 4.24147 1.09686 0
M  V30 5384 C 524.042 3.48824 2.73563 0
M  V30 5385 H 521.262 0.608775 0.282194 0
M  V30 5386 H 523.806 2.03124 0.23681 0
M  V30 5387 H 521.961 2.90723 2.56045 0
M  V30 5388 H 522.375 4.95505 1.71974 0
M  V30 5389 H 523.849 4.39752 3.3365 0
M  V30 5390 H 524.326 2.70575 3.45956 0
M  V30 5391 H 524.932 3.69282 2.10976 0
M  V30 5392 N 523.247 -0.488276 1.49845 0
M  V30 5393 C 524.475 -1.26527 1.63702 0
M  V30 5394 C 524.89 -1.8618 0.313447 0
M  V30 5395 O 524.247 -1.68432 -0.702624 0
M  V30 5396 C 524.298 -2.3864 2.71538 0
M  V30 5397 O 524.019 -1.81437 3.98763 0
M  V30 5398 C 525.52 -3.29805 2.96215 0
M  V30 5399 H 522.74 -0.383295 0.55075 0
M  V30 5400 H 525.284 -0.584779 1.95961 0
M  V30 5401 H 523.439 -3.02496 2.42023 0
M  V30 5402 H 523.853 -2.55135 4.58265 0
M  V30 5403 H 525.327 -4.04722 3.75372 0
M  V30 5404 H 525.804 -3.87563 2.06619 0
M  V30 5405 H 526.41 -2.71703 3.27196 0
M  V30 5406 N 524.725 -1.39134 -0.740242 0
M  V30 5407 C 525.672 -1.37434 -1.8542 0
M  V30 5408 C 526.642 -0.234822 -1.64432 0
M  V30 5409 O 527.827 -0.429125 -1.85912 0
M  V30 5410 C 524.967 -1.21844 -3.22875 0
M  V30 5411 C 524.08 -2.45296 -3.55603 0
M  V30 5412 C 523.215 -2.22334 -4.82432 0
M  V30 5413 C 522.254 -3.41488 -5.07988 0
M  V30 5414 N 521.391 -3.17877 -6.26018 0
M  V30 5415 H 526.231 -2.3266 -1.86207 0
M  V30 5416 H 523.768 -1.15578 -0.909946 0
M  V30 5417 H 525.726 -1.10818 -4.02213 0
M  V30 5418 H 524.356 -0.3025 -3.21379 0
M  V30 5419 H 523.408 -2.66945 -2.71006 0
M  V30 5420 H 524.72 -3.34063 -3.7041 0
M  V30 5421 H 523.874 -2.0852 -5.69741 0
M  V30 5422 H 522.613 -1.30954 -4.6979 0
M  V30 5423 H 521.618 -3.55807 -4.19144 0
M  V30 5424 H 522.843 -4.33763 -5.22519 0
M  V30 5425 H 520.789 -2.29156 -6.14673 0
M  V30 5426 H 520.706 -4.00198 -6.41387 0
M  V30 5427 H 521.974 -3.07746 -7.16179 0
M  V30 5428 N 526.204 0.969867 -1.24223 0
M  V30 5429 C 527.167 2.04564 -1.03373 0
M  V30 5430 C 528.167 1.60798 0.00819206 0
M  V30 5431 O 529.357 1.72641 -0.232567 0
M  V30 5432 C 526.489 3.36163 -0.566343 0
M  V30 5433 H 527.682 2.24494 -1.98853 0
M  V30 5434 H 525.235 1.1448 -1.06415 0
M  V30 5435 H 525.97 3.21925 0.391751 0
M  V30 5436 H 525.755 3.69273 -1.31834 0
M  V30 5437 H 527.245 4.1526 -0.441435 0
M  V30 5438 N 527.682 1.05563 1.17022 0
M  V30 5439 C 529.098 0.777684 1.39371 0
M  V30 5440 C 529.298 -0.626269 1.91521 0
M  V30 5441 O 528.354 -1.38806 2.10924 0
M  V30 5442 C 529.667 1.83642 2.3811 0
M  V30 5443 C 531.215 1.85907 2.51809 0
M  V30 5444 C 531.69 2.90813 3.53824 0
M  V30 5445 N 533.181 2.898 3.61345 0
M  V30 5446 C 533.916 3.6762 4.40049 0
M  V30 5447 N 533.412 4.55237 5.22237 0
M  V30 5448 N 535.205 3.56044 4.34959 0
M  V30 5449 H 527.356 1.9614 0.815047 0
M  V30 5450 H 529.619 0.849527 0.420722 0
M  V30 5451 H 529.325 2.84425 2.06871 0
M  V30 5452 H 529.199 1.6812 3.37662 0
M  V30 5453 H 531.586 0.857865 2.82356 0
M  V30 5454 H 531.667 2.05506 1.52318 0
M  V30 5455 H 531.311 3.91122 3.24015 0
M  V30 5456 H 531.241 2.68465 4.53028 0
M  V30 5457 H 533.732 2.26274 3.02669 0
M  V30 5458 H 534.045 5.11291 5.79484 0
M  V30 5459 H 532.39 4.59296 5.21605 0
M  V30 5460 H 535.581 2.86986 3.69806 0
M  V30 5461 H 535.754 4.16938 4.96051 0
M  V30 5462 N 529.16 -1.33526 0.837174 0
M  V30 5463 C 530.07 -2.33023 0.271568 0
M  V30 5464 C 531.086 -1.63272 -0.601514 0
M  V30 5465 O 532.262 -1.94939 -0.506038 0
M  V30 5466 C 529.327 -3.42382 -0.545448 0
M  V30 5467 C 528.388 -4.27857 0.351709 0
M  V30 5468 C 527.621 -5.31994 -0.426409 0
M  V30 5469 O 527.844 -5.45763 -1.65828 0
M  V30 5470 O 526.778 -6.01572 0.1987 0
M  V30 5471 H 530.604 -2.83256 1.09545 0
M  V30 5472 H 528.189 -1.36837 0.599655 0
M  V30 5473 H 530.071 -4.09122 -1.00979 0
M  V30 5474 H 528.746 -2.94369 -1.34641 0
M  V30 5475 H 527.653 -3.6399 0.863853 0
M  V30 5476 H 528.986 -4.79349 1.1174 0
M  V30 5477 N 530.638 -0.59345 -1.46 0
M  V30 5478 C 531.601 0.123538 -2.28867 0
M  V30 5479 C 532.601 0.808628 -1.38989 0
M  V30 5480 O 533.791 0.658945 -1.61256 0
M  V30 5481 C 530.923 1.1847 -3.19653 0
M  V30 5482 H 532.116 -0.604843 -2.93737 0
M  V30 5483 H 529.669 -0.351875 -1.52288 0
M  V30 5484 H 530.404 1.94431 -2.59552 0
M  V30 5485 H 530.189 0.69783 -3.8584 0
M  V30 5486 H 531.679 1.68726 -3.81997 0
M  V30 5487 N 532.116 1.54067 -0.331816 0
M  V30 5488 C 533.046 2.27569 0.522932 0
M  V30 5489 C 534.027 1.28679 1.11247 0
M  V30 5490 O 535.212 1.57504 1.13605 0
M  V30 5491 C 532.342 3.0397 1.67987 0
M  V30 5492 C 531.296 4.10267 1.21924 0
M  V30 5493 C 530.622 4.74555 2.46377 0
M  V30 5494 C 531.922 5.21268 0.32815 0
M  V30 5495 H 533.616 2.99264 -0.0901977 0
M  V30 5496 H 531.162 1.4393 -0.044821 0
M  V30 5497 H 533.115 3.54123 2.28418 0
M  V30 5498 H 531.839 2.29906 2.31971 0
M  V30 5499 H 530.498 3.61009 0.637809 0
M  V30 5500 H 530.146 3.97098 3.08743 0
M  V30 5501 H 529.846 5.46363 2.16243 0
M  V30 5502 H 531.37 5.27487 3.07555 0
M  V30 5503 H 532.784 5.67128 0.838978 0
M  V30 5504 H 531.181 5.99982 0.119228 0
M  V30 5505 H 532.251 4.80673 -0.638839 0
M  V30 5506 N 533.594 0.0601682 1.57485 0
M  V30 5507 C 534.842 -0.610386 1.92662 0
M  V30 5508 C 535.163 -1.70849 0.939981 0
M  V30 5509 O 534.433 -1.95895 -0.0137455 0
M  V30 5510 H 533.013 -0.228457 0.711208 0
M  V30 5511 H 535.675 0.115288 1.94559 0
M  V30 5512 H 534.771 -1.0432 2.94149 0
M  V30 5513 N 535.072 -1.5615 -0.213296 0
M  V30 5514 C 536.002 -1.96109 -1.26742 0
M  V30 5515 C 536.983 -0.830448 -1.48451 0
M  V30 5516 O 538.168 -1.09339 -1.60495 0
M  V30 5517 C 535.298 -2.28492 -2.61551 0
M  V30 5518 C 534.252 -3.44124 -2.54485 0
M  V30 5519 C 533.578 -3.62134 -3.93399 0
M  V30 5520 C 534.878 -4.78855 -2.08556 0
M  V30 5521 H 536.572 -2.84412 -0.935434 0
M  V30 5522 H 534.118 -1.36836 -0.44854 0
M  V30 5523 H 536.071 -2.55039 -3.3546 0
M  V30 5524 H 534.795 -1.37052 -2.96453 0
M  V30 5525 H 533.454 -3.17639 -1.83033 0
M  V30 5526 H 533.102 -2.68055 -4.25623 0
M  V30 5527 H 532.802 -4.39913 -3.89551 0
M  V30 5528 H 534.326 -3.91038 -4.68958 0
M  V30 5529 H 535.74 -5.04552 -2.72213 0
M  V30 5530 H 534.137 -5.59975 -2.1575 0
M  V30 5531 H 535.207 -4.73657 -1.03811 0
M  V30 5532 N 536.55 0.480323 -1.50102 0
M  V30 5533 C 537.961 1.06142 -1.53593 0
M  V30 5534 C 538.312 1.93335 -0.334055 0
M  V30 5535 O 537.437 2.09188 0.55403 0
M  V30 5536 C 538.032 1.9317 -2.78336 0
M  V30 5537 C 536.591 2.46405 -2.84538 0
M  V30 5538 C 535.738 1.24521 -2.4777 0
M  V30 5539 H 538.689 0.26333 -1.565 0
M  V30 5540 H 538.71 2.78123 -2.59669 0
M  V30 5541 H 538.222 1.29683 -3.65792 0
M  V30 5542 H 536.323 3.13472 -2.01411 0
M  V30 5543 H 536.436 2.82143 -3.87211 0
M  V30 5544 H 534.8 1.57706 -2.00003 0
M  V30 5545 H 535.583 0.627102 -3.37524 0
M  V30 5546 N 538.028 1.39524 0.732853 0
M  V30 5547 C 538.978 1.34905 1.83806 0
M  V30 5548 C 539.962 0.229546 1.59254 0
M  V30 5549 O 541.154 0.467255 1.70721 0
M  V30 5550 C 538.283 1.19699 3.21756 0
M  V30 5551 C 537.369 2.36359 3.5213 0
M  V30 5552 N 537.76 3.61834 3.53426 0
M  V30 5553 C 536.058 2.29363 3.82503 0
M  V30 5554 C 536.759 4.38992 3.81655 0
M  V30 5555 N 535.735 3.68606 3.99538 0
M  V30 5556 H 539.537 2.29882 1.83116 0
M  V30 5557 H 537.051 1.33051 0.931194 0
M  V30 5558 H 539.048 1.14472 4.00876 0
M  V30 5559 H 537.708 0.256739 3.23683 0
M  V30 5560 H 538.719 3.95228 3.34686 0
M  V30 5561 H 535.396 1.43612 3.92023 0
M  V30 5562 H 536.786 5.47763 3.89108 0
M  V30 5563 N 539.506 -0.963266 1.24736 0
M  V30 5564 C 540.731 -1.74699 1.11781 0
M  V30 5565 C 541.156 -1.85267 -0.325258 0
M  V30 5566 O 540.514 -1.32681 -1.23553 0
M  V30 5567 C 540.562 -3.14322 1.76731 0
M  V30 5568 O 539.666 -3.99043 1.04109 0
M  V30 5569 H 539.007 -0.53684 0.390767 0
M  V30 5570 H 541.537 -1.20801 1.65131 0
M  V30 5571 H 541.547 -3.64824 1.82668 0
M  V30 5572 H 540.222 -3.05946 2.81726 0
M  V30 5573 H 538.799 -3.5752 1.05991 0
M  V30 5574 N 540.985 -1.06182 -1.16461 0
M  V30 5575 C 542.262 -0.691364 -1.82974 0
M  V30 5576 C 542.642 0.827377 -1.9421 0
M  V30 5577 O 541.99 1.73723 -1.48434 0
M  V30 5578 C 542.2 -1.39199 -3.20038 0
M  V30 5579 C 543.548 -1.53647 -3.95825 0
M  V30 5580 O 544.572 -1.35181 -3.29552 0
M  V30 5581 O 543.431 -1.83932 -5.14618 0
M  V30 5582 H 540.525 -0.244605 -0.789998 0
M  V30 5583 H 543.071 -1.16203 -1.23673 0
M  V30 5584 H 541.843 -2.42766 -3.06888 0
M  V30 5585 H 541.466 -0.911335 -3.87015 0
M  V30 5586 N 542.463 1.3308 -0.844243 0
M  V30 5587 C 543.709 1.97898 -0.443206 0
M  V30 5588 C 544.042 1.66699 0.99625 0
M  V30 5589 O 543.317 0.949704 1.69738 0
M  V30 5590 C 543.6 3.53801 -0.670606 0
M  V30 5591 C 543.453 3.94667 -2.15772 0
M  V30 5592 C 544.772 4.39936 -0.120226 0
M  V30 5593 H 541.891 0.718861 -0.162504 0
M  V30 5594 H 544.533 1.57633 -1.06075 0
M  V30 5595 H 542.683 3.88229 -0.14496 0
M  V30 5596 H 544.355 3.70469 -2.74865 0
M  V30 5597 H 542.598 3.44203 -2.6402 0
M  V30 5598 H 543.269 5.03275 -2.26757 0
M  V30 5599 H 545.745 4.12183 -0.5696 0
M  V30 5600 H 544.621 5.4803 -0.308984 0
M  V30 5601 H 544.882 4.31184 0.976347 0
M  V30 5602 N 543.941 0.601185 1.45683 0
M  V30 5603 C 545.188 0.0938811 2.02282 0
M  V30 5604 C 545.516 -1.27315 1.47041 0
M  V30 5605 O 544.771 -1.85193 0.632623 0
M  V30 5606 C 545.07 -0.00222425 3.574 0
M  V30 5607 C 544.736 1.29963 4.31764 0
M  V30 5608 C 543.398 1.65625 4.51798 0
M  V30 5609 C 545.75 2.1603 4.74321 0
M  V30 5610 C 543.078 2.87119 5.11644 0
M  V30 5611 C 545.43 3.36766 5.3551 0
M  V30 5612 C 544.094 3.72689 5.53768 0
M  V30 5613 H 543.364 0.0343535 0.740203 0
M  V30 5614 H 546.011 0.781522 1.74827 0
M  V30 5615 H 544.316 -0.773096 3.84097 0
M  V30 5616 H 546.013 -0.410794 3.9889 0
M  V30 5617 H 542.603 1.01204 4.1648 0
M  V30 5618 H 546.787 1.89778 4.58582 0
M  V30 5619 H 542.043 3.15065 5.2397 0
M  V30 5620 H 546.217 4.03713 5.67441 0
M  V30 5621 H 543.844 4.66918 5.99909 0
M  V30 5622 N 545.419 -1.53889 0.339982 0
M  V30 5623 C 546.835 -1.59595 -0.0120752 0
M  V30 5624 C 547.035 -1.35605 -1.49042 0
M  V30 5625 O 546.091 -1.14856 -2.24865 0
M  V30 5626 C 547.404 -2.9774 0.420898 0
M  V30 5627 C 548.952 -3.1077 0.37294 0
M  V30 5628 C 549.427 -4.51286 0.781327 0
M  V30 5629 N 550.918 -4.57325 0.735374 0
M  V30 5630 C 551.653 -5.64194 1.02336 0
M  V30 5631 N 551.149 -6.7893 1.37933 0
M  V30 5632 N 552.942 -5.54051 0.947838 0
M  V30 5633 H 545.093 -1.67738 1.30299 0
M  V30 5634 H 547.356 -0.785385 0.530918 0
M  V30 5635 H 547.062 -3.20349 1.45152 0
M  V30 5636 H 546.936 -3.76639 -0.205721 0
M  V30 5637 H 549.323 -2.87886 -0.648505 0
M  V30 5638 H 549.404 -2.33939 1.03472 0
M  V30 5639 H 549.048 -4.74905 1.80077 0
M  V30 5640 H 548.978 -5.26511 0.0970679 0
M  V30 5641 H 551.469 -3.74931 0.472773 0
M  V30 5642 H 551.782 -7.56392 1.58402 0
M  V30 5643 H 550.127 -6.80386 1.41774 0
M  V30 5644 H 553.318 -4.63293 0.669115 0
M  V30 5645 H 553.491 -6.37246 1.17563 0
M  V30 5646 N 546.897 -0.0685191 -1.57451 0
M  V30 5647 C 547.829 0.929372 -2.09512 0
M  V30 5648 C 548.842 1.26354 -1.02657 0
M  V30 5649 O 550.031 1.2213 -1.30179 0
M  V30 5650 C 547.131 2.24612 -2.53777 0
M  V30 5651 C 546.304 2.09128 -3.84167 0
M  V30 5652 C 545.363 3.24079 -4.14559 0
M  V30 5653 O 544.389 2.99215 -4.8421 0
M  V30 5654 N 545.591 4.49077 -3.67845 0
M  V30 5655 H 548.356 0.484901 -2.95751 0
M  V30 5656 H 545.917 0.11729 -1.61475 0
M  V30 5657 H 547.909 3.00412 -2.71172 0
M  V30 5658 H 546.479 2.60569 -1.72692 0
M  V30 5659 H 545.699 1.17815 -3.76182 0
M  V30 5660 H 546.987 1.9603 -4.69521 0
M  V30 5661 H 546.385 4.72165 -3.11571 0
M  V30 5662 H 544.942 5.21915 -3.90446 0
M  V30 5663 N 548.375 1.56261 0.205012 0
M  V30 5664 C 549.338 1.92908 1.23771 0
M  V30 5665 C 550.338 0.809208 1.38955 0
M  V30 5666 O 551.528 1.07676 1.36936 0
M  V30 5667 C 548.66 2.19442 2.60879 0
M  V30 5668 H 549.853 2.85287 0.924728 0
M  V30 5669 H 547.406 1.49798 0.446125 0
M  V30 5670 H 548.141 1.29668 2.97248 0
M  V30 5671 H 547.926 3.0104 2.51232 0
M  V30 5672 H 549.416 2.48833 3.35368 0
M  V30 5673 N 549.853 -0.472356 1.50355 0
M  V30 5674 C 550.8 -1.57051 1.69126 0
M  V30 5675 C 551.77 -1.5733 0.532574 0
M  V30 5676 O 552.955 -1.7488 0.762994 0
M  V30 5677 C 550.095 -2.95033 1.79024 0
M  V30 5678 C 549.208 -3.04552 3.06386 0
M  V30 5679 C 548.343 -4.33441 3.07087 0
M  V30 5680 C 547.382 -4.36697 4.28908 0
M  V30 5681 N 546.519 -5.57056 4.27356 0
M  V30 5682 H 551.359 -1.40351 2.62879 0
M  V30 5683 H 548.896 -0.682403 1.30314 0
M  V30 5684 H 550.854 -3.75048 1.82744 0
M  V30 5685 H 549.484 -3.10371 0.887109 0
M  V30 5686 H 548.536 -2.17419 3.12143 0
M  V30 5687 H 549.848 -3.02818 3.96362 0
M  V30 5688 H 549.002 -5.21801 3.09529 0
M  V30 5689 H 547.741 -4.37782 2.14939 0
M  V30 5690 H 546.746 -3.46734 4.2668 0
M  V30 5691 H 547.971 -4.34049 5.22282 0
M  V30 5692 H 545.917 -5.62184 3.3806 0
M  V30 5693 H 545.834 -5.57058 5.111 0
M  V30 5694 H 547.102 -6.47545 4.33942 0
M  V30 5695 N 551.331 -1.39911 -0.725443 0
M  V30 5696 C 552.608 -1.28158 -1.47766 0
M  V30 5697 C 552.988 0.104545 -2.10841 0
M  V30 5698 O 552.336 1.11657 -1.99361 0
M  V30 5699 C 552.546 -2.41306 -2.52135 0
M  V30 5700 C 553.894 -2.81076 -3.18247 0
M  V30 5701 O 554.918 -2.40827 -2.62452 0
M  V30 5702 O 553.777 -3.50581 -4.19231 0
M  V30 5703 H 550.871 -0.502761 -0.656628 0
M  V30 5704 H 553.417 -1.51808 -0.758456 0
M  V30 5705 H 552.189 -3.33932 -2.03974 0
M  V30 5706 H 551.812 -2.19374 -3.31603 0
M  V30 5707 N 552.809 0.956637 -1.25245 0
M  V30 5708 C 554.055 1.70352 -1.10036 0
M  V30 5709 C 554.388 1.90869 0.358156 0
M  V30 5710 O 553.663 1.47819 1.26411 0
M  V30 5711 C 553.946 3.08766 -1.85298 0
M  V30 5712 C 553.799 2.95672 -3.38966 0
M  V30 5713 C 555.118 4.08622 -1.63451 0
M  V30 5714 H 552.237 0.618279 -0.401123 0
M  V30 5715 H 554.879 1.11212 -1.54051 0
M  V30 5716 H 553.029 3.59252 -1.47887 0
M  V30 5717 H 554.701 2.52527 -3.86041 0
M  V30 5718 H 552.944 2.31634 -3.6678 0
M  V30 5719 H 553.615 3.93776 -3.86839 0
M  V30 5720 H 556.091 3.67038 -1.96015 0
M  V30 5721 H 554.967 5.03514 -2.18551 0
M  V30 5722 H 555.228 4.3834 -0.575357 0
M  V30 5723 N 554.287 1.06798 1.15896 0
M  V30 5724 C 555.25 0.687328 2.18651 0
M  V30 5725 C 556.25 -0.269559 1.58524 0
M  V30 5726 O 557.44 -0.0512627 1.74125 0
M  V30 5727 C 554.572 0.0121642 3.40898 0
M  V30 5728 H 555.765 1.59701 2.53842 0
M  V30 5729 H 553.318 0.863828 1.3026 0
M  V30 5730 H 554.053 -0.910025 3.1127 0
M  V30 5731 H 553.838 0.700309 3.85795 0
M  V30 5732 H 555.328 -0.239703 4.16911 0
M  V30 5733 N 555.766 -1.3263 0.851289 0
M  V30 5734 C 556.676 -2.32722 0.296268 0
M  V30 5735 C 557.692 -1.63901 -0.584162 0
M  V30 5736 O 558.868 -1.95465 -0.485334 0
M  V30 5737 C 555.933 -3.42942 -0.509103 0
M  V30 5738 C 554.994 -4.2746 0.397069 0
M  V30 5739 C 554.227 -5.32416 -0.36996 0
M  V30 5740 O 554.45 -5.47491 -1.6003 0
M  V30 5741 O 553.384 -6.01327 0.262493 0
M  V30 5742 H 557.21 -2.82078 1.12543 0
M  V30 5743 H 554.795 -1.36194 0.614135 0
M  V30 5744 H 556.677 -4.1017 -0.96634 0
M  V30 5745 H 555.352 -2.95781 -1.31512 0
M  V30 5746 H 554.259 -3.63053 0.902411 0
M  V30 5747 H 555.592 -4.78136 1.16818 0
M  V30 5748 N 557.244 -0.608902 -1.45362 0
M  V30 5749 C 558.469 -0.10921 -2.07112 0
M  V30 5750 C 558.894 1.19779 -1.45033 0
M  V30 5751 O 558.252 1.72961 -0.543527 0
M  V30 5752 C 558.3 0.0155745 -3.60597 0
M  V30 5753 O 557.404 1.06546 -3.98399 0
M  V30 5754 H 556.745 -0.0746619 -0.659789 0
M  V30 5755 H 559.275 -0.839283 -1.86594 0
M  V30 5756 H 559.285 0.213364 -4.07442 0
M  V30 5757 H 557.96 -0.938765 -4.05167 0
M  V30 5758 H 556.537 0.844024 -3.63223 0
M  V30 5759 N 558.722 1.53707 -0.348139 0
M  V30 5760 C 559.999 1.93247 0.302475 0
M  V30 5761 C 560.379 1.28012 1.67857 0
M  V30 5762 O 559.727 0.43274 2.24365 0
M  V30 5763 C 559.937 3.47031 0.370159 0
M  V30 5764 C 561.285 4.20066 0.61882 0
M  V30 5765 O 562.309 3.53319 0.452087 0
M  V30 5766 O 561.168 5.38318 0.94215 0
M  V30 5767 H 558.262 0.807736 0.177458 0
M  V30 5768 H 560.808 1.64927 -0.399651 0
M  V30 5769 H 559.58 3.86745 -0.59534 0
M  V30 5770 H 559.203 3.81532 1.11888 0
M  V30 5771 N 560.2 0.0768682 1.57412 0
M  V30 5772 C 561.616 -0.279772 1.57129 0
M  V30 5773 C 561.816 -1.69688 1.08666 0
M  V30 5774 O 560.872 -2.40953 0.754843 0
M  V30 5775 C 562.185 -0.0848055 3.0058 0
M  V30 5776 C 563.733 -0.153954 3.12621 0
M  V30 5777 C 564.208 0.0127946 4.57998 0
M  V30 5778 N 565.699 -0.0426435 4.6318 0
M  V30 5779 C 566.434 0.0618892 5.73367 0
M  V30 5780 N 565.93 0.220229 6.9245 0
M  V30 5781 N 567.723 0.00446072 5.621 0
M  V30 5782 H 559.874 1.00297 1.87228 0
M  V30 5783 H 562.137 0.391565 0.863354 0
M  V30 5784 H 561.843 0.89325 3.40168 0
M  V30 5785 H 561.717 -0.834961 3.67843 0
M  V30 5786 H 564.104 -1.1225 2.72917 0
M  V30 5787 H 564.185 0.627389 2.47987 0
M  V30 5788 H 563.829 0.978128 4.98392 0
M  V30 5789 H 563.759 -0.788016 5.20671 0
M  V30 5790 H 566.25 -0.163226 3.77547 0
M  V30 5791 H 566.563 0.291999 7.72248 0
M  V30 5792 H 564.908 0.255658 6.9453 0
M  V30 5793 H 568.099 -0.117979 4.67951 0
M  V30 5794 H 568.272 0.0893796 6.47938 0
M  V30 5795 N 561.678 -1.56367 -0.196722 0
M  V30 5796 C 562.926 -1.80172 -0.915554 0
M  V30 5797 C 563.247 -0.649649 -1.8386 0
M  V30 5798 O 562.517 0.332111 -1.93064 0
M  V30 5799 H 561.097 -0.664592 -0.341067 0
M  V30 5800 H 563.759 -1.93844 -0.202622 0
M  V30 5801 H 562.855 -2.7327 -1.50764 0
M  V30 5802 N 563.156 0.464375 -1.50603 0
M  V30 5803 C 564.403 1.21596 -1.61928 0
M  V30 5804 C 564.731 1.91804 -0.322737 0
M  V30 5805 O 563.986 1.83065 0.691776 0
M  V30 5806 C 564.285 2.278 -2.75394 0
M  V30 5807 C 563.951 1.74797 -4.1564 0
M  V30 5808 C 562.613 1.60063 -4.53799 0
M  V30 5809 C 564.965 1.35548 -5.03266 0
M  V30 5810 C 562.293 1.04514 -5.77316 0
M  V30 5811 C 564.645 0.814381 -6.27336 0
M  V30 5812 C 563.309 0.653726 -6.64291 0
M  V30 5813 H 562.579 0.444951 -0.592536 0
M  V30 5814 H 565.226 0.510964 -1.84557 0
M  V30 5815 H 563.531 3.04233 -2.46879 0
M  V30 5816 H 565.228 2.85723 -2.81359 0
M  V30 5817 H 561.818 1.87234 -3.8554 0
M  V30 5818 H 566.002 1.45763 -4.74412 0
M  V30 5819 H 561.258 0.908186 -6.04617 0
M  V30 5820 H 565.432 0.501626 -6.94591 0
M  V30 5821 H 563.059 0.22114 -7.59878 0
M  V30 5822 N 564.634 1.40294 0.718013 0
M  V30 5823 C 565.859 1.41941 1.5122 0
M  V30 5824 C 566.284 0.0202371 1.88089 0
M  V30 5825 O 565.642 -0.971078 1.53101 0
M  V30 5826 C 565.69 2.3141 2.76554 0
M  V30 5827 O 564.794 1.75567 3.73162 0
M  V30 5828 H 564.135 0.482644 0.456016 0
M  V30 5829 H 566.665 1.84494 0.884478 0
M  V30 5830 H 566.675 2.46513 3.25108 0
M  V30 5831 H 565.35 3.33085 2.49053 0
M  V30 5832 H 563.927 1.69798 3.31999 0
M  V30 5833 N 566.112 -0.949982 1.2575 0
M  V30 5834 C 567.042 -2.06483 1.09028 0
M  V30 5835 C 568.023 -1.701 -0.00201532 0
M  V30 5836 O 569.208 -1.93469 0.168383 0
M  V30 5837 C 566.338 -3.39899 0.71316 0
M  V30 5838 C 565.292 -3.90309 1.75621 0
M  V30 5839 C 564.618 -5.20274 1.23365 0
M  V30 5840 C 565.918 -4.16169 3.15596 0
M  V30 5841 H 567.612 -2.20731 2.02283 0
M  V30 5842 H 565.158 -1.06066 0.973964 0
M  V30 5843 H 567.111 -4.17346 0.58309 0
M  V30 5844 H 565.835 -3.25602 -0.255091 0
M  V30 5845 H 564.494 -3.15035 1.8748 0
M  V30 5846 H 564.142 -5.02351 0.255491 0
M  V30 5847 H 563.842 -5.54971 1.93082 0
M  V30 5848 H 565.366 -6.00314 1.11607 0
M  V30 5849 H 566.78 -4.84259 3.06864 0
M  V30 5850 H 565.177 -4.62131 3.82825 0
M  V30 5851 H 566.247 -3.22273 3.6231 0
M  V30 5852 N 567.59 -1.07411 -1.15328 0
M  V30 5853 C 568.553 -0.698914 -2.18284 0
M  V30 5854 C 569.553 0.261149 -1.58665 0
M  V30 5855 O 570.743 0.0420277 -1.74149 0
M  V30 5856 C 567.875 -0.0302427 -3.40887 0
M  V30 5857 H 569.068 -1.61045 -2.52991 0
M  V30 5858 H 566.621 -0.870724 -1.298 0
M  V30 5859 H 567.356 0.893505 -3.11748 0
M  V30 5860 H 567.141 -0.720759 -3.85419 0
M  V30 5861 H 568.631 0.21759 -4.17033 0
M  V30 5862 N 569.068 1.32177 -0.85831 0
M  V30 5863 C 570 2.27688 -0.262835 0
M  V30 5864 C 571.013 1.52588 0.567513 0
M  V30 5865 O 572.202 1.74156 0.391407 0
M  V30 5866 C 569.302 3.32668 0.646937 0
M  V30 5867 C 568.475 4.37148 -0.148372 0
M  V30 5868 C 567.534 5.21686 0.687728 0
M  V30 5869 O 566.56 5.69074 0.119934 0
M  V30 5870 N 567.762 5.44892 2.00182 0
M  V30 5871 H 570.527 2.79426 -1.08356 0
M  V30 5872 H 568.088 1.45076 -0.718647 0
M  V30 5873 H 570.08 3.86134 1.2117 0
M  V30 5874 H 568.65 2.81061 1.36834 0
M  V30 5875 H 567.87 3.83915 -0.894572 0
M  V30 5876 H 569.158 5.04038 -0.694514 0
M  V30 5877 H 568.556 5.08128 2.4864 0
M  V30 5878 H 567.113 6.0134 2.51463 0
M  V30 5879 N 570.547 0.616602 1.45037 0
M  V30 5880 C 571.494 -0.0969439 2.30596 0
M  V30 5881 C 572.464 -0.851151 1.42635 0
M  V30 5882 O 573.649 -0.835092 1.71554 0
M  V30 5883 C 570.789 -1.08234 3.27688 0
M  V30 5884 C 569.902 -0.328072 4.30752 0
M  V30 5885 C 569.037 -1.30399 5.14946 0
M  V30 5886 C 568.076 -0.538049 6.09731 0
M  V30 5887 N 567.213 -1.46371 6.86673 0
M  V30 5888 H 572.053 0.63864 2.91076 0
M  V30 5889 H 569.59 0.326733 1.43425 0
M  V30 5890 H 571.548 -1.66688 3.82454 0
M  V30 5891 H 570.178 -1.78523 2.68941 0
M  V30 5892 H 569.23 0.372136 3.78575 0
M  V30 5893 H 570.542 0.269142 4.98073 0
M  V30 5894 H 569.696 -1.96032 5.74157 0
M  V30 5895 H 568.435 -1.93514 4.47665 0
M  V30 5896 H 567.44 0.131852 5.49642 0
M  V30 5897 H 568.665 0.0881732 6.79043 0
M  V30 5898 H 566.611 -2.08233 6.22073 0
M  V30 5899 H 566.528 -0.920152 7.50379 0
M  V30 5900 H 567.796 -2.10932 7.50418 0
M  V30 5901 N 572.025 -1.5352 0.356285 0
M  V30 5902 C 572.958 -2.2177 -0.537913 0
M  V30 5903 C 573.936 -1.20626 -1.09033 0
M  V30 5904 O 575.12 -1.49494 -1.1482 0
M  V30 5905 C 572.247 -2.90513 -1.74126 0
M  V30 5906 C 571.293 -4.05652 -1.31715 0
M  V30 5907 S 572.126 -5.34505 -0.326236 0
M  V30 5908 C 573.282 -6.06757 -1.53612 0
M  V30 5909 H 573.515 -2.97271 0.0417411 0
M  V30 5910 H 571.048 -1.53761 0.140372 0
M  V30 5911 H 573.006 -3.30735 -2.43155 0
M  V30 5912 H 571.667 -2.14754 -2.29215 0
M  V30 5913 H 570.86 -4.52733 -2.21471 0
M  V30 5914 H 570.462 -3.67272 -0.706183 0
M  V30 5915 H 572.754 -6.30924 -2.46863 0
M  V30 5916 H 573.697 -6.99395 -1.10687 0
M  V30 5917 H 574.105 -5.3708 -1.73796 0
M  V30 5918 N 573.503 -0.0852151 -1.57369 0
M  V30 5919 C 574.749 0.581666 -1.94279 0
M  V30 5920 C 575.082 1.68444 -0.966446 0
M  V30 5921 O 574.357 1.945 0.00215277 0
M  V30 5922 C 574.64 1.14609 -3.41375 0
M  V30 5923 C 574.493 0.0490414 -4.49773 0
M  V30 5924 C 575.812 2.04751 -3.8957 0
M  V30 5925 H 572.931 0.209972 -0.706456 0
M  V30 5926 H 575.573 -0.153915 -1.89376 0
M  V30 5927 H 573.723 1.77297 -3.45685 0
M  V30 5928 H 575.395 -0.584721 -4.57579 0
M  V30 5929 H 573.638 -0.618638 -4.29366 0
M  V30 5930 H 574.309 0.484601 -5.49869 0
M  V30 5931 H 576.785 1.51981 -3.87351 0
M  V30 5932 H 575.661 2.41173 -4.93079 0
M  V30 5933 H 575.922 2.96107 -3.28288 0
M  V30 5934 N 574.981 1.5647 0.188427 0
M  V30 5935 C 576.229 1.80655 0.905986 0
M  V30 5936 C 576.55 0.659391 1.83513 0
M  V30 5937 O 575.82 -0.321868 1.93238 0
M  V30 5938 H 574.4 0.666391 0.337538 0
M  V30 5939 H 577.062 1.93949 0.192339 0
M  V30 5940 H 576.158 2.74066 1.49313 0
M  V30 5941 N 576.459 -0.456382 1.50847 0
M  V30 5942 C 577.875 -0.791345 1.386 0
M  V30 5943 C 578.075 -1.9633 0.453498 0
M  V30 5944 O 577.131 -2.52308 -0.0984353 0
M  V30 5945 C 578.444 -1.08959 2.80265 0
M  V30 5946 C 579.992 -1.19517 2.89283 0
M  V30 5947 C 580.467 -1.52647 4.31814 0
M  V30 5948 N 581.958 -1.59609 4.34832 0
M  V30 5949 C 582.693 -1.86777 5.42127 0
M  V30 5950 N 582.189 -2.11866 6.59609 0
M  V30 5951 N 583.982 -1.88402 5.29586 0
M  V30 5952 H 576.133 0.315746 2.1004 0
M  V30 5953 H 578.396 0.0787916 0.94472 0
M  V30 5954 H 578.102 -0.301355 3.50407 0
M  V30 5955 H 577.976 -2.02211 3.18419 0
M  V30 5956 H 580.363 -1.97406 2.19351 0
M  V30 5957 H 580.444 -0.242111 2.54652 0
M  V30 5958 H 580.088 -0.752922 5.02288 0
M  V30 5959 H 580.018 -2.49127 4.63943 0
M  V30 5960 H 582.509 -1.42201 3.50125 0
M  V30 5961 H 582.822 -2.31912 7.37182 0
M  V30 5962 H 581.167 -2.09228 6.62758 0
M  V30 5963 H 584.358 -1.68307 4.36795 0
M  V30 5964 H 584.531 -2.09238 6.13289 0
M  V30 5965 N 577.937 -1.40673 -0.710563 0
M  V30 5966 C 578.9 -1.4108 -1.80635 0
M  V30 5967 C 579.9 -0.303783 -1.57904 0
M  V30 5968 O 581.09 -0.562937 -1.64853 0
M  V30 5969 C 578.222 -1.20748 -3.18799 0
M  V30 5970 H 579.415 -2.38612 -1.81671 0
M  V30 5971 H 576.968 -1.26595 -0.916704 0
M  V30 5972 H 577.703 -0.239964 -3.23411 0
M  V30 5973 H 577.488 -2.00941 -3.36698 0
M  V30 5974 H 578.978 -1.23833 -3.98817 0
M  V30 5975 N 579.415 0.9433 -1.26252 0
M  V30 5976 C 580.655 1.70397 -1.1289 0
M  V30 5977 C 581.019 1.89268 0.322713 0
M  V30 5978 O 582.22 2.62503 0.578418 0
M  V30 5979 C 580.491 3.04296 -1.87453 0
M  V30 5980 S 582.05 3.95475 -1.90119 0
M  V30 5981 H 578.868 0.585559 -0.403289 0
M  V30 5982 H 581.47 1.12424 -1.59941 0
M  V30 5983 H 580.174 2.8824 -2.9214 0
M  V30 5984 H 579.705 3.67327 -1.40835 0
M  V30 5985 H 581.72 4.86297 -0.986373 0
M  V30 5986 N 580.893 1.08022 1.14757 0
M  V30 5987 C 582.141 0.805913 1.85336 0
M  V30 5988 C 582.462 -0.670162 1.83122 0
M  V30 5989 O 581.732 -1.48567 1.2769 0
M  V30 5990 H 580.312 0.295138 0.686223 0
M  V30 5991 H 582.974 1.36538 1.3908 0
M  V30 5992 H 582.07 1.14655 2.90277 0
M  V30 5993 N 582.371 -1.3172 0.865308 0
M  V30 5994 C 583.617 -1.97168 0.474633 0
M  V30 5995 C 583.95 -1.68263 -0.969604 0
M  V30 5996 O 583.225 -0.976588 -1.68205 0
M  V30 5997 C 583.508 -3.52689 0.726808 0
M  V30 5998 C 583.361 -3.91185 2.22024 0
M  V30 5999 C 584.68 -4.39689 0.190201 0
M  V30 6000 H 581.799 -0.716185 0.17392 0
M  V30 6001 H 584.441 -1.55925 1.08569 0
M  V30 6002 H 582.591 -3.8795 0.206705 0
M  V30 6003 H 584.263 -3.66049 2.80724 0
M  V30 6004 H 582.506 -3.3996 2.69462 0
M  V30 6005 H 583.177 -4.99604 2.34735 0
M  V30 6006 H 585.653 -4.11225 0.635103 0
M  V30 6007 H 584.529 -5.47469 0.396132 0
M  V30 6008 H 584.79 -4.32683 -0.907625 0
M  V30 6009 N 583.85 -0.624285 -1.44708 0
M  V30 6010 C 584.797 0.0847135 -2.30644 0
M  V30 6011 C 585.767 0.843575 -1.43084 0
M  V30 6012 O 586.952 0.825982 -1.71995 0
M  V30 6013 C 584.091 1.06495 -3.28257 0
M  V30 6014 C 583.205 0.305224 -4.3092 0
M  V30 6015 C 582.34 1.27667 -5.1563 0
M  V30 6016 C 581.379 0.505706 -6.10007 0
M  V30 6017 N 580.516 1.42727 -6.8744 0
M  V30 6018 H 585.356 -0.654068 -2.90733 0
M  V30 6019 H 582.893 -0.334334 -1.4325 0
M  V30 6020 H 584.851 1.64658 -3.83332 0
M  V30 6021 H 583.481 1.77094 -2.69884 0
M  V30 6022 H 582.533 -0.392207 -3.78373 0
M  V30 6023 H 583.845 -0.295553 -4.97924 0
M  V30 6024 H 582.999 1.92984 -5.75189 0
M  V30 6025 H 581.738 1.91137 -4.48685 0
M  V30 6026 H 580.743 -0.160999 -5.49564 0
M  V30 6027 H 581.968 -0.124183 -6.78986 0
M  V30 6028 H 579.913 2.04931 -6.23169 0
M  V30 6029 H 579.831 0.880345 -7.50857 0
M  V30 6030 H 581.099 2.0695 -7.51526 0
M  V30 6031 N 585.328 1.53329 -0.364422 0
M  V30 6032 C 586.576 2.00842 0.225189 0
M  V30 6033 C 586.897 1.25345 1.49378 0
M  V30 6034 O 586.167 0.366396 1.92443 0
M  V30 6035 H 584.747 0.742009 0.0862027 0
M  V30 6036 H 587.409 1.8863 -0.490389 0
M  V30 6037 H 586.505 3.08795 0.452987 0
M  V30 6038 N 586.806 0.0935595 1.57322 0
M  V30 6039 C 588.055 -0.570191 1.93473 0
M  V30 6040 C 588.368 -1.69434 0.977318 0
M  V30 6041 O 589.574 -2.41914 1.23248 0
M  V30 6042 C 588.03 -1.06564 3.43762 0
M  V30 6043 C 587.638 0.0286723 4.47991 0
M  V30 6044 C 589.382 -1.70221 3.88877 0
M  V30 6045 C 587.289 -0.482046 5.89432 0
M  V30 6046 H 586.219 -0.216764 0.72217 0
M  V30 6047 H 588.87 0.169313 1.82717 0
M  V30 6048 H 587.252 -1.85878 3.49664 0
M  V30 6049 H 588.426 0.804106 4.5373 0
M  V30 6050 H 586.741 0.570336 4.12476 0
M  V30 6051 H 589.338 -2.09502 4.91948 0
M  V30 6052 H 589.681 -2.57078 3.27439 0
M  V30 6053 H 590.214 -0.974919 3.85668 0
M  V30 6054 H 586.953 0.349871 6.54566 0
M  V30 6055 H 586.473 -1.22452 5.87167 0
M  V30 6056 H 588.152 -0.951508 6.39965 0
M  V30 6057 N 588.284 -1.56567 -0.180126 0
M  V30 6058 C 589.7 -1.50488 -0.531559 0
M  V30 6059 C 589.9 -0.796267 -1.851 0
M  V30 6060 O 588.956 -0.352978 -2.50021 0
M  V30 6061 C 590.269 -2.95201 -0.572456 0
M  V30 6062 C 591.817 -3.05957 -0.660264 0
M  V30 6063 C 592.292 -4.5211 -0.732135 0
M  V30 6064 N 593.783 -4.56322 -0.795262 0
M  V30 6065 C 594.518 -5.66742 -0.871296 0
M  V30 6066 N 594.014 -6.86815 -0.908708 0
M  V30 6067 N 595.807 -5.54691 -0.909639 0
M  V30 6068 H 587.958 -2.01045 0.685165 0
M  V30 6069 H 590.221 -0.915536 0.245962 0
M  V30 6070 H 589.927 -3.50165 0.328208 0
M  V30 6071 H 589.801 -3.49369 -1.422 0
M  V30 6072 H 592.188 -2.51032 -1.55136 0
M  V30 6073 H 592.269 -2.54888 0.215783 0
M  V30 6074 H 591.913 -5.07664 0.154664 0
M  V30 6075 H 591.843 -5.00926 -1.6242 0
M  V30 6076 H 594.334 -3.69868 -0.77499 0
M  V30 6077 H 594.647 -7.66718 -0.967654 0
M  V30 6078 H 592.992 -6.89443 -0.877132 0
M  V30 6079 H 596.183 -4.59804 -0.877353 0
M  V30 6080 H 596.356 -6.40768 -0.965434 0
M  V30 6081 N 589.762 0.448376 -1.51087 0
M  V30 6082 C 591.173 1.0286 -1.5581 0
M  V30 6083 C 591.524 1.92583 -0.374989 0
M  V30 6084 O 590.649 2.10316 0.509533 0
M  V30 6085 C 591.244 1.87223 -2.8237 0
M  V30 6086 C 589.803 2.40314 -2.897 0
M  V30 6087 C 588.95 1.19238 -2.50355 0
M  V30 6088 H 591.901 0.230075 -1.57023 0
M  V30 6089 H 591.922 2.72553 -2.6551 0
M  V30 6090 H 591.434 1.21894 -3.68461 0
M  V30 6091 H 589.535 3.09129 -2.08014 0
M  V30 6092 H 589.648 2.73866 -3.93108 0
M  V30 6093 H 588.012 1.53428 -2.03303 0
M  V30 6094 H 588.795 0.555367 -3.38778 0
M  V30 6095 N 591.24 1.41047 0.703093 0
M  V30 6096 C 592.488 1.39723 1.4602 0
M  V30 6097 C 592.809 0.00461257 1.94999 0
M  V30 6098 O 592.079 -0.952292 1.71196 0
M  V30 6099 H 590.659 0.514281 0.541779 0
M  V30 6100 H 593.321 1.76217 0.832678 0
M  V30 6101 H 592.417 2.07982 2.32701 0
M  V30 6102 N 592.718 -0.936591 1.26751 0
M  V30 6103 C 593.681 -2.01752 1.08761 0
M  V30 6104 C 594.681 -1.60763 0.0344435 0
M  V30 6105 O 595.871 -1.71963 0.278258 0
M  V30 6106 C 593.003 -3.34543 0.655271 0
M  V30 6107 H 594.196 -2.19143 2.04735 0
M  V30 6108 H 591.749 -1.11618 1.09413 0
M  V30 6109 H 592.484 -3.22851 -0.30626 0
M  V30 6110 H 592.269 -3.65647 1.41578 0
M  V30 6111 H 593.759 -4.13944 0.551378 0
M  V30 6112 N 594.196 -1.08629 -1.14182 0
M  V30 6113 C 595.426 -0.837673 -1.88856 0
M  V30 6114 C 595.834 0.614024 -1.78959 0
M  V30 6115 O 595.177 1.43384 -1.14833 0
M  V30 6116 C 595.239 -1.18355 -3.39459 0
M  V30 6117 C 594.903 -2.63848 -3.73139 0
M  V30 6118 C 595.9 -3.62099 -3.73069 0
M  V30 6119 C 593.585 -2.99761 -4.03049 0
M  V30 6120 C 595.579 -4.94292 -4.02435 0
M  V30 6121 C 593.266 -4.32147 -4.32078 0
M  V30 6122 C 594.264 -5.29223 -4.31755 0
M  V30 6123 O 593.952 -6.59229 -4.60079 0
M  V30 6124 H 593.684 -0.301609 -0.604986 0
M  V30 6125 H 596.238 -1.44961 -1.45518 0
M  V30 6126 H 594.468 -0.514628 -3.8326 0
M  V30 6127 H 596.157 -0.915391 -3.95443 0
M  V30 6128 H 596.923 -3.35698 -3.50046 0
M  V30 6129 H 592.802 -2.2484 -4.02453 0
M  V30 6130 H 596.346 -5.70055 -4.02098 0
M  V30 6131 H 592.243 -4.58296 -4.54571 0
M  V30 6132 H 593.011 -6.64578 -4.77785 0
M  V30 6133 N 595.674 1.31259 -0.872281 0
M  V30 6134 C 596.914 1.98418 -0.490894 0
M  V30 6135 C 597.278 1.67429 0.939755 0
M  V30 6136 O 598.479 2.27818 1.42661 0
M  V30 6137 C 596.75 3.49583 -0.743408 0
M  V30 6138 S 598.309 4.36359 -0.462226 0
M  V30 6139 H 595.127 0.687005 -0.183151 0
M  V30 6140 H 597.729 1.59619 -1.12881 0
M  V30 6141 H 596.433 3.69627 -1.78338 0
M  V30 6142 H 595.964 3.93291 -0.0925758 0
M  V30 6143 H 597.979 4.91173 0.704525 0
M  V30 6144 N 597.152 0.631951 1.44375 0
M  V30 6145 C 598.062 -0.073674 2.34484 0
M  V30 6146 C 599.078 -0.834825 1.52665 0
M  V30 6147 O 600.254 -0.786902 1.85391 0
M  V30 6148 C 597.319 -1.04247 3.30656 0
M  V30 6149 C 596.38 -0.280602 4.28382 0
M  V30 6150 C 595.613 -1.20325 5.19959 0
M  V30 6151 O 595.836 -2.44199 5.15484 0
M  V30 6152 O 594.77 -0.687128 5.97965 0
M  V30 6153 H 598.596 0.667477 2.96274 0
M  V30 6154 H 596.181 0.392144 1.44162 0
M  V30 6155 H 598.063 -1.59981 3.89851 0
M  V30 6156 H 596.738 -1.76422 2.71398 0
M  V30 6157 H 595.645 0.319804 3.72731 0
M  V30 6158 H 596.978 0.401144 4.90563 0
M  V30 6159 N 598.631 -1.53133 0.372548 0
M  V30 6160 C 600.042 -1.86404 -0.105155 0
M  V30 6161 C 600.393 -1.29289 -1.47576 0
M  V30 6162 O 599.518 -0.617646 -2.07398 0
M  V30 6163 C 600.113 -3.38223 -0.197588 0
M  V30 6164 C 598.672 -3.71266 -0.619556 0
M  V30 6165 C 597.819 -2.76353 0.228919 0
M  V30 6166 H 600.77 -1.47282 0.591077 0
M  V30 6167 H 600.791 -3.66577 -1.01987 0
M  V30 6168 H 600.303 -3.79763 0.800099 0
M  V30 6169 H 598.404 -3.35287 -1.62522 0
M  V30 6170 H 598.517 -4.77515 -0.389332 0
M  V30 6171 H 596.881 -2.52888 -0.303271 0
M  V30 6172 H 597.664 -3.20728 1.22428 0
M  V30 6173 N 600.109 -0.101901 -1.5727 0
M  V30 6174 C 601.056 0.854577 -2.14396 0
M  V30 6175 C 602.026 1.27521 -1.06432 0
M  V30 6176 O 603.211 1.35575 -1.34253 0
M  V30 6177 C 600.351 2.10576 -2.73408 0
M  V30 6178 C 599.464 1.73504 -3.95626 0
M  V30 6179 C 598.599 2.9346 -4.42781 0
M  V30 6180 C 597.638 2.52547 -5.57572 0
M  V30 6181 N 596.775 3.65359 -5.99547 0
M  V30 6182 H 601.615 0.360578 -2.9581 0
M  V30 6183 H 599.152 0.166303 -1.46157 0
M  V30 6184 H 601.11 2.83859 -3.05745 0
M  V30 6185 H 599.74 2.57463 -1.94711 0
M  V30 6186 H 598.792 0.901622 -3.6956 0
M  V30 6187 H 600.104 1.39426 -4.78917 0
M  V30 6188 H 599.258 3.74988 -4.76937 0
M  V30 6189 H 597.997 3.30753 -3.58404 0
M  V30 6190 H 597.002 1.69446 -5.23037 0
M  V30 6191 H 598.227 2.1639 -6.43702 0
M  V30 6192 H 596.173 4.02358 -5.18116 0
M  V30 6193 H 596.09 3.35148 -6.77652 0
M  V30 6194 H 597.358 4.47378 -6.38336 0
M  V30 6195 N 601.587 1.56661 0.17182 0
M  V30 6196 C 602.52 1.91474 1.24149 0
M  V30 6197 C 603.498 0.777485 1.42807 0
M  V30 6198 O 604.682 1.03075 1.57822 0
M  V30 6199 C 601.809 2.16523 2.60453 0
M  V30 6200 C 600.855 3.39209 2.58533 0
M  V30 6201 S 601.688 4.93594 2.07665 0
M  V30 6202 C 602.844 5.21737 3.45747 0
M  V30 6203 H 603.077 2.81903 0.944346 0
M  V30 6204 H 600.61 1.49743 0.376364 0
M  V30 6205 H 602.568 2.31635 3.38903 0
M  V30 6206 H 601.229 1.26802 2.87368 0
M  V30 6207 H 600.422 3.53935 3.58812 0
M  V30 6208 H 600.024 3.2321 1.88178 0
M  V30 6209 H 602.316 5.13684 4.41741 0
M  V30 6210 H 603.259 6.23361 3.35896 0
M  V30 6211 H 603.667 4.49307 3.41736 0
M  V30 6212 N 603.065 -0.440357 1.51323 0
M  V30 6213 C 604.293 -1.21255 1.67645 0
M  V30 6214 C 604.708 -1.85088 0.37252 0
M  V30 6215 O 604.065 -1.70582 -0.648683 0
M  V30 6216 C 604.116 -2.29881 2.78993 0
M  V30 6217 O 603.837 -1.68659 4.04334 0
M  V30 6218 C 605.338 -3.20214 3.06558 0
M  V30 6219 H 602.558 -0.36558 0.562666 0
M  V30 6220 H 605.102 -0.52214 1.97722 0
M  V30 6221 H 603.257 -2.94643 2.51524 0
M  V30 6222 H 603.671 -2.40426 4.6615 0
M  V30 6223 H 605.145 -3.92575 3.88058 0
M  V30 6224 H 605.622 -3.80794 2.18844 0
M  V30 6225 H 606.228 -2.61156 3.35675 0
M  V30 6226 N 604.543 -1.41418 -0.695603 0
M  V30 6227 C 605.768 -1.44329 -1.48942 0
M  V30 6228 C 606.193 -0.0501579 -1.88033 0
M  V30 6229 O 605.551 0.946598 -1.54626 0
M  V30 6230 C 605.599 -2.3578 -2.72837 0
M  V30 6231 O 604.703 -1.81482 -3.70322 0
M  V30 6232 H 604.044 -0.489838 -0.44828 0
M  V30 6233 H 606.574 -1.85878 -0.855014 0
M  V30 6234 H 606.584 -2.51654 -3.21145 0
M  V30 6235 H 605.259 -3.37005 -2.43722 0
M  V30 6236 H 603.836 -1.75058 -3.29255 0
M  V30 6237 N 606.021 0.929856 -1.27246 0
M  V30 6238 C 607.267 1.6798 -1.13625 0
M  V30 6239 C 607.6 1.91586 0.317589 0
M  V30 6240 O 606.875 1.50467 1.23247 0
M  V30 6241 C 607.158 3.04766 -1.91806 0
M  V30 6242 C 607.011 2.88415 -3.45162 0
M  V30 6243 C 608.33 4.05063 -1.72082 0
M  V30 6244 H 605.449 0.609632 -0.414147 0
M  V30 6245 H 608.091 1.0792 -1.56376 0
M  V30 6246 H 606.241 3.56034 -1.55474 0
M  V30 6247 H 607.913 2.44282 -3.91311 0
M  V30 6248 H 606.156 2.23802 -3.71611 0
M  V30 6249 H 606.827 3.85482 -3.95105 0
M  V30 6250 H 609.303 3.62798 -2.03757 0
M  V30 6251 H 608.179 4.98765 -2.29182 0
M  V30 6252 H 608.44 4.37021 -0.668206 0
M  V30 6253 N 607.499 1.09233 1.13605 0
M  V30 6254 C 608.747 0.825525 1.84471 0
M  V30 6255 C 609.068 -0.650702 1.83823 0
M  V30 6256 O 608.338 -1.47204 1.29259 0
M  V30 6257 H 606.918 0.3024 0.683054 0
M  V30 6258 H 609.58 1.38006 1.37624 0
M  V30 6259 H 608.676 1.17727 2.89045 0
M  V30 6260 N 608.977 -1.30795 0.87923 0
M  V30 6261 C 610.202 -2.01063 0.508769 0
M  V30 6262 C 610.627 -1.65508 -0.893803 0
M  V30 6263 O 609.985 -0.868616 -1.59138 0
M  V30 6264 C 610.033 -3.54054 0.683991 0
M  V30 6265 O 609.137 -4.11498 -0.272654 0
M  V30 6266 H 608.478 -0.632786 0.201191 0
M  V30 6267 H 611.008 -1.66776 1.18519 0
M  V30 6268 H 611.018 -4.03845 0.580798 0
M  V30 6269 H 609.693 -3.79271 1.70665 0
M  V30 6270 H 608.27 -3.72695 -0.12364 0
M  V30 6271 N 610.455 -0.639598 -1.44038 0
M  V30 6272 C 611.387 0.0987684 -2.28987 0
M  V30 6273 C 612.4 0.80058 -1.41755 0
M  V30 6274 O 613.589 0.660611 -1.65826 0
M  V30 6275 C 610.689 1.16242 -3.18341 0
M  V30 6276 C 609.862 0.541447 -4.34036 0
M  V30 6277 C 608.921 1.50017 -5.04362 0
M  V30 6278 O 607.947 1.01403 -5.60095 0
M  V30 6279 N 609.149 2.83441 -5.06598 0
M  V30 6280 H 611.914 -0.630305 -2.92997 0
M  V30 6281 H 609.475 -0.481376 -1.54578 0
M  V30 6282 H 611.467 1.80429 -3.62253 0
M  V30 6283 H 610.037 1.79362 -2.56024 0
M  V30 6284 H 609.257 -0.27923 -3.9321 0
M  V30 6285 H 610.545 0.107379 -5.08687 0
M  V30 6286 H 609.943 3.2551 -4.62666 0
M  V30 6287 H 608.5 3.42966 -5.54272 0
M  V30 6288 N 611.933 1.52934 -0.380664 0
M  V30 6289 C 613.21 1.93845 0.261417 0
M  V30 6290 C 613.59 1.31544 1.65104 0
M  V30 6291 O 612.938 0.480234 2.23397 0
M  V30 6292 C 613.148 3.47739 0.296466 0
M  V30 6293 C 614.496 4.21284 0.529578 0
M  V30 6294 O 615.52 3.54199 0.377041 0
M  V30 6295 O 614.379 5.40195 0.827753 0
M  V30 6296 H 611.473 0.811318 0.160285 0
M  V30 6297 H 614.019 1.64042 -0.434544 0
M  V30 6298 H 612.791 3.85395 -0.67724 0
M  V30 6299 H 612.414 3.8382 1.0377 0
M  V30 6300 N 613.412 0.11024 1.57214 0
M  V30 6301 C 614.64 -0.557834 1.99238 0
M  V30 6302 C 615.055 -1.60778 0.989734 0
M  V30 6303 O 614.412 -1.82491 -0.0186092 0
M  V30 6304 C 614.463 -1.19189 3.41286 0
M  V30 6305 O 614.184 -0.183919 4.37714 0
M  V30 6306 C 615.685 -1.94413 3.98395 0
M  V30 6307 H 612.905 -0.148392 0.654386 0
M  V30 6308 H 615.449 0.193996 2.03578 0
M  V30 6309 H 613.604 -1.89456 3.37913 0
M  V30 6310 H 614.018 -0.643475 5.20538 0
M  V30 6311 H 615.492 -2.34116 4.99894 0
M  V30 6312 H 615.969 -2.81592 3.3705 0
M  V30 6313 H 616.575 -1.28928 4.05287 0
M  V30 6314 N 614.89 -1.56749 -0.16351 0
M  V30 6315 C 616.118 -1.86577 -0.894233 0
M  V30 6316 C 616.533 -0.696543 -1.75481 0
M  V30 6317 O 615.89 0.334161 -1.79415 0
M  V30 6318 C 615.941 -3.15508 -1.76456 0
M  V30 6319 O 615.662 -4.27926 -0.938685 0
M  V30 6320 C 617.163 -3.58737 -2.60428 0
M  V30 6321 H 614.383 -0.618829 -0.259405 0
M  V30 6322 H 616.927 -2.03863 -0.161259 0
M  V30 6323 H 615.082 -3.00025 -2.45079 0
M  V30 6324 H 615.496 -5.01546 -1.53465 0
M  V30 6325 H 616.97 -4.51832 -3.17099 0
M  V30 6326 H 617.447 -2.83229 -3.35675 0
M  V30 6327 H 618.053 -3.76858 -1.97125 0
M  V30 6328 N 616.368 0.432326 -1.51554 0
M  V30 6329 C 617.616 1.17901 -1.64146 0
M  V30 6330 C 617.937 1.91604 -0.362367 0
M  V30 6331 O 617.207 1.85764 0.621968 0
M  V30 6332 H 615.787 0.438206 -0.604966 0
M  V30 6333 H 618.449 0.495172 -1.88505 0
M  V30 6334 H 617.545 1.90584 -2.47152 0
M  V30 6335 N 617.846 1.41785 0.688094 0
M  V30 6336 C 619.257 1.3701 1.26828 0
M  V30 6337 C 619.608 0.056835 1.96118 0
M  V30 6338 O 618.733 -0.84475 1.99231 0
M  V30 6339 C 619.328 2.48168 2.30648 0
M  V30 6340 C 617.887 2.46766 2.84224 0
M  V30 6341 C 617.034 2.27633 1.58361 0
M  V30 6342 H 619.985 1.51192 0.482351 0
M  V30 6343 H 620.006 2.17655 3.121 0
M  V30 6344 H 619.518 3.43735 1.80188 0
M  V30 6345 H 617.619 1.54978 3.3884 0
M  V30 6346 H 617.732 3.43342 3.34145 0
M  V30 6347 H 616.096 1.75648 1.84445 0
M  V30 6348 H 616.879 3.25238 1.09887 0
M  V30 6349 N 619.324 -0.923095 1.27737 0
M  V30 6350 C 620.257 -2.02515 1.05181 0
M  V30 6351 C 621.235 -1.62574 -0.0292204 0
M  V30 6352 O 622.419 -1.88137 0.116848 0
M  V30 6353 C 619.546 -3.33407 0.596468 0
M  V30 6354 C 618.592 -3.92328 1.67276 0
M  V30 6355 S 619.425 -4.24342 3.26641 0
M  V30 6356 C 620.581 -5.58308 2.82919 0
M  V30 6357 H 620.814 -2.21336 1.98488 0
M  V30 6358 H 618.347 -1.06679 1.1162 0
M  V30 6359 H 620.305 -4.09086 0.34044 0
M  V30 6360 H 618.966 -3.125 -0.316614 0
M  V30 6361 H 618.159 -4.86797 1.30556 0
M  V30 6362 H 617.761 -3.2325 1.8811 0
M  V30 6363 H 620.053 -6.37801 2.28509 0
M  V30 6364 H 620.996 -5.99931 3.7615 0
M  V30 6365 H 621.404 -5.19049 2.21919 0
M  V30 6366 N 620.802 -1.09834 -1.13024 0
M  V30 6367 C 622.03 -0.858902 -1.8823 0
M  V30 6368 C 622.445 0.590164 -1.79339 0
M  V30 6369 O 621.802 1.4065 -1.16292 0
M  V30 6370 C 621.853 -1.29066 -3.37675 0
M  V30 6371 O 621.574 -2.6829 -3.46341 0
M  V30 6372 C 623.075 -1.08421 -4.29837 0
M  V30 6373 H 620.295 -0.308713 -0.595766 0
M  V30 6374 H 622.839 -1.4614 -1.4305 0
M  V30 6375 H 620.994 -0.731961 -3.80422 0
M  V30 6376 H 621.408 -2.86598 -4.39274 0
M  V30 6377 H 622.882 -1.43553 -5.33007 0
M  V30 6378 H 623.359 -0.0223315 -4.39194 0
M  V30 6379 H 623.965 -1.62907 -3.92863 0
M  V30 6380 N 622.28 1.30327 -0.886154 0
M  V30 6381 C 623.696 1.48676 -0.580323 0
M  V30 6382 C 623.896 1.81189 0.881639 0
M  V30 6383 O 622.952 1.90021 1.66278 0
M  V30 6384 C 624.265 2.60932 -1.49449 0
M  V30 6385 C 625.813 2.74812 -1.49824 0
M  V30 6386 C 626.288 3.90183 -2.39836 0
M  V30 6387 N 627.779 3.97495 -2.37806 0
M  V30 6388 C 628.514 4.86078 -3.04165 0
M  V30 6389 N 628.01 5.79448 -3.79753 0
M  V30 6390 N 629.803 4.79456 -2.93391 0
M  V30 6391 H 621.954 1.07495 -1.8319 0
M  V30 6392 H 624.217 0.532661 -0.784204 0
M  V30 6393 H 623.923 2.43731 -2.5355 0
M  V30 6394 H 623.797 3.57437 -1.20494 0
M  V30 6395 H 626.184 2.91418 -0.464731 0
M  V30 6396 H 626.265 1.78924 -1.82811 0
M  V30 6397 H 625.909 3.74334 -3.43273 0
M  V30 6398 H 625.839 4.85411 -2.04166 0
M  V30 6399 H 628.33 3.30703 -1.82877 0
M  V30 6400 H 628.643 6.43805 -4.27475 0
M  V30 6401 H 626.988 5.79376 -3.8386 0
M  V30 6402 H 630.179 4.05494 -2.33864 0
M  V30 6403 H 630.352 5.48283 -3.45383 0
M  V30 6404 N 623.758 0.647228 1.43697 0
M  V30 6405 C 625.035 0.0883758 1.954 0
M  V30 6406 C 625.415 -1.39006 1.58873 0
M  V30 6407 O 624.763 -2.11255 0.87083 0
M  V30 6408 C 624.973 0.328263 3.47453 0
M  V30 6409 C 626.321 0.230009 4.23977 0
M  V30 6410 O 627.345 0.260496 3.55246 0
M  V30 6411 O 626.204 0.148615 5.46298 0
M  V30 6412 H 623.298 -0.0130683 0.826897 0
M  V30 6413 H 625.844 0.72005 1.53666 0
M  V30 6414 H 624.616 1.3535 3.67146 0
M  V30 6415 H 624.239 -0.336772 3.96171 0
M  V30 6416 N 625.236 -1.5273 0.388769 0
M  V30 6417 C 626.146 -2.30165 -0.453993 0
M  V30 6418 C 627.162 -1.37058 -1.07197 0
M  V30 6419 O 628.338 -1.70127 -1.0779 0
M  V30 6420 C 625.403 -3.09303 -1.56628 0
M  V30 6421 C 624.464 -4.18117 -0.973467 0
M  V30 6422 C 623.697 -4.93472 -2.03275 0
M  V30 6423 O 623.92 -4.68913 -3.24772 0
M  V30 6424 O 622.854 -5.78833 -1.65034 0
M  V30 6425 H 626.68 -3.03185 0.176816 0
M  V30 6426 H 624.265 -1.4862 0.152501 0
M  V30 6427 H 626.147 -3.58648 -2.21246 0
M  V30 6428 H 624.822 -2.39098 -2.18206 0
M  V30 6429 H 623.729 -3.7297 -0.290556 0
M  V30 6430 H 625.062 -4.90556 -0.401908 0
M  V30 6431 N 626.714 -0.118576 -1.57153 0
M  V30 6432 C 627.644 0.828436 -2.1831 0
M  V30 6433 C 628.625 1.27758 -1.12303 0
M  V30 6434 O 629.81 1.34026 -1.40537 0
M  V30 6435 C 626.94 2.07876 -2.78217 0
M  V30 6436 C 625.894 1.76742 -3.89803 0
M  V30 6437 C 625.22 3.08801 -4.36516 0
M  V30 6438 C 626.52 1.03606 -5.11921 0
M  V30 6439 H 628.214 0.318824 -2.97698 0
M  V30 6440 H 625.76 0.151911 -1.43196 0
M  V30 6441 H 627.713 2.74584 -3.19659 0
M  V30 6442 H 626.437 2.61161 -1.96118 0
M  V30 6443 H 625.096 1.12424 -3.48936 0
M  V30 6444 H 624.744 3.6002 -3.51276 0
M  V30 6445 H 624.444 2.88743 -5.11763 0
M  V30 6446 H 625.968 3.76627 -4.80608 0
M  V30 6447 H 627.382 1.60467 -5.50385 0
M  V30 6448 H 625.779 0.936454 -5.92748 0
M  V30 6449 H 626.849 0.0227421 -4.84895 0
M  V30 6450 N 628.193 1.56834 0.155195 0
M  V30 6451 C 629.14 1.97646 1.19184 0
M  V30 6452 C 630.11 0.842788 1.4313 0
M  V30 6453 O 631.295 1.1042 1.55602 0
M  V30 6454 C 628.435 2.35527 2.52232 0
M  V30 6455 C 627.548 3.62147 2.35529 0
M  V30 6456 C 626.683 3.89167 3.61555 0
M  V30 6457 C 625.722 5.09084 3.39853 0
M  V30 6458 N 624.859 5.32156 4.5799 0
M  V30 6459 H 629.699 2.8601 0.836802 0
M  V30 6460 H 627.236 1.41507 0.401758 0
M  V30 6461 H 629.194 2.55516 3.29799 0
M  V30 6462 H 627.824 1.50253 2.85699 0
M  V30 6463 H 626.876 3.4998 1.49057 0
M  V30 6464 H 628.188 4.49871 2.15448 0
M  V30 6465 H 627.342 4.09611 4.47553 0
M  V30 6466 H 626.081 2.9985 3.84632 0
M  V30 6467 H 625.086 4.88522 2.52243 0
M  V30 6468 H 626.311 5.99947 3.18183 0
M  V30 6469 H 624.257 4.45791 4.81255 0
M  V30 6470 H 624.174 6.14133 4.40882 0
M  V30 6471 H 625.442 5.57091 5.45225 0
M  V30 6472 N 629.671 -0.424282 1.51781 0
M  V30 6473 C 630.948 -1.18464 1.55646 0
M  V30 6474 C 631.328 -2.08529 0.328438 0
M  V30 6475 O 630.676 -2.17969 -0.685693 0
M  V30 6476 C 630.886 -1.97514 2.87731 0
M  V30 6477 C 632.234 -2.54106 3.40169 0
M  V30 6478 O 633.258 -2.07711 2.89369 0
M  V30 6479 O 632.117 -3.38759 4.28841 0
M  V30 6480 H 629.211 -0.540055 0.626314 0
M  V30 6481 H 631.757 -0.432291 1.64102 0
M  V30 6482 H 630.529 -1.31444 3.68562 0
M  V30 6483 H 630.152 -2.79787 2.82498 0
M  V30 6484 N 631.149 -1.42148 -0.680565 0
M  V30 6485 C 632.079 -1.4796 -1.80638 0
M  V30 6486 C 633.06 -0.336728 -1.66734 0
M  V30 6487 O 634.245 -0.550247 -1.86242 0
M  V30 6488 C 631.375 -1.37569 -3.18892 0
M  V30 6489 C 630.329 -2.49823 -3.47524 0
M  V30 6490 C 629.655 -2.24491 -4.85291 0
M  V30 6491 C 630.955 -3.92144 -3.44994 0
M  V30 6492 H 632.649 -2.42184 -1.76032 0
M  V30 6493 H 630.195 -1.16566 -0.845481 0
M  V30 6494 H 632.148 -1.40243 -3.97379 0
M  V30 6495 H 630.872 -0.398357 -3.24162 0
M  V30 6496 H 629.531 -2.46455 -2.71395 0
M  V30 6497 H 629.179 -1.25066 -4.87204 0
M  V30 6498 H 628.879 -2.99722 -5.05411 0
M  V30 6499 H 630.403 -2.28906 -5.66069 0
M  V30 6500 H 631.817 -3.97145 -4.13459 0
M  V30 6501 H 630.214 -4.67179 -3.76648 0
M  V30 6502 H 631.284 -4.19225 -2.43676 0
M  V30 6503 N 632.627 0.916307 -1.28225 0
M  V30 6504 C 633.59 1.99996 -1.11957 0
M  V30 6505 C 634.59 1.60688 -0.0600152 0
M  V30 6506 O 635.78 1.71499 -0.30558 0
M  V30 6507 C 632.912 3.33458 -0.708411 0
M  V30 6508 H 634.105 2.15858 -2.08196 0
M  V30 6509 H 631.658 1.09863 -1.11175 0
M  V30 6510 H 632.393 3.23297 0.254859 0
M  V30 6511 H 632.178 3.63349 -1.47377 0
M  V30 6512 H 633.668 4.13014 -0.617164 0
M  V30 6513 N 634.105 1.10431 1.1244 0
M  V30 6514 C 635.345 0.856518 1.85589 0
M  V30 6515 C 635.709 -0.606905 1.82156 0
M  V30 6516 O 636.91 -0.97105 2.50647 0
M  V30 6517 C 635.181 1.38977 3.29272 0
M  V30 6518 S 636.74 1.27739 4.19795 0
M  V30 6519 H 633.558 0.309509 0.640098 0
M  V30 6520 H 636.16 1.40975 1.35449 0
M  V30 6521 H 634.864 2.44887 3.2933 0
M  V30 6522 H 634.395 0.833112 3.84477 0
M  V30 6523 H 636.41 0.235051 4.95643 0
M  V30 6524 N 635.583 -1.29855 0.893053 0
M  V30 6525 C 636.513 -2.3035 0.382249 0
M  V30 6526 C 637.494 -1.61328 -0.539203 0
M  V30 6527 O 638.679 -1.88882 -0.451342 0
M  V30 6528 C 635.809 -3.45024 -0.396983 0
M  V30 6529 C 634.763 -4.258 0.433437 0
M  V30 6530 C 634.089 -5.32605 -0.472889 0
M  V30 6531 C 635.389 -4.94549 1.67984 0
M  V30 6532 H 637.083 -2.73325 1.22205 0
M  V30 6533 H 634.629 -1.314 0.589073 0
M  V30 6534 H 636.582 -4.14398 -0.765024 0
M  V30 6535 H 635.306 -3.00875 -1.2705 0
M  V30 6536 H 633.965 -3.58125 0.783723 0
M  V30 6537 H 633.613 -4.84702 -1.34435 0
M  V30 6538 H 633.313 -5.87547 0.0789958 0
M  V30 6539 H 634.837 -6.04832 -0.837269 0
M  V30 6540 H 636.251 -5.56395 1.38192 0
M  V30 6541 H 634.648 -5.59393 2.17254 0
M  V30 6542 H 635.718 -4.20215 2.41965 0
M  V30 6543 N 637.061 -0.65484 -1.43351 0
M  V30 6544 C 638.309 -0.168559 -2.01396 0
M  V30 6545 C 638.63 1.22235 -1.51933 0
M  V30 6546 O 637.9 1.81685 -0.732627 0
M  V30 6547 H 636.48 -0.0593244 -0.744641 0
M  V30 6548 H 639.142 -0.846871 -1.75539 0
M  V30 6549 H 638.238 -0.154428 -3.11718 0
M  V30 6550 N 638.539 1.52521 -0.396863 0
M  V30 6551 C 639.786 2.01672 0.182898 0
M  V30 6552 C 640.114 1.28302 1.46181 0
M  V30 6553 O 639.369 0.374118 1.92091 0
M  V30 6554 C 639.668 3.5403 0.489677 0
M  V30 6555 C 639.334 4.45456 -0.698581 0
M  V30 6556 C 637.996 4.70166 -1.02454 0
M  V30 6557 C 640.348 4.99354 -1.49316 0
M  V30 6558 C 637.676 5.46024 -2.1465 0
M  V30 6559 C 640.028 5.76439 -2.60579 0
M  V30 6560 C 638.692 5.99426 -2.93675 0
M  V30 6561 H 637.962 0.737971 0.066927 0
M  V30 6562 H 640.609 1.83853 -0.535764 0
M  V30 6563 H 638.914 3.69963 1.28976 0
M  V30 6564 H 640.611 3.8956 0.951018 0
M  V30 6565 H 637.201 4.26392 -0.434525 0
M  V30 6566 H 641.385 4.80182 -1.25457 0
M  V30 6567 H 636.641 5.62046 -2.40654 0
M  V30 6568 H 640.815 6.17202 -3.22544 0
M  V30 6569 H 638.442 6.57988 -3.80731 0
M  V30 6570 N 640.017 0.126909 1.57088 0
M  V30 6571 C 641.242 -0.53997 2.00248 0
M  V30 6572 C 641.667 -1.58927 1.00618 0
M  V30 6573 O 641.025 -1.81288 -0.0210131 0
M  V30 6574 C 641.073 -1.13565 3.4225 0
M  V30 6575 O 640.177 -2.25103 3.45547 0
M  V30 6576 H 639.518 -0.13412 0.650314 0
M  V30 6577 H 642.048 0.217718 2.03438 0
M  V30 6578 H 642.058 -1.46925 3.80627 0
M  V30 6579 H 640.733 -0.367122 4.14277 0
M  V30 6580 H 639.31 -1.93123 3.18995 0
M  V30 6581 N 641.495 -1.56914 -0.146875 0
M  V30 6582 C 642.458 -1.97368 -1.16526 0
M  V30 6583 C 643.458 -0.860223 -1.35856 0
M  V30 6584 O 644.648 -1.12684 -1.32846 0
M  V30 6585 C 641.78 -2.28974 -2.52555 0
M  V30 6586 H 642.973 -2.88523 -0.818209 0
M  V30 6587 H 640.526 -1.5135 -0.390221 0
M  V30 6588 H 641.261 -1.40611 -2.92231 0
M  V30 6589 H 641.046 -3.10157 -2.39886 0
M  V30 6590 H 642.536 -2.61109 -3.25902 0
M  V30 6591 N 642.974 0.416227 -1.52004 0
M  V30 6592 C 644.251 1.17637 -1.56272 0
M  V30 6593 C 644.631 2.08352 -0.339493 0
M  V30 6594 O 643.979 2.1833 0.674124 0
M  V30 6595 C 644.189 1.95986 -2.88774 0
M  V30 6596 C 645.537 2.52299 -3.41512 0
M  V30 6597 O 646.561 2.06174 -2.90467 0
M  V30 6598 O 645.42 3.3648 -4.30631 0
M  V30 6599 H 642.514 0.536726 -0.629169 0
M  V30 6600 H 645.06 0.423583 -1.64329 0
M  V30 6601 H 643.832 1.29487 -3.69254 0
M  V30 6602 H 643.455 2.78285 -2.83978 0
M  V30 6603 N 644.452 1.42507 0.673017 0
M  V30 6604 C 645.382 1.48916 1.79851 0
M  V30 6605 C 646.363 0.345566 1.66553 0
M  V30 6606 O 647.548 0.560116 1.85947 0
M  V30 6607 C 644.678 1.39258 3.18158 0
M  V30 6608 C 643.632 2.51662 3.46194 0
M  V30 6609 C 642.958 2.27062 4.84094 0
M  V30 6610 C 644.258 3.93968 3.42909 0
M  V30 6611 H 645.952 2.43114 1.74745 0
M  V30 6612 H 643.498 1.17013 0.839288 0
M  V30 6613 H 645.451 1.42349 3.96629 0
M  V30 6614 H 644.175 0.415542 3.23946 0
M  V30 6615 H 642.834 2.47891 2.70084 0
M  V30 6616 H 642.482 1.27648 4.86534 0
M  V30 6617 H 642.182 3.02398 5.03815 0
M  V30 6618 H 643.706 2.31905 5.64847 0
M  V30 6619 H 645.12 3.99332 4.11347 0
M  V30 6620 H 643.517 4.6917 3.74165 0
M  V30 6621 H 644.587 4.20512 2.41449 0
M  V30 6622 N 645.93 -0.909495 1.28709 0
M  V30 6623 C 647.176 -1.66151 1.16283 0
M  V30 6624 C 647.509 -1.92067 -0.287069 0
M  V30 6625 O 646.784 -1.52409 -1.20837 0
M  V30 6626 C 647.067 -3.01676 1.9663 0
M  V30 6627 C 646.92 -2.82888 3.49707 0
M  V30 6628 C 648.239 -4.02274 1.78504 0
M  V30 6629 H 645.358 -0.602966 0.423793 0
M  V30 6630 H 648 -1.05418 1.58073 0
M  V30 6631 H 646.15 -3.53515 1.61119 0
M  V30 6632 H 647.822 -2.38026 3.95147 0
M  V30 6633 H 646.065 -2.17862 3.75125 0
M  V30 6634 H 646.736 -3.79147 4.01187 0
M  V30 6635 H 649.212 -3.59511 2.09503 0
M  V30 6636 H 648.088 -4.95056 2.37088 0
M  V30 6637 H 648.349 -4.35903 0.737647 0
M  V30 6638 N 647.408 -1.11026 -1.11852 0
M  V30 6639 C 648.341 -0.708501 -2.16923 0
M  V30 6640 C 649.319 0.293196 -1.59935 0
M  V30 6641 O 650.503 0.190641 -1.87533 0
M  V30 6642 C 647.63 -0.0463705 -3.38668 0
M  V30 6643 C 646.676 -1.01252 -4.14307 0
M  V30 6644 S 647.509 -2.53291 -4.71809 0
M  V30 6645 C 648.665 -1.88366 -5.96883 0
M  V30 6646 H 648.898 -1.59854 -2.50667 0
M  V30 6647 H 646.431 -0.927869 -1.2341 0
M  V30 6648 H 648.389 0.329314 -4.09177 0
M  V30 6649 H 647.05 0.820562 -3.03192 0
M  V30 6650 H 646.243 -0.496596 -5.01548 0
M  V30 6651 H 645.845 -1.33042 -3.49537 0
M  V30 6652 H 648.137 -1.21753 -6.6647 0
M  V30 6653 H 649.08 -2.73588 -6.53112 0
M  V30 6654 H 649.488 -1.34562 -5.48227 0
M  V30 6655 N 648.886 1.2938 -0.899927 0
M  V30 6656 C 649.818 2.26737 -0.335139 0
M  V30 6657 C 650.831 1.54316 0.518681 0
M  V30 6658 O 652.02 1.75313 0.335803 0
M  V30 6659 C 649.12 3.34558 0.540774 0
M  V30 6660 C 648.293 4.36455 -0.287372 0
M  V30 6661 C 647.352 5.2361 0.52141 0
M  V30 6662 O 646.378 5.69167 -0.0611735 0
M  V30 6663 N 647.58 5.50985 1.82745 0
M  V30 6664 H 650.345 2.75838 -1.17191 0
M  V30 6665 H 647.906 1.42716 -0.764438 0
M  V30 6666 H 649.898 3.89794 1.08825 0
M  V30 6667 H 648.468 2.85272 1.27823 0
M  V30 6668 H 647.688 3.80875 -1.01626 0
M  V30 6669 H 648.976 5.01573 -0.854518 0
M  V30 6670 H 648.374 5.15781 2.32349 0
M  V30 6671 H 646.931 6.09036 2.32204 0
M  V30 6672 N 650.364 0.662433 1.43002 0
M  V30 6673 C 651.589 0.186003 2.06564 0
M  V30 6674 C 652.014 -1.14314 1.49379 0
M  V30 6675 O 651.372 -1.70824 0.607346 0
M  V30 6676 C 651.42 0.118269 3.60406 0
M  V30 6677 O 650.524 -0.916859 4.02079 0
M  V30 6678 H 649.865 0.0990981 0.656563 0
M  V30 6679 H 652.395 0.907958 1.8335 0
M  V30 6680 H 652.405 -0.0619981 4.07953 0
M  V30 6681 H 651.08 1.08849 4.01403 0
M  V30 6682 H 649.657 -0.708635 3.66105 0
M  V30 6683 N 651.842 -1.52309 0.404946 0
M  V30 6684 C 653.089 -2.01767 -0.1722 0
M  V30 6685 C 653.417 -1.29075 -1.45498 0
M  V30 6686 O 652.672 -0.3843 -1.9189 0
M  V30 6687 C 652.971 -3.54284 -0.470895 0
M  V30 6688 C 652.637 -4.45079 0.722194 0
M  V30 6689 C 651.299 -4.69617 1.04946 0
M  V30 6690 C 653.651 -4.98555 1.51962 0
M  V30 6691 C 650.979 -5.44878 2.17543 0
M  V30 6692 C 653.331 -5.75049 2.63632 0
M  V30 6693 C 651.995 -5.9786 2.9685 0
M  V30 6694 H 651.265 -0.738316 -0.0630125 0
M  V30 6695 H 653.912 -1.83566 0.545506 0
M  V30 6696 H 652.217 -3.70642 -1.27012 0
M  V30 6697 H 653.914 -3.90058 -0.930346 0
M  V30 6698 H 650.504 -4.26155 0.457131 0
M  V30 6699 H 654.688 -4.79509 1.28002 0
M  V30 6700 H 649.944 -5.60762 2.43631 0
M  V30 6701 H 654.118 -6.15483 3.25813 0
M  V30 6702 H 651.745 -6.5596 3.84215 0
M  V30 6703 N 653.32 -0.135238 -1.57019 0
M  V30 6704 C 654.56 0.521686 -1.9763 0
M  V30 6705 C 654.924 1.62804 -1.01778 0
M  V30 6706 O 656.125 2.345 -1.31389 0
M  V30 6707 C 654.396 1.0257 -3.42365 0
M  V30 6708 S 655.955 1.68888 -4.04997 0
M  V30 6709 H 652.773 0.169064 -0.690607 0
M  V30 6710 H 655.375 -0.224168 -1.94211 0
M  V30 6711 H 654.079 0.209556 -4.09865 0
M  V30 6712 H 653.61 1.80645 -3.49472 0
M  V30 6713 H 655.625 2.97554 -3.97084 0
M  V30 6714 N 654.798 1.5699 0.138552 0
M  V30 6715 C 655.748 1.9532 1.17619 0
M  V30 6716 C 656.732 0.825545 1.38107 0
M  V30 6717 O 657.924 1.08908 1.39528 0
M  V30 6718 C 655.053 2.34451 2.50774 0
M  V30 6719 C 654.139 3.53805 2.33844 0
M  V30 6720 N 654.53 4.70088 1.86685 0
M  V30 6721 C 652.828 3.59055 2.64567 0
M  V30 6722 C 653.529 5.52165 1.82998 0
M  V30 6723 N 652.505 4.94108 2.26624 0
M  V30 6724 H 656.307 2.82694 0.803809 0
M  V30 6725 H 653.821 1.5866 0.346519 0
M  V30 6726 H 655.818 2.60119 3.25797 0
M  V30 6727 H 654.478 1.48431 2.88788 0
M  V30 6728 H 655.489 4.93681 1.56523 0
M  V30 6729 H 652.166 2.83596 3.06398 0
M  V30 6730 H 653.556 6.55407 1.47957 0
M  V30 6731 N 656.276 -0.40816 1.52223 0
M  V30 6732 C 657.504 -1.17672 1.70179 0
M  V30 6733 C 657.919 -1.84257 0.411696 0
M  V30 6734 O 657.276 -1.7192 -0.612354 0
M  V30 6735 C 657.327 -2.23911 2.83806 0
M  V30 6736 O 657.048 -1.60044 4.0782 0
M  V30 6737 C 658.549 -3.1364 3.13281 0
M  V30 6738 H 655.769 -0.353562 0.570293 0
M  V30 6739 H 658.313 -0.480083 1.98785 0
M  V30 6740 H 656.468 -2.89242 2.57717 0
M  V30 6741 H 656.882 -2.30484 4.71145 0
M  V30 6742 H 658.356 -3.84255 3.96298 0
M  V30 6743 H 658.833 -3.76066 2.26872 0
M  V30 6744 H 659.439 -2.53977 3.41139 0
M  V30 6745 N 657.755 -1.42862 -0.66545 0
M  V30 6746 C 658.718 -1.46756 -1.76055 0
M  V30 6747 C 659.718 -0.353866 -1.56858 0
M  V30 6748 O 660.908 -0.615099 -1.62979 0
M  V30 6749 C 658.04 -1.30829 -3.14796 0
M  V30 6750 H 659.233 -2.44271 -1.73987 0
M  V30 6751 H 656.786 -1.29447 -0.875965 0
M  V30 6752 H 657.521 -0.342733 -3.22484 0
M  V30 6753 H 657.306 -2.11551 -3.30134 0
M  V30 6754 H 658.796 -1.36458 -3.94676 0
M  V30 6755 N 659.233 0.902656 -1.29189 0
M  V30 6756 C 660.196 1.98797 -1.14071 0
M  V30 6757 C 661.196 1.60615 -0.0770549 0
M  V30 6758 O 662.386 1.71165 -0.323753 0
M  V30 6759 C 659.518 3.32688 -0.743739 0
M  V30 6760 H 660.711 2.13637 -2.10473 0
M  V30 6761 H 658.264 1.08678 -1.12334 0
M  V30 6762 H 658.999 3.23549 0.220554 0
M  V30 6763 H 658.784 3.61765 -1.51223 0
M  V30 6764 H 660.274 4.12337 -0.660935 0
M  V30 6765 N 660.711 1.11618 1.11262 0
M  V30 6766 C 661.941 0.88745 1.86569 0
M  V30 6767 C 662.349 -0.56636 1.80524 0
M  V30 6768 O 661.692 -1.40289 1.18594 0
M  V30 6769 C 661.754 1.27313 3.36202 0
M  V30 6770 C 661.418 2.73649 3.66013 0
M  V30 6771 C 662.415 3.71863 3.63337 0
M  V30 6772 C 660.1 3.10342 3.9496 0
M  V30 6773 C 662.094 5.04788 3.89188 0
M  V30 6774 C 659.781 4.43451 4.20469 0
M  V30 6775 C 660.779 5.40484 4.17572 0
M  V30 6776 O 660.467 6.71195 4.42439 0
M  V30 6777 H 660.199 0.317543 0.596777 0
M  V30 6778 H 662.753 1.48768 1.41624 0
M  V30 6779 H 660.983 0.616062 3.81761 0
M  V30 6780 H 662.672 1.01991 3.92877 0
M  V30 6781 H 663.438 3.44861 3.41022 0
M  V30 6782 H 659.317 2.35431 3.9635 0
M  V30 6783 H 662.861 5.80516 3.86842 0
M  V30 6784 H 658.758 4.70187 4.42261 0
M  V30 6785 H 659.526 6.77012 4.59997 0
M  V30 6786 N 662.189 -1.289 0.906776 0
M  V30 6787 C 663.6 -1.77336 0.58384 0
M  V30 6788 C 663.951 -1.74304 -0.900697 0
M  V30 6789 O 663.076 -1.33335 -1.70443 0
M  V30 6790 C 663.671 -3.22019 1.05304 0
M  V30 6791 C 662.23 -3.68205 0.781148 0
M  V30 6792 C 661.377 -2.48837 1.22373 0
M  V30 6793 H 664.328 -1.15462 1.08877 0
M  V30 6794 H 664.349 -3.78481 0.391414 0
M  V30 6795 H 663.861 -3.24194 2.13353 0
M  V30 6796 H 661.962 -3.71497 -0.28643 0
M  V30 6797 H 662.075 -4.58675 1.384 0
M  V30 6798 H 660.439 -2.46461 0.642594 0
M  V30 6799 H 661.222 -2.53736 2.31242 0
M  V30 6800 N 663.667 -0.670007 -1.42649 0
M  V30 6801 C 664.614 0.0112928 -2.30797 0
M  V30 6802 C 665.584 0.797627 -1.45695 0
M  V30 6803 O 666.769 0.770845 -1.74535 0
M  V30 6804 C 663.909 0.95998 -3.31479 0
M  V30 6805 C 663.022 0.167975 -4.31673 0
M  V30 6806 C 662.157 1.11198 -5.19431 0
M  V30 6807 C 661.196 0.311381 -6.11307 0
M  V30 6808 N 660.333 1.20784 -6.91633 0
M  V30 6809 H 665.173 -0.746231 -2.88505 0
M  V30 6810 H 662.71 -0.379739 -1.42114 0
M  V30 6811 H 664.668 1.52379 -3.88377 0
M  V30 6812 H 663.298 1.68419 -2.75382 0
M  V30 6813 H 662.35 -0.512385 -3.76933 0
M  V30 6814 H 663.662 -0.453814 -4.96731 0
M  V30 6815 H 662.816 1.74587 -5.81037 0
M  V30 6816 H 661.555 1.76766 -4.54538 0
M  V30 6817 H 660.56 -0.335758 -5.48774 0
M  V30 6818 H 661.785 -0.340135 -6.78248 0
M  V30 6819 H 659.731 1.85001 -6.29373 0
M  V30 6820 H 659.648 0.64102 -7.53277 0
M  V30 6821 H 660.916 1.82936 -7.5773 0
M  V30 6822 N 665.145 1.52092 -0.413018 0
M  V30 6823 C 666.556 1.86617 0.0556967 0
M  V30 6824 C 666.907 1.33156 1.44097 0
M  V30 6825 O 666.032 0.672417 2.05688 0
M  V30 6826 C 666.627 3.38628 0.107844 0
M  V30 6827 C 665.186 3.72778 0.520904 0
M  V30 6828 C 664.333 2.75649 -0.302109 0
M  V30 6829 H 667.284 1.45663 -0.629919 0
M  V30 6830 H 667.305 3.69152 0.922324 0
M  V30 6831 H 666.817 3.77508 -0.900506 0
M  V30 6832 H 664.918 3.39478 1.53575 0
M  V30 6833 H 665.031 4.7838 0.262591 0
M  V30 6834 H 663.395 2.53603 0.236115 0
M  V30 6835 H 664.178 3.17369 -1.30888 0
M  V30 6836 N 666.623 0.143563 1.56945 0
M  V30 6837 C 667.869 -0.50916 1.96304 0
M  V30 6838 C 668.202 -1.64741 1.0283 0
M  V30 6839 O 667.477 -1.94374 0.0700361 0
M  V30 6840 C 667.76 -1.0186 3.45393 0
M  V30 6841 C 667.613 0.117923 4.49645 0
M  V30 6842 C 668.932 -1.90151 3.96901 0
M  V30 6843 H 666.051 -0.183608 0.713763 0
M  V30 6844 H 668.693 0.224095 1.88674 0
M  V30 6845 H 666.843 -1.64345 3.52027 0
M  V30 6846 H 668.515 0.754145 4.55094 0
M  V30 6847 H 666.758 0.777568 4.26774 0
M  V30 6848 H 667.429 -0.280187 5.51288 0
M  V30 6849 H 669.905 -1.375 3.92725 0
M  V30 6850 H 668.781 -2.22707 5.0169 0
M  V30 6851 H 669.042 -2.83718 3.39052 0
M  V30 6852 N 668.101 -1.57061 -0.130224 0
M  V30 6853 C 669.378 -1.75205 -0.869631 0
M  V30 6854 C 669.758 -0.716063 -1.98584 0
M  V30 6855 O 669.106 0.262032 -2.26993 0
M  V30 6856 C 669.316 -3.19835 -1.39666 0
M  V30 6857 C 670.664 -3.82011 -1.85345 0
M  V30 6858 O 671.688 -3.23368 -1.49371 0
M  V30 6859 O 670.547 -4.85064 -2.51744 0
M  V30 6860 H 667.641 -0.716977 -0.412157 0
M  V30 6861 H 670.187 -1.69311 -0.11484 0
M  V30 6862 H 668.959 -3.86745 -0.595288 0
M  V30 6863 H 668.582 -3.30222 -2.21448 0
M  V30 6864 N 669.579 0.400081 -1.52437 0
M  V30 6865 C 670.825 1.14788 -1.67187 0
M  V30 6866 C 671.158 1.89928 -0.405074 0
M  V30 6867 O 670.433 1.85118 0.596804 0
M  V30 6868 C 670.716 2.13507 -2.89977 0
M  V30 6869 C 670.569 1.42204 -4.2673 0
M  V30 6870 C 671.888 3.14069 -3.083 0
M  V30 6871 H 669.007 0.415939 -0.608411 0
M  V30 6872 H 671.649 0.432542 -1.85011 0
M  V30 6873 H 669.799 2.7451 -2.74912 0
M  V30 6874 H 671.471 0.842503 -4.53541 0
M  V30 6875 H 669.714 0.723939 -4.27717 0
M  V30 6876 H 670.385 2.14281 -5.08712 0
M  V30 6877 H 672.861 2.63148 -3.22323 0
M  V30 6878 H 671.737 3.80398 -3.95713 0
M  V30 6879 H 671.998 3.82309 -2.22018 0
M  V30 6880 N 671.057 1.43213 0.657864 0
M  V30 6881 C 672.005 1.48271 1.79216 0
M  V30 6882 C 672.999 0.35675 1.65601 0
M  V30 6883 O 674.205 0.530535 1.72004 0
M  V30 6884 H 670.58 0.464729 0.591211 0
M  V30 6885 H 672.551 2.43792 1.7207 0
M  V30 6886 C 671.3 1.41837 3.17455 0
M  V30 6887 H 670.623 2.27781 3.28567 0
M  V30 6888 H 672.063 1.49438 3.96793 0
M  V30 6889 C 670.522 0.135347 3.36628 0
M  V30 6890 O 671.052 -0.805199 3.93547 0
M  V30 6891 N 669.258 0.0470316 2.90562 0
M  V30 6892 H 668.805 0.813221 2.44427 0
M  V30 6893 H 668.763 -0.810737 3.03767 0
M  V30 6894 N 672.536 -0.895792 1.29666 0
M  V30 6895 C 673.764 -1.68001 1.20761 0
M  V30 6896 C 674.179 -1.87379 -0.231187 0
M  V30 6897 O 673.536 -1.41359 -1.15429 0
M  V30 6898 C 673.587 -3.06236 1.92098 0
M  V30 6899 O 673.308 -2.8774 3.30359 0
M  V30 6900 C 674.809 -4.00652 1.89717 0
M  V30 6901 H 672.029 -0.524591 0.418384 0
M  V30 6902 H 674.573 -1.11995 1.71106 0
M  V30 6903 H 672.728 -3.59007 1.45578 0
M  V30 6904 H 673.142 -3.75359 3.66342 0
M  V30 6905 H 674.616 -4.95051 2.44189 0
M  V30 6906 H 675.093 -4.30424 0.873595 0
M  V30 6907 H 675.699 -3.53815 2.35998 0
M  V30 6908 N 674.014 -1.12206 -1.10668 0
M  V30 6909 C 674.964 -0.75669 -2.15077 0
M  V30 6910 C 675.948 0.243154 -1.59052 0
M  V30 6911 O 677.14 0.0490268 -1.76932 0
M  V30 6912 C 674.269 -0.210303 -3.42655 0
M  V30 6913 C 673.355 -1.23829 -4.05619 0
M  V30 6914 N 673.746 -2.43513 -4.43323 0
M  V30 6915 C 672.044 -1.08309 -4.32649 0
M  V30 6916 C 672.745 -3.09138 -4.92756 0
M  V30 6917 N 671.721 -2.36593 -4.89413 0
M  V30 6918 H 675.523 -1.66747 -2.42018 0
M  V30 6919 H 673.037 -1.00248 -1.27765 0
M  V30 6920 H 675.034 0.0696287 -4.16842 0
M  V30 6921 H 673.694 0.694967 -3.17176 0
M  V30 6922 H 674.705 -2.80912 -4.35097 0
M  V30 6923 H 671.382 -0.234919 -4.16839 0
M  V30 6924 H 672.772 -4.11049 -5.31496 0
M  V30 6925 N 675.492 1.28418 -0.913599 0
M  V30 6926 C 676.442 2.24928 -0.373042 0
M  V30 6927 C 677.426 1.52444 0.514753 0
M  V30 6928 O 678.618 1.73414 0.3545 0
M  V30 6929 C 675.747 3.41124 0.385896 0
M  V30 6930 C 674.833 4.20929 -0.51761 0
M  V30 6931 N 675.224 4.78777 -1.63113 0
M  V30 6932 C 673.522 4.44865 -0.317969 0
M  V30 6933 C 674.223 5.38822 -2.19193 0
M  V30 6934 N 673.199 5.22974 -1.48321 0
M  V30 6935 H 677.001 2.67224 -1.22346 0
M  V30 6936 H 674.515 1.43187 -0.766236 0
M  V30 6937 H 676.512 4.09347 0.789997 0
M  V30 6938 H 675.172 3.00362 1.23341 0
M  V30 6939 H 676.183 4.77148 -2.01372 0
M  V30 6940 H 672.86 4.14614 0.49004 0
M  V30 6941 H 674.25 5.94615 -3.12861 0
M  V30 6942 N 676.97 0.677563 1.42291 0
M  V30 6943 C 678.198 0.209459 2.05837 0
M  V30 6944 C 678.613 -1.13444 1.50917 0
M  V30 6945 O 677.97 -1.70529 0.65008 0
M  V30 6946 C 678.021 0.138819 3.61233 0
M  V30 6947 O 677.742 1.42962 4.14118 0
M  V30 6948 C 679.243 -0.352449 4.41897 0
M  V30 6949 H 676.463 0.101209 0.663323 0
M  V30 6950 H 679.007 0.925077 1.8238 0
M  V30 6951 H 677.162 -0.527505 3.83792 0
M  V30 6952 H 677.576 1.3048 5.08011 0
M  V30 6953 H 679.05 -0.350778 5.50884 0
M  V30 6954 H 679.527 -1.3882 4.16684 0
M  V30 6955 H 680.133 0.282236 4.24362 0
M  V30 6956 N 678.448 -1.51871 0.421078 0
M  V30 6957 C 679.378 -2.30231 -0.389363 0
M  V30 6958 C 680.359 -1.34946 -1.03555 0
M  V30 6959 O 681.544 -1.63859 -1.04229 0
M  V30 6960 C 678.674 -3.13247 -1.49979 0
M  V30 6961 C 677.628 -4.16677 -0.977966 0
M  V30 6962 C 676.954 -4.88112 -2.1829 0
M  V30 6963 C 678.254 -5.22295 -0.0236775 0
M  V30 6964 H 679.948 -2.98229 0.264524 0
M  V30 6965 H 677.494 -1.43424 0.12866 0
M  V30 6966 H 679.447 -3.66838 -2.07383 0
M  V30 6967 H 678.171 -2.4304 -2.18173 0
M  V30 6968 H 676.83 -3.64114 -0.426245 0
M  V30 6969 H 676.478 -4.14423 -2.85066 0
M  V30 6970 H 676.178 -5.58041 -1.84021 0
M  V30 6971 H 677.702 -5.44521 -2.76278 0
M  V30 6972 H 679.116 -5.71055 -0.506899 0
M  V30 6973 H 677.513 -5.99656 0.230782 0
M  V30 6974 H 678.583 -4.76131 0.917999 0
M  V30 6975 N 679.926 -0.151884 -1.56866 0
M  V30 6976 C 681.337 0.368128 -1.83035 0
M  V30 6977 C 681.688 1.64402 -1.07082 0
M  V30 6978 O 680.813 2.14056 -0.317647 0
M  V30 6979 C 681.408 0.674676 -3.32014 0
M  V30 6980 C 679.967 1.13919 -3.58747 0
M  V30 6981 C 679.114 0.164833 -2.7681 0
M  V30 6982 H 682.065 -0.376499 -1.54169 0
M  V30 6983 H 682.086 1.52883 -3.48435 0
M  V30 6984 H 681.598 -0.254113 -3.87267 0
M  V30 6985 H 679.699 2.08375 -3.08886 0
M  V30 6986 H 679.812 1.06179 -4.67186 0
M  V30 6987 H 678.176 0.658419 -2.46043 0
M  V30 6988 H 678.959 -0.757633 -3.34836 0
M  V30 6989 N 681.404 1.57128 0.121893 0
M  V30 6990 C 682.681 1.75664 0.860327 0
M  V30 6991 C 683.061 0.726585 1.98202 0
M  V30 6992 O 682.409 -0.24999 2.27128 0
M  V30 6993 C 682.619 3.20571 1.37968 0
M  V30 6994 C 683.967 3.82988 1.83317 0
M  V30 6995 O 684.991 3.24156 1.47654 0
M  V30 6996 O 683.85 4.86393 2.49168 0
M  V30 6997 H 680.944 0.719153 0.408348 0
M  V30 6998 H 683.49 1.6937 0.105859 0
M  V30 6999 H 682.262 3.87056 0.57477 0
M  V30 7000 H 681.885 3.31392 2.19694 0
M  V30 7001 N 682.882 -0.391992 1.52647 0
M  V30 7002 C 684.129 -1.13732 1.67545 0
M  V30 7003 C 684.457 -1.90045 0.413881 0
M  V30 7004 O 683.712 -1.86157 -0.603646 0
M  V30 7005 C 684.011 -2.14401 2.85949 0
M  V30 7006 C 683.677 -1.54767 4.23507 0
M  V30 7007 C 682.339 -1.38229 4.60919 0
M  V30 7008 C 684.691 -1.11382 5.0916 0
M  V30 7009 C 682.019 -0.7685 5.81645 0
M  V30 7010 C 684.371 -0.514143 6.30507 0
M  V30 7011 C 683.035 -0.33604 6.66654 0
M  V30 7012 H 682.305 -0.416174 0.613091 0
M  V30 7013 H 684.952 -0.422327 1.86785 0
M  V30 7014 H 683.257 -2.92108 2.61114 0
M  V30 7015 H 684.954 -2.71974 2.94671 0
M  V30 7016 H 681.544 -1.68626 3.94035 0
M  V30 7017 H 685.728 -1.22962 4.80826 0
M  V30 7018 H 680.984 -0.618681 6.08262 0
M  V30 7019 H 685.158 -0.169657 6.96193 0
M  V30 7020 H 682.785 0.14166 7.60068 0
M  V30 7021 N 684.36 -1.4356 -0.65026 0
M  V30 7022 C 685.609 -1.44619 -1.406 0
M  V30 7023 C 685.922 -0.0752645 -1.95455 0
M  V30 7024 O 687.128 0.0366832 -2.71475 0
M  V30 7025 C 685.584 -2.54511 -2.54465 0
M  V30 7026 C 685.192 -3.97723 -2.06204 0
M  V30 7027 C 686.936 -2.64768 -3.31811 0
M  V30 7028 C 684.843 -4.99075 -3.17298 0
M  V30 7029 H 683.773 -0.537983 -0.52829 0
M  V30 7030 H 686.424 -1.69559 -0.701561 0
M  V30 7031 H 684.806 -2.22777 -3.27393 0
M  V30 7032 H 685.98 -4.38932 -1.40267 0
M  V30 7033 H 684.295 -3.91538 -1.41729 0
M  V30 7034 H 686.892 -3.37664 -4.14593 0
M  V30 7035 H 687.235 -1.69936 -3.80036 0
M  V30 7036 H 687.768 -2.95817 -2.65964 0
M  V30 7037 H 684.507 -5.95469 -2.74038 0
M  V30 7038 H 684.027 -4.62476 -3.81937 0
M  V30 7039 H 685.706 -5.21913 -3.82382 0
M  V30 7040 N 685.838 0.888903 -1.30139 0
M  V30 7041 C 686.771 1.99655 -1.10514 0
M  V30 7042 C 687.749 1.62594 -0.0138934 0
M  V30 7043 O 688.933 1.87762 -0.166689 0
M  V30 7044 C 686.06 3.31708 -0.684655 0
M  V30 7045 C 685.106 3.87755 -1.77619 0
M  V30 7046 S 685.939 4.15532 -3.37777 0
M  V30 7047 C 687.095 5.5061 -2.97622 0
M  V30 7048 H 687.328 2.15996 -2.04287 0
M  V30 7049 H 684.861 1.03682 -1.14409 0
M  V30 7050 H 686.819 4.08039 -0.448782 0
M  V30 7051 H 685.48 3.1323 0.233648 0
M  V30 7052 H 684.673 4.83164 -1.43417 0
M  V30 7053 H 684.275 3.18149 -1.96614 0
M  V30 7054 H 686.567 6.31518 -2.45338 0
M  V30 7055 H 687.51 5.89747 -3.91924 0
M  V30 7056 H 687.918 5.12983 -2.35603 0
M  V30 7057 N 687.317 1.12792 1.10072 0
M  V30 7058 C 688.265 0.794523 2.18609 0
M  V30 7059 C 689.259 -0.220271 1.67962 0
M  V30 7060 O 690.465 -0.0780938 1.79831 0
M  V30 7061 H 686.84 0.239123 0.712969 0
M  V30 7062 H 688.811 1.71823 2.43966 0
M  V30 7063 C 687.56 0.269548 3.46654 0
M  V30 7064 H 686.883 1.04171 3.8599 0
M  V30 7065 H 688.323 0.0746242 4.23934 0
M  V30 7066 C 686.782 -1.00333 3.21613 0
M  V30 7067 O 687.312 -2.08042 3.4363 0
M  V30 7068 N 685.518 -0.931763 2.75257 0
M  V30 7069 H 685.065 -0.0551197 2.57541 0
M  V30 7070 H 685.023 -1.78405 2.58881 0
M  V30 7071 N 688.795 -1.27931 0.920396 0
M  V30 7072 C 690.211 -1.47085 0.619537 0
M  V30 7073 C 690.411 -1.83463 -0.833291 0
M  V30 7074 O 689.467 -1.94363 -1.61181 0
M  V30 7075 C 690.78 -2.56878 1.56314 0
M  V30 7076 C 692.328 -2.70743 1.57058 0
M  V30 7077 C 692.803 -3.83687 2.50097 0
M  V30 7078 N 694.294 -3.9105 2.48262 0
M  V30 7079 C 695.029 -4.77842 3.16945 0
M  V30 7080 N 694.525 -5.69176 3.94982 0
M  V30 7081 N 696.318 -4.71509 3.06 0
M  V30 7082 H 688.469 -1.02601 1.85975 0
M  V30 7083 H 690.732 -0.511682 0.798051 0
M  V30 7084 H 690.438 -2.36923 2.59923 0
M  V30 7085 H 690.312 -3.54117 1.29928 0
M  V30 7086 H 692.699 -2.90083 0.541832 0
M  V30 7087 H 692.78 -1.74015 1.8749 0
M  V30 7088 H 692.424 -3.65101 3.53077 0
M  V30 7089 H 692.354 -4.79827 2.16964 0
M  V30 7090 H 694.845 -3.25738 1.91581 0
M  V30 7091 H 695.158 -6.32245 4.44394 0
M  V30 7092 H 693.503 -5.68995 3.99086 0
M  V30 7093 H 696.694 -3.99151 2.44533 0
M  V30 7094 H 696.867 -5.38933 3.59799 0
M  V30 7095 N 690.273 -0.685099 -1.4193 0
M  V30 7096 C 691.521 -0.21124 -2.00993 0
M  V30 7097 C 691.842 1.18985 -1.54491 0
M  V30 7098 O 691.112 1.8009 -0.771 0
M  V30 7099 H 689.692 -0.0751059 -0.743215 0
M  V30 7100 H 692.354 -0.883915 -1.73704 0
M  V30 7101 H 691.45 -0.220513 -3.1132 0
M  V30 7102 N 691.751 1.51645 -0.429126 0
M  V30 7103 C 692.999 2.01616 0.139802 0
M  V30 7104 C 693.32 1.31568 1.43927 0
M  V30 7105 O 692.59 0.447688 1.90716 0
M  V30 7106 H 691.17 0.744998 0.054654 0
M  V30 7107 H 693.832 1.8638 -0.569952 0
M  V30 7108 H 692.928 3.10439 0.321609 0
M  V30 7109 N 693.229 0.160201 1.56784 0
M  V30 7110 C 694.475 -0.48831 1.96833 0
M  V30 7111 C 694.808 -1.63641 1.04571 0
M  V30 7112 O 694.083 -1.94289 0.0906481 0
M  V30 7113 C 694.366 -0.981908 3.46454 0
M  V30 7114 C 694.219 0.165607 4.49495 0
M  V30 7115 C 695.538 -1.85931 3.98896 0
M  V30 7116 H 692.657 -0.176027 0.71567 0
M  V30 7117 H 695.299 0.244093 1.88426 0
M  V30 7118 H 693.449 -1.60602 3.5375 0
M  V30 7119 H 695.121 0.802372 4.54268 0
M  V30 7120 H 693.364 0.822789 4.25926 0
M  V30 7121 H 694.035 -0.221699 5.51555 0
M  V30 7122 H 696.511 -1.33327 3.94161 0
M  V30 7123 H 695.387 -2.17373 5.04024 0
M  V30 7124 H 695.648 -2.80106 3.42042 0
M  V30 7125 N 694.707 -1.5719 -0.113559 0
M  V30 7126 C 695.932 -1.89702 -0.838336 0
M  V30 7127 C 696.357 -0.752679 -1.72384 0
M  V30 7128 O 695.715 0.296575 -1.78858 0
M  V30 7129 C 695.763 -3.20989 -1.64312 0
M  V30 7130 O 694.867 -3.07278 -2.75053 0
M  V30 7131 H 694.208 -0.622339 -0.231496 0
M  V30 7132 H 696.738 -2.04382 -0.0943228 0
M  V30 7133 H 696.748 -3.53843 -2.03123 0
M  V30 7134 H 695.423 -4.03869 -0.993119 0
M  V30 7135 H 694 -2.85901 -2.39406 0
M  V30 7136 N 696.185 0.383891 -1.52853 0
M  V30 7137 C 697.115 1.47559 -1.80965 0
M  V30 7138 C 698.096 1.5669 -0.661986 0
M  V30 7139 O 699.281 1.71556 -0.910072 0
M  V30 7140 C 696.411 2.85114 -1.98312 0
M  V30 7141 C 695.365 2.9082 -3.14019 0
M  V30 7142 C 694.691 4.30873 -3.16627 0
M  V30 7143 C 695.991 2.60001 -4.52986 0
M  V30 7144 H 697.685 1.24283 -2.72386 0
M  V30 7145 H 695.231 0.596445 -1.31067 0
M  V30 7146 H 697.184 3.61496 -2.16561 0
M  V30 7147 H 695.908 3.09738 -1.03585 0
M  V30 7148 H 694.567 2.16886 -2.9556 0
M  V30 7149 H 694.215 4.52545 -2.19573 0
M  V30 7150 H 693.915 4.3561 -3.94357 0
M  V30 7151 H 695.439 5.09154 -3.37038 0
M  V30 7152 H 696.853 3.261 -4.71521 0
M  V30 7153 H 695.25 2.76081 -5.32822 0
M  V30 7154 H 696.32 1.5532 -4.59351 0
M  V30 7155 N 697.663 1.43903 0.642637 0
M  V30 7156 C 699.079 1.27536 0.959519 0
M  V30 7157 C 699.279 0.202751 2.00477 0
M  V30 7158 O 698.335 -0.415256 2.49062 0
M  V30 7159 C 699.648 2.6432 1.43372 0
M  V30 7160 C 701.196 2.71937 1.54981 0
M  V30 7161 C 701.671 4.09164 2.05789 0
M  V30 7162 N 703.162 4.11282 2.13076 0
M  V30 7163 C 703.897 5.14303 2.53534 0
M  V30 7164 N 703.393 6.27693 2.93212 0
M  V30 7165 N 705.186 5.01657 2.53567 0
M  V30 7166 H 697.337 2.12344 -0.0488376 0
M  V30 7167 H 699.6 0.947124 0.0407559 0
M  V30 7168 H 699.306 3.43826 0.740048 0
M  V30 7169 H 699.18 2.90432 2.40685 0
M  V30 7170 H 701.567 1.92757 2.23448 0
M  V30 7171 H 701.648 2.49578 0.560739 0
M  V30 7172 H 701.292 4.88815 1.37921 0
M  V30 7173 H 701.222 4.28893 3.05546 0
M  V30 7174 H 703.713 3.2944 1.85143 0
M  V30 7175 H 704.026 7.02125 3.22863 0
M  V30 7176 H 702.371 6.31149 2.90991 0
M  V30 7177 H 705.562 4.12134 2.21952 0
M  V30 7178 H 705.735 5.82072 2.84774 0
M  V30 7179 N 699.141 -0.881989 1.30609 0
M  V30 7180 C 700.552 -1.44956 1.17664 0
M  V30 7181 C 700.903 -1.94945 -0.221531 0
M  V30 7182 O 700.028 -1.85257 -1.11844 0
M  V30 7183 C 700.623 -2.63474 2.12995 0
M  V30 7184 C 699.182 -3.16312 2.04019 0
M  V30 7185 C 698.329 -1.89008 2.02907 0
M  V30 7186 H 701.28 -0.691645 1.42835 0
M  V30 7187 H 701.301 -3.39783 1.71253 0
M  V30 7188 H 700.813 -2.2706 3.14746 0
M  V30 7189 H 698.914 -3.57376 1.0542 0
M  V30 7190 H 699.027 -3.79409 2.9255 0
M  V30 7191 H 697.391 -2.07465 1.47751 0
M  V30 7192 H 698.174 -1.54848 3.06394 0
M  V30 7193 N 700.619 -1.13374 -1.09472 0
M  V30 7194 C 701.867 -0.893422 -1.8128 0
M  V30 7195 C 702.188 0.582029 -1.86111 0
M  V30 7196 O 701.458 1.42305 -1.34633 0
M  V30 7197 H 700.038 -0.327543 -0.67136 0
M  V30 7198 H 702.7 -1.43018 -1.32408 0
M  V30 7199 H 701.796 -1.28374 -2.84476 0
M  V30 7200 N 702.098 1.27442 -0.927168 0
M  V30 7201 C 703.375 1.89473 -0.485742 0
M  V30 7202 C 703.755 1.83922 1.03614 0
M  V30 7203 O 703.103 1.28409 1.89007 0
M  V30 7204 C 703.313 3.33417 -1.03123 0
M  V30 7205 C 704.661 4.10333 -1.0914 0
M  V30 7206 O 705.685 3.4243 -0.98082 0
M  V30 7207 O 704.544 5.31737 -1.26165 0
M  V30 7208 H 701.638 0.812124 -0.156154 0
M  V30 7209 H 704.184 1.35713 -1.01882 0
M  V30 7210 H 702.956 3.31747 -2.07508 0
M  V30 7211 H 702.579 3.94695 -0.479767 0
M  V30 7212 N 703.576 0.692616 1.41565 0
M  V30 7213 C 704.824 0.221896 2.00878 0
M  V30 7214 C 705.145 -1.18164 1.5512 0
M  V30 7215 O 704.415 -1.79679 0.78054 0
M  V30 7216 H 702.995 0.0790463 0.742806 0
M  V30 7217 H 705.657 0.893115 1.73232 0
M  V30 7218 H 704.753 0.23702 3.11199 0
M  V30 7219 N 705.054 -1.51416 0.437162 0
M  V30 7220 C 706.3 -2.02386 -0.129555 0
M  V30 7221 C 706.633 -1.32071 -1.42376 0
M  V30 7222 O 705.908 -0.43559 -1.8956 0
M  V30 7223 C 706.191 -3.5841 -0.348487 0
M  V30 7224 C 706.044 -4.39341 0.964352 0
M  V30 7225 C 707.363 -4.25654 -1.11834 0
M  V30 7226 H 704.482 -0.735587 -0.0456109 0
M  V30 7227 H 707.124 -1.81055 0.576124 0
M  V30 7228 H 705.274 -3.76716 -0.949592 0
M  V30 7229 H 706.946 -4.32685 1.59942 0
M  V30 7230 H 705.189 -4.04432 1.56898 0
M  V30 7231 H 705.86 -5.4667 0.765212 0
M  V30 7232 H 708.336 -4.11617 -0.609165 0
M  V30 7233 H 707.212 -5.34704 -1.24029 0
M  V30 7234 H 707.473 -3.86502 -2.14636 0
M  V30 7235 N 706.532 -0.168513 -1.56696 0
M  V30 7236 C 707.781 0.477233 -1.95973 0
M  V30 7237 C 708.094 1.64578 -1.05704 0
M  V30 7238 O 709.3 2.35758 -1.3465 0
M  V30 7239 C 707.756 0.900413 -3.48455 0
M  V30 7240 C 707.364 -0.242382 -4.47344 0
M  V30 7241 C 709.108 1.51474 -3.96555 0
M  V30 7242 C 707.015 0.200272 -5.91061 0
M  V30 7243 H 705.945 0.182061 -0.73169 0
M  V30 7244 H 708.596 -0.256297 -1.81701 0
M  V30 7245 H 706.978 1.68984 -3.58135 0
M  V30 7246 H 708.152 -1.01967 -4.49377 0
M  V30 7247 H 706.467 -0.766484 -4.09285 0
M  V30 7248 H 709.064 1.85792 -5.01384 0
M  V30 7249 H 709.407 2.41163 -3.39332 0
M  V30 7250 H 709.94 0.789802 -3.89881 0
M  V30 7251 H 706.679 -0.661775 -6.52151 0
M  V30 7252 H 706.199 0.942979 -5.92341 0
M  V30 7253 H 707.878 0.645088 -6.43776 0
M  V30 7254 N 708.01 1.57248 0.105221 0
M  V30 7255 C 708.96 1.9777 1.1345 0
M  V30 7256 C 709.944 0.854654 1.36325 0
M  V30 7257 O 711.136 1.11844 1.37186 0
M  V30 7258 C 708.265 2.39717 2.45745 0
M  V30 7259 C 707.351 3.58686 2.26286 0
M  V30 7260 N 707.742 4.73942 1.76671 0
M  V30 7261 C 706.04 3.64586 2.56891 0
M  V30 7262 C 706.741 5.55923 1.71245 0
M  V30 7263 N 705.717 4.98803 2.16093 0
M  V30 7264 H 709.519 2.84336 0.743664 0
M  V30 7265 H 707.033 1.59359 0.312787 0
M  V30 7266 H 709.03 2.66971 3.20206 0
M  V30 7267 H 707.69 1.54523 2.85574 0
M  V30 7268 H 708.701 4.9689 1.46016 0
M  V30 7269 H 705.378 2.90031 3.00314 0
M  V30 7270 H 706.768 6.58398 1.34022 0
M  V30 7271 N 709.488 -0.375779 1.53054 0
M  V30 7272 C 710.713 -1.14484 1.7294 0
M  V30 7273 C 711.138 -1.82572 0.452668 0
M  V30 7274 O 710.496 -1.71343 -0.592567 0
M  V30 7275 C 710.544 -2.15857 2.88857 0
M  V30 7276 O 709.648 -3.22725 2.56753 0
M  V30 7277 H 708.989 -0.332666 0.574656 0
M  V30 7278 H 711.519 -0.436025 1.999 0
M  V30 7279 H 711.529 -2.59631 3.14731 0
M  V30 7280 H 710.204 -1.65689 3.81471 0
M  V30 7281 H 708.781 -2.83996 2.41663 0
M  V30 7282 N 710.966 -1.44241 -0.634997 0
M  V30 7283 C 712.212 -1.48033 -1.39492 0
M  V30 7284 C 712.567 -0.109791 -1.92086 0
M  V30 7285 O 711.86 0.874394 -1.70484 0
M  V30 7286 C 712.054 -2.47279 -2.58046 0
M  V30 7287 C 711.883 -3.93848 -2.17057 0
M  V30 7288 C 710.653 -4.62061 -2.04518 0
M  V30 7289 C 712.851 -4.83172 -1.76208 0
M  V30 7290 N 710.833 -5.93471 -1.57051 0
M  V30 7291 C 712.204 -6.03996 -1.39958 0
M  V30 7292 C 714.259 -4.70271 -1.63554 0
M  V30 7293 C 712.962 -7.13351 -0.923196 0
M  V30 7294 C 714.988 -5.79646 -1.1732 0
M  V30 7295 C 714.35 -6.99609 -0.820181 0
M  V30 7296 H 710.449 -0.596743 -0.505392 0
M  V30 7297 H 713.033 -1.80542 -0.72887 0
M  V30 7298 H 711.204 -2.16766 -3.22284 0
M  V30 7299 H 712.936 -2.41391 -3.24827 0
M  V30 7300 H 709.691 -4.1682 -2.24851 0
M  V30 7301 H 710.115 -6.63275 -1.35628 0
M  V30 7302 H 714.757 -3.77964 -1.8948 0
M  V30 7303 H 712.475 -8.0547 -0.651441 0
M  V30 7304 H 716.061 -5.71689 -1.07993 0
M  V30 7305 H 714.941 -7.82803 -0.467901 0
M  V30 7306 N 712.444 0.87505 -1.31075 0
M  V30 7307 C 713.374 1.99775 -1.20881 0
M  V30 7308 C 714.355 1.69822 -0.0971612 0
M  V30 7309 O 715.54 1.92158 -0.280895 0
M  V30 7310 C 712.67 3.35163 -0.910118 0
M  V30 7311 C 711.624 3.79406 -1.98078 0
M  V30 7312 C 710.95 5.12197 -1.53488 0
M  V30 7313 C 712.25 3.97061 -3.39323 0
M  V30 7314 H 713.944 2.08562 -2.14808 0
M  V30 7315 H 711.49 1.00207 -1.03415 0
M  V30 7316 H 713.443 4.13237 -0.825423 0
M  V30 7317 H 712.167 3.26536 0.064822 0
M  V30 7318 H 710.826 3.03568 -2.05528 0
M  V30 7319 H 710.474 5.00007 -0.547941 0
M  V30 7320 H 710.174 5.4277 -2.2511 0
M  V30 7321 H 711.698 5.92785 -1.46417 0
M  V30 7322 H 713.112 4.65545 -3.34576 0
M  V30 7323 H 711.509 4.39025 -4.09118 0
M  V30 7324 H 712.579 3.00601 -3.80483 0
M  V30 7325 N 713.922 1.13953 1.08869 0
M  V30 7326 C 714.87 0.817664 2.17754 0
M  V30 7327 C 715.864 -0.202444 1.68186 0
M  V30 7328 O 717.07 -0.0590159 1.79903 0
M  V30 7329 H 713.445 0.246671 0.710392 0
M  V30 7330 H 715.416 1.74401 2.4213 0
M  V30 7331 C 714.165 0.3063 3.46348 0
M  V30 7332 H 713.488 1.08259 3.84864 0
M  V30 7333 H 714.928 0.119584 4.23831 0
M  V30 7334 C 713.387 -0.969158 3.22659 0
M  V30 7335 O 713.917 -2.04386 3.45817 0
M  V30 7336 N 712.123 -0.902516 2.7623 0
M  V30 7337 H 711.67 -0.027801 2.57585 0
M  V30 7338 H 711.628 -1.75649 2.60758 0
M  V30 7339 N 715.4 -1.26948 0.933913 0
M  V30 7340 C 716.816 -1.46419 0.635103 0
M  V30 7341 C 717.016 -1.84336 -0.813785 0
M  V30 7342 O 716.072 -1.96061 -1.59111 0
M  V30 7343 C 717.385 -2.55206 1.5903 0
M  V30 7344 C 718.933 -2.69062 1.5992 0
M  V30 7345 C 719.408 -3.81013 2.54152 0
M  V30 7346 N 720.899 -3.88395 2.52395 0
M  V30 7347 C 721.634 -4.74454 3.21996 0
M  V30 7348 N 721.13 -5.64954 4.00997 0
M  V30 7349 N 722.923 -4.68237 3.10983 0
M  V30 7350 H 715.074 -1.00622 1.87053 0
M  V30 7351 H 717.337 -0.503189 0.803433 0
M  V30 7352 H 717.043 -2.34153 2.62422 0
M  V30 7353 H 716.917 -3.52719 1.33677 0
M  V30 7354 H 719.304 -2.89492 0.572569 0
M  V30 7355 H 719.385 -1.72016 1.89325 0
M  V30 7356 H 719.029 -3.61336 3.5693 0
M  V30 7357 H 718.959 -4.77499 2.22041 0
M  V30 7358 H 721.45 -3.23687 1.95025 0
M  V30 7359 H 721.763 -6.27496 4.51074 0
M  V30 7360 H 720.108 -5.6473 4.05099 0
M  V30 7361 H 723.299 -3.96535 2.48753 0
M  V30 7362 H 723.472 -5.35087 3.65494 0
M  V30 7363 N 716.879 -0.700114 -1.41195 0
M  V30 7364 C 717.812 0.0129614 -2.28196 0
M  V30 7365 C 718.79 0.783367 -1.42486 0
M  V30 7366 O 719.974 0.773238 -1.71911 0
M  V30 7367 C 717.101 1.02575 -3.22794 0
M  V30 7368 C 716.147 0.347977 -4.25078 0
M  V30 7369 S 716.98 -0.912938 -5.27661 0
M  V30 7370 C 718.136 0.0981362 -6.25823 0
M  V30 7371 H 718.369 -0.724927 -2.88326 0
M  V30 7372 H 715.902 -0.490554 -1.464 0
M  V30 7373 H 717.86 1.60491 -3.77826 0
M  V30 7374 H 716.521 1.73624 -2.61751 0
M  V30 7375 H 715.714 1.11305 -4.91556 0
M  V30 7376 H 715.316 -0.15823 -3.73665 0
M  V30 7377 H 717.608 0.949965 -6.70807 0
M  V30 7378 H 718.551 -0.532838 -7.06092 0
M  V30 7379 H 718.959 0.454944 -5.62664 0
M  V30 7380 N 718.357 1.51182 -0.445186 0
M  V30 7381 C 719.287 2.30821 0.352686 0
M  V30 7382 C 720.268 1.36576 1.01395 0
M  V30 7383 O 721.453 1.65497 1.01609 0
M  V30 7384 C 718.583 3.15593 1.44976 0
M  V30 7385 C 717.537 4.1818 0.911553 0
M  V30 7386 C 716.863 4.91523 2.10497 0
M  V30 7387 C 718.163 5.22266 -0.059418 0
M  V30 7388 H 719.857 2.97771 -0.311936 0
M  V30 7389 H 717.403 1.43201 -0.151461 0
M  V30 7390 H 719.356 3.70091 2.01521 0
M  V30 7391 H 718.08 2.4648 2.14278 0
M  V30 7392 H 716.739 3.64746 0.368264 0
M  V30 7393 H 716.387 4.18906 2.78437 0
M  V30 7394 H 716.087 5.60898 1.7512 0
M  V30 7395 H 717.611 5.48847 2.6758 0
M  V30 7396 H 719.025 5.71789 0.415985 0
M  V30 7397 H 717.422 5.99213 -0.326152 0
M  V30 7398 H 718.492 4.7461 -0.993631 0
M  V30 7399 N 719.835 0.176821 1.56605 0
M  V30 7400 C 720.765 -0.746841 2.21234 0
M  V30 7401 C 721.746 -1.23502 1.16967 0
M  V30 7402 O 722.931 -1.28718 1.45414 0
M  V30 7403 C 720.061 -1.97407 2.8574 0
M  V30 7404 C 719.015 -1.62153 3.96094 0
M  V30 7405 C 718.341 -2.92387 4.47676 0
M  V30 7406 C 719.641 -0.845353 5.15413 0
M  V30 7407 H 721.335 -0.208116 2.98676 0
M  V30 7408 H 718.881 -0.0986594 1.43662 0
M  V30 7409 H 720.834 -2.62531 3.2963 0
M  V30 7410 H 719.558 -2.53703 2.05676 0
M  V30 7411 H 718.217 -0.993964 3.52868 0
M  V30 7412 H 717.865 -3.46734 3.64396 0
M  V30 7413 H 717.565 -2.69551 5.22127 0
M  V30 7414 H 719.089 -3.5853 4.94255 0
M  V30 7415 H 720.503 -1.39929 5.55961 0
M  V30 7416 H 718.9 -0.715814 5.95815 0
M  V30 7417 H 719.97 0.157239 4.84645 0
M  V30 7418 N 721.313 -1.57302 -0.09688 0
M  V30 7419 C 722.724 -1.7496 -0.651595 0
M  V30 7420 C 723.075 -0.798746 -1.79205 0
M  V30 7421 O 722.2 0.0231858 -2.16388 0
M  V30 7422 C 722.795 -3.17259 -1.18878 0
M  V30 7423 C 721.354 -3.36348 -1.68958 0
M  V30 7424 C 720.501 -2.70766 -0.598413 0
M  V30 7425 H 723.452 -1.58173 0.12918 0
M  V30 7426 H 723.473 -3.20033 -2.05814 0
M  V30 7427 H 722.985 -3.8644 -0.358523 0
M  V30 7428 H 721.086 -2.72243 -2.5439 0
M  V30 7429 H 721.199 -4.44654 -1.7838 0
M  V30 7430 H 719.563 -2.32615 -1.03743 0
M  V30 7431 H 720.346 -3.42586 0.221238 0
M  V30 7432 N 722.791 0.367657 -1.53252 0
M  V30 7433 C 724.068 1.12606 -1.59935 0
M  V30 7434 C 724.448 2.07167 -0.405606 0
M  V30 7435 O 723.796 2.20364 0.604323 0
M  V30 7436 C 724.006 1.86699 -2.94863 0
M  V30 7437 C 725.354 2.41306 -3.49366 0
M  V30 7438 O 726.378 1.96828 -2.96879 0
M  V30 7439 O 725.237 3.2261 -4.41118 0
M  V30 7440 H 722.331 0.516438 -0.645926 0
M  V30 7441 H 724.877 0.371088 -1.65593 0
M  V30 7442 H 723.649 1.17674 -3.73187 0
M  V30 7443 H 723.272 2.6911 -2.92687 0
M  V30 7444 N 724.269 1.44576 0.627338 0
M  V30 7445 C 725.497 1.51048 1.41394 0
M  V30 7446 C 725.912 0.136568 1.88305 0
M  V30 7447 O 725.269 -0.858251 1.6106 0
M  V30 7448 C 725.32 2.47837 2.63172 0
M  V30 7449 O 725.041 3.79887 2.18215 0
M  V30 7450 C 726.542 2.63811 3.56257 0
M  V30 7451 H 723.762 0.512171 0.4335 0
M  V30 7452 H 726.306 1.89576 0.766878 0
M  V30 7453 H 724.461 2.12433 3.23961 0
M  V30 7454 H 724.875 4.32177 2.97192 0
M  V30 7455 H 726.349 3.35554 4.38301 0
M  V30 7456 H 726.826 1.69169 4.05313 0
M  V30 7457 H 727.432 3.0013 3.01333 0
M  V30 7458 N 725.747 -0.868086 1.31537 0
M  V30 7459 C 726.993 -1.62367 1.2151 0
M  V30 7460 C 727.326 -1.92883 -0.225819 0
M  V30 7461 O 726.601 -1.56176 -1.15927 0
M  V30 7462 C 726.884 -2.95268 2.06129 0
M  V30 7463 C 726.737 -2.71619 3.58529 0
M  V30 7464 C 728.056 -3.96391 1.91212 0
M  V30 7465 H 725.175 -0.589178 0.442762 0
M  V30 7466 H 727.817 -1.00336 1.61347 0
M  V30 7467 H 725.967 -3.4821 1.72284 0
M  V30 7468 H 727.639 -2.25334 4.0252 0
M  V30 7469 H 725.882 -2.05817 3.81866 0
M  V30 7470 H 726.553 -3.66192 4.13047 0
M  V30 7471 H 729.029 -3.52663 2.20834 0
M  V30 7472 H 727.905 -4.87263 2.52718 0
M  V30 7473 H 728.166 -4.33335 0.875953 0
M  V30 7474 N 727.225 -1.14528 -1.08264 0
M  V30 7475 C 728.473 -0.912599 -1.80322 0
M  V30 7476 C 728.794 0.562256 -1.86718 0
M  V30 7477 O 728.064 1.40869 -1.36135 0
M  V30 7478 H 726.644 -0.334645 -0.667849 0
M  V30 7479 H 729.306 -1.44415 -1.30883 0
M  V30 7480 H 728.402 -1.31384 -2.83098 0
M  V30 7481 N 728.703 1.26451 -0.940633 0
M  V30 7482 C 729.931 1.97868 -0.604642 0
M  V30 7483 C 730.346 1.70051 0.820251 0
M  V30 7484 O 729.703 0.96843 1.54686 0
M  V30 7485 C 729.754 3.51684 -0.836689 0
M  V30 7486 O 729.475 3.78533 -2.20554 0
M  V30 7487 C 730.976 4.40343 -0.511169 0
M  V30 7488 H 728.196 0.631105 -0.227919 0
M  V30 7489 H 730.74 1.60979 -1.26119 0
M  V30 7490 H 728.895 3.86736 -0.226759 0
M  V30 7491 H 729.309 4.73065 -2.26517 0
M  V30 7492 H 730.783 5.47229 -0.724157 0
M  V30 7493 H 731.26 4.35694 0.553815 0
M  V30 7494 H 731.866 4.10834 -1.0998 0
M  V30 7495 N 730.181 0.707592 1.40822 0
M  V30 7496 C 731.429 0.243189 2.00632 0
M  V30 7497 C 731.75 -1.16512 1.56365 0
M  V30 7498 O 731.02 -1.78841 0.799553 0
M  V30 7499 H 729.6 0.0869203 0.741926 0
M  V30 7500 H 732.262 0.911438 1.72275 0
M  V30 7501 H 731.358 0.270014 3.1093 0
M  V30 7502 N 731.66 -1.50943 0.453197 0
M  V30 7503 C 732.908 -2.01813 -0.107709 0
M  V30 7504 C 733.229 -1.33841 -1.41816 0
M  V30 7505 O 732.499 -0.477973 -1.8998 0
M  V30 7506 H 731.079 -0.745773 -0.0427948 0
M  V30 7507 H 733.741 -1.8545 0.599531 0
M  V30 7508 H 732.837 -3.10911 -0.27218 0
M  V30 7509 N 733.138 -0.185124 -1.56509 0
M  V30 7510 C 734.415 0.503348 -1.89013 0
M  V30 7511 C 734.795 1.80349 -1.09715 0
M  V30 7512 O 734.143 2.27665 -0.195203 0
M  V30 7513 C 734.353 0.731839 -3.41241 0
M  V30 7514 C 735.701 1.05568 -4.11267 0
M  V30 7515 O 736.725 0.819906 -3.46635 0
M  V30 7516 O 735.584 1.50116 -5.25478 0
M  V30 7517 H 732.678 0.261139 -0.784688 0
M  V30 7518 H 735.224 -0.224592 -1.68207 0
M  V30 7519 H 733.996 -0.18672 -3.90854 0
M  V30 7520 H 733.619 1.5126 -3.67704 0
M  V30 7521 N 734.616 1.57351 0.0885366 0
M  V30 7522 C 735.841 1.91011 0.80805 0
M  V30 7523 C 736.266 0.780009 1.71165 0
M  V30 7524 O 735.624 -0.268083 1.79307 0
M  V30 7525 C 735.672 3.23562 1.59185 0
M  V30 7526 O 734.776 3.11615 2.7013 0
M  V30 7527 H 734.117 0.625943 0.221565 0
M  V30 7528 H 736.647 2.04507 0.0617954 0
M  V30 7529 H 736.657 3.5703 1.97468 0
M  V30 7530 H 735.332 4.05398 0.928741 0
M  V30 7531 H 733.909 2.89673 2.34827 0
M  V30 7532 N 736.094 -0.359525 1.53444 0
M  V30 7533 C 737.044 -1.441 1.7669 0
M  V30 7534 C 738.028 -1.48408 0.621599 0
M  V30 7535 O 739.22 -1.53547 0.880468 0
M  V30 7536 C 736.349 -2.81455 1.96566 0
M  V30 7537 C 735.435 -2.81601 3.17115 0
M  V30 7538 N 735.826 -2.51388 4.38905 0
M  V30 7539 C 734.124 -3.12758 3.1796 0
M  V30 7540 C 734.825 -2.59365 5.20677 0
M  V30 7541 N 733.801 -2.94328 4.57025 0
M  V30 7542 H 737.603 -1.19613 2.68458 0
M  V30 7543 H 735.117 -0.567761 1.52152 0
M  V30 7544 H 737.114 -3.59357 2.11348 0
M  V30 7545 H 735.774 -3.06901 1.06029 0
M  V30 7546 H 736.785 -2.24873 4.66533 0
M  V30 7547 H 733.462 -3.43479 2.37336 0
M  V30 7548 H 734.852 -2.39301 6.27841 0
M  V30 7549 N 737.572 -1.44907 -0.619662 0
M  V30 7550 C 738.8 -1.51795 -1.40591 0
M  V30 7551 C 739.215 -0.146553 -1.8823 0
M  V30 7552 O 738.572 0.849698 -1.61513 0
M  V30 7553 C 738.623 -2.49229 -2.61853 0
M  V30 7554 O 738.344 -3.81039 -2.16197 0
M  V30 7555 C 739.845 -2.65696 -3.54853 0
M  V30 7556 H 737.065 -0.514463 -0.430777 0
M  V30 7557 H 739.609 -1.8998 -0.756813 0
M  V30 7558 H 737.764 -2.14149 -3.2283 0
M  V30 7559 H 738.178 -4.33747 -2.94896 0
M  V30 7560 H 739.652 -3.37874 -4.36515 0
M  V30 7561 H 740.129 -1.71316 -4.0441 0
M  V30 7562 H 740.735 -3.01724 -2.99737 0
M  V30 7563 N 739.05 0.861098 -1.31996 0
M  V30 7564 C 740.466 1.14827 -1.10846 0
M  V30 7565 C 740.666 2.0117 0.11528 0
M  V30 7566 O 739.722 2.39423 0.802048 0
M  V30 7567 C 741.035 1.83183 -2.38462 0
M  V30 7568 C 742.583 1.95847 -2.44158 0
M  V30 7569 C 743.058 2.67617 -3.71679 0
M  V30 7570 N 744.549 2.75147 -3.72624 0
M  V30 7571 C 745.284 3.31314 -4.67994 0
M  V30 7572 N 744.78 3.88343 -5.73726 0
M  V30 7573 N 746.573 3.29356 -4.55501 0
M  V30 7574 H 738.724 0.285951 -2.10466 0
M  V30 7575 H 740.987 0.189303 -0.928907 0
M  V30 7576 H 740.693 1.27193 -3.27895 0
M  V30 7577 H 740.567 2.83393 -2.48935 0
M  V30 7578 H 742.954 2.50999 -1.55189 0
M  V30 7579 H 743.035 0.94653 -2.37644 0
M  V30 7580 H 742.679 2.13131 -4.61018 0
M  V30 7581 H 742.609 3.69237 -3.75462 0
M  V30 7582 H 745.1 2.34682 -2.96197 0
M  V30 7583 H 745.413 4.29338 -6.42564 0
M  V30 7584 H 743.758 3.86693 -5.77489 0
M  V30 7585 H 746.949 2.84047 -3.72069 0
M  V30 7586 H 747.122 3.7283 -5.30001 0
M  V30 7587 N 740.528 1.15101 1.07655 0
M  V30 7588 C 741.775 0.923974 1.80191 0
M  V30 7589 C 742.103 -0.549065 1.86589 0
M  V30 7590 O 741.358 -1.42307 1.3434 0
M  V30 7591 C 741.657 1.47954 3.25337 0
M  V30 7592 C 741.323 2.97253 3.39044 0
M  V30 7593 C 739.985 3.38012 3.42493 0
M  V30 7594 C 742.337 3.93219 3.42094 0
M  V30 7595 C 739.665 4.73384 3.4659 0
M  V30 7596 C 742.017 5.28458 3.47728 0
M  V30 7597 C 740.681 5.68717 3.49453 0
M  V30 7598 H 739.951 0.338106 0.659367 0
M  V30 7599 H 742.598 1.43594 1.26701 0
M  V30 7600 H 740.903 0.888691 3.81588 0
M  V30 7601 H 742.6 1.27972 3.80032 0
M  V30 7602 H 739.19 2.64746 3.37057 0
M  V30 7603 H 743.374 3.62805 3.38654 0
M  V30 7604 H 738.63 5.03925 3.46222 0
M  V30 7605 H 742.804 6.02618 3.49034 0
M  V30 7606 H 740.431 6.73596 3.5238 0
M  V30 7607 N 742.006 -1.2595 0.947325 0
M  V30 7608 C 743.417 -1.75389 0.639963 0
M  V30 7609 C 743.768 -1.77081 -0.844788 0
M  V30 7610 O 742.893 -1.3869 -1.66114 0
M  V30 7611 C 743.488 -3.18506 1.15496 0
M  V30 7612 C 742.047 -3.65534 0.897894 0
M  V30 7613 C 741.194 -2.44818 1.30228 0
M  V30 7614 H 744.145 -1.1194 1.12495 0
M  V30 7615 H 744.166 -3.77045 0.511627 0
M  V30 7616 H 743.678 -3.17243 2.23559 0
M  V30 7617 H 741.779 -3.72221 -0.168096 0
M  V30 7618 H 741.892 -4.54039 1.52922 0
M  V30 7619 H 740.256 -2.44291 0.720678 0
M  V30 7620 H 741.039 -2.46251 2.39198 0
M  V30 7621 N 743.484 -0.715051 -1.40445 0
M  V30 7622 C 744.733 -0.251322 -2.00128 0
M  V30 7623 C 745.046 1.16194 -1.57347 0
M  V30 7624 O 746.252 1.72416 -2.09726 0
M  V30 7625 C 744.708 -0.398407 -3.57688 0
M  V30 7626 C 744.316 -1.81828 -4.09442 0
M  V30 7627 C 746.06 0.00455625 -4.245 0
M  V30 7628 C 743.967 -1.91598 -5.59503 0
M  V30 7629 H 742.897 -0.0902081 -0.748584 0
M  V30 7630 H 745.548 -0.886062 -1.6069 0
M  V30 7631 H 743.93 0.304908 -3.94824 0
M  V30 7632 H 745.104 -2.55193 -3.83684 0
M  V30 7633 H 743.419 -2.17266 -3.55225 0
M  V30 7634 H 746.016 -0.0477303 -5.34679 0
M  V30 7635 H 746.359 1.04636 -4.02935 0
M  V30 7636 H 746.892 -0.649184 -3.92467 0
M  V30 7637 H 743.631 -2.93898 -5.85922 0
M  V30 7638 H 743.151 -1.22644 -5.87127 0
M  V30 7639 H 744.83 -1.68785 -6.24596 0
M  V30 7640 N 744.962 1.50701 -0.461195 0
M  V30 7641 C 746.21 2.01867 0.0970051 0
M  V30 7642 C 746.531 1.34591 1.41104 0
M  V30 7643 O 745.801 0.488041 1.89723 0
M  V30 7644 H 744.381 0.74599 0.0388392 0
M  V30 7645 H 747.043 1.85129 -0.609357 0
M  V30 7646 H 746.139 3.11051 0.255688 0
M  V30 7647 N 746.441 0.193421 1.56409 0
M  V30 7648 C 747.69 -0.445995 1.96707 0
M  V30 7649 C 748.003 -1.62876 1.08309 0
M  V30 7650 O 749.209 -2.33586 1.38383 0
M  V30 7651 C 747.665 -0.844863 3.49843 0
M  V30 7652 C 747.273 0.31352 4.46902 0
M  V30 7653 C 749.017 -1.45146 3.98915 0
M  V30 7654 C 746.924 -0.106214 5.91305 0
M  V30 7655 H 745.854 -0.170398 0.734493 0
M  V30 7656 H 748.505 0.285172 1.81271 0
M  V30 7657 H 746.887 -1.63265 3.60778 0
M  V30 7658 H 748.061 1.09103 4.47698 0
M  V30 7659 H 746.376 0.8315 4.08014 0
M  V30 7660 H 748.973 -1.77792 5.04276 0
M  V30 7661 H 749.316 -2.35734 3.43126 0
M  V30 7662 H 749.849 -0.727675 3.91088 0
M  V30 7663 H 746.588 0.765442 6.51016 0
M  V30 7664 H 746.108 -0.848623 5.93766 0
M  V30 7665 H 747.787 -0.542588 6.44721 0
M  V30 7666 N 747.919 -1.57396 -0.0801906 0
M  V30 7667 C 749.144 -1.91437 -0.797909 0
M  V30 7668 C 749.569 -0.789075 -1.70749 0
M  V30 7669 O 748.927 0.25857 -1.79447 0
M  V30 7670 C 748.975 -3.24402 -1.57467 0
M  V30 7671 O 748.079 -3.13043 -2.68473 0
M  V30 7672 H 747.42 -0.627109 -0.218243 0
M  V30 7673 H 749.95 -2.04537 -0.050949 0
M  V30 7674 H 749.96 -3.58072 -1.95571 0
M  V30 7675 H 748.635 -4.05884 -0.907229 0
M  V30 7676 H 747.212 -2.90915 -2.33287 0
M  V30 7677 N 749.397 0.351382 -1.53633 0
M  V30 7678 C 750.644 1.0925 -1.70502 0
M  V30 7679 C 750.972 1.88881 -0.464123 0
M  V30 7680 O 750.227 1.87693 0.554077 0
M  V30 7681 C 750.526 2.06744 -2.91533 0
M  V30 7682 C 750.192 1.43484 -4.27461 0
M  V30 7683 C 748.854 1.2596 -4.64422 0
M  V30 7684 C 751.206 0.978436 -5.11934 0
M  V30 7685 C 748.534 0.614017 -5.83478 0
M  V30 7686 C 750.886 0.346795 -6.31649 0
M  V30 7687 C 749.55 0.15917 -6.6731 0
M  V30 7688 H 748.82 0.399773 -0.623909 0
M  V30 7689 H 751.467 0.372656 -1.87839 0
M  V30 7690 H 749.772 2.85082 -2.68767 0
M  V30 7691 H 751.469 2.64066 -3.01778 0
M  V30 7692 H 748.059 1.5812 -3.98367 0
M  V30 7693 H 752.243 1.1017 -4.83918 0
M  V30 7694 H 747.499 0.457194 -6.09688 0
M  V30 7695 H 751.673 -0.0149864 -6.96398 0
M  V30 7696 H 749.3 -0.343129 -7.59425 0
M  V30 7697 N 750.875 1.45233 0.611969 0
M  V30 7698 C 752.286 1.4354 1.19387 0
M  V30 7699 C 752.637 0.160713 1.95541 0
M  V30 7700 O 751.762 -0.737954 2.03429 0
M  V30 7701 C 752.357 2.60045 2.17169 0
M  V30 7702 C 750.916 2.61486 2.70744 0
M  V30 7703 C 750.063 2.35708 1.46072 0
M  V30 7704 H 753.014 1.53536 0.401529 0
M  V30 7705 H 753.035 2.33893 3.00124 0
M  V30 7706 H 752.547 3.52803 1.61714 0
M  V30 7707 H 750.648 1.72721 3.30149 0
M  V30 7708 H 750.761 3.60572 3.15476 0
M  V30 7709 H 749.125 1.85178 1.74875 0
M  V30 7710 H 749.908 3.30606 0.924922 0
M  V30 7711 N 752.353 -0.854086 1.3245 0
M  V30 7712 C 753.316 -1.94427 1.21371 0
M  V30 7713 C 754.316 -1.60219 0.136613 0
M  V30 7714 O 755.506 -1.69846 0.387057 0
M  V30 7715 C 752.638 -3.29698 0.866701 0
M  V30 7716 H 753.831 -2.05679 2.18257 0
M  V30 7717 H 751.384 -1.04434 1.1629 0
M  V30 7718 H 752.119 -3.24145 -0.100319 0
M  V30 7719 H 751.904 -3.55903 1.64545 0
M  V30 7720 H 753.394 -4.09599 0.813515 0
M  V30 7721 N 753.831 -1.1567 -1.07043 0
M  V30 7722 C 755.079 -0.931673 -1.79344 0
M  V30 7723 C 755.4 0.542421 -1.87304 0
M  V30 7724 O 754.67 1.39418 -1.37621 0
M  V30 7725 H 753.25 -0.34171 -0.664262 0
M  V30 7726 H 755.912 -1.45795 -1.29344 0
M  V30 7727 H 755.008 -1.34379 -2.81689 0
M  V30 7728 N 755.309 1.25446 -0.953992 0
M  V30 7729 C 756.534 1.97755 -0.625129 0
M  V30 7730 C 756.959 1.70437 0.795787 0
M  V30 7731 O 756.317 0.95992 1.53803 0
M  V30 7732 C 756.365 3.49463 -0.889251 0
M  V30 7733 O 755.469 4.12387 0.0322757 0
M  V30 7734 H 754.81 0.61998 -0.237742 0
M  V30 7735 H 757.34 1.59582 -1.28041 0
M  V30 7736 H 757.35 3.99772 -0.815263 0
M  V30 7737 H 756.025 3.68676 -1.92487 0
M  V30 7738 H 754.602 3.72782 -0.0938625 0
M  V30 7739 N 756.787 0.722489 1.40064 0
M  V30 7740 C 758.035 0.264455 2.00362 0
M  V30 7741 C 758.356 -1.14847 1.57592 0
M  V30 7742 O 757.626 -1.77982 0.818477 0
M  V30 7743 H 756.206 0.0947846 0.740962 0
M  V30 7744 H 758.868 0.929659 1.71299 0
M  V30 7745 H 757.964 0.302977 3.10626 0
M  V30 7746 N 758.265 -1.50454 0.469181 0
M  V30 7747 C 759.195 -2.31353 -0.31592 0
M  V30 7748 C 760.176 -1.38172 -0.992094 0
M  V30 7749 O 761.361 -1.67093 -0.989633 0
M  V30 7750 C 758.491 -3.1786 -1.39937 0
M  V30 7751 C 757.445 -4.19578 -0.844909 0
M  V30 7752 C 756.771 -4.9481 -2.0265 0
M  V30 7753 C 758.071 -5.22106 0.142499 0
M  V30 7754 H 759.765 -2.97237 0.359269 0
M  V30 7755 H 757.311 -1.42942 0.174224 0
M  V30 7756 H 759.264 -3.7325 -1.95607 0
M  V30 7757 H 757.988 -2.49858 -2.1033 0
M  V30 7758 H 756.647 -3.65285 -0.310189 0
M  V30 7759 H 756.295 -4.23282 -2.71737 0
M  V30 7760 H 755.995 -5.63613 -1.66174 0
M  V30 7761 H 757.519 -5.53035 -2.58815 0
M  V30 7762 H 758.933 -5.72378 -0.324966 0
M  V30 7763 H 757.33 -5.98618 0.421441 0
M  V30 7764 H 758.4 -4.7297 1.06901 0
M  V30 7765 N 759.743 -0.201713 -1.56304 0
M  V30 7766 C 760.989 0.435952 -1.98059 0
M  V30 7767 C 761.322 1.60811 -1.08873 0
M  V30 7768 O 760.597 1.9398 -0.142128 0
M  V30 7769 C 760.88 0.889706 -3.48936 0
M  V30 7770 C 760.733 -0.284725 -4.48898 0
M  V30 7771 C 762.052 1.7529 -4.03685 0
M  V30 7772 H 759.171 0.15699 -0.720085 0
M  V30 7773 H 761.813 -0.293965 -1.87712 0
M  V30 7774 H 759.963 1.51166 -3.57884 0
M  V30 7775 H 761.635 -0.922531 -4.51981 0
M  V30 7776 H 759.878 -0.935427 -4.23594 0
M  V30 7777 H 760.549 0.0753865 -5.51949 0
M  V30 7778 H 763.025 1.2283 -3.97558 0
M  V30 7779 H 761.901 2.03933 -5.0961 0
M  V30 7780 H 762.162 2.70939 -3.49348 0
M  V30 7781 N 761.222 1.57436 0.0718424 0
M  V30 7782 C 762.185 2.02703 1.06977 0
M  V30 7783 C 763.185 0.924062 1.31597 0
M  V30 7784 O 764.375 1.18894 1.27318 0
M  V30 7785 C 761.507 2.40763 2.41342 0
M  V30 7786 H 762.7 2.92098 0.679619 0
M  V30 7787 H 760.253 1.5304 0.317565 0
M  V30 7788 H 760.988 1.54394 2.8519 0
M  V30 7789 H 760.773 3.21249 2.24814 0
M  V30 7790 H 762.263 2.76361 3.13073 0
M  V30 7791 N 762.7 -0.34323 1.53817 0
M  V30 7792 C 763.947 -1.08344 1.71079 0
M  V30 7793 C 764.275 -1.88633 0.474133 0
M  V30 7794 O 763.53 -1.87984 -0.544116 0
M  V30 7795 C 763.829 -2.05195 2.92626 0
M  V30 7796 C 763.495 -1.41215 4.28216 0
M  V30 7797 C 762.157 -1.23495 4.65083 0
M  V30 7798 C 764.509 -0.951273 5.12445 0
M  V30 7799 C 761.837 -0.583065 5.83796 0
M  V30 7800 C 764.189 -0.313292 6.31824 0
M  V30 7801 C 762.853 -0.123779 6.67385 0
M  V30 7802 H 762.123 -0.396458 0.626021 0
M  V30 7803 H 764.77 -0.362689 1.88034 0
M  V30 7804 H 763.075 -2.83653 2.70275 0
M  V30 7805 H 764.772 -2.62462 3.03175 0
M  V30 7806 H 761.362 -1.56005 3.992 0
M  V30 7807 H 765.546 -1.07602 4.84495 0
M  V30 7808 H 760.802 -0.424854 6.09922 0
M  V30 7809 H 764.976 0.0519179 6.96381 0
M  V30 7810 H 762.603 0.383398 7.59233 0
M  V30 7811 N 764.178 -1.45556 -0.604258 0
M  V30 7812 C 765.141 -1.54091 -1.69672 0
M  V30 7813 C 766.141 -0.420076 -1.55216 0
M  V30 7814 O 767.331 -0.683671 -1.60224 0
M  V30 7815 C 764.463 -1.44063 -3.08964 0
M  V30 7816 H 765.656 -2.51431 -1.6347 0
M  V30 7817 H 763.209 -1.33046 -0.820273 0
M  V30 7818 H 763.944 -0.479201 -3.2074 0
M  V30 7819 H 763.729 -2.25362 -3.20865 0
M  V30 7820 H 765.219 -1.53075 -3.88533 0
M  V30 7821 N 765.656 0.84705 -1.32902 0
M  V30 7822 C 766.619 1.9378 -1.224 0
M  V30 7823 C 767.619 1.60144 -0.145108 0
M  V30 7824 O 768.809 1.69638 -0.396058 0
M  V30 7825 C 765.941 3.29234 -0.884174 0
M  V30 7826 H 767.134 2.04518 -2.19345 0
M  V30 7827 H 764.687 1.03816 -1.16842 0
M  V30 7828 H 765.422 3.24193 0.0831277 0
M  V30 7829 H 765.207 3.55026 -1.6643 0
M  V30 7830 H 766.697 4.09162 -0.835226 0
M  V30 7831 N 767.134 1.16236 1.06428 0
M  V30 7832 C 768.097 0.870163 2.1204 0
M  V30 7833 C 769.097 -0.134239 1.60239 0
M  V30 7834 O 770.287 0.0964932 1.73933 0
M  V30 7835 C 767.419 0.301033 3.39568 0
M  V30 7836 H 768.612 1.8064 2.39394 0
M  V30 7837 H 766.165 0.971116 1.2247 0
M  V30 7838 H 766.9 -0.642948 3.17863 0
M  V30 7839 H 766.685 1.02475 3.78472 0
M  V30 7840 H 768.175 0.114494 4.17443 0
M  V30 7841 N 768.612 -1.24939 0.960631 0
M  V30 7842 C 769.84 -1.96881 0.636045 0
M  V30 7843 C 770.255 -1.71334 -0.793093 0
M  V30 7844 O 769.612 -0.992917 -1.53125 0
M  V30 7845 C 769.663 -3.50309 0.892533 0
M  V30 7846 O 769.384 -3.74977 2.26548 0
M  V30 7847 C 770.885 -4.39474 0.581159 0
M  V30 7848 H 768.105 -0.627399 0.237931 0
M  V30 7849 H 770.649 -1.58952 1.28664 0
M  V30 7850 H 768.804 -3.86326 0.288257 0
M  V30 7851 H 769.218 -4.69401 2.34014 0
M  V30 7852 H 770.692 -5.46008 0.811125 0
M  V30 7853 H 771.169 -4.3652 -0.48443 0
M  V30 7854 H 771.775 -4.09032 1.16502 0
M  V30 7855 N 770.09 -0.729906 -1.39679 0
M  V30 7856 C 771.338 -0.275077 -2.00219 0
M  V30 7857 C 771.659 1.1401 -1.58199 0
M  V30 7858 O 770.929 1.77546 -0.827904 0
M  V30 7859 H 769.509 -0.0987127 -0.740449 0
M  V30 7860 H 772.171 -0.93873 -1.70804 0
M  V30 7861 H 771.267 -0.319446 -3.10461 0
M  V30 7862 N 771.568 1.50203 -0.477153 0
M  V30 7863 C 772.814 2.02658 0.0758507 0
M  V30 7864 C 773.147 1.358 1.38824 0
M  V30 7865 O 772.422 0.485696 1.88338 0
M  V30 7866 C 772.705 3.59208 0.253339 0
M  V30 7867 C 772.558 4.36629 -1.0805 0
M  V30 7868 C 773.877 4.28469 1.00509 0
M  V30 7869 H 770.996 0.736538 0.0260921 0
M  V30 7870 H 773.638 1.79464 -0.623925 0
M  V30 7871 H 771.788 3.79101 0.849378 0
M  V30 7872 H 773.46 4.28292 -1.71358 0
M  V30 7873 H 771.703 4.0013 -1.67566 0
M  V30 7874 H 772.374 5.44449 -0.909883 0
M  V30 7875 H 774.85 4.13087 0.499818 0
M  V30 7876 H 773.726 5.37804 1.09808 0
M  V30 7877 H 773.987 3.92057 2.04314 0
M  V30 7878 N 773.046 0.209999 1.56195 0
M  V30 7879 C 773.979 -0.744546 2.15712 0
M  V30 7880 C 774.957 -1.19917 1.09812 0
M  V30 7881 O 776.141 -1.284 1.38006 0
M  V30 7882 C 773.268 -2.00733 2.72807 0
M  V30 7883 C 772.314 -1.69363 3.91431 0
M  V30 7884 S 773.147 -0.828579 5.29051 0
M  V30 7885 C 774.303 -2.10118 5.89577 0
M  V30 7886 H 774.536 -0.238636 2.96341 0
M  V30 7887 H 772.069 -0.00517877 1.54399 0
M  V30 7888 H 774.027 -2.73246 3.06344 0
M  V30 7889 H 772.688 -2.48436 1.92193 0
M  V30 7890 H 771.881 -2.63157 4.29842 0
M  V30 7891 H 771.483 -1.04921 3.58981 0
M  V30 7892 H 773.775 -3.05231 6.04847 0
M  V30 7893 H 774.718 -1.76116 6.85849 0
M  V30 7894 H 775.126 -2.23644 5.18308 0
M  V30 7895 N 774.524 -1.57472 -0.0634922 0
M  V30 7896 C 775.935 -1.76303 -0.614337 0
M  V30 7897 C 776.286 -0.836578 -1.77471 0
M  V30 7898 O 775.411 -0.0227184 -2.16388 0
M  V30 7899 C 776.006 -3.19709 -1.12122 0
M  V30 7900 C 774.565 -3.39856 -1.61786 0
M  V30 7901 C 773.712 -2.71975 -0.540845 0
M  V30 7902 H 776.663 -1.57864 0.162702 0
M  V30 7903 H 776.684 -3.24326 -1.98979 0
M  V30 7904 H 776.196 -3.87114 -0.276472 0
M  V30 7905 H 774.297 -2.77578 -2.48558 0
M  V30 7906 H 774.41 -4.48338 -1.68908 0
M  V30 7907 H 772.774 -2.34763 -0.987854 0
M  V30 7908 H 773.557 -3.4204 0.293856 0
M  V30 7909 N 776.003 0.335068 -1.53997 0
M  V30 7910 C 776.933 1.41727 -1.85568 0
M  V30 7911 C 777.914 1.54505 -0.7115 0
M  V30 7912 O 779.099 1.68573 -0.964191 0
M  V30 7913 C 776.229 2.7866 -2.07282 0
M  V30 7914 C 775.183 2.80682 -3.23112 0
M  V30 7915 C 774.509 4.20581 -3.30175 0
M  V30 7916 C 775.809 2.45458 -4.61029 0
M  V30 7917 H 777.503 1.15555 -2.76202 0
M  V30 7918 H 775.049 0.554445 -1.32898 0
M  V30 7919 H 777.002 3.54423 -2.27952 0
M  V30 7920 H 775.726 3.06286 -1.13387 0
M  V30 7921 H 774.385 2.07373 -3.02311 0
M  V30 7922 H 774.033 4.4533 -2.33859 0
M  V30 7923 H 773.733 4.22843 -4.08016 0
M  V30 7924 H 775.257 4.98174 -3.53066 0
M  V30 7925 H 776.671 3.10934 -4.81656 0
M  V30 7926 H 775.068 2.5899 -5.41336 0
M  V30 7927 H 776.138 1.40628 -4.6406 0
M  V30 7928 N 777.481 1.45874 0.596531 0
M  V30 7929 C 778.758 1.40942 1.35627 0
M  V30 7930 C 779.138 0.0857066 2.10926 0
M  V30 7931 O 778.486 -0.932544 2.08605 0
M  V30 7932 C 778.696 2.63027 2.29386 0
M  V30 7933 C 780.044 3.08588 2.91649 0
M  V30 7934 O 781.068 2.63478 2.39704 0
M  V30 7935 O 779.927 3.86902 3.85965 0
M  V30 7936 H 777.021 0.559838 0.608696 0
M  V30 7937 H 779.567 1.5802 0.618698 0
M  V30 7938 H 778.339 3.5094 1.7308 0
M  V30 7939 H 777.962 2.48338 3.10506 0
M  V30 7940 N 778.959 -0.83999 1.33349 0
M  V30 7941 C 779.892 -1.95415 1.17848 0
M  V30 7942 C 780.87 -1.6243 0.0742296 0
M  V30 7943 O 782.054 -1.87014 0.23626 0
M  V30 7944 C 779.181 -3.28938 0.807295 0
M  V30 7945 C 778.227 -3.80895 1.91888 0
M  V30 7946 S 779.06 -4.02709 3.52967 0
M  V30 7947 C 780.216 -5.39185 3.17853 0
M  V30 7948 H 780.449 -2.08265 2.12162 0
M  V30 7949 H 777.982 -0.993643 1.18178 0
M  V30 7950 H 779.94 -4.06093 0.599914 0
M  V30 7951 H 778.601 -3.13881 -0.117234 0
M  V30 7952 H 777.794 -4.77508 1.6125 0
M  V30 7953 H 777.396 -3.10633 2.08286 0
M  V30 7954 H 779.688 -6.21978 2.68608 0
M  V30 7955 H 780.631 -5.74795 4.13542 0
M  V30 7956 H 781.039 -5.03885 2.5448 0
M  V30 7957 N 780.437 -1.16799 -1.0581 0
M  V30 7958 C 781.848 -0.95945 -1.60161 0
M  V30 7959 C 782.199 0.49543 -1.89842 0
M  V30 7960 O 781.324 1.36957 -1.67546 0
M  V30 7961 C 781.919 -1.73527 -2.90987 0
M  V30 7962 C 780.478 -1.57158 -3.42021 0
M  V30 7963 C 779.625 -1.74089 -2.15843 0
M  V30 7964 H 782.576 -1.31598 -0.886992 0
M  V30 7965 H 782.597 -1.21397 -3.60615 0
M  V30 7966 H 782.109 -2.79411 -2.69353 0
M  V30 7967 H 780.21 -0.537361 -3.68705 0
M  V30 7968 H 780.323 -2.35858 -4.17022 0
M  V30 7969 H 778.687 -1.16874 -2.26302 0
M  V30 7970 H 779.47 -2.81371 -1.96686 0
M  V30 7971 N 781.915 1.24427 -0.967243 0
M  V30 7972 C 782.825 2.29109 -0.504592 0
M  V30 7973 C 783.841 1.68495 0.434224 0
M  V30 7974 O 785.017 1.99041 0.307379 0
M  V30 7975 C 782.082 3.46133 0.198273 0
M  V30 7976 C 781.143 4.22149 -0.780313 0
M  V30 7977 C 780.376 5.33585 -0.110896 0
M  V30 7978 O 780.599 5.59676 1.10088 0
M  V30 7979 O 779.533 5.96522 -0.802823 0
M  V30 7980 H 783.359 2.708 -1.37482 0
M  V30 7981 H 780.944 1.30111 -0.73426 0
M  V30 7982 H 782.826 4.17205 0.593124 0
M  V30 7983 H 781.501 3.0642 1.04347 0
M  V30 7984 H 780.408 3.53454 -1.22561 0
M  V30 7985 H 781.741 4.65677 -1.59392 0
M  V30 7986 N 783.393 0.737304 1.3929 0
M  V30 7987 C 784.618 0.295237 2.05288 0
M  V30 7988 C 785.043 -1.06235 1.55228 0
M  V30 7989 O 784.401 -1.67365 0.697043 0
M  V30 7990 C 784.449 0.309146 3.59272 0
M  V30 7991 O 783.553 -0.702437 4.06374 0
M  V30 7992 H 782.894 0.133762 0.650387 0
M  V30 7993 H 785.424 1.00387 1.78279 0
M  V30 7994 H 785.434 0.154336 4.07708 0
M  V30 7995 H 784.109 1.29974 3.95069 0
M  V30 7996 H 782.686 -0.513574 3.69346 0
M  V30 7997 N 784.871 -1.49948 0.485112 0
M  V30 7998 C 786.117 -2.02695 -0.0651022 0
M  V30 7999 C 786.45 -1.36534 -1.38102 0
M  V30 8000 O 785.725 -0.495677 -1.88078 0
M  V30 8001 C 786.008 -3.59337 -0.234285 0
M  V30 8002 C 785.861 -4.3605 1.10364 0
M  V30 8003 C 787.18 -4.28996 -0.982351 0
M  V30 8004 H 784.299 -0.736666 -0.0221856 0
M  V30 8005 H 786.941 -1.7913 0.633433 0
M  V30 8006 H 785.091 -3.79546 -0.829262 0
M  V30 8007 H 786.763 -4.27377 1.73627 0
M  V30 8008 H 785.006 -3.99236 1.69686 0
M  V30 8009 H 785.677 -5.43959 0.938743 0
M  V30 8010 H 788.153 -4.13346 -0.477904 0
M  V30 8011 H 787.029 -5.38379 -1.06955 0
M  V30 8012 H 787.29 -3.93135 -2.02231 0
M  V30 8013 N 786.349 -0.21828 -1.56081 0
M  V30 8014 C 787.279 0.687922 -2.23136 0
M  V30 8015 C 788.26 1.20357 -1.202 0
M  V30 8016 O 789.445 1.24817 -1.48776 0
M  V30 8017 C 786.575 1.89762 -2.90874 0
M  V30 8018 C 785.529 1.51595 -4.00254 0
M  V30 8019 C 784.855 2.80415 -4.55271 0
M  V30 8020 C 786.155 0.708404 -5.17474 0
M  V30 8021 H 787.849 0.128854 -2.99123 0
M  V30 8022 H 785.395 0.0605354 -1.43873 0
M  V30 8023 H 787.348 2.53699 -3.36474 0
M  V30 8024 H 786.072 2.4816 -2.1233 0
M  V30 8025 H 784.731 0.900058 -3.55379 0
M  V30 8026 H 784.379 3.36951 -3.73461 0
M  V30 8027 H 784.079 2.55613 -5.2909 0
M  V30 8028 H 785.603 3.453 -5.03587 0
M  V30 8029 H 787.017 1.2514 -5.59476 0
M  V30 8030 H 785.414 0.557593 -5.97504 0
M  V30 8031 H 786.484 -0.285679 -4.84058 0
M  V30 8032 N 787.827 1.57504 0.0551401 0
M  V30 8033 C 789.073 1.88334 0.752216 0
M  V30 8034 C 789.406 0.812742 1.76375 0
M  V30 8035 O 788.681 -0.175198 1.93709 0
M  V30 8036 C 788.964 3.29824 1.44528 0
M  V30 8037 C 788.817 4.47553 0.449026 0
M  V30 8038 C 790.136 3.69808 2.38601 0
M  V30 8039 H 787.255 0.684973 0.271995 0
M  V30 8040 H 789.897 1.89994 0.0151895 0
M  V30 8041 H 788.047 3.28539 2.07351 0
M  V30 8042 H 789.719 4.60967 -0.175277 0
M  V30 8043 H 787.962 4.33168 -0.234162 0
M  V30 8044 H 788.633 5.43376 0.971917 0
M  V30 8045 H 791.109 3.72293 1.85842 0
M  V30 8046 H 789.985 4.69665 2.84088 0
M  V30 8047 H 790.246 3.00641 3.24141 0
M  V30 8048 N 789.305 -0.326896 1.54172 0
M  V30 8049 C 790.721 -0.671034 1.44808 0
M  V30 8050 C 790.921 -1.91781 0.618258 0
M  V30 8051 O 789.977 -2.52235 0.115751 0
M  V30 8052 C 791.29 -0.848147 2.88491 0
M  V30 8053 C 792.838 -0.945702 2.98371 0
M  V30 8054 C 793.313 -1.15501 4.43197 0
M  V30 8055 N 794.804 -1.22183 4.46795 0
M  V30 8056 C 795.539 -1.4016 5.56006 0
M  V30 8057 N 795.035 -1.55202 6.75192 0
M  V30 8058 N 796.828 -1.42841 5.43648 0
M  V30 8059 H 788.979 0.49262 2.06608 0
M  V30 8060 H 791.242 0.158574 0.934643 0
M  V30 8061 H 790.948 -0.00329969 3.517 0
M  V30 8062 H 790.822 -1.74497 3.34411 0
M  V30 8063 H 793.209 -1.78106 2.35292 0
M  V30 8064 H 793.29 -0.0254215 2.55787 0
M  V30 8065 H 792.934 -0.324521 5.06862 0
M  V30 8066 H 792.864 -2.08911 4.83388 0
M  V30 8067 H 795.355 -1.12016 3.60917 0
M  V30 8068 H 795.668 -1.68601 7.54184 0
M  V30 8069 H 794.013 -1.52306 6.78106 0
M  V30 8070 H 797.204 -1.30683 4.49488 0
M  V30 8071 H 797.377 -1.56509 6.28816 0
M  V30 8072 N 790.784 -1.46188 -0.588786 0
M  V30 8073 C 792.031 -1.51184 -1.34721 0
M  V30 8074 C 792.359 -0.161084 -1.93832 0
M  V30 8075 O 791.614 0.842557 -1.76634 0
M  V30 8076 C 791.913 -2.55364 -2.50048 0
M  V30 8077 C 791.579 -3.99553 -2.08969 0
M  V30 8078 C 790.241 -4.38811 -1.9748 0
M  V30 8079 C 792.593 -4.90156 -1.77191 0
M  V30 8080 C 789.921 -5.66544 -1.52463 0
M  V30 8081 C 792.273 -6.1832 -1.33654 0
M  V30 8082 C 790.937 -6.5649 -1.20738 0
M  V30 8083 H 790.207 -0.55322 -0.49298 0
M  V30 8084 H 792.854 -1.79634 -0.663627 0
M  V30 8085 H 791.159 -2.20552 -3.23827 0
M  V30 8086 H 792.856 -2.5646 -3.08268 0
M  V30 8087 H 789.446 -3.68518 -2.18843 0
M  V30 8088 H 793.63 -4.60549 -1.84955 0
M  V30 8089 H 788.886 -5.94895 -1.411 0
M  V30 8090 H 793.06 -6.87956 -1.08117 0
M  V30 8091 H 790.687 -7.55362 -0.856307 0
M  V30 8092 N 792.262 0.832906 -1.33792 0
M  V30 8093 C 793.209 1.94314 -1.24541 0
M  V30 8094 C 794.179 1.65646 -0.122753 0
M  V30 8095 O 795.364 1.88394 -0.30204 0
M  V30 8096 C 792.504 3.30395 -0.996641 0
M  V30 8097 C 791.617 3.71422 -2.20612 0
M  V30 8098 C 790.752 4.96401 -1.89101 0
M  V30 8099 C 789.791 5.2998 -3.06247 0
M  V30 8100 N 788.928 6.46137 -2.74685 0
M  V30 8101 H 793.768 2.01559 -2.19495 0
M  V30 8102 H 791.305 0.986243 -1.09141 0
M  V30 8103 H 793.263 4.08803 -0.832817 0
M  V30 8104 H 791.893 3.22691 -0.0838242 0
M  V30 8105 H 790.945 2.88488 -2.47949 0
M  V30 8106 H 792.257 3.92215 -3.0817 0
M  V30 8107 H 791.411 5.82572 -1.69396 0
M  V30 8108 H 790.15 4.7759 -0.987882 0
M  V30 8109 H 789.155 4.42312 -3.26559 0
M  V30 8110 H 790.38 5.50737 -3.97323 0
M  V30 8111 H 788.326 6.28801 -1.86938 0
M  V30 8112 H 788.243 6.67054 -3.55774 0
M  V30 8113 H 789.511 7.35403 -2.58461 0
M  V30 8114 N 793.74 1.17359 1.05189 0
M  V30 8115 C 794.988 0.960087 1.77839 0
M  V30 8116 C 795.309 -0.512554 1.88143 0
M  V30 8117 O 794.579 -1.3721 1.39822 0
M  V30 8118 H 793.159 0.352234 0.658741 0
M  V30 8119 H 795.821 1.47834 1.27008 0
M  V30 8120 H 794.917 1.38843 2.79516 0
M  V30 8121 N 795.218 -1.23913 0.973828 0
M  V30 8122 C 796.165 -2.25132 0.508366 0
M  V30 8123 C 797.135 -1.59908 -0.449307 0
M  V30 8124 O 798.32 -1.87405 -0.358313 0
M  V30 8125 C 795.46 -3.4458 -0.189422 0
M  V30 8126 C 794.573 -4.24381 0.807738 0
M  V30 8127 C 793.708 -5.31131 0.0854315 0
M  V30 8128 C 792.747 -6.02635 1.07225 0
M  V30 8129 N 791.884 -7.01073 0.379535 0
M  V30 8130 H 796.724 -2.64313 1.37632 0
M  V30 8131 H 794.261 -1.29924 0.689802 0
M  V30 8132 H 796.219 -4.12706 -0.610733 0
M  V30 8133 H 794.849 -3.06218 -1.02129 0
M  V30 8134 H 793.901 -3.55735 1.34747 0
M  V30 8135 H 795.213 -4.73778 1.55998 0
M  V30 8136 H 794.367 -6.05422 -0.393572 0
M  V30 8137 H 793.106 -4.82658 -0.699461 0
M  V30 8138 H 792.111 -5.27143 1.56207 0
M  V30 8139 H 793.336 -6.53197 1.85769 0
M  V30 8140 H 791.282 -6.54862 -0.386269 0
M  V30 8141 H 791.199 -7.48382 1.07054 0
M  V30 8142 H 792.467 -7.79462 -0.0772984 0
M  V30 8143 N 796.696 -0.74468 -1.38897 0
M  V30 8144 C 797.629 -0.0596441 -2.28122 0
M  V30 8145 C 798.607 0.73764 -1.44906 0
M  V30 8146 O 799.791 0.718155 -1.74284 0
M  V30 8147 C 796.918 0.922533 -3.25894 0
M  V30 8148 C 795.964 0.212566 -4.2597 0
M  V30 8149 S 796.797 -1.08035 -5.24489 0
M  V30 8150 C 797.953 -0.101014 -6.25818 0
M  V30 8151 H 798.186 -0.816289 -2.85874 0
M  V30 8152 H 795.719 -0.536882 -1.44765 0
M  V30 8153 H 797.677 1.4839 -3.82741 0
M  V30 8154 H 796.338 1.65209 -2.67142 0
M  V30 8155 H 795.531 0.956106 -4.94848 0
M  V30 8156 H 795.133 -0.277029 -3.72973 0
M  V30 8157 H 797.425 0.736072 -6.7349 0
M  V30 8158 H 798.368 -0.757206 -7.0404 0
M  V30 8159 H 798.776 0.275706 -5.63826 0
M  V30 8160 N 798.174 1.49689 -0.493057 0
M  V30 8161 C 799.106 2.26867 0.326195 0
M  V30 8162 C 800.119 1.33083 0.937697 0
M  V30 8163 O 801.308 1.58427 0.822382 0
M  V30 8164 C 798.408 3.0519 1.4735 0
M  V30 8165 C 797.581 4.26491 0.970767 0
M  V30 8166 C 796.64 4.86926 1.99473 0
M  V30 8167 O 795.666 5.47221 1.56647 0
M  V30 8168 N 796.868 4.75871 3.32456 0
M  V30 8169 H 799.633 2.97816 -0.335547 0
M  V30 8170 H 797.194 1.58602 -0.325129 0
M  V30 8171 H 799.186 3.42496 2.15589 0
M  V30 8172 H 797.756 2.369 2.03954 0
M  V30 8173 H 796.976 3.94036 0.113529 0
M  V30 8174 H 798.264 5.05092 0.613156 0
M  V30 8175 H 797.662 4.2797 3.69944 0
M  V30 8176 H 796.219 5.17383 3.96431 0
M  V30 8177 N 799.652 0.226554 1.55963 0
M  V30 8178 C 801.063 -0.280381 1.84583 0
M  V30 8179 C 801.414 -1.59105 1.14804 0
M  V30 8180 O 800.539 -2.12297 0.419414 0
M  V30 8181 C 801.134 -0.515499 3.34855 0
M  V30 8182 C 799.693 -0.966733 3.63774 0
M  V30 8183 C 798.84 -0.0325753 2.77281 0
M  V30 8184 H 801.791 0.449626 1.52197 0
M  V30 8185 H 801.812 -1.36085 3.55332 0
M  V30 8186 H 801.324 0.438594 3.85614 0
M  V30 8187 H 799.425 -1.93401 3.18476 0
M  V30 8188 H 799.538 -0.837679 4.7172 0
M  V30 8189 H 797.902 -0.540279 2.48904 0
M  V30 8190 H 798.685 0.916524 3.30839 0
M  V30 8191 N 801.13 -1.57531 -0.0467866 0
M  V30 8192 C 802.378 -1.88078 -0.739656 0
M  V30 8193 C 802.699 -0.821936 -1.76831 0
M  V30 8194 O 801.969 0.146582 -1.95351 0
M  V30 8195 H 800.549 -0.694075 -0.276169 0
M  V30 8196 H 803.211 -1.94893 -0.0169391 0
M  V30 8197 H 802.307 -2.86396 -1.24031 0
M  V30 8198 N 802.608 0.318715 -1.54344 0
M  V30 8199 C 803.857 1.05363 -1.71993 0
M  V30 8200 C 804.17 1.89018 -0.503155 0
M  V30 8201 O 805.376 2.65639 -0.561085 0
M  V30 8202 C 803.832 1.92281 -3.0423 0
M  V30 8203 C 803.44 1.13715 -4.33328 0
M  V30 8204 C 805.184 2.65479 -3.31242 0
M  V30 8205 C 803.091 1.99806 -5.56625 0
M  V30 8206 H 802.021 0.397081 -0.64097 0
M  V30 8207 H 804.672 0.311598 -1.80835 0
M  V30 8208 H 803.054 2.70402 -2.89307 0
M  V30 8209 H 804.228 0.403305 -4.59032 0
M  V30 8210 H 802.543 0.521769 -4.13118 0
M  V30 8211 H 805.14 3.30209 -4.20555 0
M  V30 8212 H 805.483 3.33374 -2.49334 0
M  V30 8213 H 806.016 1.94417 -3.47054 0
M  V30 8214 H 802.755 1.36411 -6.41149 0
M  V30 8215 H 802.275 2.70911 -5.35133 0
M  V30 8216 H 803.954 2.58277 -5.93213 0
M  V30 8217 N 804.086 1.46499 0.581025 0
M  V30 8218 C 805.314 1.5547 1.36517 0
M  V30 8219 C 805.729 0.196407 1.87776 0
M  V30 8220 O 805.086 -0.806577 1.63709 0
M  V30 8221 C 805.137 2.56084 2.55154 0
M  V30 8222 O 804.858 3.86637 2.06018 0
M  V30 8223 C 806.359 2.75011 3.47683 0
M  V30 8224 H 803.579 0.525703 0.416986 0
M  V30 8225 H 806.123 1.9192 0.706177 0
M  V30 8226 H 804.278 2.22633 3.17039 0
M  V30 8227 H 804.692 4.41413 2.83292 0
M  V30 8228 H 806.166 3.49329 4.27403 0
M  V30 8229 H 806.643 1.81978 3.99726 0
M  V30 8230 H 807.249 3.09565 2.91632 0
M  V30 8231 N 805.565 -0.825799 1.34232 0
M  V30 8232 C 806.495 -1.95151 1.28212 0
M  V30 8233 C 807.476 -1.69345 0.160123 0
M  V30 8234 O 808.661 -1.90983 0.352019 0
M  V30 8235 C 805.791 -3.31554 1.03388 0
M  V30 8236 C 804.745 -3.71793 2.12023 0
M  V30 8237 C 804.071 -5.06147 1.72392 0
M  V30 8238 C 805.371 -3.84193 3.53826 0
M  V30 8239 H 807.065 -2.00445 2.22401 0
M  V30 8240 H 804.611 -0.962996 1.07063 0
M  V30 8241 H 806.564 -4.09889 0.978225 0
M  V30 8242 H 805.288 -3.26551 0.0564142 0
M  V30 8243 H 803.947 -2.95731 2.16654 0
M  V30 8244 H 803.595 -4.97628 0.733137 0
M  V30 8245 H 803.295 -5.34041 2.451 0
M  V30 8246 H 804.819 -5.86943 1.68317 0
M  V30 8247 H 806.233 -4.52806 3.51624 0
M  V30 8248 H 804.63 -4.23538 4.2513 0
M  V30 8249 H 805.7 -2.86272 3.91377 0
M  V30 8250 N 807.043 -1.17915 -1.04565 0
M  V30 8251 C 808.459 -0.927761 -1.29864 0
M  V30 8252 C 808.659 0.409536 -1.97294 0
M  V30 8253 O 807.715 1.14505 -2.25044 0
M  V30 8254 C 809.028 -2.08967 -2.16225 0
M  V30 8255 C 810.576 -2.12741 -2.29587 0
M  V30 8256 C 811.051 -3.28335 -3.19312 0
M  V30 8257 N 812.542 -3.28164 -3.26898 0
M  V30 8258 C 813.277 -4.14249 -3.96466 0
M  V30 8259 N 812.773 -5.10457 -4.68407 0
M  V30 8260 N 814.566 -4.02179 -3.92694 0
M  V30 8261 H 806.717 -2.03983 -0.592011 0
M  V30 8262 H 808.98 -0.891023 -0.323701 0
M  V30 8263 H 808.686 -3.05654 -1.73979 0
M  V30 8264 H 808.56 -2.04606 -3.16885 0
M  V30 8265 H 810.947 -1.16636 -2.71072 0
M  V30 8266 H 811.028 -2.21162 -1.28535 0
M  V30 8267 H 810.672 -4.2471 -2.78539 0
M  V30 8268 H 810.602 -3.17151 -4.20384 0
M  V30 8269 H 813.093 -2.58511 -2.75646 0
M  V30 8270 H 813.406 -5.72526 -5.1907 0
M  V30 8271 H 811.751 -5.14422 -4.67328 0
M  V30 8272 H 814.942 -3.26308 -3.3562 0
M  V30 8273 H 815.115 -4.69486 -4.4664 0
M  V30 8274 N 808.521 1.23394 -0.980386 0
M  V30 8275 C 809.798 1.87242 -0.565667 0
M  V30 8276 C 810.178 1.88151 0.957197 0
M  V30 8277 O 809.526 1.36309 1.8339 0
M  V30 8278 C 809.736 3.28743 -1.17172 0
M  V30 8279 C 811.084 4.05335 -1.26446 0
M  V30 8280 O 812.108 3.37962 -1.12517 0
M  V30 8281 O 810.967 5.25908 -1.48604 0
M  V30 8282 H 808.061 0.80477 -0.190459 0
M  V30 8283 H 810.607 1.3127 -1.07547 0
M  V30 8284 H 809.379 3.22647 -2.21392 0
M  V30 8285 H 809.002 3.92305 -0.646739 0
M  V30 8286 N 809.999 0.752036 1.385 0
M  V30 8287 C 810.929 0.138718 2.33088 0
M  V30 8288 C 811.91 -0.705318 1.54788 0
M  V30 8289 O 813.095 -0.646821 1.83112 0
M  V30 8290 C 810.225 -0.75641 3.38963 0
M  V30 8291 C 809.179 -0.0152239 4.27997 0
M  V30 8292 C 808.505 -1.0285 5.24715 0
M  V30 8293 C 809.805 1.15226 5.09431 0
M  V30 8294 H 811.499 0.928852 2.84627 0
M  V30 8295 H 809.045 0.448111 1.3685 0
M  V30 8296 H 810.998 -1.19513 4.04097 0
M  V30 8297 H 809.722 -1.57885 2.85902 0
M  V30 8298 H 808.381 0.404061 3.64366 0
M  V30 8299 H 808.029 -1.84496 4.67943 0
M  V30 8300 H 807.729 -0.537238 5.85139 0
M  V30 8301 H 809.253 -1.46657 5.92726 0
M  V30 8302 H 810.667 0.791161 5.67815 0
M  V30 8303 H 809.064 1.57428 5.79082 0
M  V30 8304 H 810.134 1.9659 4.43261 0
M  V30 8305 N 811.477 -1.49425 0.500989 0
M  V30 8306 C 812.723 -2.02753 -0.0436 0
M  V30 8307 C 813.056 -1.37991 -1.36646 0
M  V30 8308 O 812.331 -0.515597 -1.87542 0
M  V30 8309 C 812.614 -3.59565 -0.19616 0
M  V30 8310 C 812.467 -4.34855 1.14982 0
M  V30 8311 C 813.786 -4.30014 -0.936795 0
M  V30 8312 H 810.905 -0.73686 -0.0143711 0
M  V30 8313 H 813.547 -1.78448 0.652397 0
M  V30 8314 H 811.697 -3.80405 -0.788959 0
M  V30 8315 H 813.369 -4.25512 1.7815 0
M  V30 8316 H 811.612 -3.97414 1.73911 0
M  V30 8317 H 812.283 -5.42933 0.996385 0
M  V30 8318 H 814.759 -4.1383 -0.434036 0
M  V30 8319 H 813.635 -5.39483 -1.01238 0
M  V30 8320 H 813.896 -3.95257 -1.9805 0
M  V30 8321 N 812.955 -0.234822 -1.55841 0
M  V30 8322 C 813.905 0.68346 -2.17515 0
M  V30 8323 C 814.889 1.14798 -1.1274 0
M  V30 8324 O 816.081 1.09976 -1.38688 0
M  V30 8325 C 813.21 1.88551 -2.86886 0
M  V30 8326 C 812.296 1.44006 -3.98903 0
M  V30 8327 N 812.687 0.708034 -5.0082 0
M  V30 8328 C 810.985 1.7263 -4.11236 0
M  V30 8329 C 811.686 0.479036 -5.79724 0
M  V30 8330 N 810.662 1.03968 -5.33565 0
M  V30 8331 H 814.464 0.115897 -2.93671 0
M  V30 8332 H 811.978 -0.0366273 -1.62359 0
M  V30 8333 H 813.975 2.55425 -3.2949 0
M  V30 8334 H 812.635 2.45742 -2.12229 0
M  V30 8335 H 813.646 0.359363 -5.16652 0
M  V30 8336 H 810.323 2.31046 -3.47741 0
M  V30 8337 H 811.713 -0.104514 -6.71819 0
M  V30 8338 N 814.433 1.57553 0.0384317 0
M  V30 8339 C 815.396 2.04927 1.02653 0
M  V30 8340 C 816.396 0.951768 1.29607 0
M  V30 8341 O 817.586 1.21568 1.24768 0
M  V30 8342 C 814.718 2.45828 2.36181 0
M  V30 8343 H 815.911 2.93474 0.617508 0
M  V30 8344 H 813.464 1.53679 0.285031 0
M  V30 8345 H 814.199 1.60408 2.8185 0
M  V30 8346 H 813.984 3.25945 2.1795 0
M  V30 8347 H 815.474 2.82939 3.0714 0
M  V30 8348 N 815.911 -0.310526 1.54511 0
M  V30 8349 C 817.16 -1.0445 1.72549 0
M  V30 8350 C 817.473 -1.88748 0.513172 0
M  V30 8351 O 818.679 -2.65338 0.575165 0
M  V30 8352 C 817.135 -1.90665 3.05246 0
M  V30 8353 C 816.743 -1.11415 4.33925 0
M  V30 8354 C 818.487 -2.63719 3.32645 0
M  V30 8355 C 816.394 -1.96852 5.57677 0
M  V30 8356 H 815.324 -0.393676 0.643067 0
M  V30 8357 H 817.975 -0.302003 1.80998 0
M  V30 8358 H 816.357 -2.68864 2.90737 0
M  V30 8359 H 817.531 -0.378956 4.59239 0
M  V30 8360 H 815.846 -0.499853 4.13389 0
M  V30 8361 H 818.443 -3.27974 4.223 0
M  V30 8362 H 818.786 -3.32047 2.51098 0
M  V30 8363 H 819.319 -1.92574 3.48081 0
M  V30 8364 H 816.058 -1.33009 6.41864 0
M  V30 8365 H 815.578 -2.68069 5.36562 0
M  V30 8366 H 817.257 -2.55127 5.94575 0
M  V30 8367 N 817.389 -1.46805 -0.573248 0
M  V30 8368 C 818.8 -1.46655 -1.15539 0
M  V30 8369 C 819.151 -0.2125 -1.95046 0
M  V30 8370 O 818.276 0.683759 -2.05314 0
M  V30 8371 C 818.871 -2.65711 -2.10198 0
M  V30 8372 C 817.43 -2.68572 -2.63716 0
M  V30 8373 C 816.577 -2.39498 -1.39772 0
M  V30 8374 H 819.528 -1.54547 -0.36068 0
M  V30 8375 H 819.549 -2.41768 -2.93817 0
M  V30 8376 H 819.061 -3.56967 -1.52303 0
M  V30 8377 H 817.162 -1.81414 -3.25453 0
M  V30 8378 H 817.275 -3.68809 -3.05805 0
M  V30 8379 H 815.639 -1.89749 -1.69904 0
M  V30 8380 H 816.422 -3.32942 -0.836943 0
M  V30 8381 N 818.867 0.818669 -1.34668 0
M  V30 8382 C 819.797 1.94468 -1.29245 0
M  V30 8383 C 820.778 1.69257 -0.169101 0
M  V30 8384 O 821.963 1.90794 -0.362143 0
M  V30 8385 C 819.093 3.31001 -1.05145 0
M  V30 8386 C 818.047 3.70663 -2.13992 0
M  V30 8387 C 817.373 5.05226 -1.75074 0
M  V30 8388 C 818.673 3.82312 -3.55858 0
M  V30 8389 H 820.367 1.99263 -2.2346 0
M  V30 8390 H 817.913 0.957304 -1.07572 0
M  V30 8391 H 819.866 4.09364 -0.999949 0
M  V30 8392 H 818.59 3.26517 -0.0737312 0
M  V30 8393 H 817.249 2.94578 -2.18219 0
M  V30 8394 H 816.897 4.97233 -0.759518 0
M  V30 8395 H 816.597 5.32734 -2.47928 0
M  V30 8396 H 818.121 5.86042 -1.71427 0
M  V30 8397 H 819.535 4.50935 -3.5402 0
M  V30 8398 H 817.932 4.21278 -4.2737 0
M  V30 8399 H 819.002 2.84193 -3.9289 0
M  V30 8400 N 820.346 1.18468 1.03938 0
M  V30 8401 C 821.576 1.0043 1.80547 0
M  V30 8402 C 821.984 -0.450407 1.83761 0
M  V30 8403 O 821.327 -1.32463 1.27276 0
M  V30 8404 C 821.389 1.48437 3.27424 0
M  V30 8405 C 821.053 2.96372 3.47869 0
M  V30 8406 C 822.05 3.94217 3.38953 0
M  V30 8407 C 819.735 3.34831 3.74424 0
M  V30 8408 C 821.729 5.28517 3.56298 0
M  V30 8409 C 819.416 4.69294 3.91416 0
M  V30 8410 C 820.414 5.65946 3.82354 0
M  V30 8411 O 820.102 6.97974 3.98858 0
M  V30 8412 H 819.834 0.354853 0.575374 0
M  V30 8413 H 822.388 1.57473 1.31876 0
M  V30 8414 H 820.618 0.857601 3.7707 0
M  V30 8415 H 822.307 1.2677 3.85596 0
M  V30 8416 H 823.073 3.6585 3.184 0
M  V30 8417 H 818.952 2.60161 3.80575 0
M  V30 8418 H 822.496 6.03943 3.49141 0
M  V30 8419 H 818.393 4.97361 4.11463 0
M  V30 8420 H 819.161 7.04895 4.1601 0
M  V30 8421 N 821.824 -1.22873 0.986916 0
M  V30 8422 C 822.787 -2.2281 0.537442 0
M  V30 8423 C 823.787 -1.56331 -0.37646 0
M  V30 8424 O 824.977 -1.73376 -0.169247 0
M  V30 8425 C 822.109 -3.40195 -0.219082 0
M  V30 8426 H 823.302 -2.64089 1.42116 0
M  V30 8427 H 820.855 -1.35819 0.773488 0
M  V30 8428 H 821.59 -3.04381 -1.11905 0
M  V30 8429 H 821.375 -3.89657 0.437026 0
M  V30 8430 H 822.865 -4.14326 -0.521926 0
M  V30 8431 N 823.302 -0.75937 -1.38099 0
M  V30 8432 C 824.551 -0.314864 -1.99227 0
M  V30 8433 C 824.864 1.1113 -1.60964 0
M  V30 8434 O 826.07 1.65657 -2.15105 0
M  V30 8435 C 824.526 -0.512001 -3.56239 0
M  V30 8436 C 824.134 -1.94762 -4.0345 0
M  V30 8437 C 825.878 -0.130497 -4.24299 0
M  V30 8438 C 823.785 -2.09301 -5.53125 0
M  V30 8439 H 822.715 -0.113978 -0.745335 0
M  V30 8440 H 825.366 -0.936736 -1.57789 0
M  V30 8441 H 823.748 0.179144 -3.95595 0
M  V30 8442 H 824.922 -2.67271 -3.75371 0
M  V30 8443 H 823.237 -2.28457 -3.48133 0
M  V30 8444 H 825.834 -0.21781 -5.34256 0
M  V30 8445 H 826.177 0.917644 -4.0606 0
M  V30 8446 H 826.71 -0.773716 -3.90203 0
M  V30 8447 H 823.449 -3.1239 -5.76275 0
M  V30 8448 H 822.969 -1.41261 -5.82928 0
M  V30 8449 H 824.648 -1.88571 -6.1891 0
M  V30 8450 N 824.78 1.49157 -0.508906 0
M  V30 8451 C 825.727 2.2927 0.265288 0
M  V30 8452 C 826.697 1.3603 0.953162 0
M  V30 8453 O 827.882 1.64989 0.958291 0
M  V30 8454 C 825.022 3.18897 1.31904 0
M  V30 8455 C 824.135 4.27201 0.642144 0
M  V30 8456 C 823.27 5.04033 1.67701 0
M  V30 8457 C 822.309 6.04165 0.982422 0
M  V30 8458 N 821.446 6.74133 1.96186 0
M  V30 8459 H 826.286 2.94967 -0.424107 0
M  V30 8460 H 823.823 1.45431 -0.220991 0
M  V30 8461 H 825.781 3.69242 1.94206 0
M  V30 8462 H 824.411 2.55168 1.97709 0
M  V30 8463 H 823.463 3.80283 -0.0943395 0
M  V30 8464 H 824.775 4.98708 0.0957507 0
M  V30 8465 H 823.929 5.58287 2.37487 0
M  V30 8466 H 822.668 4.32317 2.25728 0
M  V30 8467 H 821.673 5.49135 0.270378 0
M  V30 8468 H 822.898 6.7787 0.408554 0
M  V30 8469 H 820.844 6.05183 2.53159 0
M  V30 8470 H 820.761 7.41643 1.46634 0
M  V30 8471 H 822.029 7.32987 2.65236 0
M  V30 8472 N 826.258 0.243083 1.55714 0
M  V30 8473 C 827.19 -0.690766 2.18543 0
M  V30 8474 C 828.203 -1.14163 1.16064 0
M  V30 8475 O 829.392 -1.06906 1.42946 0
M  V30 8476 C 826.492 -1.95016 2.77168 0
M  V30 8477 C 825.665 -1.65137 4.05029 0
M  V30 8478 C 824.724 -2.75998 4.48009 0
M  V30 8479 O 823.75 -2.43547 5.14464 0
M  V30 8480 N 824.952 -4.05414 4.15476 0
M  V30 8481 H 827.717 -0.153203 2.99308 0
M  V30 8482 H 825.278 0.0628968 1.61778 0
M  V30 8483 H 827.27 -2.68414 3.0288 0
M  V30 8484 H 825.84 -2.39762 2.00582 0
M  V30 8485 H 825.06 -0.752768 3.86946 0
M  V30 8486 H 826.348 -1.42633 4.88399 0
M  V30 8487 H 825.746 -4.34613 3.62116 0
M  V30 8488 H 824.303 -4.75288 4.46032 0
M  V30 8489 N 827.736 -1.57571 -0.0300757 0
M  V30 8490 C 828.984 -1.88852 -0.719666 0
M  V30 8491 C 829.305 -0.840645 -1.75949 0
M  V30 8492 O 828.575 0.125854 -1.95495 0
M  V30 8493 H 827.155 -0.696965 -0.268792 0
M  V30 8494 H 829.817 -1.949 0.00373285 0
M  V30 8495 H 828.913 -2.87695 -1.20987 0
M  V30 8496 N 829.214 0.302327 -1.54673 0
M  V30 8497 C 830.144 1.37759 -1.88533 0
M  V30 8498 C 831.125 1.52961 -0.744113 0
M  V30 8499 O 832.31 1.6649 -0.999731 0
M  V30 8500 C 829.44 2.74201 -2.13146 0
M  V30 8501 C 828.394 2.73765 -3.28993 0
M  V30 8502 C 827.72 4.13483 -3.39022 0
M  V30 8503 C 829.02 2.35624 -4.66132 0
M  V30 8504 H 830.714 1.0967 -2.78591 0
M  V30 8505 H 828.26 0.52613 -1.34044 0
M  V30 8506 H 830.213 3.49508 -2.35419 0
M  V30 8507 H 828.937 3.03812 -1.19858 0
M  V30 8508 H 827.596 2.00914 -3.06642 0
M  V30 8509 H 827.244 4.40269 -2.43253 0
M  V30 8510 H 826.944 4.14093 -4.16894 0
M  V30 8511 H 828.468 4.90572 -3.63553 0
M  V30 8512 H 829.882 3.00647 -4.88143 0
M  V30 8513 H 828.279 2.47449 -5.46707 0
M  V30 8514 H 829.349 1.30753 -4.66939 0
M  V30 8515 N 830.692 1.47107 0.565454 0
M  V30 8516 C 831.622 1.61846 1.68309 0
M  V30 8517 C 832.603 0.468159 1.63531 0
M  V30 8518 O 833.788 0.696504 1.8128 0
M  V30 8519 C 830.918 1.62474 3.06952 0
M  V30 8520 C 829.872 2.76649 3.26572 0
M  V30 8521 C 829.198 2.62345 4.65917 0
M  V30 8522 C 830.498 4.18319 3.12741 0
M  V30 8523 H 832.192 2.55407 1.5623 0
M  V30 8524 H 829.738 1.22916 0.750179 0
M  V30 8525 H 831.691 1.71378 3.84977 0
M  V30 8526 H 830.415 0.654692 3.19971 0
M  V30 8527 H 829.074 2.67242 2.50952 0
M  V30 8528 H 828.722 1.63386 4.75725 0
M  V30 8529 H 828.422 3.38936 4.79996 0
M  V30 8530 H 829.946 2.73165 5.46089 0
M  V30 8531 H 831.36 4.28745 3.80593 0
M  V30 8532 H 829.757 4.95632 3.38333 0
M  V30 8533 H 830.827 4.37263 2.09592 0
M  V30 8534 N 832.17 -0.811516 1.35101 0
M  V30 8535 C 833.398 -1.59981 1.31201 0
M  V30 8536 C 833.813 -1.8847 -0.111552 0
M  V30 8537 O 833.17 -1.48414 -1.06205 0
M  V30 8538 C 833.221 -2.934 2.11184 0
M  V30 8539 O 832.942 -2.66148 3.4799 0
M  V30 8540 C 834.443 -3.87776 2.14813 0
M  V30 8541 H 831.663 -0.496921 0.450899 0
M  V30 8542 H 834.207 -1.00886 1.77883 0
M  V30 8543 H 832.362 -3.49022 1.68115 0
M  V30 8544 H 832.776 -3.51301 3.89471 0
M  V30 8545 H 834.25 -4.7852 2.75178 0
M  V30 8546 H 834.727 -4.23997 1.14556 0
M  V30 8547 H 835.333 -3.3809 2.58022 0
M  V30 8548 N 833.648 -1.19017 -1.03309 0
M  V30 8549 C 834.894 -0.991681 -1.769 0
M  V30 8550 C 835.227 0.476813 -1.88255 0
M  V30 8551 O 834.502 1.35407 -1.39625 0
M  V30 8552 C 834.785 -1.65627 -3.19749 0
M  V30 8553 C 834.638 -3.19813 -3.1629 0
M  V30 8554 C 835.957 -1.37579 -4.18043 0
M  V30 8555 H 833.076 -0.361674 -0.642153 0
M  V30 8556 H 835.718 -1.46795 -1.20628 0
M  V30 8557 H 833.868 -1.25132 -3.67796 0
M  V30 8558 H 835.54 -3.69494 -2.76174 0
M  V30 8559 H 833.783 -3.51578 -2.54117 0
M  V30 8560 H 834.454 -3.61457 -4.17196 0
M  V30 8561 H 836.93 -1.72679 -3.78578 0
M  V30 8562 H 835.806 -1.86636 -5.16196 0
M  V30 8563 H 836.067 -0.300118 -4.4108 0
M  V30 8564 N 835.127 1.22348 -0.993418 0
M  V30 8565 C 836.037 2.27987 -0.553076 0
M  V30 8566 C 837.053 1.69378 0.398386 0
M  V30 8567 O 838.229 1.99648 0.26509 0
M  V30 8568 C 835.294 3.46475 0.124809 0
M  V30 8569 C 834.355 4.20399 -0.869682 0
M  V30 8570 C 833.588 5.33229 -0.224052 0
M  V30 8571 O 833.811 5.61885 0.981915 0
M  V30 8572 O 832.745 5.94685 -0.929174 0
M  V30 8573 H 836.571 2.67822 -1.43195 0
M  V30 8574 H 834.156 1.28525 -0.761694 0
M  V30 8575 H 836.038 4.18369 0.504496 0
M  V30 8576 H 834.713 3.08565 0.978243 0
M  V30 8577 H 833.62 3.50774 -1.30031 0
M  V30 8578 H 834.953 4.62191 -1.69233 0
M  V30 8579 N 836.605 0.766683 1.37694 0
M  V30 8580 C 837.552 0.147725 2.30327 0
M  V30 8581 C 838.522 -0.695366 1.50844 0
M  V30 8582 O 839.707 -0.64878 1.79431 0
M  V30 8583 C 836.847 -0.72935 3.37305 0
M  V30 8584 C 835.96 0.129795 4.31805 0
M  V30 8585 C 835.095 -0.751511 5.25857 0
M  V30 8586 C 834.134 0.110475 6.12 0
M  V30 8587 N 833.271 -0.728522 6.9831 0
M  V30 8588 H 838.111 0.943204 2.82679 0
M  V30 8589 H 835.648 0.476736 1.3916 0
M  V30 8590 H 837.606 -1.25263 3.97951 0
M  V30 8591 H 836.236 -1.49048 2.86329 0
M  V30 8592 H 835.288 0.770829 3.72508 0
M  V30 8593 H 836.6 0.794923 4.92425 0
M  V30 8594 H 835.754 -1.34146 5.91684 0
M  V30 8595 H 834.493 -1.45034 4.65636 0
M  V30 8596 H 833.498 0.712999 5.45157 0
M  V30 8597 H 834.723 0.806557 6.74293 0
M  V30 8598 H 832.669 -1.41206 6.40622 0
M  V30 8599 H 832.586 -0.12058 7.55904 0
M  V30 8600 H 833.854 -1.30303 7.68532 0
M  V30 8601 N 838.083 -1.48885 0.516809 0
M  V30 8602 C 839.03 -2.29408 -0.253125 0
M  V30 8603 C 840 -1.36533 -0.945935 0
M  V30 8604 O 841.185 -1.65495 -0.949527 0
M  V30 8605 C 838.325 -3.19592 -1.30211 0
M  V30 8606 C 837.438 -4.27535 -0.61948 0
M  V30 8607 C 836.573 -5.04916 -1.65026 0
M  V30 8608 C 835.612 -6.04677 -0.950368 0
M  V30 8609 N 834.749 -6.75164 -1.92608 0
M  V30 8610 H 839.589 -2.94738 0.439744 0
M  V30 8611 H 837.126 -1.45311 0.2287 0
M  V30 8612 H 839.084 -3.70267 -1.92245 0
M  V30 8613 H 837.714 -2.56213 -1.96353 0
M  V30 8614 H 836.766 -3.80228 0.114505 0
M  V30 8615 H 838.078 -4.98752 -0.0693016 0
M  V30 8616 H 837.232 -5.59539 -2.34523 0
M  V30 8617 H 835.971 -4.33508 -2.23432 0
M  V30 8618 H 834.976 -5.4927 -0.241252 0
M  V30 8619 H 836.201 -6.78077 -0.372599 0
M  V30 8620 H 834.147 -6.06517 -2.49946 0
M  V30 8621 H 834.064 -7.4241 -1.42699 0
M  V30 8622 H 835.332 -7.34384 -2.61345 0
M  V30 8623 N 839.561 -0.251338 -1.55583 0
M  V30 8624 C 840.809 0.371434 -1.98657 0
M  V30 8625 C 841.13 1.58143 -1.14087 0
M  V30 8626 O 840.4 1.94607 -0.224708 0
M  V30 8627 H 838.98 0.140225 -0.733721 0
M  V30 8628 H 841.642 -0.351157 -1.9171 0
M  V30 8629 H 840.738 0.677554 -3.04657 0
M  V30 8630 N 841.039 1.57585 0.0217189 0
M  V30 8631 C 841.986 2.07036 1.02004 0
M  V30 8632 C 842.956 0.96106 1.35473 0
M  V30 8633 O 844.141 1.23211 1.45684 0
M  V30 8634 C 841.281 2.56056 2.31364 0
M  V30 8635 C 840.394 3.80805 2.03989 0
M  V30 8636 C 839.529 4.18409 3.27272 0
M  V30 8637 C 838.568 5.36055 2.95486 0
M  V30 8638 N 837.705 5.69056 4.11242 0
M  V30 8639 H 842.545 2.92073 0.591396 0
M  V30 8640 H 840.082 1.44403 0.280384 0
M  V30 8641 H 842.04 2.82548 3.06957 0
M  V30 8642 H 840.67 1.73925 2.71937 0
M  V30 8643 H 839.722 3.61354 1.1886 0
M  V30 8644 H 841.034 4.66512 1.76546 0
M  V30 8645 H 840.188 4.46068 4.11228 0
M  V30 8646 H 838.927 3.31369 3.57835 0
M  V30 8647 H 837.932 5.08142 2.09933 0
M  V30 8648 H 839.157 6.24755 2.66193 0
M  V30 8649 H 837.103 4.84974 4.41742 0
M  V30 8650 H 837.02 6.49288 3.87247 0
M  V30 8651 H 838.288 6.01295 4.96049 0
M  V30 8652 N 842.517 -0.29412 1.54831 0
M  V30 8653 C 843.464 -1.36296 1.86258 0
M  V30 8654 C 844.434 -1.50061 0.712097 0
M  V30 8655 O 845.619 -1.64809 0.961381 0
M  V30 8656 C 842.759 -2.72187 2.12151 0
M  V30 8657 C 841.872 -2.66816 3.39755 0
M  V30 8658 C 841.007 -3.94747 3.55455 0
M  V30 8659 C 840.046 -3.838 4.76827 0
M  V30 8660 N 839.183 -5.03521 4.89296 0
M  V30 8661 H 844.023 -1.08796 2.7743 0
M  V30 8662 H 841.56 -0.526069 1.37371 0
M  V30 8663 H 843.518 -3.51225 2.25159 0
M  V30 8664 H 842.148 -2.97934 1.24237 0
M  V30 8665 H 841.2 -1.79605 3.3533 0
M  V30 8666 H 842.512 -2.5462 4.28917 0
M  V30 8667 H 841.666 -4.82223 3.68166 0
M  V30 8668 H 840.405 -4.09785 2.64438 0
M  V30 8669 H 839.41 -2.94708 4.64141 0
M  V30 8670 H 840.635 -3.70301 5.69258 0
M  V30 8671 H 838.581 -5.1901 4.01204 0
M  V30 8672 H 838.498 -4.93775 5.72471 0
M  V30 8673 H 839.766 -5.92629 5.06371 0
M  V30 8674 N 843.995 -1.47404 -0.557645 0
M  V30 8675 C 844.943 -1.60265 -1.68576 0
M  V30 8676 C 845.937 -0.469982 -1.6275 0
M  V30 8677 O 847.143 -0.647764 -1.67941 0
M  V30 8678 H 843.518 -0.504353 -0.557792 0
M  V30 8679 H 845.489 -2.55066 -1.54867 0
M  V30 8680 C 844.238 -1.63369 -3.0693 0
M  V30 8681 H 843.561 -2.49874 -3.12095 0
M  V30 8682 H 845.001 -1.76417 -3.85556 0
M  V30 8683 C 843.46 -0.366921 -3.34896 0
M  V30 8684 O 843.99 0.53218 -3.98159 0
M  V30 8685 N 842.196 -0.247082 -2.89548 0
M  V30 8686 H 841.743 -0.979669 -2.38244 0
M  V30 8687 H 841.701 0.599552 -3.0863 0
M  V30 8688 N 845.473 0.80434 -1.35529 0
M  V30 8689 C 846.722 1.55665 -1.28263 0
M  V30 8690 C 847.035 1.95096 0.140352 0
M  V30 8691 O 848.241 2.69422 0.335303 0
M  V30 8692 C 846.697 2.80935 -2.24952 0
M  V30 8693 C 846.305 2.48733 -3.72607 0
M  V30 8694 C 848.049 3.5894 -2.26632 0
M  V30 8695 C 845.956 3.70308 -4.61114 0
M  V30 8696 H 844.886 0.584301 -0.476559 0
M  V30 8697 H 847.537 0.88395 -1.60806 0
M  V30 8698 H 845.919 3.49927 -1.85383 0
M  V30 8699 H 847.093 1.87733 -4.20824 0
M  V30 8700 H 845.408 1.83969 -3.73557 0
M  V30 8701 H 848.005 4.49244 -2.89973 0
M  V30 8702 H 848.348 3.96433 -1.27069 0
M  V30 8703 H 848.881 2.96912 -2.64742 0
M  V30 8704 H 845.62 3.37922 -5.61684 0
M  V30 8705 H 845.14 4.30526 -4.17621 0
M  V30 8706 H 846.819 4.37511 -4.76648 0
M  V30 8707 N 846.951 1.19563 1.02676 0
M  V30 8708 C 848.198 0.999568 1.7611 0
M  V30 8709 C 848.526 -0.469432 1.8875 0
M  V30 8710 O 847.781 -1.36481 1.40255 0
M  V30 8711 C 848.08 1.61619 3.18769 0
M  V30 8712 C 847.746 3.11366 3.26132 0
M  V30 8713 C 846.408 3.52234 3.27848 0
M  V30 8714 C 848.76 4.07374 3.25109 0
M  V30 8715 C 846.088 4.87658 3.26201 0
M  V30 8716 C 848.44 5.42731 3.25002 0
M  V30 8717 C 847.104 5.83027 3.25017 0
M  V30 8718 H 846.374 0.365768 0.644434 0
M  V30 8719 H 849.021 1.48838 1.20497 0
M  V30 8720 H 847.326 1.04974 3.77476 0
M  V30 8721 H 849.023 1.43975 3.74262 0
M  V30 8722 H 845.613 2.78804 3.25525 0
M  V30 8723 H 849.797 3.76842 3.22961 0
M  V30 8724 H 845.053 5.18156 3.24537 0
M  V30 8725 H 849.227 6.16879 3.23161 0
M  V30 8726 H 846.854 6.87936 3.23494 0
M  V30 8727 N 848.429 -1.21819 0.999893 0
M  V30 8728 C 849.654 -1.95298 0.698094 0
M  V30 8729 C 850.079 -1.73273 -0.731982 0
M  V30 8730 O 849.437 -1.01634 -1.50134 0
M  V30 8731 C 849.485 -3.45922 1.01834 0
M  V30 8732 O 848.589 -4.12223 0.120801 0
M  V30 8733 H 847.93 -0.610729 0.260588 0
M  V30 8734 H 850.46 -1.5472 1.33876 0
M  V30 8735 H 850.47 -3.96471 0.963074 0
M  V30 8736 H 849.145 -3.61278 2.06037 0
M  V30 8737 H 847.722 -3.72177 0.232153 0
M  V30 8738 N 849.908 -0.773975 -1.37286 0
M  V30 8739 C 851.156 -0.338636 -1.99243 0
M  V30 8740 C 851.477 1.08919 -1.61746 0
M  V30 8741 O 850.747 1.74822 -0.88397 0
M  V30 8742 H 849.327 -0.12222 -0.736934 0
M  V30 8743 H 851.989 -0.992595 -1.67731 0
M  V30 8744 H 851.085 -0.418055 -3.09287 0
M  V30 8745 N 851.386 1.48609 -0.524698 0
M  V30 8746 C 852.802 1.58557 -0.182199 0
M  V30 8747 C 853.002 1.52732 1.31435 0
M  V30 8748 O 852.058 1.41362 2.0922 0
M  V30 8749 C 853.371 2.90406 -0.78004 0
M  V30 8750 C 854.919 3.03924 -0.748293 0
M  V30 8751 C 855.394 4.38427 -1.32462 0
M  V30 8752 N 856.885 4.4498 -1.28635 0
M  V30 8753 C 857.62 5.47551 -1.70223 0
M  V30 8754 N 857.116 6.57103 -2.19515 0
M  V30 8755 N 858.909 5.38402 -1.61493 0
M  V30 8756 H 851.06 1.50638 -1.4974 0
M  V30 8757 H 853.323 0.714952 -0.622533 0
M  V30 8758 H 853.029 3.00308 -1.83052 0
M  V30 8759 H 852.903 3.76343 -0.254075 0
M  V30 8760 H 855.29 2.93638 0.293407 0
M  V30 8761 H 855.371 2.19611 -1.31167 0
M  V30 8762 H 855.015 4.49466 -2.36522 0
M  V30 8763 H 854.945 5.21418 -0.736967 0
M  V30 8764 H 857.436 3.66393 -0.92545 0
M  V30 8765 H 857.749 7.31499 -2.49257 0
M  V30 8766 H 856.094 6.58081 -2.23506 0
M  V30 8767 H 859.285 4.5171 -1.22785 0
M  V30 8768 H 859.458 6.18208 -1.94225 0
M  V30 8769 N 852.864 0.259585 1.55447 0
M  V30 8770 C 854.113 -0.362163 1.98422 0
M  V30 8771 C 854.426 -1.58135 1.1512 0
M  V30 8772 O 855.632 -2.27506 1.48166 0
M  V30 8773 C 854.088 -0.695722 3.53111 0
M  V30 8774 C 853.696 0.502784 4.4517 0
M  V30 8775 C 855.44 -1.28096 4.04712 0
M  V30 8776 C 853.347 0.144674 5.91223 0
M  V30 8777 H 852.277 -0.139092 0.74106 0
M  V30 8778 H 854.928 0.361798 1.79898 0
M  V30 8779 H 853.31 -1.47816 3.67378 0
M  V30 8780 H 854.484 1.27994 4.42667 0
M  V30 8781 H 852.799 1.0038 4.0412 0
M  V30 8782 H 855.396 -1.56243 5.11363 0
M  V30 8783 H 855.739 -2.20969 3.52815 0
M  V30 8784 H 856.272 -0.561146 3.93822 0
M  V30 8785 H 853.011 1.04087 6.47183 0
M  V30 8786 H 852.531 -0.596023 5.96831 0
M  V30 8787 H 854.21 -0.268651 6.46442 0
M  V30 8788 N 854.342 -1.57594 -0.0133615 0
M  V30 8789 C 855.272 -2.10611 -1.00823 0
M  V30 8790 C 856.253 -1.01217 -1.36708 0
M  V30 8791 O 857.438 -1.28827 -1.45318 0
M  V30 8792 C 854.568 -2.59844 -2.30431 0
M  V30 8793 C 853.522 -3.73644 -2.08745 0
M  V30 8794 C 852.848 -4.09141 -3.4425 0
M  V30 8795 C 854.148 -5.01454 -1.46086 0
M  V30 8796 H 855.842 -2.93985 -0.566849 0
M  V30 8797 H 853.388 -1.41423 -0.271219 0
M  V30 8798 H 855.341 -2.95557 -3.00373 0
M  V30 8799 H 854.065 -1.73573 -2.76658 0
M  V30 8800 H 852.724 -3.38303 -1.41232 0
M  V30 8801 H 852.372 -3.19914 -3.88155 0
M  V30 8802 H 852.072 -4.85802 -3.3056 0
M  V30 8803 H 853.596 -4.47402 -4.15528 0
M  V30 8804 H 855.01 -5.35024 -2.05966 0
M  V30 8805 H 853.407 -5.82832 -1.42924 0
M  V30 8806 H 854.477 -4.83003 -0.428471 0
M  V30 8807 N 855.82 0.285905 -1.54985 0
M  V30 8808 C 856.73 1.37534 -1.90057 0
M  V30 8809 C 857.746 1.54707 -0.796348 0
M  V30 8810 O 858.922 1.69082 -1.09423 0
M  V30 8811 C 855.987 2.7167 -2.15398 0
M  V30 8812 C 855.048 2.63354 -3.39033 0
M  V30 8813 C 854.281 3.91093 -3.63155 0
M  V30 8814 O 854.504 4.91169 -2.90015 0
M  V30 8815 O 853.438 3.92075 -4.56685 0
M  V30 8816 H 857.264 1.10791 -2.8277 0
M  V30 8817 H 854.849 0.483303 -1.41367 0
M  V30 8818 H 856.731 3.51006 -2.33179 0
M  V30 8819 H 855.406 2.98226 -1.25868 0
M  V30 8820 H 854.313 1.82438 -3.26599 0
M  V30 8821 H 855.646 2.41749 -4.2874 0
M  V30 8822 N 857.298 1.47698 0.54982 0
M  V30 8823 C 858.547 1.53961 1.30303 0
M  V30 8824 C 858.86 0.209731 1.94472 0
M  V30 8825 O 860.066 0.150418 2.71083 0
M  V30 8826 C 858.522 2.71436 2.36328 0
M  V30 8827 C 858.13 4.10983 1.78316 0
M  V30 8828 C 859.874 2.86996 3.12783 0
M  V30 8829 C 857.781 5.19747 2.82164 0
M  V30 8830 H 856.711 0.573098 0.489975 0
M  V30 8831 H 859.362 1.73989 0.583089 0
M  V30 8832 H 857.744 2.44801 3.11269 0
M  V30 8833 H 858.918 4.47552 1.09697 0
M  V30 8834 H 857.233 4.00371 1.1442 0
M  V30 8835 H 859.83 3.65422 3.90347 0
M  V30 8836 H 860.173 1.95712 3.67427 0
M  V30 8837 H 860.706 3.13436 2.44954 0
M  V30 8838 H 857.445 6.12932 2.32366 0
M  V30 8839 H 856.965 4.87688 3.49171 0
M  V30 8840 H 858.644 5.47014 3.4552 0
M  V30 8841 N 858.776 -0.797141 1.35954 0
M  V30 8842 C 859.686 -1.94088 1.31784 0
M  V30 8843 C 860.702 -1.72588 0.221227 0
M  V30 8844 O 861.878 -1.96256 0.452255 0
M  V30 8845 C 858.943 -3.28828 1.09878 0
M  V30 8846 C 858.004 -3.63158 2.28942 0
M  V30 8847 C 857.237 -4.91469 2.08072 0
M  V30 8848 O 857.46 -5.60616 1.05196 0
M  V30 8849 O 856.394 -5.24277 2.95664 0
M  V30 8850 H 860.22 -2.00554 2.28061 0
M  V30 8851 H 857.805 -0.936288 1.16422 0
M  V30 8852 H 859.687 -4.09473 0.995485 0
M  V30 8853 H 858.362 -3.23271 0.16659 0
M  V30 8854 H 857.269 -2.82851 2.44839 0
M  V30 8855 H 858.602 -3.7343 3.20641 0
M  V30 8856 N 860.254 -1.20106 -1.0204 0
M  V30 8857 C 861.502 -1.0069 -1.75231 0
M  V30 8858 C 861.823 0.462491 -1.89436 0
M  V30 8859 O 861.093 1.33455 -1.4341 0
M  V30 8860 H 859.673 -0.369576 -0.649171 0
M  V30 8861 H 862.335 -1.51149 -1.23044 0
M  V30 8862 H 861.431 -1.46205 -2.75736 0
M  V30 8863 N 861.732 1.21287 -1.00634 0
M  V30 8864 C 862.662 2.25973 -0.588089 0
M  V30 8865 C 863.643 1.65527 0.391764 0
M  V30 8866 O 864.828 1.92179 0.279452 0
M  V30 8867 C 861.958 3.47197 0.0847336 0
M  V30 8868 C 860.912 4.20168 -0.815039 0
M  V30 8869 C 860.238 5.34699 -0.00855393 0
M  V30 8870 C 861.538 4.77416 -2.11828 0
M  V30 8871 H 863.232 2.61212 -1.46317 0
M  V30 8872 H 860.778 1.25563 -0.704985 0
M  V30 8873 H 862.731 4.19602 0.388821 0
M  V30 8874 H 861.455 3.11092 0.994456 0
M  V30 8875 H 860.114 3.49614 -1.10297 0
M  V30 8876 H 859.762 4.94837 0.902499 0
M  V30 8877 H 859.462 5.84449 -0.607664 0
M  V30 8878 H 860.986 6.09914 0.289317 0
M  V30 8879 H 862.4 5.41694 -1.87725 0
M  V30 8880 H 860.797 5.37561 -2.66736 0
M  V30 8881 H 861.867 3.96724 -2.78816 0
M  V30 8882 N 863.21 0.781244 1.36873 0
M  V30 8883 C 864.621 0.414093 1.8205 0
M  V30 8884 C 864.972 -1.06098 1.65039 0
M  V30 8885 O 864.097 -1.82251 1.16677 0
M  V30 8886 C 864.692 0.744837 3.30511 0
M  V30 8887 C 863.251 0.430621 3.73929 0
M  V30 8888 C 862.398 0.983746 2.59264 0
M  V30 8889 H 865.349 0.975091 1.2521 0
M  V30 8890 H 865.37 0.032936 3.80486 0
M  V30 8891 H 864.882 1.81847 3.42861 0
M  V30 8892 H 862.983 -0.635308 3.67144 0
M  V30 8893 H 863.096 0.945514 4.69677 0
M  V30 8894 H 861.46 0.407433 2.5142 0
M  V30 8895 H 862.243 2.06297 2.74402 0
M  V30 8896 N 864.689 -1.48329 0.532571 0
M  V30 8897 C 865.966 -1.95492 -0.0650985 0
M  V30 8898 C 866.346 -1.47485 -1.51034 0
M  V30 8899 O 865.694 -0.702516 -2.17433 0
M  V30 8900 C 865.904 -3.48957 0.0548341 0
M  V30 8901 C 867.252 -4.24475 -0.103115 0
M  V30 8902 O 868.276 -3.56195 -0.0188343 0
M  V30 8903 O 867.135 -5.45781 -0.280164 0
M  V30 8904 H 864.229 -0.823327 -0.0778603 0
M  V30 8905 H 866.775 -1.58839 0.597353 0
M  V30 8906 H 865.547 -3.76628 1.06148 0
M  V30 8907 H 865.17 -3.92311 -0.64635 0
M  V30 8908 N 866.167 -0.267825 -1.55308 0
M  V30 8909 C 867.097 0.616585 -2.25212 0
M  V30 8910 C 868.078 1.16472 -1.23969 0
M  V30 8911 O 869.263 1.20021 -1.52672 0
M  V30 8912 C 866.393 1.80412 -2.96764 0
M  V30 8913 C 865.347 1.38784 -4.04874 0
M  V30 8914 C 864.673 2.65789 -4.63961 0
M  V30 8915 C 865.973 0.543415 -5.19465 0
M  V30 8916 H 867.667 0.0336257 -2.99381 0
M  V30 8917 H 865.213 0.0147328 -1.43992 0
M  V30 8918 H 867.166 2.42866 -3.44375 0
M  V30 8919 H 865.89 2.4128 -2.20118 0
M  V30 8920 H 864.549 0.786541 -3.58063 0
M  V30 8921 H 864.197 3.24899 -3.83992 0
M  V30 8922 H 863.897 2.38651 -5.36954 0
M  V30 8923 H 865.421 3.29104 -5.14318 0
M  V30 8924 H 866.835 1.07277 -5.63174 0
M  V30 8925 H 865.232 0.367219 -5.98975 0
M  V30 8926 H 866.302 -0.439534 -4.82904 0
M  V30 8927 N 867.645 1.57599 0.00500368 0
M  V30 8928 C 868.592 2.08106 0.998025 0
M  V30 8929 C 869.562 0.975374 1.34446 0
M  V30 8930 O 870.747 1.24749 1.44369 0
M  V30 8931 C 867.887 2.58496 2.28635 0
M  V30 8932 C 867 3.82947 1.99939 0
M  V30 8933 C 866.135 4.21857 3.22816 0
M  V30 8934 C 865.174 5.39159 2.89783 0
M  V30 8935 N 864.311 5.73386 4.05183 0
M  V30 8936 H 869.151 2.92684 0.560385 0
M  V30 8937 H 866.688 1.44692 0.265053 0
M  V30 8938 H 868.646 2.85787 3.03943 0
M  V30 8939 H 867.276 1.768 2.70077 0
M  V30 8940 H 866.328 3.62594 1.1502 0
M  V30 8941 H 867.64 4.68358 1.71588 0
M  V30 8942 H 866.794 4.50404 4.06474 0
M  V30 8943 H 865.533 3.35145 3.54301 0
M  V30 8944 H 864.538 5.1034 2.04532 0
M  V30 8945 H 865.763 6.27543 2.59551 0
M  V30 8946 H 863.709 4.89632 4.36574 0
M  V30 8947 H 863.626 6.53359 3.80339 0
M  V30 8948 H 864.894 6.06522 4.89644 0
M  V30 8949 N 869.123 -0.277682 1.55134 0
M  V30 8950 C 870.369 -1.0114 1.7578 0
M  V30 8951 C 870.702 -1.86109 0.554719 0
M  V30 8952 O 869.977 -1.89275 -0.447813 0
M  V30 8953 C 870.26 -1.89789 3.06027 0
M  V30 8954 C 870.113 -1.07844 4.3668 0
M  V30 8955 C 871.432 -2.88577 3.32282 0
M  V30 8956 H 868.551 -0.366277 0.639539 0
M  V30 8957 H 871.193 -0.284155 1.87863 0
M  V30 8958 H 869.343 -2.51796 2.95856 0
M  V30 8959 H 871.015 -0.479432 4.58802 0
M  V30 8960 H 869.258 -0.381764 4.32117 0
M  V30 8961 H 869.929 -1.73179 5.24131 0
M  V30 8962 H 872.405 -2.36702 3.42215 0
M  V30 8963 H 871.281 -3.47749 4.2469 0
M  V30 8964 H 871.542 -3.63458 2.51696 0
M  V30 8965 N 870.601 -1.47988 -0.541979 0
M  V30 8966 C 871.511 -1.64276 -1.67483 0
M  V30 8967 C 872.527 -0.525387 -1.65879 0
M  V30 8968 O 873.703 -0.794912 -1.85049 0
M  V30 8969 C 870.768 -1.66744 -3.03969 0
M  V30 8970 C 869.829 -2.90021 -3.16522 0
M  V30 8971 C 869.062 -2.92362 -4.46498 0
M  V30 8972 O 869.285 -2.03462 -5.32878 0
M  V30 8973 O 868.219 -3.84399 -4.63164 0
M  V30 8974 H 872.045 -2.60164 -1.5668 0
M  V30 8975 H 869.63 -1.31249 -0.71372 0
M  V30 8976 H 871.512 -1.70958 -3.85164 0
M  V30 8977 H 870.187 -0.740277 -3.15122 0
M  V30 8978 H 869.094 -2.91345 -2.34667 0
M  V30 8979 H 870.427 -3.82082 -3.10281 0
M  V30 8980 N 872.079 0.78992 -1.36375 0
M  V30 8981 C 873.011 1.91113 -1.26524 0
M  V30 8982 C 874.024 1.61747 -0.184851 0
M  V30 8983 O 875.213 1.73004 -0.439524 0
M  V30 8984 C 872.313 3.25908 -0.92937 0
M  V30 8985 C 871.486 3.83057 -2.11154 0
M  V30 8986 C 870.545 4.96289 -1.74881 0
M  V30 8987 O 869.571 5.12834 -2.46962 0
M  V30 8988 N 870.773 5.76478 -0.682193 0
M  V30 8989 H 873.538 2.00085 -2.23128 0
M  V30 8990 H 871.099 0.968165 -1.29762 0
M  V30 8991 H 873.091 3.99151 -0.667884 0
M  V30 8992 H 871.661 3.12556 -0.0524843 0
M  V30 8993 H 870.881 3.01808 -2.53586 0
M  V30 8994 H 872.169 4.1797 -2.90135 0
M  V30 8995 H 871.567 5.65638 -0.0836661 0
M  V30 8996 H 870.124 6.50026 -0.480529 0
M  V30 8997 N 873.557 1.20646 1.01402 0
M  V30 8998 C 874.52 0.959314 2.08158 0
M  V30 8999 C 875.52 -0.0661558 1.60664 0
M  V30 9000 O 876.71 0.170177 1.73367 0
M  V30 9001 C 873.842 0.444785 3.37986 0
M  V30 9002 H 875.035 1.90631 2.31517 0
M  V30 9003 H 872.588 1.02219 1.18241 0
M  V30 9004 H 873.323 -0.507553 3.20304 0
M  V30 9005 H 873.108 1.18435 3.73785 0
M  V30 9006 H 874.598 0.291443 4.16582 0
M  V30 9007 N 875.035 -1.20752 1.01276 0
M  V30 9008 C 876.282 -1.90021 0.699887 0
M  V30 9009 C 876.61 -1.78604 -0.770113 0
M  V30 9010 O 875.865 -1.16195 -1.57471 0
M  V30 9011 C 876.164 -3.40808 1.07633 0
M  V30 9012 C 875.83 -3.72423 2.54189 0
M  V30 9013 C 874.492 -3.80762 2.94234 0
M  V30 9014 C 876.844 -3.87025 3.49086 0
M  V30 9015 C 874.172 -4.01158 4.28123 0
M  V30 9016 C 876.524 -4.0893 4.82658 0
M  V30 9017 C 875.188 -4.15498 5.22415 0
M  V30 9018 H 874.458 -0.695335 0.256107 0
M  V30 9019 H 877.105 -1.43096 1.27263 0
M  V30 9020 H 875.41 -3.89521 0.421944 0
M  V30 9021 H 877.107 -3.92693 0.811997 0
M  V30 9022 H 873.697 -3.66529 2.22158 0
M  V30 9023 H 877.881 -3.79942 3.19309 0
M  V30 9024 H 873.137 -4.04476 4.58486 0
M  V30 9025 H 877.311 -4.19172 5.56119 0
M  V30 9026 H 874.938 -4.31055 6.26176 0
M  V30 9027 N 876.513 -0.788492 -1.36457 0
M  V30 9028 C 877.423 -0.187385 -2.3385 0
M  V30 9029 C 878.439 0.659984 -1.60998 0
M  V30 9030 O 879.615 0.575986 -1.92988 0
M  V30 9031 C 876.68 0.668525 -3.40194 0
M  V30 9032 C 875.741 -0.197234 -4.28847 0
M  V30 9033 C 874.974 0.61792 -5.30111 0
M  V30 9034 O 875.197 1.85396 -5.3943 0
M  V30 9035 O 874.131 0.0183016 -6.01897 0
M  V30 9036 H 877.957 -0.992617 -2.87021 0
M  V30 9037 H 875.542 -0.549934 -1.3891 0
M  V30 9038 H 877.424 1.15663 -4.05216 0
M  V30 9039 H 876.099 1.45166 -2.89324 0
M  V30 9040 H 875.006 -0.73207 -3.66867 0
M  V30 9041 H 876.339 -0.943863 -4.83065 0
M  V30 9042 N 877.991 1.48044 -0.54043 0
M  V30 9043 C 878.921 2.32597 0.205178 0
M  V30 9044 C 879.902 1.42748 0.925041 0
M  V30 9045 O 881.087 1.71624 0.908784 0
M  V30 9046 C 878.217 3.24175 1.24612 0
M  V30 9047 C 877.171 4.23131 0.64376 0
M  V30 9048 C 876.497 5.03915 1.78812 0
M  V30 9049 C 877.797 5.20831 -0.39144 0
M  V30 9050 H 879.491 2.95184 -0.500676 0
M  V30 9051 H 877.037 1.41948 -0.242225 0
M  V30 9052 H 878.99 3.82158 1.77576 0
M  V30 9053 H 877.714 2.59608 1.98169 0
M  V30 9054 H 876.373 3.66349 0.135554 0
M  V30 9055 H 876.021 4.35765 2.51232 0
M  V30 9056 H 875.721 5.709 1.39094 0
M  V30 9057 H 877.245 5.64753 2.32134 0
M  V30 9058 H 878.659 5.73277 0.0515064 0
M  V30 9059 H 877.056 5.95926 -0.706569 0
M  V30 9060 H 878.126 4.6733 -1.29345 0
M  V30 9061 N 879.47 0.276058 1.55163 0
M  V30 9062 C 880.698 -0.343772 2.04024 0
M  V30 9063 C 881.113 -1.49397 1.15438 0
M  V30 9064 O 880.47 -1.81662 0.174692 0
M  V30 9065 C 880.521 -0.823885 3.51986 0
M  V30 9066 O 880.242 0.280507 4.37201 0
M  V30 9067 C 881.743 -1.51143 4.16738 0
M  V30 9068 H 878.963 -0.07828 0.666418 0
M  V30 9069 H 881.507 0.408427 2.0038 0
M  V30 9070 H 879.662 -1.52617 3.56071 0
M  V30 9071 H 880.076 -0.0887831 5.24425 0
M  V30 9072 H 881.55 -1.79878 5.2187 0
M  V30 9073 H 882.027 -2.44327 3.64967 0
M  V30 9074 H 882.633 -0.852975 4.16659 0
M  V30 9075 N 880.948 -1.576 0.00335426 0
M  V30 9076 C 882.225 -1.81945 -0.718015 0
M  V30 9077 C 882.605 -0.881788 -1.91801 0
M  V30 9078 O 881.953 0.0687118 -2.28397 0
M  V30 9079 C 882.163 -3.30521 -1.12058 0
M  V30 9080 C 883.511 -3.96345 -1.52303 0
M  V30 9081 O 884.535 -3.34864 -1.21428 0
M  V30 9082 O 883.394 -5.04655 -2.09728 0
M  V30 9083 H 880.488 -0.749328 -0.34991 0
M  V30 9084 H 883.034 -1.69675 0.0290654 0
M  V30 9085 H 881.806 -3.90399 -0.265378 0
M  V30 9086 H 881.429 -3.47802 -1.92665 0
M  V30 9087 N 882.426 0.269451 -1.5528 0
M  V30 9088 C 883.389 1.31642 -1.87625 0
M  V30 9089 C 884.389 1.42182 -0.751058 0
M  V30 9090 O 885.579 1.41272 -1.01921 0
M  V30 9091 C 882.711 2.6973 -2.08467 0
M  V30 9092 H 883.904 1.0419 -2.81219 0
M  V30 9093 H 881.457 0.507685 -1.47825 0
M  V30 9094 H 882.192 3.02356 -1.17266 0
M  V30 9095 H 881.977 2.63465 -2.90394 0
M  V30 9096 H 883.467 3.4537 -2.34753 0
M  V30 9097 N 883.904 1.48273 0.534124 0
M  V30 9098 C 885.129 1.59988 1.31979 0
M  V30 9099 C 885.554 0.258824 1.86311 0
M  V30 9100 O 884.912 -0.768885 1.64188 0
M  V30 9101 C 884.96 2.64642 2.44943 0
M  V30 9102 O 884.064 2.21515 3.47858 0
M  V30 9103 H 883.405 0.536625 0.391063 0
M  V30 9104 H 885.935 1.94229 0.643135 0
M  V30 9105 H 885.945 2.85786 2.91187 0
M  V30 9106 H 884.62 3.62004 2.04758 0
M  V30 9107 H 883.197 2.10567 3.0776 0
M  V30 9108 N 885.382 -0.782676 1.36792 0
M  V30 9109 C 886.345 -1.8772 1.31507 0
M  V30 9110 C 887.345 -1.59269 0.221349 0
M  V30 9111 O 888.535 -1.67555 0.476544 0
M  V30 9112 C 885.667 -3.24641 1.04025 0
M  V30 9113 H 886.86 -1.9382 2.28853 0
M  V30 9114 H 884.413 -0.981226 1.21662 0
M  V30 9115 H 885.148 -3.24221 0.0716439 0
M  V30 9116 H 884.933 -3.46681 1.8318 0
M  V30 9117 H 886.423 -4.04711 1.02949 0
M  V30 9118 N 886.86 -1.21182 -1.00761 0
M  V30 9119 C 887.77 -0.984691 -2.12934 0
M  V30 9120 C 888.786 0.0623657 -1.73888 0
M  V30 9121 O 889.962 -0.1271 -2.00999 0
M  V30 9122 C 887.027 -0.549447 -3.42319 0
M  V30 9123 C 886.088 -1.66841 -3.95553 0
M  V30 9124 C 885.321 -1.25384 -5.18763 0
M  V30 9125 O 885.544 -0.126333 -5.7026 0
M  V30 9126 O 884.478 -2.06475 -5.65377 0
M  V30 9127 H 888.304 -1.92413 -2.3497 0
M  V30 9128 H 885.889 -0.99647 -1.11314 0
M  V30 9129 H 887.771 -0.316384 -4.20211 0
M  V30 9130 H 886.446 0.361304 -3.21677 0
M  V30 9131 H 885.353 -1.95585 -3.189 0
M  V30 9132 H 886.686 -2.55649 -4.206 0
M  V30 9133 N 888.338 1.20213 -1.01915 0
M  V30 9134 C 889.754 1.41696 -0.734459 0
M  V30 9135 C 889.954 1.89504 0.684867 0
M  V30 9136 O 889.01 2.06556 1.45227 0
M  V30 9137 C 890.323 2.43644 -1.76233 0
M  V30 9138 C 891.871 2.57406 -1.78076 0
M  V30 9139 C 892.346 3.626 -2.79796 0
M  V30 9140 N 893.837 3.70086 -2.78551 0
M  V30 9141 C 894.572 4.51145 -3.53915 0
M  V30 9142 N 894.068 5.35988 -4.38963 0
M  V30 9143 N 895.861 4.45702 -3.425 0
M  V30 9144 H 888.012 0.874976 -1.93541 0
M  V30 9145 H 890.275 0.446647 -0.836188 0
M  V30 9146 H 889.981 2.15519 -2.77929 0
M  V30 9147 H 889.855 3.42672 -1.57657 0
M  V30 9148 H 892.242 2.8486 -0.770634 0
M  V30 9149 H 892.323 1.58565 -2.00725 0
M  V30 9150 H 891.967 3.35889 -3.80973 0
M  V30 9151 H 891.897 4.61069 -2.54407 0
M  V30 9152 H 894.388 3.09484 -2.1686 0
M  V30 9153 H 894.701 5.94932 -4.9323 0
M  V30 9154 H 893.046 5.35482 -4.4304 0
M  V30 9155 H 896.237 3.78456 -2.75478 0
M  V30 9156 H 896.41 5.08637 -4.01487 0
M  V30 9157 N 889.816 0.795718 1.36037 0
M  V30 9158 C 891.041 0.38204 2.03851 0
M  V30 9159 C 891.466 -0.995553 1.59594 0
M  V30 9160 O 890.824 -1.64258 0.767401 0
M  V30 9161 C 890.872 0.461248 3.57638 0
M  V30 9162 O 889.976 -0.529448 4.08987 0
M  V30 9163 H 889.317 0.161227 0.644129 0
M  V30 9164 H 891.847 1.07858 1.73861 0
M  V30 9165 H 891.857 0.32712 4.06687 0
M  V30 9166 H 890.532 1.46613 3.89201 0
M  V30 9167 H 889.109 -0.35646 3.71192 0
M  V30 9168 N 891.294 -1.47756 0.548274 0
M  V30 9169 C 892.257 -2.28379 -0.193857 0
M  V30 9170 C 893.257 -1.36436 -0.850986 0
M  V30 9171 O 894.447 -1.59154 -0.70822 0
M  V30 9172 C 891.579 -3.15858 -1.28243 0
M  V30 9173 H 892.772 -2.95458 0.514231 0
M  V30 9174 H 890.325 -1.53298 0.304879 0
M  V30 9175 H 891.06 -2.5345 -2.0232 0
M  V30 9176 H 890.845 -3.83512 -0.816148 0
M  V30 9177 H 892.335 -3.76627 -1.80393 0
M  V30 9178 N 892.772 -0.284283 -1.55015 0
M  V30 9179 C 893.735 0.586182 -2.21577 0
M  V30 9180 C 894.735 1.07427 -1.1965 0
M  V30 9181 O 895.925 0.972977 -1.44495 0
M  V30 9182 C 893.057 1.80973 -2.88897 0
M  V30 9183 H 894.25 0.00487253 -2.999 0
M  V30 9184 H 891.803 -0.0349696 -1.56261 0
M  V30 9185 H 892.538 2.43131 -2.14611 0
M  V30 9186 H 892.323 1.46757 -3.636 0
M  V30 9187 H 893.813 2.42853 -3.39724 0
M  V30 9188 N 894.251 1.57596 -0.0117121 0
M  V30 9189 C 895.499 1.90694 0.669342 0
M  V30 9190 C 895.82 0.886999 1.73659 0
M  V30 9191 O 895.09 -0.0739779 1.9576 0
M  V30 9192 H 893.67 0.703846 0.250219 0
M  V30 9193 H 896.332 1.94821 -0.0554057 0
M  V30 9194 H 895.428 2.90802 1.13316 0
M  V30 9195 N 895.729 -0.261212 1.5542 0
M  V30 9196 C 896.969 -0.998748 1.78338 0
M  V30 9197 C 897.333 -1.83064 0.578914 0
M  V30 9198 O 898.534 -2.59884 0.686575 0
M  V30 9199 C 896.805 -1.84828 3.05898 0
M  V30 9200 S 898.364 -2.64686 3.49981 0
M  V30 9201 H 895.182 -0.33619 0.626496 0
M  V30 9202 H 897.784 -0.26799 1.93655 0
M  V30 9203 H 896.488 -1.22658 3.91642 0
M  V30 9204 H 896.019 -2.62203 2.9328 0
M  V30 9205 H 898.034 -3.87299 3.10184 0
M  V30 9206 N 897.207 -1.48554 -0.526253 0
M  V30 9207 C 898.435 -1.60429 -1.30652 0
M  V30 9208 C 898.85 -0.265963 -1.86917 0
M  V30 9209 O 898.207 0.745262 -1.6659 0
M  V30 9210 C 898.258 -2.65377 -2.45473 0
M  V30 9211 O 897.979 -3.94017 -1.91527 0
M  V30 9212 C 899.48 -2.87726 -3.37237 0
M  V30 9213 H 896.7 -0.540817 -0.397187 0
M  V30 9214 H 899.244 -1.94409 -0.634461 0
M  V30 9215 H 897.399 -2.34246 -3.08557 0
M  V30 9216 H 897.813 -4.51623 -2.66715 0
M  V30 9217 H 899.287 -3.64951 -4.14144 0
M  V30 9218 H 899.764 -1.96688 -3.92696 0
M  V30 9219 H 900.37 -3.20176 -2.79942 0
M  V30 9220 N 898.685 0.775411 -1.37205 0
M  V30 9221 C 899.934 1.52909 -1.31536 0
M  V30 9222 C 900.247 1.9535 0.0989374 0
M  V30 9223 O 901.453 2.70072 0.278079 0
M  V30 9224 C 899.909 2.761 -2.30861 0
M  V30 9225 C 899.517 2.40773 -3.77799 0
M  V30 9226 C 901.261 3.54052 -2.34195 0
M  V30 9227 C 899.168 3.60444 -4.68865 0
M  V30 9228 H 898.098 0.574061 -0.488845 0
M  V30 9229 H 900.749 0.849642 -1.62645 0
M  V30 9230 H 899.131 3.45916 -1.92764 0
M  V30 9231 H 900.305 1.78764 -4.24712 0
M  V30 9232 H 898.62 1.76004 -3.77375 0
M  V30 9233 H 901.217 4.42992 -2.99437 0
M  V30 9234 H 901.56 3.93649 -1.35449 0
M  V30 9235 H 902.093 2.91229 -2.7098 0
M  V30 9236 H 898.832 3.25932 -5.68725 0
M  V30 9237 H 898.352 4.21571 -4.26659 0
M  V30 9238 H 900.031 4.27302 -4.85821 0
M  V30 9239 N 900.163 1.21714 1.00117 0
M  V30 9240 C 901.11 0.979837 2.08968 0
M  V30 9241 C 902.08 -0.0955324 1.65825 0
M  V30 9242 O 903.265 0.0523742 1.90728 0
M  V30 9243 C 900.405 0.554758 3.40612 0
M  V30 9244 C 899.518 1.69999 3.97145 0
M  V30 9245 C 898.653 1.2237 5.16913 0
M  V30 9246 C 897.692 2.34101 5.65564 0
M  V30 9247 N 896.829 1.87579 6.76579 0
M  V30 9248 H 901.669 1.91167 2.28602 0
M  V30 9249 H 899.206 0.952645 1.12085 0
M  V30 9250 H 901.164 0.289526 4.16194 0
M  V30 9251 H 899.794 -0.340073 3.21004 0
M  V30 9252 H 898.846 2.07976 3.18512 0
M  V30 9253 H 900.158 2.54074 4.29241 0
M  V30 9254 H 899.312 0.915358 5.99755 0
M  V30 9255 H 898.051 0.353045 4.8642 0
M  V30 9256 H 897.056 2.65734 4.81316 0
M  V30 9257 H 898.281 3.21669 5.98085 0
M  V30 9258 H 896.227 1.02863 6.47885 0
M  V30 9259 H 896.144 2.65225 7.07949 0
M  V30 9260 H 897.412 1.5979 7.62947 0
M  V30 9261 N 901.641 -1.19671 1.02551 0
M  V30 9262 C 902.571 -2.25009 0.623965 0
M  V30 9263 C 903.552 -1.66129 -0.36538 0
M  V30 9264 O 904.737 -1.92599 -0.248842 0
M  V30 9265 C 901.867 -3.47287 -0.0294869 0
M  V30 9266 C 900.821 -4.18818 0.881781 0
M  V30 9267 C 900.147 -5.34618 0.0936189 0
M  V30 9268 C 901.447 -4.73986 2.19396 0
M  V30 9269 H 903.141 -2.58851 1.50454 0
M  V30 9270 H 900.687 -1.24425 0.724872 0
M  V30 9271 H 902.64 -4.20168 -0.322016 0
M  V30 9272 H 901.364 -3.12635 -0.944838 0
M  V30 9273 H 900.023 -3.47815 1.15845 0
M  V30 9274 H 899.671 -4.9621 -0.823661 0
M  V30 9275 H 899.371 -5.83409 0.700568 0
M  V30 9276 H 900.895 -6.10297 -0.192249 0
M  V30 9277 H 902.309 -5.38639 1.96319 0
M  V30 9278 H 900.706 -5.3325 2.75254 0
M  V30 9279 H 901.776 -3.92238 2.85092 0
M  V30 9280 N 903.119 -0.802921 -1.35613 0
M  V30 9281 C 904.067 -0.198783 -2.31749 0
M  V30 9282 C 905.061 0.649416 -1.56458 0
M  V30 9283 O 906.267 0.542989 -1.71615 0
M  V30 9284 H 902.642 -0.0455177 -0.750621 0
M  V30 9285 H 904.613 -1.02479 -2.80251 0
M  V30 9286 C 903.362 0.641066 -3.41739 0
M  V30 9287 H 902.685 -0.00226244 -3.998 0
M  V30 9288 H 904.125 1.03022 -4.11294 0
M  V30 9289 C 902.584 1.80505 -2.84464 0
M  V30 9290 O 903.114 2.90235 -2.77717 0
M  V30 9291 N 901.32 1.61542 -2.41563 0
M  V30 9292 H 900.867 0.722863 -2.4725 0
M  V30 9293 H 900.825 2.39581 -2.03589 0
M  V30 9294 N 904.597 1.47463 -0.556102 0
M  V30 9295 C 905.544 2.29998 0.192213 0
M  V30 9296 C 906.514 1.38993 0.909403 0
M  V30 9297 O 907.699 1.67954 0.905316 0
M  V30 9298 C 904.839 3.22932 1.21692 0
M  V30 9299 C 903.952 4.29027 0.505908 0
M  V30 9300 C 903.087 5.09114 1.51581 0
M  V30 9301 C 902.126 6.06984 0.789714 0
M  V30 9302 N 901.263 6.80033 1.74639 0
M  V30 9303 H 906.103 2.93468 -0.517734 0
M  V30 9304 H 903.64 1.44654 -0.267147 0
M  V30 9305 H 905.598 3.75234 1.8236 0
M  V30 9306 H 904.228 2.61329 1.89491 0
M  V30 9307 H 903.28 3.7979 -0.215276 0
M  V30 9308 H 904.592 4.9876 -0.062958 0
M  V30 9309 H 903.746 5.6556 2.19606 0
M  V30 9310 H 902.485 4.3928 2.11859 0
M  V30 9311 H 901.49 5.49717 0.0955382 0
M  V30 9312 H 902.715 6.78827 0.192688 0
M  V30 9313 H 900.661 6.12931 2.33777 0
M  V30 9314 H 900.578 7.45933 1.22965 0
M  V30 9315 H 901.846 7.41054 2.41782 0
M  V30 9316 N 906.075 0.2925 1.54862 0
M  V30 9317 C 906.985 -0.597036 2.26876 0
M  V30 9318 C 908.001 -1.15558 1.30086 0
M  V30 9319 O 909.177 -1.18217 1.63054 0
M  V30 9320 C 906.242 -1.75664 2.98903 0
M  V30 9321 C 905.303 -1.23303 4.11212 0
M  V30 9322 C 904.536 -2.33736 4.79795 0
M  V30 9323 O 904.759 -3.53459 4.47686 0
M  V30 9324 O 903.693 -2.00908 5.67379 0
M  V30 9325 H 907.519 -0.0131242 3.03697 0
M  V30 9326 H 905.104 0.0592642 1.49282 0
M  V30 9327 H 906.986 -2.43241 3.4411 0
M  V30 9328 H 905.661 -2.32731 2.24984 0
M  V30 9329 H 904.568 -0.523222 3.70423 0
M  V30 9330 H 905.901 -0.707887 4.87083 0
M  V30 9331 N 907.553 -1.57587 0.0200696 0
M  V30 9332 C 908.964 -1.79312 -0.520019 0
M  V30 9333 C 909.315 -0.929475 -1.72787 0
M  V30 9334 O 908.44 -0.137389 -2.15963 0
M  V30 9335 C 909.035 -3.25203 -0.950172 0
M  V30 9336 C 907.594 -3.47954 -1.43543 0
M  V30 9337 C 906.741 -2.74459 -0.395917 0
M  V30 9338 H 909.692 -1.56779 0.246153 0
M  V30 9339 H 909.713 -3.34418 -1.81508 0
M  V30 9340 H 909.225 -3.88035 -0.070883 0
M  V30 9341 H 907.326 -2.90363 -2.33495 0
M  V30 9342 H 907.439 -4.56661 -1.44905 0
M  V30 9343 H 905.803 -2.39669 -0.862022 0
M  V30 9344 H 906.586 -3.40001 0.47475 0
M  V30 9345 N 909.032 0.252966 -1.55557 0
M  V30 9346 C 910.281 0.979736 -1.76307 0
M  V30 9347 C 910.594 1.86714 -0.582871 0
M  V30 9348 O 911.8 2.6302 -0.673247 0
M  V30 9349 C 910.256 1.79205 -3.12112 0
M  V30 9350 C 909.864 0.952333 -4.37761 0
M  V30 9351 C 911.608 2.51191 -3.42203 0
M  V30 9352 C 909.515 1.76018 -5.64599 0
M  V30 9353 H 908.445 0.369538 -0.657235 0
M  V30 9354 H 911.096 0.234619 -1.81994 0
M  V30 9355 H 909.478 2.57888 -3.00515 0
M  V30 9356 H 910.652 0.208251 -4.60329 0
M  V30 9357 H 908.967 0.346082 -4.14959 0
M  V30 9358 H 911.564 3.12074 -4.34182 0
M  V30 9359 H 911.907 3.22499 -2.63249 0
M  V30 9360 H 912.44 1.79523 -3.54988 0
M  V30 9361 H 909.179 1.09095 -6.46358 0
M  V30 9362 H 908.699 2.4797 -5.46142 0
M  V30 9363 H 910.378 2.32884 -6.03634 0
M  V30 9364 N 910.51 1.48831 0.518367 0
M  V30 9365 C 911.759 1.5669 1.27008 0
M  V30 9366 C 912.072 0.250934 1.93984 0
M  V30 9367 O 913.278 0.207884 2.70703 0
M  V30 9368 C 911.734 2.76387 2.30517 0
M  V30 9369 C 911.342 4.14673 1.69559 0
M  V30 9370 C 913.086 2.93566 3.06625 0
M  V30 9371 C 910.993 5.25616 2.71076 0
M  V30 9372 H 909.923 0.583362 0.477708 0
M  V30 9373 H 912.574 1.75187 0.546052 0
M  V30 9374 H 910.956 2.51348 3.06006 0
M  V30 9375 H 912.13 4.49779 1.00179 0
M  V30 9376 H 910.445 4.02708 1.05902 0
M  V30 9377 H 913.042 3.7362 3.82508 0
M  V30 9378 H 913.385 2.03462 3.63193 0
M  V30 9379 H 913.918 3.18562 2.38251 0
M  V30 9380 H 910.657 6.17723 2.19313 0
M  V30 9381 H 910.177 4.94985 3.38748 0
M  V30 9382 H 911.856 5.5422 3.3384 0
M  V30 9383 N 911.988 -0.768124 1.37614 0
M  V30 9384 C 912.898 -1.91249 1.35871 0
M  V30 9385 C 913.914 -1.7208 0.257786 0
M  V30 9386 O 915.09 -1.95253 0.493782 0
M  V30 9387 C 912.155 -3.26423 1.16829 0
M  V30 9388 C 911.216 -3.5822 2.36594 0
M  V30 9389 C 910.449 -4.86945 2.1845 0
M  V30 9390 O 910.672 -5.58258 1.17064 0
M  V30 9391 O 909.606 -5.17888 3.06718 0
M  V30 9392 H 913.432 -1.95671 2.32264 0
M  V30 9393 H 911.017 -0.911382 1.18382 0
M  V30 9394 H 912.899 -4.07269 1.08212 0
M  V30 9395 H 911.574 -3.22845 0.235123 0
M  V30 9396 H 910.481 -2.77594 2.50783 0
M  V30 9397 H 911.814 -3.66545 3.2849 0
M  V30 9398 N 913.466 -1.22244 -0.994698 0
M  V30 9399 C 914.696 -1.07062 -1.76695 0
M  V30 9400 C 915.104 0.381895 -1.85306 0
M  V30 9401 O 914.447 1.27648 -1.32105 0
M  V30 9402 C 914.509 -1.60487 -3.2169 0
M  V30 9403 C 914.173 -3.09079 -3.36629 0
M  V30 9404 C 915.17 -4.06526 -3.24088 0
M  V30 9405 C 912.855 -3.48497 -3.61739 0
M  V30 9406 C 914.849 -5.41377 -3.36437 0
M  V30 9407 C 912.536 -4.83498 -3.73729 0
M  V30 9408 C 913.534 -5.79747 -3.61086 0
M  V30 9409 O 913.222 -7.12297 -3.72678 0
M  V30 9410 H 912.954 -0.375963 -0.561807 0
M  V30 9411 H 915.508 -1.62259 -1.25941 0
M  V30 9412 H 913.738 -0.996957 -3.73628 0
M  V30 9413 H 915.427 -1.40994 -3.80625 0
M  V30 9414 H 916.193 -3.77415 -3.04602 0
M  V30 9415 H 912.072 -2.74106 -3.70657 0
M  V30 9416 H 915.616 -6.16485 -3.26485 0
M  V30 9417 H 911.513 -5.1229 -3.92721 0
M  V30 9418 H 912.281 -7.1985 -3.89562 0
M  V30 9419 N 914.944 1.19125 -1.03184 0
M  V30 9420 C 915.874 2.24675 -0.635889 0
M  V30 9421 C 916.855 1.66321 0.356565 0
M  V30 9422 O 918.04 1.92728 0.238625 0
M  V30 9423 C 915.17 3.47298 0.011069 0
M  V30 9424 C 914.124 4.18345 -0.903979 0
M  V30 9425 C 913.45 5.34561 -0.12197 0
M  V30 9426 C 914.75 4.72816 -2.21907 0
M  V30 9427 H 916.444 2.5805 -1.51825 0
M  V30 9428 H 913.99 1.24039 -0.73146 0
M  V30 9429 H 915.943 4.20333 0.299729 0
M  V30 9430 H 914.667 3.13131 0.928245 0
M  V30 9431 H 913.326 3.47196 -1.17688 0
M  V30 9432 H 912.974 4.9664 0.797334 0
M  V30 9433 H 912.674 5.83029 -0.731498 0
M  V30 9434 H 914.198 6.10391 0.159881 0
M  V30 9435 H 915.612 5.3759 -1.99173 0
M  V30 9436 H 914.009 5.31782 -2.78078 0
M  V30 9437 H 915.079 3.9072 -2.87168 0
M  V30 9438 N 916.422 0.810101 1.35185 0
M  V30 9439 C 917.37 0.211071 2.3164 0
M  V30 9440 C 918.364 -0.641109 1.568 0
M  V30 9441 O 919.57 -0.533881 1.719 0
M  V30 9442 H 915.945 0.0494978 0.750369 0
M  V30 9443 H 917.916 1.03964 2.79703 0
M  V30 9444 C 916.665 -0.622933 3.42074 0
M  V30 9445 H 915.988 0.0234648 3.99793 0
M  V30 9446 H 917.428 -1.0084 4.11834 0
M  V30 9447 C 915.887 -1.78994 2.85417 0
M  V30 9448 O 916.417 -2.88758 2.79252 0
M  V30 9449 N 914.623 -1.60259 2.42416 0
M  V30 9450 H 914.17 -0.70974 2.4763 0
M  V30 9451 H 914.128 -2.38498 2.04857 0
M  V30 9452 N 917.9 -1.47166 0.563914 0
M  V30 9453 C 919.125 -2.0735 0.0454698 0
M  V30 9454 C 919.55 -1.41281 -1.24182 0
M  V30 9455 O 918.908 -0.490084 -1.7455 0
M  V30 9456 C 918.956 -3.60378 -0.126453 0
M  V30 9457 O 918.06 -3.94934 -1.18746 0
M  V30 9458 H 917.401 -0.661773 0.0543377 0
M  V30 9459 H 919.931 -1.89086 0.781508 0
M  V30 9460 H 919.941 -4.06593 -0.338554 0
M  V30 9461 H 918.616 -4.07862 0.81373 0
M  V30 9462 H 917.193 -3.60455 -0.955318 0
M  V30 9463 N 919.378 -0.300708 -1.54705 0
M  V30 9464 C 920.326 0.591264 -2.2496 0
M  V30 9465 C 921.32 1.13725 -1.2555 0
M  V30 9466 O 922.526 1.08793 -1.43402 0
M  V30 9467 H 918.901 0.209278 -0.722293 0
M  V30 9468 H 920.872 -0.0238175 -2.9839 0
M  V30 9469 C 919.621 1.75179 -3.00346 0
M  V30 9470 H 918.944 1.34089 -3.76643 0
M  V30 9471 H 920.384 2.35198 -3.52786 0
M  V30 9472 C 918.843 2.65574 -2.07298 0
M  V30 9473 O 919.373 3.6666 -1.64083 0
M  V30 9474 N 917.579 2.33301 -1.7326 0
M  V30 9475 H 917.126 1.51142 -2.08599 0
M  V30 9476 H 917.084 2.94049 -1.11278 0
M  V30 9477 N 920.856 1.57574 -0.0284266 0
M  V30 9478 C 922.105 1.9095 0.649704 0
M  V30 9479 C 922.418 0.906421 1.7333 0
M  V30 9480 O 923.624 1.1314 2.46803 0
M  V30 9481 C 922.08 3.39061 1.20687 0
M  V30 9482 C 921.688 4.47726 0.156597 0
M  V30 9483 C 923.432 3.81505 1.86156 0
M  V30 9484 C 921.339 5.86935 0.725365 0
M  V30 9485 H 920.269 0.712589 0.24644 0
M  V30 9486 H 922.92 1.83261 -0.0936143 0
M  V30 9487 H 921.302 3.41679 2.00178 0
M  V30 9488 H 922.476 4.56667 -0.6158 0
M  V30 9489 H 920.791 4.14481 -0.399288 0
M  V30 9490 H 923.388 4.82865 2.29665 0
M  V30 9491 H 923.731 3.16529 2.70398 0
M  V30 9492 H 924.264 3.81307 1.13356 0
M  V30 9493 H 921.003 6.55453 -0.0789081 0
M  V30 9494 H 920.523 5.81602 1.46627 0
M  V30 9495 H 922.202 6.35483 1.21532 0
M  V30 9496 N 922.334 -0.244713 1.55689 0
M  V30 9497 C 923.58 -0.973886 1.77886 0
M  V30 9498 C 923.913 -1.8489 0.594071 0
M  V30 9499 O 923.188 -1.90182 -0.407564 0
M  V30 9500 C 923.471 -1.83255 3.09983 0
M  V30 9501 C 923.324 -0.985571 4.3887 0
M  V30 9502 C 924.643 -2.81464 3.38329 0
M  V30 9503 H 921.762 -0.352629 0.647165 0
M  V30 9504 H 924.404 -0.244243 1.88424 0
M  V30 9505 H 922.554 -2.45464 3.01131 0
M  V30 9506 H 924.226 -0.382005 4.59716 0
M  V30 9507 H 922.469 -0.29002 4.32829 0
M  V30 9508 H 923.14 -1.62022 5.27686 0
M  V30 9509 H 925.616 -2.2939 3.47159 0
M  V30 9510 H 924.492 -3.38663 4.31971 0
M  V30 9511 H 924.753 -3.58037 2.59349 0
M  V30 9512 N 923.813 -1.49104 -0.510467 0
M  V30 9513 C 924.743 -1.67981 -1.62187 0
M  V30 9514 C 925.724 -0.528529 -1.6168 0
M  V30 9515 O 926.909 -0.763305 -1.7857 0
M  V30 9516 C 924.039 -1.73755 -3.0071 0
M  V30 9517 C 922.993 -2.88579 -3.1608 0
M  V30 9518 C 922.319 -2.79457 -4.5586 0
M  V30 9519 C 923.619 -4.29638 -2.97 0
M  V30 9520 H 925.313 -2.61029 -1.46643 0
M  V30 9521 H 922.859 -1.25615 -0.704042 0
M  V30 9522 H 924.812 -1.85548 -3.78352 0
M  V30 9523 H 923.536 -0.772996 -3.17321 0
M  V30 9524 H 922.195 -2.76372 -2.40861 0
M  V30 9525 H 921.843 -1.80929 -4.69333 0
M  V30 9526 H 921.543 -3.56518 -4.67086 0
M  V30 9527 H 923.067 -2.93245 -5.35574 0
M  V30 9528 H 924.481 -4.42575 -3.64418 0
M  V30 9529 H 922.878 -5.07847 -3.19704 0
M  V30 9530 H 923.948 -4.44741 -1.93219 0
M  V30 9531 N 925.291 0.760815 -1.38019 0
M  V30 9532 C 926.221 1.88811 -1.37377 0
M  V30 9533 C 927.202 1.68388 -0.240737 0
M  V30 9534 O 928.387 1.89086 -0.442739 0
M  V30 9535 C 925.517 3.26244 -1.1909 0
M  V30 9536 C 924.471 3.61254 -2.29521 0
M  V30 9537 C 923.797 4.97346 -1.96345 0
M  V30 9538 C 925.097 3.66874 -3.71753 0
M  V30 9539 H 926.791 1.89606 -2.31711 0
M  V30 9540 H 924.337 0.910818 -1.11535 0
M  V30 9541 H 926.29 4.04755 -1.17267 0
M  V30 9542 H 925.014 3.2591 -0.212152 0
M  V30 9543 H 923.673 2.85057 -2.30517 0
M  V30 9544 H 923.321 4.93564 -0.969728 0
M  V30 9545 H 923.021 5.21739 -2.703 0
M  V30 9546 H 924.545 5.78244 -1.96129 0
M  V30 9547 H 925.959 4.35514 -3.72828 0
M  V30 9548 H 924.356 4.02772 -4.44853 0
M  V30 9549 H 925.426 2.67273 -4.0459 0
M  V30 9550 N 926.769 1.22769 0.988202 0
M  V30 9551 C 927.716 1.00195 2.07917 0
M  V30 9552 C 928.686 -0.0779391 1.65917 0
M  V30 9553 O 929.871 0.0726005 1.90662 0
M  V30 9554 C 927.011 0.590853 3.40004 0
M  V30 9555 C 926.124 1.74202 3.9532 0
M  V30 9556 C 925.259 1.27846 5.15586 0
M  V30 9557 C 924.298 2.40087 5.63049 0
M  V30 9558 N 923.435 1.94744 6.74551 0
M  V30 9559 H 928.275 1.93581 2.26562 0
M  V30 9560 H 925.812 0.96448 1.11068 0
M  V30 9561 H 927.77 0.333653 4.15864 0
M  V30 9562 H 926.4 -0.306007 3.21346 0
M  V30 9563 H 925.452 2.11342 3.16289 0
M  V30 9564 H 926.764 2.58612 4.26522 0
M  V30 9565 H 925.918 0.978919 5.9875 0
M  V30 9566 H 924.657 0.404617 4.86019 0
M  V30 9567 H 923.662 2.70824 4.78471 0
M  V30 9568 H 924.887 3.27995 5.9464 0
M  V30 9569 H 922.833 1.09729 6.46758 0
M  V30 9570 H 922.75 2.72718 7.05096 0
M  V30 9571 H 924.018 1.67873 7.61209 0
M  V30 9572 N 928.247 -1.18576 1.03814 0
M  V30 9573 C 929.493 -1.89032 0.750892 0
M  V30 9574 C 929.848 -1.78683 -0.713444 0
M  V30 9575 O 929.141 -1.1746 -1.51373 0
M  V30 9576 C 929.335 -3.38448 1.14837 0
M  V30 9577 C 929.164 -3.63339 2.64981 0
M  V30 9578 C 927.934 -3.80847 3.3209 0
M  V30 9579 C 930.132 -3.64131 3.63198 0
M  V30 9580 N 928.114 -3.93453 4.71241 0
M  V30 9581 C 929.485 -3.82421 4.88011 0
M  V30 9582 C 931.54 -3.47206 3.56865 0
M  V30 9583 C 930.243 -3.85538 6.0725 0
M  V30 9584 C 932.269 -3.51605 4.75529 0
M  V30 9585 C 931.631 -3.70388 5.99159 0
M  V30 9586 H 927.73 -0.710447 0.326786 0
M  V30 9587 H 930.314 -1.42444 1.32732 0
M  V30 9588 H 928.485 -3.83737 0.600058 0
M  V30 9589 H 930.217 -3.96462 0.812406 0
M  V30 9590 H 926.972 -3.80122 2.82496 0
M  V30 9591 H 927.396 -4.03584 5.43552 0
M  V30 9592 H 932.038 -3.31632 2.6226 0
M  V30 9593 H 929.756 -3.99901 7.02214 0
M  V30 9594 H 933.342 -3.39787 4.72267 0
M  V30 9595 H 932.222 -3.73679 6.89445 0
M  V30 9596 N 929.725 -0.817259 -1.34754 0
M  V30 9597 C 930.658 -0.180483 -2.27485 0
M  V30 9598 C 931.636 0.659792 -1.48612 0
M  V30 9599 O 932.82 0.624761 -1.77845 0
M  V30 9600 C 929.947 0.748487 -3.30326 0
M  V30 9601 C 928.993 -0.0135304 -4.26498 0
M  V30 9602 S 929.826 -1.35685 -5.18025 0
M  V30 9603 C 930.982 -0.432605 -6.24403 0
M  V30 9604 H 931.215 -0.966677 -2.81145 0
M  V30 9605 H 928.748 -0.612864 -1.41716 0
M  V30 9606 H 930.706 1.27893 -3.90069 0
M  V30 9607 H 929.367 1.50816 -2.75524 0
M  V30 9608 H 928.56 0.692454 -4.9922 0
M  V30 9609 H 928.162 -0.474344 -3.7098 0
M  V30 9610 H 930.454 0.378035 -6.76444 0
M  V30 9611 H 931.397 -1.12934 -6.99036 0
M  V30 9612 H 931.805 -0.0235533 -5.64495 0
M  V30 9613 N 931.203 1.46865 -0.571711 0
M  V30 9614 C 932.452 2.01636 -0.050881 0
M  V30 9615 C 932.765 1.45001 1.31279 0
M  V30 9616 O 933.971 1.91523 1.92435 0
M  V30 9617 C 932.427 3.59877 -0.0404114 0
M  V30 9618 C 932.035 4.25506 -1.40172 0
M  V30 9619 C 933.779 4.22346 0.42705 0
M  V30 9620 C 931.686 5.75795 -1.34958 0
M  V30 9621 H 930.616 0.753846 -0.0152514 0
M  V30 9622 H 933.267 1.68711 -0.721723 0
M  V30 9623 H 931.649 3.89829 0.696374 0
M  V30 9624 H 932.823 4.07178 -2.15737 0
M  V30 9625 H 931.138 3.75086 -1.8083 0
M  V30 9626 H 933.735 5.32499 0.484688 0
M  V30 9627 H 934.078 3.9052 1.44222 0
M  V30 9628 H 934.611 3.9698 -0.255326 0
M  V30 9629 H 931.35 6.12265 -2.3412 0
M  V30 9630 H 930.87 5.96419 -0.635962 0
M  V30 9631 H 932.549 6.38294 -1.05779 0
M  V30 9632 N 932.681 0.308908 1.54543 0
M  V30 9633 C 933.644 -0.550857 2.22482 0
M  V30 9634 C 934.644 -1.0551 1.21344 0
M  V30 9635 O 935.834 -0.949866 1.46025 0
M  V30 9636 C 932.966 -1.76354 2.9174 0
M  V30 9637 H 934.159 0.0428395 2.99869 0
M  V30 9638 H 931.712 0.059825 1.56185 0
M  V30 9639 H 932.447 -2.39686 2.18451 0
M  V30 9640 H 932.232 -1.40954 3.65889 0
M  V30 9641 H 933.722 -2.37417 3.43545 0
M  V30 9642 N 934.159 -1.57557 0.0367827 0
M  V30 9643 C 935.069 -2.14148 -0.958017 0
M  V30 9644 C 936.085 -1.09564 -1.35173 0
M  V30 9645 O 937.261 -1.4166 -1.43158 0
M  V30 9646 C 934.326 -2.6636 -2.21931 0
M  V30 9647 C 933.387 -3.85688 -1.8853 0
M  V30 9648 C 932.62 -4.35401 -3.08645 0
M  V30 9649 O 932.843 -3.8425 -4.21554 0
M  V30 9650 O 931.777 -5.27158 -2.90497 0
M  V30 9651 H 935.603 -2.99442 -0.506797 0
M  V30 9652 H 933.188 -1.48259 -0.184275 0
M  V30 9653 H 935.07 -2.99976 -2.9596 0
M  V30 9654 H 933.745 -1.84145 -2.66219 0
M  V30 9655 H 932.652 -3.56985 -1.11861 0
M  V30 9656 H 933.985 -4.69089 -1.49052 0
M  V30 9657 N 935.637 0.236453 -1.55816 0
M  V30 9658 C 936.885 0.96111 -1.77784 0
M  V30 9659 C 937.206 1.85454 -0.602648 0
M  V30 9660 O 936.476 1.92157 0.381137 0
M  V30 9661 H 935.056 0.35787 -0.655697 0
M  V30 9662 H 937.718 0.251888 -1.93265 0
M  V30 9663 H 936.814 1.5767 -2.69345 0
M  V30 9664 N 937.115 1.49373 0.502552 0
M  V30 9665 C 938.345 1.62252 1.27898 0
M  V30 9666 C 938.753 0.292555 1.86924 0
M  V30 9667 O 938.096 -0.731823 1.68493 0
M  V30 9668 C 938.158 2.63153 2.4493 0
M  V30 9669 C 937.822 4.07541 2.06784 0
M  V30 9670 C 938.819 4.94392 1.60849 0
M  V30 9671 C 936.504 4.53263 2.16466 0
M  V30 9672 C 938.498 6.25003 1.25098 0
M  V30 9673 C 936.185 5.83888 1.80327 0
M  V30 9674 C 937.183 6.69582 1.34718 0
M  V30 9675 O 936.871 7.97773 0.990661 0
M  V30 9676 H 936.603 0.54918 0.394179 0
M  V30 9677 H 939.157 1.96132 0.610031 0
M  V30 9678 H 937.387 2.2445 3.14895 0
M  V30 9679 H 939.076 2.65578 3.06957 0
M  V30 9680 H 939.842 4.60296 1.52816 0
M  V30 9681 H 935.721 3.86731 2.50919 0
M  V30 9682 H 939.265 6.91844 0.894269 0
M  V30 9683 H 935.162 6.17513 1.8801 0
M  V30 9684 H 935.93 8.1077 1.12227 0
M  V30 9685 N 938.594 -0.753485 1.38421 0
M  V30 9686 C 939.842 -1.50962 1.34368 0
M  V30 9687 C 940.163 -1.94889 -0.0656895 0
M  V30 9688 O 939.433 -1.67652 -1.01339 0
M  V30 9689 H 938.013 -0.559967 0.494415 0
M  V30 9690 H 940.675 -0.895665 1.73101 0
M  V30 9691 H 939.771 -2.40048 1.99458 0
M  V30 9692 N 940.072 -1.23292 -0.981677 0
M  V30 9693 C 941.349 -0.972514 -1.6971 0
M  V30 9694 C 941.729 0.509244 -2.04866 0
M  V30 9695 O 941.077 1.48013 -1.74082 0
M  V30 9696 C 941.287 -1.88144 -2.93943 0
M  V30 9697 C 942.635 -2.14416 -3.66485 0
M  V30 9698 O 943.659 -1.85684 -3.03974 0
M  V30 9699 O 942.518 -2.63139 -4.78978 0
M  V30 9700 H 939.612 -0.366673 -0.741269 0
M  V30 9701 H 942.158 -1.34328 -1.03701 0
M  V30 9702 H 940.93 -2.8832 -2.64551 0
M  V30 9703 H 940.553 -1.51296 -3.67689 0
M  V30 9704 N 941.55 1.18024 -1.04442 0
M  V30 9705 C 942.966 1.40107 -0.76435 0
M  V30 9706 C 943.166 1.90914 0.644516 0
M  V30 9707 O 942.222 2.0959 1.40813 0
M  V30 9708 C 943.535 2.39851 -1.81361 0
M  V30 9709 C 945.083 2.53571 -1.83496 0
M  V30 9710 C 945.558 3.56583 -2.87424 0
M  V30 9711 N 947.049 3.64094 -2.86339 0
M  V30 9712 C 947.784 4.43537 -3.63405 0
M  V30 9713 N 947.28 5.26557 -4.50233 0
M  V30 9714 N 949.073 4.38336 -3.51877 0
M  V30 9715 H 941.224 0.833726 -1.95353 0
M  V30 9716 H 943.487 0.42881 -0.845474 0
M  V30 9717 H 943.193 2.09576 -2.82438 0
M  V30 9718 H 943.067 3.39251 -1.6489 0
M  V30 9719 H 945.454 2.83161 -0.830883 0
M  V30 9720 H 945.535 1.54272 -2.04044 0
M  V30 9721 H 945.179 3.27733 -3.88012 0
M  V30 9722 H 945.109 4.55569 -2.6413 0
M  V30 9723 H 947.6 3.04814 -2.23376 0
M  V30 9724 H 947.913 5.84336 -5.05738 0
M  V30 9725 H 946.258 5.25964 -4.54298 0
M  V30 9726 H 949.449 3.72528 -2.83444 0
M  V30 9727 H 949.622 5.00007 -4.12186 0
M  V30 9728 N 943.028 0.824394 1.34319 0
M  V30 9729 C 944.444 0.510336 1.51221 0
M  V30 9730 C 944.644 -0.965201 1.76879 0
M  V30 9731 O 943.7 -1.74961 1.82057 0
M  V30 9732 C 945.013 1.37114 2.6762 0
M  V30 9733 C 946.561 1.36842 2.81502 0
M  V30 9734 C 947.036 2.21374 4.00946 0
M  V30 9735 N 948.527 2.19005 4.08156 0
M  V30 9736 C 949.262 2.81159 4.99737 0
M  V30 9737 N 948.758 3.52309 5.96532 0
M  V30 9738 N 950.551 2.70706 4.9262 0
M  V30 9739 H 942.702 1.77976 1.15924 0
M  V30 9740 H 944.965 0.758503 0.568663 0
M  V30 9741 H 944.671 2.41905 2.55294 0
M  V30 9742 H 944.545 1.03689 3.62669 0
M  V30 9743 H 946.932 0.328284 2.93268 0
M  V30 9744 H 947.013 1.74265 1.87257 0
M  V30 9745 H 946.657 3.25437 3.8994 0
M  V30 9746 H 946.587 1.813 4.94407 0
M  V30 9747 H 949.078 1.67252 3.38874 0
M  V30 9748 H 949.391 3.96977 6.63045 0
M  V30 9749 H 947.736 3.56415 5.96652 0
M  V30 9750 H 950.927 2.14694 4.15962 0
M  V30 9751 H 951.1 3.19431 5.63798 0
M  V30 9752 N 944.506 -1.46559 0.579492 0
M  V30 9753 C 945.734 -2.06784 0.0693648 0
M  V30 9754 C 946.149 -1.42875 -1.23419 0
M  V30 9755 O 945.506 -0.532919 -1.74546 0
M  V30 9756 C 945.557 -3.61343 -0.106511 0
M  V30 9757 O 945.278 -4.22861 1.14545 0
M  V30 9758 C 946.779 -4.38489 -0.651359 0
M  V30 9759 H 943.999 -0.66866 0.0559848 0
M  V30 9760 H 946.543 -1.88235 0.799245 0
M  V30 9761 H 944.698 -3.7933 -0.786601 0
M  V30 9762 H 945.112 -5.15691 0.95723 0
M  V30 9763 H 946.586 -5.47237 -0.723615 0
M  V30 9764 H 947.063 -4.06309 -1.66763 0
M  V30 9765 H 947.669 -4.253 -0.0062433 0
M  V30 9766 N 945.984 -0.3171 -1.54377 0
M  V30 9767 C 946.914 0.544623 -2.2706 0
M  V30 9768 C 947.895 1.12469 -1.27611 0
M  V30 9769 O 949.08 1.15103 -1.56413 0
M  V30 9770 C 946.21 1.70879 -3.02353 0
M  V30 9771 C 945.164 1.25833 -4.09084 0
M  V30 9772 C 944.49 2.50894 -4.72182 0
M  V30 9773 C 945.79 0.377876 -5.20931 0
M  V30 9774 H 947.484 -0.0616372 -2.99337 0
M  V30 9775 H 945.03 -0.0310848 -1.43966 0
M  V30 9776 H 946.983 2.31787 -3.51927 0
M  V30 9777 H 945.707 2.34155 -2.27682 0
M  V30 9778 H 944.366 0.672228 -3.60384 0
M  V30 9779 H 944.014 3.12518 -3.94134 0
M  V30 9780 H 943.714 2.21447 -5.44275 0
M  V30 9781 H 945.238 3.12575 -5.24528 0
M  V30 9782 H 946.652 0.893056 -5.66302 0
M  V30 9783 H 945.049 0.176474 -5.9984 0
M  V30 9784 H 946.119 -0.592943 -4.81261 0
M  V30 9785 N 947.462 1.57535 -0.0451378 0
M  V30 9786 C 948.372 2.14653 0.946646 0
M  V30 9787 C 949.388 1.10279 1.3459 0
M  V30 9788 O 950.564 1.42417 1.42405 0
M  V30 9789 C 947.629 2.67533 2.20515 0
M  V30 9790 C 946.69 3.86682 1.86481 0
M  V30 9791 C 945.923 4.37031 3.06332 0
M  V30 9792 O 946.146 3.86481 4.1951 0
M  V30 9793 O 945.08 5.28691 2.87697 0
M  V30 9794 H 948.906 2.99706 0.49091 0
M  V30 9795 H 946.491 1.48355 0.17641 0
M  V30 9796 H 948.373 3.01542 2.94365 0
M  V30 9797 H 947.048 1.85554 2.65238 0
M  V30 9798 H 945.955 3.57573 1.09966 0
M  V30 9799 H 947.288 4.69873 1.46562 0
M  V30 9800 N 948.94 -0.228186 1.55939 0
M  V30 9801 C 950.356 -0.577583 1.48782 0
M  V30 9802 C 950.556 -1.87461 0.738972 0
M  V30 9803 O 949.612 -2.50988 0.275929 0
M  V30 9804 C 950.925 -0.662961 2.93301 0
M  V30 9805 C 952.473 -0.754035 3.03782 0
M  V30 9806 C 952.948 -0.870815 4.49645 0
M  V30 9807 N 954.439 -0.935208 4.53661 0
M  V30 9808 C 955.174 -1.04516 5.63794 0
M  V30 9809 N 954.67 -1.11948 6.83696 0
M  V30 9810 N 956.463 -1.07978 5.51631 0
M  V30 9811 H 948.614 0.623018 2.03057 0
M  V30 9812 H 950.877 0.217692 0.922667 0
M  V30 9813 H 950.583 0.220375 3.51009 0
M  V30 9814 H 950.457 -1.52876 3.44831 0
M  V30 9815 H 952.844 -1.62782 2.46143 0
M  V30 9816 H 952.925 0.137301 2.55431 0
M  V30 9817 H 952.569 -0.0015186 5.079 0
M  V30 9818 H 952.499 -1.77747 4.95695 0
M  V30 9819 H 954.99 -0.88836 3.6731 0
M  V30 9820 H 955.303 -1.20297 7.6338 0
M  V30 9821 H 953.648 -1.08873 6.8642 0
M  V30 9822 H 956.839 -1.01833 4.56889 0
M  V30 9823 H 957.012 -1.16202 6.37496 0
M  V30 9824 N 950.418 -1.49637 -0.494624 0
M  V30 9825 C 951.834 -1.36541 -0.826361 0
M  V30 9826 C 952.034 -0.403386 -1.97421 0
M  V30 9827 O 951.09 0.162614 -2.51976 0
M  V30 9828 C 952.403 -2.77401 -1.16057 0
M  V30 9829 C 953.951 -2.86148 -1.26841 0
M  V30 9830 C 954.426 -4.27789 -1.63587 0
M  V30 9831 N 955.917 -4.3063 -1.70624 0
M  V30 9832 C 956.652 -5.37198 -2.00514 0
M  V30 9833 N 956.148 -6.54004 -2.28584 0
M  V30 9834 N 957.941 -5.2462 -2.01818 0
M  V30 9835 H 950.092 -2.10776 0.26219 0
M  V30 9836 H 952.355 -0.946419 0.0547235 0
M  V30 9837 H 952.061 -3.49526 -0.390434 0
M  V30 9838 H 951.935 -3.1317 -2.10249 0
M  V30 9839 H 954.322 -2.14256 -2.02925 0
M  V30 9840 H 954.403 -2.53953 -0.30684 0
M  V30 9841 H 954.047 -5.00209 -0.880507 0
M  V30 9842 H 953.977 -4.57453 -2.60854 0
M  V30 9843 H 956.468 -3.46393 -1.51065 0
M  V30 9844 H 956.781 -7.31041 -2.50598 0
M  V30 9845 H 955.126 -6.57219 -2.26027 0
M  V30 9846 H 958.317 -4.32371 -1.79369 0
M  V30 9847 H 958.49 -6.07765 -2.24778 0
M  V30 9848 N 951.896 0.746133 -1.38819 0
M  V30 9849 C 953.145 1.50085 -1.34749 0
M  V30 9850 C 953.458 1.95516 0.0574786 0
M  V30 9851 O 954.664 2.70601 0.22073 0
M  V30 9852 C 953.12 2.71141 -2.36665 0
M  V30 9853 C 952.728 2.32706 -3.82821 0
M  V30 9854 C 954.472 3.49005 -2.41652 0
M  V30 9855 C 952.379 3.50418 -4.76405 0
M  V30 9856 H 951.309 0.563563 -0.500912 0
M  V30 9857 H 953.96 0.814951 -1.6441 0
M  V30 9858 H 952.342 3.4175 -2.00058 0
M  V30 9859 H 953.516 1.69715 -4.28408 0
M  V30 9860 H 951.831 1.67959 -3.81023 0
M  V30 9861 H 954.428 4.36541 -3.08766 0
M  V30 9862 H 954.771 3.90687 -1.43769 0
M  V30 9863 H 955.304 2.85416 -2.77097 0
M  V30 9864 H 952.043 3.13795 -5.75511 0
M  V30 9865 H 951.563 4.12426 -4.35505 0
M  V30 9866 H 953.242 4.16901 -4.94775 0
M  V30 9867 N 953.375 1.23811 0.975125 0
M  V30 9868 C 954.307 0.981779 2.07108 0
M  V30 9869 C 955.32 -0.0461211 1.62735 0
M  V30 9870 O 956.509 0.190039 1.77486 0
M  V30 9871 C 953.609 0.458364 3.35786 0
M  V30 9872 C 952.782 1.54767 4.09104 0
M  V30 9873 C 951.841 1.0282 5.16057 0
M  V30 9874 O 950.867 1.71831 5.42644 0
M  V30 9875 N 952.069 -0.141243 5.80328 0
M  V30 9876 H 954.834 1.92537 2.29673 0
M  V30 9877 H 952.395 1.1474 1.14221 0
M  V30 9878 H 954.387 0.0957686 4.04587 0
M  V30 9879 H 952.957 -0.390768 3.10148 0
M  V30 9880 H 952.177 2.08279 3.34684 0
M  V30 9881 H 953.465 2.28006 4.54853 0
M  V30 9882 H 952.863 -0.718382 5.6112 0
M  V30 9883 H 951.42 -0.445052 6.50279 0
M  V30 9884 N 954.853 -1.17469 1.05066 0
M  V30 9885 C 956.101 -1.87327 0.758485 0
M  V30 9886 C 956.422 -1.81358 -0.716549 0
M  V30 9887 O 955.692 -1.23868 -1.51768 0
M  V30 9888 H 954.272 -0.693512 0.277579 0
M  V30 9889 H 956.934 -1.4251 1.32954 0
M  V30 9890 H 956.03 -2.93101 1.0723 0
M  V30 9891 N 956.331 -0.831506 -1.3388 0
M  V30 9892 C 957.264 -0.2046 -2.27281 0
M  V30 9893 C 958.242 0.643992 -1.49303 0
M  V30 9894 O 959.426 0.605863 -1.78498 0
M  V30 9895 C 956.553 0.713409 -3.31101 0
M  V30 9896 C 955.599 -0.0587654 -4.2646 0
M  V30 9897 S 956.432 -1.41172 -5.16557 0
M  V30 9898 C 957.588 -0.498807 -6.23909 0
M  V30 9899 H 957.821 -0.996442 -2.80104 0
M  V30 9900 H 955.354 -0.62786 -1.41058 0
M  V30 9901 H 957.312 1.23748 -3.91403 0
M  V30 9902 H 955.973 1.47885 -2.77108 0
M  V30 9903 H 955.166 0.639466 -4.99927 0
M  V30 9904 H 954.768 -0.513665 -3.70456 0
M  V30 9905 H 957.06 0.306268 -6.76807 0
M  V30 9906 H 958.003 -1.20342 -6.97799 0
M  V30 9907 H 958.411 -0.0834242 -5.64438 0
M  V30 9908 N 957.809 1.4625 -0.587256 0
M  V30 9909 C 958.719 2.34147 0.145744 0
M  V30 9910 C 959.735 1.50026 0.881376 0
M  V30 9911 O 960.911 1.82884 0.843539 0
M  V30 9912 C 957.976 3.27294 1.14366 0
M  V30 9913 C 957.037 4.27317 0.412199 0
M  V30 9914 C 956.27 5.16013 1.36257 0
M  V30 9915 O 956.493 5.0773 2.59934 0
M  V30 9916 O 955.427 5.95569 0.870681 0
M  V30 9917 H 959.253 2.98187 -0.576055 0
M  V30 9918 H 956.838 1.45299 -0.347628 0
M  V30 9919 H 958.72 3.84747 1.71894 0
M  V30 9920 H 957.395 2.65845 1.84684 0
M  V30 9921 H 956.302 3.73538 -0.205036 0
M  V30 9922 H 957.635 4.91564 -0.250104 0
M  V30 9923 N 959.287 0.325282 1.54207 0
M  V30 9924 C 960.234 -0.539889 2.24397 0
M  V30 9925 C 961.204 -1.11028 1.2354 0
M  V30 9926 O 962.389 -1.1503 1.52226 0
M  V30 9927 C 959.529 -1.69405 3.00659 0
M  V30 9928 C 958.642 -1.15273 4.16337 0
M  V30 9929 C 957.777 -2.27272 4.80126 0
M  V30 9930 C 956.816 -1.70397 5.87904 0
M  V30 9931 N 955.953 -2.76065 6.45548 0
M  V30 9932 H 960.793 0.0652318 2.97929 0
M  V30 9933 H 958.33 0.043964 1.47034 0
M  V30 9934 H 960.288 -2.37325 3.43122 0
M  V30 9935 H 958.918 -2.27043 2.29458 0
M  V30 9936 H 957.97 -0.365034 3.78645 0
M  V30 9937 H 959.282 -0.696576 4.93912 0
M  V30 9938 H 958.436 -3.03092 5.25566 0
M  V30 9939 H 957.175 -2.76224 4.01935 0
M  V30 9940 H 956.18 -0.930752 5.41864 0
M  V30 9941 H 957.405 -1.22319 6.67993 0
M  V30 9942 H 955.351 -3.24306 5.7023 0
M  V30 9943 H 955.268 -2.35018 7.18542 0
M  V30 9944 H 956.536 -3.5171 6.95644 0
M  V30 9945 N 960.765 -1.57509 0.0534917 0
M  V30 9946 C 962.011 -1.93887 -0.614776 0
M  V30 9947 C 962.366 -0.932098 -1.68314 0
M  V30 9948 O 961.659 0.0483848 -1.91539 0
M  V30 9949 C 961.853 -3.34734 -1.25251 0
M  V30 9950 C 961.682 -4.49019 -0.247444 0
M  V30 9951 C 960.452 -5.05042 0.161406 0
M  V30 9952 C 962.65 -5.11784 0.508059 0
M  V30 9953 N 960.632 -6.02858 1.15909 0
M  V30 9954 C 962.003 -6.04928 1.35876 0
M  V30 9955 C 964.058 -4.94671 0.56612 0
M  V30 9956 C 962.761 -6.82797 2.26232 0
M  V30 9957 C 964.787 -5.73168 1.45712 0
M  V30 9958 C 964.149 -6.65946 2.29554 0
M  V30 9959 H 960.248 -0.756899 -0.196538 0
M  V30 9960 H 962.832 -1.94289 0.126365 0
M  V30 9961 H 961.003 -3.35104 -1.96367 0
M  V30 9962 H 962.735 -3.58395 -1.87977 0
M  V30 9963 H 959.49 -4.73098 -0.218025 0
M  V30 9964 H 959.914 -6.56462 1.6549 0
M  V30 9965 H 964.556 -4.22746 -0.0678652 0
M  V30 9966 H 962.274 -7.54012 2.90675 0
M  V30 9967 H 965.86 -5.61953 1.50664 0
M  V30 9968 H 964.74 -7.25627 2.97381 0
M  V30 9969 N 962.243 0.219913 -1.56058 0
M  V30 9970 C 963.173 1.27572 -1.9557 0
M  V30 9971 C 964.154 1.48801 -0.824148 0
M  V30 9972 O 965.339 1.60957 -1.08658 0
M  V30 9973 C 962.469 2.62517 -2.27381 0
M  V30 9974 C 961.423 2.55941 -3.43042 0
M  V30 9975 C 960.749 3.94931 -3.60463 0
M  V30 9976 C 962.049 2.10584 -4.77966 0
M  V30 9977 H 963.743 0.947482 -2.84013 0
M  V30 9978 H 961.289 0.454337 -1.36645 0
M  V30 9979 H 963.242 3.36538 -2.53615 0
M  V30 9980 H 961.966 2.97031 -1.35794 0
M  V30 9981 H 960.625 1.84377 -3.1686 0
M  V30 9982 H 960.273 4.26756 -2.66249 0
M  V30 9983 H 959.973 3.91413 -4.38258 0
M  V30 9984 H 961.497 4.70611 -3.89046 0
M  V30 9985 H 962.911 2.74349 -5.03394 0
M  V30 9986 H 961.308 2.18122 -5.59055 0
M  V30 9987 H 962.378 1.05818 -4.73213 0
M  V30 9988 N 963.721 1.49897 0.486681 0
M  V30 9989 C 964.684 1.67086 1.56891 0
M  V30 9990 C 965.684 0.54209 1.51387 0
M  V30 9991 O 966.874 0.80883 1.54284 0
M  V30 9992 C 964.006 1.68159 2.96539 0
M  V30 9993 H 965.199 2.63626 1.42974 0
M  V30 9994 H 962.752 1.39143 0.711954 0
M  V30 9995 H 963.487 0.732562 3.15918 0
M  V30 9996 H 963.272 2.50147 3.01942 0
M  V30 9997 H 964.762 1.83466 3.7514 0
M  V30 9998 N 965.199 -0.738761 1.39212 0
M  V30 9999 C 966.147 -1.8741 1.3777 0
M  V30 10000 C 967.141 -1.67371 0.261375 0
M  V30 10001 O 968.347 -1.74759 0.431209 0
M  V30 10002 H 964.722 -0.616843 0.430126 0
M  V30 10003 H 966.693 -1.85742 2.33543 0
M  V30 10004 C 965.442 -3.25053 1.23433 0
M  V30 10005 H 964.765 -3.41066 2.086 0
M  V30 10006 H 966.205 -4.04696 1.2648 0
M  V30 10007 C 964.664 -3.36851 -0.0575624 0
M  V30 10008 O 965.194 -3.88293 -1.02915 0
M  V30 10009 N 963.4 -2.90355 -0.119364 0
M  V30 10010 H 962.947 -2.48681 0.671976 0
M  V30 10011 H 962.905 -2.98628 -0.983286 0
M  V30 10012 N 966.677 -1.24326 -0.968545 0
M  V30 10013 C 968.088 -1.07561 -1.52603 0
M  V30 10014 C 968.439 0.353245 -1.92994 0
M  V30 10015 O 967.564 1.24151 -1.77244 0
M  V30 10016 C 968.159 -1.94634 -2.77314 0
M  V30 10017 C 966.718 -1.82095 -3.29421 0
M  V30 10018 C 965.865 -1.8962 -2.02335 0
M  V30 10019 H 968.816 -1.37815 -0.786932 0
M  V30 10020 H 968.837 -1.47812 -3.50616 0
M  V30 10021 H 968.349 -2.98621 -2.47885 0
M  V30 10022 H 966.45 -0.809376 -3.63703 0
M  V30 10023 H 966.563 -2.66142 -3.98378 0
M  V30 10024 H 964.927 -1.33339 -2.17009 0
M  V30 10025 H 965.71 -2.95185 -1.75273 0
M  V30 10026 N 968.156 1.1691 -1.05688 0
M  V30 10027 C 969.066 2.24735 -0.67315 0
M  V30 10028 C 970.082 1.71252 0.308043 0
M  V30 10029 O 971.258 2.00772 0.158889 0
M  V30 10030 C 968.323 3.4665 -0.059026 0
M  V30 10031 C 967.384 4.15198 -1.0913 0
M  V30 10032 C 966.617 5.31292 -0.50639 0
M  V30 10033 O 966.84 5.663 0.682692 0
M  V30 10034 O 965.774 5.88923 -1.2431 0
M  V30 10035 H 969.6 2.59855 -1.57191 0
M  V30 10036 H 967.185 1.24306 -0.828751 0
M  V30 10037 H 969.067 4.20455 0.282018 0
M  V30 10038 H 967.742 3.13316 0.813304 0
M  V30 10039 H 966.649 3.43389 -1.48442 0
M  V30 10040 H 967.982 4.52571 -1.93495 0
M  V30 10041 N 969.634 0.838594 1.33437 0
M  V30 10042 C 970.564 0.286672 2.31734 0
M  V30 10043 C 971.545 -0.605451 1.5896 0
M  V30 10044 O 972.73 -0.529059 1.86854 0
M  V30 10045 C 969.86 -0.539311 3.43087 0
M  V30 10046 C 968.814 0.256997 4.27228 0
M  V30 10047 C 968.14 -0.692718 5.30194 0
M  V30 10048 C 969.44 1.47391 5.01072 0
M  V30 10049 H 971.134 1.10798 2.78144 0
M  V30 10050 H 968.68 0.534235 1.33723 0
M  V30 10051 H 970.633 -0.935724 4.1088 0
M  V30 10052 H 969.357 -1.39383 2.95364 0
M  V30 10053 H 968.016 0.634967 3.61059 0
M  V30 10054 H 967.664 -1.54363 4.78729 0
M  V30 10055 H 967.364 -0.164023 5.87371 0
M  V30 10056 H 968.888 -1.08665 6.00853 0
M  V30 10057 H 970.302 1.15067 5.61634 0
M  V30 10058 H 968.699 1.93937 5.67898 0
M  V30 10059 H 969.769 2.24382 4.29861 0
M  V30 10060 N 971.112 -1.45937 0.595003 0
M  V30 10061 C 972.042 -2.33198 -0.11871 0
M  V30 10062 C 973.023 -1.46083 -0.871423 0
M  V30 10063 O 974.208 -1.74879 -0.844461 0
M  V30 10064 C 971.338 -3.28576 -1.12495 0
M  V30 10065 C 970.292 -4.25229 -0.486275 0
M  V30 10066 C 969.618 -5.10204 -1.59986 0
M  V30 10067 C 970.918 -5.19019 0.584473 0
M  V30 10068 H 972.612 -2.93122 0.609886 0
M  V30 10069 H 970.158 -1.40951 0.294742 0
M  V30 10070 H 972.111 -3.88485 -1.6327 0
M  V30 10071 H 970.835 -2.66784 -1.88398 0
M  V30 10072 H 969.494 -3.666 0.000507962 0
M  V30 10073 H 969.142 -4.44789 -2.34886 0
M  V30 10074 H 968.842 -5.75669 -1.1781 0
M  V30 10075 H 970.366 -5.7298 -2.11014 0
M  V30 10076 H 971.78 -5.73073 0.161297 0
M  V30 10077 H 970.177 -5.92893 0.927256 0
M  V30 10078 H 971.247 -4.62208 1.46601 0
M  V30 10079 N 972.59 -0.333456 -1.54032 0
M  V30 10080 C 973.5 0.536674 -2.28379 0
M  V30 10081 C 974.516 1.12068 -1.33104 0
M  V30 10082 O 975.692 1.13853 -1.66131 0
M  V30 10083 C 972.757 1.67677 -3.03456 0
M  V30 10084 C 971.818 1.12357 -4.14336 0
M  V30 10085 C 971.051 2.20933 -4.85823 0
M  V30 10086 O 971.274 3.41466 -4.569 0
M  V30 10087 O 970.208 1.85795 -5.72507 0
M  V30 10088 H 974.034 -0.0674003 -3.03625 0
M  V30 10089 H 971.619 -0.098823 -1.49073 0
M  V30 10090 H 973.501 2.34032 -3.50438 0
M  V30 10091 H 972.176 2.26684 -2.31076 0
M  V30 10092 H 971.083 0.424827 -3.7168 0
M  V30 10093 H 972.416 0.578497 -4.88789 0
M  V30 10094 N 974.068 1.57479 -0.061844 0
M  V30 10095 C 975.031 2.1104 0.894127 0
M  V30 10096 C 976.031 1.03227 1.23292 0
M  V30 10097 O 977.221 1.29256 1.16784 0
M  V30 10098 C 974.353 2.6035 2.20069 0
M  V30 10099 H 975.546 2.96807 0.429619 0
M  V30 10100 H 973.099 1.55181 0.18672 0
M  V30 10101 H 973.834 1.78008 2.71079 0
M  V30 10102 H 973.619 3.39146 1.9678 0
M  V30 10103 H 975.109 3.019 2.88525 0
M  V30 10104 N 975.546 -0.211634 1.56173 0
M  V30 10105 C 976.823 -0.959467 1.70451 0
M  V30 10106 C 977.203 -2.02036 0.611942 0
M  V30 10107 O 976.551 -2.25325 -0.37959 0
M  V30 10108 C 976.761 -1.56092 3.12148 0
M  V30 10109 C 978.109 -2.04939 3.71867 0
M  V30 10110 O 979.133 -1.65966 3.15172 0
M  V30 10111 O 977.992 -2.766 4.71333 0
M  V30 10112 H 975.086 -0.448844 0.6946 0
M  V30 10113 H 977.632 -0.202633 1.68486 0
M  V30 10114 H 976.404 -0.79538 3.83131 0
M  V30 10115 H 976.027 -2.38303 3.18273 0
M  V30 10116 N 977.024 -1.50153 -0.478725 0
M  V30 10117 C 977.987 -1.67916 -1.56003 0
M  V30 10118 C 978.987 -0.550111 -1.51097 0
M  V30 10119 O 980.177 -0.817001 -1.53853 0
M  V30 10120 C 977.309 -1.6973 -2.95643 0
M  V30 10121 H 978.502 -2.6438 -1.41573 0
M  V30 10122 H 976.055 -1.39519 -0.704565 0
M  V30 10123 H 976.79 -0.749306 -3.15525 0
M  V30 10124 H 976.575 -2.51745 -3.00611 0
M  V30 10125 H 978.065 -1.85453 -3.74162 0
M  V30 10126 N 978.502 0.731368 -1.39602 0
M  V30 10127 C 979.779 1.48308 -1.27531 0
M  V30 10128 C 980.159 2.10795 0.113482 0
M  V30 10129 O 979.507 1.98886 1.12501 0
M  V30 10130 C 979.717 2.53156 -2.40235 0
M  V30 10131 C 981.065 3.19436 -2.79725 0
M  V30 10132 O 982.089 2.6347 -2.39712 0
M  V30 10133 O 980.948 4.20714 -3.48801 0
M  V30 10134 H 978.042 0.658753 -0.499973 0
M  V30 10135 H 980.588 0.764884 -1.51485 0
M  V30 10136 H 979.36 2.05387 -3.33064 0
M  V30 10137 H 978.983 3.3253 -2.17966 0
M  V30 10138 N 979.98 1.24838 0.961938 0
M  V30 10139 C 980.943 1.04674 2.03902 0
M  V30 10140 C 981.943 0.00204674 1.608 0
M  V30 10141 O 983.133 0.243555 1.72489 0
M  V30 10142 C 980.265 0.587736 3.35795 0
M  V30 10143 H 981.458 2.00278 2.23223 0
M  V30 10144 H 979.011 1.07142 1.138 0
M  V30 10145 H 979.746 -0.371244 3.22168 0
M  V30 10146 H 979.531 1.34182 3.68426 0
M  V30 10147 H 981.021 0.467867 4.14971 0
M  V30 10148 N 981.458 -1.16348 1.06306 0
M  V30 10149 C 982.368 -2.24375 0.685059 0
M  V30 10150 C 983.384 -1.71413 -0.298956 0
M  V30 10151 O 984.56 -2.00854 -0.148239 0
M  V30 10152 C 981.625 -3.46614 0.0774088 0
M  V30 10153 C 980.686 -4.14613 1.11331 0
M  V30 10154 C 979.919 -5.31016 0.534559 0
M  V30 10155 O 980.142 -5.66654 -0.65265 0
M  V30 10156 O 979.076 -5.88256 1.27431 0
M  V30 10157 H 982.902 -2.59018 1.58566 0
M  V30 10158 H 980.487 -1.23865 0.835332 0
M  V30 10159 H 982.369 -4.20599 -0.259716 0
M  V30 10160 H 981.044 -3.13743 -0.796677 0
M  V30 10161 H 979.951 -3.42597 1.50261 0
M  V30 10162 H 981.284 -4.51538 1.95893 0
M  V30 10163 N 982.937 -0.845659 -1.3299 0
M  V30 10164 C 984.167 -0.457686 -2.01467 0
M  V30 10165 C 984.575 0.947664 -1.63756 0
M  V30 10166 O 983.918 1.62841 -0.850213 0
M  V30 10167 C 983.98 -0.506589 -3.55913 0
M  V30 10168 C 983.644 -1.86924 -4.17023 0
M  V30 10169 C 984.641 -2.83344 -4.35904 0
M  V30 10170 C 982.326 -2.16394 -4.53298 0
M  V30 10171 C 984.32 -4.07391 -4.90216 0
M  V30 10172 C 982.007 -3.40695 -5.07316 0
M  V30 10173 C 983.005 -4.3601 -5.25722 0
M  V30 10174 O 982.693 -5.58112 -5.7859 0
M  V30 10175 H 982.425 -0.179258 -0.651799 0
M  V30 10176 H 984.979 -1.14172 -1.70745 0
M  V30 10177 H 983.209 0.234253 -3.8599 0
M  V30 10178 H 984.898 -0.135487 -4.05674 0
M  V30 10179 H 985.664 -2.61879 -4.08221 0
M  V30 10180 H 981.543 -1.42994 -4.38262 0
M  V30 10181 H 985.087 -4.81796 -5.04498 0
M  V30 10182 H 980.984 -3.62014 -5.3443 0
M  V30 10183 H 981.752 -5.59946 -5.96995 0
M  V30 10184 N 984.415 1.45619 -0.602734 0
M  V30 10185 C 985.378 2.28941 0.108962 0
M  V30 10186 C 986.378 1.39501 0.799762 0
M  V30 10187 O 987.568 1.61673 0.648663 0
M  V30 10188 C 984.7 3.204 1.16432 0
M  V30 10189 H 985.893 2.93346 -0.623534 0
M  V30 10190 H 983.446 1.52061 -0.361565 0
M  V30 10191 H 984.181 2.60785 1.92774 0
M  V30 10192 H 983.966 3.86277 0.673248 0
M  V30 10193 H 985.456 3.83063 1.6629 0
M  V30 10194 N 985.893 0.34162 1.53853 0
M  V30 10195 C 986.856 -0.503541 2.236 0
M  V30 10196 C 987.856 -1.02912 1.23554 0
M  V30 10197 O 989.046 -0.918678 1.48007 0
M  V30 10198 C 986.178 -1.70126 2.95415 0
M  V30 10199 H 987.371 0.106437 2.99711 0
M  V30 10200 H 984.924 0.0929408 1.56023 0
M  V30 10201 H 985.659 -2.34999 2.23486 0
M  V30 10202 H 985.444 -1.33161 3.68796 0
M  V30 10203 H 986.934 -2.30077 3.48503 0
M  V30 10204 N 987.371 -1.57444 0.0701946 0
M  V30 10205 C 988.617 -1.93716 -0.600178 0
M  V30 10206 C 988.95 -0.950329 -1.69359 0
M  V30 10207 O 988.225 0.0207123 -1.94489 0
M  V30 10208 C 988.508 -3.40266 -1.17861 0
M  V30 10209 C 988.361 -4.49706 -0.0919575 0
M  V30 10210 C 989.68 -3.87599 -2.08459 0
M  V30 10211 H 986.799 -0.704421 -0.216704 0
M  V30 10212 H 989.441 -1.89514 0.135838 0
M  V30 10213 H 987.591 -3.43977 -1.80587 0
M  V30 10214 H 989.263 -4.58116 0.541031 0
M  V30 10215 H 987.506 -4.29937 0.577639 0
M  V30 10216 H 988.177 -5.49381 -0.537048 0
M  V30 10217 H 990.653 -3.85883 -1.5567 0
M  V30 10218 H 989.529 -4.90755 -2.45867 0
M  V30 10219 H 989.79 -3.25448 -2.99226 0
M  V30 10220 N 988.849 0.203349 -1.56283 0
M  V30 10221 C 990.098 0.92315 -1.79334 0
M  V30 10222 C 990.411 1.84765 -0.641977 0
M  V30 10223 O 991.617 2.60745 -0.756584 0
M  V30 10224 C 990.073 1.69184 -3.17655 0
M  V30 10225 C 989.681 0.812581 -4.40569 0
M  V30 10226 C 991.425 2.40177 -3.50022 0
M  V30 10227 C 989.332 1.57967 -5.69913 0
M  V30 10228 H 988.262 0.348442 -0.668659 0
M  V30 10229 H 990.913 0.1766 -1.82648 0
M  V30 10230 H 989.295 2.48197 -3.08568 0
M  V30 10231 H 990.469 0.0616956 -4.60759 0
M  V30 10232 H 988.784 0.21389 -4.1585 0
M  V30 10233 H 991.381 2.98103 -4.4389 0
M  V30 10234 H 991.724 3.13961 -2.73376 0
M  V30 10235 H 992.257 1.68138 -3.6052 0
M  V30 10236 H 988.996 0.884767 -6.49501 0
M  V30 10237 H 988.516 2.3047 -5.53754 0
M  V30 10238 H 990.195 2.13562 -6.10737 0
M  V30 10239 N 990.327 1.50405 0.470755 0
M  V30 10240 C 991.604 1.51929 1.23195 0
M  V30 10241 C 991.984 0.264159 2.09441 0
M  V30 10242 O 991.332 -0.752395 2.15757 0
M  V30 10243 C 991.542 2.81521 2.06269 0
M  V30 10244 C 992.89 3.32195 2.64446 0
M  V30 10245 O 993.914 2.82845 2.16511 0
M  V30 10246 O 992.773 4.18221 3.51786 0
M  V30 10247 H 989.867 0.609411 0.559059 0
M  V30 10248 H 992.413 1.62695 0.482549 0
M  V30 10249 H 991.185 3.64346 1.42715 0
M  V30 10250 H 990.808 2.7376 2.88342 0
M  V30 10251 N 991.805 -0.723954 1.39988 0
M  V30 10252 C 993.054 -1.47922 1.3712 0
M  V30 10253 C 993.367 -1.95582 -0.0263665 0
M  V30 10254 O 994.573 -2.70918 -0.177652 0
M  V30 10255 C 993.029 -2.67342 2.40949 0
M  V30 10256 C 992.637 -2.26586 3.86475 0
M  V30 10257 C 994.381 -3.45116 2.47174 0
M  V30 10258 C 992.288 -3.42794 4.81919 0
M  V30 10259 H 991.218 -0.555522 0.509815 0
M  V30 10260 H 993.869 -0.788692 1.65686 0
M  V30 10261 H 992.251 -3.38524 2.0547 0
M  V30 10262 H 993.425 -1.62878 4.31054 0
M  V30 10263 H 991.74 -1.61876 3.83647 0
M  V30 10264 H 994.337 -4.31573 3.15672 0
M  V30 10265 H 994.68 -3.8835 1.49966 0
M  V30 10266 H 995.213 -2.80971 2.81602 0
M  V30 10267 H 991.952 -3.046 5.8043 0
M  V30 10268 H 991.472 -4.05445 4.42012 0
M  V30 10269 H 993.151 -4.08977 5.01345 0
M  V30 10270 N 993.283 -1.25346 -0.955304 0
M  V30 10271 C 994.56 -1.00829 -1.67609 0
M  V30 10272 C 994.94 0.465675 -2.059 0
M  V30 10273 O 994.288 1.44287 -1.77182 0
M  V30 10274 C 994.498 -1.94337 -2.89886 0
M  V30 10275 C 995.846 -2.22142 -3.61854 0
M  V30 10276 O 996.87 -1.9209 -2.99967 0
M  V30 10277 O 995.729 -2.73239 -4.73289 0
M  V30 10278 H 992.823 -0.382314 -0.733325 0
M  V30 10279 H 995.369 -1.36498 -1.00829 0
M  V30 10280 H 994.141 -2.93867 -2.58376 0
M  V30 10281 H 993.764 -1.59062 -3.64397 0
M  V30 10282 N 994.761 1.15782 -1.06922 0
M  V30 10283 C 995.691 2.22538 -0.707045 0
M  V30 10284 C 996.672 1.67371 0.303471 0
M  V30 10285 O 997.857 1.9339 0.177189 0
M  V30 10286 C 994.987 3.47158 -0.0994269 0
M  V30 10287 C 993.941 4.15257 -1.03661 0
M  V30 10288 C 993.267 5.33902 -0.291974 0
M  V30 10289 C 994.567 4.65516 -2.36837 0
M  V30 10290 H 996.261 2.53089 -1.59958 0
M  V30 10291 H 993.807 1.21649 -0.770552 0
M  V30 10292 H 995.76 4.21073 0.165852 0
M  V30 10293 H 994.484 3.15926 0.828155 0
M  V30 10294 H 993.143 3.43276 -1.28674 0
M  V30 10295 H 992.791 4.98926 0.638928 0
M  V30 10296 H 992.491 5.80407 -0.916613 0
M  V30 10297 H 994.015 6.1059 -0.0343915 0
M  V30 10298 H 995.429 5.30981 -2.16175 0
M  V30 10299 H 993.826 5.22666 -2.94856 0
M  V30 10300 H 994.896 3.81387 -2.99453 0
M  V30 10301 N 996.239 0.8527 1.3254 0
M  V30 10302 C 997.202 0.300959 2.27215 0
M  V30 10303 C 998.202 -0.538235 1.51525 0
M  V30 10304 O 999.392 -0.350027 1.70647 0
M  V30 10305 C 996.524 -0.574428 3.36025 0
M  V30 10306 H 997.717 1.13655 2.77529 0
M  V30 10307 H 995.27 0.626878 1.43178 0
M  V30 10308 H 996.005 -1.43191 2.90976 0
M  V30 10309 H 995.79 0.0262265 3.92091 0
M  V30 10310 H 997.28 -0.9533 4.06573 0
M  V30 10311 N 997.718 -1.45297 0.610449 0
M  V30 10312 C 998.995 -1.95562 0.0386189 0
M  V30 10313 C 999.375 -1.55284 -1.43004 0
M  V30 10314 O 998.723 -0.816785 -2.13403 0
M  V30 10315 C 998.933 -3.48176 0.239731 0
M  V30 10316 C 1000.28 -4.24425 0.122035 0
M  V30 10317 O 1001.3 -3.55794 0.170003 0
M  V30 10318 O 1000.16 -5.46499 0.00953695 0
M  V30 10319 H 997.258 -0.826296 -0.0341081 0
M  V30 10320 H 999.804 -1.55449 0.68071 0
M  V30 10321 H 998.576 -3.70471 1.25963 0
M  V30 10322 H 998.199 -3.95186 -0.437486 0
M  V30 10323 N 999.196 -0.349774 -1.5367 0
M  V30 10324 C 1000.44 0.245862 -2.00196 0
M  V30 10325 C 1000.76 1.51154 -1.24144 0
M  V30 10326 O 1001.96 2.18481 -1.61178 0
M  V30 10327 C 1000.42 0.488665 -3.56567 0
M  V30 10328 C 1000.03 -0.761475 -4.41481 0
M  V30 10329 C 1001.77 1.04282 -4.11492 0
M  V30 10330 C 999.679 -0.489128 -5.89374 0
M  V30 10331 H 998.609 0.0956493 -0.747909 0
M  V30 10332 H 1001.26 -0.466068 -1.77483 0
M  V30 10333 H 999.642 1.26145 -3.75371 0
M  V30 10334 H 1000.82 -1.53585 -4.34452 0
M  V30 10335 H 999.131 -1.23771 -3.9758 0
M  V30 10336 H 1001.73 1.26164 -5.19603 0
M  V30 10337 H 1002.07 2.00023 -3.65098 0
M  V30 10338 H 1002.6 0.330582 -3.96424 0
M  V30 10339 H 999.343 -1.41643 -6.40014 0
M  V30 10340 H 998.863 0.247039 -5.99291 0
M  V30 10341 H 1000.54 -0.1087 -6.46909 0
M  V30 10342 N 1000.67 1.57404 -0.0785433 0
M  V30 10343 C 1001.62 2.13104 0.88631 0
M  V30 10344 C 1002.59 1.04527 1.29086 0
M  V30 10345 O 1003.78 1.32226 1.37553 0
M  V30 10346 C 1000.92 2.70252 2.14611 0
M  V30 10347 C 1000.03 3.93007 1.79358 0
M  V30 10348 C 999.164 4.38376 3 0
M  V30 10349 C 998.203 5.53761 2.60796 0
M  V30 10350 N 997.34 5.94058 3.74219 0
M  V30 10351 H 1002.18 2.95243 0.404452 0
M  V30 10352 H 999.717 1.45894 0.187982 0
M  V30 10353 H 1001.67 3.01497 2.88367 0
M  V30 10354 H 1000.3 1.90868 2.60326 0
M  V30 10355 H 999.357 3.68181 0.956384 0
M  V30 10356 H 1000.67 4.76795 1.4652 0
M  V30 10357 H 999.823 4.71317 3.82027 0
M  V30 10358 H 998.562 3.53455 3.36037 0
M  V30 10359 H 997.567 5.20464 1.77192 0
M  V30 10360 H 998.792 6.40419 2.25922 0
M  V30 10361 H 996.738 5.12085 4.10005 0
M  V30 10362 H 996.655 6.72602 3.45171 0
M  V30 10363 H 997.923 6.31624 4.56805 0
M  V30 10364 N 1002.15 -0.195058 1.56388 0
M  V30 10365 C 1003.06 -1.26219 1.97752 0
M  V30 10366 C 1004.08 -1.49801 0.885192 0
M  V30 10367 O 1005.25 -1.62415 1.19094 0
M  V30 10368 C 1002.32 -2.5865 2.3087 0
M  V30 10369 C 1001.38 -2.4314 3.5381 0
M  V30 10370 C 1000.61 -3.69255 3.85339 0
M  V30 10371 O 1000.84 -4.73425 3.18159 0
M  V30 10372 O 999.77 -3.64782 4.78767 0
M  V30 10373 H 1003.6 -0.941161 2.88749 0
M  V30 10374 H 1001.18 -0.40006 1.43944 0
M  V30 10375 H 1003.06 -3.36814 2.53247 0
M  V30 10376 H 1001.74 -2.9038 1.43042 0
M  V30 10377 H 1000.64 -1.63086 3.3668 0
M  V30 10378 H 1001.98 -2.16341 4.42105 0
M  V30 10379 N 1003.63 -1.50653 -0.462772 0
M  V30 10380 C 1005.04 -1.54821 -1.04342 0
M  V30 10381 C 1005.39 -0.356595 -1.92932 0
M  V30 10382 O 1004.52 0.529579 -2.0982 0
M  V30 10383 C 1005.11 -2.80571 -1.89909 0
M  V30 10384 C 1003.67 -2.87394 -2.43067 0
M  V30 10385 C 1002.82 -2.49206 -1.21621 0
M  V30 10386 H 1005.77 -1.56797 -0.245048 0
M  V30 10387 H 1005.79 -2.62897 -2.75074 0
M  V30 10388 H 1005.3 -3.67281 -1.25405 0
M  V30 10389 H 1003.4 -2.05055 -3.111 0
M  V30 10390 H 1003.52 -3.90477 -2.77605 0
M  V30 10391 H 1001.88 -2.01829 -1.55361 0
M  V30 10392 H 1002.66 -3.38233 -0.587669 0
M  V30 10393 N 1005.11 0.71652 -1.4037 0
M  V30 10394 C 1006.36 1.47193 -1.37903 0
M  V30 10395 C 1006.67 1.95593 0.0159939 0
M  V30 10396 O 1007.88 2.71009 0.163282 0
M  V30 10397 C 1006.33 2.6606 -2.42363 0
M  V30 10398 C 1005.94 2.24533 -3.87671 0
M  V30 10399 C 1007.68 3.438 -2.49001 0
M  V30 10400 C 1005.59 3.40234 -4.8373 0
M  V30 10401 H 1004.52 0.552811 -0.512753 0
M  V30 10402 H 1007.17 0.779894 -1.66102 0
M  V30 10403 H 1005.55 3.37429 -2.07262 0
M  V30 10404 H 1006.73 1.6059 -4.31911 0
M  V30 10405 H 1005.04 1.59839 -3.845 0
M  V30 10406 H 1007.64 4.29893 -3.17956 0
M  V30 10407 H 1007.98 3.8755 -1.52023 0
M  V30 10408 H 1008.52 2.79474 -2.83088 0
M  V30 10409 H 1005.26 3.01517 -5.82037 0
M  V30 10410 H 1004.78 4.03095 -4.44156 0
M  V30 10411 H 1006.45 4.06312 -5.03507 0
M  V30 10412 N 1006.59 1.25851 0.948643 0
M  V30 10413 C 1007.52 1.09248 2.06367 0
M  V30 10414 C 1008.5 -0.000205168 1.701 0
M  V30 10415 O 1009.68 0.170442 1.93451 0
M  V30 10416 C 1006.81 0.716777 3.39823 0
M  V30 10417 C 1005.77 1.76036 3.90122 0
M  V30 10418 C 1005.09 1.23918 5.20143 0
M  V30 10419 C 1006.39 3.16039 4.15833 0
M  V30 10420 H 1008.09 2.02518 2.20515 0
M  V30 10421 H 1005.63 0.975093 1.05962 0
M  V30 10422 H 1007.59 0.587531 4.17284 0
M  V30 10423 H 1006.31 -0.251626 3.25629 0
M  V30 10424 H 1004.97 1.87815 3.14835 0
M  V30 10425 H 1004.62 0.260836 5.02323 0
M  V30 10426 H 1004.32 1.93673 5.54765 0
M  V30 10427 H 1005.84 1.12245 6.00194 0
M  V30 10428 H 1007.25 3.0738 4.83933 0
M  V30 10429 H 1005.65 3.83317 4.61723 0
M  V30 10430 H 1006.72 3.62652 3.21887 0
M  V30 10431 N 1008.06 -1.15214 1.07534 0
M  V30 10432 C 1009.3 -1.87708 0.809009 0
M  V30 10433 C 1009.67 -1.80552 -0.653066 0
M  V30 10434 O 1010.87 -2.48095 -1.03452 0
M  V30 10435 C 1009.14 -3.32703 1.30552 0
M  V30 10436 S 1010.7 -4.2291 1.17015 0
M  V30 10437 H 1007.52 -0.647767 0.293118 0
M  V30 10438 H 1010.12 -1.38992 1.37482 0
M  V30 10439 H 1008.82 -3.35456 2.36427 0
M  V30 10440 H 1008.35 -3.86473 0.734995 0
M  V30 10441 H 1010.37 -4.96081 0.108836 0
M  V30 10442 N 1009.54 -0.859717 -1.32086 0
M  V30 10443 C 1010.51 -0.313005 -2.27053 0
M  V30 10444 C 1011.51 0.530191 -1.51808 0
M  V30 10445 O 1012.7 0.340972 -1.7083 0
M  V30 10446 C 1009.83 0.5566 -3.36325 0
M  V30 10447 H 1011.02 -1.15125 -2.76923 0
M  V30 10448 H 1008.57 -0.634463 -1.42843 0
M  V30 10449 H 1009.31 1.41645 -2.91731 0
M  V30 10450 H 1009.09 -0.0470197 -3.92072 0
M  V30 10451 H 1010.58 0.931725 -4.07073 0
M  V30 10452 N 1011.02 1.44971 -0.618145 0
M  V30 10453 C 1012.43 1.85611 -0.201334 0
M  V30 10454 C 1012.78 1.51698 1.24427 0
M  V30 10455 O 1011.91 0.94875 1.94493 0
M  V30 10456 C 1012.5 3.36897 -0.358619 0
M  V30 10457 C 1011.06 3.764 0.00358196 0
M  V30 10458 C 1010.21 2.68881 -0.678118 0
M  V30 10459 H 1013.16 1.35622 -0.824152 0
M  V30 10460 H 1013.18 3.78326 0.406176 0
M  V30 10461 H 1012.69 3.61548 -1.41084 0
M  V30 10462 H 1010.79 3.57365 1.05457 0
M  V30 10463 H 1010.91 4.77449 -0.397427 0
M  V30 10464 H 1009.27 2.54442 -0.114699 0
M  V30 10465 H 1010.05 2.96367 -1.73268 0
M  V30 10466 N 1012.5 0.357919 1.53482 0
M  V30 10467 C 1013.45 -0.507364 2.26999 0
M  V30 10468 C 1014.44 -1.08987 1.29685 0
M  V30 10469 O 1015.65 -1.03396 1.47341 0
M  V30 10470 H 1012.02 -0.182326 0.729562 0
M  V30 10471 H 1013.99 0.134547 2.98097 0
M  V30 10472 C 1012.74 -1.63911 3.06641 0
M  V30 10473 H 1012.06 -1.20017 3.81361 0
M  V30 10474 H 1013.5 -2.21943 3.61272 0
M  V30 10475 C 1011.96 -2.57697 2.17011 0
M  V30 10476 O 1012.49 -3.60318 1.77578 0
M  V30 10477 N 1010.7 -2.2671 1.818 0
M  V30 10478 H 1010.25 -1.43296 2.14065 0
M  V30 10479 H 1010.2 -2.89716 1.22115 0
M  V30 10480 N 1013.98 -1.5736 0.0868897 0
M  V30 10481 C 1015.25 -1.85495 -0.620561 0
M  V30 10482 C 1015.63 -0.982218 -1.86857 0
M  V30 10483 O 1014.98 -0.0524529 -2.2844 0
M  V30 10484 C 1015.19 -3.35996 -0.943798 0
M  V30 10485 C 1016.54 -4.03861 -1.31079 0
M  V30 10486 O 1017.56 -3.4083 -1.03507 0
M  V30 10487 O 1016.42 -5.15062 -1.82683 0
M  V30 10488 H 1013.52 -0.766822 -0.309697 0
M  V30 10489 H 1016.06 -1.69282 0.118966 0
M  V30 10490 H 1014.83 -3.91257 -0.0580628 0
M  V30 10491 H 1014.46 -3.57525 -1.73958 0
M  V30 10492 N 1015.45 0.186762 -1.56489 0
M  V30 10493 C 1016.87 0.750675 -1.70944 0
M  V30 10494 C 1017.22 1.83483 -0.694858 0
M  V30 10495 O 1016.34 2.159 0.147009 0
M  V30 10496 C 1016.94 1.36843 -3.09934 0
M  V30 10497 C 1015.5 1.87934 -3.26125 0
M  V30 10498 C 1014.64 0.75242 -2.66897 0
M  V30 10499 H 1017.59 -0.0384292 -1.58653 0
M  V30 10500 H 1017.61 2.23795 -3.07727 0
M  V30 10501 H 1017.13 0.579135 -3.83755 0
M  V30 10502 H 1015.23 2.69556 -2.57235 0
M  V30 10503 H 1015.34 2.0354 -4.33715 0
M  V30 10504 H 1013.7 1.16888 -2.26295 0
M  V30 10505 H 1014.49 -0.0247769 -3.43291 0
M  V30 10506 N 1016.93 1.50896 0.454776 0
M  V30 10507 C 1018.21 1.53227 1.21576 0
M  V30 10508 C 1018.59 0.286358 2.09149 0
M  V30 10509 O 1017.94 -0.729469 2.16543 0
M  V30 10510 C 1018.15 2.83693 2.03271 0
M  V30 10511 C 1019.5 3.34981 2.60908 0
M  V30 10512 O 1020.52 2.85126 2.13499 0
M  V30 10513 O 1019.38 4.21929 3.4733 0
M  V30 10514 H 1016.47 0.615306 0.552564 0
M  V30 10515 H 1019.02 1.63197 0.465266 0
M  V30 10516 H 1017.79 3.65839 1.38843 0
M  V30 10517 H 1017.41 2.76803 2.85422 0
M  V30 10518 N 1018.41 -0.709066 1.40748 0
M  V30 10519 C 1019.69 -1.4626 1.29874 0
M  V30 10520 C 1020.07 -2.10949 -0.0799322 0
M  V30 10521 O 1019.42 -2.00651 -1.09323 0
M  V30 10522 C 1019.63 -2.49302 2.44232 0
M  V30 10523 C 1020.97 -3.14945 2.84771 0
M  V30 10524 O 1022 -2.59623 2.43873 0
M  V30 10525 O 1020.86 -4.15111 3.5545 0
M  V30 10526 H 1017.95 -0.650716 0.51039 0
M  V30 10527 H 1020.5 -0.740687 1.52682 0
M  V30 10528 H 1019.27 -2.00063 3.36289 0
M  V30 10529 H 1018.89 -3.29021 2.23229 0
M  V30 10530 N 1019.89 -1.26353 -0.941956 0
M  V30 10531 C 1020.85 -1.07904 -2.02211 0
M  V30 10532 C 1021.85 -0.0276283 -1.60776 0
M  V30 10533 O 1023.04 -0.270965 -1.7208 0
M  V30 10534 C 1020.17 -0.641084 -3.34818 0
M  V30 10535 H 1021.37 -2.03804 -2.20009 0
M  V30 10536 H 1018.92 -1.08939 -1.12081 0
M  V30 10537 H 1019.66 0.319943 -3.22718 0
M  V30 10538 H 1019.44 -1.40027 -3.66244 0
M  V30 10539 H 1020.93 -0.533826 -4.14174 0
M  V30 10540 N 1021.37 1.14642 -1.08144 0
M  V30 10541 C 1022.78 1.37604 -0.808537 0
M  V30 10542 C 1022.98 1.92868 0.583452 0
M  V30 10543 O 1022.04 2.13964 1.34073 0
M  V30 10544 C 1023.35 2.3396 -1.889 0
M  V30 10545 C 1024.9 2.47605 -1.9147 0
M  V30 10546 C 1025.38 3.47258 -2.98623 0
M  V30 10547 N 1026.87 3.548 -2.97777 0
M  V30 10548 C 1027.6 4.31751 -3.77331 0
M  V30 10549 N 1027.1 5.11966 -4.66757 0
M  V30 10550 N 1028.89 4.2692 -3.65645 0
M  V30 10551 H 1021.04 0.771154 -1.97906 0
M  V30 10552 H 1023.3 0.401694 -0.858688 0
M  V30 10553 H 1023.01 2.00484 -2.88962 0
M  V30 10554 H 1022.88 3.33833 -1.756 0
M  V30 10555 H 1025.27 2.80375 -0.920548 0
M  V30 10556 H 1025.35 1.47702 -2.08848 0
M  V30 10557 H 1025 3.15223 -3.98243 0
M  V30 10558 H 1024.93 4.46935 -2.7849 0
M  V30 10559 H 1027.42 2.97553 -2.3296 0
M  V30 10560 H 1027.73 5.67951 -5.24072 0
M  V30 10561 H 1026.08 5.11245 -4.70801 0
M  V30 10562 H 1029.27 3.63322 -2.95152 0
M  V30 10563 H 1029.44 4.8664 -4.27885 0
M  V30 10564 N 1022.85 0.866709 1.31628 0
M  V30 10565 C 1024.26 0.529032 1.79048 0
M  V30 10566 C 1024.61 -0.953871 1.71452 0
M  V30 10567 O 1023.73 -1.74462 1.28031 0
M  V30 10568 C 1024.33 0.953522 3.25105 0
M  V30 10569 C 1022.89 0.667554 3.70433 0
M  V30 10570 C 1022.03 1.14664 2.52483 0
M  V30 10571 H 1024.98 1.05275 1.18756 0
M  V30 10572 H 1025.01 0.274844 3.79506 0
M  V30 10573 H 1024.52 2.03283 3.30602 0
M  V30 10574 H 1022.62 -0.400532 3.70441 0
M  V30 10575 H 1022.73 1.2423 4.62714 0
M  V30 10576 H 1021.1 0.566502 2.4832 0
M  V30 10577 H 1021.88 2.2333 2.60727 0
M  V30 10578 N 1024.32 -1.44642 0.625825 0
M  V30 10579 C 1025.25 -2.33397 -0.0692188 0
M  V30 10580 C 1026.23 -1.47898 -0.840241 0
M  V30 10581 O 1027.42 -1.7663 -0.807176 0
M  V30 10582 C 1024.55 -3.30888 -1.055 0
M  V30 10583 C 1023.5 -4.26164 -0.395968 0
M  V30 10584 C 1022.83 -5.13483 -1.49128 0
M  V30 10585 C 1024.13 -5.17663 0.694433 0
M  V30 10586 H 1025.82 -2.91763 0.671925 0
M  V30 10587 H 1023.37 -1.40294 0.324573 0
M  V30 10588 H 1025.32 -3.91861 -1.54993 0
M  V30 10589 H 1024.05 -2.7072 -1.82696 0
M  V30 10590 H 1022.71 -3.66516 0.0782691 0
M  V30 10591 H 1022.35 -4.49672 -2.25399 0
M  V30 10592 H 1022.05 -5.78038 -1.05573 0
M  V30 10593 H 1023.58 -5.77327 -1.98813 0
M  V30 10594 H 1024.99 -5.72602 0.282818 0
M  V30 10595 H 1023.39 -5.90793 1.05281 0
M  V30 10596 H 1024.46 -4.58994 1.56372 0
M  V30 10597 N 1025.8 -0.366053 -1.5329 0
M  V30 10598 C 1027.03 0.226839 -2.06156 0
M  V30 10599 C 1027.45 1.41637 -1.23776 0
M  V30 10600 O 1026.81 1.7947 -0.256948 0
M  V30 10601 C 1026.86 0.597956 -3.55608 0
M  V30 10602 O 1025.96 1.69512 -3.75951 0
M  V30 10603 H 1025.3 0.0329156 -0.663184 0
M  V30 10604 H 1027.83 -0.526793 -1.97702 0
M  V30 10605 H 1027.84 0.868831 -3.98642 0
M  V30 10606 H 1026.52 -0.271838 -4.15011 0
M  V30 10607 H 1025.09 1.41976 -3.44815 0
M  V30 10608 N 1027.28 1.57312 -0.0952337 0
M  V30 10609 C 1028.24 2.12889 0.849161 0
M  V30 10610 C 1029.24 1.05819 1.21075 0
M  V30 10611 O 1030.43 1.31704 1.14016 0
M  V30 10612 C 1027.56 2.6496 2.14498 0
M  V30 10613 H 1028.76 2.97651 0.366566 0
M  V30 10614 H 1026.31 1.55542 0.153762 0
M  V30 10615 H 1027.05 1.83718 2.67242 0
M  V30 10616 H 1026.83 3.43244 1.89542 0
M  V30 10617 H 1028.32 3.07952 2.82056 0
M  V30 10618 N 1028.76 -0.17846 1.56586 0
M  V30 10619 C 1030 -0.897562 1.81856 0
M  V30 10620 C 1030.34 -1.82204 0.671955 0
M  V30 10621 O 1029.61 -1.91739 -0.326535 0
M  V30 10622 C 1029.89 -1.69942 3.17477 0
M  V30 10623 C 1029.75 -0.798545 4.42655 0
M  V30 10624 C 1031.07 -2.66861 3.49962 0
M  V30 10625 H 1028.19 -0.324863 0.661539 0
M  V30 10626 H 1030.83 -0.164106 1.8929 0
M  V30 10627 H 1028.98 -2.32471 3.11271 0
M  V30 10628 H 1030.65 -0.18668 4.60922 0
M  V30 10629 H 1028.89 -0.106181 4.3367 0
M  V30 10630 H 1029.56 -1.39496 5.34083 0
M  V30 10631 H 1032.04 -2.1446 3.56576 0
M  V30 10632 H 1030.92 -3.20037 4.45946 0
M  V30 10633 H 1031.18 -3.46715 2.74301 0
M  V30 10634 N 1030.24 -1.51135 -0.446768 0
M  V30 10635 C 1031.17 -1.67949 -1.55967 0
M  V30 10636 C 1032.18 -0.560337 -1.52853 0
M  V30 10637 O 1033.37 -0.83435 -1.578 0
M  V30 10638 C 1030.47 -1.6703 -2.9488 0
M  V30 10639 C 1029.64 -2.95377 -3.22601 0
M  V30 10640 C 1028.7 -2.86772 -4.4119 0
M  V30 10641 O 1027.73 -3.60722 -4.40304 0
M  V30 10642 N 1028.93 -2.01979 -5.44228 0
M  V30 10643 H 1031.69 -2.63951 -1.41951 0
M  V30 10644 H 1029.26 -1.48903 -0.635569 0
M  V30 10645 H 1031.25 -1.58854 -3.7222 0
M  V30 10646 H 1029.82 -0.786623 -3.02541 0
M  V30 10647 H 1029.04 -3.17494 -2.33647 0
M  V30 10648 H 1030.33 -3.80356 -3.37945 0
M  V30 10649 H 1029.72 -1.41257 -5.4778 0
M  V30 10650 H 1028.28 -1.99689 -6.20457 0
M  V30 10651 N 1031.71 0.701592 -1.41122 0
M  V30 10652 C 1032.96 1.45871 -1.39879 0
M  V30 10653 C 1033.28 1.94999 -0.00668769 0
M  V30 10654 O 1032.55 1.71298 0.95047 0
M  V30 10655 H 1031.13 0.541231 -0.514857 0
M  V30 10656 H 1033.79 0.830803 -1.76306 0
M  V30 10657 H 1032.89 2.32479 -2.0823 0
M  V30 10658 N 1033.19 1.2685 0.935242 0
M  V30 10659 C 1034.1 1.10716 2.06831 0
M  V30 10660 C 1035.12 0.0391222 1.73956 0
M  V30 10661 O 1036.29 0.244071 1.99916 0
M  V30 10662 C 1033.36 0.748093 3.38533 0
M  V30 10663 C 1032.42 1.89619 3.85153 0
M  V30 10664 C 1031.65 1.55416 5.1057 0
M  V30 10665 O 1031.88 0.458596 5.68553 0
M  V30 10666 O 1030.81 2.39087 5.52378 0
M  V30 10667 H 1034.64 2.05785 2.23352 0
M  V30 10668 H 1032.22 1.05967 1.05315 0
M  V30 10669 H 1034.1 0.560841 4.17651 0
M  V30 10670 H 1032.78 -0.173142 3.23237 0
M  V30 10671 H 1031.68 2.13845 3.06954 0
M  V30 10672 H 1033.02 2.79737 4.04979 0
M  V30 10673 N 1034.67 -1.14067 1.0875 0
M  V30 10674 C 1035.62 -2.19261 0.720633 0
M  V30 10675 C 1036.59 -1.63462 -0.294847 0
M  V30 10676 O 1037.77 -1.89967 -0.178058 0
M  V30 10677 C 1034.91 -3.44816 0.139873 0
M  V30 10678 C 1034.03 -4.1475 1.20856 0
M  V30 10679 C 1033.16 -5.27899 0.591285 0
M  V30 10680 C 1032.2 -5.89672 1.64176 0
M  V30 10681 N 1031.34 -6.94264 1.04603 0
M  V30 10682 H 1036.18 -2.49991 1.62198 0
M  V30 10683 H 1033.71 -1.22757 0.810497 0
M  V30 10684 H 1035.67 -4.16648 -0.214587 0
M  V30 10685 H 1034.3 -3.14558 -0.724774 0
M  V30 10686 H 1033.35 -3.41272 1.6804 0
M  V30 10687 H 1034.67 -4.56753 2.00446 0
M  V30 10688 H 1033.82 -6.06417 0.185271 0
M  V30 10689 H 1032.56 -4.87128 -0.236236 0
M  V30 10690 H 1031.56 -5.09854 2.05739 0
M  V30 10691 H 1032.79 -6.32517 2.47182 0
M  V30 10692 H 1030.73 -6.55562 0.239664 0
M  V30 10693 H 1030.65 -7.34771 1.77898 0
M  V30 10694 H 1031.92 -7.7665 0.665989 0
M  V30 10695 N 1036.15 -0.873678 -1.31166 0
M  V30 10696 C 1037.4 -0.482577 -1.95842 0
M  V30 10697 C 1037.71 0.970881 -1.69804 0
M  V30 10698 O 1038.92 1.4683 -2.28371 0
M  V30 10699 C 1037.37 -0.812074 -3.50619 0
M  V30 10700 C 1036.98 -2.28254 -3.85492 0
M  V30 10701 C 1038.72 -0.489624 -4.21667 0
M  V30 10702 C 1036.63 -2.55426 -5.33396 0
M  V30 10703 H 1035.56 -0.176736 -0.732994 0
M  V30 10704 H 1038.21 -1.06709 -1.49283 0
M  V30 10705 H 1036.59 -0.156769 -3.9569 0
M  V30 10706 H 1037.77 -2.98122 -3.51369 0
M  V30 10707 H 1036.08 -2.5714 -3.27518 0
M  V30 10708 H 1038.68 -0.669811 -5.30488 0
M  V30 10709 H 1039.02 0.570204 -4.12376 0
M  V30 10710 H 1039.56 -1.10163 -3.82242 0
M  V30 10711 H 1036.3 -3.60106 -5.47726 0
M  V30 10712 H 1035.82 -1.90156 -5.68859 0
M  V30 10713 H 1037.49 -2.40345 -6.00702 0
M  V30 10714 N 1037.63 1.44308 -0.633487 0
M  V30 10715 C 1038.9 1.95476 -0.0697262 0
M  V30 10716 C 1039.28 1.57539 1.40516 0
M  V30 10717 O 1038.63 0.850632 2.12077 0
M  V30 10718 C 1038.84 3.4775 -0.295093 0
M  V30 10719 C 1040.19 4.24177 -0.189542 0
M  V30 10720 O 1041.21 3.55479 -0.226586 0
M  V30 10721 O 1040.07 5.46415 -0.096479 0
M  V30 10722 H 1037.17 0.826734 0.0209582 0
M  V30 10723 H 1039.71 1.54347 -0.705354 0
M  V30 10724 H 1038.48 3.6842 -1.31841 0
M  V30 10725 H 1038.11 3.95832 0.37456 0
M  V30 10726 N 1039.1 0.374177 1.53094 0
M  V30 10727 C 1040.01 -0.475935 2.29722 0
M  V30 10728 C 1041.03 -1.085 1.36029 0
M  V30 10729 O 1042.21 -1.09408 1.69091 0
M  V30 10730 C 1039.27 -1.59572 3.07795 0
M  V30 10731 C 1038.33 -1.01332 4.17169 0
M  V30 10732 C 1037.57 -2.07975 4.9151 0
M  V30 10733 O 1037.79 -3.29232 4.65793 0
M  V30 10734 O 1036.72 -1.7055 5.77232 0
M  V30 10735 H 1040.55 0.147877 3.0334 0
M  V30 10736 H 1038.13 0.138312 1.48758 0
M  V30 10737 H 1040.02 -2.24658 3.5652 0
M  V30 10738 H 1038.69 -2.20478 2.37005 0
M  V30 10739 H 1037.6 -0.326133 3.72676 0
M  V30 10740 H 1038.93 -0.4487 4.90151 0
M  V30 10741 N 1040.58 -1.57259 0.103575 0
M  V30 10742 C 1041.83 -1.94945 -0.558953 0
M  V30 10743 C 1042.16 -0.986038 -1.67305 0
M  V30 10744 O 1041.44 -0.0205464 -1.94489 0
M  V30 10745 C 1041.72 -3.42689 -1.10617 0
M  V30 10746 C 1041.57 -4.498 0.00345246 0
M  V30 10747 C 1042.89 -3.91933 -2.00191 0
M  V30 10748 H 1040.01 -0.708859 -0.201713 0
M  V30 10749 H 1042.65 -1.89183 0.176006 0
M  V30 10750 H 1040.8 -3.4773 -1.73251 0
M  V30 10751 H 1042.47 -4.56866 0.638082 0
M  V30 10752 H 1040.72 -4.28615 0.668705 0
M  V30 10753 H 1041.39 -5.50397 -0.420396 0
M  V30 10754 H 1043.86 -3.89098 -1.4745 0
M  V30 10755 H 1042.74 -4.9586 -2.35402 0
M  V30 10756 H 1043 -3.31722 -2.92255 0
M  V30 10757 N 1042.06 0.170153 -1.56679 0
M  V30 10758 C 1043.31 0.886592 -1.8206 0
M  V30 10759 C 1043.64 1.82194 -0.680839 0
M  V30 10760 O 1042.89 1.92866 0.331822 0
M  V30 10761 C 1043.19 1.71402 -3.13618 0
M  V30 10762 C 1042.86 0.927489 -4.41258 0
M  V30 10763 C 1041.52 0.710417 -4.75927 0
M  V30 10764 C 1043.87 0.375855 -5.19843 0
M  V30 10765 C 1041.2 -0.0693691 -5.86659 0
M  V30 10766 C 1043.55 -0.390849 -6.31391 0
M  V30 10767 C 1042.21 -0.61871 -6.64626 0
M  V30 10768 H 1041.48 0.324427 -0.666204 0
M  V30 10769 H 1044.13 0.151464 -1.909 0
M  V30 10770 H 1042.44 2.51858 -3.00125 0
M  V30 10771 H 1044.13 2.27141 -3.30466 0
M  V30 10772 H 1040.72 1.10672 -4.14065 0
M  V30 10773 H 1044.91 0.530897 -4.93452 0
M  V30 10774 H 1040.16 -0.255637 -6.10865 0
M  V30 10775 H 1044.34 -0.825544 -6.9149 0
M  V30 10776 H 1041.96 -1.22482 -7.50268 0
M  V30 10777 N 1043.54 1.5137 0.438746 0
M  V30 10778 C 1044.79 1.63202 1.18524 0
M  V30 10779 C 1045.1 0.353408 1.92381 0
M  V30 10780 O 1046.31 0.351086 2.6922 0
M  V30 10781 C 1044.76 2.88218 2.15542 0
M  V30 10782 C 1044.37 4.23078 1.47339 0
M  V30 10783 C 1046.11 3.09407 2.90633 0
M  V30 10784 C 1044.02 5.39246 2.42833 0
M  V30 10785 H 1042.95 0.607864 0.446114 0
M  V30 10786 H 1045.6 1.77835 0.452421 0
M  V30 10787 H 1043.98 2.67216 2.92253 0
M  V30 10788 H 1045.16 4.54457 0.761964 0
M  V30 10789 H 1043.47 4.07755 0.844065 0
M  V30 10790 H 1046.07 3.9337 3.62165 0
M  V30 10791 H 1046.41 2.22428 3.51897 0
M  V30 10792 H 1046.95 3.30743 2.21029 0
M  V30 10793 H 1043.69 6.2848 1.8626 0
M  V30 10794 H 1043.21 5.12245 3.12034 0
M  V30 10795 H 1044.88 5.71137 3.03992 0
M  V30 10796 N 1045.02 -0.694098 1.41492 0
M  V30 10797 C 1046.26 -1.45127 1.4065 0
M  V30 10798 C 1046.59 -1.94993 0.0170289 0
M  V30 10799 O 1045.86 -1.71799 -0.941372 0
M  V30 10800 H 1044.44 -0.538493 0.51772 0
M  V30 10801 H 1047.1 -0.821441 1.76744 0
M  V30 10802 H 1046.19 -2.31372 2.0946 0
M  V30 10803 N 1046.49 -1.27344 -0.928501 0
M  V30 10804 C 1047.72 -1.16557 -1.7155 0
M  V30 10805 C 1048.14 0.274044 -1.86093 0
M  V30 10806 O 1047.5 1.19847 -1.36038 0
M  V30 10807 C 1047.55 -1.85332 -3.09329 0
M  V30 10808 O 1046.65 -1.15074 -3.9602 0
M  V30 10809 H 1046 -0.405423 -0.525859 0
M  V30 10810 H 1048.53 -1.68399 -1.16202 0
M  V30 10811 H 1048.54 -1.92659 -3.59648 0
M  V30 10812 H 1047.21 -2.90056 -2.98061 0
M  V30 10813 H 1045.79 -1.1581 -3.54461 0
M  V30 10814 N 1047.97 1.13488 -1.09353 0
M  V30 10815 C 1049.21 1.86397 -0.83877 0
M  V30 10816 C 1049.58 1.81568 0.624259 0
M  V30 10817 O 1050.78 2.49709 0.994923 0
M  V30 10818 C 1049.05 3.30583 -1.35828 0
M  V30 10819 S 1050.61 4.20995 -1.23728 0
M  V30 10820 H 1047.43 0.643022 -0.303387 0
M  V30 10821 H 1050.03 1.36788 -1.39676 0
M  V30 10822 H 1048.73 3.31652 -2.41734 0
M  V30 10823 H 1048.26 3.85255 -0.796386 0
M  V30 10824 H 1050.28 4.95845 -0.187745 0
M  V30 10825 N 1049.45 0.880621 1.30701 0
M  V30 10826 C 1050.38 0.288813 2.26365 0
M  V30 10827 C 1051.36 -0.588135 1.51591 0
M  V30 10828 O 1052.55 -0.539197 1.80624 0
M  V30 10829 C 1049.67 -0.590032 3.33521 0
M  V30 10830 C 1048.72 0.217003 4.25948 0
M  V30 10831 S 1049.55 1.60246 5.10961 0
M  V30 10832 C 1050.71 0.730023 6.21628 0
M  V30 10833 H 1050.94 1.09971 2.76213 0
M  V30 10834 H 1048.47 0.67978 1.3863 0
M  V30 10835 H 1050.43 -1.09136 3.95727 0
M  V30 10836 H 1049.09 -1.37498 2.82406 0
M  V30 10837 H 1048.29 -0.453481 5.01956 0
M  V30 10838 H 1047.89 0.650803 3.68294 0
M  V30 10839 H 1050.18 -0.0548644 6.77478 0
M  V30 10840 H 1051.12 1.46157 6.92852 0
M  V30 10841 H 1051.53 0.292854 5.6374 0
M  V30 10842 N 1050.93 -1.4397 0.641131 0
M  V30 10843 C 1052.16 -2.06303 0.157006 0
M  V30 10844 C 1052.57 -1.47981 -1.17248 0
M  V30 10845 O 1051.93 -0.606471 -1.72128 0
M  V30 10846 C 1051.98 -3.6147 0.0468425 0
M  V30 10847 O 1051.7 -4.17622 1.32376 0
M  V30 10848 C 1053.2 -4.40857 -0.464795 0
M  V30 10849 H 1050.42 -0.665684 0.0842946 0
M  V30 10850 H 1052.97 -1.84675 0.878363 0
M  V30 10851 H 1051.12 -3.82325 -0.625006 0
M  V30 10852 H 1051.54 -5.11167 1.17509 0
M  V30 10853 H 1053.01 -5.49813 -0.490862 0
M  V30 10854 H 1053.49 -4.13016 -1.4938 0
M  V30 10855 H 1054.09 -4.24943 0.174146 0
M  V30 10856 N 1052.41 -0.382291 -1.52893 0
M  V30 10857 C 1053.36 0.471187 -2.27778 0
M  V30 10858 C 1054.35 1.0691 -1.31402 0
M  V30 10859 O 1055.56 1.01038 -1.48967 0
M  V30 10860 H 1051.93 0.170696 -0.732371 0
M  V30 10861 H 1053.9 -0.181954 -2.97845 0
M  V30 10862 C 1052.65 1.59012 -3.09209 0
M  V30 10863 H 1051.97 1.13935 -3.83222 0
M  V30 10864 H 1053.41 2.16167 -3.64757 0
M  V30 10865 C 1051.87 2.54212 -2.21084 0
M  V30 10866 O 1052.4 3.57447 -1.83288 0
M  V30 10867 N 1050.61 2.23789 -1.85383 0
M  V30 10868 H 1050.16 1.39872 -2.16318 0
M  V30 10869 H 1050.11 2.87737 -1.26708 0
M  V30 10870 N 1053.89 1.57202 -0.111913 0
M  V30 10871 C 1055.13 1.94125 0.547573 0
M  V30 10872 C 1055.45 0.997026 1.68282 0
M  V30 10873 O 1056.65 1.26063 2.40459 0
M  V30 10874 C 1055.11 3.44982 1.02545 0
M  V30 10875 C 1054.72 4.47927 -0.0809529 0
M  V30 10876 C 1056.46 3.90837 1.65671 0
M  V30 10877 C 1054.37 5.89955 0.413224 0
M  V30 10878 H 1053.3 0.724651 0.208321 0
M  V30 10879 H 1055.95 1.82507 -0.190625 0
M  V30 10880 H 1054.33 3.5181 1.81785 0
M  V30 10881 H 1055.51 4.52761 -0.857003 0
M  V30 10882 H 1053.82 4.11782 -0.618434 0
M  V30 10883 H 1056.42 4.9436 2.03746 0
M  V30 10884 H 1056.76 3.30417 2.53239 0
M  V30 10885 H 1057.29 3.8678 0.929844 0
M  V30 10886 H 1054.03 6.54113 -0.426238 0
M  V30 10887 H 1053.55 5.88557 1.15591 0
M  V30 10888 H 1055.23 6.41032 0.876756 0
M  V30 10889 N 1055.36 -0.161842 1.56767 0
M  V30 10890 C 1056.61 -0.875192 1.82167 0
M  V30 10891 C 1056.93 -1.82367 0.690444 0
M  V30 10892 O 1056.2 -1.93756 -0.289023 0
M  V30 10893 H 1054.78 -0.326178 0.672024 0
M  V30 10894 H 1057.44 -0.159392 1.94247 0
M  V30 10895 H 1056.54 -1.44639 2.76561 0
M  V30 10896 N 1056.84 -1.516 -0.430713 0
M  V30 10897 C 1057.79 -1.69776 -1.52185 0
M  V30 10898 C 1058.78 -0.551692 -1.51146 0
M  V30 10899 O 1059.97 -0.807883 -1.57487 0
M  V30 10900 C 1057.1 -1.83222 -2.90318 0
M  V30 10901 C 1056.18 -3.03633 -2.96087 0
M  V30 10902 N 1056.57 -4.267 -2.71589 0
M  V30 10903 C 1054.87 -3.03024 -3.2725 0
M  V30 10904 C 1055.57 -5.08011 -2.83372 0
M  V30 10905 N 1054.55 -4.42798 -3.15327 0
M  V30 10906 H 1058.35 -2.62586 -1.32006 0
M  V30 10907 H 1055.86 -1.49338 -0.63812 0
M  V30 10908 H 1057.86 -1.94355 -3.68825 0
M  V30 10909 H 1056.52 -0.915971 -3.11513 0
M  V30 10910 H 1057.53 -4.55535 -2.46391 0
M  V30 10911 H 1054.21 -2.21055 -3.54176 0
M  V30 10912 H 1055.6 -6.15995 -2.68329 0
M  V30 10913 N 1058.32 0.686584 -1.41858 0
M  V30 10914 C 1059.57 1.44665 -1.41698 0
M  V30 10915 C 1059.89 1.94478 -0.0292442 0
M  V30 10916 O 1059.15 1.70512 0.960421 0
M  V30 10917 C 1059.45 2.66793 -2.37816 0
M  V30 10918 C 1059.11 2.35587 -3.8446 0
M  V30 10919 C 1057.78 2.26788 -4.24406 0
M  V30 10920 C 1060.13 2.10028 -4.77009 0
M  V30 10921 C 1057.46 1.90538 -5.54898 0
M  V30 10922 C 1059.81 1.75285 -6.07831 0
M  V30 10923 C 1058.47 1.64987 -6.46789 0
M  V30 10924 H 1057.74 0.529367 -0.518509 0
M  V30 10925 H 1060.39 0.783938 -1.74719 0
M  V30 10926 H 1058.69 3.38041 -1.9808 0
M  V30 10927 H 1060.39 3.24953 -2.34961 0
M  V30 10928 H 1056.98 2.43334 -3.52826 0
M  V30 10929 H 1061.17 2.15766 -4.46944 0
M  V30 10930 H 1056.42 1.81125 -5.83955 0
M  V30 10931 H 1060.6 1.5453 -6.79039 0
M  V30 10932 H 1058.22 1.36667 -7.47814 0
M  V30 10933 N 1059.8 1.27835 0.921735 0
M  V30 10934 C 1061.21 1.05369 1.19873 0
M  V30 10935 C 1061.41 -0.208997 2.00413 0
M  V30 10936 O 1060.47 -0.912861 2.35421 0
M  V30 10937 C 1061.78 2.29658 1.94108 0
M  V30 10938 C 1063.33 2.34756 2.07023 0
M  V30 10939 C 1063.81 3.5879 2.84664 0
M  V30 10940 N 1065.3 3.59383 2.9223 0
M  V30 10941 C 1066.03 4.52029 3.52785 0
M  V30 10942 N 1065.53 5.54986 4.14683 0
M  V30 10943 N 1067.32 4.39641 3.50246 0
M  V30 10944 H 1059.47 2.08903 0.383819 0
M  V30 10945 H 1061.73 0.919065 0.232429 0
M  V30 10946 H 1061.44 3.21604 1.4235 0
M  V30 10947 H 1061.31 2.35444 2.94696 0
M  V30 10948 H 1063.7 1.43312 2.57965 0
M  V30 10949 H 1063.78 2.32969 1.05636 0
M  V30 10950 H 1063.43 4.50574 2.34404 0
M  V30 10951 H 1063.36 3.57829 3.86349 0
M  V30 10952 H 1065.85 2.84927 2.48244 0
M  V30 10953 H 1066.16 6.21837 4.58845 0
M  V30 10954 H 1064.51 5.58822 4.13211 0
M  V30 10955 H 1067.7 3.58413 3.01094 0
M  V30 10956 H 1067.87 5.12033 3.97148 0
M  V30 10957 N 1061.28 -1.12907 1.09954 0
M  V30 10958 C 1062.24 -2.16673 0.747364 0
M  V30 10959 C 1063.24 -1.59208 -0.225741 0
M  V30 10960 O 1064.43 -1.742 -0.00322482 0
M  V30 10961 C 1061.56 -3.40735 0.106169 0
M  V30 10962 H 1062.75 -2.49341 1.6664 0
M  V30 10963 H 1060.31 -1.27828 0.899421 0
M  V30 10964 H 1061.04 -3.13661 -0.82384 0
M  V30 10965 H 1060.83 -3.83717 0.806434 0
M  V30 10966 H 1062.32 -4.17414 -0.12464 0
M  V30 10967 N 1062.75 -0.88754 -1.30232 0
M  V30 10968 C 1063.72 -0.361095 -2.26338 0
M  V30 10969 C 1064.72 0.497871 -1.52898 0
M  V30 10970 O 1065.91 0.30466 -1.71515 0
M  V30 10971 C 1063.04 0.485135 -3.3743 0
M  V30 10972 H 1064.23 -1.20973 -2.74419 0
M  V30 10973 H 1061.78 -0.664619 -1.41466 0
M  V30 10974 H 1062.52 1.35425 -2.9467 0
M  V30 10975 H 1062.3 -0.130173 -3.91884 0
M  V30 10976 H 1063.79 0.845169 -4.08958 0
M  V30 10977 N 1064.23 1.43628 -0.648757 0
M  V30 10978 C 1065.48 2.01465 -0.16002 0
M  V30 10979 C 1065.8 1.51413 1.22878 0
M  V30 10980 O 1065.07 0.724919 1.81994 0
M  V30 10981 H 1063.65 0.744885 -0.0561672 0
M  V30 10982 H 1066.31 1.75897 -0.839422 0
M  V30 10983 H 1065.41 3.1178 -0.141213 0
M  V30 10984 N 1065.71 0.390394 1.52688 0
M  V30 10985 C 1066.66 -0.444229 2.26485 0
M  V30 10986 C 1067.63 -1.05688 1.28138 0
M  V30 10987 O 1068.81 -1.0847 1.56968 0
M  V30 10988 C 1065.95 -1.56501 3.07574 0
M  V30 10989 C 1065.07 -0.975111 4.20851 0
M  V30 10990 C 1064.2 -2.06704 4.89333 0
M  V30 10991 C 1063.24 -1.45309 5.94602 0
M  V30 10992 N 1062.38 -2.48437 6.56676 0
M  V30 10993 H 1067.22 0.191535 2.97384 0
M  V30 10994 H 1064.75 0.106287 1.46716 0
M  V30 10995 H 1066.71 -2.22558 3.52879 0
M  V30 10996 H 1065.34 -2.17107 2.38881 0
M  V30 10997 H 1064.39 -0.204109 3.79852 0
M  V30 10998 H 1065.71 -0.486465 4.96422 0
M  V30 10999 H 1064.86 -2.80528 5.37949 0
M  V30 11000 H 1063.6 -2.58928 4.13289 0
M  V30 11001 H 1062.6 -0.700091 5.45324 0
M  V30 11002 H 1063.83 -0.938775 6.7258 0
M  V30 11003 H 1061.77 -2.99829 5.83471 0
M  V30 11004 H 1061.69 -2.04331 7.27863 0
M  V30 11005 H 1062.96 -3.21888 7.09935 0
M  V30 11006 N 1067.19 -1.57141 0.120249 0
M  V30 11007 C 1068.12 -2.18398 -0.826112 0
M  V30 11008 C 1069.1 -1.12439 -1.27638 0
M  V30 11009 O 1070.28 -1.40679 -1.33877 0
M  V30 11010 C 1067.41 -2.78438 -2.0758 0
M  V30 11011 C 1066.37 -3.89991 -1.76327 0
M  V30 11012 C 1065.69 -4.36844 -3.08336 0
M  V30 11013 C 1066.99 -5.12031 -1.03062 0
M  V30 11014 H 1068.69 -2.97731 -0.315656 0
M  V30 11015 H 1066.23 -1.43213 -0.150387 0
M  V30 11016 H 1068.19 -3.19951 -2.74243 0
M  V30 11017 H 1066.91 -1.96396 -2.60953 0
M  V30 11018 H 1065.57 -3.49055 -1.12053 0
M  V30 11019 H 1065.22 -3.51659 -3.59646 0
M  V30 11020 H 1064.92 -5.1207 -2.88199 0
M  V30 11021 H 1066.44 -4.81009 -3.76116 0
M  V30 11022 H 1067.86 -5.50555 -1.59881 0
M  V30 11023 H 1066.25 -5.92848 -0.930146 0
M  V30 11024 H 1067.32 -4.84897 -0.017582 0
M  V30 11025 N 1068.67 0.153526 -1.5685 0
M  V30 11026 C 1069.6 1.19162 -2.00805 0
M  V30 11027 C 1070.58 1.45172 -0.886518 0
M  V30 11028 O 1071.76 1.56203 -1.15387 0
M  V30 11029 C 1068.89 2.52637 -2.38311 0
M  V30 11030 C 1067.85 2.41161 -3.53589 0
M  V30 11031 C 1067.17 3.79287 -3.76889 0
M  V30 11032 C 1068.47 1.90122 -4.86468 0
M  V30 11033 H 1070.17 0.82617 -2.87776 0
M  V30 11034 H 1067.71 0.395972 -1.38449 0
M  V30 11035 H 1069.67 3.25478 -2.6766 0
M  V30 11036 H 1068.39 2.91005 -1.4827 0
M  V30 11037 H 1067.05 1.70772 -3.24395 0
M  V30 11038 H 1066.7 4.15079 -2.84109 0
M  V30 11039 H 1066.4 3.72472 -4.54465 0
M  V30 11040 H 1067.92 4.53687 -4.08657 0
M  V30 11041 H 1069.33 2.52752 -5.14577 0
M  V30 11042 H 1067.73 1.94214 -5.67804 0
M  V30 11043 H 1068.8 0.856517 -4.77275 0
M  V30 11044 N 1070.14 1.51827 0.422667 0
M  V30 11045 C 1071.42 1.55772 1.18299 0
M  V30 11046 C 1071.8 0.330657 2.08494 0
M  V30 11047 O 1071.15 -0.683373 2.18042 0
M  V30 11048 C 1071.36 2.87941 1.97208 0
M  V30 11049 C 1072.71 3.4044 2.53744 0
M  V30 11050 O 1073.73 2.8959 2.07403 0
M  V30 11051 O 1072.59 4.29201 3.38303 0
M  V30 11052 H 1069.68 0.626889 0.539388 0
M  V30 11053 H 1072.23 1.64147 0.430545 0
M  V30 11054 H 1071 3.68702 1.31052 0
M  V30 11055 H 1070.63 2.82795 2.79486 0
M  V30 11056 N 1071.62 -0.679052 1.4222 0
M  V30 11057 C 1072.59 -1.77448 1.45069 0
M  V30 11058 C 1073.59 -1.57189 0.338882 0
M  V30 11059 O 1074.78 -1.63559 0.599519 0
M  V30 11060 C 1071.91 -3.1603 1.27819 0
M  V30 11061 H 1073.1 -1.7631 2.426 0
M  V30 11062 H 1070.65 -0.888277 1.28605 0
M  V30 11063 H 1071.39 -3.22796 0.311946 0
M  V30 11064 H 1071.17 -3.32138 2.08391 0
M  V30 11065 H 1072.66 -3.9596 1.32686 0
M  V30 11066 N 1073.1 -1.28322 -0.914942 0
M  V30 11067 C 1074.05 -1.08788 -2.00373 0
M  V30 11068 C 1075.03 -0.0118996 -1.60896 0
M  V30 11069 O 1076.23 -0.231902 -1.75474 0
M  V30 11070 C 1073.36 -0.750508 -3.34996 0
M  V30 11071 C 1072.44 -1.86527 -3.80879 0
M  V30 11072 N 1072.83 -3.10672 -3.99145 0
M  V30 11073 C 1071.13 -1.75485 -4.10026 0
M  V30 11074 C 1071.83 -3.833 -4.37557 0
M  V30 11075 N 1070.81 -3.11141 -4.45749 0
M  V30 11076 H 1074.61 -2.02984 -2.12544 0
M  V30 11077 H 1072.12 -1.19224 -1.1027 0
M  V30 11078 H 1074.12 -0.591644 -4.1268 0
M  V30 11079 H 1072.78 0.183696 -3.2418 0
M  V30 11080 H 1073.79 -3.46295 -3.85097 0
M  V30 11081 H 1070.47 -0.89234 -4.07852 0
M  V30 11082 H 1071.86 -4.90061 -4.59662 0
M  V30 11083 N 1074.58 1.12322 -1.10551 0
M  V30 11084 C 1075.53 2.18087 -0.755424 0
M  V30 11085 C 1076.5 1.6391 0.268805 0
M  V30 11086 O 1077.68 1.90227 0.147813 0
M  V30 11087 C 1074.82 3.4455 -0.194713 0
M  V30 11088 C 1073.93 4.12775 -1.27439 0
M  V30 11089 C 1073.07 5.26891 -0.675194 0
M  V30 11090 C 1072.11 5.86985 -1.73536 0
M  V30 11091 N 1071.24 6.92512 -1.15635 0
M  V30 11092 H 1076.08 2.47379 -1.66155 0
M  V30 11093 H 1073.62 1.21452 -0.829924 0
M  V30 11094 H 1075.58 4.16936 0.148275 0
M  V30 11095 H 1074.21 3.15671 0.674638 0
M  V30 11096 H 1073.26 3.38556 -1.73448 0
M  V30 11097 H 1074.57 4.53506 -2.07687 0
M  V30 11098 H 1073.73 6.06046 -0.281723 0
M  V30 11099 H 1072.47 4.87442 0.158708 0
M  V30 11100 H 1071.47 5.06517 -2.13825 0
M  V30 11101 H 1072.7 6.28505 -2.57213 0
M  V30 11102 H 1070.64 6.55098 -0.343928 0
M  V30 11103 H 1070.56 7.31848 -1.89565 0
M  V30 11104 H 1071.83 7.75492 -0.789463 0
M  V30 11105 N 1076.06 0.894434 1.2976 0
M  V30 11106 C 1077.3 0.516646 1.95385 0
M  V30 11107 C 1077.63 -0.939141 1.70895 0
M  V30 11108 O 1076.9 -1.66153 1.03778 0
M  V30 11109 H 1075.48 0.188072 0.722937 0
M  V30 11110 H 1078.14 1.13958 1.58113 0
M  V30 11111 H 1077.23 0.694819 3.04267 0
M  V30 11112 N 1077.53 -1.43282 0.656365 0
M  V30 11113 C 1078.47 -2.29087 -0.0720378 0
M  V30 11114 C 1079.48 -1.4268 -0.783982 0
M  V30 11115 O 1080.67 -1.66585 -0.641213 0
M  V30 11116 C 1077.77 -3.19676 -1.12519 0
M  V30 11117 C 1076.94 -4.34638 -0.490756 0
M  V30 11118 C 1076 -5.06079 -1.44121 0
M  V30 11119 O 1075.03 -5.6124 -0.948595 0
M  V30 11120 N 1076.23 -5.09872 -2.77509 0
M  V30 11121 H 1078.99 -2.92241 0.664456 0
M  V30 11122 H 1076.55 -1.54006 0.499383 0
M  V30 11123 H 1078.55 -3.64334 -1.76189 0
M  V30 11124 H 1077.12 -2.581 -1.76362 0
M  V30 11125 H 1076.34 -3.92857 0.3251 0
M  V30 11126 H 1077.62 -5.08777 -0.0480061 0
M  V30 11127 H 1077.02 -4.66433 -3.20088 0
M  V30 11128 H 1075.58 -5.58237 -3.36474 0
M  V30 11129 N 1079.01 -0.398486 -1.52479 0
M  V30 11130 C 1079.94 0.423498 -2.29627 0
M  V30 11131 C 1080.92 1.05547 -1.33394 0
M  V30 11132 O 1082.11 1.0665 -1.62294 0
M  V30 11133 C 1079.24 1.54612 -3.10986 0
M  V30 11134 C 1078.19 1.03971 -4.15179 0
M  V30 11135 C 1077.52 2.25512 -4.84818 0
M  V30 11136 C 1078.82 0.10121 -5.22202 0
M  V30 11137 H 1080.51 -0.220222 -2.98589 0
M  V30 11138 H 1078.06 -0.107355 -1.43599 0
M  V30 11139 H 1080.01 2.12806 -3.63719 0
M  V30 11140 H 1078.74 2.21756 -2.39774 0
M  V30 11141 H 1077.4 0.480251 -3.63441 0
M  V30 11142 H 1077.04 2.91187 -4.10145 0
M  V30 11143 H 1076.74 1.92285 -5.55248 0
M  V30 11144 H 1078.27 2.84331 -5.40359 0
M  V30 11145 H 1079.68 0.591617 -5.70239 0
M  V30 11146 H 1078.08 -0.141737 -5.99933 0
M  V30 11147 H 1079.15 -0.847216 -4.77441 0
M  V30 11148 N 1080.49 1.57075 -0.12858 0
M  V30 11149 C 1081.9 1.82468 0.39526 0
M  V30 11150 C 1082.25 1.0463 1.65973 0
M  V30 11151 O 1081.38 0.285835 2.14504 0
M  V30 11152 C 1081.97 3.30976 0.723889 0
M  V30 11153 C 1080.53 3.57016 1.19232 0
M  V30 11154 C 1079.68 2.76534 0.205907 0
M  V30 11155 H 1082.63 1.54711 -0.353571 0
M  V30 11156 H 1082.65 3.46127 1.58039 0
M  V30 11157 H 1082.16 3.87602 -0.196595 0
M  V30 11158 H 1080.26 3.05758 2.12938 0
M  V30 11159 H 1080.38 4.65558 1.13103 0
M  V30 11160 H 1078.74 2.45038 0.694872 0
M  V30 11161 H 1079.52 3.35923 -0.707842 0
M  V30 11162 N 1081.97 -0.145205 1.5693 0
M  V30 11163 C 1083.2 -0.872398 1.87608 0
M  V30 11164 C 1083.61 -1.74657 0.716975 0
M  V30 11165 O 1082.97 -1.79792 -0.3132 0
M  V30 11166 C 1083.02 -1.72762 3.17546 0
M  V30 11167 O 1082.74 -0.888681 4.28992 0
M  V30 11168 C 1084.24 -2.56224 3.61751 0
M  V30 11169 H 1081.46 -0.252166 0.621815 0
M  V30 11170 H 1084.01 -0.137456 2.04038 0
M  V30 11171 H 1082.16 -2.41561 3.02865 0
M  V30 11172 H 1082.58 -1.47601 5.03303 0
M  V30 11173 H 1084.05 -3.11804 4.55502 0
M  V30 11174 H 1084.53 -3.32347 2.87127 0
M  V30 11175 H 1085.13 -1.92714 3.79133 0
M  V30 11176 N 1083.45 -1.52049 -0.414609 0
M  V30 11177 C 1084.86 -1.40729 -0.752822 0
M  V30 11178 C 1085.06 -0.507468 -1.95005 0
M  V30 11179 O 1084.12 0.0288189 -2.52484 0
M  V30 11180 C 1085.43 -2.83163 -1.01189 0
M  V30 11181 C 1086.98 -2.92469 -1.11494 0
M  V30 11182 C 1087.46 -4.35859 -1.4068 0
M  V30 11183 N 1088.95 -4.39069 -1.47557 0
M  V30 11184 C 1089.68 -5.47072 -1.71756 0
M  V30 11185 N 1089.18 -6.65201 -1.93595 0
M  V30 11186 N 1090.97 -5.3458 -1.73726 0
M  V30 11187 H 1083.12 -2.09089 0.373549 0
M  V30 11188 H 1085.38 -0.942188 0.104814 0
M  V30 11189 H 1085.09 -3.51104 -0.204609 0
M  V30 11190 H 1084.96 -3.23874 -1.93353 0
M  V30 11191 H 1087.35 -2.24711 -1.91282 0
M  V30 11192 H 1087.43 -2.55222 -0.171794 0
M  V30 11193 H 1087.08 -5.04174 -0.614119 0
M  V30 11194 H 1087.01 -4.70637 -2.36238 0
M  V30 11195 H 1089.5 -3.53913 -1.32491 0
M  V30 11196 H 1089.81 -7.43297 -2.11495 0
M  V30 11197 H 1088.16 -6.68276 -1.90871 0
M  V30 11198 H 1091.35 -4.41271 -1.56198 0
M  V30 11199 H 1091.52 -6.18826 -1.92246 0
M  V30 11200 N 1084.93 0.6715 -1.42579 0
M  V30 11201 C 1085.86 1.79693 -1.49107 0
M  V30 11202 C 1086.84 1.66516 -0.347338 0
M  V30 11203 O 1088.02 1.85887 -0.562094 0
M  V30 11204 C 1085.15 3.1801 -1.39596 0
M  V30 11205 C 1084.11 3.45926 -2.5203 0
M  V30 11206 C 1083.43 4.83852 -2.27577 0
M  V30 11207 C 1084.73 3.4249 -3.94333 0
M  V30 11208 H 1086.43 1.74486 -2.433 0
M  V30 11209 H 1083.97 0.838042 -1.17102 0
M  V30 11210 H 1085.92 3.96478 -1.42771 0
M  V30 11211 H 1084.65 3.23901 -0.418989 0
M  V30 11212 H 1083.31 2.6982 -2.48178 0
M  V30 11213 H 1082.96 4.86398 -1.28165 0
M  V30 11214 H 1082.66 5.03493 -3.02934 0
M  V30 11215 H 1084.18 5.646 -2.32506 0
M  V30 11216 H 1085.59 4.10922 -3.9977 0
M  V30 11217 H 1083.99 3.73666 -4.69568 0
M  V30 11218 H 1085.06 2.41002 -4.20768 0
M  V30 11219 N 1086.4 1.28806 0.908124 0
M  V30 11220 C 1087.65 1.17469 1.6605 0
M  V30 11221 C 1088 -0.272864 1.90455 0
M  V30 11222 O 1087.3 -1.19476 1.49787 0
M  V30 11223 C 1087.49 1.91267 3.01914 0
M  V30 11224 C 1087.32 3.43051 2.90769 0
M  V30 11225 C 1086.09 4.12395 2.9199 0
M  V30 11226 C 1088.29 4.38696 2.68422 0
M  V30 11227 N 1086.27 5.50604 2.71493 0
M  V30 11228 C 1087.64 5.64307 2.56823 0
M  V30 11229 C 1089.7 4.28557 2.53463 0
M  V30 11230 C 1088.4 6.80931 2.31789 0
M  V30 11231 C 1090.43 5.44923 2.2981 0
M  V30 11232 C 1089.79 6.69501 2.1897 0
M  V30 11233 H 1085.89 0.484813 0.61358 0
M  V30 11234 H 1088.47 1.62528 1.07204 0
M  V30 11235 H 1086.64 1.48634 3.58835 0
M  V30 11236 H 1088.37 1.72267 3.66205 0
M  V30 11237 H 1085.13 3.64024 3.02958 0
M  V30 11238 H 1085.55 6.23269 2.6432 0
M  V30 11239 H 1090.19 3.32944 2.60592 0
M  V30 11240 H 1087.91 7.76607 2.23399 0
M  V30 11241 H 1091.5 5.38971 2.19092 0
M  V30 11242 H 1090.38 7.58025 2.00918 0
M  V30 11243 N 1087.88 -1.11734 1.11145 0
M  V30 11244 C 1089.13 -1.83677 0.859684 0
M  V30 11245 C 1089.46 -1.84265 -0.613182 0
M  V30 11246 O 1088.74 -1.29351 -1.45254 0
M  V30 11247 C 1089.02 -3.31003 1.41805 0
M  V30 11248 C 1088.87 -3.38827 2.95831 0
M  V30 11249 C 1090.19 -4.26984 1.06645 0
M  V30 11250 H 1087.31 -0.666879 0.313754 0
M  V30 11251 H 1089.95 -1.31038 1.37583 0
M  V30 11252 H 1088.1 -3.75961 0.979054 0
M  V30 11253 H 1089.77 -3.02451 3.48312 0
M  V30 11254 H 1088.02 -2.79143 3.32056 0
M  V30 11255 H 1088.69 -4.42508 3.29986 0
M  V30 11256 H 1091.16 -3.9019 1.44537 0
M  V30 11257 H 1090.04 -5.2846 1.48394 0
M  V30 11258 H 1090.3 -4.42094 -0.0231866 0
M  V30 11259 N 1089.36 -0.901303 -1.29284 0
M  V30 11260 C 1090.32 -0.385081 -2.25942 0
M  V30 11261 C 1091.32 0.481626 -1.53418 0
M  V30 11262 O 1092.51 0.286451 -1.71829 0
M  V30 11263 C 1089.64 0.449319 -3.37926 0
M  V30 11264 H 1090.84 -1.23877 -2.7312 0
M  V30 11265 H 1088.39 -0.679586 -1.40753 0
M  V30 11266 H 1089.13 1.32292 -2.9609 0
M  V30 11267 H 1088.91 -0.171731 -3.91724 0
M  V30 11268 H 1090.4 0.801746 -4.09831 0
M  V30 11269 N 1090.84 1.42931 -0.663954 0
M  V30 11270 C 1092.25 1.84877 -0.260283 0
M  V30 11271 C 1092.6 1.5558 1.19538 0
M  V30 11272 O 1091.72 1.01015 1.91377 0
M  V30 11273 C 1092.32 3.35585 -0.465618 0
M  V30 11274 C 1090.88 3.76221 -0.116169 0
M  V30 11275 C 1090.03 2.66587 -0.763317 0
M  V30 11276 H 1092.98 1.32932 -0.866882 0
M  V30 11277 H 1093 3.79427 0.285608 0
M  V30 11278 H 1092.51 3.56877 -1.52515 0
M  V30 11279 H 1090.61 3.60539 0.940342 0
M  V30 11280 H 1090.72 4.75943 -0.549123 0
M  V30 11281 H 1089.09 2.53948 -0.19559 0
M  V30 11282 H 1089.87 2.90704 -1.82609 0
M  V30 11283 N 1092.32 0.406567 1.52266 0
M  V30 11284 C 1093.73 -0.063607 1.86592 0
M  V30 11285 C 1094.08 -1.4466 1.32544 0
M  V30 11286 O 1093.2 -2.05971 0.663692 0
M  V30 11287 C 1093.8 -0.122198 3.3858 0
M  V30 11288 C 1092.36 -0.536701 3.72554 0
M  V30 11289 C 1091.5 0.290422 2.75775 0
M  V30 11290 H 1094.45 0.623738 1.45929 0
M  V30 11291 H 1094.48 -0.937964 3.68758 0
M  V30 11292 H 1093.99 0.884495 3.77887 0
M  V30 11293 H 1092.09 -1.55013 3.38824 0
M  V30 11294 H 1092.2 -0.282867 4.78264 0
M  V30 11295 H 1090.57 -0.246864 2.53501 0
M  V30 11296 H 1091.35 1.29541 3.17921 0
M  V30 11297 N 1093.79 -1.57004 0.136909 0
M  V30 11298 C 1095.02 -2.00156 -0.523936 0
M  V30 11299 C 1095.44 -1.01688 -1.59075 0
M  V30 11300 O 1094.79 -0.0123678 -1.82496 0
M  V30 11301 C 1094.85 -3.4326 -1.13379 0
M  V30 11302 O 1094.57 -4.37963 -0.109598 0
M  V30 11303 C 1096.07 -4.01637 -1.87623 0
M  V30 11304 H 1093.29 -0.65681 -0.137263 0
M  V30 11305 H 1095.83 -2.03219 0.228522 0
M  V30 11306 H 1093.99 -3.4108 -1.83693 0
M  V30 11307 H 1094.4 -5.21555 -0.55503 0
M  V30 11308 H 1095.87 -5.03795 -2.25597 0
M  V30 11309 H 1096.35 -3.41781 -2.75831 0
M  V30 11310 H 1096.96 -4.07417 -1.22031 0
M  V30 11311 N 1095.27 0.136881 -1.57004 0
M  V30 11312 C 1096.69 0.489856 -1.51897 0
M  V30 11313 C 1096.89 1.82833 -0.847009 0
M  V30 11314 O 1095.94 2.48952 -0.421792 0
M  V30 11315 C 1097.26 0.490831 -2.96667 0
M  V30 11316 C 1098.81 0.575639 -3.07661 0
M  V30 11317 C 1099.28 0.607178 -4.53957 0
M  V30 11318 N 1100.77 0.66912 -4.58342 0
M  V30 11319 C 1101.51 0.714675 -5.68929 0
M  V30 11320 N 1101 0.718959 -6.89059 0
M  V30 11321 N 1102.8 0.756326 -5.56988 0
M  V30 11322 H 1094.95 -0.740347 -1.99079 0
M  V30 11323 H 1097.21 -0.271116 -0.908405 0
M  V30 11324 H 1096.92 -0.424648 -3.49127 0
M  V30 11325 H 1096.79 1.32512 -3.53158 0
M  V30 11326 H 1099.18 1.48154 -2.55215 0
M  V30 11327 H 1099.26 -0.285991 -2.54196 0
M  V30 11328 H 1098.9 -0.294604 -5.07045 0
M  V30 11329 H 1098.83 1.48544 -5.05215 0
M  V30 11330 H 1101.32 0.672697 -3.71864 0
M  V30 11331 H 1101.64 0.755848 -7.69095 0
M  V30 11332 H 1099.98 0.686671 -6.91599 0
M  V30 11333 H 1103.17 0.750219 -4.62049 0
M  V30 11334 H 1103.34 0.788363 -6.43186 0
M  V30 11335 N 1096.75 1.52266 0.40654 0
M  V30 11336 C 1097.68 1.70519 1.51653 0
M  V30 11337 C 1098.66 0.552798 1.52915 0
M  V30 11338 O 1099.85 0.780468 1.71584 0
M  V30 11339 C 1096.97 1.74686 2.90176 0
M  V30 11340 C 1096.02 2.96255 3.06815 0
M  V30 11341 S 1096.85 4.56553 2.79856 0
M  V30 11342 C 1098.01 4.63511 4.20605 0
M  V30 11343 H 1098.24 2.64399 1.35942 0
M  V30 11344 H 1095.77 1.42337 0.598284 0
M  V30 11345 H 1097.73 1.77773 3.7001 0
M  V30 11346 H 1096.39 0.819291 3.03227 0
M  V30 11347 H 1095.59 2.95661 4.08167 0
M  V30 11348 H 1095.19 2.91069 2.34851 0
M  V30 11349 H 1097.48 4.41047 5.1428 0
M  V30 11350 H 1098.42 5.65456 4.26222 0
M  V30 11351 H 1098.83 3.92518 4.05697 0
M  V30 11352 N 1098.23 -0.663929 1.42933 0
M  V30 11353 C 1099.51 -1.42054 1.34462 0
M  V30 11354 C 1099.89 -2.11096 -0.0127801 0
M  V30 11355 O 1099.23 -2.04027 -1.02884 0
M  V30 11356 C 1099.44 -2.41406 2.5204 0
M  V30 11357 C 1100.79 -3.05726 2.94647 0
M  V30 11358 O 1101.82 -2.51733 2.52009 0
M  V30 11359 O 1100.67 -4.03593 3.68477 0
M  V30 11360 H 1097.77 -0.634149 0.530834 0
M  V30 11361 H 1100.31 -0.691738 1.54962 0
M  V30 11362 H 1099.09 -1.89263 3.42484 0
M  V30 11363 H 1098.71 -3.21752 2.33584 0
M  V30 11364 N 1099.71 -1.29285 -0.901281 0
M  V30 11365 C 1100.67 -1.14283 -1.98676 0
M  V30 11366 C 1101.67 -0.0787641 -1.60607 0
M  V30 11367 O 1102.86 -0.325574 -1.71131 0
M  V30 11368 C 1099.99 -0.747279 -3.32609 0
M  V30 11369 H 1101.18 -2.10701 -2.13413 0
M  V30 11370 H 1098.74 -1.12449 -1.08558 0
M  V30 11371 H 1099.47 0.217111 -3.23572 0
M  V30 11372 H 1099.26 -1.51608 -3.61604 0
M  V30 11373 H 1100.75 -0.665322 -4.12266 0
M  V30 11374 N 1101.18 1.11143 -1.11736 0
M  V30 11375 C 1102.15 2.15456 -0.78174 0
M  V30 11376 C 1103.15 1.59547 0.200383 0
M  V30 11377 O 1104.34 1.74183 -0.0244893 0
M  V30 11378 C 1101.47 3.40523 -0.160364 0
M  V30 11379 H 1102.66 2.46658 -1.70586 0
M  V30 11380 H 1100.22 1.26381 -0.919644 0
M  V30 11381 H 1100.95 3.14932 0.773835 0
M  V30 11382 H 1100.74 3.82386 -0.867378 0
M  V30 11383 H 1102.23 4.17559 0.0582175 0
M  V30 11384 N 1102.66 0.908147 1.28804 0
M  V30 11385 C 1103.59 0.34957 2.26519 0
M  V30 11386 C 1104.61 -0.508845 1.54643 0
M  V30 11387 O 1105.8 -0.324633 1.75523 0
M  V30 11388 C 1102.9 -0.519461 3.34895 0
M  V30 11389 C 1102.07 0.315157 4.36263 0
M  V30 11390 C 1101.13 -0.488059 5.23932 0
M  V30 11391 O 1100.15 0.0974133 5.69117 0
M  V30 11392 N 1101.36 -1.79233 5.52137 0
M  V30 11393 H 1104.12 1.18945 2.75086 0
M  V30 11394 H 1101.68 0.77351 1.42227 0
M  V30 11395 H 1103.67 -1.0634 3.90479 0
M  V30 11396 H 1102.24 -1.26004 2.8608 0
M  V30 11397 H 1101.46 1.04049 3.8022 0
M  V30 11398 H 1102.75 0.886438 5.01019 0
M  V30 11399 H 1102.15 -2.2906 5.1725 0
M  V30 11400 H 1100.71 -2.28322 6.10502 0
M  V30 11401 N 1104.14 -1.42577 0.671525 0
M  V30 11402 C 1105.07 -2.33499 0.00506984 0
M  V30 11403 C 1106.05 -1.50497 -0.792763 0
M  V30 11404 O 1107.24 -1.79109 -0.750574 0
M  V30 11405 C 1104.37 -3.34077 -0.949194 0
M  V30 11406 C 1103.32 -4.27208 -0.260187 0
M  V30 11407 C 1102.65 -5.17968 -1.32716 0
M  V30 11408 C 1103.95 -5.15192 0.858772 0
M  V30 11409 H 1105.64 -2.89477 0.764407 0
M  V30 11410 H 1103.19 -1.39191 0.369043 0
M  V30 11411 H 1105.14 -3.96594 -1.42448 0
M  V30 11412 H 1103.86 -2.76396 -1.73991 0
M  V30 11413 H 1102.52 -3.66082 0.194834 0
M  V30 11414 H 1102.17 -4.56615 -2.10979 0
M  V30 11415 H 1101.87 -5.81104 -0.871293 0
M  V30 11416 H 1103.39 -5.83359 -1.80345 0
M  V30 11417 H 1104.81 -5.71412 0.464844 0
M  V30 11418 H 1103.21 -5.87144 1.24023 0
M  V30 11419 H 1104.28 -4.53787 1.70895 0
M  V30 11420 N 1105.62 -0.414636 -1.52048 0
M  V30 11421 C 1106.85 0.158686 -2.06291 0
M  V30 11422 C 1107.26 1.38397 -1.2842 0
M  V30 11423 O 1106.62 1.79351 -0.337539 0
M  V30 11424 C 1106.67 0.503634 -3.57975 0
M  V30 11425 O 1106.39 -0.672996 -4.329 0
M  V30 11426 C 1107.89 1.13009 -4.28653 0
M  V30 11427 H 1105.11 0.0179622 -0.67076 0
M  V30 11428 H 1107.66 -0.587177 -1.95889 0
M  V30 11429 H 1105.81 1.19939 -3.68366 0
M  V30 11430 H 1106.22 -0.383735 -5.23094 0
M  V30 11431 H 1107.7 1.32162 -5.35945 0
M  V30 11432 H 1108.18 2.10476 -3.85482 0
M  V30 11433 H 1108.78 0.474379 -4.22646 0
M  V30 11434 N 1107.1 1.56929 -0.145233 0
M  V30 11435 C 1108.01 2.20238 0.808219 0
M  V30 11436 C 1109.02 1.18615 1.27304 0
M  V30 11437 O 1110.2 1.51186 1.3306 0
M  V30 11438 C 1107.26 2.81016 2.03055 0
M  V30 11439 C 1106.32 3.97759 1.61512 0
M  V30 11440 C 1105.56 4.55628 2.77918 0
M  V30 11441 O 1105.78 4.12378 3.94082 0
M  V30 11442 O 1104.71 5.45917 2.53492 0
M  V30 11443 H 1108.54 3.02221 0.299314 0
M  V30 11444 H 1106.13 1.49176 0.0817051 0
M  V30 11445 H 1108.01 3.19652 2.74592 0
M  V30 11446 H 1106.68 2.02047 2.52901 0
M  V30 11447 H 1105.59 3.63842 0.870033 0
M  V30 11448 H 1106.92 4.78242 1.16383 0
M  V30 11449 N 1108.58 -0.128553 1.57075 0
M  V30 11450 C 1109.49 -1.17718 2.02927 0
M  V30 11451 C 1110.5 -1.45912 0.947932 0
M  V30 11452 O 1111.68 -1.57217 1.25876 0
M  V30 11453 C 1108.74 -2.48625 2.41633 0
M  V30 11454 C 1107.8 -2.27914 3.63804 0
M  V30 11455 C 1107.04 -3.52579 4.00654 0
M  V30 11456 O 1107.26 -4.59505 3.37952 0
M  V30 11457 O 1106.19 -3.44147 4.93808 0
M  V30 11458 H 1110.02 -0.817846 2.92481 0
M  V30 11459 H 1107.6 -0.338649 1.45511 0
M  V30 11460 H 1109.49 -3.2577 2.67305 0
M  V30 11461 H 1108.16 -2.84052 1.55229 0
M  V30 11462 H 1107.07 -1.4866 3.43294 0
M  V30 11463 H 1108.4 -1.97395 4.50883 0
M  V30 11464 N 1110.05 -1.5248 -0.398459 0
M  V30 11465 C 1111.3 -1.66731 -1.14215 0
M  V30 11466 C 1111.62 -0.404957 -1.90749 0
M  V30 11467 O 1110.89 0.580434 -1.87104 0
M  V30 11468 H 1109.47 -0.614577 -0.424622 0
M  V30 11469 H 1112.13 -1.89561 -0.453059 0
M  V30 11470 H 1111.23 -2.51336 -1.85031 0
M  V30 11471 N 1111.53 0.65634 -1.43283 0
M  V30 11472 C 1112.76 1.44199 -1.47954 0
M  V30 11473 C 1113.17 1.88961 -0.0950315 0
M  V30 11474 O 1112.51 1.59895 0.904388 0
M  V30 11475 C 1112.57 2.71161 -2.36033 0
M  V30 11476 C 1112.24 2.48359 -3.83623 0
M  V30 11477 C 1113.24 2.1178 -4.74811 0
M  V30 11478 C 1110.92 2.6278 -4.28079 0
M  V30 11479 C 1112.91 1.89915 -6.0845 0
M  V30 11480 C 1110.6 2.4053 -5.61772 0
M  V30 11481 C 1111.6 2.04154 -6.51775 0
M  V30 11482 O 1111.29 1.82134 -7.82996 0
M  V30 11483 H 1111.02 0.449567 -0.504842 0
M  V30 11484 H 1113.57 0.812234 -1.88658 0
M  V30 11485 H 1111.8 3.36685 -1.9021 0
M  V30 11486 H 1113.49 3.33102 -2.31944 0
M  V30 11487 H 1114.26 2.00217 -4.41744 0
M  V30 11488 H 1110.14 2.9007 -3.58302 0
M  V30 11489 H 1113.68 1.61445 -6.78661 0
M  V30 11490 H 1109.58 2.51695 -5.94407 0
M  V30 11491 H 1110.35 1.96584 -7.94542 0
M  V30 11492 N 1113.01 1.29761 0.894412 0
M  V30 11493 C 1114.24 1.20765 1.67629 0
M  V30 11494 C 1114.65 -0.233434 1.87754 0
M  V30 11495 O 1113.99 -1.16747 1.4183 0
M  V30 11496 C 1114.05 1.85542 3.07919 0
M  V30 11497 C 1113.72 3.34852 3.11004 0
M  V30 11498 C 1114.71 4.30994 2.90758 0
M  V30 11499 C 1112.4 3.76141 3.32901 0
M  V30 11500 C 1114.39 5.664 2.92352 0
M  V30 11501 C 1112.08 5.11667 3.34126 0
M  V30 11502 C 1113.08 6.06607 3.13874 0
M  V30 11503 O 1112.77 7.39659 3.14897 0
M  V30 11504 H 1112.5 0.419418 0.530155 0
M  V30 11505 H 1115.05 1.71754 1.12648 0
M  V30 11506 H 1113.28 1.29071 3.64524 0
M  V30 11507 H 1114.97 1.70795 3.68217 0
M  V30 11508 H 1115.74 4.00427 2.73648 0
M  V30 11509 H 1111.62 3.02694 3.47703 0
M  V30 11510 H 1115.16 6.40479 2.76464 0
M  V30 11511 H 1111.06 5.41877 3.50769 0
M  V30 11512 H 1111.82 7.4853 3.31127 0
M  V30 11513 N 1114.49 -1.10549 1.12324 0
M  V30 11514 C 1115.71 -1.8681 0.900927 0
M  V30 11515 C 1116.14 -1.80049 -0.54443 0
M  V30 11516 O 1115.5 -1.16957 -1.38531 0
M  V30 11517 C 1115.54 -3.33197 1.37883 0
M  V30 11518 O 1114.65 -4.08628 0.556529 0
M  V30 11519 H 1113.99 -0.579709 0.32378 0
M  V30 11520 H 1116.52 -1.39678 1.49503 0
M  V30 11521 H 1116.53 -3.84047 1.37739 0
M  V30 11522 H 1115.2 -3.37435 2.43127 0
M  V30 11523 H 1113.78 -3.67627 0.62486 0
M  V30 11524 N 1115.97 -0.914965 -1.28321 0
M  V30 11525 C 1117.21 -0.549562 -1.95212 0
M  V30 11526 C 1117.54 0.904658 -1.71842 0
M  V30 11527 O 1116.82 1.64354 -1.04009 0
M  V30 11528 C 1117.1 -0.860927 -3.49657 0
M  V30 11529 C 1116.96 -2.36797 -3.82423 0
M  V30 11530 C 1118.27 -0.357926 -4.38642 0
M  V30 11531 H 1115.39 -0.201136 -0.709023 0
M  V30 11532 H 1118.04 -1.14443 -1.51667 0
M  V30 11533 H 1116.19 -0.354665 -3.86878 0
M  V30 11534 H 1117.86 -2.94494 -3.55065 0
M  V30 11535 H 1116.1 -2.82245 -3.29424 0
M  V30 11536 H 1116.77 -2.53637 -4.90278 0
M  V30 11537 H 1119.25 -0.791636 -4.085 0
M  V30 11538 H 1118.12 -0.604855 -5.45557 0
M  V30 11539 H 1118.38 0.741775 -4.35833 0
M  V30 11540 N 1117.44 1.42219 -0.679077 0
M  V30 11541 C 1118.69 2.01479 -0.203119 0
M  V30 11542 C 1119.02 1.5371 1.19178 0
M  V30 11543 O 1118.27 0.731832 1.81501 0
M  V30 11544 C 1118.57 3.56889 -0.191027 0
M  V30 11545 C 1118.24 4.24106 -1.53118 0
M  V30 11546 C 1116.9 4.42182 -1.89812 0
M  V30 11547 C 1119.25 4.61946 -2.41361 0
M  V30 11548 C 1116.58 4.95371 -3.14364 0
M  V30 11549 C 1118.93 5.16518 -3.65229 0
M  V30 11550 C 1117.6 5.32807 -4.02086 0
M  V30 11551 H 1116.87 0.737263 -0.0743264 0
M  V30 11552 H 1119.51 1.70346 -0.874908 0
M  V30 11553 H 1117.82 3.87715 0.564282 0
M  V30 11554 H 1119.52 4.00528 0.194511 0
M  V30 11555 H 1116.11 4.10399 -1.23575 0
M  V30 11556 H 1120.29 4.4765 -2.14297 0
M  V30 11557 H 1115.55 5.06167 -3.42935 0
M  V30 11558 H 1119.72 5.44782 -4.33804 0
M  V30 11559 H 1117.35 5.73785 -4.98673 0
M  V30 11560 N 1118.92 0.422693 1.51826 0
M  V30 11561 C 1120.17 -0.148348 2.01555 0
M  V30 11562 C 1120.49 -1.44483 1.30956 0
M  V30 11563 O 1119.76 -1.90904 0.439599 0
M  V30 11564 H 1118.34 -0.0578116 0.74476 0
M  V30 11565 H 1121 0.562046 1.8662 0
M  V30 11566 H 1120.1 -0.334766 3.10299 0
M  V30 11567 N 1120.4 -1.5685 0.153553 0
M  V30 11568 C 1121.35 -2.1709 -0.783626 0
M  V30 11569 C 1122.32 -1.10567 -1.23952 0
M  V30 11570 O 1123.5 -1.38638 -1.31088 0
M  V30 11571 C 1120.64 -2.80183 -2.01473 0
M  V30 11572 C 1119.75 -4.01117 -1.60403 0
M  V30 11573 C 1118.89 -4.5219 -2.78743 0
M  V30 11574 C 1117.93 -5.65574 -2.34079 0
M  V30 11575 N 1117.07 -6.11235 -3.4545 0
M  V30 11576 H 1121.91 -2.96836 -0.263127 0
M  V30 11577 H 1119.44 -1.46625 -0.11816 0
M  V30 11578 H 1121.4 -3.14912 -2.73654 0
M  V30 11579 H 1120.03 -2.03071 -2.50923 0
M  V30 11580 H 1119.08 -3.72325 -0.779631 0
M  V30 11581 H 1120.39 -4.83243 -1.23605 0
M  V30 11582 H 1119.55 -4.89008 -3.59105 0
M  V30 11583 H 1118.29 -3.69085 -3.18791 0
M  V30 11584 H 1117.29 -5.28326 -1.52158 0
M  V30 11585 H 1118.52 -6.50468 -1.95109 0
M  V30 11586 H 1116.46 -5.31064 -3.85106 0
M  V30 11587 H 1116.38 -6.88304 -3.12687 0
M  V30 11588 H 1117.65 -6.527 -4.26149 0
M  V30 11589 N 1121.88 0.120221 -1.57141 0
M  V30 11590 C 1123.1 0.84637 -1.89344 0
M  V30 11591 C 1123.53 1.72702 -0.745365 0
M  V30 11592 O 1122.89 1.7873 0.304155 0
M  V30 11593 C 1122.93 1.65671 -3.20289 0
M  V30 11594 O 1122.04 2.76353 -3.06109 0
M  V30 11595 H 1121.38 0.234132 -0.621352 0
M  V30 11596 H 1123.91 0.102986 -2.04341 0
M  V30 11597 H 1123.92 2.04621 -3.52979 0
M  V30 11598 H 1122.59 1.01023 -4.03444 0
M  V30 11599 H 1121.17 2.40615 -2.84884 0
M  V30 11600 N 1123.36 1.52689 0.390367 0
M  V30 11601 C 1124.6 1.67335 1.13329 0
M  V30 11602 C 1124.93 0.415068 1.90531 0
M  V30 11603 O 1124.2 -0.570504 1.87409 0
M  V30 11604 H 1122.78 0.616821 0.421356 0
M  V30 11605 H 1125.44 1.89799 0.443 0
M  V30 11606 H 1124.53 2.52314 1.83696 0
M  V30 11607 N 1124.83 -0.648732 1.43629 0
M  V30 11608 C 1125.8 -1.74331 1.488 0
M  V30 11609 C 1126.8 -1.56434 0.372147 0
M  V30 11610 O 1127.99 -1.6225 0.634078 0
M  V30 11611 C 1125.12 -3.13248 1.34494 0
M  V30 11612 H 1126.31 -1.71125 2.46285 0
M  V30 11613 H 1123.87 -0.860798 1.30461 0
M  V30 11614 H 1124.6 -3.22062 0.380345 0
M  V30 11615 H 1124.39 -3.27643 2.15389 0
M  V30 11616 H 1125.88 -3.93056 1.41055 0
M  V30 11617 N 1126.31 -1.30234 -0.887518 0
M  V30 11618 C 1127.73 -1.0851 -1.17037 0
M  V30 11619 C 1127.93 0.155788 -2.00897 0
M  V30 11620 O 1126.98 0.850123 -2.37759 0
M  V30 11621 C 1128.3 -2.34723 -1.87951 0
M  V30 11622 C 1129.85 -2.40163 -2.00726 0
M  V30 11623 C 1130.32 -3.66211 -2.75051 0
M  V30 11624 N 1131.81 -3.67004 -2.82599 0
M  V30 11625 C 1132.55 -4.61224 -3.40676 0
M  V30 11626 N 1132.04 -5.65786 -3.99823 0
M  V30 11627 N 1133.84 -4.48772 -3.38467 0
M  V30 11628 H 1125.99 -2.09847 -0.328297 0
M  V30 11629 H 1128.25 -0.924904 -0.20798 0
M  V30 11630 H 1127.96 -3.25265 -1.33773 0
M  V30 11631 H 1127.83 -2.43175 -2.8835 0
M  V30 11632 H 1130.22 -1.50101 -2.54074 0
M  V30 11633 H 1130.3 -2.35688 -0.994218 0
M  V30 11634 H 1129.94 -4.56631 -2.22376 0
M  V30 11635 H 1129.87 -3.67947 -3.76726 0
M  V30 11636 H 1132.36 -2.91409 -2.40602 0
M  V30 11637 H 1132.68 -6.33783 -4.42197 0
M  V30 11638 H 1131.02 -5.69581 -3.9825 0
M  V30 11639 H 1134.21 -3.6627 -2.91485 0
M  V30 11640 H 1134.38 -5.22382 -3.83433 0
M  V30 11641 N 1127.79 1.09952 -1.12909 0
M  V30 11642 C 1129.04 1.81386 -0.882163 0
M  V30 11643 C 1129.35 1.86376 0.593592 0
M  V30 11644 O 1130.56 2.54064 0.957275 0
M  V30 11645 C 1129.01 3.25824 -1.52861 0
M  V30 11646 C 1128.62 3.29117 -3.0395 0
M  V30 11647 C 1130.37 4.02051 -1.36216 0
M  V30 11648 C 1128.27 4.68047 -3.61505 0
M  V30 11649 H 1127.2 0.679701 -0.326378 0
M  V30 11650 H 1129.85 1.23614 -1.35616 0
M  V30 11651 H 1128.24 3.83624 -0.982271 0
M  V30 11652 H 1129.41 2.81114 -3.65119 0
M  V30 11653 H 1127.73 2.66379 -3.20049 0
M  V30 11654 H 1130.32 5.04683 -1.76633 0
M  V30 11655 H 1130.67 4.15171 -0.306391 0
M  V30 11656 H 1131.2 3.5068 -1.87799 0
M  V30 11657 H 1127.94 4.60128 -4.66865 0
M  V30 11658 H 1127.46 5.16397 -3.05114 0
M  V30 11659 H 1129.14 5.37018 -3.6086 0
M  V30 11660 N 1129.27 0.921757 1.27833 0
M  V30 11661 C 1130.18 0.421668 2.30779 0
M  V30 11662 C 1131.19 -0.494686 1.6682 0
M  V30 11663 O 1132.37 -0.378935 1.97803 0
M  V30 11664 C 1129.44 -0.322928 3.45193 0
M  V30 11665 C 1128.5 0.627618 4.24687 0
M  V30 11666 C 1127.73 -0.0815385 5.33638 0
M  V30 11667 O 1127.95 -1.30193 5.55343 0
M  V30 11668 O 1126.89 0.58725 5.99028 0
M  V30 11669 H 1130.71 1.2763 2.7558 0
M  V30 11670 H 1128.3 0.686877 1.32674 0
M  V30 11671 H 1130.18 -0.743145 4.14796 0
M  V30 11672 H 1128.85 -1.15326 3.02459 0
M  V30 11673 H 1127.76 1.09739 3.57642 0
M  V30 11674 H 1129.09 1.425 4.71121 0
M  V30 11675 N 1130.75 -1.41857 0.686609 0
M  V30 11676 C 1132 -2.00594 0.21095 0
M  V30 11677 C 1132.31 -1.54974 -1.19341 0
M  V30 11678 O 1133.51 -2.0621 -1.76607 0
M  V30 11679 C 1131.97 -3.58418 0.326261 0
M  V30 11680 C 1131.58 -4.13022 1.73542 0
M  V30 11681 C 1133.32 -4.24404 -0.0900816 0
M  V30 11682 C 1131.23 -5.6325 1.80287 0
M  V30 11683 H 1130.16 -0.75025 0.0751077 0
M  V30 11684 H 1132.81 -1.62442 0.853508 0
M  V30 11685 H 1131.19 -3.9413 -0.384394 0
M  V30 11686 H 1132.37 -3.88747 2.47411 0
M  V30 11687 H 1130.68 -3.5953 2.10065 0
M  V30 11688 H 1133.28 -5.34666 -0.060004 0
M  V30 11689 H 1133.62 -4.00745 -1.12733 0
M  V30 11690 H 1134.15 -3.93695 0.569979 0
M  V30 11691 H 1130.89 -5.91724 2.82034 0
M  V30 11692 H 1130.41 -5.89479 1.1079 0
M  V30 11693 H 1132.09 -6.2787 1.56167 0
M  V30 11694 N 1132.22 -0.430739 -1.51599 0
M  V30 11695 C 1133.64 0.0339139 -1.86669 0
M  V30 11696 C 1133.99 1.42533 -1.34829 0
M  V30 11697 O 1133.11 2.04889 -0.696376 0
M  V30 11698 C 1133.71 0.0683174 -3.38731 0
M  V30 11699 C 1132.27 0.477363 -3.73361 0
M  V30 11700 C 1131.41 -0.334258 -2.75278 0
M  V30 11701 H 1134.36 -0.646875 -1.44918 0
M  V30 11702 H 1134.38 0.879179 -3.70204 0
M  V30 11703 H 1133.9 -0.944501 -3.76432 0
M  V30 11704 H 1132 1.49603 -3.41247 0
M  V30 11705 H 1132.11 0.206744 -4.78654 0
M  V30 11706 H 1130.47 0.206503 -2.53861 0
M  V30 11707 H 1131.26 -1.34583 -3.1582 0
M  V30 11708 N 1133.7 1.56767 -0.161869 0
M  V30 11709 C 1134.95 1.96206 0.484537 0
M  V30 11710 C 1135.27 1.04848 1.64414 0
M  V30 11711 O 1134.54 0.112946 1.95574 0
M  V30 11712 H 1133.12 0.724491 0.181994 0
M  V30 11713 H 1135.78 1.93406 -0.240845 0
M  V30 11714 H 1134.88 3.00279 0.85083 0
M  V30 11715 N 1135.18 -0.111886 1.57202 0
M  V30 11716 C 1136.42 -0.82422 1.87045 0
M  V30 11717 C 1136.78 -1.76713 0.750765 0
M  V30 11718 O 1137.99 -2.52157 0.931154 0
M  V30 11719 C 1136.26 -1.5483 3.22122 0
M  V30 11720 S 1137.82 -2.30123 3.73616 0
M  V30 11721 H 1134.63 -0.274945 0.655687 0
M  V30 11722 H 1137.24 -0.0821899 1.95327 0
M  V30 11723 H 1135.94 -0.847704 4.0155 0
M  V30 11724 H 1135.47 -2.33056 3.16936 0
M  V30 11725 H 1137.49 -3.5597 3.45687 0
M  V30 11726 N 1136.66 -1.52894 -0.382264 0
M  V30 11727 C 1137.88 -1.72453 -1.15216 0
M  V30 11728 C 1138.31 -0.444925 -1.82762 0
M  V30 11729 O 1137.67 0.599825 -1.7109 0
M  V30 11730 C 1137.71 -2.87939 -2.17079 0
M  V30 11731 O 1136.82 -2.55383 -3.23811 0
M  V30 11732 H 1136.16 -0.57324 -0.335099 0
M  V30 11733 H 1138.69 -1.99713 -0.444495 0
M  V30 11734 H 1138.7 -3.13628 -2.60963 0
M  V30 11735 H 1137.37 -3.80765 -1.67305 0
M  V30 11736 H 1135.95 -2.40457 -2.85018 0
M  V30 11737 N 1138.14 0.641106 -1.43971 0
M  V30 11738 C 1139.07 1.76489 -1.52885 0
M  V30 11739 C 1140.05 1.65742 -0.38258 0
M  V30 11740 O 1141.23 1.84653 -0.601397 0
M  V30 11741 C 1138.36 3.14977 -1.4631 0
M  V30 11742 C 1137.32 3.40502 -2.59311 0
M  V30 11743 C 1136.64 4.78916 -2.37789 0
M  V30 11744 C 1137.94 3.34048 -4.01509 0
M  V30 11745 H 1139.64 1.69286 -2.46946 0
M  V30 11746 H 1137.18 0.813015 -1.18853 0
M  V30 11747 H 1139.14 3.9336 -1.51149 0
M  V30 11748 H 1137.86 3.2294 -0.487599 0
M  V30 11749 H 1136.52 2.64495 -2.53846 0
M  V30 11750 H 1136.17 4.8357 -1.38454 0
M  V30 11751 H 1135.87 4.96954 -3.13545 0
M  V30 11752 H 1137.39 5.59541 -2.4443 0
M  V30 11753 H 1138.81 4.0235 -4.08396 0
M  V30 11754 H 1137.2 3.63622 -4.77388 0
M  V30 11755 H 1138.27 2.32022 -4.25786 0
M  V30 11756 N 1139.62 1.30703 0.880598 0
M  V30 11757 C 1140.86 1.21066 1.64688 0
M  V30 11758 C 1141.22 -0.230015 1.90617 0
M  V30 11759 O 1142.42 -0.449696 2.65012 0
M  V30 11760 C 1140.69 2.02072 2.94791 0
M  V30 11761 S 1142.25 2.09182 3.85731 0
M  V30 11762 H 1139.07 0.431369 0.565192 0
M  V30 11763 H 1141.67 1.65234 1.04489 0
M  V30 11764 H 1140.37 3.05851 2.73648 0
M  V30 11765 H 1139.91 1.58583 3.60021 0
M  V30 11766 H 1141.92 1.22239 4.80908 0
M  V30 11767 N 1141.09 -1.09351 1.1349 0
M  V30 11768 C 1142.03 -2.15291 0.756645 0
M  V30 11769 C 1143 -1.60548 -0.257497 0
M  V30 11770 O 1144.19 -1.87912 -0.14882 0
M  V30 11771 C 1141.32 -3.38481 0.121799 0
M  V30 11772 C 1140.36 -4.11949 1.10456 0
M  V30 11773 S 1141.19 -4.6605 2.63738 0
M  V30 11774 C 1142.35 -5.92539 2.01615 0
M  V30 11775 H 1142.58 -2.47044 1.65398 0
M  V30 11776 H 1140.12 -1.21312 0.955129 0
M  V30 11777 H 1142.07 -4.09809 -0.238086 0
M  V30 11778 H 1140.74 -3.04945 -0.752821 0
M  V30 11779 H 1139.93 -5.00317 0.608195 0
M  V30 11780 H 1139.53 -3.46486 1.40795 0
M  V30 11781 H 1141.82 -6.63593 1.36569 0
M  V30 11782 H 1142.77 -6.46856 2.88068 0
M  V30 11783 H 1143.17 -5.45094 1.46741 0
M  V30 11784 N 1142.57 -0.928524 -1.27343 0
M  V30 11785 C 1143.82 -0.568267 -1.93946 0
M  V30 11786 C 1144.14 0.893501 -1.73325 0
M  V30 11787 O 1143.41 1.63344 -1.08147 0
M  V30 11788 H 1141.99 -0.207173 -0.717696 0
M  V30 11789 H 1144.65 -1.1811 -1.55036 0
M  V30 11790 H 1143.75 -0.775246 -3.02318 0
M  V30 11791 N 1144.05 1.41491 -0.694123 0
M  V30 11792 C 1145 2.32594 -0.0164704 0
M  V30 11793 C 1145.99 1.50884 0.770086 0
M  V30 11794 O 1147.2 1.66829 0.675871 0
M  V30 11795 H 1143.57 0.751879 0.0134743 0
M  V30 11796 H 1145.54 2.87423 -0.80191 0
M  V30 11797 C 1144.29 3.35661 0.90703 0
M  V30 11798 H 1143.62 3.98587 0.311205 0
M  V30 11799 H 1145.06 4.0195 1.34952 0
M  V30 11800 C 1143.51 2.69436 2.02253 0
M  V30 11801 O 1144.04 2.54107 3.11115 0
M  V30 11802 N 1142.25 2.28154 1.79984 0
M  V30 11803 H 1141.8 2.40821 0.914492 0
M  V30 11804 H 1141.76 1.84178 2.54805 0
M  V30 11805 N 1145.53 0.438773 1.51369 0
M  V30 11806 C 1146.46 -0.407771 2.25543 0
M  V30 11807 C 1147.47 -0.985065 1.29616 0
M  V30 11808 O 1148.66 -0.878961 1.55359 0
M  V30 11809 C 1145.76 -1.58257 2.9968 0
M  V30 11810 C 1144.93 -1.12389 4.22714 0
M  V30 11811 C 1143.99 -2.16897 4.79418 0
M  V30 11812 O 1143.02 -1.76273 5.41218 0
M  V30 11813 N 1144.22 -3.49396 4.63576 0
M  V30 11814 H 1146.99 0.227963 2.98832 0
M  V30 11815 H 1144.55 0.267741 1.59671 0
M  V30 11816 H 1146.54 -2.27796 3.34501 0
M  V30 11817 H 1145.11 -2.12362 2.29393 0
M  V30 11818 H 1144.33 -0.255509 3.93371 0
M  V30 11819 H 1145.62 -0.794848 5.02553 0
M  V30 11820 H 1145.02 -3.85132 4.14355 0
M  V30 11821 H 1143.57 -4.14826 5.02755 0
M  V30 11822 N 1147.01 -1.56678 0.170181 0
M  V30 11823 C 1147.97 -2.16698 -0.746622 0
M  V30 11824 C 1148.97 -1.11475 -1.15888 0
M  V30 11825 O 1150.16 -1.36994 -1.07602 0
M  V30 11826 C 1147.29 -2.74892 -2.01612 0
M  V30 11827 H 1148.48 -2.99061 -0.224135 0
M  V30 11828 H 1146.04 -1.56098 -0.0793761 0
M  V30 11829 H 1146.77 -1.96259 -2.58172 0
M  V30 11830 H 1146.56 -3.51896 -1.72949 0
M  V30 11831 H 1148.05 -3.21058 -2.67042 0
M  V30 11832 N 1148.48 0.103547 -1.57259 0
M  V30 11833 C 1149.9 0.457527 -1.52901 0
M  V30 11834 C 1150.1 1.80995 -0.8856 0
M  V30 11835 O 1149.16 2.48001 -0.474504 0
M  V30 11836 C 1150.47 0.427793 -2.97641 0
M  V30 11837 C 1152.02 0.51025 -3.08813 0
M  V30 11838 C 1152.49 0.51075 -4.55143 0
M  V30 11839 N 1153.98 0.571748 -4.59658 0
M  V30 11840 C 1154.72 0.593836 -5.70317 0
M  V30 11841 N 1154.21 0.572638 -6.90429 0
M  V30 11842 N 1156.01 0.638011 -5.58467 0
M  V30 11843 H 1148.16 -0.782408 -1.97464 0
M  V30 11844 H 1150.42 -0.290324 -0.90245 0
M  V30 11845 H 1150.13 -0.498608 -3.48148 0
M  V30 11846 H 1150 1.24991 -3.55889 0
M  V30 11847 H 1152.39 1.42707 -2.583 0
M  V30 11848 H 1152.47 -0.339846 -2.53532 0
M  V30 11849 H 1152.11 -0.40209 -5.06306 0
M  V30 11850 H 1152.04 1.37794 -5.08252 0
M  V30 11851 H 1154.53 0.593668 -3.73208 0
M  V30 11852 H 1154.85 0.592542 -7.70525 0
M  V30 11853 H 1153.19 0.539818 -6.929 0
M  V30 11854 H 1156.38 0.652042 -4.63536 0
M  V30 11855 H 1156.56 0.651756 -6.44714 0
M  V30 11856 N 1149.96 1.53094 0.37415 0
M  V30 11857 C 1151.21 1.69111 1.11934 0
M  V30 11858 C 1151.54 0.437252 1.89213 0
M  V30 11859 O 1150.82 -0.565298 1.86104 0
M  V30 11860 C 1151.1 2.93559 2.08554 0
M  V30 11861 C 1150.95 4.29082 1.3494 0
M  V30 11862 C 1152.27 3.13586 3.08791 0
M  V30 11863 H 1149.39 0.615383 0.405553 0
M  V30 11864 H 1152.03 1.85719 0.401078 0
M  V30 11865 H 1150.18 2.79531 2.69805 0
M  V30 11866 H 1151.85 4.54906 0.765402 0
M  V30 11867 H 1150.1 4.28884 0.651238 0
M  V30 11868 H 1150.77 5.12275 2.05616 0
M  V30 11869 H 1153.24 3.26743 2.57639 0
M  V30 11870 H 1152.12 4.02112 3.73627 0
M  V30 11871 H 1152.38 2.28475 3.78486 0
M  V30 11872 N 1151.44 -0.633461 1.44309 0
M  V30 11873 C 1152.4 -1.72743 1.50641 0
M  V30 11874 C 1153.4 -1.56031 0.388718 0
M  V30 11875 O 1154.59 -1.61568 0.651251 0
M  V30 11876 C 1151.72 -3.11804 1.37809 0
M  V30 11877 H 1152.92 -1.68503 2.48086 0
M  V30 11878 H 1150.47 -0.846912 1.31366 0
M  V30 11879 H 1151.21 -3.2164 0.414483 0
M  V30 11880 H 1150.99 -3.2534 2.18852 0
M  V30 11881 H 1152.48 -3.91538 1.45216 0
M  V30 11882 N 1152.92 -1.31168 -0.873655 0
M  V30 11883 C 1154.2 -1.11285 -1.60857 0
M  V30 11884 C 1154.58 0.333788 -2.08444 0
M  V30 11885 O 1153.92 1.32726 -1.86 0
M  V30 11886 C 1154.13 -2.12379 -2.7694 0
M  V30 11887 C 1155.48 -2.44704 -3.46994 0
M  V30 11888 O 1156.51 -2.10778 -2.87143 0
M  V30 11889 O 1155.36 -3.02786 -4.54954 0
M  V30 11890 H 1152.46 -0.428177 -0.707526 0
M  V30 11891 H 1155 -1.42634 -0.91944 0
M  V30 11892 H 1153.78 -3.09703 -2.39164 0
M  V30 11893 H 1153.4 -1.81914 -3.53544 0
M  V30 11894 N 1154.4 1.08748 -1.14068 0
M  V30 11895 C 1155.64 1.80707 -0.904947 0
M  V30 11896 C 1155.97 1.86478 0.570167 0
M  V30 11897 O 1155.24 1.35536 1.41445 0
M  V30 11898 H 1153.82 0.669261 -0.331811 0
M  V30 11899 H 1156.48 1.31494 -1.43859 0
M  V30 11900 H 1155.57 2.83653 -1.30182 0
M  V30 11901 N 1155.87 0.935264 1.26849 0
M  V30 11902 C 1156.84 0.44485 2.24842 0
M  V30 11903 C 1157.84 -0.440781 1.54641 0
M  V30 11904 O 1159.03 -0.240793 1.72528 0
M  V30 11905 C 1156.16 -0.359566 3.38998 0
M  V30 11906 H 1157.35 1.31074 2.6974 0
M  V30 11907 H 1154.91 0.716665 1.38901 0
M  V30 11908 H 1155.64 -1.24396 2.99493 0
M  V30 11909 H 1155.43 0.275529 3.91131 0
M  V30 11910 H 1156.92 -0.692804 4.11813 0
M  V30 11911 N 1157.35 -1.41121 0.701616 0
M  V30 11912 C 1158.58 -2.05452 0.244365 0
M  V30 11913 C 1159 -1.5282 -1.10866 0
M  V30 11914 O 1158.35 -0.67893 -1.69401 0
M  V30 11915 C 1158.4 -3.60946 0.200112 0
M  V30 11916 O 1158.12 -4.11632 1.4997 0
M  V30 11917 C 1159.63 -4.42431 -0.277394 0
M  V30 11918 H 1156.85 -0.66151 0.112453 0
M  V30 11919 H 1159.39 -1.80784 0.9559 0
M  V30 11920 H 1157.54 -3.84632 -0.462287 0
M  V30 11921 H 1157.96 -5.05723 1.39084 0
M  V30 11922 H 1159.43 -5.514 -0.257225 0
M  V30 11923 H 1159.91 -4.1898 -1.31728 0
M  V30 11924 H 1160.52 -4.23822 0.354223 0
M  V30 11925 N 1158.83 -0.446794 -1.51134 0
M  V30 11926 C 1160.08 0.116666 -2.02464 0
M  V30 11927 C 1160.41 1.41532 -1.32975 0
M  V30 11928 O 1159.68 1.89278 -0.447651 0
M  V30 11929 C 1159.97 0.325659 -3.58624 0
M  V30 11930 C 1159.82 -0.992307 -4.38718 0
M  V30 11931 C 1161.14 1.09121 -4.26357 0
M  V30 11932 H 1158.26 0.0409262 -0.735863 0
M  V30 11933 H 1160.9 -0.587641 -1.80684 0
M  V30 11934 H 1159.05 0.925585 -3.77313 0
M  V30 11935 H 1160.72 -1.62694 -4.31658 0
M  V30 11936 H 1158.97 -1.5947 -4.03425 0
M  V30 11937 H 1159.64 -0.800005 -5.46172 0
M  V30 11938 H 1162.11 0.582944 -4.11996 0
M  V30 11939 H 1160.99 1.20621 -5.35483 0
M  V30 11940 H 1161.25 2.12171 -3.87861 0
M  V30 11941 N 1160.31 1.56586 -0.178487 0
M  V30 11942 C 1161.55 1.9739 0.465306 0
M  V30 11943 C 1161.89 1.06474 1.6241 0
M  V30 11944 O 1161.16 0.113316 1.9417 0
M  V30 11945 C 1161.45 3.47577 0.941408 0
M  V30 11946 C 1161.3 4.49271 -0.218054 0
M  V30 11947 C 1162.62 4.01038 1.81263 0
M  V30 11948 H 1159.74 0.717676 0.167663 0
M  V30 11949 H 1162.38 1.88128 -0.266067 0
M  V30 11950 H 1160.53 3.556 1.56463 0
M  V30 11951 H 1162.2 4.53301 -0.855332 0
M  V30 11952 H 1160.44 4.24936 -0.872441 0
M  V30 11953 H 1161.11 5.51776 0.157315 0
M  V30 11954 H 1163.59 3.9569 1.28718 0
M  V30 11955 H 1162.47 5.06526 2.11476 0
M  V30 11956 H 1162.73 3.45288 2.76096 0
M  V30 11957 N 1161.79 -0.095206 1.57312 0
M  V30 11958 C 1163.01 -0.81614 1.90667 0
M  V30 11959 C 1163.44 -1.71494 0.772746 0
M  V30 11960 O 1162.79 -1.79192 -0.275682 0
M  V30 11961 C 1162.84 -1.60555 3.22885 0
M  V30 11962 O 1161.95 -2.71448 3.10467 0
M  V30 11963 H 1161.29 -0.224217 0.624998 0
M  V30 11964 H 1163.82 -0.070464 2.04479 0
M  V30 11965 H 1163.83 -1.98979 3.5619 0
M  V30 11966 H 1162.5 -0.945918 4.05 0
M  V30 11967 H 1161.08 -2.36053 2.88675 0
M  V30 11968 N 1163.26 -1.53291 -0.366026 0
M  V30 11969 C 1164.49 -1.73359 -1.12934 0
M  V30 11970 C 1164.91 -0.462352 -1.83051 0
M  V30 11971 O 1164.26 0.564711 -1.73543 0
M  V30 11972 C 1164.32 -2.89873 -2.15999 0
M  V30 11973 O 1164.04 -4.12079 -1.48737 0
M  V30 11974 C 1165.54 -3.21811 -3.04881 0
M  V30 11975 H 1162.76 -0.579827 -0.337701 0
M  V30 11976 H 1165.3 -2.00033 -0.425081 0
M  V30 11977 H 1163.46 -2.65595 -2.82025 0
M  V30 11978 H 1163.87 -4.77322 -2.17404 0
M  V30 11979 H 1165.34 -4.06744 -3.7318 0
M  V30 11980 H 1165.82 -2.37156 -3.69667 0
M  V30 11981 H 1166.43 -3.48013 -2.44473 0
M  V30 11982 N 1164.74 0.6258 -1.44643 0
M  V30 11983 C 1165.97 1.41726 -1.51422 0
M  V30 11984 C 1166.39 1.87565 -0.14181 0
M  V30 11985 O 1165.75 1.59059 0.870054 0
M  V30 11986 C 1165.8 2.61012 -2.48807 0
M  V30 11987 O 1164.9 3.61029 -1.99328 0
M  V30 11988 H 1164.24 0.423855 -0.511119 0
M  V30 11989 H 1166.77 0.763336 -1.89827 0
M  V30 11990 H 1166.78 3.08489 -2.67018 0
M  V30 11991 H 1165.46 2.26995 -3.48491 0
M  V30 11992 H 1164.04 3.20325 -1.90909 0
M  V30 11993 N 1166.22 1.31629 0.866686 0
M  V30 11994 C 1167.45 1.24474 1.65269 0
M  V30 11995 C 1167.86 -0.18939 1.87848 0
M  V30 11996 O 1167.22 -1.12251 1.43895 0
M  V30 11997 C 1167.27 1.98872 3.01881 0
M  V30 11998 O 1166.99 3.36687 2.8031 0
M  V30 11999 C 1168.49 1.98595 3.96327 0
M  V30 12000 H 1165.71 0.429966 0.515141 0
M  V30 12001 H 1168.26 1.73559 1.08156 0
M  V30 12002 H 1166.41 1.53539 3.55675 0
M  V30 12003 H 1166.83 3.74612 3.67105 0
M  V30 12004 H 1168.3 2.55156 4.89489 0
M  V30 12005 H 1168.78 0.969257 4.28371 0
M  V30 12006 H 1169.38 2.43821 3.4847 0
M  V30 12007 N 1167.7 -1.08142 1.14644 0
M  V30 12008 C 1169.12 -1.32656 0.887388 0
M  V30 12009 C 1169.32 -1.95942 -0.470012 0
M  V30 12010 O 1168.37 -2.21417 -1.21371 0
M  V30 12011 C 1169.68 -2.22549 2.02219 0
M  V30 12012 C 1171.23 -2.36021 2.0558 0
M  V30 12013 C 1171.71 -3.29257 3.18361 0
M  V30 12014 N 1173.2 -3.36835 3.17957 0
M  V30 12015 C 1173.93 -4.09017 4.01862 0
M  V30 12016 N 1173.43 -4.83882 4.95812 0
M  V30 12017 N 1175.22 -4.04875 3.89913 0
M  V30 12018 H 1167.37 -0.654457 2.02066 0
M  V30 12019 H 1169.64 -0.350947 0.880648 0
M  V30 12020 H 1169.34 -1.83296 3.00159 0
M  V30 12021 H 1169.22 -3.23027 1.94765 0
M  V30 12022 H 1171.6 -2.74531 1.08245 0
M  V30 12023 H 1171.68 -1.35275 2.17105 0
M  V30 12024 H 1171.33 -2.91468 4.15944 0
M  V30 12025 H 1171.26 -4.29938 3.04074 0
M  V30 12026 H 1173.75 -2.83465 2.49912 0
M  V30 12027 H 1174.06 -5.3643 5.56294 0
M  V30 12028 H 1172.41 -4.82926 4.99808 0
M  V30 12029 H 1175.6 -3.45496 3.15833 0
M  V30 12030 H 1175.77 -4.60866 4.55529 0
M  V30 12031 N 1169.18 -0.941978 -1.26351 0
M  V30 12032 C 1170.13 -0.443011 -2.28342 0
M  V30 12033 C 1171.12 0.48013 -1.62453 0
M  V30 12034 O 1172.33 0.358255 -1.76399 0
M  V30 12035 H 1168.7 -0.124728 -0.741584 0
M  V30 12036 H 1170.67 -1.31573 -2.67827 0
M  V30 12037 C 1169.42 0.275675 -3.46605 0
M  V30 12038 H 1168.74 -0.425504 -3.97529 0
M  V30 12039 H 1170.18 0.589012 -4.19889 0
M  V30 12040 C 1168.64 1.49376 -3.01974 0
M  V30 12041 O 1169.17 2.59203 -3.06883 0
M  V30 12042 N 1167.38 1.35061 -2.57307 0
M  V30 12043 H 1166.93 0.457045 -2.53513 0
M  V30 12044 H 1166.88 2.16681 -2.27809 0
M  V30 12045 N 1170.66 1.40747 -0.709091 0
M  V30 12046 C 1171.9 2.01003 -0.24581 0
M  V30 12047 C 1172.23 1.56203 1.15891 0
M  V30 12048 O 1171.49 0.770166 1.79908 0
M  V30 12049 C 1171.78 3.56404 -0.266685 0
M  V30 12050 C 1171.45 4.20762 -1.6208 0
M  V30 12051 C 1170.11 4.38056 -1.99148 0
M  V30 12052 C 1172.46 4.56723 -2.51105 0
M  V30 12053 C 1169.79 4.88591 -3.248 0
M  V30 12054 C 1172.14 5.08654 -3.76103 0
M  V30 12055 C 1170.81 5.24158 -4.13297 0
M  V30 12056 H 1170.08 0.73552 -0.0899481 0
M  V30 12057 H 1172.73 1.68451 -0.910844 0
M  V30 12058 H 1171.03 3.88825 0.481915 0
M  V30 12059 H 1172.73 4.0085 0.109509 0
M  V30 12060 H 1169.32 4.07685 -1.32252 0
M  V30 12061 H 1173.5 4.43004 -2.23744 0
M  V30 12062 H 1168.76 4.98779 -3.53595 0
M  V30 12063 H 1172.93 5.35457 -4.45262 0
M  V30 12064 H 1170.56 5.63079 -5.10731 0
M  V30 12065 N 1172.13 0.454803 1.50895 0
M  V30 12066 C 1173.54 -0.00421212 1.867 0
M  V30 12067 C 1173.9 -1.4037 1.3708 0
M  V30 12068 O 1173.02 -2.03755 0.728884 0
M  V30 12069 C 1173.62 -0.0144196 3.38797 0
M  V30 12070 C 1172.17 -0.417905 3.74073 0
M  V30 12071 C 1171.32 0.37801 2.74711 0
M  V30 12072 H 1174.27 0.669849 1.4387 0
M  V30 12073 H 1174.29 -0.820172 3.71555 0
M  V30 12074 H 1173.81 1.00427 3.74881 0
M  V30 12075 H 1171.91 -1.44155 3.43584 0
M  V30 12076 H 1172.02 -0.130568 4.78922 0
M  V30 12077 H 1170.38 -0.166089 2.54158 0
M  V30 12078 H 1171.17 1.3959 3.13639 0
M  V30 12079 N 1173.61 -1.56489 0.186789 0
M  V30 12080 C 1174.56 -2.20034 -0.754164 0
M  V30 12081 C 1175.55 -1.16899 -1.22601 0
M  V30 12082 O 1176.76 -1.35064 -1.18987 0
M  V30 12083 H 1173.13 -0.705058 -0.261529 0
M  V30 12084 H 1175.11 -2.97766 -0.194418 0
M  V30 12085 C 1173.85 -2.86733 -1.9667 0
M  V30 12086 H 1173.18 -3.65831 -1.61268 0
M  V30 12087 H 1174.62 -3.34645 -2.60363 0
M  V30 12088 C 1173.08 -1.87325 -2.8002 0
M  V30 12089 O 1173.61 -1.36835 -3.77676 0
M  V30 12090 N 1171.81 -1.55738 -2.45345 0
M  V30 12091 H 1171.36 -1.9699 -1.6599 0
M  V30 12092 H 1171.32 -0.894805 -3.01398 0
M  V30 12093 N 1175.09 0.086862 -1.5736 0
M  V30 12094 C 1176.51 0.441284 -1.53378 0
M  V30 12095 C 1176.71 1.80046 -0.904748 0
M  V30 12096 O 1175.76 2.47484 -0.500781 0
M  V30 12097 C 1177.07 0.3962 -2.98078 0
M  V30 12098 C 1178.62 0.477468 -3.09337 0
M  V30 12099 C 1179.1 0.462448 -4.55659 0
M  V30 12100 N 1180.59 0.522963 -4.60238 0
M  V30 12101 C 1181.32 0.533313 -5.70914 0
M  V30 12102 N 1180.82 0.499376 -6.90998 0
M  V30 12103 N 1182.61 0.578742 -5.59113 0
M  V30 12104 H 1174.76 -0.803308 -1.96623 0
M  V30 12105 H 1177.03 -0.299879 -0.89932 0
M  V30 12106 H 1176.73 -0.535505 -3.47599 0
M  V30 12107 H 1176.61 1.21209 -3.57195 0
M  V30 12108 H 1178.99 1.39959 -2.59799 0
M  V30 12109 H 1179.07 -0.366717 -2.53158 0
M  V30 12110 H 1178.72 -0.455768 -5.05851 0
M  V30 12111 H 1178.65 1.32396 -5.09685 0
M  V30 12112 H 1181.14 0.554051 -3.73816 0
M  V30 12113 H 1181.45 0.510784 -7.7111 0
M  V30 12114 H 1179.8 0.466296 -6.93434 0
M  V30 12115 H 1182.99 0.602841 -4.64202 0
M  V30 12116 H 1183.16 0.583339 -6.45369 0
M  V30 12117 N 1176.57 1.53483 0.357892 0
M  V30 12118 C 1177.5 1.83444 1.44466 0
M  V30 12119 C 1178.48 0.688486 1.55544 0
M  V30 12120 O 1179.66 0.93906 1.69986 0
M  V30 12121 C 1176.79 2.03122 2.81707 0
M  V30 12122 C 1175.75 3.1891 2.85448 0
M  V30 12123 C 1175.07 3.23895 4.25436 0
M  V30 12124 C 1176.37 4.57334 2.52275 0
M  V30 12125 H 1178.07 2.74456 1.19642 0
M  V30 12126 H 1175.61 1.3206 0.574112 0
M  V30 12127 H 1177.57 2.22666 3.57768 0
M  V30 12128 H 1176.29 1.08827 3.07935 0
M  V30 12129 H 1174.95 2.99199 2.11838 0
M  V30 12130 H 1174.6 2.27223 4.48753 0
M  V30 12131 H 1174.3 4.01694 4.28854 0
M  V30 12132 H 1175.82 3.45632 5.0336 0
M  V30 12133 H 1177.24 4.76988 3.1805 0
M  V30 12134 H 1175.63 5.37431 2.66998 0
M  V30 12135 H 1176.7 4.61921 1.47501 0
M  V30 12136 N 1178.05 -0.61812 1.44973 0
M  V30 12137 C 1179.29 -1.37468 1.48145 0
M  V30 12138 C 1179.61 -1.94628 0.120366 0
M  V30 12139 O 1178.88 -1.76548 -0.848982 0
M  V30 12140 H 1177.46 -0.510293 0.545536 0
M  V30 12141 H 1180.13 -0.726598 1.8085 0
M  V30 12142 H 1179.22 -2.19944 2.2143 0
M  V30 12143 N 1179.52 -1.32087 -0.859693 0
M  V30 12144 C 1180.75 -1.25348 -1.64607 0
M  V30 12145 C 1181.17 0.179425 -1.87945 0
M  V30 12146 O 1180.52 1.11487 -1.44489 0
M  V30 12147 C 1180.57 -2.0047 -3.00822 0
M  V30 12148 O 1180.3 -3.38169 -2.7852 0
M  V30 12149 C 1181.8 -2.00694 -3.95268 0
M  V30 12150 H 1179.02 -0.432692 -0.512854 0
M  V30 12151 H 1181.56 -1.7413 -1.07234 0
M  V30 12152 H 1179.72 -1.55423 -3.54855 0
M  V30 12153 H 1180.13 -3.76553 -3.65113 0
M  V30 12154 H 1181.6 -2.57748 -4.88129 0
M  V30 12155 H 1182.08 -0.99196 -4.27851 0
M  V30 12156 H 1182.69 -2.45666 -3.47172 0
M  V30 12157 N 1181 1.07532 -1.15215 0
M  V30 12158 C 1182.25 1.79737 -0.924062 0
M  V30 12159 C 1182.57 1.87072 0.550356 0
M  V30 12160 O 1181.84 1.37029 1.4 0
M  V30 12161 H 1180.42 0.665704 -0.338891 0
M  V30 12162 H 1183.08 1.29961 -1.45245 0
M  V30 12163 H 1182.18 2.82256 -1.33184 0
M  V30 12164 N 1182.48 0.948665 1.2585 0
M  V30 12165 C 1183.44 0.468673 2.24357 0
M  V30 12166 C 1184.44 -0.424355 1.551 0
M  V30 12167 O 1185.63 -0.222481 1.72773 0
M  V30 12168 C 1182.77 -0.32359 3.39361 0
M  V30 12169 H 1183.96 1.33928 2.68334 0
M  V30 12170 H 1181.51 0.731357 1.38133 0
M  V30 12171 H 1182.25 -1.21212 3.00796 0
M  V30 12172 H 1182.03 0.316998 3.90816 0
M  V30 12173 H 1183.52 -0.649087 4.12525 0
M  V30 12174 N 1183.96 -1.40369 0.716545 0
M  V30 12175 C 1184.91 -2.32539 0.053472 0
M  V30 12176 C 1185.9 -1.5209 -0.745984 0
M  V30 12177 O 1187.11 -1.67883 -0.649245 0
M  V30 12178 H 1183.48 -0.751998 -0.00151088 0
M  V30 12179 H 1185.45 -2.86111 0.847535 0
M  V30 12180 C 1184.2 -3.37061 -0.853515 0
M  V30 12181 H 1183.52 -3.99032 -0.247754 0
M  V30 12182 H 1184.96 -4.04046 -1.28541 0
M  V30 12183 C 1183.42 -2.72619 -1.97941 0
M  V30 12184 O 1183.95 -2.59024 -3.07033 0
M  V30 12185 N 1182.16 -2.30988 -1.76332 0
M  V30 12186 H 1181.71 -2.42246 -0.876063 0
M  V30 12187 H 1181.66 -1.88209 -2.51843 0
M  V30 12188 N 1185.44 -0.462799 -1.50652 0
M  V30 12189 C 1186.68 0.0951853 -2.02576 0
M  V30 12190 C 1187.02 1.40113 -1.34469 0
M  V30 12191 O 1186.29 1.88793 -0.467702 0
M  V30 12192 C 1186.57 0.287603 -3.5895 0
M  V30 12193 C 1186.43 -1.03878 -4.37641 0
M  V30 12194 C 1187.75 1.04593 -4.27491 0
M  V30 12195 H 1184.86 0.0331191 -0.736255 0
M  V30 12196 H 1187.51 -0.606772 -1.80051 0
M  V30 12197 H 1185.66 0.885514 -3.78274 0
M  V30 12198 H 1187.33 -1.67263 -4.29908 0
M  V30 12199 H 1185.57 -1.6374 -4.01711 0
M  V30 12200 H 1186.24 -0.857889 -5.45293 0
M  V30 12201 H 1188.72 0.539213 -4.12591 0
M  V30 12202 H 1187.59 1.14935 -5.36732 0
M  V30 12203 H 1187.86 2.08045 -3.90089 0
M  V30 12204 N 1186.91 1.56388 -0.195085 0
M  V30 12205 C 1188.16 1.9758 0.443686 0
M  V30 12206 C 1188.49 1.08196 1.61629 0
M  V30 12207 O 1187.74 0.121061 1.95325 0
M  V30 12208 C 1188.04 3.44651 0.946051 0
M  V30 12209 C 1187.71 4.50758 -0.11318 0
M  V30 12210 C 1186.37 4.79499 -0.404229 0
M  V30 12211 C 1188.72 5.14534 -0.830899 0
M  V30 12212 C 1186.05 5.69307 -1.41797 0
M  V30 12213 C 1188.4 6.05438 -1.83379 0
M  V30 12214 C 1187.07 6.32535 -2.13204 0
M  V30 12215 H 1186.34 0.722995 0.162356 0
M  V30 12216 H 1188.98 1.8926 -0.292049 0
M  V30 12217 H 1187.29 3.50042 1.76006 0
M  V30 12218 H 1188.99 3.73878 1.44969 0
M  V30 12219 H 1185.58 4.28421 0.123833 0
M  V30 12220 H 1189.76 4.92421 -0.61927 0
M  V30 12221 H 1185.02 5.88575 -1.65496 0
M  V30 12222 H 1189.19 6.53915 -2.39516 0
M  V30 12223 H 1186.82 7.01924 -2.91902 0
M  V30 12224 N 1188.39 -0.0785156 1.57404 0
M  V30 12225 C 1189.32 -1.09446 2.06262 0
M  V30 12226 C 1190.3 -1.40777 0.954772 0
M  V30 12227 O 1191.49 -1.5052 1.22708 0
M  V30 12228 C 1188.62 -2.40979 2.50093 0
M  V30 12229 C 1187.57 -2.24017 3.64692 0
M  V30 12230 C 1186.9 -3.60873 3.94556 0
M  V30 12231 C 1188.2 -1.66696 4.94985 0
M  V30 12232 H 1189.89 -0.687928 2.9139 0
M  V30 12233 H 1187.44 -0.329466 1.4018 0
M  V30 12234 H 1189.39 -3.12337 2.82884 0
M  V30 12235 H 1188.12 -2.83599 1.61985 0
M  V30 12236 H 1186.77 -1.55101 3.32174 0
M  V30 12237 H 1186.42 -4.01051 3.0359 0
M  V30 12238 H 1186.12 -3.50365 4.71718 0
M  V30 12239 H 1187.65 -4.33673 4.29837 0
M  V30 12240 H 1189.06 -2.27913 5.2605 0
M  V30 12241 H 1187.46 -1.66902 5.76423 0
M  V30 12242 H 1188.53 -0.627827 4.80818 0
M  V30 12243 N 1189.87 -1.5367 -0.349747 0
M  V30 12244 C 1190.83 -1.80533 -1.41211 0
M  V30 12245 C 1191.83 -0.676188 -1.45892 0
M  V30 12246 O 1193.02 -0.944453 -1.46375 0
M  V30 12247 C 1190.16 -1.94175 -2.80195 0
M  V30 12248 H 1191.35 -2.75428 -1.18658 0
M  V30 12249 H 1188.9 -1.44988 -0.583787 0
M  V30 12250 H 1189.64 -1.01402 -3.08039 0
M  V30 12251 H 1189.42 -2.76316 -2.78194 0
M  V30 12252 H 1190.91 -2.16496 -3.57098 0
M  V30 12253 N 1191.35 0.610423 -1.45298 0
M  V30 12254 C 1192.57 1.40112 -1.52917 0
M  V30 12255 C 1193 1.87404 -0.161696 0
M  V30 12256 O 1192.36 1.59973 0.853135 0
M  V30 12257 C 1192.4 2.58359 -2.51561 0
M  V30 12258 O 1191.51 3.58895 -2.03146 0
M  V30 12259 H 1190.85 0.41841 -0.515586 0
M  V30 12260 H 1193.38 0.743159 -1.90626 0
M  V30 12261 H 1193.39 3.0564 -2.70275 0
M  V30 12262 H 1192.06 2.23286 -3.50879 0
M  V30 12263 H 1190.64 3.18282 -1.94296 0
M  V30 12264 N 1192.83 1.32541 0.852676 0
M  V30 12265 C 1193.79 1.21578 1.94297 0
M  V30 12266 C 1194.79 0.138318 1.60204 0
M  V30 12267 O 1195.98 0.388864 1.69804 0
M  V30 12268 C 1193.11 0.870209 3.29606 0
M  V30 12269 H 1194.3 2.18476 2.05446 0
M  V30 12270 H 1191.86 1.16401 1.0431 0
M  V30 12271 H 1192.59 -0.0968698 3.24155 0
M  V30 12272 H 1192.38 1.64924 3.55728 0
M  V30 12273 H 1193.87 0.817874 4.09513 0
M  V30 12274 N 1194.3 -1.0692 1.15784 0
M  V30 12275 C 1195.21 -2.17762 0.872753 0
M  V30 12276 C 1196.23 -1.73329 -0.152608 0
M  V30 12277 O 1197.41 -2.01387 0.022519 0
M  V30 12278 C 1194.47 -3.4471 0.370887 0
M  V30 12279 C 1193.53 -4.03686 1.46069 0
M  V30 12280 C 1192.77 -5.24575 0.982675 0
M  V30 12281 O 1192.99 -5.70146 -0.17006 0
M  V30 12282 O 1191.92 -5.7534 1.76828 0
M  V30 12283 H 1195.75 -2.44648 1.79948 0
M  V30 12284 H 1193.33 -1.1634 0.937303 0
M  V30 12285 H 1195.22 -4.21287 0.0976779 0
M  V30 12286 H 1193.89 -3.19366 -0.527912 0
M  V30 12287 H 1192.8 -3.28629 1.78756 0
M  V30 12288 H 1194.13 -4.33312 2.33456 0
M  V30 12289 N 1195.78 -0.955326 -1.25345 0
M  V30 12290 C 1196.71 -0.494145 -2.28211 0
M  V30 12291 C 1197.69 0.459875 -1.63766 0
M  V30 12292 O 1198.88 0.358679 -1.90859 0
M  V30 12293 C 1196.01 0.228228 -3.46549 0
M  V30 12294 C 1194.96 -0.640601 -4.23179 0
M  V30 12295 C 1194.29 0.212553 -5.34277 0
M  V30 12296 C 1195.59 -1.91906 -4.85767 0
M  V30 12297 H 1197.28 -1.35391 -2.67039 0
M  V30 12298 H 1194.83 -0.652462 -1.2837 0
M  V30 12299 H 1196.78 0.561995 -4.17636 0
M  V30 12300 H 1195.51 1.12224 -3.06714 0
M  V30 12301 H 1194.16 -0.957462 -3.53876 0
M  V30 12302 H 1193.81 1.10634 -4.90682 0
M  V30 12303 H 1193.51 -0.365473 -5.86462 0
M  V30 12304 H 1195.04 0.541271 -6.08196 0
M  V30 12305 H 1196.45 -1.65165 -5.48993 0
M  V30 12306 H 1194.85 -2.44279 -5.48131 0
M  V30 12307 H 1195.92 -2.62173 -4.07914 0
M  V30 12308 N 1197.26 1.39987 -0.723979 0
M  V30 12309 C 1198.22 2.29041 -0.0854583 0
M  V30 12310 C 1199.22 1.45777 0.678657 0
M  V30 12311 O 1200.41 1.66588 0.509311 0
M  V30 12312 C 1197.55 3.29115 0.88859 0
M  V30 12313 H 1198.74 2.87006 -0.869903 0
M  V30 12314 H 1196.29 1.48449 -0.489136 0
M  V30 12315 H 1197.03 2.76184 1.69979 0
M  V30 12316 H 1196.81 3.90593 0.343454 0
M  V30 12317 H 1198.3 3.95778 1.33227 0
M  V30 12318 N 1198.74 0.470782 1.50404 0
M  V30 12319 C 1199.7 -0.312227 2.27063 0
M  V30 12320 C 1200.7 -0.920709 1.31832 0
M  V30 12321 O 1201.89 -0.789937 1.5526 0
M  V30 12322 C 1199.02 -1.44477 3.0877 0
M  V30 12323 H 1200.22 0.36006 2.97731 0
M  V30 12324 H 1197.77 0.224837 1.54674 0
M  V30 12325 H 1198.51 -2.15212 2.42599 0
M  V30 12326 H 1198.29 -1.01426 3.78755 0
M  V30 12327 H 1199.78 -1.99713 3.66749 0
M  V30 12328 N 1200.22 -1.56282 0.203376 0
M  V30 12329 C 1201.46 -1.98105 -0.433844 0
M  V30 12330 C 1201.8 -1.09044 -1.60695 0
M  V30 12331 O 1201.07 -0.144193 -1.93965 0
M  V30 12332 C 1201.35 -3.4903 -0.885992 0
M  V30 12333 C 1201.21 -4.48867 0.289501 0
M  V30 12334 C 1202.53 -4.03871 -1.7486 0
M  V30 12335 H 1199.65 -0.720252 -0.156224 0
M  V30 12336 H 1202.29 -1.87681 0.295963 0
M  V30 12337 H 1200.44 -3.58045 -1.50785 0
M  V30 12338 H 1202.11 -4.51883 0.92734 0
M  V30 12339 H 1200.35 -4.23495 0.939934 0
M  V30 12340 H 1201.02 -5.51956 -0.0695128 0
M  V30 12341 H 1203.5 -3.97688 -1.22407 0
M  V30 12342 H 1202.38 -5.09827 -2.03391 0
M  V30 12343 H 1202.64 -3.49637 -2.70567 0
M  V30 12344 N 1201.7 0.070167 -1.57444 0
M  V30 12345 C 1202.66 1.06761 -2.02817 0
M  V30 12346 C 1203.66 1.31498 -0.925462 0
M  V30 12347 O 1204.85 1.27192 -1.19029 0
M  V30 12348 C 1201.98 2.41086 -2.41019 0
M  V30 12349 H 1203.17 0.67651 -2.9217 0
M  V30 12350 H 1200.73 0.315936 -1.53074 0
M  V30 12351 H 1201.46 2.85025 -1.54697 0
M  V30 12352 H 1201.25 2.24472 -3.21488 0
M  V30 12353 H 1202.74 3.12778 -2.76694 0
M  V30 12354 N 1203.17 1.53854 0.341593 0
M  V30 12355 C 1204.14 1.8128 1.40251 0
M  V30 12356 C 1205.14 0.683915 1.45531 0
M  V30 12357 O 1206.33 0.952202 1.45872 0
M  V30 12358 C 1203.46 1.95658 2.79161 0
M  V30 12359 H 1204.65 2.76053 1.17195 0
M  V30 12360 H 1202.2 1.45296 0.57609 0
M  V30 12361 H 1202.94 1.03034 3.07497 0
M  V30 12362 H 1202.72 2.77788 2.76724 0
M  V30 12363 H 1204.21 2.18387 3.55945 0
M  V30 12364 N 1204.65 -0.602709 1.4562 0
M  V30 12365 C 1205.58 -1.72374 1.5751 0
M  V30 12366 C 1206.56 -1.64669 0.426389 0
M  V30 12367 O 1207.75 -1.82994 0.650143 0
M  V30 12368 C 1204.88 -3.10987 1.5461 0
M  V30 12369 C 1203.83 -3.33507 2.68248 0
M  V30 12370 C 1203.16 -4.72443 2.50403 0
M  V30 12371 C 1204.46 -3.23285 4.10224 0
M  V30 12372 H 1206.15 -1.62679 2.51348 0
M  V30 12373 H 1203.7 -0.781217 1.20967 0
M  V30 12374 H 1205.65 -3.89214 1.61525 0
M  V30 12375 H 1204.37 -3.21533 0.573049 0
M  V30 12376 H 1203.03 -2.57672 2.60769 0
M  V30 12377 H 1202.68 -4.79729 1.51226 0
M  V30 12378 H 1202.38 -4.88466 3.26611 0
M  V30 12379 H 1203.91 -5.52864 2.59179 0
M  V30 12380 H 1205.32 -3.91381 4.1892 0
M  V30 12381 H 1203.72 -3.50837 4.86861 0
M  V30 12382 H 1204.79 -2.20652 4.31788 0
M  V30 12383 N 1206.13 -1.32992 -0.845635 0
M  V30 12384 C 1207.38 -1.23415 -1.59536 0
M  V30 12385 C 1207.69 0.200278 -1.94572 0
M  V30 12386 O 1208.9 0.417993 -2.68263 0
M  V30 12387 C 1207.35 -2.16207 -2.8772 0
M  V30 12388 C 1206.96 -3.64782 -2.60073 0
M  V30 12389 C 1208.71 -2.15488 -3.65739 0
M  V30 12390 C 1206.61 -4.49508 -3.84313 0
M  V30 12391 H 1205.54 -0.458366 -0.598679 0
M  V30 12392 H 1208.19 -1.58012 -0.932981 0
M  V30 12393 H 1206.58 -1.74535 -3.55462 0
M  V30 12394 H 1207.75 -4.14852 -2.00585 0
M  V30 12395 H 1206.06 -3.67723 -1.95369 0
M  V30 12396 H 1208.66 -2.76021 -4.57948 0
M  V30 12397 H 1209 -1.14818 -4.00153 0
M  V30 12398 H 1209.54 -2.55487 -3.04912 0
M  V30 12399 H 1206.28 -5.51027 -3.55035 0
M  V30 12400 H 1205.8 -4.04185 -4.43165 0
M  V30 12401 H 1207.48 -4.62969 -4.51961 0
M  V30 12402 N 1207.61 1.06304 -1.1635 0
M  V30 12403 C 1208.86 1.78747 -0.943074 0
M  V30 12404 C 1209.18 1.87646 0.530483 0
M  V30 12405 O 1208.45 1.38506 1.38538 0
M  V30 12406 H 1207.03 0.662072 -0.345932 0
M  V30 12407 H 1209.69 1.28413 -1.46615 0
M  V30 12408 H 1208.78 2.80828 -1.3617 0
M  V30 12409 N 1209.09 0.96196 1.24836 0
M  V30 12410 C 1210.03 0.48686 2.25607 0
M  V30 12411 C 1211 -0.464546 1.59472 0
M  V30 12412 O 1212.19 -0.376179 1.87055 0
M  V30 12413 C 1209.33 -0.222294 3.44383 0
M  V30 12414 C 1208.44 0.767206 4.25133 0
M  V30 12415 C 1207.58 0.0347458 5.31189 0
M  V30 12416 C 1206.61 1.01469 6.03631 0
M  V30 12417 N 1205.75 0.312619 7.01404 0
M  V30 12418 H 1210.59 1.35104 2.65614 0
M  V30 12419 H 1208.13 0.677373 1.30576 0
M  V30 12420 H 1210.09 -0.650087 4.12104 0
M  V30 12421 H 1208.72 -1.05047 3.0523 0
M  V30 12422 H 1207.77 1.31346 3.57005 0
M  V30 12423 H 1209.08 1.5147 4.75245 0
M  V30 12424 H 1208.23 -0.451325 6.05019 0
M  V30 12425 H 1206.97 -0.745485 4.81969 0
M  V30 12426 H 1205.98 1.51169 5.28609 0
M  V30 12427 H 1207.2 1.79527 6.5494 0
M  V30 12428 H 1205.15 -0.44874 6.54463 0
M  V30 12429 H 1205.07 0.999079 7.49369 0
M  V30 12430 H 1206.33 -0.151673 7.79352 0
M  V30 12431 N 1210.56 -1.39601 0.731392 0
M  V30 12432 C 1211.49 -2.33268 0.1041 0
M  V30 12433 C 1212.47 -1.53724 -0.728219 0
M  V30 12434 O 1213.66 -1.82131 -0.673933 0
M  V30 12435 C 1210.79 -3.37802 -0.806646 0
M  V30 12436 C 1209.74 -4.27928 -0.0787588 0
M  V30 12437 C 1209.07 -5.23131 -1.10628 0
M  V30 12438 C 1210.37 -5.11086 1.07651 0
M  V30 12439 H 1212.06 -2.85975 0.886496 0
M  V30 12440 H 1209.61 -1.375 0.427746 0
M  V30 12441 H 1211.56 -4.02278 -1.25499 0
M  V30 12442 H 1210.29 -2.83527 -1.62112 0
M  V30 12443 H 1208.95 -3.64926 0.349926 0
M  V30 12444 H 1208.59 -4.65152 -1.91422 0
M  V30 12445 H 1208.29 -5.84277 -0.624043 0
M  V30 12446 H 1209.82 -5.90483 -1.5544 0
M  V30 12447 H 1211.23 -5.68927 0.706781 0
M  V30 12448 H 1209.63 -5.81356 1.48814 0
M  V30 12449 H 1210.7 -4.46131 1.89988 0
M  V30 12450 N 1212.04 -0.478751 -1.50152 0
M  V30 12451 C 1213.45 -0.0254907 -1.86683 0
M  V30 12452 C 1213.8 1.38171 -1.39295 0
M  V30 12453 O 1212.93 2.0257 -0.761207 0
M  V30 12454 C 1213.52 -0.0394819 -3.38777 0
M  V30 12455 C 1212.08 0.35834 -3.7469 0
M  V30 12456 C 1211.23 -0.421667 -2.74075 0
M  V30 12457 H 1214.18 -0.692653 -1.42787 0
M  V30 12458 H 1214.2 0.760957 -3.72813 0
M  V30 12459 H 1213.71 -1.06378 -3.73236 0
M  V30 12460 H 1211.82 1.38671 -3.45834 0
M  V30 12461 H 1211.93 0.0543589 -4.79069 0
M  V30 12462 H 1210.29 0.125634 -2.5439 0
M  V30 12463 H 1211.08 -1.44562 -3.11379 0
M  V30 12464 N 1213.52 1.56172 -0.211661 0
M  V30 12465 C 1214.75 2.02428 0.427843 0
M  V30 12466 C 1215.16 1.09162 1.54043 0
M  V30 12467 O 1214.52 0.0994249 1.82229 0
M  V30 12468 C 1214.57 3.48279 0.968728 0
M  V30 12469 O 1214.29 4.37987 -0.0994841 0
M  V30 12470 C 1215.79 4.10132 1.68246 0
M  V30 12471 H 1213.01 0.662611 0.10577 0
M  V30 12472 H 1215.56 2.01897 -0.32522 0
M  V30 12473 H 1213.71 3.49456 1.6721 0
M  V30 12474 H 1214.13 5.23609 0.305558 0
M  V30 12475 H 1215.6 5.13985 2.01304 0
M  V30 12476 H 1216.08 3.54552 2.5921 0
M  V30 12477 H 1216.68 4.12775 1.02453 0
M  V30 12478 N 1215 -0.0618163 1.57479 0
M  V30 12479 C 1216.41 -0.612461 1.76368 0
M  V30 12480 C 1216.76 -1.77381 0.838466 0
M  V30 12481 O 1215.89 -2.16386 0.0250211 0
M  V30 12482 C 1216.48 -1.11782 3.19829 0
M  V30 12483 C 1215.04 -1.61424 3.40028 0
M  V30 12484 C 1214.19 -0.53795 2.72032 0
M  V30 12485 H 1217.14 0.164382 1.57846 0
M  V30 12486 H 1217.16 -1.98634 3.24538 0
M  V30 12487 H 1216.67 -0.272353 3.87143 0
M  V30 12488 H 1214.77 -2.48263 2.77842 0
M  V30 12489 H 1214.88 -1.68431 4.48517 0
M  V30 12490 H 1213.25 -0.985355 2.34868 0
M  V30 12491 H 1214.03 0.297495 3.42009 0
M  V30 12492 N 1216.48 -1.54033 -0.333429 0
M  V30 12493 C 1217.39 -1.85737 -1.43314 0
M  V30 12494 C 1218.4 -0.748398 -1.57083 0
M  V30 12495 O 1219.58 -1.04171 -1.72367 0
M  V30 12496 C 1216.64 -2.06942 -2.78165 0
M  V30 12497 C 1215.7 -3.30774 -2.73655 0
M  V30 12498 C 1214.94 -3.50957 -4.02075 0
M  V30 12499 O 1215.16 -2.74774 -4.99855 0
M  V30 12500 O 1214.09 -4.44412 -4.05933 0
M  V30 12501 H 1217.92 -2.7923 -1.19434 0
M  V30 12502 H 1215.51 -1.39814 -0.526546 0
M  V30 12503 H 1217.39 -2.22276 -3.58011 0
M  V30 12504 H 1216.06 -1.16638 -3.01956 0
M  V30 12505 H 1214.97 -3.20835 -1.92395 0
M  V30 12506 H 1216.3 -4.21103 -2.54819 0
M  V30 12507 N 1217.95 0.594978 -1.45938 0
M  V30 12508 C 1218.86 1.73296 -1.58132 0
M  V30 12509 C 1219.88 1.67665 -0.465245 0
M  V30 12510 O 1221.06 1.87794 -0.727684 0
M  V30 12511 C 1218.12 3.09783 -1.55677 0
M  V30 12512 C 1217.18 3.26772 -2.78422 0
M  V30 12513 C 1216.42 4.56748 -2.76075 0
M  V30 12514 O 1216.64 5.39867 -1.84119 0
M  V30 12515 O 1215.57 4.76721 -3.67452 0
M  V30 12516 H 1219.4 1.65957 -2.54346 0
M  V30 12517 H 1216.98 0.760572 -1.28591 0
M  V30 12518 H 1218.87 3.91077 -1.56961 0
M  V30 12519 H 1217.54 3.17585 -0.626191 0
M  V30 12520 H 1216.45 2.45018 -2.82696 0
M  V30 12521 H 1217.78 3.23853 -3.70648 0
M  V30 12522 N 1219.43 1.33438 0.838571 0
M  V30 12523 C 1220.66 1.27766 1.62356 0
M  V30 12524 C 1221.07 -0.15359 1.88576 0
M  V30 12525 O 1220.41 -1.10626 1.46654 0
M  V30 12526 C 1220.48 1.98435 2.99773 0
M  V30 12527 C 1220.14 3.47741 2.96522 0
M  V30 12528 C 1221.14 4.42938 2.72217 0
M  V30 12529 C 1218.82 3.89922 3.16648 0
M  V30 12530 C 1220.82 5.7829 2.68066 0
M  V30 12531 C 1218.5 5.25378 3.12123 0
M  V30 12532 C 1219.5 6.19374 2.87863 0
M  V30 12533 O 1219.19 7.52349 2.83242 0
M  V30 12534 H 1218.92 0.441527 0.511889 0
M  V30 12535 H 1221.47 1.76377 1.05262 0
M  V30 12536 H 1219.7 1.44415 3.58721 0
M  V30 12537 H 1221.39 1.86258 3.60642 0
M  V30 12538 H 1222.16 4.11673 2.56418 0
M  V30 12539 H 1218.04 3.17169 3.34552 0
M  V30 12540 H 1221.58 6.51629 2.4905 0
M  V30 12541 H 1217.48 5.56267 3.27471 0
M  V30 12542 H 1218.25 7.61901 2.99082 0
M  V30 12543 N 1220.91 -1.05686 1.16912 0
M  V30 12544 C 1221.84 -2.1329 0.839044 0
M  V30 12545 C 1222.86 -1.62047 -0.156392 0
M  V30 12546 O 1224.04 -1.78366 0.0692192 0
M  V30 12547 C 1221.14 -3.38122 0.229558 0
M  V30 12548 C 1220.32 -4.18659 1.26662 0
M  V30 12549 C 1219.38 -5.21842 0.675811 0
M  V30 12550 O 1218.4 -5.53049 1.3463 0
M  V30 12551 N 1219.6 -5.78034 -0.534532 0
M  V30 12552 H 1222.37 -2.42203 1.76515 0
M  V30 12553 H 1219.93 -1.2174 1.06729 0
M  V30 12554 H 1221.92 -4.04305 -0.178868 0
M  V30 12555 H 1220.49 -3.06783 -0.60023 0
M  V30 12556 H 1219.71 -3.4804 1.85099 0
M  V30 12557 H 1221 -4.6927 1.9663 0
M  V30 12558 H 1220.4 -5.54955 -1.09731 0
M  V30 12559 H 1218.96 -6.45763 -0.885087 0
M  V30 12560 N 1222.39 -0.968567 -1.24324 0
M  V30 12561 C 1223.62 -0.648568 -1.96472 0
M  V30 12562 C 1224.03 0.782168 -1.71836 0
M  V30 12563 O 1223.39 1.5249 -1.00265 0
M  V30 12564 C 1223.44 -0.91482 -3.49733 0
M  V30 12565 O 1223.16 -2.28931 -3.73527 0
M  V30 12566 C 1224.66 -0.609131 -4.39095 0
M  V30 12567 H 1221.88 -0.241921 -0.625872 0
M  V30 12568 H 1224.43 -1.29673 -1.5813 0
M  V30 12569 H 1222.58 -0.31285 -3.86135 0
M  V30 12570 H 1222.99 -2.36998 -4.67902 0
M  V30 12571 H 1224.47 -0.845875 -5.4548 0
M  V30 12572 H 1224.95 0.456625 -4.3682 0
M  V30 12573 H 1225.55 -1.19105 -4.08282 0
M  V30 12574 N 1223.87 1.39211 -0.738786 0
M  V30 12575 C 1225.1 2.04435 -0.298318 0
M  V30 12576 C 1225.5 1.55822 1.07314 0
M  V30 12577 O 1224.85 0.719922 1.69005 0
M  V30 12578 C 1224.91 3.58789 -0.225979 0
M  V30 12579 C 1224.57 4.30395 -1.53653 0
M  V30 12580 C 1225.57 4.56777 -2.48295 0
M  V30 12581 C 1223.26 4.68869 -1.80187 0
M  V30 12582 C 1225.25 5.20648 -3.67702 0
M  V30 12583 C 1222.94 5.32467 -2.99871 0
M  V30 12584 C 1223.93 5.58289 -3.93449 0
M  V30 12585 O 1223.62 6.20567 -5.1103 0
M  V30 12586 H 1223.35 0.663848 -0.127603 0
M  V30 12587 H 1225.91 1.79171 -1.00433 0
M  V30 12588 H 1224.14 3.82965 0.536164 0
M  V30 12589 H 1225.83 4.05487 0.182996 0
M  V30 12590 H 1226.59 4.27497 -2.29066 0
M  V30 12591 H 1222.47 4.48124 -1.08193 0
M  V30 12592 H 1226.02 5.4072 -4.40759 0
M  V30 12593 H 1221.91 5.61169 -3.18998 0
M  V30 12594 H 1222.68 6.39059 -5.11415 0
M  V30 12595 N 1225.34 0.486708 1.49896 0
M  V30 12596 C 1226.59 -0.0629451 2.02702 0
M  V30 12597 C 1226.92 -1.37956 1.36681 0
M  V30 12598 O 1226.2 -1.88025 0.497678 0
M  V30 12599 C 1226.48 -0.230461 3.59362 0
M  V30 12600 C 1226.33 1.10828 4.35933 0
M  V30 12601 C 1227.65 -0.977785 4.29101 0
M  V30 12602 H 1224.77 -0.0214017 0.736689 0
M  V30 12603 H 1227.41 0.635339 1.79063 0
M  V30 12604 H 1225.56 -0.825222 3.79634 0
M  V30 12605 H 1227.24 1.74082 4.27192 0
M  V30 12606 H 1225.48 1.7011 3.99055 0
M  V30 12607 H 1226.15 0.944532 5.43859 0
M  V30 12608 H 1228.63 -0.473505 4.13397 0
M  V30 12609 H 1227.5 -1.06382 5.38492 0
M  V30 12610 H 1227.76 -2.01813 3.9335 0
M  V30 12611 N 1226.82 -1.56058 0.219941 0
M  V30 12612 C 1227.79 -2.18964 -0.677303 0
M  V30 12613 C 1228.79 -1.15105 -1.12283 0
M  V30 12614 O 1229.98 -1.40348 -1.03189 0
M  V30 12615 C 1227.11 -2.81167 -1.92764 0
M  V30 12616 H 1228.3 -2.99623 -0.128877 0
M  V30 12617 H 1225.85 -1.56272 -0.0296744 0
M  V30 12618 H 1226.59 -2.04374 -2.51797 0
M  V30 12619 H 1226.37 -3.5722 -1.61666 0
M  V30 12620 H 1227.86 -3.29391 -2.56693 0
M  V30 12621 N 1228.3 0.053464 -1.57509 0
M  V30 12622 C 1229.23 1.08863 -2.01696 0
M  V30 12623 C 1230.25 1.33916 -0.925765 0
M  V30 12624 O 1231.44 1.31833 -1.20343 0
M  V30 12625 C 1228.54 2.43567 -2.35644 0
M  V30 12626 C 1227.71 2.38215 -3.66841 0
M  V30 12627 C 1226.77 3.55172 -3.88252 0
M  V30 12628 O 1225.79 3.35769 -4.59617 0
M  V30 12629 N 1227 4.76182 -3.3201 0
M  V30 12630 H 1229.76 0.712192 -2.91115 0
M  V30 12631 H 1227.32 0.241829 -1.60084 0
M  V30 12632 H 1229.31 3.20486 -2.47125 0
M  V30 12633 H 1227.88 2.73145 -1.52022 0
M  V30 12634 H 1227.1 1.46557 -3.65943 0
M  V30 12635 H 1228.39 2.31757 -4.52953 0
M  V30 12636 H 1227.79 4.94849 -2.74118 0
M  V30 12637 H 1226.35 5.5055 -3.4891 0
M  V30 12638 N 1229.78 1.54207 0.325255 0
M  V30 12639 C 1231.03 1.72587 1.06497 0
M  V30 12640 C 1231.36 0.497228 1.87727 0
M  V30 12641 O 1230.63 -0.505804 1.87808 0
M  V30 12642 C 1230.92 3.00046 1.99109 0
M  V30 12643 C 1230.77 4.33158 1.21221 0
M  V30 12644 C 1232.09 3.23251 2.98658 0
M  V30 12645 H 1229.21 0.627974 0.38577 0
M  V30 12646 H 1231.85 1.869 0.34179 0
M  V30 12647 H 1230 2.87973 2.60775 0
M  V30 12648 H 1231.67 4.57111 0.620289 0
M  V30 12649 H 1229.91 4.30739 0.514462 0
M  V30 12650 H 1230.59 5.18558 1.89214 0
M  V30 12651 H 1233.06 3.34774 2.47114 0
M  V30 12652 H 1231.94 4.13796 3.60645 0
M  V30 12653 H 1232.2 2.40401 3.71026 0
M  V30 12654 N 1231.26 -0.58723 1.46251 0
M  V30 12655 C 1232.53 -1.34727 1.41802 0
M  V30 12656 C 1232.91 -2.10867 0.0991354 0
M  V30 12657 O 1232.26 -2.09194 -0.919242 0
M  V30 12658 C 1232.47 -2.27706 2.64482 0
M  V30 12659 C 1233.82 -2.89678 3.10438 0
M  V30 12660 O 1234.84 -2.38021 2.64999 0
M  V30 12661 O 1233.7 -3.83493 3.89352 0
M  V30 12662 H 1230.8 -0.605119 0.563702 0
M  V30 12663 H 1233.34 -0.608623 1.5841 0
M  V30 12664 H 1232.12 -1.70842 3.52035 0
M  V30 12665 H 1231.74 -3.08918 2.50311 0
M  V30 12666 N 1232.74 -1.33881 -0.831482 0
M  V30 12667 C 1233.68 -1.24748 -1.94182 0
M  V30 12668 C 1234.65 -0.124516 -1.65633 0
M  V30 12669 O 1235.84 -0.304045 -1.88362 0
M  V30 12670 C 1232.98 -1.00016 -3.30289 0
M  V30 12671 C 1232.09 -2.21007 -3.71187 0
M  V30 12672 C 1231.23 -1.89629 -4.962 0
M  V30 12673 C 1230.26 -3.06811 -5.29654 0
M  V30 12674 N 1229.4 -2.75372 -6.45844 0
M  V30 12675 H 1234.24 -2.19709 -2.01325 0
M  V30 12676 H 1231.78 -1.09245 -0.985081 0
M  V30 12677 H 1233.74 -0.837167 -4.08714 0
M  V30 12678 H 1232.37 -0.0872582 -3.22682 0
M  V30 12679 H 1231.42 -2.48256 -2.88224 0
M  V30 12680 H 1232.73 -3.08587 -3.91887 0
M  V30 12681 H 1231.88 -1.70016 -5.82391 0
M  V30 12682 H 1230.62 -0.992964 -4.77485 0
M  V30 12683 H 1229.63 -3.27029 -4.41964 0
M  V30 12684 H 1230.85 -3.97909 -5.50314 0
M  V30 12685 H 1228.8 -1.87607 -6.28601 0
M  V30 12686 H 1228.72 -3.56483 -6.66675 0
M  V30 12687 H 1229.98 -2.59244 -7.35128 0
M  V30 12688 N 1234.21 1.05064 -1.1747 0
M  V30 12689 C 1235.44 1.81761 -0.988464 0
M  V30 12690 C 1235.86 1.83028 0.463272 0
M  V30 12691 O 1235.21 1.25846 1.32171 0
M  V30 12692 C 1235.26 3.2782 -1.5237 0
M  V30 12693 O 1234.99 3.26726 -2.91859 0
M  V30 12694 C 1236.49 4.212 -1.38223 0
M  V30 12695 H 1233.71 0.572712 -0.349631 0
M  V30 12696 H 1236.25 1.32477 -1.55789 0
M  V30 12697 H 1234.41 3.7437 -0.996272 0
M  V30 12698 H 1234.82 4.18151 -3.16623 0
M  V30 12699 H 1236.29 5.2166 -1.80485 0
M  V30 12700 H 1236.77 4.37962 -0.329491 0
M  V30 12701 H 1237.38 3.80506 -1.89988 0
M  V30 12702 N 1235.69 0.975146 1.23809 0
M  V30 12703 C 1236.65 0.516157 2.23312 0
M  V30 12704 C 1237.65 -0.39136 1.55965 0
M  V30 12705 O 1238.84 -0.185783 1.73206 0
M  V30 12706 C 1235.98 -0.251534 3.39971 0
M  V30 12707 H 1237.17 1.3959 2.65433 0
M  V30 12708 H 1234.72 0.760493 1.36551 0
M  V30 12709 H 1235.46 -1.14805 3.03299 0
M  V30 12710 H 1235.24 0.399825 3.90056 0
M  V30 12711 H 1236.73 -0.561438 4.13809 0
M  V30 12712 N 1237.17 -1.38817 0.746158 0
M  V30 12713 C 1238.42 -2.00577 0.299458 0
M  V30 12714 C 1238.75 -1.59087 -1.11378 0
M  V30 12715 O 1238.02 -0.824932 -1.7614 0
M  V30 12716 C 1238.31 -3.57713 0.413932 0
M  V30 12717 C 1238.16 -4.09189 1.86774 0
M  V30 12718 C 1239.48 -4.39659 -0.197082 0
M  V30 12719 H 1236.6 -0.728702 0.110285 0
M  V30 12720 H 1239.24 -1.64866 0.944408 0
M  V30 12721 H 1237.39 -3.88265 -0.135155 0
M  V30 12722 H 1239.06 -3.89311 2.47456 0
M  V30 12723 H 1237.3 -3.62333 2.38532 0
M  V30 12724 H 1237.98 -5.18305 1.89904 0
M  V30 12725 H 1240.45 -4.15216 0.271121 0
M  V30 12726 H 1239.33 -5.48832 -0.0867011 0
M  V30 12727 H 1239.59 -4.23028 -1.2845 0
M  V30 12728 N 1238.65 -0.49465 -1.49636 0
M  V30 12729 C 1239.92 0.114829 -1.95263 0
M  V30 12730 C 1240.3 1.54739 -1.43593 0
M  V30 12731 O 1239.65 2.1915 -0.646953 0
M  V30 12732 C 1239.86 0.0339912 -3.48983 0
M  V30 12733 C 1241.21 0.211108 -4.24075 0
M  V30 12734 O 1242.23 0.109478 -3.56032 0
M  V30 12735 O 1241.09 0.418971 -5.44892 0
M  V30 12736 H 1238.19 0.0987883 -0.821078 0
M  V30 12737 H 1240.73 -0.556736 -1.60308 0
M  V30 12738 H 1239.51 -0.965287 -3.79207 0
M  V30 12739 H 1239.13 0.745982 -3.90539 0
M  V30 12740 N 1240.13 1.55939 -0.228214 0
M  V30 12741 C 1241.35 2.0287 0.406348 0
M  V30 12742 C 1241.77 1.1079 1.52876 0
M  V30 12743 O 1241.13 0.118747 1.82113 0
M  V30 12744 C 1241.18 3.49286 0.931734 0
M  V30 12745 O 1240.9 4.37857 -0.145933 0
M  V30 12746 C 1242.4 4.11893 1.63887 0
M  V30 12747 H 1239.62 0.663696 0.0987358 0
M  V30 12748 H 1242.16 2.01541 -0.346616 0
M  V30 12749 H 1240.32 3.5121 1.63494 0
M  V30 12750 H 1240.73 5.23904 0.250005 0
M  V30 12751 H 1242.21 5.16091 1.95841 0
M  V30 12752 H 1242.68 3.57281 2.55435 0
M  V30 12753 H 1243.29 4.13839 0.980697 0
M  V30 12754 N 1241.6 -0.0451101 1.57535 0
M  V30 12755 C 1242.83 -0.750231 1.92497 0
M  V30 12756 C 1243.24 -1.70268 0.824946 0
M  V30 12757 O 1242.59 -1.82511 -0.208656 0
M  V30 12758 C 1242.65 -1.57543 3.23141 0
M  V30 12759 C 1242.31 -0.789495 4.50129 0
M  V30 12760 C 1243.31 -0.0968367 5.1981 0
M  V30 12761 C 1240.99 -0.748776 4.96688 0
M  V30 12762 C 1242.99 0.626018 6.34318 0
M  V30 12763 C 1240.67 -0.0221652 6.11096 0
M  V30 12764 C 1241.67 0.664006 6.79765 0
M  V30 12765 O 1241.36 1.37885 7.91987 0
M  V30 12766 H 1241.09 -0.216895 0.64026 0
M  V30 12767 H 1243.65 -0.011558 2.05397 0
M  V30 12768 H 1241.88 -2.35754 3.06524 0
M  V30 12769 H 1243.57 -2.16168 3.4355 0
M  V30 12770 H 1244.33 -0.119429 4.84853 0
M  V30 12771 H 1240.21 -1.27235 4.43094 0
M  V30 12772 H 1243.75 1.16215 6.87852 0
M  V30 12773 H 1239.65 0.00240707 6.455 0
M  V30 12774 H 1240.42 1.29087 8.08257 0
M  V30 12775 N 1243.08 -1.54377 -0.317073 0
M  V30 12776 C 1244.5 -1.45232 -0.6618 0
M  V30 12777 C 1244.7 -0.630457 -1.91383 0
M  V30 12778 O 1243.75 -0.13181 -2.52156 0
M  V30 12779 C 1245.07 -2.89025 -0.829761 0
M  V30 12780 C 1246.62 -2.98967 -0.926685 0
M  V30 12781 C 1247.09 -4.43923 -1.12677 0
M  V30 12782 N 1248.58 -4.47564 -1.19335 0
M  V30 12783 C 1249.32 -5.56887 -1.36617 0
M  V30 12784 N 1248.81 -6.76167 -1.50899 0
M  V30 12785 N 1250.61 -5.44546 -1.39377 0
M  V30 12786 H 1242.76 -2.0629 0.505766 0
M  V30 12787 H 1245.02 -0.933615 0.164522 0
M  V30 12788 H 1244.73 -3.51695 0.0190945 0
M  V30 12789 H 1244.6 -3.35515 -1.72364 0
M  V30 12790 H 1246.99 -2.36421 -1.76604 0
M  V30 12791 H 1247.07 -2.55798 -0.00913402 0
M  V30 12792 H 1246.71 -5.07059 -0.29224 0
M  V30 12793 H 1246.64 -4.84708 -2.05829 0
M  V30 12794 H 1249.13 -3.61623 -1.09715 0
M  V30 12795 H 1249.45 -7.55242 -1.63796 0
M  V30 12796 H 1247.79 -6.79062 -1.47985 0
M  V30 12797 H 1250.98 -4.50311 -1.27819 0
M  V30 12798 H 1251.15 -6.29799 -1.52502 0
M  V30 12799 N 1244.56 0.579466 -1.4656 0
M  V30 12800 C 1245.79 1.36153 -1.55389 0
M  V30 12801 C 1246.2 1.88192 -0.195062 0
M  V30 12802 O 1245.54 1.64464 0.81836 0
M  V30 12803 C 1245.6 2.58269 -2.50075 0
M  V30 12804 C 1245.27 2.27675 -3.96249 0
M  V30 12805 C 1246.26 1.86313 -4.85369 0
M  V30 12806 C 1243.95 2.39719 -4.41407 0
M  V30 12807 C 1245.94 1.57395 -6.17661 0
M  V30 12808 C 1243.63 2.10414 -5.73733 0
M  V30 12809 C 1244.63 1.69317 -6.6168 0
M  V30 12810 O 1244.32 1.40373 -7.9155 0
M  V30 12811 H 1244.05 0.422174 -0.527963 0
M  V30 12812 H 1246.6 0.711089 -1.92698 0
M  V30 12813 H 1244.83 3.26129 -2.0779 0
M  V30 12814 H 1246.52 3.20339 -2.49275 0
M  V30 12815 H 1247.29 1.7652 -4.51736 0
M  V30 12816 H 1243.17 2.70669 -3.73175 0
M  V30 12817 H 1246.71 1.25244 -6.86265 0
M  V30 12818 H 1242.61 2.19833 -6.06913 0
M  V30 12819 H 1243.38 1.54191 -8.03845 0
M  V30 12820 N 1246.04 1.3432 0.824371 0
M  V30 12821 C 1246.97 1.2842 1.95014 0
M  V30 12822 C 1247.95 0.161925 1.69328 0
M  V30 12823 O 1249.13 0.354052 1.90945 0
M  V30 12824 C 1246.26 1.03741 3.31444 0
M  V30 12825 C 1245.22 2.12419 3.71567 0
M  V30 12826 C 1244.54 1.72931 5.05963 0
M  V30 12827 C 1245.84 3.54235 3.83817 0
M  V30 12828 H 1247.54 2.22614 2.00209 0
M  V30 12829 H 1245.08 1.07165 0.961856 0
M  V30 12830 H 1247.04 0.982586 4.09784 0
M  V30 12831 H 1245.76 0.0598892 3.26545 0
M  V30 12832 H 1244.42 2.16968 2.955 0
M  V30 12833 H 1244.07 0.738433 4.9755 0
M  V30 12834 H 1243.77 2.45668 5.3378 0
M  V30 12835 H 1245.29 1.68941 5.86763 0
M  V30 12836 H 1246.71 3.52106 4.52432 0
M  V30 12837 H 1245.1 4.25581 4.23085 0
M  V30 12838 H 1246.17 3.91682 2.85856 0
M  V30 12839 N 1247.52 -1.0444 1.18026 0
M  V30 12840 C 1248.46 -2.14474 0.900202 0
M  V30 12841 C 1249.46 -1.68836 -0.138086 0
M  V30 12842 O 1250.66 -1.79997 0.00971011 0
M  V30 12843 H 1247.04 -0.700457 0.273613 0
M  V30 12844 H 1249.01 -2.35295 1.83518 0
M  V30 12845 C 1247.76 -3.44926 0.438305 0
M  V30 12846 H 1247.08 -3.8045 1.22874 0
M  V30 12847 H 1248.52 -4.23066 0.281306 0
M  V30 12848 C 1246.98 -3.26124 -0.845268 0
M  V30 12849 O 1247.51 -3.53368 -1.91034 0
M  V30 12850 N 1245.72 -2.79474 -0.7964 0
M  V30 12851 H 1245.26 -2.57503 0.0705595 0
M  V30 12852 H 1245.22 -2.67274 -1.65566 0
M  V30 12853 N 1248.99 -0.981699 -1.2329 0
M  V30 12854 C 1250.24 -0.651302 -1.9174 0
M  V30 12855 C 1250.57 0.815318 -1.76587 0
M  V30 12856 O 1249.82 1.60377 -1.1215 0
M  V30 12857 C 1250.12 -0.989244 -3.43437 0
M  V30 12858 C 1249.79 -2.44629 -3.78771 0
M  V30 12859 C 1248.45 -2.84449 -3.88127 0
M  V30 12860 C 1250.8 -3.39123 -3.95784 0
M  V30 12861 C 1248.13 -4.17775 -4.11923 0
M  V30 12862 C 1250.48 -4.72095 -4.21081 0
M  V30 12863 C 1249.15 -5.11672 -4.28659 0
M  V30 12864 H 1248.42 -0.238328 -0.701627 0
M  V30 12865 H 1251.06 -1.2358 -1.46288 0
M  V30 12866 H 1249.37 -0.322677 -3.90469 0
M  V30 12867 H 1251.07 -0.711796 -3.94632 0
M  V30 12868 H 1247.66 -2.12759 -3.72064 0
M  V30 12869 H 1251.84 -3.09536 -3.87945 0
M  V30 12870 H 1247.1 -4.48043 -4.16013 0
M  V30 12871 H 1251.27 -5.45271 -4.33189 0
M  V30 12872 H 1248.9 -6.15003 -4.46851 0
M  V30 12873 N 1250.47 1.3842 -0.753509 0
M  V30 12874 C 1251.42 2.32315 -0.115107 0
M  V30 12875 C 1252.41 1.54015 0.705398 0
M  V30 12876 O 1253.62 1.69546 0.604505 0
M  V30 12877 H 1250 0.751774 -0.0184276 0
M  V30 12878 H 1251.97 2.83763 -0.923094 0
M  V30 12879 C 1250.72 3.39206 0.763849 0
M  V30 12880 H 1250.04 3.99548 0.14187 0
M  V30 12881 H 1251.48 4.07312 1.17783 0
M  V30 12882 C 1249.94 2.77771 1.90643 0
M  V30 12883 O 1250.47 2.67073 3.00058 0
M  V30 12884 N 1248.67 2.35582 1.70145 0
M  V30 12885 H 1248.22 2.44483 0.811528 0
M  V30 12886 H 1248.18 1.9482 2.46764 0
M  V30 12887 N 1251.95 0.502579 1.49372 0
M  V30 12888 C 1252.88 -0.311743 2.2707 0
M  V30 12889 C 1253.9 -0.929204 1.33677 0
M  V30 12890 O 1255.08 -0.812277 1.58948 0
M  V30 12891 C 1252.18 -1.45404 3.06122 0
M  V30 12892 C 1251.36 -0.943591 4.27101 0
M  V30 12893 C 1250.42 -1.96368 4.88186 0
M  V30 12894 O 1249.44 -1.5316 5.48207 0
M  V30 12895 N 1250.64 -3.29419 4.77978 0
M  V30 12896 H 1253.41 0.354503 2.97596 0
M  V30 12897 H 1250.97 0.335222 1.58392 0
M  V30 12898 H 1252.96 -2.13404 3.43862 0
M  V30 12899 H 1251.53 -2.02441 2.38194 0
M  V30 12900 H 1250.75 -0.0884372 3.94101 0
M  V30 12901 H 1252.04 -0.580983 5.05472 0
M  V30 12902 H 1251.44 -3.67211 4.30317 0
M  V30 12903 H 1250 -3.93129 5.19897 0
M  V30 12904 N 1253.43 -1.55816 0.23648 0
M  V30 12905 C 1254.36 -2.23924 -0.661834 0
M  V30 12906 C 1255.34 -1.21597 -1.18946 0
M  V30 12907 O 1256.52 -1.50222 -1.23073 0
M  V30 12908 C 1253.65 -2.93069 -1.86355 0
M  V30 12909 C 1252.61 -4.01996 -1.46913 0
M  V30 12910 C 1251.93 -4.58512 -2.75083 0
M  V30 12911 C 1253.23 -5.18265 -0.647964 0
M  V30 12912 H 1254.93 -2.99253 -0.0939368 0
M  V30 12913 H 1252.47 -1.43934 -0.0437407 0
M  V30 12914 H 1254.43 -3.39412 -2.49755 0
M  V30 12915 H 1253.15 -2.15212 -2.45665 0
M  V30 12916 H 1251.81 -3.56406 -0.858522 0
M  V30 12917 H 1251.46 -3.77368 -3.3257 0
M  V30 12918 H 1251.16 -5.32037 -2.49421 0
M  V30 12919 H 1252.68 -5.07583 -3.39399 0
M  V30 12920 H 1254.1 -5.60898 -1.18602 0
M  V30 12921 H 1252.49 -5.98114 -0.487823 0
M  V30 12922 H 1253.56 -4.83691 0.342151 0
M  V30 12923 N 1254.91 0.036755 -1.57557 0
M  V30 12924 C 1256.13 0.744813 -1.93565 0
M  V30 12925 C 1256.56 1.68508 -0.835863 0
M  V30 12926 O 1255.91 1.80091 0.208986 0
M  V30 12927 C 1255.96 1.48461 -3.28621 0
M  V30 12928 O 1255.07 2.59739 -3.20327 0
M  V30 12929 H 1254.41 0.200866 -0.632889 0
M  V30 12930 H 1256.94 -0.00547543 -2.04599 0
M  V30 12931 H 1256.95 1.85622 -3.63329 0
M  V30 12932 H 1255.62 0.794953 -4.08232 0
M  V30 12933 H 1254.2 2.25176 -2.97237 0
M  V30 12934 N 1256.39 1.54543 0.308881 0
M  V30 12935 C 1257.32 1.81309 1.40212 0
M  V30 12936 C 1258.33 0.69568 1.47187 0
M  V30 12937 O 1259.52 0.973034 1.49647 0
M  V30 12938 C 1256.62 1.92901 2.78644 0
M  V30 12939 C 1255.79 3.23222 2.94697 0
M  V30 12940 C 1254.85 3.25329 4.13579 0
M  V30 12941 O 1253.88 3.989 4.06039 0
M  V30 12942 N 1255.08 2.50158 5.23833 0
M  V30 12943 H 1257.84 2.75659 1.1761 0
M  V30 12944 H 1255.41 1.54021 0.498925 0
M  V30 12945 H 1257.4 1.91721 3.56406 0
M  V30 12946 H 1255.97 1.05582 2.9423 0
M  V30 12947 H 1255.19 3.37241 2.04113 0
M  V30 12948 H 1256.48 4.09238 3.02328 0
M  V30 12949 H 1255.87 1.90002 5.32838 0
M  V30 12950 H 1254.43 2.5474 5.99959 0
M  V30 12951 N 1257.86 -0.571685 1.46866 0
M  V30 12952 C 1259.09 -1.35327 1.56109 0
M  V30 12953 C 1259.5 -1.88086 0.20504 0
M  V30 12954 O 1258.84 -1.64896 -0.809626 0
M  V30 12955 C 1258.91 -2.56939 2.51441 0
M  V30 12956 C 1258.57 -2.2557 3.97451 0
M  V30 12957 C 1259.57 -1.83737 4.86351 0
M  V30 12958 C 1257.25 -2.37375 4.42672 0
M  V30 12959 C 1259.25 -1.54118 6.18487 0
M  V30 12960 C 1256.93 -2.07368 5.7484 0
M  V30 12961 C 1257.93 -1.65806 6.62569 0
M  V30 12962 O 1257.62 -1.36173 7.92283 0
M  V30 12963 H 1257.35 -0.419368 0.530194 0
M  V30 12964 H 1259.91 -0.700859 1.93073 0
M  V30 12965 H 1258.14 -3.25023 2.09517 0
M  V30 12966 H 1259.82 -3.19012 2.5097 0
M  V30 12967 H 1260.59 -1.74122 4.52666 0
M  V30 12968 H 1256.47 -2.68686 3.74605 0
M  V30 12969 H 1260.01 -1.21603 6.8692 0
M  V30 12970 H 1255.91 -2.16611 6.08071 0
M  V30 12971 H 1256.68 -1.49926 8.04652 0
M  V30 12972 N 1259.34 -1.34755 -0.817236 0
M  V30 12973 C 1260.57 -1.30522 -1.60536 0
M  V30 12974 C 1260.98 0.119541 -1.88421 0
M  V30 12975 O 1260.34 1.06833 -1.47962 0
M  V30 12976 C 1260.39 -2.09939 -2.94292 0
M  V30 12977 O 1260.11 -3.46858 -2.67621 0
M  V30 12978 C 1261.61 -2.13168 -3.88683 0
M  V30 12979 H 1258.83 -0.448789 -0.498828 0
M  V30 12980 H 1261.38 -1.77453 -1.01639 0
M  V30 12981 H 1259.53 -1.66634 -3.49731 0
M  V30 12982 H 1259.95 -3.87979 -3.52949 0
M  V30 12983 H 1261.42 -2.73147 -4.79682 0
M  V30 12984 H 1261.9 -1.12758 -4.24479 0
M  V30 12985 H 1262.5 -2.56587 -3.39181 0
M  V30 12986 N 1260.82 1.03812 -1.18578 0
M  V30 12987 C 1261.73 2.15371 -0.930182 0
M  V30 12988 C 1262.75 1.73673 0.106599 0
M  V30 12989 O 1263.92 2.01257 -0.0759054 0
M  V30 12990 C 1260.99 3.43606 -0.462151 0
M  V30 12991 C 1260.05 3.99671 -1.5672 0
M  V30 12992 C 1259.28 5.21785 -1.12141 0
M  V30 12993 O 1259.5 5.70397 0.0188357 0
M  V30 12994 O 1258.44 5.70449 -1.9202 0
M  V30 12995 H 1262.26 2.39791 -1.86371 0
M  V30 12996 H 1259.85 1.13814 -0.967819 0
M  V30 12997 H 1261.73 4.2088 -0.20934 0
M  V30 12998 H 1260.41 3.20654 0.443052 0
M  V30 12999 H 1259.31 3.23774 -1.87406 0
M  V30 13000 H 1260.65 4.2697 -2.44862 0
M  V30 13001 N 1262.3 0.988223 1.22768 0
M  V30 13002 C 1263.24 0.534605 2.24523 0
M  V30 13003 C 1264.21 -0.430615 1.60421 0
M  V30 13004 O 1265.4 -0.336417 1.87811 0
M  V30 13005 C 1262.54 -0.149195 3.44777 0
M  V30 13006 C 1261.65 0.85721 4.2341 0
M  V30 13007 C 1260.79 0.147411 5.30995 0
M  V30 13008 C 1259.83 1.1425 6.01343 0
M  V30 13009 N 1258.96 0.461327 7.00583 0
M  V30 13010 H 1263.8 1.40708 2.62689 0
M  V30 13011 H 1261.34 0.704918 1.2911 0
M  V30 13012 H 1263.3 -0.562527 4.1339 0
M  V30 13013 H 1261.93 -0.985485 3.07389 0
M  V30 13014 H 1260.98 1.38889 3.54138 0
M  V30 13015 H 1262.29 1.61517 4.71926 0
M  V30 13016 H 1261.45 -0.32289 6.0584 0
M  V30 13017 H 1260.19 -0.643085 4.83442 0
M  V30 13018 H 1259.19 1.62348 5.25284 0
M  V30 13019 H 1260.42 1.93379 6.50985 0
M  V30 13020 H 1258.36 -0.309818 6.55268 0
M  V30 13021 H 1258.28 1.15781 7.47082 0
M  V30 13022 H 1259.55 0.0136734 7.79499 0
M  V30 13023 N 1263.78 -1.38018 0.760839 0
M  V30 13024 C 1264.74 -2.28734 0.146154 0
M  V30 13025 C 1265.74 -1.47525 -0.639768 0
M  V30 13026 O 1266.93 -1.6788 -0.464964 0
M  V30 13027 C 1264.06 -3.31356 -0.801019 0
M  V30 13028 H 1265.25 -2.84599 0.945692 0
M  V30 13029 H 1262.81 -1.471 0.528323 0
M  V30 13030 H 1263.54 -2.80594 -1.62597 0
M  V30 13031 H 1263.33 -3.91366 -0.239775 0
M  V30 13032 H 1264.82 -3.99171 -1.22687 0
M  V30 13033 N 1265.25 -0.510493 -1.49103 0
M  V30 13034 C 1266.53 0.0941122 -1.95373 0
M  V30 13035 C 1266.91 1.53207 -1.45227 0
M  V30 13036 O 1266.26 2.18452 -0.670161 0
M  V30 13037 C 1266.47 -0.00302507 -3.49 0
M  V30 13038 C 1267.82 0.166117 -4.24275 0
M  V30 13039 O 1268.84 0.0717097 -3.56128 0
M  V30 13040 O 1267.7 0.361155 -5.45305 0
M  V30 13041 H 1264.79 0.0900741 -0.82208 0
M  V30 13042 H 1267.34 -0.573707 -1.59708 0
M  V30 13043 H 1266.11 -1.00545 -3.78162 0
M  V30 13044 H 1265.73 0.704518 -3.91308 0
M  V30 13045 N 1266.73 1.55688 -0.24474 0
M  V30 13046 C 1267.98 1.98498 0.379852 0
M  V30 13047 C 1268.3 1.13416 1.58625 0
M  V30 13048 O 1267.57 0.216456 1.947 0
M  V30 13049 H 1266.15 0.73312 0.143334 0
M  V30 13050 H 1268.81 1.91858 -0.343027 0
M  V30 13051 H 1267.91 3.04367 0.690463 0
M  V30 13052 N 1268.21 -0.0283989 1.57574 0
M  V30 13053 C 1269.46 -0.720142 1.89583 0
M  V30 13054 C 1269.79 -1.7497 0.842562 0
M  V30 13055 O 1269.06 -1.93979 -0.142294 0
M  V30 13056 C 1269.35 -1.38909 3.32229 0
M  V30 13057 C 1269.2 -0.372998 4.48251 0
M  V30 13058 C 1270.52 -2.32289 3.73804 0
M  V30 13059 H 1267.64 -0.26033 0.689491 0
M  V30 13060 H 1270.28 0.0170607 1.89992 0
M  V30 13061 H 1268.43 -2.01744 3.32011 0
M  V30 13062 H 1270.1 0.253492 4.60603 0
M  V30 13063 H 1268.34 0.30765 4.32708 0
M  V30 13064 H 1269.02 -0.879549 5.44948 0
M  V30 13065 H 1271.49 -1.79497 3.75393 0
M  V30 13066 H 1270.37 -2.76075 4.74419 0
M  V30 13067 H 1270.63 -3.18992 3.06099 0
M  V30 13068 N 1269.69 -1.54705 -0.300681 0
M  V30 13069 C 1270.94 -1.73211 -1.03349 0
M  V30 13070 C 1271.25 -0.52518 -1.88418 0
M  V30 13071 O 1272.46 -0.592049 -2.64966 0
M  V30 13072 C 1270.91 -3.06453 -1.88717 0
M  V30 13073 C 1270.52 -4.34625 -1.0865 0
M  V30 13074 C 1272.26 -3.34317 -2.61595 0
M  V30 13075 C 1270.17 -5.58919 -1.93297 0
M  V30 13076 H 1269.1 -0.64556 -0.389574 0
M  V30 13077 H 1271.75 -1.81186 -0.290472 0
M  V30 13078 H 1270.13 -2.92443 -2.67008 0
M  V30 13079 H 1271.31 -4.59471 -0.349707 0
M  V30 13080 H 1269.62 -4.13699 -0.473521 0
M  V30 13081 H 1272.22 -4.2438 -3.25278 0
M  V30 13082 H 1272.56 -2.53207 -3.30442 0
M  V30 13083 H 1273.1 -3.493 -1.90354 0
M  V30 13084 H 1269.83 -6.42697 -1.2892 0
M  V30 13085 H 1269.35 -5.38258 -2.64647 0
M  V30 13086 H 1271.03 -5.96187 -2.51336 0
M  V30 13087 N 1271.17 0.563888 -1.47167 0
M  V30 13088 C 1272.41 1.32136 -1.53448 0
M  V30 13089 C 1272.74 1.9353 -0.19396 0
M  V30 13090 O 1272 1.78038 0.812456 0
M  V30 13091 C 1272.3 2.45678 -2.59571 0
M  V30 13092 C 1271.96 2.02157 -4.03043 0
M  V30 13093 C 1270.62 1.90003 -4.421 0
M  V30 13094 C 1272.98 1.68846 -4.93093 0
M  V30 13095 C 1270.3 1.42825 -5.6905 0
M  V30 13096 C 1272.66 1.2314 -6.20499 0
M  V30 13097 C 1271.32 1.09578 -6.58444 0
M  V30 13098 H 1270.59 0.483519 -0.561507 0
M  V30 13099 H 1273.24 0.633042 -1.80734 0
M  V30 13100 H 1271.54 3.20037 -2.26017 0
M  V30 13101 H 1273.24 3.03871 -2.61655 0
M  V30 13102 H 1269.83 2.12557 -3.7218 0
M  V30 13103 H 1274.01 1.77111 -4.63622 0
M  V30 13104 H 1269.27 1.30983 -5.97205 0
M  V30 13105 H 1273.44 0.964247 -6.89692 0
M  V30 13106 H 1271.07 0.727975 -7.56706 0
M  V30 13107 N 1272.64 1.35187 0.810078 0
M  V30 13108 C 1273.58 1.23673 1.92971 0
M  V30 13109 C 1274.59 0.160819 1.62004 0
M  V30 13110 O 1275.78 0.413793 1.73638 0
M  V30 13111 C 1272.88 0.880887 3.27252 0
M  V30 13112 C 1272.05 2.05444 3.86149 0
M  V30 13113 C 1271.11 1.67494 4.98831 0
M  V30 13114 O 1270.14 2.39322 5.16443 0
M  V30 13115 N 1271.34 0.596539 5.77427 0
M  V30 13116 H 1274.1 2.20133 2.03376 0
M  V30 13117 H 1271.66 1.2831 0.987322 0
M  V30 13118 H 1273.66 0.608556 4.00098 0
M  V30 13119 H 1272.23 0.00607926 3.12599 0
M  V30 13120 H 1271.45 2.49077 3.05539 0
M  V30 13121 H 1272.73 2.83898 4.22231 0
M  V30 13122 H 1272.13 -0.000312591 5.657 0
M  V30 13123 H 1270.69 0.383979 6.50668 0
M  V30 13124 N 1274.12 -1.03182 1.19127 0
M  V30 13125 C 1275.35 -1.80165 1.01726 0
M  V30 13126 C 1275.77 -1.83742 -0.434095 0
M  V30 13127 O 1275.12 -1.27932 -1.30152 0
M  V30 13128 C 1275.17 -3.25354 1.57566 0
M  V30 13129 O 1274.89 -3.22042 2.9702 0
M  V30 13130 C 1276.4 -4.18948 1.44906 0
M  V30 13131 H 1273.62 -0.567078 0.358698 0
M  V30 13132 H 1276.16 -1.29982 1.57877 0
M  V30 13133 H 1274.31 -3.72738 1.0557 0
M  V30 13134 H 1274.73 -4.13061 3.23235 0
M  V30 13135 H 1276.2 -5.18723 1.88762 0
M  V30 13136 H 1276.68 -4.37383 0.399125 0
M  V30 13137 H 1277.29 -3.77435 1.96018 0
M  V30 13138 N 1275.6 -0.99472 -1.22242 0
M  V30 13139 C 1276.56 -0.551619 -2.22463 0
M  V30 13140 C 1277.56 0.366498 -1.56568 0
M  V30 13141 O 1278.75 0.158204 -1.7348 0
M  V30 13142 C 1275.89 0.197416 -3.40328 0
M  V30 13143 H 1277.08 -1.43795 -2.63179 0
M  V30 13144 H 1274.63 -0.782121 -1.35324 0
M  V30 13145 H 1275.37 1.09965 -3.05087 0
M  V30 13146 H 1275.15 -0.461829 -3.89371 0
M  V30 13147 H 1276.64 0.495534 -4.1465 0
M  V30 13148 N 1277.08 1.37613 -0.768148 0
M  V30 13149 C 1278.32 2.00075 -0.331331 0
M  V30 13150 C 1278.66 1.60839 1.08833 0
M  V30 13151 O 1277.93 0.852849 1.74805 0
M  V30 13152 C 1278.22 3.57009 -0.470789 0
M  V30 13153 C 1278.07 4.06166 -1.9326 0
M  V30 13154 C 1279.39 4.39916 0.127111 0
M  V30 13155 H 1276.51 0.726855 -0.121864 0
M  V30 13156 H 1279.15 1.63343 -0.970518 0
M  V30 13157 H 1277.3 3.88431 0.0733688 0
M  V30 13158 H 1278.97 3.85325 -2.53618 0
M  V30 13159 H 1277.21 3.58492 -2.44266 0
M  V30 13160 H 1277.88 5.15219 -1.98125 0
M  V30 13161 H 1280.36 4.14732 -0.337144 0
M  V30 13162 H 1279.24 5.489 -0.000624226 0
M  V30 13163 H 1279.5 4.25018 1.21704 0
M  V30 13164 O 1278.6 0.659875 1.47404 0
M  V30 13165 H 1279.29 0.187421 1.92791 0
M  V30 END ATOM
M  V30 BEGIN BOND
M  V30 END BOND
M  V30 END CTAB
M  END
$$$$
