drugbank_target|P36896 Activin receptor type-1B (DB00171; DB12010)
 OpenBabel12092119363D

  0  0  0     0  0            999 V3000
M  V30 BEGIN CTAB
M  V30 COUNTS 7952 8041 0 0 0
M  V30 BEGIN ATOM
M  V30 1 H -0.908 1.98254 -0.117106 0
M  V30 2 N 0 1.576 0 0
M  V30 3 C 0.933 2.03868 1.02534 0
M  V30 4 C 1.911 0.928543 1.3348 0
M  V30 5 O 3.095 1.19667 1.45644 0
M  V30 6 C 0.222 2.43627 2.35294 0
M  V30 7 C -0.732 3.65373 2.2001 0
M  V30 8 S 0.101 5.13292 1.52614 0
M  V30 9 C 1.257 5.56322 2.86805 0
M  V30 10 H 1.49 2.90518 0.631377 0
M  V30 11 H -0.977 1.52953 0.210867 0
M  V30 12 H 0.981 2.67203 3.11629 0
M  V30 13 H -0.358 1.57376 2.7183 0
M  V30 14 H -1.165 3.90944 3.18086 0
M  V30 15 H -1.563 3.418 1.51819 0
M  V30 16 H 0.729 5.58782 3.83104 0
M  V30 17 H 1.672 6.56266 2.65933 0
M  V30 18 H 2.08 4.83886 2.90714 0
M  V30 19 N 1.4781 -0.272755 1.55222 0
M  V30 20 C 2.4411 -1.32041 1.87344 0
M  V30 21 C 3.4411 -1.42342 0.74803 0
M  V30 22 O 4.6311 -1.41488 1.0162 0
M  V30 23 C 1.7631 -2.70173 2.07893 0
M  V30 24 H 2.9561 -1.04789 2.80997 0
M  V30 25 H 0.5091 -0.51083 1.47717 0
M  V30 26 H 1.2441 -3.02605 1.16622 0
M  V30 27 H 1.0291 -2.64082 2.89833 0
M  V30 28 H 2.5191 -3.45869 2.34017 0
M  V30 29 N 2.9562 -1.48159 -0.537278 0
M  V30 30 C 3.8662 -1.64807 -1.6696 0
M  V30 31 C 4.8822 -0.530651 -1.65711 0
M  V30 32 O 6.0582 -0.800784 -1.84796 0
M  V30 33 C 3.1232 -1.67708 -3.03438 0
M  V30 34 C 2.1842 -2.91025 -3.156 0
M  V30 35 C 1.4172 -2.93778 -4.45567 0
M  V30 36 O 1.6402 -2.05153 -5.3223 0
M  V30 37 O 0.5742 -3.85868 -4.61941 0
M  V30 38 H 4.4002 -2.6066 -1.55853 0
M  V30 39 H 1.9852 -1.31475 -0.709549 0
M  V30 40 H 3.8672 -1.7218 -3.84619 0
M  V30 41 H 2.5422 -0.750278 -3.14885 0
M  V30 42 H 1.4492 -2.92089 -2.33741 0
M  V30 43 H 2.7822 -3.83065 -3.09066 0
M  V30 44 N 4.4343 0.785586 -1.36625 0
M  V30 45 C 5.6593 1.57963 -1.34397 0
M  V30 46 C 6.0843 1.87964 0.071526 0
M  V30 47 O 5.4423 1.48182 1.0446 0
M  V30 48 C 5.4903 2.87511 -2.17646 0
M  V30 49 O 4.5943 3.81281 -1.57158 0
M  V30 50 H 3.9353 0.479014 -0.459828 0
M  V30 51 H 6.4653 0.973411 -1.79961 0
M  V30 52 H 6.4753 3.36745 -2.30362 0
M  V30 53 H 5.1503 2.65002 -3.20541 0
M  V30 54 H 3.7273 3.39885 -1.53403 0
M  V30 55 N 5.9124 1.20967 1.01018 0
M  V30 56 C 6.8754 0.965918 2.07853 0
M  V30 57 C 7.8754 -0.0610545 1.60684 0
M  V30 58 O 9.0654 0.175681 1.73312 0
M  V30 59 C 6.1974 0.455513 3.37843 0
M  V30 60 H 7.3904 1.91365 2.3091 0
M  V30 61 H 4.9434 1.02594 1.17916 0
M  V30 62 H 5.6784 -0.497381 3.20463 0
M  V30 63 H 5.4634 1.19622 3.73407 0
M  V30 64 H 6.9534 0.304667 4.16487 0
M  V30 65 N 7.3905 -1.2043 1.01659 0
M  V30 66 C 8.6385 -1.89423 0.704522 0
M  V30 67 C 8.9595 -1.79231 -0.768197 0
M  V30 68 O 8.2295 -1.1947 -1.55254 0
M  V30 69 H 6.8095 -0.701178 0.257602 0
M  V30 70 H 9.4715 -1.4626 1.28818 0
M  V30 71 H 8.5675 -2.96052 0.987916 0
M  V30 72 N 8.8686 -0.792821 -1.36206 0
M  V30 73 C 9.8316 -0.199459 -2.2833 0
M  V30 74 C 10.8316 0.605189 -1.48977 0
M  V30 75 O 12.0216 0.425685 -1.68919 0
M  V30 76 C 9.1536 0.723523 -3.33134 0
M  V30 77 H 10.3466 -1.01181 -2.82316 0
M  V30 78 H 7.8996 -0.562485 -1.45828 0
M  V30 79 H 8.6346 1.56008 -2.84309 0
M  V30 80 H 8.4196 0.148436 -3.91819 0
M  V30 81 H 9.9096 1.13344 -4.01924 0
M  V30 82 N 10.3467 1.47872 -0.545128 0
M  V30 83 C 11.5717 2.07391 -0.0190611 0
M  V30 84 C 11.9967 1.39688 1.25971 0
M  V30 85 O 11.3547 0.467816 1.7516 0
M  V30 86 C 11.4027 3.60188 0.172335 0
M  V30 87 O 10.5067 3.9339 1.23766 0
M  V30 88 H 9.8477 0.662411 -0.0459059 0
M  V30 89 H 12.3777 1.90066 -0.757365 0
M  V30 90 H 12.3877 4.06129 0.390305 0
M  V30 91 H 11.0627 4.08865 -0.761725 0
M  V30 92 H 9.6397 3.5921 1.00114 0
M  V30 93 N 11.8248 0.280983 1.55075 0
M  V30 94 C 13.0498 -0.340154 2.04592 0
M  V30 95 C 13.4748 -1.48246 1.15779 0
M  V30 96 O 12.8328 -1.80614 0.15761 0
M  V30 97 C 12.8808 -0.793104 3.5177 0
M  V30 98 O 11.9848 -1.89981 3.66034 0
M  V30 99 H 11.3258 -0.0694289 0.66036 0
M  V30 100 H 13.8558 0.416993 2.00306 0
M  V30 101 H 13.8658 -1.08729 3.93245 0
M  V30 102 H 12.5408 0.0426163 4.15878 0
M  V30 103 H 11.1178 -1.60771 3.36463 0
M  V30 104 N 13.3029 -1.57598 0.00835791 0
M  V30 105 C 14.5499 -1.90928 -0.674732 0
M  V30 106 C 14.8779 -0.88277 -1.73313 0
M  V30 107 O 14.1329 0.111294 -1.95383 0
M  V30 108 C 14.4319 -3.3101 -1.34787 0
M  V30 109 C 14.0979 -4.48922 -0.421861 0
M  V30 110 C 12.7599 -4.8091 -0.166927 0
M  V30 111 C 15.1119 -5.20755 0.215211 0
M  V30 112 C 12.4399 -5.821 0.733232 0
M  V30 113 C 14.7919 -6.22905 1.1033 0
M  V30 114 C 13.4559 -6.53346 1.36733 0
M  V30 115 H 12.7259 -0.698656 -0.246902 0
M  V30 116 H 15.3729 -1.91387 0.0656779 0
M  V30 117 H 13.6779 -3.26714 -2.16253 0
M  V30 118 H 15.3749 -3.54061 -1.8826 0
M  V30 119 H 11.9649 -4.23934 -0.630729 0
M  V30 120 H 16.1489 -4.9629 0.0312829 0
M  V30 121 H 11.4049 -6.04042 0.945712 0
M  V30 122 H 15.5789 -6.77694 1.60325 0
M  V30 123 H 13.2059 -7.31573 2.06652 0
M  V30 124 N 14.781 0.264519 -1.55364 0
M  V30 125 C 16.028 0.994986 -1.7637 0
M  V30 126 C 16.356 1.85976 -0.5695 0
M  V30 127 O 15.611 1.90509 0.44776 0
M  V30 128 C 15.91 1.9004 -3.02687 0
M  V30 129 C 15.576 1.19243 -4.34847 0
M  V30 130 C 14.238 0.996709 -4.70764 0
M  V30 131 C 16.59 0.689296 -5.16622 0
M  V30 132 C 13.918 0.285261 -5.86006 0
M  V30 133 C 16.27 -0.00860079 -6.32599 0
M  V30 134 C 14.934 -0.215963 -6.67151 0
M  V30 135 H 14.204 0.364091 -0.645383 0
M  V30 136 H 16.851 0.266543 -1.89636 0
M  V30 137 H 15.156 2.69533 -2.84357 0
M  V30 138 H 16.853 2.46695 -3.16137 0
M  V30 139 H 13.443 1.3549 -4.06621 0
M  V30 140 H 17.627 0.828108 -4.89342 0
M  V30 141 H 12.883 0.113961 -6.11294 0
M  V30 142 H 17.057 -0.406186 -6.95214 0
M  V30 143 H 14.684 -0.769217 -7.56298 0
M  V30 144 N 16.2591 1.48442 0.529413 0
M  V30 145 C 17.6701 1.5002 1.11134 0
M  V30 146 C 18.0211 0.27031 1.94329 0
M  V30 147 O 17.1461 -0.622507 2.07253 0
M  V30 148 C 17.7411 2.71834 2.02217 0
M  V30 149 C 16.3001 2.76283 2.55627 0
M  V30 150 C 15.4471 2.43542 1.326 0
M  V30 151 H 18.3981 1.5555 0.314641 0
M  V30 152 H 18.4191 2.50384 2.8651 0
M  V30 153 H 17.9311 3.61331 1.41639 0
M  V30 154 H 16.0321 1.90995 3.19924 0
M  V30 155 H 16.1451 3.77725 2.94721 0
M  V30 156 H 14.5091 1.94709 1.64196 0
M  V30 157 H 15.2921 3.3528 0.737734 0
M  V30 158 N 17.7372 -0.778329 1.37039 0
M  V30 159 C 18.6672 -1.90546 1.34962 0
M  V30 160 C 19.6482 -1.68681 0.219274 0
M  V30 161 O 20.8332 -1.89634 0.418624 0
M  V30 162 C 17.9632 -3.27734 1.14925 0
M  V30 163 C 16.9172 -3.64147 2.24902 0
M  V30 164 C 16.2432 -4.99806 1.89996 0
M  V30 165 C 17.5432 -3.71579 3.67051 0
M  V30 166 H 19.2372 -1.92541 2.29277 0
M  V30 167 H 16.7832 -0.924948 1.10366 0
M  V30 168 H 18.7362 -4.06215 1.12104 0
M  V30 169 H 17.4602 -3.26154 0.170631 0
M  V30 170 H 16.1192 -2.8797 2.26868 0
M  V30 171 H 15.7672 -4.94759 0.906796 0
M  V30 172 H 15.4672 -5.25139 2.63634 0
M  V30 173 H 16.9912 -5.80694 1.88749 0
M  V30 174 H 18.4052 -4.40227 3.67251 0
M  V30 175 H 16.8022 -4.08405 4.39688 0
M  V30 176 H 17.8722 -2.72404 4.01154 0
M  V30 177 N 19.2153 -1.21501 -1.00376 0
M  V30 178 C 20.4613 -1.03452 -1.74429 0
M  V30 179 C 20.7943 0.430764 -1.89362 0
M  V30 180 O 20.0693 1.31962 -1.42886 0
M  V30 181 C 20.3523 -1.73375 -3.15615 0
M  V30 182 C 20.2053 -3.27431 -3.08397 0
M  V30 183 C 21.5243 -1.47732 -4.14564 0
M  V30 184 H 18.6433 -0.377226 -0.633143 0
M  V30 185 H 21.2853 -1.49693 -1.17013 0
M  V30 186 H 19.4353 -1.34064 -3.64636 0
M  V30 187 H 21.1073 -3.76119 -2.67081 0
M  V30 188 H 19.3503 -3.5767 -2.45468 0
M  V30 189 H 20.0213 -3.71524 -4.08258 0
M  V30 190 H 22.4973 -1.8186 -3.74254 0
M  V30 191 H 21.3733 -1.99169 -5.11491 0
M  V30 192 H 21.6343 -0.407589 -4.40217 0
M  V30 193 N 20.6934 1.19889 -1.02296 0
M  V30 194 C 21.9394 1.89701 -0.717033 0
M  V30 195 C 22.2724 1.7905 0.751989 0
M  V30 196 O 21.5474 1.17891 1.547 0
M  V30 197 C 21.8304 3.40858 -1.16136 0
M  V30 198 C 21.6834 3.60411 -2.69117 0
M  V30 199 C 23.0024 4.33876 -0.737549 0
M  V30 200 H 20.1214 0.688874 -0.261957 0
M  V30 201 H 22.7634 1.41154 -1.27183 0
M  V30 202 H 20.9134 3.82335 -0.689342 0
M  V30 203 H 22.5854 3.28145 -3.2422 0
M  V30 204 H 20.8284 3.03665 -3.0979 0
M  V30 205 H 21.4994 4.66396 -2.95261 0
M  V30 206 H 23.9754 4.00081 -1.14344 0
M  V30 207 H 22.8514 5.38242 -1.0764 0
M  V30 208 H 23.1124 4.40628 0.360436 0
M  V30 209 N 22.1715 0.800033 1.35784 0
M  V30 210 C 23.1015 0.220184 2.3246 0
M  V30 211 C 24.0825 -0.65073 1.57161 0
M  V30 212 O 25.2675 -0.582359 1.85263 0
M  V30 213 C 22.3975 -0.637353 3.41402 0
M  V30 214 C 21.3515 0.134531 4.27789 0
M  V30 215 C 20.6775 -0.844285 5.27992 0
M  V30 216 C 21.9775 1.32979 5.05088 0
M  V30 217 H 23.6715 1.02787 2.81203 0
M  V30 218 H 21.2175 0.495717 1.35199 0
M  V30 219 H 23.1705 -1.05302 4.08031 0
M  V30 220 H 21.8945 -1.47785 2.91251 0
M  V30 221 H 20.5535 0.531296 3.6273 0
M  V30 222 H 20.2015 -1.68011 4.74111 0
M  V30 223 H 19.9015 -0.332184 5.8666 0
M  V30 224 H 21.4255 -1.2583 5.97494 0
M  V30 225 H 22.8395 0.98934 5.64699 0
M  V30 226 H 21.2365 1.77593 5.7322 0
M  V30 227 H 22.3065 2.11978 4.36111 0
M  V30 228 N 23.6496 -1.47581 0.552962 0
M  V30 229 C 24.5796 -2.32762 -0.185451 0
M  V30 230 C 25.5606 -1.43527 -0.912905 0
M  V30 231 O 26.7456 -1.72388 -0.894201 0
M  V30 232 C 23.8756 -3.25219 -1.21859 0
M  V30 233 C 22.8296 -4.23661 -0.607864 0
M  V30 234 C 22.1556 -5.05413 -1.74533 0
M  V30 235 C 23.4556 -5.20481 0.435582 0
M  V30 236 H 25.1496 -2.94749 0.525684 0
M  V30 237 H 22.6956 -1.41738 0.254251 0
M  V30 238 H 24.6486 -3.8365 -1.7433 0
M  V30 239 H 23.3726 -2.61279 -1.95961 0
M  V30 240 H 22.0316 -3.66451 -0.104489 0
M  V30 241 H 21.6796 -4.3788 -2.47529 0
M  V30 242 H 21.3796 -5.72059 -1.34249 0
M  V30 243 H 22.9036 -5.66701 -2.27338 0
M  V30 244 H 24.3176 -5.733 -0.00290157 0
M  V30 245 H 22.7146 -5.95305 0.757067 0
M  V30 246 H 23.7846 -4.66217 1.33303 0
M  V30 247 N 25.1277 -0.289203 -1.54924 0
M  V30 248 C 26.0577 0.58549 -2.2604 0
M  V30 249 C 27.0387 1.14753 -1.25562 0
M  V30 250 O 28.2237 1.17906 -1.54311 0
M  V30 251 C 25.3537 1.76305 -2.99222 0
M  V30 252 C 24.3077 1.33191 -4.06748 0
M  V30 253 C 23.6337 2.5937 -4.6758 0
M  V30 254 C 24.9337 0.471775 -5.20165 0
M  V30 255 H 26.6277 -0.00763532 -2.99399 0
M  V30 256 H 24.1737 -0.00511229 -1.43999 0
M  V30 257 H 26.1267 2.38097 -3.47689 0
M  V30 258 H 24.8507 2.38223 -2.23422 0
M  V30 259 H 23.5097 0.737121 -3.59113 0
M  V30 260 H 23.1577 3.19576 -3.88433 0
M  V30 261 H 22.8577 2.31228 -5.40192 0
M  V30 262 H 24.3817 3.21985 -5.18804 0
M  V30 263 H 25.7957 0.995056 -5.64599 0
M  V30 264 H 24.1927 0.284639 -5.99425 0
M  V30 265 H 25.2627 -0.506041 -4.82252 0
M  V30 266 N 26.6058 1.57591 -0.0167156 0
M  V30 267 C 27.5688 2.08393 0.954204 0
M  V30 268 C 28.5688 0.996531 1.26198 0
M  V30 269 O 29.7588 1.25858 1.20438 0
M  V30 270 C 26.8908 2.5394 2.27436 0
M  V30 271 H 28.0838 2.95455 0.514451 0
M  V30 272 H 25.6368 1.54582 0.231089 0
M  V30 273 H 26.3718 1.70171 2.76066 0
M  V30 274 H 26.1568 3.33371 2.06412 0
M  V30 275 H 27.6468 2.93512 2.97053 0
M  V30 276 N 28.0839 -0.256276 1.55502 0
M  V30 277 C 29.3319 -0.983672 1.76545 0
M  V30 278 C 29.6529 -1.86206 0.578982 0
M  V30 279 O 28.9229 -1.91656 -0.405577 0
M  V30 280 H 27.5029 -0.366191 0.651086 0
M  V30 281 H 30.1649 -0.276479 1.92929 0
M  V30 282 H 29.2609 -1.61087 2.67315 0
M  V30 283 N 29.562 -1.4872 -0.521534 0
M  V30 284 C 30.787 -1.61101 -1.30618 0
M  V30 285 C 31.212 -0.274611 -1.86085 0
M  V30 286 O 30.57 0.754937 -1.64834 0
M  V30 287 C 30.618 -2.66709 -2.4269 0
M  V30 288 O 29.722 -2.24456 -3.45967 0
M  V30 289 H 29.063 -0.539921 -0.386499 0
M  V30 290 H 31.593 -1.94767 -0.626645 0
M  V30 291 H 31.603 -2.88245 -2.88754 0
M  V30 292 H 30.278 -3.63727 -2.01682 0
M  V30 293 H 28.855 -2.13168 -3.05964 0
M  V30 294 N 31.0401 0.771051 -1.3745 0
M  V30 295 C 32.2881 1.52661 -1.32435 0
M  V30 296 C 32.6091 1.9479 0.0905024 0
M  V30 297 O 31.8791 1.66348 1.03466 0
M  V30 298 H 30.4591 0.566218 -0.487244 0
M  V30 299 H 33.1211 0.917636 -1.71946 0
M  V30 300 H 32.2171 2.42568 -1.96385 0
M  V30 301 N 32.5182 1.22032 0.997298 0
M  V30 302 C 33.7662 1.04016 1.73278 0
M  V30 303 C 34.0872 -0.426255 1.90284 0
M  V30 304 O 33.3572 -1.30694 1.45931 0
M  V30 305 H 31.9372 0.381897 0.642 0
M  V30 306 H 34.5992 1.5347 1.20137 0
M  V30 307 H 33.6952 1.51441 2.72896 0
M  V30 308 N 33.9963 -1.19345 1.0293 0
M  V30 309 C 35.2213 -1.93538 0.745511 0
M  V30 310 C 35.6463 -1.75007 -0.689511 0
M  V30 311 O 35.0043 -1.05265 -1.47611 0
M  V30 312 C 35.0523 -3.43336 1.10239 0
M  V30 313 O 34.1563 -4.11806 0.221289 0
M  V30 314 H 33.4973 -0.604193 0.275404 0
M  V30 315 H 36.0273 -1.5141 1.37609 0
M  V30 316 H 36.0373 -3.94004 1.05947 0
M  V30 317 H 34.7123 -3.56146 2.14786 0
M  V30 318 H 33.2893 -3.715 0.322842 0
M  V30 319 N 35.4744 -0.807222 -1.35358 0
M  V30 320 C 36.7224 -0.387122 -1.98358 0
M  V30 321 C 37.0434 1.04942 -1.64354 0
M  V30 322 O 36.3134 1.72615 -0.926339 0
M  V30 323 H 34.8934 -0.140154 -0.733734 0
M  V30 324 H 37.5554 -1.0332 -1.6526 0
M  V30 325 H 36.6514 -0.493352 -3.08176 0
M  V30 326 N 36.9525 1.47285 -0.560781 0
M  V30 327 C 38.3635 1.86258 -0.128343 0
M  V30 328 C 38.7145 1.46699 1.30284 0
M  V30 329 O 37.8395 0.871698 1.98067 0
M  V30 330 C 38.4345 3.38044 -0.22614 0
M  V30 331 C 36.9935 3.76096 0.151283 0
M  V30 332 C 36.1405 2.71335 -0.572084 0
M  V30 333 H 39.0915 1.38752 -0.770297 0
M  V30 334 H 39.1125 3.76441 0.554322 0
M  V30 335 H 38.6245 3.66806 -1.26788 0
M  V30 336 H 36.7255 3.52951 1.19399 0
M  V30 337 H 36.8385 4.78641 -0.209765 0
M  V30 338 H 35.2025 2.54696 -0.0147653 0
M  V30 339 H 35.9855 3.02938 -1.61504 0
M  V30 340 N 38.4306 0.297415 1.54768 0
M  V30 341 C 39.8466 -0.0560823 1.59501 0
M  V30 342 C 40.0466 -1.52725 1.31444 0
M  V30 343 O 39.1026 -2.27947 1.08611 0
M  V30 344 C 40.4156 0.338631 2.98787 0
M  V30 345 C 41.9636 0.287097 3.11681 0
M  V30 346 C 42.4386 0.656579 4.53269 0
M  V30 347 N 43.9296 0.608977 4.59179 0
M  V30 348 C 44.6646 0.867385 5.66802 0
M  V30 349 N 44.1606 1.19157 6.82476 0
M  V30 350 N 45.9536 0.794687 5.56454 0
M  V30 351 H 38.1046 1.25624 1.71267 0
M  V30 352 H 40.3676 0.509057 0.799728 0
M  V30 353 H 40.0736 1.36263 3.2423 0
M  V30 354 H 39.9476 -0.309508 3.75928 0
M  V30 355 H 42.3346 -0.727649 2.85988 0
M  V30 356 H 42.4156 0.969809 2.36703 0
M  V30 357 H 42.0596 1.66912 4.7969 0
M  V30 358 H 41.9896 -0.0481649 5.26578 0
M  V30 359 H 44.4806 0.369198 3.76092 0
M  V30 360 H 44.7936 1.37482 7.60473 0
M  V30 361 H 43.1386 1.22958 6.84037 0
M  V30 362 H 46.3296 0.541098 4.64962 0
M  V30 363 H 46.5026 0.999445 6.40246 0
M  V30 364 N 39.9087 -1.5758 0.0250728 0
M  V30 365 C 41.1567 -1.91255 -0.653151 0
M  V30 366 C 41.4777 -0.901691 -1.729 0
M  V30 367 O 40.7477 0.0573785 -1.95816 0
M  V30 368 H 39.3277 -0.705942 -0.244243 0
M  V30 369 H 41.9897 -1.94767 0.0719209 0
M  V30 370 H 41.0857 -2.91752 -1.10847 0
M  V30 371 N 41.3868 0.248026 -1.55636 0
M  V30 372 C 42.6328 0.97767 -1.77678 0
M  V30 373 C 42.9658 1.85016 -0.590135 0
M  V30 374 O 42.2408 1.90095 0.411611 0
M  V30 375 C 42.5238 1.83914 -3.09593 0
M  V30 376 C 42.3768 0.99491 -4.38659 0
M  V30 377 C 43.6958 2.82183 -3.37729 0
M  V30 378 H 40.8148 0.354005 -0.646413 0
M  V30 379 H 43.4568 0.248253 -1.88371 0
M  V30 380 H 41.6068 2.46104 -3.00608 0
M  V30 381 H 43.2788 0.391789 -4.59633 0
M  V30 382 H 41.5218 0.299231 -4.32767 0
M  V30 383 H 42.1928 1.63145 -5.2734 0
M  V30 384 H 44.6688 2.30129 -3.4667 0
M  V30 385 H 43.5448 3.39582 -4.31249 0
M  V30 386 H 43.8058 3.58588 -2.58586 0
M  V30 387 N 42.8649 1.48995 0.513639 0
M  V30 388 C 43.7969 1.60836 1.63293 0
M  V30 389 C 44.8099 0.491701 1.55197 0
M  V30 390 O 45.9989 0.763238 1.6136 0
M  V30 391 C 43.0989 1.53731 3.02027 0
M  V30 392 C 42.2719 2.80715 3.35437 0
M  V30 393 C 41.3309 2.66837 4.53525 0
M  V30 394 O 40.3569 3.40753 4.55934 0
M  V30 395 N 41.5589 1.77539 5.52684 0
M  V30 396 H 44.3239 2.57366 1.53566 0
M  V30 397 H 41.8849 1.45925 0.701259 0
M  V30 398 H 43.8769 1.42118 3.78926 0
M  V30 399 H 42.4469 0.651092 3.05744 0
M  V30 400 H 41.6669 3.06772 2.47557 0
M  V30 401 H 42.9549 3.64927 3.54551 0
M  V30 402 H 42.3529 1.16719 5.53528 0
M  V30 403 H 40.9099 1.71856 6.28736 0
M  V30 404 N 44.343 -0.763751 1.37857 0
M  V30 405 C 45.306 -1.85889 1.34081 0
M  V30 406 C 46.306 -1.58949 0.243277 0
M  V30 407 O 47.496 -1.66882 0.499589 0
M  V30 408 C 44.628 -3.23176 1.08489 0
M  V30 409 H 45.821 -1.90648 2.31502 0
M  V30 410 H 43.374 -0.964367 1.23003 0
M  V30 411 H 44.109 -3.24091 0.116318 0
M  V30 412 H 43.894 -3.44124 1.8794 0
M  V30 413 H 45.384 -4.03254 1.08517 0
M  V30 414 N 45.8211 -1.22559 -0.990812 0
M  V30 415 C 46.7511 -1.0218 -2.09956 0
M  V30 416 C 47.7321 0.0579394 -1.70001 0
M  V30 417 O 48.9171 -0.104684 -1.93918 0
M  V30 418 C 46.0471 -0.601023 -3.4206 0
M  V30 419 C 45.0011 -1.62694 -3.95872 0
M  V30 420 C 44.3271 -1.06193 -5.24049 0
M  V30 421 C 45.6271 -3.01743 -4.2632 0
M  V30 422 H 47.3211 -1.94916 -2.27262 0
M  V30 423 H 44.8671 -0.938566 -1.09211 0
M  V30 424 H 46.8201 -0.445561 -4.19038 0
M  V30 425 H 45.5441 0.362005 -3.24588 0
M  V30 426 H 44.2031 -1.77021 -3.21028 0
M  V30 427 H 43.8511 -0.0901903 -5.02919 0
M  V30 428 H 43.5511 -1.74732 -5.61019 0
M  V30 429 H 45.0751 -0.918092 -6.03658 0
M  V30 430 H 46.4891 -2.90777 -4.94087 0
M  V30 431 H 44.8861 -3.67425 -4.74467 0
M  V30 432 H 45.9561 -3.51518 -3.34011 0
M  V30 433 N 47.2992 1.18797 -1.03562 0
M  V30 434 C 48.2292 2.24472 -0.643019 0
M  V30 435 C 49.2102 1.66433 0.351283 0
M  V30 436 O 50.3952 1.92803 0.232505 0
M  V30 437 C 47.5252 3.473 4.24935e-05 0
M  V30 438 C 46.4792 4.18055 -0.917257 0
M  V30 439 C 45.8052 5.34519 -0.138941 0
M  V30 440 C 47.1052 4.72109 -2.23407 0
M  V30 441 H 48.7992 2.57566 -1.52643 0
M  V30 442 H 46.3452 1.23806 -0.735394 0
M  V30 443 H 48.2982 4.20426 0.286383 0
M  V30 444 H 47.0222 3.13424 0.918299 0
M  V30 445 H 45.6812 3.46821 -1.1879 0
M  V30 446 H 45.3292 4.96891 0.781562 0
M  V30 447 H 45.0292 5.82794 -0.750005 0
M  V30 448 H 46.5532 6.10438 0.1405 0
M  V30 449 H 47.9672 5.36955 -2.00879 0
M  V30 450 H 46.3642 5.30897 -2.79765 0
M  V30 451 H 47.4342 3.89807 -2.88407 0
M  V30 452 N 48.7773 0.814389 1.34928 0
M  V30 453 C 50.0173 0.404165 2.00364 0
M  V30 454 C 50.3813 -1.01166 1.63185 0
M  V30 455 O 51.5823 -1.52431 2.21401 0
M  V30 456 C 49.8533 0.590718 3.52484 0
M  V30 457 S 51.4123 0.272075 4.37956 0
M  V30 458 H 48.2303 0.15311 0.694319 0
M  V30 459 H 50.8323 1.05834 1.64376 0
M  V30 460 H 49.5363 1.62099 3.77031 0
M  V30 461 H 49.0673 -0.0785013 3.93322 0
M  V30 462 H 51.0823 -0.917405 4.87645 0
M  V30 463 N 50.2554 -1.46986 0.568584 0
M  V30 464 C 51.2184 -2.28624 -0.162366 0
M  V30 465 C 52.2184 -1.37596 -0.832103 0
M  V30 466 O 53.4084 -1.60115 -0.68622 0
M  V30 467 C 50.5404 -3.17596 -1.23878 0
M  V30 468 H 51.7334 -2.94722 0.554899 0
M  V30 469 H 49.2864 -1.52863 0.325976 0
M  V30 470 H 50.0214 -2.56214 -1.98808 0
M  V30 471 H 49.8064 -3.846 -0.763219 0
M  V30 472 H 51.2964 -3.79078 -1.75185 0
M  V30 473 N 51.7335 -0.305618 -1.54608 0
M  V30 474 C 52.9735 0.303114 -2.0214 0
M  V30 475 C 53.3375 1.50737 -1.18921 0
M  V30 476 O 54.5385 2.18778 -1.56172 0
M  V30 477 C 52.8095 0.646332 -3.51507 0
M  V30 478 S 54.3685 1.23727 -4.20995 0
M  V30 479 H 51.1865 0.0927643 -0.704923 0
M  V30 480 H 53.7885 -0.434566 -1.90609 0
M  V30 481 H 52.4925 -0.238541 -4.09706 0
M  V30 482 H 52.0235 1.41468 -3.67084 0
M  V30 483 H 54.0385 2.52489 -4.27158 0
M  V30 484 N 53.2116 1.57565 -0.0334293 0
M  V30 485 C 54.4396 1.9628 0.654347 0
M  V30 486 C 54.8546 0.910138 1.65414 0
M  V30 487 O 54.2116 -0.107595 1.82183 0
M  V30 488 C 54.2626 3.35067 1.35693 0
M  V30 489 O 53.9836 4.36296 0.397191 0
M  V30 490 C 55.4846 3.88439 2.13613 0
M  V30 491 H 52.7046 0.646369 0.180132 0
M  V30 492 H 55.2486 2.04282 -0.0944721 0
M  V30 493 H 53.4036 3.2827 2.05712 0
M  V30 494 H 53.8176 5.1678 0.896597 0
M  V30 495 H 55.2916 4.8788 2.58219 0
M  V30 496 H 55.7686 3.22914 2.97696 0
M  V30 497 H 56.3746 3.98516 1.48543 0
M  V30 498 N 54.6897 -0.239769 1.55765 0
M  V30 499 C 55.9147 -0.988373 1.82335 0
M  V30 500 C 56.3397 -1.77886 0.611421 0
M  V30 501 O 55.6977 -1.75889 -0.439639 0
M  V30 502 C 55.7457 -1.89627 3.06715 0
M  V30 503 O 54.8497 -2.98904 2.84131 0
M  V30 504 H 54.1907 -0.280858 0.601677 0
M  V30 505 H 56.7207 -0.258597 2.02959 0
M  V30 506 H 56.7307 -2.30957 3.36338 0
M  V30 507 H 55.4057 -1.31511 3.9456 0
M  V30 508 H 53.9827 -2.61651 2.65694 0
M  V30 509 N 56.1678 -1.49265 -0.50573 0
M  V30 510 C 57.4078 -1.60128 -1.27038 0
M  V30 511 C 57.7718 -0.279557 -1.89954 0
M  V30 512 O 58.9728 -0.263329 -2.67507 0
M  V30 513 C 57.2438 -2.72507 -2.31246 0
M  V30 514 S 58.8028 -3.0329 -3.17113 0
M  V30 515 H 55.6208 -0.564863 -0.4318 0
M  V30 516 H 58.2228 -1.86902 -0.573397 0
M  V30 517 H 56.9268 -3.67068 -1.83546 0
M  V30 518 H 56.4578 -2.4771 -3.05619 0
M  V30 519 H 58.4728 -2.44448 -4.31809 0
M  V30 520 N 57.6459 0.756429 -1.3826 0
M  V30 521 C 58.5759 1.88374 -1.37976 0
M  V30 522 C 59.5569 1.68311 -0.246082 0
M  V30 523 O 60.7419 1.88944 -0.44874 0
M  V30 524 C 57.8719 3.25864 -1.20125 0
M  V30 525 C 56.8259 3.60523 -2.30666 0
M  V30 526 C 56.1519 4.9672 -1.97923 0
M  V30 527 C 57.4519 3.65692 -3.72916 0
M  V30 528 H 59.1459 1.88869 -2.32312 0
M  V30 529 H 56.6919 0.907272 -1.11824 0
M  V30 530 H 58.6449 4.0438 -1.18552 0
M  V30 531 H 57.3689 3.25841 -0.222498 0
M  V30 532 H 56.0279 2.84324 -2.3142 0
M  V30 533 H 55.6759 4.93253 -0.985393 0
M  V30 534 H 55.3759 5.20878 -2.71955 0
M  V30 535 H 56.8999 5.77618 -1.97964 0
M  V30 536 H 58.3139 4.34328 -3.74208 0
M  V30 537 H 56.7109 4.01358 -4.4613 0
M  V30 538 H 57.7809 2.65987 -4.05436 0
M  V30 539 N 59.124 1.23083 0.984299 0
M  V30 540 C 60.056 0.96636 2.07832 0
M  V30 541 C 61.069 -0.0582135 1.62696 0
M  V30 542 O 62.258 0.176843 1.77622 0
M  V30 543 C 59.358 0.433397 3.36117 0
M  V30 544 C 58.531 1.51722 4.10243 0
M  V30 545 C 57.59 0.989821 5.16807 0
M  V30 546 O 56.616 1.67794 5.43906 0
M  V30 547 N 57.818 -0.184367 5.80207 0
M  V30 548 H 60.583 1.90824 2.31098 0
M  V30 549 H 58.144 1.13888 1.1507 0
M  V30 550 H 60.136 0.065699 4.04647 0
M  V30 551 H 58.706 -0.413806 3.09849 0
M  V30 552 H 57.926 2.05786 3.36223 0
M  V30 553 H 59.214 2.24619 4.56534 0
M  V30 554 H 58.612 -0.760062 5.60571 0
M  V30 555 H 57.169 -0.493366 6.4993 0
M  V30 556 N 60.6021 -1.18246 1.0419 0
M  V30 557 C 61.5651 -2.20128 0.638452 0
M  V30 558 C 62.5651 -1.57885 -0.304805 0
M  V30 559 O 63.7551 -1.73967 -0.0900369 0
M  V30 560 C 60.8871 -3.4084 -0.0637751 0
M  V30 561 H 62.0801 -2.57336 1.54007 0
M  V30 562 H 59.6331 -1.32152 0.834598 0
M  V30 563 H 60.3681 -3.09166 -0.979136 0
M  V30 564 H 60.1531 -3.8726 0.614198 0
M  V30 565 H 61.6431 -4.16274 -0.332512 0
M  V30 566 N 62.0802 -0.821533 -1.34494 0
M  V30 567 C 63.0282 -0.230702 -2.31453 0
M  V30 568 C 64.0222 0.627793 -1.57338 0
M  V30 569 O 65.2282 0.519288 -1.72347 0
M  V30 570 H 61.6032 -0.0558577 -0.749923 0
M  V30 571 H 63.5742 -1.06332 -2.78812 0
M  V30 572 C 62.3232 0.59391 -3.4259 0
M  V30 573 H 61.6462 -0.0573588 -3.99759 0
M  V30 574 H 63.0862 0.973446 -4.12674 0
M  V30 575 C 61.5452 1.76568 -2.86924 0
M  V30 576 O 62.0752 2.8638 -2.81691 0
M  V30 577 N 60.2812 1.58198 -2.43766 0
M  V30 578 H 59.8282 0.68872 -2.48222 0
M  V30 579 H 59.7862 2.36752 -2.06871 0
M  V30 580 N 63.5583 1.46682 -0.576371 0
M  V30 581 C 64.7883 2.06498 -0.0648694 0
M  V30 582 C 65.1963 1.42665 1.24271 0
M  V30 583 O 64.5393 0.523886 1.76071 0
M  V30 584 C 64.6013 3.5904 0.181816 0
M  V30 585 C 64.2653 4.45028 -1.0392 0
M  V30 586 C 65.2623 4.81959 -1.94966 0
M  V30 587 C 62.9473 4.86259 -1.25927 0
M  V30 588 C 64.9413 5.58942 -3.06371 0
M  V30 589 C 62.6283 5.63002 -2.37638 0
M  V30 590 C 63.6263 5.99257 -3.2769 0
M  V30 591 O 63.3143 6.7445 -4.37461 0
M  V30 592 H 63.0463 0.674028 -0.0515987 0
M  V30 593 H 65.6003 1.89393 -0.794951 0
M  V30 594 H 63.8303 3.74429 0.966436 0
M  V30 595 H 65.5193 4.00806 0.641047 0
M  V30 596 H 66.2853 4.50689 -1.79177 0
M  V30 597 H 62.1643 4.57494 -0.567448 0
M  V30 598 H 65.7083 5.87158 -3.76684 0
M  V30 599 H 61.6053 5.93686 -2.53392 0
M  V30 600 H 62.3733 6.92867 -4.35749 0
M  V30 601 N 65.0364 0.313813 1.54444 0
M  V30 602 C 66.2644 -0.293918 2.04802 0
M  V30 603 C 66.6794 -1.46537 1.19047 0
M  V30 604 O 66.0364 -1.81182 0.218939 0
M  V30 605 C 66.0874 -0.737806 3.53891 0
M  V30 606 O 65.8084 0.387038 4.36387 0
M  V30 607 C 67.3094 -1.40936 4.203 0
M  V30 608 H 64.5294 -0.0620057 0.668129 0
M  V30 609 H 67.0734 0.457169 1.99324 0
M  V30 610 H 65.2284 -1.43889 3.59687 0
M  V30 611 H 65.6424 0.0391274 5.24485 0
M  V30 612 H 67.1164 -1.67099 5.26101 0
M  V30 613 H 67.5934 -2.35355 3.70816 0
M  V30 614 H 68.1994 -0.751117 4.18615 0
M  V30 615 N 66.5145 -1.57545 0.0417849 0
M  V30 616 C 67.7545 -1.94185 -0.63809 0
M  V30 617 C 68.1185 -0.919339 -1.68559 0
M  V30 618 O 69.3195 -1.17236 -2.41886 0
M  V30 619 C 67.5905 -3.35672 -1.22714 0
M  V30 620 S 69.1495 -3.94256 -1.92633 0
M  V30 621 H 65.9675 -0.679353 -0.209764 0
M  V30 622 H 68.5695 -1.95199 0.108479 0
M  V30 623 H 67.2735 -4.07898 -0.452503 0
M  V30 624 H 66.8045 -3.38132 -2.01073 0
M  V30 625 H 68.8195 -3.7872 -3.20602 0
M  V30 626 N 67.9926 0.231505 -1.5589 0
M  V30 627 C 68.9026 1.308 -1.94752 0
M  V30 628 C 69.9186 1.51826 -0.849989 0
M  V30 629 O 71.0946 1.6515 -1.15271 0
M  V30 630 C 68.1596 2.63968 -2.24771 0
M  V30 631 C 67.2206 2.51331 -3.48039 0
M  V30 632 C 66.4536 3.78148 -3.76616 0
M  V30 633 O 66.6766 4.80722 -3.07022 0
M  V30 634 O 65.6106 3.75857 -4.70123 0
M  V30 635 H 69.4366 1.0083 -2.86474 0
M  V30 636 H 67.0216 0.433547 -1.42971 0
M  V30 637 H 68.9036 3.42633 -2.45318 0
M  V30 638 H 67.5786 2.9364 -1.36225 0
M  V30 639 H 66.4856 1.709 -3.32782 0
M  V30 640 H 67.8186 2.26601 -4.36936 0
M  V30 641 N 69.4707 1.49531 0.497807 0
M  V30 642 C 70.6987 1.62893 1.27567 0
M  V30 643 C 71.1137 0.301585 1.86376 0
M  V30 644 O 70.4707 -0.713335 1.67982 0
M  V30 645 C 70.5217 2.70013 2.40364 0
M  V30 646 O 70.2427 3.976 1.83972 0
M  V30 647 C 71.7437 2.94109 3.31685 0
M  V30 648 H 68.9637 0.548298 0.386794 0
M  V30 649 H 71.5077 1.95584 0.597245 0
M  V30 650 H 69.6627 2.40092 3.04031 0
M  V30 651 H 70.0767 4.56631 2.58047 0
M  V30 652 H 71.5507 3.72788 4.07104 0
M  V30 653 H 72.0277 2.04147 3.88871 0
M  V30 654 H 72.6337 3.2546 2.73781 0
M  V30 655 N 70.9488 -0.749086 1.3866 0
M  V30 656 C 72.2258 -1.4992 1.25632 0
M  V30 657 C 72.6058 -2.10633 -0.140317 0
M  V30 658 O 71.9538 -1.97437 -1.15025 0
M  V30 659 C 72.1638 -2.56195 2.36992 0
M  V30 660 C 73.5118 -3.22972 2.75634 0
M  V30 661 O 74.5358 -2.66502 2.36337 0
M  V30 662 O 73.3948 -4.25122 3.43415 0
M  V30 663 H 70.4888 -0.665067 0.491544 0
M  V30 664 H 73.0348 -0.784113 1.50498 0
M  V30 665 H 71.8068 -2.09612 3.30422 0
M  V30 666 H 71.4298 -3.35279 2.13714 0
M  V30 667 N 72.4269 -1.23603 -0.977757 0
M  V30 668 C 73.6749 -1.06759 -1.71601 0
M  V30 669 C 73.9959 0.395929 -1.90938 0
M  V30 670 O 73.2659 1.28356 -1.47992 0
M  V30 671 H 71.8459 -0.392062 -0.635843 0
M  V30 672 H 74.5079 -1.55362 -1.1768 0
M  V30 673 H 73.6039 -1.55763 -2.70452 0
M  V30 674 N 73.905 1.17692 -1.04816 0
M  V30 675 C 74.868 2.19787 -0.650117 0
M  V30 676 C 75.868 1.58044 0.296427 0
M  V30 677 O 77.058 1.74012 0.0808097 0
M  V30 678 C 74.19 3.40869 0.0456987 0
M  V30 679 H 75.383 2.56516 -1.5537 0
M  V30 680 H 72.936 1.31708 -0.841594 0
M  V30 681 H 73.671 3.09681 0.962726 0
M  V30 682 H 73.456 3.86928 -0.634727 0
M  V30 683 H 74.946 4.16445 0.310432 0
M  V30 684 N 75.3831 0.828654 1.34056 0
M  V30 685 C 76.6231 0.425394 1.99924 0
M  V30 686 C 76.9871 -0.994294 1.64249 0
M  V30 687 O 78.1881 -1.50074 2.23005 0
M  V30 688 C 76.4591 0.628071 3.51838 0
M  V30 689 S 78.0181 0.318511 4.37642 0
M  V30 690 H 74.8361 0.160465 0.692656 0
M  V30 691 H 77.4381 1.07572 1.63244 0
M  V30 692 H 76.1421 1.66089 3.7529 0
M  V30 693 H 75.6731 -0.0367799 3.93383 0
M  V30 694 H 77.6881 -0.865632 4.88591 0
M  V30 695 N 76.8612 -1.46375 0.584142 0
M  V30 696 C 77.7942 -2.27351 -0.196676 0
M  V30 697 C 78.7722 -1.35715 -0.895561 0
M  V30 698 O 79.9562 -1.65126 -0.90916 0
M  V30 699 C 77.0832 -3.13486 -1.28235 0
M  V30 700 C 76.1292 -4.20896 -0.689145 0
M  V30 701 S 76.9622 -5.33299 0.48507 0
M  V30 702 C 78.1182 -6.23 -0.601767 0
M  V30 703 H 78.3512 -2.93228 0.490395 0
M  V30 704 H 75.8842 -1.49875 0.371071 0
M  V30 705 H 77.8422 -3.63676 -1.90395 0
M  V30 706 H 76.5032 -2.4692 -1.94138 0
M  V30 707 H 75.6962 -4.80997 -1.50527 0
M  V30 708 H 75.2982 -3.73726 -0.143181 0
M  V30 709 H 77.5902 -6.60979 -1.48705 0
M  V30 710 H 78.5332 -7.0809 -0.0374799 0
M  V30 711 H 78.9412 -5.57173 -0.906557 0
M  V30 712 N 78.3393 -0.321999 -1.54275 0
M  V30 713 C 79.5853 0.281461 -2.00837 0
M  V30 714 C 79.9183 1.51909 -1.20985 0
M  V30 715 O 79.1933 1.923 -0.291733 0
M  V30 716 C 79.4763 0.617162 -3.54772 0
M  V30 717 C 79.3293 -0.631064 -4.45351 0
M  V30 718 C 80.6483 1.43542 -4.16033 0
M  V30 719 H 77.7673 0.100826 -0.730071 0
M  V30 720 H 80.4093 -0.438268 -1.84876 0
M  V30 721 H 78.5593 1.23034 -3.68504 0
M  V30 722 H 80.2313 -1.26934 -4.43492 0
M  V30 723 H 78.4743 -1.26025 -4.15091 0
M  V30 724 H 79.1453 -0.351735 -5.50878 0
M  V30 725 H 81.6213 0.917134 -4.05867 0
M  V30 726 H 80.4973 1.63907 -5.23856 0
M  V30 727 H 80.7583 2.43108 -3.69257 0
M  V30 728 N 79.8174 1.5752 -0.0501392 0
M  V30 729 C 81.0424 1.97376 0.636997 0
M  V30 730 C 81.4674 0.927466 1.63645 0
M  V30 731 O 80.8254 -0.10941 1.8097 0
M  V30 732 C 80.8734 3.36304 1.30123 0
M  V30 733 O 79.9774 3.34156 2.41689 0
M  V30 734 H 79.3184 0.642998 0.165679 0
M  V30 735 H 81.8484 2.04258 -0.118233 0
M  V30 736 H 81.8584 3.73008 1.65315 0
M  V30 737 H 80.5334 4.11993 0.568746 0
M  V30 738 H 79.1104 3.09196 2.08451 0
M  V30 739 N 81.2955 -0.223234 1.56011 0
M  V30 740 C 82.5445 -0.945912 1.78144 0
M  V30 741 C 82.8575 -1.85567 0.618396 0
M  V30 742 O 84.0635 -2.61688 0.723318 0
M  V30 743 C 82.5195 -1.73216 3.15475 0
M  V30 744 C 82.1275 -0.868619 4.39499 0
M  V30 745 C 83.8715 -2.44615 3.46935 0
M  V30 746 C 81.7785 -1.65212 5.67855 0
M  V30 747 H 80.7085 -0.356929 0.664167 0
M  V30 748 H 83.3595 -0.199845 1.82409 0
M  V30 749 H 81.7415 -2.52107 3.05382 0
M  V30 750 H 82.9155 -0.120366 4.60643 0
M  V30 751 H 81.2305 -0.26683 4.15544 0
M  V30 752 H 83.8275 -3.03732 4.40058 0
M  V30 753 H 84.1705 -3.17417 2.69355 0
M  V30 754 H 84.7035 -1.72715 3.58349 0
M  V30 755 H 81.4425 -0.967407 6.48322 0
M  V30 756 H 80.9625 -2.37503 5.50774 0
M  V30 757 H 82.6415 -2.21322 6.07968 0
M  V30 758 N 82.7736 -1.49793 -0.48987 0
M  V30 759 C 84.0206 -1.59841 -1.24327 0
M  V30 760 C 84.3486 -0.290135 -1.92324 0
M  V30 761 O 83.6036 0.722749 -1.81865 0
M  V30 762 C 83.9026 -2.71488 -2.32441 0
M  V30 763 C 83.5686 -4.12614 -1.81826 0
M  V30 764 C 82.2306 -4.51017 -1.67742 0
M  V30 765 C 84.5826 -5.00892 -1.4407 0
M  V30 766 C 81.9106 -5.75459 -1.14297 0
M  V30 767 C 84.2626 -6.25863 -0.920742 0
M  V30 768 C 82.9266 -6.63086 -0.766383 0
M  V30 769 H 82.1966 -0.584899 -0.454944 0
M  V30 770 H 84.8436 -1.83663 -0.542215 0
M  V30 771 H 83.1486 -2.4168 -3.0838 0
M  V30 772 H 84.8456 -2.76469 -2.90458 0
M  V30 773 H 81.4356 -3.82307 -1.93751 0
M  V30 774 H 85.6196 -4.7187 -1.53794 0
M  V30 775 H 80.8756 -6.02989 -1.01068 0
M  V30 776 H 85.0496 -6.9364 -0.619448 0
M  V30 777 H 82.6766 -7.59393 -0.350083 0
M  V30 778 N 84.2517 0.741722 -1.39055 0
M  V30 779 C 85.1997 1.87702 -1.3737 0
M  V30 780 C 86.1937 1.67427 -0.257812 0
M  V30 781 O 87.3997 1.7485 -0.427489 0
M  V30 782 H 83.7747 0.617757 -0.428812 0
M  V30 783 H 85.7457 1.86239 -2.33147 0
M  V30 784 C 84.4947 3.25315 -1.22741 0
M  V30 785 H 83.8177 3.41509 -2.07873 0
M  V30 786 H 85.2577 4.04964 -1.25618 0
M  V30 787 C 83.7167 3.36838 0.0647316 0
M  V30 788 O 84.2467 3.88073 1.03741 0
M  V30 789 N 82.4527 2.90329 0.125544 0
M  V30 790 H 81.9997 2.48823 -0.666682 0
M  V30 791 H 81.9577 2.98418 0.989639 0
M  V30 792 N 85.7298 1.2412 0.971189 0
M  V30 793 C 86.6598 1.05508 2.08304 0
M  V30 794 C 87.6408 -0.0308864 1.70072 0
M  V30 795 O 88.8258 0.135521 1.93727 0
M  V30 796 C 85.9558 0.655365 3.4106 0
M  V30 797 C 84.9098 1.68971 3.93234 0
M  V30 798 C 84.2358 1.14516 5.22293 0
M  V30 799 C 85.5358 3.08487 4.21465 0
M  V30 800 H 87.2298 1.98507 2.24132 0
M  V30 801 H 84.7758 0.955821 1.07704 0
M  V30 802 H 86.7288 0.51217 4.18276 0
M  V30 803 H 85.4528 -0.31032 3.25122 0
M  V30 804 H 84.1118 1.82106 3.18171 0
M  V30 805 H 83.7598 0.170189 5.02712 0
M  V30 806 H 83.4598 1.83635 5.58168 0
M  V30 807 H 84.9838 1.01401 6.02121 0
M  V30 808 H 86.3978 2.98601 4.89398 0
M  V30 809 H 84.7948 3.74926 4.68562 0
M  V30 810 H 85.8648 3.56787 3.28376 0
M  V30 811 N 87.2079 -1.17134 1.05439 0
M  V30 812 C 88.4849 -1.83411 0.679699 0
M  V30 813 C 88.8649 -1.9368 -0.839726 0
M  V30 814 O 88.2129 -1.47325 -1.74664 0
M  V30 815 C 88.4229 -3.20918 1.37159 0
M  V30 816 C 89.7709 -3.96796 1.51123 0
M  V30 817 O 90.7949 -3.30406 1.3308 0
M  V30 818 O 89.6539 -5.15778 1.80651 0
M  V30 819 H 86.7479 -0.79154 0.239569 0
M  V30 820 H 89.2939 -1.24411 1.15413 0
M  V30 821 H 88.0659 -3.08428 2.40807 0
M  V30 822 H 87.6889 -3.87587 0.886674 0
M  V30 823 N 88.686 -0.835752 -1.33615 0
M  V30 824 C 89.934 -0.429109 -1.97492 0
M  V30 825 C 90.255 1.01433 -1.66543 0
M  V30 826 O 89.525 1.70611 -0.962744 0
M  V30 827 H 88.105 -0.155686 -0.730596 0
M  V30 828 H 90.767 -1.06802 -1.63031 0
M  V30 829 H 89.863 -0.55861 -3.0706 0
M  V30 830 N 90.1641 1.46063 -0.591896 0
M  V30 831 C 91.0971 2.27452 0.184617 0
M  V30 832 C 92.0751 1.36188 0.888351 0
M  V30 833 O 93.2591 1.65606 0.90039 0
M  V30 834 C 90.3861 3.14162 1.26571 0
M  V30 835 C 89.4321 4.21255 0.666814 0
M  V30 836 S 90.2651 5.33034 -0.513345 0
M  V30 837 C 91.4211 6.23311 0.56872 0
M  V30 838 H 91.6541 2.92963 -0.505939 0
M  V30 839 H 89.1871 1.49676 -0.379014 0
M  V30 840 H 91.1451 3.6468 1.88463 0
M  V30 841 H 89.8061 2.47946 1.92826 0
M  V30 842 H 88.9991 4.81788 1.47974 0
M  V30 843 H 88.6011 3.73797 0.123359 0
M  V30 844 H 90.8931 6.61758 1.45198 0
M  V30 845 H 91.8361 7.081 -7.23824e-05 0
M  V30 846 H 92.2441 5.57646 0.876996 0
M  V30 847 N 91.6422 0.330177 1.54103 0
M  V30 848 C 92.5522 -0.541534 2.28264 0
M  V30 849 C 93.5682 -1.12351 1.32866 0
M  V30 850 O 94.7442 -1.14206 1.65888 0
M  V30 851 C 91.8092 -1.68322 3.03098 0
M  V30 852 C 90.8702 -1.13238 4.14096 0
M  V30 853 C 90.1032 -2.21966 4.85352 0
M  V30 854 O 90.3262 -3.42437 4.56172 0
M  V30 855 O 89.2602 -1.87013 5.7211 0
M  V30 856 H 93.0862 0.060938 3.03639 0
M  V30 857 H 90.6712 0.09565 1.49093 0
M  V30 858 H 92.5532 -2.34777 3.49939 0
M  V30 859 H 91.2282 -2.27176 2.30593 0
M  V30 860 H 90.1352 -0.432736 3.71589 0
M  V30 861 H 91.4682 -0.588898 4.88664 0
M  V30 862 N 93.1203 -1.57491 0.0584922 0
M  V30 863 C 94.0703 -2.08474 -0.923188 0
M  V30 864 C 95.0543 -0.991479 -1.26722 0
M  V30 865 O 96.2463 -1.25473 -1.24842 0
M  V30 866 C 93.3753 -2.6392 -2.19548 0
M  V30 867 C 92.4613 -3.80227 -1.87852 0
M  V30 868 N 92.8523 -4.89714 -1.26546 0
M  V30 869 C 91.1503 -3.89271 -2.17679 0
M  V30 870 C 91.8513 -5.70689 -1.12644 0
M  V30 871 N 90.8273 -5.18531 -1.63176 0
M  V30 872 H 94.6293 -2.90517 -0.444653 0
M  V30 873 H 92.1433 -1.61745 -0.145764 0
M  V30 874 H 94.1403 -2.98752 -2.9078 0
M  V30 875 H 92.8003 -1.83318 -2.68001 0
M  V30 876 H 93.8113 -5.09358 -0.936757 0
M  V30 877 H 90.4883 -3.19623 -2.68602 0
M  V30 878 H 91.8783 -6.6875 -0.6499 0
M  V30 879 N 94.5984 0.214957 -1.56127 0
M  V30 880 C 95.5484 1.27006 -1.8935 0
M  V30 881 C 96.5324 1.41969 -0.757202 0
M  V30 882 O 97.7244 1.44673 -1.01973 0
M  V30 883 C 94.8534 2.61911 -2.2194 0
M  V30 884 C 93.9394 2.50822 -3.41978 0
M  V30 885 N 94.3304 2.09391 -4.60423 0
M  V30 886 C 92.6284 2.81765 -3.45723 0
M  V30 887 C 93.3294 2.09712 -5.42582 0
M  V30 888 N 92.3054 2.50454 -4.82466 0
M  V30 889 H 96.1074 0.940734 -2.78437 0
M  V30 890 H 93.6214 0.423492 -1.56781 0
M  V30 891 H 95.6184 3.38096 -2.43919 0
M  V30 892 H 94.2784 2.95684 -1.34169 0
M  V30 893 H 95.2894 1.80416 -4.85459 0
M  V30 894 H 91.9664 3.19865 -2.68314 0
M  V30 895 H 93.3564 1.79748 -6.4741 0
M  V30 896 N 96.0765 1.50051 0.48192 0
M  V30 897 C 97.3225 1.60736 1.2366 0
M  V30 898 C 97.6555 0.301786 1.91841 0
M  V30 899 O 96.9305 -0.696025 1.8162 0
M  V30 900 C 97.2135 2.78009 2.28874 0
M  V30 901 C 97.0665 4.18416 1.65069 0
M  V30 902 C 98.3855 2.90867 3.30279 0
M  V30 903 H 95.5045 0.585031 0.448228 0
M  V30 904 H 98.1465 1.82402 0.531946 0
M  V30 905 H 96.2965 2.59667 2.88973 0
M  V30 906 H 97.9685 4.48322 1.0865 0
M  V30 907 H 96.2115 4.23177 0.954148 0
M  V30 908 H 96.8825 4.96381 2.41474 0
M  V30 909 H 99.3585 3.07623 2.80191 0
M  V30 910 H 98.2345 3.74566 4.01238 0
M  V30 911 H 98.4955 2.01021 3.93755 0
M  V30 912 N 97.5546 -0.734337 1.39446 0
M  V30 913 C 98.9706 -1.03997 1.21065 0
M  V30 914 C 99.1706 -2.01369 0.0727019 0
M  V30 915 O 98.2266 -2.45856 -0.575426 0
M  V30 916 C 99.5396 -1.60163 2.54496 0
M  V30 917 C 101.088 -1.7224 2.61347 0
M  V30 918 C 101.563 -2.31814 3.95002 0
M  V30 919 N 103.054 -2.39223 3.96644 0
M  V30 920 C 103.789 -2.86258 4.96834 0
M  V30 921 N 103.285 -3.33184 6.07421 0
M  V30 922 N 105.078 -2.85473 4.84213 0
M  V30 923 H 97.2286 -0.0885624 2.12215 0
M  V30 924 H 99.4916 -0.10191 0.942506 0
M  V30 925 H 99.1976 -0.960811 3.38321 0
M  V30 926 H 99.0716 -2.5896 2.74262 0
M  V30 927 H 101.459 -2.35443 1.77906 0
M  V30 928 H 101.54 -0.720939 2.4543 0
M  V30 929 H 101.184 -1.69238 4.78875 0
M  V30 930 H 101.114 -3.32638 4.08239 0
M  V30 931 H 103.605 -2.06057 3.16779 0
M  V30 932 H 103.918 -3.67586 6.7978 0
M  V30 933 H 102.263 -3.31191 6.11013 0
M  V30 934 H 105.454 -2.48136 3.96921 0
M  V30 935 H 105.627 -3.21814 5.62441 0
M  V30 936 N 99.0327 -1.24633 -0.964593 0
M  V30 937 C 100.261 -1.11501 -1.74285 0
M  V30 938 C 100.676 0.332165 -1.85855 0
M  V30 939 O 100.033 1.22903 -1.34911 0
M  V30 940 C 100.084 -1.75258 -3.16175 0
M  V30 941 O 99.8047 -3.14318 -3.05182 0
M  V30 942 C 101.306 -1.67776 -4.10324 0
M  V30 943 H 98.5257 -0.389407 -0.546446 0
M  V30 944 H 101.07 -1.64801 -1.21083 0
M  V30 945 H 99.2247 -1.25954 -3.66353 0
M  V30 946 H 99.6387 -3.4551 -3.94618 0
M  V30 947 H 101.113 -2.17064 -5.0753 0
M  V30 948 H 101.59 -0.639584 -4.34518 0
M  V30 949 H 102.196 -2.16522 -3.66058 0
M  V30 950 N 100.511 1.16574 -1.06058 0
M  V30 951 C 101.751 1.88723 -0.78504 0
M  V30 952 C 102.115 1.79706 0.676006 0
M  V30 953 O 103.316 2.46757 1.06603 0
M  V30 954 C 101.587 3.34338 -1.26304 0
M  V30 955 S 103.146 4.24366 -1.1162 0
M  V30 956 H 99.9638 0.651448 -0.284846 0
M  V30 957 H 102.566 1.40732 -1.35701 0
M  V30 958 H 101.27 3.38439 -2.32136 0
M  V30 959 H 100.801 3.87378 -0.685719 0
M  V30 960 H 102.816 4.96179 -0.0456539 0
M  V30 961 N 101.989 0.842826 1.3317 0
M  V30 962 C 103.238 0.436738 1.96915 0
M  V30 963 C 103.551 -1.01025 1.67491 0
M  V30 964 O 104.757 -1.5212 2.24881 0
M  V30 965 C 103.213 0.730021 3.52418 0
M  V30 966 C 102.821 2.19195 3.90714 0
M  V30 967 C 104.565 0.391076 4.22695 0
M  V30 968 C 102.472 2.42907 5.39212 0
M  V30 969 H 101.402 0.15958 0.736919 0
M  V30 970 H 104.053 1.03196 1.51733 0
M  V30 971 H 102.435 0.0643755 3.95948 0
M  V30 972 H 103.609 2.8984 3.58231 0
M  V30 973 H 101.924 2.49425 3.33431 0
M  V30 974 H 104.521 0.545817 5.31907 0
M  V30 975 H 104.864 -0.666294 4.10933 0
M  V30 976 H 105.397 1.01212 3.84709 0
M  V30 977 H 102.136 3.47224 5.55982 0
M  V30 978 H 101.656 1.76827 5.73142 0
M  V30 979 H 103.335 2.2626 6.06148 0
M  V30 980 N 103.467 -1.45747 0.599634 0
M  V30 981 C 104.878 -1.85853 0.177681 0
M  V30 982 C 105.229 -1.50102 -1.26348 0
M  V30 983 O 104.354 -0.923905 -1.95686 0
M  V30 984 C 104.949 -3.37326 0.315688 0
M  V30 985 C 103.508 -3.76365 -0.0515144 0
M  V30 986 C 102.655 -2.69722 0.643822 0
M  V30 987 H 105.606 -1.36661 0.806814 0
M  V30 988 H 105.627 -3.77778 -0.454321 0
M  V30 989 H 105.139 -3.63315 1.36468 0
M  V30 990 H 103.24 -3.55993 -1.09999 0
M  V30 991 H 103.353 -4.77916 0.336594 0
M  V30 992 H 101.717 -2.54567 0.0822881 0
M  V30 993 H 102.5 -2.98549 1.6948 0
M  V30 994 N 104.945 -0.338344 -1.53925 0
M  V30 995 C 105.892 0.520845 -2.24846 0
M  V30 996 C 106.862 1.09976 -1.24477 0
M  V30 997 O 108.047 1.13735 -1.53196 0
M  V30 998 C 105.187 1.6685 -3.02084 0
M  V30 999 C 104.3 1.11739 -4.17299 0
M  V30 1000 C 103.435 2.23193 -4.82036 0
M  V30 1001 C 102.474 1.65407 -5.89328 0
M  V30 1002 N 101.611 2.70582 -6.47866 0
M  V30 1003 H 106.451 -0.0904881 -2.97863 0
M  V30 1004 H 103.988 -0.0564282 -1.46992 0
M  V30 1005 H 105.946 2.34407 -3.45122 0
M  V30 1006 H 104.576 2.2509 -2.31375 0
M  V30 1007 H 103.628 0.332919 -3.7894 0
M  V30 1008 H 104.94 0.654677 -4.94485 0
M  V30 1009 H 104.094 2.98626 -5.28117 0
M  V30 1010 H 102.833 2.72807 -4.04262 0
M  V30 1011 H 101.838 0.884779 -5.42634 0
M  V30 1012 H 103.063 1.16652 -6.69006 0
M  V30 1013 H 101.009 3.1946 -5.72959 0
M  V30 1014 H 100.926 2.28917 -7.20509 0
M  V30 1015 H 102.194 3.45799 -6.98601 0
M  V30 1016 N 106.423 1.57458 -0.0668435 0
M  V30 1017 C 107.669 1.93587 0.6043 0
M  V30 1018 C 108.002 0.946722 1.69561 0
M  V30 1019 O 107.277 -0.0248516 1.94484 0
M  V30 1020 C 107.56 3.40014 1.18585 0
M  V30 1021 C 107.413 4.49685 0.101529 0
M  V30 1022 C 108.732 3.87154 2.09284 0
M  V30 1023 H 105.851 0.703958 0.218202 0
M  V30 1024 H 108.493 1.89542 -0.131804 0
M  V30 1025 H 106.643 3.43592 1.81319 0
M  V30 1026 H 108.315 4.5823 -0.531279 0
M  V30 1027 H 106.558 4.30059 -0.568487 0
M  V30 1028 H 107.229 5.49266 0.54874 0
M  V30 1029 H 109.705 3.85551 1.56491 0
M  V30 1030 H 108.581 4.90231 2.46911 0
M  V30 1031 H 108.842 3.2481 2.99918 0
M  V30 1032 N 107.901 -0.206675 1.56239 0
M  V30 1033 C 108.811 -1.27686 1.96808 0
M  V30 1034 C 109.827 -1.50455 0.874035 0
M  V30 1035 O 111.003 -1.63295 1.17884 0
M  V30 1036 C 108.068 -2.60358 2.28942 0
M  V30 1037 C 107.129 -2.45762 3.51994 0
M  V30 1038 C 106.362 -3.72108 3.82585 0
M  V30 1039 O 106.585 -4.75776 3.14631 0
M  V30 1040 O 105.519 -3.6833 4.76043 0
M  V30 1041 H 109.345 -0.962593 2.88041 0
M  V30 1042 H 106.93 -0.410746 1.43643 0
M  V30 1043 H 108.812 -3.38687 2.50737 0
M  V30 1044 H 107.487 -2.91435 1.4088 0
M  V30 1045 H 106.394 -1.65584 3.35459 0
M  V30 1046 H 107.727 -2.19621 4.40486 0
M  V30 1047 N 109.379 -1.50304 -0.473955 0
M  V30 1048 C 110.309 -1.71886 -1.58042 0
M  V30 1049 C 111.29 -0.567799 -1.60344 0
M  V30 1050 O 112.475 -0.806623 -1.76656 0
M  V30 1051 C 109.605 -1.81036 -2.96384 0
M  V30 1052 C 108.559 -2.962 -3.08949 0
M  V30 1053 C 107.885 -2.9049 -4.48909 0
M  V30 1054 C 109.185 -4.36752 -2.86434 0
M  V30 1055 H 110.879 -2.64527 -1.40234 0
M  V30 1056 H 108.425 -1.27295 -0.673201 0
M  V30 1057 H 110.378 -1.94719 -3.73714 0
M  V30 1058 H 109.102 -0.850147 -3.15341 0
M  V30 1059 H 107.761 -2.82164 -2.3405 0
M  V30 1060 H 107.409 -1.92321 -4.64781 0
M  V30 1061 H 107.109 -3.67802 -4.58253 0
M  V30 1062 H 108.633 -3.06218 -5.28264 0
M  V30 1063 H 110.047 -4.5133 -3.53517 0
M  V30 1064 H 108.444 -5.15493 -3.07225 0
M  V30 1065 H 109.514 -4.49321 -1.82316 0
M  V30 1066 N 110.857 0.726932 -1.39834 0
M  V30 1067 C 112.103 1.48884 -1.377 0
M  V30 1068 C 112.436 1.94185 0.0244852 0
M  V30 1069 O 111.711 1.67361 0.990986 0
M  V30 1070 C 111.994 2.72288 -2.3565 0
M  V30 1071 C 111.847 2.32956 -3.84775 0
M  V30 1072 C 113.166 3.74414 -2.31306 0
M  V30 1073 H 110.285 0.540062 -0.5015 0
M  V30 1074 H 112.927 0.830547 -1.70886 0
M  V30 1075 H 111.077 3.28457 -2.07481 0
M  V30 1076 H 112.749 1.82356 -4.23726 0
M  V30 1077 H 110.992 1.65088 -4.01159 0
M  V30 1078 H 111.663 3.21362 -4.4881 0
M  V30 1079 H 114.139 3.27849 -2.56231 0
M  V30 1080 H 113.015 4.58414 -3.01907 0
M  V30 1081 H 113.276 4.21909 -1.32081 0
M  V30 1082 N 112.336 1.25143 0.95797 0
M  V30 1083 C 113.747 1.08851 1.51685 0
M  V30 1084 C 114.098 -0.33687 1.93286 0
M  V30 1085 O 113.223 -1.22644 1.7829 0
M  V30 1086 C 113.818 1.96978 2.75654 0
M  V30 1087 C 112.377 1.84881 3.27866 0
M  V30 1088 C 111.524 1.91329 2.0072 0
M  V30 1089 H 114.475 1.38478 0.77522 0
M  V30 1090 H 114.496 1.5078 3.4935 0
M  V30 1091 H 114.008 3.00712 2.45345 0
M  V30 1092 H 112.109 0.840182 3.63004 0
M  V30 1093 H 112.222 2.6951 3.96107 0
M  V30 1094 H 110.586 1.35174 2.15871 0
M  V30 1095 H 111.369 2.96661 1.72764 0
M  V30 1096 N 113.814 -1.1601 1.06675 0
M  V30 1097 C 114.777 -2.18724 0.685001 0
M  V30 1098 C 115.777 -1.58496 -0.271246 0
M  V30 1099 O 116.967 -1.74119 -0.0531156 0
M  V30 1100 C 114.099 -3.40899 0.00853648 0
M  V30 1101 H 115.292 -2.54011 1.59431 0
M  V30 1102 H 112.845 -1.30352 0.862441 0
M  V30 1103 H 113.58 -3.11173 -0.913337 0
M  V30 1104 H 113.365 -3.8587 0.696204 0
M  V30 1105 H 114.855 -4.16886 -0.24414 0
M  V30 1106 N 115.292 -0.849877 -1.32721 0
M  V30 1107 C 116.54 -0.450032 -1.97026 0
M  V30 1108 C 116.861 0.996604 -1.67609 0
M  V30 1109 O 116.131 1.6958 -0.980786 0
M  V30 1110 H 114.711 -0.163426 -0.728904 0
M  V30 1111 H 117.373 -1.08526 -1.6189 0
M  V30 1112 H 116.469 -0.591146 -3.0645 0
M  V30 1113 N 116.77 1.45427 -0.607355 0
M  V30 1114 C 117.717 2.3053 0.111625 0
M  V30 1115 C 118.687 1.4209 0.860216 0
M  V30 1116 O 119.872 1.71019 0.845998 0
M  V30 1117 C 117.012 3.26992 1.10319 0
M  V30 1118 C 116.125 4.30535 0.355493 0
M  V30 1119 C 115.26 5.14105 1.33676 0
M  V30 1120 C 114.299 6.09376 0.576862 0
M  V30 1121 N 113.436 6.85727 1.5074 0
M  V30 1122 H 118.276 2.91477 -0.620093 0
M  V30 1123 H 115.813 1.43631 -0.317594 0
M  V30 1124 H 117.771 3.81385 1.6912 0
M  V30 1125 H 116.401 2.67799 1.80232 0
M  V30 1126 H 115.453 3.78805 -0.348023 0
M  V30 1127 H 116.765 4.98235 -0.237423 0
M  V30 1128 H 115.919 5.72897 1.99684 0
M  V30 1129 H 114.658 4.46423 1.9636 0
M  V30 1130 H 113.663 5.49715 -0.0968519 0
M  V30 1131 H 114.888 6.79085 -0.0449341 0
M  V30 1132 H 112.834 6.20735 2.12189 0
M  V30 1133 H 112.751 7.49778 0.967913 0
M  V30 1134 H 114.019 7.4906 2.15706 0
M  V30 1135 N 118.248 0.346503 1.53744 0
M  V30 1136 C 119.659 -0.136779 1.86198 0
M  V30 1137 C 120.01 -1.49749 1.26766 0
M  V30 1138 O 119.135 -2.08417 0.582355 0
M  V30 1139 C 119.73 -0.254966 3.37839 0
M  V30 1140 C 118.289 -0.682482 3.70161 0
M  V30 1141 C 117.436 0.181981 2.76702 0
M  V30 1142 H 120.387 0.565994 1.48264 0
M  V30 1143 H 120.408 -1.08195 3.64793 0
M  V30 1144 H 119.92 0.735526 3.81066 0
M  V30 1145 H 118.021 -1.68189 3.3248 0
M  V30 1146 H 118.134 -0.470326 4.76786 0
M  V30 1147 H 116.498 -0.34615 2.52337 0
M  V30 1148 H 117.281 1.16966 3.2276 0
M  V30 1149 N 119.726 -1.57421 0.075193 0
M  V30 1150 C 120.973 -1.93618 -0.593146 0
M  V30 1151 C 121.301 -0.955484 -1.69413 0
M  V30 1152 O 120.556 0.0283251 -1.9568 0
M  V30 1153 C 120.855 -3.36428 -1.20626 0
M  V30 1154 C 120.521 -4.50307 -0.231078 0
M  V30 1155 C 119.183 -4.81186 0.0371936 0
M  V30 1156 C 121.535 -5.19374 0.435888 0
M  V30 1157 C 118.863 -5.78466 0.979461 0
M  V30 1158 C 121.215 -6.17665 1.3665 0
M  V30 1159 C 119.879 -6.46958 1.6432 0
M  V30 1160 H 119.149 -0.708499 -0.217047 0
M  V30 1161 H 121.796 -1.90937 0.146793 0
M  V30 1162 H 120.101 -3.35592 -2.02201 0
M  V30 1163 H 121.798 -3.61727 -1.73073 0
M  V30 1164 H 118.388 -4.26227 -0.450357 0
M  V30 1165 H 122.572 -4.95711 0.241748 0
M  V30 1166 H 117.828 -5.99487 1.20106 0
M  V30 1167 H 122.002 -6.70284 1.88924 0
M  V30 1168 H 119.629 -7.2215 2.37494 0
M  V30 1169 N 121.204 0.198386 -1.56346 0
M  V30 1170 C 122.434 0.934215 -1.84271 0
M  V30 1171 C 122.842 1.77496 -0.655125 0
M  V30 1172 O 122.185 1.7961 0.385488 0
M  V30 1173 C 122.247 1.88278 -3.06254 0
M  V30 1174 C 121.911 1.22431 -4.40295 0
M  V30 1175 C 122.908 0.602839 -5.16393 0
M  V30 1176 C 120.593 1.22915 -4.87029 0
M  V30 1177 C 122.587 -0.0050083 -6.374 0
M  V30 1178 C 120.274 0.617465 -6.07973 0
M  V30 1179 C 121.272 0.00146341 -6.83 0
M  V30 1180 O 120.96 -0.600642 -8.01653 0
M  V30 1181 H 120.692 0.278245 -0.616081 0
M  V30 1182 H 123.246 0.211626 -2.04307 0
M  V30 1183 H 121.476 2.64498 -2.82095 0
M  V30 1184 H 123.165 2.48612 -3.20853 0
M  V30 1185 H 123.931 0.591265 -4.81382 0
M  V30 1186 H 119.81 1.69801 -4.28589 0
M  V30 1187 H 123.354 -0.48643 -6.95902 0
M  V30 1188 H 119.251 0.62653 -6.42452 0
M  V30 1189 H 120.019 -0.497225 -8.16988 0
M  V30 1190 N 122.682 1.50554 0.465978 0
M  V30 1191 C 123.922 1.63439 1.22747 0
M  V30 1192 C 124.286 0.329822 1.89146 0
M  V30 1193 O 125.487 0.334161 2.66715 0
M  V30 1194 C 123.758 2.78542 2.2394 0
M  V30 1195 S 125.317 3.11591 3.0896 0
M  V30 1196 H 122.135 0.576113 0.416672 0
M  V30 1197 H 124.737 1.88357 0.523641 0
M  V30 1198 H 123.441 3.71805 1.7375 0
M  V30 1199 H 122.972 2.55726 2.98944 0
M  V30 1200 H 124.987 2.55811 4.25176 0
M  V30 1201 N 124.16 -0.719506 1.40217 0
M  V30 1202 C 125.09 -1.8465 1.42922 0
M  V30 1203 C 126.071 -1.67599 0.29062 0
M  V30 1204 O 127.256 -1.87688 0.498677 0
M  V30 1205 C 124.386 -3.22565 1.28722 0
M  V30 1206 C 123.34 -3.54281 2.40144 0
M  V30 1207 C 122.666 -4.91298 2.11023 0
M  V30 1208 C 123.966 -3.55676 3.82481 0
M  V30 1209 H 125.66 -1.82644 2.37237 0
M  V30 1210 H 123.206 -0.877305 1.1419 0
M  V30 1211 H 125.159 -4.01095 1.29232 0
M  V30 1212 H 123.883 -3.25137 0.308811 0
M  V30 1213 H 122.542 -2.78088 2.38877 0
M  V30 1214 H 122.19 -4.90468 1.11582 0
M  V30 1215 H 121.89 -5.13485 2.8567 0
M  V30 1216 H 123.414 -5.72166 2.13209 0
M  V30 1217 H 124.828 -4.24254 3.85592 0
M  V30 1218 H 123.225 -3.89388 4.56614 0
M  V30 1219 H 124.295 -2.55144 4.12346 0
M  V30 1220 N 125.638 -1.25649 -0.95132 0
M  V30 1221 C 126.863 -1.13443 -1.73624 0
M  V30 1222 C 127.288 0.307565 -1.85568 0
M  V30 1223 O 126.646 1.22282 -1.33854 0
M  V30 1224 C 126.694 -1.79723 -3.12621 0
M  V30 1225 O 125.798 -1.07912 -3.98031 0
M  V30 1226 H 125.139 -0.395872 -0.533086 0
M  V30 1227 H 127.669 -1.66276 -1.1922 0
M  V30 1228 H 127.679 -1.86141 -3.63064 0
M  V30 1229 H 126.354 -2.84633 -3.03244 0
M  V30 1230 H 124.931 -1.09398 -3.56492 0
M  V30 1231 N 127.117 1.15442 -1.07289 0
M  V30 1232 C 128.342 1.90638 -0.816828 0
M  V30 1233 C 128.767 1.77445 0.624083 0
M  V30 1234 O 128.125 1.10671 1.43602 0
M  V30 1235 C 128.173 3.39008 -1.22906 0
M  V30 1236 O 127.277 4.10701 -0.373975 0
M  V30 1237 H 126.618 0.593555 -0.297638 0
M  V30 1238 H 129.148 1.46198 -1.43134 0
M  V30 1239 H 129.158 3.89801 -1.20497 0
M  V30 1240 H 127.833 3.47929 -2.27856 0
M  V30 1241 H 126.41 3.70046 -0.460499 0
M  V30 1242 N 128.595 0.856903 1.32268 0
M  V30 1243 C 129.505 0.306131 2.32594 0
M  V30 1244 C 130.521 -0.577209 1.64147 0
M  V30 1245 O 131.697 -0.477043 1.95669 0
M  V30 1246 C 128.762 -0.494561 3.43154 0
M  V30 1247 C 127.823 0.415186 4.27288 0
M  V30 1248 C 127.056 -0.347387 5.32568 0
M  V30 1249 O 127.279 -1.57708 5.48165 0
M  V30 1250 O 126.213 0.287982 6.01211 0
M  V30 1251 H 130.039 1.13737 2.81598 0
M  V30 1252 H 127.624 0.619902 1.35932 0
M  V30 1253 H 129.506 -0.948944 4.10576 0
M  V30 1254 H 128.181 -1.30257 2.96336 0
M  V30 1255 H 127.088 0.917793 3.62667 0
M  V30 1256 H 128.421 1.18844 4.77637 0
M  V30 1257 N 130.073 -1.45103 0.615059 0
M  V30 1258 C 131.35 -1.95549 0.0448276 0
M  V30 1259 C 131.73 -1.55737 -1.4251 0
M  V30 1260 O 131.078 -0.823556 -2.13143 0
M  V30 1261 C 131.288 -3.48098 0.250785 0
M  V30 1262 C 132.636 -4.24384 0.135509 0
M  V30 1263 O 133.66 -3.55738 0.181299 0
M  V30 1264 O 132.519 -5.46493 0.0268878 0
M  V30 1265 H 129.613 -0.8264 -0.0314845 0
M  V30 1266 H 132.159 -1.55232 0.685642 0
M  V30 1267 H 130.931 -3.7007 1.27139 0
M  V30 1268 H 130.554 -3.95323 -0.424937 0
M  V30 1269 N 131.551 -0.354651 -1.53558 0
M  V30 1270 C 132.481 0.489091 -2.2832 0
M  V30 1271 C 133.462 1.09324 -1.30316 0
M  V30 1272 O 134.647 1.11255 -1.59173 0
M  V30 1273 C 131.777 1.63456 -3.0643 0
M  V30 1274 C 130.731 1.1582 -4.12031 0
M  V30 1275 C 130.057 2.39305 -4.7816 0
M  V30 1276 C 131.357 0.250731 -5.21698 0
M  V30 1277 H 133.051 -0.134614 -2.99097 0
M  V30 1278 H 130.597 -0.0661826 -1.43848 0
M  V30 1279 H 132.55 2.23136 -3.57475 0
M  V30 1280 H 131.274 2.28533 -2.33325 0
M  V30 1281 H 129.933 0.584146 -3.61916 0
M  V30 1282 H 129.581 3.02814 -4.01637 0
M  V30 1283 H 129.281 2.08109 -5.49513 0
M  V30 1284 H 130.805 2.99691 -5.31994 0
M  V30 1285 H 132.219 0.754695 -5.68311 0
M  V30 1286 H 130.616 0.0301468 -6.00092 0
M  V30 1287 H 131.686 -0.710125 -4.79672 0
M  V30 1288 N 133.029 1.57378 -0.0835403 0
M  V30 1289 C 134.445 1.57246 0.273109 0
M  V30 1290 C 134.645 1.09385 1.69225 0
M  V30 1291 O 133.701 0.765051 2.40631 0
M  V30 1292 C 135.014 3.00614 0.0720628 0
M  V30 1293 C 136.562 3.12684 0.1407 0
M  V30 1294 C 137.037 4.57989 -0.0322094 0
M  V30 1295 N 138.528 4.63194 0.0230085 0
M  V30 1296 C 139.263 5.73335 -0.0861941 0
M  V30 1297 N 138.759 6.9235 -0.24958 0
M  V30 1298 N 140.552 5.62093 -0.0282886 0
M  V30 1299 H 132.703 1.86801 -1.0109 0
M  V30 1300 H 134.966 0.861687 -0.395222 0
M  V30 1301 H 134.672 3.39786 -0.907662 0
M  V30 1302 H 134.546 3.68193 0.81936 0
M  V30 1303 H 136.933 2.73391 1.11092 0
M  V30 1304 H 137.014 2.47719 -0.637896 0
M  V30 1305 H 136.658 4.97973 -0.999247 0
M  V30 1306 H 136.588 5.21 0.765937 0
M  V30 1307 H 139.079 3.77613 0.14722 0
M  V30 1308 H 139.392 7.72117 -0.324733 0
M  V30 1309 H 137.737 6.94415 -0.285097 0
M  V30 1310 H 140.928 4.67997 0.0981408 0
M  V30 1311 H 141.101 6.47895 -0.116845 0
M  V30 1312 N 134.507 -0.190092 1.56449 0
M  V30 1313 C 135.455 -1.25501 1.95837 0
M  V30 1314 C 136.449 -1.4685 0.844485 0
M  V30 1315 O 137.655 -1.47651 1.02952 0
M  V30 1316 H 134.03 -0.421447 0.622805 0
M  V30 1317 H 136.001 -0.895821 2.84636 0
M  V30 1318 C 134.75 -2.59124 2.31841 0
M  V30 1319 H 134.073 -2.43514 3.17082 0
M  V30 1320 H 135.513 -3.32371 2.6326 0
M  V30 1321 C 133.972 -3.16488 1.15486 0
M  V30 1322 O 134.502 -3.99365 0.432535 0
M  V30 1323 N 132.708 -2.75305 0.930349 0
M  V30 1324 H 132.255 -2.08013 1.51948 0
M  V30 1325 H 132.213 -3.14024 0.153634 0
M  V30 1326 N 135.985 -1.50799 -0.457987 0
M  V30 1327 C 137.213 -1.66218 -1.23203 0
M  V30 1328 C 137.628 -0.350894 -1.85511 0
M  V30 1329 O 136.985 0.668546 -1.69814 0
M  V30 1330 C 137.036 -2.76291 -2.33121 0
M  V30 1331 O 136.757 -4.02338 -1.73366 0
M  V30 1332 C 138.258 -3.028 -3.2377 0
M  V30 1333 H 135.478 -0.558361 -0.372121 0
M  V30 1334 H 138.022 -1.97099 -0.545179 0
M  V30 1335 H 136.177 -2.48068 -2.97558 0
M  V30 1336 H 136.591 -4.63312 -2.4585 0
M  V30 1337 H 138.065 -3.8345 -3.97077 0
M  V30 1338 H 138.542 -2.14385 -3.83322 0
M  V30 1339 H 139.148 -3.32604 -2.65056 0
M  V30 1340 N 137.463 0.71206 -1.40597 0
M  V30 1341 C 138.413 1.81783 -1.37619 0
M  V30 1342 C 139.397 1.58896 -0.253162 0
M  V30 1343 O 140.589 1.70009 -0.492547 0
M  V30 1344 C 137.718 3.19944 -1.24462 0
M  V30 1345 C 136.804 3.48582 -2.4156 0
M  V30 1346 N 137.195 3.48016 -3.67041 0
M  V30 1347 C 135.493 3.79056 -2.35016 0
M  V30 1348 C 136.194 3.75096 -4.44609 0
M  V30 1349 N 135.17 3.94022 -3.74497 0
M  V30 1350 H 138.972 1.79683 -2.32575 0
M  V30 1351 H 136.486 0.91134 -1.34419 0
M  V30 1352 H 138.483 3.99133 -1.20411 0
M  V30 1353 H 137.143 3.23267 -0.304762 0
M  V30 1354 H 138.154 3.28782 -4.00153 0
M  V30 1355 H 134.831 3.89848 -1.49415 0
M  V30 1356 H 136.221 3.80934 -5.53479 0
M  V30 1357 N 138.941 1.26152 0.944643 0
M  V30 1358 C 140.181 1.12708 1.70517 0
M  V30 1359 C 140.545 -0.324727 1.89234 0
M  V30 1360 O 141.746 -0.581211 2.62441 0
M  V30 1361 C 140.017 1.8713 3.04495 0
M  V30 1362 S 141.576 1.89698 3.95677 0
M  V30 1363 H 138.394 0.402665 0.585988 0
M  V30 1364 H 140.996 1.59821 1.12594 0
M  V30 1365 H 139.7 2.91833 2.88551 0
M  V30 1366 H 139.231 1.40444 3.67477 0
M  V30 1367 H 141.246 0.981198 4.86402 0
M  V30 1368 N 140.419 -1.14872 1.07899 0
M  V30 1369 C 141.659 -1.8745 0.814965 0
M  V30 1370 C 142.023 -1.80758 -0.64733 0
M  V30 1371 O 143.224 -2.48422 -1.02664 0
M  V30 1372 C 141.495 -3.32286 1.31607 0
M  V30 1373 S 143.054 -4.22537 1.18357 0
M  V30 1374 H 139.872 -0.646833 0.295174 0
M  V30 1375 H 142.474 -1.38555 1.37923 0
M  V30 1376 H 141.178 -3.34703 2.37491 0
M  V30 1377 H 140.709 -3.86238 0.747261 0
M  V30 1378 H 142.724 -4.96044 0.124586 0
M  V30 1379 N 141.898 -0.863906 -1.31812 0
M  V30 1380 C 143.128 -0.485406 -2.00817 0
M  V30 1381 C 143.536 0.925007 -1.65046 0
M  V30 1382 O 142.879 1.61653 -0.872574 0
M  V30 1383 C 142.941 -0.555589 -3.55181 0
M  V30 1384 C 142.605 -1.92654 -4.14407 0
M  V30 1385 C 143.602 -2.89324 -4.31958 0
M  V30 1386 C 141.287 -2.2262 -4.50273 0
M  V30 1387 C 143.281 -4.14108 -4.84555 0
M  V30 1388 C 140.968 -3.47654 -5.02573 0
M  V30 1389 C 141.966 -4.43214 -5.19664 0
M  V30 1390 O 141.654 -5.66033 -5.70843 0
M  V30 1391 H 141.386 -0.188224 -0.649267 0
M  V30 1392 H 143.94 -1.16514 -1.69156 0
M  V30 1393 H 142.17 0.181037 -3.86276 0
M  V30 1394 H 143.859 -0.19138 -4.05449 0
M  V30 1395 H 144.625 -2.6748 -4.04573 0
M  V30 1396 H 140.504 -1.4902 -4.3625 0
M  V30 1397 H 144.048 -4.88703 -4.9781 0
M  V30 1398 H 139.945 -3.69345 -5.29391 0
M  V30 1399 H 140.713 -5.6812 -5.89222 0
M  V30 1400 N 143.376 1.44774 -0.622745 0
M  V30 1401 C 144.604 2.06487 -0.130722 0
M  V30 1402 C 145.019 1.46476 1.19123 0
M  V30 1403 O 144.376 0.584502 1.72887 0
M  V30 1404 C 144.427 3.615 -0.000807207 0
M  V30 1405 O 144.148 4.19274 -1.27048 0
M  V30 1406 C 145.649 4.40229 0.520898 0
M  V30 1407 H 142.869 0.666704 -0.0758106 0
M  V30 1408 H 145.413 1.85779 -0.854774 0
M  V30 1409 H 143.568 3.81498 0.673643 0
M  V30 1410 H 143.982 5.12622 -1.1099 0
M  V30 1411 H 145.456 5.49144 0.560838 0
M  V30 1412 H 145.933 4.1108 1.54627 0
M  V30 1413 H 146.539 4.25131 -0.120018 0
M  V30 1414 N 144.854 0.36279 1.53368 0
M  V30 1415 C 146.131 -0.284021 1.93527 0
M  V30 1416 C 146.511 -1.66628 1.29608 0
M  V30 1417 O 145.859 -2.23942 0.45413 0
M  V30 1418 C 146.069 -0.337028 3.47369 0
M  V30 1419 C 147.417 -0.578708 4.20638 0
M  V30 1420 O 148.441 -0.418352 3.53735 0
M  V30 1421 O 147.3 -0.89074 5.39192 0
M  V30 1422 H 144.394 -0.169743 0.809393 0
M  V30 1423 H 146.94 0.41537 1.64538 0
M  V30 1424 H 145.712 0.632217 3.86159 0
M  V30 1425 H 145.335 -1.08243 3.82582 0
M  V30 1426 N 146.332 -1.57332 0.0918853 0
M  V30 1427 C 147.562 -1.98286 -0.580205 0
M  V30 1428 C 147.97 -0.969713 -1.6246 0
M  V30 1429 O 147.313 0.0493501 -1.83634 0
M  V30 1430 C 147.375 -3.35603 -1.28882 0
M  V30 1431 C 147.039 -4.55285 -0.395559 0
M  V30 1432 C 148.036 -5.18687 0.355002 0
M  V30 1433 C 145.721 -5.01314 -0.314556 0
M  V30 1434 C 147.715 -6.26484 1.17458 0
M  V30 1435 C 145.402 -6.08979 0.508677 0
M  V30 1436 C 146.4 -6.71429 1.2519 0
M  V30 1437 O 146.088 -7.77018 2.06151 0
M  V30 1438 H 145.82 -0.656678 -0.160466 0
M  V30 1439 H 148.374 -2.04721 0.16688 0
M  V30 1440 H 146.604 -3.25842 -2.08241 0
M  V30 1441 H 148.293 -3.61026 -1.85512 0
M  V30 1442 H 149.059 -4.84058 0.302134 0
M  V30 1443 H 144.938 -4.5247 -0.882697 0
M  V30 1444 H 148.482 -6.75159 1.75518 0
M  V30 1445 H 144.379 -6.4304 0.563037 0
M  V30 1446 H 145.147 -7.93991 1.98799 0
M  V30 1447 N 147.81 0.181792 -1.56548 0
M  V30 1448 C 149.05 0.906711 -1.83189 0
M  V30 1449 C 149.414 1.79882 -0.671312 0
M  V30 1450 O 150.615 2.56054 -0.81792 0
M  V30 1451 C 148.886 1.69023 -3.14906 0
M  V30 1452 S 150.445 2.46535 -3.62996 0
M  V30 1453 H 147.263 0.303877 -0.642791 0
M  V30 1454 H 149.865 0.169107 -1.94767 0
M  V30 1455 H 148.569 1.02571 -3.97376 0
M  V30 1456 H 148.1 2.46941 -3.06241 0
M  V30 1457 H 150.115 3.71014 -3.29489 0
M  V30 1458 N 149.288 1.51039 0.449983 0
M  V30 1459 C 150.236 1.71995 1.5659 0
M  V30 1460 C 151.23 0.586029 1.5894 0
M  V30 1461 O 152.436 0.76709 1.62837 0
M  V30 1462 H 148.811 0.543233 0.520001 0
M  V30 1463 H 150.782 2.65562 1.36085 0
M  V30 1464 C 149.531 1.8506 2.9436 0
M  V30 1465 H 148.854 2.71712 2.93279 0
M  V30 1466 H 150.294 2.0374 3.71842 0
M  V30 1467 C 148.753 0.607277 3.31382 0
M  V30 1468 O 149.283 -0.243903 4.00959 0
M  V30 1469 N 147.489 0.455073 2.87015 0
M  V30 1470 H 147.036 1.14879 2.30566 0
M  V30 1471 H 146.994 -0.375611 3.12148 0
M  V30 1472 N 150.766 -0.704594 1.40972 0
M  V30 1473 C 152.182 -1.01406 1.23244 0
M  V30 1474 C 152.382 -2.01169 0.115399 0
M  V30 1475 O 151.438 -2.47021 -0.523147 0
M  V30 1476 C 152.751 -1.54728 2.57836 0
M  V30 1477 C 154.299 -1.66658 2.64942 0
M  V30 1478 C 154.774 -2.23383 3.9983 0
M  V30 1479 N 156.265 -2.30756 4.01629 0
M  V30 1480 C 157 -2.75655 5.02794 0
M  V30 1481 N 156.496 -3.20225 6.14352 0
M  V30 1482 N 158.289 -2.75138 4.90159 0
M  V30 1483 H 150.44 -0.0435285 2.12355 0
M  V30 1484 H 152.703 -0.0818951 0.944456 0
M  V30 1485 H 152.409 -0.888832 3.40283 0
M  V30 1486 H 152.283 -2.53084 2.79693 0
M  V30 1487 H 154.67 -2.31617 1.8286 0
M  V30 1488 H 154.751 -0.668717 2.46904 0
M  V30 1489 H 154.395 -1.59043 4.82357 0
M  V30 1490 H 154.325 -3.23904 4.15203 0
M  V30 1491 H 156.816 -1.99291 3.21079 0
M  V30 1492 H 157.129 -3.53084 6.87424 0
M  V30 1493 H 155.474 -3.18156 6.17901 0
M  V30 1494 H 158.665 -2.39661 4.02095 0
M  V30 1495 H 158.838 -3.09812 5.6914 0
M  V30 1496 N 152.244 -1.26651 -0.937939 0
M  V30 1497 C 153.493 -1.11775 -1.67897 0
M  V30 1498 C 153.806 0.33794 -1.92659 0
M  V30 1499 O 155.012 0.607434 -2.64618 0
M  V30 1500 C 153.468 -1.9523 -3.02346 0
M  V30 1501 C 153.076 -3.45393 -2.8532 0
M  V30 1502 C 154.82 -1.88972 -3.80118 0
M  V30 1503 C 152.727 -4.21083 -4.15263 0
M  V30 1504 H 151.657 -0.414696 -0.629717 0
M  V30 1505 H 154.308 -1.50988 -1.04283 0
M  V30 1506 H 152.69 -1.48853 -3.66959 0
M  V30 1507 H 153.864 -3.99561 -2.29537 0
M  V30 1508 H 152.179 -3.52921 -2.20988 0
M  V30 1509 H 154.776 -2.42805 -4.76392 0
M  V30 1510 H 155.119 -0.86113 -4.07296 0
M  V30 1511 H 155.652 -2.33189 -3.22285 0
M  V30 1512 H 152.391 -5.24425 -3.93267 0
M  V30 1513 H 151.911 -3.71695 -4.70747 0
M  V30 1514 H 153.59 -4.29706 -4.83696 0
M  V30 1515 N 153.722 1.14298 -1.08507 0
M  V30 1516 C 154.999 1.81544 -0.728088 0
M  V30 1517 C 155.379 1.95838 0.78808 0
M  V30 1518 O 154.727 1.51904 1.70697 0
M  V30 1519 C 154.937 3.17169 -1.45619 0
M  V30 1520 C 156.285 3.9265 -1.61591 0
M  V30 1521 O 157.309 3.26762 -1.41793 0
M  V30 1522 O 156.168 5.10807 -1.94263 0
M  V30 1523 H 153.262 0.78491 -0.260471 0
M  V30 1524 H 155.808 1.21307 -1.18671 0
M  V30 1525 H 154.58 3.01934 -2.489 0
M  V30 1526 H 154.203 3.851 -0.989124 0
M  V30 1527 N 155.201 0.870884 1.31352 0
M  V30 1528 C 156.131 0.343096 2.30966 0
M  V30 1529 C 157.112 -0.566507 1.60389 0
M  V30 1530 O 158.297 -0.483336 1.88089 0
M  V30 1531 C 155.427 -0.455487 3.443 0
M  V30 1532 C 154.381 0.361103 4.26474 0
M  V30 1533 C 153.707 -0.563221 5.31725 0
M  V30 1534 C 155.007 1.59566 4.97329 0
M  V30 1535 H 156.701 1.17548 2.75359 0
M  V30 1536 H 154.247 0.566686 1.32381 0
M  V30 1537 H 156.2 -0.83525 4.13039 0
M  V30 1538 H 154.924 -1.32139 2.98675 0
M  V30 1539 H 153.583 0.722825 3.59403 0
M  V30 1540 H 153.231 -1.42643 4.82351 0
M  V30 1541 H 152.931 -0.0207409 5.87596 0
M  V30 1542 H 154.455 -0.939808 6.03324 0
M  V30 1543 H 155.869 1.28728 5.58661 0
M  V30 1544 H 154.266 2.07728 5.63 0
M  V30 1545 H 155.336 2.34798 4.24262 0
M  V30 1546 N 156.679 -1.44442 0.630414 0
M  V30 1547 C 158.095 -1.56832 0.295973 0
M  V30 1548 C 158.295 -1.61806 -1.20088 0
M  V30 1549 O 157.351 -1.5607 -1.9849 0
M  V30 1550 C 158.664 -2.84031 0.987264 0
M  V30 1551 C 160.212 -2.97742 0.96534 0
M  V30 1552 C 160.687 -4.27743 1.63708 0
M  V30 1553 N 162.178 -4.34555 1.60364 0
M  V30 1554 C 162.913 -5.33862 2.09234 0
M  V30 1555 N 162.409 -6.39578 2.66292 0
M  V30 1556 N 164.202 -5.25366 1.99867 0
M  V30 1557 H 156.353 -1.39457 1.60205 0
M  V30 1558 H 158.616 -0.668237 0.672431 0
M  V30 1559 H 158.322 -2.86338 2.04215 0
M  V30 1560 H 158.196 -3.73534 0.524588 0
M  V30 1561 H 160.583 -2.94989 -0.0810639 0
M  V30 1562 H 160.664 -2.09589 1.4665 0
M  V30 1563 H 160.308 -4.31255 2.68293 0
M  V30 1564 H 160.238 -5.14752 1.11076 0
M  V30 1565 H 162.729 -3.58772 1.18705 0
M  V30 1566 H 163.042 -7.11637 3.01317 0
M  V30 1567 H 161.387 -6.40265 2.70343 0
M  V30 1568 H 164.578 -4.41688 1.55013 0
M  V30 1569 H 164.751 -6.02606 2.38265 0
M  V30 1570 N 158.157 -0.370918 -1.53173 0
M  V30 1571 C 159.403 0.217423 -2.01631 0
M  V30 1572 C 159.736 1.47983 -1.25756 0
M  V30 1573 O 159.011 1.91274 -0.352764 0
M  V30 1574 C 159.294 0.503982 -3.56556 0
M  V30 1575 C 159.147 -0.77243 -4.43118 0
M  V30 1576 C 160.466 1.30234 -4.20389 0
M  V30 1577 H 157.585 0.0775486 -0.732909 0
M  V30 1578 H 160.227 -0.496863 -1.83388 0
M  V30 1579 H 158.377 1.11248 -3.72231 0
M  V30 1580 H 160.049 -1.4098 -4.39229 0
M  V30 1581 H 158.292 -1.39167 -4.10871 0
M  V30 1582 H 158.963 -0.526815 -5.4948 0
M  V30 1583 H 161.439 0.787546 -4.08579 0
M  V30 1584 H 160.315 1.47158 -5.28806 0
M  V30 1585 H 160.576 2.31237 -3.76805 0
M  V30 1586 N 159.635 1.57281 -0.100228 0
M  V30 1587 C 161.046 1.81725 0.428107 0
M  V30 1588 C 161.397 1.01619 1.67833 0
M  V30 1589 O 160.522 0.247098 2.14985 0
M  V30 1590 C 161.117 3.29617 0.78347 0
M  V30 1591 C 159.676 3.54808 1.25653 0
M  V30 1592 C 158.823 2.76118 0.255752 0
M  V30 1593 H 161.774 1.55324 -0.325608 0
M  V30 1594 H 161.795 3.4322 1.64256 0
M  V30 1595 H 161.307 3.87893 -0.12665 0
M  V30 1596 H 159.408 3.01868 2.18418 0
M  V30 1597 H 159.521 4.63443 1.21482 0
M  V30 1598 H 157.885 2.43745 0.738956 0
M  V30 1599 H 158.668 3.37145 -0.647136 0
M  V30 1600 N 161.113 -0.173488 1.56642 0
M  V30 1601 C 162.338 -0.910149 1.86363 0
M  V30 1602 C 162.763 -1.75132 0.686318 0
M  V30 1603 O 162.121 -1.77595 -0.364643 0
M  V30 1604 C 162.169 -1.76447 3.14482 0
M  V30 1605 O 161.273 -2.86584 2.96553 0
M  V30 1606 H 160.614 -0.255086 0.613047 0
M  V30 1607 H 163.144 -0.172283 2.03873 0
M  V30 1608 H 163.154 -2.16483 3.45831 0
M  V30 1609 H 161.829 -1.14658 3.99783 0
M  V30 1610 H 160.406 -2.50146 2.76553 0
M  V30 1611 N 162.591 -1.51276 -0.441967 0
M  V30 1612 C 163.839 -1.63392 -1.18943 0
M  V30 1613 C 164.16 -0.350159 -1.9183 0
M  V30 1614 O 163.43 0.633784 -1.85364 0
M  V30 1615 H 162.01 -0.602164 -0.442049 0
M  V30 1616 H 164.672 -1.88186 -0.507165 0
M  V30 1617 H 163.768 -2.45934 -1.92154 0
M  V30 1618 N 164.069 0.697108 -1.41344 0
M  V30 1619 C 165.019 1.80313 -1.39539 0
M  V30 1620 C 166.003 1.58618 -0.270001 0
M  V30 1621 O 167.195 1.69477 -0.510551 0
M  V30 1622 C 164.324 3.18606 -1.27848 0
M  V30 1623 C 163.41 3.46001 -2.45244 0
M  V30 1624 N 163.801 3.44103 -3.70711 0
M  V30 1625 C 162.099 3.76542 -2.39023 0
M  V30 1626 C 162.8 3.7036 -4.48563 0
M  V30 1627 N 161.776 3.90027 -3.78655 0
M  V30 1628 H 165.578 1.77207 -2.34468 0
M  V30 1629 H 163.092 0.897031 -1.35378 0
M  V30 1630 H 165.089 3.97833 -1.24637 0
M  V30 1631 H 163.749 3.22925 -0.339032 0
M  V30 1632 H 164.76 3.2452 -4.03618 0
M  V30 1633 H 161.437 3.88241 -1.53542 0
M  V30 1634 H 162.827 3.75042 -5.57488 0
M  V30 1635 N 165.547 1.27147 0.931209 0
M  V30 1636 C 166.477 1.12081 2.04842 0
M  V30 1637 C 167.458 0.0232364 1.70084 0
M  V30 1638 O 168.643 0.197085 1.93197 0
M  V30 1639 C 165.773 0.76354 3.38803 0
M  V30 1640 C 164.727 1.81396 3.87659 0
M  V30 1641 C 164.053 1.31075 5.18385 0
M  V30 1642 C 165.353 3.21739 4.11438 0
M  V30 1643 H 167.047 2.05537 2.17703 0
M  V30 1644 H 164.593 0.989603 1.04608 0
M  V30 1645 H 166.546 0.644982 4.16435 0
M  V30 1646 H 165.27 -0.206727 3.25945 0
M  V30 1647 H 163.929 1.92136 3.12217 0
M  V30 1648 H 163.577 0.330037 5.01916 0
M  V30 1649 H 163.277 2.013 5.52044 0
M  V30 1650 H 164.801 1.20506 5.98591 0
M  V30 1651 H 166.215 3.14019 4.79651 0
M  V30 1652 H 164.612 3.89644 4.56397 0
M  V30 1653 H 165.682 3.67054 3.16859 0
M  V30 1654 N 167.025 -1.13721 1.09112 0
M  V30 1655 C 167.972 -2.19031 0.727591 0
M  V30 1656 C 168.942 -1.63555 -0.289656 0
M  V30 1657 O 170.127 -1.90023 -0.172026 0
M  V30 1658 C 167.267 -3.4477 0.15082 0
M  V30 1659 C 166.38 -4.14365 1.22172 0
M  V30 1660 C 165.515 -5.27709 0.608042 0
M  V30 1661 C 164.554 -5.89147 1.66047 0
M  V30 1662 N 163.691 -6.93929 1.06806 0
M  V30 1663 H 168.531 -2.49475 1.62991 0
M  V30 1664 H 166.068 -1.22499 0.81439 0
M  V30 1665 H 168.026 -4.16714 -0.201358 0
M  V30 1666 H 166.656 -3.14787 -0.714783 0
M  V30 1667 H 165.708 -3.40737 1.69122 0
M  V30 1668 H 167.02 -4.56114 2.01895 0
M  V30 1669 H 166.174 -6.06355 0.204523 0
M  V30 1670 H 164.913 -4.872 -0.220769 0
M  V30 1671 H 163.918 -5.09198 2.07357 0
M  V30 1672 H 165.143 -6.31729 2.49189 0
M  V30 1673 H 163.089 -6.55483 0.260476 0
M  V30 1674 H 163.006 -7.34202 1.8023 0
M  V30 1675 H 164.274 -7.76434 0.690644 0
M  V30 1676 N 168.503 -0.877838 -1.30888 0
M  V30 1677 C 169.413 -0.343096 -2.32078 0
M  V30 1678 C 170.429 0.551022 -1.65045 0
M  V30 1679 O 171.605 0.445854 -1.96403 0
M  V30 1680 C 168.67 0.439905 -3.43898 0
M  V30 1681 C 167.731 -0.483111 -4.26573 0
M  V30 1682 C 166.964 0.262616 -5.33053 0
M  V30 1683 O 167.187 1.48967 -5.50604 0
M  V30 1684 O 166.121 -0.383593 -6.00676 0
M  V30 1685 H 169.947 -1.18203 -2.79753 0
M  V30 1686 H 167.532 -0.64145 -1.34929 0
M  V30 1687 H 169.414 0.883504 -4.12034 0
M  V30 1688 H 168.089 1.25526 -2.98371 0
M  V30 1689 H 166.996 -0.975374 -3.61161 0
M  V30 1690 H 168.329 -1.26427 -4.75686 0
M  V30 1691 N 169.982 1.44106 -0.638065 0
M  V30 1692 C 171.393 1.85316 -0.226894 0
M  V30 1693 C 171.744 1.53399 1.22324 0
M  V30 1694 O 170.869 0.975463 1.93167 0
M  V30 1695 C 171.464 3.3637 -0.405013 0
M  V30 1696 C 170.023 3.76369 -0.0482902 0
M  V30 1697 C 169.17 2.67921 -0.715108 0
M  V30 1698 H 172.121 1.34474 -0.842764 0
M  V30 1699 H 172.142 3.7885 0.354 0
M  V30 1700 H 171.654 3.59569 -1.46053 0
M  V30 1701 H 169.755 3.58784 1.00522 0
M  V30 1702 H 169.868 4.76856 -0.463187 0
M  V30 1703 H 168.232 2.54259 -0.149753 0
M  V30 1704 H 169.015 2.93951 -1.77335 0
M  V30 1705 N 171.46 0.379036 1.52974 0
M  V30 1706 C 172.37 -0.468639 2.29872 0
M  V30 1707 C 173.386 -1.08067 1.36373 0
M  V30 1708 O 174.562 -1.08871 1.69438 0
M  V30 1709 C 171.627 -1.58594 3.083 0
M  V30 1710 C 170.688 -1.00007 4.17489 0
M  V30 1711 C 169.921 -2.06413 4.92168 0
M  V30 1712 O 170.144 -3.27751 4.66835 0
M  V30 1713 O 169.078 -1.68717 5.7777 0
M  V30 1714 H 172.904 0.157508 3.03291 0
M  V30 1715 H 170.489 0.143035 1.48714 0
M  V30 1716 H 172.371 -2.23525 3.57232 0
M  V30 1717 H 171.046 -2.19724 2.37703 0
M  V30 1718 H 169.953 -0.314299 3.72777 0
M  V30 1719 H 171.286 -0.433135 4.90291 0
M  V30 1720 N 172.938 -1.57226 0.108567 0
M  V30 1721 C 173.888 -2.11305 -0.856396 0
M  V30 1722 C 174.872 -1.03129 -1.23504 0
M  V30 1723 O 176.064 -1.29381 -1.20787 0
M  V30 1724 C 173.193 -2.70771 -2.11041 0
M  V30 1725 C 172.279 -3.86011 -1.7566 0
M  V30 1726 N 172.67 -4.93492 -1.10902 0
M  V30 1727 C 170.968 -3.95999 -2.05185 0
M  V30 1728 C 171.669 -5.73984 -0.944308 0
M  V30 1729 N 170.645 -5.2346 -1.46596 0
M  V30 1730 H 174.447 -2.91784 -0.352002 0
M  V30 1731 H 171.961 -1.62126 -0.0942324 0
M  V30 1732 H 173.958 -3.07851 -2.81128 0
M  V30 1733 H 172.618 -1.91751 -2.62034 0
M  V30 1734 H 173.629 -5.1208 -0.774235 0
M  V30 1735 H 170.306 -3.28007 -2.58298 0
M  V30 1736 H 171.696 -6.70479 -0.436813 0
M  V30 1737 N 174.416 0.165178 -1.56732 0
M  V30 1738 C 175.827 0.727046 -1.71962 0
M  V30 1739 C 176.178 1.82508 -0.720078 0
M  V30 1740 O 175.303 2.16082 0.117242 0
M  V30 1741 C 175.898 1.32559 -3.11791 0
M  V30 1742 C 174.457 1.83422 -3.28684 0
M  V30 1743 C 173.604 0.715567 -2.67908 0
M  V30 1744 H 176.555 -0.0602896 -1.58585 0
M  V30 1745 H 176.576 2.19533 -3.10782 0
M  V30 1746 H 176.088 0.526195 -3.84516 0
M  V30 1747 H 174.189 2.65986 -2.60926 0
M  V30 1748 H 174.302 1.97543 -4.36478 0
M  V30 1749 H 172.666 1.13758 -2.27884 0
M  V30 1750 H 173.449 -0.0720836 -3.43224 0
M  V30 1751 N 175.894 1.51508 0.433938 0
M  V30 1752 C 177.119 1.68443 1.21003 0
M  V30 1753 C 177.544 0.382636 1.84167 0
M  V30 1754 O 176.902 -0.65755 1.68956 0
M  V30 1755 C 176.95 2.80405 2.26727 0
M  V30 1756 O 176.054 2.44245 3.32292 0
M  V30 1757 H 175.395 0.561536 0.354363 0
M  V30 1758 H 177.925 1.9809 0.512024 0
M  V30 1759 H 177.935 3.0459 2.71457 0
M  V30 1760 H 176.61 3.74867 1.80132 0
M  V30 1761 H 175.187 2.30644 2.93015 0
M  V30 1762 N 177.372 -0.689602 1.41712 0
M  V30 1763 C 178.305 -1.81403 1.3845 0
M  V30 1764 C 179.283 -1.60653 0.250874 0
M  V30 1765 O 180.467 -1.83323 0.43874 0
M  V30 1766 C 177.594 -3.18176 1.1611 0
M  V30 1767 C 176.64 -3.57705 2.3227 0
M  V30 1768 S 177.473 -3.61827 3.94767 0
M  V30 1769 C 178.629 -5.01318 3.74742 0
M  V30 1770 H 178.862 -1.83893 2.33603 0
M  V30 1771 H 176.395 -0.858878 1.28307 0
M  V30 1772 H 178.353 -3.97132 1.03907 0
M  V30 1773 H 177.014 -3.13288 0.225668 0
M  V30 1774 H 176.207 -4.57082 2.12349 0
M  V30 1775 H 175.809 -2.86073 2.40911 0
M  V30 1776 H 178.101 -5.88986 3.34817 0
M  V30 1777 H 179.044 -5.26283 4.73743 0
M  V30 1778 H 179.452 -4.73138 3.07898 0
M  V30 1779 N 178.85 -1.27639 -0.924453 0
M  V30 1780 C 180.096 -1.15345 -1.67532 0
M  V30 1781 C 180.451 0.297096 -1.90092 0
M  V30 1782 O 179.744 1.21374 -1.48253 0
M  V30 1783 C 179.938 -1.87407 -3.04325 0
M  V30 1784 C 179.767 -3.3932 -2.95114 0
M  V30 1785 C 178.537 -4.08644 -2.97218 0
M  V30 1786 C 180.735 -4.35242 -2.73987 0
M  V30 1787 N 178.717 -5.47102 -2.78482 0
M  V30 1788 C 180.088 -5.6099 -2.63988 0
M  V30 1789 C 182.143 -4.25294 -2.589 0
M  V30 1790 C 180.846 -6.77924 -2.40442 0
M  V30 1791 C 182.872 -5.41952 -2.36731 0
M  V30 1792 C 182.234 -6.66658 -2.27478 0
M  V30 1793 H 178.333 -0.47696 -0.619704 0
M  V30 1794 H 180.917 -1.6115 -1.09265 0
M  V30 1795 H 179.088 -1.44053 -3.60699 0
M  V30 1796 H 180.82 -1.6759 -3.68369 0
M  V30 1797 H 177.575 -3.60136 -3.07569 0
M  V30 1798 H 177.999 -6.19852 -2.72236 0
M  V30 1799 H 182.641 -3.29598 -2.64811 0
M  V30 1800 H 180.359 -7.73699 -2.3327 0
M  V30 1801 H 183.945 -5.36137 -2.25938 0
M  V30 1802 H 182.825 -7.55405 -2.10555 0
M  V30 1803 N 180.328 1.1314 -1.09713 0
M  V30 1804 C 181.576 1.84119 -0.833338 0
M  V30 1805 C 181.897 1.84097 0.642904 0
M  V30 1806 O 181.167 1.29881 1.46655 0
M  V30 1807 H 179.747 0.681766 -0.305293 0
M  V30 1808 H 182.409 1.37038 -1.38588 0
M  V30 1809 H 181.505 2.88543 -1.18951 0
M  V30 1810 N 181.806 0.884767 1.30421 0
M  V30 1811 C 183.217 0.553656 1.78302 0
M  V30 1812 C 183.568 -0.930153 1.7275 0
M  V30 1813 O 182.693 -1.72681 1.30423 0
M  V30 1814 C 183.288 0.998234 3.2376 0
M  V30 1815 C 181.847 0.71854 3.69478 0
M  V30 1816 C 180.994 1.18132 2.50879 0
M  V30 1817 H 183.945 1.06901 1.17294 0
M  V30 1818 H 183.966 0.327118 3.79091 0
M  V30 1819 H 183.478 2.0782 3.27769 0
M  V30 1820 H 181.579 -0.349444 3.70958 0
M  V30 1821 H 181.692 1.30595 4.60958 0
M  V30 1822 H 180.056 0.600669 2.47516 0
M  V30 1823 H 180.839 2.26902 2.57624 0
M  V30 1824 N 183.284 -1.43765 0.645699 0
M  V30 1825 C 184.53 -2.02197 0.156271 0
M  V30 1826 C 184.863 -1.50776 -1.22393 0
M  V30 1827 O 184.138 -0.697771 -1.81553 0
M  V30 1828 C 184.421 -3.59749 0.158872 0
M  V30 1829 C 184.274 -4.21419 1.57245 0
M  V30 1830 C 185.593 -4.37149 -0.50879 0
M  V30 1831 H 182.712 -0.734694 0.0582602 0
M  V30 1832 H 185.354 -1.71157 0.824951 0
M  V30 1833 H 183.504 -3.86325 -0.410525 0
M  V30 1834 H 185.176 -4.059 2.19186 0
M  V30 1835 H 183.419 -3.78356 2.122 0
M  V30 1836 H 184.09 -5.30482 1.52619 0
M  V30 1837 H 186.566 -4.16093 -0.024412 0
M  V30 1838 H 185.442 -5.4683 -0.476213 0
M  V30 1839 H 185.703 -4.12839 -1.58165 0
M  V30 1840 N 184.763 -0.387143 -1.52771 0
M  V30 1841 C 185.673 0.456442 -2.30117 0
M  V30 1842 C 186.689 1.07342 -1.36944 0
M  V30 1843 O 187.865 1.07971 -1.70013 0
M  V30 1844 C 184.93 1.56957 -3.09136 0
M  V30 1845 C 183.991 0.977916 -4.18014 0
M  V30 1846 C 183.224 2.038 -4.93256 0
M  V30 1847 O 183.447 3.25271 -4.68567 0
M  V30 1848 O 182.381 1.6565 -5.78657 0
M  V30 1849 H 186.207 -0.17359 -3.03203 0
M  V30 1850 H 183.792 -0.150919 -1.48636 0
M  V30 1851 H 185.674 2.21628 -3.58412 0
M  V30 1852 H 184.349 2.18461 -2.38865 0
M  V30 1853 H 183.256 0.294525 -3.72939 0
M  V30 1854 H 184.589 0.407128 -4.90513 0
M  V30 1855 N 186.241 1.57166 -0.116904 0
M  V30 1856 C 187.171 2.18222 0.830759 0
M  V30 1857 C 188.152 1.12167 1.27877 0
M  V30 1858 O 189.337 1.40394 1.34176 0
M  V30 1859 C 186.467 2.77996 2.08172 0
M  V30 1860 C 185.421 3.89614 1.77157 0
M  V30 1861 C 184.747 4.36187 3.09265 0
M  V30 1862 C 186.047 5.1181 1.04151 0
M  V30 1863 H 187.741 2.97664 0.321992 0
M  V30 1864 H 185.287 1.4318 0.153434 0
M  V30 1865 H 187.24 3.19366 2.74924 0
M  V30 1866 H 185.964 1.9584 2.6137 0
M  V30 1867 H 184.623 3.48816 1.12796 0
M  V30 1868 H 184.271 3.50893 3.60393 0
M  V30 1869 H 183.971 5.11455 2.89288 0
M  V30 1870 H 185.495 4.80207 3.77139 0
M  V30 1871 H 186.909 5.50214 1.61052 0
M  V30 1872 H 185.306 5.92648 0.942762 0
M  V30 1873 H 186.376 4.84892 0.0279022 0
M  V30 1874 N 187.719 -0.156864 1.56817 0
M  V30 1875 C 188.965 -0.872416 1.83076 0
M  V30 1876 C 189.298 -1.81261 0.697001 0
M  V30 1877 O 188.573 -1.92171 -0.30008 0
M  V30 1878 C 188.856 -1.65551 3.19789 0
M  V30 1879 C 188.709 -0.737467 4.43713 0
M  V30 1880 C 190.028 -2.62012 3.53606 0
M  V30 1881 H 187.147 -0.315715 0.665953 0
M  V30 1882 H 189.789 -0.138004 1.89498 0
M  V30 1883 H 187.939 -2.28159 3.14445 0
M  V30 1884 H 189.611 -0.123143 4.61136 0
M  V30 1885 H 187.854 -0.0464067 4.33775 0
M  V30 1886 H 188.525 -1.32122 5.35955 0
M  V30 1887 H 191.001 -2.09525 3.59497 0
M  V30 1888 H 189.877 -3.13861 4.50314 0
M  V30 1889 H 190.138 -3.42902 2.79053 0
M  V30 1890 N 189.197 -1.51736 -0.425897 0
M  V30 1891 C 190.445 -1.64644 -1.17204 0
M  V30 1892 C 190.766 -0.370486 -1.91448 0
M  V30 1893 O 190.036 0.614088 -1.86026 0
M  V30 1894 H 188.616 -0.606819 -0.435638 0
M  V30 1895 H 191.278 -1.88713 -0.487177 0
M  V30 1896 H 190.374 -2.47958 -1.89534 0
M  V30 1897 N 190.675 0.682077 -1.42076 0
M  V30 1898 C 191.924 1.43786 -1.41451 0
M  V30 1899 C 192.237 1.95574 -0.0317074 0
M  V30 1900 O 193.443 2.71326 0.0971462 0
M  V30 1901 C 191.899 2.60071 -2.48779 0
M  V30 1902 C 191.507 2.15013 -3.93031 0
M  V30 1903 C 193.251 3.37626 -2.57311 0
M  V30 1904 C 191.158 3.28336 -4.91883 0
M  V30 1905 H 190.088 0.540143 -0.526082 0
M  V30 1906 H 192.739 0.739157 -1.67955 0
M  V30 1907 H 191.121 3.32275 -2.15429 0
M  V30 1908 H 192.295 1.5001 -4.35699 0
M  V30 1909 H 190.61 1.50416 -3.88284 0
M  V30 1910 H 193.207 4.22012 -3.28345 0
M  V30 1911 H 193.55 3.83727 -1.61429 0
M  V30 1912 H 194.083 2.72488 -2.89819 0
M  V30 1913 H 190.822 2.87234 -5.89217 0
M  V30 1914 H 190.342 3.92145 -4.53853 0
M  V30 1915 H 192.021 3.93913 -5.13265 0
M  V30 1916 N 192.153 1.28127 0.917671 0
M  V30 1917 C 193.402 1.14432 1.66097 0
M  V30 1918 C 193.715 -0.307247 1.93172 0
M  V30 1919 O 194.921 -0.565259 2.65551 0
M  V30 1920 C 193.377 2.00015 2.99202 0
M  V30 1921 C 192.985 3.49889 2.79789 0
M  V30 1922 C 194.729 1.94996 3.77064 0
M  V30 1923 C 192.636 4.27636 4.08511 0
M  V30 1924 H 191.566 0.424662 0.62304 0
M  V30 1925 H 194.217 1.52628 1.01868 0
M  V30 1926 H 192.599 1.54672 3.64544 0
M  V30 1927 H 193.773 4.03162 2.23152 0
M  V30 1928 H 192.088 3.56392 2.15345 0
M  V30 1929 H 194.685 2.50354 4.72469 0
M  V30 1930 H 195.028 0.925819 4.05875 0
M  V30 1931 H 195.561 2.38287 3.18534 0
M  V30 1932 H 192.3 5.30615 3.84874 0
M  V30 1933 H 191.82 3.79137 4.64774 0
M  V30 1934 H 193.499 4.37346 4.76799 0
M  V30 1935 N 193.631 -1.12557 1.10312 0
M  V30 1936 C 194.594 -2.16434 0.75424 0
M  V30 1937 C 195.594 -1.59278 -0.220685 0
M  V30 1938 O 196.784 -1.742 0.00230591 0
M  V30 1939 C 193.916 -3.40699 0.116987 0
M  V30 1940 H 195.109 -2.48811 1.67431 0
M  V30 1941 H 192.662 -1.27542 0.903475 0
M  V30 1942 H 193.397 -3.13921 -0.813877 0
M  V30 1943 H 193.182 -3.83459 0.818613 0
M  V30 1944 H 194.672 -4.17451 -0.111387 0
M  V30 1945 N 195.109 -0.891671 -1.2995 0
M  V30 1946 C 196.357 -0.512486 -1.95494 0
M  V30 1947 C 196.678 0.942776 -1.70695 0
M  V30 1948 O 195.948 1.66374 -1.03424 0
M  V30 1949 H 194.528 -0.186533 -0.723336 0
M  V30 1950 H 197.19 -1.13621 -1.58355 0
M  V30 1951 H 196.286 -0.688342 -3.04415 0
M  V30 1952 N 196.587 1.43421 -0.653314 0
M  V30 1953 C 197.998 1.85065 -0.246537 0
M  V30 1954 C 198.349 1.54688 1.2069 0
M  V30 1955 O 197.474 0.995896 1.92122 0
M  V30 1956 C 198.069 3.35922 -0.440666 0
M  V30 1957 C 196.628 3.76297 -0.0882064 0
M  V30 1958 C 195.775 2.67147 -0.743484 0
M  V30 1959 H 198.726 1.33572 -0.856979 0
M  V30 1960 H 198.747 3.79204 0.313798 0
M  V30 1961 H 198.259 3.58 -1.49858 0
M  V30 1962 H 196.36 3.5983 0.96711 0
M  V30 1963 H 196.473 4.76338 -0.513738 0
M  V30 1964 H 194.837 2.54086 -0.176712 0
M  V30 1965 H 195.62 2.92053 -1.80443 0
M  V30 1966 N 198.065 0.39524 1.52563 0
M  V30 1967 C 199.311 -0.185318 2.01952 0
M  V30 1968 C 199.644 -1.45964 1.28095 0
M  V30 1969 O 198.919 -1.90689 0.38315 0
M  V30 1970 C 199.202 -0.447193 3.57312 0
M  V30 1971 C 199.055 0.842828 4.41833 0
M  V30 1972 C 200.374 -1.23529 4.22408 0
M  V30 1973 H 197.493 -0.0658788 0.73405 0
M  V30 1974 H 200.135 0.525975 1.82575 0
M  V30 1975 H 198.285 -1.05312 3.73954 0
M  V30 1976 H 199.957 1.4795 4.36931 0
M  V30 1977 H 198.2 1.45686 4.08605 0
M  V30 1978 H 198.871 0.614165 5.48573 0
M  V30 1979 H 201.347 -0.722445 4.0978 0
M  V30 1980 H 200.223 -1.38727 5.3108 0
M  V30 1981 H 200.484 -2.25213 3.80436 0
M  V30 1982 N 199.544 -1.57102 0.125237 0
M  V30 1983 C 200.791 -1.95407 -0.531248 0
M  V30 1984 C 201.119 -1.0089 -1.66287 0
M  V30 1985 O 200.374 -0.0339431 -1.95671 0
M  V30 1986 C 200.673 -3.40096 -1.09862 0
M  V30 1987 C 200.339 -4.50815 -0.0876989 0
M  V30 1988 C 199.001 -4.80824 0.19026 0
M  V30 1989 C 201.353 -5.17724 0.600902 0
M  V30 1990 C 198.681 -5.75058 1.163 0
M  V30 1991 C 201.033 -6.13005 1.56231 0
M  V30 1992 C 199.697 -6.41403 1.8482 0
M  V30 1993 H 198.967 -0.715046 -0.194397 0
M  V30 1994 H 201.614 -1.90373 0.207463 0
M  V30 1995 H 199.919 -3.41855 -1.91422 0
M  V30 1996 H 201.616 -3.6705 -1.61478 0
M  V30 1997 H 198.206 -4.27444 -0.314528 0
M  V30 1998 H 202.39 -4.94691 0.399333 0
M  V30 1999 H 197.646 -5.95362 1.39117 0
M  V30 2000 H 201.82 -6.63934 2.10153 0
M  V30 2001 H 199.447 -7.14229 2.60349 0
M  V30 2002 N 201.022 0.148545 -1.56898 0
M  V30 2003 C 201.952 1.18524 -2.01182 0
M  V30 2004 C 202.933 1.4489 -0.891123 0
M  V30 2005 O 204.118 1.55836 -1.15882 0
M  V30 2006 C 201.248 2.51879 -2.39112 0
M  V30 2007 C 200.202 2.40038 -3.54353 0
M  V30 2008 C 199.528 3.78089 -3.78091 0
M  V30 2009 C 200.828 1.88577 -4.87069 0
M  V30 2010 H 202.522 0.817029 -2.88036 0
M  V30 2011 H 200.068 0.391575 -1.38574 0
M  V30 2012 H 202.021 3.24627 -2.68692 0
M  V30 2013 H 200.745 2.90532 -1.49193 0
M  V30 2014 H 199.404 1.69742 -3.24936 0
M  V30 2015 H 199.052 4.14175 -2.85426 0
M  V30 2016 H 198.752 3.71028 -4.55645 0
M  V30 2017 H 200.276 4.52387 -4.10095 0
M  V30 2018 H 201.69 2.51117 -5.15377 0
M  V30 2019 H 200.087 1.9241 -5.68417 0
M  V30 2020 H 201.157 0.84136 -4.77545 0
M  V30 2021 N 202.5 1.5196 0.417844 0
M  V30 2022 C 203.43 1.77634 1.51554 0
M  V30 2023 C 204.411 0.626918 1.58126 0
M  V30 2024 O 205.596 0.871632 1.7354 0
M  V30 2025 C 202.726 1.91911 2.8946 0
M  V30 2026 C 201.68 3.07463 2.97743 0
M  V30 2027 C 201.006 3.06951 4.37819 0
M  V30 2028 C 202.306 4.47082 2.70027 0
M  V30 2029 H 204 2.6955 1.3032 0
M  V30 2030 H 201.546 1.29706 0.625492 0
M  V30 2031 H 203.499 2.08455 3.6623 0
M  V30 2032 H 202.223 0.966598 3.11969 0
M  V30 2033 H 200.882 2.90656 2.23416 0
M  V30 2034 H 200.53 2.09438 4.57323 0
M  V30 2035 H 200.23 3.84556 4.44286 0
M  V30 2036 H 201.754 3.25613 5.16535 0
M  V30 2037 H 203.168 4.6414 3.36522 0
M  V30 2038 H 201.565 5.2654 2.87881 0
M  V30 2039 H 202.635 4.55777 1.65514 0
M  V30 2040 N 203.978 -0.674533 1.42435 0
M  V30 2041 C 205.225 -1.43459 1.42919 0
M  V30 2042 C 205.553 -1.94446 0.0457312 0
M  V30 2043 O 204.808 -1.7132 -0.94593 0
M  V30 2044 C 205.107 -2.64767 2.40069 0
M  V30 2045 C 204.773 -2.3232 3.86443 0
M  V30 2046 C 203.435 -2.23182 4.26314 0
M  V30 2047 C 205.787 -2.05977 4.78773 0
M  V30 2048 C 203.115 -1.85827 5.56494 0
M  V30 2049 C 205.467 -1.70125 6.09295 0
M  V30 2050 C 204.131 -1.59498 6.48164 0
M  V30 2051 H 203.401 -0.524952 0.522978 0
M  V30 2052 H 206.048 -0.769097 1.75377 0
M  V30 2053 H 204.353 -3.36349 2.00939 0
M  V30 2054 H 206.05 -3.22949 2.37707 0
M  V30 2055 H 202.64 -2.40334 3.54877 0
M  V30 2056 H 206.824 -2.11969 4.48757 0
M  V30 2057 H 202.08 -1.76168 5.8547 0
M  V30 2058 H 206.254 -1.48767 6.80324 0
M  V30 2059 H 203.881 -1.30322 7.48946 0
M  V30 2060 N 205.456 -1.28612 -0.910864 0
M  V30 2061 C 206.386 -1.15326 -2.03032 0
M  V30 2062 C 207.367 -0.0502924 -1.70026 0
M  V30 2063 O 208.552 -0.227797 -1.92859 0
M  V30 2064 C 205.682 -0.817343 -3.37545 0
M  V30 2065 C 204.636 -1.8754 -3.84724 0
M  V30 2066 C 203.962 -1.39305 -5.16235 0
M  V30 2067 C 205.262 -3.28244 -4.06267 0
M  V30 2068 H 206.956 -2.08975 -2.14406 0
M  V30 2069 H 204.502 -1.00612 -1.03021 0
M  V30 2070 H 206.455 -0.711151 -4.15356 0
M  V30 2071 H 205.179 0.154846 -3.26233 0
M  V30 2072 H 203.838 -1.97079 -3.09121 0
M  V30 2073 H 203.486 -0.409846 -5.01328 0
M  V30 2074 H 203.186 -2.10057 -5.48771 0
M  V30 2075 H 204.71 -1.30014 -5.96598 0
M  V30 2076 H 206.124 -3.21611 -4.74594 0
M  V30 2077 H 204.521 -3.96855 -4.5014 0
M  V30 2078 H 205.591 -3.72048 -3.10979 0
M  V30 2079 N 206.934 1.1197 -1.10907 0
M  V30 2080 C 208.183 1.82947 -0.849302 0
M  V30 2081 C 208.496 1.85275 0.627112 0
M  V30 2082 O 209.702 2.52296 1.00295 0
M  V30 2083 C 208.158 3.28529 -1.46959 0
M  V30 2084 C 207.766 3.34546 -2.97965 0
M  V30 2085 C 209.51 4.04443 -1.28942 0
M  V30 2086 C 207.417 4.74491 -3.53004 0
M  V30 2087 H 206.347 0.685477 -0.314065 0
M  V30 2088 H 208.998 1.2604 -1.33365 0
M  V30 2089 H 207.38 3.85333 -0.912917 0
M  V30 2090 H 208.554 2.87654 -3.59989 0
M  V30 2091 H 206.869 2.72108 -3.15192 0
M  V30 2092 H 209.466 5.07787 -1.67502 0
M  V30 2093 H 209.809 4.15656 -0.231456 0
M  V30 2094 H 210.342 3.5401 -1.81443 0
M  V30 2095 H 207.081 4.68474 -4.58489 0
M  V30 2096 H 206.601 5.21816 -2.9575 0
M  V30 2097 H 208.28 5.4344 -3.51115 0
M  V30 2098 N 208.412 0.89855 1.29475 0
M  V30 2099 C 209.661 0.519863 1.94885 0
M  V30 2100 C 209.974 -0.9383 1.71625 0
M  V30 2101 O 211.18 -1.42445 2.31131 0
M  V30 2102 C 209.636 0.878836 3.49005 0
M  V30 2103 C 209.244 2.35569 3.81066 0
M  V30 2104 C 210.988 0.570004 4.20656 0
M  V30 2105 C 208.895 2.65558 5.28425 0
M  V30 2106 H 207.825 0.190692 0.729488 0
M  V30 2107 H 210.476 1.09539 1.47219 0
M  V30 2108 H 208.858 0.232253 3.95318 0
M  V30 2109 H 210.032 3.04773 3.45616 0
M  V30 2110 H 208.347 2.63343 3.22552 0
M  V30 2111 H 210.944 0.770925 5.29113 0
M  V30 2112 H 211.287 -0.491404 4.1339 0
M  V30 2113 H 211.82 1.17438 3.8007 0
M  V30 2114 H 208.559 3.70493 5.40754 0
M  V30 2115 H 208.079 2.00977 5.65127 0
M  V30 2116 H 209.758 2.51765 5.96006 0
M  V30 2117 N 209.89 -1.43072 0.660911 0
M  V30 2118 C 211.139 -2.00942 0.174735 0
M  V30 2119 C 211.452 -1.52797 -1.22117 0
M  V30 2120 O 212.658 -2.02991 -1.80297 0
M  V30 2121 C 211.114 -3.58948 0.261559 0
M  V30 2122 C 210.722 -4.16085 1.66064 0
M  V30 2123 C 212.466 -4.24173 -0.166617 0
M  V30 2124 C 210.373 -5.6641 1.70098 0
M  V30 2125 H 209.303 -0.751483 0.0615631 0
M  V30 2126 H 211.954 -1.63955 0.824069 0
M  V30 2127 H 210.336 -3.93372 -0.455421 0
M  V30 2128 H 211.51 -3.93147 2.40359 0
M  V30 2129 H 209.825 -3.6326 2.03546 0
M  V30 2130 H 212.422 -5.34471 -0.156433 0
M  V30 2131 H 212.765 -3.98647 -1.19943 0
M  V30 2132 H 213.298 -3.94659 0.498875 0
M  V30 2133 H 210.037 -5.96715 2.71315 0
M  V30 2134 H 209.557 -5.91382 1.00139 0
M  V30 2135 H 211.236 -6.30585 1.44816 0
M  V30 2136 N 211.368 -0.403325 -1.52352 0
M  V30 2137 C 212.617 0.175668 -2.00934 0
M  V30 2138 C 212.93 1.46718 -1.29356 0
M  V30 2139 O 214.136 2.12708 -1.68724 0
M  V30 2140 C 212.592 0.363612 -3.58058 0
M  V30 2141 C 212.2 -0.915472 -4.38547 0
M  V30 2142 C 213.944 0.89821 -4.14888 0
M  V30 2143 C 211.851 -0.695035 -5.87302 0
M  V30 2144 H 210.781 0.0694234 -0.750797 0
M  V30 2145 H 213.432 -0.527879 -1.75743 0
M  V30 2146 H 211.814 1.12935 -3.79555 0
M  V30 2147 H 212.988 -1.68691 -4.28812 0
M  V30 2148 H 211.303 -1.37606 -3.93006 0
M  V30 2149 H 213.9 1.07907 -5.23699 0
M  V30 2150 H 214.243 1.87126 -3.71873 0
M  V30 2151 H 214.776 0.191681 -3.97338 0
M  V30 2152 H 211.515 -1.63948 -6.34666 0
M  V30 2153 H 211.035 0.0372116 -5.99788 0
M  V30 2154 H 212.714 -0.33497 -6.46132 0
M  V30 2155 N 212.846 1.57033 -0.133567 0
M  V30 2156 C 214.092 1.95976 0.521649 0
M  V30 2157 C 214.425 1.01779 1.65393 0
M  V30 2158 O 213.7 0.0576581 1.94415 0
M  V30 2159 C 213.983 3.44738 1.04057 0
M  V30 2160 C 213.836 4.49711 -0.0892897 0
M  V30 2161 C 215.155 3.95682 1.92675 0
M  V30 2162 H 212.274 0.712579 0.188149 0
M  V30 2163 H 214.916 1.88813 -0.212076 0
M  V30 2164 H 213.066 3.50973 1.66583 0
M  V30 2165 H 214.738 4.55565 -0.725152 0
M  V30 2166 H 212.981 4.27261 -0.750378 0
M  V30 2167 H 213.652 5.51099 0.315284 0
M  V30 2168 H 216.128 3.91841 1.39998 0
M  V30 2169 H 215.004 5.00262 2.25897 0
M  V30 2170 H 215.265 3.37239 2.85872 0
M  V30 2171 N 214.325 -0.140222 1.56975 0
M  V30 2172 C 215.572 -0.851687 1.83719 0
M  V30 2173 C 215.9 -1.80862 0.715485 0
M  V30 2174 O 215.155 -1.93464 -0.294956 0
M  V30 2175 C 215.454 -1.65386 3.16832 0
M  V30 2176 C 215.12 -0.843112 4.42947 0
M  V30 2177 C 213.782 -0.619464 4.77196 0
M  V30 2178 C 216.134 -0.276582 5.20466 0
M  V30 2179 C 213.462 0.181312 5.8642 0
M  V30 2180 C 215.814 0.51127 6.30531 0
M  V30 2181 C 214.478 0.745432 6.63325 0
M  V30 2182 H 213.748 -0.311654 0.672274 0
M  V30 2183 H 216.395 -0.115006 1.91154 0
M  V30 2184 H 214.7 -2.46084 3.04877 0
M  V30 2185 H 216.397 -2.20793 3.34741 0
M  V30 2186 H 212.987 -1.0275 4.16101 0
M  V30 2187 H 217.171 -0.436632 4.94376 0
M  V30 2188 H 212.427 0.372165 6.10266 0
M  V30 2189 H 216.601 0.957354 6.89788 0
M  V30 2190 H 214.228 1.36778 7.47794 0
M  V30 2191 N 215.803 -1.52179 -0.40978 0
M  V30 2192 C 216.733 -1.78435 -1.5061 0
M  V30 2193 C 217.714 -0.635295 -1.57791 0
M  V30 2194 O 218.899 -0.880823 -1.73076 0
M  V30 2195 C 216.029 -1.93444 -2.88439 0
M  V30 2196 C 214.983 -3.09038 -2.96108 0
M  V30 2197 C 214.309 -3.09268 -4.36185 0
M  V30 2198 C 215.609 -4.48508 -2.67652 0
M  V30 2199 H 217.303 -2.70237 -1.28889 0
M  V30 2200 H 214.849 -1.30036 -0.618605 0
M  V30 2201 H 216.802 -2.10394 -3.65119 0
M  V30 2202 H 215.526 -0.983129 -3.11452 0
M  V30 2203 H 214.185 -2.91837 -2.21872 0
M  V30 2204 H 213.833 -2.11861 -4.56206 0
M  V30 2205 H 213.533 -3.86907 -4.42241 0
M  V30 2206 H 215.057 -3.28348 -5.14801 0
M  V30 2207 H 216.471 -4.65918 -3.34056 0
M  V30 2208 H 214.868 -5.28059 -2.85085 0
M  V30 2209 H 215.938 -4.56649 -1.63095 0
M  V30 2210 N 217.281 0.66697 -1.42791 0
M  V30 2211 C 218.527 1.4291 -1.43891 0
M  V30 2212 C 218.86 1.94114 -0.0578972 0
M  V30 2213 O 218.135 1.71414 0.91911 0
M  V30 2214 C 218.418 2.62049 -2.46987 0
M  V30 2215 C 218.271 2.16426 -3.94309 0
M  V30 2216 C 219.59 3.64266 -2.46978 0
M  V30 2217 H 216.709 0.518306 -0.523954 0
M  V30 2218 H 219.351 0.757321 -1.74255 0
M  V30 2219 H 217.501 3.19361 -2.21225 0
M  V30 2220 H 219.173 1.64221 -4.31079 0
M  V30 2221 H 217.416 1.47925 -4.078 0
M  V30 2222 H 218.087 3.02038 -4.62036 0
M  V30 2223 H 220.563 3.16686 -2.69906 0
M  V30 2224 H 219.439 4.45196 -3.21079 0
M  V30 2225 H 219.7 4.15927 -1.49857 0
M  V30 2226 N 218.759 1.29093 0.90403 0
M  V30 2227 C 220.008 1.16187 1.64874 0
M  V30 2228 C 220.321 -0.286742 1.93487 0
M  V30 2229 O 221.527 -0.537062 2.66135 0
M  V30 2230 C 219.983 2.03177 2.97064 0
M  V30 2231 C 219.591 3.52836 2.76062 0
M  V30 2232 C 221.335 1.98984 3.74974 0
M  V30 2233 C 219.242 4.31945 4.03952 0
M  V30 2234 H 218.172 0.431246 0.618501 0
M  V30 2235 H 220.823 1.53699 1.00243 0
M  V30 2236 H 219.205 1.5853 3.62883 0
M  V30 2237 H 220.379 4.05507 2.18863 0
M  V30 2238 H 218.694 3.58656 2.11553 0
M  V30 2239 H 221.291 2.55351 4.69787 0
M  V30 2240 H 221.634 0.968815 4.0487 0
M  V30 2241 H 222.167 2.41652 3.15989 0
M  V30 2242 H 218.906 5.34667 3.79225 0
M  V30 2243 H 218.426 3.84045 4.60727 0
M  V30 2244 H 220.105 4.42379 4.72133 0
M  V30 2245 N 220.237 -1.11381 1.11499 0
M  V30 2246 C 221.185 -2.19522 0.768956 0
M  V30 2247 C 222.179 -1.67693 -0.239857 0
M  V30 2248 O 223.385 -1.79727 -0.0990755 0
M  V30 2249 H 219.76 -0.715711 0.230786 0
M  V30 2250 H 221.731 -2.45954 1.68964 0
M  V30 2251 C 220.48 -3.46945 0.229073 0
M  V30 2252 H 219.803 -3.8718 0.996596 0
M  V30 2253 H 221.243 -4.23993 0.0251441 0
M  V30 2254 C 219.702 -3.2042 -1.04079 0
M  V30 2255 O 220.232 -3.41178 -2.12038 0
M  V30 2256 N 218.438 -2.74151 -0.963823 0
M  V30 2257 H 217.985 -2.57459 -0.0851722 0
M  V30 2258 H 217.943 -2.56781 -1.81414 0
M  V30 2259 N 221.715 -0.905404 -1.28997 0
M  V30 2260 C 222.945 -0.549049 -1.99171 0
M  V30 2261 C 223.353 0.87203 -1.67906 0
M  V30 2262 O 222.696 1.58796 -0.923561 0
M  V30 2263 C 222.758 -0.668306 -3.53234 0
M  V30 2264 C 222.422 -2.0574 -4.08069 0
M  V30 2265 C 223.419 -3.0292 -4.22534 0
M  V30 2266 C 221.104 -2.36833 -4.42962 0
M  V30 2267 C 223.098 -4.29314 -4.71135 0
M  V30 2268 C 220.785 -3.63467 -4.91258 0
M  V30 2269 C 221.783 -4.59522 -5.053 0
M  V30 2270 O 221.471 -5.83907 -5.52546 0
M  V30 2271 H 221.203 -0.208784 -0.64295 0
M  V30 2272 H 223.757 -1.21836 -1.65363 0
M  V30 2273 H 221.987 0.0580547 -3.86656 0
M  V30 2274 H 223.676 -0.320273 -4.04634 0
M  V30 2275 H 224.442 -2.80216 -3.95859 0
M  V30 2276 H 220.321 -1.62824 -4.31288 0
M  V30 2277 H 223.865 -5.04293 -4.8201 0
M  V30 2278 H 219.762 -3.86 -5.17372 0
M  V30 2279 H 220.53 -5.86578 -5.70849 0
M  V30 2280 N 223.193 1.4272 -0.668489 0
M  V30 2281 C 224.143 2.27971 0.0363806 0
M  V30 2282 C 225.127 1.40741 0.779794 0
M  V30 2283 O 226.319 1.64245 0.659745 0
M  V30 2284 C 223.448 3.28673 0.991398 0
M  V30 2285 C 222.534 4.23388 0.245658 0
M  V30 2286 N 222.925 5.00267 -0.746069 0
M  V30 2287 C 221.223 4.43355 0.484988 0
M  V30 2288 C 221.924 5.69396 -1.19009 0
M  V30 2289 N 220.9 5.41095 -0.521287 0
M  V30 2290 H 224.702 2.84833 -0.724394 0
M  V30 2291 H 222.216 1.54607 -0.497028 0
M  V30 2292 H 224.213 3.88543 1.51129 0
M  V30 2293 H 222.873 2.73373 1.75207 0
M  V30 2294 H 223.884 5.05525 -1.12537 0
M  V30 2295 H 220.561 3.99104 1.22565 0
M  V30 2296 H 221.951 6.41083 -2.01153 0
M  V30 2297 N 224.671 0.411399 1.52136 0
M  V30 2298 C 225.603 -0.448386 2.24771 0
M  V30 2299 C 226.616 -1.00828 1.27818 0
M  V30 2300 O 227.805 -0.906841 1.53749 0
M  V30 2301 C 224.905 -1.63636 2.96777 0
M  V30 2302 C 224.078 -1.19995 4.20618 0
M  V30 2303 C 223.137 -2.25509 4.75428 0
M  V30 2304 O 222.163 -1.86007 5.3795 0
M  V30 2305 N 223.365 -3.577 4.57199 0
M  V30 2306 H 226.13 0.174025 2.99194 0
M  V30 2307 H 223.691 0.238897 1.60128 0
M  V30 2308 H 225.683 -2.33793 3.30338 0
M  V30 2309 H 224.253 -2.16465 2.25526 0
M  V30 2310 H 223.473 -0.326421 3.92846 0
M  V30 2311 H 224.761 -0.885365 5.01038 0
M  V30 2312 H 224.159 -3.92543 4.07341 0
M  V30 2313 H 222.716 -4.23827 4.95191 0
M  V30 2314 N 226.149 -1.5696 0.141893 0
M  V30 2315 C 227.565 -1.58151 -0.21456 0
M  V30 2316 C 227.765 -1.1559 -1.65049 0
M  V30 2317 O 226.821 -0.853832 -2.37626 0
M  V30 2318 C 228.134 -3.00674 0.0395576 0
M  V30 2319 C 229.682 -3.1299 -0.0245529 0
M  V30 2320 C 230.157 -4.57554 0.202167 0
M  V30 2321 N 231.648 -4.62961 0.148919 0
M  V30 2322 C 232.383 -5.7262 0.298924 0
M  V30 2323 N 231.879 -6.90947 0.50637 0
M  V30 2324 N 233.672 -5.61601 0.236886 0
M  V30 2325 H 225.823 -1.8292 1.07953 0
M  V30 2326 H 228.086 -0.846425 0.42693 0
M  V30 2327 H 227.792 -3.36183 1.03315 0
M  V30 2328 H 227.666 -3.70981 -0.682143 0
M  V30 2329 H 230.053 -2.77326 -1.00869 0
M  V30 2330 H 230.134 -2.4518 0.729396 0
M  V30 2331 H 229.778 -4.93922 1.18338 0
M  V30 2332 H 229.708 -5.23484 -0.572044 0
M  V30 2333 H 232.199 -3.77899 -0.00697015 0
M  V30 2334 H 232.512 -7.7038 0.611076 0
M  V30 2335 H 230.857 -6.92878 0.542628 0
M  V30 2336 H 234.048 -4.68039 0.0756209 0
M  V30 2337 H 234.221 -6.47015 0.357227 0
M  V30 2338 N 227.627 0.131896 -1.57047 0
M  V30 2339 C 228.873 0.843179 -1.84441 0
M  V30 2340 C 229.206 1.80129 -0.725749 0
M  V30 2341 O 228.481 1.92624 0.269469 0
M  V30 2342 C 228.764 1.60442 -3.22382 0
M  V30 2343 C 228.617 0.666782 -4.4483 0
M  V30 2344 C 229.936 2.56354 -3.5773 0
M  V30 2345 H 227.055 0.305081 -0.670891 0
M  V30 2346 H 229.697 0.107839 -1.89694 0
M  V30 2347 H 227.847 2.23128 -3.18035 0
M  V30 2348 H 229.519 0.0497646 -4.61273 0
M  V30 2349 H 227.762 -0.022609 -4.33794 0
M  V30 2350 H 228.433 1.23579 -5.37989 0
M  V30 2351 H 230.909 2.0378 -3.62785 0
M  V30 2352 H 229.785 3.06657 -4.5525 0
M  V30 2353 H 230.046 3.38419 -2.84473 0
M  V30 2354 N 229.106 1.52395 0.401703 0
M  V30 2355 C 230.336 1.70429 1.1678 0
M  V30 2356 C 230.744 0.416702 1.84554 0
M  V30 2357 O 230.087 -0.617697 1.73003 0
M  V30 2358 C 230.149 2.78919 2.26814 0
M  V30 2359 C 229.813 4.20437 1.79113 0
M  V30 2360 C 230.81 5.04028 1.27482 0
M  V30 2361 C 228.495 4.66704 1.85722 0
M  V30 2362 C 230.489 6.31961 0.830913 0
M  V30 2363 C 228.176 5.94625 1.40942 0
M  V30 2364 C 229.174 6.77082 0.897128 0
M  V30 2365 O 228.862 8.02607 0.455822 0
M  V30 2366 H 228.594 0.574272 0.356634 0
M  V30 2367 H 231.148 1.99767 0.477724 0
M  V30 2368 H 229.378 2.44973 2.99207 0
M  V30 2369 H 231.067 2.8548 2.88541 0
M  V30 2370 H 231.833 4.69471 1.21744 0
M  V30 2371 H 227.712 4.0262 2.24539 0
M  V30 2372 H 231.256 6.96271 0.430368 0
M  V30 2373 H 227.153 6.28688 1.46362 0
M  V30 2374 H 227.921 8.16453 0.578457 0
M  V30 2375 N 230.584 -0.659388 1.43143 0
M  V30 2376 C 231.534 -1.7655 1.44271 0
M  V30 2377 C 232.518 -1.57847 0.311961 0
M  V30 2378 O 233.71 -1.68064 0.555306 0
M  V30 2379 C 230.839 -3.15104 1.36251 0
M  V30 2380 C 229.925 -3.39377 2.54331 0
M  V30 2381 N 230.316 -3.34153 3.79704 0
M  V30 2382 C 228.614 -3.70072 2.48922 0
M  V30 2383 C 229.315 -3.58337 4.58225 0
M  V30 2384 N 228.291 -3.79851 3.88863 0
M  V30 2385 H 232.093 -1.70928 2.39083 0
M  V30 2386 H 229.607 -0.860823 1.37708 0
M  V30 2387 H 231.604 -3.94389 1.35141 0
M  V30 2388 H 230.264 -3.21913 0.424531 0
M  V30 2389 H 231.275 -3.13704 4.1208 0
M  V30 2390 H 227.952 -3.84034 1.63781 0
M  V30 2391 H 229.342 -3.60129 5.67236 0
M  V30 2392 N 232.062 -1.29571 -0.897171 0
M  V30 2393 C 233.01 -1.14802 -2.02295 0
M  V30 2394 C 234.004 -0.0629637 -1.69283 0
M  V30 2395 O 235.21 -0.222945 -1.78614 0
M  V30 2396 H 231.585 -0.354692 -0.663097 0
M  V30 2397 H 233.556 -2.10108 -2.11889 0
M  V30 2398 C 232.305 -0.843966 -3.37302 0
M  V30 2399 H 231.628 -1.67093 -3.63208 0
M  V30 2400 H 233.068 -0.780672 -4.16751 0
M  V30 2401 C 231.527 0.452843 -3.33843 0
M  V30 2402 O 232.057 1.47813 -3.73516 0
M  V30 2403 N 230.263 0.459601 -2.86943 0
M  V30 2404 H 229.81 -0.375213 -2.54853 0
M  V30 2405 H 229.768 1.32726 -2.85011 0
M  V30 2406 N 233.54 1.10788 -1.12088 0
M  V30 2407 C 234.956 1.34691 -0.856186 0
M  V30 2408 C 235.156 1.94791 0.515615 0
M  V30 2409 O 234.212 2.18524 1.26505 0
M  V30 2410 C 235.525 2.27208 -1.9697 0
M  V30 2411 C 237.073 2.40755 -2.00016 0
M  V30 2412 C 237.548 3.36598 -3.1059 0
M  V30 2413 N 239.039 3.44164 -3.10008 0
M  V30 2414 C 239.774 4.18284 -3.92206 0
M  V30 2415 N 239.27 4.95322 -4.84384 0
M  V30 2416 N 241.063 4.13865 -3.80357 0
M  V30 2417 H 233.214 0.70144 -2.00483 0
M  V30 2418 H 235.477 0.371405 -0.872217 0
M  V30 2419 H 235.183 1.90251 -2.958 0
M  V30 2420 H 235.057 3.27485 -1.87172 0
M  V30 2421 H 237.444 2.76982 -1.01808 0
M  V30 2422 H 237.525 1.40305 -2.13888 0
M  V30 2423 H 237.169 3.01096 -4.09028 0
M  V30 2424 H 237.099 4.36918 -2.93956 0
M  V30 2425 H 239.59 2.8922 -2.43228 0
M  V30 2426 H 239.903 5.49267 -5.43623 0
M  V30 2427 H 238.248 4.94459 -4.884 0
M  V30 2428 H 241.439 3.52773 -3.07683 0
M  V30 2429 H 241.612 4.71372 -4.44649 0
M  V30 2430 N 235.018 0.912232 1.28515 0
M  V30 2431 C 235.95 0.35676 2.26406 0
M  V30 2432 C 236.963 -0.503933 1.54804 0
M  V30 2433 O 238.152 -0.319059 1.75625 0
M  V30 2434 C 235.252 -0.508825 3.35058 0
M  V30 2435 C 234.425 0.329007 4.36161 0
M  V30 2436 C 233.484 -0.471422 5.24084 0
M  V30 2437 O 232.51 0.115482 5.69083 0
M  V30 2438 N 233.712 -1.77479 5.52704 0
M  V30 2439 H 236.477 1.19818 2.74707 0
M  V30 2440 H 234.038 0.778022 1.4198 0
M  V30 2441 H 236.03 -1.051 3.90815 0
M  V30 2442 H 234.6 -1.25095 2.86478 0
M  V30 2443 H 233.82 1.05256 3.79888 0
M  V30 2444 H 235.108 0.90234 5.00735 0
M  V30 2445 H 234.506 -2.27417 5.17975 0
M  V30 2446 H 233.063 -2.26382 6.11224 0
M  V30 2447 N 236.496 -1.42363 0.676048 0
M  V30 2448 C 237.912 -1.55811 0.345718 0
M  V30 2449 C 238.112 -1.65544 -1.14879 0
M  V30 2450 O 237.168 -1.62306 -1.93424 0
M  V30 2451 C 238.481 -2.80746 1.07713 0
M  V30 2452 C 240.029 -2.9452 1.05958 0
M  V30 2453 C 240.504 -4.22318 1.77233 0
M  V30 2454 N 241.995 -4.29233 1.74108 0
M  V30 2455 C 242.73 -5.26935 2.26113 0
M  V30 2456 N 242.226 -6.30783 2.86505 0
M  V30 2457 N 244.019 -5.18741 2.1648 0
M  V30 2458 H 236.17 -1.34289 1.6456 0
M  V30 2459 H 238.433 -0.646506 0.69335 0
M  V30 2460 H 238.139 -2.79696 2.13221 0
M  V30 2461 H 238.013 -3.71676 0.64316 0
M  V30 2462 H 240.4 -2.95097 0.0128255 0
M  V30 2463 H 240.481 -2.04817 1.53244 0
M  V30 2464 H 240.125 -4.22502 2.81877 0
M  V30 2465 H 240.055 -5.10958 1.27396 0
M  V30 2466 H 242.546 -3.54814 1.30059 0
M  V30 2467 H 242.859 -7.01691 3.23805 0
M  V30 2468 H 241.204 -6.31341 2.90575 0
M  V30 2469 H 244.395 -4.36533 1.68987 0
M  V30 2470 H 244.568 -5.94721 2.57316 0
M  V30 2471 N 237.974 -0.419461 -1.51915 0
M  V30 2472 C 238.904 0.391813 -2.30189 0
M  V30 2473 C 239.885 1.03699 -1.34836 0
M  V30 2474 O 241.07 1.04403 -1.63748 0
M  V30 2475 C 238.2 1.50312 -3.13087 0
M  V30 2476 C 237.154 0.9824 -4.16573 0
M  V30 2477 C 236.48 2.18809 -4.8788 0
M  V30 2478 C 237.78 0.0292356 -5.22292 0
M  V30 2479 H 239.474 -0.26135 -2.98257 0
M  V30 2480 H 237.02 -0.127134 -1.43438 0
M  V30 2481 H 238.973 2.07773 -3.66617 0
M  V30 2482 H 237.697 2.18431 -2.42807 0
M  V30 2483 H 236.356 0.430119 -3.64068 0
M  V30 2484 H 236.004 2.85507 -4.14119 0
M  V30 2485 H 235.704 1.84615 -5.57845 0
M  V30 2486 H 237.228 2.76858 -5.44226 0
M  V30 2487 H 238.642 0.512976 -5.71 0
M  V30 2488 H 237.039 -0.2244 -5.9968 0
M  V30 2489 H 238.109 -0.912931 -4.76228 0
M  V30 2490 N 239.452 1.56882 -0.150215 0
M  V30 2491 C 240.729 1.87844 0.545327 0
M  V30 2492 C 241.109 1.0567 1.82749 0
M  V30 2493 O 240.457 0.144442 2.28043 0
M  V30 2494 C 240.667 3.39526 0.80767 0
M  V30 2495 C 242.015 4.08814 1.14703 0
M  V30 2496 O 243.039 3.44723 0.896917 0
M  V30 2497 O 241.898 5.22004 1.61784 0
M  V30 2498 H 238.992 0.778677 0.278553 0
M  V30 2499 H 241.538 1.68666 -0.187068 0
M  V30 2500 H 240.31 3.91173 -0.0996096 0
M  V30 2501 H 239.933 3.64243 1.59413 0
M  V30 2502 N 240.93 -0.123565 1.57115 0
M  V30 2503 C 241.863 -1.18202 1.95201 0
M  V30 2504 C 242.841 -1.40349 0.821031 0
M  V30 2505 O 244.025 -1.54578 1.07879 0
M  V30 2506 C 241.152 -2.53671 2.24429 0
M  V30 2507 C 240.198 -2.4798 3.46999 0
M  V30 2508 S 241.031 -1.92389 4.99747 0
M  V30 2509 C 242.187 -3.2954 5.32123 0
M  V30 2510 H 242.42 -0.857212 2.84674 0
M  V30 2511 H 239.953 -0.33014 1.50829 0
M  V30 2512 H 241.911 -3.3162 2.41947 0
M  V30 2513 H 240.572 -2.83332 1.35579 0
M  V30 2514 H 239.765 -3.47758 3.64801 0
M  V30 2515 H 239.367 -1.7815 3.28844 0
M  V30 2516 H 241.659 -4.25736 5.27025 0
M  V30 2517 H 242.602 -3.16569 6.33395 0
M  V30 2518 H 243.01 -3.27758 4.59603 0
M  V30 2519 N 242.408 -1.52605 -0.393616 0
M  V30 2520 C 243.318 -1.79971 -1.50492 0
M  V30 2521 C 244.334 -0.686181 -1.59899 0
M  V30 2522 O 245.51 -0.973274 -1.76322 0
M  V30 2523 C 242.575 -1.95867 -2.86072 0
M  V30 2524 C 241.636 -3.19781 -2.86424 0
M  V30 2525 C 240.869 -3.34909 -4.15538 0
M  V30 2526 O 241.092 -2.54948 -5.10253 0
M  V30 2527 O 240.026 -4.28141 -4.23059 0
M  V30 2528 H 243.852 -2.74328 -1.30299 0
M  V30 2529 H 241.437 -1.3764 -0.581005 0
M  V30 2530 H 243.319 -2.08056 -3.66457 0
M  V30 2531 H 241.994 -1.04699 -3.063 0
M  V30 2532 H 240.901 -3.13038 -2.04837 0
M  V30 2533 H 242.234 -4.1078 -2.71147 0
M  V30 2534 N 243.887 0.651787 -1.4349 0
M  V30 2535 C 245.164 1.40909 -1.35661 0
M  V30 2536 C 245.544 2.11099 -0.00511733 0
M  V30 2537 O 244.892 2.04892 1.0115 0
M  V30 2538 C 245.102 2.3926 -2.54078 0
M  V30 2539 C 246.45 3.03217 -2.97228 0
M  V30 2540 O 247.474 2.49588 -2.54135 0
M  V30 2541 O 246.333 4.00455 -3.71885 0
M  V30 2542 H 243.427 0.629625 -0.536191 0
M  V30 2543 H 245.973 0.678575 -1.55542 0
M  V30 2544 H 244.745 1.86352 -3.44076 0
M  V30 2545 H 244.368 3.1976 -2.36303 0
M  V30 2546 N 245.365 1.30045 0.890287 0
M  V30 2547 C 246.776 1.16738 1.45702 0
M  V30 2548 C 247.127 -0.233939 1.948 0
M  V30 2549 O 246.252 -1.13021 1.84541 0
M  V30 2550 C 246.847 2.11313 2.64825 0
M  V30 2551 C 245.406 2.02001 3.17604 0
M  V30 2552 C 244.553 2.01699 1.90296 0
M  V30 2553 H 247.504 1.42392 0.700726 0
M  V30 2554 H 247.525 1.69086 3.40867 0
M  V30 2555 H 247.037 3.13294 2.2906 0
M  V30 2556 H 245.138 1.03142 3.5804 0
M  V30 2557 H 245.251 2.90128 3.81264 0
M  V30 2558 H 243.615 1.46427 2.08402 0
M  V30 2559 H 244.398 3.05402 1.56795 0
M  V30 2560 N 246.843 -1.10192 1.12674 0
M  V30 2561 C 248.068 -1.86523 0.906853 0
M  V30 2562 C 248.493 -1.80221 -0.538711 0
M  V30 2563 O 247.851 -1.17396 -1.38158 0
M  V30 2564 C 247.899 -3.32758 1.3894 0
M  V30 2565 O 247.003 -4.08449 0.5695 0
M  V30 2566 H 246.344 -0.578678 0.325619 0
M  V30 2567 H 248.874 -1.39203 1.49946 0
M  V30 2568 H 248.884 -3.83608 1.38958 0
M  V30 2569 H 247.559 -3.36661 2.44197 0
M  V30 2570 H 246.136 -3.67427 0.636528 0
M  V30 2571 N 248.321 -0.919034 -1.28029 0
M  V30 2572 C 249.561 -0.562107 -1.96519 0
M  V30 2573 C 249.925 0.878784 -1.70708 0
M  V30 2574 O 251.126 1.34355 -2.32813 0
M  V30 2575 C 249.397 -0.868953 -3.46676 0
M  V30 2576 S 250.956 -0.619237 -4.34409 0
M  V30 2577 H 247.774 -0.2078 -0.679956 0
M  V30 2578 H 250.376 -1.18562 -1.55446 0
M  V30 2579 H 249.08 -1.91547 -3.62957 0
M  V30 2580 H 248.611 -0.234301 -3.92702 0
M  V30 2581 H 250.626 0.526995 -4.93394 0
M  V30 2582 N 249.799 1.42003 -0.683588 0
M  V30 2583 C 250.709 2.34597 -0.0109075 0
M  V30 2584 C 251.725 1.55576 0.779245 0
M  V30 2585 O 252.901 1.88107 0.719555 0
M  V30 2586 C 249.966 3.34199 0.922588 0
M  V30 2587 C 249.027 4.29115 0.125984 0
M  V30 2588 C 248.26 5.23959 1.01502 0
M  V30 2589 O 248.483 5.23952 2.25456 0
M  V30 2590 O 247.417 6.00053 0.47111 0
M  V30 2591 H 251.243 2.93675 -0.773853 0
M  V30 2592 H 248.828 1.42654 -0.443861 0
M  V30 2593 H 250.71 3.95365 1.45823 0
M  V30 2594 H 249.385 2.77582 1.66523 0
M  V30 2595 H 248.292 3.71335 -0.453969 0
M  V30 2596 H 249.625 4.88798 -0.577736 0
M  V30 2597 N 251.277 0.427512 1.51691 0
M  V30 2598 C 252.21 -0.433876 2.24037 0
M  V30 2599 C 253.188 -1.03287 1.25581 0
M  V30 2600 O 254.372 -1.07722 1.54688 0
M  V30 2601 C 251.499 -1.60385 2.98319 0
M  V30 2602 C 250.545 -1.12648 4.11355 0
M  V30 2603 S 251.378 -0.076543 5.35445 0
M  V30 2604 C 252.534 -1.25141 6.13262 0
M  V30 2605 H 252.767 0.180367 2.96752 0
M  V30 2606 H 250.3 0.211946 1.52938 0
M  V30 2607 H 252.258 -2.27462 3.41718 0
M  V30 2608 H 250.919 -2.18948 2.25213 0
M  V30 2609 H 250.112 -2.0011 4.62571 0
M  V30 2610 H 249.714 -0.534088 3.70167 0
M  V30 2611 H 252.006 -2.17162 6.41753 0
M  V30 2612 H 252.949 -0.779411 7.03797 0
M  V30 2613 H 253.357 -1.48553 5.44603 0
M  V30 2614 N 252.755 -1.56801 0.158532 0
M  V30 2615 C 253.995 -1.98383 -0.49229 0
M  V30 2616 C 254.359 -1.04184 -1.61275 0
M  V30 2617 O 255.56 -1.34856 -2.32524 0
M  V30 2618 C 253.831 -3.4385 -0.974766 0
M  V30 2619 S 255.39 -4.07459 -1.62857 0
M  V30 2620 H 252.208 -0.693041 -0.158794 0
M  V30 2621 H 254.81 -1.93856 0.252974 0
M  V30 2622 H 253.514 -4.10131 -0.148688 0
M  V30 2623 H 253.045 -3.52115 -1.75438 0
M  V30 2624 H 255.06 -4.01458 -2.91627 0
M  V30 2625 N 254.233 0.115231 -1.57178 0
M  V30 2626 C 255.163 1.1423 -2.03651 0
M  V30 2627 C 256.144 1.42967 -0.921655 0
M  V30 2628 O 257.329 1.53343 -1.19162 0
M  V30 2629 C 254.459 2.4675 -2.44401 0
M  V30 2630 C 253.413 2.32467 -3.59365 0
M  V30 2631 C 252.739 3.69984 -3.86026 0
M  V30 2632 C 254.039 1.78203 -4.90959 0
M  V30 2633 H 255.733 0.755749 -2.89705 0
M  V30 2634 H 253.279 0.362093 -1.39373 0
M  V30 2635 H 255.232 3.18854 -2.75517 0
M  V30 2636 H 253.956 2.87302 -1.55322 0
M  V30 2637 H 252.615 1.62811 -3.28463 0
M  V30 2638 H 252.263 4.08028 -2.94147 0
M  V30 2639 H 251.963 3.61279 -4.63412 0
M  V30 2640 H 253.487 4.43587 -4.19599 0
M  V30 2641 H 254.901 2.40128 -5.20587 0
M  V30 2642 H 253.298 1.8031 -5.72371 0
M  V30 2643 H 254.368 0.739876 -4.79222 0
M  V30 2644 N 255.711 1.52812 0.385517 0
M  V30 2645 C 256.936 1.72207 1.15583 0
M  V30 2646 C 257.361 0.441034 1.82857 0
M  V30 2647 O 256.719 -0.603465 1.70962 0
M  V30 2648 C 256.767 2.87476 2.17692 0
M  V30 2649 O 255.871 2.54693 3.24354 0
M  V30 2650 H 255.212 0.572526 0.336319 0
M  V30 2651 H 257.742 1.99618 0.448744 0
M  V30 2652 H 257.752 3.13072 2.6163 0
M  V30 2653 H 256.427 3.80408 1.68115 0
M  V30 2654 H 255.004 2.3985 2.85529 0
M  V30 2655 N 257.189 -0.644168 1.43834 0
M  V30 2656 C 258.136 -1.75671 1.49694 0
M  V30 2657 C 259.106 -1.6246 0.345809 0
M  V30 2658 O 260.291 -1.82573 0.554234 0
M  V30 2659 C 257.431 -3.13867 1.43463 0
M  V30 2660 C 256.544 -3.38147 2.6885 0
M  V30 2661 C 255.679 -4.66241 2.54544 0
M  V30 2662 C 254.718 -4.83657 3.75157 0
M  V30 2663 N 253.855 -6.03016 3.59605 0
M  V30 2664 H 258.695 -1.69998 2.44754 0
M  V30 2665 H 256.232 -0.829458 1.21484 0
M  V30 2666 H 258.19 -3.9377 1.37843 0
M  V30 2667 H 256.82 -3.18588 0.519783 0
M  V30 2668 H 255.872 -2.52276 2.84712 0
M  V30 2669 H 257.184 -3.46899 3.58417 0
M  V30 2670 H 256.338 -5.54285 2.46683 0
M  V30 2671 H 255.077 -4.59826 1.62516 0
M  V30 2672 H 254.082 -3.94046 3.83416 0
M  V30 2673 H 255.307 -4.91896 4.68204 0
M  V30 2674 H 253.253 -5.97715 2.7032 0
M  V30 2675 H 253.17 -6.12766 4.42779 0
M  V30 2676 H 254.438 -6.93657 3.55613 0
M  V30 2677 N 258.668 -1.30515 -0.883378 0
M  V30 2678 C 259.945 -1.10086 -1.6168 0
M  V30 2679 C 260.325 0.349269 -2.08191 0
M  V30 2680 O 259.673 1.34105 -1.85008 0
M  V30 2681 C 259.883 -2.10315 -2.78511 0
M  V30 2682 C 261.231 -2.42119 -3.48803 0
M  V30 2683 O 262.255 -2.08638 -2.88702 0
M  V30 2684 O 261.114 -2.99396 -4.57192 0
M  V30 2685 H 258.208 -0.422907 -0.710689 0
M  V30 2686 H 260.754 -1.41947 -0.930015 0
M  V30 2687 H 259.526 -3.07917 -2.41459 0
M  V30 2688 H 259.149 -1.79282 -3.54886 0
M  V30 2689 N 260.146 1.09593 -1.13257 0
M  V30 2690 C 261.093 2.1618 -0.808381 0
M  V30 2691 C 262.063 1.64517 0.228754 0
M  V30 2692 O 263.248 1.9053 0.101381 0
M  V30 2693 C 260.388 3.43973 -0.278675 0
M  V30 2694 C 259.501 4.09545 -1.37466 0
M  V30 2695 C 258.636 5.25088 -0.803479 0
M  V30 2696 C 257.675 5.82579 -1.87799 0
M  V30 2697 N 256.812 6.89486 -1.32488 0
M  V30 2698 H 261.652 2.43254 -1.72138 0
M  V30 2699 H 259.189 1.19392 -0.859294 0
M  V30 2700 H 261.147 4.17174 0.0465583 0
M  V30 2701 H 259.777 3.17223 0.597459 0
M  V30 2702 H 258.829 3.34226 -1.81652 0
M  V30 2703 H 260.141 4.48307 -2.18684 0
M  V30 2704 H 259.295 6.05178 -0.429427 0
M  V30 2705 H 258.034 4.87684 0.0397956 0
M  V30 2706 H 257.039 5.01152 -2.26113 0
M  V30 2707 H 258.264 6.22045 -2.72463 0
M  V30 2708 H 256.21 6.54064 -0.503575 0
M  V30 2709 H 256.127 7.27007 -2.07355 0
M  V30 2710 H 257.395 7.73336 -0.978336 0
M  V30 2711 N 261.624 0.925811 1.2754 0
M  V30 2712 C 262.852 0.581509 1.9856 0
M  V30 2713 C 263.267 -0.840041 1.69082 0
M  V30 2714 O 262.624 -1.55805 0.950312 0
M  V30 2715 C 262.675 0.795589 3.52637 0
M  V30 2716 O 262.396 2.16121 3.81082 0
M  V30 2717 C 263.897 0.459744 4.4091 0
M  V30 2718 H 261.117 0.220538 0.633722 0
M  V30 2719 H 263.661 1.24232 1.6244 0
M  V30 2720 H 261.816 0.18161 3.86974 0
M  V30 2721 H 262.23 2.2098 4.75676 0
M  V30 2722 H 263.704 0.660244 5.48037 0
M  V30 2723 H 264.181 -0.604625 4.35018 0
M  V30 2724 H 264.787 1.05178 4.12089 0
M  V30 2725 N 263.102 -1.41638 0.69111 0
M  V30 2726 C 264.032 -2.3347 0.037248 0
M  V30 2727 C 265.013 -1.51575 -0.771947 0
M  V30 2728 O 266.198 -1.80126 -0.72582 0
M  V30 2729 C 263.328 -3.35354 -0.903064 0
M  V30 2730 C 262.282 -4.27526 -0.201288 0
M  V30 2731 C 261.608 -5.19747 -1.25565 0
M  V30 2732 C 262.908 -5.13959 0.929689 0
M  V30 2733 H 264.602 -2.88397 0.804227 0
M  V30 2734 H 262.148 -1.38669 0.388189 0
M  V30 2735 H 264.101 -3.98519 -1.36969 0
M  V30 2736 H 262.825 -2.78767 -1.70166 0
M  V30 2737 H 261.484 -3.65779 0.245265 0
M  V30 2738 H 261.132 -4.59479 -2.04666 0
M  V30 2739 H 260.832 -5.8225 -0.791128 0
M  V30 2740 H 262.356 -5.85789 -1.72288 0
M  V30 2741 H 263.77 -5.70718 0.543546 0
M  V30 2742 H 262.167 -5.85379 1.32103 0
M  V30 2743 H 263.237 -4.51389 1.77133 0
M  V30 2744 N 264.58 -0.43555 -1.51462 0
M  V30 2745 C 265.512 0.41257 -2.25456 0
M  V30 2746 C 266.525 0.987822 -1.29406 0
M  V30 2747 O 267.714 0.882266 -1.55172 0
M  V30 2748 C 264.814 1.58894 -2.99342 0
M  V30 2749 C 263.987 1.13288 -4.22474 0
M  V30 2750 C 263.046 2.17917 -4.78956 0
M  V30 2751 O 262.072 1.77425 -5.40841 0
M  V30 2752 N 263.274 3.50382 -4.62832 0
M  V30 2753 H 266.039 -0.221603 -2.9888 0
M  V30 2754 H 263.6 -0.264342 -1.59727 0
M  V30 2755 H 265.592 2.28508 -3.34015 0
M  V30 2756 H 264.162 2.12849 -2.28941 0
M  V30 2757 H 263.382 0.263881 -3.93316 0
M  V30 2758 H 264.67 0.805542 -5.02383 0
M  V30 2759 H 264.068 3.86013 -4.13534 0
M  V30 2760 H 262.625 4.15895 -5.01871 0
M  V30 2761 N 266.058 1.56714 -0.166846 0
M  V30 2762 C 267.335 1.88412 0.525373 0
M  V30 2763 C 267.715 1.07602 1.81618 0
M  V30 2764 O 267.063 0.168621 2.27877 0
M  V30 2765 C 267.273 3.40363 0.771613 0
M  V30 2766 C 268.621 4.10007 1.1036 0
M  V30 2767 O 269.645 3.45655 0.860304 0
M  V30 2768 O 268.504 5.2369 1.56239 0
M  V30 2769 H 265.598 0.781587 0.270278 0
M  V30 2770 H 268.144 1.68458 -0.204946 0
M  V30 2771 H 266.916 3.91046 -0.141093 0
M  V30 2772 H 266.539 3.65914 1.55541 0
M  V30 2773 N 267.536 -0.106894 1.57237 0
M  V30 2774 C 268.466 -1.13148 2.04254 0
M  V30 2775 C 269.447 -1.42476 0.929224 0
M  V30 2776 O 270.632 -1.52709 1.19973 0
M  V30 2777 C 267.762 -2.4545 2.45706 0
M  V30 2778 C 266.716 -2.30558 3.60592 0
M  V30 2779 C 266.042 -3.67931 3.87983 0
M  V30 2780 C 267.342 -1.75597 4.91897 0
M  V30 2781 H 269.036 -0.740374 2.90101 0
M  V30 2782 H 266.582 -0.354696 1.39563 0
M  V30 2783 H 268.535 -3.17389 2.77205 0
M  V30 2784 H 267.259 -2.86475 1.56843 0
M  V30 2785 H 265.918 -1.61067 3.29322 0
M  V30 2786 H 265.566 -4.06462 2.96306 0
M  V30 2787 H 265.266 -3.58817 4.65322 0
M  V30 2788 H 266.79 -4.41356 4.21945 0
M  V30 2789 H 268.204 -2.37364 5.21854 0
M  V30 2790 H 266.601 -1.77272 5.73319 0
M  V30 2791 H 267.671 -0.714451 4.79608 0
M  V30 2792 N 269.014 -1.53014 -0.377408 0
M  V30 2793 C 270.26 -1.68872 -1.12294 0
M  V30 2794 C 270.593 -0.433224 -1.89306 0
M  V30 2795 O 269.868 0.569258 -1.85983 0
M  V30 2796 C 270.151 -2.93115 -2.09179 0
M  V30 2797 C 270.004 -4.28794 -1.35853 0
M  V30 2798 C 271.323 -3.12928 -3.09458 0
M  V30 2799 H 268.442 -0.614518 -0.406862 0
M  V30 2800 H 271.084 -1.85633 -0.40503 0
M  V30 2801 H 269.234 -2.78956 -2.70399 0
M  V30 2802 H 270.906 -4.54742 -0.775082 0
M  V30 2803 H 269.149 -4.28744 -0.660364 0
M  V30 2804 H 269.82 -5.11837 -2.06706 0
M  V30 2805 H 272.296 -3.26194 -2.58334 0
M  V30 2806 H 271.172 -4.01316 -3.74482 0
M  V30 2807 H 271.433 -2.27669 -3.78971 0
M  V30 2808 N 270.492 0.636531 -1.44174 0
M  V30 2809 C 271.722 1.42146 -1.49927 0
M  V30 2810 C 272.13 1.88812 -0.121063 0
M  V30 2811 O 271.473 1.61126 0.882267 0
M  V30 2812 C 271.535 2.67883 -2.39748 0
M  V30 2813 C 271.199 2.43048 -3.8701 0
M  V30 2814 C 272.196 2.05216 -4.77684 0
M  V30 2815 C 269.881 2.56856 -4.3166 0
M  V30 2816 C 271.875 1.81512 -6.11009 0
M  V30 2817 C 269.562 2.32766 -5.65034 0
M  V30 2818 C 270.56 1.95152 -6.54526 0
M  V30 2819 O 270.248 1.71326 -7.85431 0
M  V30 2820 H 269.98 0.442567 -0.51099 0
M  V30 2821 H 272.534 0.786158 -1.8976 0
M  V30 2822 H 270.764 3.34032 -1.94832 0
M  V30 2823 H 272.453 3.29874 -2.36513 0
M  V30 2824 H 273.219 1.94111 -4.44462 0
M  V30 2825 H 269.098 2.85104 -3.62266 0
M  V30 2826 H 272.642 1.52077 -6.80822 0
M  V30 2827 H 268.539 2.43479 -5.97819 0
M  V30 2828 H 269.307 1.85616 -7.97176 0
M  V30 2829 N 271.97 1.30982 0.876444 0
M  V30 2830 C 273.247 1.10942 1.61094 0
M  V30 2831 C 273.627 -0.338223 2.08373 0
M  V30 2832 O 272.975 -1.33122 1.85717 0
M  V30 2833 C 273.185 2.11789 2.77392 0
M  V30 2834 C 274.533 2.43965 3.47514 0
M  V30 2835 O 275.557 2.10166 2.87591 0
M  V30 2836 O 274.416 3.01817 4.55597 0
M  V30 2837 H 271.51 0.42667 0.708436 0
M  V30 2838 H 274.056 1.42438 0.922474 0
M  V30 2839 H 272.828 3.09194 2.39823 0
M  V30 2840 H 272.451 1.81161 3.5393 0
M  V30 2841 N 273.449 -1.08991 1.13837 0
M  V30 2842 C 274.379 -2.17771 0.842507 0
M  V30 2843 C 275.36 -1.6892 -0.20001 0
M  V30 2844 O 276.545 -1.94113 -0.0579731 0
M  V30 2845 C 273.675 -3.4589 0.312644 0
M  V30 2846 C 272.629 -4.08099 1.28992 0
M  V30 2847 C 271.955 -5.31098 0.619623 0
M  V30 2848 C 273.255 -4.50077 2.65005 0
M  V30 2849 H 274.949 -2.42777 1.75213 0
M  V30 2850 H 272.495 -1.16682 0.843875 0
M  V30 2851 H 274.448 -4.21297 0.0933043 0
M  V30 2852 H 273.172 -3.20419 -0.632382 0
M  V30 2853 H 271.831 -3.34717 1.49533 0
M  V30 2854 H 271.479 -5.0191 -0.33102 0
M  V30 2855 H 271.179 -5.73674 1.27167 0
M  V30 2856 H 272.703 -6.09224 0.409669 0
M  V30 2857 H 274.117 -5.16688 2.48407 0
M  V30 2858 H 272.514 -5.03553 3.26427 0
M  V30 2859 H 273.584 -3.62257 3.22332 0
M  V30 2860 N 274.927 -0.932562 -1.27047 0
M  V30 2861 C 276.152 -0.591474 -1.98787 0
M  V30 2862 C 276.577 0.824601 -1.69062 0
M  V30 2863 O 275.935 1.5541 -0.933677 0
M  V30 2864 C 275.983 -0.829808 -3.50922 0
M  V30 2865 O 275.087 0.102266 -4.12273 0
M  V30 2866 H 274.428 -0.227185 -0.623926 0
M  V30 2867 H 276.958 -1.25314 -1.61733 0
M  V30 2868 H 276.968 -0.747292 -4.01098 0
M  V30 2869 H 275.643 -1.86201 -3.7189 0
M  V30 2870 H 274.22 -0.0305761 -3.72887 0
M  V30 2871 N 276.405 1.4127 -0.698611 0
M  V30 2872 C 277.633 2.05503 -0.239992 0
M  V30 2873 C 278.048 1.52584 1.11191 0
M  V30 2874 O 277.405 0.675323 1.69545 0
M  V30 2875 C 277.456 3.60987 -0.192429 0
M  V30 2876 O 277.177 4.1195 -1.49094 0
M  V30 2877 C 278.678 4.42371 0.28681 0
M  V30 2878 H 275.898 0.661748 -0.111045 0
M  V30 2879 H 278.442 1.80987 -0.95205 0
M  V30 2880 H 276.597 3.84533 0.470472 0
M  V30 2881 H 277.011 5.06018 -1.38007 0
M  V30 2882 H 278.485 5.51344 0.26896 0
M  V30 2883 H 278.962 4.18699 1.32619 0
M  V30 2884 H 279.568 4.23897 -0.345201 0
M  V30 2885 N 277.883 0.443576 1.51229 0
M  V30 2886 C 279.108 -0.121648 2.07043 0
M  V30 2887 C 279.533 -1.35156 1.30823 0
M  V30 2888 O 278.891 -1.7793 0.347934 0
M  V30 2889 C 278.939 -0.41624 3.5819 0
M  V30 2890 O 278.043 -1.50163 3.8409 0
M  V30 2891 H 277.384 0.000871367 0.663999 0
M  V30 2892 H 279.914 0.626706 1.94765 0
M  V30 2893 H 279.924 -0.664867 4.02546 0
M  V30 2894 H 278.599 0.482653 4.1309 0
M  V30 2895 H 277.176 -1.24248 3.51592 0
M  V30 2896 N 279.361 -1.56624 0.175154 0
M  V30 2897 C 280.609 -1.96609 -0.467885 0
M  V30 2898 C 280.93 -1.06238 -1.63519 0
M  V30 2899 O 280.2 -0.129523 -1.95471 0
M  V30 2900 H 278.78 -0.726008 -0.175845 0
M  V30 2901 H 281.442 -1.93195 0.257234 0
M  V30 2902 H 280.538 -3.00989 -0.825342 0
M  V30 2903 N 280.839 0.0985539 -1.57292 0
M  V30 2904 C 282.064 0.820196 -1.90493 0
M  V30 2905 C 282.489 1.71658 -0.769094 0
M  V30 2906 O 281.847 1.79133 0.279495 0
M  V30 2907 C 281.895 1.61242 -3.22542 0
M  V30 2908 O 280.999 2.72108 -3.09888 0
M  V30 2909 H 280.34 0.225547 -0.62452 0
M  V30 2910 H 282.87 0.0748159 -2.04463 0
M  V30 2911 H 282.88 1.99737 -3.55766 0
M  V30 2912 H 281.555 0.954535 -4.04798 0
M  V30 2913 H 280.132 2.36667 -2.88172 0
M  V30 2914 N 282.317 1.53212 0.369288 0
M  V30 2915 C 283.565 1.68881 1.11012 0
M  V30 2916 C 283.886 0.441285 1.89941 0
M  V30 2917 O 283.156 -0.544623 1.88177 0
M  V30 2918 H 281.736 0.622569 0.412816 0
M  V30 2919 H 284.398 1.90391 0.416802 0
M  V30 2920 H 283.494 2.54822 1.80201 0
M  V30 2921 N 283.795 -0.628877 1.44509 0
M  V30 2922 C 285.02 -1.42048 1.5112 0
M  V30 2923 C 285.445 -1.87594 0.137818 0
M  V30 2924 O 284.803 -1.58873 -0.873437 0
M  V30 2925 C 284.851 -2.61541 2.48251 0
M  V30 2926 O 283.955 -3.61453 1.98559 0
M  V30 2927 H 283.296 -0.424942 0.510216 0
M  V30 2928 H 285.826 -0.767374 1.89664 0
M  V30 2929 H 285.836 -3.09057 2.66361 0
M  V30 2930 H 284.511 -2.27736 3.48007 0
M  V30 2931 H 283.088 -3.20731 1.90227 0
M  V30 2932 N 285.273 -1.31445 -0.869486 0
M  V30 2933 C 286.521 -1.20918 -1.61936 0
M  V30 2934 C 286.842 0.232683 -1.93607 0
M  V30 2935 O 286.112 1.15352 -1.58338 0
M  V30 2936 H 284.692 -0.44454 -0.600328 0
M  V30 2937 H 287.354 -1.64776 -1.0409 0
M  V30 2938 H 286.45 -1.78124 -2.56278 0
M  V30 2939 N 286.751 1.08385 -1.14413 0
M  V30 2940 C 287.681 2.17321 -0.854044 0
M  V30 2941 C 288.662 1.69024 0.191049 0
M  V30 2942 O 289.847 1.94141 0.0476779 0
M  V30 2943 C 286.977 3.45719 -0.330983 0
M  V30 2944 C 285.931 4.07409 -1.31155 0
M  V30 2945 C 285.257 5.30762 -0.64778 0
M  V30 2946 C 286.557 4.48665 -2.67388 0
M  V30 2947 H 288.251 2.41845 -1.76498 0
M  V30 2948 H 285.797 1.16233 -0.850051 0
M  V30 2949 H 287.75 4.21241 -0.115645 0
M  V30 2950 H 286.474 3.2075 0.615381 0
M  V30 2951 H 285.133 3.33919 -1.51306 0
M  V30 2952 H 284.781 5.02078 0.304398 0
M  V30 2953 H 284.481 5.72992 -1.30207 0
M  V30 2954 H 286.005 6.08998 -0.441972 0
M  V30 2955 H 287.419 5.15364 -2.51143 0
M  V30 2956 H 285.816 5.01814 -3.29093 0
M  V30 2957 H 286.886 3.60543 -3.24248 0
M  V30 2958 N 288.23 0.939286 1.26551 0
M  V30 2959 C 289.641 0.628782 1.75793 0
M  V30 2960 C 289.992 -0.856046 1.7654 0
M  V30 2961 O 289.117 -1.66994 1.3763 0
M  V30 2962 C 289.712 1.13465 3.19235 0
M  V30 2963 C 288.271 0.874601 3.66098 0
M  V30 2964 C 287.418 1.28667 2.45642 0
M  V30 2965 H 290.369 1.1178 1.12654 0
M  V30 2966 H 290.39 0.487609 3.77363 0
M  V30 2967 H 289.902 2.21535 3.1866 0
M  V30 2968 H 288.003 -0.191793 3.72106 0
M  V30 2969 H 288.116 1.50028 4.55004 0
M  V30 2970 H 286.48 0.705109 2.44745 0
M  V30 2971 H 287.263 2.37625 2.47769 0
M  V30 2972 N 289.708 -1.40897 0.706093 0
M  V30 2973 C 290.638 -2.33418 0.0620085 0
M  V30 2974 C 291.619 -1.52385 -0.755827 0
M  V30 2975 O 292.804 -1.80886 -0.706674 0
M  V30 2976 C 289.934 -3.36293 -0.867445 0
M  V30 2977 C 288.888 -4.27716 -0.155932 0
M  V30 2978 C 288.214 -5.2105 -1.20046 0
M  V30 2979 C 289.514 -5.12944 0.984149 0
M  V30 2980 H 291.208 -2.87527 0.83477 0
M  V30 2981 H 288.754 -1.38249 0.402875 0
M  V30 2982 H 290.707 -3.99949 -1.32735 0
M  V30 2983 H 289.431 -2.80556 -1.67199 0
M  V30 2984 H 288.09 -3.65498 0.284047 0
M  V30 2985 H 287.738 -4.61624 -1.99781 0
M  V30 2986 H 287.438 -5.83056 -0.729328 0
M  V30 2987 H 288.962 -5.87584 -1.66066 0
M  V30 2988 H 290.376 -5.70109 0.604048 0
M  V30 2989 H 288.773 -5.83945 1.38304 0
M  V30 2990 H 289.843 -4.49485 1.81911 0
M  V30 2991 N 291.186 -0.45159 -1.50991 0
M  V30 2992 C 292.433 0.110074 -2.02201 0
M  V30 2993 C 292.761 1.4146 -1.33489 0
M  V30 2994 O 292.016 1.90617 -0.443125 0
M  V30 2995 C 292.315 0.361728 -3.55565 0
M  V30 2996 C 291.981 -0.858717 -4.42648 0
M  V30 2997 C 290.643 -1.19338 -4.66167 0
M  V30 2998 C 292.995 -1.67221 -4.93646 0
M  V30 2999 C 290.323 -2.34195 -5.37931 0
M  V30 3000 C 292.675 -2.8119 -5.6667 0
M  V30 3001 C 291.339 -3.15094 -5.88449 0
M  V30 3002 H 290.609 0.040279 -0.739904 0
M  V30 3003 H 293.256 -0.601696 -1.81802 0
M  V30 3004 H 291.561 1.15554 -3.74372 0
M  V30 3005 H 293.258 0.80996 -3.92735 0
M  V30 3006 H 289.848 -0.58796 -4.24548 0
M  V30 3007 H 294.032 -1.42686 -4.75347 0
M  V30 3008 H 289.288 -2.6076 -5.53005 0
M  V30 3009 H 293.462 -3.44585 -6.05173 0
M  V30 3010 H 291.089 -4.04204 -6.43835 0
M  V30 3011 N 292.664 1.56529 -0.183458 0
M  V30 3012 C 293.91 1.97537 0.459036 0
M  V30 3013 C 294.243 1.06989 1.62071 0
M  V30 3014 O 293.518 0.11948 1.94133 0
M  V30 3015 C 293.801 3.47874 0.930368 0
M  V30 3016 C 293.654 4.492 -0.232317 0
M  V30 3017 C 294.973 4.01612 1.79989 0
M  V30 3018 H 292.092 0.718204 0.165383 0
M  V30 3019 H 294.734 1.88042 -0.272038 0
M  V30 3020 H 292.884 3.56095 1.55333 0
M  V30 3021 H 294.556 4.53027 -0.86972 0
M  V30 3022 H 292.799 4.24657 -0.885928 0
M  V30 3023 H 293.47 5.51823 0.139796 0
M  V30 3024 H 295.946 3.96097 1.27461 0
M  V30 3025 H 294.822 5.07195 2.09867 0
M  V30 3026 H 295.083 3.46163 2.74998 0
M  V30 3027 N 294.142 -0.090211 1.57342 0
M  V30 3028 C 295.074 -1.13541 1.99101 0
M  V30 3029 C 296.087 -1.3604 0.894258 0
M  V30 3030 O 297.276 -1.34606 1.17233 0
M  V30 3031 C 294.376 -2.49001 2.29895 0
M  V30 3032 C 293.549 -2.46712 3.61182 0
M  V30 3033 C 292.608 -3.64136 3.79857 0
M  V30 3034 O 291.634 -3.46405 4.51655 0
M  V30 3035 N 292.836 -4.83802 3.20806 0
M  V30 3036 H 295.601 -0.779942 2.89373 0
M  V30 3037 H 293.162 -0.279125 1.59476 0
M  V30 3038 H 295.154 -3.26166 2.39578 0
M  V30 3039 H 293.724 -2.76619 1.45605 0
M  V30 3040 H 292.944 -1.55058 3.62423 0
M  V30 3041 H 294.232 -2.42265 4.4742 0
M  V30 3042 H 293.63 -5.01112 2.62494 0
M  V30 3043 H 292.187 -5.58543 3.35966 0
M  V30 3044 N 295.62 -1.53406 -0.361157 0
M  V30 3045 C 297.036 -1.43277 -0.703124 0
M  V30 3046 C 297.236 -0.575384 -1.9311 0
M  V30 3047 O 296.292 -0.0595362 -2.5243 0
M  V30 3048 C 297.605 -2.8653 -0.9122 0
M  V30 3049 C 299.153 -2.96191 -1.01193 0
M  V30 3050 C 299.628 -4.40514 -1.25345 0
M  V30 3051 N 301.119 -4.43962 -1.32105 0
M  V30 3052 C 301.854 -5.52746 -1.5251 0
M  V30 3053 N 301.35 -6.71567 -1.70203 0
M  V30 3054 N 303.143 -5.40331 -1.54916 0
M  V30 3055 H 295.294 -2.07654 0.446475 0
M  V30 3056 H 297.557 -0.937944 0.137715 0
M  V30 3057 H 297.263 -3.51605 -0.0816414 0
M  V30 3058 H 297.137 -3.30441 -1.81903 0
M  V30 3059 H 299.524 -2.31266 -1.83303 0
M  V30 3060 H 299.605 -2.55667 -0.0823929 0
M  V30 3061 H 299.249 -5.06014 -0.437346 0
M  V30 3062 H 299.179 -4.78614 -2.19627 0
M  V30 3063 H 301.67 -3.58332 -1.20028 0
M  V30 3064 H 301.983 -7.50241 -1.85359 0
M  V30 3065 H 300.328 -6.74545 -1.67373 0
M  V30 3066 H 303.519 -4.46465 -1.40663 0
M  V30 3067 H 303.692 -6.25173 -1.70477 0
M  V30 3068 N 297.098 0.621204 -1.44841 0
M  V30 3069 C 298.326 1.40752 -1.51646 0
M  V30 3070 C 298.741 1.88246 -0.144549 0
M  V30 3071 O 298.098 1.61422 0.851416 0
M  V30 3072 C 298.149 2.62119 -2.4895 0
M  V30 3073 O 297.87 2.16602 -3.80808 0
M  V30 3074 C 299.371 3.55135 -2.65319 0
M  V30 3075 H 296.591 0.431325 -0.514004 0
M  V30 3076 H 299.135 0.758835 -1.899 0
M  V30 3077 H 297.29 3.23058 -2.13805 0
M  V30 3078 H 297.704 2.95358 -4.33433 0
M  V30 3079 H 299.178 4.36874 -3.37409 0
M  V30 3080 H 299.655 4.04592 -1.70886 0
M  V30 3081 H 300.261 3.00058 -3.01405 0
M  V30 3082 N 298.576 1.31904 0.862503 0
M  V30 3083 C 299.822 1.22197 1.61851 0
M  V30 3084 C 300.155 -0.217641 1.92977 0
M  V30 3085 O 299.43 -1.15264 1.56666 0
M  V30 3086 C 299.713 2.07378 2.94391 0
M  V30 3087 C 299.566 3.59678 2.70096 0
M  V30 3088 C 300.885 1.92891 3.95577 0
M  V30 3089 H 298.004 0.445255 0.587296 0
M  V30 3090 H 300.646 1.6177 0.99651 0
M  V30 3091 H 298.796 1.73758 3.47477 0
M  V30 3092 H 300.468 4.03472 2.23625 0
M  V30 3093 H 298.711 3.82735 2.04197 0
M  V30 3094 H 299.382 4.14595 3.64438 0
M  V30 3095 H 301.858 2.22327 3.51724 0
M  V30 3096 H 300.734 2.54781 4.86187 0
M  V30 3097 H 300.995 0.894315 4.3296 0
M  V30 3098 N 300.054 -1.07777 1.14986 0
M  V30 3099 C 301.017 -2.13041 0.845358 0
M  V30 3100 C 302.017 -1.60071 -0.152931 0
M  V30 3101 O 303.207 -1.74033 0.0761879 0
M  V30 3102 C 300.339 -3.39896 0.261383 0
M  V30 3103 H 301.532 -2.41485 1.77834 0
M  V30 3104 H 299.085 -1.23595 0.956757 0
M  V30 3105 H 299.82 -3.17091 -0.68 0
M  V30 3106 H 299.605 -3.79642 0.980514 0
M  V30 3107 H 301.095 -4.17548 0.0657687 0
M  V30 3108 N 301.532 -0.945985 -1.26051 0
M  V30 3109 C 302.948 -0.649045 -1.45807 0
M  V30 3110 C 303.148 0.796158 -1.85104 0
M  V30 3111 O 302.204 1.57233 -1.97571 0
M  V30 3112 C 303.517 -1.61458 -2.53677 0
M  V30 3113 C 305.065 -1.62481 -2.67524 0
M  V30 3114 C 305.54 -2.57776 -3.7857 0
M  V30 3115 N 307.031 -2.5609 -3.85969 0
M  V30 3116 C 307.766 -3.26508 -4.7136 0
M  V30 3117 N 307.262 -4.0637 -5.61102 0
M  V30 3118 N 309.055 -3.15437 -4.65248 0
M  V30 3119 H 301.206 -1.88005 -0.988328 0
M  V30 3120 H 303.469 -0.808198 -0.4955 0
M  V30 3121 H 303.175 -2.64644 -2.31638 0
M  V30 3122 H 303.049 -1.37036 -3.51427 0
M  V30 3123 H 305.436 -0.600167 -2.88933 0
M  V30 3124 H 305.517 -1.90958 -1.70202 0
M  V30 3125 H 305.161 -3.60361 -3.57913 0
M  V30 3126 H 305.091 -2.26587 -4.75359 0
M  V30 3127 H 307.582 -1.98105 -3.21812 0
M  V30 3128 H 307.895 -4.57042 -6.23164 0
M  V30 3129 H 306.24 -4.10469 -5.60839 0
M  V30 3130 H 309.431 -2.52525 -3.94143 0
M  V30 3131 H 309.604 -3.70584 -5.31575 0
M  V30 3132 N 303.011 1.40521 -0.713556 0
M  V30 3133 C 304.239 2.05237 -0.261775 0
M  V30 3134 C 304.654 1.53755 1.09567 0
M  V30 3135 O 304.011 0.693268 1.6882 0
M  V30 3136 C 304.062 3.60763 -0.230706 0
M  V30 3137 O 303.783 4.10345 -1.53455 0
M  V30 3138 C 305.284 4.42651 0.239874 0
M  V30 3139 H 302.504 0.660533 -0.118057 0
M  V30 3140 H 305.048 1.79967 -0.971192 0
M  V30 3141 H 303.203 3.8501 0.429661 0
M  V30 3142 H 303.617 5.04526 -1.43366 0
M  V30 3143 H 305.091 5.51599 0.210468 0
M  V30 3144 H 305.568 4.20082 1.28171 0
M  V30 3145 H 306.174 4.23507 -0.390142 0
M  V30 3146 N 304.489 0.459591 1.5075 0
M  V30 3147 C 305.738 -0.100971 2.01447 0
M  V30 3148 C 306.051 -1.41816 1.34713 0
M  V30 3149 O 307.257 -2.06299 1.76502 0
M  V30 3150 C 305.713 -0.23047 3.59161 0
M  V30 3151 C 305.321 1.0776 4.34847 0
M  V30 3152 C 307.065 -0.743608 4.17936 0
M  V30 3153 C 304.972 0.91253 5.84317 0
M  V30 3154 H 303.902 -0.0415102 0.752856 0
M  V30 3155 H 306.553 0.592742 1.73663 0
M  V30 3156 H 304.935 -0.987703 3.83485 0
M  V30 3157 H 306.109 1.8449 4.22256 0
M  V30 3158 H 304.424 1.52097 3.87628 0
M  V30 3159 H 307.021 -0.883959 5.27343 0
M  V30 3160 H 307.364 -1.73196 3.78562 0
M  V30 3161 H 307.897 -0.04408 3.97776 0
M  V30 3162 H 304.636 1.87391 6.28144 0
M  V30 3163 H 304.156 0.185422 5.99513 0
M  V30 3164 H 305.835 0.574547 6.44444 0
M  V30 3165 N 305.967 -1.56429 0.191757 0
M  V30 3166 C 307.213 -1.97777 -0.448554 0
M  V30 3167 C 307.546 -1.07847 -1.61501 0
M  V30 3168 O 306.821 -0.129774 -1.94067 0
M  V30 3169 C 307.104 -3.48362 -0.911906 0
M  V30 3170 C 306.957 -4.4907 0.256136 0
M  V30 3171 C 308.276 -4.02561 -1.77857 0
M  V30 3172 H 305.395 -0.719071 -0.161572 0
M  V30 3173 H 308.037 -1.87896 0.282007 0
M  V30 3174 H 306.187 -3.56914 -1.53442 0
M  V30 3175 H 307.859 -4.5256 0.893733 0
M  V30 3176 H 306.102 -4.24181 0.908436 0
M  V30 3177 H 306.773 -5.51889 -0.11053 0
M  V30 3178 H 309.249 -3.96767 -1.25359 0
M  V30 3179 H 308.125 -5.08301 -2.07174 0
M  V30 3180 H 308.386 -3.47616 -2.73158 0
M  V30 3181 N 307.445 0.0818655 -1.57387 0
M  V30 3182 C 308.375 1.09885 -2.06028 0
M  V30 3183 C 309.356 1.4098 -0.951774 0
M  V30 3184 O 310.541 1.50781 -1.22387 0
M  V30 3185 C 307.671 2.4151 -2.4958 0
M  V30 3186 C 306.625 2.24792 -3.64215 0
M  V30 3187 C 305.951 3.61712 -3.93787 0
M  V30 3188 C 307.251 1.67749 -4.94629 0
M  V30 3189 H 308.945 0.694128 -2.91243 0
M  V30 3190 H 306.491 0.332448 -1.4011 0
M  V30 3191 H 308.444 3.12939 -2.82219 0
M  V30 3192 H 307.168 2.83943 -1.61381 0
M  V30 3193 H 305.827 1.55807 -3.31843 0
M  V30 3194 H 305.475 4.01697 -3.02735 0
M  V30 3195 H 305.175 3.51368 -4.70971 0
M  V30 3196 H 306.699 4.34587 -4.28913 0
M  V30 3197 H 308.113 2.29032 -5.25564 0
M  V30 3198 H 306.51 1.68128 -5.76067 0
M  V30 3199 H 307.58 0.638059 -4.80684 0
M  V30 3200 N 308.923 1.53595 0.353017 0
M  V30 3201 C 309.855 1.77219 1.45348 0
M  V30 3202 C 310.868 0.65324 1.49119 0
M  V30 3203 O 312.057 0.929775 1.52373 0
M  V30 3204 C 309.157 1.84841 2.84055 0
M  V30 3205 C 308.33 3.14649 3.03833 0
M  V30 3206 C 307.389 3.13351 4.22727 0
M  V30 3207 O 306.415 3.87107 4.17297 0
M  V30 3208 N 307.617 2.35052 5.30783 0
M  V30 3209 H 310.382 2.72178 1.25457 0
M  V30 3210 H 307.943 1.52528 0.542833 0
M  V30 3211 H 309.935 1.81435 3.61751 0
M  V30 3212 H 308.505 0.971114 2.97133 0
M  V30 3213 H 307.725 3.31256 2.13689 0
M  V30 3214 H 309.013 4.00411 3.13925 0
M  V30 3215 H 308.411 1.74663 5.38061 0
M  V30 3216 H 306.968 2.37453 6.07009 0
M  V30 3217 N 310.401 -0.613514 1.45168 0
M  V30 3218 C 311.311 -1.75296 1.55912 0
M  V30 3219 C 312.327 -1.68244 0.443856 0
M  V30 3220 O 313.503 -1.88706 0.70371 0
M  V30 3221 C 310.568 -3.1174 1.5172 0
M  V30 3222 C 309.629 -3.30291 2.74238 0
M  V30 3223 C 308.862 -4.60226 2.70236 0
M  V30 3224 O 309.085 -5.42168 1.77229 0
M  V30 3225 O 308.019 -4.81361 3.61352 0
M  V30 3226 H 311.845 -1.69183 2.52212 0
M  V30 3227 H 309.43 -0.776886 1.27612 0
M  V30 3228 H 311.312 -3.93044 1.51968 0
M  V30 3229 H 309.987 -3.18357 0.585697 0
M  V30 3230 H 308.894 -2.48598 2.79553 0
M  V30 3231 H 310.227 -3.28547 3.66494 0
M  V30 3232 N 311.879 -1.3236 -0.855495 0
M  V30 3233 C 313.128 -1.22226 -1.60448 0
M  V30 3234 C 313.441 0.214733 -1.94418 0
M  V30 3235 O 314.647 0.437917 -2.67945 0
M  V30 3236 C 313.103 -2.14063 -2.89318 0
M  V30 3237 C 312.711 -3.62839 -2.62777 0
M  V30 3238 C 314.455 -2.12764 -3.67331 0
M  V30 3239 C 312.362 -4.4664 -3.87643 0
M  V30 3240 H 311.292 -0.453904 -0.602069 0
M  V30 3241 H 313.943 -1.57314 -0.944698 0
M  V30 3242 H 312.325 -1.71889 -3.5675 0
M  V30 3243 H 313.499 -4.1335 -2.03662 0
M  V30 3244 H 311.814 -3.66261 -1.98096 0
M  V30 3245 H 314.411 -2.72611 -4.59987 0
M  V30 3246 H 314.754 -1.11841 -4.00995 0
M  V30 3247 H 315.287 -2.53214 -3.06802 0
M  V30 3248 H 312.026 -5.48373 -3.5912 0
M  V30 3249 H 311.546 -4.0088 -4.46156 0
M  V30 3250 H 313.225 -4.59597 -4.55389 0
M  V30 3251 N 313.357 1.07166 -1.15556 0
M  V30 3252 C 314.606 1.79181 -0.926132 0
M  V30 3253 C 314.919 1.87768 0.547967 0
M  V30 3254 O 316.125 2.56323 0.895036 0
M  V30 3255 C 314.581 3.22 -1.60761 0
M  V30 3256 C 314.189 3.21607 -3.11886 0
M  V30 3257 C 315.933 3.9861 -1.4598 0
M  V30 3258 C 313.84 4.59092 -3.72812 0
M  V30 3259 H 312.77 0.67154 -0.342856 0
M  V30 3260 H 315.421 1.2027 -1.3859 0
M  V30 3261 H 313.803 3.81115 -1.07553 0
M  V30 3262 H 314.977 2.72127 -3.71865 0
M  V30 3263 H 313.292 2.58495 -3.2645 0
M  V30 3264 H 315.889 5.00225 -1.88888 0
M  V30 3265 H 316.232 4.143 -0.407541 0
M  V30 3266 H 316.765 3.45996 -1.96295 0
M  V30 3267 H 313.504 4.48606 -4.77946 0
M  V30 3268 H 313.024 5.08803 -3.17616 0
M  V30 3269 H 314.703 5.28059 -3.73848 0
M  V30 3270 N 314.835 0.952656 1.25548 0
M  V30 3271 C 316.083 0.605176 1.92826 0
M  V30 3272 C 316.404 -0.860261 1.74999 0
M  V30 3273 O 315.674 -1.6125 1.11244 0
M  V30 3274 H 314.254 0.220832 0.713612 0
M  V30 3275 H 316.916 1.21047 1.52754 0
M  V30 3276 H 316.012 0.832798 3.00784 0
M  V30 3277 N 316.313 -1.40141 0.720998 0
M  V30 3278 C 317.26 -2.30688 0.071919 0
M  V30 3279 C 318.23 -1.48476 -0.744584 0
M  V30 3280 O 319.415 -1.77201 -0.707423 0
M  V30 3281 C 316.555 -3.34724 -0.839855 0
M  V30 3282 C 315.668 -4.31998 -0.0122438 0
M  V30 3283 C 314.803 -5.23102 -0.923995 0
M  V30 3284 C 313.842 -6.12033 -0.0907969 0
M  V30 3285 N 312.979 -6.95537 -0.957718 0
M  V30 3286 H 317.819 -2.85628 0.849755 0
M  V30 3287 H 315.356 -1.40653 0.430726 0
M  V30 3288 H 317.314 -3.93618 -1.38279 0
M  V30 3289 H 315.944 -2.81274 -1.58381 0
M  V30 3290 H 314.996 -3.74841 0.64794 0
M  V30 3291 H 316.308 -4.94772 0.632595 0
M  V30 3292 H 315.462 -5.86953 -1.53527 0
M  V30 3293 H 314.201 -4.60615 -1.60264 0
M  V30 3294 H 313.206 -5.47207 0.533377 0
M  V30 3295 H 314.431 -6.76581 0.584428 0
M  V30 3296 H 312.377 -6.35633 -1.62192 0
M  V30 3297 H 312.294 -7.55099 -0.36904 0
M  V30 3298 H 313.562 -7.63832 -1.555 0
M  V30 3299 N 317.792 -0.46758 -1.50504 0
M  V30 3300 C 319.04 0.0884469 -2.01906 0
M  V30 3301 C 319.361 1.40532 -1.35188 0
M  V30 3302 O 318.631 1.89515 -0.496079 0
M  V30 3303 H 317.211 0.0356765 -0.746148 0
M  V30 3304 H 319.873 -0.6172 -1.84869 0
M  V30 3305 H 318.969 0.2425 -3.11156 0
M  V30 3306 N 319.27 1.56325 -0.20005 0
M  V30 3307 C 320.686 1.58839 0.155716 0
M  V30 3308 C 320.886 1.21636 1.60645 0
M  V30 3309 O 319.942 0.941437 2.34293 0
M  V30 3310 C 321.255 3.0032 -0.151124 0
M  V30 3311 C 322.803 3.12866 -0.0916284 0
M  V30 3312 C 323.278 4.56488 -0.371845 0
M  V30 3313 N 324.769 4.62089 -0.320641 0
M  V30 3314 C 325.504 5.71116 -0.511243 0
M  V30 3315 N 325 6.88592 -0.762461 0
M  V30 3316 N 326.793 5.60335 -0.445157 0
M  V30 3317 H 318.944 1.78788 -1.14668 0
M  V30 3318 H 321.207 0.829996 -0.458051 0
M  V30 3319 H 320.913 3.32117 -1.15721 0
M  V30 3320 H 320.787 3.73257 0.543986 0
M  V30 3321 H 323.174 2.80878 0.905065 0
M  V30 3322 H 323.255 2.42304 -0.81989 0
M  V30 3323 H 322.899 4.89189 -1.36588 0
M  V30 3324 H 322.829 5.25246 0.377362 0
M  V30 3325 H 325.32 3.77665 -0.13329 0
M  V30 3326 H 325.633 7.67581 -0.896576 0
M  V30 3327 H 323.978 6.90387 -0.799412 0
M  V30 3328 H 327.169 4.67436 -0.249278 0
M  V30 3329 H 327.342 6.45243 -0.597116 0
M  V30 3330 N 320.748 -0.0735177 1.57428 0
M  V30 3331 C 321.995 -0.772999 1.87166 0
M  V30 3332 C 322.323 -1.77665 0.791551 0
M  V30 3333 O 321.578 -1.94541 -0.212636 0
M  V30 3334 C 321.877 -1.51799 3.23561 0
M  V30 3335 C 321.543 -0.654484 4.46125 0
M  V30 3336 C 320.205 -0.416511 4.79394 0
M  V30 3337 C 322.557 -0.0555862 5.2117 0
M  V30 3338 C 319.885 0.429869 5.85123 0
M  V30 3339 C 322.237 0.778239 6.27795 0
M  V30 3340 C 320.901 1.0261 6.59566 0
M  V30 3341 H 320.171 -0.282861 0.684888 0
M  V30 3342 H 322.818 -0.0338272 1.9147 0
M  V30 3343 H 321.123 -2.32932 3.1504 0
M  V30 3344 H 322.82 -2.06397 3.43804 0
M  V30 3345 H 319.41 -0.850091 4.20085 0
M  V30 3346 H 323.594 -0.226558 4.95783 0
M  V30 3347 H 318.85 0.630665 6.08139 0
M  V30 3348 H 323.024 1.24906 6.85107 0
M  V30 3349 H 320.651 1.68371 7.4132 0
M  V30 3350 N 322.226 -1.5378 -0.344866 0
M  V30 3351 C 323.474 -1.70625 -1.08311 0
M  V30 3352 C 323.795 -0.471447 -1.89215 0
M  V30 3353 O 323.065 0.514616 -1.8902 0
M  V30 3354 H 321.645 -0.629058 -0.402859 0
M  V30 3355 H 324.307 -1.9103 -0.386459 0
M  V30 3356 H 323.403 -2.57656 -1.76124 0
M  V30 3357 N 323.704 0.605807 -1.45491 0
M  V30 3358 C 324.614 1.74466 -1.56839 0
M  V30 3359 C 325.63 1.68006 -0.452772 0
M  V30 3360 O 326.806 1.8833 -0.713708 0
M  V30 3361 C 323.871 3.10931 -1.53371 0
M  V30 3362 C 322.932 3.28832 -2.75986 0
M  V30 3363 C 322.165 4.58787 -2.72673 0
M  V30 3364 O 322.388 5.4122 -1.80102 0
M  V30 3365 O 321.322 4.79438 -3.63899 0
M  V30 3366 H 325.148 1.67843 -2.53106 0
M  V30 3367 H 322.733 0.770108 -1.28022 0
M  V30 3368 H 324.615 3.92233 -1.54051 0
M  V30 3369 H 323.29 3.18042 -0.602572 0
M  V30 3370 H 322.197 2.47112 -2.80867 0
M  V30 3371 H 323.53 3.26599 -3.68231 0
M  V30 3372 N 325.182 1.32811 0.848464 0
M  V30 3373 C 326.428 1.23907 1.60546 0
M  V30 3374 C 326.761 -0.197161 1.93197 0
M  V30 3375 O 326.036 -1.13596 1.5788 0
M  V30 3376 C 326.319 2.10489 2.92175 0
M  V30 3377 C 326.172 3.62522 2.66266 0
M  V30 3378 C 327.491 1.97075 3.93509 0
M  V30 3379 H 324.61 0.451459 0.58254 0
M  V30 3380 H 327.252 1.62818 0.979296 0
M  V30 3381 H 325.402 1.77434 3.45614 0
M  V30 3382 H 327.074 4.05821 2.19334 0
M  V30 3383 H 325.317 3.84879 2.00126 0
M  V30 3384 H 325.988 4.18437 3.6002 0
M  V30 3385 H 328.464 2.26045 3.49346 0
M  V30 3386 H 327.34 2.59923 4.83457 0
M  V30 3387 H 327.601 0.940186 4.31987 0
M  V30 3388 N 326.66 -1.06551 1.16123 0
M  V30 3389 C 327.906 -1.79719 0.952505 0
M  V30 3390 C 328.261 -1.85396 -0.514385 0
M  V30 3391 O 327.554 -1.33263 -1.37665 0
M  V30 3392 C 327.748 -3.23911 1.51052 0
M  V30 3393 C 327.577 -3.32284 3.03013 0
M  V30 3394 C 326.347 -3.42371 3.71632 0
M  V30 3395 C 328.545 -3.22363 4.00732 0
M  V30 3396 N 326.527 -3.39732 5.11327 0
M  V30 3397 C 327.898 -3.26937 5.26794 0
M  V30 3398 C 329.953 -3.0623 3.92591 0
M  V30 3399 C 328.656 -3.17035 6.45663 0
M  V30 3400 C 330.682 -2.97665 5.11028 0
M  V30 3401 C 330.044 -3.02858 6.35969 0
M  V30 3402 H 326.143 -0.670585 0.402293 0
M  V30 3403 H 328.727 -1.27125 1.4747 0
M  V30 3404 H 326.898 -3.74907 1.01484 0
M  V30 3405 H 328.63 -3.85242 1.2398 0
M  V30 3406 H 325.385 -3.47058 3.22254 0
M  V30 3407 H 325.809 -3.41919 5.84312 0
M  V30 3408 H 330.451 -3.01063 2.96852 0
M  V30 3409 H 328.169 -3.2096 7.41627 0
M  V30 3410 H 331.755 -2.86273 5.06497 0
M  V30 3411 H 330.635 -2.96286 7.26075 0
M  V30 3412 N 328.138 -0.959301 -1.25041 0
M  V30 3413 C 329.554 -0.664474 -1.4511 0
M  V30 3414 C 329.754 0.776481 -1.85938 0
M  V30 3415 O 328.81 1.55128 -1.99227 0
M  V30 3416 C 330.123 -1.64139 -2.5195 0
M  V30 3417 C 331.671 -1.65309 -2.65786 0
M  V30 3418 C 332.146 -2.61777 -3.75815 0
M  V30 3419 N 333.637 -2.60169 -3.83231 0
M  V30 3420 C 334.372 -3.31489 -4.6787 0
M  V30 3421 N 333.868 -4.12298 -5.56761 0
M  V30 3422 N 335.661 -3.20354 -4.61876 0
M  V30 3423 H 327.812 -1.89043 -0.968332 0
M  V30 3424 H 330.075 -0.813408 -0.4869 0
M  V30 3425 H 329.781 -2.67086 -2.28819 0
M  V30 3426 H 329.655 -1.40756 -3.49954 0
M  V30 3427 H 332.042 -0.630778 -2.8828 0
M  V30 3428 H 332.123 -1.92753 -1.68167 0
M  V30 3429 H 331.767 -3.64137 -3.54071 0
M  V30 3430 H 331.697 -2.31616 -4.72929 0
M  V30 3431 H 334.188 -2.01507 -3.19692 0
M  V30 3432 H 334.501 -4.63625 -6.18281 0
M  V30 3433 H 332.846 -4.16395 -5.56454 0
M  V30 3434 H 336.037 -2.56692 -3.91442 0
M  V30 3435 H 336.21 -3.76201 -5.27614 0
M  V30 3436 N 329.616 1.39756 -0.72842 0
M  V30 3437 C 330.864 2.00248 -0.272946 0
M  V30 3438 C 331.185 1.58077 1.14178 0
M  V30 3439 O 330.455 0.826014 1.77634 0
M  V30 3440 H 329.035 0.740554 -0.0979247 0
M  V30 3441 H 331.697 1.70903 -0.936912 0
M  V30 3442 H 330.793 3.10495 -0.316142 0
M  V30 3443 N 331.094 0.475555 1.50254 0
M  V30 3444 C 332.51 0.12997 1.5907 0
M  V30 3445 C 332.71 -1.36385 1.48328 0
M  V30 3446 O 331.766 -2.13754 1.34407 0
M  V30 3447 C 333.079 0.684139 2.92814 0
M  V30 3448 C 334.627 0.647965 3.0622 0
M  V30 3449 C 335.102 1.17975 4.42545 0
M  V30 3450 N 336.593 1.13936 4.48969 0
M  V30 3451 C 337.328 1.52129 5.52851 0
M  V30 3452 N 336.824 1.97793 6.63965 0
M  V30 3453 N 338.617 1.43704 5.4342 0
M  V30 3454 H 330.768 1.44706 1.55479 0
M  V30 3455 H 333.031 0.598691 0.735033 0
M  V30 3456 H 332.737 1.73079 3.06164 0
M  V30 3457 H 332.611 0.130204 3.76975 0
M  V30 3458 H 334.998 -0.38979 2.92514 0
M  V30 3459 H 335.079 1.23876 2.23805 0
M  V30 3460 H 334.723 2.21616 4.57 0
M  V30 3461 H 334.653 0.565138 5.23559 0
M  V30 3462 H 337.144 0.804488 3.69238 0
M  V30 3463 H 337.457 2.25072 7.39299 0
M  V30 3464 H 335.802 2.01749 6.65073 0
M  V30 3465 H 338.993 1.07867 4.55502 0
M  V30 3466 H 339.166 1.73794 6.24259 0
M  V30 3467 N 332.573 -1.56217 0.208337 0
M  V30 3468 C 333.819 -1.98998 -0.42086 0
M  V30 3469 C 334.174 -1.09331 -1.58317 0
M  V30 3470 O 333.467 -0.140466 -1.91084 0
M  V30 3471 C 333.661 -3.45441 -0.916797 0
M  V30 3472 C 333.49 -4.49273 0.195925 0
M  V30 3473 C 332.26 -5.00998 0.657956 0
M  V30 3474 C 334.458 -5.04294 1.00956 0
M  V30 3475 N 332.44 -5.88514 1.74712 0
M  V30 3476 C 333.811 -5.88607 1.94785 0
M  V30 3477 C 335.866 -4.86692 1.05049 0
M  V30 3478 C 334.569 -6.572 2.9237 0
M  V30 3479 C 336.595 -5.56034 2.01446 0
M  V30 3480 C 335.957 -6.40105 2.94016 0
M  V30 3481 H 332.056 -0.772574 -0.121048 0
M  V30 3482 H 334.64 -1.92101 0.317075 0
M  V30 3483 H 332.811 -3.52812 -1.62413 0
M  V30 3484 H 334.543 -3.75164 -1.51771 0
M  V30 3485 H 331.298 -4.72945 0.248912 0
M  V30 3486 H 331.722 -6.36975 2.2933 0
M  V30 3487 H 336.364 -4.21359 0.348759 0
M  V30 3488 H 334.082 -7.21723 3.63512 0
M  V30 3489 H 337.668 -5.44385 2.0527 0
M  V30 3490 H 336.548 -6.92816 3.6739 0
M  V30 3491 N 334.051 0.0651679 -1.57465 0
M  V30 3492 C 335.467 0.420105 -1.53972 0
M  V30 3493 C 335.667 1.78782 -0.929474 0
M  V30 3494 O 334.723 2.46771 -0.534839 0
M  V30 3495 C 336.036 0.355084 -2.98596 0
M  V30 3496 C 337.584 0.434792 -3.09965 0
M  V30 3497 C 338.059 0.399609 -4.56253 0
M  V30 3498 N 339.55 0.459488 -4.60915 0
M  V30 3499 C 340.285 0.454584 -5.71595 0
M  V30 3500 N 339.781 0.404102 -6.9162 0
M  V30 3501 N 341.574 0.501635 -5.59857 0
M  V30 3502 H 333.725 -0.830328 -1.95498 0
M  V30 3503 H 335.988 -0.312244 -0.895102 0
M  V30 3504 H 335.694 -0.583357 -3.46828 0
M  V30 3505 H 335.568 1.16275 -3.58831 0
M  V30 3506 H 337.955 1.36366 -2.61703 0
M  V30 3507 H 338.036 -0.40157 -2.52628 0
M  V30 3508 H 337.68 -0.525436 -5.05175 0
M  V30 3509 H 337.61 1.25359 -5.11461 0
M  V30 3510 H 340.101 0.502482 -3.74544 0
M  V30 3511 H 340.414 0.404468 -7.71741 0
M  V30 3512 H 338.759 0.37069 -6.94011 0
M  V30 3513 H 341.95 0.538812 -4.64989 0
M  V30 3514 H 342.123 0.494345 -6.46112 0
M  V30 3515 N 335.529 1.53961 0.336706 0
M  V30 3516 C 336.777 1.71197 1.07405 0
M  V30 3517 C 337.098 0.481475 1.88962 0
M  V30 3518 O 336.368 -0.504585 1.8929 0
M  V30 3519 H 334.948 0.631185 0.399517 0
M  V30 3520 H 337.61 1.91232 0.376323 0
M  V30 3521 H 336.706 2.58587 1.74755 0
M  V30 3522 N 337.007 -0.598083 1.45811 0
M  V30 3523 C 338.255 -1.35413 1.50026 0
M  V30 3524 C 338.576 -1.94444 0.147177 0
M  V30 3525 O 337.846 -1.77701 -0.824571 0
M  V30 3526 H 336.426 -0.502727 0.552517 0
M  V30 3527 H 339.088 -0.701606 1.81834 0
M  V30 3528 H 338.184 -2.16871 2.2444 0
M  V30 3529 N 338.485 -1.33259 -0.841409 0
M  V30 3530 C 339.762 -1.15174 -1.58096 0
M  V30 3531 C 340.142 0.282858 -2.09196 0
M  V30 3532 O 339.49 1.28151 -1.89181 0
M  V30 3533 C 339.7 -2.1907 -2.71679 0
M  V30 3534 C 341.048 -2.53093 -3.40924 0
M  V30 3535 O 342.072 -2.17717 -2.81918 0
M  V30 3536 O 340.931 -3.1379 -4.47435 0
M  V30 3537 H 338.025 -0.445303 -0.696875 0
M  V30 3538 H 340.571 -1.44833 -0.884385 0
M  V30 3539 H 339.343 -3.15443 -2.31541 0
M  V30 3540 H 338.966 -1.90481 -3.49002 0
M  V30 3541 N 339.963 1.05934 -1.16686 0
M  V30 3542 C 341.209 1.79065 -0.95203 0
M  V30 3543 C 341.542 1.87147 0.518629 0
M  V30 3544 O 340.817 1.36574 1.38484 0
M  V30 3545 C 341.1 3.23359 -1.58464 0
M  V30 3546 C 340.953 3.23336 -3.12689 0
M  V30 3547 C 342.272 4.21004 -1.28232 0
M  V30 3548 H 339.391 0.65005 -0.34728 0
M  V30 3549 H 342.033 1.23868 -1.44072 0
M  V30 3550 H 340.183 3.70493 -1.16908 0
M  V30 3551 H 341.855 2.84336 -3.6325 0
M  V30 3552 H 340.098 2.61886 -3.4583 0
M  V30 3553 H 340.769 4.25144 -3.52075 0
M  V30 3554 H 343.245 3.8233 -1.64203 0
M  V30 3555 H 342.121 5.20225 -1.75092 0
M  V30 3556 H 342.382 4.41639 -0.201791 0
M  V30 3557 N 341.441 0.965919 1.2453 0
M  V30 3558 C 342.404 0.499547 2.2369 0
M  V30 3559 C 343.404 -0.40294 1.5567 0
M  V30 3560 O 344.594 -0.19865 1.73064 0
M  V30 3561 C 341.726 -0.276792 3.39774 0
M  V30 3562 H 342.919 1.37613 2.66463 0
M  V30 3563 H 340.472 0.750324 1.37112 0
M  V30 3564 H 341.207 -1.17055 3.02438 0
M  V30 3565 H 340.992 0.370826 3.90343 0
M  V30 3566 H 342.482 -0.592175 4.1338 0
M  V30 3567 N 342.919 -1.39368 0.735821 0
M  V30 3568 C 344.165 -2.00794 0.284544 0
M  V30 3569 C 344.498 -1.58255 -1.12557 0
M  V30 3570 O 343.773 -0.811819 -1.76748 0
M  V30 3571 C 344.056 -3.58011 0.387337 0
M  V30 3572 C 343.909 -4.10566 1.83728 0
M  V30 3573 C 345.228 -4.395 -0.22975 0
M  V30 3574 H 342.347 -0.729501 0.104866 0
M  V30 3575 H 344.989 -1.65564 0.93213 0
M  V30 3576 H 343.139 -3.88154 -0.164006 0
M  V30 3577 H 344.811 -3.91139 2.44556 0
M  V30 3578 H 343.054 -3.64095 2.35833 0
M  V30 3579 H 343.725 -5.19702 1.86047 0
M  V30 3580 H 346.201 -4.15406 0.240257 0
M  V30 3581 H 345.077 -5.48752 -0.127485 0
M  V30 3582 H 345.338 -4.22062 -1.3159 0
M  V30 3583 N 344.397 -0.483516 -1.5 0
M  V30 3584 C 345.344 0.304164 -2.28787 0
M  V30 3585 C 346.314 0.976114 -1.34392 0
M  V30 3586 O 347.499 0.986156 -1.63339 0
M  V30 3587 C 344.639 1.37298 -3.16612 0
M  V30 3588 C 343.752 0.714561 -4.26049 0
M  V30 3589 C 342.887 1.76232 -5.01114 0
M  V30 3590 C 341.926 1.08483 -6.0241 0
M  V30 3591 N 341.063 2.076 -6.70706 0
M  V30 3592 H 345.903 -0.373981 -2.95644 0
M  V30 3593 H 343.44 -0.196275 -1.45785 0
M  V30 3594 H 345.398 2.00445 -3.65893 0
M  V30 3595 H 344.028 2.02012 -2.51776 0
M  V30 3596 H 343.08 -0.0297798 -3.80388 0
M  V30 3597 H 344.392 0.180383 -4.98474 0
M  V30 3598 H 343.546 2.46929 -5.54176 0
M  V30 3599 H 342.285 2.33033 -4.28424 0
M  V30 3600 H 341.29 0.363545 -5.48597 0
M  V30 3601 H 342.515 0.523551 -6.77079 0
M  V30 3602 H 340.461 2.63394 -6.00799 0
M  V30 3603 H 340.378 1.59201 -7.39047 0
M  V30 3604 H 341.646 2.77639 -7.2838 0
M  V30 3605 N 345.875 1.56104 -0.216619 0
M  V30 3606 C 347.124 1.97348 0.416744 0
M  V30 3607 C 347.437 1.10715 1.6125 0
M  V30 3608 O 348.643 1.41836 2.31506 0
M  V30 3609 C 347.099 3.51059 0.792835 0
M  V30 3610 C 346.707 4.46387 -0.379828 0
M  V30 3611 C 348.451 4.01026 1.39208 0
M  V30 3612 C 346.358 5.91397 0.0184223 0
M  V30 3613 H 345.288 0.736942 0.159475 0
M  V30 3614 H 347.939 1.80827 -0.31205 0
M  V30 3615 H 346.321 3.63162 1.57891 0
M  V30 3616 H 347.495 4.46029 -1.15737 0
M  V30 3617 H 345.81 4.06734 -0.891979 0
M  V30 3618 H 348.407 5.0686 1.70286 0
M  V30 3619 H 348.75 3.46587 2.30614 0
M  V30 3620 H 349.283 3.92125 0.669537 0
M  V30 3621 H 346.022 6.49807 -0.862002 0
M  V30 3622 H 345.542 5.94961 0.760384 0
M  V30 3623 H 347.221 6.45455 0.446818 0
M  V30 3624 N 347.353 -0.0568162 1.57498 0
M  V30 3625 C 348.6 -0.753104 1.87975 0
M  V30 3626 C 348.928 -1.76815 0.81035 0
M  V30 3627 O 348.183 -1.94756 -0.19199 0
M  V30 3628 C 348.482 -1.48359 3.25153 0
M  V30 3629 C 348.148 -0.60713 4.46794 0
M  V30 3630 C 346.81 -0.365642 4.79809 0
M  V30 3631 C 349.162 -0.000305978 5.212 0
M  V30 3632 C 346.49 0.491905 5.84634 0
M  V30 3633 C 348.842 0.844781 6.26934 0
M  V30 3634 C 347.506 1.096 6.58441 0
M  V30 3635 H 346.776 -0.27558 0.687849 0
M  V30 3636 H 349.423 -0.0135173 1.91495 0
M  V30 3637 H 347.728 -2.29577 3.17492 0
M  V30 3638 H 349.425 -2.02739 3.45974 0
M  V30 3639 H 346.015 -0.805487 4.20963 0
M  V30 3640 H 350.199 -0.173961 4.95995 0
M  V30 3641 H 345.455 0.695131 6.07436 0
M  V30 3642 H 349.629 1.32165 6.83744 0
M  V30 3643 H 347.256 1.76224 7.39492 0
M  V30 3644 N 348.832 -1.54138 -0.328536 0
M  V30 3645 C 350.057 -1.76378 -1.09112 0
M  V30 3646 C 350.482 -0.508596 -1.81094 0
M  V30 3647 O 349.84 0.539598 -1.73084 0
M  V30 3648 C 349.888 -2.95358 -2.06872 0
M  V30 3649 O 348.992 -2.66556 -3.14677 0
M  V30 3650 H 348.333 -0.584614 -0.314838 0
M  V30 3651 H 350.863 -2.01146 -0.374348 0
M  V30 3652 H 350.873 -3.22566 -2.4983 0
M  V30 3653 H 349.548 -3.86385 -1.5388 0
M  V30 3654 H 348.125 -2.50282 -2.7643 0
M  V30 3655 N 350.31 0.590341 -1.46126 0
M  V30 3656 C 351.535 1.37991 -1.54833 0
M  V30 3657 C 351.96 1.87163 -0.187506 0
M  V30 3658 O 351.318 1.61133 0.831008 0
M  V30 3659 C 351.366 2.54867 -2.55098 0
M  V30 3660 O 350.47 3.56061 -2.08073 0
M  V30 3661 H 349.811 0.411265 -0.521303 0
M  V30 3662 H 352.341 0.716819 -1.91632 0
M  V30 3663 H 352.351 3.01886 -2.74461 0
M  V30 3664 H 351.026 2.18429 -3.53923 0
M  V30 3665 H 349.603 3.15574 -1.98664 0
M  V30 3666 N 351.788 1.33704 0.83433 0
M  V30 3667 C 353.204 1.13137 1.12571 0
M  V30 3668 C 353.404 -0.0747261 2.01361 0
M  V30 3669 O 352.46 -0.753647 2.4099 0
M  V30 3670 C 353.773 2.42105 1.78342 0
M  V30 3671 C 355.321 2.48054 1.90888 0
M  V30 3672 C 355.796 3.76995 2.60075 0
M  V30 3673 N 357.287 3.78092 2.67584 0
M  V30 3674 C 358.022 4.74574 3.21818 0
M  V30 3675 N 357.518 5.81434 3.76705 0
M  V30 3676 N 359.311 4.62044 3.20112 0
M  V30 3677 H 351.462 2.11 0.243489 0
M  V30 3678 H 353.725 0.932532 0.17055 0
M  V30 3679 H 353.431 3.30391 1.20561 0
M  V30 3680 H 353.305 2.54594 2.7832 0
M  V30 3681 H 355.692 1.60215 2.47821 0
M  V30 3682 H 355.773 2.39502 0.898459 0
M  V30 3683 H 355.417 4.65219 2.03799 0
M  V30 3684 H 355.347 3.82825 3.61597 0
M  V30 3685 H 357.838 3.00865 2.28667 0
M  V30 3686 H 358.151 6.51084 4.16305 0
M  V30 3687 H 356.496 5.85163 3.7498 0
M  V30 3688 H 359.687 3.77716 2.76493 0
M  V30 3689 H 359.86 5.37406 3.62076 0
M  V30 3690 N 353.266 -1.05314 1.17247 0
M  V30 3691 C 354.176 -2.16538 0.90268 0
M  V30 3692 C 355.192 -1.73523 -0.128707 0
M  V30 3693 O 356.368 -2.01337 0.0502701 0
M  V30 3694 C 353.433 -3.44167 0.418356 0
M  V30 3695 C 352.494 -4.01635 1.51618 0
M  V30 3696 C 351.727 -5.23171 1.05487 0
M  V30 3697 O 351.95 -5.70327 -0.0914715 0
M  V30 3698 O 350.884 -5.72848 1.8474 0
M  V30 3699 H 354.71 -2.42145 1.83302 0
M  V30 3700 H 352.295 -1.15037 0.953246 0
M  V30 3701 H 354.177 -4.21112 0.155726 0
M  V30 3702 H 352.852 -3.20063 -0.48385 0
M  V30 3703 H 351.759 -3.26135 1.83268 0
M  V30 3704 H 353.092 -4.30053 2.39405 0
M  V30 3705 N 354.744 -0.972509 -1.24016 0
M  V30 3706 C 355.654 -0.5143 -2.28893 0
M  V30 3707 C 356.67 0.427078 -1.68677 0
M  V30 3708 O 357.846 0.298939 -1.99169 0
M  V30 3709 C 354.911 0.183598 -3.46214 0
M  V30 3710 C 353.972 -0.798202 -4.21814 0
M  V30 3711 C 353.205 -0.133514 -5.33533 0
M  V30 3712 O 353.428 1.07714 -5.60137 0
M  V30 3713 O 352.362 -0.828103 -5.96176 0
M  V30 3714 H 356.188 -1.38629 -2.70214 0
M  V30 3715 H 353.773 -0.739769 -1.29799 0
M  V30 3716 H 355.655 0.575433 -4.17453 0
M  V30 3717 H 354.33 1.03048 -3.0686 0
M  V30 3718 H 353.237 -1.24059 -3.52931 0
M  V30 3719 H 354.57 -1.61364 -4.64997 0
M  V30 3720 N 356.222 1.38976 -0.743202 0
M  V30 3721 C 357.638 1.53984 -0.419664 0
M  V30 3722 C 357.838 1.70837 1.0685 0
M  V30 3723 O 356.894 1.7135 1.8546 0
M  V30 3724 C 358.207 2.75287 -1.20985 0
M  V30 3725 C 359.755 2.89129 -1.19889 0
M  V30 3726 C 360.23 4.13381 -1.97181 0
M  V30 3727 N 361.721 4.20437 -1.94389 0
M  V30 3728 C 362.456 5.15547 -2.50996 0
M  V30 3729 N 361.952 6.16395 -3.16274 0
M  V30 3730 N 363.745 5.07822 -2.40984 0
M  V30 3731 H 355.896 1.26285 -1.7078 0
M  V30 3732 H 358.159 0.612689 -0.723406 0
M  V30 3733 H 357.865 2.69204 -2.26323 0
M  V30 3734 H 357.739 3.68184 -0.819759 0
M  V30 3735 H 360.126 2.947 -0.153606 0
M  V30 3736 H 360.207 1.97272 -1.62841 0
M  V30 3737 H 359.851 4.08572 -3.01714 0
M  V30 3738 H 359.781 5.04298 -1.51629 0
M  V30 3739 H 362.272 3.48205 -1.46839 0
M  V30 3740 H 362.585 6.85443 -3.56915 0
M  V30 3741 H 360.93 6.16758 -3.20367 0
M  V30 3742 H 364.121 4.27973 -1.89622 0
M  V30 3743 H 364.294 5.81767 -2.85397 0
M  V30 3744 N 357.7 0.491464 1.49741 0
M  V30 3745 C 358.925 -0.0557177 2.07325 0
M  V30 3746 C 359.35 -1.30925 1.35056 0
M  V30 3747 O 358.708 -1.76733 0.404365 0
M  V30 3748 C 358.756 -0.302074 3.59333 0
M  V30 3749 O 357.86 -1.37868 3.88672 0
M  V30 3750 H 357.201 0.0219956 0.663636 0
M  V30 3751 H 359.731 0.688352 1.92673 0
M  V30 3752 H 359.741 -0.536464 4.04458 0
M  V30 3753 H 358.416 0.61383 4.11345 0
M  V30 3754 H 356.993 -1.12999 3.55367 0
M  V30 3755 N 359.178 -1.55987 0.224894 0
M  V30 3756 C 360.424 -1.99433 -0.39973 0
M  V30 3757 C 360.779 -1.11004 -1.57149 0
M  V30 3758 O 360.072 -0.160725 -1.90925 0
M  V30 3759 C 360.266 -3.46394 -0.880106 0
M  V30 3760 C 360.095 -4.4904 0.243565 0
M  V30 3761 C 358.865 -5.00272 0.711056 0
M  V30 3762 C 361.063 -5.03195 1.06299 0
M  V30 3763 N 359.045 -5.86628 1.80944 0
M  V30 3764 C 360.416 -5.86508 2.01017 0
M  V30 3765 C 362.471 -4.8555 1.10205 0
M  V30 3766 C 361.174 -6.54062 2.99324 0
M  V30 3767 C 363.2 -5.53866 2.07332 0
M  V30 3768 C 362.562 -6.3695 3.00789 0
M  V30 3769 H 358.661 -0.773815 -0.112847 0
M  V30 3770 H 361.245 -1.91754 0.337432 0
M  V30 3771 H 359.416 -3.54515 -1.58662 0
M  V30 3772 H 361.148 -3.76752 -1.47783 0
M  V30 3773 H 357.903 -4.72655 0.29906 0
M  V30 3774 H 358.327 -6.34507 2.36073 0
M  V30 3775 H 362.969 -4.20966 0.39343 0
M  V30 3776 H 360.687 -7.17827 3.71147 0
M  V30 3777 H 364.273 -5.42178 2.11032 0
M  V30 3778 H 363.153 -6.8888 3.74718 0
M  V30 3779 N 360.656 0.0484629 -1.57525 0
M  V30 3780 C 361.903 0.743125 -1.88372 0
M  V30 3781 C 362.231 1.76383 -0.819715 0
M  V30 3782 O 361.486 1.94855 0.181659 0
M  V30 3783 C 361.785 1.46632 -3.25935 0
M  V30 3784 C 361.451 0.583427 -4.4711 0
M  V30 3785 C 360.113 0.340191 -4.79996 0
M  V30 3786 C 362.465 -0.0273345 -5.21193 0
M  V30 3787 C 359.793 -0.522903 -5.84365 0
M  V30 3788 C 362.145 -0.878017 -6.26477 0
M  V30 3789 C 360.809 -1.1309 -6.5785 0
M  V30 3790 H 360.079 0.271929 -0.689301 0
M  V30 3791 H 362.726 0.00336166 -1.915 0
M  V30 3792 H 361.031 2.2789 -3.18706 0
M  V30 3793 H 362.728 2.00902 -3.47044 0
M  V30 3794 H 359.318 0.783151 -4.21384 0
M  V30 3795 H 363.502 0.147654 -4.9608 0
M  V30 3796 H 358.758 -0.727335 -6.07058 0
M  V30 3797 H 362.932 -1.35789 -6.83033 0
M  V30 3798 H 360.559 -1.80144 -7.38547 0
M  V30 3799 N 362.134 1.5431 0.320358 0
M  V30 3800 C 363.55 1.45091 0.664889 0
M  V30 3801 C 363.75 0.626382 1.91517 0
M  V30 3802 O 362.806 0.126443 2.52183 0
M  V30 3803 C 364.119 2.88848 0.83591 0
M  V30 3804 C 365.667 2.9877 0.933046 0
M  V30 3805 C 366.142 4.43683 1.13621 0
M  V30 3806 N 367.633 4.47309 1.20287 0
M  V30 3807 C 368.368 5.56595 1.37801 0
M  V30 3808 N 367.864 6.75844 1.52338 0
M  V30 3809 N 369.657 5.44248 1.40535 0
M  V30 3810 H 361.808 2.06398 -0.501374 0
M  V30 3811 H 364.071 0.933963 -0.162534 0
M  V30 3812 H 363.777 3.51698 -0.0116092 0
M  V30 3813 H 363.651 3.35148 1.73078 0
M  V30 3814 H 366.038 2.36045 1.77107 0
M  V30 3815 H 366.119 2.55796 0.0145782 0
M  V30 3816 H 365.763 5.06995 0.303032 0
M  V30 3817 H 365.693 4.84269 2.0686 0
M  V30 3818 H 368.184 3.61388 1.10485 0
M  V30 3819 H 368.497 7.54892 1.65403 0
M  V30 3820 H 366.842 6.78746 1.4943 0
M  V30 3821 H 370.033 4.50038 1.28777 0
M  V30 3822 H 370.206 6.29473 1.53842 0
M  V30 3823 N 363.613 -0.582584 1.46437 0
M  V30 3824 C 364.523 -1.71949 1.59595 0
M  V30 3825 C 365.539 -1.67264 0.479443 0
M  V30 3826 O 366.715 -1.87171 0.743579 0
M  V30 3827 C 363.78 -3.08452 1.58298 0
M  V30 3828 C 362.841 -3.244 2.81182 0
M  V30 3829 C 362.074 -4.54391 2.79937 0
M  V30 3830 O 362.297 -5.38287 1.8869 0
M  V30 3831 O 361.231 -4.73588 3.71481 0
M  V30 3832 H 365.057 -1.63795 2.55744 0
M  V30 3833 H 362.642 -0.749643 1.29231 0
M  V30 3834 H 364.524 -3.89732 1.60271 0
M  V30 3835 H 363.199 -3.17043 0.653094 0
M  V30 3836 H 362.106 -2.42613 2.84763 0
M  V30 3837 H 363.439 -3.20699 3.7338 0
M  V30 3838 N 365.091 -1.34144 -0.827227 0
M  V30 3839 C 366.054 -1.25264 -1.91942 0
M  V30 3840 C 367.054 -0.168866 -1.59911 0
M  V30 3841 O 368.244 -0.421198 -1.69031 0
M  V30 3842 C 365.376 -0.932952 -3.27885 0
M  V30 3843 H 366.569 -2.22357 -2.0124 0
M  V30 3844 H 364.122 -1.1837 -1.0207 0
M  V30 3845 H 364.857 0.0349917 -3.24281 0
M  V30 3846 H 364.642 -1.71682 -3.52516 0
M  V30 3847 H 366.132 -0.895874 -4.07877 0
M  V30 3848 N 366.569 1.04691 -1.17803 0
M  V30 3849 C 367.479 2.16057 -0.914151 0
M  V30 3850 C 368.495 1.73589 0.119503 0
M  V30 3851 O 369.671 2.01308 -0.0609468 0
M  V30 3852 C 366.736 3.4394 -0.436603 0
M  V30 3853 C 365.797 4.00825 -1.53746 0
M  V30 3854 C 365.03 5.22604 -1.0826 0
M  V30 3855 O 365.253 5.70367 0.0612244 0
M  V30 3856 O 364.187 5.7186 -1.87775 0
M  V30 3857 H 368.013 2.41169 -1.84584 0
M  V30 3858 H 365.598 1.1453 -0.959334 0
M  V30 3859 H 367.48 4.21024 -0.178057 0
M  V30 3860 H 366.155 3.20316 0.466869 0
M  V30 3861 H 365.062 3.25158 -1.84995 0
M  V30 3862 H 366.395 4.28778 -2.41683 0
M  V30 3863 N 368.047 0.979072 1.23499 0
M  V30 3864 C 369.296 0.642751 1.91185 0
M  V30 3865 C 369.609 -0.827253 1.77245 0
M  V30 3866 O 370.815 -1.27458 2.39722 0
M  V30 3867 C 369.271 1.09901 3.42709 0
M  V30 3868 C 368.879 2.59327 3.65313 0
M  V30 3869 C 370.623 0.836371 4.16179 0
M  V30 3870 C 368.53 2.98627 5.10467 0
M  V30 3871 H 367.46 0.236698 0.715884 0
M  V30 3872 H 370.111 1.1868 1.39955 0
M  V30 3873 H 368.493 0.48319 3.93041 0
M  V30 3874 H 369.667 3.26136 3.25533 0
M  V30 3875 H 367.982 2.83323 3.05151 0
M  V30 3876 H 370.579 1.10586 5.23139 0
M  V30 3877 H 370.922 -0.227509 4.15678 0
M  V30 3878 H 371.455 1.41371 3.71832 0
M  V30 3879 H 368.194 4.04133 5.16098 0
M  V30 3880 H 367.714 2.3651 5.51201 0
M  V30 3881 H 369.393 2.89159 5.78788 0
M  V30 3882 N 369.525 -1.3858 0.750561 0
M  V30 3883 C 370.755 -2.04175 0.31564 0
M  V30 3884 C 371.163 -1.56726 -1.05989 0
M  V30 3885 O 370.506 -0.734225 -1.68389 0
M  V30 3886 C 370.568 -3.58585 0.256389 0
M  V30 3887 C 370.232 -4.29077 1.57296 0
M  V30 3888 C 371.229 -4.54656 2.52159 0
M  V30 3889 C 368.914 -4.67324 1.84156 0
M  V30 3890 C 370.908 -5.17512 3.72103 0
M  V30 3891 C 368.595 -5.29905 3.04374 0
M  V30 3892 C 369.593 -5.54933 3.98168 0
M  V30 3893 O 369.281 -6.16212 5.16273 0
M  V30 3894 H 369.013 -0.662742 0.133226 0
M  V30 3895 H 371.567 -1.78313 1.01948 0
M  V30 3896 H 369.797 -3.83406 -0.503677 0
M  V30 3897 H 371.486 -4.05628 -0.148612 0
M  V30 3898 H 372.252 -4.25539 2.32683 0
M  V30 3899 H 368.131 -4.47191 1.11988 0
M  V30 3900 H 371.675 -5.36963 4.45327 0
M  V30 3901 H 367.572 -5.58444 3.23745 0
M  V30 3902 H 368.34 -6.34701 5.16815 0
M  V30 3903 N 371.003 -0.499398 -1.49478 0
M  V30 3904 C 371.935 0.316575 -2.27003 0
M  V30 3905 C 372.948 0.932047 -1.33479 0
M  V30 3906 O 374.137 0.815658 -1.58774 0
M  V30 3907 C 371.237 1.46055 -3.05812 0
M  V30 3908 C 370.41 0.952679 -4.26899 0
M  V30 3909 C 369.469 1.97407 -4.87767 0
M  V30 3910 O 368.495 1.54326 -5.4788 0
M  V30 3911 N 369.697 3.30436 -4.77276 0
M  V30 3912 H 372.462 -0.348168 -2.97671 0
M  V30 3913 H 370.023 -0.33185 -1.58463 0
M  V30 3914 H 372.015 2.14135 -3.43407 0
M  V30 3915 H 370.585 2.02948 -2.37762 0
M  V30 3916 H 369.805 0.0968248 -3.94081 0
M  V30 3917 H 371.093 0.59174 -5.05347 0
M  V30 3918 H 370.491 3.68126 -4.29534 0
M  V30 3919 H 369.048 3.94235 -5.19059 0
M  V30 3920 N 372.481 1.55866 -0.233164 0
M  V30 3921 C 373.709 2.02998 0.399905 0
M  V30 3922 C 374.124 1.11274 1.52524 0
M  V30 3923 O 373.481 0.124528 1.82075 0
M  V30 3924 C 373.532 3.4958 0.920639 0
M  V30 3925 O 373.253 4.37808 -0.159834 0
M  V30 3926 C 374.754 4.12411 1.62578 0
M  V30 3927 H 371.974 0.664006 0.0966281 0
M  V30 3928 H 374.518 2.0143 -0.353013 0
M  V30 3929 H 372.673 3.51727 1.62379 0
M  V30 3930 H 373.087 5.23981 0.23337 0
M  V30 3931 H 374.561 5.16711 1.94201 0
M  V30 3932 H 375.038 3.5809 2.54299 0
M  V30 3933 H 375.644 4.14148 0.967553 0
M  V30 3934 N 373.959 -0.0401083 1.57549 0
M  V30 3935 C 375.205 -0.734211 1.89043 0
M  V30 3936 C 375.538 -1.75591 0.829535 0
M  V30 3937 O 374.813 -1.93868 -0.156706 0
M  V30 3938 C 375.096 -1.41374 3.31188 0
M  V30 3939 C 374.949 -0.406299 4.47961 0
M  V30 3940 C 376.268 -2.35061 3.72068 0
M  V30 3941 H 373.387 -0.265447 0.687537 0
M  V30 3942 H 376.029 0.00294087 1.9 0
M  V30 3943 H 374.179 -2.04206 3.30503 0
M  V30 3944 H 375.851 0.219255 4.60779 0
M  V30 3945 H 374.094 0.275485 4.32924 0
M  V30 3946 H 374.765 -0.920022 5.44279 0
M  V30 3947 H 377.241 -1.82282 3.74049 0
M  V30 3948 H 376.117 -2.79593 4.72355 0
M  V30 3949 H 376.378 -3.21258 3.0372 0
M  V30 3950 N 375.437 -1.54477 -0.31217 0
M  V30 3951 C 376.37 -1.79519 -1.40884 0
M  V30 3952 C 377.348 -0.645753 -1.49227 0
M  V30 3953 O 378.532 -0.884468 -1.66461 0
M  V30 3954 C 375.659 -1.92194 -2.78889 0
M  V30 3955 C 374.705 -3.14555 -2.88023 0
M  V30 3956 S 375.538 -4.72893 -2.51262 0
M  V30 3957 C 376.694 -4.8849 -3.91317 0
M  V30 3958 H 376.927 -2.72256 -1.19432 0
M  V30 3959 H 374.46 -1.45746 -0.509654 0
M  V30 3960 H 376.418 -2.00182 -3.58382 0
M  V30 3961 H 375.079 -1.00414 -2.97617 0
M  V30 3962 H 374.272 -3.20193 -3.89221 0
M  V30 3963 H 373.874 -3.04955 -2.16514 0
M  V30 3964 H 376.166 -4.71826 -4.86196 0
M  V30 3965 H 377.109 -5.90588 -3.90656 0
M  V30 3966 H 377.517 -4.16715 -3.80801 0
M  V30 3967 N 376.915 0.57481 -1.46744 0
M  V30 3968 C 377.845 1.69337 -1.60771 0
M  V30 3969 C 378.826 1.63825 -0.457736 0
M  V30 3970 O 380.011 1.8172 -0.684947 0
M  V30 3971 C 377.141 3.0798 -1.60517 0
M  V30 3972 C 376.095 3.28327 -2.74564 0
M  V30 3973 C 375.421 4.67578 -2.59373 0
M  V30 3974 C 376.721 3.15398 -4.16319 0
M  V30 3975 H 378.415 1.57853 -2.54407 0
M  V30 3976 H 375.961 0.75799 -1.22436 0
M  V30 3977 H 377.914 3.86061 -1.68923 0
M  V30 3978 H 376.638 3.20381 -0.634305 0
M  V30 3979 H 375.297 2.52649 -2.65639 0
M  V30 3980 H 374.945 4.76755 -1.60353 0
M  V30 3981 H 374.645 4.82144 -3.35873 0
M  V30 3982 H 376.169 5.47817 -2.69682 0
M  V30 3983 H 377.583 3.83315 -4.26313 0
M  V30 3984 H 375.98 3.41482 -4.93468 0
M  V30 3985 H 377.05 2.12372 -4.3592 0
M  V30 3986 N 378.394 1.34581 0.820102 0
M  V30 3987 C 379.81 1.14325 1.11364 0
M  V30 3988 C 380.01 -0.0533648 2.01429 0
M  V30 3989 O 379.066 -0.728044 2.41776 0
M  V30 3990 C 380.379 2.43983 1.75764 0
M  V30 3991 C 381.927 2.50065 1.88246 0
M  V30 3992 C 382.402 3.79732 2.56061 0
M  V30 3993 N 383.893 3.80908 2.63558 0
M  V30 3994 C 384.628 4.77961 3.16766 0
M  V30 3995 N 384.124 5.85397 3.70517 0
M  V30 3996 N 385.917 4.65413 3.15194 0
M  V30 3997 H 378.068 2.11246 0.221096 0
M  V30 3998 H 380.331 0.934289 0.160649 0
M  V30 3999 H 380.037 3.31651 1.1705 0
M  V30 4000 H 379.911 2.57531 2.75604 0
M  V30 4001 H 382.298 1.62834 2.46108 0
M  V30 4002 H 382.379 2.40442 0.873006 0
M  V30 4003 H 382.023 4.67354 1.98853 0
M  V30 4004 H 381.953 3.86639 3.57516 0
M  V30 4005 H 384.444 3.03274 2.25463 0
M  V30 4006 H 384.757 6.55463 4.09376 0
M  V30 4007 H 383.102 5.89107 3.68752 0
M  V30 4008 H 386.293 3.80627 2.72471 0
M  V30 4009 H 386.466 5.41216 3.56356 0
M  V30 4010 N 379.872 -1.04064 1.18357 0
M  V30 4011 C 380.822 -2.10393 0.878561 0
M  V30 4012 C 381.806 -1.60183 -0.151713 0
M  V30 4013 O 382.998 -1.76923 0.0523303 0
M  V30 4014 C 380.127 -3.4089 0.406096 0
M  V30 4015 C 379.213 -3.97866 1.46844 0
M  V30 4016 N 379.604 -4.28657 2.68489 0
M  V30 4017 C 377.902 -4.2574 1.32896 0
M  V30 4018 C 378.603 -4.74253 3.36836 0
M  V30 4019 N 377.579 -4.75068 2.64219 0
M  V30 4020 H 381.381 -2.32076 1.80327 0
M  V30 4021 H 378.895 -1.21818 1.07397 0
M  V30 4022 H 380.892 -4.16557 0.169088 0
M  V30 4023 H 379.552 -3.20633 -0.512275 0
M  V30 4024 H 380.563 -4.18304 3.05356 0
M  V30 4025 H 377.24 -4.1481 0.473134 0
M  V30 4026 H 378.63 -5.07096 4.40798 0
M  V30 4027 N 381.35 -0.985608 -1.22978 0
M  V30 4028 C 382.26 -0.538548 -2.28335 0
M  V30 4029 C 383.276 0.409163 -1.69121 0
M  V30 4030 O 384.452 0.277797 -1.99475 0
M  V30 4031 C 381.517 0.146867 -3.46389 0
M  V30 4032 C 380.578 -0.842896 -4.20944 0
M  V30 4033 C 379.811 -0.190095 -5.33361 0
M  V30 4034 O 380.034 1.01767 -5.61248 0
M  V30 4035 O 378.968 -0.891289 -5.95264 0
M  V30 4036 H 382.794 -1.41487 -2.68729 0
M  V30 4037 H 380.379 -0.753495 -1.29007 0
M  V30 4038 H 382.261 0.531125 -4.1804 0
M  V30 4039 H 380.936 0.997871 -3.07935 0
M  V30 4040 H 379.843 -1.27795 -3.51595 0
M  V30 4041 H 381.176 -1.66287 -4.6326 0
M  V30 4042 N 382.828 1.3818 -0.7579 0
M  V30 4043 C 383.776 2.32277 -0.122482 0
M  V30 4044 C 384.77 1.54238 0.700505 0
M  V30 4045 O 385.976 1.69737 0.599119 0
M  V30 4046 H 382.351 0.751712 -0.0208143 0
M  V30 4047 H 384.322 2.83469 -0.932099 0
M  V30 4048 C 383.071 3.39447 0.753076 0
M  V30 4049 H 382.394 3.99591 0.129184 0
M  V30 4050 H 383.834 4.07684 1.16489 0
M  V30 4051 C 382.293 2.78375 1.8976 0
M  V30 4052 O 382.823 2.68025 2.99208 0
M  V30 4053 N 381.029 2.36121 1.69397 0
M  V30 4054 H 380.576 2.4474 0.803762 0
M  V30 4055 H 380.534 1.95602 2.46145 0
M  V30 4056 N 384.306 0.507319 1.49211 0
M  V30 4057 C 385.555 -0.0368315 2.01666 0
M  V30 4058 C 385.868 -1.37459 1.39156 0
M  V30 4059 O 387.074 -2.00579 1.82976 0
M  V30 4060 C 385.53 -0.116089 3.59713 0
M  V30 4061 C 385.138 1.2154 4.31198 0
M  V30 4062 C 386.882 -0.610268 4.2009 0
M  V30 4063 C 384.789 1.09796 5.81119 0
M  V30 4064 H 383.719 -0.0175376 0.753796 0
M  V30 4065 H 386.37 0.647691 1.71689 0
M  V30 4066 H 384.752 -0.8652 3.86433 0
M  V30 4067 H 385.926 1.9783 4.16173 0
M  V30 4068 H 384.241 1.64352 3.82593 0
M  V30 4069 H 386.838 -0.715742 5.29888 0
M  V30 4070 H 387.181 -1.61064 3.8388 0
M  V30 4071 H 387.714 0.0824916 3.97714 0
M  V30 4072 H 384.453 2.0728 6.21864 0
M  V30 4073 H 383.973 0.376058 5.9862 0
M  V30 4074 H 385.652 0.779281 6.4229 0
M  V30 4075 N 385.784 -1.5574 0.241426 0
M  V30 4076 C 386.714 -2.24133 -0.654722 0
M  V30 4077 C 387.695 -1.21974 -1.1856 0
M  V30 4078 O 388.88 -1.50612 -1.22595 0
M  V30 4079 C 386.01 -2.93659 -1.85423 0
M  V30 4080 C 384.964 -4.0246 -1.45636 0
M  V30 4081 C 384.29 -4.59383 -2.73626 0
M  V30 4082 C 385.59 -5.18468 -0.631506 0
M  V30 4083 H 387.284 -2.99281 -0.0844353 0
M  V30 4084 H 384.83 -1.43947 -0.0391707 0
M  V30 4085 H 386.783 -3.40203 -2.48676 0
M  V30 4086 H 385.507 -2.15991 -2.44981 0
M  V30 4087 H 384.166 -3.56676 -0.847202 0
M  V30 4088 H 383.814 -3.78422 -3.3137 0
M  V30 4089 H 383.514 -5.32826 -2.4773 0
M  V30 4090 H 385.038 -5.08658 -3.37786 0
M  V30 4091 H 386.452 -5.61272 -1.1682 0
M  V30 4092 H 384.849 -5.98266 -0.468831 0
M  V30 4093 H 385.919 -4.8358 0.357506 0
M  V30 4094 N 387.262 0.0317525 -1.57568 0
M  V30 4095 C 388.51 0.721676 -1.88776 0
M  V30 4096 C 388.831 1.76039 -0.838772 0
M  V30 4097 O 388.101 1.95482 0.127935 0
M  V30 4098 H 386.681 0.269534 -0.696678 0
M  V30 4099 H 389.343 -0.00165879 -1.949 0
M  V30 4100 H 388.439 1.21293 -2.87566 0
M  V30 4101 N 388.74 1.54641 0.303973 0
M  V30 4102 C 389.987 1.7378 1.03955 0
M  V30 4103 C 390.315 0.521986 1.87365 0
M  V30 4104 O 389.57 -0.496099 1.89308 0
M  V30 4105 C 389.869 2.97753 1.97681 0
M  V30 4106 C 389.535 4.31671 1.30271 0
M  V30 4107 C 388.197 4.68075 1.11619 0
M  V30 4108 C 390.549 5.147 0.82055 0
M  V30 4109 C 387.877 5.8509 0.434304 0
M  V30 4110 C 390.229 6.32416 0.152395 0
M  V30 4111 C 388.893 6.67484 -0.0461067 0
M  V30 4112 H 388.163 0.635908 0.380398 0
M  V30 4113 H 390.81 1.88896 0.314718 0
M  V30 4114 H 389.115 2.77406 2.76682 0
M  V30 4115 H 390.812 3.09756 2.54661 0
M  V30 4116 H 387.402 4.03041 1.45795 0
M  V30 4117 H 391.586 4.87077 0.952374 0
M  V30 4118 H 386.842 6.10806 0.269495 0
M  V30 4119 H 391.016 6.96023 -0.229126 0
M  V30 4120 H 388.643 7.58011 -0.576494 0
M  V30 4121 N 390.218 -0.567019 1.47046 0
M  V30 4122 C 391.467 -1.32091 1.5243 0
M  V30 4123 C 391.78 -1.94704 0.187021 0
M  V30 4124 O 392.986 -2.7124 0.118771 0
M  V30 4125 C 391.442 -2.39479 2.68659 0
M  V30 4126 C 391.05 -1.831 4.08874 0
M  V30 4127 C 392.794 -3.16111 2.83327 0
M  V30 4128 C 390.701 -2.8821 5.16419 0
M  V30 4129 H 389.631 -0.496629 0.56734 0
M  V30 4130 H 392.282 -0.603354 1.73297 0
M  V30 4131 H 390.664 -3.14105 2.41152 0
M  V30 4132 H 391.838 -1.14913 4.46242 0
M  V30 4133 H 390.153 -1.19085 3.99008 0
M  V30 4134 H 392.75 -3.94585 3.60842 0
M  V30 4135 H 393.093 -3.69686 1.91411 0
M  V30 4136 H 393.626 -2.48595 3.10556 0
M  V30 4137 H 390.365 -2.39504 6.10179 0
M  V30 4138 H 389.885 -3.54839 4.8358 0
M  V30 4139 H 391.564 -3.51881 5.42945 0
M  V30 4140 N 391.696 -1.35014 -0.812953 0
M  V30 4141 C 392.659 -1.27292 -1.90602 0
M  V30 4142 C 393.659 -0.185817 -1.59723 0
M  V30 4143 O 394.849 -0.439102 -1.68575 0
M  V30 4144 C 391.981 -0.967676 -3.26877 0
M  V30 4145 H 393.174 -2.24479 -1.9887 0
M  V30 4146 H 390.727 -1.19446 -1.00808 0
M  V30 4147 H 391.462 0.0005954 -3.243 0
M  V30 4148 H 391.247 -1.75412 -3.50675 0
M  V30 4149 H 392.737 -0.939085 -4.06904 0
M  V30 4150 N 393.175 1.03435 -1.18907 0
M  V30 4151 C 394.138 2.09756 -0.923844 0
M  V30 4152 C 395.138 1.60528 0.093416 0
M  V30 4153 O 396.328 1.73631 -0.140727 0
M  V30 4154 C 393.46 3.38692 -0.387354 0
M  V30 4155 H 394.653 2.34719 -1.86674 0
M  V30 4156 H 392.206 1.19959 -1.00197 0
M  V30 4157 H 392.941 3.19396 0.561845 0
M  V30 4158 H 392.726 3.75742 -1.12074 0
M  V30 4159 H 394.216 4.17016 -0.220694 0
M  V30 4160 N 394.653 0.992116 1.22453 0
M  V30 4161 C 395.93 0.583508 1.86694 0
M  V30 4162 C 396.31 -0.9392 1.89056 0
M  V30 4163 O 395.658 -1.82081 1.38053 0
M  V30 4164 C 395.868 1.20304 3.2761 0
M  V30 4165 C 397.216 1.30308 4.0411 0
M  V30 4166 O 398.24 1.15737 3.36873 0
M  V30 4167 O 397.099 1.53615 5.24466 0
M  V30 4168 H 394.193 0.198129 0.802916 0
M  V30 4169 H 396.739 1.08794 1.30238 0
M  V30 4170 H 395.511 2.24461 3.2052 0
M  V30 4171 H 395.134 0.684144 3.9167 0
M  V30 4172 N 396.131 -1.37776 0.765217 0
M  V30 4173 C 397.079 -2.32209 0.134798 0
M  V30 4174 C 398.073 -1.54607 -0.692315 0
M  V30 4175 O 399.279 -1.70052 -0.590109 0
M  V30 4176 H 395.654 -0.751591 0.0248005 0
M  V30 4177 H 397.625 -2.8297 0.947119 0
M  V30 4178 C 396.374 -3.39841 -0.735063 0
M  V30 4179 H 395.697 -3.99654 -0.107991 0
M  V30 4180 H 397.137 -4.08296 -1.14326 0
M  V30 4181 C 395.596 -2.79378 -1.88281 0
M  V30 4182 O 396.126 -2.69608 -2.97783 0
M  V30 4183 N 394.332 -2.37016 -1.68142 0
M  V30 4184 H 393.879 -2.45162 -0.790772 0
M  V30 4185 H 393.837 -1.96905 -2.45104 0
M  V30 4186 N 397.609 -0.515225 -1.4894 0
M  V30 4187 C 398.556 0.255567 -2.29381 0
M  V30 4188 C 399.526 0.947387 -1.36432 0
M  V30 4189 O 400.711 0.951288 -1.65394 0
M  V30 4190 C 397.851 1.30551 -3.19453 0
M  V30 4191 C 396.964 0.624029 -4.27469 0
M  V30 4192 C 396.099 1.65563 -5.0474 0
M  V30 4193 C 395.138 0.956802 -6.04576 0
M  V30 4194 N 394.275 1.93326 -6.74959 0
M  V30 4195 H 399.115 -0.436607 -2.94784 0
M  V30 4196 H 396.652 -0.227154 -1.45336 0
M  V30 4197 H 398.61 1.92639 -3.70062 0
M  V30 4198 H 397.24 1.96626 -2.56004 0
M  V30 4199 H 396.292 -0.110459 -3.8024 0
M  V30 4200 H 397.604 0.0746092 -4.98744 0
M  V30 4201 H 396.758 2.35119 -5.59289 0
M  V30 4202 H 395.497 2.23893 -4.3327 0
M  V30 4203 H 394.502 0.247097 -5.49244 0
M  V30 4204 H 395.727 0.379814 -6.78037 0
M  V30 4205 H 393.673 2.50591 -6.06251 0
M  V30 4206 H 393.59 1.43489 -7.42258 0
M  V30 4207 H 394.858 2.62126 -7.34105 0
M  V30 4208 N 399.087 1.5561 -0.249682 0
M  V30 4209 C 400.364 1.90932 0.424761 0
M  V30 4210 C 400.744 1.17078 1.75658 0
M  V30 4211 O 400.092 0.289176 2.26663 0
M  V30 4212 C 400.302 3.43975 0.590109 0
M  V30 4213 C 401.65 4.15281 0.884714 0
M  V30 4214 O 402.674 3.49729 0.67587 0
M  V30 4215 O 401.533 5.31236 1.28259 0
M  V30 4216 H 398.627 0.794815 0.228468 0
M  V30 4217 H 401.173 1.67135 -0.293954 0
M  V30 4218 H 399.945 3.89748 -0.34818 0
M  V30 4219 H 399.568 3.73644 1.35926 0
M  V30 4220 N 400.565 -0.0233959 1.57583 0
M  V30 4221 C 401.513 -1.04063 2.08023 0
M  V30 4222 C 402.507 -1.37084 0.995204 0
M  V30 4223 O 403.713 -1.35923 1.18004 0
M  V30 4224 H 400.088 -0.353144 0.663922 0
M  V30 4225 H 402.059 -0.589453 2.9252 0
M  V30 4226 C 400.808 -2.33123 2.57971 0
M  V30 4227 H 400.131 -2.08577 3.4108 0
M  V30 4228 H 401.571 -3.02632 2.96967 0
M  V30 4229 C 400.03 -3.02483 1.48342 0
M  V30 4230 O 400.56 -3.92541 0.852898 0
M  V30 4231 N 398.766 -2.63909 1.21658 0
M  V30 4232 H 398.313 -1.90758 1.73116 0
M  V30 4233 H 398.271 -3.10633 0.485218 0
M  V30 4234 N 402.043 -1.548 -0.295768 0
M  V30 4235 C 403.291 -1.73985 -1.02828 0
M  V30 4236 C 403.612 -0.531406 -1.87619 0
M  V30 4237 O 402.882 0.454221 -1.90561 0
M  V30 4238 H 401.462 -0.641556 -0.382642 0
M  V30 4239 H 404.124 -1.92163 -0.325489 0
M  V30 4240 H 403.22 -2.63129 -1.67838 0
M  V30 4241 N 403.521 0.559213 -1.47345 0
M  V30 4242 C 404.749 1.34194 -1.57479 0
M  V30 4243 C 405.164 1.87463 -0.224261 0
M  V30 4244 O 404.521 1.64888 0.782185 0
M  V30 4245 C 404.572 2.51324 -2.59843 0
M  V30 4246 O 404.293 2.00256 -3.89653 0
M  V30 4247 C 405.794 3.43563 -2.80142 0
M  V30 4248 H 403.014 0.409136 -0.531835 0
M  V30 4249 H 405.558 0.677609 -1.92947 0
M  V30 4250 H 403.713 3.13699 -2.27314 0
M  V30 4251 H 404.127 2.76708 -4.4557 0
M  V30 4252 H 405.601 4.2217 -3.55635 0
M  V30 4253 H 406.078 3.9698 -1.87892 0
M  V30 4254 H 406.684 2.87005 -3.1386 0
M  V30 4255 N 404.999 1.35443 0.805782 0
M  V30 4256 C 406.245 1.2996 1.56467 0
M  V30 4257 C 406.6 -0.124742 1.91995 0
M  V30 4258 O 405.893 -1.07533 1.58579 0
M  V30 4259 C 406.087 2.14045 2.86216 0
M  V30 4260 C 405.916 3.64512 2.63365 0
M  V30 4261 C 404.686 4.33744 2.59219 0
M  V30 4262 C 406.884 4.58142 2.33688 0
M  V30 4263 N 404.866 5.69953 2.28094 0
M  V30 4264 C 406.237 5.8248 2.12408 0
M  V30 4265 C 408.292 4.46877 2.19558 0
M  V30 4266 C 406.995 6.96818 1.78429 0
M  V30 4267 C 409.021 5.61065 1.86976 0
M  V30 4268 C 408.383 6.84431 1.66532 0
M  V30 4269 H 404.482 0.530817 0.574245 0
M  V30 4270 H 407.066 1.70333 0.943126 0
M  V30 4271 H 405.237 1.75942 3.46264 0
M  V30 4272 H 406.969 2.00075 3.51784 0
M  V30 4273 H 403.724 3.86365 2.73896 0
M  V30 4274 H 404.148 6.41845 2.15323 0
M  V30 4275 H 408.79 3.52102 2.34061 0
M  V30 4276 H 406.508 7.91559 1.62664 0
M  V30 4277 H 410.094 5.54302 1.7675 0
M  V30 4278 H 408.974 7.71294 1.41688 0
M  V30 4279 N 406.477 -1.02803 1.19454 0
M  V30 4280 C 407.705 -1.79841 1.02297 0
M  V30 4281 C 408.12 -1.83879 -0.428259 0
M  V30 4282 O 407.477 -1.28345 -1.29745 0
M  V30 4283 C 407.528 -3.24852 1.58598 0
M  V30 4284 O 407.249 -3.21097 2.98041 0
M  V30 4285 C 408.75 -4.18485 1.46236 0
M  V30 4286 H 405.97 -0.565936 0.360496 0
M  V30 4287 H 408.514 -1.2948 1.58288 0
M  V30 4288 H 406.669 -3.72401 1.06753 0
M  V30 4289 H 407.083 -4.12033 3.24545 0
M  V30 4290 H 408.557 -5.18121 1.90407 0
M  V30 4291 H 409.034 -4.37254 0.41301 0
M  V30 4292 H 409.64 -3.76811 1.97215 0
M  V30 4293 N 407.956 -0.998596 -1.21925 0
M  V30 4294 C 408.888 -0.511879 -2.23411 0
M  V30 4295 C 409.901 0.396094 -1.57908 0
M  V30 4296 O 411.09 0.197316 -1.77406 0
M  V30 4297 C 408.19 0.276802 -3.37768 0
M  V30 4298 C 407.363 -0.628687 -4.32858 0
M  V30 4299 C 406.422 0.109272 -5.26087 0
M  V30 4300 O 405.448 -0.507237 -5.66935 0
M  V30 4301 N 406.65 1.38983 -5.63617 0
M  V30 4302 H 409.415 -1.38457 -2.658 0
M  V30 4303 H 406.976 -0.873981 -1.36283 0
M  V30 4304 H 408.968 0.77928 -3.97126 0
M  V30 4305 H 407.538 1.05063 -2.94415 0
M  V30 4306 H 406.758 -1.31175 -3.71735 0
M  V30 4307 H 408.046 -1.24514 -4.93329 0
M  V30 4308 H 407.444 1.91194 -5.32411 0
M  V30 4309 H 406.001 1.83739 -6.25367 0
M  V30 4310 N 409.434 1.37368 -0.772513 0
M  V30 4311 C 410.364 2.32856 -0.173304 0
M  V30 4312 C 411.345 1.55818 0.682262 0
M  V30 4313 O 412.53 1.84052 0.619566 0
M  V30 4314 C 409.66 3.40048 0.706007 0
M  V30 4315 C 408.614 4.27973 -0.0483144 0
M  V30 4316 C 407.94 5.26184 0.950491 0
M  V30 4317 C 409.24 5.07665 -1.22776 0
M  V30 4318 H 410.934 2.83217 -0.971002 0
M  V30 4319 H 408.48 1.3617 -0.468377 0
M  V30 4320 H 410.433 4.05827 1.13501 0
M  V30 4321 H 409.157 2.88214 1.53623 0
M  V30 4322 H 407.816 3.63726 -0.458107 0
M  V30 4323 H 407.464 4.7063 1.77529 0
M  V30 4324 H 407.164 5.85872 0.450314 0
M  V30 4325 H 408.688 5.94838 1.37842 0
M  V30 4326 H 410.102 5.66578 -0.875366 0
M  V30 4327 H 408.499 5.76681 -1.66007 0
M  V30 4328 H 409.569 4.40294 -2.03149 0
M  V30 4329 N 410.912 0.523116 1.48665 0
M  V30 4330 C 412.158 -0.00540031 2.03399 0
M  V30 4331 C 412.513 -1.3264 1.39372 0
M  V30 4332 O 411.806 -1.84184 0.527916 0
M  V30 4333 C 412 -0.191671 3.56886 0
M  V30 4334 C 411.829 1.10972 4.35793 0
M  V30 4335 C 410.599 1.66769 4.76987 0
M  V30 4336 C 412.797 2.01861 4.73029 0
M  V30 4337 N 410.779 2.91268 5.40404 0
M  V30 4338 C 412.15 3.10937 5.36394 0
M  V30 4339 C 414.205 2.02271 4.54962 0
M  V30 4340 C 412.908 4.20478 5.83601 0
M  V30 4341 C 414.934 3.10802 5.03146 0
M  V30 4342 C 414.296 4.18597 5.6653 0
M  V30 4343 H 410.395 0.0393531 0.781009 0
M  V30 4344 H 412.979 0.702876 1.8157 0
M  V30 4345 H 411.15 -0.869025 3.78553 0
M  V30 4346 H 412.882 -0.719177 3.98259 0
M  V30 4347 H 409.637 1.20996 4.57883 0
M  V30 4348 H 410.061 3.54635 5.76683 0
M  V30 4349 H 414.703 1.2023 4.05345 0
M  V30 4350 H 412.421 5.03303 6.32228 0
M  V30 4351 H 416.007 3.12166 4.90962 0
M  V30 4352 H 414.887 5.01193 6.03138 0
M  V30 4353 N 412.39 -1.55475 0.257931 0
M  V30 4354 C 413.32 -2.24815 -0.630912 0
M  V30 4355 C 414.301 -1.23224 -1.17259 0
M  V30 4356 O 415.486 -1.51904 -1.20991 0
M  V30 4357 C 412.616 -2.95609 -1.82298 0
M  V30 4358 C 411.57 -4.03982 -1.41359 0
M  V30 4359 C 410.896 -4.6226 -2.68738 0
M  V30 4360 C 412.196 -5.19109 -0.57648 0
M  V30 4361 H 413.89 -2.99354 -0.0526878 0
M  V30 4362 H 411.436 -1.4398 -0.023901 0
M  V30 4363 H 413.389 -3.42822 -2.45054 0
M  V30 4364 H 412.113 -2.18577 -2.42676 0
M  V30 4365 H 410.772 -3.57555 -0.809324 0
M  V30 4366 H 410.42 -3.81915 -3.27338 0
M  V30 4367 H 410.12 -5.35424 -2.42065 0
M  V30 4368 H 411.644 -5.12212 -3.32372 0
M  V30 4369 H 413.058 -5.62479 -1.10861 0
M  V30 4370 H 411.455 -5.98729 -0.405351 0
M  V30 4371 H 412.525 -4.83174 0.408776 0
M  V30 4372 N 413.868 0.0150385 -1.57593 0
M  V30 4373 C 415.114 0.704043 -1.90187 0
M  V30 4374 C 415.447 1.74249 -0.857366 0
M  V30 4375 O 414.722 1.94092 0.125843 0
M  V30 4376 C 415.005 1.36087 -3.33395 0
M  V30 4377 C 414.858 0.334981 -4.48551 0
M  V30 4378 C 416.177 2.29112 -3.7576 0
M  V30 4379 H 413.296 0.254475 -0.691673 0
M  V30 4380 H 415.938 -0.0331678 -1.89971 0
M  V30 4381 H 414.088 1.98922 -3.3371 0
M  V30 4382 H 415.76 -0.292534 -4.60372 0
M  V30 4383 H 414.003 -0.344325 -4.32431 0
M  V30 4384 H 414.674 0.833316 -5.45674 0
M  V30 4385 H 417.15 1.76308 -3.76902 0
M  V30 4386 H 416.026 2.72043 -4.76743 0
M  V30 4387 H 416.287 3.16385 -3.08793 0
M  V30 4388 N 415.346 1.54954 0.287554 0
M  V30 4389 C 416.571 1.79209 1.04397 0
M  V30 4390 C 416.996 0.556431 1.79682 0
M  V30 4391 O 416.354 -0.493518 1.74454 0
M  V30 4392 C 416.402 3.00739 1.98969 0
M  V30 4393 O 415.506 2.74805 3.075 0
M  V30 4394 H 414.847 0.592755 0.299227 0
M  V30 4395 H 417.377 2.02068 0.320886 0
M  V30 4396 H 417.387 3.29077 2.4119 0
M  V30 4397 H 416.062 3.90329 1.43582 0
M  V30 4398 H 414.639 2.57523 2.69697 0
M  V30 4399 N 416.824 -0.551391 1.4764 0
M  V30 4400 C 418.101 -1.31229 1.45046 0
M  V30 4401 C 418.481 -2.10563 0.150527 0
M  V30 4402 O 417.829 -2.11374 -0.867956 0
M  V30 4403 C 418.039 -2.21189 2.69956 0
M  V30 4404 C 419.387 -2.82021 3.1741 0
M  V30 4405 O 420.411 -2.31488 2.70724 0
M  V30 4406 O 419.27 -3.73885 3.98588 0
M  V30 4407 H 416.364 -0.591193 0.578291 0
M  V30 4408 H 418.91 -0.569813 1.59847 0
M  V30 4409 H 417.682 -1.62207 3.56096 0
M  V30 4410 H 417.305 -3.02722 2.57769 0
M  V30 4411 N 418.302 -1.35869 -0.798587 0
M  V30 4412 C 419.532 -1.32529 -1.58491 0
M  V30 4413 C 419.94 0.0975405 -1.88948 0
M  V30 4414 O 419.283 1.06224 -1.49874 0
M  V30 4415 C 419.345 -2.07247 -2.9375 0
M  V30 4416 C 419.009 -3.56391 -2.86068 0
M  V30 4417 C 420.006 -4.50824 -2.58947 0
M  V30 4418 C 417.691 -3.9915 -3.04933 0
M  V30 4419 C 419.685 -5.85993 -2.5078 0
M  V30 4420 C 417.372 -5.34413 -2.96389 0
M  V30 4421 C 418.37 -6.27646 -2.69349 0
M  V30 4422 O 418.058 -7.60426 -2.60782 0
M  V30 4423 H 417.79 -0.456529 -0.498556 0
M  V30 4424 H 420.344 -1.79425 -0.999799 0
M  V30 4425 H 418.574 -1.55001 -3.54276 0
M  V30 4426 H 420.263 -1.96883 -3.54954 0
M  V30 4427 H 421.029 -4.19104 -2.44084 0
M  V30 4428 H 416.908 -3.26961 -3.24989 0
M  V30 4429 H 420.452 -6.58735 -2.29595 0
M  V30 4430 H 416.349 -5.65743 -3.10813 0
M  V30 4431 H 417.117 -7.70444 -2.76331 0
M  V30 4432 N 419.78 1.02168 -1.19998 0
M  V30 4433 C 420.73 2.08969 -0.911921 0
M  V30 4434 C 421.714 1.60404 0.12621 0
M  V30 4435 O 422.906 1.76817 -0.0804706 0
M  V30 4436 C 420.035 3.402 -0.460277 0
M  V30 4437 C 419.121 3.9548 -1.53155 0
M  V30 4438 N 419.512 4.24332 -2.75275 0
M  V30 4439 C 417.81 4.23572 -1.39653 0
M  V30 4440 C 418.511 4.68834 -3.44339 0
M  V30 4441 N 417.487 4.70804 -2.71744 0
M  V30 4442 H 421.289 2.29178 -1.83997 0
M  V30 4443 H 418.803 1.20094 -1.09322 0
M  V30 4444 H 420.8 4.16235 -0.235337 0
M  V30 4445 H 419.46 3.21408 0.4612 0
M  V30 4446 H 420.471 4.13393 -3.11973 0
M  V30 4447 H 417.148 4.14005 -0.539067 0
M  V30 4448 H 418.538 5.00019 -4.4881 0
M  V30 4449 N 421.258 1.00505 1.21394 0
M  V30 4450 C 422.168 0.574806 2.27449 0
M  V30 4451 C 423.184 -0.382206 1.6975 0
M  V30 4452 O 424.36 -0.246027 1.99892 0
M  V30 4453 C 421.425 -0.0917414 3.46579 0
M  V30 4454 C 420.486 0.909758 4.1955 0
M  V30 4455 C 419.719 0.274924 5.32991 0
M  V30 4456 O 419.942 -0.928254 5.62796 0
M  V30 4457 O 418.876 0.985877 5.93771 0
M  V30 4458 H 422.702 1.45744 2.66444 0
M  V30 4459 H 420.287 0.773923 1.27792 0
M  V30 4460 H 422.169 -0.464551 4.18832 0
M  V30 4461 H 420.844 -0.948755 3.09484 0
M  V30 4462 H 419.751 1.33372 3.49518 0
M  V30 4463 H 421.084 1.73636 4.60555 0
M  V30 4464 N 422.737 -1.36956 0.779787 0
M  V30 4465 C 423.687 -2.27539 0.144892 0
M  V30 4466 C 424.671 -1.46493 -0.665488 0
M  V30 4467 O 425.863 -1.68968 -0.527141 0
M  V30 4468 C 422.992 -3.35512 -0.727082 0
M  V30 4469 C 422.078 -4.24001 0.0915642 0
M  V30 4470 N 422.469 -4.92757 1.14125 0
M  V30 4471 C 420.767 -4.45807 -0.131141 0
M  V30 4472 C 421.468 -5.58138 1.6388 0
M  V30 4473 N 420.444 -5.35241 0.94962 0
M  V30 4474 H 424.246 -2.78176 0.948446 0
M  V30 4475 H 421.76 -1.50169 0.618315 0
M  V30 4476 H 423.757 -3.99324 -1.19776 0
M  V30 4477 H 422.417 -2.86431 -1.52929 0
M  V30 4478 H 423.428 -4.94984 1.52353 0
M  V30 4479 H 420.105 -4.07582 -0.904621 0
M  V30 4480 H 421.495 -6.23071 2.51461 0
M  V30 4481 N 424.215 -0.530993 -1.48385 0
M  V30 4482 C 425.463 0.00273189 -2.021 0
M  V30 4483 C 425.784 1.34672 -1.41027 0
M  V30 4484 O 425.054 1.8724 -0.576012 0
M  V30 4485 H 423.634 0.00399774 -0.746989 0
M  V30 4486 H 426.296 -0.695054 -1.82085 0
M  V30 4487 H 425.392 0.11031 -3.11905 0
M  V30 4488 N 425.693 1.55336 -0.266172 0
M  V30 4489 C 426.918 2.04258 0.359661 0
M  V30 4490 C 427.343 1.14359 1.49344 0
M  V30 4491 O 426.701 0.140369 1.80756 0
M  V30 4492 C 426.749 3.50997 0.826635 0
M  V30 4493 O 425.853 3.64204 1.93466 0
M  V30 4494 H 425.194 0.659668 0.075727 0
M  V30 4495 H 427.724 2.00694 -0.39786 0
M  V30 4496 H 427.734 3.9219 1.12477 0
M  V30 4497 H 426.409 4.159 -0.00293032 0
M  V30 4498 H 424.986 3.34913 1.63974 0
M  V30 4499 N 427.171 -0.0066808 1.57599 0
M  V30 4500 C 428.101 -0.999296 2.11036 0
M  V30 4501 C 429.082 -1.36278 1.01795 0
M  V30 4502 O 430.267 -1.4477 1.29442 0
M  V30 4503 C 427.397 -2.29328 2.60818 0
M  V30 4504 C 426.351 -2.07159 3.74525 0
M  V30 4505 C 425.677 -3.42512 4.10596 0
M  V30 4506 C 426.977 -1.43959 5.02069 0
M  V30 4507 H 428.671 -0.554382 2.94223 0
M  V30 4508 H 426.217 -0.265221 1.41536 0
M  V30 4509 H 428.17 -2.99117 2.96828 0
M  V30 4510 H 426.894 -2.7592 1.74745 0
M  V30 4511 H 425.553 -1.39797 3.38899 0
M  V30 4512 H 425.201 -3.86795 3.21556 0
M  V30 4513 H 424.901 -3.28498 4.87199 0
M  V30 4514 H 426.425 -4.13628 4.4916 0
M  V30 4515 H 427.839 -2.03696 5.35893 0
M  V30 4516 H 426.236 -1.40452 5.83432 0
M  V30 4517 H 427.306 -0.407992 4.83181 0
M  V30 4518 N 428.649 -1.55105 -0.279332 0
M  V30 4519 C 429.896 -1.75412 -1.01177 0
M  V30 4520 C 430.224 -0.551728 -1.86511 0
M  V30 4521 O 429.479 0.465919 -1.90073 0
M  V30 4522 C 429.778 -3.0086 -1.92919 0
M  V30 4523 C 429.444 -4.33689 -1.23387 0
M  V30 4524 C 428.106 -4.69792 -1.04159 0
M  V30 4525 C 430.458 -5.15941 -0.738562 0
M  V30 4526 C 427.786 -5.85707 -0.341166 0
M  V30 4527 C 430.138 -6.32579 -0.0517636 0
M  V30 4528 C 428.802 -6.67326 0.152292 0
M  V30 4529 H 428.072 -0.641879 -0.370233 0
M  V30 4530 H 430.719 -1.89373 -0.284627 0
M  V30 4531 H 429.024 -2.81773 -2.72234 0
M  V30 4532 H 430.721 -3.13768 -2.49701 0
M  V30 4533 H 427.311 -4.05309 -1.39364 0
M  V30 4534 H 431.495 -4.8853 -0.874764 0
M  V30 4535 H 426.751 -6.11157 -0.172287 0
M  V30 4536 H 430.925 -6.9557 0.339828 0
M  V30 4537 H 428.552 -7.56998 0.697014 0
M  V30 4538 N 430.127 0.543554 -1.4793 0
M  V30 4539 C 431.404 1.30458 -1.4574 0
M  V30 4540 C 431.784 2.1048 -0.161692 0
M  V30 4541 O 431.132 2.11831 0.856734 0
M  V30 4542 C 431.342 2.19754 -2.71126 0
M  V30 4543 C 432.69 2.80334 -3.18901 0
M  V30 4544 O 433.714 2.30049 -2.71948 0
M  V30 4545 O 432.573 3.71766 -4.00565 0
M  V30 4546 H 429.667 0.588117 -0.581418 0
M  V30 4547 H 432.213 0.561328 -1.60147 0
M  V30 4548 H 430.985 1.60316 -3.56952 0
M  V30 4549 H 430.608 3.01351 -2.59371 0
M  V30 4550 N 431.605 1.3629 0.791371 0
M  V30 4551 C 432.835 1.33368 1.57786 0
M  V30 4552 C 433.243 -0.0875188 1.88997 0
M  V30 4553 O 432.586 -1.05427 1.50435 0
M  V30 4554 C 432.648 2.08802 2.92646 0
M  V30 4555 C 432.312 3.57903 2.84174 0
M  V30 4556 C 433.309 4.52191 2.56553 0
M  V30 4557 C 430.994 4.00762 3.02812 0
M  V30 4558 C 432.988 5.87315 2.47669 0
M  V30 4559 C 430.675 5.35977 2.93551 0
M  V30 4560 C 431.673 6.29066 2.66017 0
M  V30 4561 O 431.361 7.61798 2.56746 0
M  V30 4562 H 431.093 0.459166 0.496128 0
M  V30 4563 H 433.647 1.79952 0.990269 0
M  V30 4564 H 431.877 1.56878 3.53449 0
M  V30 4565 H 433.566 1.98762 3.53904 0
M  V30 4566 H 434.332 4.20393 2.41858 0
M  V30 4567 H 430.211 3.2868 3.2325 0
M  V30 4568 H 433.755 6.59943 2.26099 0
M  V30 4569 H 429.652 5.67384 3.07808 0
M  V30 4570 H 430.42 7.71898 2.72242 0
M  V30 4571 N 433.083 -1.0153 1.20538 0
M  V30 4572 C 434.013 -2.11972 0.979295 0
M  V30 4573 C 434.994 -1.6985 -0.0921787 0
M  V30 4574 O 436.179 -1.94089 0.0655932 0
M  V30 4575 C 433.309 -3.43201 0.531984 0
M  V30 4576 C 432.263 -3.9907 1.54685 0
M  V30 4577 C 431.589 -5.26082 0.956127 0
M  V30 4578 C 432.889 -4.32313 2.93092 0
M  V30 4579 H 434.583 -2.31143 1.90298 0
M  V30 4580 H 432.129 -1.11079 0.916372 0
M  V30 4581 H 434.082 -4.1985 0.361044 0
M  V30 4582 H 432.806 -3.23792 -0.427327 0
M  V30 4583 H 431.465 -3.2453 1.70517 0
M  V30 4584 H 431.113 -5.02999 -0.0111538 0
M  V30 4585 H 430.813 -5.64426 1.63393 0
M  V30 4586 H 432.337 -6.05386 0.796284 0
M  V30 4587 H 433.751 -4.99845 2.80763 0
M  V30 4588 H 432.148 -4.81774 3.57791 0
M  V30 4589 H 433.218 -3.41025 3.44717 0
M  V30 4590 N 434.561 -1.01147 -1.20859 0
M  V30 4591 C 435.509 -0.57059 -2.25493 0
M  V30 4592 C 436.503 0.388109 -1.64894 0
M  V30 4593 O 437.709 0.258592 -1.78133 0
M  V30 4594 H 434.084 -0.166191 -0.733406 0
M  V30 4595 H 436.055 -1.46411 -2.60012 0
M  V30 4596 C 434.804 0.0805241 -3.47607 0
M  V30 4597 H 434.127 -0.648156 -3.94511 0
M  V30 4598 H 435.567 0.352197 -4.22535 0
M  V30 4599 C 434.026 1.32175 -3.09889 0
M  V30 4600 O 434.556 2.41553 -3.20959 0
M  V30 4601 N 432.762 1.20392 -2.64488 0
M  V30 4602 H 432.309 0.313905 -2.5568 0
M  V30 4603 H 432.267 2.03541 -2.39621 0
M  V30 4604 N 436.039 1.36541 -0.78704 0
M  V30 4605 C 437.455 1.52571 -0.46844 0
M  V30 4606 C 437.655 1.7415 1.01361 0
M  V30 4607 O 436.711 1.77163 1.79915 0
M  V30 4608 C 438.024 2.71299 -1.29682 0
M  V30 4609 C 439.572 2.85169 -1.29027 0
M  V30 4610 C 440.047 4.06898 -2.10233 0
M  V30 4611 N 441.538 4.1404 -2.07666 0
M  V30 4612 C 442.273 5.07301 -2.67271 0
M  V30 4613 N 441.769 6.06021 -3.35724 0
M  V30 4614 N 443.562 4.99898 -2.57018 0
M  V30 4615 H 435.713 1.20788 -1.74711 0
M  V30 4616 H 437.976 0.589364 -0.742532 0
M  V30 4617 H 437.682 2.61868 -2.34773 0
M  V30 4618 H 437.556 3.6539 -0.936479 0
M  V30 4619 H 439.943 2.94062 -0.247284 0
M  V30 4620 H 440.024 1.91992 -1.69035 0
M  V30 4621 H 439.668 3.98766 -3.1456 0
M  V30 4622 H 439.598 4.99218 -1.67597 0
M  V30 4623 H 442.089 3.43357 -1.57843 0
M  V30 4624 H 442.402 6.73741 -3.78541 0
M  V30 4625 H 440.747 6.06253 -3.39826 0
M  V30 4626 H 443.938 4.21724 -2.03142 0
M  V30 4627 H 444.111 5.72392 -3.03761 0
M  V30 4628 N 437.518 0.538854 1.48102 0
M  V30 4629 C 438.748 0.0122958 2.06596 0
M  V30 4630 C 439.156 -1.27861 1.39457 0
M  V30 4631 O 438.499 -1.77348 0.478907 0
M  V30 4632 C 438.561 -0.273131 3.58461 0
M  V30 4633 C 438.225 0.92561 4.47528 0
M  V30 4634 C 439.222 1.82637 4.86765 0
M  V30 4635 C 436.907 1.13511 4.89306 0
M  V30 4636 C 438.901 2.92047 5.66558 0
M  V30 4637 C 436.588 2.23233 5.68868 0
M  V30 4638 C 437.586 3.12333 6.07402 0
M  V30 4639 O 437.274 4.20155 6.85365 0
M  V30 4640 H 437.006 0.0344283 0.675123 0
M  V30 4641 H 439.56 0.746494 1.91355 0
M  V30 4642 H 437.79 -1.06141 3.71848 0
M  V30 4643 H 439.479 -0.742842 3.99045 0
M  V30 4644 H 440.245 1.67649 4.55103 0
M  V30 4645 H 436.124 0.450835 4.5879 0
M  V30 4646 H 439.668 3.6162 5.96554 0
M  V30 4647 H 435.565 2.38201 5.99942 0
M  V30 4648 H 436.333 4.17975 7.03732 0
M  V30 4649 N 438.996 -1.55193 0.274407 0
M  V30 4650 C 440.224 -2.03987 -0.345943 0
M  V30 4651 C 440.639 -1.15279 -1.4952 0
M  V30 4652 O 439.996 -0.172759 -1.8168 0
M  V30 4653 C 440.047 -3.51898 -0.827631 0
M  V30 4654 O 439.768 -4.37231 0.275855 0
M  V30 4655 C 441.269 -4.16577 -1.51587 0
M  V30 4656 H 438.489 -0.666335 -0.0789892 0
M  V30 4657 H 441.033 -2.00423 0.406294 0
M  V30 4658 H 439.188 -3.55909 -1.52996 0
M  V30 4659 H 439.602 -5.24415 -0.0943638 0
M  V30 4660 H 441.076 -5.21678 -1.80433 0
M  V30 4661 H 441.553 -3.64707 -2.44716 0
M  V30 4662 H 442.159 -4.16568 -0.857409 0
M  V30 4663 N 440.474 -0.00167713 -1.576 0
M  V30 4664 C 441.72 0.683832 -1.90923 0
M  V30 4665 C 442.053 1.7333 -0.875799 0
M  V30 4666 O 441.328 1.94215 0.10525 0
M  V30 4667 C 441.611 1.32543 -3.3482 0
M  V30 4668 C 441.464 0.287387 -4.48881 0
M  V30 4669 C 442.783 2.25114 -3.78169 0
M  V30 4670 H 439.902 0.247125 -0.694333 0
M  V30 4671 H 442.544 -0.0533149 -1.89925 0
M  V30 4672 H 440.694 1.95372 -3.35801 0
M  V30 4673 H 442.366 -0.341346 -4.60035 0
M  V30 4674 H 440.609 -0.39017 -4.32042 0
M  V30 4675 H 441.28 0.775393 -5.46527 0
M  V30 4676 H 443.756 1.723 -3.7875 0
M  V30 4677 H 442.632 2.66971 -4.79602 0
M  V30 4678 H 442.893 3.13092 -3.12131 0
M  V30 4679 N 441.952 1.55251 0.271103 0
M  V30 4680 C 443.18 1.79974 1.02064 0
M  V30 4681 C 443.595 0.574003 1.79863 0
M  V30 4682 O 442.952 -0.456962 1.76686 0
M  V30 4683 C 443.003 3.02603 1.97772 0
M  V30 4684 O 442.724 4.20443 1.23124 0
M  V30 4685 C 444.225 3.39944 2.84522 0
M  V30 4686 H 441.445 0.599489 0.301419 0
M  V30 4687 H 443.989 2.02268 0.301313 0
M  V30 4688 H 442.144 2.8243 2.65165 0
M  V30 4689 H 442.558 4.89783 1.87651 0
M  V30 4690 H 444.032 4.28915 3.47471 0
M  V30 4691 H 444.509 2.59432 3.54389 0
M  V30 4692 H 445.115 3.62383 2.22618 0
M  V30 4693 N 443.43 -0.535701 1.48216 0
M  V30 4694 C 444.679 -1.28828 1.55197 0
M  V30 4695 C 444.992 -1.94263 0.228278 0
M  V30 4696 O 446.198 -2.70927 0.176278 0
M  V30 4697 C 444.654 -2.33727 2.73678 0
M  V30 4698 C 444.262 -1.74386 4.12666 0
M  V30 4699 C 446.006 -3.1003 2.89968 0
M  V30 4700 C 443.913 -2.77192 5.22416 0
M  V30 4701 H 442.843 -0.484484 0.577747 0
M  V30 4702 H 445.494 -0.56646 1.74538 0
M  V30 4703 H 443.876 -3.08919 2.4776 0
M  V30 4704 H 445.05 -1.05421 4.48579 0
M  V30 4705 H 443.365 -1.10595 4.01445 0
M  V30 4706 H 445.962 -3.86842 3.6913 0
M  V30 4707 H 446.305 -3.65542 1.9921 0
M  V30 4708 H 446.838 -2.41952 3.15759 0
M  V30 4709 H 443.577 -2.26507 6.15122 0
M  V30 4710 H 443.097 -3.44502 4.90998 0
M  V30 4711 H 444.776 -3.40285 5.50286 0
M  V30 4712 N 444.908 -1.36708 -0.784132 0
M  V30 4713 C 445.818 -1.3363 -1.92822 0
M  V30 4714 C 446.834 -0.237686 -1.72369 0
M  V30 4715 O 448.01 -0.470962 -1.95816 0
M  V30 4716 C 445.075 -1.13011 -3.27764 0
M  V30 4717 C 444.136 -2.32397 -3.60957 0
M  V30 4718 C 443.369 -2.12752 -4.89461 0
M  V30 4719 O 443.592 -1.10541 -5.59586 0
M  V30 4720 O 442.526 -3.00653 -5.21432 0
M  V30 4721 H 446.352 -2.29964 -1.98369 0
M  V30 4722 H 443.937 -1.1731 -0.925136 0
M  V30 4723 H 445.819 -1.03451 -4.08504 0
M  V30 4724 H 444.494 -0.19743 -3.23097 0
M  V30 4725 H 443.401 -2.47527 -2.80502 0
M  V30 4726 H 444.734 -3.2419 -3.70354 0
M  V30 4727 N 446.386 1.0089 -1.21074 0
M  V30 4728 C 447.634 1.74262 -1.02358 0
M  V30 4729 C 447.955 1.89869 0.444393 0
M  V30 4730 O 447.225 1.44677 1.32081 0
M  V30 4731 H 445.805 0.645615 -0.375754 0
M  V30 4732 H 448.467 1.21596 -1.52317 0
M  V30 4733 H 447.563 2.74328 -1.4883 0
M  V30 4734 N 447.864 1.01787 1.20321 0
M  V30 4735 C 448.797 0.533882 2.21867 0
M  V30 4736 C 449.775 -0.419361 1.57099 0
M  V30 4737 O 450.959 -0.339062 1.85426 0
M  V30 4738 C 448.086 -0.222899 3.37966 0
M  V30 4739 C 447.132 0.680091 4.21043 0
M  V30 4740 S 447.965 2.14997 4.90445 0
M  V30 4741 C 449.121 1.40339 6.09964 0
M  V30 4742 H 449.354 1.39429 2.62577 0
M  V30 4743 H 446.887 0.826867 1.30393 0
M  V30 4744 H 448.845 -0.653425 4.05266 0
M  V30 4745 H 447.506 -1.0589 2.95713 0
M  V30 4746 H 446.699 0.0964704 5.03908 0
M  V30 4747 H 446.301 1.04845 3.59004 0
M  V30 4748 H 448.593 0.68407 6.74038 0
M  V30 4749 H 449.536 2.20823 6.72787 0
M  V30 4750 H 449.944 0.905716 5.57187 0
M  V30 4751 N 449.342 -1.36122 0.79427 0
M  V30 4752 C 450.591 -1.98361 0.365464 0
M  V30 4753 C 450.904 -1.6374 -1.06997 0
M  V30 4754 O 452.11 -2.19251 -1.60129 0
M  V30 4755 C 450.566 -3.54821 0.602496 0
M  V30 4756 C 450.174 -3.98362 2.04967 0
M  V30 4757 C 451.918 -4.2383 0.238437 0
M  V30 4758 C 449.825 -5.47619 2.2331 0
M  V30 4759 H 448.755 -0.742193 0.13291 0
M  V30 4760 H 451.406 -1.55354 0.976589 0
M  V30 4761 H 449.788 -3.95922 -0.078409 0
M  V30 4762 H 450.962 -3.68447 2.76737 0
M  V30 4763 H 449.277 -3.42206 2.37243 0
M  V30 4764 H 451.874 -5.33529 0.353705 0
M  V30 4765 H 452.217 -4.08264 -0.814006 0
M  V30 4766 H 452.75 -3.88108 0.872769 0
M  V30 4767 H 449.489 -5.68138 3.26955 0
M  V30 4768 H 449.009 -5.79145 1.5605 0
M  V30 4769 H 450.688 -6.13911 2.0426 0
M  V30 4770 N 450.82 -0.546701 -1.47814 0
M  V30 4771 C 451.767 0.206854 -2.29871 0
M  V30 4772 C 452.737 0.918235 -1.38411 0
M  V30 4773 O 453.922 0.915991 -1.67375 0
M  V30 4774 C 451.062 1.23746 -3.22151 0
M  V30 4775 C 450.175 0.533216 -4.28697 0
M  V30 4776 C 449.31 1.5482 -5.08138 0
M  V30 4777 C 448.349 0.828347 -6.06469 0
M  V30 4778 N 447.486 1.78966 -6.78908 0
M  V30 4779 H 452.326 -0.499037 -2.93792 0
M  V30 4780 H 449.863 -0.25793 -1.44821 0
M  V30 4781 H 451.821 1.84746 -3.74065 0
M  V30 4782 H 450.451 1.91151 -2.60117 0
M  V30 4783 H 449.503 -0.191089 -3.7992 0
M  V30 4784 H 450.815 -0.0311987 -4.9879 0
M  V30 4785 H 449.969 2.23202 -5.6415 0
M  V30 4786 H 448.708 2.14652 -4.37922 0
M  V30 4787 H 447.713 0.130539 -5.49645 0
M  V30 4788 H 448.938 0.235907 -6.7869 0
M  V30 4789 H 446.884 2.37675 -6.1143 0
M  V30 4790 H 446.801 1.27712 -7.45135 0
M  V30 4791 H 448.069 2.46496 -7.395 0
M  V30 4792 N 452.299 1.55045 -0.282633 0
M  V30 4793 C 453.229 2.2579 0.595066 0
M  V30 4794 C 454.21 1.25074 1.15284 0
M  V30 4795 O 455.395 1.5381 1.18559 0
M  V30 4796 C 452.525 2.98472 1.77572 0
M  V30 4797 C 451.479 4.0618 1.34914 0
M  V30 4798 C 450.805 4.66477 2.6135 0
M  V30 4799 C 452.105 5.1996 0.493821 0
M  V30 4800 H 453.799 2.994 0.00505653 0
M  V30 4801 H 451.345 1.44 0.000992001 0
M  V30 4802 H 453.298 3.46677 2.39568 0
M  V30 4803 H 452.022 2.2241 2.39168 0
M  V30 4804 H 450.681 3.58797 0.752338 0
M  V30 4805 H 450.329 3.87074 3.2122 0
M  V30 4806 H 450.029 5.39207 2.33516 0
M  V30 4807 H 451.553 5.17435 3.24181 0
M  V30 4808 H 452.967 5.64172 1.01898 0
M  V30 4809 H 451.364 5.99299 0.310047 0
M  V30 4810 H 452.434 4.82462 -0.485593 0
M  V30 4811 N 453.777 0.010035 1.57597 0
M  V30 4812 C 454.74 -0.963029 2.07986 0
M  V30 4813 C 455.74 -1.26619 0.991173 0
M  V30 4814 O 456.93 -1.2097 1.25347 0
M  V30 4815 C 454.062 -2.2851 2.52974 0
M  V30 4816 H 455.255 -0.526971 2.95234 0
M  V30 4817 H 452.808 -0.237639 1.54483 0
M  V30 4818 H 453.543 -2.76784 1.69 0
M  V30 4819 H 453.328 -2.07824 3.32493 0
M  V30 4820 H 454.818 -2.98294 2.9225 0
M  V30 4821 N 455.255 -1.55392 -0.262866 0
M  V30 4822 C 456.185 -1.91978 -1.32917 0
M  V30 4823 C 457.166 -0.7828 -1.51017 0
M  V30 4824 O 458.351 -1.04178 -1.63892 0
M  V30 4825 C 455.481 -2.20055 -2.68687 0
M  V30 4826 C 454.435 -3.35854 -2.65304 0
M  V30 4827 C 453.761 -3.49435 -4.04721 0
M  V30 4828 C 455.061 -4.71977 -2.23685 0
M  V30 4829 H 456.755 -2.81292 -1.02544 0
M  V30 4830 H 454.301 -1.3534 -0.491846 0
M  V30 4831 H 456.254 -2.44237 -3.43404 0
M  V30 4832 H 454.978 -1.27551 -3.00663 0
M  V30 4833 H 453.637 -3.11655 -1.93045 0
M  V30 4834 H 453.285 -2.54379 -4.33936 0
M  V30 4835 H 452.985 -4.27297 -4.0335 0
M  V30 4836 H 454.509 -3.7592 -4.81161 0
M  V30 4837 H 455.923 -4.95637 -2.88127 0
M  V30 4838 H 454.32 -5.52828 -2.33456 0
M  V30 4839 H 455.39 -4.70115 -1.18827 0
M  V30 4840 N 456.733 0.527833 -1.48498 0
M  V30 4841 C 457.958 1.313 -1.60546 0
M  V30 4842 C 458.383 1.86199 -0.26672 0
M  V30 4843 O 457.741 1.64513 0.761918 0
M  V30 4844 C 457.789 2.43818 -2.65678 0
M  V30 4845 O 456.893 3.46916 -2.22987 0
M  V30 4846 H 456.234 0.388784 -0.538277 0
M  V30 4847 H 458.764 0.634896 -1.945 0
M  V30 4848 H 458.774 2.89973 -2.87018 0
M  V30 4849 H 457.449 2.03222 -3.62869 0
M  V30 4850 H 456.026 3.06864 -2.11869 0
M  V30 4851 N 458.211 1.37122 0.776871 0
M  V30 4852 C 459.174 1.32301 1.8716 0
M  V30 4853 C 460.174 0.228099 1.59174 0
M  V30 4854 O 461.364 0.483642 1.67352 0
M  V30 4855 C 458.496 1.054 3.24197 0
M  V30 4856 H 459.689 2.29673 1.92848 0
M  V30 4857 H 457.242 1.22077 0.97606 0
M  V30 4858 H 457.977 0.0853872 3.24188 0
M  V30 4859 H 457.762 1.84648 3.45901 0
M  V30 4860 H 459.252 1.04664 4.04271 0
M  V30 4861 N 459.689 -1.00246 1.21608 0
M  V30 4862 C 460.652 -2.07233 0.979133 0
M  V30 4863 C 461.652 -1.6072 -0.0508219 0
M  V30 4864 O 462.842 -1.73196 0.186712 0
M  V30 4865 C 459.974 -3.37546 0.477016 0
M  V30 4866 H 461.167 -2.29687 1.92831 0
M  V30 4867 H 458.72 -1.17261 1.03342 0
M  V30 4868 H 459.455 -3.20773 -0.476966 0
M  V30 4869 H 459.24 -3.72638 1.21997 0
M  V30 4870 H 460.73 -4.16285 0.331181 0
M  V30 4871 N 461.167 -1.02423 -1.1978 0
M  V30 4872 C 462.392 -0.7373 -1.93852 0
M  V30 4873 C 462.817 0.696923 -1.74713 0
M  V30 4874 O 462.175 1.48056 -1.04638 0
M  V30 4875 C 462.223 -1.08783 -3.438 0
M  V30 4876 O 461.327 -0.20383 -4.11896 0
M  V30 4877 H 460.668 -0.27284 -0.605355 0
M  V30 4878 H 463.198 -1.36966 -1.51992 0
M  V30 4879 H 463.208 -1.04276 -3.9445 0
M  V30 4880 H 461.883 -2.13274 -3.57053 0
M  V30 4881 H 460.46 -0.307091 -3.71633 0
M  V30 4882 N 462.645 1.35699 -0.801477 0
M  V30 4883 C 463.893 1.9852 -0.37871 0
M  V30 4884 C 464.214 1.63907 1.05638 0
M  V30 4885 O 463.484 0.919013 1.73006 0
M  V30 4886 H 462.064 0.734322 -0.137042 0
M  V30 4887 H 464.726 1.65697 -1.02619 0
M  V30 4888 H 463.822 3.08382 -0.480284 0
M  V30 4889 N 464.123 0.554532 1.47522 0
M  V30 4890 C 465.053 -0.182974 2.32782 0
M  V30 4891 C 466.034 -0.911377 1.43624 0
M  V30 4892 O 467.219 -0.892366 1.72483 0
M  V30 4893 C 464.349 -1.21513 3.25349 0
M  V30 4894 C 463.303 -0.603355 4.23726 0
M  V30 4895 C 462.629 -1.73995 5.05598 0
M  V30 4896 C 463.929 0.441121 5.20434 0
M  V30 4897 H 465.623 0.52882 2.94693 0
M  V30 4898 H 463.169 0.255759 1.41711 0
M  V30 4899 H 465.122 -1.73922 3.83835 0
M  V30 4900 H 463.846 -1.95683 2.61487 0
M  V30 4901 H 462.505 -0.10059 3.66462 0
M  V30 4902 H 462.153 -2.47063 4.38143 0
M  V30 4903 H 461.853 -1.3364 5.72201 0
M  V30 4904 H 463.377 -2.26735 5.66942 0
M  V30 4905 H 464.791 0.00319931 5.733 0
M  V30 4906 H 463.188 0.763402 5.95224 0
M  V30 4907 H 464.258 1.33799 4.66075 0
M  V30 4908 N 465.601 -1.54893 0.290851 0
M  V30 4909 C 466.564 -2.21824 -0.576784 0
M  V30 4910 C 467.564 -1.20104 -1.06919 0
M  V30 4911 O 468.754 -1.44906 -0.966843 0
M  V30 4912 C 465.886 -2.89662 -1.79747 0
M  V30 4913 H 467.079 -2.99899 0.00784051 0
M  V30 4914 H 464.632 -1.56245 0.0415934 0
M  V30 4915 H 465.367 -2.15639 -2.42219 0
M  V30 4916 H 465.152 -3.64219 -1.45214 0
M  V30 4917 H 466.642 -3.4075 -2.4141 0
M  V30 4918 N 467.08 -0.0183926 -1.57589 0
M  V30 4919 C 468.03 0.975944 -2.06057 0
M  V30 4920 C 469.014 1.29204 -0.958908 0
M  V30 4921 O 470.206 1.27995 -1.22255 0
M  V30 4922 C 467.335 2.26194 -2.58247 0
M  V30 4923 C 466.421 1.97467 -3.75323 0
M  V30 4924 N 466.812 1.38968 -4.86335 0
M  V30 4925 C 465.11 2.27515 -3.83605 0
M  V30 4926 C 465.811 1.27131 -5.67638 0
M  V30 4927 N 464.787 1.76319 -5.14211 0
M  V30 4928 H 468.589 0.518444 -2.89291 0
M  V30 4929 H 466.103 0.18688 -1.61321 0
M  V30 4930 H 468.1 2.98289 -2.91255 0
M  V30 4931 H 466.76 2.7258 -1.76438 0
M  V30 4932 H 467.771 1.06608 -5.06809 0
M  V30 4933 H 464.448 2.76649 -3.12684 0
M  V30 4934 H 465.838 0.819882 -6.66879 0
M  V30 4935 N 468.558 1.5553 0.254621 0
M  V30 4936 C 469.488 1.9268 1.31897 0
M  V30 4937 C 470.469 0.790797 1.506 0
M  V30 4938 O 471.654 1.05045 1.63337 0
M  V30 4939 C 468.784 2.21477 2.67517 0
M  V30 4940 C 467.738 3.37256 2.63519 0
M  V30 4941 C 467.064 3.51576 4.02862 0
M  V30 4942 C 468.364 4.73157 2.21179 0
M  V30 4943 H 470.058 2.81832 1.01051 0
M  V30 4944 H 467.604 1.35599 0.484662 0
M  V30 4945 H 469.557 2.46055 3.42104 0
M  V30 4946 H 468.281 1.29144 2.99982 0
M  V30 4947 H 466.94 3.12675 1.9139 0
M  V30 4948 H 466.588 2.56676 4.32581 0
M  V30 4949 H 466.288 4.2943 4.01078 0
M  V30 4950 H 467.812 3.78467 4.79161 0
M  V30 4951 H 469.226 4.97158 2.85494 0
M  V30 4952 H 467.623 5.54058 2.30521 0
M  V30 4953 H 468.693 4.70739 1.16332 0
M  V30 4954 N 470.036 -0.519951 1.48776 0
M  V30 4955 C 470.986 -1.61995 1.60442 0
M  V30 4956 C 471.97 -1.54155 0.460991 0
M  V30 4957 O 473.162 -1.62006 0.712965 0
M  V30 4958 C 470.291 -3.00683 1.65664 0
M  V30 4959 C 469.377 -3.1359 2.8552 0
M  V30 4960 N 469.768 -2.96441 4.09825 0
M  V30 4961 C 468.066 -3.44662 2.83062 0
M  V30 4962 C 468.767 -3.1303 4.90293 0
M  V30 4963 N 467.743 -3.41058 4.23297 0
M  V30 4964 H 471.545 -1.47362 2.54287 0
M  V30 4965 H 469.059 -0.725649 1.45286 0
M  V30 4966 H 471.056 -3.79712 1.72117 0
M  V30 4967 H 469.716 -3.16401 0.729425 0
M  V30 4968 H 470.727 -2.72999 4.40104 0
M  V30 4969 H 467.404 -3.66675 1.9964 0
M  V30 4970 H 468.794 -3.04424 5.98979 0
M  V30 4971 N 471.514 -1.37532 -0.769588 0
M  V30 4972 C 472.447 -1.27839 -1.8903 0
M  V30 4973 C 473.425 -0.158504 -1.61826 0
M  V30 4974 O 474.609 -0.333086 -1.85534 0
M  V30 4975 C 471.736 -0.977072 -3.24301 0
M  V30 4976 C 470.782 -2.11414 -3.70414 0
M  V30 4977 S 471.615 -3.73409 -3.83831 0
M  V30 4978 C 472.771 -3.45432 -5.21946 0
M  V30 4979 H 473.004 -2.22694 -1.96963 0
M  V30 4980 H 470.537 -1.2318 -0.930914 0
M  V30 4981 H 472.495 -0.810049 -4.02428 0
M  V30 4982 H 471.156 -0.0459701 -3.14066 0
M  V30 4983 H 470.349 -1.85837 -4.68488 0
M  V30 4984 H 469.951 -2.24141 -2.99394 0
M  V30 4985 H 472.243 -3.00554 -6.07185 0
M  V30 4986 H 473.186 -4.42841 -5.52537 0
M  V30 4987 H 473.594 -2.80311 -4.89986 0
M  V30 4988 N 472.992 0.995999 -1.22138 0
M  V30 4989 C 473.902 2.11985 -1.00496 0
M  V30 4990 C 474.918 1.7394 0.0457701 0
M  V30 4991 O 476.094 2.00868 -0.146273 0
M  V30 4992 C 473.159 3.41779 -0.582086 0
M  V30 4993 C 472.22 3.93943 -1.70608 0
M  V30 4994 C 471.453 5.17542 -1.30328 0
M  V30 4995 O 471.676 5.70114 -0.180743 0
M  V30 4996 O 470.61 5.63382 -2.11861 0
M  V30 4997 H 474.436 2.33123 -1.94647 0
M  V30 4998 H 472.021 1.10358 -1.00705 0
M  V30 4999 H 473.903 4.1989 -0.356467 0
M  V30 5000 H 472.578 3.22007 0.330592 0
M  V30 5001 H 471.485 3.17019 -1.98619 0
M  V30 5002 H 472.818 4.18141 -2.59651 0
M  V30 5003 N 474.47 1.03057 1.19235 0
M  V30 5004 C 475.719 0.72326 1.88287 0
M  V30 5005 C 476.032 -0.751333 1.80594 0
M  V30 5006 O 477.238 -1.17176 2.44912 0
M  V30 5007 C 475.694 1.24338 3.3774 0
M  V30 5008 C 475.302 2.74587 3.53986 0
M  V30 5009 C 477.046 1.01213 4.12257 0
M  V30 5010 C 474.953 3.20009 4.97341 0
M  V30 5011 H 473.883 0.266848 0.705201 0
M  V30 5012 H 476.534 1.24509 1.34795 0
M  V30 5013 H 474.916 0.649457 3.90638 0
M  V30 5014 H 476.09 3.39649 3.11408 0
M  V30 5015 H 474.405 2.9601 2.9286 0
M  V30 5016 H 477.002 1.32675 5.17978 0
M  V30 5017 H 477.345 -0.051001 4.16269 0
M  V30 5018 H 477.878 1.57014 3.65501 0
M  V30 5019 H 474.617 4.25659 4.98493 0
M  V30 5020 H 474.137 2.59676 5.40674 0
M  V30 5021 H 475.816 3.13447 5.66003 0
M  V30 5022 N 475.948 -1.35272 0.808662 0
M  V30 5023 C 477.194 -1.99003 0.390581 0
M  V30 5024 C 477.527 -1.63999 -1.0401 0
M  V30 5025 O 476.802 -0.904368 -1.72196 0
M  V30 5026 C 477.085 -3.55454 0.576566 0
M  V30 5027 C 476.938 -4.00249 2.05233 0
M  V30 5028 C 478.257 -4.401 0.00354277 0
M  V30 5029 H 475.376 -0.722917 0.143388 0
M  V30 5030 H 478.018 -1.6039 1.01858 0
M  V30 5031 H 476.168 -3.88477 0.0419766 0
M  V30 5032 H 477.84 -3.77626 2.64946 0
M  V30 5033 H 476.083 -3.51082 2.54801 0
M  V30 5034 H 476.754 -5.0911 2.13333 0
M  V30 5035 H 479.23 -4.13548 0.460117 0
M  V30 5036 H 478.106 -5.48656 0.163575 0
M  V30 5037 H 478.367 -4.28444 -1.09032 0
M  V30 5038 N 477.426 -0.562348 -1.47226 0
M  V30 5039 C 478.674 -0.0401371 -2.0206 0
M  V30 5040 C 478.995 1.3165 -1.43852 0
M  V30 5041 O 478.265 1.85976 -0.615599 0
M  V30 5042 H 476.845 -0.0118479 -0.746906 0
M  V30 5043 H 479.507 -0.73352 -1.8057 0
M  V30 5044 H 478.603 0.0441254 -3.12069 0
M  V30 5045 N 478.904 1.54736 -0.299062 0
M  V30 5046 C 480.132 2.04512 0.313447 0
M  V30 5047 C 480.547 1.17643 1.47667 0
M  V30 5048 O 479.904 0.20164 1.81383 0
M  V30 5049 C 479.955 3.53171 0.771542 0
M  V30 5050 O 479.676 4.36736 -0.345379 0
M  V30 5051 C 481.177 4.18936 1.4494 0
M  V30 5052 H 478.397 0.667507 0.0683784 0
M  V30 5053 H 480.941 1.99752 -0.438129 0
M  V30 5054 H 479.096 3.58298 1.47314 0
M  V30 5055 H 479.51 5.24499 0.0109219 0
M  V30 5056 H 480.984 5.24482 1.72111 0
M  V30 5057 H 481.461 3.68554 2.38883 0
M  V30 5058 H 482.067 4.17879 0.791028 0
M  V30 5059 N 480.382 0.0267497 1.57577 0
M  V30 5060 C 481.314 -0.984594 2.06974 0
M  V30 5061 C 482.327 -1.29032 0.992705 0
M  V30 5062 O 483.516 -1.25539 1.26895 0
M  V30 5063 C 480.616 -2.31262 2.47732 0
M  V30 5064 C 479.789 -2.1924 3.78487 0
M  V30 5065 C 478.848 -3.34956 4.05821 0
M  V30 5066 O 477.874 -3.11948 4.76106 0
M  V30 5067 N 479.076 -4.58672 3.55809 0
M  V30 5068 H 481.841 -0.563143 2.94362 0
M  V30 5069 H 479.402 -0.160061 1.61107 0
M  V30 5070 H 481.394 -3.07496 2.63112 0
M  V30 5071 H 479.964 -2.65056 1.65723 0
M  V30 5072 H 479.184 -1.27747 3.72927 0
M  V30 5073 H 480.472 -2.08409 4.64158 0
M  V30 5074 H 479.87 -4.8026 2.98942 0
M  V30 5075 H 478.427 -5.32083 3.76472 0
M  V30 5076 N 481.861 -1.55662 -0.24637 0
M  V30 5077 C 483.109 -1.77168 -0.972411 0
M  V30 5078 C 483.43 -0.590827 -1.85834 0
M  V30 5079 O 482.7 0.393365 -1.9191 0
M  V30 5080 H 481.28 -0.653405 -0.362038 0
M  V30 5081 H 483.942 -1.93101 -0.264189 0
M  V30 5082 H 483.038 -2.68335 -1.59382 0
M  V30 5083 N 483.339 0.512053 -1.4905 0
M  V30 5084 C 484.286 1.6148 -1.64902 0
M  V30 5085 C 485.256 1.58687 -0.490673 0
M  V30 5086 O 486.441 1.76842 -0.71636 0
M  V30 5087 C 483.581 2.99676 -1.71139 0
M  V30 5088 C 482.694 3.12568 -2.98203 0
M  V30 5089 C 481.829 4.4143 -2.95487 0
M  V30 5090 C 480.868 4.47916 -4.17179 0
M  V30 5091 N 480.005 5.68191 -4.12437 0
M  V30 5092 H 484.845 1.47271 -2.59066 0
M  V30 5093 H 482.382 0.716713 -1.28459 0
M  V30 5094 H 484.34 3.79761 -1.72736 0
M  V30 5095 H 482.97 3.12614 -0.804508 0
M  V30 5096 H 482.022 2.25618 -3.06269 0
M  V30 5097 H 483.334 3.1322 -3.88194 0
M  V30 5098 H 482.488 5.29825 -2.95585 0
M  V30 5099 H 481.227 4.43326 -2.03256 0
M  V30 5100 H 480.232 3.57925 -4.17337 0
M  V30 5101 H 481.457 4.47744 -5.1059 0
M  V30 5102 H 479.403 5.7095 -3.23036 0
M  V30 5103 H 479.32 5.70413 -4.96151 0
M  V30 5104 H 480.588 6.58823 -4.16621 0
M  V30 5105 N 484.817 1.37938 0.762283 0
M  V30 5106 C 486.228 1.30094 1.33912 0
M  V30 5107 C 486.579 -0.0472026 1.96143 0
M  V30 5108 O 485.704 -0.94917 1.94473 0
M  V30 5109 C 486.299 2.35592 2.43478 0
M  V30 5110 C 484.858 2.31353 2.96905 0
M  V30 5111 C 484.005 2.18919 1.70205 0
M  V30 5112 H 486.956 1.48423 0.561816 0
M  V30 5113 H 486.977 2.00806 3.23199 0
M  V30 5114 H 486.489 3.33701 1.98155 0
M  V30 5115 H 484.59 1.36799 3.46579 0
M  V30 5116 H 484.703 3.25147 3.51875 0
M  V30 5117 H 483.067 1.65624 1.93496 0
M  V30 5118 H 483.85 3.18956 1.26973 0
M  V30 5119 N 486.295 -0.989507 1.22664 0
M  V30 5120 C 487.543 -1.72612 1.05117 0
M  V30 5121 C 487.864 -1.90552 -0.414131 0
M  V30 5122 O 487.134 -1.4676 -1.29762 0
M  V30 5123 H 485.714 -0.639555 0.385977 0
M  V30 5124 H 488.376 -1.19158 1.54232 0
M  V30 5125 H 487.472 -2.71926 1.53175 0
M  V30 5126 N 487.773 -1.03688 -1.18687 0
M  V30 5127 C 489.022 -0.733235 -1.879 0
M  V30 5128 C 489.335 0.741745 -1.8099 0
M  V30 5129 O 490.541 1.15875 -2.4553 0
M  V30 5130 C 488.997 -1.26127 -3.37076 0
M  V30 5131 C 488.605 -2.76461 -3.52524 0
M  V30 5132 C 490.349 -1.03398 -4.11715 0
M  V30 5133 C 488.256 -3.22642 -4.95637 0
M  V30 5134 H 487.186 -0.270584 -0.703776 0
M  V30 5135 H 489.837 -1.25222 -1.34133 0
M  V30 5136 H 488.219 -0.670165 -3.90288 0
M  V30 5137 H 489.393 -3.41296 -3.09602 0
M  V30 5138 H 487.708 -2.97559 -2.91286 0
M  V30 5139 H 490.305 -1.3542 -5.17267 0
M  V30 5140 H 490.648 0.0289246 -4.1629 0
M  V30 5141 H 491.181 -1.5895 -3.64664 0
M  V30 5142 H 487.92 -4.28296 -4.96228 0
M  V30 5143 H 487.44 -2.62539 -5.39289 0
M  V30 5144 H 489.119 -3.16444 -5.64333 0
M  V30 5145 N 489.251 1.34841 -0.815825 0
M  V30 5146 C 490.214 2.27959 -0.238185 0
M  V30 5147 C 491.214 1.49983 0.579816 0
M  V30 5148 O 492.404 1.69617 0.396953 0
M  V30 5149 C 489.536 3.34314 0.666876 0
M  V30 5150 H 490.729 2.80558 -1.05958 0
M  V30 5151 H 488.282 1.44852 -0.587156 0
M  V30 5152 H 489.017 2.86916 1.5116 0
M  V30 5153 H 488.802 3.92014 0.0819106 0
M  V30 5154 H 490.292 4.0379 1.06506 0
M  V30 5155 N 490.729 0.570148 1.46925 0
M  V30 5156 C 491.679 -0.190921 2.27199 0
M  V30 5157 C 492.663 -0.873457 1.35128 0
M  V30 5158 O 493.855 -0.769627 1.59392 0
M  V30 5159 C 490.984 -1.21204 3.21192 0
M  V30 5160 C 490.07 -0.532261 4.20747 0
M  V30 5161 N 490.461 0.405038 5.04176 0
M  V30 5162 C 488.759 -0.784582 4.39045 0
M  V30 5163 C 489.46 0.801149 5.76157 0
M  V30 5164 N 488.436 0.153082 5.43384 0
M  V30 5165 H 492.238 0.529535 2.8909 0
M  V30 5166 H 489.752 0.391019 1.57622 0
M  V30 5167 H 491.749 -1.77135 3.77398 0
M  V30 5168 H 490.409 -1.93345 2.6086 0
M  V30 5169 H 491.42 0.779903 5.11994 0
M  V30 5170 H 488.097 -1.49352 3.89872 0
M  V30 5171 H 489.487 1.57208 6.5325 0
M  V30 5172 N 492.207 -1.54576 0.307264 0
M  V30 5173 C 493.623 -1.59534 -0.0459251 0
M  V30 5174 C 493.823 -1.32414 -1.51884 0
M  V30 5175 O 492.879 -1.1006 -2.27251 0
M  V30 5176 C 494.192 -2.98566 0.357649 0
M  V30 5177 C 495.74 -3.11491 0.306937 0
M  V30 5178 C 496.215 -4.52842 0.685427 0
M  V30 5179 N 497.706 -4.58782 0.638203 0
M  V30 5180 C 498.441 -5.66238 0.903458 0
M  V30 5181 N 497.937 -6.81703 1.23501 0
M  V30 5182 N 499.73 -5.55937 0.830102 0
M  V30 5183 H 491.881 -1.70464 1.26712 0
M  V30 5184 H 494.144 -0.79647 0.514139 0
M  V30 5185 H 493.85 -3.23356 1.38325 0
M  V30 5186 H 493.724 -3.76117 -0.285565 0
M  V30 5187 H 496.111 -2.86446 -0.709424 0
M  V30 5188 H 496.192 -2.36081 0.984861 0
M  V30 5189 H 495.836 -4.78618 1.69963 0
M  V30 5190 H 495.766 -5.26598 -0.0146346 0
M  V30 5191 H 498.257 -3.75849 0.393138 0
M  V30 5192 H 498.57 -7.59582 1.42322 0
M  V30 5193 H 496.915 -6.8324 1.27311 0
M  V30 5194 H 500.106 -4.64608 0.570693 0
M  V30 5195 H 500.279 -6.39597 1.04019 0
M  V30 5196 N 493.685 -0.035106 -1.57561 0
M  V30 5197 C 494.962 0.681212 -1.83354 0
M  V30 5198 C 495.342 1.89986 -0.920252 0
M  V30 5199 O 494.69 2.28489 0.0226815 0
M  V30 5200 C 494.9 1.05376 -3.32712 0
M  V30 5201 C 496.248 1.44286 -3.99333 0
M  V30 5202 O 497.272 1.14656 -3.37242 0
M  V30 5203 O 496.131 1.99518 -5.08778 0
M  V30 5204 H 493.225 0.334741 -0.756226 0
M  V30 5205 H 495.771 -0.0632448 -1.69582 0
M  V30 5206 H 494.543 0.186668 -3.90854 0
M  V30 5207 H 494.166 1.85619 -3.51613 0
M  V30 5208 N 495.163 1.55791 0.238111 0
M  V30 5209 C 496.093 1.94068 1.29846 0
M  V30 5210 C 497.074 0.806726 1.49753 0
M  V30 5211 O 498.259 1.06772 1.62214 0
M  V30 5212 C 495.389 2.24302 2.65153 0
M  V30 5213 C 494.343 3.40032 2.59927 0
M  V30 5214 C 493.669 3.55829 3.99111 0
M  V30 5215 C 494.969 4.75476 2.16148 0
M  V30 5216 H 496.663 2.82887 0.980563 0
M  V30 5217 H 494.209 1.36105 0.470253 0
M  V30 5218 H 496.162 2.4967 3.39475 0
M  V30 5219 H 494.886 1.32318 2.98596 0
M  V30 5220 H 493.545 3.14687 1.88063 0
M  V30 5221 H 493.193 2.6125 4.29834 0
M  V30 5222 H 492.893 4.3366 3.96501 0
M  V30 5223 H 494.417 3.83528 4.7512 0
M  V30 5224 H 495.831 5.00158 2.80205 0
M  V30 5225 H 494.228 5.56472 2.24631 0
M  V30 5226 H 495.298 4.71946 1.11333 0
M  V30 5227 N 496.642 -0.504142 1.49319 0
M  V30 5228 C 497.589 -1.60603 1.65756 0
M  V30 5229 C 498.559 -1.58425 0.499082 0
M  V30 5230 O 499.744 -1.76459 0.725728 0
M  V30 5231 C 496.884 -2.98764 1.72726 0
M  V30 5232 C 495.997 -3.10982 2.99857 0
M  V30 5233 C 495.132 -4.39857 2.97824 0
M  V30 5234 C 494.171 -4.45697 4.19548 0
M  V30 5235 N 493.308 -5.65995 4.15444 0
M  V30 5236 H 498.148 -1.45895 2.59843 0
M  V30 5237 H 495.685 -0.709891 1.28837 0
M  V30 5238 H 497.643 -3.78839 1.74747 0
M  V30 5239 H 496.273 -3.12183 0.821075 0
M  V30 5240 H 495.325 -2.23991 3.07461 0
M  V30 5241 H 496.637 -3.11157 3.89849 0
M  V30 5242 H 495.791 -5.2825 2.98391 0
M  V30 5243 H 494.53 -4.42242 2.05604 0
M  V30 5244 H 493.535 -3.55707 4.19229 0
M  V30 5245 H 494.76 -4.4503 5.12957 0
M  V30 5246 H 492.706 -5.69229 3.26059 0
M  V30 5247 H 492.623 -5.67773 4.99169 0
M  V30 5248 H 493.891 -6.56604 4.20109 0
M  V30 5249 N 498.12 -1.38341 -0.754957 0
M  V30 5250 C 499.345 -1.37882 -1.5493 0
M  V30 5251 C 499.77 0.0296385 -1.88077 0
M  V30 5252 O 499.128 1.01133 -1.50472 0
M  V30 5253 C 499.176 -2.23996 -2.82592 0
M  V30 5254 O 498.28 -1.65612 -3.77686 0
M  V30 5255 H 497.621 -0.470384 -0.468652 0
M  V30 5256 H 500.151 -1.82084 -0.933082 0
M  V30 5257 H 500.161 -2.37806 -3.3153 0
M  V30 5258 H 498.836 -3.26365 -2.57796 0
M  V30 5259 H 497.413 -1.60936 -3.36384 0
M  V30 5260 N 499.598 0.982988 -1.23187 0
M  V30 5261 C 500.545 2.07491 -1.01075 0
M  V30 5262 C 501.515 1.65949 0.070905 0
M  V30 5263 O 502.7 1.90629 -0.0806822 0
M  V30 5264 C 499.84 3.39751 -0.605261 0
M  V30 5265 C 498.953 3.94578 -1.75876 0
M  V30 5266 C 498.088 5.15039 -1.3003 0
M  V30 5267 C 497.127 5.62027 -2.42472 0
M  V30 5268 N 496.264 6.73719 -1.97602 0
M  V30 5269 H 501.104 2.25739 -1.9454 0
M  V30 5270 H 498.641 1.10659 -0.969179 0
M  V30 5271 H 500.599 4.15719 -0.351279 0
M  V30 5272 H 499.229 3.21473 0.292382 0
M  V30 5273 H 498.281 3.1539 -2.12681 0
M  V30 5274 H 499.593 4.25422 -2.60418 0
M  V30 5275 H 498.747 5.9833 -1.00429 0
M  V30 5276 H 497.486 4.85843 -0.425216 0
M  V30 5277 H 496.491 4.77318 -2.7285 0
M  V30 5278 H 497.716 5.93244 -3.30512 0
M  V30 5279 H 495.662 6.46287 -1.1247 0
M  V30 5280 H 495.579 7.03934 -2.75705 0
M  V30 5281 H 496.847 7.6049 -1.71098 0
M  V30 5282 N 501.076 1.04316 1.18135 0
M  V30 5283 C 502.024 0.630175 2.23901 0
M  V30 5284 C 503.018 -0.344254 1.65865 0
M  V30 5285 O 504.224 -0.211273 1.78756 0
M  V30 5286 H 500.599 0.185578 0.728742 0
M  V30 5287 H 502.57 1.53253 2.56039 0
M  V30 5288 C 501.319 0.011666 3.47698 0
M  V30 5289 H 500.642 0.752526 3.92654 0
M  V30 5290 H 502.082 -0.240046 4.2332 0
M  V30 5291 C 500.541 -1.23913 3.13285 0
M  V30 5292 O 501.071 -2.32959 3.27251 0
M  V30 5293 N 499.277 -1.13338 2.67587 0
M  V30 5294 H 498.824 -0.246006 2.56423 0
M  V30 5295 H 498.782 -1.97116 2.44934 0
M  V30 5296 N 502.554 -1.34406 0.822964 0
M  V30 5297 C 503.803 -1.97542 0.407458 0
M  V30 5298 C 504.116 -1.65973 -1.035 0
M  V30 5299 O 505.322 -2.22598 -1.55442 0
M  V30 5300 C 503.778 -3.53463 0.677623 0
M  V30 5301 C 503.386 -3.93925 2.1337 0
M  V30 5302 C 505.13 -4.23229 0.328284 0
M  V30 5303 C 503.037 -5.42759 2.34876 0
M  V30 5304 H 501.967 -0.739207 0.148623 0
M  V30 5305 H 504.618 -1.53248 1.00932 0
M  V30 5306 H 503 -3.96 0.00558965 0
M  V30 5307 H 504.174 -3.62494 2.8449 0
M  V30 5308 H 502.489 -3.37097 2.44448 0
M  V30 5309 H 505.086 -5.32659 0.466794 0
M  V30 5310 H 505.429 -4.09899 -0.727224 0
M  V30 5311 H 505.962 -3.86169 0.954896 0
M  V30 5312 H 502.701 -5.61075 3.38932 0
M  V30 5313 H 502.221 -5.75704 1.68299 0
M  V30 5314 H 503.9 -6.0944 2.17236 0
M  V30 5315 N 504.032 -0.577932 -1.46621 0
M  V30 5316 C 504.962 0.145917 -2.33044 0
M  V30 5317 C 505.943 0.888412 -1.45056 0
M  V30 5318 O 507.128 0.864812 -1.73881 0
M  V30 5319 C 504.258 1.16322 -3.27241 0
M  V30 5320 C 503.212 0.535868 -4.24632 0
M  V30 5321 C 502.538 1.65929 -5.08303 0
M  V30 5322 C 503.838 -0.523861 -5.19666 0
M  V30 5323 H 505.532 -0.575636 -2.93814 0
M  V30 5324 H 503.078 -0.278272 -1.41286 0
M  V30 5325 H 505.031 1.67793 -3.86553 0
M  V30 5326 H 503.755 1.91498 -2.64567 0
M  V30 5327 H 502.414 0.0422759 -3.66576 0
M  V30 5328 H 502.062 2.40061 -4.42018 0
M  V30 5329 H 501.762 1.2452 -5.74255 0
M  V30 5330 H 503.286 2.17686 -5.70478 0
M  V30 5331 H 504.7 -0.0944059 -5.73222 0
M  V30 5332 H 503.097 -0.858 -5.93935 0
M  V30 5333 H 504.167 -1.41197 -4.63887 0
M  V30 5334 N 505.51 1.54411 -0.315457 0
M  V30 5335 C 506.756 2.00716 0.289972 0
M  V30 5336 C 507.089 1.2034 1.5242 0
M  V30 5337 O 506.364 0.283579 1.92422 0
M  V30 5338 C 506.647 3.54507 0.632196 0
M  V30 5339 C 506.5 4.45615 -0.61218 0
M  V30 5340 C 507.819 4.15421 1.45305 0
M  V30 5341 H 504.938 0.729637 0.10392 0
M  V30 5342 H 507.58 1.8506 -0.430427 0
M  V30 5343 H 505.73 3.67979 1.24595 0
M  V30 5344 H 507.402 4.44026 -1.25053 0
M  V30 5345 H 505.645 4.15621 -1.24264 0
M  V30 5346 H 506.316 5.51022 -0.328379 0
M  V30 5347 H 508.792 4.05474 0.934331 0
M  V30 5348 H 507.668 5.23157 1.66127 0
M  V30 5349 H 507.929 3.68223 2.44671 0
M  V30 5350 N 506.988 0.0434614 1.5754 0
M  V30 5351 C 507.935 -0.93356 2.11077 0
M  V30 5352 C 508.905 -1.31383 1.01626 0
M  V30 5353 O 510.09 -1.40465 1.29129 0
M  V30 5354 C 507.23 -2.20578 2.65404 0
M  V30 5355 C 506.343 -1.88068 3.88914 0
M  V30 5356 C 505.478 -3.09691 4.31584 0
M  V30 5357 C 504.517 -2.73067 5.47815 0
M  V30 5358 N 503.654 -3.87359 5.85574 0
M  V30 5359 H 508.494 -0.470118 2.94268 0
M  V30 5360 H 506.031 -0.220434 1.45439 0
M  V30 5361 H 507.989 -2.95011 2.94999 0
M  V30 5362 H 506.619 -2.64513 1.85021 0
M  V30 5363 H 505.671 -1.03816 3.6596 0
M  V30 5364 H 506.983 -1.57104 4.73413 0
M  V30 5365 H 506.137 -3.92431 4.62691 0
M  V30 5366 H 504.876 -3.43827 3.45882 0
M  V30 5367 H 503.881 -1.88742 5.16388 0
M  V30 5368 H 505.106 -2.40131 6.35227 0
M  V30 5369 H 503.052 -4.21311 5.02825 0
M  V30 5370 H 502.969 -3.60068 6.64746 0
M  V30 5371 H 504.237 -4.70761 6.21292 0
M  V30 5372 N 508.466 -1.55915 -0.229846 0
M  V30 5373 C 509.413 -1.91734 -1.28478 0
M  V30 5374 C 510.383 -0.773539 -1.46988 0
M  V30 5375 O 511.568 -1.02871 -1.60693 0
M  V30 5376 C 508.708 -2.23224 -2.63182 0
M  V30 5377 C 507.821 -3.50497 -2.52539 0
M  V30 5378 C 506.956 -3.71474 -3.79711 0
M  V30 5379 C 505.995 -4.92289 -3.63755 0
M  V30 5380 N 505.132 -5.09698 -4.82858 0
M  V30 5381 H 509.972 -2.81692 -0.972308 0
M  V30 5382 H 507.509 -1.39429 -0.468815 0
M  V30 5383 H 509.467 -2.3949 -3.41614 0
M  V30 5384 H 508.097 -1.36451 -2.92542 0
M  V30 5385 H 507.149 -3.4247 -1.65585 0
M  V30 5386 H 508.461 -4.39079 -2.36666 0
M  V30 5387 H 507.615 -3.87791 -4.66586 0
M  V30 5388 H 506.354 -2.81157 -3.985 0
M  V30 5389 H 505.359 -4.7593 -2.75264 0
M  V30 5390 H 506.584 -5.84083 -3.46445 0
M  V30 5391 H 504.53 -4.22322 -5.01976 0
M  V30 5392 H 504.447 -5.92399 -4.69681 0
M  V30 5393 H 505.715 -5.30443 -5.71183 0
M  V30 5394 N 509.944 0.496216 -1.49584 0
M  V30 5395 C 510.892 1.61805 -1.67098 0
M  V30 5396 C 511.886 1.60667 -0.536877 0
M  V30 5397 O 513.092 1.65118 -0.716654 0
M  V30 5398 H 509.467 0.53646 -0.526986 0
M  V30 5399 H 511.438 1.44187 -2.61252 0
M  V30 5400 C 510.187 2.99912 -1.75921 0
M  V30 5401 H 509.51 3.01496 -2.62565 0
M  V30 5402 H 510.95 3.77931 -1.92209 0
M  V30 5403 C 509.409 3.33092 -0.505088 0
M  V30 5404 O 509.939 4.00019 0.367085 0
M  V30 5405 N 508.145 2.88278 -0.366599 0
M  V30 5406 H 507.692 2.33989 -1.07735 0
M  V30 5407 H 507.65 3.10846 0.47142 0
M  V30 5408 N 511.423 1.38739 0.74761 0
M  V30 5409 C 512.671 1.35007 1.50391 0
M  V30 5410 C 512.992 -0.0574274 1.94915 0
M  V30 5411 O 512.262 -1.00628 1.6808 0
M  V30 5412 H 510.842 0.496784 0.557866 0
M  V30 5413 H 513.504 1.73479 0.888319 0
M  V30 5414 H 512.6 2.00474 2.392 0
M  V30 5415 N 512.901 -0.976442 1.23707 0
M  V30 5416 C 513.834 -2.06793 0.964973 0
M  V30 5417 C 514.812 -1.62304 -0.0981472 0
M  V30 5418 O 515.996 -1.88464 0.0369477 0
M  V30 5419 C 513.123 -3.35636 0.454522 0
M  V30 5420 C 512.169 -3.99069 1.50485 0
M  V30 5421 S 513.002 -4.37814 3.0835 0
M  V30 5422 C 514.158 -5.69805 2.58985 0
M  V30 5423 H 514.391 -2.29556 1.88922 0
M  V30 5424 H 511.924 -1.11317 1.06995 0
M  V30 5425 H 513.882 -4.10162 0.166626 0
M  V30 5426 H 512.543 -3.10876 -0.448871 0
M  V30 5427 H 511.736 -4.91896 1.09792 0
M  V30 5428 H 511.338 -3.30938 1.7423 0
M  V30 5429 H 513.63 -6.46919 2.01252 0
M  V30 5430 H 514.573 -6.15345 3.50366 0
M  V30 5431 H 514.981 -5.27994 1.99705 0
M  V30 5432 N 514.379 -1.04941 -1.1758 0
M  V30 5433 C 515.619 -0.766996 -1.89464 0
M  V30 5434 C 515.983 0.693123 -1.79053 0
M  V30 5435 O 517.184 1.08953 -2.45729 0
M  V30 5436 C 515.455 -1.23108 -3.35528 0
M  V30 5437 S 517.014 -1.07565 -4.25412 0
M  V30 5438 H 513.832 -0.278616 -0.654136 0
M  V30 5439 H 516.434 -1.34352 -1.4202 0
M  V30 5440 H 515.138 -2.28896 -3.40639 0
M  V30 5441 H 514.669 -0.648724 -3.88014 0
M  V30 5442 H 516.684 0.00169467 -4.962 0
M  V30 5443 N 515.857 1.33968 -0.830081 0
M  V30 5444 C 516.82 2.27694 -0.26235 0
M  V30 5445 C 517.82 1.50589 0.563876 0
M  V30 5446 O 519.01 1.70028 0.378941 0
M  V30 5447 C 516.142 3.35002 0.63138 0
M  V30 5448 H 517.335 2.79419 -1.08928 0
M  V30 5449 H 514.888 1.44221 -0.602486 0
M  V30 5450 H 515.623 2.88504 1.48109 0
M  V30 5451 H 515.408 3.92079 0.0403276 0
M  V30 5452 H 516.898 4.04897 1.02217 0
M  V30 5453 N 517.335 0.585699 1.46312 0
M  V30 5454 C 518.584 0.0701192 2.01578 0
M  V30 5455 C 518.897 -1.29889 1.46247 0
M  V30 5456 O 520.103 -1.90598 1.93351 0
M  V30 5457 C 518.559 0.0747499 3.59822 0
M  V30 5458 C 518.167 1.44226 4.24149 0
M  V30 5459 C 519.911 -0.38673 4.22735 0
M  V30 5460 C 517.818 1.40446 5.74481 0
M  V30 5461 H 516.748 0.0224441 0.753666 0
M  V30 5462 H 519.399 0.737789 1.68015 0
M  V30 5463 H 517.781 -0.659144 3.90476 0
M  V30 5464 H 518.955 2.19612 4.05101 0
M  V30 5465 H 517.27 1.84401 3.73343 0
M  V30 5466 H 519.867 -0.433853 5.32937 0
M  V30 5467 H 520.21 -1.40489 3.91878 0
M  V30 5468 H 520.743 0.293195 3.96718 0
M  V30 5469 H 517.482 2.39952 6.10003 0
M  V30 5470 H 517.002 0.692845 5.95785 0
M  V30 5471 H 518.681 1.11865 6.37256 0
M  V30 5472 N 518.813 -1.54241 0.323641 0
M  V30 5473 C 519.776 -2.22997 -0.529602 0
M  V30 5474 C 520.776 -1.22345 -1.04347 0
M  V30 5475 O 521.966 -1.46924 -0.935889 0
M  V30 5476 C 519.098 -2.93409 -1.73562 0
M  V30 5477 H 520.291 -2.99815 0.0714518 0
M  V30 5478 H 517.844 -1.56121 0.0747258 0
M  V30 5479 H 518.579 -2.20729 -2.37591 0
M  V30 5480 H 518.364 -3.67217 -1.37456 0
M  V30 5481 H 519.854 -3.45794 -2.34128 0
M  V30 5482 N 520.291 -0.0518155 -1.57515 0
M  V30 5483 C 521.568 0.661727 -1.84067 0
M  V30 5484 C 521.948 1.88999 -0.940351 0
M  V30 5485 O 521.296 2.285 -0.00155404 0
M  V30 5486 C 521.506 1.01841 -3.3381 0
M  V30 5487 C 522.854 1.40043 -4.00841 0
M  V30 5488 O 523.878 1.11073 -3.38439 0
M  V30 5489 O 522.737 1.94111 -5.10865 0
M  V30 5490 H 519.831 0.326702 -0.759733 0
M  V30 5491 H 522.377 -0.0812277 -1.69505 0
M  V30 5492 H 521.149 0.145202 -3.91031 0
M  V30 5493 H 520.772 1.81879 -3.53562 0
M  V30 5494 N 521.769 1.56035 0.221574 0
M  V30 5495 C 522.699 1.95434 1.2778 0
M  V30 5496 C 523.68 0.822564 1.48889 0
M  V30 5497 O 524.865 1.08486 1.61072 0
M  V30 5498 C 521.995 2.27102 2.62759 0
M  V30 5499 C 520.949 3.4277 2.56306 0
M  V30 5500 C 520.275 3.60043 3.95314 0
M  V30 5501 C 521.575 4.77742 2.11093 0
M  V30 5502 H 523.269 2.83912 0.950504 0
M  V30 5503 H 520.815 1.36596 0.455791 0
M  V30 5504 H 522.768 2.53256 3.36807 0
M  V30 5505 H 521.492 1.35478 2.97176 0
M  V30 5506 H 520.151 3.16664 1.84715 0
M  V30 5507 H 519.799 2.65794 4.27039 0
M  V30 5508 H 519.499 4.37841 3.91879 0
M  V30 5509 H 521.023 3.88545 4.71025 0
M  V30 5510 H 522.437 5.03102 2.74885 0
M  V30 5511 H 520.834 5.58823 2.18716 0
M  V30 5512 H 521.904 4.731 1.06321 0
M  V30 5513 N 523.247 -0.488276 1.49845 0
M  V30 5514 C 524.495 -1.23911 1.59657 0
M  V30 5515 C 524.816 -1.92816 0.291005 0
M  V30 5516 O 524.086 -1.83328 -0.690485 0
M  V30 5517 H 522.666 -0.460357 0.588286 0
M  V30 5518 H 525.328 -0.564794 1.86537 0
M  V30 5519 H 524.424 -1.99625 2.39909 0
M  V30 5520 N 524.725 -1.39134 -0.740242 0
M  V30 5521 C 525.655 -1.40165 -1.86751 0
M  V30 5522 C 526.636 -0.265708 -1.68012 0
M  V30 5523 O 527.821 -0.47076 -1.88408 0
M  V30 5524 C 524.951 -1.2392 -3.2444 0
M  V30 5525 C 523.905 -2.34858 -3.57807 0
M  V30 5526 C 523.231 -2.03707 -4.94376 0
M  V30 5527 C 524.531 -3.77159 -3.61315 0
M  V30 5528 H 526.225 -2.345 -1.86145 0
M  V30 5529 H 523.771 -1.12875 -0.89416 0
M  V30 5530 H 525.724 -1.23263 -4.02969 0
M  V30 5531 H 524.448 -0.26051 -3.25559 0
M  V30 5532 H 523.107 -2.34723 -2.81604 0
M  V30 5533 H 522.755 -1.04289 -4.9207 0
M  V30 5534 H 522.455 -2.78016 -5.17669 0
M  V30 5535 H 523.979 -2.04691 -5.75268 0
M  V30 5536 H 525.393 -3.79252 -4.29931 0
M  V30 5537 H 523.79 -4.50784 -3.96124 0
M  V30 5538 H 524.86 -4.08513 -2.61238 0
M  V30 5539 N 526.204 0.969867 -1.24223 0
M  V30 5540 C 527.167 2.04564 -1.03373 0
M  V30 5541 C 528.167 1.60798 0.00819206 0
M  V30 5542 O 529.357 1.72641 -0.232567 0
M  V30 5543 C 526.489 3.36163 -0.566343 0
M  V30 5544 H 527.682 2.24494 -1.98853 0
M  V30 5545 H 525.235 1.1448 -1.06415 0
M  V30 5546 H 525.97 3.21925 0.391751 0
M  V30 5547 H 525.755 3.69273 -1.31834 0
M  V30 5548 H 527.245 4.1526 -0.441435 0
M  V30 5549 N 527.682 1.05563 1.17022 0
M  V30 5550 C 528.928 0.769074 1.87652 0
M  V30 5551 C 529.261 -0.702326 1.81055 0
M  V30 5552 O 528.536 -1.5139 1.22112 0
M  V30 5553 C 528.819 1.25492 3.37526 0
M  V30 5554 C 528.672 2.78953 3.52853 0
M  V30 5555 C 529.991 0.856919 4.31677 0
M  V30 5556 H 527.11 0.280854 0.681388 0
M  V30 5557 H 529.752 1.31027 1.37593 0
M  V30 5558 H 527.902 0.794516 3.80289 0
M  V30 5559 H 529.574 3.33146 3.19079 0
M  V30 5560 H 527.817 3.18046 2.95007 0
M  V30 5561 H 528.488 3.08011 4.58076 0
M  V30 5562 H 530.964 1.25334 3.96775 0
M  V30 5563 H 529.84 1.22443 5.35069 0
M  V30 5564 H 530.101 -0.238787 4.41455 0
M  V30 5565 N 529.16 -1.33526 0.837174 0
M  V30 5566 C 530.576 -1.50727 0.524743 0
M  V30 5567 C 530.776 -1.77792 -0.948279 0
M  V30 5568 O 529.832 -1.83719 -1.73216 0
M  V30 5569 C 531.145 -2.66299 1.39661 0
M  V30 5570 C 532.693 -2.80183 1.39521 0
M  V30 5571 C 533.168 -3.98815 2.25189 0
M  V30 5572 N 534.659 -4.06047 2.2289 0
M  V30 5573 C 535.394 -4.97032 2.85915 0
M  V30 5574 N 534.89 -5.93143 3.57985 0
M  V30 5575 N 536.683 -4.90015 2.75394 0
M  V30 5576 H 528.834 -1.1422 1.79074 0
M  V30 5577 H 531.097 -0.561399 0.763894 0
M  V30 5578 H 530.803 -2.52974 2.4433 0
M  V30 5579 H 530.677 -3.61663 1.07145 0
M  V30 5580 H 533.064 -2.92942 0.356253 0
M  V30 5581 H 533.145 -1.85586 1.76044 0
M  V30 5582 H 532.789 -3.86817 3.29143 0
M  V30 5583 H 532.719 -4.92654 1.86009 0
M  V30 5584 H 535.21 -3.37262 1.70478 0
M  V30 5585 H 535.523 -6.59227 4.03286 0
M  V30 5586 H 533.868 -5.93223 3.62093 0
M  V30 5587 H 537.059 -4.13894 2.18654 0
M  V30 5588 H 537.232 -5.60724 3.24796 0
M  V30 5589 N 530.638 -0.59345 -1.46 0
M  V30 5590 C 531.588 0.154751 -2.27474 0
M  V30 5591 C 532.572 0.851849 -1.365 0
M  V30 5592 O 533.764 0.744171 -1.60596 0
M  V30 5593 C 530.893 1.16079 -3.2308 0
M  V30 5594 C 529.979 0.465256 -4.2154 0
M  V30 5595 N 530.37 -0.485197 -5.03467 0
M  V30 5596 C 528.668 0.714634 -4.40237 0
M  V30 5597 C 529.369 -0.892709 -5.74809 0
M  V30 5598 N 528.345 -0.239511 -5.43072 0
M  V30 5599 H 532.147 -0.57546 -2.88211 0
M  V30 5600 H 529.661 -0.416046 -1.5698 0
M  V30 5601 H 531.658 1.71108 -3.80168 0
M  V30 5602 H 530.318 1.89171 -2.63903 0
M  V30 5603 H 531.329 -0.861258 -5.10689 0
M  V30 5604 H 528.006 1.43131 -3.92199 0
M  V30 5605 H 529.396 -1.67581 -6.50666 0
M  V30 5606 N 532.116 1.54067 -0.331816 0
M  V30 5607 C 533.393 1.92915 0.322955 0
M  V30 5608 C 533.773 1.26225 1.69205 0
M  V30 5609 O 533.121 0.408919 2.24811 0
M  V30 5610 C 533.331 3.46619 0.406946 0
M  V30 5611 C 534.679 4.19386 0.663339 0
M  V30 5612 O 535.703 3.5282 0.489536 0
M  V30 5613 O 534.562 5.37288 0.999193 0
M  V30 5614 H 531.656 0.805808 0.186016 0
M  V30 5615 H 534.202 1.65342 -0.382135 0
M  V30 5616 H 532.974 3.87354 -0.554287 0
M  V30 5617 H 532.597 3.80324 1.15929 0
M  V30 5618 N 533.594 0.0601682 1.57485 0
M  V30 5619 C 534.557 -0.896373 2.10945 0
M  V30 5620 C 535.557 -1.23402 1.03095 0
M  V30 5621 O 536.747 -1.16921 1.29132 0
M  V30 5622 C 533.879 -2.20346 2.60116 0
M  V30 5623 H 535.072 -0.432778 2.96761 0
M  V30 5624 H 532.625 -0.188372 1.55161 0
M  V30 5625 H 533.36 -2.71268 1.7772 0
M  V30 5626 H 533.145 -1.9714 3.38937 0
M  V30 5627 H 534.635 -2.88846 3.01592 0
M  V30 5628 N 535.072 -1.5615 -0.213296 0
M  V30 5629 C 536.318 -1.79812 -0.937849 0
M  V30 5630 C 536.651 -0.631201 -1.83656 0
M  V30 5631 O 535.926 0.369165 -1.90964 0
M  V30 5632 C 536.209 -3.13613 -1.76972 0
M  V30 5633 C 536.062 -4.40766 -0.89695 0
M  V30 5634 C 537.381 -3.43931 -2.7459 0
M  V30 5635 H 534.5 -0.654138 -0.339518 0
M  V30 5636 H 537.142 -1.88877 -0.20623 0
M  V30 5637 H 535.292 -3.06015 -2.39347 0
M  V30 5638 H 536.964 -4.60392 -0.289306 0
M  V30 5639 H 535.207 -4.33326 -0.202756 0
M  V30 5640 H 535.878 -5.30843 -1.51358 0
M  V30 5641 H 538.354 -3.5171 -2.22349 0
M  V30 5642 H 537.23 -4.38706 -3.29891 0
M  V30 5643 H 537.491 -2.6651 -3.52739 0
M  V30 5644 N 536.55 0.480323 -1.50102 0
M  V30 5645 C 537.778 1.25657 -1.64371 0
M  V30 5646 C 538.193 1.86011 -0.323316 0
M  V30 5647 O 537.55 1.68803 0.693682 0
M  V30 5648 C 537.601 2.37197 -2.728 0
M  V30 5649 O 537.322 1.7932 -3.9972 0
M  V30 5650 C 538.823 3.2823 -2.9796 0
M  V30 5651 H 536.043 0.380369 -0.552775 0
M  V30 5652 H 538.587 0.574379 -1.96268 0
M  V30 5653 H 536.742 3.01208 -2.43623 0
M  V30 5654 H 537.156 2.52701 -4.59611 0
M  V30 5655 H 538.63 4.02725 -3.77513 0
M  V30 5656 H 539.107 3.86462 -2.08671 0
M  V30 5657 H 539.713 2.69964 -3.28633 0
M  V30 5658 N 538.028 1.39524 0.732853 0
M  V30 5659 C 539.305 1.27373 1.48444 0
M  V30 5660 C 539.685 -0.115725 2.10783 0
M  V30 5661 O 539.033 -1.12713 1.98766 0
M  V30 5662 C 539.243 2.39966 2.53412 0
M  V30 5663 C 540.591 2.79384 3.19733 0
M  V30 5664 O 541.615 2.39431 2.63725 0
M  V30 5665 O 540.474 3.48353 4.21085 0
M  V30 5666 H 537.568 0.499272 0.659285 0
M  V30 5667 H 540.114 1.51403 0.766496 0
M  V30 5668 H 538.886 3.32845 2.05742 0
M  V30 5669 H 538.509 2.17612 3.32762 0
M  V30 5670 N 539.506 -0.963266 1.24736 0
M  V30 5671 C 540.734 -1.74166 1.11686 0
M  V30 5672 C 541.149 -1.8589 -0.330187 0
M  V30 5673 O 540.506 -1.35042 -1.2276 0
M  V30 5674 C 540.557 -3.15989 1.75595 0
M  V30 5675 O 540.278 -3.04847 3.14642 0
M  V30 5676 C 541.779 -4.10145 1.68213 0
M  V30 5677 H 538.999 -0.546031 0.389989 0
M  V30 5678 H 541.543 -1.20907 1.64929 0
M  V30 5679 H 539.698 -3.66219 1.26343 0
M  V30 5680 H 540.112 -3.9425 3.4593 0
M  V30 5681 H 541.586 -5.07299 2.17604 0
M  V30 5682 H 542.063 -4.3445 0.644208 0
M  V30 5683 H 542.669 -3.65827 2.16912 0
M  V30 5684 N 540.985 -1.06182 -1.16461 0
M  V30 5685 C 542.234 -0.772927 -1.86303 0
M  V30 5686 C 542.547 0.703187 -1.82523 0
M  V30 5687 O 543.753 1.10641 -2.47933 0
M  V30 5688 C 542.209 -1.33249 -3.34324 0
M  V30 5689 C 541.817 -2.83876 -3.46581 0
M  V30 5690 C 543.561 -1.12108 -4.09429 0
M  V30 5691 C 541.468 -3.33082 -4.88682 0
M  V30 5692 H 540.398 -0.285452 -0.697878 0
M  V30 5693 H 543.049 -1.28039 -1.31447 0
M  V30 5694 H 541.431 -0.7528 -3.88779 0
M  V30 5695 H 542.605 -3.47786 -3.02293 0
M  V30 5696 H 540.92 -3.03671 -2.84909 0
M  V30 5697 H 543.517 -1.46361 -5.14279 0
M  V30 5698 H 543.86 -0.0593832 -4.16258 0
M  V30 5699 H 544.393 -1.6665 -3.6121 0
M  V30 5700 H 541.132 -4.38726 -4.87032 0
M  V30 5701 H 540.652 -2.73919 -5.33599 0
M  V30 5702 H 542.331 -3.28344 -5.57494 0
M  V30 5703 N 542.463 1.3308 -0.844243 0
M  V30 5704 C 543.74 1.92178 -0.364261 0
M  V30 5705 C 544.12 1.76961 1.15101 0
M  V30 5706 O 543.468 1.16128 1.9679 0
M  V30 5707 C 543.678 3.393 -0.817106 0
M  V30 5708 C 545.026 4.16444 -0.828236 0
M  V30 5709 O 546.05 3.47975 -0.761062 0
M  V30 5710 O 544.909 5.38685 -0.920926 0
M  V30 5711 H 542.003 0.820411 -0.10419 0
M  V30 5712 H 544.549 1.41918 -0.930453 0
M  V30 5713 H 543.321 3.44272 -1.85991 0
M  V30 5714 H 542.944 3.96947 -0.227785 0
M  V30 5715 N 543.941 0.601185 1.45683 0
M  V30 5716 C 545.19 0.0914953 2.01492 0
M  V30 5717 C 545.503 -1.28331 1.47616 0
M  V30 5718 O 546.709 -1.88537 1.95362 0
M  V30 5719 C 545.165 0.11291 3.59723 0
M  V30 5720 C 544.773 1.48717 4.22596 0
M  V30 5721 C 546.517 -0.341871 4.23121 0
M  V30 5722 C 544.424 1.46531 5.7296 0
M  V30 5723 H 543.354 0.0304365 0.753385 0
M  V30 5724 H 546.005 0.755568 1.67223 0
M  V30 5725 H 544.387 -0.617692 3.91153 0
M  V30 5726 H 545.561 2.23897 4.02749 0
M  V30 5727 H 543.876 1.88351 3.71366 0
M  V30 5728 H 546.473 -0.377304 5.33367 0
M  V30 5729 H 546.816 -1.36325 3.93346 0
M  V30 5730 H 547.349 0.335256 3.96385 0
M  V30 5731 H 544.088 2.46408 6.07423 0
M  V30 5732 H 543.608 0.755997 5.95017 0
M  V30 5733 H 545.287 1.18618 6.36034 0
M  V30 5734 N 545.419 -1.53889 0.339982 0
M  V30 5735 C 546.382 -2.23547 -0.50592 0
M  V30 5736 C 547.382 -1.23445 -1.03044 0
M  V30 5737 O 548.572 -1.47909 -0.920253 0
M  V30 5738 C 545.704 -2.95234 -1.7044 0
M  V30 5739 H 546.897 -2.99722 0.103247 0
M  V30 5740 H 544.45 -1.56033 0.0912804 0
M  V30 5741 H 545.185 -2.23236 -2.35236 0
M  V30 5742 H 544.97 -3.68654 -1.33553 0
M  V30 5743 H 546.46 -3.48258 -2.30447 0
M  V30 5744 N 546.897 -0.0685191 -1.57451 0
M  V30 5745 C 548.308 0.464634 -1.80826 0
M  V30 5746 C 548.659 1.69847 -0.982169 0
M  V30 5747 O 547.784 2.15439 -0.203734 0
M  V30 5748 C 548.379 0.849721 -3.27971 0
M  V30 5749 C 546.938 1.32776 -3.52204 0
M  V30 5750 C 546.085 0.311332 -2.75547 0
M  V30 5751 H 549.036 -0.294248 -1.55948 0
M  V30 5752 H 549.057 1.71138 -3.39841 0
M  V30 5753 H 548.569 -0.0484736 -3.8807 0
M  V30 5754 H 546.67 2.24456 -2.97406 0
M  V30 5755 H 546.783 1.30794 -4.60901 0
M  V30 5756 H 545.147 0.787915 -2.42206 0
M  V30 5757 H 545.93 -0.579078 -3.38381 0
M  V30 5758 N 548.375 1.56261 0.205012 0
M  V30 5759 C 549.323 1.94631 1.27364 0
M  V30 5760 C 550.317 0.830434 1.47649 0
M  V30 5761 O 551.523 1.01538 1.48627 0
M  V30 5762 H 547.898 0.618755 0.427371 0
M  V30 5763 H 549.869 2.83768 0.922941 0
M  V30 5764 C 548.618 2.29358 2.61324 0
M  V30 5765 H 547.941 3.14744 2.46528 0
M  V30 5766 H 549.381 2.60076 3.34868 0
M  V30 5767 C 547.84 1.12461 3.17575 0
M  V30 5768 O 548.37 0.394407 3.99759 0
M  V30 5769 N 546.576 0.904036 2.7618 0
M  V30 5770 H 546.123 1.49956 2.09454 0
M  V30 5771 H 546.081 0.123662 3.14157 0
M  V30 5772 N 549.853 -0.472356 1.50355 0
M  V30 5773 C 550.785 -1.58795 1.65278 0
M  V30 5774 C 551.798 -1.53782 0.534313 0
M  V30 5775 O 552.987 -1.59193 0.807446 0
M  V30 5776 C 550.087 -2.97672 1.62001 0
M  V30 5777 C 549.26 -3.27568 2.89859 0
M  V30 5778 C 548.319 -4.45993 2.79242 0
M  V30 5779 O 547.345 -4.46364 3.53197 0
M  V30 5780 N 548.547 -5.47578 1.92713 0
M  V30 5781 H 551.312 -1.46411 2.61503 0
M  V30 5782 H 548.873 -0.660751 1.47803 0
M  V30 5783 H 550.865 -3.74862 1.52513 0
M  V30 5784 H 549.435 -3.03832 0.735159 0
M  V30 5785 H 548.655 -2.39003 3.13483 0
M  V30 5786 H 549.943 -3.44352 3.74565 0
M  V30 5787 H 549.341 -5.50099 1.31939 0
M  V30 5788 H 547.898 -6.23757 1.8913 0
M  V30 5789 N 551.331 -1.39911 -0.725443 0
M  V30 5790 C 552.747 -1.21725 -1.03224 0
M  V30 5791 C 552.947 -0.0855224 -2.01318 0
M  V30 5792 O 552.003 0.55976 -2.46217 0
M  V30 5793 C 553.316 -2.55511 -1.58539 0
M  V30 5794 C 554.864 -2.62439 -1.70572 0
M  V30 5795 C 555.339 -3.9647 -2.29294 0
M  V30 5796 N 556.83 -3.98159 -2.36692 0
M  V30 5797 C 557.565 -4.98647 -2.83088 0
M  V30 5798 N 557.061 -6.0953 -3.2931 0
M  V30 5799 N 558.854 -4.8602 -2.82384 0
M  V30 5800 H 551.005 -2.12267 -0.075048 0
M  V30 5801 H 553.268 -0.943136 -0.0959066 0
M  V30 5802 H 552.974 -3.38926 -0.939249 0
M  V30 5803 H 552.848 -2.75905 -2.57208 0
M  V30 5804 H 555.235 -1.79401 -2.34306 0
M  V30 5805 H 555.316 -2.45885 -0.705297 0
M  V30 5806 H 554.96 -4.79942 -1.66186 0
M  V30 5807 H 554.89 -4.10349 -3.30032 0
M  V30 5808 H 557.381 -3.18085 -2.04035 0
M  V30 5809 H 557.694 -6.82106 -3.6325 0
M  V30 5810 H 556.039 -6.1311 -3.27294 0
M  V30 5811 H 559.23 -3.98493 -2.45603 0
M  V30 5812 H 559.403 -5.64478 -3.18226 0
M  V30 5813 N 552.809 0.956637 -1.25245 0
M  V30 5814 C 554.055 1.70352 -1.10036 0
M  V30 5815 C 554.388 1.90869 0.358156 0
M  V30 5816 O 553.663 1.47819 1.26411 0
M  V30 5817 C 553.946 3.08766 -1.85298 0
M  V30 5818 C 553.799 2.95672 -3.38966 0
M  V30 5819 C 555.118 4.08622 -1.63451 0
M  V30 5820 H 552.237 0.618279 -0.401123 0
M  V30 5821 H 554.879 1.11212 -1.54051 0
M  V30 5822 H 553.029 3.59252 -1.47887 0
M  V30 5823 H 554.701 2.52527 -3.86041 0
M  V30 5824 H 552.944 2.31634 -3.6678 0
M  V30 5825 H 553.615 3.93776 -3.86839 0
M  V30 5826 H 556.091 3.67038 -1.96015 0
M  V30 5827 H 554.967 5.03514 -2.18551 0
M  V30 5828 H 555.228 4.3834 -0.575357 0
M  V30 5829 N 554.287 1.06798 1.15896 0
M  V30 5830 C 555.535 0.786211 1.8618 0
M  V30 5831 C 555.856 -0.689547 1.82401 0
M  V30 5832 O 555.126 -1.49913 1.26107 0
M  V30 5833 H 553.706 0.287843 0.689315 0
M  V30 5834 H 556.368 1.35055 1.40521 0
M  V30 5835 H 555.464 1.1157 2.91477 0
M  V30 5836 N 555.766 -1.3263 0.851289 0
M  V30 5837 C 556.994 -2.01563 0.466899 0
M  V30 5838 C 557.409 -1.63996 -0.935447 0
M  V30 5839 O 556.766 -0.85957 -1.6099 0
M  V30 5840 C 556.817 -3.56613 0.592433 0
M  V30 5841 O 556.538 -3.92828 1.93954 0
M  V30 5842 C 558.039 -4.42818 0.206612 0
M  V30 5843 H 555.259 -0.645307 0.183902 0
M  V30 5844 H 557.803 -1.69285 1.1473 0
M  V30 5845 H 555.958 -3.87379 -0.0401936 0
M  V30 5846 H 556.372 -4.87545 1.9339 0
M  V30 5847 H 557.846 -5.50918 0.345462 0
M  V30 5848 H 558.323 -4.30844 -0.85264 0
M  V30 5849 H 558.929 -4.17434 0.814176 0
M  V30 5850 N 557.244 -0.608902 -1.45362 0
M  V30 5851 C 558.191 0.109172 -2.30542 0
M  V30 5852 C 559.161 0.858704 -1.42181 0
M  V30 5853 O 560.346 0.844178 -1.71109 0
M  V30 5854 C 557.486 1.09971 -3.27109 0
M  V30 5855 C 556.599 0.350911 -4.30572 0
M  V30 5856 C 555.734 1.33129 -5.14247 0
M  V30 5857 C 554.773 0.570377 -6.09437 0
M  V30 5858 N 553.91 1.5001 -6.85887 0
M  V30 5859 H 558.75 -0.623195 -2.91411 0
M  V30 5860 H 556.287 -0.319122 -1.43597 0
M  V30 5861 H 558.245 1.68714 -3.81564 0
M  V30 5862 H 556.875 1.79947 -2.67991 0
M  V30 5863 H 555.927 -0.352054 -3.78767 0
M  V30 5864 H 557.239 -0.242725 -4.98209 0
M  V30 5865 H 556.393 1.99074 -5.73109 0
M  V30 5866 H 555.132 1.95885 -4.46632 0
M  V30 5867 H 554.137 -0.102702 -5.49704 0
M  V30 5868 H 555.362 -0.0521607 -6.7908 0
M  V30 5869 H 553.308 2.11529 -6.2096 0
M  V30 5870 H 553.225 0.959934 -7.49881 0
M  V30 5871 H 554.493 2.14909 -7.49289 0
M  V30 5872 N 558.722 1.53707 -0.348139 0
M  V30 5873 C 560.138 1.596 0.00361134 0
M  V30 5874 C 560.338 1.36394 1.4832 0
M  V30 5875 O 559.394 1.16046 2.24253 0
M  V30 5876 C 560.707 2.97512 -0.436682 0
M  V30 5877 C 562.255 3.10568 -0.389416 0
M  V30 5878 C 562.73 4.50866 -0.805249 0
M  V30 5879 N 564.221 4.56929 -0.759616 0
M  V30 5880 C 564.956 5.63643 -1.05327 0
M  V30 5881 N 564.452 6.78189 -1.41531 0
M  V30 5882 N 566.245 5.5354 -0.977207 0
M  V30 5883 H 558.396 1.67044 -1.31187 0
M  V30 5884 H 560.659 0.782559 -0.535075 0
M  V30 5885 H 560.365 3.19575 -1.46849 0
M  V30 5886 H 560.239 3.76742 0.185744 0
M  V30 5887 H 562.626 2.88226 0.633228 0
M  V30 5888 H 562.707 2.33387 -1.04711 0
M  V30 5889 H 562.351 4.73943 -1.82593 0
M  V30 5890 H 562.281 5.26452 -0.124989 0
M  V30 5891 H 564.772 3.74675 -0.49265 0
M  V30 5892 H 565.085 7.55541 -1.62411 0
M  V30 5893 H 563.43 6.79624 -1.45381 0
M  V30 5894 H 566.621 4.62932 -0.693675 0
M  V30 5895 H 566.794 6.36614 -1.2094 0
M  V30 5896 N 560.2 0.0768682 1.57412 0
M  V30 5897 C 561.43 -0.5991 1.97723 0
M  V30 5898 C 561.838 -1.63378 0.954166 0
M  V30 5899 O 561.181 -1.83578 -0.0668706 0
M  V30 5900 C 561.243 -1.32078 3.34358 0
M  V30 5901 C 560.907 -0.438985 4.54887 0
M  V30 5902 C 561.904 0.305492 5.19002 0
M  V30 5903 C 559.589 -0.362378 5.00991 0
M  V30 5904 C 561.583 1.11475 6.27576 0
M  V30 5905 C 559.27 0.450543 6.09437 0
M  V30 5906 C 560.268 1.18777 6.72593 0
M  V30 5907 O 559.956 1.98727 7.7895 0
M  V30 5908 H 559.688 -0.166725 0.655117 0
M  V30 5909 H 562.242 0.147337 2.04871 0
M  V30 5910 H 560.472 -2.1134 3.2384 0
M  V30 5911 H 562.161 -1.88949 3.5924 0
M  V30 5912 H 562.927 0.25593 4.84324 0
M  V30 5913 H 558.806 -0.925832 4.51608 0
M  V30 5914 H 562.35 1.69068 6.76803 0
M  V30 5915 H 558.247 0.501651 6.43548 0
M  V30 5916 H 559.015 1.91214 7.95851 0
M  V30 5917 N 561.678 -1.56367 -0.196722 0
M  V30 5918 C 562.611 -1.89475 -1.2718 0
M  V30 5919 C 563.589 -0.754667 -1.44026 0
M  V30 5920 O 564.773 -1.00551 -1.59442 0
M  V30 5921 C 561.9 -2.12352 -2.63864 0
M  V30 5922 C 560.946 -3.35053 -2.63897 0
M  V30 5923 S 561.779 -4.90228 -2.15492 0
M  V30 5924 C 562.935 -5.16171 -3.54004 0
M  V30 5925 H 563.168 -2.80365 -0.989075 0
M  V30 5926 H 560.701 -1.49125 -0.40014 0
M  V30 5927 H 562.659 -2.26214 -3.42545 0
M  V30 5928 H 561.32 -1.22214 -2.89349 0
M  V30 5929 H 560.513 -3.48182 -3.64397 0
M  V30 5930 H 560.115 -3.20176 -1.93296 0
M  V30 5931 H 562.407 -5.06591 -4.49857 0
M  V30 5932 H 563.35 -6.17938 -3.45771 0
M  V30 5933 H 563.758 -4.43814 -3.48841 0
M  V30 5934 N 563.156 0.464375 -1.50603 0
M  V30 5935 C 564.119 1.54393 -1.69397 0
M  V30 5936 C 565.119 1.50566 -0.564504 0
M  V30 5937 O 566.309 1.53066 -0.831645 0
M  V30 5938 C 563.441 2.9401 -1.72543 0
M  V30 5939 H 564.634 1.39044 -2.65719 0
M  V30 5940 H 562.187 0.69122 -1.40185 0
M  V30 5941 H 562.922 3.14795 -0.77938 0
M  V30 5942 H 562.707 2.98195 -2.54602 0
M  V30 5943 H 564.197 3.72375 -1.89015 0
M  V30 5944 N 564.634 1.40294 0.718013 0
M  V30 5945 C 566.045 1.34289 1.29705 0
M  V30 5946 C 566.396 0.0152228 1.96194 0
M  V30 5947 O 565.521 -0.88682 1.97394 0
M  V30 5948 C 566.116 2.43219 2.3586 0
M  V30 5949 C 564.675 2.40682 2.89394 0
M  V30 5950 C 563.822 2.24223 1.63154 0
M  V30 5951 H 566.773 1.50135 0.514312 0
M  V30 5952 H 566.794 2.10986 3.16647 0
M  V30 5953 H 566.306 3.39836 1.87439 0
M  V30 5954 H 564.407 1.47756 3.42051 0
M  V30 5955 H 564.52 3.36177 3.41353 0
M  V30 5956 H 562.884 1.71696 1.88129 0
M  V30 5957 H 563.667 3.22834 1.16761 0
M  V30 5958 N 566.112 -0.949982 1.2575 0
M  V30 5959 C 567.022 -2.08109 1.08295 0
M  V30 5960 C 568.038 -1.7399 0.0188181 0
M  V30 5961 O 569.214 -2.00187 0.220724 0
M  V30 5962 C 566.279 -3.39383 0.708534 0
M  V30 5963 C 565.34 -3.8734 1.85111 0
M  V30 5964 C 564.573 -5.12349 1.49447 0
M  V30 5965 O 564.796 -5.6905 0.392212 0
M  V30 5966 O 563.73 -5.5513 2.32624 0
M  V30 5967 H 567.556 -2.25738 2.03165 0
M  V30 5968 H 565.141 -1.06545 1.04731 0
M  V30 5969 H 567.023 -4.18277 0.512061 0
M  V30 5970 H 565.698 -3.23013 -0.210854 0
M  V30 5971 H 564.605 -3.09429 2.10248 0
M  V30 5972 H 565.938 -4.08216 2.74991 0
M  V30 5973 N 567.59 -1.07411 -1.15328 0
M  V30 5974 C 568.836 -0.798831 -1.86404 0
M  V30 5975 C 569.169 0.673433 -1.8215 0
M  V30 5976 O 568.444 1.49428 -1.24505 0
M  V30 5977 C 568.727 -1.30846 -3.35487 0
M  V30 5978 C 568.58 -2.84532 -3.4837 0
M  V30 5979 C 569.899 -0.925486 -4.30259 0
M  V30 5980 H 567.018 -0.291659 -0.676834 0
M  V30 5981 H 569.66 -1.332 -1.35491 0
M  V30 5982 H 567.81 -0.854916 -3.78977 0
M  V30 5983 H 569.482 -3.3818 -3.13739 0
M  V30 5984 H 567.725 -3.22699 -2.8991 0
M  V30 5985 H 568.396 -3.15259 -4.53118 0
M  V30 5986 H 570.872 -1.3163 -3.94731 0
M  V30 5987 H 569.748 -1.3094 -5.33053 0
M  V30 5988 H 570.009 0.168525 -4.41779 0
M  V30 5989 N 569.068 1.32177 -0.85831 0
M  V30 5990 C 569.998 2.31282 -0.321041 0
M  V30 5991 C 570.979 1.59841 0.581786 0
M  V30 5992 O 572.164 1.87619 0.501262 0
M  V30 5993 C 569.294 3.4385 0.48832 0
M  V30 5994 C 568.248 4.26799 -0.320391 0
M  V30 5995 C 567.574 5.31164 0.613934 0
M  V30 5996 C 568.874 4.98829 -1.54813 0
M  V30 5997 H 570.568 2.76469 -1.14915 0
M  V30 5998 H 568.114 1.32916 -0.554028 0
M  V30 5999 H 570.067 4.12224 0.874626 0
M  V30 6000 H 568.791 2.97401 1.34983 0
M  V30 6001 H 567.45 3.60077 -0.688497 0
M  V30 6002 H 567.098 4.80967 1.47239 0
M  V30 6003 H 566.798 5.8755 0.0768097 0
M  V30 6004 H 568.322 6.024 0.997336 0
M  V30 6005 H 569.736 5.59864 -1.23392 0
M  V30 6006 H 568.133 5.64957 -2.02346 0
M  V30 6007 H 569.203 4.26483 -2.30739 0
M  V30 6008 N 570.547 0.616602 1.45037 0
M  V30 6009 C 571.824 0.0469086 1.95544 0
M  V30 6010 C 572.204 -1.42345 1.55888 0
M  V30 6011 O 571.552 -2.13055 0.825824 0
M  V30 6012 C 571.762 0.254489 3.48071 0
M  V30 6013 C 573.11 0.140025 4.24369 0
M  V30 6014 O 574.134 0.185084 3.55719 0
M  V30 6015 O 572.993 0.0327034 5.4649 0
M  V30 6016 H 570.087 -0.0306051 0.826433 0
M  V30 6017 H 572.633 0.687293 1.55159 0
M  V30 6018 H 571.405 1.27532 3.69934 0
M  V30 6019 H 571.028 -0.42073 3.95368 0
M  V30 6020 N 572.025 -1.5352 0.356285 0
M  V30 6021 C 572.935 -2.29151 -0.502712 0
M  V30 6022 C 573.951 -1.34753 -1.1008 0
M  V30 6023 O 575.127 -1.67803 -1.11374 0
M  V30 6024 C 572.192 -3.05911 -1.63154 0
M  V30 6025 C 571.253 -4.15958 -1.06194 0
M  V30 6026 C 570.486 -4.8905 -2.13696 0
M  V30 6027 O 570.709 -4.61919 -3.34645 0
M  V30 6028 O 569.643 -5.75202 -1.77275 0
M  V30 6029 H 573.469 -3.03492 0.112466 0
M  V30 6030 H 571.054 -1.4891 0.120942 0
M  V30 6031 H 572.936 -3.53874 -2.28804 0
M  V30 6032 H 571.611 -2.34415 -2.23229 0
M  V30 6033 H 570.518 -3.7227 -0.369603 0
M  V30 6034 H 571.851 -4.89593 -0.505872 0
M  V30 6035 N 573.503 -0.0852151 -1.57369 0
M  V30 6036 C 574.731 0.58946 -1.98325 0
M  V30 6037 C 575.146 1.62333 -0.96403 0
M  V30 6038 O 574.503 1.82438 0.0476395 0
M  V30 6039 C 574.554 1.24604 -3.39347 0
M  V30 6040 O 574.275 0.253532 -4.37366 0
M  V30 6041 C 575.776 2.00726 -3.95252 0
M  V30 6042 H 572.996 0.158783 -0.651942 0
M  V30 6043 H 575.54 -0.161584 -2.03861 0
M  V30 6044 H 573.695 1.94808 -3.34856 0
M  V30 6045 H 574.109 0.726207 -5.19448 0
M  V30 6046 H 575.583 2.42039 -4.96106 0
M  V30 6047 H 576.06 2.86919 -3.32527 0
M  V30 6048 H 576.666 1.3536 -4.03185 0
M  V30 6049 N 574.981 1.5647 0.188427 0
M  V30 6050 C 576.23 1.80207 0.905995 0
M  V30 6051 C 576.543 0.659579 1.84144 0
M  V30 6052 O 577.749 0.781431 2.60011 0
M  V30 6053 C 576.205 3.19255 1.66145 0
M  V30 6054 C 575.813 4.41324 0.770504 0
M  V30 6055 C 577.557 3.52298 2.36826 0
M  V30 6056 C 575.464 5.71394 1.52521 0
M  V30 6057 H 574.394 0.671953 0.342045 0
M  V30 6058 H 577.045 1.82808 0.159164 0
M  V30 6059 H 575.427 3.10922 2.45242 0
M  V30 6060 H 576.601 4.60797 0.0177261 0
M  V30 6061 H 574.916 4.16035 0.174199 0
M  V30 6062 H 577.513 4.46715 2.93854 0
M  V30 6063 H 577.856 2.76359 3.11338 0
M  V30 6064 H 578.389 3.62108 1.6469 0
M  V30 6065 H 575.128 6.50316 0.82275 0
M  V30 6066 H 574.648 5.55928 2.25175 0
M  V30 6067 H 576.327 6.12747 2.07725 0
M  V30 6068 N 576.459 -0.456382 1.50847 0
M  V30 6069 C 577.407 -1.57318 1.71329 0
M  V30 6070 C 578.401 -1.59187 0.579287 0
M  V30 6071 O 579.607 -1.6316 0.76018 0
M  V30 6072 H 575.982 -0.5223 0.541024 0
M  V30 6073 H 577.953 -1.3721 2.64983 0
M  V30 6074 C 576.702 -2.95142 1.83811 0
M  V30 6075 H 576.025 -2.94428 2.70467 0
M  V30 6076 H 577.465 -3.72702 2.02161 0
M  V30 6077 C 575.924 -3.31636 0.593224 0
M  V30 6078 O 576.454 -4.00852 -0.260898 0
M  V30 6079 N 574.66 -2.87205 0.442902 0
M  V30 6080 H 574.207 -2.31051 1.13901 0
M  V30 6081 H 574.165 -3.11986 -0.38884 0
M  V30 6082 N 577.937 -1.40673 -0.710563 0
M  V30 6083 C 578.87 -1.35742 -1.83438 0
M  V30 6084 C 579.848 -0.226997 -1.61008 0
M  V30 6085 O 581.032 -0.411477 -1.83954 0
M  V30 6086 C 578.159 -1.11374 -3.19865 0
M  V30 6087 C 577.205 -2.26935 -3.61113 0
M  V30 6088 S 578.038 -3.89352 -3.67648 0
M  V30 6089 C 579.194 -3.67258 -5.06826 0
M  V30 6090 H 579.427 -2.30848 -1.87341 0
M  V30 6091 H 576.96 -1.27018 -0.877831 0
M  V30 6092 H 578.918 -0.980004 -3.9863 0
M  V30 6093 H 577.579 -0.179135 -3.13589 0
M  V30 6094 H 576.772 -2.0554 -4.60184 0
M  V30 6095 H 576.374 -2.36638 -2.89618 0
M  V30 6096 H 578.666 -3.26036 -5.93891 0
M  V30 6097 H 579.609 -4.65878 -5.33257 0
M  V30 6098 H 580.017 -3.0084 -4.77656 0
M  V30 6099 N 579.415 0.9433 -1.26252 0
M  V30 6100 C 580.362 2.0417 -1.07625 0
M  V30 6101 C 581.332 1.6609 0.0180738 0
M  V30 6102 O 582.517 1.90276 -0.141289 0
M  V30 6103 C 579.657 3.37653 -0.713043 0
M  V30 6104 C 578.77 3.88783 -1.8834 0
M  V30 6105 C 577.905 5.10642 -1.4635 0
M  V30 6106 C 576.944 5.54028 -2.60229 0
M  V30 6107 N 576.081 6.67092 -2.18936 0
M  V30 6108 H 580.921 2.19436 -2.01623 0
M  V30 6109 H 578.458 1.07519 -1.00389 0
M  V30 6110 H 580.416 4.14391 -0.483358 0
M  V30 6111 H 579.046 3.22241 0.18996 0
M  V30 6112 H 578.098 3.08464 -2.22608 0
M  V30 6113 H 579.41 4.16922 -2.73821 0
M  V30 6114 H 578.564 5.94832 -1.19414 0
M  V30 6115 H 577.303 4.84244 -0.579568 0
M  V30 6116 H 576.308 4.68396 -2.87898 0
M  V30 6117 H 577.533 5.82429 -3.49219 0
M  V30 6118 H 575.479 6.42381 -1.32974 0
M  V30 6119 H 575.396 6.94806 -2.97961 0
M  V30 6120 H 576.664 7.54662 -1.95206 0
M  V30 6121 N 580.893 1.08022 1.14757 0
M  V30 6122 C 581.843 0.676345 2.17737 0
M  V30 6123 C 582.827 -0.302018 1.5804 0
M  V30 6124 O 584.019 -0.11466 1.76628 0
M  V30 6125 C 581.148 0.082984 3.432 0
M  V30 6126 C 580.234 1.0869 4.09936 0
M  V30 6127 N 580.625 2.26891 4.52055 0
M  V30 6128 C 578.923 0.921768 4.36371 0
M  V30 6129 C 579.624 2.90636 5.0389 0
M  V30 6130 N 578.6 2.18266 4.97856 0
M  V30 6131 H 582.402 1.5765 2.4804 0
M  V30 6132 H 579.916 0.954374 1.31398 0
M  V30 6133 H 581.913 -0.224289 4.16296 0
M  V30 6134 H 580.573 -0.812206 3.14378 0
M  V30 6135 H 581.584 2.6457 4.45223 0
M  V30 6136 H 578.261 0.0800499 4.17423 0
M  V30 6137 H 579.651 3.9104 5.46386 0
M  V30 6138 N 582.371 -1.3172 0.865308 0
M  V30 6139 C 583.618 -1.96876 0.473931 0
M  V30 6140 C 583.946 -1.68425 -0.972786 0
M  V30 6141 O 583.201 -0.970742 -1.69927 0
M  V30 6142 C 583.5 -3.5102 0.672283 0
M  V30 6143 C 583.166 -3.9948 2.09108 0
M  V30 6144 C 581.828 -4.12425 2.4791 0
M  V30 6145 C 584.18 -4.2503 3.0166 0
M  V30 6146 C 581.508 -4.48267 3.78515 0
M  V30 6147 C 583.86 -4.62335 4.31774 0
M  V30 6148 C 582.524 -4.73486 4.70497 0
M  V30 6149 H 581.794 -0.72042 0.173424 0
M  V30 6150 H 584.441 -1.56937 1.0974 0
M  V30 6151 H 582.746 -3.91785 -0.034356 0
M  V30 6152 H 584.443 -3.99475 0.349353 0
M  V30 6153 H 581.033 -3.89898 1.77981 0
M  V30 6154 H 585.217 -4.14529 2.7291 0
M  V30 6155 H 580.473 -4.55097 4.08285 0
M  V30 6156 H 584.647 -4.81058 5.03543 0
M  V30 6157 H 582.274 -5.01016 5.71741 0
M  V30 6158 N 583.85 -0.624285 -1.44708 0
M  V30 6159 C 585.127 -0.0572781 -1.95516 0
M  V30 6160 C 585.507 1.41516 -1.56641 0
M  V30 6161 O 584.855 2.12614 -0.837111 0
M  V30 6162 C 585.065 -0.272944 -3.47931 0
M  V30 6163 C 586.413 -0.162529 -4.24289 0
M  V30 6164 O 587.437 -0.203946 -3.55616 0
M  V30 6165 O 586.296 -0.0616847 -5.46465 0
M  V30 6166 H 583.389 0.0262219 -0.826584 0
M  V30 6167 H 585.936 -0.695512 -1.54793 0
M  V30 6168 H 584.707 -1.29492 -3.69253 0
M  V30 6169 H 584.331 0.399756 -3.95585 0
M  V30 6170 N 585.328 1.53329 -0.364422 0
M  V30 6171 C 586.553 2.06132 0.229033 0
M  V30 6172 C 586.978 1.23625 1.41769 0
M  V30 6173 O 586.336 0.255038 1.79497 0
M  V30 6174 C 586.384 3.55544 0.60174 0
M  V30 6175 O 585.488 3.75771 1.69912 0
M  V30 6176 H 584.829 0.663148 0.0336213 0
M  V30 6177 H 587.359 1.97758 -0.524689 0
M  V30 6178 H 587.369 3.98549 0.873073 0
M  V30 6179 H 586.044 4.15039 -0.267421 0
M  V30 6180 H 584.621 3.44663 1.42343 0
M  V30 6181 N 586.806 0.0935595 1.57322 0
M  V30 6182 C 588.053 -0.570509 1.94297 0
M  V30 6183 C 588.381 -1.68286 0.97519 0
M  V30 6184 O 587.636 -1.95699 -0.00548655 0
M  V30 6185 C 587.935 -1.16692 3.37813 0
M  V30 6186 C 587.601 -0.178509 4.50547 0
M  V30 6187 C 586.263 0.0933475 4.81109 0
M  V30 6188 C 588.615 0.496472 5.1883 0
M  V30 6189 C 585.943 1.0469 5.77284 0
M  V30 6190 C 588.295 1.43849 6.16028 0
M  V30 6191 C 586.959 1.71859 6.44997 0
M  V30 6192 H 586.229 -0.208764 0.710984 0
M  V30 6193 H 588.876 0.169066 1.90752 0
M  V30 6194 H 587.181 -1.98271 3.37929 0
M  V30 6195 H 588.878 -1.6884 3.63722 0
M  V30 6196 H 585.468 -0.400584 4.26724 0
M  V30 6197 H 589.652 0.299584 4.95395 0
M  V30 6198 H 584.908 1.27094 5.98044 0
M  V30 6199 H 589.082 1.96734 6.68034 0
M  V30 6200 H 586.709 2.45906 7.19329 0
M  V30 6201 N 588.284 -1.56567 -0.180126 0
M  V30 6202 C 589.231 -1.95725 -1.22313 0
M  V30 6203 C 590.201 -0.819911 -1.44453 0
M  V30 6204 O 591.386 -1.07931 -1.57339 0
M  V30 6205 C 588.526 -2.31484 -2.55947 0
M  V30 6206 C 587.639 -3.58354 -2.4126 0
M  V30 6207 C 586.774 -3.83366 -3.67701 0
M  V30 6208 C 585.813 -5.03612 -3.47909 0
M  V30 6209 N 584.95 -5.24802 -4.66398 0
M  V30 6210 H 589.79 -2.84642 -0.882198 0
M  V30 6211 H 587.327 -1.4085 -0.42422 0
M  V30 6212 H 589.285 -2.50237 -3.33822 0
M  V30 6213 H 587.915 -1.45689 -2.88053 0
M  V30 6214 H 586.967 -3.47565 -1.54606 0
M  V30 6215 H 588.279 -4.46386 -2.22577 0
M  V30 6216 H 587.433 -4.02439 -4.54013 0
M  V30 6217 H 586.172 -2.93692 -3.89353 0
M  V30 6218 H 585.177 -4.84447 -2.59983 0
M  V30 6219 H 586.402 -5.94809 -3.27688 0
M  V30 6220 H 584.348 -4.38079 -4.88286 0
M  V30 6221 H 584.265 -6.07041 -4.50596 0
M  V30 6222 H 585.533 -5.48346 -5.54019 0
M  V30 6223 N 589.762 0.448376 -1.51087 0
M  V30 6224 C 591.002 1.20832 -1.64861 0
M  V30 6225 C 591.366 1.88748 -0.351873 0
M  V30 6226 O 592.567 2.66307 -0.365265 0
M  V30 6227 C 590.838 2.20674 -2.81137 0
M  V30 6228 S 592.397 3.05303 -3.15176 0
M  V30 6229 H 589.215 0.40992 -0.580936 0
M  V30 6230 H 591.817 0.501624 -1.88955 0
M  V30 6231 H 590.521 1.69399 -3.73808 0
M  V30 6232 H 590.052 2.9594 -2.59198 0
M  V30 6233 H 592.067 4.22162 -2.60756 0
M  V30 6234 N 591.24 1.41047 0.703093 0
M  V30 6235 C 592.203 1.42036 1.79884 0
M  V30 6236 C 593.203 0.312153 1.57741 0
M  V30 6237 O 594.393 0.571672 1.64553 0
M  V30 6238 C 591.525 1.22437 3.18154 0
M  V30 6239 H 592.718 2.39572 1.80403 0
M  V30 6240 H 590.271 1.27079 0.909977 0
M  V30 6241 H 591.006 0.257112 3.23279 0
M  V30 6242 H 590.791 2.02723 3.35627 0
M  V30 6243 H 592.281 1.25946 3.98155 0
M  V30 6244 N 592.718 -0.936591 1.26751 0
M  V30 6245 C 593.995 -1.66094 1.03306 0
M  V30 6246 C 594.375 -2.06568 -0.435058 0
M  V30 6247 O 593.723 -1.79305 -1.41641 0
M  V30 6248 C 593.933 -2.86969 1.98619 0
M  V30 6249 C 595.281 -3.58516 2.27489 0
M  V30 6250 O 596.305 -2.97082 1.96522 0
M  V30 6251 O 595.164 -4.69181 2.80235 0
M  V30 6252 H 592.258 -0.727568 0.393158 0
M  V30 6253 H 594.804 -0.987914 1.3798 0
M  V30 6254 H 593.576 -2.53985 2.9767 0
M  V30 6255 H 593.199 -3.61996 1.64454 0
M  V30 6256 N 594.196 -1.08629 -1.14182 0
M  V30 6257 C 595.445 -0.812271 -1.84621 0
M  V30 6258 C 595.758 0.664313 -1.83973 0
M  V30 6259 O 596.964 1.05357 -2.50224 0
M  V30 6260 C 595.42 -1.4031 -3.31423 0
M  V30 6261 C 595.028 -2.91164 -3.40481 0
M  V30 6262 C 596.772 -1.20767 -4.06959 0
M  V30 6263 C 594.679 -3.43373 -4.81507 0
M  V30 6264 H 593.609 -0.30019 -0.691666 0
M  V30 6265 H 596.26 -1.30798 -1.28701 0
M  V30 6266 H 594.642 -0.835096 -3.87094 0
M  V30 6267 H 595.816 -3.5412 -2.94848 0
M  V30 6268 H 594.131 -3.09646 -2.78403 0
M  V30 6269 H 596.728 -1.57237 -5.11058 0
M  V30 6270 H 597.071 -0.147664 -4.16038 0
M  V30 6271 H 597.604 -1.74274 -3.57594 0
M  V30 6272 H 594.343 -4.48958 -4.77616 0
M  V30 6273 H 593.863 -2.85176 -5.27669 0
M  V30 6274 H 595.542 -3.40095 -5.50404 0
M  V30 6275 N 595.674 1.31259 -0.872281 0
M  V30 6276 C 596.904 2.00504 -0.498183 0
M  V30 6277 C 597.312 1.65632 0.914479 0
M  V30 6278 O 596.655 0.882849 1.61095 0
M  V30 6279 C 596.717 3.5482 -0.578194 0
M  V30 6280 C 596.381 4.13172 -1.95289 0
M  V30 6281 C 597.378 4.30107 -2.92069 0
M  V30 6282 C 595.063 4.48846 -2.25483 0
M  V30 6283 C 597.057 4.81908 -4.17185 0
M  V30 6284 C 594.744 5.00349 -3.50847 0
M  V30 6285 C 595.742 5.16831 -4.46514 0
M  V30 6286 O 595.43 5.67228 -5.69656 0
M  V30 6287 H 595.162 0.648055 -0.192354 0
M  V30 6288 H 597.716 1.6841 -1.17589 0
M  V30 6289 H 595.946 3.86383 0.156438 0
M  V30 6290 H 597.635 4.05318 -0.217192 0
M  V30 6291 H 598.401 4.02862 -2.7005 0
M  V30 6292 H 594.28 4.35292 -1.51795 0
M  V30 6293 H 597.824 4.94688 -4.91863 0
M  V30 6294 H 593.721 5.27028 -3.72708 0
M  V30 6295 H 594.489 5.85592 -5.7186 0
M  V30 6296 N 597.152 0.631951 1.44375 0
M  V30 6297 C 598.115 -0.0628142 2.29114 0
M  V30 6298 C 599.115 -0.771494 1.41084 0
M  V30 6299 O 600.305 -0.615959 1.62947 0
M  V30 6300 C 597.437 -1.09953 3.22681 0
M  V30 6301 H 598.63 0.682509 2.92031 0
M  V30 6302 H 596.183 0.392128 1.51301 0
M  V30 6303 H 596.918 -1.87481 2.64616 0
M  V30 6304 H 596.703 -0.595286 3.87555 0
M  V30 6305 H 598.193 -1.58538 3.86336 0
M  V30 6306 N 598.631 -1.53133 0.372548 0
M  V30 6307 C 599.561 -2.28876 -0.462412 0
M  V30 6308 C 600.542 -1.31583 -1.07796 0
M  V30 6309 O 601.727 -1.60461 -1.09389 0
M  V30 6310 C 598.857 -3.08317 -1.59868 0
M  V30 6311 C 597.811 -4.13355 -1.11003 0
M  V30 6312 C 597.137 -4.8092 -2.33708 0
M  V30 6313 C 598.437 -5.21955 -0.18983 0
M  V30 6314 H 600.131 -2.9892 0.169511 0
M  V30 6315 H 597.677 -1.43761 0.0829658 0
M  V30 6316 H 599.63 -3.60055 -2.18949 0
M  V30 6317 H 598.354 -2.35976 -2.25794 0
M  V30 6318 H 597.013 -3.62573 -0.541869 0
M  V30 6319 H 596.661 -4.05144 -2.98106 0
M  V30 6320 H 596.361 -5.51904 -2.01682 0
M  V30 6321 H 597.885 -5.35455 -2.93462 0
M  V30 6322 H 599.299 -5.69153 -0.688319 0
M  V30 6323 H 597.696 -6.00087 0.0398887 0
M  V30 6324 H 598.766 -4.78811 0.766057 0
M  V30 6325 N 600.109 -0.101901 -1.5727 0
M  V30 6326 C 601.357 0.559091 -1.94213 0
M  V30 6327 C 601.678 1.68297 -0.984948 0
M  V30 6328 O 600.948 1.95863 -0.0381975 0
M  V30 6329 H 599.528 0.20952 -0.717015 0
M  V30 6330 H 602.19 -0.166831 -1.94185 0
M  V30 6331 H 601.286 0.96485 -2.96811 0
M  V30 6332 N 601.587 1.56661 0.17182 0
M  V30 6333 C 602.517 1.99401 1.21498 0
M  V30 6334 C 603.498 0.869516 1.46197 0
M  V30 6335 O 604.683 1.13556 1.57539 0
M  V30 6336 C 601.813 2.35346 2.55401 0
M  V30 6337 C 600.767 3.5075 2.45272 0
M  V30 6338 C 600.093 3.72437 3.8366 0
M  V30 6339 C 601.393 4.84216 1.95787 0
M  V30 6340 H 603.087 2.86792 0.859699 0
M  V30 6341 H 600.633 1.37977 0.412103 0
M  V30 6342 H 602.586 2.63843 3.2858 0
M  V30 6343 H 601.31 1.44864 2.92715 0
M  V30 6344 H 599.969 3.2238 1.74547 0
M  V30 6345 H 599.617 2.79246 4.18367 0
M  V30 6346 H 599.317 4.50087 3.77751 0
M  V30 6347 H 600.841 4.03334 4.58426 0
M  V30 6348 H 602.255 5.11592 2.5874 0
M  V30 6349 H 600.652 5.65498 2.00827 0
M  V30 6350 H 601.722 4.76243 0.912159 0
M  V30 6351 N 603.065 -0.440357 1.51323 0
M  V30 6352 C 604.311 -1.19181 1.64085 0
M  V30 6353 C 604.644 -1.90936 0.354575 0
M  V30 6354 O 603.919 -1.8347 -0.645675 0
M  V30 6355 C 604.202 -2.2112 2.84215 0
M  V30 6356 C 604.055 -1.53468 4.22809 0
M  V30 6357 C 605.374 -3.22133 2.99864 0
M  V30 6358 H 602.493 -0.431924 0.597169 0
M  V30 6359 H 605.135 -0.481443 1.83799 0
M  V30 6360 H 603.285 -2.81703 2.67537 0
M  V30 6361 H 604.957 -0.962455 4.51148 0
M  V30 6362 H 603.2 -0.837086 4.25647 0
M  V30 6363 H 603.871 -2.27694 5.02852 0
M  V30 6364 H 606.347 -2.71601 3.15233 0
M  V30 6365 H 605.223 -3.90756 3.85488 0
M  V30 6366 H 605.484 -3.88061 2.11804 0
M  V30 6367 N 604.543 -1.41418 -0.695603 0
M  V30 6368 C 605.773 -1.43921 -1.48224 0
M  V30 6369 C 606.181 -0.0428855 -1.89151 0
M  V30 6370 O 605.524 0.948138 -1.5734 0
M  V30 6371 C 605.586 -2.28466 -2.77567 0
M  V30 6372 C 605.25 -3.76629 -2.58844 0
M  V30 6373 C 606.247 -4.6879 -2.24793 0
M  V30 6374 C 603.932 -4.2067 -2.74485 0
M  V30 6375 C 605.926 -6.02981 -2.06622 0
M  V30 6376 C 603.613 -5.54926 -2.55931 0
M  V30 6377 C 604.611 -6.45897 -2.2205 0
M  V30 6378 O 604.299 -7.77675 -2.03657 0
M  V30 6379 H 604.031 -0.492252 -0.463318 0
M  V30 6380 H 606.585 -1.86347 -0.863952 0
M  V30 6381 H 604.815 -1.80853 -3.41802 0
M  V30 6382 H 606.504 -2.2267 -3.39371 0
M  V30 6383 H 607.27 -4.36055 -2.12323 0
M  V30 6384 H 603.149 -3.50167 -2.9984 0
M  V30 6385 H 606.693 -6.73951 -1.80099 0
M  V30 6386 H 602.59 -5.8724 -2.67991 0
M  V30 6387 H 603.358 -7.88819 -2.1842 0
M  V30 6388 N 606.021 0.929856 -1.27246 0
M  V30 6389 C 607.267 1.6802 -1.14634 0
M  V30 6390 C 607.622 1.89965 0.305151 0
M  V30 6391 O 606.915 1.47737 1.22001 0
M  V30 6392 C 607.109 3.05116 -1.86115 0
M  V30 6393 C 606.938 2.96549 -3.38066 0
M  V30 6394 C 605.708 2.98947 -4.0738 0
M  V30 6395 C 607.906 2.7583 -4.34077 0
M  V30 6396 N 605.888 2.80799 -5.45917 0
M  V30 6397 C 607.259 2.66364 -5.59866 0
M  V30 6398 C 609.314 2.60701 -4.24193 0
M  V30 6399 C 608.017 2.43313 -6.76898 0
M  V30 6400 C 610.043 2.39026 -5.40944 0
M  V30 6401 C 609.405 2.30302 -6.65688 0
M  V30 6402 H 605.504 0.62172 -0.474329 0
M  V30 6403 H 608.088 1.09947 -1.60685 0
M  V30 6404 H 606.259 3.61306 -1.42522 0
M  V30 6405 H 607.991 3.69076 -1.66027 0
M  V30 6406 H 604.746 3.09093 -3.58829 0
M  V30 6407 H 605.17 2.74861 -6.18692 0
M  V30 6408 H 609.812 2.66206 -3.28473 0
M  V30 6409 H 607.53 2.36548 -7.72704 0
M  V30 6410 H 611.116 2.28208 -5.35175 0
M  V30 6411 H 609.996 2.13756 -7.54505 0
M  V30 6412 N 607.499 1.09233 1.13605 0
M  V30 6413 C 608.409 0.741939 2.22559 0
M  V30 6414 C 609.425 -0.255236 1.72118 0
M  V30 6415 O 610.601 -0.0970747 2.01166 0
M  V30 6416 C 607.666 0.165595 3.46304 0
M  V30 6417 C 606.727 1.21846 4.11645 0
M  V30 6418 C 605.96 0.669526 5.29484 0
M  V30 6419 O 606.183 -0.508228 5.68131 0
M  V30 6420 O 605.117 1.42361 5.84822 0
M  V30 6421 H 608.943 1.65107 2.54899 0
M  V30 6422 H 606.528 0.866584 1.21699 0
M  V30 6423 H 608.41 -0.152592 4.21124 0
M  V30 6424 H 607.085 -0.716573 3.15669 0
M  V30 6425 H 605.992 1.58931 3.38662 0
M  V30 6426 H 607.325 2.07321 4.46407 0
M  V30 6427 N 608.977 -1.30795 0.87923 0
M  V30 6428 C 610.226 -1.95636 0.490875 0
M  V30 6429 C 610.539 -1.70214 -0.963674 0
M  V30 6430 O 611.745 -2.28991 -1.45861 0
M  V30 6431 C 610.201 -3.50271 0.826929 0
M  V30 6432 C 609.809 -3.84521 2.29886 0
M  V30 6433 C 611.553 -4.21456 0.507494 0
M  V30 6434 C 609.46 -5.32309 2.57685 0
M  V30 6435 H 608.39 -0.732238 0.179841 0
M  V30 6436 H 611.041 -1.48829 1.07341 0
M  V30 6437 H 609.423 -3.9562 0.173542 0
M  V30 6438 H 610.597 -3.50102 2.99609 0
M  V30 6439 H 608.912 -3.26425 2.58526 0
M  V30 6440 H 611.509 -5.30199 0.692293 0
M  V30 6441 H 611.852 -4.12614 -0.552718 0
M  V30 6442 H 612.385 -3.81772 1.11782 0
M  V30 6443 H 609.124 -5.46195 3.62424 0
M  V30 6444 H 608.644 -5.68048 1.92566 0
M  V30 6445 H 610.323 -5.99678 2.42889 0
M  V30 6446 N 610.455 -0.639598 -1.44038 0
M  V30 6447 C 611.418 0.0506628 -2.29144 0
M  V30 6448 C 612.418 0.764001 -1.41491 0
M  V30 6449 O 613.608 0.607309 -1.63271 0
M  V30 6450 C 610.74 1.0824 -3.2326 0
M  V30 6451 H 611.933 -0.697987 -2.91664 0
M  V30 6452 H 609.486 -0.400146 -1.51091 0
M  V30 6453 H 610.221 1.86075 -2.65606 0
M  V30 6454 H 610.006 0.574725 -3.87865 0
M  V30 6455 H 611.496 1.56487 -3.87171 0
M  V30 6456 N 611.933 1.52934 -0.380664 0
M  V30 6457 C 613.349 1.59571 -0.0302429 0
M  V30 6458 C 613.549 1.39509 1.45394 0
M  V30 6459 O 612.605 1.20777 2.21741 0
M  V30 6460 C 613.918 2.96519 -0.499691 0
M  V30 6461 C 615.466 3.09672 -0.455204 0
M  V30 6462 C 615.941 4.49056 -0.900703 0
M  V30 6463 N 617.432 4.55215 -0.856367 0
M  V30 6464 C 618.167 5.61282 -1.17259 0
M  V30 6465 N 617.663 6.75035 -1.55885 0
M  V30 6466 N 619.456 5.51343 -1.0944 0
M  V30 6467 H 611.607 1.64224 -1.347 0
M  V30 6468 H 613.87 0.771033 -0.551554 0
M  V30 6469 H 613.576 3.16388 -1.53595 0
M  V30 6470 H 613.45 3.77052 0.105789 0
M  V30 6471 H 615.837 2.89504 0.571949 0
M  V30 6472 H 615.918 2.31113 -1.09638 0
M  V30 6473 H 615.562 4.69964 -1.92604 0
M  V30 6474 H 615.492 5.26068 -0.236629 0
M  V30 6475 H 617.983 3.73546 -0.572013 0
M  V30 6476 H 618.296 7.51926 -1.784 0
M  V30 6477 H 616.641 6.76388 -1.59764 0
M  V30 6478 H 619.832 4.61356 -0.791713 0
M  V30 6479 H 620.005 6.33905 -1.34417 0
M  V30 6480 N 613.412 0.11024 1.57214 0
M  V30 6481 C 614.828 -0.24638 1.57687 0
M  V30 6482 C 615.028 -1.67344 1.12241 0
M  V30 6483 O 614.084 -2.39298 0.805783 0
M  V30 6484 C 615.397 -0.0210288 3.00693 0
M  V30 6485 C 616.945 -0.0876077 3.12877 0
M  V30 6486 C 617.42 0.10994 4.57868 0
M  V30 6487 N 618.911 0.0556135 4.63167 0
M  V30 6488 C 619.646 0.183495 5.73106 0
M  V30 6489 N 619.142 0.367058 6.91827 0
M  V30 6490 N 620.935 0.123689 5.61964 0
M  V30 6491 H 613.086 1.04246 1.85058 0
M  V30 6492 H 615.349 0.40979 0.854854 0
M  V30 6493 H 615.055 0.965203 3.38196 0
M  V30 6494 H 614.929 -0.756748 3.69531 0
M  V30 6495 H 617.316 -1.06436 2.75237 0
M  V30 6496 H 617.397 0.67985 2.466 0
M  V30 6497 H 617.041 1.08362 4.96206 0
M  V30 6498 H 616.971 -0.677397 5.22225 0
M  V30 6499 H 619.462 -0.0831062 3.77809 0
M  V30 6500 H 619.775 0.455739 7.71455 0
M  V30 6501 H 618.12 0.40292 6.93831 0
M  V30 6502 H 621.311 -0.0186928 4.68096 0
M  V30 6503 H 621.484 0.226797 6.47603 0
M  V30 6504 N 614.89 -1.56749 -0.16351 0
M  V30 6505 C 616.13 -1.84234 -0.885271 0
M  V30 6506 C 616.494 -0.692259 -1.79086 0
M  V30 6507 O 617.695 -0.847747 -2.55082 0
M  V30 6508 C 615.966 -3.16857 -1.65337 0
M  V30 6509 S 617.525 -3.65848 -2.42282 0
M  V30 6510 H 614.343 -0.646293 -0.296354 0
M  V30 6511 H 616.945 -1.94951 -0.146365 0
M  V30 6512 H 615.649 -3.98546 -0.979266 0
M  V30 6513 H 615.18 -3.09102 -2.4335 0
M  V30 6514 H 617.195 -3.33796 -3.67143 0
M  V30 6515 N 616.368 0.432326 -1.51554 0
M  V30 6516 C 617.316 1.54572 -1.73811 0
M  V30 6517 C 618.31 1.58246 -0.604539 0
M  V30 6518 O 619.516 1.6193 -0.786041 0
M  V30 6519 H 615.891 0.513626 -0.549265 0
M  V30 6520 H 617.862 1.32977 -2.67132 0
M  V30 6521 C 616.611 2.92181 -1.88483 0
M  V30 6522 H 615.934 2.90088 -2.75116 0
M  V30 6523 H 617.374 3.69439 -2.08065 0
M  V30 6524 C 615.833 3.3065 -0.645909 0
M  V30 6525 O 616.363 4.01216 0.197093 0
M  V30 6526 N 614.569 2.86464 -0.488538 0
M  V30 6527 H 614.116 2.29209 -1.17562 0
M  V30 6528 H 614.074 3.12565 0.339156 0
M  V30 6529 N 617.846 1.41785 0.688094 0
M  V30 6530 C 619.071 1.45117 1.48175 0
M  V30 6531 C 619.496 0.060129 1.88004 0
M  V30 6532 O 618.854 -0.938385 1.55126 0
M  V30 6533 C 618.902 2.37224 2.71583 0
M  V30 6534 O 618.006 1.83443 3.69354 0
M  V30 6535 H 617.347 0.492208 0.445676 0
M  V30 6536 H 619.877 1.86329 0.845145 0
M  V30 6537 H 619.887 2.53353 3.19806 0
M  V30 6538 H 618.562 3.38293 2.41931 0
M  V30 6539 H 617.139 1.76802 3.28322 0
M  V30 6540 N 619.324 -0.923095 1.27737 0
M  V30 6541 C 620.572 -1.66797 1.14119 0
M  V30 6542 C 620.893 -1.92479 -0.312541 0
M  V30 6543 O 620.163 -1.53432 -1.218 0
M  V30 6544 H 618.743 -0.618196 0.419336 0
M  V30 6545 H 621.405 -1.10815 1.60331 0
M  V30 6546 H 620.501 -2.63424 1.67374 0
M  V30 6547 N 620.802 -1.09834 -1.13024 0
M  V30 6548 C 622.05 -0.835297 -1.8403 0
M  V30 6549 C 622.371 0.640944 -1.84165 0
M  V30 6550 O 621.641 1.46517 -1.30037 0
M  V30 6551 H 620.221 -0.306018 -0.681441 0
M  V30 6552 H 622.883 -1.38734 -1.36891 0
M  V30 6553 H 621.979 -1.19258 -2.88416 0
M  V30 6554 N 622.28 1.30327 -0.886154 0
M  V30 6555 C 623.526 1.96388 -0.505941 0
M  V30 6556 C 623.859 1.69784 0.942712 0
M  V30 6557 O 623.134 1.00322 1.6663 0
M  V30 6558 C 623.417 3.51488 -0.782826 0
M  V30 6559 C 623.27 3.87603 -2.28219 0
M  V30 6560 C 624.589 4.39331 -0.260128 0
M  V30 6561 H 621.708 0.713327 -0.185292 0
M  V30 6562 H 624.35 1.54178 -1.11036 0
M  V30 6563 H 622.5 3.87572 -0.268399 0
M  V30 6564 H 624.172 3.61537 -2.86512 0
M  V30 6565 H 622.415 3.3563 -2.74837 0
M  V30 6566 H 623.086 4.95806 -2.42653 0
M  V30 6567 H 625.562 4.10162 -0.700444 0
M  V30 6568 H 624.438 5.46769 -0.483179 0
M  V30 6569 H 624.699 4.34072 0.838674 0
M  V30 6570 N 623.758 0.647228 1.43697 0
M  V30 6571 C 624.708 -0.0702191 2.27892 0
M  V30 6572 C 625.692 -0.800601 1.39568 0
M  V30 6573 O 626.884 -0.684055 1.63247 0
M  V30 6574 C 624.013 -1.04008 3.27165 0
M  V30 6575 C 623.099 -0.308484 4.22977 0
M  V30 6576 N 623.49 0.671721 5.0132 0
M  V30 6577 C 621.788 -0.550751 4.42586 0
M  V30 6578 C 622.489 1.10543 5.711 0
M  V30 6579 N 621.465 0.440903 5.41809 0
M  V30 6580 H 625.267 0.682031 2.85877 0
M  V30 6581 H 622.781 0.474022 1.55328 0
M  V30 6582 H 624.778 -1.56881 3.86256 0
M  V30 6583 H 623.438 -1.79246 2.70742 0
M  V30 6584 H 624.449 1.0502 5.0714 0
M  V30 6585 H 621.126 -1.28476 3.97241 0
M  V30 6586 H 622.516 1.91614 6.43998 0
M  V30 6587 N 625.236 -1.5273 0.388769 0
M  V30 6588 C 626.146 -2.30165 -0.453993 0
M  V30 6589 C 627.162 -1.37058 -1.07197 0
M  V30 6590 O 628.338 -1.70127 -1.0779 0
M  V30 6591 C 625.403 -3.09303 -1.56628 0
M  V30 6592 C 624.464 -4.18117 -0.973467 0
M  V30 6593 C 623.697 -4.93472 -2.03275 0
M  V30 6594 O 623.92 -4.68913 -3.24772 0
M  V30 6595 O 622.854 -5.78833 -1.65034 0
M  V30 6596 H 626.68 -3.03185 0.176816 0
M  V30 6597 H 624.265 -1.4862 0.152501 0
M  V30 6598 H 626.147 -3.58648 -2.21246 0
M  V30 6599 H 624.822 -2.39098 -2.18206 0
M  V30 6600 H 623.729 -3.7297 -0.290556 0
M  V30 6601 H 625.062 -4.90556 -0.401908 0
M  V30 6602 N 626.714 -0.118576 -1.57153 0
M  V30 6603 C 627.624 0.845484 -2.18835 0
M  V30 6604 C 628.64 1.29299 -1.16438 0
M  V30 6605 O 629.816 1.35607 -1.48905 0
M  V30 6606 C 626.881 2.07795 -2.77529 0
M  V30 6607 C 625.942 1.6824 -3.9496 0
M  V30 6608 C 625.175 2.85612 -4.50845 0
M  V30 6609 O 625.398 4.01025 -4.05629 0
M  V30 6610 O 624.332 2.62721 -5.41536 0
M  V30 6611 H 628.158 0.350568 -3.0167 0
M  V30 6612 H 625.743 0.107013 -1.49016 0
M  V30 6613 H 627.625 2.79978 -3.14945 0
M  V30 6614 H 626.3 2.56294 -1.97725 0
M  V30 6615 H 625.207 0.931663 -3.62313 0
M  V30 6616 H 626.54 1.24484 -4.76198 0
M  V30 6617 N 628.193 1.56834 0.155195 0
M  V30 6618 C 629.423 1.86778 0.883044 0
M  V30 6619 C 629.831 0.703824 1.75622 0
M  V30 6620 O 629.174 -0.33581 1.80605 0
M  V30 6621 C 629.236 3.1133 1.79761 0
M  V30 6622 C 628.9 4.43504 1.10242 0
M  V30 6623 C 629.897 5.17859 0.460204 0
M  V30 6624 C 627.582 4.90233 1.09437 0
M  V30 6625 C 629.576 6.37144 -0.180782 0
M  V30 6626 C 627.263 6.09444 0.449569 0
M  V30 6627 C 628.261 6.82744 -0.186888 0
M  V30 6628 O 627.949 7.99692 -0.821486 0
M  V30 6629 H 627.681 0.62352 0.261149 0
M  V30 6630 H 630.235 2.04813 0.155204 0
M  V30 6631 H 628.465 2.89282 2.56618 0
M  V30 6632 H 630.154 3.27587 2.39669 0
M  V30 6633 H 630.92 4.8283 0.458289 0
M  V30 6634 H 626.799 4.33109 1.57917 0
M  V30 6635 H 630.343 6.94296 -0.678154 0
M  V30 6636 H 626.24 6.43936 0.449123 0
M  V30 6637 H 627.008 8.15306 -0.722337 0
M  V30 6638 N 629.671 -0.424282 1.51781 0
M  V30 6639 C 630.603 -1.53457 1.70246 0
M  V30 6640 C 631.616 -1.52004 0.582967 0
M  V30 6641 O 632.805 -1.56544 0.857683 0
M  V30 6642 C 629.905 -2.92368 1.71389 0
M  V30 6643 C 629.078 -3.1818 3.00133 0
M  V30 6644 C 628.137 -4.36884 2.9329 0
M  V30 6645 O 627.163 -4.34901 3.67219 0
M  V30 6646 N 628.365 -5.4117 2.10036 0
M  V30 6647 H 631.13 -1.38017 2.66029 0
M  V30 6648 H 628.691 -0.613394 1.4983 0
M  V30 6649 H 630.683 -3.6982 1.64362 0
M  V30 6650 H 629.253 -3.0134 0.831449 0
M  V30 6651 H 628.473 -2.28908 3.20928 0
M  V30 6652 H 629.761 -3.32261 3.85331 0
M  V30 6653 H 629.159 -5.45623 1.49373 0
M  V30 6654 H 627.716 -6.17425 2.08878 0
M  V30 6655 N 631.149 -1.42148 -0.680565 0
M  V30 6656 C 632.079 -1.4796 -1.80638 0
M  V30 6657 C 633.06 -0.336728 -1.66734 0
M  V30 6658 O 634.245 -0.550247 -1.86242 0
M  V30 6659 C 631.375 -1.37569 -3.18892 0
M  V30 6660 C 630.329 -2.49823 -3.47524 0
M  V30 6661 C 629.655 -2.24491 -4.85291 0
M  V30 6662 C 630.955 -3.92144 -3.44994 0
M  V30 6663 H 632.649 -2.42184 -1.76032 0
M  V30 6664 H 630.195 -1.16566 -0.845481 0
M  V30 6665 H 632.148 -1.40243 -3.97379 0
M  V30 6666 H 630.872 -0.398357 -3.24162 0
M  V30 6667 H 629.531 -2.46455 -2.71395 0
M  V30 6668 H 629.179 -1.25066 -4.87204 0
M  V30 6669 H 628.879 -2.99722 -5.05411 0
M  V30 6670 H 630.403 -2.28906 -5.66069 0
M  V30 6671 H 631.817 -3.97145 -4.13459 0
M  V30 6672 H 630.214 -4.67179 -3.76648 0
M  V30 6673 H 631.284 -4.19225 -2.43676 0
M  V30 6674 N 632.627 0.916307 -1.28225 0
M  V30 6675 C 634.038 1.48024 -1.13779 0
M  V30 6676 C 634.389 1.94289 0.273139 0
M  V30 6677 O 633.514 1.82226 1.16716 0
M  V30 6678 C 634.109 2.69029 -2.05935 0
M  V30 6679 C 632.668 3.2161 -1.95561 0
M  V30 6680 C 631.815 1.94321 -1.97825 0
M  V30 6681 H 634.766 0.729272 -1.40951 0
M  V30 6682 H 634.787 3.44204 -1.62184 0
M  V30 6683 H 634.299 2.35325 -3.08616 0
M  V30 6684 H 632.4 3.60045 -0.959076 0
M  V30 6685 H 632.513 3.87032 -2.82388 0
M  V30 6686 H 630.877 2.1131 -1.42198 0
M  V30 6687 H 631.66 1.62917 -3.0218 0
M  V30 6688 N 634.105 1.10431 1.1244 0
M  V30 6689 C 635.335 0.867612 1.87499 0
M  V30 6690 C 635.743 -0.585475 1.79913 0
M  V30 6691 O 635.086 -1.41539 1.171 0
M  V30 6692 C 635.148 1.2374 3.37533 0
M  V30 6693 C 634.812 2.69751 3.68895 0
M  V30 6694 C 635.809 3.67988 3.67261 0
M  V30 6695 C 633.494 3.06135 3.98229 0
M  V30 6696 C 635.488 5.00632 3.9452 0
M  V30 6697 C 633.175 4.38967 4.25149 0
M  V30 6698 C 634.173 5.36025 4.23281 0
M  V30 6699 O 633.861 6.66465 4.49533 0
M  V30 6700 H 633.593 0.311196 0.600111 0
M  V30 6701 H 636.147 1.47257 1.43194 0
M  V30 6702 H 634.377 0.575537 3.82393 0
M  V30 6703 H 636.066 0.978187 3.93937 0
M  V30 6704 H 636.832 3.41224 3.44661 0
M  V30 6705 H 632.711 2.31214 3.98825 0
M  V30 6706 H 636.255 5.7638 3.92978 0
M  V30 6707 H 632.152 4.6547 4.47223 0
M  V30 6708 H 632.92 6.72095 4.67152 0
M  V30 6709 N 635.583 -1.29855 0.893053 0
M  V30 6710 C 636.813 -1.99686 0.530019 0
M  V30 6711 C 637.221 -1.67066 -0.888012 0
M  V30 6712 O 636.564 -0.908366 -1.5967 0
M  V30 6713 C 636.626 -3.53855 0.63457 0
M  V30 6714 C 636.29 -4.10013 2.01837 0
M  V30 6715 C 637.287 -4.25406 2.98874 0
M  V30 6716 C 634.972 -4.45202 2.32595 0
M  V30 6717 C 636.966 -4.7521 4.24799 0
M  V30 6718 C 634.653 -4.94704 3.58763 0
M  V30 6719 C 635.651 -5.09662 4.5468 0
M  V30 6720 O 635.339 -5.58093 5.78608 0
M  V30 6721 H 635.071 -0.644913 0.20264 0
M  V30 6722 H 637.625 -1.66518 1.20253 0
M  V30 6723 H 635.855 -3.86583 -0.0949477 0
M  V30 6724 H 637.544 -4.04922 0.281648 0
M  V30 6725 H 638.31 -3.98515 2.76425 0
M  V30 6726 H 634.189 -4.32822 1.58701 0
M  V30 6727 H 637.733 -4.86801 4.99671 0
M  V30 6728 H 633.63 -5.21032 3.81046 0
M  V30 6729 H 634.398 -5.7642 5.81104 0
M  V30 6730 N 637.061 -0.65484 -1.43351 0
M  V30 6731 C 638.338 -0.0987371 -1.95351 0
M  V30 6732 C 638.718 1.38161 -1.59608 0
M  V30 6733 O 638.066 2.10791 -0.882021 0
M  V30 6734 C 638.276 -0.346684 -3.47274 0
M  V30 6735 C 639.624 -0.25249 -4.23849 0
M  V30 6736 O 640.648 -0.279332 -3.55103 0
M  V30 6737 O 639.507 -0.177584 -5.46211 0
M  V30 6738 H 636.601 0.0086829 -0.826954 0
M  V30 6739 H 639.147 -0.728189 -1.53282 0
M  V30 6740 H 637.919 -1.37296 -3.66423 0
M  V30 6741 H 637.542 0.315757 -3.96344 0
M  V30 6742 N 638.539 1.52521 -0.396863 0
M  V30 6743 C 639.469 2.29582 0.425941 0
M  V30 6744 C 640.45 1.33281 1.05689 0
M  V30 6745 O 641.635 1.62181 1.06823 0
M  V30 6746 C 638.765 3.10821 1.54943 0
M  V30 6747 C 637.719 4.15069 1.04413 0
M  V30 6748 C 637.045 4.84578 2.26028 0
M  V30 6749 C 638.345 5.22191 0.106767 0
M  V30 6750 H 640.039 2.98612 -0.217045 0
M  V30 6751 H 637.585 1.43611 -0.105826 0
M  V30 6752 H 639.538 3.63492 2.13193 0
M  V30 6753 H 638.262 2.39538 2.22011 0
M  V30 6754 H 636.921 3.63389 0.484118 0
M  V30 6755 H 636.569 4.09835 2.91623 0
M  V30 6756 H 636.269 5.55043 1.92876 0
M  V30 6757 H 637.793 5.40056 2.84906 0
M  V30 6758 H 639.207 5.70176 0.597685 0
M  V30 6759 H 637.604 5.99947 -0.135352 0
M  V30 6760 H 638.674 4.77531 -0.842134 0
M  V30 6761 N 640.017 0.126909 1.57088 0
M  V30 6762 C 641.263 -0.529952 1.95753 0
M  V30 6763 C 641.596 -1.65823 1.01077 0
M  V30 6764 O 640.871 -1.94437 0.0494162 0
M  V30 6765 C 641.154 -1.05517 3.44294 0
M  V30 6766 C 641.007 0.0702253 4.49745 0
M  V30 6767 C 642.326 -1.9435 3.94862 0
M  V30 6768 H 639.445 -0.191168 0.711775 0
M  V30 6769 H 642.087 0.204071 1.88901 0
M  V30 6770 H 640.237 -1.68069 3.50264 0
M  V30 6771 H 641.909 0.705834 4.55868 0
M  V30 6772 H 640.152 0.732259 4.27575 0
M  V30 6773 H 640.823 -0.338642 5.5096 0
M  V30 6774 H 643.299 -1.41658 3.91244 0
M  V30 6775 H 642.175 -2.28015 4.993 0
M  V30 6776 H 642.436 -2.87299 3.36024 0
M  V30 6777 N 641.495 -1.56914 -0.146875 0
M  V30 6778 C 642.906 -1.72799 -0.706928 0
M  V30 6779 C 643.257 -0.741329 -1.81656 0
M  V30 6780 O 642.382 0.0920162 -2.16204 0
M  V30 6781 C 642.977 -3.13317 -1.28911 0
M  V30 6782 C 641.536 -3.30803 -1.79573 0
M  V30 6783 C 640.683 -2.68725 -0.684252 0
M  V30 6784 H 643.634 -1.58504 0.0787931 0
M  V30 6785 H 643.655 -3.13323 -2.15891 0
M  V30 6786 H 643.167 -3.85104 -0.481284 0
M  V30 6787 H 641.268 -2.64012 -2.62923 0
M  V30 6788 H 641.381 -4.38754 -1.92436 0
M  V30 6789 H 639.745 -2.29196 -1.11091 0
M  V30 6790 H 640.528 -3.43117 0.112134 0
M  V30 6791 N 642.974 0.416227 -1.52004 0
M  V30 6792 C 644.199 1.19029 -1.69843 0
M  V30 6793 C 644.624 1.83708 -0.404103 0
M  V30 6794 O 643.982 1.69711 0.637787 0
M  V30 6795 C 644.03 2.23439 -2.83032 0
M  V30 6796 O 643.134 3.29419 -2.48106 0
M  V30 6797 H 642.475 0.347785 -0.565634 0
M  V30 6798 H 645.005 0.488871 -1.98674 0
M  V30 6799 H 645.015 2.67884 -3.07737 0
M  V30 6800 H 643.69 1.75745 -3.76944 0
M  V30 6801 H 642.267 2.90303 -2.34048 0
M  V30 6802 N 644.452 1.42507 0.673017 0
M  V30 6803 C 645.729 1.33554 1.42908 0
M  V30 6804 C 646.109 -0.0262211 2.11084 0
M  V30 6805 O 645.457 -1.04181 2.03368 0
M  V30 6806 C 645.667 2.50498 2.43006 0
M  V30 6807 C 647.015 2.92694 3.07596 0
M  V30 6808 O 648.039 2.50401 2.53333 0
M  V30 6809 O 646.898 3.65899 4.05931 0
M  V30 6810 H 643.992 0.526785 0.637516 0
M  V30 6811 H 646.538 1.54518 0.701591 0
M  V30 6812 H 645.31 3.41272 1.9144 0
M  V30 6813 H 644.933 2.3153 3.23233 0
M  V30 6814 N 645.93 -0.909495 1.28709 0
M  V30 6815 C 647.341 -1.47419 1.14563 0
M  V30 6816 C 647.692 -1.94432 -0.262832 0
M  V30 6817 O 646.817 -1.82842 -1.15748 0
M  V30 6818 C 647.412 -2.67933 2.07358 0
M  V30 6819 C 645.971 -3.20568 1.97264 0
M  V30 6820 C 645.118 -1.93269 1.98852 0
M  V30 6821 H 648.069 -0.721787 1.41336 0
M  V30 6822 H 648.09 -3.43339 1.64007 0
M  V30 6823 H 647.602 -2.33685 3.09859 0
M  V30 6824 H 645.703 -3.59531 0.978157 0
M  V30 6825 H 645.816 -3.85529 2.84436 0
M  V30 6826 H 644.18 -2.10553 1.43317 0
M  V30 6827 H 644.963 -1.61312 3.0304 0
M  V30 6828 N 647.408 -1.11026 -1.11852 0
M  V30 6829 C 648.633 -0.879064 -1.87849 0
M  V30 6830 C 649.058 0.565406 -1.79401 0
M  V30 6831 O 648.416 1.39886 -1.15333 0
M  V30 6832 C 648.464 -1.33985 -3.34784 0
M  V30 6833 O 647.568 -0.508803 -4.09249 0
M  V30 6834 H 646.909 -0.316992 -0.583448 0
M  V30 6835 H 649.439 -1.47863 -1.41413 0
M  V30 6836 H 649.449 -1.33248 -3.85628 0
M  V30 6837 H 648.124 -2.39172 -3.40249 0
M  V30 6838 H 646.701 -0.581913 -3.68332 0
M  V30 6839 N 648.886 1.2938 -0.899927 0
M  V30 6840 C 650.135 1.9483 -0.521937 0
M  V30 6841 C 650.448 1.71725 0.936473 0
M  V30 6842 O 651.654 2.31282 1.42199 0
M  V30 6843 C 650.11 3.48911 -0.88255 0
M  V30 6844 C 649.718 3.80815 -2.35974 0
M  V30 6845 C 651.462 4.20595 -0.57448 0
M  V30 6846 C 649.369 5.28142 -2.66121 0
M  V30 6847 H 648.299 0.729285 -0.191468 0
M  V30 6848 H 650.95 1.47103 -1.09695 0
M  V30 6849 H 649.332 3.95293 -0.236459 0
M  V30 6850 H 650.506 3.45291 -3.05141 0
M  V30 6851 H 648.821 3.22271 -2.63686 0
M  V30 6852 H 651.418 5.29031 -0.776556 0
M  V30 6853 H 651.761 4.13442 0.487005 0
M  V30 6854 H 652.294 3.79945 -1.17842 0
M  V30 6855 H 649.033 5.4036 -3.71068 0
M  V30 6856 H 648.553 5.64913 -2.01578 0
M  V30 6857 H 650.232 5.95738 -2.52399 0
M  V30 6858 N 650.364 0.662433 1.43002 0
M  V30 6859 C 651.274 -0.0239199 2.34588 0
M  V30 6860 C 652.29 -0.802255 1.54402 0
M  V30 6861 O 653.466 -0.747401 1.87018 0
M  V30 6862 C 650.531 -0.972098 3.32793 0
M  V30 6863 C 649.592 -0.189673 4.28881 0
M  V30 6864 C 648.825 -1.09269 5.22395 0
M  V30 6865 O 649.048 -2.33209 5.20547 0
M  V30 6866 O 647.982 -0.560136 5.99288 0
M  V30 6867 H 651.808 0.730171 2.94792 0
M  V30 6868 H 649.393 0.422635 1.43297 0
M  V30 6869 H 651.275 -1.51676 3.93157 0
M  V30 6870 H 649.95 -1.70626 2.75079 0
M  V30 6871 H 648.857 0.398794 3.71968 0
M  V30 6872 H 650.19 0.50511 4.89601 0
M  V30 6873 N 651.842 -1.52309 0.404946 0
M  V30 6874 C 652.752 -2.30634 -0.429555 0
M  V30 6875 C 653.768 -1.38187 -1.05737 0
M  V30 6876 O 654.944 -1.71261 -1.05979 0
M  V30 6877 C 652.009 -3.10947 -1.53339 0
M  V30 6878 C 651.07 -4.19126 -0.929065 0
M  V30 6879 C 650.303 -4.95601 -1.9803 0
M  V30 6880 O 650.526 -4.72331 -3.1978 0
M  V30 6881 O 649.46 -5.80551 -1.58886 0
M  V30 6882 H 653.286 -3.0298 0.208963 0
M  V30 6883 H 650.871 -1.4845 0.168255 0
M  V30 6884 H 652.753 -3.60974 -2.1743 0
M  V30 6885 H 651.428 -2.41399 -2.15658 0
M  V30 6886 H 650.335 -3.73257 -0.250982 0
M  V30 6887 H 651.668 -4.90955 -0.349855 0
M  V30 6888 N 653.32 -0.135238 -1.57019 0
M  V30 6889 C 654.253 0.846618 -2.11914 0
M  V30 6890 C 655.231 1.25019 -1.03966 0
M  V30 6891 O 656.415 1.34838 -1.31723 0
M  V30 6892 C 653.542 2.1352 -2.6292 0
M  V30 6893 C 652.588 1.87846 -3.82905 0
M  V30 6894 S 653.421 1.08005 -5.24495 0
M  V30 6895 C 654.577 2.38008 -5.78881 0
M  V30 6896 H 654.81 0.379752 -2.94865 0
M  V30 6897 H 652.343 0.0788387 -1.54199 0
M  V30 6898 H 654.301 2.87551 -2.92958 0
M  V30 6899 H 652.962 2.57323 -1.80121 0
M  V30 6900 H 652.155 2.83365 -4.16797 0
M  V30 6901 H 651.757 1.21929 -3.53567 0
M  V30 6902 H 654.049 3.33742 -5.89595 0
M  V30 6903 H 654.992 2.08638 -6.76665 0
M  V30 6904 H 655.4 2.48119 -5.07048 0
M  V30 6905 N 654.798 1.5699 0.138552 0
M  V30 6906 C 656.214 1.51844 0.491472 0
M  V30 6907 C 656.414 0.845063 1.82923 0
M  V30 6908 O 655.47 0.419143 2.48997 0
M  V30 6909 C 656.783 2.96615 0.493987 0
M  V30 6910 C 658.331 3.076 0.578913 0
M  V30 6911 C 658.806 4.53893 0.612009 0
M  V30 6912 N 660.297 4.5827 0.673997 0
M  V30 6913 C 661.032 5.68852 0.720729 0
M  V30 6914 N 660.528 6.88982 0.726292 0
M  V30 6915 N 662.321 5.56908 0.762253 0
M  V30 6916 H 654.472 1.99158 -0.738228 0
M  V30 6917 H 656.735 0.908693 -0.270149 0
M  V30 6918 H 656.441 3.49172 -0.420933 0
M  V30 6919 H 656.315 3.53017 1.32887 0
M  V30 6920 H 658.702 2.55057 1.48425 0
M  V30 6921 H 658.783 2.54227 -0.283286 0
M  V30 6922 H 658.427 5.07076 -0.289208 0
M  V30 6923 H 658.357 5.05057 1.49082 0
M  V30 6924 H 660.848 3.71793 0.676654 0
M  V30 6925 H 661.161 7.69014 0.764032 0
M  V30 6926 H 659.506 6.91526 0.69403 0
M  V30 6927 H 662.697 4.61969 0.755135 0
M  V30 6928 H 662.87 6.43102 0.795207 0
M  V30 6929 N 656.276 -0.40816 1.52223 0
M  V30 6930 C 657.223 -1.49737 1.75635 0
M  V30 6931 C 658.193 -1.5493 0.598824 0
M  V30 6932 O 659.378 -1.71487 0.83648 0
M  V30 6933 C 656.518 -2.87174 1.91376 0
M  V30 6934 C 655.631 -2.91283 3.19027 0
M  V30 6935 C 654.766 -4.20026 3.25195 0
M  V30 6936 C 653.805 -4.18113 4.47044 0
M  V30 6937 N 652.942 -5.38429 4.50598 0
M  V30 6938 H 657.782 -1.29075 2.68596 0
M  V30 6939 H 655.319 -0.626518 1.33091 0
M  V30 6940 H 657.277 -3.66959 1.98486 0
M  V30 6941 H 655.907 -3.06329 1.01795 0
M  V30 6942 H 654.959 -2.03984 3.21084 0
M  V30 6943 H 656.271 -2.85734 4.08849 0
M  V30 6944 H 655.425 -5.08204 3.31382 0
M  V30 6945 H 654.164 -4.28271 2.33313 0
M  V30 6946 H 653.169 -3.28325 4.41002 0
M  V30 6947 H 654.394 -4.11507 5.40221 0
M  V30 6948 H 652.34 -5.4734 3.616 0
M  V30 6949 H 652.257 -5.34879 5.34266 0
M  V30 6950 H 653.525 -6.28557 4.61016 0
M  V30 6951 N 657.755 -1.42862 -0.66545 0
M  V30 6952 C 659.001 -1.44043 -1.42757 0
M  V30 6953 C 659.334 -0.0599629 -1.94107 0
M  V30 6954 O 658.609 0.917286 -1.71511 0
M  V30 6955 C 658.892 -2.47266 -2.61786 0
M  V30 6956 C 658.745 -3.94539 -2.16007 0
M  V30 6957 C 660.064 -2.47365 -3.64003 0
M  V30 6958 H 657.183 -0.524506 -0.517748 0
M  V30 6959 H 659.825 -1.74335 -0.755466 0
M  V30 6960 H 657.975 -2.21565 -3.19126 0
M  V30 6961 H 659.647 -4.31254 -1.63762 0
M  V30 6962 H 657.89 -4.07957 -1.47491 0
M  V30 6963 H 658.561 -4.62357 -3.01546 0
M  V30 6964 H 661.037 -2.70243 -3.16399 0
M  V30 6965 H 659.913 -3.21552 -4.44854 0
M  V30 6966 H 660.174 -1.50299 -4.15767 0
M  V30 6967 N 659.233 0.902656 -1.29189 0
M  V30 6968 C 660.479 1.65532 -1.17163 0
M  V30 6969 C 660.812 1.92216 0.276879 0
M  V30 6970 O 660.087 1.53048 1.20027 0
M  V30 6971 C 660.37 3.00629 -1.98228 0
M  V30 6972 C 660.223 2.81029 -3.51202 0
M  V30 6973 C 661.542 4.01321 -1.80635 0
M  V30 6974 H 658.661 0.60071 -0.426985 0
M  V30 6975 H 661.303 1.04578 -1.5863 0
M  V30 6976 H 659.453 3.52656 -1.62991 0
M  V30 6977 H 661.125 2.35927 -3.96404 0
M  V30 6978 H 659.368 2.1587 -3.76275 0
M  V30 6979 H 660.039 3.77014 -4.03192 0
M  V30 6980 H 662.515 3.58394 -2.11406 0
M  V30 6981 H 661.391 4.93792 -2.3971 0
M  V30 6982 H 661.652 4.35505 -0.760754 0
M  V30 6983 N 660.711 1.11618 1.11262 0
M  V30 6984 C 661.951 0.876154 1.8467 0
M  V30 6985 C 662.315 -0.587551 1.82789 0
M  V30 6986 O 663.516 -0.944411 2.51663 0
M  V30 6987 C 661.787 1.42461 3.2778 0
M  V30 6988 S 663.346 1.32185 4.18417 0
M  V30 6989 H 660.164 0.31628 0.636779 0
M  V30 6990 H 662.766 1.42404 1.33946 0
M  V30 6991 H 661.47 2.48367 3.26714 0
M  V30 6992 H 661.001 0.873844 3.83572 0
M  V30 6993 H 663.016 0.287607 4.95366 0
M  V30 6994 N 662.189 -1.289 0.906776 0
M  V30 6995 C 663.466 -1.90221 0.455537 0
M  V30 6996 C 663.846 -1.82251 -1.06527 0
M  V30 6997 O 663.194 -1.25385 -1.91026 0
M  V30 6998 C 663.404 -3.35015 0.97806 0
M  V30 6999 C 664.752 -4.12018 1.02598 0
M  V30 7000 O 665.776 -3.43947 0.926218 0
M  V30 7001 O 664.635 -5.33677 1.17689 0
M  V30 7002 H 661.729 -0.814505 0.143214 0
M  V30 7003 H 664.275 -1.37317 0.997104 0
M  V30 7004 H 663.047 -3.35006 2.02204 0
M  V30 7005 H 662.67 -3.95408 0.416914 0
M  V30 7006 N 663.667 -0.670007 -1.42649 0
M  V30 7007 C 664.599 0.0501746 -2.29145 0
M  V30 7008 C 665.612 0.770331 -1.43422 0
M  V30 7009 O 666.801 0.625288 -1.6719 0
M  V30 7010 C 663.901 1.09463 -3.20735 0
M  V30 7011 C 663.074 0.44926 -4.35087 0
M  V30 7012 C 662.133 1.39285 -5.07431 0
M  V30 7013 O 661.159 0.894997 -5.6212 0
M  V30 7014 N 662.361 2.72631 -5.12496 0
M  V30 7015 H 665.126 -0.692312 -2.91594 0
M  V30 7016 H 662.687 -0.514056 -1.53522 0
M  V30 7017 H 664.679 1.72705 -3.65999 0
M  V30 7018 H 663.249 1.73891 -2.59771 0
M  V30 7019 H 662.469 -0.362573 -3.92529 0
M  V30 7020 H 663.757 -0.000544776 -5.088 0
M  V30 7021 H 663.155 3.15623 -4.69467 0
M  V30 7022 H 661.712 3.31132 -5.61422 0
M  V30 7023 N 665.145 1.52092 -0.413018 0
M  V30 7024 C 666.092 2.27119 0.410558 0
M  V30 7025 C 667.062 1.29692 1.03774 0
M  V30 7026 O 668.247 1.58561 1.06128 0
M  V30 7027 C 665.387 3.09863 1.51918 0
M  V30 7028 C 664.5 4.22252 0.912528 0
M  V30 7029 C 663.635 4.92348 1.99417 0
M  V30 7030 C 662.674 5.96694 1.36466 0
M  V30 7031 N 661.811 6.60292 2.38661 0
M  V30 7032 H 666.651 2.97067 -0.235661 0
M  V30 7033 H 664.188 1.46542 -0.128055 0
M  V30 7034 H 666.146 3.56144 2.17295 0
M  V30 7035 H 664.776 2.42078 2.13537 0
M  V30 7036 H 663.828 3.80113 0.147697 0
M  V30 7037 H 665.14 4.9709 0.412717 0
M  V30 7038 H 664.294 5.42054 2.72512 0
M  V30 7039 H 663.033 4.17087 2.52764 0
M  V30 7040 H 662.038 5.46304 0.61906 0
M  V30 7041 H 663.263 6.73899 0.838827 0
M  V30 7042 H 661.209 5.87858 2.91134 0
M  V30 7043 H 661.126 7.30816 1.93503 0
M  V30 7044 H 662.394 7.14635 3.11314 0
M  V30 7045 N 666.623 0.143563 1.56945 0
M  V30 7046 C 667.553 -0.7936 2.196 0
M  V30 7047 C 668.534 -1.25955 1.14321 0
M  V30 7048 O 669.719 -1.31773 1.42651 0
M  V30 7049 C 666.849 -2.03424 2.81489 0
M  V30 7050 C 665.803 -1.70519 3.92565 0
M  V30 7051 C 665.129 -3.01817 4.41373 0
M  V30 7052 C 666.429 -0.95449 5.13504 0
M  V30 7053 H 668.123 -0.271423 2.98167 0
M  V30 7054 H 665.669 -0.12911 1.4342 0
M  V30 7055 H 667.622 -2.69463 3.23987 0
M  V30 7056 H 666.346 -2.58008 2.00248 0
M  V30 7057 H 665.005 -1.06859 3.5068 0
M  V30 7058 H 664.653 -3.54386 3.56959 0
M  V30 7059 H 664.353 -2.80565 5.16292 0
M  V30 7060 H 665.877 -3.68934 4.86539 0
M  V30 7061 H 667.291 -1.5169 5.52868 0
M  V30 7062 H 665.688 -0.842035 5.94163 0
M  V30 7063 H 666.758 0.0544033 4.84869 0
M  V30 7064 N 668.101 -1.57061 -0.130224 0
M  V30 7065 C 669.517 -1.52103 -0.483413 0
M  V30 7066 C 669.717 -0.854752 -1.82473 0
M  V30 7067 O 668.773 -0.432342 -2.48771 0
M  V30 7068 C 670.086 -2.96872 -0.47825 0
M  V30 7069 C 671.634 -3.07902 -0.562592 0
M  V30 7070 C 672.109 -4.54211 -0.587929 0
M  V30 7071 N 673.6 -4.58621 -0.649684 0
M  V30 7072 C 674.335 -5.69227 -0.690551 0
M  V30 7073 N 673.831 -6.89358 -0.689743 0
M  V30 7074 N 675.624 -5.57304 -0.732708 0
M  V30 7075 H 667.775 -1.98764 0.748779 0
M  V30 7076 H 670.038 -0.907248 0.274965 0
M  V30 7077 H 669.744 -3.48944 0.439444 0
M  V30 7078 H 669.618 -3.53716 -1.31013 0
M  V30 7079 H 672.005 -2.5584 -1.47071 0
M  V30 7080 H 672.086 -2.54073 0.296764 0
M  V30 7081 H 671.73 -5.06915 0.316096 0
M  V30 7082 H 671.66 -5.0584 -1.46401 0
M  V30 7083 H 674.151 -3.72146 -0.656927 0
M  V30 7084 H 674.464 -7.69408 -0.723239 0
M  V30 7085 H 672.809 -6.91884 -0.657347 0
M  V30 7086 H 676 -4.62363 -0.730625 0
M  V30 7087 H 676.173 -6.43515 -0.76109 0
M  V30 7088 N 669.579 0.400081 -1.52437 0
M  V30 7089 C 670.99 0.97851 -1.59003 0
M  V30 7090 C 671.341 1.91293 -0.436068 0
M  V30 7091 O 670.466 2.1183 0.442365 0
M  V30 7092 C 671.061 1.78145 -2.88184 0
M  V30 7093 C 669.62 2.30976 -2.97199 0
M  V30 7094 C 668.767 1.11212 -2.54022 0
M  V30 7095 H 671.718 0.180002 -1.57676 0
M  V30 7096 H 671.739 2.63968 -2.74046 0
M  V30 7097 H 671.251 1.1011 -3.72152 0
M  V30 7098 H 669.352 3.02355 -2.17744 0
M  V30 7099 H 669.465 2.61221 -4.01622 0
M  V30 7100 H 667.829 1.46882 -2.08081 0
M  V30 7101 H 668.612 0.447307 -3.40373 0
M  V30 7102 N 671.057 1.43213 0.657864 0
M  V30 7103 C 672.005 1.48271 1.79216 0
M  V30 7104 C 672.999 0.35675 1.65601 0
M  V30 7105 O 674.205 0.530535 1.72004 0
M  V30 7106 H 670.58 0.464729 0.591211 0
M  V30 7107 H 672.551 2.43792 1.7207 0
M  V30 7108 C 671.3 1.41837 3.17455 0
M  V30 7109 H 670.623 2.27781 3.28567 0
M  V30 7110 H 672.063 1.49438 3.96793 0
M  V30 7111 C 670.522 0.135347 3.36628 0
M  V30 7112 O 671.052 -0.805199 3.93547 0
M  V30 7113 N 669.258 0.0470316 2.90562 0
M  V30 7114 H 668.805 0.813221 2.44427 0
M  V30 7115 H 668.763 -0.810737 3.03767 0
M  V30 7116 N 672.536 -0.895792 1.29666 0
M  V30 7117 C 673.785 -1.64131 1.17234 0
M  V30 7118 C 674.098 -1.93665 -0.274416 0
M  V30 7119 O 675.304 -2.66472 -0.520105 0
M  V30 7120 C 673.76 -2.95764 2.05065 0
M  V30 7121 C 673.368 -2.7381 3.54587 0
M  V30 7122 C 675.112 -3.737 2.01367 0
M  V30 7123 C 673.019 -4.01194 4.34508 0
M  V30 7124 H 671.949 -0.615742 0.435175 0
M  V30 7125 H 674.6 -0.992626 1.54335 0
M  V30 7126 H 672.982 -3.61867 1.60837 0
M  V30 7127 H 674.156 -2.16277 4.06892 0
M  V30 7128 H 672.471 -2.09265 3.59996 0
M  V30 7129 H 675.068 -4.68152 2.58337 0
M  V30 7130 H 675.411 -4.04245 0.994575 0
M  V30 7131 H 675.944 -3.14444 2.43659 0
M  V30 7132 H 672.683 -3.75813 5.37071 0
M  V30 7133 H 672.203 -4.58272 3.86971 0
M  V30 7134 H 673.882 -4.69307 4.45376 0
M  V30 7135 N 674.014 -1.12206 -1.10668 0
M  V30 7136 C 675.425 -0.890657 -1.64086 0
M  V30 7137 C 675.776 0.575502 -1.8757 0
M  V30 7138 O 674.901 1.4394 -1.61587 0
M  V30 7139 C 675.496 -1.61029 -2.98085 0
M  V30 7140 C 674.055 -1.4251 -3.48379 0
M  V30 7141 C 673.202 -1.64778 -2.23033 0
M  V30 7142 H 676.153 -1.27718 -0.94201 0
M  V30 7143 H 676.174 -1.05993 -3.65439 0
M  V30 7144 H 675.686 -2.67735 -2.80962 0
M  V30 7145 H 673.787 -0.380497 -3.70652 0
M  V30 7146 H 673.9 -2.17959 -4.26651 0
M  V30 7147 H 672.264 -1.07171 -2.31055 0
M  V30 7148 H 673.047 -2.72776 -2.08443 0
M  V30 7149 N 675.492 1.28418 -0.913599 0
M  V30 7150 C 676.44 2.29272 -0.392037 0
M  V30 7151 C 677.434 1.61344 0.516198 0
M  V30 7152 O 678.64 1.75557 0.39746 0
M  V30 7153 H 675.015 0.744178 -0.108178 0
M  V30 7154 H 676.986 2.70691 -1.25574 0
M  V30 7155 C 675.735 3.45905 0.352815 0
M  V30 7156 H 675.058 3.98378 -0.336848 0
M  V30 7157 H 676.498 4.18473 0.682398 0
M  V30 7158 C 674.957 2.98572 1.56065 0
M  V30 7159 O 675.487 3.01033 2.65974 0
M  V30 7160 N 673.693 2.54235 1.40759 0
M  V30 7161 H 673.24 2.52432 0.513403 0
M  V30 7162 H 673.198 2.22925 2.21702 0
M  V30 7163 N 676.97 0.677563 1.42291 0
M  V30 7164 C 678.216 0.209962 2.02313 0
M  V30 7165 C 678.571 -1.1714 1.52631 0
M  V30 7166 O 677.864 -1.7756 0.719938 0
M  V30 7167 C 678.058 0.187229 3.56909 0
M  V30 7168 C 677.887 1.56484 4.21595 0
M  V30 7169 C 676.657 2.16329 4.56651 0
M  V30 7170 C 678.855 2.50805 4.49 0
M  V30 7171 N 676.837 3.46842 5.06531 0
M  V30 7172 C 678.208 3.65976 5.00461 0
M  V30 7173 C 680.263 2.493 4.30992 0
M  V30 7174 C 678.966 4.79899 5.35807 0
M  V30 7175 C 680.992 3.62322 4.67415 0
M  V30 7176 C 680.354 4.76221 5.19031 0
M  V30 7177 H 676.453 0.121815 0.772454 0
M  V30 7178 H 679.037 0.891148 1.73109 0
M  V30 7179 H 677.208 -0.46338 3.85626 0
M  V30 7180 H 678.94 -0.293512 4.03634 0
M  V30 7181 H 675.695 1.6879 4.42501 0
M  V30 7182 H 676.119 4.13694 5.35898 0
M  V30 7183 H 680.761 1.62467 3.90339 0
M  V30 7184 H 678.479 5.67406 5.75392 0
M  V30 7185 H 682.065 3.62388 4.55155 0
M  V30 7186 H 680.945 5.62228 5.46689 0
M  V30 7187 N 678.448 -1.51871 0.421078 0
M  V30 7188 C 679.694 -2.02894 -0.143346 0
M  V30 7189 C 680.049 -1.30054 -1.41787 0
M  V30 7190 O 679.342 -0.401776 -1.8734 0
M  V30 7191 C 679.536 -3.54764 -0.433292 0
M  V30 7192 C 679.365 -4.42316 0.811584 0
M  V30 7193 C 678.135 -4.872 1.34033 0
M  V30 7194 C 680.333 -4.85631 1.69313 0
M  V30 7195 N 678.315 -5.58915 2.53944 0
M  V30 7196 C 679.686 -5.56248 2.7384 0
M  V30 7197 C 681.741 -4.67634 1.70947 0
M  V30 7198 C 680.444 -6.10777 3.79927 0
M  V30 7199 C 682.47 -5.23068 2.7596 0
M  V30 7200 C 681.832 -5.93617 3.79207 0
M  V30 7201 H 677.931 -0.78188 -0.0137104 0
M  V30 7202 H 680.515 -1.85919 0.578105 0
M  V30 7203 H 678.686 -3.71787 -1.12378 0
M  V30 7204 H 680.418 -3.92464 -0.987644 0
M  V30 7205 H 677.173 -4.65035 0.896606 0
M  V30 7206 H 677.597 -5.99408 3.14704 0
M  V30 7207 H 682.239 -4.12566 0.9246 0
M  V30 7208 H 679.957 -6.64909 4.59262 0
M  V30 7209 H 683.543 -5.11005 2.78147 0
M  V30 7210 H 682.423 -6.35743 4.5913 0
M  V30 7211 N 679.926 -0.151884 -1.56866 0
M  V30 7212 C 680.858 0.817008 -2.14144 0
M  V30 7213 C 681.871 1.20735 -1.0921 0
M  V30 7214 O 683.06 1.15058 -1.36469 0
M  V30 7215 C 680.16 2.10844 -2.65326 0
M  V30 7216 C 679.333 1.88471 -3.94712 0
M  V30 7217 C 678.392 3.01649 -4.31155 0
M  V30 7218 O 677.418 2.73127 -4.9939 0
M  V30 7219 N 678.62 4.28947 -3.91132 0
M  V30 7220 H 681.385 0.327448 -2.97906 0
M  V30 7221 H 678.946 0.0315313 -1.61869 0
M  V30 7222 H 680.938 2.85616 -2.86715 0
M  V30 7223 H 679.508 2.51049 -1.86262 0
M  V30 7224 H 678.728 0.977088 -3.81899 0
M  V30 7225 H 680.016 1.70866 -4.79252 0
M  V30 7226 H 679.414 4.54986 -3.36161 0
M  V30 7227 H 677.971 5.00484 -4.17563 0
M  V30 7228 N 681.404 1.57128 0.121893 0
M  V30 7229 C 682.629 1.89254 0.848385 0
M  V30 7230 C 683.054 0.743527 1.72781 0
M  V30 7231 O 682.412 -0.306056 1.78698 0
M  V30 7232 C 682.46 3.20113 1.66012 0
M  V30 7233 O 681.564 3.05815 2.76679 0
M  V30 7234 H 680.905 0.621103 0.234793 0
M  V30 7235 H 683.435 2.0433 0.10516 0
M  V30 7236 H 683.445 3.52761 2.04996 0
M  V30 7237 H 682.12 4.03336 1.01452 0
M  V30 7238 H 680.697 2.84627 2.40918 0
M  V30 7239 N 682.882 -0.391992 1.52647 0
M  V30 7240 C 684.112 -1.15692 1.71169 0
M  V30 7241 C 684.52 -1.84285 0.428444 0
M  V30 7242 O 683.863 -1.73393 -0.606669 0
M  V30 7243 C 683.925 -2.25033 2.80357 0
M  V30 7244 C 683.589 -1.76433 4.21569 0
M  V30 7245 C 684.586 -1.2427 5.0483 0
M  V30 7246 C 682.271 -1.82746 4.67877 0
M  V30 7247 C 684.265 -0.790657 6.32477 0
M  V30 7248 C 681.952 -1.37153 5.9551 0
M  V30 7249 C 682.95 -0.853997 6.7764 0
M  V30 7250 O 682.638 -0.404708 8.02881 0
M  V30 7251 H 682.37 -0.35297 0.576531 0
M  V30 7252 H 684.924 -0.464994 2.00067 0
M  V30 7253 H 683.154 -2.97641 2.46874 0
M  V30 7254 H 684.843 -2.86718 2.87311 0
M  V30 7255 H 685.609 -1.18752 4.70237 0
M  V30 7256 H 681.488 -2.21971 4.04042 0
M  V30 7257 H 685.032 -0.386024 6.96531 0
M  V30 7258 H 680.929 -1.42356 6.29607 0
M  V30 7259 H 681.697 -0.526459 8.16805 0
M  V30 7260 N 684.36 -1.4356 -0.65026 0
M  V30 7261 C 685.27 -1.514 -1.79207 0
M  V30 7262 C 686.286 -0.400895 -1.69319 0
M  V30 7263 O 687.462 -0.655458 -1.90436 0
M  V30 7264 C 684.527 -1.43737 -3.155 0
M  V30 7265 C 683.588 -2.65743 -3.37163 0
M  V30 7266 C 682.821 -2.58436 -4.66954 0
M  V30 7267 O 683.044 -1.63374 -5.46503 0
M  V30 7268 O 681.978 -3.48984 -4.90402 0
M  V30 7269 H 685.804 -2.47825 -1.75547 0
M  V30 7270 H 683.389 -1.25594 -0.809111 0
M  V30 7271 H 685.271 -1.41916 -3.96784 0
M  V30 7272 H 683.946 -0.504488 -3.19745 0
M  V30 7273 H 682.853 -2.73136 -2.55632 0
M  V30 7274 H 684.186 -3.58014 -3.37768 0
M  V30 7275 N 685.838 0.888903 -1.30139 0
M  V30 7276 C 686.801 1.97576 -1.16174 0
M  V30 7277 C 687.801 1.60525 -0.094086 0
M  V30 7278 O 688.991 1.70812 -0.341889 0
M  V30 7279 C 686.123 3.3188 -0.778983 0
M  V30 7280 H 687.316 2.11393 -2.12728 0
M  V30 7281 H 684.869 1.0748 -1.1348 0
M  V30 7282 H 685.604 3.23765 0.186225 0
M  V30 7283 H 685.389 3.60141 -1.55051 0
M  V30 7284 H 686.879 4.11612 -0.704631 0
M  V30 7285 N 687.317 1.12792 1.10072 0
M  V30 7286 C 688.247 0.821688 2.18565 0
M  V30 7287 C 689.228 -0.21612 1.68721 0
M  V30 7288 O 690.413 -0.0764932 1.94049 0
M  V30 7289 C 687.543 0.279624 3.46172 0
M  V30 7290 C 686.497 1.25092 4.09312 0
M  V30 7291 C 685.823 0.568916 5.31665 0
M  V30 7292 C 687.123 2.60699 4.52585 0
M  V30 7293 H 688.817 1.72888 2.44438 0
M  V30 7294 H 686.363 0.832702 1.17482 0
M  V30 7295 H 688.316 0.053099 4.21367 0
M  V30 7296 H 687.04 -0.662929 3.19801 0
M  V30 7297 H 685.699 1.46332 3.36129 0
M  V30 7298 H 685.347 -0.378898 5.01571 0
M  V30 7299 H 685.047 1.21687 5.74862 0
M  V30 7300 H 686.571 0.351517 6.09587 0
M  V30 7301 H 687.985 2.43465 5.19035 0
M  V30 7302 H 686.382 3.21608 5.06644 0
M  V30 7303 H 687.452 3.1886 3.65317 0
M  V30 7304 N 688.795 -1.27931 0.920396 0
M  V30 7305 C 690.211 -1.47085 0.619537 0
M  V30 7306 C 690.411 -1.83463 -0.833291 0
M  V30 7307 O 689.467 -1.94363 -1.61181 0
M  V30 7308 C 690.78 -2.56878 1.56314 0
M  V30 7309 C 692.328 -2.70743 1.57058 0
M  V30 7310 C 692.803 -3.83687 2.50097 0
M  V30 7311 N 694.294 -3.9105 2.48262 0
M  V30 7312 C 695.029 -4.77842 3.16945 0
M  V30 7313 N 694.525 -5.69176 3.94982 0
M  V30 7314 N 696.318 -4.71509 3.06 0
M  V30 7315 H 688.469 -1.02601 1.85975 0
M  V30 7316 H 690.732 -0.511682 0.798051 0
M  V30 7317 H 690.438 -2.36923 2.59923 0
M  V30 7318 H 690.312 -3.54117 1.29928 0
M  V30 7319 H 692.699 -2.90083 0.541832 0
M  V30 7320 H 692.78 -1.74015 1.8749 0
M  V30 7321 H 692.424 -3.65101 3.53077 0
M  V30 7322 H 692.354 -4.79827 2.16964 0
M  V30 7323 H 694.845 -3.25738 1.91581 0
M  V30 7324 H 695.158 -6.32245 4.44394 0
M  V30 7325 H 693.503 -5.68995 3.99086 0
M  V30 7326 H 696.694 -3.99151 2.44533 0
M  V30 7327 H 696.867 -5.38933 3.59799 0
M  V30 7328 N 690.273 -0.685099 -1.4193 0
M  V30 7329 C 691.519 -0.211971 -2.01689 0
M  V30 7330 C 691.852 1.18189 -1.54094 0
M  V30 7331 O 691.127 1.79559 -0.747572 0
M  V30 7332 C 691.41 -0.258019 -3.59174 0
M  V30 7333 C 691.263 -1.68807 -4.16922 0
M  V30 7334 C 692.582 0.388044 -4.38386 0
M  V30 7335 H 689.701 -0.0784987 -0.732808 0
M  V30 7336 H 692.343 -0.871837 -1.68816 0
M  V30 7337 H 690.493 0.303832 -3.8731 0
M  V30 7338 H 692.165 -2.30296 -3.99702 0
M  V30 7339 H 690.408 -2.22553 -3.72361 0
M  V30 7340 H 691.079 -1.6719 -5.26072 0
M  V30 7341 H 693.555 -0.0903432 -4.16002 0
M  V30 7342 H 692.431 0.325232 -5.47936 0
M  V30 7343 H 692.692 1.4672 -4.17044 0
M  V30 7344 N 691.751 1.51645 -0.429126 0
M  V30 7345 C 692.684 2.24083 0.431492 0
M  V30 7346 C 693.662 1.25691 1.03153 0
M  V30 7347 O 694.846 1.54802 1.07557 0
M  V30 7348 C 691.973 2.9849 1.60067 0
M  V30 7349 C 691.019 4.11474 1.12211 0
M  V30 7350 S 691.852 5.35453 0.0708449 0
M  V30 7351 C 693.008 6.13395 1.24488 0
M  V30 7352 H 693.241 2.96733 -0.183525 0
M  V30 7353 H 690.774 1.52916 -0.213574 0
M  V30 7354 H 692.732 3.4196 2.27099 0
M  V30 7355 H 691.393 2.25445 2.18708 0
M  V30 7356 H 690.586 4.62784 1.99618 0
M  V30 7357 H 690.188 3.70223 0.530149 0
M  V30 7358 H 692.48 6.41984 2.16479 0
M  V30 7359 H 693.423 7.0388 0.771921 0
M  V30 7360 H 693.831 5.44761 1.47973 0
M  V30 7361 N 693.229 0.160201 1.56784 0
M  V30 7362 C 694.477 -0.486625 1.96154 0
M  V30 7363 C 694.798 -1.64525 1.04673 0
M  V30 7364 O 694.068 -1.95586 0.110864 0
M  V30 7365 H 692.648 -0.182764 0.724297 0
M  V30 7366 H 695.31 0.238787 1.93432 0
M  V30 7367 H 694.406 -0.854025 3.00188 0
M  V30 7368 N 694.707 -1.5719 -0.113559 0
M  V30 7369 C 695.654 -2.00736 -1.13901 0
M  V30 7370 C 696.624 -0.88044 -1.40846 0
M  V30 7371 O 697.809 -1.14507 -1.5262 0
M  V30 7372 C 694.949 -2.42132 -2.45899 0
M  V30 7373 C 694.062 -3.68264 -2.25844 0
M  V30 7374 C 693.197 -3.98617 -3.5111 0
M  V30 7375 C 692.236 -5.17915 -3.26236 0
M  V30 7376 N 691.373 -5.44111 -4.4372 0
M  V30 7377 H 696.213 -2.88128 -0.760677 0
M  V30 7378 H 693.75 -1.42523 -0.364099 0
M  V30 7379 H 695.708 -2.6417 -3.22908 0
M  V30 7380 H 694.338 -1.57775 -2.81615 0
M  V30 7381 H 693.39 -3.53809 -1.39726 0
M  V30 7382 H 694.702 -4.55425 -2.03444 0
M  V30 7383 H 693.856 -4.21333 -4.36536 0
M  V30 7384 H 692.595 -3.09942 -3.76546 0
M  V30 7385 H 691.6 -4.95038 -2.39202 0
M  V30 7386 H 692.825 -6.08172 -3.02165 0
M  V30 7387 H 690.771 -4.58394 -4.69266 0
M  V30 7388 H 690.688 -6.25606 -4.24444 0
M  V30 7389 H 691.956 -5.71351 -5.30263 0
M  V30 7390 N 696.185 0.383891 -1.52853 0
M  V30 7391 C 697.118 1.49105 -1.72751 0
M  V30 7392 C 698.096 1.52077 -0.575438 0
M  V30 7393 O 699.28 1.70406 -0.805854 0
M  V30 7394 C 696.407 2.87551 -1.78975 0
M  V30 7395 C 695.453 3.02383 -3.00777 0
M  V30 7396 S 696.286 2.73048 -4.60657 0
M  V30 7397 C 697.442 4.13678 -4.69704 0
M  V30 7398 H 697.675 1.32002 -2.66388 0
M  V30 7399 H 695.208 0.577088 -1.4321 0
M  V30 7400 H 697.166 3.6733 -1.83246 0
M  V30 7401 H 695.827 3.01977 -0.864215 0
M  V30 7402 H 695.02 4.03733 -3.01688 0
M  V30 7403 H 694.622 2.30504 -2.94523 0
M  V30 7404 H 696.914 5.07676 -4.48633 0
M  V30 7405 H 697.857 4.1778 -5.71721 0
M  V30 7406 H 698.265 3.99825 -3.98497 0
M  V30 7407 N 697.663 1.43903 0.642637 0
M  V30 7408 C 698.596 1.44339 1.76753 0
M  V30 7409 C 699.574 0.303558 1.59741 0
M  V30 7410 O 700.758 0.498775 1.81781 0
M  V30 7411 C 697.885 1.26508 3.14187 0
M  V30 7412 C 696.931 2.43905 3.49875 0
M  V30 7413 S 697.764 4.0645 3.48653 0
M  V30 7414 C 698.92 3.91021 4.88726 0
M  V30 7415 H 699.153 2.39523 1.76113 0
M  V30 7416 H 696.686 1.31061 0.81623 0
M  V30 7417 H 698.644 1.16908 3.93501 0
M  V30 7418 H 697.305 0.328548 3.12377 0
M  V30 7419 H 696.498 2.27262 4.49853 0
M  V30 7420 H 696.1 2.50186 2.77998 0
M  V30 7421 H 698.392 3.54 5.77659 0
M  V30 7422 H 699.335 4.9079 5.10423 0
M  V30 7423 H 699.743 3.23287 4.62759 0
M  V30 7424 N 699.141 -0.881989 1.30609 0
M  V30 7425 C 700.557 -1.16576 1.09005 0
M  V30 7426 C 700.757 -2.00961 -0.14727 0
M  V30 7427 O 699.813 -2.38117 -0.840036 0
M  V30 7428 C 701.126 -1.86954 2.35518 0
M  V30 7429 C 702.674 -1.99706 2.41011 0
M  V30 7430 C 703.149 -2.73497 3.67374 0
M  V30 7431 N 704.64 -2.8104 3.68199 0
M  V30 7432 C 705.375 -3.38718 4.62664 0
M  V30 7433 N 704.871 -3.97421 5.67475 0
M  V30 7434 N 706.664 -3.36561 4.50203 0
M  V30 7435 H 698.815 -0.319398 2.09985 0
M  V30 7436 H 701.078 -0.204058 0.925778 0
M  V30 7437 H 700.784 -1.32393 3.2583 0
M  V30 7438 H 700.658 -2.87317 2.44395 0
M  V30 7439 H 703.045 -2.53436 1.51176 0
M  V30 7440 H 703.126 -0.984218 2.36108 0
M  V30 7441 H 702.77 -2.20438 4.57569 0
M  V30 7442 H 702.7 -3.75163 3.6954 0
M  V30 7443 H 705.191 -2.39365 2.92426 0
M  V30 7444 H 705.504 -4.39507 6.35652 0
M  V30 7445 H 703.849 -3.95832 5.71264 0
M  V30 7446 H 707.04 -2.8993 3.67503 0
M  V30 7447 H 707.213 -3.81215 5.24003 0
M  V30 7448 N 700.619 -1.13374 -1.09472 0
M  V30 7449 C 701.529 -0.824029 -2.19652 0
M  V30 7450 C 702.545 0.19118 -1.72947 0
M  V30 7451 O 703.721 0.0223464 -2.01388 0
M  V30 7452 C 700.786 -0.294009 -3.45451 0
M  V30 7453 C 699.847 -1.3704 -4.0684 0
M  V30 7454 C 699.08 -0.86558 -5.26634 0
M  V30 7455 O 699.303 0.29702 -5.69626 0
M  V30 7456 O 698.237 -1.63968 -5.79136 0
M  V30 7457 H 702.063 -1.74454 -2.48595 0
M  V30 7458 H 699.648 -0.911155 -1.18399 0
M  V30 7459 H 701.53 -0.00381039 -4.214 0
M  V30 7460 H 700.205 0.598921 -3.18111 0
M  V30 7461 H 699.112 -1.71391 -3.3253 0
M  V30 7462 H 700.445 -2.23746 -4.38405 0
M  V30 7463 N 702.098 1.27442 -0.927168 0
M  V30 7464 C 703.338 1.96157 -0.574608 0
M  V30 7465 C 703.702 1.71265 0.867897 0
M  V30 7466 O 704.903 2.33664 1.3287 0
M  V30 7467 C 703.174 3.46115 -0.891009 0
M  V30 7468 S 704.733 4.34006 -0.646885 0
M  V30 7469 H 701.551 0.678619 -0.212125 0
M  V30 7470 H 704.153 1.54688 -1.19549 0
M  V30 7471 H 702.857 3.6173 -1.93854 0
M  V30 7472 H 702.388 3.92545 -0.259301 0
M  V30 7473 H 704.403 4.93719 0.495568 0
M  V30 7474 N 703.576 0.692616 1.41565 0
M  V30 7475 C 704.822 0.231408 2.02079 0
M  V30 7476 C 705.177 -1.15514 1.53864 0
M  V30 7477 O 704.47 -1.76786 0.73873 0
M  V30 7478 C 704.664 0.225073 3.56691 0
M  V30 7479 C 704.493 1.60947 4.19912 0
M  V30 7480 C 703.263 2.2116 4.54331 0
M  V30 7481 C 705.461 2.55553 4.46315 0
M  V30 7482 N 703.443 3.52195 5.02824 0
M  V30 7483 C 704.814 3.71263 4.96552 0
M  V30 7484 C 706.869 2.53857 4.28323 0
M  V30 7485 C 705.572 4.85555 5.30687 0
M  V30 7486 C 707.598 3.67259 4.63546 0
M  V30 7487 C 706.96 4.81699 5.13951 0
M  V30 7488 H 703.059 0.130001 0.771119 0
M  V30 7489 H 705.643 0.909459 1.72154 0
M  V30 7490 H 703.814 -0.422453 3.86096 0
M  V30 7491 H 705.546 -0.250685 4.03923 0
M  V30 7492 H 702.301 1.73474 4.40685 0
M  V30 7493 H 702.725 4.19354 5.3148 0
M  V30 7494 H 707.367 1.66598 3.88594 0
M  V30 7495 H 705.085 5.73477 5.69341 0
M  V30 7496 H 708.671 3.67195 4.51286 0
M  V30 7497 H 707.551 5.67995 5.40695 0
M  V30 7498 N 705.054 -1.51416 0.437162 0
M  V30 7499 C 706.284 -2.06204 -0.127859 0
M  V30 7500 C 706.692 -1.30463 -1.37026 0
M  V30 7501 O 706.035 -0.357516 -1.80187 0
M  V30 7502 C 706.097 -3.55783 -0.515632 0
M  V30 7503 C 705.761 -4.52776 0.619937 0
M  V30 7504 C 706.758 -4.98031 1.49201 0
M  V30 7505 C 704.443 -4.95878 0.800618 0
M  V30 7506 C 706.437 -5.85061 2.52947 0
M  V30 7507 C 704.124 -5.82699 1.84135 0
M  V30 7508 C 705.122 -6.27188 2.70416 0
M  V30 7509 O 704.81 -7.12284 3.72702 0
M  V30 7510 H 704.542 -0.675903 -0.011442 0
M  V30 7511 H 707.096 -1.95977 0.614986 0
M  V30 7512 H 705.326 -3.63793 -1.31118 0
M  V30 7513 H 707.015 -3.93087 -1.01179 0
M  V30 7514 H 707.781 -4.65426 1.36395 0
M  V30 7515 H 703.66 -4.60792 0.138617 0
M  V30 7516 H 707.204 -6.19708 3.20325 0
M  V30 7517 H 703.101 -6.14717 1.9696 0
M  V30 7518 H 703.869 -7.30462 3.69281 0
M  V30 7519 N 706.532 -0.168513 -1.56696 0
M  V30 7520 C 707.495 0.748928 -2.16619 0
M  V30 7521 C 708.495 1.16007 -1.11351 0
M  V30 7522 O 709.685 1.07748 -1.3688 0
M  V30 7523 C 706.817 2.01904 -2.74677 0
M  V30 7524 H 708.01 0.227317 -2.99037 0
M  V30 7525 H 705.563 0.0810372 -1.5609 0
M  V30 7526 H 706.298 2.58381 -1.95985 0
M  V30 7527 H 706.083 1.73323 -3.51712 0
M  V30 7528 H 707.573 2.67383 -3.20774 0
M  V30 7529 N 708.01 1.57248 0.105221 0
M  V30 7530 C 708.958 2.02337 1.14728 0
M  V30 7531 C 709.952 0.922652 1.42069 0
M  V30 7532 O 711.158 1.10785 1.41869 0
M  V30 7533 H 707.533 0.644682 0.387155 0
M  V30 7534 H 709.504 2.89063 0.740607 0
M  V30 7535 C 708.253 2.45513 2.46209 0
M  V30 7536 H 707.576 3.29785 2.26013 0
M  V30 7537 H 709.016 2.80846 3.1765 0
M  V30 7538 C 707.475 1.3243 3.09781 0
M  V30 7539 O 708.005 0.647841 3.96442 0
M  V30 7540 N 706.211 1.07785 2.69872 0
M  V30 7541 H 705.758 1.62973 1.99493 0
M  V30 7542 H 705.716 0.323204 3.12734 0
M  V30 7543 N 709.488 -0.375779 1.53054 0
M  V30 7544 C 710.736 -1.11727 1.68409 0
M  V30 7545 C 711.057 -1.90127 0.43323 0
M  V30 7546 O 710.327 -1.87945 -0.552595 0
M  V30 7547 H 708.907 -0.415451 0.620813 0
M  V30 7548 H 711.569 -0.424869 1.90213 0
M  V30 7549 H 710.665 -1.8128 2.54055 0
M  V30 7550 N 710.966 -1.44241 -0.634997 0
M  V30 7551 C 711.929 -1.50457 -1.72903 0
M  V30 7552 C 712.929 -0.387058 -1.56072 0
M  V30 7553 O 714.119 -0.649531 -1.61638 0
M  V30 7554 C 711.251 -1.37477 -3.1195 0
M  V30 7555 H 712.444 -2.47907 -1.68767 0
M  V30 7556 H 709.997 -1.31276 -0.84831 0
M  V30 7557 H 710.732 -0.41106 -3.21684 0
M  V30 7558 H 710.517 -2.18506 -3.25573 0
M  V30 7559 H 712.007 -1.44799 -3.91692 0
M  V30 7560 N 712.444 0.87505 -1.31075 0
M  V30 7561 C 713.407 1.96333 -1.18263 0
M  V30 7562 C 714.407 1.60416 -0.111106 0
M  V30 7563 O 715.597 1.7044 -0.359987 0
M  V30 7564 C 712.729 3.31036 -0.81414 0
M  V30 7565 H 713.922 2.09125 -2.14958 0
M  V30 7566 H 711.475 1.06271 -1.14614 0
M  V30 7567 H 712.21 3.23944 0.151875 0
M  V30 7568 H 711.995 3.58476 -1.58862 0
M  V30 7569 H 713.485 4.10842 -0.748249 0
M  V30 7570 N 713.922 1.13953 1.08869 0
M  V30 7571 C 715.338 0.878924 1.33218 0
M  V30 7572 C 715.538 -0.482478 1.95638 0
M  V30 7573 O 714.594 -1.22778 2.2064 0
M  V30 7574 C 715.907 2.00798 2.23832 0
M  V30 7575 C 717.455 2.04073 2.37325 0
M  V30 7576 C 717.93 3.16258 3.31278 0
M  V30 7577 N 719.421 3.15805 3.38853 0
M  V30 7578 C 720.156 3.99249 4.11567 0
M  V30 7579 N 719.652 4.92721 4.87029 0
M  V30 7580 N 721.445 3.87327 4.0735 0
M  V30 7581 H 713.596 2.01645 0.66731 0
M  V30 7582 H 715.859 0.878395 0.356547 0
M  V30 7583 H 715.565 2.98986 1.85203 0
M  V30 7584 H 715.439 1.92704 3.24261 0
M  V30 7585 H 717.826 1.06495 2.75214 0
M  V30 7586 H 717.907 2.16239 1.36654 0
M  V30 7587 H 717.551 4.14079 2.9411 0
M  V30 7588 H 717.481 3.0133 4.31866 0
M  V30 7589 H 719.972 2.48102 2.8505 0
M  V30 7590 H 720.285 5.52867 5.39961 0
M  V30 7591 H 718.63 4.96723 4.86098 0
M  V30 7592 H 721.821 3.13627 3.475 0
M  V30 7593 H 721.994 4.52585 4.63757 0
M  V30 7594 N 715.4 -1.26948 0.933913 0
M  V30 7595 C 716.33 -2.29017 0.45534 0
M  V30 7596 C 717.311 -1.62961 -0.487605 0
M  V30 7597 O 718.496 -1.90223 -0.391022 0
M  V30 7598 C 715.626 -3.46112 -0.287015 0
M  V30 7599 C 714.58 -4.24205 0.568682 0
M  V30 7600 C 713.906 -5.3384 -0.303206 0
M  V30 7601 C 715.206 -4.88954 1.83633 0
M  V30 7602 H 716.9 -2.69298 1.30839 0
M  V30 7603 H 714.446 -1.29459 0.630579 0
M  V30 7604 H 716.399 -4.16622 -0.6328 0
M  V30 7605 H 715.123 -3.04765 -1.17414 0
M  V30 7606 H 713.782 -3.5545 0.897261 0
M  V30 7607 H 713.43 -4.88734 -1.18947 0
M  V30 7608 H 713.13 -5.86998 0.265879 0
M  V30 7609 H 714.654 -6.0719 -0.644423 0
M  V30 7610 H 716.068 -5.51717 1.55823 0
M  V30 7611 H 714.465 -5.52198 2.34941 0
M  V30 7612 H 715.535 -4.12305 2.55211 0
M  V30 7613 N 716.879 -0.700114 -1.41195 0
M  V30 7614 C 718.107 -0.242179 -2.05478 0
M  V30 7615 C 718.522 1.11029 -1.52702 0
M  V30 7616 O 717.879 1.69473 -0.677127 0
M  V30 7617 C 717.93 -0.196271 -3.60967 0
M  V30 7618 O 717.651 -1.49532 -4.11791 0
M  V30 7619 C 719.152 0.282102 -4.42401 0
M  V30 7620 H 716.372 -0.111749 -0.661629 0
M  V30 7621 H 718.916 -0.953975 -1.80885 0
M  V30 7622 H 717.071 0.46638 -3.84582 0
M  V30 7623 H 717.485 -1.38545 -5.05871 0
M  V30 7624 H 718.959 0.263093 -5.51373 0
M  V30 7625 H 719.436 1.32174 -4.1884 0
M  V30 7626 H 720.042 -0.349712 -4.2386 0
M  V30 7627 N 718.357 1.51182 -0.445186 0
M  V30 7628 C 719.32 2.26501 0.350722 0
M  V30 7629 C 720.32 1.3025 0.942952 0
M  V30 7630 O 721.51 1.53897 0.816175 0
M  V30 7631 C 718.642 3.06274 1.49697 0
M  V30 7632 H 719.835 2.98299 -0.309474 0
M  V30 7633 H 717.388 1.55034 -0.198551 0
M  V30 7634 H 718.123 2.38911 2.19299 0
M  V30 7635 H 717.908 3.76979 1.0784 0
M  V30 7636 H 719.398 3.63306 2.05909 0
M  V30 7637 N 719.835 0.176821 1.56605 0
M  V30 7638 C 720.765 -0.746841 2.21234 0
M  V30 7639 C 721.746 -1.23502 1.16967 0
M  V30 7640 O 722.931 -1.28718 1.45414 0
M  V30 7641 C 720.061 -1.97407 2.8574 0
M  V30 7642 C 719.015 -1.62153 3.96094 0
M  V30 7643 C 718.341 -2.92387 4.47676 0
M  V30 7644 C 719.641 -0.845353 5.15413 0
M  V30 7645 H 721.335 -0.208116 2.98676 0
M  V30 7646 H 718.881 -0.0986594 1.43662 0
M  V30 7647 H 720.834 -2.62531 3.2963 0
M  V30 7648 H 719.558 -2.53703 2.05676 0
M  V30 7649 H 718.217 -0.993964 3.52868 0
M  V30 7650 H 717.865 -3.46734 3.64396 0
M  V30 7651 H 717.565 -2.69551 5.22127 0
M  V30 7652 H 719.089 -3.5853 4.94255 0
M  V30 7653 H 720.503 -1.39929 5.55961 0
M  V30 7654 H 718.9 -0.715814 5.95815 0
M  V30 7655 H 719.97 0.157239 4.84645 0
M  V30 7656 N 721.313 -1.57302 -0.09688 0
M  V30 7657 C 722.729 -1.53094 -0.451041 0
M  V30 7658 C 722.929 -0.893265 -1.80618 0
M  V30 7659 O 721.985 -0.485013 -2.47798 0
M  V30 7660 C 723.298 -2.9782 -0.415172 0
M  V30 7661 C 724.846 -3.09026 -0.497155 0
M  V30 7662 C 725.321 -4.55356 -0.491452 0
M  V30 7663 N 726.812 -4.59896 -0.552258 0
M  V30 7664 C 727.547 -5.70563 -0.569654 0
M  V30 7665 N 727.043 -6.90666 -0.543365 0
M  V30 7666 N 728.836 -5.58733 -0.614331 0
M  V30 7667 H 720.987 -1.97131 0.790771 0
M  V30 7668 H 723.25 -0.901211 0.294147 0
M  V30 7669 H 722.956 -3.47933 0.513362 0
M  V30 7670 H 722.83 -3.56416 -1.23481 0
M  V30 7671 H 725.217 -2.58902 -1.41611 0
M  V30 7672 H 725.298 -2.53386 0.35059 0
M  V30 7673 H 724.942 -5.06131 0.423549 0
M  V30 7674 H 724.872 -5.08832 -1.35639 0
M  V30 7675 H 727.363 -3.73456 -0.577842 0
M  V30 7676 H 727.676 -7.70769 -0.559873 0
M  V30 7677 H 726.021 -6.93123 -0.510441 0
M  V30 7678 H 729.212 -4.63809 -0.632387 0
M  V30 7679 H 729.385 -6.44984 -0.62442 0
M  V30 7680 N 722.791 0.367657 -1.53252 0
M  V30 7681 C 724.04 1.10782 -1.68554 0
M  V30 7682 C 724.353 1.90523 -0.442765 0
M  V30 7683 O 725.559 2.6729 -0.47629 0
M  V30 7684 C 724.015 2.01863 -2.97959 0
M  V30 7685 C 723.623 1.27443 -4.29491 0
M  V30 7686 C 725.367 2.75883 -3.22628 0
M  V30 7687 C 723.274 2.17414 -5.49987 0
M  V30 7688 H 722.204 0.417272 -0.628013 0
M  V30 7689 H 724.855 0.368971 -1.79752 0
M  V30 7690 H 723.237 2.7947 -2.80558 0
M  V30 7691 H 724.411 0.549138 -4.57516 0
M  V30 7692 H 722.726 0.652935 -4.11249 0
M  V30 7693 H 725.323 3.43421 -4.09837 0
M  V30 7694 H 725.666 3.41138 -2.38601 0
M  V30 7695 H 726.199 2.0536 -3.40693 0
M  V30 7696 H 722.938 1.5674 -6.36485 0
M  V30 7697 H 722.458 2.87799 -5.26243 0
M  V30 7698 H 724.137 2.77019 -5.84696 0
M  V30 7699 N 724.269 1.44576 0.627338 0
M  V30 7700 C 725.216 1.51734 1.73912 0
M  V30 7701 C 726.186 0.364745 1.62046 0
M  V30 7702 O 727.371 0.575503 1.81914 0
M  V30 7703 C 724.511 1.47116 3.12171 0
M  V30 7704 C 723.624 2.72778 3.34986 0
M  V30 7705 C 722.759 2.59968 4.63239 0
M  V30 7706 C 721.798 3.80776 4.79245 0
M  V30 7707 N 720.935 3.66618 5.98778 0
M  V30 7708 H 725.775 2.46722 1.6713 0
M  V30 7709 H 723.312 1.22444 0.815224 0
M  V30 7710 H 725.27 1.42429 3.92135 0
M  V30 7711 H 723.9 0.556928 3.17959 0
M  V30 7712 H 722.952 2.87637 2.48936 0
M  V30 7713 H 724.264 3.62441 3.42692 0
M  V30 7714 H 723.418 2.53135 5.51369 0
M  V30 7715 H 722.157 1.67872 4.57898 0
M  V30 7716 H 721.162 3.87989 3.89544 0
M  V30 7717 H 722.387 4.73913 4.86398 0
M  V30 7718 H 720.333 2.77277 5.9452 0
M  V30 7719 H 720.25 4.499 6.07557 0
M  V30 7720 H 721.518 3.63684 6.89459 0
M  V30 7721 N 725.747 -0.868086 1.31537 0
M  V30 7722 C 726.694 -1.97548 1.19346 0
M  V30 7723 C 727.664 -1.65913 0.0787922 0
M  V30 7724 O 728.849 -1.89129 0.251985 0
M  V30 7725 C 725.989 -3.32922 0.908692 0
M  V30 7726 C 725.102 -3.77141 2.10687 0
M  V30 7727 C 724.237 -5.01241 1.75873 0
M  V30 7728 C 723.276 -5.37914 2.92088 0
M  V30 7729 N 722.413 -6.53192 2.57457 0
M  V30 7730 H 727.253 -2.07307 2.14074 0
M  V30 7731 H 724.79 -1.01483 1.06487 0
M  V30 7732 H 726.748 -4.10867 0.724138 0
M  V30 7733 H 725.378 -3.228 -0.0017611 0
M  V30 7734 H 724.43 -2.94961 2.40213 0
M  V30 7735 H 725.742 -4.00248 2.97663 0
M  V30 7736 H 724.896 -5.86858 1.53891 0
M  V30 7737 H 723.635 -4.80041 0.86091 0
M  V30 7738 H 722.64 -4.50814 3.14717 0
M  V30 7739 H 723.865 -5.61077 3.82582 0
M  V30 7740 H 721.811 -6.33536 1.702 0
M  V30 7741 H 721.728 -6.76252 3.37963 0
M  V30 7742 H 722.996 -7.41997 2.38873 0
M  V30 7743 N 727.225 -1.14528 -1.08264 0
M  V30 7744 C 728.453 -0.937964 -1.84418 0
M  V30 7745 C 728.868 0.51357 -1.81681 0
M  V30 7746 O 728.225 1.35591 -1.22153 0
M  V30 7747 C 728.276 -1.43272 -3.31897 0
M  V30 7748 O 727.997 -2.82738 -3.34651 0
M  V30 7749 C 729.498 -1.26555 -4.24851 0
M  V30 7750 H 726.718 -0.333704 -0.582136 0
M  V30 7751 H 729.262 -1.52076 -1.36723 0
M  V30 7752 H 727.417 -0.892653 -3.76975 0
M  V30 7753 H 727.831 -3.04971 -4.26724 0
M  V30 7754 H 729.305 -1.66031 -5.26439 0
M  V30 7755 H 729.782 -0.208589 -4.38704 0
M  V30 7756 H 730.388 -1.79423 -3.856 0
M  V30 7757 N 728.703 1.26451 -0.940633 0
M  V30 7758 C 729.633 2.28773 -0.467479 0
M  V30 7759 C 730.614 1.63218 0.478955 0
M  V30 7760 O 731.799 1.90427 0.380929 0
M  V30 7761 C 728.929 3.46259 0.268656 0
M  V30 7762 C 727.883 4.23898 -0.591171 0
M  V30 7763 C 727.209 5.33993 0.274891 0
M  V30 7764 C 728.509 4.87974 -1.86223 0
M  V30 7765 H 730.203 2.68601 -1.32265 0
M  V30 7766 H 727.749 1.29123 -0.637436 0
M  V30 7767 H 729.702 4.16951 0.610696 0
M  V30 7768 H 728.426 3.05383 1.15796 0
M  V30 7769 H 727.085 3.54969 -0.916098 0
M  V30 7770 H 726.733 4.89358 1.16353 0
M  V30 7771 H 726.433 5.86849 -0.297006 0
M  V30 7772 H 727.957 6.07523 0.612213 0
M  V30 7773 H 729.371 5.50883 -1.58747 0
M  V30 7774 H 727.768 5.50945 -2.37866 0
M  V30 7775 H 728.838 4.10945 -2.57394 0
M  V30 7776 N 730.181 0.707592 1.40822 0
M  V30 7777 C 731.406 0.251626 2.05868 0
M  V30 7778 C 731.831 -1.09503 1.5294 0
M  V30 7779 O 731.189 -1.68806 0.661385 0
M  V30 7780 C 731.237 0.23287 3.59847 0
M  V30 7781 O 730.341 -0.788477 4.04792 0
M  V30 7782 H 729.682 0.119936 0.653078 0
M  V30 7783 H 732.212 0.96583 1.80369 0
M  V30 7784 H 732.222 0.0678204 4.07944 0
M  V30 7785 H 730.897 1.21565 3.97737 0
M  V30 7786 H 729.474 -0.591802 3.68174 0
M  V30 7787 N 731.66 -1.50943 0.453197 0
M  V30 7788 C 732.592 -2.25922 -0.38623 0
M  V30 7789 C 733.605 -1.3055 -0.972652 0
M  V30 7790 O 734.794 -1.56191 -0.864097 0
M  V30 7791 C 731.894 -3.01176 -1.5539 0
M  V30 7792 C 731.067 -4.23768 -1.0835 0
M  V30 7793 C 730.126 -4.81466 -2.12313 0
M  V30 7794 O 729.152 -5.42875 -1.71101 0
M  V30 7795 N 730.354 -4.66889 -3.44956 0
M  V30 7796 H 733.119 -2.98601 0.256468 0
M  V30 7797 H 730.68 -1.59408 0.282965 0
M  V30 7798 H 732.672 -3.36659 -2.24594 0
M  V30 7799 H 731.242 -2.31409 -2.10163 0
M  V30 7800 H 730.462 -3.93597 -0.217961 0
M  V30 7801 H 731.75 -5.03289 -0.746857 0
M  V30 7802 H 731.148 -4.18011 -3.81161 0
M  V30 7803 H 729.705 -5.06691 -4.1001 0
M  V30 7804 N 733.138 -0.185124 -1.56509 0
M  V30 7805 C 734.068 0.735098 -2.21627 0
M  V30 7806 C 735.049 1.2288 -1.1762 0
M  V30 7807 O 736.234 1.27945 -1.46095 0
M  V30 7808 C 733.364 1.95889 -2.86783 0
M  V30 7809 C 732.318 1.6005 -3.96948 0
M  V30 7810 C 731.644 2.90009 -4.4922 0
M  V30 7811 C 732.944 0.818008 -5.15855 0
M  V30 7812 H 734.638 0.192274 -2.98782 0
M  V30 7813 H 732.184 0.0910393 -1.43712 0
M  V30 7814 H 734.137 2.60779 -3.31017 0
M  V30 7815 H 732.861 2.52608 -2.07018 0
M  V30 7816 H 731.52 0.975237 -3.5339 0
M  V30 7817 H 731.168 3.44797 -3.6623 0
M  V30 7818 H 730.868 2.66778 -5.23549 0
M  V30 7819 H 732.392 3.55904 -4.9615 0
M  V30 7820 H 733.806 1.36979 -5.56695 0
M  V30 7821 H 732.203 0.684207 -5.96187 0
M  V30 7822 H 733.273 -0.182939 -4.84555 0
M  V30 7823 N 734.616 1.57351 0.0885366 0
M  V30 7824 C 735.841 1.91011 0.80805 0
M  V30 7825 C 736.266 0.780009 1.71165 0
M  V30 7826 O 735.624 -0.268083 1.79307 0
M  V30 7827 C 735.672 3.23562 1.59185 0
M  V30 7828 O 734.776 3.11615 2.7013 0
M  V30 7829 H 734.117 0.625943 0.221565 0
M  V30 7830 H 736.647 2.04507 0.0617954 0
M  V30 7831 H 736.657 3.5703 1.97468 0
M  V30 7832 H 735.332 4.05398 0.928741 0
M  V30 7833 H 733.909 2.89673 2.34827 0
M  V30 7834 N 736.094 -0.359525 1.53444 0
M  V30 7835 C 737.34 -1.10315 1.70172 0
M  V30 7836 C 737.673 -1.88788 0.455287 0
M  V30 7837 O 736.948 -1.86635 -0.547514 0
M  V30 7838 C 737.231 -2.05744 2.95536 0
M  V30 7839 C 737.084 -1.3084 4.3035 0
M  V30 7840 C 738.403 -3.05784 3.16518 0
M  V30 7841 H 735.522 -0.399662 0.619225 0
M  V30 7842 H 738.164 -0.383338 1.86093 0
M  V30 7843 H 736.314 -2.67125 2.82093 0
M  V30 7844 H 737.986 -0.721959 4.55615 0
M  V30 7845 H 736.229 -0.610283 4.29486 0
M  V30 7846 H 736.9 -2.00718 5.14214 0
M  V30 7847 H 739.376 -2.5451 3.29187 0
M  V30 7848 H 738.252 -3.69772 4.05659 0
M  V30 7849 H 738.513 -3.76289 2.32076 0
M  V30 7850 N 737.572 -1.44907 -0.619662 0
M  V30 7851 C 738.504 -1.48652 -1.74457 0
M  V30 7852 C 739.517 -0.378596 -1.58337 0
M  V30 7853 O 740.706 -0.644987 -1.6644 0
M  V30 7854 C 737.806 -1.31568 -3.12319 0
M  V30 7855 C 736.979 -2.55816 -3.54792 0
M  V30 7856 C 736.038 -2.33465 -4.71573 0
M  V30 7857 O 735.064 -3.07015 -4.79302 0
M  V30 7858 N 736.266 -1.37254 -5.6404 0
M  V30 7859 H 739.031 -2.45632 -1.71712 0
M  V30 7860 H 736.592 -1.40492 -0.804582 0
M  V30 7861 H 738.584 -1.14445 -3.88181 0
M  V30 7862 H 737.154 -0.429095 -3.09641 0
M  V30 7863 H 736.374 -2.88137 -2.69018 0
M  V30 7864 H 737.662 -3.38431 -3.79924 0
M  V30 7865 H 737.06 -0.765309 -5.60499 0
M  V30 7866 H 735.617 -1.26106 -6.39485 0
M  V30 7867 N 739.05 0.861098 -1.31996 0
M  V30 7868 C 739.96 2.00154 -1.22374 0
M  V30 7869 C 740.976 1.73447 -0.138631 0
M  V30 7870 O 742.152 1.98191 -0.358104 0
M  V30 7871 C 739.217 3.33696 -0.940645 0
M  V30 7872 C 738.278 3.73668 -2.11355 0
M  V30 7873 C 737.511 5.00837 -1.84386 0
M  V30 7874 O 737.734 5.64996 -0.783287 0
M  V30 7875 O 736.668 5.37787 -2.70313 0
M  V30 7876 H 740.494 2.11207 -2.18233 0
M  V30 7877 H 738.079 0.990768 -1.11822 0
M  V30 7878 H 739.961 4.13756 -0.798987 0
M  V30 7879 H 738.636 3.23698 -0.0121636 0
M  V30 7880 H 737.543 2.94211 -2.31065 0
M  V30 7881 H 738.876 3.88303 -3.02459 0
M  V30 7882 N 740.528 1.15101 1.07655 0
M  V30 7883 C 741.805 0.834578 1.76902 0
M  V30 7884 C 742.185 -0.670431 2.00171 0
M  V30 7885 O 741.533 -1.61378 1.6177 0
M  V30 7886 C 741.743 1.64191 3.07965 0
M  V30 7887 C 743.091 1.84615 3.82364 0
M  V30 7888 O 744.115 1.60941 3.17768 0
M  V30 7889 O 742.974 2.24244 4.98374 0
M  V30 7890 H 740.068 0.306608 0.768063 0
M  V30 7891 H 742.614 1.25663 1.14048 0
M  V30 7892 H 741.386 2.66386 2.86626 0
M  V30 7893 H 741.009 1.216 3.78549 0
M  V30 7894 N 742.006 -1.2595 0.947325 0
M  V30 7895 C 743.252 -1.9375 0.599064 0
M  V30 7896 C 743.585 -1.74088 -0.860632 0
M  V30 7897 O 742.86 -1.08158 -1.61654 0
M  V30 7898 C 743.143 -3.47353 0.949634 0
M  V30 7899 C 742.996 -3.76273 2.46452 0
M  V30 7900 C 744.315 -4.37589 0.469442 0
M  V30 7901 H 741.434 -0.703674 0.219115 0
M  V30 7902 H 744.076 -1.48705 1.18266 0
M  V30 7903 H 742.226 -3.8585 0.453008 0
M  V30 7904 H 743.898 -3.47455 3.03435 0
M  V30 7905 H 742.141 -3.22135 2.90537 0
M  V30 7906 H 742.812 -4.83664 2.66032 0
M  V30 7907 H 745.288 -4.06353 0.89534 0
M  V30 7908 H 744.164 -5.43841 0.7435 0
M  V30 7909 H 744.425 -4.37579 -0.630618 0
M  V30 7910 N 743.484 -0.715051 -1.40445 0
M  V30 7911 C 744.431 -0.0621393 -2.30716 0
M  V30 7912 C 745.401 0.750871 -1.48159 0
M  V30 7913 O 746.586 0.714928 -1.76899 0
M  V30 7914 C 743.726 0.854036 -3.34365 0
M  V30 7915 C 742.839 0.0305565 -4.31989 0
M  V30 7916 C 741.974 0.946162 -5.22706 0
M  V30 7917 C 741.013 0.116741 -6.11989 0
M  V30 7918 N 740.15 0.987194 -6.95125 0
M  V30 7919 H 744.99 -0.83764 -2.85985 0
M  V30 7920 H 742.527 -0.424759 -1.40834 0
M  V30 7921 H 744.485 1.39946 -3.93028 0
M  V30 7922 H 743.115 1.59572 -2.806 0
M  V30 7923 H 742.167 -0.632044 -3.75112 0
M  V30 7924 H 743.479 -0.611615 -4.95036 0
M  V30 7925 H 742.633 1.56014 -5.86297 0
M  V30 7926 H 741.372 1.62216 -4.59932 0
M  V30 7927 H 740.377 -0.510176 -5.47428 0
M  V30 7928 H 741.602 -0.555742 -6.76822 0
M  V30 7929 H 739.548 1.64885 -6.3494 0
M  V30 7930 H 739.465 0.401046 -7.54936 0
M  V30 7931 H 740.733 1.58737 -7.63166 0
M  V30 7932 N 744.962 1.50701 -0.461195 0
M  V30 7933 C 746.211 2.01458 0.0988277 0
M  V30 7934 C 746.524 1.34863 1.41673 0
M  V30 7935 O 747.73 1.76721 2.06111 0
M  V30 7936 C 746.186 3.59186 0.226648 0
M  V30 7937 C 745.794 4.34732 -1.08223 0
M  V30 7938 C 747.538 4.18015 0.73916 0
M  V30 7939 C 745.445 5.8422 -0.918747 0
M  V30 7940 H 744.375 0.7529 0.040709 0
M  V30 7941 H 747.026 1.736 -0.594589 0
M  V30 7942 H 745.408 3.83589 0.983621 0
M  V30 7943 H 746.582 4.22059 -1.84939 0
M  V30 7944 H 744.897 3.87466 -1.52509 0
M  V30 7945 H 747.494 5.27436 0.878347 0
M  V30 7946 H 747.837 3.78746 1.72793 0
M  V30 7947 H 748.37 3.9778 0.0398469 0
M  V30 7948 H 745.109 6.27944 -1.88059 0
M  V30 7949 H 744.629 5.99493 -0.191801 0
M  V30 7950 H 746.308 6.44382 -0.581405 0
M  V30 7951 O 746.479 0.334734 1.57993 0
M  V30 7952 H 747.17 -0.222689 1.92416 0
M  V30 END ATOM
M  V30 BEGIN BOND
M  V30 END BOND
M  V30 END CTAB
M  END
$$$$
