drugbank_target|P36955 Pigment epithelium-derived factor (DB09130)
 OpenBabel12092121073D

  0  0  0     0  0            999 V3000
M  V30 BEGIN CTAB
M  V30 COUNTS 6588 6658 0 0 0
M  V30 BEGIN ATOM
M  V30 1 H -0.908 1.98254 -0.117106 0
M  V30 2 N 0 1.576 0 0
M  V30 3 C 0.933 2.03868 1.02534 0
M  V30 4 C 1.911 0.928543 1.3348 0
M  V30 5 O 3.095 1.19667 1.45644 0
M  V30 6 C 0.222 2.43627 2.35294 0
M  V30 7 C -0.732 3.65373 2.2001 0
M  V30 8 S 0.101 5.13292 1.52614 0
M  V30 9 C 1.257 5.56322 2.86805 0
M  V30 10 H 1.49 2.90518 0.631377 0
M  V30 11 H -0.977 1.52953 0.210867 0
M  V30 12 H 0.981 2.67203 3.11629 0
M  V30 13 H -0.358 1.57376 2.7183 0
M  V30 14 H -1.165 3.90944 3.18086 0
M  V30 15 H -1.563 3.418 1.51819 0
M  V30 16 H 0.729 5.58782 3.83104 0
M  V30 17 H 1.672 6.56266 2.65933 0
M  V30 18 H 2.08 4.83886 2.90714 0
M  V30 19 N 1.4781 -0.272755 1.55222 0
M  V30 20 C 2.4101 -1.35946 1.8453 0
M  V30 21 C 3.4231 -1.45525 0.729818 0
M  V30 22 O 4.6121 -1.47337 1.00767 0
M  V30 23 C 1.7121 -2.74069 1.99347 0
M  V30 24 C 0.8851 -2.87079 3.30007 0
M  V30 25 C -0.0559 -4.05879 3.34886 0
M  V30 26 O -1.0299 -3.96626 4.08261 0
M  V30 27 N 0.1721 -5.17857 2.62307 0
M  V30 28 H 2.9371 -1.11149 2.78327 0
M  V30 29 H 0.4981 -0.462869 1.55142 0
M  V30 30 H 2.4901 -3.51838 1.99981 0
M  V30 31 H 1.0601 -2.91688 1.12415 0
M  V30 32 H 0.2801 -1.96193 3.41909 0
M  V30 33 H 1.5681 -2.92701 4.16177 0
M  V30 34 H 0.9661 -5.28261 2.02377 0
M  V30 35 H -0.4769 -5.93855 2.68663 0
M  V30 36 N 2.9562 -1.48159 -0.537278 0
M  V30 37 C 3.9192 -1.61665 -1.62472 0
M  V30 38 C 4.9192 -0.490395 -1.5314 0
M  V30 39 O 6.1092 -0.755998 -1.5694 0
M  V30 40 C 3.2412 -1.57997 -3.02076 0
M  V30 41 H 4.4342 -2.58621 -1.51839 0
M  V30 42 H 1.9872 -1.36647 -0.758771 0
M  V30 43 H 2.7222 -0.624913 -3.18222 0
M  V30 44 H 2.5072 -2.39755 -3.10258 0
M  V30 45 H 3.9972 -1.70627 -3.81151 0
M  V30 46 N 4.4343 0.785586 -1.36625 0
M  V30 47 C 5.3643 1.91259 -1.33949 0
M  V30 48 C 6.3453 1.68795 -0.210325 0
M  V30 49 O 7.5303 1.89854 -0.408561 0
M  V30 50 C 4.6603 3.28339 -1.13186 0
M  V30 51 C 3.6143 3.65335 -2.22967 0
M  V30 52 C 2.9403 5.00806 -1.87342 0
M  V30 53 C 4.2403 3.7352 -3.65075 0
M  V30 54 H 5.9343 1.93755 -2.28253 0
M  V30 55 H 3.4803 0.930788 -1.09874 0
M  V30 56 H 5.4333 4.06804 -1.09948 0
M  V30 57 H 4.1573 3.2624 -0.153332 0
M  V30 58 H 2.8163 2.89169 -2.25337 0
M  V30 59 H 2.4643 4.95233 -0.880545 0
M  V30 60 H 2.1643 5.26529 -2.60846 0
M  V30 61 H 3.6883 5.81687 -1.85667 0
M  V30 62 H 5.1023 4.42168 -3.64911 0
M  V30 63 H 3.4993 4.10731 -4.37516 0
M  V30 64 H 4.5693 2.74527 -3.99703 0
M  V30 65 N 5.9124 1.20967 1.01018 0
M  V30 66 C 7.1584 1.02526 1.74975 0
M  V30 67 C 7.4914 -0.4408 1.89131 0
M  V30 68 O 6.7664 -1.32718 1.42184 0
M  V30 69 C 7.0494 1.71699 3.1653 0
M  V30 70 C 6.9024 3.25791 3.10129 0
M  V30 71 C 8.2214 1.45531 4.15342 0
M  V30 72 H 5.3404 0.373863 0.635134 0
M  V30 73 H 7.9824 1.49071 1.17805 0
M  V30 74 H 6.1324 1.32128 3.65341 0
M  V30 75 H 7.8044 3.74697 2.69072 0
M  V30 76 H 6.0474 3.56363 2.47362 0
M  V30 77 H 6.7184 3.69353 4.10222 0
M  V30 78 H 9.1944 1.79872 3.75213 0
M  V30 79 H 8.0704 1.96453 5.1254 0
M  V30 80 H 8.3314 0.384237 4.40427 0
M  V30 81 N 7.3905 -1.2043 1.01659 0
M  V30 82 C 8.3205 -2.25466 0.607226 0
M  V30 83 C 9.3015 -1.65853 -0.377716 0
M  V30 84 O 10.4865 -1.92409 -0.263149 0
M  V30 85 C 7.6165 -3.47256 -0.0552949 0
M  V30 86 C 6.5705 -4.19462 0.850632 0
M  V30 87 C 5.8965 -5.34673 0.0538859 0
M  V30 88 C 7.1965 -4.75603 2.15868 0
M  V30 89 H 8.8905 -2.59962 1.48526 0
M  V30 90 H 6.4365 -1.2496 0.715605 0
M  V30 91 H 8.3895 -4.19917 -0.353233 0
M  V30 92 H 7.1135 -3.11924 -0.968045 0
M  V30 93 H 5.7725 -3.48667 1.13257 0
M  V30 94 H 5.4205 -4.95585 -0.860514 0
M  V30 95 H 5.1205 -5.83913 0.657192 0
M  V30 96 H 6.6445 -6.10138 -0.237598 0
M  V30 97 H 8.0585 -5.40083 1.92311 0
M  V30 98 H 6.4555 -5.3528 2.71284 0
M  V30 99 H 7.5255 -3.94346 2.82169 0
M  V30 100 N 8.8686 -0.792821 -1.36206 0
M  V30 101 C 9.7986 -0.207853 -2.32573 0
M  V30 102 C 10.7796 0.659055 -1.56813 0
M  V30 103 O 11.9646 0.592176 -1.84951 0
M  V30 104 C 9.0946 0.655449 -3.41059 0
M  V30 105 C 8.0486 -0.111842 -4.27854 0
M  V30 106 C 7.3746 0.872274 -5.27537 0
M  V30 107 C 8.6746 -1.30299 -5.05786 0
M  V30 108 H 10.3686 -1.01294 -2.81744 0
M  V30 109 H 7.9146 -0.48854 -1.3546 0
M  V30 110 H 9.8676 1.07464 -4.07467 0
M  V30 111 H 8.5916 1.49328 -2.90463 0
M  V30 112 H 7.2506 -0.512053 -3.63006 0
M  V30 113 H 6.8986 1.70523 -4.73214 0
M  V30 114 H 6.5986 0.363291 -5.86476 0
M  V30 115 H 8.1226 1.28996 -5.96818 0
M  V30 116 H 9.5366 -0.959379 -5.65216 0
M  V30 117 H 7.9336 -1.7455 -5.74154 0
M  V30 118 H 9.0036 -2.09663 -4.37229 0
M  V30 119 N 10.3467 1.47872 -0.545128 0
M  V30 120 C 11.2767 2.32661 0.197793 0
M  V30 121 C 12.2577 1.43041 0.920504 0
M  V30 122 O 13.4427 1.71912 0.90333 0
M  V30 123 C 10.5727 3.24569 1.23582 0
M  V30 124 C 9.5267 4.23333 0.630323 0
M  V30 125 C 8.8527 5.0448 1.77211 0
M  V30 126 C 10.1527 5.20704 -0.407974 0
M  V30 127 H 11.8467 2.95024 -0.510045 0
M  V30 128 H 9.3927 1.4187 -0.246731 0
M  V30 129 H 11.3457 3.8272 1.76362 0
M  V30 130 H 10.0697 2.60236 1.97344 0
M  V30 131 H 8.7287 3.6639 0.123922 0
M  V30 132 H 8.3767 4.36561 2.49847 0
M  V30 133 H 8.0767 5.71339 1.37281 0
M  V30 134 H 9.6007 5.65487 2.3034 0
M  V30 135 H 11.0147 5.7329 0.033305 0
M  V30 136 H 9.4117 5.95699 -0.725486 0
M  V30 137 H 10.4817 4.66917 -1.30828 0
M  V30 138 N 11.8248 0.280983 1.55075 0
M  V30 139 C 13.0648 -0.335234 2.01632 0
M  V30 140 C 13.4288 -1.5261 1.16508 0
M  V30 141 O 14.6298 -2.21235 1.52672 0
M  V30 142 C 12.9008 -0.702172 3.50434 0
M  V30 143 S 14.4598 -1.30409 4.18974 0
M  V30 144 H 11.2778 -0.103967 0.703358 0
M  V30 145 H 13.8798 0.404187 1.91276 0
M  V30 146 H 12.5838 0.17333 4.10034 0
M  V30 147 H 12.1148 -1.4729 3.64786 0
M  V30 148 H 14.1298 -2.59253 4.23087 0
M  V30 149 N 13.3029 -1.57598 0.00835791 0
M  V30 150 C 14.5519 -1.90107 -0.673968 0
M  V30 151 C 14.8649 -0.884275 -1.7447 0
M  V30 152 O 16.0709 -1.09987 -2.48224 0
M  V30 153 C 14.5269 -3.37497 -1.24995 0
M  V30 154 C 14.1349 -4.47491 -0.2136 0
M  V30 155 C 15.8789 -3.79104 -1.90999 0
M  V30 156 C 13.7859 -5.85963 -0.80005 0
M  V30 157 H 12.7159 -0.709393 -0.255495 0
M  V30 158 H 15.3669 -1.83365 0.0702693 0
M  V30 159 H 13.7489 -3.39102 -2.04513 0
M  V30 160 H 14.9229 -4.57414 0.557596 0
M  V30 161 H 13.2379 -4.14956 0.346474 0
M  V30 162 H 15.8349 -4.79901 -2.35795 0
M  V30 163 H 16.1779 -3.1306 -2.74407 0
M  V30 164 H 16.7109 -3.79833 -1.18203 0
M  V30 165 H 13.4499 -6.555 -0.00456708 0
M  V30 166 H 12.9699 -5.79687 -1.54021 0
M  V30 167 H 14.6489 -6.33884 -1.29615 0
M  V30 168 N 14.781 0.264519 -1.55364 0
M  V30 169 C 16.029 0.993021 -1.76021 0
M  V30 170 C 16.35 1.86511 -0.569099 0
M  V30 171 O 15.62 1.91438 0.415735 0
M  V30 172 H 14.2 0.369639 -0.649135 0
M  V30 173 H 16.862 0.286707 -1.9278 0
M  V30 174 H 15.958 1.62502 -2.66457 0
M  V30 175 N 16.2591 1.48442 0.529413 0
M  V30 176 C 17.2221 1.62524 1.61612 0
M  V30 177 C 18.2221 0.498509 1.52877 0
M  V30 178 O 19.4121 0.76431 1.56537 0
M  V30 179 C 16.5441 1.59597 3.01233 0
M  V30 180 H 17.7371 2.59423 1.50465 0
M  V30 181 H 15.2901 1.37047 0.751514 0
M  V30 182 H 16.0251 0.641781 3.17886 0
M  V30 183 H 15.8101 2.41397 3.08982 0
M  V30 184 H 17.3001 1.72646 3.80241 0
M  V30 185 N 17.7372 -0.778329 1.37039 0
M  V30 186 C 18.6672 -1.90546 1.34962 0
M  V30 187 C 19.6482 -1.68681 0.219274 0
M  V30 188 O 20.8332 -1.89634 0.418624 0
M  V30 189 C 17.9632 -3.27734 1.14925 0
M  V30 190 C 16.9172 -3.64147 2.24902 0
M  V30 191 C 16.2432 -4.99806 1.89996 0
M  V30 192 C 17.5432 -3.71579 3.67051 0
M  V30 193 H 19.2372 -1.92541 2.29277 0
M  V30 194 H 16.7832 -0.924948 1.10366 0
M  V30 195 H 18.7362 -4.06215 1.12104 0
M  V30 196 H 17.4602 -3.26154 0.170631 0
M  V30 197 H 16.1192 -2.8797 2.26868 0
M  V30 198 H 15.7672 -4.94759 0.906796 0
M  V30 199 H 15.4672 -5.25139 2.63634 0
M  V30 200 H 16.9912 -5.80694 1.88749 0
M  V30 201 H 18.4052 -4.40227 3.67251 0
M  V30 202 H 16.8022 -4.08405 4.39688 0
M  V30 203 H 17.8722 -2.72404 4.01154 0
M  V30 204 N 19.2153 -1.21501 -1.00376 0
M  V30 205 C 20.1453 -0.999478 -2.11028 0
M  V30 206 C 21.1263 0.0759671 -1.6993 0
M  V30 207 O 22.3113 -0.0841106 -1.94018 0
M  V30 208 C 19.4413 -0.564709 -3.42678 0
M  V30 209 C 18.3953 -1.58486 -3.97576 0
M  V30 210 C 17.7213 -1.00628 -5.25146 0
M  V30 211 C 19.0213 -2.97204 -4.29496 0
M  V30 212 H 20.7153 -1.92495 -2.29317 0
M  V30 213 H 18.2613 -0.92693 -1.102 0
M  V30 214 H 20.2143 -0.401091 -4.19487 0
M  V30 215 H 18.9383 0.396411 -3.24185 0
M  V30 216 H 17.5973 -1.73606 -3.22888 0
M  V30 217 H 17.2453 -0.0368439 -5.02987 0
M  V30 218 H 16.9453 -1.68771 -5.62841 0
M  V30 219 H 18.4693 -0.854015 -6.04598 0
M  V30 220 H 19.8833 -2.8552 -4.97143 0
M  V30 221 H 18.2803 -3.62372 -4.78338 0
M  V30 222 H 19.3503 -3.47956 -3.3772 0
M  V30 223 N 20.6934 1.19889 -1.02296 0
M  V30 224 C 21.9414 1.89046 -0.714558 0
M  V30 225 C 22.2624 1.79636 0.758681 0
M  V30 226 O 21.5324 1.20292 1.54618 0
M  V30 227 H 20.1124 0.699802 -0.261317 0
M  V30 228 H 22.7744 1.45574 -1.29592 0
M  V30 229 H 21.8704 2.95524 -1.0036 0
M  V30 230 N 22.1715 0.800033 1.35784 0
M  V30 231 C 23.1215 0.178654 2.27299 0
M  V30 232 C 24.1055 -0.643667 1.47464 0
M  V30 233 O 25.2975 -0.502 1.69732 0
M  V30 234 C 22.4265 -0.677194 3.36555 0
M  V30 235 C 21.5125 0.154497 4.23818 0
M  V30 236 N 21.9035 1.21427 4.91008 0
M  V30 237 C 20.2015 -0.0649462 4.45953 0
M  V30 238 C 20.9025 1.72147 5.55644 0
M  V30 239 N 19.8785 1.02897 5.33773 0
M  V30 240 H 23.6805 0.989637 2.76737 0
M  V30 241 H 21.1945 0.64054 1.49234 0
M  V30 242 H 23.1915 -1.13835 4.01058 0
M  V30 243 H 21.8515 -1.4866 2.8867 0
M  V30 244 H 22.8625 1.59684 4.92668 0
M  V30 245 H 19.5395 -0.844016 4.0888 0
M  V30 246 H 20.9295 2.60683 6.19269 0
M  V30 247 N 23.6496 -1.47581 0.552962 0
M  V30 248 C 24.8746 -2.07378 0.0300593 0
M  V30 249 C 25.2996 -1.40355 -1.25229 0
M  V30 250 O 24.6576 -0.477099 -1.7491 0
M  V30 251 C 24.7056 -3.60274 -0.153231 0
M  V30 252 O 23.8096 -3.94041 -1.21678 0
M  V30 253 H 23.1506 -0.662158 0.0494182 0
M  V30 254 H 25.6806 -1.89662 0.767434 0
M  V30 255 H 25.6906 -4.0633 -0.368761 0
M  V30 256 H 24.3656 -4.08455 0.783397 0
M  V30 257 H 22.9426 -3.59735 -0.982079 0
M  V30 258 N 25.1277 -0.289203 -1.54924 0
M  V30 259 C 26.3527 0.329299 -2.04769 0
M  V30 260 C 26.7777 1.4763 -1.16564 0
M  V30 261 O 26.1357 1.80527 -0.167186 0
M  V30 262 C 26.1837 0.774438 -3.52186 0
M  V30 263 O 25.2877 1.88038 -3.67036 0
M  V30 264 H 24.6287 0.0659259 -0.660719 0
M  V30 265 H 27.1587 -0.42761 -2.00082 0
M  V30 266 H 27.1687 1.06642 -3.93816 0
M  V30 267 H 25.8437 -0.0646707 -4.1585 0
M  V30 268 H 24.4207 1.58985 -3.3731 0
M  V30 269 N 26.6058 1.57591 -0.0167156 0
M  V30 270 C 27.8458 1.93145 0.668902 0
M  V30 271 C 28.2098 0.892406 1.7 0
M  V30 272 O 29.4108 1.13373 2.43721 0
M  V30 273 C 27.6818 3.33678 1.28039 0
M  V30 274 S 29.2408 3.91142 1.9888 0
M  V30 275 H 26.0588 0.67593 0.220545 0
M  V30 276 H 28.6608 1.95347 -0.0774105 0
M  V30 277 H 27.3648 4.07126 0.517339 0
M  V30 278 H 26.8958 3.3489 2.06427 0
M  V30 279 H 28.9108 3.73571 3.26587 0
M  V30 280 N 28.0839 -0.256276 1.55502 0
M  V30 281 C 29.0159 -1.33981 1.85962 0
M  V30 282 C 30.0289 -1.44743 0.745212 0
M  V30 283 O 31.2179 -1.4626 1.02324 0
M  V30 284 C 28.3179 -2.7194 2.02242 0
M  V30 285 C 27.4909 -2.83562 3.33033 0
M  V30 286 C 26.5499 -4.02304 3.39172 0
M  V30 287 O 25.5759 -3.92273 4.12444 0
M  V30 288 N 26.7779 -5.15045 2.67784 0
M  V30 289 H 29.5429 -1.08191 2.7949 0
M  V30 290 H 27.1039 -0.446388 1.55624 0
M  V30 291 H 29.0959 -3.49697 2.03701 0
M  V30 292 H 27.6659 -2.90479 1.15502 0
M  V30 293 H 26.8859 -1.92555 3.43971 0
M  V30 294 H 28.1739 -2.88271 4.19258 0
M  V30 295 H 27.5719 -5.26085 2.07968 0
M  V30 296 H 26.1289 -5.90972 2.74947 0
M  V30 297 N 29.562 -1.4872 -0.521534 0
M  V30 298 C 30.51 -1.64328 -1.64618 0
M  V30 299 C 31.504 -0.50953 -1.61555 0
M  V30 300 O 32.71 -0.688525 -1.66311 0
M  V30 301 H 29.085 -0.517805 -0.545328 0
M  V30 302 H 31.056 -2.58767 -1.48601 0
M  V30 303 C 29.805 -1.70805 -3.02855 0
M  V30 304 H 29.128 -2.5741 -3.05909 0
M  V30 305 H 30.568 -1.85766 -3.81139 0
M  V30 306 C 29.027 -0.448479 -3.33902 0
M  V30 307 O 29.557 0.434928 -3.99339 0
M  V30 308 N 27.763 -0.317616 -2.88859 0
M  V30 309 H 27.31 -1.03748 -2.35784 0
M  V30 310 H 27.268 0.524113 -3.10001 0
M  V30 311 N 31.0401 0.771051 -1.3745 0
M  V30 312 C 32.4511 1.34737 -1.29239 0
M  V30 313 C 32.8021 1.96109 0.0596908 0
M  V30 314 O 31.9271 1.93865 0.961534 0
M  V30 315 C 32.5221 2.44973 -2.34037 0
M  V30 316 C 31.0811 2.98372 -2.29458 0
M  V30 317 C 30.2281 1.71595 -2.17831 0
M  V30 318 H 33.1791 0.571256 -1.48062 0
M  V30 319 H 33.2001 3.24471 -1.98744 0
M  V30 320 H 32.7121 2.00276 -3.32432 0
M  V30 321 H 30.8131 3.47443 -1.34589 0
M  V30 322 H 30.9261 3.53939 -3.229 0
M  V30 323 H 29.2901 1.94547 -1.64388 0
M  V30 324 H 30.0731 1.29001 -3.18141 0
M  V30 325 N 32.5182 1.22032 0.997298 0
M  V30 326 C 33.4812 0.987909 2.06816 0
M  V30 327 C 34.4812 -0.0440084 1.6074 0
M  V30 328 O 35.6712 0.194053 1.73116 0
M  V30 329 C 32.8032 0.49132 3.37341 0
M  V30 330 H 33.9962 1.93803 2.28868 0
M  V30 331 H 31.5492 1.03838 1.16822 0
M  V30 332 H 32.2842 -0.463364 3.20973 0
M  V30 333 H 32.0692 1.23575 3.72118 0
M  V30 334 H 33.5592 0.348824 4.16141 0
M  V30 335 N 33.9963 -1.19345 1.0293 0
M  V30 336 C 35.2213 -1.93538 0.745511 0
M  V30 337 C 35.6463 -1.75007 -0.689511 0
M  V30 338 O 35.0043 -1.05265 -1.47611 0
M  V30 339 C 35.0523 -3.43336 1.10239 0
M  V30 340 O 34.1563 -4.11806 0.221289 0
M  V30 341 H 33.4973 -0.604193 0.275404 0
M  V30 342 H 36.0273 -1.5141 1.37609 0
M  V30 343 H 36.0373 -3.94004 1.05947 0
M  V30 344 H 34.7123 -3.56146 2.14786 0
M  V30 345 H 33.2893 -3.715 0.322842 0
M  V30 346 N 35.4744 -0.807222 -1.35358 0
M  V30 347 C 36.8854 -0.44876 -1.81226 0
M  V30 348 C 37.2364 1.02929 -1.67033 0
M  V30 349 O 36.3614 1.79991 -1.20133 0
M  V30 350 C 36.9564 -0.807774 -3.2903 0
M  V30 351 C 35.5154 -0.501901 -3.73039 0
M  V30 352 C 34.6624 -1.03304 -2.57339 0
M  V30 353 H 37.6134 -0.998808 -1.23327 0
M  V30 354 H 37.6344 -0.10554 -3.80354 0
M  V30 355 H 37.1464 -1.88357 -3.39328 0
M  V30 356 H 35.2474 0.565128 -3.68289 0
M  V30 357 H 35.3604 -1.03497 -4.67787 0
M  V30 358 H 33.7244 -0.455339 -2.50597 0
M  V30 359 H 34.5074 -2.11496 -2.70415 0
M  V30 360 N 36.9525 1.47285 -0.560781 0
M  V30 361 C 38.3635 1.86258 -0.128343 0
M  V30 362 C 38.7145 1.46699 1.30284 0
M  V30 363 O 37.8395 0.871698 1.98067 0
M  V30 364 C 38.4345 3.38044 -0.22614 0
M  V30 365 C 36.9935 3.76096 0.151283 0
M  V30 366 C 36.1405 2.71335 -0.572084 0
M  V30 367 H 39.0915 1.38752 -0.770297 0
M  V30 368 H 39.1125 3.76441 0.554322 0
M  V30 369 H 38.6245 3.66806 -1.26788 0
M  V30 370 H 36.7255 3.52951 1.19399 0
M  V30 371 H 36.8385 4.78641 -0.209765 0
M  V30 372 H 35.2025 2.54696 -0.0147653 0
M  V30 373 H 35.9855 3.02938 -1.61504 0
M  V30 374 N 38.4306 0.297415 1.54768 0
M  V30 375 C 39.3406 -0.58983 2.27064 0
M  V30 376 C 40.3566 -1.15144 1.30453 0
M  V30 377 O 41.5326 -1.17699 1.63428 0
M  V30 378 C 38.5976 -1.74714 2.9946 0
M  V30 379 C 37.6586 -1.21997 4.11601 0
M  V30 380 C 36.8916 -2.32212 4.80535 0
M  V30 381 O 37.1146 -3.52036 4.48806 0
M  V30 382 O 36.0486 -1.99106 5.68014 0
M  V30 383 H 39.8746 -0.00348199 3.037 0
M  V30 384 H 37.4596 0.0640035 1.49263 0
M  V30 385 H 39.3416 -2.42147 3.44881 0
M  V30 386 H 38.0166 -2.32016 2.25722 0
M  V30 387 H 36.9236 -0.511458 3.70587 0
M  V30 388 H 38.2566 -0.692419 4.87305 0
M  V30 389 N 39.9087 -1.5758 0.0250728 0
M  V30 390 C 40.8187 -2.1343 -0.973905 0
M  V30 391 C 41.8347 -1.08556 -1.35984 0
M  V30 392 O 43.0107 -1.40592 -1.44207 0
M  V30 393 C 40.0757 -2.64703 -2.23904 0
M  V30 394 C 39.1367 -3.84276 -1.91391 0
M  V30 395 C 38.3697 -4.33095 -3.11873 0
M  V30 396 O 38.5927 -3.81107 -4.24398 0
M  V30 397 O 37.5267 -5.24984 -2.94406 0
M  V30 398 H 41.3527 -2.99057 -0.529036 0
M  V30 399 H 38.9377 -1.48118 -0.195288 0
M  V30 400 H 40.8197 -2.97769 -2.98181 0
M  V30 401 H 39.4947 -1.82161 -2.6758 0
M  V30 402 H 38.4017 -3.56143 -1.14511 0
M  V30 403 H 39.7347 -4.67968 -1.52534 0
M  V30 404 N 41.3868 0.248026 -1.55636 0
M  V30 405 C 42.6348 0.974295 -1.77065 0
M  V30 406 C 42.9558 1.85897 -0.588849 0
M  V30 407 O 42.2258 1.91868 0.395407 0
M  V30 408 H 40.8058 0.362733 -0.653019 0
M  V30 409 H 43.4678 0.266244 -1.93073 0
M  V30 410 H 42.5638 1.59667 -2.68166 0
M  V30 411 N 42.8649 1.48995 0.513639 0
M  V30 412 C 44.0899 1.61792 1.29762 0
M  V30 413 C 44.5149 0.284475 1.85936 0
M  V30 414 O 43.8729 -0.746185 1.65232 0
M  V30 415 C 43.9209 2.67993 2.41272 0
M  V30 416 O 43.0249 2.26287 3.44772 0
M  V30 417 H 42.3659 0.541963 0.38363 0
M  V30 418 H 44.8959 1.95097 0.616307 0
M  V30 419 H 44.9059 2.89772 2.87221 0
M  V30 420 H 43.5809 3.64791 1.9975 0
M  V30 421 H 42.1579 2.14788 3.04829 0
M  V30 422 N 44.343 -0.763751 1.37857 0
M  V30 423 C 45.754 -1.3405 1.29952 0
M  V30 424 C 46.105 -1.96138 -0.0492898 0
M  V30 425 O 45.23 -1.94372 -0.951239 0
M  V30 426 C 45.825 -2.43729 2.35333 0
M  V30 427 C 44.384 -2.97151 2.31037 0
M  V30 428 C 43.531 -1.70438 2.18738 0
M  V30 429 H 46.482 -0.563396 1.48363 0
M  V30 430 H 46.503 -3.23412 2.00462 0
M  V30 431 H 46.015 -1.9851 3.33489 0
M  V30 432 H 44.116 -3.46724 1.3643 0
M  V30 433 H 44.229 -3.52221 3.24772 0
M  V30 434 H 42.593 -1.93673 1.65418 0
M  V30 435 H 43.376 -1.27312 3.18821 0
M  V30 436 N 45.8211 -1.22559 -0.990812 0
M  V30 437 C 47.0981 -0.959875 -1.70428 0
M  V30 438 C 47.4781 0.524455 -2.04481 0
M  V30 439 O 46.8261 1.49302 -1.72977 0
M  V30 440 C 47.0361 -1.85955 -2.95333 0
M  V30 441 C 48.3841 -2.11687 -3.68068 0
M  V30 442 O 49.4081 -1.8342 -3.05345 0
M  V30 443 O 48.2671 -2.59572 -4.80921 0
M  V30 444 H 45.3611 -0.361154 -0.743974 0
M  V30 445 H 47.9071 -1.33554 -1.04697 0
M  V30 446 H 46.6791 -2.86346 -2.66687 0
M  V30 447 H 46.3021 -1.4856 -3.68803 0
M  V30 448 N 47.2992 1.18797 -1.03562 0
M  V30 449 C 48.7102 1.70322 -0.764676 0
M  V30 450 C 49.0612 1.82708 0.714996 0
M  V30 451 O 48.1862 1.50299 1.55689 0
M  V30 452 C 48.7812 3.09356 -1.38145 0
M  V30 453 C 47.3402 3.58114 -1.15895 0
M  V30 454 C 46.4872 2.34798 -1.4753 0
M  V30 455 H 49.4382 1.03543 -1.20268 0
M  V30 456 H 49.4592 3.72378 -0.781977 0
M  V30 457 H 48.9712 3.00309 -2.45837 0
M  V30 458 H 47.0722 3.72464 -0.100544 0
M  V30 459 H 47.1852 4.4184 -1.8524 0
M  V30 460 H 45.5492 2.38464 -0.894829 0
M  V30 461 H 46.3322 2.28375 -2.56319 0
M  V30 462 N 48.7773 0.814389 1.34928 0
M  V30 463 C 50.0543 0.321363 1.92942 0
M  V30 464 C 50.4343 -1.19014 1.74353 0
M  V30 465 O 49.7823 -1.99328 1.11716 0
M  V30 466 C 49.9923 0.741323 3.41036 0
M  V30 467 C 51.3403 0.735266 4.18185 0
M  V30 468 O 52.3643 0.68336 3.49584 0
M  V30 469 O 51.2233 0.800703 5.40602 0
M  V30 470 H 48.3173 0.0858893 0.822528 0
M  V30 471 H 50.8633 0.898609 1.43955 0
M  V30 472 H 49.6353 1.78276 3.4833 0
M  V30 473 H 49.2583 0.139307 3.97356 0
M  V30 474 N 50.2554 -1.46986 0.568584 0
M  V30 475 C 51.4804 -2.07335 0.0520528 0
M  V30 476 C 51.9054 -1.41675 -1.23733 0
M  V30 477 O 51.2634 -0.495623 -1.74394 0
M  V30 478 C 51.3114 -3.60417 -0.11501 0
M  V30 479 O 50.4154 -3.95309 -1.17492 0
M  V30 480 H 49.7564 -0.661597 0.0564385 0
M  V30 481 H 52.2864 -1.88837 0.787507 0
M  V30 482 H 52.2964 -4.06698 -0.325644 0
M  V30 483 H 50.9714 -4.07601 0.826675 0
M  V30 484 H 49.5484 -3.60757 -0.943869 0
M  V30 485 N 51.7335 -0.305618 -1.54608 0
M  V30 486 C 52.9615 0.304775 -2.04643 0
M  V30 487 C 53.3765 1.47167 -1.18268 0
M  V30 488 O 52.7335 1.81296 -0.209328 0
M  V30 489 C 52.7845 0.756564 -3.53495 0
M  V30 490 O 52.5055 -0.36389 -4.36586 0
M  V30 491 C 54.0065 1.43163 -4.19546 0
M  V30 492 H 51.2265 0.0655481 -0.667791 0
M  V30 493 H 53.7705 -0.446592 -1.99564 0
M  V30 494 H 51.9255 1.45794 -3.58919 0
M  V30 495 H 52.3395 -0.0113121 -5.24499 0
M  V30 496 H 53.8135 1.69886 -5.25207 0
M  V30 497 H 54.2905 2.37318 -3.69563 0
M  V30 498 H 54.8965 0.773307 -4.18211 0
M  V30 499 N 53.2116 1.57565 -0.0334293 0
M  V30 500 C 54.4596 1.91598 0.642999 0
M  V30 501 C 54.7806 0.910847 1.7242 0
M  V30 502 O 54.0506 -0.0469931 1.95844 0
M  V30 503 H 52.6306 0.707228 0.240496 0
M  V30 504 H 55.2926 1.94726 -0.0822488 0
M  V30 505 H 54.3886 2.92336 1.09298 0
M  V30 506 N 54.6897 -0.239769 1.55765 0
M  V30 507 C 55.6527 -1.28038 1.90103 0
M  V30 508 C 56.6527 -1.40723 0.778055 0
M  V30 509 O 57.8427 -1.39301 1.04599 0
M  V30 510 C 54.9747 -2.65702 2.13577 0
M  V30 511 H 56.1677 -0.988048 2.83157 0
M  V30 512 H 53.7207 -0.479382 1.48767 0
M  V30 513 H 54.4557 -3.00063 1.23015 0
M  V30 514 H 54.2407 -2.57875 2.95369 0
M  V30 515 H 55.7307 -3.40828 2.41301 0
M  V30 516 N 56.1678 -1.49265 -0.50573 0
M  V30 517 C 57.0978 -1.68495 -1.61653 0
M  V30 518 C 58.0788 -0.53366 -1.61512 0
M  V30 519 O 59.2638 -0.76897 -1.78327 0
M  V30 520 C 56.3938 -1.74709 -3.00157 0
M  V30 521 C 55.3478 -2.89581 -3.15162 0
M  V30 522 C 54.6738 -2.80903 -4.5497 0
M  V30 523 C 55.9738 -4.30578 -2.95634 0
M  V30 524 H 57.6678 -2.61493 -1.45814 0
M  V30 525 H 55.2138 -1.25838 -0.70005 0
M  V30 526 H 57.1668 -1.86748 -3.77761 0
M  V30 527 H 55.8908 -0.783067 -3.17074 0
M  V30 528 H 54.5498 -2.77136 -2.39982 0
M  V30 529 H 54.1978 -1.82419 -4.68756 0
M  V30 530 H 53.8978 -3.57999 -4.65951 0
M  V30 531 H 55.4218 -2.94944 -5.34641 0
M  V30 532 H 56.8358 -4.4373 -3.63011 0
M  V30 533 H 55.2328 -5.0886 -3.18091 0
M  V30 534 H 56.3028 -4.45352 -1.91806 0
M  V30 535 N 57.6459 0.756429 -1.3826 0
M  V30 536 C 58.8919 1.51772 -1.34511 0
M  V30 537 C 59.2249 1.94089 0.0656691 0
M  V30 538 O 58.4999 1.65221 1.02626 0
M  V30 539 C 58.7829 2.77226 -2.29821 0
M  V30 540 C 58.6359 2.41065 -3.79747 0
M  V30 541 C 59.9549 3.79236 -2.23312 0
M  V30 542 H 57.0739 0.550578 -0.489931 0
M  V30 543 H 59.7159 0.866607 -1.69086 0
M  V30 544 H 57.8659 3.32784 -2.00467 0
M  V30 545 H 59.5379 1.91303 -4.19763 0
M  V30 546 H 57.7809 1.7356 -3.97567 0
M  V30 547 H 58.4519 3.3081 -4.41892 0
M  V30 548 H 60.9279 3.3321 -2.49219 0
M  V30 549 H 59.8039 4.64714 -2.92116 0
M  V30 550 H 60.0649 4.24615 -1.23102 0
M  V30 551 N 59.124 1.23083 0.984299 0
M  V30 552 C 60.034 1.02515 2.11016 0
M  V30 553 C 61.05 -0.0291702 1.73976 0
M  V30 554 O 62.226 0.165434 2.00719 0
M  V30 555 C 59.291 0.614673 3.41208 0
M  V30 556 C 58.352 1.74359 3.92297 0
M  V30 557 C 57.585 1.35261 5.16275 0
M  V30 558 O 57.808 0.235136 5.69915 0
M  V30 559 O 56.742 2.17227 5.61334 0
M  V30 560 H 60.568 1.96862 2.31255 0
M  V30 561 H 58.153 1.01753 1.09392 0
M  V30 562 H 60.035 0.396518 4.1953 0
M  V30 563 H 58.71 -0.299851 3.22308 0
M  V30 564 H 57.617 2.01635 3.1511 0
M  V30 565 H 58.95 2.63629 4.15645 0
M  V30 566 N 60.6021 -1.18246 1.0419 0
M  V30 567 C 61.5121 -2.25574 0.644476 0
M  V30 568 C 62.5281 -1.70845 -0.329826 0
M  V30 569 O 63.7041 -2.00554 -0.184443 0
M  V30 570 C 60.7691 -3.46697 0.014877 0
M  V30 571 C 59.8301 -4.16554 1.03834 0
M  V30 572 C 59.0631 -5.31894 0.438692 0
M  V30 573 O 59.2861 -5.65385 -0.754752 0
M  V30 574 O 58.2201 -5.90459 1.168 0
M  V30 575 H 62.0461 -2.61836 1.53869 0
M  V30 576 H 59.6311 -1.25352 0.812854 0
M  V30 577 H 61.5131 -4.20062 -0.335538 0
M  V30 578 H 60.1881 -3.12255 -0.853138 0
M  V30 579 H 59.0951 -3.45251 1.44057 0
M  V30 580 H 60.4281 -4.54998 1.87716 0
M  V30 581 N 62.0802 -0.821533 -1.34494 0
M  V30 582 C 62.9902 -0.244355 -2.33324 0
M  V30 583 C 64.0062 0.620527 -1.62559 0
M  V30 584 O 65.1822 0.528754 -1.94335 0
M  V30 585 C 62.2472 0.585368 -3.41723 0
M  V30 586 C 61.3082 -0.301752 -4.28238 0
M  V30 587 C 60.5412 0.488466 -5.3146 0
M  V30 588 O 60.7642 1.72186 -5.4379 0
M  V30 589 O 59.6982 -0.12848 -6.01763 0
M  V30 590 H 63.5242 -1.06231 -2.84515 0
M  V30 591 H 61.1092 -0.583645 -1.37528 0
M  V30 592 H 62.9912 1.05747 -4.07916 0
M  V30 593 H 61.6662 1.38068 -2.92778 0
M  V30 594 H 60.5732 -0.821315 -3.64973 0
M  V30 595 H 61.9062 -1.06138 -4.8062 0
M  V30 596 N 63.5583 1.46682 -0.576371 0
M  V30 597 C 64.8353 1.95599 0.00703437 0
M  V30 598 C 65.2153 1.51904 1.46589 0
M  V30 599 O 64.5633 0.766755 2.15251 0
M  V30 600 C 64.7733 3.4864 -0.158404 0
M  V30 601 C 66.1213 4.24594 -0.0229439 0
M  V30 602 O 67.1453 3.56094 -0.0869173 0
M  V30 603 O 66.0043 5.46373 0.118015 0
M  V30 604 H 63.0983 0.825275 0.053384 0
M  V30 605 H 65.6443 1.56996 -0.644244 0
M  V30 606 H 64.4163 3.7331 -1.17282 0
M  V30 607 H 64.0393 3.94057 0.5296 0
M  V30 608 N 65.0364 0.313813 1.54444 0
M  V30 609 C 66.4474 -0.176243 1.85866 0
M  V30 610 C 66.7984 -1.52405 1.23561 0
M  V30 611 O 65.9234 -2.09605 0.538016 0
M  V30 612 C 66.5184 -0.32657 3.37222 0
M  V30 613 C 65.0774 -0.760846 3.6863 0
M  V30 614 C 64.2244 0.123247 2.77026 0
M  V30 615 H 67.1754 0.534418 1.49431 0
M  V30 616 H 67.1964 -1.15908 3.62416 0
M  V30 617 H 66.7084 0.654531 3.82541 0
M  V30 618 H 64.8094 -1.75204 3.28838 0
M  V30 619 H 64.9224 -0.571353 4.75681 0
M  V30 620 H 63.2864 -0.399597 2.51546 0
M  V30 621 H 64.0694 1.10094 3.25168 0
M  V30 622 N 66.5145 -1.57545 0.0417849 0
M  V30 623 C 67.7615 -1.92317 -0.634082 0
M  V30 624 C 68.0895 -0.919334 -1.71402 0
M  V30 625 O 67.3445 0.0698253 -1.95575 0
M  V30 626 C 67.6435 -3.33794 -1.27735 0
M  V30 627 C 67.3095 -4.49716 -0.326543 0
M  V30 628 C 65.9715 -4.81156 -0.0648814 0
M  V30 629 C 68.3235 -5.20182 0.325623 0
M  V30 630 C 65.6515 -5.80414 0.856539 0
M  V30 631 C 68.0035 -6.20424 1.23518 0
M  V30 632 C 66.6675 -6.50298 1.5056 0
M  V30 633 H 65.9375 -0.703736 -0.232027 0
M  V30 634 H 68.5845 -1.91205 0.106259 0
M  V30 635 H 66.8895 -3.31228 -2.09274 0
M  V30 636 H 68.5865 -3.57975 -1.80707 0
M  V30 637 H 65.1765 -4.25176 -0.540665 0
M  V30 638 H 69.3605 -4.96112 0.136546 0
M  V30 639 H 64.6165 -6.019 1.07363 0
M  V30 640 H 68.7905 -6.74141 1.74664 0
M  V30 641 H 66.4175 -7.27025 2.22123 0
M  V30 642 N 67.9926 0.231505 -1.5589 0
M  V30 643 C 69.2396 0.957352 -1.78441 0
M  V30 644 C 69.5676 1.84726 -0.60882 0
M  V30 645 O 68.8226 1.91416 0.40725 0
M  V30 646 C 69.1216 1.83577 -3.0665 0
M  V30 647 C 68.7876 1.09993 -4.37278 0
M  V30 648 C 67.4496 0.896629 -4.72773 0
M  V30 649 C 69.8016 0.579558 -5.17968 0
M  V30 650 C 67.1296 0.160896 -5.86479 0
M  V30 651 C 69.4816 -0.142783 -6.32439 0
M  V30 652 C 68.1456 -0.357427 -6.66542 0
M  V30 653 H 67.4156 0.35032 -0.65296 0
M  V30 654 H 70.0626 0.226259 -1.90159 0
M  V30 655 H 68.3676 2.63441 -2.90011 0
M  V30 656 H 70.0646 2.39934 -3.21298 0
M  V30 657 H 66.6546 1.26835 -4.09403 0
M  V30 658 H 70.8386 0.724125 -4.90989 0
M  V30 659 H 66.0946 -0.0157293 -6.11398 0
M  V30 660 H 70.2686 -0.553559 -6.94196 0
M  V30 661 H 67.8956 -0.929466 -7.54497 0
M  V30 662 N 69.4707 1.49531 0.497807 0
M  V30 663 C 70.4177 1.66436 1.59899 0
M  V30 664 C 71.3877 0.505793 1.58212 0
M  V30 665 O 72.5727 0.733202 1.7615 0
M  V30 666 C 69.7127 1.7399 2.98029 0
M  V30 667 C 68.8257 3.01172 3.09708 0
M  V30 668 C 67.9607 2.99686 4.38591 0
M  V30 669 C 66.9997 4.21434 4.43914 0
M  V30 670 N 66.1367 4.1784 5.64229 0
M  V30 671 H 70.9767 2.60459 1.44793 0
M  V30 672 H 68.5137 1.29137 0.704423 0
M  V30 673 H 70.4717 1.76352 3.78095 0
M  V30 674 H 69.1017 0.834301 3.11832 0
M  V30 675 H 68.1537 3.08408 2.22685 0
M  V30 676 H 69.4657 3.91165 3.09502 0
M  V30 677 H 68.6197 3.00628 5.2698 0
M  V30 678 H 67.3587 2.07477 4.41367 0
M  V30 679 H 66.3637 4.20733 3.53926 0
M  V30 680 H 67.5887 5.14839 4.42851 0
M  V30 681 H 65.5347 3.28469 5.67841 0
M  V30 682 H 65.4517 5.01571 5.65652 0
M  V30 683 H 66.7197 4.22889 6.54817 0
M  V30 684 N 70.9488 -0.749086 1.3866 0
M  V30 685 C 72.1948 -1.51056 1.35314 0
M  V30 686 C 72.5278 -1.94121 -0.0553751 0
M  V30 687 O 71.8028 -1.65763 -1.01749 0
M  V30 688 C 72.0858 -2.76003 2.31288 0
M  V30 689 C 71.9388 -2.39047 3.8102 0
M  V30 690 C 73.2578 -3.78046 2.2532 0
M  V30 691 H 70.3768 -0.547972 0.492844 0
M  V30 692 H 73.0188 -0.857628 1.69543 0
M  V30 693 H 71.1688 -3.31716 2.02229 0
M  V30 694 H 72.8408 -1.89074 4.20771 0
M  V30 695 H 71.0838 -1.71449 3.98482 0
M  V30 696 H 71.7548 -3.28462 4.4364 0
M  V30 697 H 74.2308 -3.31884 2.50983 0
M  V30 698 H 73.1068 -4.63159 2.94576 0
M  V30 699 H 73.3678 -4.23957 1.25352 0
M  V30 700 N 72.4269 -1.23603 -0.977757 0
M  V30 701 C 73.8379 -1.06424 -1.53398 0
M  V30 702 C 74.1889 0.367578 -1.92726 0
M  V30 703 O 73.3139 1.25465 -1.76316 0
M  V30 704 C 73.9089 -1.92568 -2.78753 0
M  V30 705 C 72.4679 -1.79642 -3.30765 0
M  V30 706 C 71.6149 -1.88111 -2.03739 0
M  V30 707 H 74.5659 -1.37227 -0.797152 0
M  V30 708 H 74.5869 -1.45203 -3.51705 0
M  V30 709 H 74.0989 -2.96771 -2.50098 0
M  V30 710 H 72.1999 -0.782325 -3.64294 0
M  V30 711 H 72.3129 -2.63174 -4.00345 0
M  V30 712 H 70.6769 -1.31723 -2.17994 0
M  V30 713 H 71.4599 -2.93875 -1.77461 0
M  V30 714 N 73.905 1.17692 -1.04816 0
M  V30 715 C 75.151 1.88137 -0.75711 0
M  V30 716 C 75.484 1.80604 0.713841 0
M  V30 717 O 74.759 1.21146 1.52164 0
M  V30 718 C 75.042 3.38318 -1.2334 0
M  V30 719 C 74.895 3.54622 -2.76701 0
M  V30 720 C 76.214 4.32214 -0.829415 0
M  V30 721 H 73.333 0.683163 -0.27651 0
M  V30 722 H 75.975 1.38424 -1.30149 0
M  V30 723 H 74.125 3.80787 -0.770286 0
M  V30 724 H 75.797 3.21194 -3.31107 0
M  V30 725 H 74.04 2.97026 -3.16161 0
M  V30 726 H 74.711 4.60028 -3.05088 0
M  V30 727 H 77.187 3.97565 -1.22805 0
M  V30 728 H 76.063 5.35838 -1.19033 0
M  V30 729 H 76.324 4.41294 0.266891 0
M  V30 730 N 75.3831 0.828654 1.34056 0
M  V30 731 C 76.3311 0.242973 2.31327 0
M  V30 732 C 77.3251 -0.61944 1.57668 0
M  V30 733 O 78.5311 -0.51014 1.7262 0
M  V30 734 H 74.9061 0.059834 0.749616 0
M  V30 735 H 76.8771 1.07809 2.78244 0
M  V30 736 C 75.6261 -0.575733 3.429 0
M  V30 737 H 74.9491 0.0785582 3.99723 0
M  V30 738 H 76.3891 -0.951547 4.13185 0
M  V30 739 C 74.8481 -1.75044 2.87856 0
M  V30 740 O 75.3781 -2.84882 2.83205 0
M  V30 741 N 73.5841 -1.56903 2.44602 0
M  V30 742 H 73.1311 -0.675547 2.48584 0
M  V30 743 H 73.0891 -2.35652 2.08124 0
M  V30 744 N 76.8612 -1.46375 0.584142 0
M  V30 745 C 77.8082 -2.30323 -0.148286 0
M  V30 746 C 78.7782 -1.40703 -0.882713 0
M  V30 747 O 79.9632 -1.69651 -0.873099 0
M  V30 748 C 77.1032 -3.25196 -1.15507 0
M  V30 749 C 76.2162 -4.29915 -0.423943 0
M  V30 750 C 75.3512 -5.11914 -1.41838 0
M  V30 751 C 74.3902 -6.08381 -0.673736 0
M  V30 752 N 73.5272 -6.83242 -1.6163 0
M  V30 753 H 78.3672 -2.92427 0.573644 0
M  V30 754 H 75.9042 -1.44118 0.294703 0
M  V30 755 H 77.8622 -3.78646 -1.75166 0
M  V30 756 H 76.4922 -2.64898 -1.8447 0
M  V30 757 H 75.5442 -3.7931 0.287714 0
M  V30 758 H 76.8562 -4.98549 0.158128 0
M  V30 759 H 76.0102 -5.69648 -2.08773 0
M  V30 760 H 74.7492 -4.43243 -2.03438 0
M  V30 761 H 73.7542 -5.49799 0.00938483 0
M  V30 762 H 74.9792 -6.79071 -0.0631082 0
M  V30 763 H 72.9252 -6.1728 -2.22038 0
M  V30 764 H 72.8422 -7.48144 -1.08707 0
M  V30 765 H 74.1102 -7.45534 -2.27596 0
M  V30 766 N 78.3393 -0.321999 -1.54275 0
M  V30 767 C 79.2693 0.537411 -2.27231 0
M  V30 768 C 80.2503 1.12064 -1.27968 0
M  V30 769 O 81.4353 1.14606 -1.56777 0
M  V30 770 C 78.5653 1.69919 -3.02894 0
M  V30 771 C 77.5193 1.24534 -4.09482 0
M  V30 772 C 76.8453 2.49394 -4.72977 0
M  V30 773 C 78.1453 0.361335 -5.21049 0
M  V30 774 H 79.8393 -0.0711406 -2.99315 0
M  V30 775 H 77.3853 -0.0356555 -1.43956 0
M  V30 776 H 79.3383 2.30668 -3.52662 0
M  V30 777 H 78.0623 2.33431 -2.28424 0
M  V30 778 H 76.7213 0.660782 -3.60596 0
M  V30 779 H 76.3693 3.11265 -3.95124 0
M  V30 780 H 76.0693 2.19718 -5.44975 0
M  V30 781 H 77.5933 3.10908 -5.25517 0
M  V30 782 H 79.0073 0.875072 -5.66582 0
M  V30 783 H 77.4043 0.157428 -5.99893 0
M  V30 784 H 78.4743 -0.60822 -4.8107 0
M  V30 785 N 79.8174 1.5752 -0.0501392 0
M  V30 786 C 80.7804 2.1037 0.909786 0
M  V30 787 C 81.7804 1.02308 1.24056 0
M  V30 788 O 82.9704 1.28385 1.17741 0
M  V30 789 C 80.1024 2.58708 2.21998 0
M  V30 790 H 81.2954 2.96479 0.451665 0
M  V30 791 H 78.8484 1.55038 0.198248 0
M  V30 792 H 79.5834 1.75989 2.72394 0
M  V30 793 H 79.3684 3.37675 1.99295 0
M  V30 794 H 80.8584 2.99747 2.9076 0
M  V30 795 N 81.2955 -0.223234 1.56011 0
M  V30 796 C 82.2585 -1.26014 1.9145 0
M  V30 797 C 83.2585 -1.3989 0.792937 0
M  V30 798 O 84.4485 -1.38184 1.0607 0
M  V30 799 C 81.5805 -2.63422 2.16383 0
M  V30 800 H 82.7735 -0.95796 2.84189 0
M  V30 801 H 80.3265 -0.463576 1.49267 0
M  V30 802 H 81.0615 -2.98741 1.2619 0
M  V30 803 H 80.8465 -2.54728 2.98088 0
M  V30 804 H 82.3365 -3.38249 2.44903 0
M  V30 805 N 82.7736 -1.49793 -0.48987 0
M  V30 806 C 83.7366 -1.66752 -1.57246 0
M  V30 807 C 84.7366 -0.538867 -1.51502 0
M  V30 808 O 85.9266 -0.805545 -1.54456 0
M  V30 809 C 83.0586 -1.67528 -2.96896 0
M  V30 810 H 84.2516 -2.63321 -1.43534 0
M  V30 811 H 81.8046 -1.38992 -0.714914 0
M  V30 812 H 82.5396 -0.725837 -3.16073 0
M  V30 813 H 82.3246 -2.49504 -3.02473 0
M  V30 814 H 83.8146 -1.82667 -3.7553 0
M  V30 815 N 84.2517 0.741722 -1.39055 0
M  V30 816 C 85.4977 1.50336 -1.36113 0
M  V30 817 C 85.8307 1.94148 0.0450796 0
M  V30 818 O 85.1057 1.66301 1.00868 0
M  V30 819 C 85.3887 2.74773 -2.32749 0
M  V30 820 C 85.2417 2.37023 -3.82283 0
M  V30 821 C 86.5607 3.76846 -2.27322 0
M  V30 822 H 83.6797 0.545351 -0.495743 0
M  V30 823 H 86.3217 0.848624 -1.69995 0
M  V30 824 H 84.4717 3.30639 -2.03986 0
M  V30 825 H 86.1437 1.8684 -4.21768 0
M  V30 826 H 84.3867 1.69334 -3.99385 0
M  V30 827 H 85.0577 3.26104 -4.45376 0
M  V30 828 H 87.5337 3.30548 -2.5274 0
M  V30 829 H 86.4097 4.6159 -2.97028 0
M  V30 830 H 86.6707 4.23286 -1.27599 0
M  V30 831 N 85.7298 1.2412 0.971189 0
M  V30 832 C 86.9548 1.10667 1.75407 0
M  V30 833 C 87.3798 -0.337048 1.85056 0
M  V30 834 O 86.7378 -1.24396 1.31892 0
M  V30 835 C 86.7858 1.74726 3.15441 0
M  V30 836 O 85.8898 1.01566 3.99697 0
M  V30 837 H 85.2308 0.387341 0.539317 0
M  V30 838 H 87.7608 1.64358 1.2185 0
M  V30 839 H 87.7708 1.80341 3.6598 0
M  V30 840 H 86.4458 2.79773 3.07734 0
M  V30 841 H 85.0228 1.03713 3.58187 0
M  V30 842 N 87.2079 -1.17134 1.05439 0
M  V30 843 C 88.1559 -2.23289 0.651511 0
M  V30 844 C 89.1499 -1.66186 -0.328411 0
M  V30 845 O 90.3559 -1.78949 -0.194206 0
M  V30 846 H 86.7309 -0.726938 0.192523 0
M  V30 847 H 88.7019 -2.54565 1.55689 0
M  V30 848 C 87.4509 -3.47671 0.0448436 0
M  V30 849 H 86.7739 -3.91918 0.78996 0
M  V30 850 H 88.2139 -4.2353 -0.19964 0
M  V30 851 C 86.6729 -3.14453 -1.20918 0
M  V30 852 O 87.2029 -3.29459 -2.29825 0
M  V30 853 N 85.4089 -2.68657 -1.10779 0
M  V30 854 H 84.9559 -2.56646 -0.221526 0
M  V30 855 H 84.9139 -2.46804 -1.9477 0
M  V30 856 N 88.686 -0.835752 -1.33615 0
M  V30 857 C 89.933 -0.429959 -1.97883 0
M  V30 858 C 90.261 1.01006 -1.66217 0
M  V30 859 O 89.516 1.72047 -0.93265 0
M  V30 860 C 89.815 -0.593925 -3.52431 0
M  V30 861 C 89.481 -2.00158 -4.04039 0
M  V30 862 C 88.143 -2.38662 -4.17844 0
M  V30 863 C 90.495 -2.92117 -4.31644 0
M  V30 864 C 87.823 -3.68435 -4.56588 0
M  V30 865 C 90.175 -4.21368 -4.71838 0
M  V30 866 C 88.839 -4.59833 -4.83849 0
M  V30 867 H 88.109 -0.157333 -0.724104 0
M  V30 868 H 90.756 -1.06217 -1.59343 0
M  V30 869 H 89.061 0.121619 -3.91611 0
M  V30 870 H 90.758 -0.260282 -4.00154 0
M  V30 871 H 87.348 -1.69252 -3.93766 0
M  V30 872 H 91.532 -2.63608 -4.20505 0
M  V30 873 H 86.788 -3.98046 -4.64079 0
M  V30 874 H 90.962 -4.92703 -4.92155 0
M  V30 875 H 88.589 -5.60438 -5.13627 0
M  V30 876 N 90.1641 1.46063 -0.591896 0
M  V30 877 C 91.4121 2.01938 -0.0808391 0
M  V30 878 C 91.7331 1.46475 1.28725 0
M  V30 879 O 91.0031 0.652944 1.84698 0
M  V30 880 H 89.5831 0.746516 -0.0268938 0
M  V30 881 H 92.2451 1.79055 -0.769752 0
M  V30 882 H 91.3411 3.12094 -0.0187578 0
M  V30 883 N 91.6422 0.330177 1.54103 0
M  V30 884 C 92.8722 -0.271784 2.04805 0
M  V30 885 C 93.2802 -1.45816 1.20559 0
M  V30 886 O 92.6232 -1.82247 0.2306 0
M  V30 887 C 92.6852 -0.763238 3.51305 0
M  V30 888 C 92.3492 0.301705 4.56003 0
M  V30 889 C 93.3462 1.13999 5.07248 0
M  V30 890 C 91.0312 0.451793 5.00264 0
M  V30 891 C 93.0252 2.11402 6.01322 0
M  V30 892 C 90.7122 1.42924 5.94151 0
M  V30 893 C 91.7102 2.25882 6.44567 0
M  V30 894 O 91.3982 3.21965 7.3661 0
M  V30 895 H 91.1302 -0.058693 0.673447 0
M  V30 896 H 93.6842 0.476395 1.99799 0
M  V30 897 H 91.9142 -1.56244 3.5373 0
M  V30 898 H 93.6032 -1.28427 3.85047 0
M  V30 899 H 94.3692 1.03505 4.73827 0
M  V30 900 H 90.2482 -0.184044 4.60632 0
M  V30 901 H 93.7922 2.76192 6.40596 0
M  V30 902 H 89.6892 1.53479 6.26988 0
M  V30 903 H 90.4572 3.17281 7.54503 0
M  V30 904 N 93.1203 -1.57491 0.0584922 0
M  V30 905 C 94.3973 -1.84346 -0.653918 0
M  V30 906 C 94.7773 -0.948355 -1.88599 0
M  V30 907 O 94.1253 -0.0112403 -2.28497 0
M  V30 908 C 94.3353 -3.34239 -1.00425 0
M  V30 909 C 95.6833 -4.01431 -1.38342 0
M  V30 910 O 96.7073 -3.38907 -1.09637 0
M  V30 911 O 95.5663 -5.11683 -1.91943 0
M  V30 912 H 92.6603 -0.761112 -0.323478 0
M  V30 913 H 95.2063 -1.6947 0.0884125 0
M  V30 914 H 93.9783 -3.91089 -0.128625 0
M  V30 915 H 93.6013 -3.54329 -1.80378 0
M  V30 916 N 94.5984 0.214957 -1.56127 0
M  V30 917 C 95.5284 1.2695 -1.95974 0
M  V30 918 C 96.5094 1.48539 -0.828868 0
M  V30 919 O 97.6944 1.60611 -1.09168 0
M  V30 920 C 94.8244 2.61794 -2.28214 0
M  V30 921 C 93.7784 2.54851 -3.43853 0
M  V30 922 C 93.1044 3.93785 -3.61715 0
M  V30 923 C 94.4044 2.09065 -4.78632 0
M  V30 924 H 96.0984 0.93846 -2.84312 0
M  V30 925 H 93.6444 0.449996 -1.36788 0
M  V30 926 H 95.5974 3.35731 -2.54682 0
M  V30 927 H 94.3214 2.96599 -1.36736 0
M  V30 928 H 92.9804 1.8337 -3.17444 0
M  V30 929 H 92.6284 4.25908 -2.67602 0
M  V30 930 H 92.3284 3.90019 -4.39498 0
M  V30 931 H 93.8524 4.69374 -3.90539 0
M  V30 932 H 95.2664 2.7275 -5.04262 0
M  V30 933 H 93.6634 2.16346 -5.59745 0
M  V30 934 H 94.7334 1.04315 -4.73547 0
M  V30 935 N 96.0765 1.50051 0.48192 0
M  V30 936 C 97.3065 1.63999 1.2565 0
M  V30 937 C 97.7145 0.318288 1.86504 0
M  V30 938 O 97.0575 -0.708534 1.69486 0
M  V30 939 C 97.1195 2.66504 2.4128 0
M  V30 940 C 96.7835 4.10352 2.01148 0
M  V30 941 C 97.7805 4.96562 1.54021 0
M  V30 942 C 95.4655 4.56203 2.10199 0
M  V30 943 C 97.4595 6.26668 1.16473 0
M  V30 944 C 95.1465 5.86318 1.72264 0
M  V30 945 C 96.1445 6.71375 1.25477 0
M  V30 946 O 95.8325 7.99062 0.880626 0
M  V30 947 H 95.5645 0.55456 0.386574 0
M  V30 948 H 98.1185 1.96954 0.582944 0
M  V30 949 H 96.3485 2.28769 3.11772 0
M  V30 950 H 98.0375 2.69783 3.03268 0
M  V30 951 H 98.8035 4.62358 1.46458 0
M  V30 952 H 94.6825 3.90152 2.45566 0
M  V30 953 H 98.2265 6.93011 0.798841 0
M  V30 954 H 94.1235 6.20046 1.79482 0
M  V30 955 H 94.8915 8.12239 1.01043 0
M  V30 956 N 97.5546 -0.734337 1.39446 0
M  V30 957 C 98.9706 -1.03997 1.21065 0
M  V30 958 C 99.1706 -2.01369 0.0727019 0
M  V30 959 O 98.2266 -2.45856 -0.575426 0
M  V30 960 C 99.5396 -1.60163 2.54496 0
M  V30 961 C 101.088 -1.7224 2.61347 0
M  V30 962 C 101.563 -2.31814 3.95002 0
M  V30 963 N 103.054 -2.39223 3.96644 0
M  V30 964 C 103.789 -2.86258 4.96834 0
M  V30 965 N 103.285 -3.33184 6.07421 0
M  V30 966 N 105.078 -2.85473 4.84213 0
M  V30 967 H 97.2286 -0.0885624 2.12215 0
M  V30 968 H 99.4916 -0.10191 0.942506 0
M  V30 969 H 99.1976 -0.960811 3.38321 0
M  V30 970 H 99.0716 -2.5896 2.74262 0
M  V30 971 H 101.459 -2.35443 1.77906 0
M  V30 972 H 101.54 -0.720939 2.4543 0
M  V30 973 H 101.184 -1.69238 4.78875 0
M  V30 974 H 101.114 -3.32638 4.08239 0
M  V30 975 H 103.605 -2.06057 3.16779 0
M  V30 976 H 103.918 -3.67586 6.7978 0
M  V30 977 H 102.263 -3.31191 6.11013 0
M  V30 978 H 105.454 -2.48136 3.96921 0
M  V30 979 H 105.627 -3.21814 5.62441 0
M  V30 980 N 99.0327 -1.24633 -0.964593 0
M  V30 981 C 100.279 -1.08949 -1.71049 0
M  V30 982 C 100.612 0.370302 -1.90637 0
M  V30 983 O 99.8867 1.27349 -1.47011 0
M  V30 984 C 100.17 -1.83329 -3.0994 0
M  V30 985 C 100.023 -3.37077 -2.97824 0
M  V30 986 C 101.342 -1.60846 -4.09654 0
M  V30 987 H 98.4607 -0.397178 -0.620821 0
M  V30 988 H 101.103 -1.5334 -1.12191 0
M  V30 989 H 99.2527 -1.45597 -3.60186 0
M  V30 990 H 100.925 -3.84425 -2.5498 0
M  V30 991 H 99.1677 -3.65298 -2.33965 0
M  V30 992 H 99.8387 -3.84324 -3.96231 0
M  V30 993 H 102.315 -1.93674 -3.68279 0
M  V30 994 H 101.191 -2.1534 -5.04896 0
M  V30 995 H 101.452 -0.547434 -4.38698 0
M  V30 996 N 100.511 1.16574 -1.06058 0
M  V30 997 C 101.927 1.3904 -0.783585 0
M  V30 998 C 102.127 1.91784 0.618145 0
M  V30 999 O 101.183 2.11511 1.37911 0
M  V30 1000 C 102.496 2.37329 -1.84649 0
M  V30 1001 C 104.044 2.51018 -1.86973 0
M  V30 1002 C 104.519 3.52588 -2.92311 0
M  V30 1003 N 106.01 3.60113 -2.91329 0
M  V30 1004 C 106.745 4.38486 -3.69482 0
M  V30 1005 N 106.241 5.20302 -4.57447 0
M  V30 1006 N 108.034 4.33446 -3.57885 0
M  V30 1007 H 100.185 0.806725 -1.96483 0
M  V30 1008 H 102.448 0.417117 -0.851303 0
M  V30 1009 H 102.154 2.05663 -2.85299 0
M  V30 1010 H 102.028 3.36946 -1.6955 0
M  V30 1011 H 104.415 2.81989 -0.869827 0
M  V30 1012 H 104.496 1.51445 -2.0615 0
M  V30 1013 H 104.14 3.22354 -3.92492 0
M  V30 1014 H 104.07 4.51886 -2.70383 0
M  V30 1015 H 106.561 3.01707 -2.27555 0
M  V30 1016 H 106.874 5.77311 -5.13743 0
M  V30 1017 H 105.219 5.19653 -4.61503 0
M  V30 1018 H 108.41 3.68586 -2.88551 0
M  V30 1019 H 108.583 4.94279 -4.19037 0
M  V30 1020 N 101.989 0.842826 1.3317 0
M  V30 1021 C 103.214 0.453129 2.02389 0
M  V30 1022 C 103.639 -0.939105 1.6298 0
M  V30 1023 O 102.997 -1.61472 0.8244 0
M  V30 1024 C 103.045 0.586094 3.55805 0
M  V30 1025 O 102.149 -0.386029 4.10589 0
M  V30 1026 H 101.49 0.183664 0.638094 0
M  V30 1027 H 104.02 1.13875 1.69981 0
M  V30 1028 H 104.03 0.469209 4.05293 0
M  V30 1029 H 102.705 1.6014 3.83833 0
M  V30 1030 H 101.282 -0.226371 3.72212 0
M  V30 1031 N 103.467 -1.45747 0.599634 0
M  V30 1032 C 104.692 -2.07178 0.0960198 0
M  V30 1033 C 105.117 -1.44268 -1.207 0
M  V30 1034 O 104.475 -0.532503 -1.73303 0
M  V30 1035 C 104.523 -3.60579 -0.0385348 0
M  V30 1036 O 103.627 -3.97713 -1.0908 0
M  V30 1037 H 102.968 -0.660251 0.0704593 0
M  V30 1038 H 105.498 -1.87124 0.827385 0
M  V30 1039 H 105.508 -4.07298 -0.239304 0
M  V30 1040 H 104.183 -4.05756 0.912947 0
M  V30 1041 H 102.76 -3.62678 -0.867135 0
M  V30 1042 N 104.945 -0.338344 -1.53925 0
M  V30 1043 C 106.173 0.261298 -2.05243 0
M  V30 1044 C 106.588 1.44625 -1.21363 0
M  V30 1045 O 105.945 1.80811 -0.247736 0
M  V30 1046 C 105.996 0.681412 -3.5502 0
M  V30 1047 O 105.717 -0.456414 -4.35716 0
M  V30 1048 C 107.218 1.34232 -4.22489 0
M  V30 1049 H 104.438 0.0513685 -0.669031 0
M  V30 1050 H 106.982 -0.488822 -1.98572 0
M  V30 1051 H 105.137 1.38148 -3.61931 0
M  V30 1052 H 105.551 -0.122564 -5.24357 0
M  V30 1053 H 107.025 1.58708 -5.28693 0
M  V30 1054 H 107.502 2.29426 -3.74514 0
M  V30 1055 H 108.108 0.684424 -4.19757 0
M  V30 1056 N 106.423 1.57458 -0.0668435 0
M  V30 1057 C 107.648 1.9804 0.616027 0
M  V30 1058 C 108.073 0.944771 1.62652 0
M  V30 1059 O 107.431 -0.0902094 1.81075 0
M  V30 1060 C 107.479 3.37665 1.26549 0
M  V30 1061 O 106.583 3.36701 2.38131 0
M  V30 1062 H 105.924 0.644719 0.158849 0
M  V30 1063 H 108.454 2.04121 -0.139891 0
M  V30 1064 H 108.464 3.7474 1.6135 0
M  V30 1065 H 107.139 4.12573 0.525016 0
M  V30 1066 H 105.716 3.1139 2.0516 0
M  V30 1067 N 107.901 -0.206675 1.56239 0
M  V30 1068 C 109.312 -0.772383 1.69974 0
M  V30 1069 C 109.663 -1.84353 0.671436 0
M  V30 1070 O 108.788 -2.15695 -0.174491 0
M  V30 1071 C 109.383 -1.40779 3.08167 0
M  V30 1072 C 107.942 -1.92072 3.23706 0
M  V30 1073 C 107.089 -0.786347 2.65917 0
M  V30 1074 H 110.04 0.0182223 1.5869 0
M  V30 1075 H 110.061 -2.27696 3.04852 0
M  V30 1076 H 109.573 -0.627958 3.82986 0
M  V30 1077 H 107.674 -2.7281 2.53782 0
M  V30 1078 H 107.787 -2.09046 4.31087 0
M  V30 1079 H 106.151 -1.1976 2.24788 0
M  V30 1080 H 106.934 -0.0189416 3.43295 0
M  V30 1081 N 109.379 -1.50304 -0.473955 0
M  V30 1082 C 110.607 -1.64902 -1.24959 0
M  V30 1083 C 111.022 -0.331198 -1.85872 0
M  V30 1084 O 110.379 0.68652 -1.69095 0
M  V30 1085 C 110.43 -2.73803 -2.36038 0
M  V30 1086 O 110.151 -4.00477 -1.77624 0
M  V30 1087 C 111.652 -2.99349 -3.26964 0
M  V30 1088 H 108.872 -0.554383 -0.378022 0
M  V30 1089 H 111.416 -1.9651 -0.566054 0
M  V30 1090 H 109.571 -2.44898 -3.00173 0
M  V30 1091 H 109.985 -4.60678 -2.5075 0
M  V30 1092 H 111.459 -3.79217 -4.01121 0
M  V30 1093 H 111.936 -2.10307 -3.85574 0
M  V30 1094 H 112.542 -3.29774 -2.68569 0
M  V30 1095 N 110.857 0.726932 -1.39834 0
M  V30 1096 C 112.085 1.51613 -1.40787 0
M  V30 1097 C 112.5 1.88799 -0.00451505 0
M  V30 1098 O 111.857 1.54662 0.968809 0
M  V30 1099 C 111.908 2.79863 -2.28821 0
M  V30 1100 O 111.629 2.44253 -3.63692 0
M  V30 1101 C 113.13 3.73837 -2.38245 0
M  V30 1102 H 110.35 0.468264 -0.480593 0
M  V30 1103 H 112.894 0.897607 -1.83748 0
M  V30 1104 H 111.049 3.38027 -1.89252 0
M  V30 1105 H 111.463 3.26695 -4.1033 0
M  V30 1106 H 112.937 4.60699 -3.04073 0
M  V30 1107 H 113.414 4.16153 -1.40403 0
M  V30 1108 H 114.02 3.21589 -2.78317 0
M  V30 1109 N 112.336 1.25143 0.95797 0
M  V30 1110 C 113.284 1.05019 2.07542 0
M  V30 1111 C 114.278 -0.0178751 1.69391 0
M  V30 1112 O 115.484 0.137472 1.79474 0
M  V30 1113 H 111.859 0.32265 0.679265 0
M  V30 1114 H 113.83 1.99759 2.21673 0
M  V30 1115 C 112.579 0.682074 3.40944 0
M  V30 1116 H 111.902 1.49573 3.70767 0
M  V30 1117 H 113.342 0.580945 4.20001 0
M  V30 1118 C 111.801 -0.611608 3.31302 0
M  V30 1119 O 112.331 -1.65465 3.66038 0
M  V30 1120 N 110.537 -0.595982 2.84423 0
M  V30 1121 H 110.084 0.253192 2.56353 0
M  V30 1122 H 110.042 -1.46173 2.78354 0
M  V30 1123 N 113.814 -1.1601 1.06675 0
M  V30 1124 C 115.06 -1.86909 0.786945 0
M  V30 1125 C 115.393 -1.81717 -0.685018 0
M  V30 1126 O 114.668 -1.23551 -1.50218 0
M  V30 1127 C 114.951 -3.36313 1.28707 0
M  V30 1128 C 114.804 -3.50175 2.82308 0
M  V30 1129 C 116.123 -4.3084 0.898071 0
M  V30 1130 H 113.242 -0.678677 0.287343 0
M  V30 1131 H 115.884 -1.36336 1.32334 0
M  V30 1132 H 114.034 -3.79513 0.830768 0
M  V30 1133 H 115.706 -3.15886 3.36175 0
M  V30 1134 H 113.949 -2.91959 3.20847 0
M  V30 1135 H 114.62 -4.55116 3.12368 0
M  V30 1136 H 117.096 -3.95561 1.29114 0
M  V30 1137 H 115.972 -5.33876 1.27543 0
M  V30 1138 H 116.233 -4.41662 -0.196651 0
M  V30 1139 N 115.292 -0.849877 -1.32721 0
M  V30 1140 C 116.222 -0.306308 -2.31482 0
M  V30 1141 C 117.203 0.591952 -1.59468 0
M  V30 1142 O 118.388 0.513199 -1.87296 0
M  V30 1143 C 115.518 0.510204 -3.43532 0
M  V30 1144 C 114.472 -0.293209 -4.26994 0
M  V30 1145 C 113.798 0.647743 -5.30762 0
M  V30 1146 C 115.098 -1.51634 -4.99804 0
M  V30 1147 H 116.792 -1.13153 -2.77195 0
M  V30 1148 H 114.338 -0.545553 -1.33266 0
M  V30 1149 H 116.291 0.900856 -4.11658 0
M  V30 1150 H 115.015 1.36874 -2.96535 0
M  V30 1151 H 113.674 -0.665555 -3.60508 0
M  V30 1152 H 113.322 1.50299 -4.8002 0
M  V30 1153 H 113.022 0.11422 -5.87489 0
M  V30 1154 H 114.546 1.03567 -6.01753 0
M  V30 1155 H 115.96 -1.19824 -5.60638 0
M  V30 1156 H 114.357 -1.98745 -5.66234 0
M  V30 1157 H 115.427 -2.28018 -4.27943 0
M  V30 1158 N 116.77 1.45427 -0.607355 0
M  V30 1159 C 117.7 2.3329 0.0989352 0
M  V30 1160 C 118.681 1.46816 0.859007 0
M  V30 1161 O 119.866 1.75588 0.829604 0
M  V30 1162 C 116.996 3.29518 1.09705 0
M  V30 1163 C 115.95 4.25626 0.450206 0
M  V30 1164 C 115.276 5.11542 1.55655 0
M  V30 1165 C 116.576 5.18505 -0.628455 0
M  V30 1166 H 118.27 2.92595 -0.634716 0
M  V30 1167 H 115.816 1.40696 -0.306681 0
M  V30 1168 H 117.769 3.89855 1.59971 0
M  V30 1169 H 116.493 2.68372 1.86129 0
M  V30 1170 H 115.152 3.66586 -0.0315886 0
M  V30 1171 H 114.8 4.46765 2.31107 0
M  V30 1172 H 114.5 5.76647 1.12925 0
M  V30 1173 H 116.024 5.74748 2.06148 0
M  V30 1174 H 117.438 5.72916 -0.209877 0
M  V30 1175 H 115.835 5.92085 -0.977489 0
M  V30 1176 H 116.905 4.60948 -1.50514 0
M  V30 1177 N 118.248 0.346503 1.53744 0
M  V30 1178 C 119.473 -0.253074 2.0585 0
M  V30 1179 C 119.898 -1.43202 1.21962 0
M  V30 1180 O 119.256 -1.79783 0.234073 0
M  V30 1181 C 119.304 -0.643193 3.54817 0
M  V30 1182 O 118.408 -1.74286 3.73762 0
M  V30 1183 H 117.749 -0.0413583 0.662711 0
M  V30 1184 H 120.279 0.501574 1.98357 0
M  V30 1185 H 120.289 -0.919526 3.97503 0
M  V30 1186 H 118.964 0.218966 4.15323 0
M  V30 1187 H 117.541 -1.46356 3.42979 0
M  V30 1188 N 119.726 -1.57421 0.075193 0
M  V30 1189 C 121.137 -1.81021 -0.456964 0
M  V30 1190 C 121.488 -0.98936 -1.69429 0
M  V30 1191 O 120.613 -0.212865 -2.15351 0
M  V30 1192 C 121.208 -3.28329 -0.83581 0
M  V30 1193 C 119.767 -3.52764 -1.31281 0
M  V30 1194 C 118.914 -2.75676 -0.299648 0
M  V30 1195 H 121.865 -1.55822 0.300856 0
M  V30 1196 H 121.886 -3.40564 -1.69696 0
M  V30 1197 H 121.398 -3.88046 0.0649238 0
M  V30 1198 H 119.499 -2.98355 -2.23193 0
M  V30 1199 H 119.612 -4.61451 -1.28839 0
M  V30 1200 H 117.976 -2.42538 -0.777641 0
M  V30 1201 H 118.759 -3.38132 0.593417 0
M  V30 1202 N 121.204 0.198386 -1.56346 0
M  V30 1203 C 122.134 1.24865 -1.9731 0
M  V30 1204 C 123.115 1.47651 -0.844576 0
M  V30 1205 O 124.3 1.59444 -1.10866 0
M  V30 1206 C 121.43 2.59358 -2.30977 0
M  V30 1207 C 120.384 2.5119 -3.46537 0
M  V30 1208 C 119.71 3.89926 -3.65871 0
M  V30 1209 C 121.01 2.03977 -4.80823 0
M  V30 1210 H 122.704 0.908252 -2.85291 0
M  V30 1211 H 120.25 0.435462 -1.37258 0
M  V30 1212 H 122.203 3.33011 -2.58228 0
M  V30 1213 H 120.927 2.95132 -1.39874 0
M  V30 1214 H 119.586 1.79993 -3.19371 0
M  V30 1215 H 119.234 4.23046 -2.72105 0
M  V30 1216 H 118.934 3.85336 -4.4361 0
M  V30 1217 H 120.458 4.65205 -3.95495 0
M  V30 1218 H 121.872 2.67386 -5.07127 0
M  V30 1219 H 120.269 2.10397 -5.62008 0
M  V30 1220 H 121.339 0.992861 -4.74626 0
M  V30 1221 N 122.682 1.50554 0.465978 0
M  V30 1222 C 123.907 1.65838 1.24549 0
M  V30 1223 C 124.332 0.343486 1.84937 0
M  V30 1224 O 123.69 -0.69324 1.67523 0
M  V30 1225 C 123.738 2.75533 2.32624 0
M  V30 1226 O 122.842 2.37142 3.37398 0
M  V30 1227 H 122.183 0.553893 0.366194 0
M  V30 1228 H 124.713 1.96959 0.553927 0
M  V30 1229 H 124.723 2.98763 2.77857 0
M  V30 1230 H 123.398 3.70962 1.88043 0
M  V30 1231 H 121.975 2.24377 2.97841 0
M  V30 1232 N 124.16 -0.719506 1.40217 0
M  V30 1233 C 125.406 -1.48152 1.38488 0
M  V30 1234 C 125.739 -1.94195 -0.0141867 0
M  V30 1235 O 125.014 -1.67884 -0.982096 0
M  V30 1236 C 125.297 -2.71035 2.37091 0
M  V30 1237 C 125.15 -2.30912 3.86005 0
M  V30 1238 C 126.469 -3.73182 2.33288 0
M  V30 1239 H 123.588 -0.537395 0.504357 0
M  V30 1240 H 126.23 -0.821472 1.71324 0
M  V30 1241 H 124.38 -3.27352 2.0922 0
M  V30 1242 H 126.052 -1.80107 4.24687 0
M  V30 1243 H 124.295 -1.62958 4.02029 0
M  V30 1244 H 124.966 -3.18978 4.50508 0
M  V30 1245 H 127.442 -3.26485 2.57966 0
M  V30 1246 H 126.318 -4.56806 3.04334 0
M  V30 1247 H 126.579 -4.21202 1.34317 0
M  V30 1248 N 125.638 -1.25649 -0.95132 0
M  V30 1249 C 126.601 -1.06399 -2.03007 0
M  V30 1250 C 127.601 -0.0156794 -1.60792 0
M  V30 1251 O 128.791 -0.25817 -1.72276 0
M  V30 1252 C 125.923 -0.616184 -3.35285 0
M  V30 1253 H 127.116 -2.02164 -2.21517 0
M  V30 1254 H 124.669 -1.08103 -1.12887 0
M  V30 1255 H 125.404 0.343917 -3.22471 0
M  V30 1256 H 125.189 -1.37301 -3.67275 0
M  V30 1257 H 126.679 -0.503032 -4.14559 0
M  V30 1258 N 127.117 1.15442 -1.07289 0
M  V30 1259 C 128.345 1.90096 -0.81676 0
M  V30 1260 C 128.76 1.7798 0.629966 0
M  V30 1261 O 128.117 1.1313 1.43206 0
M  V30 1262 C 128.168 3.40466 -1.21512 0
M  V30 1263 O 127.889 3.52232 -2.60508 0
M  V30 1264 C 129.39 4.32145 -0.988198 0
M  V30 1265 H 126.61 0.602495 -0.295366 0
M  V30 1266 H 129.154 1.4627 -1.42918 0
M  V30 1267 H 127.309 3.81958 -0.647039 0
M  V30 1268 H 127.723 4.45549 -2.76742 0
M  V30 1269 H 129.197 5.36072 -1.31645 0
M  V30 1270 H 129.674 4.39135 0.0755063 0
M  V30 1271 H 130.28 3.96395 -1.54115 0
M  V30 1272 N 128.595 0.856903 1.32268 0
M  V30 1273 C 129.558 0.308171 2.27119 0
M  V30 1274 C 130.558 -0.533421 1.51695 0
M  V30 1275 O 131.748 -0.344607 1.70757 0
M  V30 1276 C 128.88 -0.563757 3.36206 0
M  V30 1277 H 130.073 1.14535 2.77167 0
M  V30 1278 H 127.626 0.631421 1.42978 0
M  V30 1279 H 128.361 -1.42266 2.91429 0
M  V30 1280 H 128.146 0.0386749 3.92081 0
M  V30 1281 H 129.636 -0.940386 4.06874 0
M  V30 1282 N 130.073 -1.45103 0.615059 0
M  V30 1283 C 131.003 -2.33339 -0.0865619 0
M  V30 1284 C 131.984 -1.4727 -0.851209 0
M  V30 1285 O 133.169 -1.76026 -0.820281 0
M  V30 1286 C 130.299 -3.30095 -1.07956 0
M  V30 1287 C 129.253 -4.25858 -0.427628 0
M  V30 1288 C 128.579 -5.12361 -1.5294 0
M  V30 1289 C 129.879 -5.18165 0.655944 0
M  V30 1290 H 131.573 -2.92254 0.650224 0
M  V30 1291 H 129.119 -1.40532 0.314138 0
M  V30 1292 H 131.072 -3.90698 -1.57901 0
M  V30 1293 H 129.796 -2.69355 -1.84703 0
M  V30 1294 H 128.455 -3.66564 0.0510292 0
M  V30 1295 H 128.103 -4.47984 -2.28734 0
M  V30 1296 H 127.803 -5.77238 -1.09865 0
M  V30 1297 H 129.327 -5.75833 -2.03098 0
M  V30 1298 H 130.741 -5.72796 0.240257 0
M  V30 1299 H 129.138 -5.91559 1.00888 0
M  V30 1300 H 130.208 -4.60144 1.52957 0
M  V30 1301 N 131.551 -0.354651 -1.53558 0
M  V30 1302 C 132.776 0.242153 -2.05981 0
M  V30 1303 C 133.201 1.42553 -1.2272 0
M  V30 1304 O 132.559 1.79656 -0.243604 0
M  V30 1305 C 132.607 0.624367 -3.55154 0
M  V30 1306 O 131.711 1.72301 -3.74681 0
M  V30 1307 H 131.052 0.0378432 -0.662921 0
M  V30 1308 H 133.582 -0.512087 -1.98088 0
M  V30 1309 H 133.592 0.898433 -3.97985 0
M  V30 1310 H 132.267 -0.240989 -4.15201 0
M  V30 1311 H 130.844 1.44535 -3.4375 0
M  V30 1312 N 133.029 1.57378 -0.0835403 0
M  V30 1313 C 133.992 2.12252 0.864959 0
M  V30 1314 C 134.992 1.04916 1.21858 0
M  V30 1315 O 136.182 1.30853 1.14991 0
M  V30 1316 C 133.314 2.63358 2.16461 0
M  V30 1317 H 134.507 2.97371 0.388676 0
M  V30 1318 H 132.06 1.55423 0.165317 0
M  V30 1319 H 132.795 1.81727 2.686 0
M  V30 1320 H 132.58 3.41826 1.92087 0
M  V30 1321 H 134.07 3.05847 2.84337 0
M  V30 1322 N 134.507 -0.190092 1.56449 0
M  V30 1323 C 135.437 -1.23816 1.97969 0
M  V30 1324 C 136.418 -1.47201 0.852395 0
M  V30 1325 O 137.603 -1.58854 1.1171 0
M  V30 1326 C 134.733 -2.5813 2.3235 0
M  V30 1327 C 133.687 -2.49348 3.47864 0
M  V30 1328 C 133.013 -3.8798 3.67934 0
M  V30 1329 C 134.313 -2.01424 4.81898 0
M  V30 1330 H 136.007 -0.89311 2.85769 0
M  V30 1331 H 133.553 -0.428177 1.37487 0
M  V30 1332 H 135.506 -3.31637 2.59991 0
M  V30 1333 H 134.23 -2.94386 1.41438 0
M  V30 1334 H 132.889 -1.78297 3.20321 0
M  V30 1335 H 132.537 -4.21597 2.74344 0
M  V30 1336 H 132.237 -3.82978 4.45648 0
M  V30 1337 H 133.761 -4.63101 3.97957 0
M  V30 1338 H 135.175 -2.64693 5.08538 0
M  V30 1339 H 133.572 -2.07413 5.63116 0
M  V30 1340 H 134.642 -0.967677 4.75146 0
M  V30 1341 N 135.985 -1.50799 -0.457987 0
M  V30 1342 C 137.21 -1.66496 -1.23668 0
M  V30 1343 C 137.635 -0.353288 -1.84752 0
M  V30 1344 O 136.993 0.684346 -1.67888 0
M  V30 1345 C 137.041 -2.76763 -2.3116 0
M  V30 1346 O 136.145 -2.38928 -3.36136 0
M  V30 1347 H 135.486 -0.555828 -0.363252 0
M  V30 1348 H 138.016 -1.9725 -0.543474 0
M  V30 1349 H 138.026 -3.00232 -2.76269 0
M  V30 1350 H 136.701 -3.71954 -1.86073 0
M  V30 1351 H 135.278 -2.25953 -2.96647 0
M  V30 1352 N 137.463 0.71206 -1.40597 0
M  V30 1353 C 138.393 1.83889 -1.43899 0
M  V30 1354 C 139.374 1.67442 -0.299504 0
M  V30 1355 O 140.559 1.87421 -0.508624 0
M  V30 1356 C 137.689 3.21877 -1.30431 0
M  V30 1357 C 136.643 3.53002 -2.42019 0
M  V30 1358 C 135.969 4.90172 -2.13626 0
M  V30 1359 C 137.269 3.53643 -3.84362 0
M  V30 1360 H 138.963 1.81383 -2.38203 0
M  V30 1361 H 136.509 0.871237 -1.14654 0
M  V30 1362 H 138.462 4.00404 -1.31357 0
M  V30 1363 H 137.186 3.24968 -0.326049 0
M  V30 1364 H 135.845 2.76818 -2.40349 0
M  V30 1365 H 135.493 4.89869 -1.14182 0
M  V30 1366 H 135.193 5.11962 -2.88389 0
M  V30 1367 H 136.717 5.71028 -2.1624 0
M  V30 1368 H 138.131 4.22203 -3.87837 0
M  V30 1369 H 136.528 3.86961 -4.58673 0
M  V30 1370 H 137.598 2.52954 -4.13693 0
M  V30 1371 N 138.941 1.26152 0.944643 0
M  V30 1372 C 140.189 1.11271 1.6871 0
M  V30 1373 C 140.51 -0.345166 1.91921 0
M  V30 1374 O 139.78 -1.24387 1.51343 0
M  V30 1375 H 138.36 0.408783 0.625224 0
M  V30 1376 H 141.022 1.58427 1.1352 0
M  V30 1377 H 140.118 1.62879 2.66227 0
M  V30 1378 N 140.419 -1.14872 1.07899 0
M  V30 1379 C 141.382 -2.17986 0.708161 0
M  V30 1380 C 142.382 -1.58775 -0.25442 0
M  V30 1381 O 143.572 -1.74166 -0.034645 0
M  V30 1382 C 140.704 -3.40871 0.0446929 0
M  V30 1383 H 141.897 -2.52306 1.62116 0
M  V30 1384 H 139.45 -1.2943 0.876218 0
M  V30 1385 H 140.185 -3.12124 -0.880281 0
M  V30 1386 H 139.97 -3.8511 0.737091 0
M  V30 1387 H 141.46 -4.17121 -0.19991 0
M  V30 1388 N 141.898 -0.863906 -1.31812 0
M  V30 1389 C 142.808 -0.318461 -2.32428 0
M  V30 1390 C 143.824 0.568496 -1.64451 0
M  V30 1391 O 145 0.46666 -1.95919 0
M  V30 1392 C 142.065 0.476355 -3.43412 0
M  V30 1393 C 141.126 -0.43784 -4.27061 0
M  V30 1394 C 140.359 0.319138 -5.32745 0
M  V30 1395 O 140.582 1.54799 -5.48993 0
M  V30 1396 O 139.516 -0.319861 -6.01049 0
M  V30 1397 H 143.342 -1.15229 -2.80991 0
M  V30 1398 H 140.927 -0.627103 -1.35602 0
M  V30 1399 H 142.809 0.927156 -4.11074 0
M  V30 1400 H 141.484 1.28683 -2.97022 0
M  V30 1401 H 140.391 -0.937013 -3.62175 0
M  V30 1402 H 141.724 -1.21375 -4.77 0
M  V30 1403 N 143.376 1.44774 -0.622745 0
M  V30 1404 C 144.308 2.28856 0.125485 0
M  V30 1405 C 145.321 1.40811 0.817069 0
M  V30 1406 O 146.51 1.65044 0.679918 0
M  V30 1407 C 143.61 3.16963 1.19949 0
M  V30 1408 C 142.783 4.33374 0.592064 0
M  V30 1409 C 141.842 5.02577 1.55893 0
M  V30 1410 O 140.868 5.58873 1.07933 0
M  V30 1411 N 142.07 5.03256 2.89334 0
M  V30 1412 H 144.835 2.93713 -0.596068 0
M  V30 1413 H 142.396 1.55129 -0.463303 0
M  V30 1414 H 144.388 3.60123 1.84644 0
M  V30 1415 H 142.958 2.53913 1.82337 0
M  V30 1416 H 142.178 3.93509 -0.233322 0
M  V30 1417 H 143.466 5.08527 0.166738 0
M  V30 1418 H 142.864 4.58836 3.30887 0
M  V30 1419 H 141.421 5.50232 3.49412 0
M  V30 1420 N 144.854 0.36279 1.53368 0
M  V30 1421 C 146.27 0.0116182 1.59596 0
M  V30 1422 C 146.47 -1.47012 1.37803 0
M  V30 1423 O 145.526 -2.23136 1.18181 0
M  V30 1424 C 146.839 0.465052 2.97082 0
M  V30 1425 C 148.387 0.419033 3.10182 0
M  V30 1426 C 148.862 0.848235 4.50077 0
M  V30 1427 N 150.353 0.803183 4.56183 0
M  V30 1428 C 151.088 1.107 5.62613 0
M  V30 1429 N 150.584 1.47996 6.76808 0
M  V30 1430 N 152.377 1.02998 5.52583 0
M  V30 1431 H 144.528 1.32775 1.65785 0
M  V30 1432 H 146.791 0.542518 0.777417 0
M  V30 1433 H 146.497 1.49892 3.18159 0
M  V30 1434 H 146.371 -0.149786 3.76902 0
M  V30 1435 H 148.758 -0.605696 2.88817 0
M  V30 1436 H 148.839 1.06933 2.32377 0
M  V30 1437 H 148.483 1.87107 4.7218 0
M  V30 1438 H 148.413 0.175218 5.26308 0
M  V30 1439 H 150.904 0.52838 3.74188 0
M  V30 1440 H 151.217 1.69613 7.53957 0
M  V30 1441 H 149.562 1.51859 6.78206 0
M  V30 1442 H 152.753 0.737817 4.62249 0
M  V30 1443 H 152.926 1.2701 6.35431 0
M  V30 1444 N 146.332 -1.57332 0.0918853 0
M  V30 1445 C 147.56 -1.98574 -0.581048 0
M  V30 1446 C 147.975 -0.970903 -1.61923 0
M  V30 1447 O 147.332 0.0399054 -1.82456 0
M  V30 1448 C 147.383 -3.39872 -1.23164 0
M  V30 1449 O 147.104 -4.37469 -0.234989 0
M  V30 1450 C 148.605 -3.96099 -1.99049 0
M  V30 1451 H 145.825 -0.65261 -0.156018 0
M  V30 1452 H 148.369 -2.0379 0.170225 0
M  V30 1453 H 146.524 -3.35679 -1.93386 0
M  V30 1454 H 146.938 -5.19751 -0.70418 0
M  V30 1455 H 148.412 -4.97127 -2.39934 0
M  V30 1456 H 148.889 -3.3374 -2.85507 0
M  V30 1457 H 149.495 -4.03755 -1.3365 0
M  V30 1458 N 147.81 0.181792 -1.56548 0
M  V30 1459 C 148.72 1.24538 -1.98815 0
M  V30 1460 C 149.736 1.49045 -0.897861 0
M  V30 1461 O 150.912 1.61399 -1.20467 0
M  V30 1462 C 147.977 2.56683 -2.33055 0
M  V30 1463 C 147.038 2.40131 -3.55859 0
M  V30 1464 C 146.271 3.65975 -3.88456 0
M  V30 1465 O 146.494 4.70711 -3.22161 0
M  V30 1466 O 145.428 3.6071 -4.81842 0
M  V30 1467 H 149.254 0.916647 -2.89536 0
M  V30 1468 H 146.839 0.387842 -1.44278 0
M  V30 1469 H 148.721 3.34655 -2.56094 0
M  V30 1470 H 147.396 2.89157 -1.45498 0
M  V30 1471 H 146.303 1.60226 -3.38051 0
M  V30 1472 H 147.636 2.12585 -4.43924 0
M  V30 1473 N 149.288 1.51039 0.449983 0
M  V30 1474 C 150.513 1.6715 1.22783 0
M  V30 1475 C 150.938 0.363081 1.84563 0
M  V30 1476 O 150.296 -0.675433 1.68249 0
M  V30 1477 C 150.344 2.77985 2.29689 0
M  V30 1478 O 149.448 2.40707 3.34864 0
M  V30 1479 H 148.789 0.557746 0.360299 0
M  V30 1480 H 151.319 1.97535 0.533005 0
M  V30 1481 H 151.329 3.01693 2.74673 0
M  V30 1482 H 150.004 3.72935 1.84098 0
M  V30 1483 H 148.581 2.27523 2.95445 0
M  V30 1484 N 150.766 -0.704594 1.40972 0
M  V30 1485 C 152.015 -1.46018 1.39146 0
M  V30 1486 C 152.328 -1.956 0.000589254 0
M  V30 1487 O 153.534 -2.71137 -0.1403 0
M  V30 1488 C 151.99 -2.63996 2.4461 0
M  V30 1489 C 151.598 -2.21238 3.89561 0
M  V30 1490 C 153.342 -3.41677 2.51907 0
M  V30 1491 C 151.249 -3.3612 4.86598 0
M  V30 1492 H 150.179 -0.548444 0.517422 0
M  V30 1493 H 152.83 -0.765784 1.66757 0
M  V30 1494 H 151.212 -3.3566 2.10115 0
M  V30 1495 H 152.386 -1.56923 4.33257 0
M  V30 1496 H 150.701 -1.56574 3.85841 0
M  V30 1497 H 153.298 -4.27182 3.2159 0
M  V30 1498 H 153.641 -3.86247 1.55303 0
M  V30 1499 H 154.174 -2.77064 2.85448 0
M  V30 1500 H 150.913 -2.96572 5.84573 0
M  V30 1501 H 150.433 -3.99315 4.47557 0
M  V30 1502 H 152.112 -4.02029 5.06934 0
M  V30 1503 N 152.244 -1.26651 -0.937939 0
M  V30 1504 C 153.493 -1.11775 -1.67897 0
M  V30 1505 C 153.806 0.33794 -1.92659 0
M  V30 1506 O 155.012 0.607434 -2.64618 0
M  V30 1507 C 153.468 -1.9523 -3.02346 0
M  V30 1508 C 153.076 -3.45393 -2.8532 0
M  V30 1509 C 154.82 -1.88972 -3.80118 0
M  V30 1510 C 152.727 -4.21083 -4.15263 0
M  V30 1511 H 151.657 -0.414696 -0.629717 0
M  V30 1512 H 154.308 -1.50988 -1.04283 0
M  V30 1513 H 152.69 -1.48853 -3.66959 0
M  V30 1514 H 153.864 -3.99561 -2.29537 0
M  V30 1515 H 152.179 -3.52921 -2.20988 0
M  V30 1516 H 154.776 -2.42805 -4.76392 0
M  V30 1517 H 155.119 -0.86113 -4.07296 0
M  V30 1518 H 155.652 -2.33189 -3.22285 0
M  V30 1519 H 152.391 -5.24425 -3.93267 0
M  V30 1520 H 151.911 -3.71695 -4.70747 0
M  V30 1521 H 153.59 -4.29706 -4.83696 0
M  V30 1522 N 153.722 1.14298 -1.08507 0
M  V30 1523 C 154.672 2.17449 -0.685569 0
M  V30 1524 C 155.656 1.58167 0.295315 0
M  V30 1525 O 156.848 1.76675 0.107172 0
M  V30 1526 C 153.977 3.43161 -0.0975318 0
M  V30 1527 C 153.063 4.09471 -1.10426 0
M  V30 1528 N 153.454 4.51089 -2.28806 0
M  V30 1529 C 151.752 4.35976 -0.940258 0
M  V30 1530 C 152.453 5.02654 -2.9277 0
M  V30 1531 N 151.429 4.96927 -2.20374 0
M  V30 1532 H 155.231 2.47369 -1.587 0
M  V30 1533 H 152.745 1.30992 -0.959936 0
M  V30 1534 H 154.742 4.16388 0.20664 0
M  V30 1535 H 153.402 3.14719 0.798872 0
M  V30 1536 H 154.413 4.44097 -2.66455 0
M  V30 1537 H 151.09 4.17386 -0.0977441 0
M  V30 1538 H 152.48 5.44723 -3.93352 0
M  V30 1539 N 155.201 0.870884 1.31352 0
M  V30 1540 C 156.617 0.562932 1.49343 0
M  V30 1541 C 156.817 -0.902725 1.80148 0
M  V30 1542 O 155.873 -1.68484 1.88067 0
M  V30 1543 C 157.186 1.46393 2.62659 0
M  V30 1544 C 158.734 1.46607 2.76542 0
M  V30 1545 C 159.209 2.35266 3.92955 0
M  V30 1546 N 160.7 2.33151 4.00243 0
M  V30 1547 C 161.435 2.98471 4.89594 0
M  V30 1548 N 160.931 3.72964 5.8384 0
M  V30 1549 N 162.724 2.87775 4.82848 0
M  V30 1550 H 154.875 1.81923 1.09626 0
M  V30 1551 H 157.138 0.777934 0.541777 0
M  V30 1552 H 156.844 2.50689 2.46674 0
M  V30 1553 H 156.718 1.16314 3.58819 0
M  V30 1554 H 159.105 0.43069 2.9194 0
M  V30 1555 H 159.186 1.8071 1.81046 0
M  V30 1556 H 158.83 3.38881 3.78315 0
M  V30 1557 H 158.76 1.98487 4.87761 0
M  V30 1558 H 161.251 1.79006 3.32814 0
M  V30 1559 H 161.564 4.19932 6.4875 0
M  V30 1560 H 159.909 3.77073 5.83816 0
M  V30 1561 H 163.1 2.29116 4.08195 0
M  V30 1562 H 163.273 3.38961 5.52277 0
M  V30 1563 N 156.679 -1.44442 0.630414 0
M  V30 1564 C 157.642 -2.29107 -0.0652523 0
M  V30 1565 C 158.642 -1.41002 -0.772995 0
M  V30 1566 O 159.832 -1.62881 -0.617692 0
M  V30 1567 C 156.964 -3.22564 -1.10296 0
M  V30 1568 H 158.157 -2.92103 0.679401 0
M  V30 1569 H 155.71 -1.51343 0.390517 0
M  V30 1570 H 156.445 -2.64416 -1.87762 0
M  V30 1571 H 156.23 -3.87491 -0.59941 0
M  V30 1572 H 157.72 -3.86167 -1.5895 0
M  V30 1573 N 158.157 -0.370918 -1.53173 0
M  V30 1574 C 159.087 0.464847 -2.28826 0
M  V30 1575 C 160.068 1.07936 -1.31468 0
M  V30 1576 O 161.253 1.0956 -1.60344 0
M  V30 1577 C 158.383 1.60196 -3.08147 0
M  V30 1578 C 157.337 1.11443 -4.13237 0
M  V30 1579 C 156.663 2.3422 -4.80672 0
M  V30 1580 C 157.963 0.195384 -5.21934 0
M  V30 1581 H 159.657 -0.166329 -2.98938 0
M  V30 1582 H 157.203 -0.0814359 -1.4377 0
M  V30 1583 H 159.156 2.19332 -3.59822 0
M  V30 1584 H 157.88 2.26045 -2.35735 0
M  V30 1585 H 156.539 0.545727 -3.62515 0
M  V30 1586 H 156.187 2.98537 -4.04827 0
M  V30 1587 H 155.887 2.02269 -5.51689 0
M  V30 1588 H 157.411 2.94032 -5.35143 0
M  V30 1589 H 158.825 0.694375 -5.69079 0
M  V30 1590 H 157.222 -0.0335027 -6.00091 0
M  V30 1591 H 158.292 -0.760961 -4.78892 0
M  V30 1592 N 159.635 1.57281 -0.100228 0
M  V30 1593 C 160.865 1.98591 0.569681 0
M  V30 1594 C 161.273 0.978315 1.61943 0
M  V30 1595 O 160.616 -0.0396108 1.83657 0
M  V30 1596 C 160.678 3.36282 1.271 0
M  V30 1597 C 160.342 4.55488 0.371409 0
M  V30 1598 C 161.339 5.18491 -0.382504 0
M  V30 1599 C 159.024 5.01474 0.287965 0
M  V30 1600 C 161.018 6.25852 -1.20779 0
M  V30 1601 C 158.705 6.08701 -0.540965 0
M  V30 1602 C 159.703 6.70755 -1.28749 0
M  V30 1603 O 159.391 7.75914 -2.10269 0
M  V30 1604 H 159.123 0.65752 0.156982 0
M  V30 1605 H 161.677 2.0463 -0.177734 0
M  V30 1606 H 159.907 3.26941 2.0651 0
M  V30 1607 H 161.596 3.62005 1.83595 0
M  V30 1608 H 162.362 4.83891 -0.3278 0
M  V30 1609 H 158.241 4.52932 0.858689 0
M  V30 1610 H 161.785 6.74218 -1.79096 0
M  V30 1611 H 157.682 6.42732 -0.597131 0
M  V30 1612 H 158.45 7.92925 -2.03007 0
M  V30 1613 N 161.113 -0.173488 1.56642 0
M  V30 1614 C 162.343 -0.904781 1.85734 0
M  V30 1615 C 162.751 -1.76431 0.68328 0
M  V30 1616 O 162.094 -1.802 -0.356865 0
M  V30 1617 C 162.156 -1.83382 3.09211 0
M  V30 1618 C 161.82 -1.15411 4.42187 0
M  V30 1619 C 162.817 -0.520609 5.17287 0
M  V30 1620 C 160.502 -1.15151 4.88923 0
M  V30 1621 C 162.496 0.106412 6.37311 0
M  V30 1622 C 160.183 -0.520664 6.08878 0
M  V30 1623 C 161.181 0.107196 6.82916 0
M  V30 1624 O 160.869 0.728102 8.00596 0
M  V30 1625 H 160.601 -0.268408 0.62043 0
M  V30 1626 H 163.155 -0.179096 2.04618 0
M  V30 1627 H 161.385 -2.59976 2.86268 0
M  V30 1628 H 163.074 -2.43476 3.24768 0
M  V30 1629 H 163.84 -0.514606 4.82262 0
M  V30 1630 H 159.719 -1.62961 4.31236 0
M  V30 1631 H 163.263 0.597081 6.9504 0
M  V30 1632 H 159.16 -0.524242 6.43368 0
M  V30 1633 H 159.928 0.627138 8.16094 0
M  V30 1634 N 162.591 -1.51276 -0.441967 0
M  V30 1635 C 163.868 -1.54252 -1.20273 0
M  V30 1636 C 164.248 -0.30408 -2.08898 0
M  V30 1637 O 163.596 0.711084 -2.17154 0
M  V30 1638 C 163.806 -2.85406 -2.00859 0
M  V30 1639 C 165.154 -3.37181 -2.58059 0
M  V30 1640 O 166.178 -2.86925 -2.11074 0
M  V30 1641 O 165.037 -4.24858 -3.43741 0
M  V30 1642 H 162.131 -0.619969 -0.547328 0
M  V30 1643 H 164.677 -1.63586 -0.451413 0
M  V30 1644 H 163.449 -3.67003 -1.35736 0
M  V30 1645 H 163.072 -2.79213 -2.83065 0
M  V30 1646 N 164.069 0.697108 -1.41344 0
M  V30 1647 C 164.999 1.82353 -1.45841 0
M  V30 1648 C 165.98 1.67115 -0.317247 0
M  V30 1649 O 167.165 1.86871 -0.528474 0
M  V30 1650 C 164.295 3.20476 -1.33838 0
M  V30 1651 C 163.249 3.50415 -2.4575 0
M  V30 1652 C 162.575 4.87878 -2.18813 0
M  V30 1653 C 163.875 3.49546 -3.88091 0
M  V30 1654 H 165.569 1.78846 -2.40113 0
M  V30 1655 H 163.115 0.859028 -1.15571 0
M  V30 1656 H 165.068 3.98988 -1.35596 0
M  V30 1657 H 163.792 3.24604 -0.360498 0
M  V30 1658 H 162.451 2.74253 -2.43271 0
M  V30 1659 H 162.099 4.8863 -1.19371 0
M  V30 1660 H 161.799 5.08875 -2.93803 0
M  V30 1661 H 163.323 5.68702 -2.22284 0
M  V30 1662 H 164.737 4.18066 -3.92293 0
M  V30 1663 H 163.134 3.82075 -4.62751 0
M  V30 1664 H 164.204 2.48552 -4.16353 0
M  V30 1665 N 165.547 1.27147 0.931209 0
M  V30 1666 C 166.796 1.12664 1.67302 0
M  V30 1667 C 167.109 -0.327718 1.92835 0
M  V30 1668 O 168.315 -0.593392 2.64936 0
M  V30 1669 C 166.771 1.9683 3.01307 0
M  V30 1670 C 166.379 3.46901 2.83485 0
M  V30 1671 C 168.123 1.90985 3.79111 0
M  V30 1672 C 166.03 4.23279 4.13024 0
M  V30 1673 H 164.96 0.41803 0.627509 0
M  V30 1674 H 167.611 1.51539 1.03481 0
M  V30 1675 H 165.993 1.50797 3.66164 0
M  V30 1676 H 167.167 4.00773 2.27415 0
M  V30 1677 H 165.482 3.54088 2.19113 0
M  V30 1678 H 168.079 2.45328 4.75098 0
M  V30 1679 H 168.422 0.882718 4.06834 0
M  V30 1680 H 168.955 2.34895 3.21044 0
M  V30 1681 H 165.694 5.26503 3.90481 0
M  V30 1682 H 165.214 3.74186 4.6877 0
M  V30 1683 H 166.893 4.32265 4.81411 0
M  V30 1684 N 167.025 -1.13721 1.09112 0
M  V30 1685 C 168.25 -1.89314 0.847053 0
M  V30 1686 C 168.675 -1.78416 -0.595774 0
M  V30 1687 O 168.033 -1.12942 -1.41823 0
M  V30 1688 C 168.081 -3.3701 1.28284 0
M  V30 1689 O 167.185 -4.10054 0.439267 0
M  V30 1690 H 166.526 -0.588745 0.307044 0
M  V30 1691 H 169.056 -1.43902 1.45442 0
M  V30 1692 H 169.066 -3.87834 1.26683 0
M  V30 1693 H 167.741 -3.4426 2.33363 0
M  V30 1694 H 166.318 -3.69266 0.519312 0
M  V30 1695 N 168.503 -0.877838 -1.30888 0
M  V30 1696 C 169.728 -0.506629 -2.01117 0
M  V30 1697 C 170.153 0.895564 -1.65412 0
M  V30 1698 O 169.511 1.5923 -0.866922 0
M  V30 1699 C 169.559 -0.680223 -3.54126 0
M  V30 1700 O 168.663 0.277033 -4.11468 0
M  V30 1701 H 168.004 -0.200518 -0.633 0
M  V30 1702 H 170.534 -1.18342 -1.66902 0
M  V30 1703 H 170.544 -0.5765 -4.03907 0
M  V30 1704 H 169.219 -1.70261 -3.79452 0
M  V30 1705 H 167.796 0.127606 -3.72682 0
M  V30 1706 N 169.982 1.44106 -0.638065 0
M  V30 1707 C 171.393 1.85316 -0.226894 0
M  V30 1708 C 171.744 1.53399 1.22324 0
M  V30 1709 O 170.869 0.975463 1.93167 0
M  V30 1710 C 171.464 3.3637 -0.405013 0
M  V30 1711 C 170.023 3.76369 -0.0482902 0
M  V30 1712 C 169.17 2.67921 -0.715108 0
M  V30 1713 H 172.121 1.34474 -0.842764 0
M  V30 1714 H 172.142 3.7885 0.354 0
M  V30 1715 H 171.654 3.59569 -1.46053 0
M  V30 1716 H 169.755 3.58784 1.00522 0
M  V30 1717 H 169.868 4.76856 -0.463187 0
M  V30 1718 H 168.232 2.54259 -0.149753 0
M  V30 1719 H 169.015 2.93951 -1.77335 0
M  V30 1720 N 171.46 0.379036 1.52974 0
M  V30 1721 C 172.737 -0.263479 1.93817 0
M  V30 1722 C 173.117 -1.65244 1.31368 0
M  V30 1723 O 172.465 -2.23448 0.477856 0
M  V30 1724 C 172.675 -0.300166 3.47707 0
M  V30 1725 C 174.023 -0.534061 4.21228 0
M  V30 1726 O 175.047 -0.38081 3.54159 0
M  V30 1727 O 173.906 -0.833501 5.40106 0
M  V30 1728 H 171 -0.161149 0.811147 0
M  V30 1729 H 173.546 0.432798 1.64088 0
M  V30 1730 H 172.318 0.673138 3.85467 0
M  V30 1731 H 171.941 -1.04179 3.83709 0
M  V30 1732 N 172.938 -1.57226 0.108567 0
M  V30 1733 C 174.187 -1.94008 -0.551703 0
M  V30 1734 C 174.5 -0.993442 -1.68494 0
M  V30 1735 O 175.706 -1.25551 -2.40726 0
M  V30 1736 C 174.162 -3.44763 -1.03279 0
M  V30 1737 C 173.77 -4.47943 0.0714193 0
M  V30 1738 C 175.514 -3.90483 -1.66503 0
M  V30 1739 C 173.421 -5.89865 -0.425779 0
M  V30 1740 H 172.351 -0.724206 -0.209863 0
M  V30 1741 H 175.002 -1.82547 0.186741 0
M  V30 1742 H 173.384 -3.51422 -1.82533 0
M  V30 1743 H 174.558 -4.52942 0.847365 0
M  V30 1744 H 172.873 -4.11913 0.609669 0
M  V30 1745 H 175.47 -4.93925 -2.04798 0
M  V30 1746 H 175.813 -3.29877 -2.53942 0
M  V30 1747 H 176.346 -3.86581 -0.938074 0
M  V30 1748 H 173.085 -6.54202 0.412316 0
M  V30 1749 H 172.605 -5.88309 -1.16843 0
M  V30 1750 H 174.284 -6.40844 -0.890397 0
M  V30 1751 N 174.416 0.165178 -1.56732 0
M  V30 1752 C 175.366 1.20917 -1.93295 0
M  V30 1753 C 176.35 1.39488 -0.801985 0
M  V30 1754 O 177.542 1.41356 -1.06525 0
M  V30 1755 C 174.671 2.54718 -2.3016 0
M  V30 1756 C 173.757 2.39815 -3.49785 0
M  V30 1757 N 174.148 1.94637 -4.66851 0
M  V30 1758 C 172.446 2.70623 -3.54513 0
M  V30 1759 C 173.147 1.92344 -5.4898 0
M  V30 1760 N 172.123 2.34978 -4.9019 0
M  V30 1761 H 175.925 0.851675 -2.81289 0
M  V30 1762 H 173.439 0.373399 -1.58049 0
M  V30 1763 H 175.436 3.30165 -2.54552 0
M  V30 1764 H 174.096 2.91265 -1.43508 0
M  V30 1765 H 175.107 1.6488 -4.90953 0
M  V30 1766 H 171.784 3.11167 -2.78354 0
M  V30 1767 H 173.174 1.5906 -6.52801 0
M  V30 1768 N 175.894 1.51508 0.433938 0
M  V30 1769 C 177.142 1.6402 1.18075 0
M  V30 1770 C 177.463 0.360328 1.91642 0
M  V30 1771 O 176.733 -0.623945 1.85698 0
M  V30 1772 H 175.313 0.6045 0.43885 0
M  V30 1773 H 177.975 1.88452 0.497178 0
M  V30 1774 H 177.071 2.46949 1.90847 0
M  V30 1775 N 177.372 -0.689602 1.41712 0
M  V30 1776 C 178.6 -1.47827 1.44758 0
M  V30 1777 C 179.015 -1.88721 0.0545703 0
M  V30 1778 O 178.372 -1.57176 -0.927463 0
M  V30 1779 C 178.423 -2.73698 2.3616 0
M  V30 1780 O 178.144 -2.34524 3.7004 0
M  V30 1781 C 179.645 -3.67389 2.48072 0
M  V30 1782 H 176.865 -0.455357 0.49284 0
M  V30 1783 H 179.409 -0.848574 1.86063 0
M  V30 1784 H 177.564 -3.32891 1.98148 0
M  V30 1785 H 177.978 -3.15701 4.18847 0
M  V30 1786 H 179.452 -4.52475 3.16181 0
M  V30 1787 H 179.929 -4.12284 1.51388 0
M  V30 1788 H 180.535 -3.14097 2.86746 0
M  V30 1789 N 178.85 -1.27639 -0.924453 0
M  V30 1790 C 180.08 -1.16819 -1.70402 0
M  V30 1791 C 180.488 0.277191 -1.87158 0
M  V30 1792 O 179.831 1.20025 -1.39067 0
M  V30 1793 C 179.893 -1.78305 -3.12166 0
M  V30 1794 C 179.557 -3.27502 -3.18734 0
M  V30 1795 C 180.554 -4.2409 -3.00738 0
M  V30 1796 C 178.239 -3.68269 -3.4159 0
M  V30 1797 C 180.233 -5.59422 -3.05492 0
M  V30 1798 C 177.92 -5.0373 -3.45977 0
M  V30 1799 C 178.918 -5.99116 -3.27946 0
M  V30 1800 O 178.606 -7.32108 -3.32074 0
M  V30 1801 H 178.338 -0.406931 -0.539799 0
M  V30 1802 H 180.892 -1.69078 -1.16626 0
M  V30 1803 H 179.122 -1.20528 -3.67437 0
M  V30 1804 H 180.811 -1.62154 -3.72103 0
M  V30 1805 H 181.577 -3.93931 -2.82919 0
M  V30 1806 H 177.456 -2.94496 -3.54673 0
M  V30 1807 H 181 -6.33852 -2.91337 0
M  V30 1808 H 176.897 -5.33543 -3.63321 0
M  V30 1809 H 177.665 -7.40598 -3.48507 0
M  V30 1810 N 180.328 1.1314 -1.09713 0
M  V30 1811 C 181.275 2.18642 -0.739196 0
M  V30 1812 C 182.245 1.63706 0.280978 0
M  V30 1813 O 183.43 1.90111 0.161946 0
M  V30 1814 C 180.57 3.44685 -0.169102 0
M  V30 1815 C 179.683 4.13711 -1.24367 0
M  V30 1816 C 178.818 5.27379 -0.636019 0
M  V30 1817 C 177.857 5.88259 -1.69169 0
M  V30 1818 N 176.994 6.93352 -1.10485 0
M  V30 1819 H 181.834 2.48607 -1.64312 0
M  V30 1820 H 179.371 1.22066 -0.820875 0
M  V30 1821 H 181.329 4.16815 0.179256 0
M  V30 1822 H 179.959 3.15161 0.698079 0
M  V30 1823 H 179.011 3.39835 -1.70927 0
M  V30 1824 H 180.323 4.55037 -2.04311 0
M  V30 1825 H 179.477 6.06238 -0.236677 0
M  V30 1826 H 178.216 4.8731 0.194928 0
M  V30 1827 H 177.221 5.08092 -2.10055 0
M  V30 1828 H 178.446 6.30399 -2.52536 0
M  V30 1829 H 176.392 6.55335 -0.295234 0
M  V30 1830 H 176.309 7.33236 -1.84121 0
M  V30 1831 H 177.577 7.76057 -0.73181 0
M  V30 1832 N 181.806 0.884767 1.30421 0
M  V30 1833 C 182.716 0.355398 2.31892 0
M  V30 1834 C 183.732 -0.542261 1.65335 0
M  V30 1835 O 184.908 -0.435432 1.96637 0
M  V30 1836 C 181.973 -0.421661 3.44126 0
M  V30 1837 C 181.034 0.505727 4.26311 0
M  V30 1838 C 180.267 -0.234343 5.33185 0
M  V30 1839 O 180.49 -1.46045 5.51386 0
M  V30 1840 O 179.424 0.415443 6.00465 0
M  V30 1841 H 183.25 1.19685 2.79122 0
M  V30 1842 H 180.835 0.648596 1.34587 0
M  V30 1843 H 182.717 -0.861641 4.12497 0
M  V30 1844 H 181.392 -1.23942 2.99032 0
M  V30 1845 H 180.299 0.994513 3.60639 0
M  V30 1846 H 181.632 1.28948 4.75009 0
M  V30 1847 N 183.284 -1.43765 0.645699 0
M  V30 1848 C 184.214 -2.33471 -0.0370477 0
M  V30 1849 C 185.195 -1.49042 -0.819779 0
M  V30 1850 O 186.38 -1.77726 -0.782758 0
M  V30 1851 C 183.51 -3.32311 -1.0093 0
M  V30 1852 C 182.464 -4.2667 -0.337201 0
M  V30 1853 C 181.79 -5.1549 -1.42037 0
M  V30 1854 C 183.09 -5.16657 0.765706 0
M  V30 1855 H 184.784 -2.90809 0.712069 0
M  V30 1856 H 182.33 -1.39834 0.343876 0
M  V30 1857 H 184.283 -3.9396 -1.49578 0
M  V30 1858 H 183.007 -2.73213 -1.78948 0
M  V30 1859 H 181.666 -3.66374 0.128771 0
M  V30 1860 H 181.314 -4.52735 -2.1918 0
M  V30 1861 H 181.014 -5.79438 -0.975966 0
M  V30 1862 H 182.538 -5.80012 -1.90838 0
M  V30 1863 H 183.952 -5.72158 0.361702 0
M  V30 1864 H 182.349 -5.89286 1.13413 0
M  V30 1865 H 183.419 -4.56796 1.62683 0
M  V30 1866 N 184.763 -0.387143 -1.52771 0
M  V30 1867 C 185.693 0.440551 -2.29306 0
M  V30 1868 C 186.674 1.06535 -1.32606 0
M  V30 1869 O 187.859 1.07853 -1.61497 0
M  V30 1870 C 184.989 1.56919 -3.09829 0
M  V30 1871 C 183.943 1.07054 -4.14395 0
M  V30 1872 C 183.269 2.29109 -4.83129 0
M  V30 1873 C 184.569 0.140015 -5.22112 0
M  V30 1874 H 186.263 -0.198026 -2.98744 0
M  V30 1875 H 183.809 -0.09668 -1.43675 0
M  V30 1876 H 185.762 2.15503 -3.62128 0
M  V30 1877 H 184.486 2.23532 -2.3812 0
M  V30 1878 H 183.145 0.507247 -3.63074 0
M  V30 1879 H 182.793 2.94227 -4.0797 0
M  V30 1880 H 182.493 1.96406 -5.53804 0
M  V30 1881 H 184.017 2.88339 -5.38231 0
M  V30 1882 H 185.431 0.633978 -5.69784 0
M  V30 1883 H 183.828 -0.0971485 -6.00021 0
M  V30 1884 H 184.898 -0.811711 -4.78058 0
M  V30 1885 N 186.241 1.57166 -0.116904 0
M  V30 1886 C 187.518 1.86645 0.585049 0
M  V30 1887 C 187.898 1.0177 1.84949 0
M  V30 1888 O 187.246 0.0960379 2.28298 0
M  V30 1889 C 187.456 3.37736 0.879507 0
M  V30 1890 C 188.804 4.06289 1.23348 0
M  V30 1891 O 189.828 3.42743 0.969836 0
M  V30 1892 O 188.687 5.18455 1.7282 0
M  V30 1893 H 185.781 0.772593 0.295007 0
M  V30 1894 H 188.327 1.69025 -0.151249 0
M  V30 1895 H 187.099 3.91296 -0.0166136 0
M  V30 1896 H 186.722 3.6078 1.67103 0
M  V30 1897 N 187.719 -0.156864 1.56817 0
M  V30 1898 C 188.947 -0.886316 1.86955 0
M  V30 1899 C 189.362 -1.75185 0.703975 0
M  V30 1900 O 188.719 -1.79555 -0.326552 0
M  V30 1901 C 188.77 -1.75117 3.16253 0
M  V30 1902 O 188.491 -0.920537 4.2832 0
M  V30 1903 C 189.992 -2.58905 3.59837 0
M  V30 1904 H 187.212 -0.25678 0.619923 0
M  V30 1905 H 189.756 -0.152615 2.0393 0
M  V30 1906 H 187.911 -2.43805 3.01062 0
M  V30 1907 H 188.325 -1.51337 5.02192 0
M  V30 1908 H 189.799 -3.1518 4.53172 0
M  V30 1909 H 190.276 -3.34472 2.84649 0
M  V30 1910 H 190.882 -1.95526 3.7769 0
M  V30 1911 N 189.197 -1.51736 -0.425897 0
M  V30 1912 C 190.443 -1.65214 -1.1761 0
M  V30 1913 C 190.776 -0.372778 -1.90589 0
M  V30 1914 O 190.051 0.628139 -1.84078 0
M  V30 1915 C 190.334 -2.86312 -2.18398 0
M  V30 1916 C 190.187 -4.24254 -1.49426 0
M  V30 1917 C 191.506 -3.02925 -3.19256 0
M  V30 1918 H 188.625 -0.601263 -0.426206 0
M  V30 1919 H 191.267 -1.8425 -0.463882 0
M  V30 1920 H 189.417 -2.70213 -2.79137 0
M  V30 1921 H 191.089 -4.52046 -0.919362 0
M  V30 1922 H 189.332 -4.26426 -0.796432 0
M  V30 1923 H 190.003 -5.05001 -2.22885 0
M  V30 1924 H 192.479 -3.1781 -2.68581 0
M  V30 1925 H 191.355 -3.89199 -3.8706 0
M  V30 1926 H 191.616 -2.15497 -3.86023 0
M  V30 1927 N 190.675 0.682077 -1.42076 0
M  V30 1928 C 191.903 1.47057 -1.4554 0
M  V30 1929 C 192.318 1.8869 -0.0645779 0
M  V30 1930 O 191.675 1.57666 0.919115 0
M  V30 1931 C 191.726 2.72442 -2.37609 0
M  V30 1932 O 191.447 2.32559 -3.71279 0
M  V30 1933 C 192.948 3.66069 -2.50017 0
M  V30 1934 H 190.168 0.452737 -0.495248 0
M  V30 1935 H 192.712 0.838695 -1.8651 0
M  V30 1936 H 190.867 3.31835 -1.9991 0
M  V30 1937 H 191.281 3.13475 -4.20516 0
M  V30 1938 H 192.755 4.50792 -3.18576 0
M  V30 1939 H 193.232 4.11476 -1.53572 0
M  V30 1940 H 193.838 3.12572 -2.88407 0
M  V30 1941 N 192.153 1.28127 0.917671 0
M  V30 1942 C 193.116 1.11744 2.00115 0
M  V30 1943 C 194.116 0.0583052 1.60694 0
M  V30 1944 O 195.306 0.303755 1.71531 0
M  V30 1945 C 192.438 0.704862 3.33533 0
M  V30 1946 H 193.631 2.07966 2.16079 0
M  V30 1947 H 191.184 1.11058 1.09981 0
M  V30 1948 H 191.919 -0.258299 3.2327 0
M  V30 1949 H 191.704 1.4699 3.63505 0
M  V30 1950 H 193.194 0.612768 4.1308 0
M  V30 1951 N 193.631 -1.12557 1.10312 0
M  V30 1952 C 195.042 -1.65574 0.862678 0
M  V30 1953 C 195.393 -1.86566 -0.607256 0
M  V30 1954 O 194.518 -1.59121 -1.46662 0
M  V30 1955 C 195.113 -3.00776 1.55947 0
M  V30 1956 C 193.672 -3.50748 1.36576 0
M  V30 1957 C 192.819 -2.25797 1.60968 0
M  V30 1958 H 195.77 -0.963552 1.26101 0
M  V30 1959 H 195.791 -3.67185 0.997753 0
M  V30 1960 H 195.303 -2.85465 2.62928 0
M  V30 1961 H 193.404 -3.71245 0.317531 0
M  V30 1962 H 193.517 -4.30289 2.10686 0
M  V30 1963 H 191.881 -2.32841 1.03234 0
M  V30 1964 H 192.664 -2.13043 2.69198 0
M  V30 1965 N 195.109 -0.891671 -1.2995 0
M  V30 1966 C 196.041 -0.320695 -2.26945 0
M  V30 1967 C 197.054 0.528497 -1.53983 0
M  V30 1968 O 198.243 0.346959 -1.75096 0
M  V30 1969 C 195.343 0.562066 -3.34207 0
M  V30 1970 C 194.516 -0.259576 -4.36629 0
M  V30 1971 C 193.575 0.554739 -5.23268 0
M  V30 1972 O 192.601 -0.0249311 -5.69195 0
M  V30 1973 N 193.803 1.8625 -5.4981 0
M  V30 1974 H 196.568 -1.15432 -2.76578 0
M  V30 1975 H 194.129 -0.755336 -1.432 0
M  V30 1976 H 196.121 1.11304 -3.89093 0
M  V30 1977 H 194.691 1.29637 -2.84452 0
M  V30 1978 H 193.911 -0.991986 -3.81514 0
M  V30 1979 H 195.199 -0.822564 -5.02107 0
M  V30 1980 H 194.597 2.35628 -5.14292 0
M  V30 1981 H 193.154 2.36078 -6.07545 0
M  V30 1982 N 196.587 1.43421 -0.653314 0
M  V30 1983 C 197.534 2.30768 0.0382271 0
M  V30 1984 C 198.504 1.44755 0.814576 0
M  V30 1985 O 199.689 1.73624 0.791162 0
M  V30 1986 C 196.829 3.30336 0.998599 0
M  V30 1987 C 195.942 4.31448 0.218342 0
M  V30 1988 C 195.077 5.18098 1.17252 0
M  V30 1989 C 194.116 6.10902 0.382702 0
M  V30 1990 N 193.253 6.90176 1.28848 0
M  V30 1991 H 198.093 2.89357 -0.712511 0
M  V30 1992 H 195.63 1.42548 -0.363128 0
M  V30 1993 H 197.588 3.86572 1.56901 0
M  V30 1994 H 196.218 2.73397 1.71621 0
M  V30 1995 H 195.27 3.77506 -0.46836 0
M  V30 1996 H 196.582 4.97227 -0.395812 0
M  V30 1997 H 195.736 5.7896 1.81356 0
M  V30 1998 H 194.475 4.52444 1.82058 0
M  V30 1999 H 193.48 5.49128 -0.27169 0
M  V30 2000 H 194.705 6.78598 -0.260957 0
M  V30 2001 H 192.651 6.27171 1.92334 0
M  V30 2002 H 192.568 7.52478 0.728887 0
M  V30 2003 H 193.836 7.55543 1.91766 0
M  V30 2004 N 198.065 0.39524 1.52563 0
M  V30 2005 C 199.013 -0.451859 2.28169 0
M  V30 2006 C 200.007 -1.05792 1.32304 0
M  V30 2007 O 201.213 -0.997718 1.49818 0
M  V30 2008 H 197.588 -0.164481 0.733792 0
M  V30 2009 H 199.559 0.207199 2.9768 0
M  V30 2010 C 198.308 -1.56385 3.10546 0
M  V30 2011 H 197.631 -1.10682 3.84174 0
M  V30 2012 H 199.071 -2.13067 3.66577 0
M  V30 2013 C 197.53 -2.52328 2.23231 0
M  V30 2014 O 198.06 -3.5588 1.86312 0
M  V30 2015 N 196.266 -2.22209 1.87274 0
M  V30 2016 H 195.813 -1.38033 2.17496 0
M  V30 2017 H 195.771 -2.86652 1.29143 0
M  V30 2018 N 199.544 -1.57102 0.125237 0
M  V30 2019 C 200.474 -2.18659 -0.819174 0
M  V30 2020 C 201.455 -1.12843 -1.27281 0
M  V30 2021 O 202.64 -1.41104 -1.33429 0
M  V30 2022 C 199.77 -2.79096 -2.06695 0
M  V30 2023 C 198.724 -3.90548 -1.75088 0
M  V30 2024 C 198.05 -4.37821 -3.06948 0
M  V30 2025 C 199.35 -5.12356 -1.01435 0
M  V30 2026 H 201.044 -2.9783 -0.306202 0
M  V30 2027 H 198.59 -1.4326 -0.145839 0
M  V30 2028 H 200.543 -3.2082 -2.73226 0
M  V30 2029 H 199.267 -1.97223 -2.60328 0
M  V30 2030 H 197.926 -3.49409 -1.10944 0
M  V30 2031 H 197.574 -3.52799 -3.58527 0
M  V30 2032 H 197.274 -5.12982 -2.86571 0
M  V30 2033 H 198.798 -4.822 -3.74587 0
M  V30 2034 H 200.212 -5.5106 -1.58132 0
M  V30 2035 H 198.609 -5.9314 -0.911319 0
M  V30 2036 H 199.679 -4.849 -0.00218681 0
M  V30 2037 N 201.022 0.148545 -1.56898 0
M  V30 2038 C 201.969 1.18345 -1.98149 0
M  V30 2039 C 202.939 1.42772 -0.848848 0
M  V30 2040 O 204.124 1.55132 -1.11079 0
M  V30 2041 C 201.264 2.51231 -2.36594 0
M  V30 2042 C 200.377 2.33991 -3.63142 0
M  V30 2043 C 199.512 3.59902 -3.90697 0
M  V30 2044 C 198.551 3.37692 -5.1052 0
M  V30 2045 N 197.688 4.5573 -5.34092 0
M  V30 2046 H 202.528 0.82467 -2.86362 0
M  V30 2047 H 200.065 0.395756 -1.41676 0
M  V30 2048 H 202.023 3.28713 -2.56912 0
M  V30 2049 H 200.653 2.85059 -1.51463 0
M  V30 2050 H 199.705 1.47572 -3.50609 0
M  V30 2051 H 201.017 2.13539 -4.5078 0
M  V30 2052 H 200.171 4.45813 -4.11505 0
M  V30 2053 H 198.91 3.83357 -3.01477 0
M  V30 2054 H 197.915 2.5017 -4.89587 0
M  V30 2055 H 199.14 3.15637 -6.0129 0
M  V30 2056 H 197.086 4.79361 -4.47827 0
M  V30 2057 H 197.003 4.38274 -6.15996 0
M  V30 2058 H 198.271 5.42858 -5.59397 0
M  V30 2059 N 202.5 1.5196 0.417844 0
M  V30 2060 C 203.725 1.69717 1.1921 0
M  V30 2061 C 204.15 0.402148 1.83751 0
M  V30 2062 O 203.508 -0.639593 1.69643 0
M  V30 2063 C 203.556 2.82794 2.2374 0
M  V30 2064 O 202.66 2.47756 3.29683 0
M  V30 2065 H 202.001 0.565263 0.348387 0
M  V30 2066 H 204.531 1.98621 0.490985 0
M  V30 2067 H 204.541 3.07452 2.68212 0
M  V30 2068 H 203.216 3.76756 1.76146 0
M  V30 2069 H 201.793 2.33739 2.90552 0
M  V30 2070 N 203.978 -0.674533 1.42435 0
M  V30 2071 C 204.941 -1.76986 1.45632 0
M  V30 2072 C 205.941 -1.5708 0.343871 0
M  V30 2073 O 207.131 -1.63367 0.604709 0
M  V30 2074 C 204.263 -3.15623 1.28822 0
M  V30 2075 H 205.456 -1.75539 2.43158 0
M  V30 2076 H 203.009 -0.884189 1.28887 0
M  V30 2077 H 203.744 -3.22696 0.322193 0
M  V30 2078 H 203.529 -3.31475 2.09444 0
M  V30 2079 H 205.019 -3.95537 1.33942 0
M  V30 2080 N 205.456 -1.28612 -0.910864 0
M  V30 2081 C 206.681 -1.1891 -1.69927 0
M  V30 2082 C 207.106 0.248372 -1.86453 0
M  V30 2083 O 206.464 1.17961 -1.37676 0
M  V30 2084 C 206.512 -1.89578 -3.06745 0
M  V30 2085 O 205.616 -1.20521 -3.94396 0
M  V30 2086 H 204.957 -0.412632 -0.520222 0
M  V30 2087 H 207.487 -1.69985 -1.1387 0
M  V30 2088 H 207.497 -1.97597 -3.56958 0
M  V30 2089 H 206.172 -2.94136 -2.94035 0
M  V30 2090 H 204.749 -1.20684 -3.52831 0
M  V30 2091 N 206.934 1.1197 -1.10907 0
M  V30 2092 C 208.35 1.35591 -0.841852 0
M  V30 2093 C 208.55 1.94233 0.536246 0
M  V30 2094 O 207.606 2.1717 1.28816 0
M  V30 2095 C 208.919 2.29284 -1.94549 0
M  V30 2096 C 210.467 2.42862 -1.97451 0
M  V30 2097 C 210.942 3.39873 -3.07002 0
M  V30 2098 N 212.433 3.47433 -3.06341 0
M  V30 2099 C 213.168 4.22421 -3.87748 0
M  V30 2100 N 212.664 5.00432 -4.79103 0
M  V30 2101 N 214.457 4.17876 -3.75946 0
M  V30 2102 H 206.608 0.722664 -1.99728 0
M  V30 2103 H 208.871 0.380635 -0.868229 0
M  V30 2104 H 208.577 1.93378 -2.93765 0
M  V30 2105 H 208.451 3.29452 -1.83688 0
M  V30 2106 H 210.838 2.78046 -0.988645 0
M  V30 2107 H 210.919 1.42566 -2.12388 0
M  V30 2108 H 210.563 3.05417 -4.05811 0
M  V30 2109 H 210.493 4.40011 -2.89306 0
M  V30 2110 H 212.984 2.91784 -2.40147 0
M  V30 2111 H 213.297 5.55002 -5.37766 0
M  V30 2112 H 211.642 4.99612 -4.83128 0
M  V30 2113 H 214.833 3.56016 -3.03924 0
M  V30 2114 H 215.006 4.76061 -4.39624 0
M  V30 2115 N 208.412 0.89855 1.29475 0
M  V30 2116 C 209.661 0.519863 1.94885 0
M  V30 2117 C 209.974 -0.9383 1.71625 0
M  V30 2118 O 211.18 -1.42445 2.31131 0
M  V30 2119 C 209.636 0.878836 3.49005 0
M  V30 2120 C 209.244 2.35569 3.81066 0
M  V30 2121 C 210.988 0.570004 4.20656 0
M  V30 2122 C 208.895 2.65558 5.28425 0
M  V30 2123 H 207.825 0.190692 0.729488 0
M  V30 2124 H 210.476 1.09539 1.47219 0
M  V30 2125 H 208.858 0.232253 3.95318 0
M  V30 2126 H 210.032 3.04773 3.45616 0
M  V30 2127 H 208.347 2.63343 3.22552 0
M  V30 2128 H 210.944 0.770925 5.29113 0
M  V30 2129 H 211.287 -0.491404 4.1339 0
M  V30 2130 H 211.82 1.17438 3.8007 0
M  V30 2131 H 208.559 3.70493 5.40754 0
M  V30 2132 H 208.079 2.00977 5.65127 0
M  V30 2133 H 209.758 2.51765 5.96006 0
M  V30 2134 N 209.89 -1.43072 0.660911 0
M  V30 2135 C 211.136 -2.0202 0.177708 0
M  V30 2136 C 211.469 -1.52066 -1.20787 0
M  V30 2137 O 210.744 -0.716987 -1.80802 0
M  V30 2138 C 211.027 -3.59561 0.197019 0
M  V30 2139 C 210.88 -4.19727 1.61706 0
M  V30 2140 C 212.199 -4.37664 -0.462396 0
M  V30 2141 H 209.318 -0.734034 0.0660494 0
M  V30 2142 H 211.96 -1.70272 0.843058 0
M  V30 2143 H 210.11 -3.86739 -0.369527 0
M  V30 2144 H 211.782 -4.03553 2.23479 0
M  V30 2145 H 210.025 -3.76084 2.16201 0
M  V30 2146 H 210.696 -5.28834 1.58237 0
M  V30 2147 H 213.172 -4.16095 0.0197215 0
M  V30 2148 H 212.048 -5.47305 -0.418188 0
M  V30 2149 H 212.309 -4.14493 -1.53778 0
M  V30 2150 N 211.368 -0.403325 -1.52352 0
M  V30 2151 C 212.615 0.174347 -2.01748 0
M  V30 2152 C 212.943 1.45636 -1.2892 0
M  V30 2153 O 212.198 1.9193 -0.382258 0
M  V30 2154 C 212.497 0.474665 -3.54234 0
M  V30 2155 C 212.163 -0.717458 -4.45155 0
M  V30 2156 C 210.825 -1.04447 -4.69728 0
M  V30 2157 C 213.177 -1.51432 -4.98716 0
M  V30 2158 C 210.505 -2.16963 -5.45109 0
M  V30 2159 C 212.857 -2.6302 -5.75329 0
M  V30 2160 C 211.521 -2.96213 -5.98175 0
M  V30 2161 H 210.791 0.0637981 -0.738248 0
M  V30 2162 H 213.438 -0.543553 -1.83624 0
M  V30 2163 H 211.743 1.27406 -3.70506 0
M  V30 2164 H 213.44 0.934496 -3.89959 0
M  V30 2165 H 210.03 -0.452596 -4.26204 0
M  V30 2166 H 214.214 -1.27491 -4.79645 0
M  V30 2167 H 209.47 -2.43034 -5.61021 0
M  V30 2168 H 213.644 -3.25158 -6.15829 0
M  V30 2169 H 211.271 -3.83516 -6.56368 0
M  V30 2170 N 212.846 1.57033 -0.133567 0
M  V30 2171 C 213.756 2.19632 0.824564 0
M  V30 2172 C 214.772 1.17666 1.28182 0
M  V30 2173 O 215.948 1.50193 1.3418 0
M  V30 2174 C 213.013 2.79499 2.05137 0
M  V30 2175 C 212.074 3.96548 1.64464 0
M  V30 2176 C 211.307 4.5355 2.81297 0
M  V30 2177 O 211.53 4.09438 3.97136 0
M  V30 2178 O 210.464 5.44018 2.57542 0
M  V30 2179 H 214.29 3.01991 0.321766 0
M  V30 2180 H 211.875 1.49112 0.0927889 0
M  V30 2181 H 213.757 3.17602 2.7696 0
M  V30 2182 H 212.432 2.00162 2.54395 0
M  V30 2183 H 211.339 3.63186 0.897048 0
M  V30 2184 H 212.672 4.77364 1.19934 0
M  V30 2185 N 214.325 -0.140222 1.56975 0
M  V30 2186 C 215.272 -1.17292 1.98774 0
M  V30 2187 C 216.242 -1.4232 0.856408 0
M  V30 2188 O 217.427 -1.54541 1.119 0
M  V30 2189 C 214.567 -2.49973 2.37923 0
M  V30 2190 C 213.68 -2.32062 3.64378 0
M  V30 2191 C 212.815 -3.57825 3.926 0
M  V30 2192 C 211.854 -3.3498 5.12303 0
M  V30 2193 N 210.991 -4.52891 5.36502 0
M  V30 2194 H 215.831 -0.809472 2.86795 0
M  V30 2195 H 213.368 -0.388237 1.41884 0
M  V30 2196 H 215.326 -3.27346 2.58652 0
M  V30 2197 H 213.956 -2.84252 1.52972 0
M  V30 2198 H 213.008 -1.45711 3.51387 0
M  V30 2199 H 214.32 -2.11145 4.51906 0
M  V30 2200 H 213.474 -4.43624 4.13863 0
M  V30 2201 H 212.213 -3.81753 3.03506 0
M  V30 2202 H 211.218 -2.4757 4.90906 0
M  V30 2203 H 212.443 -3.12444 6.02956 0
M  V30 2204 H 210.389 -4.76979 4.50363 0
M  V30 2205 H 210.306 -4.35001 6.18312 0
M  V30 2206 H 211.574 -5.39884 5.62268 0
M  V30 2207 N 215.803 -1.52179 -0.40978 0
M  V30 2208 C 216.75 -1.75475 -1.49924 0
M  V30 2209 C 217.72 -0.597175 -1.54994 0
M  V30 2210 O 218.905 -0.834655 -1.71575 0
M  V30 2211 C 216.045 -1.9107 -2.87378 0
M  V30 2212 C 215.158 -3.18717 -2.91622 0
M  V30 2213 C 214.293 -3.24747 -4.20372 0
M  V30 2214 C 213.332 -4.46598 -4.18588 0
M  V30 2215 N 212.469 -4.50025 -5.38908 0
M  V30 2216 H 217.309 -2.68458 -1.29361 0
M  V30 2217 H 214.846 -1.33024 -0.627934 0
M  V30 2218 H 216.804 -1.98096 -3.6717 0
M  V30 2219 H 215.434 -1.01469 -3.06437 0
M  V30 2220 H 214.486 -3.20866 -2.04326 0
M  V30 2221 H 215.798 -4.08544 -2.86169 0
M  V30 2222 H 214.952 -3.30841 -5.08556 0
M  V30 2223 H 213.691 -2.32857 -4.28519 0
M  V30 2224 H 212.696 -4.40652 -3.28794 0
M  V30 2225 H 213.921 -5.39783 -4.12081 0
M  V30 2226 H 211.867 -3.61017 -5.47725 0
M  V30 2227 H 211.784 -5.33697 -5.35447 0
M  V30 2228 H 213.052 -4.60347 -6.29048 0
M  V30 2229 N 217.281 0.66697 -1.42791 0
M  V30 2230 C 218.211 1.79218 -1.49677 0
M  V30 2231 C 219.192 1.66405 -0.352623 0
M  V30 2232 O 220.377 1.85708 -0.567993 0
M  V30 2233 C 217.507 3.17565 -1.40605 0
M  V30 2234 C 216.461 3.45124 -2.53127 0
M  V30 2235 C 215.787 4.83127 -2.29112 0
M  V30 2236 C 217.087 3.41236 -3.95418 0
M  V30 2237 H 218.781 1.73713 -2.43853 0
M  V30 2238 H 216.327 0.83432 -1.17367 0
M  V30 2239 H 218.28 3.96022 -1.44029 0
M  V30 2240 H 217.004 3.23767 -0.429271 0
M  V30 2241 H 215.663 2.69031 -2.49034 0
M  V30 2242 H 215.311 4.85988 -1.29709 0
M  V30 2243 H 215.011 5.02528 -3.04531 0
M  V30 2244 H 216.535 5.63859 -2.34297 0
M  V30 2245 H 217.949 4.09651 -4.01073 0
M  V30 2246 H 216.346 3.72173 -4.70752 0
M  V30 2247 H 217.416 2.39665 -4.21532 0
M  V30 2248 N 218.759 1.29093 0.90403 0
M  V30 2249 C 220.175 1.07011 1.1841 0
M  V30 2250 C 220.375 -0.181358 2.00682 0
M  V30 2251 O 219.431 -0.880331 2.36657 0
M  V30 2252 C 220.744 2.32311 1.90924 0
M  V30 2253 C 222.292 2.37587 2.03768 0
M  V30 2254 C 222.767 3.62679 2.79693 0
M  V30 2255 N 224.258 3.63376 2.87249 0
M  V30 2256 C 224.993 4.56848 3.46522 0
M  V30 2257 N 224.489 5.60648 4.06996 0
M  V30 2258 N 226.282 4.44426 3.44154 0
M  V30 2259 H 218.433 2.09412 0.354993 0
M  V30 2260 H 220.696 0.922181 0.219742 0
M  V30 2261 H 220.402 3.23536 1.37905 0
M  V30 2262 H 220.276 2.39483 2.91424 0
M  V30 2263 H 222.663 1.46853 2.55965 0
M  V30 2264 H 222.744 2.34403 1.02415 0
M  V30 2265 H 222.388 4.53762 2.28173 0
M  V30 2266 H 222.318 3.63119 3.81381 0
M  V30 2267 H 224.809 2.88321 2.44293 0
M  V30 2268 H 225.122 6.28101 4.50232 0
M  V30 2269 H 223.467 5.64463 4.05471 0
M  V30 2270 H 226.658 3.62529 2.96126 0
M  V30 2271 H 226.831 5.17457 3.90054 0
M  V30 2272 N 220.237 -1.11381 1.11499 0
M  V30 2273 C 221.486 -1.82494 0.858993 0
M  V30 2274 C 221.799 -1.85605 -0.617278 0
M  V30 2275 O 223.005 -2.52824 -0.989552 0
M  V30 2276 C 221.461 -3.27745 1.48699 0
M  V30 2277 C 221.069 -3.32961 2.99735 0
M  V30 2278 C 222.813 -4.03754 1.31085 0
M  V30 2279 C 220.72 -4.72612 3.55516 0
M  V30 2280 H 219.65 -0.683802 0.317696 0
M  V30 2281 H 222.301 -1.25331 1.34031 0
M  V30 2282 H 220.683 -3.84844 0.933339 0
M  V30 2283 H 221.857 -2.85741 3.61509 0
M  V30 2284 H 220.172 -2.70433 3.16631 0
M  V30 2285 H 222.769 -5.06891 1.70192 0
M  V30 2286 H 223.112 -4.15527 0.253496 0
M  V30 2287 H 223.645 -3.53043 1.83318 0
M  V30 2288 H 220.384 -4.66036 4.60967 0
M  V30 2289 H 219.904 -5.2024 2.98513 0
M  V30 2290 H 221.583 -5.4157 3.53992 0
M  V30 2291 N 221.715 -0.905404 -1.28997 0
M  V30 2292 C 222.662 -0.385892 -2.27551 0
M  V30 2293 C 223.632 0.535113 -1.57244 0
M  V30 2294 O 224.817 0.459119 -1.85194 0
M  V30 2295 C 221.957 0.375461 -3.43051 0
M  V30 2296 C 221.07 -0.577092 -4.28128 0
M  V30 2297 C 220.205 0.201879 -5.30816 0
M  V30 2298 C 219.244 -0.744829 -6.07551 0
M  V30 2299 N 218.381 9.42587e-05 -7.021 0
M  V30 2300 H 223.221 -1.23139 -2.71368 0
M  V30 2301 H 220.758 -0.618542 -1.33463 0
M  V30 2302 H 222.716 0.832992 -4.088 0
M  V30 2303 H 221.346 1.18537 -3.00248 0
M  V30 2304 H 220.398 -1.15315 -3.62501 0
M  V30 2305 H 221.71 -1.30152 -4.8152 0
M  V30 2306 H 220.864 0.720351 -6.02408 0
M  V30 2307 H 219.603 0.959413 -4.7817 0
M  V30 2308 H 218.608 -1.27475 -5.34818 0
M  V30 2309 H 219.833 -1.50178 -6.62286 0
M  V30 2310 H 217.779 0.739791 -6.51815 0
M  V30 2311 H 217.696 -0.664321 -7.53076 0
M  V30 2312 H 218.964 0.498644 -7.77903 0
M  V30 2313 N 223.193 1.4272 -0.668489 0
M  V30 2314 C 224.418 2.06484 -0.194758 0
M  V30 2315 C 224.843 1.49862 1.13679 0
M  V30 2316 O 224.201 0.614582 1.70565 0
M  V30 2317 C 224.249 3.60353 -0.133546 0
M  V30 2318 O 223.353 4.02464 0.899806 0
M  V30 2319 H 222.694 0.656137 -0.10188 0
M  V30 2320 H 225.224 1.82964 -0.915722 0
M  V30 2321 H 225.234 4.07976 0.0447041 0
M  V30 2322 H 223.909 4.00938 -1.1055 0
M  V30 2323 H 222.486 3.66402 0.693109 0
M  V30 2324 N 224.671 0.411399 1.52136 0
M  V30 2325 C 225.896 -0.165538 2.06738 0
M  V30 2326 C 226.321 -1.379 1.27926 0
M  V30 2327 O 225.679 -1.78628 0.310114 0
M  V30 2328 C 225.727 -0.492124 3.57226 0
M  V30 2329 O 224.831 -1.58276 3.80818 0
M  V30 2330 H 224.172 -0.0132132 0.663869 0
M  V30 2331 H 226.702 0.585253 1.96051 0
M  V30 2332 H 226.712 -0.750104 4.01045 0
M  V30 2333 H 225.387 0.394922 4.14021 0
M  V30 2334 H 223.964 -1.31677 3.48877 0
M  V30 2335 N 226.149 -1.5696 0.141893 0
M  V30 2336 C 227.396 -1.9596 -0.510492 0
M  V30 2337 C 227.724 -1.02648 -1.65208 0
M  V30 2338 O 226.979 -0.0546947 -1.95624 0
M  V30 2339 C 227.278 -3.41242 -1.06249 0
M  V30 2340 C 226.944 -4.50882 -0.0398791 0
M  V30 2341 C 225.606 -4.80595 0.241247 0
M  V30 2342 C 227.958 -5.17058 0.65578 0
M  V30 2343 C 225.286 -5.73792 1.22393 0
M  V30 2344 C 227.638 -6.11313 1.62724 0
M  V30 2345 C 226.302 -6.39407 1.91612 0
M  V30 2346 H 225.572 -0.717068 -0.186802 0
M  V30 2347 H 228.219 -1.90142 0.227643 0
M  V30 2348 H 226.524 -3.43866 -1.87785 0
M  V30 2349 H 228.221 -3.68742 -1.57576 0
M  V30 2350 H 224.811 -4.27754 -0.269174 0
M  V30 2351 H 228.995 -4.94239 0.451779 0
M  V30 2352 H 224.251 -5.93853 1.45424 0
M  V30 2353 H 228.425 -6.61668 2.17183 0
M  V30 2354 H 226.052 -7.11427 2.6791 0
M  V30 2355 N 227.627 0.131896 -1.57047 0
M  V30 2356 C 228.873 0.843179 -1.84441 0
M  V30 2357 C 229.206 1.80129 -0.725749 0
M  V30 2358 O 228.481 1.92624 0.269469 0
M  V30 2359 C 228.764 1.60442 -3.22382 0
M  V30 2360 C 228.617 0.666782 -4.4483 0
M  V30 2361 C 229.936 2.56354 -3.5773 0
M  V30 2362 H 227.055 0.305081 -0.670891 0
M  V30 2363 H 229.697 0.107839 -1.89694 0
M  V30 2364 H 227.847 2.23128 -3.18035 0
M  V30 2365 H 229.519 0.0497646 -4.61273 0
M  V30 2366 H 227.762 -0.022609 -4.33794 0
M  V30 2367 H 228.433 1.23579 -5.37989 0
M  V30 2368 H 230.909 2.0378 -3.62785 0
M  V30 2369 H 229.785 3.06657 -4.5525 0
M  V30 2370 H 230.046 3.38419 -2.84473 0
M  V30 2371 N 229.106 1.52395 0.401703 0
M  V30 2372 C 230.069 1.75636 1.47257 0
M  V30 2373 C 231.069 0.62628 1.48103 0
M  V30 2374 O 232.259 0.894227 1.49497 0
M  V30 2375 C 229.391 1.84553 2.86624 0
M  V30 2376 H 230.584 2.71241 1.27938 0
M  V30 2377 H 228.137 1.42923 0.632662 0
M  V30 2378 H 228.872 0.908882 3.11303 0
M  V30 2379 H 228.657 2.66715 2.87412 0
M  V30 2380 H 230.147 2.04251 3.64241 0
M  V30 2381 N 230.584 -0.659388 1.43143 0
M  V30 2382 C 231.995 -1.24041 1.39537 0
M  V30 2383 C 232.346 -1.95963 0.0963364 0
M  V30 2384 O 231.471 -2.00892 -0.804438 0
M  V30 2385 C 232.066 -2.25601 2.52764 0
M  V30 2386 C 230.625 -2.79195 2.52443 0
M  V30 2387 C 229.772 -1.53743 2.30778 0
M  V30 2388 H 232.723 -0.451792 1.52133 0
M  V30 2389 H 232.744 -3.07651 2.23899 0
M  V30 2390 H 232.256 -1.73226 3.47296 0
M  V30 2391 H 230.357 -3.35649 1.61773 0
M  V30 2392 H 230.47 -3.2716 3.50004 0
M  V30 2393 H 228.834 -1.80869 1.79328 0
M  V30 2394 H 229.617 -1.03312 3.27386 0
M  V30 2395 N 232.062 -1.29571 -0.897171 0
M  V30 2396 C 232.992 -1.17473 -2.01798 0
M  V30 2397 C 233.973 -0.068323 -1.69963 0
M  V30 2398 O 235.158 -0.248239 -1.92607 0
M  V30 2399 C 232.288 -0.853099 -3.36659 0
M  V30 2400 C 231.242 -1.9161 -3.82713 0
M  V30 2401 C 230.568 -1.44773 -5.14728 0
M  V30 2402 C 231.868 -3.32535 -4.02763 0
M  V30 2403 H 233.562 -2.11237 -2.12177 0
M  V30 2404 H 231.108 -1.01699 -1.01948 0
M  V30 2405 H 233.061 -0.755165 -4.14578 0
M  V30 2406 H 231.785 0.120236 -3.26379 0
M  V30 2407 H 230.444 -2.00346 -3.07013 0
M  V30 2408 H 230.092 -0.462995 -5.00865 0
M  V30 2409 H 229.792 -2.15865 -5.46513 0
M  V30 2410 H 231.316 -1.36334 -5.95185 0
M  V30 2411 H 232.73 -3.26626 -4.71156 0
M  V30 2412 H 231.127 -4.01607 -4.45905 0
M  V30 2413 H 232.197 -3.75326 -3.07016 0
M  V30 2414 N 233.54 1.10788 -1.12088 0
M  V30 2415 C 234.45 2.20599 -0.798338 0
M  V30 2416 C 235.466 1.72712 0.21135 0
M  V30 2417 O 236.642 2.01348 0.0458477 0
M  V30 2418 C 233.707 3.45771 -0.253674 0
M  V30 2419 C 232.768 4.08411 -1.32283 0
M  V30 2420 C 232.001 5.27608 -0.80406 0
M  V30 2421 O 232.224 5.69241 0.363478 0
M  V30 2422 O 231.158 5.8101 -1.57198 0
M  V30 2423 H 234.984 2.50614 -1.7154 0
M  V30 2424 H 232.569 1.19454 -0.897275 0
M  V30 2425 H 234.451 4.21376 0.0453691 0
M  V30 2426 H 233.126 3.1739 0.636005 0
M  V30 2427 H 232.033 3.34507 -1.67499 0
M  V30 2428 H 233.366 4.40986 -2.18614 0
M  V30 2429 N 235.018 0.912232 1.28515 0
M  V30 2430 C 235.965 0.397954 2.27343 0
M  V30 2431 C 236.935 -0.526766 1.57526 0
M  V30 2432 O 238.12 -0.449292 1.85435 0
M  V30 2433 C 235.26 -0.357263 3.43246 0
M  V30 2434 C 234.373 0.599788 4.27816 0
M  V30 2435 C 233.508 -0.173725 5.30916 0
M  V30 2436 C 232.547 0.777039 6.07148 0
M  V30 2437 N 231.684 0.0371398 7.0209 0
M  V30 2438 H 236.524 1.24577 2.70711 0
M  V30 2439 H 234.061 0.625612 1.33133 0
M  V30 2440 H 236.019 -0.8113 4.09236 0
M  V30 2441 H 234.649 -1.16943 3.00872 0
M  V30 2442 H 233.701 1.17235 3.61884 0
M  V30 2443 H 235.013 1.32704 4.80823 0
M  V30 2444 H 234.167 -0.688394 6.02782 0
M  V30 2445 H 232.906 -0.934041 4.78672 0
M  V30 2446 H 231.911 1.3031 5.34134 0
M  V30 2447 H 233.136 1.53689 6.61481 0
M  V30 2448 H 231.082 -0.705213 6.52198 0
M  V30 2449 H 230.999 0.704249 7.52713 0
M  V30 2450 H 232.267 -0.457383 7.78157 0
M  V30 2451 N 236.496 -1.42363 0.676048 0
M  V30 2452 C 237.721 -2.06377 0.205705 0
M  V30 2453 C 238.146 -1.50463 -1.12883 0
M  V30 2454 O 237.504 -0.623619 -1.70237 0
M  V30 2455 C 237.552 -3.60277 0.152655 0
M  V30 2456 O 236.656 -4.02935 -0.87845 0
M  V30 2457 H 235.997 -0.655588 0.105359 0
M  V30 2458 H 238.527 -1.82475 0.925412 0
M  V30 2459 H 238.537 -4.07993 -0.0230675 0
M  V30 2460 H 237.212 -4.00346 1.12675 0
M  V30 2461 H 235.789 -3.66764 -0.673668 0
M  V30 2462 N 237.974 -0.419461 -1.51915 0
M  V30 2463 C 239.204 0.151915 -2.06041 0
M  V30 2464 C 239.612 1.38539 -1.28855 0
M  V30 2465 O 238.955 1.80592 -0.336463 0
M  V30 2466 C 239.017 0.557119 -3.55157 0
M  V30 2467 C 238.681 -0.567054 -4.53468 0
M  V30 2468 C 239.678 -1.43379 -4.99738 0
M  V30 2469 C 237.363 -0.742693 -4.96779 0
M  V30 2470 C 239.357 -2.46102 -5.87973 0
M  V30 2471 C 237.044 -1.77322 -5.84808 0
M  V30 2472 C 238.042 -2.63078 -6.30301 0
M  V30 2473 O 237.73 -3.64364 -7.16585 0
M  V30 2474 H 237.462 0.0193293 -0.675724 0
M  V30 2475 H 240.016 -0.592073 -1.96682 0
M  V30 2476 H 238.246 1.35355 -3.62238 0
M  V30 2477 H 239.935 1.05759 -3.9188 0
M  V30 2478 H 240.701 -1.30954 -4.66986 0
M  V30 2479 H 236.58 -0.0848307 -4.60922 0
M  V30 2480 H 240.124 -3.13071 -6.23404 0
M  V30 2481 H 236.021 -1.89773 -6.16974 0
M  V30 2482 H 236.789 -3.60731 -7.34721 0
M  V30 2483 N 239.452 1.56882 -0.150215 0
M  V30 2484 C 240.7 1.9584 0.499105 0
M  V30 2485 C 241.021 1.03623 1.65188 0
M  V30 2486 O 240.291 0.0984084 1.95653 0
M  V30 2487 H 238.871 0.723119 0.187373 0
M  V30 2488 H 241.533 1.9358 -0.226466 0
M  V30 2489 H 240.629 2.99638 0.873122 0
M  V30 2490 N 240.93 -0.123565 1.57115 0
M  V30 2491 C 242.158 -0.846461 1.88793 0
M  V30 2492 C 242.573 -1.73652 0.740976 0
M  V30 2493 O 241.93 -1.80207 -0.288393 0
M  V30 2494 C 241.981 -1.6837 3.19897 0
M  V30 2495 O 241.702 -0.829477 4.30176 0
M  V30 2496 C 243.203 -2.51214 3.65248 0
M  V30 2497 H 240.423 -0.243573 0.625231 0
M  V30 2498 H 242.967 -0.109324 2.04208 0
M  V30 2499 H 241.122 -2.37364 3.06165 0
M  V30 2500 H 241.536 -1.40651 5.0529 0
M  V30 2501 H 243.01 -3.05497 4.59756 0
M  V30 2502 H 243.487 -3.28359 2.9168 0
M  V30 2503 H 244.093 -1.8747 3.81752 0
M  V30 2504 N 242.408 -1.52605 -0.393616 0
M  V30 2505 C 243.824 -1.41753 -0.733357 0
M  V30 2506 C 244.024 -0.534293 -1.94287 0
M  V30 2507 O 243.08 -0.0059787 -2.52499 0
M  V30 2508 C 244.393 -2.84531 -0.972772 0
M  V30 2509 C 245.941 -2.93978 -1.07453 0
M  V30 2510 C 246.416 -4.37756 -1.3466 0
M  V30 2511 N 247.907 -4.4106 -1.41492 0
M  V30 2512 C 248.642 -5.49387 -1.642 0
M  V30 2513 N 248.138 -6.67806 -1.8441 0
M  V30 2514 N 249.931 -5.36923 -1.66342 0
M  V30 2515 H 242.082 -2.08555 0.402328 0
M  V30 2516 H 244.345 -0.940654 0.117789 0
M  V30 2517 H 244.051 -3.51353 -0.156204 0
M  V30 2518 H 243.925 -3.26508 -1.88871 0
M  V30 2519 H 246.312 -2.27326 -1.88167 0
M  V30 2520 H 246.393 -2.55435 -0.136605 0
M  V30 2521 H 246.037 -5.04972 -0.544581 0
M  V30 2522 H 245.967 -4.73848 -2.2973 0
M  V30 2523 H 248.458 -3.55705 -1.27601 0
M  V30 2524 H 248.771 -7.46141 -2.01231 0
M  V30 2525 H 247.116 -6.70843 -1.81644 0
M  V30 2526 H 250.307 -4.43381 -1.50102 0
M  V30 2527 H 250.48 -6.21416 -1.837 0
M  V30 2528 N 243.887 0.651787 -1.4349 0
M  V30 2529 C 245.298 1.233 -1.40193 0
M  V30 2530 C 245.649 1.9591 -0.106727 0
M  V30 2531 O 244.774 2.01316 0.793773 0
M  V30 2532 C 245.369 2.24257 -2.53957 0
M  V30 2533 C 243.928 2.77852 -2.5392 0
M  V30 2534 C 243.075 1.52517 -2.3159 0
M  V30 2535 H 246.026 0.443717 -1.52371 0
M  V30 2536 H 246.047 3.0646 -2.25528 0
M  V30 2537 H 245.559 1.71382 -3.4821 0
M  V30 2538 H 243.66 3.34786 -1.63551 0
M  V30 2539 H 243.773 3.25299 -3.51735 0
M  V30 2540 H 242.137 1.79915 -1.80285 0
M  V30 2541 H 242.92 1.01574 -3.27929 0
M  V30 2542 N 245.365 1.30045 0.890287 0
M  V30 2543 C 246.781 1.08261 1.17268 0
M  V30 2544 C 246.981 -0.160063 2.00863 0
M  V30 2545 O 246.037 -0.855181 2.37577 0
M  V30 2546 C 247.35 2.34323 1.8845 0
M  V30 2547 C 248.898 2.39735 2.01237 0
M  V30 2548 C 249.373 3.65625 2.7583 0
M  V30 2549 N 250.864 3.66402 2.83379 0
M  V30 2550 C 251.599 4.60498 3.41657 0
M  V30 2551 N 251.095 5.64933 4.01026 0
M  V30 2552 N 252.888 4.48051 3.39421 0
M  V30 2553 H 245.039 2.09777 0.332762 0
M  V30 2554 H 247.302 0.92446 0.209948 0
M  V30 2555 H 247.008 3.2498 1.34465 0
M  V30 2556 H 246.882 2.4256 2.88867 0
M  V30 2557 H 249.269 1.4956 2.54393 0
M  V30 2558 H 249.35 2.35476 0.999232 0
M  V30 2559 H 248.994 4.56156 2.23347 0
M  V30 2560 H 248.924 3.67144 3.77509 0
M  V30 2561 H 251.415 2.90896 2.41222 0
M  V30 2562 H 251.728 6.32841 4.43545 0
M  V30 2563 H 250.073 5.68732 3.99461 0
M  V30 2564 H 253.264 3.65649 2.92264 0
M  V30 2565 H 253.437 5.21565 3.84544 0
M  V30 2566 N 246.843 -1.10192 1.12674 0
M  V30 2567 C 248.089 -1.82475 0.884915 0
M  V30 2568 C 248.422 -1.85093 -0.58773 0
M  V30 2569 O 247.697 -1.3134 -1.43457 0
M  V30 2570 C 247.98 -3.29018 1.46353 0
M  V30 2571 C 247.833 -3.34718 3.00473 0
M  V30 2572 C 249.152 -4.25473 1.12519 0
M  V30 2573 H 246.271 -0.662492 0.322915 0
M  V30 2574 H 248.913 -1.2913 1.39375 0
M  V30 2575 H 247.063 -3.74576 1.03077 0
M  V30 2576 H 248.735 -2.97622 3.52447 0
M  V30 2577 H 246.978 -2.74541 3.35872 0
M  V30 2578 H 247.649 -4.37918 3.36053 0
M  V30 2579 H 250.125 -3.88161 1.499 0
M  V30 2580 H 249.001 -5.26365 1.55663 0
M  V30 2581 H 249.262 -4.42084 0.0377407 0
M  V30 2582 N 248.321 -0.919034 -1.28029 0
M  V30 2583 C 249.251 -0.428581 -2.29533 0
M  V30 2584 C 250.232 0.50659 -1.62381 0
M  V30 2585 O 251.417 0.413195 -1.89753 0
M  V30 2586 C 248.547 0.327388 -3.45753 0
M  V30 2587 C 247.501 -0.519137 -4.2484 0
M  V30 2588 C 246.827 0.365486 -5.33449 0
M  V30 2589 C 248.127 -1.77914 -4.91064 0
M  V30 2590 H 249.821 -1.27687 -2.70807 0
M  V30 2591 H 247.367 -0.615428 -1.30186 0
M  V30 2592 H 249.32 0.681378 -4.15855 0
M  V30 2593 H 248.044 1.20963 -3.03374 0
M  V30 2594 H 246.703 -0.855717 -3.56473 0
M  V30 2595 H 246.351 1.24642 -4.87312 0
M  V30 2596 H 246.051 -0.197356 -5.87268 0
M  V30 2597 H 247.575 0.715241 -6.06396 0
M  V30 2598 H 248.989 -1.49374 -5.53498 0
M  V30 2599 H 247.386 -2.2848 -5.54903 0
M  V30 2600 H 248.456 -2.50382 -4.15255 0
M  V30 2601 N 249.799 1.42003 -0.683588 0
M  V30 2602 C 251.027 2.05746 -0.218182 0
M  V30 2603 C 251.442 1.51396 1.12804 0
M  V30 2604 O 250.799 0.657303 1.70252 0
M  V30 2605 C 250.85 3.61171 -0.154131 0
M  V30 2606 O 250.571 4.13508 -1.44716 0
M  V30 2607 C 252.072 4.42042 0.333713 0
M  V30 2608 H 249.292 0.662888 -0.10402 0
M  V30 2609 H 251.836 1.81987 -0.9328 0
M  V30 2610 H 249.991 3.84012 0.511231 0
M  V30 2611 H 250.405 5.07453 -1.32632 0
M  V30 2612 H 251.879 5.51028 0.327423 0
M  V30 2613 H 252.356 4.17269 1.37053 0
M  V30 2614 H 252.962 4.24239 -0.300222 0
M  V30 2615 N 251.277 0.427512 1.51691 0
M  V30 2616 C 252.525 -0.141948 2.01601 0
M  V30 2617 C 252.846 -1.44067 1.31414 0
M  V30 2618 O 252.116 -1.90763 0.445658 0
M  V30 2619 H 250.696 -0.0554468 0.744939 0
M  V30 2620 H 253.358 0.567968 1.86441 0
M  V30 2621 H 252.454 -0.324913 3.10404 0
M  V30 2622 N 252.755 -1.56801 0.158532 0
M  V30 2623 C 253.703 -2.18638 -0.793729 0
M  V30 2624 C 254.697 -1.14669 -1.24689 0
M  V30 2625 O 255.903 -1.32895 -1.21403 0
M  V30 2626 H 252.278 -0.700226 -0.274204 0
M  V30 2627 H 254.249 -2.97367 -0.248095 0
M  V30 2628 C 252.998 -2.83139 -2.0181 0
M  V30 2629 H 252.321 -3.62863 -1.67841 0
M  V30 2630 H 253.761 -3.29894 -2.66357 0
M  V30 2631 C 252.22 -1.82244 -2.83353 0
M  V30 2632 O 252.75 -1.3 -3.80083 0
M  V30 2633 N 250.956 -1.51288 -2.48114 0
M  V30 2634 H 250.503 -1.93964 -1.69516 0
M  V30 2635 H 250.461 -0.840296 -3.02963 0
M  V30 2636 N 254.233 0.115231 -1.57178 0
M  V30 2637 C 255.644 0.67197 -1.74188 0
M  V30 2638 C 255.995 1.80125 -0.777777 0
M  V30 2639 O 255.12 2.16346 0.0484376 0
M  V30 2640 C 255.715 1.22573 -3.1585 0
M  V30 2641 C 254.274 1.72872 -3.34353 0
M  V30 2642 C 253.421 0.629972 -2.70049 0
M  V30 2643 H 256.372 -0.110712 -1.58313 0
M  V30 2644 H 256.393 2.09535 -3.17609 0
M  V30 2645 H 255.905 0.403598 -3.85996 0
M  V30 2646 H 254.006 2.5755 -2.69256 0
M  V30 2647 H 254.119 1.83557 -4.42542 0
M  V30 2648 H 252.483 1.0645 -2.31388 0
M  V30 2649 H 253.266 -0.181241 -3.42821 0
M  V30 2650 N 255.711 1.52812 0.385517 0
M  V30 2651 C 257.127 1.4214 0.725829 0
M  V30 2652 C 257.327 0.544589 1.94001 0
M  V30 2653 O 256.383 0.0193693 2.52493 0
M  V30 2654 C 257.696 2.85042 0.957668 0
M  V30 2655 C 259.244 2.94543 1.05892 0
M  V30 2656 C 259.719 4.38464 1.32337 0
M  V30 2657 N 261.21 4.41804 1.39151 0
M  V30 2658 C 261.945 5.5025 1.61285 0
M  V30 2659 N 261.441 6.68775 1.80866 0
M  V30 2660 N 263.234 5.37798 1.63492 0
M  V30 2661 H 255.385 2.08338 -0.413383 0
M  V30 2662 H 257.648 0.940016 -0.122775 0
M  V30 2663 H 257.354 3.51431 0.137568 0
M  V30 2664 H 257.228 3.27505 1.87137 0
M  V30 2665 H 259.615 2.28321 1.86959 0
M  V30 2666 H 259.696 2.55504 0.123057 0
M  V30 2667 H 259.34 5.05254 0.517793 0
M  V30 2668 H 259.27 4.75059 2.27214 0
M  V30 2669 H 261.761 3.56377 1.25713 0
M  V30 2670 H 262.074 7.47197 1.97271 0
M  V30 2671 H 260.419 6.71797 1.78083 0
M  V30 2672 H 263.61 4.44171 1.47749 0
M  V30 2673 H 263.783 6.22382 1.80402 0
M  V30 2674 N 257.189 -0.644168 1.43834 0
M  V30 2675 C 258.119 -1.76814 1.52509 0
M  V30 2676 C 259.1 -1.65823 0.379052 0
M  V30 2677 O 260.285 -1.84781 0.597466 0
M  V30 2678 C 257.415 -3.15288 1.4564 0
M  V30 2679 C 256.369 -3.41053 2.58586 0
M  V30 2680 C 255.695 -4.79421 2.36769 0
M  V30 2681 C 256.995 -3.34902 4.00797 0
M  V30 2682 H 258.689 -1.69812 2.46586 0
M  V30 2683 H 256.235 -0.815542 1.1868 0
M  V30 2684 H 258.188 -3.93681 1.50311 0
M  V30 2685 H 256.912 -3.23043 0.480725 0
M  V30 2686 H 255.571 -2.65035 2.53282 0
M  V30 2687 H 255.219 -4.83863 1.37424 0
M  V30 2688 H 254.919 -4.9762 3.12487 0
M  V30 2689 H 256.443 -5.6006 2.43238 0
M  V30 2690 H 257.857 -4.03218 4.07539 0
M  V30 2691 H 256.254 -3.64637 4.76613 0
M  V30 2692 H 257.324 -2.32928 4.25291 0
M  V30 2693 N 258.668 -1.30515 -0.883378 0
M  V30 2694 C 259.945 -1.10086 -1.6168 0
M  V30 2695 C 260.325 0.349269 -2.08191 0
M  V30 2696 O 259.673 1.34105 -1.85008 0
M  V30 2697 C 259.883 -2.10315 -2.78511 0
M  V30 2698 C 261.231 -2.42119 -3.48803 0
M  V30 2699 O 262.255 -2.08638 -2.88702 0
M  V30 2700 O 261.114 -2.99396 -4.57192 0
M  V30 2701 H 258.208 -0.422907 -0.710689 0
M  V30 2702 H 260.754 -1.41947 -0.930015 0
M  V30 2703 H 259.526 -3.07917 -2.41459 0
M  V30 2704 H 259.149 -1.79282 -3.54886 0
M  V30 2705 N 260.146 1.09593 -1.13257 0
M  V30 2706 C 261.076 2.18214 -0.830946 0
M  V30 2707 C 262.057 1.68812 0.208966 0
M  V30 2708 O 263.242 1.9408 0.0682666 0
M  V30 2709 C 260.372 3.46051 -0.294296 0
M  V30 2710 C 259.326 4.08778 -1.26826 0
M  V30 2711 C 258.652 5.31419 -0.591449 0
M  V30 2712 C 259.952 4.51476 -2.62615 0
M  V30 2713 H 261.646 2.43703 -1.73923 0
M  V30 2714 H 259.192 1.17128 -0.837675 0
M  V30 2715 H 261.145 4.2134 -0.0709606 0
M  V30 2716 H 259.869 3.20079 0.649366 0
M  V30 2717 H 258.528 3.35505 -1.47756 0
M  V30 2718 H 258.176 5.01727 0.357633 0
M  V30 2719 H 257.876 5.74341 -1.24123 0
M  V30 2720 H 259.4 6.09433 -0.377355 0
M  V30 2721 H 260.814 5.17999 -2.45663 0
M  V30 2722 H 259.211 5.05277 -3.23752 0
M  V30 2723 H 260.281 3.63962 -3.20406 0
M  V30 2724 N 261.624 0.925811 1.2754 0
M  V30 2725 C 262.556 0.380753 2.26015 0
M  V30 2726 C 263.569 -0.487485 1.5533 0
M  V30 2727 O 264.758 -0.300413 1.75954 0
M  V30 2728 C 261.858 -0.473259 3.35579 0
M  V30 2729 C 261.031 0.375249 4.35787 0
M  V30 2730 C 260.09 -0.415809 5.24555 0
M  V30 2731 O 259.116 0.175834 5.68928 0
M  V30 2732 N 260.318 -1.71607 5.54555 0
M  V30 2733 H 263.083 1.22725 2.73421 0
M  V30 2734 H 260.644 0.793037 1.41147 0
M  V30 2735 H 262.636 -1.00949 3.91907 0
M  V30 2736 H 261.206 -1.2205 2.87789 0
M  V30 2737 H 260.426 1.09279 3.7875 0
M  V30 2738 H 261.714 0.955399 4.99749 0
M  V30 2739 H 261.112 -2.2191 5.20358 0
M  V30 2740 H 259.669 -2.19887 6.1359 0
M  V30 2741 N 263.102 -1.41638 0.69111 0
M  V30 2742 C 264.012 -2.34588 0.0233487 0
M  V30 2743 C 265.028 -1.55987 -0.770984 0
M  V30 2744 O 266.204 -1.88486 -0.709569 0
M  V30 2745 C 263.269 -3.34684 -0.904851 0
M  V30 2746 C 262.33 -4.29176 -0.103225 0
M  V30 2747 C 261.563 -5.2449 -0.987216 0
M  V30 2748 O 261.786 -5.2514 -2.22674 0
M  V30 2749 O 260.72 -6.00295 -0.439281 0
M  V30 2750 H 264.546 -2.93261 0.789416 0
M  V30 2751 H 262.131 -1.42417 0.45142 0
M  V30 2752 H 264.013 -3.96133 -1.43724 0
M  V30 2753 H 262.688 -2.78461 -1.65049 0
M  V30 2754 H 261.595 -3.71089 0.473655 0
M  V30 2755 H 262.928 -4.88484 0.60365 0
M  V30 2756 N 264.58 -0.43555 -1.51462 0
M  V30 2757 C 265.829 0.133007 -2.01261 0
M  V30 2758 C 266.142 1.43942 -1.32439 0
M  V30 2759 O 267.348 2.09081 -1.73198 0
M  V30 2760 C 265.804 0.287581 -3.58749 0
M  V30 2761 C 265.412 -1.00829 -4.36506 0
M  V30 2762 C 267.156 0.810004 -4.167 0
M  V30 2763 C 265.063 -0.819454 -5.85695 0
M  V30 2764 H 263.993 0.0534822 -0.752101 0
M  V30 2765 H 266.644 -0.565038 -1.74584 0
M  V30 2766 H 265.026 1.04859 -3.81865 0
M  V30 2767 H 266.2 -1.77749 -4.25138 0
M  V30 2768 H 264.515 -1.45911 -3.89999 0
M  V30 2769 H 267.112 0.967743 -5.2587 0
M  V30 2770 H 267.455 1.79196 -3.75758 0
M  V30 2771 H 267.988 0.107357 -3.97655 0
M  V30 2772 H 264.727 -1.77374 -6.31046 0
M  V30 2773 H 264.247 -0.0900208 -5.99732 0
M  V30 2774 H 265.926 -0.471949 -6.45276 0
M  V30 2775 N 266.058 1.56714 -0.166846 0
M  V30 2776 C 267.006 2.19056 0.782123 0
M  V30 2777 C 268 1.15328 1.24079 0
M  V30 2778 O 269.206 1.33537 1.20697 0
M  V30 2779 H 265.581 0.70167 0.270486 0
M  V30 2780 H 267.552 2.97494 0.232322 0
M  V30 2781 C 266.301 2.84206 2.00306 0
M  V30 2782 H 265.624 3.63748 1.65914 0
M  V30 2783 H 267.064 3.31302 2.64604 0
M  V30 2784 C 265.523 1.83744 2.82382 0
M  V30 2785 O 266.053 1.32014 3.79388 0
M  V30 2786 N 264.259 1.52601 2.47308 0
M  V30 2787 H 263.806 1.9486 1.68485 0
M  V30 2788 H 263.764 0.856351 3.02513 0
M  V30 2789 N 267.536 -0.106894 1.57237 0
M  V30 2790 C 268.484 -1.14944 2.02215 0
M  V30 2791 C 269.478 -1.42167 0.92114 0
M  V30 2792 O 270.684 -1.41987 1.10634 0
M  V30 2793 H 267.059 -0.387841 0.64427 0
M  V30 2794 H 269.03 -0.743683 2.88984 0
M  V30 2795 C 267.779 -2.4647 2.4525 0
M  V30 2796 H 267.102 -2.26363 3.29545 0
M  V30 2797 H 268.542 -3.17948 2.80508 0
M  V30 2798 C 267.001 -3.09921 1.321 0
M  V30 2799 O 267.531 -3.9651 0.643622 0
M  V30 2800 N 265.737 -2.69986 1.07497 0
M  V30 2801 H 265.284 -1.99667 1.62761 0
M  V30 2802 H 265.242 -3.12769 0.319876 0
M  V30 2803 N 269.014 -1.53014 -0.377408 0
M  V30 2804 C 270.26 -1.69821 -1.11948 0
M  V30 2805 C 270.615 -0.438581 -1.87335 0
M  V30 2806 O 269.908 0.568094 -1.82984 0
M  V30 2807 C 270.102 -2.87982 -2.11663 0
M  V30 2808 C 269.931 -4.25315 -1.46072 0
M  V30 2809 C 268.701 -4.90354 -1.21986 0
M  V30 2810 C 270.899 -5.06281 -0.904664 0
M  V30 2811 N 268.881 -6.11641 -0.526215 0
M  V30 2812 C 270.252 -6.19069 -0.339726 0
M  V30 2813 C 272.307 -4.91395 -0.8022 0
M  V30 2814 C 271.01 -7.18598 0.317669 0
M  V30 2815 C 273.036 -5.91187 -0.158606 0
M  V30 2816 C 272.398 -7.03289 0.39551 0
M  V30 2817 H 268.497 -0.674785 -0.395207 0
M  V30 2818 H 271.081 -1.90389 -0.407437 0
M  V30 2819 H 269.252 -2.68974 -2.80192 0
M  V30 2820 H 270.984 -2.93669 -2.78461 0
M  V30 2821 H 267.739 -4.49286 -1.49798 0
M  V30 2822 H 268.163 -6.76719 -0.195098 0
M  V30 2823 H 272.805 -4.04925 -1.21639 0
M  V30 2824 H 270.523 -8.04669 0.743836 0
M  V30 2825 H 274.109 -5.81744 -0.0804138 0
M  V30 2826 H 272.989 -7.79183 0.885648 0
M  V30 2827 N 270.492 0.636531 -1.44174 0
M  V30 2828 C 271.738 1.39826 -1.4689 0
M  V30 2829 C 272.071 1.93947 -0.0990585 0
M  V30 2830 O 271.346 1.73325 0.882544 0
M  V30 2831 C 271.629 2.56751 -2.5249 0
M  V30 2832 C 271.482 2.08014 -3.98811 0
M  V30 2833 C 272.801 3.58946 -2.54649 0
M  V30 2834 H 269.92 0.507075 -0.53483 0
M  V30 2835 H 272.562 0.720188 -1.75822 0
M  V30 2836 H 270.712 3.14597 -2.2795 0
M  V30 2837 H 272.384 1.5504 -4.34466 0
M  V30 2838 H 270.627 1.39242 -4.10846 0
M  V30 2839 H 271.298 2.92169 -4.68339 0
M  V30 2840 H 273.774 3.1089 -2.76563 0
M  V30 2841 H 272.65 4.38286 -3.3045 0
M  V30 2842 H 272.911 4.12655 -1.58646 0
M  V30 2843 N 271.97 1.30982 0.876444 0
M  V30 2844 C 272.902 1.13902 1.98894 0
M  V30 2845 C 273.915 0.0798815 1.62604 0
M  V30 2846 O 275.104 0.326743 1.75484 0
M  V30 2847 C 272.204 0.716699 3.31235 0
M  V30 2848 C 271.377 1.85945 3.95908 0
M  V30 2849 C 270.436 1.42426 5.06558 0
M  V30 2850 O 269.462 2.13287 5.27729 0
M  V30 2851 N 270.664 0.308025 5.79682 0
M  V30 2852 H 273.429 2.09724 2.14094 0
M  V30 2853 H 270.99 1.2323 1.05004 0
M  V30 2854 H 272.982 0.408403 4.02634 0
M  V30 2855 H 271.552 -0.149719 3.12241 0
M  V30 2856 H 270.772 2.33541 3.17573 0
M  V30 2857 H 272.06 2.62503 4.35855 0
M  V30 2858 H 271.458 -0.282241 5.64995 0
M  V30 2859 H 270.015 0.0592282 6.51773 0
M  V30 2860 N 273.449 -1.08991 1.13837 0
M  V30 2861 C 274.412 -2.13925 0.822715 0
M  V30 2862 C 275.412 -1.599 -0.1699 0
M  V30 2863 O 276.602 -1.74104 0.0577251 0
M  V30 2864 C 273.734 -3.40155 0.225318 0
M  V30 2865 H 274.927 -2.43358 1.75262 0
M  V30 2866 H 272.48 -1.24603 0.943594 0
M  V30 2867 H 273.215 -3.16352 -0.713594 0
M  V30 2868 H 273 -3.80661 0.940193 0
M  V30 2869 H 274.49 -4.17594 0.0214784 0
M  V30 2870 N 274.927 -0.932562 -1.27047 0
M  V30 2871 C 275.859 -0.392734 -2.2581 0
M  V30 2872 C 276.872 0.479241 -1.55586 0
M  V30 2873 O 278.061 0.291078 -1.76111 0
M  V30 2874 C 275.161 0.455456 -3.35826 0
M  V30 2875 C 274.334 -0.398355 -4.35582 0
M  V30 2876 C 273.393 0.387985 -5.24768 0
M  V30 2877 O 272.419 -0.206003 -5.68827 0
M  V30 2878 N 273.621 1.68664 -5.55457 0
M  V30 2879 H 276.386 -1.24173 -2.72766 0
M  V30 2880 H 273.947 -0.800511 -1.40725 0
M  V30 2881 H 275.939 0.988692 -3.92437 0
M  V30 2882 H 274.509 1.20522 -2.88432 0
M  V30 2883 H 273.729 -1.11286 -3.78165 0
M  V30 2884 H 275.017 -0.981889 -4.99236 0
M  V30 2885 H 274.415 2.19147 -5.21528 0
M  V30 2886 H 272.972 2.1663 -6.14748 0
M  V30 2887 N 276.405 1.4127 -0.698611 0
M  V30 2888 C 277.338 2.28195 0.0153898 0
M  V30 2889 C 278.316 1.42402 0.784883 0
M  V30 2890 O 279.5 1.71828 0.775067 0
M  V30 2891 C 276.627 3.22685 1.02918 0
M  V30 2892 C 275.673 4.25041 0.352501 0
M  V30 2893 S 276.506 5.27757 -0.907322 0
M  V30 2894 C 277.662 6.25812 0.104796 0
M  V30 2895 H 277.895 2.88403 -0.721858 0
M  V30 2896 H 275.428 1.46452 -0.488996 0
M  V30 2897 H 277.386 3.77655 1.60893 0
M  V30 2898 H 276.047 2.61566 1.73902 0
M  V30 2899 H 275.24 4.91437 1.11828 0
M  V30 2900 H 274.842 3.73682 -0.154254 0
M  V30 2901 H 277.134 6.70705 0.957103 0
M  V30 2902 H 278.077 7.06149 -0.525323 0
M  V30 2903 H 278.485 5.62615 0.460931 0
M  V30 2904 N 277.883 0.443576 1.51229 0
M  V30 2905 C 278.83 -0.364716 2.279 0
M  V30 2906 C 279.8 -1.0114 1.31757 0
M  V30 2907 O 280.985 -1.02912 1.60667 0
M  V30 2908 C 278.125 -1.45644 3.12861 0
M  V30 2909 C 277.238 -0.827269 4.24005 0
M  V30 2910 C 276.373 -1.89456 4.96266 0
M  V30 2911 C 275.412 -1.24416 5.99322 0
M  V30 2912 N 274.549 -2.25309 6.64966 0
M  V30 2913 H 279.389 0.295464 2.96532 0
M  V30 2914 H 276.926 0.157554 1.46254 0
M  V30 2915 H 278.884 -2.10076 3.6045 0
M  V30 2916 H 277.514 -2.08616 2.46331 0
M  V30 2917 H 276.566 -0.0710839 3.80334 0
M  V30 2918 H 277.878 -0.312481 4.9782 0
M  V30 2919 H 277.032 -2.61535 5.47434 0
M  V30 2920 H 275.771 -2.4431 4.22095 0
M  V30 2921 H 274.776 -0.508868 5.4744 0
M  V30 2922 H 276.001 -0.702882 6.75453 0
M  V30 2923 H 273.947 -2.79231 5.93604 0
M  V30 2924 H 273.864 -1.78739 7.34567 0
M  V30 2925 H 275.132 -2.96853 7.20763 0
M  V30 2926 N 279.361 -1.56624 0.175154 0
M  V30 2927 C 280.609 -1.96609 -0.467885 0
M  V30 2928 C 280.93 -1.06238 -1.63519 0
M  V30 2929 O 280.2 -0.129523 -1.95471 0
M  V30 2930 H 278.78 -0.726008 -0.175845 0
M  V30 2931 H 281.442 -1.93195 0.257234 0
M  V30 2932 H 280.538 -3.00989 -0.825342 0
M  V30 2933 N 280.839 0.0985539 -1.57292 0
M  V30 2934 C 281.786 1.11981 -2.01814 0
M  V30 2935 C 282.756 1.39999 -0.89384 0
M  V30 2936 O 283.941 1.5152 -1.15958 0
M  V30 2937 C 281.081 2.43577 -2.44467 0
M  V30 2938 C 280.194 2.2232 -3.70402 0
M  V30 2939 C 279.329 3.4729 -4.01949 0
M  V30 2940 C 278.368 3.2128 -5.21005 0
M  V30 2941 N 277.505 4.38507 -5.48321 0
M  V30 2942 H 282.345 0.733149 -2.88841 0
M  V30 2943 H 279.882 0.350482 -1.42864 0
M  V30 2944 H 281.84 3.20373 -2.6724 0
M  V30 2945 H 280.47 2.80097 -1.60455 0
M  V30 2946 H 279.522 1.36343 -3.55126 0
M  V30 2947 H 280.834 1.99089 -4.57345 0
M  V30 2948 H 279.988 4.32495 -4.25479 0
M  V30 2949 H 278.727 3.73572 -3.13521 0
M  V30 2950 H 277.732 2.34468 -4.97298 0
M  V30 2951 H 278.957 2.96348 -6.11028 0
M  V30 2952 H 276.903 4.64871 -4.62851 0
M  V30 2953 H 276.82 4.18455 -6.29628 0
M  V30 2954 H 278.088 5.24787 -5.76385 0
M  V30 2955 N 282.317 1.53212 0.369288 0
M  V30 2956 C 283.247 1.82365 1.45826 0
M  V30 2957 C 284.228 0.676907 1.56051 0
M  V30 2958 O 285.413 0.926401 1.70679 0
M  V30 2959 C 282.543 2.01023 2.83208 0
M  V30 2960 C 281.497 3.1678 2.8781 0
M  V30 2961 C 280.823 3.20724 4.27832 0
M  V30 2962 C 282.123 4.55447 2.55667 0
M  V30 2963 H 283.817 2.73559 1.21678 0
M  V30 2964 H 281.363 1.3163 0.583911 0
M  V30 2965 H 283.316 2.20001 3.59413 0
M  V30 2966 H 282.04 1.06536 3.08736 0
M  V30 2967 H 280.699 2.97616 2.14056 0
M  V30 2968 H 280.347 2.23882 4.50429 0
M  V30 2969 H 280.047 3.98496 4.31827 0
M  V30 2970 H 281.571 3.41881 5.05915 0
M  V30 2971 H 282.985 4.74611 3.21586 0
M  V30 2972 H 281.382 5.35432 2.70984 0
M  V30 2973 H 282.452 4.60812 1.5093 0
M  V30 2974 N 283.795 -0.628877 1.44509 0
M  V30 2975 C 284.758 -1.72263 1.51188 0
M  V30 2976 C 285.758 -1.55907 0.39367 0
M  V30 2977 O 286.948 -1.61361 0.656377 0
M  V30 2978 C 284.08 -3.11365 1.38798 0
M  V30 2979 H 285.273 -1.67714 2.4862 0
M  V30 2980 H 282.826 -0.842737 1.31634 0
M  V30 2981 H 283.561 -3.21507 0.424693 0
M  V30 2982 H 283.346 -3.24644 2.19884 0
M  V30 2983 H 284.836 -3.91075 1.46458 0
M  V30 2984 N 285.273 -1.31445 -0.869486 0
M  V30 2985 C 286.689 -1.10113 -1.15531 0
M  V30 2986 C 286.889 0.128087 -2.01092 0
M  V30 2987 O 285.945 0.817276 -2.38908 0
M  V30 2988 C 287.258 -2.37291 -1.84698 0
M  V30 2989 C 288.806 -2.42906 -1.97397 0
M  V30 2990 C 289.281 -3.69967 -2.69979 0
M  V30 2991 N 290.772 -3.70864 -2.77514 0
M  V30 2992 C 291.507 -4.65875 -3.34287 0
M  V30 2993 N 291.003 -5.71242 -3.91988 0
M  V30 2994 N 292.796 -4.53394 -3.3225 0
M  V30 2995 H 284.947 -2.1028 -0.299347 0
M  V30 2996 H 287.21 -0.927683 -0.195214 0
M  V30 2997 H 286.916 -3.27078 -1.29278 0
M  V30 2998 H 286.79 -2.47125 -2.84972 0
M  V30 2999 H 289.177 -1.53588 -2.51982 0
M  V30 3000 H 289.258 -2.37036 -0.961643 0
M  V30 3001 H 288.902 -4.59652 -2.16062 0
M  V30 3002 H 288.832 -3.73103 -3.7162 0
M  V30 3003 H 291.323 -2.94697 -2.36563 0
M  V30 3004 H 291.636 -6.39817 -4.33421 0
M  V30 3005 H 289.981 -5.75015 -3.90362 0
M  V30 3006 H 293.172 -3.70252 -2.8641 0
M  V30 3007 H 293.345 -5.27617 -3.76197 0
M  V30 3008 N 286.751 1.08385 -1.14413 0
M  V30 3009 C 287.976 1.85057 -0.936413 0
M  V30 3010 C 288.401 1.81055 0.509971 0
M  V30 3011 O 287.759 1.1958 1.36273 0
M  V30 3012 C 287.807 3.30505 -1.44217 0
M  V30 3013 O 286.911 4.07491 -0.634409 0
M  V30 3014 H 286.252 0.573425 -0.334784 0
M  V30 3015 H 288.782 1.36799 -1.52142 0
M  V30 3016 H 288.792 3.81348 -1.45043 0
M  V30 3017 H 287.467 3.32734 -2.49522 0
M  V30 3018 H 286.044 3.66368 -0.694902 0
M  V30 3019 N 288.23 0.939286 1.26551 0
M  V30 3020 C 289.458 0.602536 1.97932 0
M  V30 3021 C 289.873 -0.82206 1.69964 0
M  V30 3022 O 289.23 -1.54789 0.966784 0
M  V30 3023 C 289.281 0.832946 3.51773 0
M  V30 3024 O 289.002 2.20151 3.78768 0
M  V30 3025 C 290.503 0.506483 4.40397 0
M  V30 3026 H 287.723 0.227248 0.631347 0
M  V30 3027 H 290.267 1.25948 1.61113 0
M  V30 3028 H 288.422 0.222644 3.8676 0
M  V30 3029 H 288.836 2.26013 4.73306 0
M  V30 3030 H 290.31 0.718333 5.47306 0
M  V30 3031 H 290.787 -0.558451 4.35635 0
M  V30 3032 H 291.393 1.09543 4.10951 0
M  V30 3033 N 289.708 -1.40897 0.706093 0
M  V30 3034 C 290.655 -2.30751 0.0474474 0
M  V30 3035 C 291.625 -1.47678 -0.76029 0
M  V30 3036 O 292.81 -1.76441 -0.726177 0
M  V30 3037 C 289.95 -3.33815 -0.875309 0
M  V30 3038 C 289.063 -4.31961 -0.0580623 0
M  V30 3039 C 288.198 -5.22093 -0.979425 0
M  V30 3040 C 287.237 -6.11902 -0.155706 0
M  V30 3041 N 286.374 -6.94482 -1.03144 0
M  V30 3042 H 291.214 -2.86513 0.819413 0
M  V30 3043 H 288.751 -1.41102 0.415783 0
M  V30 3044 H 290.709 -3.92129 -1.42446 0
M  V30 3045 H 289.339 -2.79579 -1.61356 0
M  V30 3046 H 288.391 -3.75507 0.608147 0
M  V30 3047 H 289.703 -4.95415 0.580082 0
M  V30 3048 H 288.857 -5.85292 -1.59744 0
M  V30 3049 H 287.596 -4.5889 -1.65141 0
M  V30 3050 H 286.601 -5.47742 0.475309 0
M  V30 3051 H 287.826 -6.77162 0.512635 0
M  V30 3052 H 285.772 -6.33877 -1.68924 0
M  V30 3053 H 285.689 -7.54665 -0.449108 0
M  V30 3054 H 286.957 -7.6214 -1.63593 0
M  V30 3055 N 291.186 -0.45159 -1.50991 0
M  V30 3056 C 292.096 0.358431 -2.31846 0
M  V30 3057 C 293.112 1.01438 -1.41373 0
M  V30 3058 O 294.288 1.00663 -1.74439 0
M  V30 3059 C 291.353 1.43704 -3.15515 0
M  V30 3060 C 290.414 0.799742 -4.21785 0
M  V30 3061 C 289.647 1.82696 -5.01456 0
M  V30 3062 O 289.87 3.05105 -4.81941 0
M  V30 3063 O 288.804 1.40958 -5.85162 0
M  V30 3064 H 292.63 -0.302032 -3.02194 0
M  V30 3065 H 290.215 -0.213825 -1.47862 0
M  V30 3066 H 292.097 2.06227 -3.67489 0
M  V30 3067 H 290.772 2.08133 -2.47916 0
M  V30 3068 H 289.679 0.136084 -3.73852 0
M  V30 3069 H 291.012 0.198718 -4.91799 0
M  V30 3070 N 292.664 1.56529 -0.183458 0
M  V30 3071 C 293.913 1.96419 0.458511 0
M  V30 3072 C 294.226 1.0727 1.63562 0
M  V30 3073 O 295.432 1.36893 2.34462 0
M  V30 3074 C 293.888 3.49298 0.867122 0
M  V30 3075 C 293.496 4.47092 -0.285057 0
M  V30 3076 C 295.24 3.97983 1.47683 0
M  V30 3077 C 293.147 5.91225 0.143862 0
M  V30 3078 H 292.077 0.733394 0.175071 0
M  V30 3079 H 294.728 1.81448 -0.273624 0
M  V30 3080 H 293.11 3.59731 1.65559 0
M  V30 3081 H 294.284 4.48383 -1.0625 0
M  V30 3082 H 292.599 4.08535 -0.805503 0
M  V30 3083 H 295.196 5.03134 1.80999 0
M  V30 3084 H 295.539 3.41618 2.37914 0
M  V30 3085 H 296.072 3.90617 0.752562 0
M  V30 3086 H 292.811 6.5149 -0.723974 0
M  V30 3087 H 292.331 5.93214 0.886413 0
M  V30 3088 H 294.01 6.44362 0.583628 0
M  V30 3089 N 294.142 -0.090211 1.57342 0
M  V30 3090 C 295.553 -0.644173 1.75235 0
M  V30 3091 C 295.904 -1.78865 0.806335 0
M  V30 3092 O 295.029 -2.16395 -0.0140128 0
M  V30 3093 C 295.624 -1.17532 3.1776 0
M  V30 3094 C 294.183 -1.67531 3.37061 0
M  V30 3095 C 293.33 -0.58693 2.71017 0
M  V30 3096 H 296.281 0.135884 1.58117 0
M  V30 3097 H 296.302 -2.04455 3.20902 0
M  V30 3098 H 295.814 -0.342138 3.86589 0
M  V30 3099 H 293.915 -2.53234 2.73319 0
M  V30 3100 H 294.028 -1.76493 4.45406 0
M  V30 3101 H 292.392 -1.02756 2.33052 0
M  V30 3102 H 293.175 0.235758 3.4249 0
M  V30 3103 N 295.62 -1.53406 -0.361157 0
M  V30 3104 C 296.897 -1.60411 -1.11927 0
M  V30 3105 C 297.277 -0.414385 -2.06993 0
M  V30 3106 O 296.625 0.594976 -2.20618 0
M  V30 3107 C 296.835 -2.95652 -1.85448 0
M  V30 3108 C 298.183 -3.50386 -2.39823 0
M  V30 3109 O 299.207 -2.97711 -1.95568 0
M  V30 3110 O 298.066 -4.42482 -3.20737 0
M  V30 3111 H 295.16 -0.64811 -0.513695 0
M  V30 3112 H 297.706 -1.65749 -0.364065 0
M  V30 3113 H 296.478 -3.73682 -1.16091 0
M  V30 3114 H 296.101 -2.93825 -2.67866 0
M  V30 3115 N 297.098 0.621204 -1.44841 0
M  V30 3116 C 298.008 1.7612 -1.5498 0
M  V30 3117 C 299.024 1.68477 -0.434927 0
M  V30 3118 O 300.2 1.89076 -0.693693 0
M  V30 3119 C 297.265 3.1254 -1.50065 0
M  V30 3120 C 296.326 3.31741 -2.72482 0
M  V30 3121 C 295.559 4.61653 -2.67792 0
M  V30 3122 O 295.782 5.431 -1.74352 0
M  V30 3123 O 294.716 4.83271 -3.58794 0
M  V30 3124 H 298.542 1.70518 -2.51311 0
M  V30 3125 H 296.127 0.783643 -1.27198 0
M  V30 3126 H 298.009 3.93844 -1.49882 0
M  V30 3127 H 296.684 3.18663 -0.568806 0
M  V30 3128 H 295.591 2.50077 -2.7823 0
M  V30 3129 H 296.924 3.30486 -3.64746 0
M  V30 3130 N 298.576 1.31904 0.862503 0
M  V30 3131 C 299.825 1.21373 1.61094 0
M  V30 3132 C 300.138 -0.22504 1.94301 0
M  V30 3133 O 301.344 -0.452121 2.67709 0
M  V30 3134 C 299.8 2.12525 2.9045 0
M  V30 3135 C 299.408 3.61441 2.64697 0
M  V30 3136 C 301.152 2.10813 3.68454 0
M  V30 3137 C 299.059 4.44578 3.90006 0
M  V30 3138 H 297.989 0.450705 0.604468 0
M  V30 3139 H 300.64 1.56811 0.953027 0
M  V30 3140 H 299.022 1.69994 3.57656 0
M  V30 3141 H 300.196 4.12264 2.05851 0
M  V30 3142 H 298.511 3.65205 2.00036 0
M  V30 3143 H 301.108 2.70167 4.61426 0
M  V30 3144 H 301.451 1.09713 4.01583 0
M  V30 3145 H 301.984 2.51583 3.08141 0
M  V30 3146 H 298.723 5.46461 3.62023 0
M  V30 3147 H 298.243 3.98508 4.48276 0
M  V30 3148 H 299.922 4.57176 4.5782 0
M  V30 3149 N 300.054 -1.07777 1.14986 0
M  V30 3150 C 301.279 -1.84558 0.946213 0
M  V30 3151 C 301.704 -1.81323 -0.500362 0
M  V30 3152 O 301.062 -1.20301 -1.35637 0
M  V30 3153 C 301.11 -3.29736 1.45968 0
M  V30 3154 O 300.214 -4.07149 0.65601 0
M  V30 3155 H 299.555 -0.571641 0.33782 0
M  V30 3156 H 302.085 -1.35991 1.52865 0
M  V30 3157 H 302.095 -3.80574 1.47063 0
M  V30 3158 H 300.77 -3.31406 2.51283 0
M  V30 3159 H 299.347 -3.65994 0.714322 0
M  V30 3160 N 301.532 -0.945985 -1.26051 0
M  V30 3161 C 302.781 -0.591836 -1.92822 0
M  V30 3162 C 303.094 0.873956 -1.7499 0
M  V30 3163 O 304.3 1.33769 -2.36259 0
M  V30 3164 C 302.756 -1.00776 -3.45503 0
M  V30 3165 C 302.364 -2.4955 -3.7206 0
M  V30 3166 C 304.108 -0.725735 -4.1825 0
M  V30 3167 C 302.015 -2.84988 -5.18205 0
M  V30 3168 H 300.945 -0.217635 -0.721908 0
M  V30 3169 H 303.596 -1.14927 -1.43052 0
M  V30 3170 H 301.978 -0.378812 -3.94184 0
M  V30 3171 H 303.152 -3.1739 -3.34066 0
M  V30 3172 H 301.467 -2.75133 -3.12555 0
M  V30 3173 H 304.064 -0.966771 -5.25887 0
M  V30 3174 H 304.407 0.337639 -4.14929 0
M  V30 3175 H 304.94 -1.31463 -3.7545 0
M  V30 3176 H 301.679 -3.90307 -5.26631 0
M  V30 3177 H 301.199 -2.21813 -5.57278 0
M  V30 3178 H 302.878 -2.73712 -5.86252 0
M  V30 3179 N 303.011 1.40521 -0.713556 0
M  V30 3180 C 303.941 2.33381 -0.0743864 0
M  V30 3181 C 304.922 1.52784 0.747735 0
M  V30 3182 O 306.107 1.81258 0.697071 0
M  V30 3183 C 303.237 3.36748 0.849598 0
M  V30 3184 C 302.191 4.27793 0.133247 0
M  V30 3185 C 301.517 5.21679 1.17281 0
M  V30 3186 C 302.817 5.12415 -1.01134 0
M  V30 3187 H 304.511 2.87081 -0.850007 0
M  V30 3188 H 302.057 1.38034 -0.410201 0
M  V30 3189 H 304.01 4.00648 1.30612 0
M  V30 3190 H 302.734 2.81439 1.65709 0
M  V30 3191 H 301.393 3.65342 -0.303426 0
M  V30 3192 H 301.041 4.62677 1.9733 0
M  V30 3193 H 300.741 5.83435 0.698397 0
M  V30 3194 H 302.265 5.88456 1.62947 0
M  V30 3195 H 303.679 5.69781 -0.634274 0
M  V30 3196 H 302.076 5.83203 -1.41399 0
M  V30 3197 H 303.146 4.48514 -1.84292 0
M  V30 3198 N 304.489 0.459591 1.5075 0
M  V30 3199 C 305.419 -0.330644 2.31147 0
M  V30 3200 C 306.4 -1.00087 1.37538 0
M  V30 3201 O 307.585 -1.00025 1.66459 0
M  V30 3202 C 304.715 -1.41958 3.16962 0
M  V30 3203 C 303.669 -0.871608 4.19031 0
M  V30 3204 C 302.995 -2.05797 4.9351 0
M  V30 3205 C 304.295 0.109251 5.22186 0
M  V30 3206 H 305.989 0.340336 2.97459 0
M  V30 3207 H 303.535 0.165119 1.4305 0
M  V30 3208 H 305.488 -1.9798 3.71997 0
M  V30 3209 H 304.212 -2.11917 2.48513 0
M  V30 3210 H 302.871 -0.333442 3.6508 0
M  V30 3211 H 302.519 -2.74427 4.21544 0
M  V30 3212 H 302.219 -1.6976 5.62544 0
M  V30 3213 H 303.743 -2.62331 5.51375 0
M  V30 3214 H 305.157 -0.361405 5.7216 0
M  V30 3215 H 303.554 0.383316 5.98875 0
M  V30 3216 H 304.624 1.03887 4.73641 0
M  V30 3217 N 305.967 -1.56429 0.191757 0
M  V30 3218 C 306.897 -2.21937 -0.725696 0
M  V30 3219 C 307.878 -1.1814 -1.2238 0
M  V30 3220 O 309.063 -1.46636 -1.27325 0
M  V30 3221 C 306.193 -2.87611 -1.94672 0
M  V30 3222 C 305.147 -3.97623 -1.58366 0
M  V30 3223 C 304.473 -4.50446 -2.88102 0
M  V30 3224 C 305.773 -5.16197 -0.796133 0
M  V30 3225 H 307.467 -2.98861 -0.179606 0
M  V30 3226 H 305.013 -1.43749 -0.0849464 0
M  V30 3227 H 306.966 -3.3212 -2.59373 0
M  V30 3228 H 305.69 -2.08087 -2.51728 0
M  V30 3229 H 304.349 -3.53801 -0.960247 0
M  V30 3230 H 303.997 -3.67688 -3.43241 0
M  V30 3231 H 303.697 -5.24675 -2.64556 0
M  V30 3232 H 305.221 -4.97654 -3.53798 0
M  V30 3233 H 306.635 -5.57271 -1.34618 0
M  V30 3234 H 305.032 -5.96471 -0.658928 0
M  V30 3235 H 306.102 -4.84473 0.203478 0
M  V30 3236 N 307.445 0.0818655 -1.57387 0
M  V30 3237 C 308.693 0.781368 -1.86384 0
M  V30 3238 C 309.014 1.78618 -0.782342 0
M  V30 3239 O 308.284 1.94976 0.190061 0
M  V30 3240 H 306.864 0.291562 -0.687751 0
M  V30 3241 H 309.526 0.060348 -1.94807 0
M  V30 3242 H 308.622 1.3038 -2.83562 0
M  V30 3243 N 308.923 1.53595 0.353017 0
M  V30 3244 C 310.169 1.70638 1.09593 0
M  V30 3245 C 310.502 0.463286 1.88593 0
M  V30 3246 O 309.777 -0.539597 1.86865 0
M  V30 3247 C 310.06 2.96406 2.04489 0
M  V30 3248 C 309.913 4.30901 1.29014 0
M  V30 3249 C 311.232 3.17812 3.0444 0
M  V30 3250 H 308.351 0.620913 0.397034 0
M  V30 3251 H 310.993 1.86254 0.375446 0
M  V30 3252 H 309.143 2.83223 2.65927 0
M  V30 3253 H 310.815 4.55917 0.702638 0
M  V30 3254 H 309.058 4.29741 0.592071 0
M  V30 3255 H 309.729 5.1506 1.98537 0
M  V30 3256 H 312.205 3.30263 2.53112 0
M  V30 3257 H 311.081 4.07223 3.6805 0
M  V30 3258 H 311.342 2.33669 3.75301 0
M  V30 3259 N 310.401 -0.613514 1.45168 0
M  V30 3260 C 311.364 -1.7065 1.53007 0
M  V30 3261 C 312.364 -1.5548 0.410184 0
M  V30 3262 O 313.554 -1.60656 0.673455 0
M  V30 3263 C 310.686 -3.09875 1.42093 0
M  V30 3264 H 311.879 -1.65068 2.50385 0
M  V30 3265 H 309.432 -0.828728 1.32521 0
M  V30 3266 H 310.167 -3.21039 0.458769 0
M  V30 3267 H 309.952 -3.22293 2.23315 0
M  V30 3268 H 311.442 -3.895 1.50598 0
M  V30 3269 N 311.879 -1.3236 -0.855495 0
M  V30 3270 C 312.829 -1.17809 -1.95205 0
M  V30 3271 C 313.813 -0.0852319 -1.60674 0
M  V30 3272 O 315.005 -0.311651 -1.74235 0
M  V30 3273 C 312.134 -0.902437 -3.31226 0
M  V30 3274 C 311.22 -2.03695 -3.7198 0
M  V30 3275 N 311.611 -3.28544 -3.84568 0
M  V30 3276 C 309.909 -1.93993 -4.016 0
M  V30 3277 C 310.61 -4.02847 -4.19629 0
M  V30 3278 N 309.586 -3.31138 -4.31102 0
M  V30 3279 H 313.388 -2.12462 -2.0307 0
M  V30 3280 H 310.902 -1.24127 -1.0472 0
M  V30 3281 H 312.899 -0.77915 -4.09554 0
M  V30 3282 H 311.559 0.0357267 -3.2468 0
M  V30 3283 H 312.57 -3.6349 -3.68911 0
M  V30 3284 H 309.247 -1.07733 -4.03361 0
M  V30 3285 H 310.637 -5.10506 -4.36845 0
M  V30 3286 N 313.357 1.07166 -1.15556 0
M  V30 3287 C 314.604 1.79798 -0.931604 0
M  V30 3288 C 314.932 1.8682 0.54115 0
M  V30 3289 O 314.187 1.34942 1.41736 0
M  V30 3290 C 314.486 3.24707 -1.49332 0
M  V30 3291 C 314.152 3.37781 -2.98688 0
M  V30 3292 C 312.814 3.41057 -3.39461 0
M  V30 3293 C 315.166 3.40424 -3.94665 0
M  V30 3294 C 312.494 3.4458 -4.74849 0
M  V30 3295 C 314.846 3.45485 -5.29927 0
M  V30 3296 C 313.51 3.47039 -5.70193 0
M  V30 3297 H 312.78 0.657928 -0.340898 0
M  V30 3298 H 315.427 1.26091 -1.44129 0
M  V30 3299 H 313.732 3.81208 -0.904859 0
M  V30 3300 H 315.429 3.79486 -1.29582 0
M  V30 3301 H 312.019 3.35932 -2.66172 0
M  V30 3302 H 316.203 3.37113 -3.64237 0
M  V30 3303 H 311.459 3.44083 -5.05388 0
M  V30 3304 H 315.633 3.46476 -6.04092 0
M  V30 3305 H 313.26 3.49522 -6.75084 0
M  V30 3306 N 314.835 0.952656 1.25548 0
M  V30 3307 C 315.782 0.47008 2.25962 0
M  V30 3308 C 316.752 -0.476384 1.59122 0
M  V30 3309 O 317.937 -0.39007 1.8677 0
M  V30 3310 C 315.077 -0.247881 3.44209 0
M  V30 3311 C 314.19 0.735591 4.25691 0
M  V30 3312 C 313.325 -0.0047306 5.312 0
M  V30 3313 C 312.364 0.969805 6.04368 0
M  V30 3314 N 311.501 0.260486 7.01617 0
M  V30 3315 H 316.341 1.33126 2.66611 0
M  V30 3316 H 313.878 0.66765 1.31076 0
M  V30 3317 H 315.836 -0.680695 4.1161 0
M  V30 3318 H 314.466 -1.07312 3.0444 0
M  V30 3319 H 313.518 1.28689 3.57971 0
M  V30 3320 H 314.83 1.47934 4.76358 0
M  V30 3321 H 313.984 -0.496275 6.04667 0
M  V30 3322 H 312.723 -0.781282 4.81401 0
M  V30 3323 H 311.728 1.47237 5.29718 0
M  V30 3324 H 312.953 1.74655 6.56256 0
M  V30 3325 H 310.899 -0.497364 6.54112 0
M  V30 3326 H 310.816 0.943362 7.50091 0
M  V30 3327 H 312.084 -0.209587 7.79218 0
M  V30 3328 N 316.313 -1.40141 0.720998 0
M  V30 3329 C 317.561 -2.0039 0.262323 0
M  V30 3330 C 317.882 -1.57469 -1.15015 0
M  V30 3331 O 317.152 -0.816582 -1.78069 0
M  V30 3332 H 315.732 -0.741063 0.093996 0
M  V30 3333 H 318.394 -1.71398 0.927835 0
M  V30 3334 H 317.49 -3.10658 0.299671 0
M  V30 3335 N 317.792 -0.46758 -1.50504 0
M  V30 3336 C 318.724 0.364655 -2.26281 0
M  V30 3337 C 319.737 0.960151 -1.31472 0
M  V30 3338 O 320.926 0.849153 -1.57008 0
M  V30 3339 C 318.026 1.52509 -3.02645 0
M  V30 3340 C 317.199 1.04302 -4.24782 0
M  V30 3341 C 316.258 2.07709 -4.8347 0
M  V30 3342 O 315.284 1.65913 -5.44483 0
M  V30 3343 N 316.486 3.40485 -4.70159 0
M  V30 3344 H 319.251 -0.28495 -2.98342 0
M  V30 3345 H 316.812 -0.298163 -1.59131 0
M  V30 3346 H 318.804 2.21371 -3.38787 0
M  V30 3347 H 317.374 2.07945 -2.33404 0
M  V30 3348 H 316.594 0.180393 -3.93787 0
M  V30 3349 H 317.882 0.698798 -5.03978 0
M  V30 3350 H 317.28 3.77155 -4.21629 0
M  V30 3351 H 315.837 4.05156 -5.1058 0
M  V30 3352 N 319.27 1.56325 -0.20005 0
M  V30 3353 C 320.516 1.98772 0.431408 0
M  V30 3354 C 320.871 1.0849 1.58895 0
M  V30 3355 O 320.164 0.130331 1.91156 0
M  V30 3356 C 320.358 3.4495 0.935103 0
M  V30 3357 C 320.187 4.49371 -0.172096 0
M  V30 3358 C 318.957 5.0134 -0.631377 0
M  V30 3359 C 321.155 5.04822 -0.982806 0
M  V30 3360 N 319.137 5.89433 -1.71588 0
M  V30 3361 C 320.508 5.89632 -1.91661 0
M  V30 3362 C 322.563 4.87242 -1.02467 0
M  V30 3363 C 321.266 6.58741 -2.88881 0
M  V30 3364 C 323.292 5.57094 -1.98494 0
M  V30 3365 C 322.654 6.41655 -2.90617 0
M  V30 3366 H 318.753 0.771922 0.125144 0
M  V30 3367 H 321.337 1.92266 -0.306883 0
M  V30 3368 H 319.508 3.51946 1.64282 0
M  V30 3369 H 321.24 3.74354 1.53758 0
M  V30 3370 H 317.995 4.73071 -0.223827 0
M  V30 3371 H 318.419 6.38182 -2.25948 0
M  V30 3372 H 323.061 4.21538 -0.326408 0
M  V30 3373 H 320.779 7.23641 -3.5968 0
M  V30 3374 H 324.365 5.45466 -2.0238 0
M  V30 3375 H 323.245 6.94755 -3.63711 0
M  V30 3376 N 320.748 -0.0735177 1.57428 0
M  V30 3377 C 321.994 -0.774145 1.87443 0
M  V30 3378 C 322.327 -1.77311 0.792103 0
M  V30 3379 O 321.602 -1.93492 -0.197793 0
M  V30 3380 C 321.885 -1.48367 3.28115 0
M  V30 3381 C 321.738 -0.501227 4.46999 0
M  V30 3382 C 323.057 -2.429 3.66998 0
M  V30 3383 H 320.176 -0.279971 0.681752 0
M  V30 3384 H 322.818 -0.0373616 1.89963 0
M  V30 3385 H 320.968 -2.11171 3.26097 0
M  V30 3386 H 322.64 0.121468 4.6114 0
M  V30 3387 H 320.883 0.183593 4.33411 0
M  V30 3388 H 321.554 -1.03526 5.42205 0
M  V30 3389 H 324.03 -1.90175 3.70098 0
M  V30 3390 H 322.906 -2.89549 4.66318 0
M  V30 3391 H 323.167 -3.27628 2.96837 0
M  V30 3392 N 322.226 -1.5378 -0.344866 0
M  V30 3393 C 323.454 -1.74899 -1.10534 0
M  V30 3394 C 323.869 -0.487534 -1.82397 0
M  V30 3395 O 323.226 0.540741 -1.74305 0
M  V30 3396 C 323.277 -2.92822 -2.11984 0
M  V30 3397 O 322.998 -4.14089 -1.43044 0
M  V30 3398 C 324.499 -3.25982 -3.00417 0
M  V30 3399 H 321.719 -0.584426 -0.329678 0
M  V30 3400 H 324.263 -2.006 -0.397474 0
M  V30 3401 H 322.418 -2.69457 -2.78338 0
M  V30 3402 H 322.832 -4.80272 -2.10805 0
M  V30 3403 H 324.306 -4.11848 -3.67539 0
M  V30 3404 H 324.783 -2.42228 -3.66363 0
M  V30 3405 H 325.389 -3.51349 -2.39654 0
M  V30 3406 N 323.704 0.605807 -1.45491 0
M  V30 3407 C 324.651 1.7164 -1.54299 0
M  V30 3408 C 325.621 1.61486 -0.388761 0
M  V30 3409 O 326.806 1.81039 -0.602445 0
M  V30 3410 C 323.946 3.09953 -1.51734 0
M  V30 3411 C 323.059 3.309 -2.77721 0
M  V30 3412 C 322.194 4.59329 -2.66816 0
M  V30 3413 C 321.233 4.7354 -3.87848 0
M  V30 3414 N 320.37 5.9327 -3.75467 0
M  V30 3415 H 325.21 1.63449 -2.49176 0
M  V30 3416 H 322.747 0.796957 -1.23641 0
M  V30 3417 H 324.705 3.89977 -1.48235 0
M  V30 3418 H 323.335 3.17098 -0.604068 0
M  V30 3419 H 322.387 2.44639 -2.913 0
M  V30 3420 H 323.699 3.37274 -3.67488 0
M  V30 3421 H 322.853 5.4755 -2.61292 0
M  V30 3422 H 321.592 4.55355 -1.74651 0
M  V30 3423 H 320.597 3.83741 -3.93729 0
M  V30 3424 H 321.822 4.79309 -4.81082 0
M  V30 3425 H 319.768 5.90338 -2.86072 0
M  V30 3426 H 319.685 6.00811 -4.5887 0
M  V30 3427 H 320.953 6.83984 -3.73879 0
M  V30 3428 N 325.182 1.32811 0.848464 0
M  V30 3429 C 326.429 1.23724 1.60308 0
M  V30 3430 C 326.757 -0.1994 1.93475 0
M  V30 3431 O 326.012 -1.15406 1.5805 0
M  V30 3432 C 326.311 2.04831 2.92881 0
M  V30 3433 C 325.977 3.54125 2.79117 0
M  V30 3434 C 324.639 3.94829 2.7507 0
M  V30 3435 C 326.991 4.49036 2.64606 0
M  V30 3436 C 324.319 5.28675 2.544 0
M  V30 3437 C 326.671 5.83033 2.4547 0
M  V30 3438 C 325.335 6.22931 2.39819 0
M  V30 3439 H 324.605 0.452737 0.586609 0
M  V30 3440 H 327.252 1.64301 0.983743 0
M  V30 3441 H 325.557 1.57001 3.58968 0
M  V30 3442 H 327.254 1.95164 3.50303 0
M  V30 3443 H 323.844 3.21801 2.83094 0
M  V30 3444 H 328.028 4.18505 2.66772 0
M  V30 3445 H 323.284 5.58637 2.48465 0
M  V30 3446 H 327.458 6.56186 2.33222 0
M  V30 3447 H 325.085 7.26584 2.23562 0
M  V30 3448 N 326.66 -1.06551 1.16123 0
M  V30 3449 C 327.937 -1.76097 0.85142 0
M  V30 3450 C 328.317 -2.00802 -0.6513 0
M  V30 3451 O 327.665 -1.63302 -1.59827 0
M  V30 3452 C 327.875 -3.06384 1.67122 0
M  V30 3453 C 329.223 -3.80585 1.88255 0
M  V30 3454 O 330.247 -3.16218 1.63966 0
M  V30 3455 O 329.106 -4.96212 2.2899 0
M  V30 3456 H 326.2 -0.765102 0.313923 0
M  V30 3457 H 328.746 -1.12844 1.26745 0
M  V30 3458 H 327.518 -2.84071 2.69108 0
M  V30 3459 H 327.141 -3.77371 1.25206 0
M  V30 3460 N 328.138 -0.959301 -1.25041 0
M  V30 3461 C 329.363 -0.633507 -1.97488 0
M  V30 3462 C 329.788 0.788555 -1.70773 0
M  V30 3463 O 329.146 1.53394 -0.966431 0
M  V30 3464 C 329.194 -0.904057 -3.49083 0
M  V30 3465 O 328.298 0.0147939 -4.12397 0
M  V30 3466 H 327.639 -0.240368 -0.618966 0
M  V30 3467 H 330.169 -1.28717 -1.59038 0
M  V30 3468 H 330.179 -0.832203 -3.99423 0
M  V30 3469 H 328.854 -1.94048 -3.67856 0
M  V30 3470 H 327.431 -0.109664 -3.72739 0
M  V30 3471 N 329.616 1.39756 -0.72842 0
M  V30 3472 C 331.032 1.5442 -0.403308 0
M  V30 3473 C 331.232 1.69694 1.08656 0
M  V30 3474 O 330.288 1.69373 1.87267 0
M  V30 3475 C 331.601 2.76555 -1.18058 0
M  V30 3476 C 333.149 2.90384 -1.16815 0
M  V30 3477 C 333.624 4.15449 -1.92785 0
M  V30 3478 N 335.115 4.22475 -1.89918 0
M  V30 3479 C 335.85 5.1818 -2.45514 0
M  V30 3480 N 335.346 6.19714 -3.09719 0
M  V30 3481 N 337.139 5.1035 -2.35584 0
M  V30 3482 H 329.29 1.28089 -1.69431 0
M  V30 3483 H 331.553 0.620327 -0.716867 0
M  V30 3484 H 331.259 2.7159 -2.23455 0
M  V30 3485 H 331.133 3.69033 -0.780662 0
M  V30 3486 H 333.52 2.94846 -0.12234 0
M  V30 3487 H 333.601 1.98988 -1.6074 0
M  V30 3488 H 333.245 4.11749 -2.97364 0
M  V30 3489 H 333.175 5.05877 -1.46272 0
M  V30 3490 H 335.666 3.49743 -1.43138 0
M  V30 3491 H 335.979 6.8919 -3.49625 0
M  V30 3492 H 334.324 6.20121 -3.13807 0
M  V30 3493 H 337.515 4.2996 -1.85072 0
M  V30 3494 H 337.688 5.84761 -2.79211 0
M  V30 3495 N 331.094 0.475555 1.50254 0
M  V30 3496 C 332.041 -0.316293 2.28622 0
M  V30 3497 C 333.011 -0.983227 1.33873 0
M  V30 3498 O 334.196 -0.994805 1.62814 0
M  V30 3499 C 331.336 -1.38975 3.1588 0
M  V30 3500 C 330.449 -0.737146 4.25664 0
M  V30 3501 C 329.584 -1.78887 5.00173 0
M  V30 3502 C 328.623 -1.11676 6.01826 0
M  V30 3503 N 327.76 -2.11154 6.69596 0
M  V30 3504 H 332.6 0.358297 2.95838 0
M  V30 3505 H 330.137 0.188541 1.45887 0
M  V30 3506 H 332.095 -2.02383 3.64825 0
M  V30 3507 H 330.725 -2.03344 2.50701 0
M  V30 3508 H 329.777 0.0096065 3.80399 0
M  V30 3509 H 331.089 -0.206816 4.98371 0
M  V30 3510 H 330.243 -2.49865 5.52859 0
M  V30 3511 H 328.982 -2.35302 4.27182 0
M  V30 3512 H 327.987 -0.392633 5.48396 0
M  V30 3513 H 329.212 -0.55945 6.76792 0
M  V30 3514 H 327.158 -2.66577 5.99394 0
M  V30 3515 H 327.075 -1.63118 7.38193 0
M  V30 3516 H 328.343 -2.81497 7.26897 0
M  V30 3517 N 332.573 -1.56217 0.208337 0
M  V30 3518 C 333.801 -2.02337 -0.43215 0
M  V30 3519 C 334.216 -1.08834 -1.54275 0
M  V30 3520 O 333.573 -0.0955462 -1.8225 0
M  V30 3521 C 333.624 -3.48072 -0.976138 0
M  V30 3522 O 333.345 -4.38007 0.0901621 0
M  V30 3523 C 334.846 -4.09773 -1.69119 0
M  V30 3524 H 332.066 -0.662385 -0.10718 0
M  V30 3525 H 334.61 -2.01966 0.320923 0
M  V30 3526 H 332.765 -3.49099 -1.67954 0
M  V30 3527 H 333.179 -5.23543 -0.316701 0
M  V30 3528 H 334.653 -5.13556 -2.02397 0
M  V30 3529 H 335.13 -3.53999 -2.59964 0
M  V30 3530 H 335.736 -4.12556 -1.03332 0
M  V30 3531 N 334.051 0.0651679 -1.57465 0
M  V30 3532 C 335.276 0.779605 -1.9219 0
M  V30 3533 C 335.701 1.69988 -0.805333 0
M  V30 3534 O 335.059 1.79685 0.241435 0
M  V30 3535 C 335.107 1.54364 -3.2589 0
M  V30 3536 O 334.211 2.65474 -3.1559 0
M  V30 3537 H 333.552 0.212249 -0.629163 0
M  V30 3538 H 336.082 0.0314294 -2.04576 0
M  V30 3539 H 336.092 1.92146 -3.59922 0
M  V30 3540 H 334.767 0.868457 -4.06732 0
M  V30 3541 H 333.344 2.30501 -2.93128 0
M  V30 3542 N 335.529 1.53961 0.336706 0
M  V30 3543 C 336.459 1.85417 1.41925 0
M  V30 3544 C 337.44 0.709856 1.5458 0
M  V30 3545 O 338.625 0.962396 1.68676 0
M  V30 3546 C 335.755 2.06985 2.78881 0
M  V30 3547 C 334.709 3.22813 2.81026 0
M  V30 3548 C 334.035 3.29727 4.20932 0
M  V30 3549 C 335.335 4.60767 2.45949 0
M  V30 3550 H 337.029 2.76079 1.15848 0
M  V30 3551 H 334.575 1.32839 0.555859 0
M  V30 3552 H 336.528 2.27575 3.54665 0
M  V30 3553 H 335.252 1.13061 3.06406 0
M  V30 3554 H 333.911 3.0209 2.07695 0
M  V30 3555 H 333.559 2.33385 4.45579 0
M  V30 3556 H 333.259 4.07566 4.23277 0
M  V30 3557 H 334.783 3.52536 4.98549 0
M  V30 3558 H 336.197 4.81325 3.11446 0
M  V30 3559 H 334.594 5.4106 2.59566 0
M  V30 3560 H 335.664 4.6391 1.41122 0
M  V30 3561 N 337.007 -0.598083 1.45811 0
M  V30 3562 C 337.917 -1.73632 1.57763 0
M  V30 3563 C 338.933 -1.67763 0.461676 0
M  V30 3564 O 340.109 -1.87949 0.723685 0
M  V30 3565 C 337.174 -3.10114 1.55018 0
M  V30 3566 C 336.235 -3.27364 2.77726 0
M  V30 3567 C 335.468 -4.57334 2.75102 0
M  V30 3568 O 335.691 -5.40258 1.8297 0
M  V30 3569 O 334.625 -4.77502 3.66437 0
M  V30 3570 H 338.451 -1.66498 2.53992 0
M  V30 3571 H 336.036 -0.763308 1.28429 0
M  V30 3572 H 337.918 -3.9141 1.56129 0
M  V30 3573 H 336.593 -3.17718 0.619431 0
M  V30 3574 H 335.5 -2.45619 2.82174 0
M  V30 3575 H 336.833 -3.24641 3.69958 0
M  V30 3576 N 338.485 -1.33259 -0.841409 0
M  V30 3577 C 339.762 -1.15174 -1.58096 0
M  V30 3578 C 340.142 0.282858 -2.09196 0
M  V30 3579 O 339.49 1.28151 -1.89181 0
M  V30 3580 C 339.7 -2.1907 -2.71679 0
M  V30 3581 C 341.048 -2.53093 -3.40924 0
M  V30 3582 O 342.072 -2.17717 -2.81918 0
M  V30 3583 O 340.931 -3.1379 -4.47435 0
M  V30 3584 H 338.025 -0.445303 -0.696875 0
M  V30 3585 H 340.571 -1.44833 -0.884385 0
M  V30 3586 H 339.343 -3.15443 -2.31541 0
M  V30 3587 H 338.966 -1.90481 -3.49002 0
M  V30 3588 N 339.963 1.05934 -1.16686 0
M  V30 3589 C 341.21 1.788 -0.950622 0
M  V30 3590 C 341.538 1.87384 0.521305 0
M  V30 3591 O 340.793 1.36438 1.40297 0
M  V30 3592 C 341.092 3.23105 -1.52767 0
M  V30 3593 C 340.758 3.34594 -3.02254 0
M  V30 3594 C 339.42 3.37437 -3.43059 0
M  V30 3595 C 341.772 3.36219 -3.98254 0
M  V30 3596 C 339.1 3.39525 -4.78477 0
M  V30 3597 C 341.452 3.39845 -5.33562 0
M  V30 3598 C 340.116 3.40971 -5.73842 0
M  V30 3599 H 339.386 0.654275 -0.347857 0
M  V30 3600 H 342.033 1.24555 -1.45459 0
M  V30 3601 H 340.338 3.80227 -0.94524 0
M  V30 3602 H 342.035 3.7809 -1.336 0
M  V30 3603 H 338.625 3.3309 -2.6972 0
M  V30 3604 H 342.809 3.33231 -3.67792 0
M  V30 3605 H 338.065 3.38703 -5.09009 0
M  V30 3606 H 342.239 3.4005 -6.07733 0
M  V30 3607 H 339.866 3.42342 -6.78753 0
M  V30 3608 N 341.441 0.965919 1.2453 0
M  V30 3609 C 342.671 0.643451 1.96324 0
M  V30 3610 C 343.079 -0.790927 1.71875 0
M  V30 3611 O 342.422 -1.54208 0.998273 0
M  V30 3612 C 342.484 0.836078 3.49643 0
M  V30 3613 C 342.148 2.24975 3.97788 0
M  V30 3614 C 343.145 3.22735 4.07601 0
M  V30 3615 C 340.83 2.57697 4.31158 0
M  V30 3616 C 342.824 4.51303 4.50116 0
M  V30 3617 C 340.511 3.86492 4.73357 0
M  V30 3618 C 341.509 4.83107 4.828 0
M  V30 3619 O 341.197 6.09605 5.24058 0
M  V30 3620 H 340.929 0.239223 0.632257 0
M  V30 3621 H 343.483 1.29587 1.59362 0
M  V30 3622 H 341.713 0.12649 3.86493 0
M  V30 3623 H 343.402 0.512965 4.02646 0
M  V30 3624 H 344.168 2.98783 3.82039 0
M  V30 3625 H 340.047 1.83216 4.23028 0
M  V30 3626 H 343.591 5.26716 4.57401 0
M  V30 3627 H 339.488 4.10245 4.98366 0
M  V30 3628 H 340.256 6.13146 5.42213 0
M  V30 3629 N 342.919 -1.39368 0.735821 0
M  V30 3630 C 343.849 -2.33234 0.111506 0
M  V30 3631 C 344.83 -1.53954 -0.723334 0
M  V30 3632 O 346.015 -1.82344 -0.668147 0
M  V30 3633 C 343.145 -3.38057 -0.795917 0
M  V30 3634 C 342.099 -4.2795 -0.065172 0
M  V30 3635 C 341.425 -5.23479 -1.08967 0
M  V30 3636 C 342.725 -5.10741 1.09273 0
M  V30 3637 H 344.419 -2.85692 0.895571 0
M  V30 3638 H 341.965 -1.37364 0.432109 0
M  V30 3639 H 343.918 -4.02675 -1.24221 0
M  V30 3640 H 342.642 -2.8404 -1.61211 0
M  V30 3641 H 341.301 -3.64813 0.361511 0
M  V30 3642 H 340.949 -4.65758 -1.89944 0
M  V30 3643 H 340.649 -5.84472 -0.605489 0
M  V30 3644 H 342.173 -5.90974 -1.53565 0
M  V30 3645 H 343.587 -5.68699 0.724841 0
M  V30 3646 H 341.984 -5.8088 1.50659 0
M  V30 3647 H 343.054 -4.45525 1.91404 0
M  V30 3648 N 344.397 -0.483516 -1.5 0
M  V30 3649 C 345.674 0.129337 -1.95172 0
M  V30 3650 C 346.054 1.55802 -1.4244 0
M  V30 3651 O 345.402 2.19625 -0.630649 0
M  V30 3652 C 345.612 0.0599251 -3.48949 0
M  V30 3653 C 346.96 0.242617 -4.23906 0
M  V30 3654 O 347.984 0.135933 -3.55941 0
M  V30 3655 O 346.843 0.459454 -5.44565 0
M  V30 3656 H 343.937 0.104887 -0.820322 0
M  V30 3657 H 346.483 -0.544807 -1.60717 0
M  V30 3658 H 345.255 -0.937079 -3.79914 0
M  V30 3659 H 344.878 0.774984 -3.89974 0
M  V30 3660 N 345.875 1.56104 -0.216619 0
M  V30 3661 C 346.785 2.23694 0.706982 0
M  V30 3662 C 347.801 1.24295 1.21765 0
M  V30 3663 O 348.977 1.57094 1.2603 0
M  V30 3664 C 346.042 2.8998 1.90033 0
M  V30 3665 C 345.103 4.04708 1.43213 0
M  V30 3666 C 344.336 4.67824 2.56859 0
M  V30 3667 O 344.559 4.29913 3.74874 0
M  V30 3668 O 343.493 5.56905 2.28343 0
M  V30 3669 H 347.319 3.03272 0.161235 0
M  V30 3670 H 344.904 1.49394 0.0136177 0
M  V30 3671 H 346.786 3.31837 2.59735 0
M  V30 3672 H 345.461 2.13365 2.43428 0
M  V30 3673 H 344.368 3.6743 0.70327 0
M  V30 3674 H 345.701 4.83051 0.944615 0
M  V30 3675 N 347.353 -0.0568162 1.57498 0
M  V30 3676 C 348.263 -1.08346 2.08083 0
M  V30 3677 C 349.279 -1.41439 1.01346 0
M  V30 3678 O 350.455 -1.51316 1.32912 0
M  V30 3679 C 347.52 -2.37352 2.52715 0
M  V30 3680 C 346.581 -2.11093 3.73816 0
M  V30 3681 C 345.814 -3.33949 4.1631 0
M  V30 3682 O 346.037 -4.43622 3.58547 0
M  V30 3683 O 344.971 -3.21279 5.08983 0
M  V30 3684 H 348.797 -0.683667 2.95905 0
M  V30 3685 H 346.382 -0.271965 1.46904 0
M  V30 3686 H 348.264 -3.13246 2.81877 0
M  V30 3687 H 346.939 -2.76681 1.68016 0
M  V30 3688 H 345.846 -1.32856 3.49714 0
M  V30 3689 H 347.179 -1.76637 4.59413 0
M  V30 3690 N 348.832 -1.54138 -0.328536 0
M  V30 3691 C 350.248 -1.44736 -0.672574 0
M  V30 3692 C 350.448 -0.616217 -1.91846 0
M  V30 3693 O 349.504 -0.113067 -2.52247 0
M  V30 3694 C 350.817 -2.884 -0.851217 0
M  V30 3695 C 352.365 -2.98271 -0.948877 0
M  V30 3696 C 352.84 -4.43074 -1.15973 0
M  V30 3697 N 354.331 -4.46665 -1.22658 0
M  V30 3698 C 355.066 -5.55857 -1.40751 0
M  V30 3699 N 354.562 -6.75026 -1.5592 0
M  V30 3700 N 356.355 -5.43495 -1.4342 0
M  V30 3701 H 348.506 -2.06661 0.490421 0
M  V30 3702 H 350.769 -0.934812 0.157579 0
M  V30 3703 H 350.475 -3.51699 -0.00704236 0
M  V30 3704 H 350.349 -3.34225 -1.74853 0
M  V30 3705 H 352.736 -2.35102 -1.78356 0
M  V30 3706 H 352.817 -2.55785 -0.0281435 0
M  V30 3707 H 352.461 -5.06827 -0.329915 0
M  V30 3708 H 352.391 -4.83165 -2.09426 0
M  V30 3709 H 354.882 -3.60797 -1.124 0
M  V30 3710 H 355.195 -7.54004 -1.69404 0
M  V30 3711 H 353.54 -6.77944 -1.53027 0
M  V30 3712 H 356.731 -4.49349 -1.31162 0
M  V30 3713 H 356.904 -6.28649 -1.57178 0
M  V30 3714 N 350.31 0.590341 -1.46126 0
M  V30 3715 C 351.538 1.37504 -1.54597 0
M  V30 3716 C 351.953 1.87897 -0.184447 0
M  V30 3717 O 351.31 1.63192 0.816984 0
M  V30 3718 C 351.361 2.56779 -2.54454 0
M  V30 3719 O 351.082 2.08476 -3.85317 0
M  V30 3720 C 352.583 3.49427 -2.72792 0
M  V30 3721 H 349.803 0.420325 -0.523037 0
M  V30 3722 H 352.347 0.718383 -1.91467 0
M  V30 3723 H 350.502 3.1845 -2.20609 0
M  V30 3724 H 350.916 2.86097 -4.396 0
M  V30 3725 H 352.39 4.29619 -3.466 0
M  V30 3726 H 352.867 4.00876 -1.79429 0
M  V30 3727 H 353.473 2.93598 -3.07702 0
M  V30 3728 N 351.788 1.33704 0.83433 0
M  V30 3729 C 353.034 1.25603 1.59222 0
M  V30 3730 C 353.367 -0.176659 1.93395 0
M  V30 3731 O 352.642 -1.11915 1.59076 0
M  V30 3732 C 352.925 2.13576 2.89926 0
M  V30 3733 C 352.778 3.65326 2.62406 0
M  V30 3734 C 354.097 2.01238 3.91397 0
M  V30 3735 H 351.216 0.457613 0.577719 0
M  V30 3736 H 353.858 1.63848 0.961972 0
M  V30 3737 H 352.008 1.8109 3.43713 0
M  V30 3738 H 353.68 4.08124 2.15017 0
M  V30 3739 H 351.923 3.8698 1.96033 0
M  V30 3740 H 352.594 4.22232 3.55562 0
M  V30 3741 H 355.07 2.29738 3.46929 0
M  V30 3742 H 353.946 2.65036 4.80673 0
M  V30 3743 H 354.207 0.985951 4.30966 0
M  V30 3744 N 353.266 -1.05314 1.17247 0
M  V30 3745 C 354.682 -1.30452 0.919473 0
M  V30 3746 C 354.882 -1.9703 -0.42209 0
M  V30 3747 O 353.938 -2.24311 -1.15935 0
M  V30 3748 C 355.251 -2.17551 2.07586 0
M  V30 3749 C 356.799 -2.30937 2.11275 0
M  V30 3750 C 357.274 -3.21396 3.26296 0
M  V30 3751 N 358.765 -3.28981 3.26076 0
M  V30 3752 C 359.5 -3.99095 4.11716 0
M  V30 3753 N 358.996 -4.71648 5.07465 0
M  V30 3754 N 360.789 -3.95247 3.9967 0
M  V30 3755 H 352.94 -0.604988 2.03602 0
M  V30 3756 H 355.203 -0.329368 0.888944 0
M  V30 3757 H 354.909 -1.75921 3.0454 0
M  V30 3758 H 354.783 -3.18182 2.02584 0
M  V30 3759 H 357.17 -2.71809 1.14907 0
M  V30 3760 H 357.251 -1.2994 2.20339 0
M  V30 3761 H 356.895 -2.81238 4.22927 0
M  V30 3762 H 356.825 -4.22395 3.14467 0
M  V30 3763 H 359.316 -2.77286 2.5675 0
M  V30 3764 H 359.629 -5.22705 5.6921 0
M  V30 3765 H 357.974 -4.70594 5.11435 0
M  V30 3766 H 361.165 -3.37691 3.24164 0
M  V30 3767 H 361.338 -4.4962 4.66632 0
M  V30 3768 N 354.744 -0.972509 -1.24016 0
M  V30 3769 C 355.99 -0.637978 -1.92504 0
M  V30 3770 C 356.323 0.825383 -1.75787 0
M  V30 3771 O 355.598 1.59442 -1.11393 0
M  V30 3772 C 355.881 -1.01942 -3.45369 0
M  V30 3773 C 355.734 -2.53983 -3.71231 0
M  V30 3774 C 357.053 -0.55751 -4.36555 0
M  V30 3775 H 354.172 -0.233248 -0.699117 0
M  V30 3776 H 356.814 -1.21238 -1.46292 0
M  V30 3777 H 354.964 -0.530656 -3.84859 0
M  V30 3778 H 356.636 -3.10374 -3.41271 0
M  V30 3779 H 354.879 -2.96968 -3.16216 0
M  V30 3780 H 355.55 -2.75723 -4.78206 0
M  V30 3781 H 358.026 -0.977029 -4.04467 0
M  V30 3782 H 356.902 -0.85292 -5.42233 0
M  V30 3783 H 357.163 0.542328 -4.38761 0
M  V30 3784 N 356.222 1.38976 -0.743202 0
M  V30 3785 C 357.633 1.83123 -0.363732 0
M  V30 3786 C 357.984 1.6205 1.10609 0
M  V30 3787 O 357.109 1.11606 1.854 0
M  V30 3788 C 357.704 3.32439 -0.653408 0
M  V30 3789 C 356.263 3.74974 -0.327338 0
M  V30 3790 C 355.41 2.61878 -0.911875 0
M  V30 3791 H 358.361 1.27852 -0.940191 0
M  V30 3792 H 358.382 3.80432 0.0720031 0
M  V30 3793 H 357.894 3.47745 -1.72323 0
M  V30 3794 H 355.995 3.65252 0.736314 0
M  V30 3795 H 356.108 4.72106 -0.815631 0
M  V30 3796 H 354.472 2.52448 -0.337944 0
M  V30 3797 H 355.255 2.79987 -1.98651 0
M  V30 3798 N 357.7 0.491464 1.49741 0
M  V30 3799 C 358.633 -0.338464 2.25676 0
M  V30 3800 C 359.611 -0.978676 1.29849 0
M  V30 3801 O 360.795 -1.01064 1.59117 0
M  V30 3802 C 357.922 -1.47588 3.04853 0
M  V30 3803 C 356.968 -0.951 4.15762 0
M  V30 3804 S 357.801 0.150626 5.35288 0
M  V30 3805 C 358.957 -0.990178 6.18018 0
M  V30 3806 H 359.19 0.306068 2.9572 0
M  V30 3807 H 356.723 0.276622 1.51902 0
M  V30 3808 H 358.681 -2.12764 3.51058 0
M  V30 3809 H 357.342 -2.09199 2.34296 0
M  V30 3810 H 356.535 -1.80311 4.70642 0
M  V30 3811 H 356.137 -0.376607 3.72099 0
M  V30 3812 H 358.429 -1.89748 6.50386 0
M  V30 3813 H 359.372 -0.480205 7.0647 0
M  V30 3814 H 359.78 -1.25321 5.50413 0
M  V30 3815 N 359.178 -1.55987 0.224894 0
M  V30 3816 C 360.111 -2.16413 -0.723929 0
M  V30 3817 C 361.089 -1.10952 -1.18863 0
M  V30 3818 O 362.273 -1.39225 -1.27077 0
M  V30 3819 C 359.4 -2.74711 -1.98121 0
M  V30 3820 C 358.446 -3.9303 -1.6562 0
M  V30 3821 S 359.279 -5.29817 -0.778058 0
M  V30 3822 C 360.435 -5.91555 -2.04483 0
M  V30 3823 H 360.668 -2.96555 -0.210347 0
M  V30 3824 H 358.201 -1.54397 0.00955457 0
M  V30 3825 H 360.159 -3.08938 -2.70311 0
M  V30 3826 H 358.82 -1.94555 -2.46591 0
M  V30 3827 H 358.013 -4.32334 -2.59043 0
M  V30 3828 H 357.615 -3.59966 -1.01491 0
M  V30 3829 H 359.907 -6.07732 -2.99446 0
M  V30 3830 H 360.85 -6.87498 -1.69563 0
M  V30 3831 H 361.258 -5.20419 -2.18688 0
M  V30 3832 N 360.656 0.0484629 -1.57525 0
M  V30 3833 C 361.881 0.759177 -1.93006 0
M  V30 3834 C 362.306 1.69125 -0.823317 0
M  V30 3835 O 361.664 1.79931 0.222364 0
M  V30 3836 C 361.712 1.50899 -3.27509 0
M  V30 3837 O 360.816 2.62112 -3.18388 0
M  V30 3838 H 360.157 0.205564 -0.631379 0
M  V30 3839 H 362.687 0.00972959 -2.04598 0
M  V30 3840 H 362.697 1.88317 -3.6194 0
M  V30 3841 H 361.372 0.825269 -4.0763 0
M  V30 3842 H 359.949 2.27379 -2.95556 0
M  V30 3843 N 362.134 1.5431 0.320358 0
M  V30 3844 C 363.411 1.63322 1.07635 0
M  V30 3845 C 363.791 0.46912 2.05821 0
M  V30 3846 O 363.139 -0.536274 2.22118 0
M  V30 3847 C 363.349 3.00465 1.77544 0
M  V30 3848 C 364.697 3.56621 2.30449 0
M  V30 3849 O 365.721 3.02791 1.87606 0
M  V30 3850 O 364.58 4.5083 3.08892 0
M  V30 3851 H 361.674 0.661502 0.496331 0
M  V30 3852 H 364.22 1.66656 0.319992 0
M  V30 3853 H 362.992 3.76629 1.06143 0
M  V30 3854 H 362.615 3.00824 2.59982 0
M  V30 3855 N 363.613 -0.582584 1.46437 0
M  V30 3856 C 365.024 -1.1647 1.45916 0
M  V30 3857 C 365.375 -1.95177 0.200077 0
M  V30 3858 O 364.5 -2.04874 -0.696819 0
M  V30 3859 C 365.095 -2.11885 2.64367 0
M  V30 3860 C 363.654 -2.65421 2.66887 0
M  V30 3861 C 362.801 -1.41294 2.38603 0
M  V30 3862 H 365.752 -0.370514 1.54314 0
M  V30 3863 H 365.773 -2.9535 2.39892 0
M  V30 3864 H 365.285 -1.54573 3.5599 0
M  V30 3865 H 363.386 -3.26602 1.79338 0
M  V30 3866 H 363.499 -3.08147 3.66854 0
M  V30 3867 H 361.863 -1.71109 1.88663 0
M  V30 3868 H 362.646 -0.858125 3.32402 0
M  V30 3869 N 365.091 -1.34144 -0.827227 0
M  V30 3870 C 366.038 -1.25364 -1.93785 0
M  V30 3871 C 367.008 -0.129774 -1.65592 0
M  V30 3872 O 368.193 -0.310024 -1.88264 0
M  V30 3873 C 365.333 -1.01064 -3.2997 0
M  V30 3874 C 364.446 -2.22185 -3.70484 0
M  V30 3875 C 363.581 -1.91203 -4.95595 0
M  V30 3876 C 362.62 -3.08491 -5.28677 0
M  V30 3877 N 361.757 -2.77421 -6.44967 0
M  V30 3878 H 366.597 -2.20347 -2.00627 0
M  V30 3879 H 364.134 -1.09558 -0.981608 0
M  V30 3880 H 366.092 -0.850139 -4.08446 0
M  V30 3881 H 364.722 -0.0975026 -3.22653 0
M  V30 3882 H 363.774 -2.4917 -2.87434 0
M  V30 3883 H 365.086 -3.0983 -3.90905 0
M  V30 3884 H 364.24 -1.71864 -5.81848 0
M  V30 3885 H 362.979 -1.00812 -4.77167 0
M  V30 3886 H 361.984 -3.28431 -4.40923 0
M  V30 3887 H 363.209 -3.99655 -5.49047 0
M  V30 3888 H 361.155 -1.89601 -6.28003 0
M  V30 3889 H 361.072 -3.58598 -6.6554 0
M  V30 3890 H 362.34 -2.61577 -7.34301 0
M  V30 3891 N 366.569 1.04691 -1.17803 0
M  V30 3892 C 367.532 2.10724 -0.901545 0
M  V30 3893 C 368.532 1.6042 0.110437 0
M  V30 3894 O 369.722 1.7377 -0.122303 0
M  V30 3895 C 366.854 3.39084 -0.351409 0
M  V30 3896 H 368.047 2.36686 -1.84174 0
M  V30 3897 H 365.6 1.21015 -0.98919 0
M  V30 3898 H 366.335 3.18782 0.59569 0
M  V30 3899 H 366.12 3.76909 -1.08083 0
M  V30 3900 H 367.61 4.17227 -0.176451 0
M  V30 3901 N 368.047 0.979072 1.23499 0
M  V30 3902 C 369.293 0.648178 1.92163 0
M  V30 3903 C 369.626 -0.816049 1.76222 0
M  V30 3904 O 368.901 -1.58849 1.12237 0
M  V30 3905 C 369.184 1.03773 3.44824 0
M  V30 3906 C 369.037 2.55948 3.69879 0
M  V30 3907 C 370.356 0.580653 4.36253 0
M  V30 3908 H 367.475 0.236952 0.69787 0
M  V30 3909 H 370.117 1.22012 1.45647 0
M  V30 3910 H 368.267 0.551058 3.84572 0
M  V30 3911 H 369.939 3.12179 3.3962 0
M  V30 3912 H 368.182 2.98641 3.14636 0
M  V30 3913 H 368.853 2.78255 4.76737 0
M  V30 3914 H 371.329 0.998465 4.03943 0
M  V30 3915 H 370.205 0.881663 5.41773 0
M  V30 3916 H 370.466 -0.519052 4.39042 0
M  V30 3917 N 369.525 -1.3858 0.750561 0
M  V30 3918 C 370.455 -2.33102 0.136237 0
M  V30 3919 C 371.436 -1.54713 -0.706965 0
M  V30 3920 O 372.621 -1.83043 -0.648769 0
M  V30 3921 C 369.751 -3.38882 -0.760017 0
M  V30 3922 C 368.705 -4.27995 -0.0197785 0
M  V30 3923 C 368.031 -5.24605 -1.03408 0
M  V30 3924 C 369.331 -5.09554 1.14684 0
M  V30 3925 H 371.025 -2.84726 0.925822 0
M  V30 3926 H 368.571 -1.36898 0.446654 0
M  V30 3927 H 370.524 -4.0397 -1.19943 0
M  V30 3928 H 369.248 -2.85734 -1.58189 0
M  V30 3929 H 367.907 -3.64409 0.400184 0
M  V30 3930 H 367.555 -4.67746 -1.84994 0
M  V30 3931 H 367.255 -5.85081 -0.543464 0
M  V30 3932 H 368.779 -5.9257 -1.47288 0
M  V30 3933 H 370.193 -5.67899 0.785118 0
M  V30 3934 H 368.59 -5.7925 1.56812 0
M  V30 3935 H 369.66 -4.4347 1.96118 0
M  V30 3936 N 371.003 -0.499398 -1.49478 0
M  V30 3937 C 372.419 -0.155261 -1.58843 0
M  V30 3938 C 372.619 1.34008 -1.50479 0
M  V30 3939 O 371.675 2.11589 -1.37791 0
M  V30 3940 C 372.988 -0.730636 -2.91689 0
M  V30 3941 C 374.536 -0.696599 -3.0515 0
M  V30 3942 C 375.011 -1.25001 -4.40612 0
M  V30 3943 N 376.502 -1.21064 -4.47099 0
M  V30 3944 C 377.237 -1.60905 -5.50361 0
M  V30 3945 N 376.733 -2.08331 -6.60735 0
M  V30 3946 N 378.526 -1.52331 -5.41065 0
M  V30 3947 H 370.677 -1.47162 -1.53158 0
M  V30 3948 H 372.94 -0.610309 -0.725415 0
M  V30 3949 H 372.646 -1.77928 -3.03372 0
M  V30 3950 H 372.52 -0.190161 -3.7672 0
M  V30 3951 H 374.907 0.343204 -2.93097 0
M  V30 3952 H 374.988 -1.2742 -2.21806 0
M  V30 3953 H 374.632 -2.28859 -4.53416 0
M  V30 3954 H 374.562 -0.64836 -5.22593 0
M  V30 3955 H 377.053 -0.863128 -3.67911 0
M  V30 3956 H 377.366 -2.36805 -7.35624 0
M  V30 3957 H 375.711 -2.12304 -6.6178 0
M  V30 3958 H 378.902 -1.151 -4.53729 0
M  V30 3959 H 379.075 -1.83704 -6.21415 0
M  V30 3960 N 372.481 1.55866 -0.233164 0
M  V30 3961 C 373.711 2.02704 0.399325 0
M  V30 3962 C 374.119 1.11204 1.53069 0
M  V30 3963 O 373.462 0.116182 1.83332 0
M  V30 3964 C 373.524 3.45844 0.981429 0
M  V30 3965 C 373.188 4.56997 -0.0159561 0
M  V30 3966 C 374.185 5.13384 -0.820552 0
M  V30 3967 C 371.87 5.0211 -0.138072 0
M  V30 3968 C 373.864 6.13365 -1.73386 0
M  V30 3969 C 371.551 6.01926 -1.0549 0
M  V30 3970 C 372.549 6.57431 -1.85132 0
M  V30 3971 O 372.237 7.55302 -2.75272 0
M  V30 3972 H 371.969 0.668459 0.100692 0
M  V30 3973 H 374.523 2.02387 -0.35052 0
M  V30 3974 H 372.753 3.43267 1.78058 0
M  V30 3975 H 374.442 3.76262 1.52255 0
M  V30 3976 H 375.208 4.79372 -0.736721 0
M  V30 3977 H 371.087 4.5858 0.471737 0
M  V30 3978 H 374.631 6.56614 -2.35592 0
M  V30 3979 H 370.528 6.35359 -1.1397 0
M  V30 3980 H 371.296 7.72867 -2.69477 0
M  V30 3981 N 373.959 -0.0401083 1.57549 0
M  V30 3982 C 375.207 -0.731677 1.8839 0
M  V30 3983 C 375.528 -1.76481 0.829425 0
M  V30 3984 O 374.798 -1.95411 -0.1383 0
M  V30 3985 H 373.378 -0.273225 0.695239 0
M  V30 3986 H 376.04 -0.00867725 1.94898 0
M  V30 3987 H 375.136 -1.22816 2.86919 0
M  V30 3988 N 375.437 -1.54477 -0.31217 0
M  V30 3989 C 376.367 -1.87652 -1.38957 0
M  V30 3990 C 377.348 -0.734358 -1.53431 0
M  V30 3991 O 378.533 -0.98911 -1.67123 0
M  V30 3992 C 375.663 -2.11396 -2.75552 0
M  V30 3993 C 374.617 -3.27243 -2.75855 0
M  V30 3994 C 373.943 -3.36382 -4.15633 0
M  V30 3995 C 375.243 -4.64622 -2.38587 0
M  V30 3996 H 376.937 -2.77887 -1.11442 0
M  V30 3997 H 374.483 -1.33707 -0.534655 0
M  V30 3998 H 376.436 -2.33189 -3.51 0
M  V30 3999 H 375.16 -1.17921 -3.04569 0
M  V30 4000 H 373.819 -3.05356 -2.02863 0
M  V30 4001 H 373.467 -2.40445 -4.41809 0
M  V30 4002 H 373.167 -4.14249 -4.1674 0
M  V30 4003 H 374.691 -3.60422 -4.92877 0
M  V30 4004 H 376.105 -4.86219 -3.03749 0
M  V30 4005 H 374.502 -5.45121 -2.50925 0
M  V30 4006 H 375.572 -4.66097 -1.33723 0
M  V30 4007 N 376.915 0.57481 -1.46744 0
M  V30 4008 C 378.192 1.3352 -1.4294 0
M  V30 4009 C 378.572 2.10775 -0.117009 0
M  V30 4010 O 377.92 2.09966 0.901474 0
M  V30 4011 C 378.13 2.25456 -2.66403 0
M  V30 4012 C 379.478 2.87035 -3.12883 0
M  V30 4013 O 380.502 2.35766 -2.67007 0
M  V30 4014 O 379.361 3.80179 -3.92589 0
M  V30 4015 H 376.455 0.600318 -0.568812 0
M  V30 4016 H 379.001 0.595171 -1.58921 0
M  V30 4017 H 377.773 1.67851 -3.53471 0
M  V30 4018 H 377.396 3.06785 -2.52921 0
M  V30 4019 N 378.394 1.34581 0.820102 0
M  V30 4020 C 379.619 1.30333 1.61332 0
M  V30 4021 C 380.044 -0.119339 1.87721 0
M  V30 4022 O 379.402 -1.08197 1.45475 0
M  V30 4023 C 379.45 2.10258 2.92957 0
M  V30 4024 O 378.554 1.47404 3.85157 0
M  V30 4025 H 377.895 0.447488 0.490561 0
M  V30 4026 H 380.425 1.77425 1.01889 0
M  V30 4027 H 380.435 2.21718 3.42498 0
M  V30 4028 H 379.11 3.13693 2.73074 0
M  V30 4029 H 377.687 1.44703 3.43679 0
M  V30 4030 N 379.872 -1.04064 1.18357 0
M  V30 4031 C 381.149 -1.74252 0.888581 0
M  V30 4032 C 381.529 -2.02138 -0.60856 0
M  V30 4033 O 380.877 -1.66656 -1.56327 0
M  V30 4034 C 381.087 -3.0277 1.73584 0
M  V30 4035 C 382.435 -3.76506 1.96286 0
M  V30 4036 O 383.459 -3.12668 1.70637 0
M  V30 4037 O 382.318 -4.91243 2.39464 0
M  V30 4038 H 379.412 -0.758271 0.330082 0
M  V30 4039 H 381.958 -1.1013 1.2911 0
M  V30 4040 H 380.73 -2.78299 2.75073 0
M  V30 4041 H 380.353 -3.74631 1.33183 0
M  V30 4042 N 381.35 -0.985608 -1.22978 0
M  V30 4043 C 382.28 -0.549649 -2.26939 0
M  V30 4044 C 383.261 0.419803 -1.64838 0
M  V30 4045 O 384.446 0.31203 -1.91677 0
M  V30 4046 C 381.576 0.143652 -3.47003 0
M  V30 4047 C 380.53 -0.743606 -4.21491 0
M  V30 4048 C 379.856 0.0822027 -5.34637 0
M  V30 4049 C 381.156 -2.03694 -4.80943 0
M  V30 4050 H 382.85 -1.41862 -2.63658 0
M  V30 4051 H 380.396 -0.683571 -1.26741 0
M  V30 4052 H 382.349 0.459985 -4.18882 0
M  V30 4053 H 381.073 1.04711 -3.09359 0
M  V30 4054 H 379.732 -1.04347 -3.51436 0
M  V30 4055 H 379.38 0.986359 -4.93234 0
M  V30 4056 H 379.08 -0.508377 -5.85397 0
M  V30 4057 H 380.604 0.392797 -6.09335 0
M  V30 4058 H 382.018 -1.78504 -5.44802 0
M  V30 4059 H 380.415 -2.57573 -5.42011 0
M  V30 4060 H 381.485 -2.72042 -4.01399 0
M  V30 4061 N 382.828 1.3818 -0.7579 0
M  V30 4062 C 384.053 2.04827 -0.325679 0
M  V30 4063 C 384.478 1.56788 1.03919 0
M  V30 4064 O 383.836 0.721811 1.66312 0
M  V30 4065 C 383.884 3.58774 -0.362447 0
M  V30 4066 O 382.988 4.07372 0.642033 0
M  V30 4067 H 382.329 0.64833 -0.143402 0
M  V30 4068 H 384.859 1.7677 -1.03023 0
M  V30 4069 H 384.869 4.07434 -0.214844 0
M  V30 4070 H 383.544 3.93096 -1.35824 0
M  V30 4071 H 382.121 3.70068 0.458688 0
M  V30 4072 N 384.306 0.507319 1.49211 0
M  V30 4073 C 385.546 -0.0332372 2.04373 0
M  V30 4074 C 385.91 -1.33694 1.37804 0
M  V30 4075 O 387.111 -1.96213 1.83722 0
M  V30 4076 C 385.382 -0.17599 3.56966 0
M  V30 4077 S 386.941 -0.669882 4.33657 0
M  V30 4078 H 383.759 0.00123603 0.710999 0
M  V30 4079 H 386.361 0.682725 1.83191 0
M  V30 4080 H 385.065 0.778053 4.02957 0
M  V30 4081 H 384.596 -0.917005 3.82563 0
M  V30 4082 H 386.611 -1.93806 4.56786 0
M  V30 4083 N 385.784 -1.5574 0.241426 0
M  V30 4084 C 386.731 -2.21149 -0.660432 0
M  V30 4085 C 387.701 -1.17356 -1.17545 0
M  V30 4086 O 388.886 -1.45784 -1.23093 0
M  V30 4087 C 386.026 -2.91059 -1.85414 0
M  V30 4088 C 385.139 -4.09495 -1.37616 0
M  V30 4089 C 384.274 -4.67135 -2.529 0
M  V30 4090 C 383.313 -5.77831 -2.01936 0
M  V30 4091 N 382.45 -6.29677 -3.10566 0
M  V30 4092 H 387.29 -2.97845 -0.095955 0
M  V30 4093 H 384.827 -1.47057 -0.0356024 0
M  V30 4094 H 386.785 -3.29788 -2.5553 0
M  V30 4095 H 385.415 -2.16846 -2.39118 0
M  V30 4096 H 384.467 -3.76117 -0.569235 0
M  V30 4097 H 385.779 -4.89423 -0.962618 0
M  V30 4098 H 384.933 -5.08409 -3.31067 0
M  V30 4099 H 383.672 -3.86411 -2.97553 0
M  V30 4100 H 382.677 -5.36039 -1.22238 0
M  V30 4101 H 383.902 -6.60402 -1.58259 0
M  V30 4102 H 381.848 -5.5186 -3.54664 0
M  V30 4103 H 381.765 -7.04783 -2.73526 0
M  V30 4104 H 383.033 -6.75609 -3.88809 0
M  V30 4105 N 387.262 0.0317525 -1.57568 0
M  V30 4106 C 388.511 0.722131 -1.8833 0
M  V30 4107 C 388.824 1.76664 -0.839587 0
M  V30 4108 O 390.03 2.50942 -1.03635 0
M  V30 4109 C 388.486 1.33544 -3.34207 0
M  V30 4110 C 388.094 0.327415 -4.46802 0
M  V30 4111 C 389.838 2.00585 -3.7412 0
M  V30 4112 C 387.745 0.948915 -5.83738 0
M  V30 4113 H 386.675 0.273466 -0.702661 0
M  V30 4114 H 389.326 -0.0235811 -1.83485 0
M  V30 4115 H 387.708 2.13077 -3.33788 0
M  V30 4116 H 388.882 -0.441006 -4.58685 0
M  V30 4117 H 387.197 -0.240758 -4.15703 0
M  V30 4118 H 389.794 2.47932 -4.73744 0
M  V30 4119 H 390.137 2.82285 -3.05975 0
M  V30 4120 H 390.67 1.27831 -3.76702 0
M  V30 4121 H 387.409 0.171387 -6.55276 0
M  V30 4122 H 386.929 1.68724 -5.7558 0
M  V30 4123 H 388.608 1.45705 -6.3038 0
M  V30 4124 N 388.74 1.54641 0.303973 0
M  V30 4125 C 389.703 1.84646 1.35789 0
M  V30 4126 C 390.703 0.7192 1.4382 0
M  V30 4127 O 391.893 0.987491 1.43507 0
M  V30 4128 C 389.025 2.02407 2.74307 0
M  V30 4129 H 390.218 2.78829 1.10429 0
M  V30 4130 H 387.771 1.46658 0.540487 0
M  V30 4131 H 388.506 1.10502 3.04893 0
M  V30 4132 H 388.291 2.84453 2.69868 0
M  V30 4133 H 389.781 2.27002 3.50514 0
M  V30 4134 N 390.218 -0.567019 1.47046 0
M  V30 4135 C 391.15 -1.68985 1.54844 0
M  V30 4136 C 392.163 -1.56869 0.435431 0
M  V30 4137 O 393.352 -1.64006 0.70457 0
M  V30 4138 C 390.452 -3.07373 1.42742 0
M  V30 4139 C 389.625 -3.45339 2.6844 0
M  V30 4140 C 388.684 -4.62849 2.50314 0
M  V30 4141 O 387.71 -4.67922 3.24095 0
M  V30 4142 N 388.912 -5.58726 1.57499 0
M  V30 4143 H 391.677 -1.62745 2.51663 0
M  V30 4144 H 389.238 -0.753411 1.43302 0
M  V30 4145 H 391.23 -3.83803 1.28365 0
M  V30 4146 H 389.8 -3.07893 0.540445 0
M  V30 4147 H 389.02 -2.58455 2.97648 0
M  V30 4148 H 390.308 -3.67476 3.51907 0
M  V30 4149 H 389.706 -5.57376 0.966876 0
M  V30 4150 H 388.263 -6.34523 1.49078 0
M  V30 4151 N 391.696 -1.35014 -0.812953 0
M  V30 4152 C 392.626 -1.30069 -1.93919 0
M  V30 4153 C 393.607 -0.176275 -1.69184 0
M  V30 4154 O 394.792 -0.370227 -1.90638 0
M  V30 4155 C 391.922 -1.06547 -3.30552 0
M  V30 4156 C 390.876 -2.15561 -3.69753 0
M  V30 4157 C 390.202 -1.77214 -5.04479 0
M  V30 4158 C 391.502 -3.57476 -3.808 0
M  V30 4159 H 393.196 -2.24303 -1.98314 0
M  V30 4160 H 390.742 -1.07977 -0.952736 0
M  V30 4161 H 392.695 -1.01729 -4.08937 0
M  V30 4162 H 391.419 -0.0875719 -3.26483 0
M  V30 4163 H 390.078 -2.19466 -2.9365 0
M  V30 4164 H 389.726 -0.780589 -4.96906 0
M  V30 4165 H 389.426 -2.50184 -5.31678 0
M  V30 4166 H 390.95 -1.7391 -5.8531 0
M  V30 4167 H 392.364 -3.55929 -4.4943 0
M  V30 4168 H 390.761 -4.29152 -4.19462 0
M  V30 4169 H 391.831 -3.94091 -2.82525 0
M  V30 4170 N 393.175 1.03435 -1.18907 0
M  V30 4171 C 394.586 1.58195 -0.991523 0
M  V30 4172 C 394.937 1.90801 0.457081 0
M  V30 4173 O 394.062 1.70272 1.33553 0
M  V30 4174 C 394.657 2.87432 -1.79355 0
M  V30 4175 C 393.216 3.38785 -1.64017 0
M  V30 4176 C 392.363 2.12292 -1.78402 0
M  V30 4177 H 395.314 0.860299 -1.33359 0
M  V30 4178 H 395.335 3.58096 -1.28638 0
M  V30 4179 H 394.847 2.63669 -2.84781 0
M  V30 4180 H 392.948 3.67547 -0.611536 0
M  V30 4181 H 393.061 4.12186 -2.44212 0
M  V30 4182 H 391.425 2.23901 -1.2141 0
M  V30 4183 H 392.208 1.90977 -2.85277 0
M  V30 4184 N 394.653 0.992116 1.22453 0
M  V30 4185 C 395.583 0.561677 2.26644 0
M  V30 4186 C 396.564 -0.411055 1.65059 0
M  V30 4187 O 397.749 -0.301861 1.9184 0
M  V30 4188 C 394.879 -0.125247 3.47074 0
M  V30 4189 C 393.833 0.765948 4.21091 0
M  V30 4190 C 393.159 -0.0538484 5.34673 0
M  V30 4191 C 394.459 2.06242 4.79856 0
M  V30 4192 H 396.153 1.43259 2.62902 0
M  V30 4193 H 393.699 0.690283 1.26377 0
M  V30 4194 H 395.652 -0.437764 4.1912 0
M  V30 4195 H 394.376 -1.03069 3.0991 0
M  V30 4196 H 393.035 1.0621 3.50878 0
M  V30 4197 H 392.683 -0.960188 4.9375 0
M  V30 4198 H 392.383 0.539415 5.85119 0
M  V30 4199 H 393.907 -0.360477 6.09535 0
M  V30 4200 H 395.321 1.8139 5.43848 0
M  V30 4201 H 393.718 2.60444 5.40638 0
M  V30 4202 H 394.788 2.74167 3.99951 0
M  V30 4203 N 396.131 -1.37776 0.765217 0
M  V30 4204 C 397.359 -2.04124 0.337767 0
M  V30 4205 C 397.774 -1.57715 -1.03785 0
M  V30 4206 O 397.131 -0.755447 -1.6613 0
M  V30 4207 C 397.182 -3.59658 0.364442 0
M  V30 4208 O 396.903 -4.04367 1.68579 0
M  V30 4209 C 398.404 -4.43236 -0.0754221 0
M  V30 4210 H 395.624 -0.655696 0.142491 0
M  V30 4211 H 398.168 -1.76238 1.03732 0
M  V30 4212 H 396.323 -3.86339 -0.286471 0
M  V30 4213 H 396.737 -4.98857 1.61993 0
M  V30 4214 H 398.211 -5.52 -0.00560067 0
M  V30 4215 H 398.688 -4.2455 -1.12491 0
M  V30 4216 H 399.294 -4.21767 0.547055 0
M  V30 4217 N 397.609 -0.515225 -1.4894 0
M  V30 4218 C 398.857 0.0241671 -2.02086 0
M  V30 4219 C 399.178 1.3616 -1.3959 0
M  V30 4220 O 398.448 1.87841 -0.556121 0
M  V30 4221 H 397.028 0.0119203 -0.746905 0
M  V30 4222 H 399.69 -0.675702 -1.82812 0
M  V30 4223 H 398.786 0.143385 -3.1177 0
M  V30 4224 N 399.087 1.5561 -0.249682 0
M  V30 4225 C 400.312 2.03865 0.381305 0
M  V30 4226 C 400.737 1.12769 1.50548 0
M  V30 4227 O 400.095 0.121189 1.80895 0
M  V30 4228 C 400.143 3.50101 0.863816 0
M  V30 4229 O 399.247 3.62132 1.97318 0
M  V30 4230 H 398.588 0.658827 0.0827194 0
M  V30 4231 H 401.118 2.01105 -0.376552 0
M  V30 4232 H 401.128 3.90975 1.1663 0
M  V30 4233 H 399.803 4.1588 0.0411816 0
M  V30 4234 H 398.38 3.33155 1.67517 0
M  V30 4235 N 400.565 -0.0233959 1.57583 0
M  V30 4236 C 401.498 -1.05549 2.02323 0
M  V30 4237 C 402.476 -1.34843 0.908626 0
M  V30 4238 O 403.66 -1.47404 1.17491 0
M  V30 4239 C 400.787 -2.38885 2.40108 0
M  V30 4240 C 399.833 -2.2541 3.62067 0
M  V30 4241 S 400.666 -1.60217 5.1097 0
M  V30 4242 C 401.822 -2.95032 5.52003 0
M  V30 4243 H 402.055 -0.674435 2.89549 0
M  V30 4244 H 399.588 -0.23355 1.52623 0
M  V30 4245 H 401.546 -3.15562 2.62547 0
M  V30 4246 H 400.207 -2.74137 1.53323 0
M  V30 4247 H 399.4 -3.23854 3.86179 0
M  V30 4248 H 399.002 -1.56876 3.39508 0
M  V30 4249 H 401.294 -3.91357 5.53033 0
M  V30 4250 H 402.237 -2.75646 6.52246 0
M  V30 4251 H 402.645 -2.97865 4.79517 0
M  V30 4252 N 402.043 -1.548 -0.295768 0
M  V30 4253 C 403.268 -1.78653 -1.05346 0
M  V30 4254 C 403.693 -0.546894 -1.79974 0
M  V30 4255 O 403.051 0.502763 -1.7419 0
M  V30 4256 C 403.099 -2.99679 -2.00561 0
M  V30 4257 O 402.203 -2.7317 -3.08953 0
M  V30 4258 H 401.544 -0.59116 -0.302367 0
M  V30 4259 H 404.074 -2.01895 -0.331598 0
M  V30 4260 H 404.084 -3.27793 -2.42932 0
M  V30 4261 H 402.759 -3.89562 -1.4565 0
M  V30 4262 H 401.336 -2.56089 -2.71059 0
M  V30 4263 N 403.521 0.559213 -1.47345 0
M  V30 4264 C 404.77 1.31281 -1.53128 0
M  V30 4265 C 405.083 1.94602 -0.197344 0
M  V30 4266 O 406.289 2.71173 -0.133154 0
M  V30 4267 C 404.745 2.38051 -2.69925 0
M  V30 4268 C 404.353 1.8093 -4.0984 0
M  V30 4269 C 406.097 3.14604 -2.84999 0
M  V30 4270 C 404.004 2.85468 -5.1794 0
M  V30 4271 H 402.934 0.493614 -0.569966 0
M  V30 4272 H 405.585 0.594155 -1.73615 0
M  V30 4273 H 403.967 3.12822 -2.42814 0
M  V30 4274 H 405.141 1.12544 -4.46845 0
M  V30 4275 H 403.456 1.16967 -3.99634 0
M  V30 4276 H 406.053 3.92666 -3.62929 0
M  V30 4277 H 406.396 3.68665 -1.93369 0
M  V30 4278 H 406.929 2.46945 -3.1187 0
M  V30 4279 H 403.668 2.36264 -6.1144 0
M  V30 4280 H 403.188 3.52269 -4.85455 0
M  V30 4281 H 404.867 3.48996 -5.44803 0
M  V30 4282 N 404.999 1.35443 0.805782 0
M  V30 4283 C 406.248 1.28097 1.55801 0
M  V30 4284 C 406.561 -0.142428 1.95081 0
M  V30 4285 O 407.767 -0.33817 2.69386 0
M  V30 4286 C 406.223 2.24653 2.81174 0
M  V30 4287 C 405.831 3.72342 2.49129 0
M  V30 4288 C 407.575 2.2625 3.59181 0
M  V30 4289 C 405.482 4.60719 3.70799 0
M  V30 4290 H 404.412 0.475937 0.584808 0
M  V30 4291 H 407.063 1.60712 0.885661 0
M  V30 4292 H 405.445 1.85011 3.50124 0
M  V30 4293 H 406.619 4.20624 1.88181 0
M  V30 4294 H 404.934 3.73361 1.84366 0
M  V30 4295 H 407.531 2.89495 4.49552 0
M  V30 4296 H 407.874 1.26647 3.96568 0
M  V30 4297 H 408.407 2.64426 2.97193 0
M  V30 4298 H 405.146 5.61324 3.3852 0
M  V30 4299 H 404.666 4.17163 4.3097 0
M  V30 4300 H 406.345 4.76182 4.38018 0
M  V30 4301 N 406.477 -1.02803 1.19454 0
M  V30 4302 C 407.724 -1.76217 0.997693 0
M  V30 4303 C 408.052 -1.887 -0.47144 0
M  V30 4304 O 407.307 -1.4011 -1.3663 0
M  V30 4305 C 407.606 -3.18941 1.6128 0
M  V30 4306 C 407.272 -3.26463 3.11019 0
M  V30 4307 C 405.934 -3.28223 3.51885 0
M  V30 4308 C 408.286 -3.25542 4.07028 0
M  V30 4309 C 405.614 -3.26719 4.8731 0
M  V30 4310 C 407.966 -3.25579 5.42385 0
M  V30 4311 C 406.63 -3.25637 5.82681 0
M  V30 4312 H 405.9 -0.644823 0.365082 0
M  V30 4313 H 408.547 -1.20655 1.4871 0
M  V30 4314 H 406.852 -3.77587 1.04572 0
M  V30 4315 H 408.549 -3.74415 1.43577 0
M  V30 4316 H 405.139 -3.25822 2.78457 0
M  V30 4317 H 409.323 -3.23362 3.76498 0
M  V30 4318 H 404.579 -3.25089 5.1781 0
M  V30 4319 H 408.753 -3.23817 6.16535 0
M  V30 4320 H 406.38 -3.24226 6.87591 0
M  V30 4321 N 407.956 -0.998596 -1.21925 0
M  V30 4322 C 409.203 -0.677663 -1.90824 0
M  V30 4323 C 409.531 0.790905 -1.77693 0
M  V30 4324 O 408.786 1.58817 -1.14349 0
M  V30 4325 C 409.085 -1.03648 -3.42041 0
M  V30 4326 C 408.751 -2.49825 -3.75364 0
M  V30 4327 C 407.413 -2.8977 -3.8417 0
M  V30 4328 C 409.765 -3.44545 -3.91073 0
M  V30 4329 C 407.093 -4.23412 -4.06127 0
M  V30 4330 C 409.445 -4.77853 -4.14535 0
M  V30 4331 C 408.109 -5.17531 -4.21566 0
M  V30 4332 H 407.379 -0.247975 -0.698276 0
M  V30 4333 H 410.026 -1.25584 -1.44571 0
M  V30 4334 H 408.331 -0.376457 -3.89987 0
M  V30 4335 H 410.028 -0.766113 -3.93614 0
M  V30 4336 H 406.618 -2.17866 -3.69097 0
M  V30 4337 H 410.802 -3.14853 -3.83642 0
M  V30 4338 H 406.058 -4.53734 -4.09799 0
M  V30 4339 H 410.232 -5.51189 -4.25633 0
M  V30 4340 H 407.859 -6.21102 -4.38333 0
M  V30 4341 N 409.434 1.37368 -0.772513 0
M  V30 4342 C 410.364 2.32856 -0.173304 0
M  V30 4343 C 411.345 1.55818 0.682262 0
M  V30 4344 O 412.53 1.84052 0.619566 0
M  V30 4345 C 409.66 3.40048 0.706007 0
M  V30 4346 C 408.614 4.27973 -0.0483144 0
M  V30 4347 C 407.94 5.26184 0.950491 0
M  V30 4348 C 409.24 5.07665 -1.22776 0
M  V30 4349 H 410.934 2.83217 -0.971002 0
M  V30 4350 H 408.48 1.3617 -0.468377 0
M  V30 4351 H 410.433 4.05827 1.13501 0
M  V30 4352 H 409.157 2.88214 1.53623 0
M  V30 4353 H 407.816 3.63726 -0.458107 0
M  V30 4354 H 407.464 4.7063 1.77529 0
M  V30 4355 H 407.164 5.85872 0.450314 0
M  V30 4356 H 408.688 5.94838 1.37842 0
M  V30 4357 H 410.102 5.66578 -0.875366 0
M  V30 4358 H 408.499 5.76681 -1.66007 0
M  V30 4359 H 409.569 4.40294 -2.03149 0
M  V30 4360 N 410.912 0.523116 1.48665 0
M  V30 4361 C 412.323 0.0808997 1.86525 0
M  V30 4362 C 412.674 -1.33975 1.43336 0
M  V30 4363 O 411.799 -2.00221 0.821009 0
M  V30 4364 C 412.394 0.140037 3.3851 0
M  V30 4365 C 410.953 -0.246948 3.75589 0
M  V30 4366 C 410.1 0.502845 2.72703 0
M  V30 4367 H 413.051 0.734736 1.40667 0
M  V30 4368 H 413.072 -0.649945 3.74908 0
M  V30 4369 H 412.584 1.17412 3.69914 0
M  V30 4370 H 410.685 -1.28343 3.49798 0
M  V30 4371 H 410.798 0.0878859 4.79019 0
M  V30 4372 H 409.162 -0.0500581 2.54651 0
M  V30 4373 H 409.945 1.53743 3.0695 0
M  V30 4374 N 412.39 -1.55475 0.257931 0
M  V30 4375 C 413.32 -2.24815 -0.630912 0
M  V30 4376 C 414.301 -1.23224 -1.17259 0
M  V30 4377 O 415.486 -1.51904 -1.20991 0
M  V30 4378 C 412.616 -2.95609 -1.82298 0
M  V30 4379 C 411.57 -4.03982 -1.41359 0
M  V30 4380 C 410.896 -4.6226 -2.68738 0
M  V30 4381 C 412.196 -5.19109 -0.57648 0
M  V30 4382 H 413.89 -2.99354 -0.0526878 0
M  V30 4383 H 411.436 -1.4398 -0.023901 0
M  V30 4384 H 413.389 -3.42822 -2.45054 0
M  V30 4385 H 412.113 -2.18577 -2.42676 0
M  V30 4386 H 410.772 -3.57555 -0.809324 0
M  V30 4387 H 410.42 -3.81915 -3.27338 0
M  V30 4388 H 410.12 -5.35424 -2.42065 0
M  V30 4389 H 411.644 -5.12212 -3.32372 0
M  V30 4390 H 413.058 -5.62479 -1.10861 0
M  V30 4391 H 411.455 -5.98729 -0.405351 0
M  V30 4392 H 412.525 -4.83174 0.408776 0
M  V30 4393 N 413.868 0.0150385 -1.57593 0
M  V30 4394 C 414.815 1.01126 -2.07466 0
M  V30 4395 C 415.785 1.35064 -0.966794 0
M  V30 4396 O 416.97 1.4516 -1.23827 0
M  V30 4397 C 414.11 2.30276 -2.57035 0
M  V30 4398 C 413.223 2.02373 -3.81666 0
M  V30 4399 C 412.358 3.25496 -4.19793 0
M  V30 4400 C 411.397 2.93211 -5.37303 0
M  V30 4401 N 410.534 4.08826 -5.70794 0
M  V30 4402 H 415.374 0.57901 -2.92321 0
M  V30 4403 H 412.911 0.27426 -1.44521 0
M  V30 4404 H 414.869 3.05757 -2.83846 0
M  V30 4405 H 413.499 2.71197 -1.75077 0
M  V30 4406 H 412.551 1.17327 -3.61854 0
M  V30 4407 H 413.863 1.74567 -4.67256 0
M  V30 4408 H 413.017 4.09333 -4.47807 0
M  V30 4409 H 411.756 3.56428 -3.32882 0
M  V30 4410 H 410.761 2.07777 -5.09027 0
M  V30 4411 H 411.986 2.63542 -6.25877 0
M  V30 4412 H 409.932 4.39682 -4.86842 0
M  V30 4413 H 409.849 3.84491 -6.50924 0
M  V30 4414 H 411.117 4.93496 -6.03392 0
M  V30 4415 N 415.346 1.54954 0.287554 0
M  V30 4416 C 416.592 1.75132 1.02257 0
M  V30 4417 C 416.925 0.542858 1.86458 0
M  V30 4418 O 416.2 -0.459856 1.88986 0
M  V30 4419 C 416.483 3.04812 1.91733 0
M  V30 4420 C 416.336 4.35985 1.10622 0
M  V30 4421 C 417.655 3.30438 2.90687 0
M  V30 4422 H 414.774 0.637194 0.370341 0
M  V30 4423 H 417.416 1.87678 0.296111 0
M  V30 4424 H 415.566 2.94247 2.53675 0
M  V30 4425 H 417.238 4.58487 0.508636 0
M  V30 4426 H 415.481 4.31865 0.409271 0
M  V30 4427 H 416.152 5.23017 1.76513 0
M  V30 4428 H 418.628 3.40701 2.38877 0
M  V30 4429 H 417.504 4.22467 3.50447 0
M  V30 4430 H 417.765 2.49377 3.65053 0
M  V30 4431 N 416.824 -0.551391 1.4764 0
M  V30 4432 C 418.052 -1.33357 1.58189 0
M  V30 4433 C 418.467 -1.87342 0.234199 0
M  V30 4434 O 417.824 -1.65301 -0.77343 0
M  V30 4435 C 417.875 -2.49942 2.61173 0
M  V30 4436 O 417.596 -1.98187 3.90709 0
M  V30 4437 C 419.097 -3.42072 2.8196 0
M  V30 4438 H 416.317 -0.40631 0.533998 0
M  V30 4439 H 418.861 -0.667367 1.93304 0
M  V30 4440 H 417.016 -3.12489 2.28975 0
M  V30 4441 H 417.43 -2.74342 4.47031 0
M  V30 4442 H 418.904 -4.20278 3.57869 0
M  V30 4443 H 419.381 -3.95978 1.89995 0
M  V30 4444 H 419.987 -2.85336 3.15378 0
M  V30 4445 N 418.302 -1.35869 -0.798587 0
M  V30 4446 C 419.234 -1.25305 -1.91915 0
M  V30 4447 C 420.247 -0.174548 -1.61862 0
M  V30 4448 O 421.436 -0.428499 -1.73281 0
M  V30 4449 C 418.536 -0.9086 -3.26493 0
M  V30 4450 C 417.709 -2.08711 -3.84394 0
M  V30 4451 C 416.768 -1.71717 -4.97393 0
M  V30 4452 O 415.794 -2.43692 -5.14396 0
M  V30 4453 N 416.996 -0.645473 -5.769 0
M  V30 4454 H 419.761 -2.21849 -2.01502 0
M  V30 4455 H 417.322 -1.29143 -0.976408 0
M  V30 4456 H 419.314 -0.642455 -3.99568 0
M  V30 4457 H 417.884 -0.0325815 -3.12583 0
M  V30 4458 H 417.104 -2.51659 -3.03416 0
M  V30 4459 H 418.392 -2.87468 -4.19809 0
M  V30 4460 H 417.79 -0.047648 -5.6568 0
M  V30 4461 H 416.347 -0.43913 -6.50319 0
M  V30 4462 N 419.78 1.02168 -1.19998 0
M  V30 4463 C 420.728 2.12717 -0.940967 0
M  V30 4464 C 421.722 1.69069 0.105841 0
M  V30 4465 O 422.928 1.79946 -0.0440583 0
M  V30 4466 H 419.303 0.695108 -0.28693 0
M  V30 4467 H 421.274 2.3175 -1.87975 0
M  V30 4468 C 420.023 3.44027 -0.504049 0
M  V30 4469 H 419.346 3.78036 -1.30112 0
M  V30 4470 H 420.786 4.22452 -0.361991 0
M  V30 4471 C 419.245 3.27678 0.782878 0
M  V30 4472 O 419.775 3.56949 1.84256 0
M  V30 4473 N 417.981 2.80943 0.742921 0
M  V30 4474 H 417.528 2.57322 -0.119687 0
M  V30 4475 H 417.486 2.70385 1.60435 0
M  V30 4476 N 421.258 1.00505 1.21394 0
M  V30 4477 C 422.188 0.585684 2.26035 0
M  V30 4478 C 423.169 -0.393525 1.65485 0
M  V30 4479 O 424.354 -0.281497 1.92149 0
M  V30 4480 C 421.484 -0.0884283 3.47187 0
M  V30 4481 C 420.438 0.810567 4.20254 0
M  V30 4482 C 419.764 0.00286382 5.347 0
M  V30 4483 C 421.064 2.1132 4.77641 0
M  V30 4484 H 422.758 1.46039 2.61368 0
M  V30 4485 H 420.304 0.703648 1.25638 0
M  V30 4486 H 422.257 -0.393286 4.19561 0
M  V30 4487 H 420.981 -0.997766 3.10986 0
M  V30 4488 H 419.64 1.09925 3.49731 0
M  V30 4489 H 419.288 -0.907765 4.94741 0
M  V30 4490 H 418.988 0.601444 5.84514 0
M  V30 4491 H 420.512 -0.295808 6.09883 0
M  V30 4492 H 421.926 1.87148 5.41893 0
M  V30 4493 H 420.323 2.66164 5.37845 0
M  V30 4494 H 421.393 2.78393 3.9702 0
M  V30 4495 N 422.737 -1.36956 0.779787 0
M  V30 4496 C 423.965 -2.03755 0.359398 0
M  V30 4497 C 424.38 -1.58807 -1.02106 0
M  V30 4498 O 423.737 -0.773024 -1.6532 0
M  V30 4499 C 423.788 -3.59251 0.402568 0
M  V30 4500 O 423.509 -4.02557 1.72858 0
M  V30 4501 C 425.01 -4.43291 -0.0284068 0
M  V30 4502 H 422.23 -0.654148 0.149437 0
M  V30 4503 H 424.774 -1.75128 1.05595 0
M  V30 4504 H 422.929 -3.86621 -0.245478 0
M  V30 4505 H 423.343 -4.97111 1.67275 0
M  V30 4506 H 424.817 -5.51975 0.0529466 0
M  V30 4507 H 425.294 -4.25719 -1.07982 0
M  V30 4508 H 425.9 -4.21163 0.591758 0
M  V30 4509 N 424.215 -0.530993 -1.48385 0
M  V30 4510 C 425.145 0.219985 -2.32461 0
M  V30 4511 C 426.126 0.934111 -1.42156 0
M  V30 4512 O 427.311 0.919694 -1.71042 0
M  V30 4513 C 424.441 1.26674 -3.23375 0
M  V30 4514 C 423.395 0.67069 -4.22712 0
M  V30 4515 C 422.721 1.82017 -5.02766 0
M  V30 4516 C 424.021 -0.358268 -5.2107 0
M  V30 4517 H 425.715 -0.48187 -2.95497 0
M  V30 4518 H 423.261 -0.233182 -1.42099 0
M  V30 4519 H 425.214 1.80006 -3.81019 0
M  V30 4520 H 423.938 1.99818 -2.58341 0
M  V30 4521 H 422.597 0.158878 -3.66256 0
M  V30 4522 H 422.245 2.54002 -4.34157 0
M  V30 4523 H 421.945 1.42727 -5.70003 0
M  V30 4524 H 423.469 2.35725 -5.63264 0
M  V30 4525 H 424.883 0.0880081 -5.73232 0
M  V30 4526 H 423.28 -0.66861 -5.96364 0
M  V30 4527 H 424.35 -1.26367 -4.68145 0
M  V30 4528 N 425.693 1.55336 -0.266172 0
M  V30 4529 C 426.942 1.98574 0.353749 0
M  V30 4530 C 427.255 1.15789 1.57646 0
M  V30 4531 O 428.461 1.49129 2.26876 0
M  V30 4532 C 426.917 3.53403 0.680747 0
M  V30 4533 C 426.525 4.44953 -0.52165 0
M  V30 4534 C 428.269 4.05251 1.26379 0
M  V30 4535 C 426.176 5.91156 -0.169736 0
M  V30 4536 H 425.106 0.741643 0.135949 0
M  V30 4537 H 427.757 1.79743 -0.369421 0
M  V30 4538 H 426.139 3.68001 1.46257 0
M  V30 4539 H 427.313 4.42121 -1.29869 0
M  V30 4540 H 425.628 4.03691 -1.02093 0
M  V30 4541 H 428.225 5.12021 1.54074 0
M  V30 4542 H 428.568 3.53749 2.19471 0
M  V30 4543 H 429.101 3.94057 0.544447 0
M  V30 4544 H 425.84 6.46736 -1.0683 0
M  V30 4545 H 425.36 5.97079 0.570717 0
M  V30 4546 H 427.039 6.4655 0.241245 0
M  V30 4547 N 427.171 -0.0066808 1.57599 0
M  V30 4548 C 428.081 -1.01671 2.11424 0
M  V30 4549 C 429.097 -1.38143 1.05795 0
M  V30 4550 O 430.273 -1.47011 1.37658 0
M  V30 4551 C 427.338 -2.29192 2.60139 0
M  V30 4552 C 426.399 -1.99094 3.80342 0
M  V30 4553 C 425.632 -3.20535 4.26724 0
M  V30 4554 O 425.855 -4.3199 3.72479 0
M  V30 4555 O 424.789 -3.04924 5.18946 0
M  V30 4556 H 428.615 -0.589181 2.9793 0
M  V30 4557 H 426.2 -0.225091 1.47695 0
M  V30 4558 H 428.082 -3.0412 2.917 0
M  V30 4559 H 426.757 -2.71195 1.76733 0
M  V30 4560 H 425.664 -1.21663 3.53764 0
M  V30 4561 H 426.997 -1.61931 4.648 0
M  V30 4562 N 428.649 -1.55105 -0.279332 0
M  V30 4563 C 429.559 -1.90638 -1.36727 0
M  V30 4564 C 430.575 -0.802899 -1.54368 0
M  V30 4565 O 431.751 -1.10138 -1.68616 0
M  V30 4566 C 428.816 -2.16547 -2.70755 0
M  V30 4567 C 427.877 -3.40146 -2.61915 0
M  V30 4568 C 427.11 -3.6481 -3.8955 0
M  V30 4569 O 427.333 -2.92095 -4.89935 0
M  V30 4570 O 426.267 -4.58343 -3.90135 0
M  V30 4571 H 430.093 -2.83237 -1.09591 0
M  V30 4572 H 427.678 -1.4157 -0.477306 0
M  V30 4573 H 429.56 -2.34665 -3.50014 0
M  V30 4574 H 428.235 -1.27131 -2.9769 0
M  V30 4575 H 427.142 -3.2737 -1.81052 0
M  V30 4576 H 428.475 -4.29761 -2.3993 0
M  V30 4577 N 430.127 0.543554 -1.4793 0
M  V30 4578 C 431.352 1.32995 -1.59145 0
M  V30 4579 C 431.777 1.86472 -0.246956 0
M  V30 4580 O 431.135 1.63696 0.779324 0
M  V30 4581 C 431.183 2.46623 -2.63077 0
M  V30 4582 O 430.287 3.49261 -2.19295 0
M  V30 4583 H 429.628 0.394472 -0.534124 0
M  V30 4584 H 432.158 0.655489 -1.93816 0
M  V30 4585 H 432.168 2.93001 -2.83926 0
M  V30 4586 H 430.843 2.07059 -3.60693 0
M  V30 4587 H 429.42 3.09094 -2.08603 0
M  V30 4588 N 431.605 1.3629 0.791371 0
M  V30 4589 C 432.535 1.33137 1.91825 0
M  V30 4590 C 433.516 0.203168 1.68882 0
M  V30 4591 O 434.701 0.400509 1.90025 0
M  V30 4592 C 431.831 1.11793 3.28816 0
M  V30 4593 C 430.785 2.21417 3.66277 0
M  V30 4594 C 430.111 1.85218 5.01596 0
M  V30 4595 C 431.411 3.63489 3.75064 0
M  V30 4596 H 433.105 2.2743 1.9472 0
M  V30 4597 H 430.651 1.09479 0.935437 0
M  V30 4598 H 432.604 1.08222 4.07266 0
M  V30 4599 H 431.328 0.139501 3.26302 0
M  V30 4600 H 429.987 2.2411 2.90121 0
M  V30 4601 H 429.635 0.859544 4.95602 0
M  V30 4602 H 429.335 2.58611 5.27631 0
M  V30 4603 H 430.859 1.832 5.82469 0
M  V30 4604 H 432.273 3.63034 4.43711 0
M  V30 4605 H 430.67 4.35771 4.12582 0
M  V30 4606 H 431.74 3.98536 2.76219 0
M  V30 4607 N 433.083 -1.0153 1.20538 0
M  V30 4608 C 434.311 -1.78746 1.04199 0
M  V30 4609 C 434.726 -1.84323 -0.408733 0
M  V30 4610 O 434.083 -1.29714 -1.28377 0
M  V30 4611 C 434.134 -3.23152 1.62035 0
M  V30 4612 O 433.855 -3.17918 3.0143 0
M  V30 4613 C 435.356 -4.16911 1.50666 0
M  V30 4614 H 432.576 -0.56208 0.366479 0
M  V30 4615 H 435.12 -1.27794 1.59653 0
M  V30 4616 H 433.275 -3.71248 1.10697 0
M  V30 4617 H 433.689 -4.08567 3.28897 0
M  V30 4618 H 435.163 -5.16072 1.95892 0
M  V30 4619 H 435.64 -4.36791 0.459363 0
M  V30 4620 H 436.246 -3.74698 2.01201 0
M  V30 4621 N 434.561 -1.01147 -1.20859 0
M  V30 4622 C 435.786 -0.716698 -1.94623 0
M  V30 4623 C 436.211 0.715415 -1.73964 0
M  V30 4624 O 435.569 1.49157 -1.03062 0
M  V30 4625 C 435.617 -1.0513 -3.44935 0
M  V30 4626 O 434.721 -0.160131 -4.12089 0
M  V30 4627 H 434.062 -0.266404 -0.608214 0
M  V30 4628 H 436.592 -1.35346 -1.53436 0
M  V30 4629 H 436.602 -1.00086 -3.95533 0
M  V30 4630 H 435.277 -2.09475 -3.59295 0
M  V30 4631 H 433.854 -0.267657 -3.71938 0
M  V30 4632 N 436.039 1.36541 -0.78704 0
M  V30 4633 C 436.949 2.3387 -0.184896 0
M  V30 4634 C 437.965 1.60927 0.661697 0
M  V30 4635 O 439.141 1.92927 0.57804 0
M  V30 4636 C 436.206 3.40122 0.672145 0
M  V30 4637 C 435.267 4.28867 -0.19267 0
M  V30 4638 C 434.5 5.30045 0.623561 0
M  V30 4639 O 434.723 5.39232 1.8597 0
M  V30 4640 O 433.657 6.01895 0.0247068 0
M  V30 4641 H 437.483 2.87126 -0.989562 0
M  V30 4642 H 435.068 1.38969 -0.548455 0
M  V30 4643 H 436.95 4.05093 1.16094 0
M  V30 4644 H 435.625 2.89169 1.45474 0
M  V30 4645 H 434.532 3.66945 -0.728166 0
M  V30 4646 H 435.865 4.83165 -0.938722 0
M  V30 4647 N 437.518 0.538854 1.48102 0
M  V30 4648 C 438.765 0.0080018 2.02498 0
M  V30 4649 C 439.093 -1.33437 1.41509 0
M  V30 4650 O 438.348 -1.87709 0.553507 0
M  V30 4651 C 438.647 -0.153808 3.57069 0
M  V30 4652 C 438.313 1.11533 4.36888 0
M  V30 4653 C 436.975 1.46314 4.58417 0
M  V30 4654 C 439.327 1.95718 4.83057 0
M  V30 4655 C 436.655 2.6516 5.23361 0
M  V30 4656 C 439.007 3.13751 5.49312 0
M  V30 4657 C 437.671 3.48866 5.69077 0
M  V30 4658 H 436.941 0.00292807 0.740994 0
M  V30 4659 H 439.588 0.706668 1.77984 0
M  V30 4660 H 437.893 -0.935309 3.80472 0
M  V30 4661 H 439.59 -0.579607 3.96789 0
M  V30 4662 H 436.18 0.834484 4.20398 0
M  V30 4663 H 440.364 1.70158 4.66219 0
M  V30 4664 H 435.62 2.92558 5.36861 0
M  V30 4665 H 439.794 3.79282 5.84053 0
M  V30 4666 H 437.421 4.41054 6.19173 0
M  V30 4667 N 438.996 -1.55193 0.274407 0
M  V30 4668 C 440.245 -1.98758 -0.343213 0
M  V30 4669 C 440.558 -1.16624 -1.5703 0
M  V30 4670 O 441.764 -1.5033 -2.26082 0
M  V30 4671 C 440.22 -3.53759 -0.661996 0
M  V30 4672 C 439.828 -4.4467 0.54524 0
M  V30 4673 C 441.572 -4.05916 -1.24228 0
M  V30 4674 C 439.479 -5.91058 0.201084 0
M  V30 4675 H 438.409 -0.742353 -0.132014 0
M  V30 4676 H 441.06 -1.79545 0.378948 0
M  V30 4677 H 439.442 -3.68772 -1.44304 0
M  V30 4678 H 440.616 -4.41426 1.32212 0
M  V30 4679 H 438.931 -4.03143 1.04232 0
M  V30 4680 H 441.528 -5.12831 -1.51357 0
M  V30 4681 H 441.871 -3.54908 -2.17592 0
M  V30 4682 H 442.404 -3.9434 -0.523542 0
M  V30 4683 H 439.143 -6.46161 1.10258 0
M  V30 4684 H 438.663 -5.97373 -0.539045 0
M  V30 4685 H 440.342 -6.46669 -0.206954 0
M  V30 4686 N 440.474 -0.00167713 -1.576 0
M  V30 4687 C 441.424 0.997744 -2.0501 0
M  V30 4688 C 442.408 1.30214 -0.94515 0
M  V30 4689 O 443.6 1.29284 -1.20891 0
M  V30 4690 C 440.729 2.2892 -2.55833 0
M  V30 4691 C 439.815 2.01437 -3.73208 0
M  V30 4692 N 440.206 1.44119 -4.84833 0
M  V30 4693 C 438.504 2.31571 -3.8117 0
M  V30 4694 C 439.205 1.33145 -5.66257 0
M  V30 4695 N 438.181 1.81763 -5.12312 0
M  V30 4696 H 441.983 0.549098 -2.88725 0
M  V30 4697 H 439.497 0.20398 -1.61114 0
M  V30 4698 H 441.494 3.01361 -2.88075 0
M  V30 4699 H 440.154 2.74436 -1.73537 0
M  V30 4700 H 441.165 1.11978 -5.0565 0
M  V30 4701 H 437.842 2.7995 -3.09732 0
M  V30 4702 H 439.232 0.890567 -6.65972 0
M  V30 4703 N 441.952 1.55251 0.271103 0
M  V30 4704 C 443.229 1.66664 1.02384 0
M  V30 4705 C 443.609 0.534363 2.04225 0
M  V30 4706 O 442.957 -0.465337 2.23712 0
M  V30 4707 C 443.167 3.05961 1.67895 0
M  V30 4708 C 444.515 3.63772 2.18986 0
M  V30 4709 O 445.539 3.08606 1.77878 0
M  V30 4710 O 444.398 4.60429 2.94393 0
M  V30 4711 H 441.492 0.676957 0.475035 0
M  V30 4712 H 444.038 1.67589 0.26681 0
M  V30 4713 H 442.81 3.79815 0.941071 0
M  V30 4714 H 442.433 3.08943 2.5028 0
M  V30 4715 N 443.43 -0.535701 1.48216 0
M  V30 4716 C 444.679 -1.28828 1.55197 0
M  V30 4717 C 444.992 -1.94263 0.228278 0
M  V30 4718 O 446.198 -2.70927 0.176278 0
M  V30 4719 C 444.654 -2.33727 2.73678 0
M  V30 4720 C 444.262 -1.74386 4.12666 0
M  V30 4721 C 446.006 -3.1003 2.89968 0
M  V30 4722 C 443.913 -2.77192 5.22416 0
M  V30 4723 H 442.843 -0.484484 0.577747 0
M  V30 4724 H 445.494 -0.56646 1.74538 0
M  V30 4725 H 443.876 -3.08919 2.4776 0
M  V30 4726 H 445.05 -1.05421 4.48579 0
M  V30 4727 H 443.365 -1.10595 4.01445 0
M  V30 4728 H 445.962 -3.86842 3.6913 0
M  V30 4729 H 446.305 -3.65542 1.9921 0
M  V30 4730 H 446.838 -2.41952 3.15759 0
M  V30 4731 H 443.577 -2.26507 6.15122 0
M  V30 4732 H 443.097 -3.44502 4.90998 0
M  V30 4733 H 444.776 -3.40285 5.50286 0
M  V30 4734 N 444.908 -1.36708 -0.784132 0
M  V30 4735 C 446.185 -1.21776 -1.53069 0
M  V30 4736 C 446.565 0.193876 -2.10208 0
M  V30 4737 O 445.913 1.20012 -1.94446 0
M  V30 4738 C 446.123 -2.30395 -2.62143 0
M  V30 4739 C 447.471 -2.67325 -3.29882 0
M  V30 4740 O 448.495 -2.29478 -2.7243 0
M  V30 4741 O 447.354 -3.32485 -4.33724 0
M  V30 4742 H 444.448 -0.474459 -0.677361 0
M  V30 4743 H 446.994 -1.48454 -0.82216 0
M  V30 4744 H 445.766 -3.2498 -2.17953 0
M  V30 4745 H 445.389 -2.05112 -3.40609 0
M  V30 4746 N 446.386 1.0089 -1.21074 0
M  V30 4747 C 447.802 1.2695 -0.967257 0
M  V30 4748 C 448.002 1.9846 0.348673 0
M  V30 4749 O 447.058 2.28459 1.0753 0
M  V30 4750 C 448.371 2.09697 -2.15517 0
M  V30 4751 C 449.919 2.22937 -2.197 0
M  V30 4752 C 450.394 3.09064 -3.37999 0
M  V30 4753 N 451.885 3.16653 -3.38061 0
M  V30 4754 C 452.62 3.8354 -4.26245 0
M  V30 4755 N 452.116 4.52488 -5.2462 0
M  V30 4756 N 453.909 3.80141 -4.14064 0
M  V30 4757 H 446.06 0.529005 -2.05707 0
M  V30 4758 H 448.323 0.296148 -0.900556 0
M  V30 4759 H 448.029 1.64497 -3.10859 0
M  V30 4760 H 447.903 3.10444 -2.14253 0
M  V30 4761 H 450.29 2.67357 -1.24916 0
M  V30 4762 H 450.371 1.21673 -2.2501 0
M  V30 4763 H 450.015 2.65347 -4.33074 0
M  V30 4764 H 449.945 4.10433 -3.29928 0
M  V30 4765 H 452.436 2.67566 -2.66865 0
M  V30 4766 H 452.749 5.01219 -5.88217 0
M  V30 4767 H 451.094 4.51288 -5.28549 0
M  V30 4768 H 454.285 3.25427 -3.36474 0
M  V30 4769 H 454.458 4.31992 -4.82998 0
M  V30 4770 N 447.864 1.01787 1.20321 0
M  V30 4771 C 448.774 0.598898 2.26827 0
M  V30 4772 C 449.79 -0.36418 1.70146 0
M  V30 4773 O 450.966 -0.224812 2.00141 0
M  V30 4774 C 448.031 -0.0549769 3.46656 0
M  V30 4775 C 447.092 0.954205 4.18561 0
M  V30 4776 C 446.325 0.331439 5.3267 0
M  V30 4777 O 446.548 -0.86851 5.63749 0
M  V30 4778 O 445.482 1.0488 5.92692 0
M  V30 4779 H 449.308 1.48562 2.64883 0
M  V30 4780 H 446.893 0.787434 1.26964 0
M  V30 4781 H 448.775 -0.420102 4.19301 0
M  V30 4782 H 447.45 -0.915876 3.10473 0
M  V30 4783 H 446.357 1.37072 3.48083 0
M  V30 4784 H 447.69 1.78511 4.58688 0
M  V30 4785 N 449.342 -1.36122 0.79427 0
M  V30 4786 C 450.272 -2.32551 0.210328 0
M  V30 4787 C 451.253 -1.56884 -0.657386 0
M  V30 4788 O 452.438 -1.85014 -0.590207 0
M  V30 4789 C 449.568 -3.41128 -0.651819 0
M  V30 4790 C 448.522 -4.27842 0.116395 0
M  V30 4791 C 447.848 -5.2763 -0.86666 0
M  V30 4792 C 449.148 -5.05647 1.30837 0
M  V30 4793 H 450.842 -2.81636 1.01594 0
M  V30 4794 H 448.388 -1.35407 0.489981 0
M  V30 4795 H 450.341 -4.07581 -1.07031 0
M  V30 4796 H 449.065 -2.90622 -1.49019 0
M  V30 4797 H 447.724 -3.62952 0.515915 0
M  V30 4798 H 447.372 -4.73395 -1.70019 0
M  V30 4799 H 447.072 -5.86514 -0.35705 0
M  V30 4800 H 448.596 -5.96955 -1.28361 0
M  V30 4801 H 450.01 -5.65113 0.965393 0
M  V30 4802 H 448.407 -5.73967 1.75161 0
M  V30 4803 H 449.477 -4.37006 2.10128 0
M  V30 4804 N 450.82 -0.546701 -1.47814 0
M  V30 4805 C 451.767 0.206854 -2.29871 0
M  V30 4806 C 452.737 0.918235 -1.38411 0
M  V30 4807 O 453.922 0.915991 -1.67375 0
M  V30 4808 C 451.062 1.23746 -3.22151 0
M  V30 4809 C 450.175 0.533216 -4.28697 0
M  V30 4810 C 449.31 1.5482 -5.08138 0
M  V30 4811 C 448.349 0.828347 -6.06469 0
M  V30 4812 N 447.486 1.78966 -6.78908 0
M  V30 4813 H 452.326 -0.499037 -2.93792 0
M  V30 4814 H 449.863 -0.25793 -1.44821 0
M  V30 4815 H 451.821 1.84746 -3.74065 0
M  V30 4816 H 450.451 1.91151 -2.60117 0
M  V30 4817 H 449.503 -0.191089 -3.7992 0
M  V30 4818 H 450.815 -0.0311987 -4.9879 0
M  V30 4819 H 449.969 2.23202 -5.6415 0
M  V30 4820 H 448.708 2.14652 -4.37922 0
M  V30 4821 H 447.713 0.130539 -5.49645 0
M  V30 4822 H 448.938 0.235907 -6.7869 0
M  V30 4823 H 446.884 2.37675 -6.1143 0
M  V30 4824 H 446.801 1.27712 -7.45135 0
M  V30 4825 H 448.069 2.46496 -7.395 0
M  V30 4826 N 452.299 1.55045 -0.282633 0
M  V30 4827 C 453.527 2.04168 0.33512 0
M  V30 4828 C 453.942 1.16071 1.48906 0
M  V30 4829 O 453.299 0.182391 1.81586 0
M  V30 4830 C 453.35 3.52332 0.808957 0
M  V30 4831 O 453.071 4.37078 -0.299038 0
M  V30 4832 C 454.572 4.17375 1.49375 0
M  V30 4833 H 451.792 0.666744 0.0754543 0
M  V30 4834 H 454.336 2.00205 -0.416918 0
M  V30 4835 H 452.491 3.56715 1.51106 0
M  V30 4836 H 452.905 5.24458 0.0665514 0
M  V30 4837 H 454.379 5.22627 1.77664 0
M  V30 4838 H 454.856 3.65999 2.42778 0
M  V30 4839 H 455.462 4.17016 0.835305 0
M  V30 4840 N 453.777 0.010035 1.57597 0
M  V30 4841 C 455.023 -0.673697 1.91283 0
M  V30 4842 C 455.356 -1.72863 0.884979 0
M  V30 4843 O 454.631 -1.94268 -0.0949487 0
M  V30 4844 C 454.914 -1.30766 3.35518 0
M  V30 4845 C 454.767 -0.263578 4.49027 0
M  V30 4846 C 456.086 -2.23105 3.79358 0
M  V30 4847 H 453.205 -0.243439 0.695634 0
M  V30 4848 H 455.847 0.0633864 1.89894 0
M  V30 4849 H 453.997 -1.93588 3.36832 0
M  V30 4850 H 455.669 0.365738 4.59848 0
M  V30 4851 H 453.912 0.413077 4.31829 0
M  V30 4852 H 454.583 -0.746398 5.4693 0
M  V30 4853 H 457.059 -1.70289 3.79659 0
M  V30 4854 H 455.935 -2.64424 4.81011 0
M  V30 4855 H 456.196 -3.11433 3.13787 0
M  V30 4856 N 455.255 -1.55392 -0.262866 0
M  V30 4857 C 456.187 -1.85392 -1.34768 0
M  V30 4858 C 457.2 -0.739069 -1.45057 0
M  V30 4859 O 458.389 -1.01703 -1.46693 0
M  V30 4860 C 455.489 -2.01088 -2.72795 0
M  V30 4861 C 454.662 -3.31828 -2.84972 0
M  V30 4862 C 453.721 -3.37464 -4.03738 0
M  V30 4863 O 452.747 -4.10778 -3.94018 0
M  V30 4864 N 453.949 -2.65599 -5.16176 0
M  V30 4865 H 456.714 -2.79029 -1.09375 0
M  V30 4866 H 454.275 -1.55434 -0.452981 0
M  V30 4867 H 456.267 -2.02217 -3.50557 0
M  V30 4868 H 454.837 -1.1427 -2.90966 0
M  V30 4869 H 454.057 -3.43152 -1.94012 0
M  V30 4870 H 455.345 -4.18032 -2.90045 0
M  V30 4871 H 454.743 -2.05736 -5.26962 0
M  V30 4872 H 453.3 -2.72439 -5.92132 0
M  V30 4873 N 456.733 0.527833 -1.48498 0
M  V30 4874 C 457.696 1.61439 -1.62696 0
M  V30 4875 C 458.696 1.52824 -0.500136 0
M  V30 4876 O 459.886 1.56456 -0.765976 0
M  V30 4877 C 457.018 3.01063 -1.59918 0
M  V30 4878 H 458.211 1.50189 -2.59583 0
M  V30 4879 H 455.764 0.750055 -1.37127 0
M  V30 4880 H 456.499 3.17818 -0.645163 0
M  V30 4881 H 456.284 3.08725 -2.41726 0
M  V30 4882 H 457.774 3.80057 -1.73051 0
M  V30 4883 N 458.211 1.37122 0.776871 0
M  V30 4884 C 459.457 1.32243 1.53752 0
M  V30 4885 C 459.79 -0.0944745 1.9397 0
M  V30 4886 O 459.065 -1.05068 1.6368 0
M  V30 4887 C 459.348 2.25681 2.80607 0
M  V30 4888 C 459.201 3.76127 2.46676 0
M  V30 4889 C 460.52 2.17657 3.82509 0
M  V30 4890 H 457.639 0.481704 0.557791 0
M  V30 4891 H 460.281 1.6778 0.891612 0
M  V30 4892 H 458.431 1.95505 3.35723 0
M  V30 4893 H 460.103 4.16877 1.97513 0
M  V30 4894 H 458.346 3.94946 1.79443 0
M  V30 4895 H 459.017 4.36933 3.37333 0
M  V30 4896 H 461.493 2.44245 3.36873 0
M  V30 4897 H 460.369 2.85185 4.69 0
M  V30 4898 H 460.63 1.16785 4.26396 0
M  V30 4899 N 459.689 -1.00246 1.21608 0
M  V30 4900 C 460.619 -2.10921 1.00172 0
M  V30 4901 C 461.6 -1.69938 -0.0741587 0
M  V30 4902 O 462.785 -1.94009 0.0861753 0
M  V30 4903 C 459.915 -3.42618 0.568355 0
M  V30 4904 C 458.869 -3.97407 1.58909 0
M  V30 4905 C 458.195 -5.25038 1.01187 0
M  V30 4906 C 459.495 -4.2918 2.97661 0
M  V30 4907 H 461.189 -2.29112 1.92739 0
M  V30 4908 H 458.735 -1.10101 0.928102 0
M  V30 4909 H 460.688 -4.19444 0.405555 0
M  V30 4910 H 459.412 -3.24227 -0.392961 0
M  V30 4911 H 458.071 -3.22703 1.73949 0
M  V30 4912 H 457.719 -5.02982 0.0421965 0
M  V30 4913 H 457.419 -5.62661 1.6937 0
M  V30 4914 H 458.943 -6.04507 0.860448 0
M  V30 4915 H 460.357 -4.96839 2.86049 0
M  V30 4916 H 458.754 -4.77952 3.6288 0
M  V30 4917 H 459.824 -3.3735 3.48315 0
M  V30 4918 N 461.167 -1.02423 -1.1978 0
M  V30 4919 C 462.395 -0.737456 -1.93311 0
M  V30 4920 C 462.81 0.703023 -1.75223 0
M  V30 4921 O 462.167 1.47761 -1.07112 0
M  V30 4922 C 462.218 -1.0733 -3.45199 0
M  V30 4923 O 461.939 -2.4572 -3.62702 0
M  V30 4924 C 463.44 -0.80866 -4.35862 0
M  V30 4925 H 460.66 -0.2702 -0.614193 0
M  V30 4926 H 463.204 -1.36747 -1.52054 0
M  V30 4927 H 461.359 -0.488545 -3.84307 0
M  V30 4928 H 461.773 -2.58081 -4.56612 0
M  V30 4929 H 463.247 -1.09365 -5.41057 0
M  V30 4930 H 463.724 0.257025 -4.38447 0
M  V30 4931 H 464.33 -1.37592 -4.02428 0
M  V30 4932 N 462.645 1.35699 -0.801477 0
M  V30 4933 C 463.891 1.99208 -0.380022 0
M  V30 4934 C 464.224 1.63445 1.04878 0
M  V30 4935 O 463.499 0.895223 1.72673 0
M  V30 4936 C 463.782 3.55755 -0.557708 0
M  V30 4937 C 463.635 4.01332 -2.03107 0
M  V30 4938 C 464.954 4.40096 0.0197968 0
M  V30 4939 H 462.073 0.723667 -0.139552 0
M  V30 4940 H 464.715 1.60928 -1.01006 0
M  V30 4941 H 462.865 3.88494 -0.0213741 0
M  V30 4942 H 464.537 3.79026 -2.62939 0
M  V30 4943 H 462.78 3.52429 -2.52936 0
M  V30 4944 H 463.451 5.10234 -2.1063 0
M  V30 4945 H 465.927 4.13786 -0.438179 0
M  V30 4946 H 464.803 5.48735 -0.134477 0
M  V30 4947 H 465.064 4.2786 1.11303 0
M  V30 4948 N 464.123 0.554532 1.47522 0
M  V30 4949 C 465.534 0.120446 1.86311 0
M  V30 4950 C 465.885 -1.30904 1.46145 0
M  V30 4951 O 465.01 -1.98434 0.863294 0
M  V30 4952 C 465.605 0.211808 3.38137 0
M  V30 4953 C 464.164 -0.167224 3.76028 0
M  V30 4954 C 463.311 0.560576 2.71575 0
M  V30 4955 H 466.262 0.764408 1.39077 0
M  V30 4956 H 466.283 -0.570275 3.76202 0
M  V30 4957 H 465.795 1.25232 3.6734 0
M  V30 4958 H 463.896 -1.20894 3.52442 0
M  V30 4959 H 464.009 0.189473 4.78725 0
M  V30 4960 H 462.373 0.00396836 2.547 0
M  V30 4961 H 463.156 1.60219 3.0362 0
M  V30 4962 N 465.601 -1.54893 0.290851 0
M  V30 4963 C 466.548 -2.23138 -0.58974 0
M  V30 4964 C 467.518 -1.21036 -1.13752 0
M  V30 4965 O 468.703 -1.49626 -1.18392 0
M  V30 4966 C 465.843 -2.96811 -1.76061 0
M  V30 4967 C 464.956 -4.13665 -1.24519 0
M  V30 4968 C 464.091 -4.74944 -2.3791 0
M  V30 4969 C 463.13 -5.83963 -1.83451 0
M  V30 4970 N 462.267 -6.39239 -2.90376 0
M  V30 4971 H 467.107 -2.98 -0.00114915 0
M  V30 4972 H 464.644 -1.47096 0.0112006 0
M  V30 4973 H 466.602 -3.37751 -2.44909 0
M  V30 4974 H 465.232 -2.24344 -2.32098 0
M  V30 4975 H 464.284 -3.77737 -0.449288 0
M  V30 4976 H 465.596 -4.92238 -0.806424 0
M  V30 4977 H 464.75 -5.18684 -3.14724 0
M  V30 4978 H 463.489 -3.95682 -2.85109 0
M  V30 4979 H 462.494 -5.39657 -1.05122 0
M  V30 4980 H 463.719 -6.65103 -1.37169 0
M  V30 4981 H 461.665 -5.62864 -3.36927 0
M  V30 4982 H 461.582 -7.13129 -2.50965 0
M  V30 4983 H 462.85 -6.87637 -3.67118 0
M  V30 4984 N 467.08 -0.0183926 -1.57589 0
M  V30 4985 C 468.01 0.965596 -2.12599 0
M  V30 4986 C 468.991 1.34641 -1.0395 0
M  V30 4987 O 470.176 1.42693 -1.31729 0
M  V30 4988 C 467.306 2.25149 -2.64434 0
M  V30 4989 C 466.26 2.01175 -3.77773 0
M  V30 4990 C 465.586 3.35937 -4.15994 0
M  V30 4991 C 466.886 1.35953 -5.04296 0
M  V30 4992 H 468.58 0.507504 -2.95067 0
M  V30 4993 H 466.126 0.242671 -1.41941 0
M  V30 4994 H 468.079 2.94357 -3.01549 0
M  V30 4995 H 466.803 2.73105 -1.79112 0
M  V30 4996 H 465.462 1.34388 -3.4108 0
M  V30 4997 H 465.11 3.81631 -3.27669 0
M  V30 4998 H 464.81 3.20705 -4.92364 0
M  V30 4999 H 466.334 4.0643 -4.55683 0
M  V30 5000 H 467.748 1.95144 -5.39065 0
M  V30 5001 H 466.145 1.31152 -5.85593 0
M  V30 5002 H 467.215 0.331071 -4.83768 0
M  V30 5003 N 468.558 1.5553 0.254621 0
M  V30 5004 C 469.505 1.89666 1.31512 0
M  V30 5005 C 470.475 0.750057 1.482 0
M  V30 5006 O 471.66 1.00301 1.62309 0
M  V30 5007 C 468.8 2.19009 2.667 0
M  V30 5008 C 467.913 3.46435 2.58083 0
M  V30 5009 C 467.048 3.65386 3.85573 0
M  V30 5010 C 466.087 4.8644 3.71541 0
M  V30 5011 N 465.224 5.01952 4.90906 0
M  V30 5012 H 470.064 2.80109 1.017 0
M  V30 5013 H 467.601 1.38666 0.490938 0
M  V30 5014 H 469.559 2.34025 3.45381 0
M  V30 5015 H 468.189 1.31779 2.94676 0
M  V30 5016 H 467.241 3.39792 1.71013 0
M  V30 5017 H 468.553 4.35258 2.43622 0
M  V30 5018 H 467.707 3.80319 4.72697 0
M  V30 5019 H 466.446 2.74781 4.02922 0
M  V30 5020 H 465.451 4.71491 2.82801 0
M  V30 5021 H 466.676 5.78497 3.55694 0
M  V30 5022 H 464.622 4.14283 5.08631 0
M  V30 5023 H 464.539 5.84851 4.79046 0
M  V30 5024 H 465.807 5.21289 5.7955 0
M  V30 5025 N 470.036 -0.519951 1.48776 0
M  V30 5026 C 470.966 -1.63253 1.66945 0
M  V30 5027 C 471.947 -1.62014 0.518224 0
M  V30 5028 O 473.132 -1.79053 0.751919 0
M  V30 5029 C 470.262 -3.0181 1.71836 0
M  V30 5030 C 469.216 -3.17911 2.8656 0
M  V30 5031 C 468.542 -4.5763 2.76548 0
M  V30 5032 C 469.842 -2.99729 4.27738 0
M  V30 5033 H 471.536 -1.48302 2.6009 0
M  V30 5034 H 469.082 -0.712026 1.25165 0
M  V30 5035 H 471.035 -3.79525 1.83135 0
M  V30 5036 H 469.759 -3.17806 0.752775 0
M  V30 5037 H 468.418 -2.42616 2.74833 0
M  V30 5038 H 468.066 -4.70476 1.77937 0
M  V30 5039 H 467.766 -4.69346 3.53536 0
M  V30 5040 H 469.29 -5.37431 2.89828 0
M  V30 5041 H 470.704 -3.67228 4.40246 0
M  V30 5042 H 469.101 -3.22932 5.05801 0
M  V30 5043 H 470.171 -1.96047 4.43502 0
M  V30 5044 N 471.514 -1.37532 -0.769588 0
M  V30 5045 C 472.739 -1.36231 -1.56384 0
M  V30 5046 C 473.164 0.0495849 -1.88035 0
M  V30 5047 O 472.522 1.02723 -1.49391 0
M  V30 5048 C 472.57 -2.20986 -2.84952 0
M  V30 5049 O 471.674 -1.61597 -3.79421 0
M  V30 5050 H 471.015 -0.465387 -0.473615 0
M  V30 5051 H 473.545 -1.81085 -0.952342 0
M  V30 5052 H 473.555 -2.34277 -3.34034 0
M  V30 5053 H 472.23 -3.23612 -2.61243 0
M  V30 5054 H 470.807 -1.57359 -3.38072 0
M  V30 5055 N 472.992 0.995999 -1.22138 0
M  V30 5056 C 474.222 1.76809 -1.06874 0
M  V30 5057 C 474.63 1.85265 0.383866 0
M  V30 5058 O 473.973 1.31969 1.27789 0
M  V30 5059 C 474.035 3.2186 -1.60144 0
M  V30 5060 C 473.699 3.36958 -3.0872 0
M  V30 5061 C 474.696 3.2452 -4.0618 0
M  V30 5062 C 472.381 3.62109 -3.48112 0
M  V30 5063 C 474.375 3.37013 -5.41019 0
M  V30 5064 C 472.062 3.74243 -4.831 0
M  V30 5065 C 473.06 3.61702 -5.79362 0
M  V30 5066 O 472.748 3.73436 -7.119 0
M  V30 5067 H 472.48 0.562207 -0.375365 0
M  V30 5068 H 475.034 1.26113 -1.62125 0
M  V30 5069 H 473.264 3.73734 -0.992981 0
M  V30 5070 H 474.953 3.80775 -1.40589 0
M  V30 5071 H 475.719 3.05004 -3.77091 0
M  V30 5072 H 471.598 3.70949 -2.73712 0
M  V30 5073 H 475.142 3.27141 -6.16137 0
M  V30 5074 H 471.039 3.93266 -5.11872 0
M  V30 5075 H 471.807 3.90328 -7.19435 0
M  V30 5076 N 474.47 1.03057 1.19235 0
M  V30 5077 C 475.38 0.622922 2.26179 0
M  V30 5078 C 476.396 -0.346113 1.70523 0
M  V30 5079 O 477.572 -0.203572 2.00369 0
M  V30 5080 C 474.637 -0.0182063 3.46695 0
M  V30 5081 C 473.698 0.998546 4.17526 0
M  V30 5082 C 472.931 0.387917 5.32288 0
M  V30 5083 O 473.154 -0.808668 5.64639 0
M  V30 5084 O 472.088 1.1116 5.91546 0
M  V30 5085 H 475.914 1.51363 2.63292 0
M  V30 5086 H 473.499 0.800856 1.26122 0
M  V30 5087 H 475.381 -0.375606 4.19723 0
M  V30 5088 H 474.056 -0.882895 3.11427 0
M  V30 5089 H 472.963 1.40756 3.4661 0
M  V30 5090 H 474.296 1.83366 4.56769 0
M  V30 5091 N 475.948 -1.35272 0.808662 0
M  V30 5092 C 477.196 -1.98316 0.389233 0
M  V30 5093 C 477.517 -1.64465 -1.04767 0
M  V30 5094 O 476.787 -0.928175 -1.72516 0
M  V30 5095 H 475.367 -0.733585 0.140935 0
M  V30 5096 H 478.029 -1.6515 1.03496 0
M  V30 5097 H 477.125 -3.08123 0.496631 0
M  V30 5098 N 477.426 -0.562348 -1.47226 0
M  V30 5099 C 478.336 0.185466 -2.33866 0
M  V30 5100 C 479.352 0.906713 -1.48508 0
M  V30 5101 O 480.528 0.874458 -1.81425 0
M  V30 5102 C 477.593 1.19904 -3.25306 0
M  V30 5103 C 476.654 0.484669 -4.26555 0
M  V30 5104 C 475.887 1.44996 -5.13626 0
M  V30 5105 O 476.11 2.68515 -5.03245 0
M  V30 5106 O 475.044 0.971642 -5.94006 0
M  V30 5107 H 478.87 -0.525361 -2.99121 0
M  V30 5108 H 476.455 -0.322916 -1.45868 0
M  V30 5109 H 478.337 1.78399 -3.81774 0
M  V30 5110 H 477.012 1.8917 -2.62672 0
M  V30 5111 H 475.919 -0.141605 -3.73832 0
M  V30 5112 H 477.252 -0.166634 -4.91918 0
M  V30 5113 N 478.904 1.54736 -0.299062 0
M  V30 5114 C 480.15 2.00397 0.311244 0
M  V30 5115 C 480.483 1.18716 1.53688 0
M  V30 5116 O 479.758 0.263154 1.92712 0
M  V30 5117 C 480.041 3.53817 0.669761 0
M  V30 5118 C 479.894 4.46239 -0.564882 0
M  V30 5119 C 481.213 4.13856 1.49702 0
M  V30 5120 H 478.332 0.728493 0.111653 0
M  V30 5121 H 480.974 1.85506 -0.410774 0
M  V30 5122 H 479.124 3.66637 1.28491 0
M  V30 5123 H 480.796 4.45328 -1.20337 0
M  V30 5124 H 479.039 4.16916 -1.19849 0
M  V30 5125 H 479.71 5.5134 -0.269918 0
M  V30 5126 H 482.186 4.04461 0.977284 0
M  V30 5127 H 481.062 5.21365 1.71666 0
M  V30 5128 H 481.323 3.65608 2.48563 0
M  V30 5129 N 480.382 0.0267497 1.57577 0
M  V30 5130 C 481.61 -0.662661 1.96001 0
M  V30 5131 C 482.025 -1.65799 0.903117 0
M  V30 5132 O 481.382 -1.82135 -0.115317 0
M  V30 5133 C 481.433 -1.37112 3.34488 0
M  V30 5134 O 481.154 -0.415683 4.36123 0
M  V30 5135 C 482.655 -2.15257 3.8753 0
M  V30 5136 H 479.875 -0.18287 0.6456 0
M  V30 5137 H 482.419 0.0858116 2.0432 0
M  V30 5138 H 480.574 -2.07101 3.27395 0
M  V30 5139 H 480.988 -0.918496 5.16395 0
M  V30 5140 H 482.462 -2.60285 4.86781 0
M  V30 5141 H 482.939 -2.99063 3.21649 0
M  V30 5142 H 483.545 -1.50231 3.97883 0
M  V30 5143 N 481.861 -1.55662 -0.24637 0
M  V30 5144 C 482.808 -1.90361 -1.30504 0
M  V30 5145 C 483.778 -0.757905 -1.47801 0
M  V30 5146 O 484.963 -1.01161 -1.61775 0
M  V30 5147 C 482.103 -2.2042 -2.65535 0
M  V30 5148 C 481.216 -3.47799 -2.56242 0
M  V30 5149 C 480.351 -3.67426 -3.8363 0
M  V30 5150 C 479.39 -4.88403 -3.68956 0
M  V30 5151 N 478.527 -5.04548 -4.88237 0
M  V30 5152 H 483.367 -2.80645 -1.00213 0
M  V30 5153 H 480.904 -1.38924 -0.483577 0
M  V30 5154 H 482.862 -2.35853 -3.44135 0
M  V30 5155 H 481.492 -1.3334 -2.93973 0
M  V30 5156 H 480.544 -3.40694 -1.69208 0
M  V30 5157 H 481.856 -4.36544 -2.4131 0
M  V30 5158 H 481.01 -3.82821 -4.70673 0
M  V30 5159 H 479.749 -2.76914 -4.01459 0
M  V30 5160 H 478.754 -4.72984 -2.80296 0
M  V30 5161 H 479.979 -5.80375 -3.52621 0
M  V30 5162 H 477.925 -4.16974 -5.06427 0
M  V30 5163 H 477.842 -5.87384 -4.75937 0
M  V30 5164 H 479.11 -5.24355 -5.76777 0
M  V30 5165 N 483.339 0.512053 -1.4905 0
M  V30 5166 C 484.564 1.2959 -1.6193 0
M  V30 5167 C 484.989 1.85906 -0.286454 0
M  V30 5168 O 484.347 1.65312 0.744426 0
M  V30 5169 C 484.395 2.40987 -2.68249 0
M  V30 5170 O 483.499 3.44531 -2.26654 0
M  V30 5171 H 482.84 0.383053 -0.542371 0
M  V30 5172 H 485.37 0.614231 -1.95162 0
M  V30 5173 H 485.38 2.86913 -2.90078 0
M  V30 5174 H 484.055 1.99361 -3.65004 0
M  V30 5175 H 482.632 3.046 -2.15112 0
M  V30 5176 N 484.817 1.37938 0.762283 0
M  V30 5177 C 485.747 1.37176 1.88958 0
M  V30 5178 C 486.728 0.238945 1.68413 0
M  V30 5179 O 487.913 0.440726 1.89133 0
M  V30 5180 C 485.043 1.18742 3.2637 0
M  V30 5181 C 483.997 2.29136 3.61498 0
M  V30 5182 C 483.323 1.95816 4.97554 0
M  V30 5183 C 484.623 3.71363 3.6727 0
M  V30 5184 H 486.317 2.31509 1.89853 0
M  V30 5185 H 483.863 1.11438 0.912005 0
M  V30 5186 H 485.816 1.16837 4.04879 0
M  V30 5187 H 484.54 0.208683 3.25933 0
M  V30 5188 H 483.199 2.30213 2.85303 0
M  V30 5189 H 482.847 0.964475 4.93667 0
M  V30 5190 H 482.547 2.69745 5.22026 0
M  V30 5191 H 484.071 1.95513 5.78452 0
M  V30 5192 H 485.485 3.72364 4.35911 0
M  V30 5193 H 483.882 4.44425 4.03245 0
M  V30 5194 H 484.952 4.04305 2.67704 0
M  V30 5195 N 486.295 -0.989507 1.22664 0
M  V30 5196 C 487.227 -2.0824 0.957542 0
M  V30 5197 C 488.24 -1.6267 -0.0651098 0
M  V30 5198 O 489.429 -1.77695 0.169312 0
M  V30 5199 C 486.529 -3.36298 0.419145 0
M  V30 5200 C 485.702 -4.10882 1.49982 0
M  V30 5201 C 484.761 -5.17221 0.967904 0
M  V30 5202 O 483.787 -5.44613 1.65487 0
M  V30 5203 N 484.989 -5.80124 -0.20896 0
M  V30 5204 H 487.754 -2.31904 1.89843 0
M  V30 5205 H 485.315 -1.15552 1.13399 0
M  V30 5206 H 487.307 -4.04671 0.0485451 0
M  V30 5207 H 485.877 -3.09671 -0.426937 0
M  V30 5208 H 485.097 -3.37092 2.04359 0
M  V30 5209 H 486.385 -4.57482 2.22682 0
M  V30 5210 H 485.783 -5.60244 -0.783818 0
M  V30 5211 H 484.34 -6.49715 -0.520913 0
M  V30 5212 N 487.773 -1.03688 -1.18687 0
M  V30 5213 C 488.683 -0.634908 -2.25845 0
M  V30 5214 C 489.699 0.337065 -1.70704 0
M  V30 5215 O 490.875 0.192943 -2.00474 0
M  V30 5216 C 487.94 -0.000180054 -3.467 0
M  V30 5217 C 487.001 -1.02067 -4.1699 0
M  V30 5218 C 486.234 -0.41614 -5.32075 0
M  V30 5219 O 486.457 0.778712 -5.65059 0
M  V30 5220 O 485.391 -1.14296 -5.90948 0
M  V30 5221 H 489.217 -1.52757 -2.62486 0
M  V30 5222 H 486.802 -0.807533 -1.25695 0
M  V30 5223 H 488.684 0.353342 -4.19916 0
M  V30 5224 H 487.359 0.866367 -3.11891 0
M  V30 5225 H 486.266 -1.42592 -3.45859 0
M  V30 5226 H 487.599 -1.85786 -4.5579 0
M  V30 5227 N 489.251 1.34841 -0.815825 0
M  V30 5228 C 490.184 2.27504 -0.178062 0
M  V30 5229 C 491.162 1.48542 0.661373 0
M  V30 5230 O 492.346 1.77779 0.626653 0
M  V30 5231 C 489.473 3.30246 0.752002 0
M  V30 5232 C 488.519 4.26499 -0.00899172 0
M  V30 5233 S 489.352 5.18169 -1.35134 0
M  V30 5234 C 490.508 6.24449 -0.42596 0
M  V30 5235 H 490.741 2.81248 -0.963684 0
M  V30 5236 H 488.274 1.41781 -0.611355 0
M  V30 5237 H 490.232 3.89933 1.28308 0
M  V30 5238 H 488.893 2.75363 1.51109 0
M  V30 5239 H 488.086 4.99146 0.697766 0
M  V30 5240 H 487.688 3.7103 -0.470396 0
M  V30 5241 H 489.98 6.76404 0.385234 0
M  V30 5242 H 490.923 6.99156 -1.1219 0
M  V30 5243 H 491.331 5.64497 -0.0175461 0
M  V30 5244 N 490.729 0.570148 1.46925 0
M  V30 5245 C 491.676 -0.170257 2.30171 0
M  V30 5246 C 492.646 -0.896099 1.39855 0
M  V30 5247 O 493.831 -0.889248 1.68811 0
M  V30 5248 C 490.971 -1.18605 3.24079 0
M  V30 5249 C 490.084 -0.464947 4.29491 0
M  V30 5250 C 489.219 -1.46716 5.10537 0
M  V30 5251 C 488.258 -0.731758 6.0771 0
M  V30 5252 N 487.395 -1.68142 6.81669 0
M  V30 5253 H 492.235 0.545713 2.92961 0
M  V30 5254 H 489.772 0.280938 1.44392 0
M  V30 5255 H 491.73 -1.78771 3.76957 0
M  V30 5256 H 490.36 -1.86989 2.63125 0
M  V30 5257 H 489.412 0.251506 3.79568 0
M  V30 5258 H 490.724 0.110548 4.98677 0
M  V30 5259 H 489.878 -2.14199 5.6763 0
M  V30 5260 H 488.617 -2.07658 4.41282 0
M  V30 5261 H 487.622 -0.0430787 5.49783 0
M  V30 5262 H 488.847 -0.127904 6.7898 0
M  V30 5263 H 486.793 -2.27918 6.15134 0
M  V30 5264 H 486.71 -1.15841 7.47072 0
M  V30 5265 H 487.978 -2.347 7.43328 0
M  V30 5266 N 492.207 -1.54576 0.307264 0
M  V30 5267 C 493.137 -2.26708 -0.55907 0
M  V30 5268 C 494.118 -1.26893 -1.1328 0
M  V30 5269 O 495.303 -1.55677 -1.16097 0
M  V30 5270 C 492.433 -3.01259 -1.72801 0
M  V30 5271 C 491.387 -4.08275 -1.28435 0
M  V30 5272 C 490.713 -4.70575 -2.53895 0
M  V30 5273 C 492.013 -5.2068 -0.411038 0
M  V30 5274 H 493.707 -2.9937 0.042576 0
M  V30 5275 H 491.253 -1.43983 0.0219173 0
M  V30 5276 H 493.206 -3.50444 -2.34023 0
M  V30 5277 H 491.93 -2.26187 -2.356 0
M  V30 5278 H 490.589 -3.59949 -0.695161 0
M  V30 5279 H 490.237 -3.92136 -3.15021 0
M  V30 5280 H 489.937 -5.42854 -2.24908 0
M  V30 5281 H 491.461 -5.22527 -3.15908 0
M  V30 5282 H 492.875 -5.65721 -0.929097 0
M  V30 5283 H 491.272 -5.99716 -0.214664 0
M  V30 5284 H 492.342 -4.81629 0.562287 0
M  V30 5285 N 493.685 -0.035106 -1.57561 0
M  V30 5286 C 494.617 0.973604 -2.07494 0
M  V30 5287 C 495.63 1.28504 -0.999534 0
M  V30 5288 O 496.819 1.24864 -1.27559 0
M  V30 5289 C 493.919 2.29945 -2.48955 0
M  V30 5290 C 493.092 2.1723 -3.79644 0
M  V30 5291 C 492.151 3.328 -4.07592 0
M  V30 5292 O 491.177 3.09418 -4.77754 0
M  V30 5293 N 492.379 4.56779 -3.58236 0
M  V30 5294 H 495.144 0.547525 -2.94656 0
M  V30 5295 H 492.705 0.151515 -1.61189 0
M  V30 5296 H 494.697 3.06097 -2.64739 0
M  V30 5297 H 493.267 2.64173 -1.67126 0
M  V30 5298 H 492.487 1.25768 -3.73599 0
M  V30 5299 H 493.775 2.05945 -4.65257 0
M  V30 5300 H 493.173 4.78668 -3.01485 0
M  V30 5301 H 491.73 5.30079 -3.79288 0
M  V30 5302 N 495.163 1.55791 0.238111 0
M  V30 5303 C 496.388 1.8244 0.986432 0
M  V30 5304 C 496.813 0.613314 1.7782 0
M  V30 5305 O 496.171 -0.437767 1.75935 0
M  V30 5306 C 496.219 3.06917 1.893 0
M  V30 5307 O 495.323 2.84449 2.98601 0
M  V30 5308 H 494.664 0.601975 0.280218 0
M  V30 5309 H 497.194 2.02987 0.256437 0
M  V30 5310 H 497.204 3.36583 2.30598 0
M  V30 5311 H 495.879 3.947 1.31091 0
M  V30 5312 H 494.456 2.65972 2.61368 0
M  V30 5313 N 496.642 -0.504142 1.49319 0
M  V30 5314 C 497.572 -1.61473 1.68667 0
M  V30 5315 C 498.553 -1.61455 0.535378 0
M  V30 5316 O 499.738 -1.78245 0.770868 0
M  V30 5317 C 496.868 -2.99971 1.75028 0
M  V30 5318 C 495.822 -3.14854 2.89916 0
M  V30 5319 C 495.148 -4.54671 2.81387 0
M  V30 5320 C 496.448 -2.95176 4.30893 0
M  V30 5321 H 498.142 -1.45535 2.61648 0
M  V30 5322 H 495.688 -0.698711 1.25913 0
M  V30 5323 H 497.641 -3.77562 1.8715 0
M  V30 5324 H 496.365 -3.1699 0.786441 0
M  V30 5325 H 495.024 -2.39687 2.77391 0
M  V30 5326 H 494.672 -4.68562 1.82917 0
M  V30 5327 H 494.372 -4.6557 3.58494 0
M  V30 5328 H 495.896 -5.34327 2.95512 0
M  V30 5329 H 497.31 -3.62538 4.44116 0
M  V30 5330 H 495.707 -3.17549 5.09198 0
M  V30 5331 H 496.777 -1.91332 4.45556 0
M  V30 5332 N 498.12 -1.38341 -0.754957 0
M  V30 5333 C 499.367 -1.34473 -1.51404 0
M  V30 5334 C 499.695 0.0656458 -1.94389 0
M  V30 5335 O 498.95 1.04244 -1.65625 0
M  V30 5336 C 499.249 -2.2452 -2.78075 0
M  V30 5337 C 498.915 -3.72512 -2.54059 0
M  V30 5338 C 497.577 -4.1284 -2.47218 0
M  V30 5339 C 499.929 -4.66197 -2.33044 0
M  V30 5340 C 497.257 -5.44945 -2.17376 0
M  V30 5341 C 499.609 -5.98558 -2.04723 0
M  V30 5342 C 498.273 -6.37972 -1.96337 0
M  V30 5343 H 497.543 -0.492072 -0.554027 0
M  V30 5344 H 500.19 -1.70687 -0.868223 0
M  V30 5345 H 498.495 -1.81357 -3.473 0
M  V30 5346 H 500.192 -2.18832 -3.36026 0
M  V30 5347 H 496.782 -3.40538 -2.60253 0
M  V30 5348 H 500.966 -4.35888 -2.37309 0
M  V30 5349 H 496.222 -5.74426 -2.09391 0
M  V30 5350 H 500.396 -6.70693 -1.87465 0
M  V30 5351 H 498.023 -7.40258 -1.72978 0
M  V30 5352 N 499.598 0.982988 -1.23187 0
M  V30 5353 C 500.875 1.69814 -0.970707 0
M  V30 5354 C 501.255 2.04811 0.511424 0
M  V30 5355 O 500.603 1.73924 1.48198 0
M  V30 5356 C 500.813 2.94143 -1.87831 0
M  V30 5357 C 502.161 3.66712 -2.14026 0
M  V30 5358 O 503.185 3.04171 -1.8536 0
M  V30 5359 O 502.044 4.79258 -2.62629 0
M  V30 5360 H 499.138 0.741659 -0.365884 0
M  V30 5361 H 501.684 1.03844 -1.34218 0
M  V30 5362 H 500.456 2.64858 -2.88038 0
M  V30 5363 H 500.079 3.6785 -1.50905 0
M  V30 5364 N 501.076 1.04316 1.18135 0
M  V30 5365 C 502.301 0.768047 1.92655 0
M  V30 5366 C 502.726 -0.66904 1.758 0
M  V30 5367 O 502.084 -1.46372 1.06981 0
M  V30 5368 C 502.132 1.14239 3.42026 0
M  V30 5369 O 501.236 0.269333 4.1152 0
M  V30 5370 H 500.577 0.282436 0.600937 0
M  V30 5371 H 503.107 1.39367 1.49793 0
M  V30 5372 H 503.117 1.10538 3.92741 0
M  V30 5373 H 501.792 2.18928 3.53615 0
M  V30 5374 H 500.369 0.366175 3.71098 0
M  V30 5375 N 502.554 -1.34406 0.822964 0
M  V30 5376 C 503.965 -1.8069 0.469879 0
M  V30 5377 C 504.316 -1.68223 -1.00972 0
M  V30 5378 O 503.441 -1.22226 -1.78577 0
M  V30 5379 C 504.036 -3.28064 0.846118 0
M  V30 5380 C 502.595 -3.72428 0.545402 0
M  V30 5381 C 501.742 -2.56116 1.06301 0
M  V30 5382 H 504.693 -1.22153 1.01313 0
M  V30 5383 H 504.714 -3.80205 0.149922 0
M  V30 5384 H 504.226 -3.37107 1.92304 0
M  V30 5385 H 502.327 -3.68924 -0.522109 0
M  V30 5386 H 502.44 -4.66548 1.0895 0
M  V30 5387 H 500.804 -2.50048 0.484554 0
M  V30 5388 H 501.587 -2.67928 2.14638 0
M  V30 5389 N 504.032 -0.577932 -1.46621 0
M  V30 5390 C 505.309 0.00495287 -1.95599 0
M  V30 5391 C 505.689 1.46428 -1.5206 0
M  V30 5392 O 505.037 2.1517 -0.769046 0
M  V30 5393 C 505.247 -0.162114 -3.48623 0
M  V30 5394 C 506.595 -0.0274623 -4.24591 0
M  V30 5395 O 507.619 -0.0907067 -3.56084 0
M  V30 5396 O 506.478 0.1122 -5.46385 0
M  V30 5397 H 503.572 0.0525057 -0.825332 0
M  V30 5398 H 506.118 -0.645914 -1.56927 0
M  V30 5399 H 504.89 -1.17679 -3.73185 0
M  V30 5400 H 504.513 0.525407 -3.94113 0
M  V30 5401 N 505.51 1.54411 -0.315457 0
M  V30 5402 C 506.757 2.00419 0.289543 0
M  V30 5403 C 507.085 1.20373 1.52776 0
M  V30 5404 O 506.34 0.271769 1.93804 0
M  V30 5405 C 506.639 3.50936 0.676652 0
M  V30 5406 C 506.305 4.48532 -0.461472 0
M  V30 5407 C 504.967 4.74936 -0.773879 0
M  V30 5408 C 507.319 5.06567 -1.22637 0
M  V30 5409 C 504.647 5.56634 -1.85405 0
M  V30 5410 C 506.999 5.89441 -2.29657 0
M  V30 5411 C 505.663 6.1415 -2.61488 0
M  V30 5412 H 504.933 0.733386 0.105951 0
M  V30 5413 H 507.58 1.86434 -0.437554 0
M  V30 5414 H 505.885 3.62606 1.48405 0
M  V30 5415 H 507.582 3.83971 1.15618 0
M  V30 5416 H 504.172 4.28096 -0.207893 0
M  V30 5417 H 508.356 4.86157 -0.998271 0
M  V30 5418 H 503.612 5.74012 -2.10523 0
M  V30 5419 H 507.786 6.33432 -2.89374 0
M  V30 5420 H 505.413 6.77245 -3.45317 0
M  V30 5421 N 506.988 0.0434614 1.5754 0
M  V30 5422 C 508.213 -0.645358 1.97104 0
M  V30 5423 C 508.638 -1.64037 0.920521 0
M  V30 5424 O 507.996 -1.80922 -0.11708 0
M  V30 5425 C 508.044 -1.31547 3.35749 0
M  V30 5426 O 507.148 -2.43103 3.33129 0
M  V30 5427 H 506.489 -0.168403 0.64229 0
M  V30 5428 H 509.019 0.109573 2.04306 0
M  V30 5429 H 509.029 -1.66895 3.72304 0
M  V30 5430 H 507.704 -0.586205 4.11748 0
M  V30 5431 H 506.281 -2.0976 3.0831 0
M  V30 5432 N 508.466 -1.55915 -0.229846 0
M  V30 5433 C 509.413 -1.91734 -1.28478 0
M  V30 5434 C 510.383 -0.773539 -1.46988 0
M  V30 5435 O 511.568 -1.02871 -1.60693 0
M  V30 5436 C 508.708 -2.23224 -2.63182 0
M  V30 5437 C 507.821 -3.50497 -2.52539 0
M  V30 5438 C 506.956 -3.71474 -3.79711 0
M  V30 5439 C 505.995 -4.92289 -3.63755 0
M  V30 5440 N 505.132 -5.09698 -4.82858 0
M  V30 5441 H 509.972 -2.81692 -0.972308 0
M  V30 5442 H 507.509 -1.39429 -0.468815 0
M  V30 5443 H 509.467 -2.3949 -3.41614 0
M  V30 5444 H 508.097 -1.36451 -2.92542 0
M  V30 5445 H 507.149 -3.4247 -1.65585 0
M  V30 5446 H 508.461 -4.39079 -2.36666 0
M  V30 5447 H 507.615 -3.87791 -4.66586 0
M  V30 5448 H 506.354 -2.81157 -3.985 0
M  V30 5449 H 505.359 -4.7593 -2.75264 0
M  V30 5450 H 506.584 -5.84083 -3.46445 0
M  V30 5451 H 504.53 -4.22322 -5.01976 0
M  V30 5452 H 504.447 -5.92399 -4.69681 0
M  V30 5453 H 505.715 -5.30443 -5.71183 0
M  V30 5454 N 509.944 0.496216 -1.49584 0
M  V30 5455 C 511.193 1.24668 -1.58558 0
M  V30 5456 C 511.506 1.9359 -0.279703 0
M  V30 5457 O 512.712 2.70365 -0.248048 0
M  V30 5458 C 511.168 2.26388 -2.79779 0
M  V30 5459 C 510.776 1.63384 -4.17145 0
M  V30 5460 C 512.52 3.02233 -2.98086 0
M  V30 5461 C 510.427 2.63243 -5.29582 0
M  V30 5462 H 509.357 0.468995 -0.590389 0
M  V30 5463 H 512.008 0.519985 -1.75978 0
M  V30 5464 H 510.39 3.02241 -2.55863 0
M  V30 5465 H 511.564 0.93491 -4.51216 0
M  V30 5466 H 509.879 0.999121 -4.04236 0
M  V30 5467 H 512.476 3.76919 -3.79257 0
M  V30 5468 H 512.819 3.60132 -2.08831 0
M  V30 5469 H 513.352 2.33495 -3.22063 0
M  V30 5470 H 510.091 2.10119 -6.20911 0
M  V30 5471 H 509.611 3.31363 -4.99959 0
M  V30 5472 H 511.29 3.25575 -5.59115 0
M  V30 5473 N 511.423 1.38739 0.74761 0
M  V30 5474 C 512.651 1.38521 1.53686 0
M  V30 5475 C 513.066 -0.0235129 1.88785 0
M  V30 5476 O 512.423 -0.991662 1.53207 0
M  V30 5477 C 512.474 2.24641 2.83229 0
M  V30 5478 O 512.195 3.60026 2.49625 0
M  V30 5479 C 513.696 2.32669 3.77333 0
M  V30 5480 H 510.916 0.473589 0.475347 0
M  V30 5481 H 513.46 1.82395 0.924786 0
M  V30 5482 H 511.615 1.84213 3.40799 0
M  V30 5483 H 512.029 4.05435 3.3275 0
M  V30 5484 H 513.503 2.97201 4.65162 0
M  V30 5485 H 513.98 1.3421 4.18192 0
M  V30 5486 H 514.586 2.73512 3.25685 0
M  V30 5487 N 512.901 -0.976442 1.23707 0
M  V30 5488 C 514.149 -1.71487 1.06942 0
M  V30 5489 C 514.47 -1.9098 -0.393897 0
M  V30 5490 O 513.74 -1.48128 -1.28198 0
M  V30 5491 H 512.32 -0.635425 0.392739 0
M  V30 5492 H 514.982 -1.17515 1.55487 0
M  V30 5493 H 514.078 -2.70286 1.56051 0
M  V30 5494 N 514.379 -1.04941 -1.1758 0
M  V30 5495 C 515.326 -0.648155 -2.21512 0
M  V30 5496 C 516.296 0.348431 -1.62404 0
M  V30 5497 O 517.481 0.240419 -1.89279 0
M  V30 5498 C 514.621 -0.0264291 -3.4509 0
M  V30 5499 C 513.734 -1.07154 -4.185 0
M  V30 5500 C 512.869 -0.417403 -5.29558 0
M  V30 5501 C 511.908 -1.447 -5.94751 0
M  V30 5502 N 511.045 -0.817203 -6.97328 0
M  V30 5503 H 515.885 -1.53891 -2.55189 0
M  V30 5504 H 513.422 -0.769699 -1.25356 0
M  V30 5505 H 515.38 0.351456 -4.15717 0
M  V30 5506 H 514.01 0.827802 -3.12005 0
M  V30 5507 H 513.062 -1.56728 -3.46613 0
M  V30 5508 H 514.374 -1.8532 -4.63096 0
M  V30 5509 H 513.528 0.0142061 -6.06698 0
M  V30 5510 H 512.267 0.396265 -4.86087 0
M  V30 5511 H 511.272 -1.88865 -5.16343 0
M  V30 5512 H 512.497 -2.26252 -6.40302 0
M  V30 5513 H 510.443 -0.0239995 -6.55996 0
M  V30 5514 H 510.36 -1.53644 -7.40223 0
M  V30 5515 H 511.628 -0.410283 -7.7842 0
M  V30 5516 N 515.857 1.33968 -0.830081 0
M  V30 5517 C 517.268 1.80439 -0.479455 0
M  V30 5518 C 517.619 1.68756 1.00079 0
M  V30 5519 O 516.744 1.23171 1.77927 0
M  V30 5520 C 517.339 3.27611 -0.863505 0
M  V30 5521 C 515.898 3.72133 -0.565145 0
M  V30 5522 C 515.045 2.55549 -1.07657 0
M  V30 5523 H 517.996 1.21614 -1.0196 0
M  V30 5524 H 518.017 3.8012 -0.170083 0
M  V30 5525 H 517.529 3.36082 -1.94089 0
M  V30 5526 H 515.63 3.69196 0.502536 0
M  V30 5527 H 515.743 4.65963 -1.11422 0
M  V30 5528 H 514.107 2.49788 -0.497807 0
M  V30 5529 H 514.89 2.66786 -2.16055 0
M  V30 5530 N 517.335 0.585699 1.46312 0
M  V30 5531 C 518.584 0.0701192 2.01578 0
M  V30 5532 C 518.897 -1.29889 1.46247 0
M  V30 5533 O 520.103 -1.90598 1.93351 0
M  V30 5534 C 518.559 0.0747499 3.59822 0
M  V30 5535 C 518.167 1.44226 4.24149 0
M  V30 5536 C 519.911 -0.38673 4.22735 0
M  V30 5537 C 517.818 1.40446 5.74481 0
M  V30 5538 H 516.748 0.0224441 0.753666 0
M  V30 5539 H 519.399 0.737789 1.68015 0
M  V30 5540 H 517.781 -0.659144 3.90476 0
M  V30 5541 H 518.955 2.19612 4.05101 0
M  V30 5542 H 517.27 1.84401 3.73343 0
M  V30 5543 H 519.867 -0.433853 5.32937 0
M  V30 5544 H 520.21 -1.40489 3.91878 0
M  V30 5545 H 520.743 0.293195 3.96718 0
M  V30 5546 H 517.482 2.39952 6.10003 0
M  V30 5547 H 517.002 0.692845 5.95785 0
M  V30 5548 H 518.681 1.11865 6.37256 0
M  V30 5549 N 518.813 -1.54241 0.323641 0
M  V30 5550 C 519.76 -2.24339 -0.542277 0
M  V30 5551 C 520.73 -1.23421 -1.11159 0
M  V30 5552 O 521.915 -1.52104 -1.15192 0
M  V30 5553 C 519.055 -3.00479 -1.69725 0
M  V30 5554 C 518.168 -4.16214 -1.15716 0
M  V30 5555 C 517.303 -4.79884 -2.27783 0
M  V30 5556 C 516.342 -5.87722 -1.71023 0
M  V30 5557 N 515.479 -6.45254 -2.76752 0
M  V30 5558 H 520.319 -2.97935 0.0620613 0
M  V30 5559 H 517.856 -1.47039 0.0423993 0
M  V30 5560 H 519.814 -3.42869 -2.3769 0
M  V30 5561 H 518.444 -2.29217 -2.27288 0
M  V30 5562 H 517.496 -3.78605 -0.369063 0
M  V30 5563 H 518.808 -4.93838 -0.701832 0
M  V30 5564 H 517.962 -5.25243 -3.03651 0
M  V30 5565 H 516.701 -4.01641 -2.76652 0
M  V30 5566 H 515.706 -5.41765 -0.936518 0
M  V30 5567 H 516.931 -6.67863 -1.2303 0
M  V30 5568 H 514.877 -5.69884 -3.24912 0
M  V30 5569 H 514.794 -7.18292 -2.35782 0
M  V30 5570 H 516.062 -6.95269 -3.5245 0
M  V30 5571 N 520.291 -0.0518155 -1.57515 0
M  V30 5572 C 521.221 0.920283 -2.146 0
M  V30 5573 C 522.202 1.32406 -1.06783 0
M  V30 5574 O 523.387 1.39866 -1.34726 0
M  V30 5575 C 520.517 2.1949 -2.6915 0
M  V30 5576 C 519.471 1.93116 -3.81956 0
M  V30 5577 C 518.797 3.27037 -4.23026 0
M  V30 5578 C 520.097 1.25225 -5.07066 0
M  V30 5579 H 521.791 0.444801 -2.96077 0
M  V30 5580 H 519.337 0.212508 -1.42423 0
M  V30 5581 H 521.29 2.87894 -3.07725 0
M  V30 5582 H 520.014 2.69244 -1.84865 0
M  V30 5583 H 518.673 1.27123 -3.43854 0
M  V30 5584 H 518.321 3.74595 -3.3569 0
M  V30 5585 H 518.021 3.10189 -4.99056 0
M  V30 5586 H 519.545 3.96673 -4.64202 0
M  V30 5587 H 520.959 1.83666 -5.43083 0
M  V30 5588 H 519.356 1.18702 -5.88243 0
M  V30 5589 H 520.426 0.228382 -4.84362 0
M  V30 5590 N 521.769 1.56035 0.221574 0
M  V30 5591 C 522.997 1.8313 0.962864 0
M  V30 5592 C 523.412 0.630934 1.77946 0
M  V30 5593 O 522.769 -0.400519 1.78051 0
M  V30 5594 C 522.82 3.08742 1.88045 0
M  V30 5595 O 522.541 4.24147 1.09686 0
M  V30 5596 C 524.042 3.48824 2.73563 0
M  V30 5597 H 521.262 0.608775 0.282194 0
M  V30 5598 H 523.806 2.03124 0.23681 0
M  V30 5599 H 521.961 2.90723 2.56045 0
M  V30 5600 H 522.375 4.95505 1.71974 0
M  V30 5601 H 523.849 4.39752 3.3365 0
M  V30 5602 H 524.326 2.70575 3.45956 0
M  V30 5603 H 524.932 3.69282 2.10976 0
M  V30 5604 N 523.247 -0.488276 1.49845 0
M  V30 5605 C 524.179 -1.60539 1.63584 0
M  V30 5606 C 525.192 -1.5434 0.517972 0
M  V30 5607 O 526.381 -1.60041 0.790516 0
M  V30 5608 C 523.481 -2.99374 1.58835 0
M  V30 5609 C 522.654 -3.30624 2.86368 0
M  V30 5610 C 521.713 -4.4893 2.74496 0
M  V30 5611 O 520.739 -4.50085 3.48443 0
M  V30 5612 N 521.941 -5.49591 1.86894 0
M  V30 5613 H 524.706 -1.49176 2.59936 0
M  V30 5614 H 522.267 -0.67639 1.47094 0
M  V30 5615 H 524.259 -3.76459 1.48529 0
M  V30 5616 H 522.829 -3.04595 0.702892 0
M  V30 5617 H 522.049 -2.42314 3.1093 0
M  V30 5618 H 523.337 -3.48305 3.70892 0
M  V30 5619 H 522.735 -5.51467 1.26097 0
M  V30 5620 H 521.292 -6.25728 1.82503 0
M  V30 5621 N 524.725 -1.39134 -0.740242 0
M  V30 5622 C 525.971 -1.36273 -1.50192 0
M  V30 5623 C 526.304 0.0430136 -1.94152 0
M  V30 5624 O 525.579 1.00691 -1.66408 0
M  V30 5625 C 525.862 -2.33041 -2.74525 0
M  V30 5626 C 525.715 -3.82535 -2.36617 0
M  V30 5627 C 527.034 -2.27723 -3.76604 0
M  V30 5628 H 524.153 -0.496323 -0.544823 0
M  V30 5629 H 526.795 -1.70085 -0.846815 0
M  V30 5630 H 524.945 -2.04337 -3.30422 0
M  V30 5631 H 526.617 -4.21967 -1.86391 0
M  V30 5632 H 524.86 -3.99565 -1.68909 0
M  V30 5633 H 525.531 -4.45723 -3.2563 0
M  V30 5634 H 528.007 -2.53091 -3.30279 0
M  V30 5635 H 526.883 -2.97519 -4.61274 0
M  V30 5636 H 527.144 -1.28049 -4.2315 0
M  V30 5637 N 526.204 0.969867 -1.24223 0
M  V30 5638 C 527.114 2.09806 -1.0497 0
M  V30 5639 C 528.13 1.73998 0.00886455 0
M  V30 5640 O 529.306 2.00513 -0.188848 0
M  V30 5641 C 526.371 3.40467 -0.654452 0
M  V30 5642 C 525.432 3.90236 -1.78926 0
M  V30 5643 C 524.665 5.14662 -1.41277 0
M  V30 5644 O 524.888 5.69602 -0.301632 0
M  V30 5645 O 523.822 5.58761 -2.23763 0
M  V30 5646 H 527.648 2.28942 -1.99548 0
M  V30 5647 H 525.233 1.08197 -1.03023 0
M  V30 5648 H 527.115 4.19039 -0.445452 0
M  V30 5649 H 525.79 3.22636 0.262216 0
M  V30 5650 H 524.697 3.12735 -2.05299 0
M  V30 5651 H 526.03 4.1254 -2.68462 0
M  V30 5652 N 527.682 1.05563 1.17022 0
M  V30 5653 C 528.632 0.630007 2.19123 0
M  V30 5654 C 529.616 -0.335472 1.57364 0
M  V30 5655 O 530.808 -0.1521 1.76345 0
M  V30 5656 C 527.937 0.0101676 3.43298 0
M  V30 5657 C 527.023 0.999698 4.12149 0
M  V30 5658 N 527.414 2.17251 4.56766 0
M  V30 5659 C 525.712 0.829 4.38228 0
M  V30 5660 C 526.413 2.79883 5.09942 0
M  V30 5661 N 525.389 2.07656 5.02374 0
M  V30 5662 H 529.191 1.52353 2.51328 0
M  V30 5663 H 526.705 0.926288 1.33393 0
M  V30 5664 H 528.702 -0.312541 4.15727 0
M  V30 5665 H 527.362 -0.878707 3.12584 0
M  V30 5666 H 528.373 2.55067 4.50734 0
M  V30 5667 H 525.05 -0.00850974 4.17499 0
M  V30 5668 H 526.44 3.79362 5.54558 0
M  V30 5669 N 529.16 -1.33526 0.837174 0
M  V30 5670 C 530.576 -1.50727 0.524743 0
M  V30 5671 C 530.776 -1.77792 -0.948279 0
M  V30 5672 O 529.832 -1.83719 -1.73216 0
M  V30 5673 C 531.145 -2.66299 1.39661 0
M  V30 5674 C 532.693 -2.80183 1.39521 0
M  V30 5675 C 533.168 -3.98815 2.25189 0
M  V30 5676 N 534.659 -4.06047 2.2289 0
M  V30 5677 C 535.394 -4.97032 2.85915 0
M  V30 5678 N 534.89 -5.93143 3.57985 0
M  V30 5679 N 536.683 -4.90015 2.75394 0
M  V30 5680 H 528.834 -1.1422 1.79074 0
M  V30 5681 H 531.097 -0.561399 0.763894 0
M  V30 5682 H 530.803 -2.52974 2.4433 0
M  V30 5683 H 530.677 -3.61663 1.07145 0
M  V30 5684 H 533.064 -2.92942 0.356253 0
M  V30 5685 H 533.145 -1.85586 1.76044 0
M  V30 5686 H 532.789 -3.86817 3.29143 0
M  V30 5687 H 532.719 -4.92654 1.86009 0
M  V30 5688 H 535.21 -3.37262 1.70478 0
M  V30 5689 H 535.523 -6.59227 4.03286 0
M  V30 5690 H 533.868 -5.93223 3.62093 0
M  V30 5691 H 537.059 -4.13894 2.18654 0
M  V30 5692 H 537.232 -5.60724 3.24796 0
M  V30 5693 N 530.638 -0.59345 -1.46 0
M  V30 5694 C 531.601 0.123538 -2.28867 0
M  V30 5695 C 532.601 0.808628 -1.38989 0
M  V30 5696 O 533.791 0.658945 -1.61256 0
M  V30 5697 C 530.923 1.1847 -3.19653 0
M  V30 5698 H 532.116 -0.604843 -2.93737 0
M  V30 5699 H 529.669 -0.351875 -1.52288 0
M  V30 5700 H 530.404 1.94431 -2.59552 0
M  V30 5701 H 530.189 0.69783 -3.8584 0
M  V30 5702 H 531.679 1.68726 -3.81997 0
M  V30 5703 N 532.116 1.54067 -0.331816 0
M  V30 5704 C 533.364 2.00319 0.267739 0
M  V30 5705 C 533.685 1.22148 1.52003 0
M  V30 5706 O 532.955 0.325494 1.93177 0
M  V30 5707 H 531.535 0.740014 0.101922 0
M  V30 5708 H 534.197 1.89628 -0.450267 0
M  V30 5709 H 533.293 3.07765 0.518385 0
M  V30 5710 N 533.594 0.0601682 1.57485 0
M  V30 5711 C 534.841 -0.611594 1.93043 0
M  V30 5712 C 535.169 -1.70317 0.939274 0
M  V30 5713 O 534.424 -1.95644 -0.046996 0
M  V30 5714 C 534.723 -1.23831 3.35262 0
M  V30 5715 C 534.389 -0.274037 4.50066 0
M  V30 5716 C 533.051 -0.00872394 4.81199 0
M  V30 5717 C 535.403 0.386308 5.19766 0
M  V30 5718 C 532.731 0.924218 5.79375 0
M  V30 5719 C 535.083 1.3075 6.1894 0
M  V30 5720 C 533.747 1.58139 6.48497 0
M  V30 5721 H 533.017 -0.223798 0.706396 0
M  V30 5722 H 535.664 0.128566 1.91068 0
M  V30 5723 H 533.969 -2.05394 3.33647 0
M  V30 5724 H 535.666 -1.76517 3.60059 0
M  V30 5725 H 532.256 -0.491008 4.25778 0
M  V30 5726 H 536.44 0.194436 4.95919 0
M  V30 5727 H 531.696 1.1438 6.00606 0
M  V30 5728 H 535.87 1.82519 6.72056 0
M  V30 5729 H 533.497 2.30593 7.24383 0
M  V30 5730 N 535.072 -1.5615 -0.213296 0
M  V30 5731 C 535.982 -1.96265 -1.28519 0
M  V30 5732 C 536.998 -0.86765 -1.50824 0
M  V30 5733 O 538.174 -1.17191 -1.63793 0
M  V30 5734 C 535.239 -2.27836 -2.61327 0
M  V30 5735 C 534.3 -3.50949 -2.47252 0
M  V30 5736 C 533.533 -3.81004 -3.73727 0
M  V30 5737 O 533.756 -3.12612 -4.77106 0
M  V30 5738 O 532.69 -4.74477 -3.70344 0
M  V30 5739 H 536.516 -2.87631 -0.974795 0
M  V30 5740 H 534.101 -1.43467 -0.416832 0
M  V30 5741 H 535.983 -2.49299 -3.39747 0
M  V30 5742 H 534.658 -1.39643 -2.9203 0
M  V30 5743 H 533.565 -3.34754 -1.67004 0
M  V30 5744 H 534.898 -4.39551 -2.21486 0
M  V30 5745 N 536.55 0.480323 -1.50102 0
M  V30 5746 C 537.796 1.23208 -1.61837 0
M  V30 5747 C 538.151 1.89878 -0.310509 0
M  V30 5748 O 537.444 1.7871 0.690897 0
M  V30 5749 C 537.638 2.30708 -2.72963 0
M  V30 5750 C 537.467 1.74583 -4.14428 0
M  V30 5751 C 536.237 1.54964 -4.80951 0
M  V30 5752 C 538.435 1.24597 -4.98979 0
M  V30 5753 N 536.417 0.939855 -6.06663 0
M  V30 5754 C 537.788 0.758834 -6.15339 0
M  V30 5755 C 539.843 1.13365 -4.84822 0
M  V30 5756 C 538.546 0.17046 -7.19098 0
M  V30 5757 C 540.572 0.559221 -5.8875 0
M  V30 5758 C 539.934 0.082415 -7.04352 0
M  V30 5759 H 536.033 0.440065 -0.646426 0
M  V30 5760 H 538.617 0.535632 -1.87187 0
M  V30 5761 H 536.788 2.9779 -2.4935 0
M  V30 5762 H 538.52 2.97738 -2.74106 0
M  V30 5763 H 535.275 1.79926 -4.38091 0
M  V30 5764 H 535.699 0.653641 -6.73837 0
M  V30 5765 H 540.341 1.48823 -3.95742 0
M  V30 5766 H 538.059 -0.196347 -8.07861 0
M  V30 5767 H 541.645 0.474804 -5.79859 0
M  V30 5768 H 540.525 -0.355119 -7.83396 0
M  V30 5769 N 538.028 1.39524 0.732853 0
M  V30 5770 C 538.976 1.38563 1.86824 0
M  V30 5771 C 539.97 0.268467 1.67259 0
M  V30 5772 O 541.176 0.438613 1.74574 0
M  V30 5773 H 537.551 0.432737 0.615014 0
M  V30 5774 H 539.522 2.34328 1.84751 0
M  V30 5775 C 538.271 1.2481 3.24527 0
M  V30 5776 H 537.594 2.10044 3.40179 0
M  V30 5777 H 539.034 1.28194 4.04156 0
M  V30 5778 C 537.493 -0.0432825 3.36872 0
M  V30 5779 O 538.023 -1.01268 3.88726 0
M  V30 5780 N 536.229 -0.107055 2.90403 0
M  V30 5781 H 535.776 0.682512 2.48394 0
M  V30 5782 H 535.734 -0.970618 2.99042 0
M  V30 5783 N 539.506 -0.963266 1.24736 0
M  V30 5784 C 540.416 -2.09246 1.06082 0
M  V30 5785 C 541.432 -1.74 0.000363101 0
M  V30 5786 O 542.608 -2.0041 0.199479 0
M  V30 5787 C 539.673 -3.40115 0.672498 0
M  V30 5788 C 538.734 -3.89282 1.80993 0
M  V30 5789 C 537.967 -5.13905 1.44004 0
M  V30 5790 O 538.19 -5.69434 0.331835 0
M  V30 5791 O 537.124 -5.57566 2.26723 0
M  V30 5792 H 540.95 -2.27881 2.00759 0
M  V30 5793 H 538.535 -1.07649 1.03595 0
M  V30 5794 H 540.417 -4.18797 0.467668 0
M  V30 5795 H 539.092 -3.22771 -0.245102 0
M  V30 5796 H 537.999 -3.11642 2.06955 0
M  V30 5797 H 539.332 -4.1111 2.70646 0
M  V30 5798 N 540.985 -1.06182 -1.16461 0
M  V30 5799 C 542.262 -0.691364 -1.82974 0
M  V30 5800 C 542.642 0.827377 -1.9421 0
M  V30 5801 O 541.99 1.73723 -1.48434 0
M  V30 5802 C 542.2 -1.39199 -3.20038 0
M  V30 5803 C 543.548 -1.53647 -3.95825 0
M  V30 5804 O 544.572 -1.35181 -3.29552 0
M  V30 5805 O 543.431 -1.83932 -5.14618 0
M  V30 5806 H 540.525 -0.244605 -0.789998 0
M  V30 5807 H 543.071 -1.16203 -1.23673 0
M  V30 5808 H 541.843 -2.42766 -3.06888 0
M  V30 5809 H 541.466 -0.911335 -3.87015 0
M  V30 5810 N 542.463 1.3308 -0.844243 0
M  V30 5811 C 543.711 1.97215 -0.441676 0
M  V30 5812 C 544.032 1.67185 1.0037 0
M  V30 5813 O 543.302 0.973588 1.69994 0
M  V30 5814 H 541.882 0.72959 -0.160335 0
M  V30 5815 H 544.544 1.62348 -1.07838 0
M  V30 5816 H 543.64 3.06698 -0.57815 0
M  V30 5817 N 543.941 0.601185 1.45683 0
M  V30 5818 C 544.904 -0.111398 2.28929 0
M  V30 5819 C 545.904 -0.801246 1.39416 0
M  V30 5820 O 547.094 -0.650383 1.61603 0
M  V30 5821 C 544.226 -1.16773 3.20276 0
M  V30 5822 H 545.419 0.620412 2.93413 0
M  V30 5823 H 542.972 0.359946 1.52099 0
M  V30 5824 H 543.707 -1.93051 2.60579 0
M  V30 5825 H 543.492 -0.677358 3.86205 0
M  V30 5826 H 544.982 -1.66698 3.82886 0
M  V30 5827 N 545.419 -1.53889 0.339982 0
M  V30 5828 C 546.667 -2.00458 -0.257112 0
M  V30 5829 C 546.988 -1.22953 -1.51353 0
M  V30 5830 O 546.258 -0.335734 -1.93002 0
M  V30 5831 H 544.838 -0.740544 -0.0979965 0
M  V30 5832 H 547.5 -1.89386 0.460317 0
M  V30 5833 H 546.596 -3.08035 -0.502057 0
M  V30 5834 N 546.897 -0.0685191 -1.57451 0
M  V30 5835 C 548.125 0.610462 -1.97689 0
M  V30 5836 C 548.54 1.63346 -0.946758 0
M  V30 5837 O 547.897 1.82377 0.0669868 0
M  V30 5838 C 547.948 1.28196 -3.38006 0
M  V30 5839 O 547.669 0.299906 -4.37072 0
M  V30 5840 C 549.17 2.04907 -3.931 0
M  V30 5841 H 546.39 0.165689 -0.650222 0
M  V30 5842 H 548.934 -0.139953 -2.04021 0
M  V30 5843 H 547.089 1.98348 -3.32771 0
M  V30 5844 H 547.503 0.78126 -5.18649 0
M  V30 5845 H 548.977 2.47287 -4.93511 0
M  V30 5846 H 549.454 2.9043 -3.29465 0
M  V30 5847 H 550.06 1.39629 -4.01726 0
M  V30 5848 N 548.375 1.56261 0.205012 0
M  V30 5849 C 549.603 1.84141 0.943386 0
M  V30 5850 C 550.018 0.649772 1.77266 0
M  V30 5851 O 549.375 -0.381612 1.78466 0
M  V30 5852 C 549.426 3.10719 1.84759 0
M  V30 5853 O 549.147 4.25286 1.05181 0
M  V30 5854 C 550.648 3.51706 2.69848 0
M  V30 5855 H 547.868 0.611734 0.275721 0
M  V30 5856 H 550.412 2.03364 0.215253 0
M  V30 5857 H 548.567 2.93422 2.52947 0
M  V30 5858 H 548.981 4.97301 1.66709 0
M  V30 5859 H 550.455 4.43266 3.28967 0
M  V30 5860 H 550.932 2.7423 3.43067 0
M  V30 5861 H 551.538 3.71499 2.07047 0
M  V30 5862 N 549.853 -0.472356 1.50355 0
M  V30 5863 C 551.264 -1.05326 1.54154 0
M  V30 5864 C 551.615 -1.93155 0.344303 0
M  V30 5865 O 550.74 -2.09479 -0.542928 0
M  V30 5866 C 551.335 -1.91691 2.79356 0
M  V30 5867 C 549.894 -2.44892 2.8584 0
M  V30 5868 C 549.041 -1.23205 2.48426 0
M  V30 5869 H 551.992 -0.255027 1.56637 0
M  V30 5870 H 552.013 -2.76742 2.6114 0
M  V30 5871 H 551.525 -1.27741 3.66475 0
M  V30 5872 H 549.626 -3.12399 2.0307 0
M  V30 5873 H 549.739 -2.80086 3.88701 0
M  V30 5874 H 548.103 -1.56643 2.00836 0
M  V30 5875 H 548.886 -0.609194 3.37852 0
M  V30 5876 N 551.331 -1.39911 -0.725443 0
M  V30 5877 C 552.556 -1.41137 -1.5197 0
M  V30 5878 C 552.981 -0.010262 -1.88097 0
M  V30 5879 O 552.339 0.979184 -1.52583 0
M  V30 5880 C 552.387 -2.2994 -2.77777 0
M  V30 5881 O 551.491 -1.73586 -3.74088 0
M  V30 5882 H 550.832 -0.480219 -0.458569 0
M  V30 5883 H 553.362 -1.84023 -0.894249 0
M  V30 5884 H 553.372 -2.44785 -3.26411 0
M  V30 5885 H 552.047 -3.31759 -2.50816 0
M  V30 5886 H 550.624 -1.68035 -3.32894 0
M  V30 5887 N 552.809 0.956637 -1.25245 0
M  V30 5888 C 554.22 1.51569 -1.09012 0
M  V30 5889 C 554.571 1.93322 0.334813 0
M  V30 5890 O 553.696 1.78421 1.22454 0
M  V30 5891 C 554.291 2.75444 -1.97271 0
M  V30 5892 C 552.85 3.27669 -1.8523 0
M  V30 5893 C 551.997 2.00517 -1.91542 0
M  V30 5894 H 554.948 0.773746 -1.3856 0
M  V30 5895 H 554.969 3.4919 -1.51151 0
M  V30 5896 H 554.481 2.45024 -3.00973 0
M  V30 5897 H 552.582 3.62914 -0.844045 0
M  V30 5898 H 552.695 3.9582 -2.69932 0
M  V30 5899 H 551.059 2.15727 -1.35404 0
M  V30 5900 H 551.842 1.72448 -2.96844 0
M  V30 5901 N 554.287 1.06798 1.15896 0
M  V30 5902 C 555.535 0.786211 1.8618 0
M  V30 5903 C 555.856 -0.689547 1.82401 0
M  V30 5904 O 555.126 -1.49913 1.26107 0
M  V30 5905 H 553.706 0.287843 0.689315 0
M  V30 5906 H 556.368 1.35055 1.40521 0
M  V30 5907 H 555.464 1.1157 2.91477 0
M  V30 5908 N 555.766 -1.3263 0.851289 0
M  V30 5909 C 556.696 -2.31449 0.308771 0
M  V30 5910 C 557.677 -1.59531 -0.590255 0
M  V30 5911 O 558.862 -1.87351 -0.511205 0
M  V30 5912 C 555.992 -3.43586 -0.506548 0
M  V30 5913 C 554.946 -4.26963 0.297753 0
M  V30 5914 C 554.272 -5.30831 -0.642094 0
M  V30 5915 C 555.572 -4.99643 1.52166 0
M  V30 5916 H 557.266 -2.77074 1.13447 0
M  V30 5917 H 554.812 -1.33207 0.546971 0
M  V30 5918 H 556.765 -4.11754 -0.896474 0
M  V30 5919 H 555.489 -2.96681 -1.36558 0
M  V30 5920 H 554.148 -3.60437 0.669391 0
M  V30 5921 H 553.796 -4.8018 -1.49788 0
M  V30 5922 H 553.496 -5.87501 -0.107968 0
M  V30 5923 H 555.02 -6.01862 -1.02927 0
M  V30 5924 H 556.434 -5.6051 1.20421 0
M  V30 5925 H 554.831 -5.66022 1.99347 0
M  V30 5926 H 555.901 -4.27701 2.28474 0
M  V30 5927 N 557.244 -0.608902 -1.45362 0
M  V30 5928 C 558.176 0.147318 -2.28726 0
M  V30 5929 C 559.189 0.830468 -1.40025 0
M  V30 5930 O 560.378 0.695636 -1.64387 0
M  V30 5931 C 557.478 1.22968 -3.15804 0
M  V30 5932 C 556.651 0.633391 -4.3279 0
M  V30 5933 C 555.71 1.60682 -5.01067 0
M  V30 5934 O 554.736 1.13261 -5.57818 0
M  V30 5935 N 555.938 2.94123 -5.00472 0
M  V30 5936 H 558.703 -0.568014 -2.94268 0
M  V30 5937 H 556.264 -0.448479 -1.55564 0
M  V30 5938 H 558.256 1.88072 -3.58345 0
M  V30 5939 H 556.826 1.84752 -2.52162 0
M  V30 5940 H 556.046 -0.195762 -3.93714 0
M  V30 5941 H 557.334 0.215255 -5.08344 0
M  V30 5942 H 556.732 3.3525 -4.55657 0
M  V30 5943 H 555.289 3.54646 -5.46872 0
M  V30 5944 N 558.722 1.53707 -0.348139 0
M  V30 5945 C 560.133 1.86213 0.134797 0
M  V30 5946 C 560.484 1.26925 1.49614 0
M  V30 5947 O 559.609 0.584573 2.08355 0
M  V30 5948 C 560.204 3.37866 0.251371 0
M  V30 5949 C 558.763 3.70233 0.678543 0
M  V30 5950 C 557.91 2.76683 -0.184925 0
M  V30 5951 H 560.861 1.48204 -0.567571 0
M  V30 5952 H 560.882 3.64908 1.07806 0
M  V30 5953 H 560.394 3.80988 -0.739581 0
M  V30 5954 H 558.495 3.32659 1.67835 0
M  V30 5955 H 558.608 4.76836 0.465251 0
M  V30 5956 H 556.972 2.52374 0.343465 0
M  V30 5957 H 557.755 3.22635 -1.1731 0
M  V30 5958 N 560.2 0.0768682 1.57412 0
M  V30 5959 C 561.163 -0.873949 2.11884 0
M  V30 5960 C 562.163 -1.22301 1.04398 0
M  V30 5961 O 563.353 -1.15545 1.30365 0
M  V30 5962 C 560.485 -2.17575 2.62438 0
M  V30 5963 H 561.678 -0.401278 2.97203 0
M  V30 5964 H 559.231 -0.171904 1.55352 0
M  V30 5965 H 559.966 -2.69368 1.80587 0
M  V30 5966 H 559.751 -1.93534 3.41009 0
M  V30 5967 H 561.241 -2.85631 3.04639 0
M  V30 5968 N 561.678 -1.56367 -0.196722 0
M  V30 5969 C 562.628 -1.9082 -1.24787 0
M  V30 5970 C 563.612 -0.773719 -1.41076 0
M  V30 5971 O 564.804 -1.03655 -1.43474 0
M  V30 5972 C 561.933 -2.24982 -2.59303 0
M  V30 5973 C 561.019 -3.44882 -2.46814 0
M  V30 5974 N 561.41 -4.62835 -2.04003 0
M  V30 5975 C 559.708 -3.48988 -2.77711 0
M  V30 5976 C 560.409 -5.44993 -2.03366 0
M  V30 5977 N 559.385 -4.85356 -2.44807 0
M  V30 5978 H 563.187 -2.79516 -0.908175 0
M  V30 5979 H 560.701 -1.57265 -0.405166 0
M  V30 5980 H 562.698 -2.47848 -3.35227 0
M  V30 5981 H 561.358 -1.37611 -2.94098 0
M  V30 5982 H 562.369 -4.87532 -1.74738 0
M  V30 5983 H 559.046 -2.72029 -3.16712 0
M  V30 5984 H 560.436 -6.49464 -1.72181 0
M  V30 5985 N 563.156 0.464375 -1.50603 0
M  V30 5986 C 564.086 1.56944 -1.72889 0
M  V30 5987 C 565.067 1.59979 -0.577997 0
M  V30 5988 O 566.252 1.76138 -0.817855 0
M  V30 5989 C 563.382 2.95225 -1.8292 0
M  V30 5990 C 562.336 3.07056 -2.98162 0
M  V30 5991 C 561.662 4.47051 -2.93343 0
M  V30 5992 C 562.962 2.83648 -4.38567 0
M  V30 5993 H 564.656 1.38547 -2.65415 0
M  V30 5994 H 562.202 0.665082 -1.27721 0
M  V30 5995 H 564.155 3.72467 -1.97095 0
M  V30 5996 H 562.879 3.14793 -0.870209 0
M  V30 5997 H 561.538 2.32248 -2.83648 0
M  V30 5998 H 561.186 4.63547 -1.95276 0
M  V30 5999 H 560.886 4.55902 -3.70712 0
M  V30 6000 H 562.41 5.26304 -3.09575 0
M  V30 6001 H 563.824 3.50636 -4.53572 0
M  V30 6002 H 562.221 3.03937 -5.17438 0
M  V30 6003 H 563.291 1.79451 -4.50472 0
M  V30 6004 N 564.634 1.40294 0.718013 0
M  V30 6005 C 565.862 1.4175 1.50714 0
M  V30 6006 C 566.277 0.0165366 1.88793 0
M  V30 6007 O 565.634 -0.958942 1.55276 0
M  V30 6008 C 565.685 2.30598 2.784 0
M  V30 6009 O 565.406 3.6524 2.41932 0
M  V30 6010 C 566.907 2.4062 3.72313 0
M  V30 6011 H 564.127 0.483565 0.465194 0
M  V30 6012 H 566.671 1.84316 0.885889 0
M  V30 6013 H 564.826 1.91401 3.36815 0
M  V30 6014 H 565.24 4.12402 3.24076 0
M  V30 6015 H 566.714 3.07001 4.58753 0
M  V30 6016 H 567.191 1.4305 4.15251 0
M  V30 6017 H 567.797 2.80359 3.19811 0
M  V30 6018 N 566.112 -0.949982 1.2575 0
M  V30 6019 C 567.359 -1.69515 1.10774 0
M  V30 6020 C 567.687 -1.91316 -0.350479 0
M  V30 6021 O 566.942 -1.48515 -1.27443 0
M  V30 6022 C 567.241 -3.08039 1.81237 0
M  V30 6023 C 566.907 -3.06023 3.31151 0
M  V30 6024 C 565.569 -3.0518 3.72047 0
M  V30 6025 C 567.921 -2.98998 4.26907 0
M  V30 6026 C 565.249 -2.95067 5.07102 0
M  V30 6027 C 567.601 -2.90426 5.61992 0
M  V30 6028 C 566.265 -2.87922 6.0221 0
M  V30 6029 H 565.535 -0.6203 0.405351 0
M  V30 6030 H 568.182 -1.10953 1.56082 0
M  V30 6031 H 566.487 -3.70172 1.28373 0
M  V30 6032 H 568.184 -3.64526 1.67098 0
M  V30 6033 H 564.774 -3.07453 2.98614 0
M  V30 6034 H 568.958 -2.98764 3.963 0
M  V30 6035 H 564.214 -2.915 5.37436 0
M  V30 6036 H 568.388 -2.83952 6.35881 0
M  V30 6037 H 566.015 -2.79841 7.06819 0
M  V30 6038 N 567.59 -1.07411 -1.15328 0
M  V30 6039 C 569.001 -0.820261 -1.67716 0
M  V30 6040 C 569.352 0.654539 -1.8496 0
M  V30 6041 O 568.477 1.50664 -1.55337 0
M  V30 6042 C 569.072 -1.48242 -3.04647 0
M  V30 6043 C 567.631 -1.27606 -3.5411 0
M  V30 6044 C 566.778 -1.5517 -2.29821 0
M  V30 6045 H 569.729 -1.23608 -0.995332 0
M  V30 6046 H 569.75 -0.903984 -3.69606 0
M  V30 6047 H 569.262 -2.55578 -2.92064 0
M  V30 6048 H 567.363 -0.222948 -3.71932 0
M  V30 6049 H 567.476 -1.99667 -4.35511 0
M  V30 6050 H 565.84 -0.972747 -2.35393 0
M  V30 6051 H 566.623 -2.63689 -2.19824 0
M  V30 6052 N 569.068 1.32177 -0.85831 0
M  V30 6053 C 569.998 2.31282 -0.321041 0
M  V30 6054 C 570.979 1.59841 0.581786 0
M  V30 6055 O 572.164 1.87619 0.501262 0
M  V30 6056 C 569.294 3.4385 0.48832 0
M  V30 6057 C 568.248 4.26799 -0.320391 0
M  V30 6058 C 567.574 5.31164 0.613934 0
M  V30 6059 C 568.874 4.98829 -1.54813 0
M  V30 6060 H 570.568 2.76469 -1.14915 0
M  V30 6061 H 568.114 1.32916 -0.554028 0
M  V30 6062 H 570.067 4.12224 0.874626 0
M  V30 6063 H 568.791 2.97401 1.34983 0
M  V30 6064 H 567.45 3.60077 -0.688497 0
M  V30 6065 H 567.098 4.80967 1.47239 0
M  V30 6066 H 566.798 5.8755 0.0768097 0
M  V30 6067 H 568.322 6.024 0.997336 0
M  V30 6068 H 569.736 5.59864 -1.23392 0
M  V30 6069 H 568.133 5.64957 -2.02346 0
M  V30 6070 H 569.203 4.26483 -2.30739 0
M  V30 6071 N 570.547 0.616602 1.45037 0
M  V30 6072 C 571.824 0.0469086 1.95544 0
M  V30 6073 C 572.204 -1.42345 1.55888 0
M  V30 6074 O 571.552 -2.13055 0.825824 0
M  V30 6075 C 571.762 0.254489 3.48071 0
M  V30 6076 C 573.11 0.140025 4.24369 0
M  V30 6077 O 574.134 0.185084 3.55719 0
M  V30 6078 O 572.993 0.0327034 5.4649 0
M  V30 6079 H 570.087 -0.0306051 0.826433 0
M  V30 6080 H 572.633 0.687293 1.55159 0
M  V30 6081 H 571.405 1.27532 3.69934 0
M  V30 6082 H 571.028 -0.42073 3.95368 0
M  V30 6083 N 572.025 -1.5352 0.356285 0
M  V30 6084 C 573.255 -2.05236 -0.236983 0
M  V30 6085 C 573.663 -1.23016 -1.43749 0
M  V30 6086 O 573.006 -0.2615 -1.81829 0
M  V30 6087 C 573.068 -3.52549 -0.7035 0
M  V30 6088 C 572.732 -4.55425 0.379059 0
M  V30 6089 C 573.729 -5.0524 1.22592 0
M  V30 6090 C 571.414 -4.99425 0.536638 0
M  V30 6091 C 573.408 -5.97647 2.21578 0
M  V30 6092 C 571.095 -5.9164 1.52988 0
M  V30 6093 C 572.093 -6.4064 2.3679 0
M  V30 6094 O 571.781 -7.31039 3.34421 0
M  V30 6095 H 571.513 -0.674346 -0.047254 0
M  V30 6096 H 574.067 -1.98962 0.510238 0
M  V30 6097 H 572.297 -3.56331 -1.50217 0
M  V30 6098 H 573.986 -3.87171 -1.21873 0
M  V30 6099 H 574.752 -4.72002 1.11532 0
M  V30 6100 H 570.631 -4.60879 -0.105834 0
M  V30 6101 H 574.175 -6.35816 2.87025 0
M  V30 6102 H 570.072 -6.24293 1.64099 0
M  V30 6103 H 570.84 -7.49009 3.30041 0
M  V30 6104 N 573.503 -0.0852151 -1.57369 0
M  V30 6105 C 574.453 0.88767 -2.10011 0
M  V30 6106 C 575.437 1.25021 -1.01285 0
M  V30 6107 O 576.629 1.22694 -1.27574 0
M  V30 6108 C 573.758 2.15037 -2.67608 0
M  V30 6109 C 572.844 1.81371 -3.83361 0
M  V30 6110 N 573.235 1.18216 -4.91791 0
M  V30 6111 C 571.533 2.11041 -3.92909 0
M  V30 6112 C 572.234 1.02941 -5.72519 0
M  V30 6113 N 571.21 1.54351 -5.21226 0
M  V30 6114 H 575.012 0.395279 -2.9123 0
M  V30 6115 H 572.526 0.11829 -1.61969 0
M  V30 6116 H 574.523 2.85667 -3.03644 0
M  V30 6117 H 573.183 2.64851 -1.8784 0
M  V30 6118 H 574.194 0.850168 -5.10874 0
M  V30 6119 H 570.871 2.63138 -3.24136 0
M  V30 6120 H 572.261 0.536298 -6.69756 0
M  V30 6121 N 574.981 1.5647 0.188427 0
M  V30 6122 C 575.911 1.98101 1.23606 0
M  V30 6123 C 576.892 0.853961 1.47111 0
M  V30 6124 O 578.077 1.11879 1.58735 0
M  V30 6125 C 575.207 2.32624 2.57882 0
M  V30 6126 C 574.161 3.48129 2.48978 0
M  V30 6127 C 573.487 3.68347 3.87588 0
M  V30 6128 C 574.787 4.82112 2.00911 0
M  V30 6129 H 576.481 2.85864 0.890068 0
M  V30 6130 H 574.027 1.37532 0.426714 0
M  V30 6131 H 575.98 2.60343 3.3136 0
M  V30 6132 H 574.704 1.41751 2.94235 0
M  V30 6133 H 573.363 3.20511 1.77956 0
M  V30 6134 H 573.011 2.74793 4.21305 0
M  V30 6135 H 572.711 4.46055 3.82503 0
M  V30 6136 H 574.235 3.98449 4.62678 0
M  V30 6137 H 575.649 5.08819 2.64151 0
M  V30 6138 H 574.046 5.63337 2.06814 0
M  V30 6139 H 575.116 4.75249 0.96262 0
M  V30 6140 N 576.459 -0.456382 1.50847 0
M  V30 6141 C 577.407 -1.57318 1.71329 0
M  V30 6142 C 578.401 -1.59187 0.579287 0
M  V30 6143 O 579.607 -1.6316 0.76018 0
M  V30 6144 H 575.982 -0.5223 0.541024 0
M  V30 6145 H 577.953 -1.3721 2.64983 0
M  V30 6146 C 576.702 -2.95142 1.83811 0
M  V30 6147 H 576.025 -2.94428 2.70467 0
M  V30 6148 H 577.465 -3.72702 2.02161 0
M  V30 6149 C 575.924 -3.31636 0.593224 0
M  V30 6150 O 576.454 -4.00852 -0.260898 0
M  V30 6151 N 574.66 -2.87205 0.442902 0
M  V30 6152 H 574.207 -2.31051 1.13901 0
M  V30 6153 H 574.165 -3.11986 -0.38884 0
M  V30 6154 N 577.937 -1.40673 -0.710563 0
M  V30 6155 C 578.869 -1.37256 -1.83558 0
M  V30 6156 C 579.882 -0.277133 -1.60424 0
M  V30 6157 O 581.071 -0.537831 -1.70205 0
M  V30 6158 C 578.171 -1.1144 -3.20054 0
M  V30 6159 C 577.344 -2.32734 -3.70342 0
M  V30 6160 C 576.403 -2.03002 -4.85465 0
M  V30 6161 O 575.429 -2.75912 -4.97857 0
M  V30 6162 N 576.631 -1.01105 -5.71627 0
M  V30 6163 H 579.396 -2.34215 -1.86985 0
M  V30 6164 H 576.957 -1.35091 -0.892301 0
M  V30 6165 H 578.949 -0.895265 -3.94673 0
M  V30 6166 H 577.519 -0.231307 -3.11743 0
M  V30 6167 H 576.739 -2.70446 -2.86798 0
M  V30 6168 H 578.027 -3.13584 -4.00678 0
M  V30 6169 H 577.425 -0.407303 -5.64232 0
M  V30 6170 H 575.982 -0.85182 -6.4621 0
M  V30 6171 N 579.415 0.9433 -1.26252 0
M  V30 6172 C 580.826 1.50404 -1.10614 0
M  V30 6173 C 581.177 1.93666 0.31429 0
M  V30 6174 O 580.302 1.79709 1.20555 0
M  V30 6175 C 580.897 2.73336 -2.00182 0
M  V30 6176 C 579.456 3.25686 -1.88695 0
M  V30 6177 C 578.603 1.98474 -1.93658 0
M  V30 6178 H 581.554 0.759006 -1.39373 0
M  V30 6179 H 581.575 3.47567 -1.54847 0
M  V30 6180 H 581.087 2.41818 -3.03555 0
M  V30 6181 H 579.188 3.61998 -0.882489 0
M  V30 6182 H 579.301 3.92935 -2.74115 0
M  V30 6183 H 577.665 2.14278 -1.37684 0
M  V30 6184 H 578.448 1.6929 -2.98657 0
M  V30 6185 N 580.893 1.08022 1.14757 0
M  V30 6186 C 582.14 0.807509 1.85703 0
M  V30 6187 C 582.468 -0.666617 1.8272 0
M  V30 6188 O 581.723 -1.50562 1.25018 0
M  V30 6189 C 582.022 1.26964 3.34088 0
M  V30 6190 C 581.688 2.7509 3.57262 0
M  V30 6191 C 580.35 3.15547 3.63296 0
M  V30 6192 C 582.702 3.70667 3.66409 0
M  V30 6193 C 580.03 4.50384 3.75994 0
M  V30 6194 C 582.382 5.05274 3.80632 0
M  V30 6195 C 581.046 5.45342 3.84913 0
M  V30 6196 H 580.316 0.295488 0.679535 0
M  V30 6197 H 582.963 1.35245 1.35577 0
M  V30 6198 H 581.268 0.644216 3.86467 0
M  V30 6199 H 582.965 1.03544 3.87401 0
M  V30 6200 H 579.555 2.42775 3.53212 0
M  V30 6201 H 583.739 3.40533 3.61041 0
M  V30 6202 H 578.995 4.80886 3.77569 0
M  V30 6203 H 583.169 5.79201 3.86652 0
M  V30 6204 H 580.796 6.49823 3.94505 0
M  V30 6205 N 582.371 -1.3172 0.865308 0
M  V30 6206 C 583.62 -1.96145 0.470098 0
M  V30 6207 C 583.933 -1.69182 -0.981674 0
M  V30 6208 O 585.139 -2.27431 -1.48281 0
M  V30 6209 C 583.595 -3.51129 0.789732 0
M  V30 6210 C 583.203 -3.86938 2.25795 0
M  V30 6211 C 584.947 -4.2197 0.462765 0
M  V30 6212 C 582.854 -5.35012 2.52024 0
M  V30 6213 H 581.784 -0.734105 0.172065 0
M  V30 6214 H 584.435 -1.49959 1.05757 0
M  V30 6215 H 582.817 -3.95781 0.131571 0
M  V30 6216 H 583.991 -3.5326 2.95879 0
M  V30 6217 H 582.306 -3.29149 2.55049 0
M  V30 6218 H 584.903 -5.30904 0.636019 0
M  V30 6219 H 585.246 -4.12005 -0.59645 0
M  V30 6220 H 585.779 -3.82936 1.07727 0
M  V30 6221 H 582.518 -5.50008 3.56611 0
M  V30 6222 H 582.038 -5.70058 1.8653 0
M  V30 6223 H 583.717 -6.0222 2.36515 0
M  V30 6224 N 583.85 -0.624285 -1.44708 0
M  V30 6225 C 585.096 -0.126051 -2.02107 0
M  V30 6226 C 585.425 1.2496 -1.49048 0
M  V30 6227 O 584.68 1.84163 -0.662005 0
M  V30 6228 C 584.979 -0.0546353 -3.57358 0
M  V30 6229 C 584.644 -1.36815 -4.29642 0
M  V30 6230 C 583.307 -1.72792 -4.49106 0
M  V30 6231 C 585.659 -2.23549 -4.70824 0
M  V30 6232 C 582.986 -2.95222 -5.07012 0
M  V30 6233 C 585.339 -3.45243 -5.30085 0
M  V30 6234 C 584.003 -3.81452 -5.47769 0
M  V30 6235 H 583.273 -0.0461252 -0.739563 0
M  V30 6236 H 585.92 -0.809236 -1.73562 0
M  V30 6237 H 584.225 0.711891 -3.85278 0
M  V30 6238 H 585.922 0.347282 -3.99493 0
M  V30 6239 H 582.512 -1.07817 -4.14817 0
M  V30 6240 H 586.696 -1.9705 -4.55505 0
M  V30 6241 H 581.952 -3.23361 -5.18891 0
M  V30 6242 H 586.125 -4.12689 -5.60946 0
M  V30 6243 H 583.753 -4.76403 -5.92405 0
M  V30 6244 N 585.328 1.53329 -0.364422 0
M  V30 6245 C 586.574 2.01537 0.225969 0
M  V30 6246 C 586.907 1.25128 1.48515 0
M  V30 6247 O 586.182 0.344653 1.91422 0
M  V30 6248 C 586.465 3.56339 0.519092 0
M  V30 6249 C 586.318 4.43441 -0.753639 0
M  V30 6250 C 587.637 4.19833 1.32015 0
M  V30 6251 H 584.756 0.732573 0.0806548 0
M  V30 6252 H 587.398 1.83597 -0.489084 0
M  V30 6253 H 585.548 3.71756 1.12825 0
M  V30 6254 H 587.22 4.39823 -1.39116 0
M  V30 6255 H 585.463 4.11457 -1.37424 0
M  V30 6256 H 586.134 5.49699 -0.503517 0
M  V30 6257 H 588.61 4.08242 0.804859 0
M  V30 6258 H 587.486 5.28177 1.49399 0
M  V30 6259 H 587.747 3.75821 2.32832 0
M  V30 6260 N 586.806 0.0935595 1.57322 0
M  V30 6261 C 587.736 -0.863062 2.16964 0
M  V30 6262 C 588.717 -1.29528 1.10256 0
M  V30 6263 O 589.902 -1.36245 1.38387 0
M  V30 6264 C 587.032 -2.12276 2.74875 0
M  V30 6265 C 585.986 -1.82921 3.86942 0
M  V30 6266 C 585.312 -3.15707 4.31548 0
M  V30 6267 C 586.612 -1.11737 5.10208 0
M  V30 6268 H 588.306 -0.366145 2.97153 0
M  V30 6269 H 585.852 -0.174673 1.42937 0
M  V30 6270 H 587.805 -2.79634 3.1525 0
M  V30 6271 H 586.529 -2.64248 1.91938 0
M  V30 6272 H 585.188 -1.17961 3.47103 0
M  V30 6273 H 584.836 -3.65563 3.45504 0
M  V30 6274 H 584.536 -2.96849 5.07104 0
M  V30 6275 H 586.06 -3.84226 4.74555 0
M  V30 6276 H 587.474 -1.69203 5.47762 0
M  V30 6277 H 585.871 -1.03064 5.91183 0
M  V30 6278 H 586.941 -0.0998818 4.84797 0
M  V30 6279 N 588.284 -1.56567 -0.180126 0
M  V30 6280 C 589.7 -1.50488 -0.531559 0
M  V30 6281 C 589.9 -0.796267 -1.851 0
M  V30 6282 O 588.956 -0.352978 -2.50021 0
M  V30 6283 C 590.269 -2.95201 -0.572456 0
M  V30 6284 C 591.817 -3.05957 -0.660264 0
M  V30 6285 C 592.292 -4.5211 -0.732135 0
M  V30 6286 N 593.783 -4.56322 -0.795262 0
M  V30 6287 C 594.518 -5.66742 -0.871296 0
M  V30 6288 N 594.014 -6.86815 -0.908708 0
M  V30 6289 N 595.807 -5.54691 -0.909639 0
M  V30 6290 H 587.958 -2.01045 0.685165 0
M  V30 6291 H 590.221 -0.915536 0.245962 0
M  V30 6292 H 589.927 -3.50165 0.328208 0
M  V30 6293 H 589.801 -3.49369 -1.422 0
M  V30 6294 H 592.188 -2.51032 -1.55136 0
M  V30 6295 H 592.269 -2.54888 0.215783 0
M  V30 6296 H 591.913 -5.07664 0.154664 0
M  V30 6297 H 591.843 -5.00926 -1.6242 0
M  V30 6298 H 594.334 -3.69868 -0.77499 0
M  V30 6299 H 594.647 -7.66718 -0.967654 0
M  V30 6300 H 592.992 -6.89443 -0.877132 0
M  V30 6301 H 596.183 -4.59804 -0.877353 0
M  V30 6302 H 596.356 -6.40768 -0.965434 0
M  V30 6303 N 589.762 0.448376 -1.51087 0
M  V30 6304 C 591.039 1.20926 -1.53741 0
M  V30 6305 C 591.419 2.09025 -0.295222 0
M  V30 6306 O 590.767 2.16851 0.720283 0
M  V30 6307 C 590.977 2.02067 -2.84552 0
M  V30 6308 C 592.325 2.59486 -3.36084 0
M  V30 6309 O 593.349 2.12289 -2.86028 0
M  V30 6310 O 592.208 3.45539 -4.23397 0
M  V30 6311 H 589.302 0.549951 -0.617643 0
M  V30 6312 H 591.848 0.458344 -1.63393 0
M  V30 6313 H 590.62 1.37291 -3.66425 0
M  V30 6314 H 590.243 2.84246 -2.78011 0
M  V30 6315 N 591.24 1.41047 0.703093 0
M  V30 6316 C 592.468 1.4334 1.49202 0
M  V30 6317 C 592.883 0.0365596 1.88765 0
M  V30 6318 O 592.24 -0.942419 1.56284 0
M  V30 6319 C 592.291 2.33538 2.75939 0
M  V30 6320 O 592.012 3.67786 2.38045 0
M  V30 6321 C 593.513 2.44555 3.6974 0
M  V30 6322 H 590.733 0.488472 0.460039 0
M  V30 6323 H 593.277 1.85245 0.86629 0
M  V30 6324 H 591.432 1.94962 3.34766 0
M  V30 6325 H 591.846 4.15816 3.19683 0
M  V30 6326 H 593.32 3.11849 4.55471 0
M  V30 6327 H 593.797 1.47447 4.1371 0
M  V30 6328 H 594.403 2.83735 3.16819 0
M  V30 6329 N 592.718 -0.936591 1.26751 0
M  V30 6330 C 593.995 -1.66094 1.03306 0
M  V30 6331 C 594.375 -2.06568 -0.435058 0
M  V30 6332 O 593.723 -1.79305 -1.41641 0
M  V30 6333 C 593.933 -2.86969 1.98619 0
M  V30 6334 C 595.281 -3.58516 2.27489 0
M  V30 6335 O 596.305 -2.97082 1.96522 0
M  V30 6336 O 595.164 -4.69181 2.80235 0
M  V30 6337 H 592.258 -0.727568 0.393158 0
M  V30 6338 H 594.804 -0.987914 1.3798 0
M  V30 6339 H 593.576 -2.53985 2.9767 0
M  V30 6340 H 593.199 -3.61996 1.64454 0
M  V30 6341 N 594.196 -1.08629 -1.14182 0
M  V30 6342 C 595.424 -0.838889 -1.8913 0
M  V30 6343 C 595.839 0.609153 -1.78703 0
M  V30 6344 O 595.196 1.41876 -1.14794 0
M  V30 6345 C 595.247 -1.25477 -3.39025 0
M  V30 6346 O 594.968 -2.64601 -3.49167 0
M  V30 6347 C 596.469 -1.03856 -4.30963 0
M  V30 6348 H 593.689 -0.302377 -0.599007 0
M  V30 6349 H 596.233 -1.44615 -1.44592 0
M  V30 6350 H 594.388 -0.691571 -3.81177 0
M  V30 6351 H 594.802 -2.81922 -4.42289 0
M  V30 6352 H 596.276 -1.37892 -5.345 0
M  V30 6353 H 596.753 0.0242522 -4.39193 0
M  V30 6354 H 597.359 -1.58731 -3.94569 0
M  V30 6355 N 595.674 1.31259 -0.872281 0
M  V30 6356 C 596.922 1.96233 -0.483409 0
M  V30 6357 C 597.243 1.69276 0.968012 0
M  V30 6358 O 596.513 1.00943 1.67891 0
M  V30 6359 H 595.093 0.726025 -0.175774 0
M  V30 6360 H 597.755 1.60024 -1.11258 0
M  V30 6361 H 596.851 3.05403 -0.643075 0
M  V30 6362 N 597.152 0.631951 1.44375 0
M  V30 6363 C 598.115 -0.0628142 2.29114 0
M  V30 6364 C 599.115 -0.771494 1.41084 0
M  V30 6365 O 600.305 -0.615959 1.62947 0
M  V30 6366 C 597.437 -1.09953 3.22681 0
M  V30 6367 H 598.63 0.682509 2.92031 0
M  V30 6368 H 596.183 0.392128 1.51301 0
M  V30 6369 H 596.918 -1.87481 2.64616 0
M  V30 6370 H 596.703 -0.595286 3.87555 0
M  V30 6371 H 598.193 -1.58538 3.86336 0
M  V30 6372 N 598.631 -1.53133 0.372548 0
M  V30 6373 C 599.561 -2.28876 -0.462412 0
M  V30 6374 C 600.542 -1.31583 -1.07796 0
M  V30 6375 O 601.727 -1.60461 -1.09389 0
M  V30 6376 C 598.857 -3.08317 -1.59868 0
M  V30 6377 C 597.811 -4.13355 -1.11003 0
M  V30 6378 C 597.137 -4.8092 -2.33708 0
M  V30 6379 C 598.437 -5.21955 -0.18983 0
M  V30 6380 H 600.131 -2.9892 0.169511 0
M  V30 6381 H 597.677 -1.43761 0.0829658 0
M  V30 6382 H 599.63 -3.60055 -2.18949 0
M  V30 6383 H 598.354 -2.35976 -2.25794 0
M  V30 6384 H 597.013 -3.62573 -0.541869 0
M  V30 6385 H 596.661 -4.05144 -2.98106 0
M  V30 6386 H 596.361 -5.51904 -2.01682 0
M  V30 6387 H 597.885 -5.35455 -2.93462 0
M  V30 6388 H 599.299 -5.69153 -0.688319 0
M  V30 6389 H 597.696 -6.00087 0.0398887 0
M  V30 6390 H 598.766 -4.78811 0.766057 0
M  V30 6391 N 600.109 -0.101901 -1.5727 0
M  V30 6392 C 601.039 0.851544 -2.17419 0
M  V30 6393 C 602.02 1.28942 -1.10941 0
M  V30 6394 O 603.205 1.35509 -1.39107 0
M  V30 6395 C 600.335 2.10816 -2.75996 0
M  V30 6396 C 599.289 1.80867 -3.87906 0
M  V30 6397 C 598.615 3.13413 -4.33216 0
M  V30 6398 C 599.915 1.0903 -5.10793 0
M  V30 6399 H 601.609 0.350381 -2.97343 0
M  V30 6400 H 599.155 0.16709 -1.43027 0
M  V30 6401 H 601.108 2.77959 -3.16729 0
M  V30 6402 H 599.832 2.63227 -1.93337 0
M  V30 6403 H 598.491 1.16119 -3.47724 0
M  V30 6404 H 598.139 3.63725 -3.47438 0
M  V30 6405 H 597.839 2.94155 -5.08671 0
M  V30 6406 H 599.363 3.81704 -4.76586 0
M  V30 6407 H 600.777 1.66295 -5.48652 0
M  V30 6408 H 599.174 0.99927 -5.91722 0
M  V30 6409 H 600.244 0.0741704 -4.84843 0
M  V30 6410 N 601.587 1.56661 0.17182 0
M  V30 6411 C 602.834 1.81965 0.888529 0
M  V30 6412 C 603.162 0.6789 1.82267 0
M  V30 6413 O 602.417 -0.333875 1.92831 0
M  V30 6414 C 602.716 3.13435 1.71736 0
M  V30 6415 C 602.382 4.41159 0.932184 0
M  V30 6416 C 601.044 4.75851 0.715481 0
M  V30 6417 C 603.396 5.19803 0.381387 0
M  V30 6418 C 600.724 5.86666 -0.063126 0
M  V30 6419 C 603.076 6.31433 -0.384129 0
M  V30 6420 C 601.74 6.64692 -0.611637 0
M  V30 6421 H 601.01 0.665859 0.325136 0
M  V30 6422 H 603.657 1.90884 0.153495 0
M  V30 6423 H 601.962 2.99857 2.52177 0
M  V30 6424 H 603.659 3.30224 2.27493 0
M  V30 6425 H 600.249 4.13947 1.11112 0
M  V30 6426 H 604.433 4.93396 0.536148 0
M  V30 6427 H 599.689 6.10892 -0.249136 0
M  V30 6428 H 603.863 6.91577 -0.818185 0
M  V30 6429 H 601.49 7.50398 -1.21684 0
M  V30 6430 N 603.065 -0.440357 1.51323 0
M  V30 6431 C 604.314 -1.18697 1.63076 0
M  V30 6432 C 604.627 -1.92418 0.35136 0
M  V30 6433 O 605.833 -2.69258 0.348221 0
M  V30 6434 C 604.289 -2.15849 2.87988 0
M  V30 6435 C 603.897 -1.47789 4.22921 0
M  V30 6436 C 605.641 -2.90962 3.09098 0
M  V30 6437 C 603.548 -2.43407 5.38987 0
M  V30 6438 H 602.478 -0.44676 0.607389 0
M  V30 6439 H 605.129 -0.454313 1.77787 0
M  V30 6440 H 603.511 -2.92537 2.66905 0
M  V30 6441 H 604.685 -0.7668 4.54375 0
M  V30 6442 H 603 -0.848404 4.07665 0
M  V30 6443 H 605.597 -3.62584 3.92985 0
M  V30 6444 H 605.94 -3.52133 2.22053 0
M  V30 6445 H 606.473 -2.21381 3.30507 0
M  V30 6446 H 603.212 -1.86929 6.28282 0
M  V30 6447 H 602.732 -3.12579 5.11913 0
M  V30 6448 H 604.411 -3.046 5.70813 0
M  V30 6449 N 604.543 -1.41418 -0.695603 0
M  V30 6450 C 605.791 -1.40496 -1.45277 0
M  V30 6451 C 606.112 -0.0149538 -1.94994 0
M  V30 6452 O 605.382 0.9432 -1.71699 0
M  V30 6453 H 603.962 -0.517147 -0.539044 0
M  V30 6454 H 606.624 -1.76656 -0.823321 0
M  V30 6455 H 605.72 -2.09214 -2.31595 0
M  V30 6456 N 606.021 0.929856 -1.27246 0
M  V30 6457 C 606.968 2.03017 -1.09785 0
M  V30 6458 C 607.938 1.661 0.000456744 0
M  V30 6459 O 609.123 1.90116 -0.161462 0
M  V30 6460 C 606.263 3.36878 -0.748816 0
M  V30 6461 C 605.376 3.86763 -1.92453 0
M  V30 6462 C 604.511 5.09061 -1.51758 0
M  V30 6463 C 603.55 5.51237 -2.66091 0
M  V30 6464 N 602.687 6.64732 -2.25999 0
M  V30 6465 H 607.527 2.17285 -2.03939 0
M  V30 6466 H 605.064 1.06448 -1.01524 0
M  V30 6467 H 607.022 4.13855 -0.527283 0
M  V30 6468 H 605.652 3.22424 0.155771 0
M  V30 6469 H 604.704 3.06086 -2.25867 0
M  V30 6470 H 606.016 4.13994 -2.78227 0
M  V30 6471 H 605.17 5.93532 -1.25716 0
M  V30 6472 H 603.909 4.83602 -0.630896 0
M  V30 6473 H 602.914 4.65316 -2.92849 0
M  V30 6474 H 604.139 5.78692 -3.55377 0
M  V30 6475 H 602.085 6.40935 -1.3978 0
M  V30 6476 H 602.002 6.91607 -3.05313 0
M  V30 6477 H 603.27 7.52549 -2.03199 0
M  V30 6478 N 607.499 1.09233 1.13605 0
M  V30 6479 C 608.748 0.82205 1.84188 0
M  V30 6480 C 609.061 -0.654548 1.84323 0
M  V30 6481 O 610.267 -1.04029 2.50779 0
M  V30 6482 C 608.723 1.42066 3.30674 0
M  V30 6483 C 608.331 2.92965 3.38933 0
M  V30 6484 C 610.075 1.22924 4.06313 0
M  V30 6485 C 607.982 3.45922 4.79679 0
M  V30 6486 H 606.912 0.303854 0.690064 0
M  V30 6487 H 609.563 1.31479 1.28006 0
M  V30 6488 H 607.945 0.855613 3.86646 0
M  V30 6489 H 609.119 3.55679 2.92966 0
M  V30 6490 H 607.434 3.11118 2.76757 0
M  V30 6491 H 610.031 1.59945 5.10217 0
M  V30 6492 H 610.374 0.169726 4.15954 0
M  V30 6493 H 610.907 1.76168 3.56665 0
M  V30 6494 H 607.646 4.51484 4.75229 0
M  V30 6495 H 607.166 2.87971 5.26149 0
M  V30 6496 H 608.845 3.43009 5.48592 0
M  V30 6497 N 608.977 -1.30795 0.87923 0
M  V30 6498 C 609.907 -2.30742 0.357796 0
M  V30 6499 C 610.888 -1.60747 -0.556283 0
M  V30 6500 O 612.073 -1.88393 -0.47135 0
M  V30 6501 C 609.203 -3.44583 -0.433555 0
M  V30 6502 C 608.157 -4.26235 0.388251 0
M  V30 6503 C 607.483 -5.32073 -0.529352 0
M  V30 6504 C 608.783 -4.96303 1.62729 0
M  V30 6505 H 610.477 -2.74605 1.19299 0
M  V30 6506 H 608.023 -1.32017 0.575104 0
M  V30 6507 H 609.976 -4.13563 -0.808934 0
M  V30 6508 H 608.7 -2.99511 -1.30234 0
M  V30 6509 H 607.359 -3.58936 0.745695 0
M  V30 6510 H 607.007 -4.83249 -1.39569 0
M  V30 6511 H 606.707 -5.87598 0.0166741 0
M  V30 6512 H 608.231 -6.0391 -0.901373 0
M  V30 6513 H 609.645 -5.5783 1.32283 0
M  V30 6514 H 608.042 -5.61666 2.11309 0
M  V30 6515 H 609.112 -4.22758 2.37494 0
M  V30 6516 N 610.455 -0.639598 -1.44038 0
M  V30 6517 C 611.732 -0.078012 -1.95444 0
M  V30 6518 C 612.112 1.39847 -1.58133 0
M  V30 6519 O 611.46 2.11714 -0.859614 0
M  V30 6520 C 611.67 -0.309832 -3.47622 0
M  V30 6521 C 613.018 -0.207521 -4.24093 0
M  V30 6522 O 614.042 -0.241653 -3.55379 0
M  V30 6523 O 612.901 -0.119641 -5.46369 0
M  V30 6524 H 609.995 0.0174534 -0.826816 0
M  V30 6525 H 612.541 -0.711891 -1.54046 0
M  V30 6526 H 611.313 -1.33401 -3.67858 0
M  V30 6527 H 610.936 0.357777 -3.95987 0
M  V30 6528 N 611.933 1.52934 -0.380664 0
M  V30 6529 C 613.344 1.86457 0.0952684 0
M  V30 6530 C 613.695 1.3007 1.46889 0
M  V30 6531 O 612.82 0.628636 2.07068 0
M  V30 6532 C 613.415 3.38323 0.179648 0
M  V30 6533 C 611.974 3.71589 0.599858 0
M  V30 6534 C 611.121 2.76228 -0.243572 0
M  V30 6535 H 614.072 1.46966 -0.59888 0
M  V30 6536 H 614.093 3.67113 1.00042 0
M  V30 6537 H 613.605 3.79333 -0.820228 0
M  V30 6538 H 611.706 3.36144 1.60742 0
M  V30 6539 H 611.819 4.77715 0.364003 0
M  V30 6540 H 610.183 2.53045 0.289855 0
M  V30 6541 H 610.966 3.20074 -1.24127 0
M  V30 6542 N 613.412 0.11024 1.57214 0
M  V30 6543 C 614.828 -0.24638 1.57687 0
M  V30 6544 C 615.028 -1.67344 1.12241 0
M  V30 6545 O 614.084 -2.39298 0.805783 0
M  V30 6546 C 615.397 -0.0210288 3.00693 0
M  V30 6547 C 616.945 -0.0876077 3.12877 0
M  V30 6548 C 617.42 0.10994 4.57868 0
M  V30 6549 N 618.911 0.0556135 4.63167 0
M  V30 6550 C 619.646 0.183495 5.73106 0
M  V30 6551 N 619.142 0.367058 6.91827 0
M  V30 6552 N 620.935 0.123689 5.61964 0
M  V30 6553 H 613.086 1.04246 1.85058 0
M  V30 6554 H 615.349 0.40979 0.854854 0
M  V30 6555 H 615.055 0.965203 3.38196 0
M  V30 6556 H 614.929 -0.756748 3.69531 0
M  V30 6557 H 617.316 -1.06436 2.75237 0
M  V30 6558 H 617.397 0.67985 2.466 0
M  V30 6559 H 617.041 1.08362 4.96206 0
M  V30 6560 H 616.971 -0.677397 5.22225 0
M  V30 6561 H 619.462 -0.0831062 3.77809 0
M  V30 6562 H 619.775 0.455739 7.71455 0
M  V30 6563 H 618.12 0.40292 6.93831 0
M  V30 6564 H 621.311 -0.0186928 4.68096 0
M  V30 6565 H 621.484 0.226797 6.47603 0
M  V30 6566 N 614.89 -1.56749 -0.16351 0
M  V30 6567 C 616.138 -1.82074 -0.87713 0
M  V30 6568 C 616.459 -0.688503 -1.82441 0
M  V30 6569 O 615.729 0.291085 -1.93725 0
M  V30 6570 H 614.309 -0.671677 -0.326893 0
M  V30 6571 H 616.971 -1.9423 -0.161459 0
M  V30 6572 H 616.067 -2.76407 -1.44934 0
M  V30 6573 N 616.368 0.432326 -1.51554 0
M  V30 6574 C 617.779 1.01202 -1.56892 0
M  V30 6575 C 618.13 1.92175 -0.395394 0
M  V30 6576 O 617.255 2.10844 0.487198 0
M  V30 6577 C 617.85 1.84217 -2.8434 0
M  V30 6578 C 616.409 2.37228 -2.92233 0
M  V30 6579 C 615.556 1.16576 -2.51606 0
M  V30 6580 H 618.507 0.213407 -1.57259 0
M  V30 6581 H 618.528 2.69721 -2.68385 0
M  V30 6582 H 618.04 1.17979 -3.69733 0
M  V30 6583 H 616.141 3.06905 -2.11282 0
M  V30 6584 H 616.254 2.69682 -3.95991 0
M  V30 6585 H 614.618 1.51263 -2.04919 0
M  V30 6586 H 615.401 0.519404 -3.39348 0
M  V30 6587 O 617.885 1.50798 0.578109 0
M  V30 6588 H 618.576 1.4938 1.2331 0
M  V30 END ATOM
M  V30 BEGIN BOND
M  V30 END BOND
M  V30 END CTAB
M  END
$$$$
