drugbank_target|P36959 GMP reductase 1 (DB01972)
 OpenBabel12092119533D

  0  0  0     0  0            999 V3000
M  V30 BEGIN CTAB
M  V30 COUNTS 5235 5282 0 0 0
M  V30 BEGIN ATOM
M  V30 1 H -0.908 1.98254 -0.117106 0
M  V30 2 N 0 1.576 0 0
M  V30 3 C 0.933 2.03868 1.02534 0
M  V30 4 C 1.911 0.928543 1.3348 0
M  V30 5 O 3.095 1.19667 1.45644 0
M  V30 6 C 0.222 2.43627 2.35294 0
M  V30 7 C -0.732 3.65373 2.2001 0
M  V30 8 S 0.101 5.13292 1.52614 0
M  V30 9 C 1.257 5.56322 2.86805 0
M  V30 10 H 1.49 2.90518 0.631377 0
M  V30 11 H -0.977 1.52953 0.210867 0
M  V30 12 H 0.981 2.67203 3.11629 0
M  V30 13 H -0.358 1.57376 2.7183 0
M  V30 14 H -1.165 3.90944 3.18086 0
M  V30 15 H -1.563 3.418 1.51819 0
M  V30 16 H 0.729 5.58782 3.83104 0
M  V30 17 H 1.672 6.56266 2.65933 0
M  V30 18 H 2.08 4.83886 2.90714 0
M  V30 19 N 1.4781 -0.272755 1.55222 0
M  V30 20 C 2.8891 -0.84378 1.66545 0
M  V30 21 C 3.2401 -1.87035 0.592641 0
M  V30 22 O 2.3651 -2.14761 -0.265818 0
M  V30 23 C 2.9601 -1.53723 3.01918 0
M  V30 24 C 1.5191 -2.05628 3.15268 0
M  V30 25 C 0.6661 -0.898424 2.62343 0
M  V30 26 H 3.6171 -0.0490998 1.58624 0
M  V30 27 H 3.6381 -2.40421 2.94921 0
M  V30 28 H 3.1501 -0.78983 3.79978 0
M  V30 29 H 1.2511 -2.83329 2.41983 0
M  V30 30 H 1.3641 -2.27142 4.21833 0
M  V30 31 H -0.2719 -1.29186 2.19506 0
M  V30 32 H 0.5111 -0.164528 3.42906 0
M  V30 33 N 2.9562 -1.48159 -0.537278 0
M  V30 34 C 4.3722 -1.34118 -0.865129 0
M  V30 35 C 4.5722 -0.346678 -1.98495 0
M  V30 36 O 3.6282 0.234715 -2.51407 0
M  V30 37 C 4.9412 -2.73963 -1.23954 0
M  V30 38 C 6.4892 -2.82397 -1.34984 0
M  V30 39 C 6.9642 -4.22928 -1.75772 0
M  V30 40 N 8.4552 -4.25566 -1.82887 0
M  V30 41 C 9.1902 -5.31235 -2.15817 0
M  V30 42 N 8.6862 -6.47189 -2.47222 0
M  V30 43 N 10.4792 -5.18624 -2.16761 0
M  V30 44 H 2.6302 -2.1144 0.201715 0
M  V30 45 H 4.8932 -0.947598 0.0275949 0
M  V30 46 H 4.5992 -3.48264 -0.490381 0
M  V30 47 H 4.4732 -3.0702 -2.19132 0
M  V30 48 H 6.8602 -2.08356 -2.08978 0
M  V30 49 H 6.9412 -2.5297 -0.379448 0
M  V30 50 H 6.5852 -4.97482 -1.02341 0
M  V30 51 H 6.5152 -4.49794 -2.73848 0
M  V30 52 H 9.0062 -3.41924 -1.60924 0
M  V30 53 H 9.3192 -7.23564 -2.71433 0
M  V30 54 H 7.6642 -6.50476 -2.44757 0
M  V30 55 H 10.8552 -4.27056 -1.91679 0
M  V30 56 H 11.0282 -6.01078 -2.42093 0
M  V30 57 N 4.4343 0.785586 -1.36625 0
M  V30 58 C 5.6833 1.53883 -1.30396 0
M  V30 59 C 5.9963 1.95271 0.113452 0
M  V30 60 O 7.2023 2.69858 0.298142 0
M  V30 61 C 5.6583 2.77808 -2.28802 0
M  V30 62 C 5.2663 2.43574 -3.75999 0
M  V30 63 C 7.0103 3.55783 -2.31558 0
M  V30 64 C 4.9173 3.63919 -4.66173 0
M  V30 65 H 3.8473 0.577678 -0.484566 0
M  V30 66 H 6.4983 0.861705 -1.62009 0
M  V30 67 H 4.8803 3.47339 -1.90188 0
M  V30 68 H 6.0543 1.81916 -4.23371 0
M  V30 69 H 4.3693 1.78803 -3.76056 0
M  V30 70 H 6.9663 4.45205 -2.96137 0
M  V30 71 H 7.3093 3.94644 -1.3252 0
M  V30 72 H 7.8423 2.93235 -2.68809 0
M  V30 73 H 4.5813 3.3015 -5.66287 0
M  V30 74 H 4.1013 4.2473 -4.23515 0
M  V30 75 H 5.7803 4.30901 -4.82632 0
M  V30 76 N 5.9124 1.20967 1.01018 0
M  V30 77 C 7.1894 0.93264 1.71934 0
M  V30 78 C 7.5694 -0.55692 2.03621 0
M  V30 79 O 6.9174 -1.52035 1.7058 0
M  V30 80 C 7.1274 1.81233 2.98254 0
M  V30 81 C 8.4754 2.05804 3.71389 0
M  V30 82 O 9.4994 1.78539 3.08225 0
M  V30 83 O 8.3584 2.51888 4.84989 0
M  V30 84 H 5.4524 0.349272 0.749625 0
M  V30 85 H 7.9984 1.31871 1.06808 0
M  V30 86 H 6.7704 2.82067 2.71208 0
M  V30 87 H 6.3934 1.42674 3.7112 0
M  V30 88 N 7.3905 -1.2043 1.01659 0
M  V30 89 C 8.3535 -2.21433 0.591616 0
M  V30 90 C 9.3535 -1.57203 -0.338226 0
M  V30 91 O 10.5435 -1.73737 -0.126918 0
M  V30 92 C 7.6755 -3.40628 -0.136058 0
M  V30 93 H 8.8685 -2.60545 1.48514 0
M  V30 94 H 6.4215 -1.33893 0.806379 0
M  V30 95 H 7.1565 -3.07019 -1.04449 0
M  V30 96 H 6.9415 -3.88475 0.531917 0
M  V30 97 H 8.4315 -4.15475 -0.420735 0
M  V30 98 N 8.8686 -0.792821 -1.36206 0
M  V30 99 C 10.1456 -0.290627 -1.93429 0
M  V30 100 C 10.5256 1.21773 -1.72437 0
M  V30 101 O 9.8736 2.0108 -1.08531 0
M  V30 102 C 10.0836 -0.686973 -3.42172 0
M  V30 103 C 11.4316 -0.668643 -4.19302 0
M  V30 104 O 12.4556 -0.627658 -3.50626 0
M  V30 105 O 11.3146 -0.714597 -5.41808 0
M  V30 106 H 8.4086 -0.0727927 -0.82379 0
M  V30 107 H 10.9546 -0.875593 -1.45367 0
M  V30 108 H 9.7266 -1.72711 -3.51122 0
M  V30 109 H 9.3496 -0.0760733 -3.97527 0
M  V30 110 N 10.3467 1.47872 -0.545128 0
M  V30 111 C 11.2767 2.32661 0.197793 0
M  V30 112 C 12.2577 1.43041 0.920504 0
M  V30 113 O 13.4427 1.71912 0.90333 0
M  V30 114 C 10.5727 3.24569 1.23582 0
M  V30 115 C 9.5267 4.23333 0.630323 0
M  V30 116 C 8.8527 5.0448 1.77211 0
M  V30 117 C 10.1527 5.20704 -0.407974 0
M  V30 118 H 11.8467 2.95024 -0.510045 0
M  V30 119 H 9.3927 1.4187 -0.246731 0
M  V30 120 H 11.3457 3.8272 1.76362 0
M  V30 121 H 10.0697 2.60236 1.97344 0
M  V30 122 H 8.7287 3.6639 0.123922 0
M  V30 123 H 8.3767 4.36561 2.49847 0
M  V30 124 H 8.0767 5.71339 1.37281 0
M  V30 125 H 9.6007 5.65487 2.3034 0
M  V30 126 H 11.0147 5.7329 0.033305 0
M  V30 127 H 9.4117 5.95699 -0.725486 0
M  V30 128 H 10.4817 4.66917 -1.30828 0
M  V30 129 N 11.8248 0.280983 1.55075 0
M  V30 130 C 12.7718 -0.603937 2.22758 0
M  V30 131 C 13.7418 -1.1452 1.20309 0
M  V30 132 O 14.9268 -1.19343 1.48869 0
M  V30 133 C 12.0668 -1.77947 2.95684 0
M  V30 134 C 11.1798 -1.2715 4.12864 0
M  V30 135 C 10.3148 -2.4093 4.7342 0
M  V30 136 C 9.3538 -1.87165 5.82783 0
M  V30 137 N 8.4908 -2.94441 6.37377 0
M  V30 138 H 13.3308 -0.020124 2.97993 0
M  V30 139 H 10.8678 0.00183425 1.471 0
M  V30 140 H 12.8258 -2.47055 3.36184 0
M  V30 141 H 11.4558 -2.33522 2.22861 0
M  V30 142 H 10.5078 -0.473331 3.77444 0
M  V30 143 H 11.8198 -0.837751 4.91715 0
M  V30 144 H 10.9738 -3.18021 5.1667 0
M  V30 145 H 9.7128 -2.87623 3.93859 0
M  V30 146 H 8.7178 -1.08556 5.38976 0
M  V30 147 H 9.9428 -1.41401 6.64216 0
M  V30 148 H 7.8888 -3.40505 5.60707 0
M  V30 149 H 7.8058 -2.55501 7.11516 0
M  V30 150 H 9.0738 -3.71489 6.85285 0
M  V30 151 N 13.3029 -1.57598 0.00835791 0
M  V30 152 C 14.2329 -2.1198 -0.979113 0
M  V30 153 C 15.2139 -1.03091 -1.35301 0
M  V30 154 O 16.3989 -1.30818 -1.43528 0
M  V30 155 C 13.5289 -2.62995 -2.26828 0
M  V30 156 C 12.4829 -3.76485 -2.03576 0
M  V30 157 C 11.8089 -4.13846 -3.38579 0
M  V30 158 C 13.1089 -5.0342 -1.39161 0
M  V30 159 H 14.8029 -2.94738 -0.526281 0
M  V30 160 H 12.3489 -1.41783 -0.251704 0
M  V30 161 H 14.3019 -2.99669 -2.96271 0
M  V30 162 H 13.0259 -1.7737 -2.7424 0
M  V30 163 H 11.6849 -3.40217 -1.36557 0
M  V30 164 H 11.3329 -3.25232 -3.83709 0
M  V30 165 H 11.0329 -4.90312 -3.23834 0
M  V30 166 H 12.5569 -4.53086 -4.09323 0
M  V30 167 H 13.9709 -5.37812 -1.98573 0
M  V30 168 H 12.3679 -5.84746 -1.34878 0
M  V30 169 H 13.4379 -4.83548 -0.361868 0
M  V30 170 N 14.781 0.264519 -1.55364 0
M  V30 171 C 16.058 1.01677 -1.67096 0
M  V30 172 C 16.438 2.03996 -0.543015 0
M  V30 173 O 15.786 2.23907 0.45585 0
M  V30 174 C 15.996 1.66596 -3.0667 0
M  V30 175 C 17.344 2.17442 -3.64697 0
M  V30 176 O 18.368 1.76568 -3.09358 0
M  V30 177 O 17.227 2.92439 -4.61673 0
M  V30 178 H 14.321 0.472161 -0.678965 0
M  V30 179 H 16.867 0.259703 -1.67701 0
M  V30 180 H 15.639 0.924962 -3.80211 0
M  V30 181 H 15.262 2.48968 -3.10001 0
M  V30 182 N 16.2591 1.48442 0.529413 0
M  V30 183 C 17.5061 1.56488 1.28521 0
M  V30 184 C 17.8341 0.239042 1.93025 0
M  V30 185 O 17.0891 -0.770713 1.79885 0
M  V30 186 C 17.3881 2.6523 2.39558 0
M  V30 187 C 17.0541 4.07648 1.92702 0
M  V30 188 C 15.7161 4.46411 1.79641 0
M  V30 189 C 18.0681 4.96896 1.573 0
M  V30 190 C 15.3961 5.72226 1.29514 0
M  V30 191 C 17.7481 6.23202 1.08636 0
M  V30 192 C 16.4121 6.60821 0.941919 0
M  V30 193 H 15.6821 0.572631 0.470292 0
M  V30 194 H 18.3291 1.82161 0.59072 0
M  V30 195 H 16.6341 2.33419 3.14679 0
M  V30 196 H 18.3311 2.68671 2.97686 0
M  V30 197 H 14.9211 3.77036 2.03819 0
M  V30 198 H 19.1051 4.67626 1.66251 0
M  V30 199 H 14.3611 6.00097 1.17019 0
M  V30 200 H 18.5351 6.91753 0.803136 0
M  V30 201 H 16.1621 7.58198 0.5513 0
M  V30 202 N 17.7372 -0.778329 1.37039 0
M  V30 203 C 18.6842 -1.89139 1.32269 0
M  V30 204 C 19.6542 -1.65017 0.189387 0
M  V30 205 O 20.8392 -1.87024 0.377693 0
M  V30 206 C 17.9792 -3.26112 1.12894 0
M  V30 207 C 17.0922 -3.62233 2.35396 0
M  V30 208 C 16.2272 -4.8838 2.08946 0
M  V30 209 C 15.2662 -5.17212 3.2735 0
M  V30 210 N 14.4032 -6.34546 3.00492 0
M  V30 211 H 19.2432 -1.92552 2.27437 0
M  V30 212 H 16.7802 -0.941473 1.13025 0
M  V30 213 H 18.7382 -4.05116 0.996835 0
M  V30 214 H 17.3682 -3.22091 0.213758 0
M  V30 215 H 16.4202 -2.78265 2.5937 0
M  V30 216 H 17.7322 -3.79481 3.23721 0
M  V30 217 H 16.8862 -5.75274 1.92729 0
M  V30 218 H 15.6252 -4.73222 1.17949 0
M  V30 219 H 14.6302 -4.28796 3.44113 0
M  V30 220 H 15.8552 -5.34283 4.19188 0
M  V30 221 H 13.8012 -6.20759 2.12118 0
M  V30 222 H 13.7182 -6.52179 3.82358 0
M  V30 223 H 14.9862 -7.24394 2.87879 0
M  V30 224 N 19.2153 -1.21501 -1.00376 0
M  V30 225 C 20.4923 -0.941745 -1.71437 0
M  V30 226 C 20.8723 0.546114 -2.03914 0
M  V30 227 O 20.2203 1.51128 -1.71384 0
M  V30 228 C 20.4303 -1.82812 -2.97289 0
M  V30 229 C 21.7783 -2.07771 -3.70292 0
M  V30 230 O 22.8023 -1.80171 -3.07273 0
M  V30 231 O 21.6613 -2.54456 -4.83647 0
M  V30 232 H 18.7553 -0.353243 -0.747762 0
M  V30 233 H 21.3013 -1.32436 -1.06108 0
M  V30 234 H 20.0733 -2.83501 -2.69709 0
M  V30 235 H 19.6963 -1.4464 -3.70358 0
M  V30 236 N 20.6934 1.19889 -1.02296 0
M  V30 237 C 21.9394 1.89701 -0.717033 0
M  V30 238 C 22.2724 1.7905 0.751989 0
M  V30 239 O 21.5474 1.17891 1.547 0
M  V30 240 C 21.8304 3.40858 -1.16136 0
M  V30 241 C 21.6834 3.60411 -2.69117 0
M  V30 242 C 23.0024 4.33876 -0.737549 0
M  V30 243 H 20.1214 0.688874 -0.261957 0
M  V30 244 H 22.7634 1.41154 -1.27183 0
M  V30 245 H 20.9134 3.82335 -0.689342 0
M  V30 246 H 22.5854 3.28145 -3.2422 0
M  V30 247 H 20.8284 3.03665 -3.0979 0
M  V30 248 H 21.4994 4.66396 -2.95261 0
M  V30 249 H 23.9754 4.00081 -1.14344 0
M  V30 250 H 22.8514 5.38242 -1.0764 0
M  V30 251 H 23.1124 4.40628 0.360436 0
M  V30 252 N 22.1715 0.800033 1.35784 0
M  V30 253 C 23.1015 0.220184 2.3246 0
M  V30 254 C 24.0825 -0.65073 1.57161 0
M  V30 255 O 25.2675 -0.582359 1.85263 0
M  V30 256 C 22.3975 -0.637353 3.41402 0
M  V30 257 C 21.3515 0.134531 4.27789 0
M  V30 258 C 20.6775 -0.844285 5.27992 0
M  V30 259 C 21.9775 1.32979 5.05088 0
M  V30 260 H 23.6715 1.02787 2.81203 0
M  V30 261 H 21.2175 0.495717 1.35199 0
M  V30 262 H 23.1705 -1.05302 4.08031 0
M  V30 263 H 21.8945 -1.47785 2.91251 0
M  V30 264 H 20.5535 0.531296 3.6273 0
M  V30 265 H 20.2015 -1.68011 4.74111 0
M  V30 266 H 19.9015 -0.332184 5.8666 0
M  V30 267 H 21.4255 -1.2583 5.97494 0
M  V30 268 H 22.8395 0.98934 5.64699 0
M  V30 269 H 21.2365 1.77593 5.7322 0
M  V30 270 H 22.3065 2.11978 4.36111 0
M  V30 271 N 23.6496 -1.47581 0.552962 0
M  V30 272 C 24.5796 -2.32762 -0.185451 0
M  V30 273 C 25.5606 -1.43527 -0.912905 0
M  V30 274 O 26.7456 -1.72388 -0.894201 0
M  V30 275 C 23.8756 -3.25219 -1.21859 0
M  V30 276 C 22.8296 -4.23661 -0.607864 0
M  V30 277 C 22.1556 -5.05413 -1.74533 0
M  V30 278 C 23.4556 -5.20481 0.435582 0
M  V30 279 H 25.1496 -2.94749 0.525684 0
M  V30 280 H 22.6956 -1.41738 0.254251 0
M  V30 281 H 24.6486 -3.8365 -1.7433 0
M  V30 282 H 23.3726 -2.61279 -1.95961 0
M  V30 283 H 22.0316 -3.66451 -0.104489 0
M  V30 284 H 21.6796 -4.3788 -2.47529 0
M  V30 285 H 21.3796 -5.72059 -1.34249 0
M  V30 286 H 22.9036 -5.66701 -2.27338 0
M  V30 287 H 24.3176 -5.733 -0.00290157 0
M  V30 288 H 22.7146 -5.95305 0.757067 0
M  V30 289 H 23.7846 -4.66217 1.33303 0
M  V30 290 N 25.1277 -0.289203 -1.54924 0
M  V30 291 C 26.5437 0.0645403 -1.59469 0
M  V30 292 C 26.7437 1.53419 -1.30632 0
M  V30 293 O 25.7997 2.2852 -1.074 0
M  V30 294 C 27.1127 -0.32278 -2.98963 0
M  V30 295 C 28.6607 -0.270564 -3.11828 0
M  V30 296 C 29.1357 -0.632532 -4.53611 0
M  V30 297 N 30.6267 -0.584617 -4.59496 0
M  V30 298 C 31.3617 -0.837314 -5.67254 0
M  V30 299 N 30.8577 -1.15536 -6.83098 0
M  V30 300 N 32.6507 -0.765166 -5.56868 0
M  V30 301 H 24.8017 -1.24714 -1.71931 0
M  V30 302 H 27.0647 -0.504809 -0.802416 0
M  V30 303 H 26.7707 -1.34541 -3.24948 0
M  V30 304 H 26.6447 0.32944 -3.75759 0
M  V30 305 H 29.0317 0.742805 -2.85598 0
M  V30 306 H 29.1127 -0.957242 -2.37214 0
M  V30 307 H 28.7567 -1.64365 -4.80569 0
M  V30 308 H 28.6867 0.07609 -5.26545 0
M  V30 309 H 31.1777 -0.349248 -3.76283 0
M  V30 310 H 31.4907 -1.33447 -7.61191 0
M  V30 311 H 29.8357 -1.19328 -6.84679 0
M  V30 312 H 33.0267 -0.516432 -4.65243 0
M  V30 313 H 33.1997 -0.965477 -6.40767 0
M  V30 314 N 26.6058 1.57591 -0.0167156 0
M  V30 315 C 28.0168 1.79201 0.523834 0
M  V30 316 C 28.3678 0.925796 1.72984 0
M  V30 317 O 27.4928 0.132792 2.15992 0
M  V30 318 C 28.0878 3.25 0.957091 0
M  V30 319 C 26.6468 3.47648 1.44283 0
M  V30 320 C 25.7938 2.74374 0.401757 0
M  V30 321 H 28.7448 1.56831 -0.242816 0
M  V30 322 H 28.7658 3.34031 1.82219 0
M  V30 323 H 28.2778 3.88019 0.0791415 0
M  V30 324 H 26.3788 2.89866 2.34113 0
M  V30 325 H 26.4918 4.56352 1.45877 0
M  V30 326 H 24.8558 2.39485 0.867121 0
M  V30 327 H 25.6388 3.40102 -0.467513 0
M  V30 328 N 28.0839 -0.256276 1.55502 0
M  V30 329 C 29.0309 -1.31714 1.89526 0
M  V30 330 C 30.0009 -1.4828 0.748479 0
M  V30 331 O 31.1859 -1.62416 1.00128 0
M  V30 332 C 28.3259 -2.66933 2.18725 0
M  V30 333 C 27.4389 -2.58452 3.4616 0
M  V30 334 C 26.5739 -3.85961 3.64976 0
M  V30 335 C 25.6129 -3.72059 4.86044 0
M  V30 336 N 24.7499 -4.9144 5.01429 0
M  V30 337 H 29.5899 -1.01998 2.80001 0
M  V30 338 H 27.1269 -0.492413 1.38613 0
M  V30 339 H 29.0849 -3.4563 2.33657 0
M  V30 340 H 27.7149 -2.94816 1.31466 0
M  V30 341 H 26.7669 -1.71374 3.3961 0
M  V30 342 H 28.0789 -2.44085 4.34999 0
M  V30 343 H 27.2329 -4.73101 3.79816 0
M  V30 344 H 25.9719 -4.03215 2.74353 0
M  V30 345 H 24.9769 -2.83302 4.7119 0
M  V30 346 H 26.2019 -3.56309 5.78118 0
M  V30 347 H 24.1479 -5.09072 4.13741 0
M  V30 348 H 24.0649 -4.79668 5.84341 0
M  V30 349 H 25.3329 -5.80104 5.20672 0
M  V30 350 N 29.562 -1.4872 -0.521534 0
M  V30 351 C 30.978 -1.35028 -0.850855 0
M  V30 352 C 31.178 -0.367712 -1.98116 0
M  V30 353 O 30.234 0.208037 -2.51642 0
M  V30 354 C 31.547 -2.75263 -1.21041 0
M  V30 355 C 33.095 -2.83813 -1.31981 0
M  V30 356 C 33.57 -4.24769 -1.71276 0
M  V30 357 N 35.061 -4.27482 -1.78363 0
M  V30 358 C 35.796 -5.33494 -2.1017 0
M  V30 359 N 35.292 -6.49775 -2.40343 0
M  V30 360 N 37.085 -5.20894 -2.11248 0
M  V30 361 H 29.236 -2.11214 0.22413 0
M  V30 362 H 31.499 -0.947252 0.0376439 0
M  V30 363 H 31.205 -3.48765 -0.453415 0
M  V30 364 H 31.079 -3.09327 -2.15863 0
M  V30 365 H 33.466 -2.10561 -2.06756 0
M  V30 366 H 33.547 -2.53358 -0.352596 0
M  V30 367 H 33.191 -4.9854 -0.970588 0
M  V30 368 H 33.121 -4.52673 -2.69062 0
M  V30 369 H 35.612 -3.43611 -1.57288 0
M  V30 370 H 35.925 -7.26402 -2.63743 0
M  V30 371 H 34.27 -6.53035 -2.37844 0
M  V30 372 H 37.461 -4.29065 -1.87139 0
M  V30 373 H 37.634 -6.03612 -2.35704 0
M  V30 374 N 31.0401 0.771051 -1.3745 0
M  V30 375 C 32.2651 1.56529 -1.36065 0
M  V30 376 C 32.6901 1.88029 0.0515859 0
M  V30 377 O 32.0481 1.49282 1.02882 0
M  V30 378 C 32.0961 2.85187 -2.20683 0
M  V30 379 O 31.2001 3.79593 -1.61193 0
M  V30 380 H 30.5411 0.47411 -0.464883 0
M  V30 381 H 33.0711 0.954269 -1.80983 0
M  V30 382 H 33.0811 3.34283 -2.33921 0
M  V30 383 H 31.7561 2.61588 -3.23334 0
M  V30 384 H 30.3331 3.38239 -1.56999 0
M  V30 385 N 32.5182 1.22032 0.997298 0
M  V30 386 C 33.7432 1.06921 1.77715 0
M  V30 387 C 34.1682 -0.376226 1.84299 0
M  V30 388 O 33.5262 -1.27165 1.29223 0
M  V30 389 C 33.5742 1.67996 3.19076 0
M  V30 390 O 32.6782 0.930653 4.01762 0
M  V30 391 H 32.0192 0.375814 0.547412 0
M  V30 392 H 34.5492 1.61737 1.25309 0
M  V30 393 H 34.5592 1.72538 3.69723 0
M  V30 394 H 33.2342 2.73182 3.13599 0
M  V30 395 H 31.8112 0.960917 3.60307 0
M  V30 396 N 33.9963 -1.19345 1.0293 0
M  V30 397 C 34.9263 -2.2481 0.631105 0
M  V30 398 C 35.9073 -1.66245 -0.360104 0
M  V30 399 O 37.0923 -1.92677 -0.242726 0
M  V30 400 C 34.2223 -3.47295 -0.0184607 0
M  V30 401 C 33.1763 -4.18536 0.895073 0
M  V30 402 C 32.5023 -5.34586 0.110592 0
M  V30 403 C 33.8023 -4.73287 2.209 0
M  V30 404 H 35.4963 -2.58372 1.51275 0
M  V30 405 H 33.0423 -1.24194 0.728818 0
M  V30 406 H 34.9953 -4.20268 -0.308675 0
M  V30 407 H 33.7193 -3.12933 -0.934907 0
M  V30 408 H 32.3783 -3.47446 1.16949 0
M  V30 409 H 32.0263 -4.96469 -0.807902 0
M  V30 410 H 31.7263 -5.83183 0.719087 0
M  V30 411 H 33.2503 -6.10355 -0.172871 0
M  V30 412 H 34.6643 -5.38013 1.98028 0
M  V30 413 H 33.0613 -5.32373 2.76946 0
M  V30 414 H 34.1313 -3.91331 2.86336 0
M  V30 415 N 35.4744 -0.807222 -1.35358 0
M  V30 416 C 36.4214 -0.216037 -2.29787 0
M  V30 417 C 37.3914 0.650278 -1.52842 0
M  V30 418 O 38.5764 0.595227 -1.81278 0
M  V30 419 C 35.7164 0.628893 -3.39321 0
M  V30 420 C 34.8294 -0.257927 -4.31229 0
M  V30 421 C 33.9644 0.595069 -5.27856 0
M  V30 422 C 33.0034 -0.292111 -6.11403 0
M  V30 423 N 32.1404 0.520895 -7.00165 0
M  V30 424 H 36.9804 -1.02671 -2.79755 0
M  V30 425 H 34.5174 -0.517839 -1.37684 0
M  V30 426 H 36.4754 1.13393 -4.01494 0
M  V30 427 H 35.1054 1.40482 -2.90628 0
M  V30 428 H 34.1574 -0.881076 -3.70056 0
M  V30 429 H 35.4694 -0.940759 -4.89848 0
M  V30 430 H 34.6234 1.16522 -5.95405 0
M  V30 431 H 33.3624 1.31146 -4.69736 0
M  V30 432 H 32.3674 -0.874525 -5.428 0
M  V30 433 H 33.5924 -1.00638 -6.71602 0
M  V30 434 H 31.5384 1.22125 -6.44532 0
M  V30 435 H 31.4554 -0.103877 -7.55929 0
M  V30 436 H 32.7234 1.0743 -7.72062 0
M  V30 437 N 36.9525 1.47285 -0.560781 0
M  V30 438 C 38.1775 2.07359 -0.0410566 0
M  V30 439 C 38.6025 1.41017 1.24483 0
M  V30 440 O 37.9605 0.486368 1.74654 0
M  V30 441 C 38.0085 3.6035 0.134123 0
M  V30 442 O 37.1125 3.94681 1.19587 0
M  V30 443 H 36.4535 0.661887 -0.0529291 0
M  V30 444 H 38.9835 1.89252 -0.777482 0
M  V30 445 H 38.9935 4.0652 0.347207 0
M  V30 446 H 37.6685 4.08034 -0.805047 0
M  V30 447 H 36.2455 3.60251 0.962987 0
M  V30 448 N 38.4306 0.297415 1.54768 0
M  V30 449 C 39.8466 -0.0560823 1.59501 0
M  V30 450 C 40.0466 -1.52725 1.31444 0
M  V30 451 O 39.1026 -2.27947 1.08611 0
M  V30 452 C 40.4156 0.338631 2.98787 0
M  V30 453 C 41.9636 0.287097 3.11681 0
M  V30 454 C 42.4386 0.656579 4.53269 0
M  V30 455 N 43.9296 0.608977 4.59179 0
M  V30 456 C 44.6646 0.867385 5.66802 0
M  V30 457 N 44.1606 1.19157 6.82476 0
M  V30 458 N 45.9536 0.794687 5.56454 0
M  V30 459 H 38.1046 1.25624 1.71267 0
M  V30 460 H 40.3676 0.509057 0.799728 0
M  V30 461 H 40.0736 1.36263 3.2423 0
M  V30 462 H 39.9476 -0.309508 3.75928 0
M  V30 463 H 42.3346 -0.727649 2.85988 0
M  V30 464 H 42.4156 0.969809 2.36703 0
M  V30 465 H 42.0596 1.66912 4.7969 0
M  V30 466 H 41.9896 -0.0481649 5.26578 0
M  V30 467 H 44.4806 0.369198 3.76092 0
M  V30 468 H 44.7936 1.37482 7.60473 0
M  V30 469 H 43.1386 1.22958 6.84037 0
M  V30 470 H 46.3296 0.541098 4.64962 0
M  V30 471 H 46.5026 0.999445 6.40246 0
M  V30 472 N 39.9087 -1.5758 0.0250728 0
M  V30 473 C 40.8717 -2.08896 -0.943139 0
M  V30 474 C 41.8717 -1.00321 -1.25668 0
M  V30 475 O 43.0617 -1.26495 -1.19769 0
M  V30 476 C 40.1937 -2.55143 -2.26086 0
M  V30 477 H 41.3867 -2.95723 -0.498775 0
M  V30 478 H 38.9397 -1.54703 -0.222888 0
M  V30 479 H 39.6747 -1.71633 -2.75159 0
M  V30 480 H 39.4597 -3.34461 -2.04641 0
M  V30 481 H 40.9497 -2.95083 -2.95492 0
M  V30 482 N 41.3868 0.248026 -1.55636 0
M  V30 483 C 42.2968 1.32859 -1.93354 0
M  V30 484 C 43.3128 1.52719 -0.833838 0
M  V30 485 O 44.4888 1.66363 -1.13513 0
M  V30 486 C 41.5538 2.66337 -2.21958 0
M  V30 487 C 40.6148 2.55008 -3.45354 0
M  V30 488 C 39.8478 3.82121 -3.72584 0
M  V30 489 O 40.0708 4.83951 -3.01907 0
M  V30 490 O 39.0048 3.80822 -4.6611 0
M  V30 491 H 42.8308 1.03862 -2.85388 0
M  V30 492 H 40.4158 0.448686 -1.42503 0
M  V30 493 H 42.2978 3.45216 -2.4167 0
M  V30 494 H 40.9728 2.95068 -1.33103 0
M  V30 495 H 39.8798 1.7442 -3.30951 0
M  V30 496 H 41.2128 2.31222 -4.34508 0
M  V30 497 N 42.8649 1.48995 0.513639 0
M  V30 498 C 44.1109 1.58076 1.27042 0
M  V30 499 C 44.4439 0.261026 1.92438 0
M  V30 500 O 43.7189 -0.734393 1.80103 0
M  V30 501 C 44.0019 2.73091 2.34719 0
M  V30 502 C 43.8549 4.14821 1.73907 0
M  V30 503 C 45.1739 2.83796 3.36375 0
M  V30 504 H 42.2929 0.575391 0.460536 0
M  V30 505 H 44.9349 1.81232 0.570516 0
M  V30 506 H 43.0849 2.53479 2.94416 0
M  V30 507 H 44.7569 4.45917 1.18135 0
M  V30 508 H 42.9999 4.21058 1.0437 0
M  V30 509 H 43.6709 4.91147 2.51949 0
M  V30 510 H 46.1469 3.01611 2.86653 0
M  V30 511 H 45.0229 3.65971 4.09093 0
M  V30 512 H 45.2839 1.92624 3.9793 0
M  V30 513 N 44.343 -0.763751 1.37857 0
M  V30 514 C 45.62 -1.51244 1.24035 0
M  V30 515 C 46 -2.10472 -0.162649 0
M  V30 516 O 45.348 -1.96206 -1.17112 0
M  V30 517 C 45.558 -2.58694 2.34261 0
M  V30 518 C 46.906 -3.25878 2.72193 0
M  V30 519 O 47.93 -2.68993 2.33497 0
M  V30 520 O 46.789 -4.2874 3.38887 0
M  V30 521 H 43.883 -0.670243 0.484462 0
M  V30 522 H 46.429 -0.800031 1.49658 0
M  V30 523 H 45.201 -2.13105 3.2818 0
M  V30 524 H 44.824 -3.37527 2.10146 0
M  V30 525 N 45.8211 -1.22559 -0.990812 0
M  V30 526 C 46.7511 -1.0218 -2.09956 0
M  V30 527 C 47.7321 0.0579394 -1.70001 0
M  V30 528 O 48.9171 -0.104684 -1.93918 0
M  V30 529 C 46.0471 -0.601023 -3.4206 0
M  V30 530 C 45.0011 -1.62694 -3.95872 0
M  V30 531 C 44.3271 -1.06193 -5.24049 0
M  V30 532 C 45.6271 -3.01743 -4.2632 0
M  V30 533 H 47.3211 -1.94916 -2.27262 0
M  V30 534 H 44.8671 -0.938566 -1.09211 0
M  V30 535 H 46.8201 -0.445561 -4.19038 0
M  V30 536 H 45.5441 0.362005 -3.24588 0
M  V30 537 H 44.2031 -1.77021 -3.21028 0
M  V30 538 H 43.8511 -0.0901903 -5.02919 0
M  V30 539 H 43.5511 -1.74732 -5.61019 0
M  V30 540 H 45.0751 -0.918092 -6.03658 0
M  V30 541 H 46.4891 -2.90777 -4.94087 0
M  V30 542 H 44.8861 -3.67425 -4.74467 0
M  V30 543 H 45.9561 -3.51518 -3.34011 0
M  V30 544 N 47.2992 1.18797 -1.03562 0
M  V30 545 C 48.2092 2.25913 -0.632505 0
M  V30 546 C 49.2252 1.70668 0.338882 0
M  V30 547 O 50.4012 2.00453 0.195076 0
M  V30 548 C 47.4662 3.467 0.00350942 0
M  V30 549 C 46.5272 4.17098 -1.01624 0
M  V30 550 C 45.7602 5.32119 -0.410478 0
M  V30 551 O 45.9832 5.64976 0.784725 0
M  V30 552 O 44.9172 5.9107 -1.13667 0
M  V30 553 H 48.7432 2.62648 -1.52478 0
M  V30 554 H 46.3282 1.25781 -0.806195 0
M  V30 555 H 48.2102 4.19878 0.35781 0
M  V30 556 H 46.8852 3.11798 0.869686 0
M  V30 557 H 45.7922 3.4601 -1.42224 0
M  V30 558 H 47.1252 4.55987 -1.85301 0
M  V30 559 N 48.7773 0.814389 1.34928 0
M  V30 560 C 50.1933 0.499084 1.51596 0
M  V30 561 C 50.3933 -0.978319 1.76157 0
M  V30 562 O 49.4493 -1.76309 1.80752 0
M  V30 563 C 50.7623 1.35121 2.68631 0
M  V30 564 C 52.3103 1.34746 2.82511 0
M  V30 565 C 52.7853 2.18388 4.0258 0
M  V30 566 N 54.2763 2.15966 4.09772 0
M  V30 567 C 55.0113 2.77437 5.01813 0
M  V30 568 N 54.5073 3.47866 5.99134 0
M  V30 569 N 56.3003 2.67037 4.94619 0
M  V30 570 H 48.4513 1.7711 1.17243 0
M  V30 571 H 50.7143 0.754256 0.574284 0
M  V30 572 H 50.4203 2.40001 2.57085 0
M  V30 573 H 50.2943 1.00991 3.63429 0
M  V30 574 H 52.6813 0.30648 2.93504 0
M  V30 575 H 52.7623 1.72869 1.88547 0
M  V30 576 H 52.4063 3.2253 3.92347 0
M  V30 577 H 52.3363 1.77621 4.9574 0
M  V30 578 H 54.8273 1.64729 3.40107 0
M  V30 579 H 55.1403 3.92038 6.65977 0
M  V30 580 H 53.4853 3.51972 5.99284 0
M  V30 581 H 56.6763 2.11597 4.17546 0
M  V30 582 H 56.8493 3.15232 5.66156 0
M  V30 583 N 50.2554 -1.46986 0.568584 0
M  V30 584 C 51.4834 -2.0683 0.0539956 0
M  V30 585 C 51.8984 -1.41953 -1.24478 0
M  V30 586 O 51.2554 -0.519933 -1.74937 0
M  V30 587 C 51.3064 -3.61254 -0.133362 0
M  V30 588 O 51.0274 -4.237 1.11399 0
M  V30 589 C 52.5284 -4.37992 -0.683927 0
M  V30 590 H 49.7484 -0.669058 0.0510141 0
M  V30 591 H 52.2924 -1.88824 0.785234 0
M  V30 592 H 50.4474 -3.78735 -0.81477 0
M  V30 593 H 50.8614 -5.16388 0.91888 0
M  V30 594 H 52.3354 -5.46684 -0.764263 0
M  V30 595 H 52.8124 -4.05058 -1.69778 0
M  V30 596 H 53.4184 -4.25283 -0.0378494 0
M  V30 597 N 51.7335 -0.305618 -1.54608 0
M  V30 598 C 52.9805 0.302298 -2.00231 0
M  V30 599 C 53.3085 1.5354 -1.19398 0
M  V30 600 O 52.5635 1.93973 -0.259423 0
M  V30 601 C 52.8625 0.698983 -3.50498 0
M  V30 602 C 52.5285 -0.432903 -4.48817 0
M  V30 603 C 51.1905 -0.743622 -4.75419 0
M  V30 604 C 53.5425 -1.19409 -5.07337 0
M  V30 605 C 50.8705 -1.81857 -5.57804 0
M  V30 606 C 53.2225 -2.25899 -5.90891 0
M  V30 607 C 51.8865 -2.57572 -6.15803 0
M  V30 608 H 51.1565 0.110619 -0.732697 0
M  V30 609 H 53.8035 -0.425674 -1.86709 0
M  V30 610 H 52.1085 1.50711 -3.61654 0
M  V30 611 H 53.8055 1.1806 -3.83227 0
M  V30 612 H 50.3955 -0.18063 -4.28219 0
M  V30 613 H 54.5795 -0.967295 -4.86782 0
M  V30 614 H 49.8355 -2.06864 -5.75341 0
M  V30 615 H 54.0095 -2.85335 -6.35261 0
M  V30 616 H 51.6365 -3.40998 -6.7943 0
M  V30 617 N 53.2116 1.57565 -0.0334293 0
M  V30 618 C 54.4396 1.9628 0.654347 0
M  V30 619 C 54.8546 0.910138 1.65414 0
M  V30 620 O 54.2116 -0.107595 1.82183 0
M  V30 621 C 54.2626 3.35067 1.35693 0
M  V30 622 O 53.9836 4.36296 0.397191 0
M  V30 623 C 55.4846 3.88439 2.13613 0
M  V30 624 H 52.7046 0.646369 0.180132 0
M  V30 625 H 55.2486 2.04282 -0.0944721 0
M  V30 626 H 53.4036 3.2827 2.05712 0
M  V30 627 H 53.8176 5.1678 0.896597 0
M  V30 628 H 55.2916 4.8788 2.58219 0
M  V30 629 H 55.7686 3.22914 2.97696 0
M  V30 630 H 56.3746 3.98516 1.48543 0
M  V30 631 N 54.6897 -0.239769 1.55765 0
M  V30 632 C 55.9367 -0.966801 1.7793 0
M  V30 633 C 56.2647 -1.85046 0.599015 0
M  V30 634 O 55.5197 -1.91197 -0.417395 0
M  V30 635 C 55.8187 -1.852 3.05672 0
M  V30 636 C 55.4847 -1.1231 4.36689 0
M  V30 637 C 54.1467 -0.921689 4.72291 0
M  V30 638 C 56.4987 -0.607019 5.17653 0
M  V30 639 C 53.8267 -0.191996 5.86386 0
M  V30 640 C 56.1787 0.109241 6.32506 0
M  V30 641 C 54.8427 0.322073 6.66723 0
M  V30 642 H 54.1127 -0.353778 0.651093 0
M  V30 643 H 56.7597 -0.23634 1.90036 0
M  V30 644 H 55.0647 -2.64975 2.8861 0
M  V30 645 H 56.7617 -2.41635 3.20021 0
M  V30 646 H 53.3517 -1.29004 4.08725 0
M  V30 647 H 57.5357 -0.750153 4.90598 0
M  V30 648 H 52.7917 -0.0166949 6.11398 0
M  V30 649 H 56.9657 0.516737 6.9448 0
M  V30 650 H 54.5927 0.88944 7.54979 0
M  V30 651 N 56.1678 -1.49265 -0.50573 0
M  V30 652 C 57.5838 -1.35923 -0.836486 0
M  V30 653 C 57.7838 -0.388704 -1.97715 0
M  V30 654 O 56.8398 0.181336 -2.51848 0
M  V30 655 C 58.1528 -2.76531 -1.18115 0
M  V30 656 C 59.7008 -2.85197 -1.28964 0
M  V30 657 C 60.1758 -4.26561 -1.66761 0
M  V30 658 N 61.6668 -4.2935 -1.73819 0
M  V30 659 C 62.4018 -5.35693 -2.045 0
M  V30 660 N 61.8978 -6.52287 -2.33438 0
M  V30 661 N 63.6908 -5.23105 -2.05711 0
M  V30 662 H 55.8418 -2.10965 0.246519 0
M  V30 663 H 58.1048 -0.9468 0.0476887 0
M  V30 664 H 57.8108 -3.49226 -0.416398 0
M  V30 665 H 57.6848 -3.11599 -2.1257 0
M  V30 666 H 60.0718 -2.12742 -2.04511 0
M  V30 667 H 60.1528 -2.53718 -0.325704 0
M  V30 668 H 59.7968 -4.99541 -0.917656 0
M  V30 669 H 59.7268 -4.55502 -2.64246 0
M  V30 670 H 62.2178 -3.4526 -1.53635 0
M  V30 671 H 62.5308 -7.29158 -2.56024 0
M  V30 672 H 60.8758 -6.55521 -2.30905 0
M  V30 673 H 64.0668 -4.31026 -1.82577 0
M  V30 674 H 64.2398 -6.06078 -2.29289 0
M  V30 675 N 57.6459 0.756429 -1.3826 0
M  V30 676 C 58.5939 1.89149 -1.35372 0
M  V30 677 C 59.5879 1.67691 -0.24004 0
M  V30 678 O 60.7939 1.75294 -0.408919 0
M  V30 679 H 57.1689 0.622271 -0.422236 0
M  V30 680 H 59.1399 1.88701 -2.31159 0
M  V30 681 C 57.8889 3.26599 -1.19284 0
M  V30 682 H 57.2119 3.43695 -2.0424 0
M  V30 683 H 58.6519 4.06274 -1.21316 0
M  V30 684 C 57.1109 3.3675 0.100454 0
M  V30 685 O 57.6409 3.86951 1.07851 0
M  V30 686 N 55.8469 2.90179 0.15633 0
M  V30 687 H 55.3939 2.49517 -0.640253 0
M  V30 688 H 55.3519 2.97352 1.02123 0
M  V30 689 N 59.124 1.23083 0.984299 0
M  V30 690 C 60.349 1.088 1.76571 0
M  V30 691 C 60.774 -0.356657 1.84688 0
M  V30 692 O 60.132 -1.25788 1.30565 0
M  V30 693 C 60.18 1.71371 3.17277 0
M  V30 694 O 59.284 0.973213 4.00752 0
M  V30 695 H 58.625 0.381599 0.543395 0
M  V30 696 H 61.155 1.63057 1.23587 0
M  V30 697 H 61.165 1.76449 3.67872 0
M  V30 698 H 59.84 2.76493 3.10684 0
M  V30 699 H 58.417 0.999078 3.59267 0
M  V30 700 N 60.6021 -1.18246 1.0419 0
M  V30 701 C 61.5491 -2.2192 0.634037 0
M  V30 702 C 62.5191 -1.62179 -0.358765 0
M  V30 703 O 63.7041 -1.89122 -0.252466 0
M  V30 704 C 60.8441 -3.451 0.00445535 0
M  V30 705 C 59.9571 -4.19174 1.04487 0
M  V30 706 C 59.0921 -5.29813 0.383676 0
M  V30 707 C 58.1311 -5.9566 1.4091 0
M  V30 708 N 57.2681 -6.97834 0.772784 0
M  V30 709 H 62.1081 -2.56164 1.52263 0
M  V30 710 H 59.6451 -1.25843 0.761701 0
M  V30 711 H 61.6031 -4.15485 -0.377919 0
M  V30 712 H 60.2331 -3.11472 -0.847652 0
M  V30 713 H 59.2851 -3.47604 1.54518 0
M  V30 714 H 60.5971 -4.64267 1.82368 0
M  V30 715 H 59.7511 -6.06677 -0.0528366 0
M  V30 716 H 58.4901 -4.85825 -0.427208 0
M  V30 717 H 57.4951 -5.17535 1.85574 0
M  V30 718 H 58.7201 -6.4173 2.22171 0
M  V30 719 H 56.6661 -6.55998 -0.0177708 0
M  V30 720 H 56.5831 -7.41186 1.48928 0
M  V30 721 H 57.8511 -7.78665 0.36071 0
M  V30 722 N 62.0802 -0.821533 -1.34494 0
M  V30 723 C 63.0122 -0.199946 -2.28326 0
M  V30 724 C 64.0252 0.609377 -1.50965 0
M  V30 725 O 65.2142 0.439285 -1.7301 0
M  V30 726 C 62.3142 0.738431 -3.30757 0
M  V30 727 C 61.4872 -0.0277632 -4.37391 0
M  V30 728 C 60.5462 0.831332 -5.19591 0
M  V30 729 O 59.5722 0.276822 -5.68526 0
M  V30 730 N 60.7742 2.15132 -5.39165 0
M  V30 731 H 63.5392 -1.00609 -2.82308 0
M  V30 732 H 61.1002 -0.678366 -1.47003 0
M  V30 733 H 63.0922 1.31773 -3.82646 0
M  V30 734 H 61.6622 1.44533 -2.7718 0
M  V30 735 H 60.8822 -0.788359 -3.86236 0
M  V30 736 H 62.1702 -0.555251 -5.05761 0
M  V30 737 H 61.5682 2.62559 -5.01078 0
M  V30 738 H 60.1252 2.6795 -5.94177 0
M  V30 739 N 63.5583 1.46682 -0.576371 0
M  V30 740 C 64.7863 2.06798 -0.0649635 0
M  V30 741 C 65.2013 1.42612 1.23723 0
M  V30 742 O 64.5583 0.529203 1.74659 0
M  V30 743 C 64.6093 3.6132 0.114202 0
M  V30 744 O 64.3303 4.23104 -1.13644 0
M  V30 745 C 65.8313 4.38349 0.66069 0
M  V30 746 H 63.0513 0.668778 -0.0545616 0
M  V30 747 H 65.5953 1.88404 -0.795237 0
M  V30 748 H 63.7503 3.79162 0.794673 0
M  V30 749 H 64.1643 5.15894 -0.946253 0
M  V30 750 H 65.6383 5.47081 0.73526 0
M  V30 751 H 66.1153 4.05953 1.67627 0
M  V30 752 H 66.7213 4.25297 0.0152951 0
M  V30 753 N 65.0364 0.313813 1.54444 0
M  V30 754 C 66.2664 -0.293491 2.04505 0
M  V30 755 C 66.6744 -1.47086 1.19005 0
M  V30 756 O 66.0174 -1.82481 0.211257 0
M  V30 757 C 66.0794 -0.800455 3.50475 0
M  V30 758 C 65.7434 0.253322 4.56297 0
M  V30 759 C 66.7404 1.08612 5.08428 0
M  V30 760 C 64.4254 0.398708 5.00715 0
M  V30 761 C 66.4194 2.05013 6.0353 0
M  V30 762 C 64.1064 1.36614 5.95634 0
M  V30 763 C 65.1044 2.19033 6.46926 0
M  V30 764 O 64.7924 3.14134 7.39983 0
M  V30 765 H 64.5244 -0.0658325 0.672787 0
M  V30 766 H 67.0784 0.455177 2.00293 0
M  V30 767 H 65.3084 -1.59987 3.52053 0
M  V30 768 H 66.9974 -1.32504 3.83663 0
M  V30 769 H 67.7634 0.984736 4.74898 0
M  V30 770 H 63.6424 -0.23289 4.60411 0
M  V30 771 H 67.1864 2.69382 6.4349 0
M  V30 772 H 63.0834 1.4682 6.28581 0
M  V30 773 H 63.8514 3.0926 7.57826 0
M  V30 774 N 66.5145 -1.57545 0.0417849 0
M  V30 775 C 67.7395 -1.97035 -0.647455 0
M  V30 776 C 68.1645 -0.918775 -1.64135 0
M  V30 777 O 67.5225 0.119006 -1.80909 0
M  V30 778 C 67.5705 -3.35609 -1.31905 0
M  V30 779 O 66.6745 -3.3287 -2.43457 0
M  V30 780 H 66.0155 -0.64211 -0.169086 0
M  V30 781 H 68.5455 -2.04318 0.107399 0
M  V30 782 H 68.5555 -3.72126 -1.67291 0
M  V30 783 H 67.2305 -4.11685 -0.590586 0
M  V30 784 H 65.8075 -3.08087 -2.10088 0
M  V30 785 N 67.9926 0.231505 -1.5589 0
M  V30 786 C 69.2406 0.955461 -1.78088 0
M  V30 787 C 69.5616 1.85262 -0.608533 0
M  V30 788 O 68.8316 1.92277 0.375035 0
M  V30 789 H 67.4116 0.355787 -0.656829 0
M  V30 790 H 70.0736 0.245751 -1.93344 0
M  V30 791 H 69.1696 1.56814 -2.69844 0
M  V30 792 N 69.4707 1.49531 0.497807 0
M  V30 793 C 70.7197 1.58426 1.24837 0
M  V30 794 C 71.0327 0.277643 1.93619 0
M  V30 795 O 72.2387 0.24517 2.70391 0
M  V30 796 C 70.6947 2.79538 2.26686 0
M  V30 797 C 70.3027 4.16971 1.63828 0
M  V30 798 C 72.0467 2.97764 3.0255 0
M  V30 799 C 69.9537 5.29301 2.63807 0
M  V30 800 H 68.8837 0.58989 0.469623 0
M  V30 801 H 71.5347 1.75923 0.521857 0
M  V30 802 H 69.9167 2.55542 3.02514 0
M  V30 803 H 71.0907 4.51116 0.939711 0
M  V30 804 H 69.4057 4.04129 1.00342 0
M  V30 805 H 72.0027 3.78856 3.77323 0
M  V30 806 H 72.3457 2.08448 3.60354 0
M  V30 807 H 72.8787 3.21815 2.33838 0
M  V30 808 H 69.6177 6.20687 2.10779 0
M  V30 809 H 69.1377 4.99606 3.31894 0
M  V30 810 H 70.8167 5.58768 3.2617 0
M  V30 811 N 70.9488 -0.749086 1.3866 0
M  V30 812 C 72.3598 -1.32664 1.31366 0
M  V30 813 C 72.7108 -1.96179 -0.028484 0
M  V30 814 O 71.8358 -1.9537 -0.93057 0
M  V30 815 C 72.4308 -2.41219 2.37905 0
M  V30 816 C 70.9898 -2.94684 2.34176 0
M  V30 817 C 70.1368 -1.68108 2.20533 0
M  V30 818 H 73.0878 -0.547628 1.48952 0
M  V30 819 H 73.1088 -3.21268 2.0388 0
M  V30 820 H 72.6208 -1.94962 3.35576 0
M  V30 821 H 70.7218 -3.45258 1.401 0
M  V30 822 H 70.8348 -3.48757 3.2849 0
M  V30 823 H 69.1988 -1.91907 1.67463 0
M  V30 824 H 69.9818 -1.23923 3.20153 0
M  V30 825 N 72.4269 -1.23603 -0.977757 0
M  V30 826 C 73.6759 -1.06377 -1.71368 0
M  V30 827 C 73.9889 0.399062 -1.91486 0
M  V30 828 O 75.1949 0.691312 -2.62551 0
M  V30 829 C 73.6509 -1.85512 -3.08404 0
M  V30 830 C 73.2589 -3.36141 -2.96164 0
M  V30 831 C 75.0029 -1.76783 -3.85938 0
M  V30 832 C 72.9099 -4.07659 -4.28449 0
M  V30 833 H 71.8399 -0.394452 -0.642591 0
M  V30 834 H 74.4909 -1.47594 -1.09034 0
M  V30 835 H 72.8729 -1.37103 -3.71509 0
M  V30 836 H 74.0469 -3.92056 -2.42133 0
M  V30 837 H 72.3619 -3.45712 -2.32104 0
M  V30 838 H 74.9589 -2.27526 -4.83876 0
M  V30 839 H 75.3019 -0.731116 -4.0983 0
M  V30 840 H 75.8349 -2.22818 -3.2954 0
M  V30 841 H 72.5739 -5.11648 -4.09752 0
M  V30 842 H 72.0939 -3.5653 -4.82334 0
M  V30 843 H 73.7729 -4.141 -4.97122 0
M  V30 844 N 73.905 1.17692 -1.04816 0
M  V30 845 C 75.154 1.87192 -0.751132 0
M  V30 846 C 75.467 1.8169 0.724441 0
M  V30 847 O 76.673 2.46625 1.13527 0
M  V30 848 C 75.129 3.35857 -1.29338 0
M  V30 849 C 74.737 3.4987 -2.79812 0
M  V30 850 C 76.481 4.10709 -1.07322 0
M  V30 851 C 74.388 4.92536 -3.27356 0
M  V30 852 H 73.318 0.701162 -0.277288 0
M  V30 853 H 75.969 1.32932 -1.26496 0
M  V30 854 H 74.351 3.89631 -0.707376 0
M  V30 855 H 75.525 3.06332 -3.44235 0
M  V30 856 H 73.84 2.88433 -3.00325 0
M  V30 857 H 76.437 5.15952 -1.4035 0
M  V30 858 H 76.78 4.16299 -0.0108001 0
M  V30 859 H 77.313 3.6313 -1.62423 0
M  V30 860 H 74.052 4.92119 -4.33012 0
M  V30 861 H 73.572 5.3676 -2.67673 0
M  V30 862 H 75.251 5.61288 -3.21815 0
M  V30 863 N 75.3831 0.828654 1.34056 0
M  V30 864 C 76.6291 0.42008 1.98402 0
M  V30 865 C 76.9621 -1.01564 1.65525 0
M  V30 866 O 76.2371 -1.70834 0.929831 0
M  V30 867 C 76.5201 0.62927 3.54559 0
M  V30 868 C 76.3731 2.11152 3.97159 0
M  V30 869 C 77.6921 0.0688756 4.40046 0
M  V30 870 H 74.8111 0.154104 0.720709 0
M  V30 871 H 77.4531 1.04228 1.5886 0
M  V30 872 H 75.6031 0.0996418 3.88372 0
M  V30 873 H 77.2751 2.70522 3.73651 0
M  V30 874 H 75.5181 2.59985 3.47261 0
M  V30 875 H 76.1891 2.20868 5.05887 0
M  V30 876 H 78.6651 0.521458 4.1282 0
M  V30 877 H 77.5411 0.245006 5.48353 0
M  V30 878 H 77.8021 -1.0266 4.30015 0
M  V30 879 N 76.8612 -1.46375 0.584142 0
M  V30 880 C 77.8242 -2.28784 -0.138108 0
M  V30 881 C 78.8242 -1.38471 -0.817462 0
M  V30 882 O 80.0142 -1.60833 -0.669199 0
M  V30 883 C 77.1462 -3.18892 -1.20503 0
M  V30 884 H 78.3392 -2.94117 0.586127 0
M  V30 885 H 75.8922 -1.52509 0.342171 0
M  V30 886 H 76.6272 -2.58309 -1.96079 0
M  V30 887 H 76.4122 -3.85388 -0.722384 0
M  V30 888 H 77.9022 -3.80914 -1.71155 0
M  V30 889 N 78.3393 -0.321999 -1.54275 0
M  V30 890 C 79.2873 0.560206 -2.25753 0
M  V30 891 C 80.2813 1.11984 -1.27106 0
M  V30 892 O 81.4873 1.06806 -1.44888 0
M  V30 893 H 77.8623 0.199304 -0.725108 0
M  V30 894 H 79.8333 -0.0649365 -2.98329 0
M  V30 895 C 78.5823 1.71023 -3.02731 0
M  V30 896 H 77.9053 1.28885 -3.78456 0
M  V30 897 H 79.3453 2.30314 -3.55993 0
M  V30 898 C 77.8043 2.62692 -2.10938 0
M  V30 899 O 78.3343 3.64364 -1.6912 0
M  V30 900 N 76.5403 2.30891 -1.76459 0
M  V30 901 H 76.0873 1.48253 -2.10663 0
M  V30 902 H 76.0453 2.92487 -1.1532 0
M  V30 903 N 79.8174 1.5752 -0.0501392 0
M  V30 904 C 80.7504 2.07026 0.959962 0
M  V30 905 C 81.7284 0.970539 1.30458 0
M  V30 906 O 82.9124 1.2424 1.41763 0
M  V30 907 C 80.0394 2.5099 2.27424 0
M  V30 908 C 79.0854 3.72188 2.08275 0
M  V30 909 S 79.9184 5.17888 1.36207 0
M  V30 910 C 81.0744 5.65165 2.6896 0
M  V30 911 H 81.3074 2.9238 0.538631 0
M  V30 912 H 78.8404 1.53547 0.162099 0
M  V30 913 H 80.7984 2.76982 3.02971 0
M  V30 914 H 79.4594 1.65944 2.66686 0
M  V30 915 H 78.6524 4.00866 3.05487 0
M  V30 916 H 78.2544 3.46457 1.40868 0
M  V30 917 H 80.5464 5.70687 3.65133 0
M  V30 918 H 81.4894 6.64394 2.4492 0
M  V30 919 H 81.8974 4.9289 2.75172 0
M  V30 920 N 81.2955 -0.223234 1.56011 0
M  V30 921 C 82.5725 -0.972108 1.69733 0
M  V30 922 C 82.9525 -2.02485 0.59691 0
M  V30 923 O 82.3005 -2.25037 -0.396324 0
M  V30 924 C 82.5105 -1.58407 3.10979 0
M  V30 925 C 83.8585 -2.07696 3.70334 0
M  V30 926 O 84.8825 -1.68304 3.1393 0
M  V30 927 O 83.7415 -2.80096 4.69264 0
M  V30 928 H 80.8355 -0.453993 0.691245 0
M  V30 929 H 83.3815 -0.215149 1.68331 0
M  V30 930 H 82.1535 -0.823831 3.82529 0
M  V30 931 H 81.7765 -2.40661 3.16493 0
M  V30 932 N 82.7736 -1.49793 -0.48987 0
M  V30 933 C 84.0016 -1.63568 -1.26701 0
M  V30 934 C 84.4166 -0.311465 -1.86213 0
M  V30 935 O 83.7736 0.704416 -1.68357 0
M  V30 936 C 83.8246 -2.71284 -2.38929 0
M  V30 937 O 83.5456 -3.9857 -1.81861 0
M  V30 938 C 85.0466 -2.95864 -3.3012 0
M  V30 939 H 82.2666 -0.550342 -0.383881 0
M  V30 940 H 84.8106 -1.95898 -0.586864 0
M  V30 941 H 82.9656 -2.417 -3.02753 0
M  V30 942 H 83.3796 -4.57993 -2.55622 0
M  V30 943 H 84.8536 -3.74941 -4.05121 0
M  V30 944 H 85.3306 -2.06206 -3.87783 0
M  V30 945 H 85.9366 -3.26907 -2.72051 0
M  V30 946 N 84.2517 0.741722 -1.39055 0
M  V30 947 C 85.4977 1.50336 -1.36113 0
M  V30 948 C 85.8307 1.94148 0.0450796 0
M  V30 949 O 85.1057 1.66301 1.00868 0
M  V30 950 C 85.3887 2.74773 -2.32749 0
M  V30 951 C 85.2417 2.37023 -3.82283 0
M  V30 952 C 86.5607 3.76846 -2.27322 0
M  V30 953 H 83.6797 0.545351 -0.495743 0
M  V30 954 H 86.3217 0.848624 -1.69995 0
M  V30 955 H 84.4717 3.30639 -2.03986 0
M  V30 956 H 86.1437 1.8684 -4.21768 0
M  V30 957 H 84.3867 1.69334 -3.99385 0
M  V30 958 H 85.0577 3.26104 -4.45376 0
M  V30 959 H 87.5337 3.30548 -2.5274 0
M  V30 960 H 86.4097 4.6159 -2.97028 0
M  V30 961 H 86.6707 4.23286 -1.27599 0
M  V30 962 N 85.7298 1.2412 0.971189 0
M  V30 963 C 86.9778 1.07668 1.71032 0
M  V30 964 C 87.2988 -0.385797 1.91146 0
M  V30 965 O 86.5688 -1.27569 1.4867 0
M  V30 966 H 85.1488 0.395429 0.633755 0
M  V30 967 H 87.8108 1.55984 1.16855 0
M  V30 968 H 86.9068 1.57195 2.69622 0
M  V30 969 N 87.2079 -1.17134 1.05439 0
M  V30 970 C 88.4359 -1.91372 0.786414 0
M  V30 971 C 88.8509 -1.76955 -0.658202 0
M  V30 972 O 88.2079 -1.10838 -1.44987 0
M  V30 973 C 88.2589 -3.42356 1.1608 0
M  V30 974 O 87.9799 -3.56332 2.54871 0
M  V30 975 C 89.4809 -4.33663 0.919322 0
M  V30 976 H 86.7009 -0.607118 0.285743 0
M  V30 977 H 89.2449 -1.48525 1.40572 0
M  V30 978 H 87.3999 -3.82939 0.586191 0
M  V30 979 H 87.8139 -4.49896 2.69618 0
M  V30 980 H 89.2879 -5.38099 1.231 0
M  V30 981 H 89.7649 -4.38959 -0.145359 0
M  V30 982 H 90.3709 -3.98796 1.47789 0
M  V30 983 N 88.686 -0.835752 -1.33615 0
M  V30 984 C 89.933 -0.429959 -1.97883 0
M  V30 985 C 90.261 1.01006 -1.66217 0
M  V30 986 O 89.516 1.72047 -0.93265 0
M  V30 987 C 89.815 -0.593925 -3.52431 0
M  V30 988 C 89.481 -2.00158 -4.04039 0
M  V30 989 C 88.143 -2.38662 -4.17844 0
M  V30 990 C 90.495 -2.92117 -4.31644 0
M  V30 991 C 87.823 -3.68435 -4.56588 0
M  V30 992 C 90.175 -4.21368 -4.71838 0
M  V30 993 C 88.839 -4.59833 -4.83849 0
M  V30 994 H 88.109 -0.157333 -0.724104 0
M  V30 995 H 90.756 -1.06217 -1.59343 0
M  V30 996 H 89.061 0.121619 -3.91611 0
M  V30 997 H 90.758 -0.260282 -4.00154 0
M  V30 998 H 87.348 -1.69252 -3.93766 0
M  V30 999 H 91.532 -2.63608 -4.20505 0
M  V30 1000 H 86.788 -3.98046 -4.64079 0
M  V30 1001 H 90.962 -4.92703 -4.92155 0
M  V30 1002 H 88.589 -5.60438 -5.13627 0
M  V30 1003 N 90.1641 1.46063 -0.591896 0
M  V30 1004 C 91.0741 2.34192 0.13831 0
M  V30 1005 C 92.0901 1.50305 0.876608 0
M  V30 1006 O 93.2661 1.8315 0.837728 0
M  V30 1007 C 90.3311 3.27656 1.13326 0
M  V30 1008 C 89.3921 4.27445 0.39863 0
M  V30 1009 C 88.6251 5.16443 1.34618 0
M  V30 1010 O 88.8481 5.08553 2.58321 0
M  V30 1011 O 87.7821 5.95843 0.851768 0
M  V30 1012 H 91.6081 2.98002 -0.58552 0
M  V30 1013 H 89.1931 1.45188 -0.352239 0
M  V30 1014 H 91.0751 3.85291 1.70671 0
M  V30 1015 H 89.7501 2.6643 1.83839 0
M  V30 1016 H 88.6571 3.73471 -0.216895 0
M  V30 1017 H 89.9901 4.91482 -0.265709 0
M  V30 1018 N 91.6422 0.330177 1.54103 0
M  V30 1019 C 92.5752 -0.575477 2.20825 0
M  V30 1020 C 93.5532 -1.11064 1.18758 0
M  V30 1021 O 94.7372 -1.17341 1.47524 0
M  V30 1022 C 91.8642 -1.79032 2.87516 0
M  V30 1023 C 90.9102 -1.38581 4.03358 0
M  V30 1024 S 91.7432 -0.416911 5.33875 0
M  V30 1025 C 92.8992 -1.63889 6.04062 0
M  V30 1026 H 93.1322 -0.00872114 2.97299 0
M  V30 1027 H 90.6652 0.114254 1.53977 0
M  V30 1028 H 92.6232 -2.48734 3.2656 0
M  V30 1029 H 91.2842 -2.32827 2.10832 0
M  V30 1030 H 90.4772 -2.29123 4.48908 0
M  V30 1031 H 90.0792 -0.768419 3.66021 0
M  V30 1032 H 92.3712 -2.57536 6.26643 0
M  V30 1033 H 93.3142 -1.22542 6.97416 0
M  V30 1034 H 93.7222 -1.82887 5.34053 0
M  V30 1035 N 93.1203 -1.57491 0.0584922 0
M  V30 1036 C 94.0833 -2.1085 -0.898617 0
M  V30 1037 C 95.0833 -1.02964 -1.23511 0
M  V30 1038 O 96.2733 -1.29007 -1.17059 0
M  V30 1039 C 93.4053 -2.59881 -2.20623 0
M  V30 1040 H 94.5983 -2.96715 -0.435936 0
M  V30 1041 H 92.1513 -1.55141 -0.190023 0
M  V30 1042 H 92.8863 -1.77431 -2.71457 0
M  V30 1043 H 92.6713 -3.38727 -1.97501 0
M  V30 1044 H 94.1613 -3.01285 -2.89166 0
M  V30 1045 N 94.5984 0.214957 -1.56127 0
M  V30 1046 C 95.5614 1.24997 -1.92116 0
M  V30 1047 C 96.5614 1.39467 -0.800344 0
M  V30 1048 O 97.7514 1.37619 -1.06802 0
M  V30 1049 C 94.8834 2.62271 -2.17777 0
M  V30 1050 H 96.0764 0.942875 -2.84693 0
M  V30 1051 H 93.6294 0.455654 -1.49511 0
M  V30 1052 H 94.3644 2.98068 -1.27773 0
M  V30 1053 H 94.1494 2.53143 -2.99434 0
M  V30 1054 H 95.6394 3.36946 -2.46693 0
M  V30 1055 N 96.0765 1.50051 0.48192 0
M  V30 1056 C 97.3225 1.60736 1.2366 0
M  V30 1057 C 97.6555 0.301786 1.91841 0
M  V30 1058 O 96.9305 -0.696025 1.8162 0
M  V30 1059 C 97.2135 2.78009 2.28874 0
M  V30 1060 C 97.0665 4.18416 1.65069 0
M  V30 1061 C 98.3855 2.90867 3.30279 0
M  V30 1062 H 95.5045 0.585031 0.448228 0
M  V30 1063 H 98.1465 1.82402 0.531946 0
M  V30 1064 H 96.2965 2.59667 2.88973 0
M  V30 1065 H 97.9685 4.48322 1.0865 0
M  V30 1066 H 96.2115 4.23177 0.954148 0
M  V30 1067 H 96.8825 4.96381 2.41474 0
M  V30 1068 H 99.3585 3.07623 2.80191 0
M  V30 1069 H 98.2345 3.74566 4.01238 0
M  V30 1070 H 98.4955 2.01021 3.93755 0
M  V30 1071 N 97.5546 -0.734337 1.39446 0
M  V30 1072 C 98.4876 -1.85715 1.32609 0
M  V30 1073 C 99.4656 -1.6137 0.199636 0
M  V30 1074 O 100.65 -1.84626 0.380195 0
M  V30 1075 C 97.7766 -3.21709 1.05929 0
M  V30 1076 C 96.8226 -3.64913 2.20773 0
M  V30 1077 S 97.6556 -3.74203 3.83056 0
M  V30 1078 C 98.8116 -5.12986 3.58603 0
M  V30 1079 H 99.0446 -1.91232 2.27635 0
M  V30 1080 H 96.5776 -0.899263 1.25509 0
M  V30 1081 H 98.5356 -4.00236 0.912203 0
M  V30 1082 H 97.1966 -3.13848 0.125883 0
M  V30 1083 H 96.3896 -4.63606 1.97699 0
M  V30 1084 H 95.9916 -2.93593 2.31688 0
M  V30 1085 H 98.2836 -5.99339 3.15909 0
M  V30 1086 H 99.2266 -5.41088 4.5676 0
M  V30 1087 H 99.6346 -4.82694 2.9269 0
M  V30 1088 N 99.0327 -1.24633 -0.964593 0
M  V30 1089 C 100.258 -1.11596 -1.74818 0
M  V30 1090 C 100.683 0.32723 -1.85232 0
M  V30 1091 O 100.041 1.23695 -1.32549 0
M  V30 1092 C 100.089 -1.76397 -3.1451 0
M  V30 1093 O 99.1927 -1.03685 -3.99153 0
M  V30 1094 H 98.5337 -0.390196 -0.537255 0
M  V30 1095 H 101.064 -1.65002 -1.20977 0
M  V30 1096 H 101.074 -1.8228 -3.65018 0
M  V30 1097 H 99.7487 -2.81401 -3.06246 0
M  V30 1098 H 98.3257 -1.05611 -3.57632 0
M  V30 1099 N 100.511 1.16574 -1.06058 0
M  V30 1100 C 101.443 2.2045 -0.627239 0
M  V30 1101 C 102.456 1.59752 0.313534 0
M  V30 1102 O 103.645 1.78192 0.104896 0
M  V30 1103 C 100.745 3.3875 0.100974 0
M  V30 1104 C 99.9178 4.29008 -0.852687 0
M  V30 1105 C 98.9768 5.25944 -0.164152 0
M  V30 1106 O 98.0028 5.63535 -0.801047 0
M  V30 1107 N 99.2048 5.70075 1.09518 0
M  V30 1108 H 101.97 2.58249 -1.52077 0
M  V30 1109 H 99.5308 1.3156 -0.943594 0
M  V30 1110 H 101.523 4.00638 0.57194 0
M  V30 1111 H 100.093 2.99476 0.89628 0
M  V30 1112 H 99.3128 3.64419 -1.50308 0
M  V30 1113 H 100.601 4.86195 -1.49972 0
M  V30 1114 H 99.9988 5.41624 1.6328 0
M  V30 1115 H 98.5558 6.34067 1.51006 0
M  V30 1116 N 101.989 0.842826 1.3317 0
M  V30 1117 C 102.939 0.250877 2.26616 0
M  V30 1118 C 103.923 -0.596427 1.49437 0
M  V30 1119 O 105.115 -0.447747 1.71243 0
M  V30 1120 C 102.244 -0.569779 3.38539 0
M  V30 1121 C 101.33 0.289254 4.23112 0
M  V30 1122 N 101.721 1.36987 4.86897 0
M  V30 1123 C 100.019 0.0769631 4.45934 0
M  V30 1124 C 100.72 1.89737 5.49886 0
M  V30 1125 N 99.6959 1.19827 5.30229 0
M  V30 1126 H 103.498 1.07718 2.73448 0
M  V30 1127 H 101.012 0.687693 1.47121 0
M  V30 1128 H 103.009 -1.01018 4.04476 0
M  V30 1129 H 101.669 -1.39401 2.93253 0
M  V30 1130 H 102.68 1.75277 4.87338 0
M  V30 1131 H 99.3569 -0.713507 4.11358 0
M  V30 1132 H 100.747 2.80253 6.10662 0
M  V30 1133 N 103.467 -1.45747 0.599634 0
M  V30 1134 C 104.692 -2.07178 0.0960198 0
M  V30 1135 C 105.117 -1.44268 -1.207 0
M  V30 1136 O 104.475 -0.532503 -1.73303 0
M  V30 1137 C 104.523 -3.60579 -0.0385348 0
M  V30 1138 O 103.627 -3.97713 -1.0908 0
M  V30 1139 H 102.968 -0.660251 0.0704593 0
M  V30 1140 H 105.498 -1.87124 0.827385 0
M  V30 1141 H 105.508 -4.07298 -0.239304 0
M  V30 1142 H 104.183 -4.05756 0.912947 0
M  V30 1143 H 102.76 -3.62678 -0.867135 0
M  V30 1144 N 104.945 -0.338344 -1.53925 0
M  V30 1145 C 105.878 0.563758 -2.21127 0
M  V30 1146 C 106.856 1.10433 -1.19345 0
M  V30 1147 O 108.04 1.16557 -1.48144 0
M  V30 1148 C 105.167 1.77505 -2.88461 0
M  V30 1149 C 104.213 1.3644 -4.04087 0
M  V30 1150 S 105.046 0.388593 -5.34088 0
M  V30 1151 C 106.202 1.60683 -6.04923 0
M  V30 1152 H 106.435 -0.00704546 -2.97299 0
M  V30 1153 H 103.968 -0.122418 -1.53914 0
M  V30 1154 H 105.926 2.46999 -3.27875 0
M  V30 1155 H 104.587 2.31706 -2.12064 0
M  V30 1156 H 103.78 2.26739 -4.50117 0
M  V30 1157 H 103.382 0.748998 -3.66423 0
M  V30 1158 H 105.674 2.54209 -6.28 0
M  V30 1159 H 106.617 1.18842 -6.98056 0
M  V30 1160 H 107.025 1.80052 -5.35015 0
M  V30 1161 N 106.423 1.57458 -0.0668435 0
M  V30 1162 C 107.67 1.93301 0.603406 0
M  V30 1163 C 107.998 0.946486 1.69917 0
M  V30 1164 O 107.253 -0.0387021 1.95662 0
M  V30 1165 C 107.552 3.35784 1.22409 0
M  V30 1166 C 107.218 4.50179 0.254955 0
M  V30 1167 C 105.88 4.81199 -0.0116746 0
M  V30 1168 C 108.232 5.19598 -0.408338 0
M  V30 1169 C 105.56 5.78978 -0.94877 0
M  V30 1170 C 107.912 6.18381 -1.33372 0
M  V30 1171 C 106.576 6.47821 -1.60887 0
M  V30 1172 H 105.846 0.707338 0.220802 0
M  V30 1173 H 108.493 1.91012 -0.136665 0
M  V30 1174 H 106.798 3.34515 2.03978 0
M  V30 1175 H 108.495 3.60804 1.74989 0
M  V30 1176 H 105.085 4.25983 0.472954 0
M  V30 1177 H 109.269 4.95832 -0.215456 0
M  V30 1178 H 104.525 6.00115 -1.16925 0
M  V30 1179 H 108.699 6.71277 -1.85367 0
M  V30 1180 H 106.326 7.23399 -2.33661 0
M  V30 1181 N 107.901 -0.206675 1.56239 0
M  V30 1182 C 109.129 -0.945345 1.8404 0
M  V30 1183 C 109.544 -1.77336 0.647885 0
M  V30 1184 O 108.901 -1.78425 -0.383511 0
M  V30 1185 C 108.952 -1.8509 3.10522 0
M  V30 1186 O 108.673 -1.05634 4.25174 0
M  V30 1187 C 110.174 -2.70222 3.51418 0
M  V30 1188 H 107.394 -0.276372 0.61144 0
M  V30 1189 H 109.938 -0.217417 2.03341 0
M  V30 1190 H 108.093 -2.53259 2.93153 0
M  V30 1191 H 108.507 -1.67238 4.97124 0
M  V30 1192 H 109.981 -3.29438 4.42916 0
M  V30 1193 H 110.458 -3.43358 2.73864 0
M  V30 1194 H 111.064 -2.07443 3.71278 0
M  V30 1195 N 109.379 -1.50304 -0.473955 0
M  V30 1196 C 110.342 -1.6841 -1.55469 0
M  V30 1197 C 111.342 -0.554905 -1.50922 0
M  V30 1198 O 112.532 -0.821882 -1.53593 0
M  V30 1199 C 109.664 -1.70667 -2.95102 0
M  V30 1200 H 110.857 -2.64828 -1.40733 0
M  V30 1201 H 108.41 -1.39742 -0.700132 0
M  V30 1202 H 109.145 -0.75932 -3.15285 0
M  V30 1203 H 108.93 -2.52698 -2.9981 0
M  V30 1204 H 110.42 -1.8664 -3.73571 0
M  V30 1205 N 110.857 0.726932 -1.39834 0
M  V30 1206 C 112.106 1.48214 -1.36805 0
M  V30 1207 C 112.419 1.95576 0.0305291 0
M  V30 1208 O 113.625 2.7088 0.183417 0
M  V30 1209 C 112.081 2.67854 -2.40379 0
M  V30 1210 C 111.689 2.27408 -3.85992 0
M  V30 1211 C 113.433 3.45641 -2.46439 0
M  V30 1212 C 111.34 3.43819 -4.81189 0
M  V30 1213 H 110.27 0.556606 -0.508631 0
M  V30 1214 H 112.921 0.792216 -1.65518 0
M  V30 1215 H 111.303 3.3896 -2.04749 0
M  V30 1216 H 112.477 1.63795 -4.30706 0
M  V30 1217 H 110.792 1.62692 -3.83302 0
M  V30 1218 H 113.389 4.32244 -3.14753 0
M  V30 1219 H 113.732 3.88669 -1.49139 0
M  V30 1220 H 114.265 2.8157 -2.81004 0
M  V30 1221 H 111.004 3.05834 -5.79781 0
M  V30 1222 H 110.524 4.06385 -4.41148 0
M  V30 1223 H 112.203 4.10043 -5.00474 0
M  V30 1224 N 112.336 1.25143 0.95797 0
M  V30 1225 C 113.286 1.01924 2.0395 0
M  V30 1226 C 114.27 -0.0427175 1.60843 0
M  V30 1227 O 115.462 0.17221 1.7616 0
M  V30 1228 C 112.591 0.636373 3.3735 0
M  V30 1229 C 111.677 1.73492 3.8699 0
M  V30 1230 N 112.068 2.96945 4.0946 0
M  V30 1231 C 110.366 1.61467 4.15746 0
M  V30 1232 C 111.067 3.68228 4.50315 0
M  V30 1233 N 110.043 2.95833 4.56053 0
M  V30 1234 H 113.845 1.95653 2.19311 0
M  V30 1235 H 111.359 1.15413 1.14253 0
M  V30 1236 H 113.356 0.451233 4.14451 0
M  V30 1237 H 112.016 -0.293621 3.2337 0
M  V30 1238 H 113.027 3.33025 3.96629 0
M  V30 1239 H 109.704 0.753394 4.10646 0
M  V30 1240 H 111.094 4.74178 4.76031 0
M  V30 1241 N 113.814 -1.1601 1.06675 0
M  V30 1242 C 114.761 -2.20525 0.680967 0
M  V30 1243 C 115.731 -1.62904 -0.324283 0
M  V30 1244 O 116.916 -1.89615 -0.212294 0
M  V30 1245 C 114.056 -3.45013 0.0776551 0
M  V30 1246 C 113.169 -4.16863 1.13355 0
M  V30 1247 C 112.304 -5.2888 0.49597 0
M  V30 1248 C 111.343 -5.92537 1.53513 0
M  V30 1249 N 110.48 -6.96038 0.920631 0
M  V30 1250 H 115.32 -2.52876 1.57663 0
M  V30 1251 H 112.857 -1.24199 0.788223 0
M  V30 1252 H 114.815 -4.16193 -0.289704 0
M  V30 1253 H 113.445 -3.132 -0.781393 0
M  V30 1254 H 112.497 -3.44248 1.61857 0
M  V30 1255 H 113.809 -4.60294 1.92174 0
M  V30 1256 H 112.963 -6.06653 0.0758604 0
M  V30 1257 H 111.702 -4.86622 -0.324062 0
M  V30 1258 H 110.707 -5.13482 1.9651 0
M  V30 1259 H 111.932 -6.36873 2.35733 0
M  V30 1260 H 109.878 -6.55888 0.12138 0
M  V30 1261 H 109.795 -7.3786 1.64616 0
M  V30 1262 H 111.063 -7.77725 0.525795 0
M  V30 1263 N 115.292 -0.849877 -1.32721 0
M  V30 1264 C 116.242 -0.262892 -2.26479 0
M  V30 1265 C 117.226 0.588493 -1.49752 0
M  V30 1266 O 118.418 0.438659 -1.71478 0
M  V30 1267 C 115.547 0.551818 -3.38836 0
M  V30 1268 C 114.633 -0.311689 -4.22953 0
M  V30 1269 N 115.024 -1.39567 -4.86163 0
M  V30 1270 C 113.322 -0.100611 -4.45887 0
M  V30 1271 C 114.023 -1.92651 -5.48872 0
M  V30 1272 N 112.999 -1.22637 -5.29586 0
M  V30 1273 H 116.801 -1.09166 -2.72873 0
M  V30 1274 H 114.315 -0.695486 -1.46754 0
M  V30 1275 H 116.312 0.988713 -4.05006 0
M  V30 1276 H 114.972 1.37844 -2.93988 0
M  V30 1277 H 115.983 -1.77859 -4.86402 0
M  V30 1278 H 112.66 0.691681 -4.11731 0
M  V30 1279 H 114.05 -2.83487 -6.09167 0
M  V30 1280 N 116.77 1.45427 -0.607355 0
M  V30 1281 C 118 2.06314 -0.108656 0
M  V30 1282 C 118.408 1.45269 1.21217 0
M  V30 1283 O 117.751 0.561115 1.74921 0
M  V30 1284 C 117.813 3.59345 0.105618 0
M  V30 1285 C 117.477 4.42723 -1.13337 0
M  V30 1286 C 118.474 4.77715 -2.05145 0
M  V30 1287 C 116.159 4.83478 -1.36213 0
M  V30 1288 C 118.153 5.52317 -3.18158 0
M  V30 1289 C 115.84 5.57835 -2.49527 0
M  V30 1290 C 116.838 5.92171 -3.40327 0
M  V30 1291 O 116.526 6.65019 -4.51669 0
M  V30 1292 H 116.258 0.672782 -0.0658842 0
M  V30 1293 H 118.812 1.87664 -0.834945 0
M  V30 1294 H 117.042 3.76394 0.886796 0
M  V30 1295 H 118.731 4.02076 0.555886 0
M  V30 1296 H 119.497 4.46787 -1.88697 0
M  V30 1297 H 115.376 4.56188 -0.664362 0
M  V30 1298 H 118.92 5.79036 -3.89054 0
M  V30 1299 H 114.817 5.88177 -2.65928 0
M  V30 1300 H 115.585 6.83469 -4.50348 0
M  V30 1301 N 118.248 0.346503 1.53744 0
M  V30 1302 C 119.473 -0.253074 2.0585 0
M  V30 1303 C 119.898 -1.43202 1.21962 0
M  V30 1304 O 119.256 -1.79783 0.234073 0
M  V30 1305 C 119.304 -0.643193 3.54817 0
M  V30 1306 O 118.408 -1.74286 3.73762 0
M  V30 1307 H 117.749 -0.0413583 0.662711 0
M  V30 1308 H 120.279 0.501574 1.98357 0
M  V30 1309 H 120.289 -0.919526 3.97503 0
M  V30 1310 H 118.964 0.218966 4.15323 0
M  V30 1311 H 117.541 -1.46356 3.42979 0
M  V30 1312 N 119.726 -1.57421 0.075193 0
M  V30 1313 C 120.656 -2.15942 -0.888324 0
M  V30 1314 C 121.637 -1.08737 -1.30806 0
M  V30 1315 O 122.822 -1.36787 -1.37851 0
M  V30 1316 C 119.952 -2.72379 -2.1547 0
M  V30 1317 C 118.906 -3.8478 -1.87425 0
M  V30 1318 C 118.232 -4.27834 -3.20721 0
M  V30 1319 C 119.532 -5.08869 -1.17684 0
M  V30 1320 H 121.226 -2.96705 -0.400799 0
M  V30 1321 H 118.772 -1.42723 -0.191342 0
M  V30 1322 H 120.725 -3.11965 -2.83295 0
M  V30 1323 H 119.449 -1.88841 -2.6647 0
M  V30 1324 H 118.108 -3.45703 -1.22004 0
M  V30 1325 H 117.756 -3.41214 -3.6957 0
M  V30 1326 H 117.456 -5.03605 -3.02746 0
M  V30 1327 H 118.98 -4.70039 -3.89738 0
M  V30 1328 H 120.394 -5.4575 -1.75584 0
M  V30 1329 H 118.791 -5.8994 -1.09956 0
M  V30 1330 H 119.861 -4.84648 -0.156453 0
M  V30 1331 N 121.204 0.198386 -1.56346 0
M  V30 1332 C 122.481 0.944982 -1.71258 0
M  V30 1333 C 122.861 2.0151 -0.629048 0
M  V30 1334 O 122.209 2.25639 0.360473 0
M  V30 1335 C 122.419 1.5344 -3.1346 0
M  V30 1336 C 123.767 2.01778 -3.73591 0
M  V30 1337 O 124.791 1.63288 -3.16568 0
M  V30 1338 O 123.65 2.72594 -4.73661 0
M  V30 1339 H 120.744 0.442939 -0.69838 0
M  V30 1340 H 123.29 0.188342 -1.68652 0
M  V30 1341 H 122.062 0.762869 -3.83792 0
M  V30 1342 H 121.685 2.35596 -3.20282 0
M  V30 1343 N 122.682 1.50554 0.465978 0
M  V30 1344 C 123.959 1.5232 1.22712 0
M  V30 1345 C 124.339 0.270807 2.09356 0
M  V30 1346 O 123.687 -0.745541 2.15995 0
M  V30 1347 C 123.897 2.82175 2.05374 0
M  V30 1348 C 125.245 3.33033 2.6339 0
M  V30 1349 O 126.269 2.83531 2.15612 0
M  V30 1350 O 125.128 4.19336 3.50456 0
M  V30 1351 H 122.222 0.611183 0.557122 0
M  V30 1352 H 124.768 1.62847 0.477381 0
M  V30 1353 H 123.54 3.64797 1.41558 0
M  V30 1354 H 123.163 2.74675 2.87471 0
M  V30 1355 N 124.16 -0.719506 1.40217 0
M  V30 1356 C 125.406 -1.48034 1.39491 0
M  V30 1357 C 125.761 -1.92399 -0.00443536 0
M  V30 1358 O 125.054 -1.64993 -0.974061 0
M  V30 1359 C 125.248 -2.72271 2.31524 0
M  V30 1360 C 125.077 -2.40055 3.80268 0
M  V30 1361 C 123.847 -2.31588 4.49105 0
M  V30 1362 C 126.045 -2.04581 4.71859 0
M  V30 1363 N 124.027 -1.92006 5.83101 0
M  V30 1364 C 125.398 -1.75568 5.94623 0
M  V30 1365 C 127.453 -1.91183 4.59732 0
M  V30 1366 C 126.156 -1.34505 7.06612 0
M  V30 1367 C 128.182 -1.51524 5.71659 0
M  V30 1368 C 127.544 -1.23406 6.93506 0
M  V30 1369 H 123.643 -0.539927 0.565688 0
M  V30 1370 H 126.227 -0.834764 1.75897 0
M  V30 1371 H 124.398 -3.34584 1.97251 0
M  V30 1372 H 126.13 -3.38584 2.21682 0
M  V30 1373 H 122.885 -2.49199 4.02737 0
M  V30 1374 H 123.309 -1.74764 6.54054 0
M  V30 1375 H 127.951 -2.11584 3.66049 0
M  V30 1376 H 125.669 -1.12846 8.00182 0
M  V30 1377 H 129.255 -1.41741 5.6427 0
M  V30 1378 H 128.135 -0.931788 7.78645 0
M  V30 1379 N 125.638 -1.25649 -0.95132 0
M  V30 1380 C 126.585 -1.06323 -2.04851 0
M  V30 1381 C 127.555 0.0286491 -1.66075 0
M  V30 1382 O 128.74 -0.12917 -1.90362 0
M  V30 1383 C 125.88 -0.691529 -3.381 0
M  V30 1384 C 124.993 -1.85861 -3.89974 0
M  V30 1385 C 124.128 -1.43096 -5.11563 0
M  V30 1386 C 123.167 -2.56696 -5.55674 0
M  V30 1387 N 122.304 -2.14684 -6.68472 0
M  V30 1388 H 127.144 -2.00222 -2.20715 0
M  V30 1389 H 124.681 -0.997027 -1.08156 0
M  V30 1390 H 126.639 -0.456963 -4.1469 0
M  V30 1391 H 125.269 0.210474 -3.22113 0
M  V30 1392 H 124.321 -2.20639 -3.09875 0
M  V30 1393 H 125.633 -2.71161 -4.18657 0
M  V30 1394 H 124.787 -1.15624 -5.9558 0
M  V30 1395 H 123.526 -0.548722 -4.84603 0
M  V30 1396 H 122.531 -2.84909 -4.7022 0
M  V30 1397 H 123.756 -3.45503 -5.8464 0
M  V30 1398 H 121.702 -1.28881 -6.43215 0
M  V30 1399 H 121.619 -2.9353 -6.96689 0
M  V30 1400 H 122.887 -1.90397 -7.5589 0
M  V30 1401 N 127.117 1.15442 -1.07289 0
M  V30 1402 C 128.047 2.22312 -0.714107 0
M  V30 1403 C 129.028 1.67467 0.298155 0
M  V30 1404 O 130.213 1.93445 0.171048 0
M  V30 1405 C 127.343 3.47124 -0.110448 0
M  V30 1406 C 126.297 4.14926 -1.04979 0
M  V30 1407 C 125.623 5.33807 -0.308924 0
M  V30 1408 C 126.923 4.64762 -2.38314 0
M  V30 1409 H 128.617 2.5258 -1.6076 0
M  V30 1410 H 126.163 1.21404 -0.77441 0
M  V30 1411 H 128.116 4.21124 0.152482 0
M  V30 1412 H 126.84 3.16187 0.81812 0
M  V30 1413 H 125.499 3.42866 -1.29764 0
M  V30 1414 H 125.147 4.99126 0.623084 0
M  V30 1415 H 124.847 5.80113 -0.935036 0
M  V30 1416 H 126.371 6.10576 -0.0537771 0
M  V30 1417 H 127.785 5.30292 -2.1786 0
M  V30 1418 H 126.182 5.21728 -2.96514 0
M  V30 1419 H 127.252 3.80434 -3.00663 0
M  V30 1420 N 128.595 0.856903 1.32268 0
M  V30 1421 C 129.842 0.461386 1.97174 0
M  V30 1422 C 130.17 -0.983491 1.67803 0
M  V30 1423 O 129.425 -1.70541 0.959903 0
M  V30 1424 C 129.724 0.649919 3.51441 0
M  V30 1425 C 129.39 2.0656 4.00804 0
M  V30 1426 C 128.052 2.45279 4.13995 0
M  V30 1427 C 130.404 2.98947 4.26943 0
M  V30 1428 C 127.732 3.75653 4.50668 0
M  V30 1429 C 130.084 4.28822 4.65075 0
M  V30 1430 C 128.748 4.67472 4.76472 0
M  V30 1431 H 128.018 0.168833 0.72151 0
M  V30 1432 H 130.665 1.08739 1.57633 0
M  V30 1433 H 128.97 -0.0593018 3.91755 0
M  V30 1434 H 130.667 0.32391 3.9969 0
M  V30 1435 H 127.257 1.75495 3.91024 0
M  V30 1436 H 131.441 2.70265 4.16258 0
M  V30 1437 H 126.697 4.05379 4.57688 0
M  V30 1438 H 130.871 5.0047 4.84255 0
M  V30 1439 H 128.498 5.68539 5.04646 0
M  V30 1440 N 130.073 -1.45103 0.615059 0
M  V30 1441 C 131.036 -2.29025 -0.0895485 0
M  V30 1442 C 132.036 -1.40174 -0.787906 0
M  V30 1443 O 133.226 -1.62217 -0.634933 0
M  V30 1444 C 130.358 -3.21376 -1.13711 0
M  V30 1445 H 131.551 -2.92807 0.648382 0
M  V30 1446 H 129.104 -1.51749 0.374444 0
M  V30 1447 H 129.839 -2.6241 -1.90556 0
M  V30 1448 H 129.624 -3.86834 -0.640475 0
M  V30 1449 H 131.114 -3.84459 -1.63036 0
M  V30 1450 N 131.551 -0.354651 -1.53558 0
M  V30 1451 C 132.779 0.239515 -2.05509 0
M  V30 1452 C 133.194 1.4333 -1.2289 0
M  V30 1453 O 132.551 1.80538 -0.266899 0
M  V30 1454 C 132.602 0.643719 -3.55723 0
M  V30 1455 O 132.323 -0.502602 -4.35207 0
M  V30 1456 C 133.824 1.29743 -4.23889 0
M  V30 1457 H 131.044 0.0442697 -0.669538 0
M  V30 1458 H 133.588 -0.509856 -1.98042 0
M  V30 1459 H 131.743 1.34302 -3.63376 0
M  V30 1460 H 132.157 -0.178172 -5.24197 0
M  V30 1461 H 133.631 1.53091 -5.30346 0
M  V30 1462 H 134.108 2.25441 -3.76926 0
M  V30 1463 H 134.714 0.639865 -4.20459 0
M  V30 1464 N 133.029 1.57378 -0.0835403 0
M  V30 1465 C 133.977 2.14602 0.89714 0
M  V30 1466 C 134.971 1.08589 1.30018 0
M  V30 1467 O 136.177 1.26952 1.27606 0
M  V30 1468 H 132.552 0.686346 0.3073 0
M  V30 1469 H 134.523 2.95845 0.38969 0
M  V30 1470 C 133.272 2.73188 2.15089 0
M  V30 1471 H 132.595 3.54442 1.84962 0
M  V30 1472 H 134.035 3.1681 2.81793 0
M  V30 1473 C 132.494 1.68517 2.91725 0
M  V30 1474 O 133.024 1.11718 3.85852 0
M  V30 1475 N 131.23 1.39277 2.55049 0
M  V30 1476 H 130.777 1.85655 1.78577 0
M  V30 1477 H 130.735 0.694791 3.06627 0
M  V30 1478 N 134.507 -0.190092 1.56449 0
M  V30 1479 C 135.457 -1.23977 1.91347 0
M  V30 1480 C 136.441 -1.40747 0.779693 0
M  V30 1481 O 137.633 -1.43033 1.04262 0
M  V30 1482 C 134.762 -2.58347 2.26079 0
M  V30 1483 C 133.848 -2.4535 3.45925 0
M  V30 1484 N 134.239 -2.02039 4.63696 0
M  V30 1485 C 132.537 -2.76229 3.50162 0
M  V30 1486 C 133.238 -2.01053 5.4585 0
M  V30 1487 N 132.214 -2.42747 4.8639 0
M  V30 1488 H 136.016 -0.896318 2.79899 0
M  V30 1489 H 133.53 -0.398496 1.57435 0
M  V30 1490 H 135.527 -3.34173 2.49267 0
M  V30 1491 H 134.187 -2.93512 1.38856 0
M  V30 1492 H 135.198 -1.7267 4.88268 0
M  V30 1493 H 131.875 -3.15556 2.73369 0
M  V30 1494 H 133.265 -1.69426 6.50188 0
M  V30 1495 N 135.985 -1.50799 -0.457987 0
M  V30 1496 C 137.396 -1.55152 -1.0385 0
M  V30 1497 C 137.747 -0.362719 -1.92818 0
M  V30 1498 O 136.872 0.522915 -2.09987 0
M  V30 1499 C 137.467 -2.81173 -1.89017 0
M  V30 1500 C 136.026 -2.88164 -2.42154 0
M  V30 1501 C 135.173 -2.49591 -1.20829 0
M  V30 1502 H 138.124 -1.56874 -0.240068 0
M  V30 1503 H 138.145 -2.63769 -2.74238 0
M  V30 1504 H 137.657 -3.67677 -1.24238 0
M  V30 1505 H 135.758 -2.06042 -3.10447 0
M  V30 1506 H 135.871 -3.91356 -2.76364 0
M  V30 1507 H 134.235 -2.02322 -1.54719 0
M  V30 1508 H 135.018 -3.38418 -0.576927 0
M  V30 1509 N 137.463 0.71206 -1.40597 0
M  V30 1510 C 138.373 1.8562 -1.43466 0
M  V30 1511 C 139.389 1.70902 -0.326902 0
M  V30 1512 O 140.565 1.93105 -0.572043 0
M  V30 1513 C 137.63 3.21451 -1.29884 0
M  V30 1514 C 136.691 3.48398 -2.50833 0
M  V30 1515 C 135.924 4.77749 -2.3789 0
M  V30 1516 O 136.147 5.53089 -1.39459 0
M  V30 1517 O 135.081 5.05111 -3.27333 0
M  V30 1518 H 138.907 1.86155 -2.39958 0
M  V30 1519 H 136.492 0.86295 -1.21957 0
M  V30 1520 H 138.374 4.02579 -1.24531 0
M  V30 1521 H 137.049 3.21636 -0.364997 0
M  V30 1522 H 135.956 2.67265 -2.61763 0
M  V30 1523 H 137.289 3.53014 -3.4299 0
M  V30 1524 N 138.941 1.26152 0.944643 0
M  V30 1525 C 140.181 1.12708 1.70517 0
M  V30 1526 C 140.545 -0.324727 1.89234 0
M  V30 1527 O 141.746 -0.581211 2.62441 0
M  V30 1528 C 140.017 1.8713 3.04495 0
M  V30 1529 S 141.576 1.89698 3.95677 0
M  V30 1530 H 138.394 0.402665 0.585988 0
M  V30 1531 H 140.996 1.59821 1.12594 0
M  V30 1532 H 139.7 2.91833 2.88551 0
M  V30 1533 H 139.231 1.40444 3.67477 0
M  V30 1534 H 141.246 0.981198 4.86402 0
M  V30 1535 N 140.419 -1.14872 1.07899 0
M  V30 1536 C 141.349 -2.2193 0.725887 0
M  V30 1537 C 142.33 -1.67622 -0.28927 0
M  V30 1538 O 143.515 -1.93533 -0.160787 0
M  V30 1539 C 140.645 -3.47061 0.128856 0
M  V30 1540 C 139.599 -4.14363 1.07178 0
M  V30 1541 C 138.925 -5.33636 0.337229 0
M  V30 1542 C 140.225 -4.63492 2.40775 0
M  V30 1543 H 141.919 -2.51724 1.62097 0
M  V30 1544 H 139.465 -1.20991 0.780838 0
M  V30 1545 H 141.418 -4.21199 -0.130147 0
M  V30 1546 H 140.142 -3.16617 -0.80134 0
M  V30 1547 H 138.801 -3.42173 1.3158 0
M  V30 1548 H 138.449 -4.99449 -0.596606 0
M  V30 1549 H 138.149 -5.79609 0.965788 0
M  V30 1550 H 139.673 -6.10539 0.0861567 0
M  V30 1551 H 141.087 -5.2913 2.20669 0
M  V30 1552 H 139.484 -5.20148 2.99276 0
M  V30 1553 H 140.554 -3.78834 3.02676 0
M  V30 1554 N 141.898 -0.863906 -1.31812 0
M  V30 1555 C 142.83 -0.272485 -2.27575 0
M  V30 1556 C 143.843 0.56104 -1.52827 0
M  V30 1557 O 145.032 0.384021 -1.7432 0
M  V30 1558 C 142.132 0.63283 -3.32939 0
M  V30 1559 C 141.305 -0.166902 -4.37081 0
M  V30 1560 C 140.364 0.665608 -5.21973 0
M  V30 1561 O 139.39 0.0958091 -5.69119 0
M  V30 1562 N 140.592 1.9787 -5.45736 0
M  V30 1563 H 143.357 -1.0954 -2.78964 0
M  V30 1564 H 140.918 -0.724791 -1.4477 0
M  V30 1565 H 142.91 1.19532 -3.86645 0
M  V30 1566 H 141.48 1.35642 -2.81638 0
M  V30 1567 H 140.7 -0.910838 -3.83533 0
M  V30 1568 H 141.988 -0.715874 -5.03739 0
M  V30 1569 H 141.386 2.46484 -5.09178 0
M  V30 1570 H 139.943 2.48911 -6.024 0
M  V30 1571 N 143.376 1.44774 -0.622745 0
M  V30 1572 C 144.324 2.32387 0.0994683 0
M  V30 1573 C 145.318 1.46859 0.844326 0
M  V30 1574 O 146.524 1.63254 0.758174 0
M  V30 1575 H 142.899 0.750273 0.0509291 0
M  V30 1576 H 144.87 2.91062 -0.65767 0
M  V30 1577 C 143.619 3.30723 1.07319 0
M  V30 1578 H 142.942 3.96541 0.509462 0
M  V30 1579 H 144.382 3.94725 1.54817 0
M  V30 1580 C 142.841 2.59021 2.15429 0
M  V30 1581 O 143.371 2.38286 3.23393 0
M  V30 1582 N 141.577 2.189 1.91131 0
M  V30 1583 H 141.124 2.35964 1.03337 0
M  V30 1584 H 141.082 1.71251 2.63668 0
M  V30 1585 N 144.854 0.36279 1.53368 0
M  V30 1586 C 146.1 -0.228113 2.01513 0
M  V30 1587 C 146.433 -1.48648 1.2497 0
M  V30 1588 O 145.708 -1.91459 0.342616 0
M  V30 1589 C 145.991 -0.522884 3.56284 0
M  V30 1590 C 145.844 0.74892 4.43521 0
M  V30 1591 C 147.163 -1.32461 4.19693 0
M  V30 1592 H 144.282 -0.0814343 0.732487 0
M  V30 1593 H 146.924 0.48713 1.83649 0
M  V30 1594 H 145.074 -1.1322 3.71636 0
M  V30 1595 H 146.746 1.38648 4.39971 0
M  V30 1596 H 144.989 1.36986 4.11603 0
M  V30 1597 H 145.66 0.497667 5.49752 0
M  V30 1598 H 148.136 -0.809203 4.08156 0
M  V30 1599 H 147.012 -1.49961 5.28018 0
M  V30 1600 H 147.273 -2.33232 3.75573 0
M  V30 1601 N 146.332 -1.57332 0.0918853 0
M  V30 1602 C 147.295 -2.12708 -0.85369 0
M  V30 1603 C 148.295 -1.05561 -1.213 0
M  V30 1604 O 149.485 -1.31461 -1.14296 0
M  V30 1605 C 146.617 -2.64503 -2.15061 0
M  V30 1606 H 147.81 -2.97573 -0.3729 0
M  V30 1607 H 145.363 -1.55509 -0.157072 0
M  V30 1608 H 146.098 -1.83149 -2.67632 0
M  V30 1609 H 145.883 -3.4284 -1.90272 0
M  V30 1610 H 147.373 -3.07351 -2.82711 0
M  V30 1611 N 147.81 0.181792 -1.56548 0
M  V30 1612 C 149.056 0.901431 -1.81665 0
M  V30 1613 C 149.389 1.82347 -0.668075 0
M  V30 1614 O 148.664 1.91669 0.330615 0
M  V30 1615 C 148.947 1.70618 -3.17115 0
M  V30 1616 C 148.8 0.807964 -4.42484 0
M  V30 1617 C 150.119 2.67605 -3.49393 0
M  V30 1618 H 147.238 0.32627 -0.660846 0
M  V30 1619 H 149.88 0.168134 -1.89255 0
M  V30 1620 H 148.03 2.33133 -3.10775 0
M  V30 1621 H 149.702 0.19649 -4.60881 0
M  V30 1622 H 147.945 0.115411 -4.33646 0
M  V30 1623 H 148.616 1.40632 -5.33785 0
M  V30 1624 H 151.092 2.15218 -3.56118 0
M  V30 1625 H 149.968 3.20985 -4.45264 0
M  V30 1626 H 150.229 3.47298 -2.73563 0
M  V30 1627 N 149.288 1.51039 0.449983 0
M  V30 1628 C 150.513 1.6715 1.22783 0
M  V30 1629 C 150.938 0.363081 1.84563 0
M  V30 1630 O 150.296 -0.675433 1.68249 0
M  V30 1631 C 150.344 2.77985 2.29689 0
M  V30 1632 O 149.448 2.40707 3.34864 0
M  V30 1633 H 148.789 0.557746 0.360299 0
M  V30 1634 H 151.319 1.97535 0.533005 0
M  V30 1635 H 151.329 3.01693 2.74673 0
M  V30 1636 H 150.004 3.72935 1.84098 0
M  V30 1637 H 148.581 2.27523 2.95445 0
M  V30 1638 N 150.766 -0.704594 1.40972 0
M  V30 1639 C 151.991 -1.49858 1.43378 0
M  V30 1640 C 152.416 -1.88061 0.038184 0
M  V30 1641 O 151.774 -1.5402 -0.956425 0
M  V30 1642 C 151.822 -2.74333 2.34038 0
M  V30 1643 O 150.926 -3.7147 1.7912 0
M  V30 1644 H 150.267 -0.45139 0.486974 0
M  V30 1645 H 152.797 -0.866832 1.8533 0
M  V30 1646 H 152.807 -3.22741 2.49604 0
M  V30 1647 H 151.482 -2.45863 3.35446 0
M  V30 1648 H 150.059 -3.30363 1.72958 0
M  V30 1649 N 152.244 -1.26651 -0.937939 0
M  V30 1650 C 153.492 -1.12165 -1.68118 0
M  V30 1651 C 153.813 0.334983 -1.92101 0
M  V30 1652 O 153.083 1.23583 -1.52 0
M  V30 1653 H 151.663 -0.412093 -0.623048 0
M  V30 1654 H 154.325 -1.59027 -1.12678 0
M  V30 1655 H 153.421 -1.64289 -2.6536 0
M  V30 1656 N 153.722 1.14298 -1.08507 0
M  V30 1657 C 154.947 1.8976 -0.837001 0
M  V30 1658 C 155.372 1.78097 0.605228 0
M  V30 1659 O 154.73 1.12188 1.4242 0
M  V30 1660 C 154.778 3.37685 -1.26495 0
M  V30 1661 O 153.882 4.10281 -0.417514 0
M  V30 1662 H 153.223 0.590365 -0.303917 0
M  V30 1663 H 155.753 1.44672 -1.44676 0
M  V30 1664 H 155.763 3.88501 -1.24625 0
M  V30 1665 H 154.438 3.45492 -2.31534 0
M  V30 1666 H 153.015 3.69536 -0.499722 0
M  V30 1667 N 155.201 0.870884 1.31352 0
M  V30 1668 C 156.449 0.48132 1.96285 0
M  V30 1669 C 156.77 -0.969813 1.69173 0
M  V30 1670 O 156.04 -1.67998 1.00764 0
M  V30 1671 H 154.62 0.175002 0.726212 0
M  V30 1672 H 157.282 1.11087 1.60143 0
M  V30 1673 H 156.378 0.639825 3.05471 0
M  V30 1674 N 156.679 -1.44442 0.630414 0
M  V30 1675 C 157.611 -2.2892 -0.113347 0
M  V30 1676 C 158.624 -1.41243 -0.80959 0
M  V30 1677 O 159.813 -1.65402 -0.671156 0
M  V30 1678 C 156.913 -3.17594 -1.18266 0
M  V30 1679 C 156.086 -4.33682 -0.569073 0
M  V30 1680 C 155.145 -5.03397 -1.53226 0
M  V30 1681 O 154.171 -5.59438 -1.04967 0
M  V30 1682 N 155.373 -5.04783 -2.86661 0
M  V30 1683 H 158.138 -2.93392 0.611636 0
M  V30 1684 H 155.699 -1.54881 0.471523 0
M  V30 1685 H 157.691 -3.61097 -1.82732 0
M  V30 1686 H 156.261 -2.54876 -1.80988 0
M  V30 1687 H 155.481 -3.9338 0.254187 0
M  V30 1688 H 156.769 -5.08608 -0.139767 0
M  V30 1689 H 156.167 -4.60584 -3.28449 0
M  V30 1690 H 154.724 -5.52077 -3.46489 0
M  V30 1691 N 158.157 -0.370918 -1.53173 0
M  V30 1692 C 159.105 0.488101 -2.27421 0
M  V30 1693 C 160.099 1.07884 -1.30604 0
M  V30 1694 O 161.305 1.02143 -1.48212 0
M  V30 1695 H 157.68 0.176134 -0.731082 0
M  V30 1696 H 159.651 -0.159815 -2.97972 0
M  V30 1697 C 158.4 1.61306 -3.08019 0
M  V30 1698 H 157.723 1.1678 -3.82364 0
M  V30 1699 H 159.163 2.18872 -3.63141 0
M  V30 1700 C 157.622 2.55848 -2.19188 0
M  V30 1701 O 158.152 3.58799 -1.80626 0
M  V30 1702 N 156.358 2.2516 -1.83715 0
M  V30 1703 H 155.905 1.41476 -2.15273 0
M  V30 1704 H 155.863 2.8867 -1.24567 0
M  V30 1705 N 159.635 1.57281 -0.100228 0
M  V30 1706 C 160.912 1.86014 0.604812 0
M  V30 1707 C 161.292 0.998025 1.86018 0
M  V30 1708 O 160.64 0.0718184 2.28387 0
M  V30 1709 C 160.85 3.36784 0.915278 0
M  V30 1710 C 162.198 4.04957 1.27651 0
M  V30 1711 O 163.222 3.41695 1.00613 0
M  V30 1712 O 162.081 5.16593 1.7831 0
M  V30 1713 H 159.175 0.76942 0.303185 0
M  V30 1714 H 161.721 1.69176 -0.133313 0
M  V30 1715 H 160.493 3.91292 0.0248896 0
M  V30 1716 H 160.116 3.58987 1.70921 0
M  V30 1717 N 161.113 -0.173488 1.56642 0
M  V30 1718 C 162.043 -1.2171 1.99271 0
M  V30 1719 C 163.024 -1.46289 0.867959 0
M  V30 1720 O 164.209 -1.5766 1.13388 0
M  V30 1721 C 161.339 -2.55651 2.35074 0
M  V30 1722 C 160.293 -2.45645 3.50489 0
M  V30 1723 C 159.619 -3.84056 3.72028 0
M  V30 1724 C 160.919 -1.96302 4.84007 0
M  V30 1725 H 162.613 -0.86275 2.867 0
M  V30 1726 H 160.159 -0.413571 1.37933 0
M  V30 1727 H 162.112 -3.2886 2.63494 0
M  V30 1728 H 160.836 -2.92869 1.44552 0
M  V30 1729 H 159.495 -1.7489 3.22194 0
M  V30 1730 H 159.143 -4.18664 2.788 0
M  V30 1731 H 158.843 -3.7823 4.49684 0
M  V30 1732 H 160.367 -4.58854 4.02846 0
M  V30 1733 H 161.781 -2.59284 5.11317 0
M  V30 1734 H 160.178 -2.01429 5.65284 0
M  V30 1735 H 161.248 -0.917226 4.76146 0
M  V30 1736 N 162.591 -1.51276 -0.441967 0
M  V30 1737 C 163.501 -1.75092 -1.56141 0
M  V30 1738 C 164.517 -0.634963 -1.62001 0
M  V30 1739 O 165.693 -0.916686 -1.79329 0
M  V30 1740 C 162.758 -1.86666 -2.92158 0
M  V30 1741 C 161.819 -3.10506 -2.96453 0
M  V30 1742 C 161.052 -3.21519 -4.25982 0
M  V30 1743 O 161.275 -2.38586 -5.18105 0
M  V30 1744 O 160.209 -4.14465 -4.36466 0
M  V30 1745 H 164.035 -2.70044 -1.38961 0
M  V30 1746 H 161.62 -1.35722 -0.624499 0
M  V30 1747 H 163.502 -1.96292 -3.72891 0
M  V30 1748 H 162.177 -0.949014 -3.09476 0
M  V30 1749 H 161.084 -3.06363 -2.14692 0
M  V30 1750 H 162.417 -4.01945 -2.84079 0
M  V30 1751 N 164.069 0.697108 -1.41344 0
M  V30 1752 C 165.016 1.81106 -1.43071 0
M  V30 1753 C 165.986 1.63632 -0.285275 0
M  V30 1754 O 167.171 1.84504 -0.486091 0
M  V30 1755 C 164.311 3.18975 -1.31715 0
M  V30 1756 C 163.424 3.47892 -2.56115 0
M  V30 1757 C 162.559 4.75367 -2.37064 0
M  V30 1758 C 161.598 4.97247 -3.56948 0
M  V30 1759 N 160.735 6.15947 -3.36977 0
M  V30 1760 H 165.575 1.78965 -2.38276 0
M  V30 1761 H 163.112 0.873975 -1.18322 0
M  V30 1762 H 165.07 3.98615 -1.23133 0
M  V30 1763 H 163.7 3.20297 -0.401183 0
M  V30 1764 H 162.752 2.62669 -2.75153 0
M  V30 1765 H 164.064 3.59962 -3.45295 0
M  V30 1766 H 163.218 5.63059 -2.25941 0
M  V30 1767 H 161.957 4.65541 -1.45338 0
M  V30 1768 H 160.962 4.08004 -3.68527 0
M  V30 1769 H 162.187 5.08934 -4.49626 0
M  V30 1770 H 160.133 6.07336 -2.47949 0
M  V30 1771 H 160.05 6.28777 -4.19732 0
M  V30 1772 H 161.318 7.06377 -3.29623 0
M  V30 1773 N 165.547 1.27147 0.931209 0
M  V30 1774 C 166.48 1.0389 2.0318 0
M  V30 1775 C 167.458 -0.0395716 1.62552 0
M  V30 1776 O 168.642 0.104867 1.88208 0
M  V30 1777 C 165.769 0.575227 3.3378 0
M  V30 1778 C 164.815 1.64774 3.93385 0
M  V30 1779 S 165.648 3.23933 4.26413 0
M  V30 1780 C 166.804 2.79358 5.60098 0
M  V30 1781 H 167.037 1.97075 2.22596 0
M  V30 1782 H 164.57 1.10938 1.07387 0
M  V30 1783 H 166.528 0.314385 4.09294 0
M  V30 1784 H 165.189 -0.336505 3.12292 0
M  V30 1785 H 164.382 1.27454 4.87618 0
M  V30 1786 H 163.984 1.86048 3.24441 0
M  V30 1787 H 166.276 2.24443 6.39243 0
M  V30 1788 H 167.219 3.72322 6.02314 0
M  V30 1789 H 167.627 2.1861 5.20452 0
M  V30 1790 N 167.025 -1.13721 1.09112 0
M  V30 1791 C 168.253 -1.88773 0.846899 0
M  V30 1792 C 168.668 -1.7896 -0.601572 0
M  V30 1793 O 168.025 -1.15394 -1.41388 0
M  V30 1794 C 168.076 -3.3849 1.26913 0
M  V30 1795 O 167.797 -3.48043 2.66079 0
M  V30 1796 C 169.298 -4.30518 1.05682 0
M  V30 1797 H 166.518 -0.59772 0.304914 0
M  V30 1798 H 169.062 -1.43977 1.45227 0
M  V30 1799 H 167.217 -3.80881 0.707723 0
M  V30 1800 H 167.631 -4.4109 2.83795 0
M  V30 1801 H 169.105 -5.3391 1.40156 0
M  V30 1802 H 169.582 -4.392 -0.00563416 0
M  V30 1803 H 170.188 -3.93893 1.60402 0
M  V30 1804 N 168.503 -0.877838 -1.30888 0
M  V30 1805 C 169.728 -0.506629 -2.01117 0
M  V30 1806 C 170.153 0.895564 -1.65412 0
M  V30 1807 O 169.511 1.5923 -0.866922 0
M  V30 1808 C 169.559 -0.680223 -3.54126 0
M  V30 1809 O 168.663 0.277033 -4.11468 0
M  V30 1810 H 168.004 -0.200518 -0.633 0
M  V30 1811 H 170.534 -1.18342 -1.66902 0
M  V30 1812 H 170.544 -0.5765 -4.03907 0
M  V30 1813 H 169.219 -1.70261 -3.79452 0
M  V30 1814 H 167.796 0.127606 -3.72682 0
M  V30 1815 N 169.982 1.44106 -0.638065 0
M  V30 1816 C 171.231 2.01194 -0.142744 0
M  V30 1817 C 171.544 1.50835 1.24532 0
M  V30 1818 O 172.75 2.00096 1.83504 0
M  V30 1819 C 171.206 3.59319 -0.20442 0
M  V30 1820 C 170.814 4.18674 -1.59423 0
M  V30 1821 C 172.558 4.23854 0.234079 0
M  V30 1822 C 170.465 5.69045 -1.61065 0
M  V30 1823 H 169.395 0.752367 -0.0495998 0
M  V30 1824 H 172.046 1.65246 -0.797881 0
M  V30 1825 H 170.428 3.92598 0.517946 0
M  V30 1826 H 171.602 3.96921 -2.34074 0
M  V30 1827 H 169.917 3.66453 -1.97741 0
M  V30 1828 H 172.514 5.34155 0.241443 0
M  V30 1829 H 172.857 3.96688 1.2627 0
M  V30 1830 H 173.39 3.95403 -0.436025 0
M  V30 1831 H 170.129 6.00956 -2.61787 0
M  V30 1832 H 169.649 5.929 -0.90718 0
M  V30 1833 H 171.328 6.32809 -1.34766 0
M  V30 1834 N 171.46 0.379036 1.52974 0
M  V30 1835 C 172.39 -0.452706 2.29069 0
M  V30 1836 C 173.371 -1.07237 1.32039 0
M  V30 1837 O 174.556 -1.08708 1.60923 0
M  V30 1838 C 171.686 -1.5856 3.08992 0
M  V30 1839 C 170.64 -1.0925 4.13822 0
M  V30 1840 C 169.966 -2.31668 4.81907 0
M  V30 1841 C 171.266 -0.167702 5.22031 0
M  V30 1842 H 172.96 0.182181 2.98845 0
M  V30 1843 H 170.506 0.0890592 1.43724 0
M  V30 1844 H 172.459 -2.1742 3.6098 0
M  V30 1845 H 171.183 -2.24792 2.36931 0
M  V30 1846 H 169.842 -0.526494 3.628 0
M  V30 1847 H 169.49 -2.96386 4.06404 0
M  V30 1848 H 169.19 -1.9934 5.52754 0
M  V30 1849 H 170.714 -2.91189 5.36695 0
M  V30 1850 H 172.128 -0.664186 5.6944 0
M  V30 1851 H 170.525 0.0653265 6.00064 0
M  V30 1852 H 171.595 0.786347 4.78482 0
M  V30 1853 N 172.938 -1.57226 0.108567 0
M  V30 1854 C 173.848 -2.18292 -0.859401 0
M  V30 1855 C 174.864 -1.15612 -1.30038 0
M  V30 1856 O 176.04 -1.48039 -1.36552 0
M  V30 1857 C 173.105 -2.762 -2.09558 0
M  V30 1858 C 172.166 -3.93881 -1.70752 0
M  V30 1859 C 171.399 -4.49018 -2.88477 0
M  V30 1860 O 171.622 -4.03068 -4.036 0
M  V30 1861 O 170.556 -5.39852 -2.66164 0
M  V30 1862 H 174.382 -3.01441 -0.369769 0
M  V30 1863 H 171.967 -1.48945 -0.1165 0
M  V30 1864 H 173.849 -3.13156 -2.81978 0
M  V30 1865 H 172.524 -1.96089 -2.57548 0
M  V30 1866 H 171.431 -3.61713 -0.954714 0
M  V30 1867 H 172.764 -4.75396 -1.27513 0
M  V30 1868 N 174.416 0.165178 -1.56732 0
M  V30 1869 C 175.379 1.18822 -1.95995 0
M  V30 1870 C 176.379 1.3685 -0.84431 0
M  V30 1871 O 177.569 1.34152 -1.11126 0
M  V30 1872 C 174.701 2.5521 -2.26011 0
M  V30 1873 H 175.894 0.851825 -2.87548 0
M  V30 1874 H 173.447 0.407857 -1.50885 0
M  V30 1875 H 174.182 2.93852 -1.37191 0
M  V30 1876 H 173.967 2.43489 -3.07336 0
M  V30 1877 H 175.457 3.28927 -2.57288 0
M  V30 1878 N 175.894 1.51508 0.433938 0
M  V30 1879 C 177.14 1.64588 1.18484 0
M  V30 1880 C 177.473 0.362666 1.90784 0
M  V30 1881 O 176.748 -0.637892 1.83742 0
M  V30 1882 C 177.031 2.85149 2.19913 0
M  V30 1883 C 176.884 4.23456 1.51674 0
M  V30 1884 C 178.203 3.01227 3.20858 0
M  V30 1885 H 175.322 0.598994 0.429389 0
M  V30 1886 H 177.964 1.84002 0.473647 0
M  V30 1887 H 176.114 2.68729 2.80566 0
M  V30 1888 H 177.786 4.51552 0.943322 0
M  V30 1889 H 176.029 4.25998 0.819035 0
M  V30 1890 H 176.7 5.03812 2.2556 0
M  V30 1891 H 179.176 3.16382 2.70263 0
M  V30 1892 H 178.052 3.87141 3.89118 0
M  V30 1893 H 178.313 2.13447 3.8716 0
M  V30 1894 N 177.372 -0.689602 1.41712 0
M  V30 1895 C 178.783 -1.26973 1.36875 0
M  V30 1896 C 179.134 -1.96124 0.054748 0
M  V30 1897 O 178.259 -1.99141 -0.84687 0
M  V30 1898 C 178.854 -2.30912 2.47922 0
M  V30 1899 C 177.413 -2.84486 2.46464 0
M  V30 1900 C 176.56 -1.58603 2.27465 0
M  V30 1901 H 179.511 -0.48396 1.51141 0
M  V30 1902 H 179.532 -3.12331 2.17323 0
M  V30 1903 H 179.044 -1.80554 3.43543 0
M  V30 1904 H 177.145 -3.39005 1.54617 0
M  V30 1905 H 177.258 -3.34511 3.42986 0
M  V30 1906 H 175.622 -1.84632 1.75451 0
M  V30 1907 H 176.405 -1.10233 3.25121 0
M  V30 1908 N 178.85 -1.27639 -0.924453 0
M  V30 1909 C 179.782 -1.06442 -2.02985 0
M  V30 1910 C 180.795 -0.0194771 -1.62788 0
M  V30 1911 O 181.984 -0.261388 -1.76576 0
M  V30 1912 C 179.084 -0.59327 -3.33667 0
M  V30 1913 C 178.257 -1.71123 -4.02537 0
M  V30 1914 C 177.316 -1.23527 -5.11495 0
M  V30 1915 O 176.342 -1.93553 -5.35281 0
M  V30 1916 N 177.544 -0.0926678 -5.80426 0
M  V30 1917 H 180.309 -2.01633 -2.2173 0
M  V30 1918 H 177.87 -1.19248 -1.09505 0
M  V30 1919 H 179.862 -0.258686 -4.03872 0
M  V30 1920 H 178.432 0.265502 -3.1147 0
M  V30 1921 H 177.652 -2.21593 -3.26022 0
M  V30 1922 H 178.94 -2.46145 -4.45298 0
M  V30 1923 H 178.338 0.491741 -5.63559 0
M  V30 1924 H 176.895 0.182714 -6.51544 0
M  V30 1925 N 180.328 1.1314 -1.09713 0
M  V30 1926 C 181.574 1.84757 -0.836224 0
M  V30 1927 C 181.907 1.8347 0.636598 0
M  V30 1928 O 181.182 1.27491 1.46889 0
M  V30 1929 C 181.465 3.32782 -1.37578 0
M  V30 1930 C 181.318 3.42567 -2.91493 0
M  V30 1931 C 182.637 4.28307 -1.01198 0
M  V30 1932 H 179.756 0.67082 -0.305236 0
M  V30 1933 H 182.398 1.3278 -1.35903 0
M  V30 1934 H 180.548 3.77177 -0.931097 0
M  V30 1935 H 182.22 3.06862 -3.44432 0
M  V30 1936 H 180.463 2.83349 -3.28475 0
M  V30 1937 H 181.134 4.46674 -3.24324 0
M  V30 1938 H 183.61 3.91999 -1.39556 0
M  V30 1939 H 182.486 5.30307 -1.41653 0
M  V30 1940 H 182.747 4.42029 0.0794833 0
M  V30 1941 N 181.806 0.884767 1.30421 0
M  V30 1942 C 182.753 0.349642 2.28136 0
M  V30 1943 C 183.723 -0.560061 1.56373 0
M  V30 1944 O 184.908 -0.488524 1.8444 0
M  V30 1945 C 182.048 -0.42999 3.42411 0
M  V30 1946 C 181.161 0.508907 4.28992 0
M  V30 1947 C 180.296 -0.286301 5.30428 0
M  V30 1948 C 179.335 0.648079 6.08659 0
M  V30 1949 N 178.472 -0.111792 7.02011 0
M  V30 1950 H 183.312 1.18807 2.73293 0
M  V30 1951 H 180.849 0.597231 1.3443 0
M  V30 1952 H 182.807 -0.897923 4.07423 0
M  V30 1953 H 181.437 -1.23299 2.98324 0
M  V30 1954 H 180.489 1.09533 3.64289 0
M  V30 1955 H 181.801 1.22475 4.8353 0
M  V30 1956 H 180.955 -0.816098 6.01186 0
M  V30 1957 H 179.694 -1.03536 4.76583 0
M  V30 1958 H 178.699 1.18951 5.36778 0
M  V30 1959 H 179.924 1.39623 6.64592 0
M  V30 1960 H 177.87 -0.843395 6.50556 0
M  V30 1961 H 177.787 0.544429 7.54037 0
M  V30 1962 H 179.055 -0.622339 7.77012 0
M  V30 1963 N 183.284 -1.43765 0.645699 0
M  V30 1964 C 184.531 -2.01898 0.15604 0
M  V30 1965 C 184.859 -1.50887 -1.22733 0
M  V30 1966 O 184.114 -0.689271 -1.8316 0
M  V30 1967 C 184.413 -3.57238 0.107679 0
M  V30 1968 C 184.079 -4.27564 1.43178 0
M  V30 1969 C 182.741 -4.46492 1.7944 0
M  V30 1970 C 185.093 -4.67454 2.30513 0
M  V30 1971 C 182.421 -5.02573 3.02716 0
M  V30 1972 C 184.773 -5.24901 3.53074 0
M  V30 1973 C 183.437 -5.42046 3.89541 0
M  V30 1974 H 182.707 -0.738797 0.057099 0
M  V30 1975 H 185.354 -1.72341 0.834912 0
M  V30 1976 H 183.659 -3.86293 -0.654618 0
M  V30 1977 H 185.356 -3.99965 -0.287938 0
M  V30 1978 H 181.946 -4.13171 1.13963 0
M  V30 1979 H 186.13 -4.5253 2.0379 0
M  V30 1980 H 181.386 -5.14033 3.31028 0
M  V30 1981 H 185.56 -5.54758 4.20971 0
M  V30 1982 H 183.187 -5.85268 4.85145 0
M  V30 1983 N 184.763 -0.387143 -1.52771 0
M  V30 1984 C 186.012 0.19697 -2.00736 0
M  V30 1985 C 186.325 1.48082 -1.27793 0
M  V30 1986 O 187.531 2.14485 -1.66458 0
M  V30 1987 C 185.987 0.401568 -3.57653 0
M  V30 1988 C 185.595 -0.868907 -4.39493 0
M  V30 1989 C 187.339 0.942164 -4.13912 0
M  V30 1990 C 185.246 -0.632705 -5.88006 0
M  V30 1991 H 184.176 0.0773827 -0.750019 0
M  V30 1992 H 186.827 -0.50921 -1.76293 0
M  V30 1993 H 185.209 1.16954 -3.78335 0
M  V30 1994 H 186.383 -1.64133 -4.30577 0
M  V30 1995 H 184.698 -1.33429 -3.94443 0
M  V30 1996 H 187.295 1.13455 -5.22525 0
M  V30 1997 H 187.638 1.9106 -3.69867 0
M  V30 1998 H 188.171 0.233814 -3.97112 0
M  V30 1999 H 184.91 -1.57208 -6.36369 0
M  V30 2000 H 184.43 0.100825 -5.99715 0
M  V30 2001 H 186.109 -0.26642 -6.46451 0
M  V30 2002 N 186.241 1.57166 -0.116904 0
M  V30 2003 C 187.481 1.97008 0.544715 0
M  V30 2004 C 187.845 0.998713 1.63981 0
M  V30 2005 O 189.046 1.28644 2.36018 0
M  V30 2006 C 187.317 3.41145 1.06559 0
M  V30 2007 S 188.876 4.02998 1.73603 0
M  V30 2008 H 185.694 0.688587 0.177112 0
M  V30 2009 H 188.296 1.94459 -0.201487 0
M  V30 2010 H 187 4.09592 0.257374 0
M  V30 2011 H 186.531 3.4734 1.84712 0
M  V30 2012 H 188.546 3.93585 3.02168 0
M  V30 2013 N 187.719 -0.156864 1.56817 0
M  V30 2014 C 188.649 -1.19589 2.00551 0
M  V30 2015 C 189.63 -1.4536 0.883426 0
M  V30 2016 O 190.815 -1.56449 1.15054 0
M  V30 2017 C 187.945 -2.53143 2.37773 0
M  V30 2018 C 186.899 -2.41913 3.53075 0
M  V30 2019 C 186.225 -3.80088 3.76081 0
M  V30 2020 C 187.525 -1.91157 4.86062 0
M  V30 2021 H 189.219 -0.832293 2.87599 0
M  V30 2022 H 186.765 -0.398918 1.38364 0
M  V30 2023 H 188.718 -3.26047 2.66967 0
M  V30 2024 H 187.442 -2.91319 1.4765 0
M  V30 2025 H 186.101 -1.71462 3.24031 0
M  V30 2026 H 185.749 -4.15683 2.83225 0
M  V30 2027 H 185.449 -3.73439 4.53671 0
M  V30 2028 H 186.973 -4.54556 4.0769 0
M  V30 2029 H 188.387 -2.53846 5.14038 0
M  V30 2030 H 186.784 -1.95422 5.67389 0
M  V30 2031 H 187.854 -0.866673 4.77092 0
M  V30 2032 N 189.197 -1.51736 -0.425897 0
M  V30 2033 C 190.474 -1.55519 -1.1863 0
M  V30 2034 C 190.854 -0.326219 -2.08564 0
M  V30 2035 O 190.202 0.688012 -2.17896 0
M  V30 2036 C 190.412 -2.87521 -1.9782 0
M  V30 2037 C 191.76 -3.39899 -2.54468 0
M  V30 2038 O 192.784 -2.89148 -2.08019 0
M  V30 2039 O 191.643 -4.2848 -3.39215 0
M  V30 2040 H 188.737 -0.625739 -0.540721 0
M  V30 2041 H 191.283 -1.64055 -0.434038 0
M  V30 2042 H 190.055 -3.68422 -1.31836 0
M  V30 2043 H 189.678 -2.822 -2.80088 0
M  V30 2044 N 190.675 0.682077 -1.42076 0
M  V30 2045 C 191.921 1.44428 -1.42367 0
M  V30 2046 C 192.254 1.94164 -0.0373056 0
M  V30 2047 O 191.529 1.70429 0.937239 0
M  V30 2048 C 191.812 2.64654 -2.44194 0
M  V30 2049 C 191.665 2.20596 -3.91991 0
M  V30 2050 C 192.984 3.66865 -2.431 0
M  V30 2051 H 190.103 0.523834 -0.518428 0
M  V30 2052 H 192.745 0.77576 -1.73442 0
M  V30 2053 H 190.895 3.2169 -2.17826 0
M  V30 2054 H 192.567 1.68783 -4.29313 0
M  V30 2055 H 190.81 1.52242 -4.06208 0
M  V30 2056 H 191.481 3.06921 -4.58807 0
M  V30 2057 H 193.957 3.19531 -2.66532 0
M  V30 2058 H 192.833 4.48577 -3.16339 0
M  V30 2059 H 193.094 4.17493 -1.45437 0
M  V30 2060 N 192.153 1.28127 0.917671 0
M  V30 2061 C 193.116 1.11744 2.00115 0
M  V30 2062 C 194.116 0.0583052 1.60694 0
M  V30 2063 O 195.306 0.303755 1.71531 0
M  V30 2064 C 192.438 0.704862 3.33533 0
M  V30 2065 H 193.631 2.07966 2.16079 0
M  V30 2066 H 191.184 1.11058 1.09981 0
M  V30 2067 H 191.919 -0.258299 3.2327 0
M  V30 2068 H 191.704 1.4699 3.63505 0
M  V30 2069 H 193.194 0.612768 4.1308 0
M  V30 2070 N 193.631 -1.12557 1.10312 0
M  V30 2071 C 194.579 -2.20325 0.745629 0
M  V30 2072 C 195.573 -1.67429 -0.25763 0
M  V30 2073 O 196.779 -1.79612 -0.118132 0
M  V30 2074 H 193.154 -0.718118 0.223182 0
M  V30 2075 H 195.125 -2.47733 1.66346 0
M  V30 2076 C 193.874 -3.47168 0.192262 0
M  V30 2077 H 193.197 -3.88215 0.955475 0
M  V30 2078 H 194.637 -4.23995 -0.0198274 0
M  V30 2079 C 193.096 -3.19298 -1.07472 0
M  V30 2080 O 193.626 -3.3891 -2.15645 0
M  V30 2081 N 191.832 -2.73113 -0.992847 0
M  V30 2082 H 191.379 -2.57354 -0.112474 0
M  V30 2083 H 191.337 -2.54842 -1.84127 0
M  V30 2084 N 195.109 -0.891671 -1.2995 0
M  V30 2085 C 196.357 -0.512486 -1.95494 0
M  V30 2086 C 196.678 0.942776 -1.70695 0
M  V30 2087 O 195.948 1.66374 -1.03424 0
M  V30 2088 H 194.528 -0.186533 -0.723336 0
M  V30 2089 H 197.19 -1.13621 -1.58355 0
M  V30 2090 H 196.286 -0.688342 -3.04415 0
M  V30 2091 N 196.587 1.43421 -0.653314 0
M  V30 2092 C 197.817 2.05864 -0.174238 0
M  V30 2093 C 198.225 1.49052 1.16534 0
M  V30 2094 O 197.568 0.616481 1.73047 0
M  V30 2095 C 197.63 3.59499 -0.00875873 0
M  V30 2096 C 197.294 4.38893 -1.27364 0
M  V30 2097 C 198.291 4.70947 -2.20239 0
M  V30 2098 C 195.976 4.789 -1.51525 0
M  V30 2099 C 197.97 5.41916 -3.35568 0
M  V30 2100 C 195.657 5.49614 -2.67147 0
M  V30 2101 C 196.655 5.81044 -3.58994 0
M  V30 2102 O 196.343 6.50313 -4.72597 0
M  V30 2103 H 196.075 0.670345 -0.0872549 0
M  V30 2104 H 198.629 1.84913 -0.894226 0
M  V30 2105 H 196.859 3.79025 0.7666 0
M  V30 2106 H 198.548 4.0364 0.427687 0
M  V30 2107 H 199.314 4.40558 -2.02815 0
M  V30 2108 H 195.193 4.53843 -0.809158 0
M  V30 2109 H 198.737 5.66365 -4.07279 0
M  V30 2110 H 194.634 5.79419 -2.84505 0
M  V30 2111 H 195.402 6.68795 -4.71864 0
M  V30 2112 N 198.065 0.39524 1.52563 0
M  V30 2113 C 199.29 -0.187456 2.06551 0
M  V30 2114 C 199.715 -1.39249 1.26457 0
M  V30 2115 O 199.073 -1.78947 0.291151 0
M  V30 2116 C 199.121 -0.529985 3.56684 0
M  V30 2117 O 198.225 -1.62307 3.79118 0
M  V30 2118 H 197.566 -0.0202537 0.663691 0
M  V30 2119 H 200.096 0.564426 1.96661 0
M  V30 2120 H 200.106 -0.792598 4.00227 0
M  V30 2121 H 198.781 0.350987 4.14416 0
M  V30 2122 H 197.358 -1.3537 3.47461 0
M  V30 2123 N 199.544 -1.57102 0.125237 0
M  V30 2124 C 200.454 -2.19191 -0.8362 0
M  V30 2125 C 201.47 -1.16985 -1.28805 0
M  V30 2126 O 202.646 -1.49479 -1.34974 0
M  V30 2127 C 199.711 -2.78407 -2.06617 0
M  V30 2128 C 198.772 -3.9567 -1.66565 0
M  V30 2129 C 198.005 -4.52052 -2.83698 0
M  V30 2130 O 198.228 -4.07326 -3.99302 0
M  V30 2131 O 197.162 -5.42645 -2.60423 0
M  V30 2132 H 200.988 -3.01816 -0.337776 0
M  V30 2133 H 198.573 -1.4906 -0.100695 0
M  V30 2134 H 200.455 -3.16129 -2.7864 0
M  V30 2135 H 199.13 -1.9881 -2.55453 0
M  V30 2136 H 198.037 -3.62705 -0.916296 0
M  V30 2137 H 199.37 -4.76722 -1.22464 0
M  V30 2138 N 201.022 0.148545 -1.56898 0
M  V30 2139 C 201.972 1.1886 -1.94567 0
M  V30 2140 C 202.956 1.3863 -0.816735 0
M  V30 2141 O 204.148 1.40218 -1.08018 0
M  V30 2142 C 201.277 2.52262 -2.32849 0
M  V30 2143 C 200.363 2.36092 -3.52309 0
M  V30 2144 N 200.754 1.89674 -4.6889 0
M  V30 2145 C 199.052 2.66848 -3.57363 0
M  V30 2146 C 199.753 1.86511 -5.50989 0
M  V30 2147 N 198.729 2.29766 -4.92655 0
M  V30 2148 H 202.531 0.821793 -2.82177 0
M  V30 2149 H 200.045 0.356615 -1.58436 0
M  V30 2150 H 202.042 3.27447 -2.58039 0
M  V30 2151 H 200.702 2.89727 -1.46589 0
M  V30 2152 H 201.713 1.59663 -4.92674 0
M  V30 2153 H 198.39 3.08198 -2.81639 0
M  V30 2154 H 199.78 1.52128 -6.54452 0
M  V30 2155 N 202.5 1.5196 0.417844 0
M  V30 2156 C 203.747 1.65591 1.16559 0
M  V30 2157 C 204.075 0.381565 1.90721 0
M  V30 2158 O 203.33 -0.635156 1.85106 0
M  V30 2159 C 203.629 2.82269 2.19223 0
M  V30 2160 C 203.295 4.20819 1.61933 0
M  V30 2161 C 201.957 4.58506 1.46033 0
M  V30 2162 C 204.309 5.07196 1.20008 0
M  V30 2163 C 201.637 5.80257 0.867113 0
M  V30 2164 C 203.989 6.29544 0.621086 0
M  V30 2165 C 202.653 6.65987 0.449144 0
M  V30 2166 H 201.923 0.605939 0.42652 0
M  V30 2167 H 204.57 1.86041 0.45397 0
M  V30 2168 H 202.875 2.56118 2.96498 0
M  V30 2169 H 204.572 2.90012 2.76936 0
M  V30 2170 H 201.162 3.91116 1.7529 0
M  V30 2171 H 205.346 4.7867 1.31105 0
M  V30 2172 H 200.602 6.07124 0.721833 0
M  V30 2173 H 204.776 6.95805 0.287798 0
M  V30 2174 H 202.403 7.60199 -0.012632 0
M  V30 2175 N 203.978 -0.674533 1.42435 0
M  V30 2176 C 205.224 -1.43671 1.43131 0
M  V30 2177 C 205.557 -1.94142 0.0476021 0
M  V30 2178 O 204.832 -1.70924 -0.928188 0
M  V30 2179 C 205.115 -2.63355 2.45594 0
M  V30 2180 C 204.968 -2.18514 3.93156 0
M  V30 2181 C 206.287 -3.65571 2.45043 0
M  V30 2182 H 203.406 -0.521077 0.521198 0
M  V30 2183 H 206.048 -0.766551 1.7385 0
M  V30 2184 H 204.198 -3.2053 2.19528 0
M  V30 2185 H 205.87 -1.66504 4.30202 0
M  V30 2186 H 204.113 -1.50086 4.07009 0
M  V30 2187 H 204.784 -3.04484 4.60428 0
M  V30 2188 H 207.26 -3.18113 2.68223 0
M  V30 2189 H 206.136 -4.46893 3.18713 0
M  V30 2190 H 206.397 -4.16716 1.47649 0
M  V30 2191 N 205.456 -1.28612 -0.910864 0
M  V30 2192 C 206.366 -1.14643 -2.0468 0
M  V30 2193 C 207.382 -0.0723121 -1.7385 0
M  V30 2194 O 208.558 -0.282178 -1.99413 0
M  V30 2195 C 205.623 -0.812561 -3.37044 0
M  V30 2196 C 204.684 -1.96935 -3.81465 0
M  V30 2197 C 203.917 -1.65131 -5.07511 0
M  V30 2198 O 204.14 -0.567013 -5.67575 0
M  V30 2199 O 203.074 -2.49585 -5.47714 0
M  V30 2200 H 206.9 -2.1001 -2.19384 0
M  V30 2201 H 204.485 -1.07958 -1.03274 0
M  V30 2202 H 206.367 -0.640441 -4.16505 0
M  V30 2203 H 205.042 0.111426 -3.23508 0
M  V30 2204 H 203.949 -2.19664 -3.02818 0
M  V30 2205 H 205.282 -2.87414 -3.99567 0
M  V30 2206 N 206.934 1.1197 -1.10907 0
M  V30 2207 C 208.181 1.83588 -0.854507 0
M  V30 2208 C 208.509 1.84357 0.6199 0
M  V30 2209 O 207.764 1.28809 1.47332 0
M  V30 2210 C 208.063 3.30749 -1.35425 0
M  V30 2211 C 207.729 3.50146 -2.84093 0
M  V30 2212 C 206.391 3.55148 -3.2469 0
M  V30 2213 C 208.743 3.56857 -3.79872 0
M  V30 2214 C 206.071 3.6441 -4.59806 0
M  V30 2215 C 208.423 3.6765 -5.14797 0
M  V30 2216 C 207.087 3.7091 -5.54961 0
M  V30 2217 H 206.357 0.671795 -0.312686 0
M  V30 2218 H 209.004 1.32091 -1.38652 0
M  V30 2219 H 207.309 3.84703 -0.742361 0
M  V30 2220 H 209.006 3.8464 -1.1337 0
M  V30 2221 H 205.596 3.46919 -2.51685 0
M  V30 2222 H 209.78 3.52258 -3.49611 0
M  V30 2223 H 205.036 3.65208 -4.9034 0
M  V30 2224 H 209.21 3.71786 -5.88853 0
M  V30 2225 H 206.837 3.7784 -6.59652 0
M  V30 2226 N 208.412 0.89855 1.29475 0
M  V30 2227 C 209.658 0.524658 1.95896 0
M  V30 2228 C 209.991 -0.926468 1.70676 0
M  V30 2229 O 209.266 -1.65665 1.01908 0
M  V30 2230 C 209.549 0.81633 3.50725 0
M  V30 2231 C 209.402 2.31907 3.85408 0
M  V30 2232 C 210.721 0.302038 4.39062 0
M  V30 2233 H 207.84 0.19209 0.711527 0
M  V30 2234 H 210.482 1.12502 1.53112 0
M  V30 2235 H 208.632 0.305369 3.87298 0
M  V30 2236 H 210.304 2.89949 3.58786 0
M  V30 2237 H 208.547 2.78027 3.32992 0
M  V30 2238 H 209.218 2.47373 4.93468 0
M  V30 2239 H 211.694 0.739551 4.09475 0
M  V30 2240 H 210.57 0.535331 5.46283 0
M  V30 2241 H 210.831 -0.797216 4.34853 0
M  V30 2242 N 209.89 -1.43072 0.660911 0
M  V30 2243 C 210.837 -2.30785 -0.0259884 0
M  V30 2244 C 211.807 -1.45184 -0.806888 0
M  V30 2245 O 212.992 -1.74041 -0.781943 0
M  V30 2246 C 210.132 -3.30861 -0.981067 0
M  V30 2247 C 209.245 -4.31558 -0.195458 0
M  V30 2248 C 208.38 -5.18712 -1.14503 0
M  V30 2249 C 207.419 -6.11097 -0.350299 0
M  V30 2250 N 206.556 -6.90849 -1.25186 0
M  V30 2251 H 211.396 -2.88975 0.727846 0
M  V30 2252 H 208.933 -1.42353 0.370682 0
M  V30 2253 H 210.891 -3.87399 -1.54849 0
M  V30 2254 H 209.521 -2.74304 -1.70169 0
M  V30 2255 H 208.573 -3.77252 0.488374 0
M  V30 2256 H 209.885 -4.9701 0.422176 0
M  V30 2257 H 209.039 -5.79914 -1.78284 0
M  V30 2258 H 207.778 -4.53404 -1.79656 0
M  V30 2259 H 206.783 -5.48976 0.300808 0
M  V30 2260 H 208.008 -6.7845 0.296941 0
M  V30 2261 H 205.954 -6.28182 -1.89005 0
M  V30 2262 H 205.871 -7.52854 -0.688971 0
M  V30 2263 H 207.139 -7.5655 -1.87757 0
M  V30 2264 N 211.368 -0.403325 -1.52352 0
M  V30 2265 C 212.298 0.416205 -2.29761 0
M  V30 2266 C 213.279 1.05123 -1.33728 0
M  V30 2267 O 214.464 1.06134 -1.62632 0
M  V30 2268 C 211.594 1.53624 -3.11475 0
M  V30 2269 C 210.548 1.02653 -4.15507 0
M  V30 2270 C 209.874 2.23971 -4.85532 0
M  V30 2271 C 211.174 0.08463 -5.22231 0
M  V30 2272 H 212.868 -0.229701 -2.98518 0
M  V30 2273 H 210.414 -0.111913 -1.43564 0
M  V30 2274 H 212.367 2.1165 -3.64393 0
M  V30 2275 H 211.091 2.20994 -2.40477 0
M  V30 2276 H 209.75 0.46871 -3.63591 0
M  V30 2277 H 209.398 2.89883 -4.11068 0
M  V30 2278 H 209.098 1.90521 -5.55856 0
M  V30 2279 H 210.622 2.82614 -5.41259 0
M  V30 2280 H 212.036 0.573509 -5.70424 0
M  V30 2281 H 210.433 -0.160783 -5.99885 0
M  V30 2282 H 211.503 -0.86237 -4.7717 0
M  V30 2283 N 212.846 1.57033 -0.133567 0
M  V30 2284 C 214.092 1.95976 0.521649 0
M  V30 2285 C 214.425 1.01779 1.65393 0
M  V30 2286 O 213.7 0.0576581 1.94415 0
M  V30 2287 C 213.983 3.44738 1.04057 0
M  V30 2288 C 213.836 4.49711 -0.0892897 0
M  V30 2289 C 215.155 3.95682 1.92675 0
M  V30 2290 H 212.274 0.712579 0.188149 0
M  V30 2291 H 214.916 1.88813 -0.212076 0
M  V30 2292 H 213.066 3.50973 1.66583 0
M  V30 2293 H 214.738 4.55565 -0.725152 0
M  V30 2294 H 212.981 4.27261 -0.750378 0
M  V30 2295 H 213.652 5.51099 0.315284 0
M  V30 2296 H 216.128 3.91841 1.39998 0
M  V30 2297 H 215.004 5.00262 2.25897 0
M  V30 2298 H 215.265 3.37239 2.85872 0
M  V30 2299 N 214.325 -0.140222 1.56975 0
M  V30 2300 C 215.741 -0.493088 1.51792 0
M  V30 2301 C 215.941 -1.83013 0.843116 0
M  V30 2302 O 214.997 -2.49041 0.416493 0
M  V30 2303 C 216.31 -0.497144 2.96562 0
M  V30 2304 C 217.858 -0.582186 3.07538 0
M  V30 2305 C 218.333 -0.616838 4.53827 0
M  V30 2306 N 219.824 -0.678873 4.58198 0
M  V30 2307 C 220.559 -0.726782 5.68775 0
M  V30 2308 N 220.055 -0.733623 6.88905 0
M  V30 2309 N 221.848 -0.768179 5.56826 0
M  V30 2310 H 213.999 0.736108 1.99237 0
M  V30 2311 H 216.262 0.269182 0.90898 0
M  V30 2312 H 215.968 0.417217 3.49217 0
M  V30 2313 H 215.842 -1.33263 3.52875 0
M  V30 2314 H 218.229 -1.48697 2.54899 0
M  V30 2315 H 218.31 0.280581 2.54257 0
M  V30 2316 H 217.954 0.283812 5.07106 0
M  V30 2317 H 217.884 -1.49619 5.04898 0
M  V30 2318 H 220.375 -0.68061 3.7172 0
M  V30 2319 H 220.688 -0.772215 7.68932 0
M  V30 2320 H 219.033 -0.701389 6.91452 0
M  V30 2321 H 222.224 -0.760051 4.61888 0
M  V30 2322 H 222.397 -0.80205 6.43017 0
M  V30 2323 N 215.803 -1.52179 -0.40978 0
M  V30 2324 C 216.766 -1.74853 -1.48186 0
M  V30 2325 C 217.766 -0.618417 -1.48433 0
M  V30 2326 O 218.956 -0.886286 -1.49969 0
M  V30 2327 C 216.088 -1.8303 -2.87598 0
M  V30 2328 H 217.281 -2.70559 -1.29374 0
M  V30 2329 H 214.834 -1.42586 -0.640233 0
M  V30 2330 H 215.569 -0.89236 -3.11781 0
M  V30 2331 H 215.354 -2.65187 -2.88822 0
M  V30 2332 H 216.844 -2.02316 -3.65319 0
M  V30 2333 N 217.281 0.66697 -1.42791 0
M  V30 2334 C 218.228 1.7803 -1.4688 0
M  V30 2335 C 219.198 1.6299 -0.319919 0
M  V30 2336 O 220.383 1.83432 -0.525118 0
M  V30 2337 C 217.523 3.1611 -1.38451 0
M  V30 2338 C 216.636 3.42381 -2.63437 0
M  V30 2339 C 215.771 4.70232 -2.47094 0
M  V30 2340 C 214.81 4.89564 -3.67415 0
M  V30 2341 N 213.947 6.08661 -3.49966 0
M  V30 2342 H 218.787 1.7387 -2.42019 0
M  V30 2343 H 216.324 0.84868 -1.20149 0
M  V30 2344 H 218.282 3.95914 -1.31561 0
M  V30 2345 H 216.912 3.19374 -0.469033 0
M  V30 2346 H 215.964 2.56774 -2.80662 0
M  V30 2347 H 217.276 3.52557 -3.52853 0
M  V30 2348 H 216.43 5.5814 -2.37834 0
M  V30 2349 H 215.169 4.62353 -1.5518 0
M  V30 2350 H 214.174 4.00096 -3.77099 0
M  V30 2351 H 215.399 4.99282 -4.6032 0
M  V30 2352 H 213.345 6.0194 -2.60776 0
M  V30 2353 H 213.262 6.19733 -4.32975 0
M  V30 2354 H 214.53 6.99226 -3.44532 0
M  V30 2355 N 218.759 1.29093 0.90403 0
M  V30 2356 C 220.006 1.16813 1.65411 0
M  V30 2357 C 220.334 -0.28128 1.92455 0
M  V30 2358 O 219.589 -1.22006 1.53013 0
M  V30 2359 C 219.888 1.92224 3.01305 0
M  V30 2360 C 219.554 3.41968 2.93885 0
M  V30 2361 C 218.216 3.82807 2.91569 0
M  V30 2362 C 220.568 4.37409 2.83413 0
M  V30 2363 C 217.896 5.1741 2.76594 0
M  V30 2364 C 220.248 5.72097 2.69977 0
M  V30 2365 C 218.912 6.12199 2.66024 0
M  V30 2366 H 218.182 0.42745 0.605283 0
M  V30 2367 H 220.829 1.59981 1.05254 0
M  V30 2368 H 219.134 1.41635 3.65304 0
M  V30 2369 H 220.831 1.80131 3.58265 0
M  V30 2370 H 217.421 3.09504 2.96488 0
M  V30 2371 H 221.605 4.06813 2.84283 0
M  V30 2372 H 216.861 5.47596 2.71935 0
M  V30 2373 H 221.035 6.45704 2.60844 0
M  V30 2374 H 218.662 7.16448 2.54178 0
M  V30 2375 N 220.237 -1.11381 1.11499 0
M  V30 2376 C 221.648 -1.6465 0.880191 0
M  V30 2377 C 221.999 -1.87199 -0.587434 0
M  V30 2378 O 221.124 -1.60667 -1.44966 0
M  V30 2379 C 221.719 -2.99105 1.59128 0
M  V30 2380 C 220.278 -3.49279 1.40289 0
M  V30 2381 C 219.425 -2.24077 1.63354 0
M  V30 2382 H 222.376 -0.950123 1.27116 0
M  V30 2383 H 222.397 -3.66107 1.03664 0
M  V30 2384 H 221.909 -2.82661 2.65941 0
M  V30 2385 H 220.01 -3.70887 0.356888 0
M  V30 2386 H 220.123 -4.2803 2.15238 0
M  V30 2387 H 218.487 -2.31733 1.05698 0
M  V30 2388 H 219.27 -2.10175 2.71443 0
M  V30 2389 N 221.715 -0.905404 -1.28997 0
M  V30 2390 C 222.625 -0.392246 -2.31298 0
M  V30 2391 C 223.641 0.515889 -1.66176 0
M  V30 2392 O 224.817 0.404093 -1.97304 0
M  V30 2393 C 221.882 0.36686 -3.44754 0
M  V30 2394 C 220.943 -0.573485 -4.25452 0
M  V30 2395 C 220.176 0.149488 -5.33491 0
M  V30 2396 O 220.399 1.37255 -5.5364 0
M  V30 2397 O 219.333 -0.510919 -5.99728 0
M  V30 2398 H 223.159 -1.2411 -2.77183 0
M  V30 2399 H 220.744 -0.669926 -1.33538 0
M  V30 2400 H 222.626 0.795907 -4.13816 0
M  V30 2401 H 221.301 1.19169 -3.00966 0
M  V30 2402 H 220.208 -1.05176 -3.59011 0
M  V30 2403 H 221.541 -1.36489 -4.72897 0
M  V30 2404 N 223.193 1.4272 -0.668489 0
M  V30 2405 C 224.143 2.27971 0.0363806 0
M  V30 2406 C 225.127 1.40741 0.779794 0
M  V30 2407 O 226.319 1.64245 0.659745 0
M  V30 2408 C 223.448 3.28673 0.991398 0
M  V30 2409 C 222.534 4.23388 0.245658 0
M  V30 2410 N 222.925 5.00267 -0.746069 0
M  V30 2411 C 221.223 4.43355 0.484988 0
M  V30 2412 C 221.924 5.69396 -1.19009 0
M  V30 2413 N 220.9 5.41095 -0.521287 0
M  V30 2414 H 224.702 2.84833 -0.724394 0
M  V30 2415 H 222.216 1.54607 -0.497028 0
M  V30 2416 H 224.213 3.88543 1.51129 0
M  V30 2417 H 222.873 2.73373 1.75207 0
M  V30 2418 H 223.884 5.05525 -1.12537 0
M  V30 2419 H 220.561 3.99104 1.22565 0
M  V30 2420 H 221.951 6.41083 -2.01153 0
M  V30 2421 N 224.671 0.411399 1.52136 0
M  V30 2422 C 225.899 -0.163076 2.06256 0
M  V30 2423 C 226.314 -1.3867 1.28125 0
M  V30 2424 O 225.671 -1.79423 0.333721 0
M  V30 2425 C 225.722 -0.511252 3.57867 0
M  V30 2426 O 225.443 0.66378 4.33042 0
M  V30 2427 C 226.944 -1.13921 4.28412 0
M  V30 2428 H 224.164 -0.0193897 0.67072 0
M  V30 2429 H 226.708 0.583007 1.96013 0
M  V30 2430 H 224.863 -1.20723 3.6811 0
M  V30 2431 H 225.277 0.372601 5.23175 0
M  V30 2432 H 226.751 -1.33302 5.35663 0
M  V30 2433 H 227.228 -2.11296 3.85033 0
M  V30 2434 H 227.834 -0.483373 4.22544 0
M  V30 2435 N 226.149 -1.5696 0.141893 0
M  V30 2436 C 227.398 -1.95135 -0.510427 0
M  V30 2437 C 227.711 -1.02896 -1.66348 0
M  V30 2438 O 228.917 -1.30629 -2.38009 0
M  V30 2439 C 227.373 -3.46876 -0.959427 0
M  V30 2440 C 226.981 -4.47691 0.166419 0
M  V30 2441 C 228.725 -3.93927 -1.58183 0
M  V30 2442 C 226.632 -5.90636 -0.300565 0
M  V30 2443 H 225.562 -0.728494 -0.194454 0
M  V30 2444 H 228.213 -1.8211 0.22542 0
M  V30 2445 H 226.595 -3.55215 -1.75038 0
M  V30 2446 H 227.769 -4.51043 0.94325 0
M  V30 2447 H 226.084 -4.10527 0.696905 0
M  V30 2448 H 228.681 -4.98158 -1.94275 0
M  V30 2449 H 229.024 -3.3519 -2.46888 0
M  V30 2450 H 229.557 -3.88484 -0.855863 0
M  V30 2451 H 226.296 -6.5318 0.550989 0
M  V30 2452 H 225.816 -5.90655 -1.04338 0
M  V30 2453 H 227.495 -6.42588 -0.754265 0
M  V30 2454 N 227.627 0.131896 -1.57047 0
M  V30 2455 C 228.56 1.19236 -1.94571 0
M  V30 2456 C 229.538 1.40782 -0.813576 0
M  V30 2457 O 230.722 1.55148 -1.07058 0
M  V30 2458 C 227.849 2.54858 -2.23081 0
M  V30 2459 C 226.895 2.49817 -3.45679 0
M  V30 2460 S 227.728 1.95036 -4.98719 0
M  V30 2461 C 228.884 3.32357 -5.30367 0
M  V30 2462 H 229.117 0.872297 -2.84215 0
M  V30 2463 H 226.65 0.338134 -1.50652 0
M  V30 2464 H 228.608 3.32898 -2.40185 0
M  V30 2465 H 227.269 2.84047 -1.34074 0
M  V30 2466 H 226.462 3.49688 -3.62952 0
M  V30 2467 H 226.064 1.79892 -3.27895 0
M  V30 2468 H 228.356 4.28525 -5.2476 0
M  V30 2469 H 229.299 3.19923 -6.31708 0
M  V30 2470 H 229.707 3.3019 -4.57859 0
M  V30 2471 N 229.106 1.52395 0.401703 0
M  V30 2472 C 230.069 1.75636 1.47257 0
M  V30 2473 C 231.069 0.62628 1.48103 0
M  V30 2474 O 232.259 0.894227 1.49497 0
M  V30 2475 C 229.391 1.84553 2.86624 0
M  V30 2476 H 230.584 2.71241 1.27938 0
M  V30 2477 H 228.137 1.42923 0.632662 0
M  V30 2478 H 228.872 0.908882 3.11303 0
M  V30 2479 H 228.657 2.66715 2.87412 0
M  V30 2480 H 230.147 2.04251 3.64241 0
M  V30 2481 N 230.584 -0.659388 1.43143 0
M  V30 2482 C 231.832 -1.41654 1.44147 0
M  V30 2483 C 232.153 -1.94893 0.0645739 0
M  V30 2484 O 231.423 -1.74044 -0.899198 0
M  V30 2485 H 230.003 -0.525708 0.530697 0
M  V30 2486 H 232.665 -0.778097 1.78694 0
M  V30 2487 H 231.761 -2.26195 2.1504 0
M  V30 2488 N 232.062 -1.29571 -0.897171 0
M  V30 2489 C 233.01 -1.14802 -2.02295 0
M  V30 2490 C 234.004 -0.0629637 -1.69283 0
M  V30 2491 O 235.21 -0.222945 -1.78614 0
M  V30 2492 H 231.585 -0.354692 -0.663097 0
M  V30 2493 H 233.556 -2.10108 -2.11889 0
M  V30 2494 C 232.305 -0.843966 -3.37302 0
M  V30 2495 H 231.628 -1.67093 -3.63208 0
M  V30 2496 H 233.068 -0.780672 -4.16751 0
M  V30 2497 C 231.527 0.452843 -3.33843 0
M  V30 2498 O 232.057 1.47813 -3.73516 0
M  V30 2499 N 230.263 0.459601 -2.86943 0
M  V30 2500 H 229.81 -0.375213 -2.54853 0
M  V30 2501 H 229.768 1.32726 -2.85011 0
M  V30 2502 N 233.54 1.10788 -1.12088 0
M  V30 2503 C 234.786 1.82942 -0.875226 0
M  V30 2504 C 235.119 1.84779 0.597538 0
M  V30 2505 O 234.394 1.30578 1.44152 0
M  V30 2506 C 234.677 3.29789 -1.44606 0
M  V30 2507 C 234.53 3.36307 -2.98693 0
M  V30 2508 C 235.849 4.26064 -1.10261 0
M  V30 2509 H 232.968 0.664195 -0.319397 0
M  V30 2510 H 235.61 1.29867 -1.38689 0
M  V30 2511 H 233.76 3.75118 -1.01089 0
M  V30 2512 H 235.432 2.99487 -3.50864 0
M  V30 2513 H 233.675 2.76318 -3.34411 0
M  V30 2514 H 234.346 4.39694 -3.33726 0
M  V30 2515 H 236.822 3.88951 -1.4784 0
M  V30 2516 H 235.698 5.27183 -1.52869 0
M  V30 2517 H 235.959 4.42098 -0.0142953 0
M  V30 2518 N 235.018 0.912232 1.28515 0
M  V30 2519 C 236.264 0.545405 1.95328 0
M  V30 2520 C 236.597 -0.908313 1.71649 0
M  V30 2521 O 235.872 -1.64575 1.03659 0
M  V30 2522 C 236.155 0.853483 3.4984 0
M  V30 2523 C 236.008 2.35982 3.82926 0
M  V30 2524 C 237.327 0.348589 4.38717 0
M  V30 2525 H 234.446 0.199626 0.709449 0
M  V30 2526 H 237.088 1.1412 1.5191 0
M  V30 2527 H 235.238 0.34643 3.86952 0
M  V30 2528 H 236.91 2.93738 3.55691 0
M  V30 2529 H 235.153 2.81543 3.30024 0
M  V30 2530 H 235.824 2.52593 4.90816 0
M  V30 2531 H 238.3 0.78294 4.08668 0
M  V30 2532 H 237.176 0.593242 5.45685 0
M  V30 2533 H 237.437 -0.751049 4.35674 0
M  V30 2534 N 236.496 -1.42363 0.676048 0
M  V30 2535 C 237.724 -2.05859 0.207268 0
M  V30 2536 C 238.139 -1.50796 -1.13605 0
M  V30 2537 O 237.496 -0.648265 -1.70598 0
M  V30 2538 C 237.547 -3.61248 0.134975 0
M  V30 2539 O 237.268 -4.1427 1.42521 0
M  V30 2540 C 238.769 -4.41859 -0.357151 0
M  V30 2541 H 235.989 -0.663431 0.100503 0
M  V30 2542 H 238.533 -1.82479 0.923136 0
M  V30 2543 H 236.688 -3.83735 -0.531588 0
M  V30 2544 H 237.102 -5.0815 1.29939 0
M  V30 2545 H 238.576 -5.50847 -0.356641 0
M  V30 2546 H 239.053 -4.16536 -1.39264 0
M  V30 2547 H 239.659 -4.24392 0.27772 0
M  V30 2548 N 237.974 -0.419461 -1.51915 0
M  V30 2549 C 239.222 0.152637 -2.01523 0
M  V30 2550 C 239.543 1.44762 -1.30649 0
M  V30 2551 O 238.813 1.90997 -0.435535 0
M  V30 2552 H 237.393 0.0593966 -0.744635 0
M  V30 2553 H 240.055 -0.558073 -1.86739 0
M  V30 2554 H 239.151 0.341369 -3.10227 0
M  V30 2555 N 239.452 1.56882 -0.150215 0
M  V30 2556 C 240.362 2.20494 0.801222 0
M  V30 2557 C 241.378 1.19019 1.26927 0
M  V30 2558 O 242.554 1.51607 1.32579 0
M  V30 2559 C 239.619 2.81659 2.02161 0
M  V30 2560 C 238.68 3.9827 1.60249 0
M  V30 2561 C 237.913 4.56508 2.7647 0
M  V30 2562 O 238.136 4.13627 3.92771 0
M  V30 2563 O 237.07 5.46719 2.51757 0
M  V30 2564 H 240.896 3.02315 0.289717 0
M  V30 2565 H 238.481 1.49202 0.0769684 0
M  V30 2566 H 240.363 3.20522 2.73576 0
M  V30 2567 H 239.038 2.02849 2.52258 0
M  V30 2568 H 237.945 3.64117 0.858477 0
M  V30 2569 H 239.278 4.78609 1.14864 0
M  V30 2570 N 240.93 -0.123565 1.57115 0
M  V30 2571 C 241.863 -1.18202 1.95201 0
M  V30 2572 C 242.841 -1.40349 0.821031 0
M  V30 2573 O 244.025 -1.54578 1.07879 0
M  V30 2574 C 241.152 -2.53671 2.24429 0
M  V30 2575 C 240.198 -2.4798 3.46999 0
M  V30 2576 S 241.031 -1.92389 4.99747 0
M  V30 2577 C 242.187 -3.2954 5.32123 0
M  V30 2578 H 242.42 -0.857212 2.84674 0
M  V30 2579 H 239.953 -0.33014 1.50829 0
M  V30 2580 H 241.911 -3.3162 2.41947 0
M  V30 2581 H 240.572 -2.83332 1.35579 0
M  V30 2582 H 239.765 -3.47758 3.64801 0
M  V30 2583 H 239.367 -1.7815 3.28844 0
M  V30 2584 H 241.659 -4.25736 5.27025 0
M  V30 2585 H 242.602 -3.16569 6.33395 0
M  V30 2586 H 243.01 -3.27758 4.59603 0
M  V30 2587 N 242.408 -1.52605 -0.393616 0
M  V30 2588 C 243.654 -1.67672 -1.14079 0
M  V30 2589 C 243.987 -0.413121 -1.89755 0
M  V30 2590 O 243.262 0.588952 -1.85369 0
M  V30 2591 C 243.545 -2.9088 -2.12276 0
M  V30 2592 C 243.398 -4.27329 -1.40394 0
M  V30 2593 C 244.717 -3.09628 -3.12759 0
M  V30 2594 H 241.836 -0.610168 -0.413356 0
M  V30 2595 H 244.478 -1.85193 -0.424696 0
M  V30 2596 H 242.628 -2.76073 -2.73342 0
M  V30 2597 H 244.3 -4.53894 -0.82327 0
M  V30 2598 H 242.543 -4.2802 -0.705801 0
M  V30 2599 H 243.214 -5.09615 -2.12123 0
M  V30 2600 H 245.69 -3.23436 -2.61779 0
M  V30 2601 H 244.566 -3.97322 -3.78717 0
M  V30 2602 H 244.827 -2.23637 -3.81365 0
M  V30 2603 N 243.887 0.651787 -1.4349 0
M  V30 2604 C 244.797 1.79368 -1.5121 0
M  V30 2605 C 245.813 1.69361 -0.399093 0
M  V30 2606 O 246.989 1.90505 -0.653431 0
M  V30 2607 C 244.054 3.15653 -1.43401 0
M  V30 2608 C 243.115 3.37446 -2.65384 0
M  V30 2609 C 242.348 4.67229 -2.57939 0
M  V30 2610 O 242.571 5.46676 -1.62792 0
M  V30 2611 O 241.505 4.90773 -3.48462 0
M  V30 2612 H 245.331 1.7581 -2.47638 0
M  V30 2613 H 242.916 0.810447 -1.25507 0
M  V30 2614 H 244.798 3.96935 -1.41494 0
M  V30 2615 H 243.473 3.19798 -0.501085 0
M  V30 2616 H 242.38 2.55923 -2.72863 0
M  V30 2617 H 243.713 3.38148 -3.57654 0
M  V30 2618 N 245.365 1.30045 0.890287 0
M  V30 2619 C 246.275 1.17885 2.02831 0
M  V30 2620 C 247.291 0.0999609 1.73713 0
M  V30 2621 O 248.467 0.313867 1.98939 0
M  V30 2622 C 245.532 0.866079 3.35708 0
M  V30 2623 C 244.593 2.02979 3.78283 0
M  V30 2624 C 243.826 1.73184 5.0482 0
M  V30 2625 O 244.049 0.657237 5.66601 0
M  V30 2626 O 242.983 2.58267 5.43674 0
M  V30 2627 H 246.809 2.13474 2.16015 0
M  V30 2628 H 244.394 1.09587 1.01543 0
M  V30 2629 H 246.276 0.706623 4.15433 0
M  V30 2630 H 244.951 -0.0599443 3.23644 0
M  V30 2631 H 243.858 2.24454 2.99285 0
M  V30 2632 H 245.191 2.93734 3.94944 0
M  V30 2633 N 246.843 -1.10192 1.12674 0
M  V30 2634 C 247.773 -2.18652 0.819362 0
M  V30 2635 C 248.754 -1.68698 -0.217915 0
M  V30 2636 O 249.939 -1.94041 -0.0785581 0
M  V30 2637 C 247.069 -3.46202 0.27594 0
M  V30 2638 C 246.023 -4.09444 1.24656 0
M  V30 2639 C 245.349 -5.31725 0.563258 0
M  V30 2640 C 246.649 -4.52863 2.60217 0
M  V30 2641 H 248.343 -2.44622 1.72628 0
M  V30 2642 H 245.889 -1.17571 0.831451 0
M  V30 2643 H 247.842 -4.21372 0.0486149 0
M  V30 2644 H 246.566 -3.1973 -0.666331 0
M  V30 2645 H 245.225 -3.36284 1.45974 0
M  V30 2646 H 244.873 -5.0153 -0.384235 0
M  V30 2647 H 244.573 -5.74991 1.21075 0
M  V30 2648 H 246.097 -6.09624 0.34503 0
M  V30 2649 H 247.511 -5.19294 2.42913 0
M  V30 2650 H 245.908 -5.06986 3.21068 0
M  V30 2651 H 246.978 -3.65656 3.18471 0
M  V30 2652 N 248.321 -0.919034 -1.28029 0
M  V30 2653 C 249.57 -0.550802 -1.94034 0
M  V30 2654 C 249.883 0.910877 -1.73096 0
M  V30 2655 O 251.089 1.3875 -2.33368 0
M  V30 2656 C 249.545 -0.934249 -3.47563 0
M  V30 2657 C 249.153 -2.41602 -3.7727 0
M  V30 2658 C 250.897 -0.636854 -4.19696 0
M  V30 2659 C 248.804 -2.73932 -5.24133 0
M  V30 2660 H 247.734 -0.202273 -0.726362 0
M  V30 2661 H 250.385 -1.11867 -1.45458 0
M  V30 2662 H 248.767 -0.295115 -3.94899 0
M  V30 2663 H 249.941 -3.10233 -3.40723 0
M  V30 2664 H 248.256 -2.68441 -3.18321 0
M  V30 2665 H 250.853 -0.855005 -5.2782 0
M  V30 2666 H 251.196 0.425575 -4.14119 0
M  V30 2667 H 251.729 -1.23469 -3.78154 0
M  V30 2668 H 248.468 -3.79049 -5.34792 0
M  V30 2669 H 247.988 -2.09942 -5.61858 0
M  V30 2670 H 249.667 -2.61215 -5.91925 0
M  V30 2671 N 249.799 1.42003 -0.683588 0
M  V30 2672 C 250.729 2.33487 -0.024866 0
M  V30 2673 C 251.71 1.51163 0.779975 0
M  V30 2674 O 252.895 1.79739 0.735362 0
M  V30 2675 C 250.025 3.3487 0.920836 0
M  V30 2676 C 248.979 4.27414 0.223958 0
M  V30 2677 C 248.305 5.19074 1.2832 0
M  V30 2678 C 249.605 5.14445 -0.90242 0
M  V30 2679 H 251.299 2.88819 -0.788921 0
M  V30 2680 H 248.845 1.38873 -0.38083 0
M  V30 2681 H 250.798 3.97787 1.39081 0
M  V30 2682 H 249.522 2.77861 1.71642 0
M  V30 2683 H 248.181 3.65904 -0.225864 0
M  V30 2684 H 247.829 4.58387 2.071 0
M  V30 2685 H 247.529 5.81822 0.821995 0
M  V30 2686 H 249.053 5.84867 1.75392 0
M  V30 2687 H 250.467 5.70998 -0.513272 0
M  V30 2688 H 248.864 5.86072 -1.28997 0
M  V30 2689 H 249.934 4.52322 -1.74737 0
M  V30 2690 N 251.277 0.427512 1.51691 0
M  V30 2691 C 252.502 -0.143601 2.06902 0
M  V30 2692 C 252.927 -1.36536 1.29382 0
M  V30 2693 O 252.285 -1.78289 0.329043 0
M  V30 2694 C 252.333 -0.454207 3.57728 0
M  V30 2695 O 251.437 -1.54228 3.82475 0
M  V30 2696 H 250.778 -0.00617128 0.663971 0
M  V30 2697 H 253.308 0.606014 1.95419 0
M  V30 2698 H 253.318 -0.707525 4.01818 0
M  V30 2699 H 251.993 0.438812 4.13579 0
M  V30 2700 H 250.57 -1.2797 3.50254 0
M  V30 2701 N 252.755 -1.56801 0.158532 0
M  V30 2702 C 254.003 -1.96102 -0.488712 0
M  V30 2703 C 254.324 -1.04498 -1.64636 0
M  V30 2704 O 253.594 -0.108783 -1.95598 0
M  V30 2705 H 252.174 -0.724102 -0.183535 0
M  V30 2706 H 254.836 -1.93457 0.236728 0
M  V30 2707 H 253.932 -3.00097 -0.857219 0
M  V30 2708 N 254.233 0.115231 -1.57178 0
M  V30 2709 C 255.196 1.12526 -1.99676 0
M  V30 2710 C 256.196 1.34095 -0.88742 0
M  V30 2711 O 257.386 1.30548 -1.15337 0
M  V30 2712 C 254.518 2.4789 -2.34015 0
M  V30 2713 H 255.711 0.759912 -2.90113 0
M  V30 2714 H 253.264 0.359648 -1.52106 0
M  V30 2715 H 253.999 2.89339 -1.4647 0
M  V30 2716 H 253.784 2.33588 -3.14927 0
M  V30 2717 H 255.274 3.20575 -2.67622 0
M  V30 2718 N 255.711 1.52812 0.385517 0
M  V30 2719 C 256.988 1.5861 1.14465 0
M  V30 2720 C 257.368 0.381402 2.07626 0
M  V30 2721 O 256.716 -0.629999 2.19643 0
M  V30 2722 C 256.926 2.92664 1.90128 0
M  V30 2723 C 258.274 3.46526 2.45367 0
M  V30 2724 O 259.298 2.94562 2.0028 0
M  V30 2725 O 258.157 4.37323 3.27736 0
M  V30 2726 H 255.251 0.639855 0.523941 0
M  V30 2727 H 257.797 1.65149 0.390389 0
M  V30 2728 H 256.569 3.71788 1.22022 0
M  V30 2729 H 256.192 2.89527 2.72507 0
M  V30 2730 N 257.189 -0.644168 1.43834 0
M  V30 2731 C 258.438 -1.39985 1.45214 0
M  V30 2732 C 258.751 -1.95421 0.0835494 0
M  V30 2733 O 259.957 -2.71488 -0.0251748 0
M  V30 2734 C 258.413 -2.53384 2.55587 0
M  V30 2735 C 258.021 -2.04517 3.98594 0
M  V30 2736 C 259.765 -3.30685 2.66172 0
M  V30 2737 C 257.672 -3.1518 5.00416 0
M  V30 2738 H 256.602 -0.526005 0.540218 0
M  V30 2739 H 259.253 -0.694367 1.69855 0
M  V30 2740 H 257.635 -3.26446 2.24163 0
M  V30 2741 H 258.809 -1.38405 4.39523 0
M  V30 2742 H 257.124 -1.40068 3.92135 0
M  V30 2743 H 259.721 -4.13158 3.39418 0
M  V30 2744 H 260.064 -3.79312 1.71546 0
M  V30 2745 H 260.597 -2.64708 2.96942 0
M  V30 2746 H 257.336 -2.71511 5.96625 0
M  V30 2747 H 256.856 -3.79974 4.64091 0
M  V30 2748 H 258.535 -3.80166 5.23529 0
M  V30 2749 N 258.668 -1.30515 -0.883378 0
M  V30 2750 C 259.917 -1.18795 -1.63005 0
M  V30 2751 C 260.23 0.255923 -1.93919 0
M  V30 2752 O 261.436 0.494654 -2.66956 0
M  V30 2753 C 259.892 -2.07878 -2.93794 0
M  V30 2754 C 259.5 -3.57184 -2.70414 0
M  V30 2755 C 261.244 -2.04924 -3.71761 0
M  V30 2756 C 259.151 -4.38317 -3.97029 0
M  V30 2757 H 258.081 -0.441031 -0.611562 0
M  V30 2758 H 260.732 -1.55275 -0.977854 0
M  V30 2759 H 259.114 -1.64283 -3.60315 0
M  V30 2760 H 260.288 -4.08937 -2.12384 0
M  V30 2761 H 258.603 -3.61976 -2.0582 0
M  V30 2762 H 261.2 -2.62792 -4.65665 0
M  V30 2763 H 261.543 -1.0331 -4.03277 0
M  V30 2764 H 262.076 -2.46649 -3.12104 0
M  V30 2765 H 258.815 -5.40632 -3.70671 0
M  V30 2766 H 258.335 -3.91326 -4.54559 0
M  V30 2767 H 260.014 -4.49834 -4.65036 0
M  V30 2768 N 260.146 1.09593 -1.13257 0
M  V30 2769 C 261.093 2.1618 -0.808381 0
M  V30 2770 C 262.063 1.64517 0.228754 0
M  V30 2771 O 263.248 1.9053 0.101381 0
M  V30 2772 C 260.388 3.43973 -0.278675 0
M  V30 2773 C 259.501 4.09545 -1.37466 0
M  V30 2774 C 258.636 5.25088 -0.803479 0
M  V30 2775 C 257.675 5.82579 -1.87799 0
M  V30 2776 N 256.812 6.89486 -1.32488 0
M  V30 2777 H 261.652 2.43254 -1.72138 0
M  V30 2778 H 259.189 1.19392 -0.859294 0
M  V30 2779 H 261.147 4.17174 0.0465583 0
M  V30 2780 H 259.777 3.17223 0.597459 0
M  V30 2781 H 258.829 3.34226 -1.81652 0
M  V30 2782 H 260.141 4.48307 -2.18684 0
M  V30 2783 H 259.295 6.05178 -0.429427 0
M  V30 2784 H 258.034 4.87684 0.0397956 0
M  V30 2785 H 257.039 5.01152 -2.26113 0
M  V30 2786 H 258.264 6.22045 -2.72463 0
M  V30 2787 H 256.21 6.54064 -0.503575 0
M  V30 2788 H 256.127 7.27007 -2.07355 0
M  V30 2789 H 257.395 7.73336 -0.978336 0
M  V30 2790 N 261.624 0.925811 1.2754 0
M  V30 2791 C 262.87 0.566092 1.94739 0
M  V30 2792 C 263.203 -0.890057 1.72603 0
M  V30 2793 O 262.478 -1.63467 1.05399 0
M  V30 2794 C 262.761 0.89054 3.48915 0
M  V30 2795 C 262.614 2.4003 3.80402 0
M  V30 2796 C 263.933 0.395101 4.38323 0
M  V30 2797 H 261.052 0.20714 0.707292 0
M  V30 2798 H 263.694 1.15725 1.50691 0
M  V30 2799 H 261.844 0.387452 3.86563 0
M  V30 2800 H 263.516 2.97494 3.52555 0
M  V30 2801 H 261.759 2.85028 3.2702 0
M  V30 2802 H 262.43 2.57785 4.8811 0
M  V30 2803 H 264.906 0.826241 4.07814 0
M  V30 2804 H 263.782 0.651086 5.45025 0
M  V30 2805 H 264.043 -0.704798 4.36446 0
M  V30 2806 N 263.102 -1.41638 0.69111 0
M  V30 2807 C 264.35 -2.00902 0.219758 0
M  V30 2808 C 264.671 -1.54994 -1.18329 0
M  V30 2809 O 263.941 -0.778628 -1.79762 0
M  V30 2810 H 262.521 -0.74289 0.0782558 0
M  V30 2811 H 265.183 -1.73327 0.891271 0
M  V30 2812 H 264.279 -3.11224 0.233708 0
M  V30 2813 N 264.58 -0.43555 -1.51462 0
M  V30 2814 C 265.826 0.131709 -2.02372 0
M  V30 2815 C 266.159 1.42516 -1.3192 0
M  V30 2816 O 265.434 1.89606 -0.433573 0
M  V30 2817 C 265.717 0.352301 -3.58373 0
M  V30 2818 C 265.57 -0.959676 -4.39443 0
M  V30 2819 C 266.889 1.12286 -4.25535 0
M  V30 2820 H 264.008 0.0463936 -0.735538 0
M  V30 2821 H 266.65 -0.574197 -1.81116 0
M  V30 2822 H 264.8 0.9536 -3.76615 0
M  V30 2823 H 266.472 -1.59482 -4.32855 0
M  V30 2824 H 264.715 -1.56468 -4.04599 0
M  V30 2825 H 265.386 -0.759394 -5.46752 0
M  V30 2826 H 267.862 0.613545 -4.11552 0
M  V30 2827 H 266.738 1.24598 -5.34571 0
M  V30 2828 H 266.999 2.15048 -3.86273 0
M  V30 2829 N 266.058 1.56714 -0.166846 0
M  V30 2830 C 267.306 1.96358 0.478305 0
M  V30 2831 C 267.627 1.0537 1.6408 0
M  V30 2832 O 266.897 0.119154 1.95537 0
M  V30 2833 H 265.477 0.725065 0.179692 0
M  V30 2834 H 268.139 1.93329 -0.246985 0
M  V30 2835 H 267.235 3.00547 0.841292 0
M  V30 2836 N 267.536 -0.106894 1.57237 0
M  V30 2837 C 268.947 -0.662723 1.74542 0
M  V30 2838 C 269.298 -1.7971 0.787319 0
M  V30 2839 O 268.423 -2.16368 -0.0369636 0
M  V30 2840 C 269.018 -1.20896 3.16496 0
M  V30 2841 C 267.577 -1.71096 3.35266 0
M  V30 2842 C 266.724 -0.615642 2.7038 0
M  V30 2843 H 269.675 0.119106 1.58252 0
M  V30 2844 H 269.696 -2.07847 3.18716 0
M  V30 2845 H 269.208 -0.383122 3.86204 0
M  V30 2846 H 267.309 -2.56119 2.70618 0
M  V30 2847 H 267.422 -1.81208 4.43509 0
M  V30 2848 H 265.786 -1.05222 2.31949 0
M  V30 2849 H 266.569 0.199419 3.4272 0
M  V30 2850 N 269.014 -1.53014 -0.377408 0
M  V30 2851 C 270.262 -1.6829 -1.11906 0
M  V30 2852 C 270.583 -0.431206 -1.90173 0
M  V30 2853 O 269.853 0.554595 -1.87886 0
M  V30 2854 H 268.433 -0.620371 -0.416112 0
M  V30 2855 H 271.095 -1.90167 -0.426893 0
M  V30 2856 H 270.191 -2.53862 -1.8155 0
M  V30 2857 N 270.492 0.636531 -1.44174 0
M  V30 2858 C 271.717 1.42847 -1.50364 0
M  V30 2859 C 272.142 1.87665 -0.127867 0
M  V30 2860 O 271.5 1.58408 0.88185 0
M  V30 2861 C 271.548 2.62854 -2.4686 0
M  V30 2862 O 270.652 3.62501 -1.9664 0
M  V30 2863 H 269.993 0.427642 -0.507955 0
M  V30 2864 H 272.523 0.777422 -1.89255 0
M  V30 2865 H 272.533 3.10465 -2.64718 0
M  V30 2866 H 271.208 2.29578 -3.46795 0
M  V30 2867 H 269.785 3.21735 -1.88523 0
M  V30 2868 N 271.97 1.30982 0.876444 0
M  V30 2869 C 273.216 1.20474 1.63138 0
M  V30 2870 C 273.549 -0.238096 1.92735 0
M  V30 2871 O 272.824 -1.1692 1.55435 0
M  V30 2872 C 273.107 2.04244 2.96574 0
M  V30 2873 C 272.96 3.56793 2.73896 0
M  V30 2874 C 274.279 1.88684 3.97601 0
M  V30 2875 H 271.398 0.439001 0.591985 0
M  V30 2876 H 274.04 1.60704 1.01361 0
M  V30 2877 H 272.19 1.70063 3.493 0
M  V30 2878 H 273.862 4.01077 2.27892 0
M  V30 2879 H 272.105 3.80548 2.08245 0
M  V30 2880 H 272.776 4.10706 3.68815 0
M  V30 2881 H 275.252 2.18584 3.54062 0
M  V30 2882 H 274.128 2.4961 4.88862 0
M  V30 2883 H 274.389 0.848343 4.33884 0
M  V30 2884 N 273.449 -1.08991 1.13837 0
M  V30 2885 C 274.689 -1.82867 0.913183 0
M  V30 2886 C 275.053 -1.83936 -0.550604 0
M  V30 2887 O 276.254 -2.53515 -0.893515 0
M  V30 2888 C 274.525 -3.24843 1.49036 0
M  V30 2889 S 276.084 -4.15669 1.40588 0
M  V30 2890 H 272.902 -0.630278 0.329046 0
M  V30 2891 H 275.504 -1.31049 1.45073 0
M  V30 2892 H 274.208 -3.21644 2.54899 0
M  V30 2893 H 273.739 -3.81734 0.950947 0
M  V30 2894 H 275.754 -4.94686 0.387353 0
M  V30 2895 N 274.927 -0.932562 -1.27047 0
M  V30 2896 C 276.155 -0.592031 -1.98249 0
M  V30 2897 C 276.57 0.831062 -1.69525 0
M  V30 2898 O 275.927 1.55299 -0.958561 0
M  V30 2899 C 275.978 -0.814279 -3.5221 0
M  V30 2900 O 275.699 -2.18139 -3.7993 0
M  V30 2901 C 277.2 -0.483121 -4.4066 0
M  V30 2902 H 274.42 -0.223896 -0.632544 0
M  V30 2903 H 276.964 -1.25091 -1.61779 0
M  V30 2904 H 275.119 -0.20213 -3.86872 0
M  V30 2905 H 275.533 -2.235 -4.74498 0
M  V30 2906 H 277.007 -0.689298 -5.47679 0
M  V30 2907 H 277.484 0.581546 -4.35333 0
M  V30 2908 H 278.09 -1.07362 -4.11526 0
M  V30 2909 N 276.405 1.4127 -0.698611 0
M  V30 2910 C 277.633 2.05503 -0.239992 0
M  V30 2911 C 278.048 1.52584 1.11191 0
M  V30 2912 O 277.405 0.675323 1.69545 0
M  V30 2913 C 277.456 3.60987 -0.192429 0
M  V30 2914 O 277.177 4.1195 -1.49094 0
M  V30 2915 C 278.678 4.42371 0.28681 0
M  V30 2916 H 275.898 0.661748 -0.111045 0
M  V30 2917 H 278.442 1.80987 -0.95205 0
M  V30 2918 H 276.597 3.84533 0.470472 0
M  V30 2919 H 277.011 5.06018 -1.38007 0
M  V30 2920 H 278.485 5.51344 0.26896 0
M  V30 2921 H 278.962 4.18699 1.32619 0
M  V30 2922 H 279.568 4.23897 -0.345201 0
M  V30 2923 N 277.883 0.443576 1.51229 0
M  V30 2924 C 279.299 0.0962001 1.5931 0
M  V30 2925 C 279.499 -1.39501 1.45402 0
M  V30 2926 O 278.555 -2.16557 1.29843 0
M  V30 2927 C 279.868 0.621875 2.94199 0
M  V30 2928 C 281.416 0.582865 3.07525 0
M  V30 2929 C 281.891 1.08562 4.44948 0
M  V30 2930 N 283.382 1.04387 4.51284 0
M  V30 2931 C 284.117 1.40368 5.55954 0
M  V30 2932 N 283.613 1.83664 6.68011 0
M  V30 2933 N 285.406 1.32145 5.46346 0
M  V30 2934 H 277.557 1.41376 1.58514 0
M  V30 2935 H 279.82 0.582965 0.747567 0
M  V30 2936 H 279.526 1.66546 3.09767 0
M  V30 2937 H 279.4 0.0502125 3.77167 0
M  V30 2938 H 281.787 -0.451749 2.91622 0
M  V30 2939 H 281.868 1.191 2.26382 0
M  V30 2940 H 281.512 2.11873 4.61598 0
M  V30 2941 H 281.442 0.453956 5.2464 0
M  V30 2942 H 283.933 0.725986 3.70861 0
M  V30 2943 H 284.246 2.0934 7.43906 0
M  V30 2944 H 282.591 1.87596 6.69203 0
M  V30 2945 H 285.782 0.981808 4.57688 0
M  V30 2946 H 285.955 1.60514 6.27805 0
M  V30 2947 N 279.361 -1.56624 0.175154 0
M  V30 2948 C 280.589 -2.01374 -0.474971 0
M  V30 2949 C 281.004 -1.05537 -1.56548 0
M  V30 2950 O 280.361 -0.0568668 -1.82411 0
M  V30 2951 C 280.412 -3.45923 -1.04975 0
M  V30 2952 O 280.133 -4.381 -0.00276605 0
M  V30 2953 C 281.634 -4.06093 -1.77773 0
M  V30 2954 H 278.854 -0.659962 -0.121206 0
M  V30 2955 H 281.398 -2.02601 0.27801 0
M  V30 2956 H 279.553 -3.45458 -1.75321 0
M  V30 2957 H 279.967 -5.22753 -0.427681 0
M  V30 2958 H 281.441 -5.09147 -2.13245 0
M  V30 2959 H 281.918 -3.48405 -2.67414 0
M  V30 2960 H 282.524 -4.10272 -1.12059 0
M  V30 2961 N 280.839 0.0985539 -1.57292 0
M  V30 2962 C 281.786 1.11981 -2.01814 0
M  V30 2963 C 282.756 1.39999 -0.89384 0
M  V30 2964 O 283.941 1.5152 -1.15958 0
M  V30 2965 C 281.081 2.43577 -2.44467 0
M  V30 2966 C 280.194 2.2232 -3.70402 0
M  V30 2967 C 279.329 3.4729 -4.01949 0
M  V30 2968 C 278.368 3.2128 -5.21005 0
M  V30 2969 N 277.505 4.38507 -5.48321 0
M  V30 2970 H 282.345 0.733149 -2.88841 0
M  V30 2971 H 279.882 0.350482 -1.42864 0
M  V30 2972 H 281.84 3.20373 -2.6724 0
M  V30 2973 H 280.47 2.80097 -1.60455 0
M  V30 2974 H 279.522 1.36343 -3.55126 0
M  V30 2975 H 280.834 1.99089 -4.57345 0
M  V30 2976 H 279.988 4.32495 -4.25479 0
M  V30 2977 H 278.727 3.73572 -3.13521 0
M  V30 2978 H 277.732 2.34468 -4.97298 0
M  V30 2979 H 278.957 2.96348 -6.11028 0
M  V30 2980 H 276.903 4.64871 -4.62851 0
M  V30 2981 H 276.82 4.18455 -6.29628 0
M  V30 2982 H 278.088 5.24787 -5.76385 0
M  V30 2983 N 282.317 1.53212 0.369288 0
M  V30 2984 C 283.545 1.73119 1.13303 0
M  V30 2985 C 283.96 0.458455 1.83149 0
M  V30 2986 O 283.317 -0.568403 1.73423 0
M  V30 2987 C 283.368 2.89413 2.16616 0
M  V30 2988 O 283.089 4.11761 1.49614 0
M  V30 2989 C 284.59 3.21161 3.05566 0
M  V30 2990 H 281.81 0.579107 0.338934 0
M  V30 2991 H 284.354 1.99942 0.429338 0
M  V30 2992 H 282.509 2.64994 2.82589 0
M  V30 2993 H 282.923 4.76858 2.18419 0
M  V30 2994 H 284.397 4.05949 3.74045 0
M  V30 2995 H 284.874 2.36369 3.70171 0
M  V30 2996 H 285.48 3.47492 2.45213 0
M  V30 2997 N 283.795 -0.628877 1.44509 0
M  V30 2998 C 285.043 -1.38565 1.4712 0
M  V30 2999 C 285.364 -1.94712 0.105899 0
M  V30 3000 O 284.634 -1.75912 -0.862079 0
M  V30 3001 H 283.214 -0.514333 0.541729 0
M  V30 3002 H 285.876 -0.740018 1.80305 0
M  V30 3003 H 284.972 -2.21583 2.19789 0
M  V30 3004 N 285.273 -1.31445 -0.869486 0
M  V30 3005 C 286.519 -1.21337 -1.62496 0
M  V30 3006 C 286.852 0.227872 -1.92858 0
M  V30 3007 O 286.127 1.16094 -1.56053 0
M  V30 3008 C 286.41 -2.05814 -2.95487 0
M  V30 3009 C 286.263 -3.5824 -2.72 0
M  V30 3010 C 287.582 -1.9079 -3.96594 0
M  V30 3011 H 284.701 -0.442135 -0.589649 0
M  V30 3012 H 287.343 -1.6124 -1.00507 0
M  V30 3013 H 285.493 -1.71913 -3.48394 0
M  V30 3014 H 287.165 -4.0228 -2.25762 0
M  V30 3015 H 285.408 -3.81647 -2.06224 0
M  V30 3016 H 286.079 -4.12657 -3.66631 0
M  V30 3017 H 288.555 -2.20459 -3.52898 0
M  V30 3018 H 287.431 -2.52199 -4.87531 0
M  V30 3019 H 287.692 -0.871341 -4.33428 0
M  V30 3020 N 286.751 1.08385 -1.14413 0
M  V30 3021 C 287.999 1.80419 -0.910679 0
M  V30 3022 C 288.32 1.86658 0.564243 0
M  V30 3023 O 287.59 1.35985 1.41014 0
M  V30 3024 H 286.17 0.668204 -0.333934 0
M  V30 3025 H 288.832 1.31037 -1.44275 0
M  V30 3026 H 287.928 2.83238 -1.31082 0
M  V30 3027 N 288.23 0.939286 1.26551 0
M  V30 3028 C 289.46 0.601663 1.97645 0
M  V30 3029 C 289.868 -0.827206 1.70159 0
M  V30 3030 O 289.211 -1.56291 0.965338 0
M  V30 3031 C 289.273 0.761725 3.51337 0
M  V30 3032 C 288.937 2.16487 4.0247 0
M  V30 3033 C 289.934 3.14016 4.14355 0
M  V30 3034 C 287.619 2.48494 4.36527 0
M  V30 3035 C 289.613 4.41654 4.59587 0
M  V30 3036 C 287.3 3.76364 4.81449 0
M  V30 3037 C 288.298 4.72758 4.92939 0
M  V30 3038 O 287.986 5.98352 5.36871 0
M  V30 3039 H 287.718 0.225758 0.637189 0
M  V30 3040 H 290.272 1.26178 1.62075 0
M  V30 3041 H 288.502 0.0444808 3.86674 0
M  V30 3042 H 290.191 0.427442 4.03643 0
M  V30 3043 H 290.957 2.90613 3.8829 0
M  V30 3044 H 286.836 1.74202 4.26819 0
M  V30 3045 H 290.38 5.16896 4.68471 0
M  V30 3046 H 286.277 3.99582 5.06956 0
M  V30 3047 H 287.045 6.01507 5.55096 0
M  V30 3048 N 289.708 -1.40897 0.706093 0
M  V30 3049 C 291.119 -1.84023 0.315052 0
M  V30 3050 C 291.47 -1.5906 -1.14866 0
M  V30 3051 O 290.595 -1.06651 -1.88293 0
M  V30 3052 C 291.19 -3.34055 0.565038 0
M  V30 3053 C 289.749 -3.7571 0.227806 0
M  V30 3054 C 288.896 -2.64204 0.842122 0
M  V30 3055 H 291.847 -1.303 0.905963 0
M  V30 3056 H 291.868 -3.80107 -0.172843 0
M  V30 3057 H 291.38 -3.52192 1.63042 0
M  V30 3058 H 289.481 -3.63172 -0.832895 0
M  V30 3059 H 289.594 -4.74103 0.690174 0
M  V30 3060 H 287.958 -2.53255 0.270893 0
M  V30 3061 H 288.741 -2.85155 1.91158 0
M  V30 3062 N 291.186 -0.45159 -1.50991 0
M  V30 3063 C 292.118 0.388634 -2.25881 0
M  V30 3064 C 293.131 0.974041 -1.30446 0
M  V30 3065 O 294.32 0.865758 -1.56099 0
M  V30 3066 C 291.42 1.5571 -3.01011 0
M  V30 3067 C 290.593 1.08801 -4.23652 0
M  V30 3068 C 289.652 2.12825 -4.8124 0
M  V30 3069 O 288.678 1.71678 -5.42693 0
M  V30 3070 N 289.88 3.45453 -4.66522 0
M  V30 3071 H 292.645 -0.25329 -2.98628 0
M  V30 3072 H 290.206 -0.281268 -1.59438 0
M  V30 3073 H 292.198 2.24952 -3.3642 0
M  V30 3074 H 290.768 2.10409 -2.31186 0
M  V30 3075 H 289.988 0.22215 -3.93574 0
M  V30 3076 H 291.276 0.752213 -5.03209 0
M  V30 3077 H 290.674 3.81605 -4.17605 0
M  V30 3078 H 289.231 4.10549 -5.06254 0
M  V30 3079 N 292.664 1.56529 -0.183458 0
M  V30 3080 C 293.594 2.21549 0.737456 0
M  V30 3081 C 294.575 1.17489 1.23005 0
M  V30 3082 O 295.76 1.45959 1.281 0
M  V30 3083 C 292.89 2.86575 1.96194 0
M  V30 3084 C 291.844 3.96778 1.60473 0
M  V30 3085 C 291.17 4.48911 2.90487 0
M  V30 3086 C 292.47 5.15767 0.823497 0
M  V30 3087 H 294.164 2.98761 0.195453 0
M  V30 3088 H 291.71 1.43702 0.0925686 0
M  V30 3089 H 293.663 3.30739 2.61131 0
M  V30 3090 H 292.387 2.06749 2.52828 0
M  V30 3091 H 291.046 3.53286 0.978997 0
M  V30 3092 H 290.694 3.65862 3.45186 0
M  V30 3093 H 290.394 5.23265 2.67335 0
M  V30 3094 H 291.918 4.95771 3.56432 0
M  V30 3095 H 293.332 5.56549 1.37571 0
M  V30 3096 H 291.729 5.96114 0.690551 0
M  V30 3097 H 292.799 4.84574 -0.177782 0
M  V30 3098 N 294.142 -0.090211 1.57342 0
M  V30 3099 C 295.367 -0.810082 1.90925 0
M  V30 3100 C 295.792 -1.71248 0.778187 0
M  V30 3101 O 295.15 -1.79278 -0.269991 0
M  V30 3102 C 295.198 -1.59529 3.23393 0
M  V30 3103 O 294.302 -2.70461 3.11327 0
M  V30 3104 H 293.643 -0.222231 0.625707 0
M  V30 3105 H 296.173 -0.0639716 2.045 0
M  V30 3106 H 296.183 -1.97847 3.5682 0
M  V30 3107 H 294.858 -0.933055 4.05299 0
M  V30 3108 H 293.435 -2.35135 2.89423 0
M  V30 3109 N 295.62 -1.53406 -0.361157 0
M  V30 3110 C 296.583 -1.79479 -1.42548 0
M  V30 3111 C 297.583 -0.665327 -1.4639 0
M  V30 3112 O 298.773 -0.933549 -1.47073 0
M  V30 3113 C 295.905 -1.92087 -2.8163 0
M  V30 3114 H 297.098 -2.74538 -1.20701 0
M  V30 3115 H 294.651 -1.4455 -0.594546 0
M  V30 3116 H 295.386 -0.991099 -3.08784 0
M  V30 3117 H 295.171 -2.74241 -2.80239 0
M  V30 3118 H 296.661 -2.13836 -3.58697 0
M  V30 3119 N 297.098 0.621204 -1.44841 0
M  V30 3120 C 298.344 1.3826 -1.48365 0
M  V30 3121 C 298.677 1.93831 -0.119624 0
M  V30 3122 O 297.952 1.74251 0.864111 0
M  V30 3123 C 298.235 2.54058 -2.55199 0
M  V30 3124 C 298.088 2.03772 -4.00995 0
M  V30 3125 C 299.407 3.56225 -2.58442 0
M  V30 3126 H 296.526 0.501374 -0.540179 0
M  V30 3127 H 299.168 0.7015 -1.76576 0
M  V30 3128 H 297.318 3.12162 -2.31274 0
M  V30 3129 H 298.99 1.50423 -4.36086 0
M  V30 3130 H 297.233 1.34876 -4.12299 0
M  V30 3131 H 297.904 2.87185 -4.71411 0
M  V30 3132 H 300.38 3.07939 -2.79844 0
M  V30 3133 H 299.256 4.34756 -3.3508 0
M  V30 3134 H 299.517 4.10949 -1.63013 0
M  V30 3135 N 298.576 1.31904 0.862503 0
M  V30 3136 C 299.825 1.21373 1.61094 0
M  V30 3137 C 300.138 -0.22504 1.94301 0
M  V30 3138 O 301.344 -0.452121 2.67709 0
M  V30 3139 C 299.8 2.12525 2.9045 0
M  V30 3140 C 299.408 3.61441 2.64697 0
M  V30 3141 C 301.152 2.10813 3.68454 0
M  V30 3142 C 299.059 4.44578 3.90006 0
M  V30 3143 H 297.989 0.450705 0.604468 0
M  V30 3144 H 300.64 1.56811 0.953027 0
M  V30 3145 H 299.022 1.69994 3.57656 0
M  V30 3146 H 300.196 4.12264 2.05851 0
M  V30 3147 H 298.511 3.65205 2.00036 0
M  V30 3148 H 301.108 2.70167 4.61426 0
M  V30 3149 H 301.451 1.09713 4.01583 0
M  V30 3150 H 301.984 2.51583 3.08141 0
M  V30 3151 H 298.723 5.46461 3.62023 0
M  V30 3152 H 298.243 3.98508 4.48276 0
M  V30 3153 H 299.922 4.57176 4.5782 0
M  V30 3154 N 300.054 -1.07777 1.14986 0
M  V30 3155 C 300.964 -2.18404 0.856546 0
M  V30 3156 C 301.98 -1.73211 -0.165485 0
M  V30 3157 O 303.156 -2.01399 0.00755219 0
M  V30 3158 C 300.221 -3.44977 0.34526 0
M  V30 3159 C 299.282 -4.0476 1.43065 0
M  V30 3160 C 298.515 -5.25291 0.943663 0
M  V30 3161 O 298.738 -5.70004 -0.212426 0
M  V30 3162 O 297.672 -5.76638 1.72547 0
M  V30 3163 H 301.498 -2.45978 1.78125 0
M  V30 3164 H 299.083 -1.17033 0.928631 0
M  V30 3165 H 300.965 -4.21348 0.0663671 0
M  V30 3166 H 299.64 -3.18965 -0.551631 0
M  V30 3167 H 298.547 -3.29949 1.76309 0
M  V30 3168 H 299.88 -4.35035 2.30229 0
M  V30 3169 N 301.532 -0.945985 -1.26051 0
M  V30 3170 C 302.772 -0.603665 -1.95282 0
M  V30 3171 C 303.136 0.842377 -1.72534 0
M  V30 3172 O 304.337 1.29387 -2.35611 0
M  V30 3173 C 302.608 -0.942292 -3.44754 0
M  V30 3174 S 304.167 -0.711242 -4.32997 0
M  V30 3175 H 300.985 -0.222176 -0.675395 0
M  V30 3176 H 303.587 -1.21832 -1.52896 0
M  V30 3177 H 302.291 -1.99203 -3.58812 0
M  V30 3178 H 301.822 -0.317546 -3.92116 0
M  V30 3179 H 303.837 0.422221 -4.944 0
M  V30 3180 N 303.011 1.40521 -0.713556 0
M  V30 3181 C 303.974 2.29098 -0.0684347 0
M  V30 3182 C 304.974 1.45268 0.689472 0
M  V30 3183 O 306.164 1.66205 0.521677 0
M  V30 3184 C 303.296 3.28446 0.913024 0
M  V30 3185 H 304.489 2.87645 -0.84855 0
M  V30 3186 H 302.042 1.48809 -0.47809 0
M  V30 3187 H 302.777 2.74913 1.72027 0
M  V30 3188 H 302.562 3.90327 0.372472 0
M  V30 3189 H 304.052 3.94777 1.36165 0
M  V30 3190 N 304.489 0.459591 1.5075 0
M  V30 3191 C 305.766 -0.160371 1.94941 0
M  V30 3192 C 306.146 -1.58048 1.39943 0
M  V30 3193 O 305.494 -2.206 0.595629 0
M  V30 3194 C 305.704 -0.115432 3.48809 0
M  V30 3195 C 307.052 -0.310026 4.23467 0
M  V30 3196 O 308.076 -0.192543 3.55679 0
M  V30 3197 O 306.935 -0.546031 5.43765 0
M  V30 3198 H 304.029 -0.117925 0.818549 0
M  V30 3199 H 306.575 0.519169 1.61563 0
M  V30 3200 H 305.347 0.87652 3.81357 0
M  V30 3201 H 304.97 -0.836928 3.88692 0
M  V30 3202 N 305.967 -1.56429 0.191757 0
M  V30 3203 C 307.192 -2.02309 -0.456706 0
M  V30 3204 C 307.617 -1.07103 -1.5463 0
M  V30 3205 O 306.975 -0.0539677 -1.8122 0
M  V30 3206 C 307.023 -3.46654 -0.993159 0
M  V30 3207 O 306.127 -3.54559 -2.10622 0
M  V30 3208 H 305.468 -0.655303 -0.107114 0
M  V30 3209 H 307.998 -2.02364 0.301653 0
M  V30 3210 H 308.008 -3.86377 -1.31061 0
M  V30 3211 H 306.683 -4.1544 -0.195504 0
M  V30 3212 H 305.26 -3.26708 -1.79767 0
M  V30 3213 N 307.445 0.0818655 -1.57387 0
M  V30 3214 C 308.408 1.08265 -2.02018 0
M  V30 3215 C 309.408 1.32183 -0.915664 0
M  V30 3216 O 310.598 1.28073 -1.18081 0
M  V30 3217 C 307.73 2.42871 -2.39221 0
M  V30 3218 H 308.923 0.698204 -2.91659 0
M  V30 3219 H 306.476 0.327303 -1.52835 0
M  V30 3220 H 307.211 2.86167 -1.52575 0
M  V30 3221 H 306.996 2.26855 -3.19811 0
M  V30 3222 H 308.486 3.14826 -2.74362 0
M  V30 3223 N 308.923 1.53595 0.353017 0
M  V30 3224 C 309.873 1.77299 1.43349 0
M  V30 3225 C 310.857 0.627884 1.48143 0
M  V30 3226 O 312.049 0.88697 1.53173 0
M  V30 3227 C 309.178 1.97757 2.80619 0
M  V30 3228 C 308.264 3.18305 2.80254 0
M  V30 3229 N 308.655 4.39967 2.49526 0
M  V30 3230 C 306.953 3.19283 3.11407 0
M  V30 3231 C 307.654 5.21772 2.57156 0
M  V30 3232 N 306.63 4.58269 2.92388 0
M  V30 3233 H 310.432 2.68963 1.18474 0
M  V30 3234 H 307.946 1.52391 0.561306 0
M  V30 3235 H 309.943 2.1287 3.58458 0
M  V30 3236 H 308.603 1.07329 3.06448 0
M  V30 3237 H 309.614 4.67482 2.22893 0
M  V30 3238 H 306.291 2.3879 3.4247 0
M  V30 3239 H 307.681 6.2885 2.36638 0
M  V30 3240 N 310.401 -0.613514 1.45168 0
M  V30 3241 C 311.649 -1.36997 1.48581 0
M  V30 3242 C 311.97 -1.94589 0.126545 0
M  V30 3243 O 311.24 -1.76816 -0.843372 0
M  V30 3244 H 309.82 -0.508558 0.547154 0
M  V30 3245 H 312.482 -0.720853 1.81079 0
M  V30 3246 H 311.578 -2.1924 2.22127 0
M  V30 3247 N 311.879 -1.3236 -0.855495 0
M  V30 3248 C 312.809 -1.23833 -1.97958 0
M  V30 3249 C 313.79 -0.122361 -1.69659 0
M  V30 3250 O 314.975 -0.30939 -1.9172 0
M  V30 3251 C 312.105 -0.959772 -3.33775 0
M  V30 3252 C 311.059 -2.03689 -3.76424 0
M  V30 3253 C 310.385 -1.61075 -5.09862 0
M  V30 3254 C 311.685 -3.4518 -3.9198 0
M  V30 3255 H 313.379 -2.1788 -2.0535 0
M  V30 3256 H 310.925 -1.04891 -0.986605 0
M  V30 3257 H 312.878 -0.886678 -4.11966 0
M  V30 3258 H 311.602 0.0163404 -3.26596 0
M  V30 3259 H 310.261 -2.10012 -3.00484 0
M  V30 3260 H 309.909 -0.622107 -4.99138 0
M  V30 3261 H 309.609 -2.33143 -5.39368 0
M  V30 3262 H 311.133 -1.55201 -5.90546 0
M  V30 3263 H 312.547 -3.4145 -4.60526 0
M  V30 3264 H 310.944 -4.1559 -4.32903 0
M  V30 3265 H 312.014 -3.84903 -2.94919 0
M  V30 3266 N 313.357 1.07166 -1.15556 0
M  V30 3267 C 314.304 2.14417 -0.854055 0
M  V30 3268 C 315.274 1.64965 0.193806 0
M  V30 3269 O 316.459 1.90703 0.0609443 0
M  V30 3270 C 313.599 3.43304 -0.351574 0
M  V30 3271 C 312.712 4.06537 -1.46123 0
M  V30 3272 C 311.847 5.23266 -0.914677 0
M  V30 3273 C 310.886 5.78464 -2.00114 0
M  V30 3274 N 310.023 6.86521 -1.47083 0
M  V30 3275 H 314.863 2.39548 -1.77259 0
M  V30 3276 H 312.4 1.17543 -0.884425 0
M  V30 3277 H 314.358 4.17179 -0.0419409 0
M  V30 3278 H 312.988 3.18419 0.530037 0
M  V30 3279 H 312.04 3.30297 -1.88701 0
M  V30 3280 H 313.352 4.43567 -2.28144 0
M  V30 3281 H 312.506 6.04131 -0.557698 0
M  V30 3282 H 311.245 4.87658 -0.0636583 0
M  V30 3283 H 310.25 4.96243 -2.36692 0
M  V30 3284 H 311.475 6.16126 -2.85597 0
M  V30 3285 H 309.421 6.52849 -0.642198 0
M  V30 3286 H 309.338 7.22446 -2.22729 0
M  V30 3287 H 310.606 7.71087 -1.14215 0
M  V30 3288 N 314.835 0.952656 1.25548 0
M  V30 3289 C 316.083 0.605176 1.92826 0
M  V30 3290 C 316.404 -0.860261 1.74999 0
M  V30 3291 O 315.674 -1.6125 1.11244 0
M  V30 3292 H 314.254 0.220832 0.713612 0
M  V30 3293 H 316.916 1.21047 1.52754 0
M  V30 3294 H 316.012 0.832798 3.00784 0
M  V30 3295 N 316.313 -1.40141 0.720998 0
M  V30 3296 C 317.263 -2.27949 0.0482544 0
M  V30 3297 C 318.247 -1.43538 -0.727021 0
M  V30 3298 O 319.439 -1.6658 -0.598332 0
M  V30 3299 C 316.568 -3.32126 -0.868729 0
M  V30 3300 C 315.654 -4.24008 -0.0883515 0
M  V30 3301 N 316.045 -4.97154 0.931226 0
M  V30 3302 C 314.343 -4.4485 -0.320105 0
M  V30 3303 C 315.044 -5.64587 1.4006 0
M  V30 3304 N 314.02 -5.38787 0.721752 0
M  V30 3305 H 317.822 -2.81948 0.829609 0
M  V30 3306 H 315.336 -1.52656 0.554067 0
M  V30 3307 H 317.333 -3.93884 -1.36605 0
M  V30 3308 H 315.993 -2.79687 -1.6494 0
M  V30 3309 H 317.004 -5.01 1.31222 0
M  V30 3310 H 313.681 -4.03378 -1.07668 0
M  V30 3311 H 315.071 -6.33175 2.24808 0
M  V30 3312 N 317.792 -0.46758 -1.50504 0
M  V30 3313 C 319.041 0.0902868 -2.01498 0
M  V30 3314 C 319.354 1.411 -1.35463 0
M  V30 3315 O 320.56 2.0536 -1.77594 0
M  V30 3316 C 319.016 0.21142 -3.59278 0
M  V30 3317 C 318.624 -1.10065 -4.34269 0
M  V30 3318 C 320.368 0.721433 -4.18325 0
M  V30 3319 C 318.275 -0.943505 -5.83825 0
M  V30 3320 H 317.205 0.037517 -0.753066 0
M  V30 3321 H 319.856 -0.601943 -1.73346 0
M  V30 3322 H 318.238 0.967352 -3.84003 0
M  V30 3323 H 319.412 -1.86726 -4.21272 0
M  V30 3324 H 317.727 -1.5415 -3.86816 0
M  V30 3325 H 320.324 0.85598 -5.27804 0
M  V30 3326 H 320.667 1.71186 -3.79475 0
M  V30 3327 H 321.2 0.0229843 -3.97793 0
M  V30 3328 H 317.939 -1.90719 -6.27141 0
M  V30 3329 H 317.459 -0.217213 -5.99407 0
M  V30 3330 H 319.138 -0.608715 -6.4413 0
M  V30 3331 N 319.27 1.56325 -0.20005 0
M  V30 3332 C 320.519 1.96895 0.437652 0
M  V30 3333 C 320.832 1.08999 1.62415 0
M  V30 3334 O 322.038 1.39372 2.32997 0
M  V30 3335 C 320.494 3.50198 0.830025 0
M  V30 3336 C 320.102 4.46765 -0.332461 0
M  V30 3337 C 321.846 3.99526 1.43453 0
M  V30 3338 C 319.753 5.91344 0.0811468 0
M  V30 3339 H 318.683 0.735209 0.167282 0
M  V30 3340 H 321.334 1.81148 -0.292853 0
M  V30 3341 H 319.716 3.61467 1.61734 0
M  V30 3342 H 320.89 4.47231 -1.11 0
M  V30 3343 H 319.205 4.07657 -0.848789 0
M  V30 3344 H 321.802 5.05025 1.75652 0
M  V30 3345 H 322.145 3.44122 2.34277 0
M  V30 3346 H 322.678 3.91393 0.71109 0
M  V30 3347 H 319.417 6.50685 -0.793033 0
M  V30 3348 H 318.937 5.94121 0.823445 0
M  V30 3349 H 320.616 6.44945 0.515252 0
M  V30 3350 N 320.748 -0.0735177 1.57428 0
M  V30 3351 C 321.973 -0.789787 1.91774 0
M  V30 3352 C 322.398 -1.70413 0.796306 0
M  V30 3353 O 321.756 -1.79555 -0.250961 0
M  V30 3354 C 321.804 -1.5609 3.25067 0
M  V30 3355 O 320.908 -2.67144 3.14178 0
M  V30 3356 H 320.249 -0.215582 0.628029 0
M  V30 3357 H 322.779 -0.0422781 2.04556 0
M  V30 3358 H 322.789 -1.94052 3.58898 0
M  V30 3359 H 321.464 -0.890015 4.06265 0
M  V30 3360 H 320.041 -2.32052 2.91901 0
M  V30 3361 N 322.226 -1.5378 -0.344866 0
M  V30 3362 C 323.503 -1.61589 -1.10219 0
M  V30 3363 C 323.883 -0.436316 -2.06542 0
M  V30 3364 O 323.231 0.571543 -2.21237 0
M  V30 3365 C 323.441 -2.97602 -1.82301 0
M  V30 3366 C 324.789 -3.5291 -2.36093 0
M  V30 3367 O 325.813 -2.99768 -1.924 0
M  V30 3368 O 324.672 -4.45859 -3.16026 0
M  V30 3369 H 321.766 -0.653522 -0.506792 0
M  V30 3370 H 324.312 -1.66126 -0.346465 0
M  V30 3371 H 323.084 -3.74893 -1.12121 0
M  V30 3372 H 322.707 -2.9665 -2.64735 0
M  V30 3373 N 323.704 0.605807 -1.45491 0
M  V30 3374 C 324.952 1.36207 -1.49305 0
M  V30 3375 C 325.273 1.94519 -0.136863 0
M  V30 3376 O 324.543 1.77261 0.833983 0
M  V30 3377 H 323.123 0.50565 -0.549843 0
M  V30 3378 H 325.785 0.711239 -1.81459 0
M  V30 3379 H 324.881 2.18058 -2.23287 0
M  V30 3380 N 325.182 1.32811 0.848464 0
M  V30 3381 C 326.43 1.23479 1.59991 0
M  V30 3382 C 326.751 -0.201853 1.93952 0
M  V30 3383 O 326.021 -1.12818 1.60153 0
M  V30 3384 H 324.601 0.454034 0.593179 0
M  V30 3385 H 327.263 1.66412 1.01455 0
M  V30 3386 H 326.359 1.82178 2.53412 0
M  V30 3387 N 326.66 -1.06551 1.16123 0
M  V30 3388 C 327.9 -1.80889 0.951766 0
M  V30 3389 C 328.264 -1.85062 -0.511465 0
M  V30 3390 O 329.465 -2.55353 -0.83954 0
M  V30 3391 C 327.736 -3.21609 1.55893 0
M  V30 3392 S 329.295 -4.12593 1.49373 0
M  V30 3393 H 326.113 -0.623156 0.342341 0
M  V30 3394 H 328.715 -1.27943 1.47821 0
M  V30 3395 H 327.419 -3.16165 2.61664 0
M  V30 3396 H 326.95 -3.79631 1.0317 0
M  V30 3397 H 328.965 -4.93753 0.492196 0
M  V30 3398 N 328.138 -0.959301 -1.25041 0
M  V30 3399 C 329.366 -0.633949 -1.96948 0
M  V30 3400 C 329.781 0.794916 -1.7125 0
M  V30 3401 O 329.138 1.53231 -0.991287 0
M  V30 3402 C 329.189 -0.888805 -3.50403 0
M  V30 3403 O 328.91 -2.26149 -3.75218 0
M  V30 3404 C 330.411 -0.576482 -4.39536 0
M  V30 3405 H 327.631 -0.237263 -0.627652 0
M  V30 3406 H 330.175 -1.28495 -1.59089 0
M  V30 3407 H 328.33 -0.284145 -3.86357 0
M  V30 3408 H 328.744 -2.33514 -4.6965 0
M  V30 3409 H 330.218 -0.805314 -5.46094 0
M  V30 3410 H 330.695 0.489075 -4.36468 0
M  V30 3411 H 331.301 -1.16067 -4.09156 0
M  V30 3412 N 329.616 1.39756 -0.72842 0
M  V30 3413 C 330.856 2.025 -0.278078 0
M  V30 3414 C 331.22 1.5654 1.11173 0
M  V30 3415 O 332.421 2.11435 1.65978 0
M  V30 3416 C 330.692 3.55489 -0.369139 0
M  V30 3417 S 332.251 4.388 0.00232983 0
M  V30 3418 H 329.069 0.702534 -0.109391 0
M  V30 3419 H 331.671 1.70672 -0.95348 0
M  V30 3420 H 330.375 3.86429 -1.38204 0
M  V30 3421 H 329.906 3.92061 0.324308 0
M  V30 3422 H 331.921 4.80954 1.22055 0
M  V30 3423 N 331.094 0.475555 1.50254 0
M  V30 3424 C 332.505 0.0215174 1.86688 0
M  V30 3425 C 332.856 -1.38467 1.39001 0
M  V30 3426 O 331.981 -2.02732 0.756894 0
M  V30 3427 C 332.576 0.0322715 3.38785 0
M  V30 3428 C 331.135 -0.366314 3.74613 0
M  V30 3429 C 330.282 0.415832 2.74164 0
M  V30 3430 H 333.233 0.689612 1.42934 0
M  V30 3431 H 333.254 -0.76889 3.7265 0
M  V30 3432 H 332.766 1.05584 3.73462 0
M  V30 3433 H 330.867 -1.39406 3.45538 0
M  V30 3434 H 330.98 -0.064555 4.79057 0
M  V30 3435 H 329.344 -0.131048 2.54363 0
M  V30 3436 H 330.127 1.43899 3.11686 0
M  V30 3437 N 332.573 -1.56217 0.208337 0
M  V30 3438 C 333.821 -1.97558 -0.426076 0
M  V30 3439 C 334.142 -1.09683 -1.61229 0
M  V30 3440 O 333.412 -0.170956 -1.95153 0
M  V30 3441 H 331.992 -0.729575 -0.160405 0
M  V30 3442 H 334.654 -1.92606 0.298155 0
M  V30 3443 H 333.75 -3.02672 -0.761312 0
M  V30 3444 N 334.051 0.0651679 -1.57465 0
M  V30 3445 C 335.328 0.79644 -1.78651 0
M  V30 3446 C 335.708 1.95454 -0.797566 0
M  V30 3447 O 335.056 2.27882 0.167946 0
M  V30 3448 C 335.266 1.26322 -3.25337 0
M  V30 3449 C 336.614 1.6939 -3.89348 0
M  V30 3450 O 337.638 1.35872 -3.29268 0
M  V30 3451 O 336.497 2.31471 -4.95059 0
M  V30 3452 H 333.591 0.382157 -0.733407 0
M  V30 3453 H 336.137 0.0447311 -1.69641 0
M  V30 3454 H 334.909 0.434859 -3.88876 0
M  V30 3455 H 334.532 2.07604 -3.39096 0
M  V30 3456 N 335.529 1.53961 0.336706 0
M  V30 3457 C 336.775 1.7179 1.07777 0
M  V30 3458 C 337.108 0.483263 1.88091 0
M  V30 3459 O 336.383 -0.519747 1.87427 0
M  V30 3460 C 336.666 2.98558 2.01334 0
M  V30 3461 C 336.519 4.32245 1.24437 0
M  V30 3462 C 337.838 3.21023 3.01052 0
M  V30 3463 H 334.957 0.625089 0.390426 0
M  V30 3464 H 337.599 1.86641 0.35567 0
M  V30 3465 H 335.749 2.86028 2.62908 0
M  V30 3466 H 337.421 4.56637 0.654243 0
M  V30 3467 H 335.664 4.30344 0.546458 0
M  V30 3468 H 336.335 5.17137 1.93063 0
M  V30 3469 H 338.811 3.32929 2.49595 0
M  V30 3470 H 337.687 4.11104 3.6371 0
M  V30 3471 H 337.948 2.37637 3.72802 0
M  V30 3472 N 337.007 -0.598083 1.45811 0
M  V30 3473 C 337.97 -1.69018 1.54808 0
M  V30 3474 C 338.97 -1.55037 0.426652 0
M  V30 3475 O 340.16 -1.59932 0.690456 0
M  V30 3476 C 337.292 -3.0835 1.45371 0
M  V30 3477 H 338.485 -1.62403 2.52121 0
M  V30 3478 H 336.038 -0.814626 1.33392 0
M  V30 3479 H 336.773 -3.20534 0.492793 0
M  V30 3480 H 336.558 -3.19907 2.26721 0
M  V30 3481 H 338.048 -3.8788 1.54721 0
M  V30 3482 N 338.485 -1.33259 -0.841409 0
M  V30 3483 C 339.432 -1.23302 -1.95103 0
M  V30 3484 C 340.402 -0.112204 -1.65721 0
M  V30 3485 O 341.587 -0.290038 -1.88583 0
M  V30 3486 C 338.727 -0.975583 -3.31023 0
M  V30 3487 C 337.84 -2.18243 -3.72819 0
M  V30 3488 C 336.975 -1.85936 -4.97595 0
M  V30 3489 C 336.014 -3.02866 -5.3192 0
M  V30 3490 N 335.151 -2.70565 -6.47873 0
M  V30 3491 H 339.991 -2.18207 -2.02952 0
M  V30 3492 H 337.528 -1.0851 -0.993173 0
M  V30 3493 H 339.486 -0.80677 -4.09325 0
M  V30 3494 H 338.116 -0.0632755 -3.22738 0
M  V30 3495 H 337.168 -2.46107 -2.90061 0
M  V30 3496 H 338.48 -3.05666 -3.94169 0
M  V30 3497 H 337.634 -1.65684 -5.83638 0
M  V30 3498 H 336.373 -0.957452 -4.78209 0
M  V30 3499 H 335.378 -3.23736 -4.44382 0
M  V30 3500 H 336.603 -3.93809 -5.53255 0
M  V30 3501 H 334.549 -1.8293 -6.29978 0
M  V30 3502 H 334.466 -3.51519 -6.69306 0
M  V30 3503 H 335.734 -2.53774 -7.37034 0
M  V30 3504 N 339.963 1.05934 -1.16686 0
M  V30 3505 C 340.926 2.11669 -0.879144 0
M  V30 3506 C 341.926 1.60294 0.127445 0
M  V30 3507 O 343.116 1.7389 -0.103865 0
M  V30 3508 C 340.248 3.39438 -0.315425 0
M  V30 3509 H 341.441 2.38626 -1.81653 0
M  V30 3510 H 338.994 1.22058 -0.976299 0
M  V30 3511 H 339.729 3.18132 0.629468 0
M  V30 3512 H 339.514 3.78034 -1.04079 0
M  V30 3513 H 341.004 4.17391 -0.132189 0
M  V30 3514 N 341.441 0.965919 1.2453 0
M  V30 3515 C 342.688 0.626831 1.92554 0
M  V30 3516 C 343.016 -0.837739 1.75534 0
M  V30 3517 O 342.271 -1.61793 1.10098 0
M  V30 3518 C 342.57 0.945428 3.44669 0
M  V30 3519 C 342.236 2.39785 3.81856 0
M  V30 3520 C 340.898 2.79483 3.91718 0
M  V30 3521 C 343.25 3.34055 4.00071 0
M  V30 3522 C 340.578 4.12496 4.1721 0
M  V30 3523 C 342.93 4.66694 4.27059 0
M  V30 3524 C 341.594 5.06172 4.3514 0
M  V30 3525 H 340.864 0.229374 0.704605 0
M  V30 3526 H 343.511 1.21707 1.4785 0
M  V30 3527 H 341.816 0.272926 3.90848 0
M  V30 3528 H 343.513 0.661484 3.95507 0
M  V30 3529 H 340.103 2.08003 3.74743 0
M  V30 3530 H 344.287 3.04571 3.91855 0
M  V30 3531 H 339.543 4.42709 4.21685 0
M  V30 3532 H 343.717 5.3971 4.40097 0
M  V30 3533 H 341.344 6.09262 4.54646 0
M  V30 3534 N 342.919 -1.39368 0.735821 0
M  V30 3535 C 344.167 -2.00101 0.283562 0
M  V30 3536 C 344.488 -1.5868 -1.13338 0
M  V30 3537 O 343.758 -0.835423 -1.77193 0
M  V30 3538 H 342.338 -0.740024 0.101851 0
M  V30 3539 H 345 -1.70404 0.945962 0
M  V30 3540 H 344.096 -3.10323 0.332604 0
M  V30 3541 N 344.397 -0.483516 -1.5 0
M  V30 3542 C 345.36 0.292965 -2.2732 0
M  V30 3543 C 346.36 0.909499 -1.32608 0
M  V30 3544 O 347.55 0.776745 -1.55924 0
M  V30 3545 C 344.682 1.41854 -3.09984 0
M  V30 3546 H 345.875 -0.385289 -2.97415 0
M  V30 3547 H 343.428 -0.237942 -1.54478 0
M  V30 3548 H 344.163 2.13148 -2.44414 0
M  V30 3549 H 343.948 0.982114 -3.79601 0
M  V30 3550 H 345.438 1.96597 -3.68429 0
M  V30 3551 N 345.875 1.56104 -0.216619 0
M  V30 3552 C 347.123 1.97781 0.415593 0
M  V30 3553 C 347.444 1.10536 1.60645 0
M  V30 3554 O 346.714 0.181303 1.95059 0
M  V30 3555 H 345.294 0.730415 0.156534 0
M  V30 3556 H 347.956 1.92445 -0.308366 0
M  V30 3557 H 347.052 3.03072 0.74525 0
M  V30 3558 N 347.353 -0.0568162 1.57498 0
M  V30 3559 C 348.316 -1.05038 2.03715 0
M  V30 3560 C 349.316 -1.30709 0.936577 0
M  V30 3561 O 350.506 -1.26178 1.20103 0
M  V30 3562 C 347.638 -2.39034 2.43055 0
M  V30 3563 H 348.831 -0.651715 2.92733 0
M  V30 3564 H 346.384 -0.302947 1.53336 0
M  V30 3565 H 347.119 -2.83703 1.57108 0
M  V30 3566 H 346.904 -2.21739 3.2338 0
M  V30 3567 H 348.394 -3.10421 2.79336 0
M  V30 3568 N 348.832 -1.54138 -0.328536 0
M  V30 3569 C 350.109 -1.62749 -1.08499 0
M  V30 3570 C 350.489 -0.458198 -2.06067 0
M  V30 3571 O 349.837 0.548046 -2.2183 0
M  V30 3572 C 350.047 -2.99519 -1.79135 0
M  V30 3573 C 351.395 -3.55394 -2.32337 0
M  V30 3574 O 352.419 -3.01792 -1.89209 0
M  V30 3575 O 351.278 -4.49186 -3.11279 0
M  V30 3576 H 348.372 -0.65886 -0.499832 0
M  V30 3577 H 350.918 -1.66484 -0.328826 0
M  V30 3578 H 349.69 -3.76061 -1.08139 0
M  V30 3579 H 349.313 -2.99441 -2.61574 0
M  V30 3580 N 350.31 0.590341 -1.46126 0
M  V30 3581 C 351.557 1.34882 -1.5104 0
M  V30 3582 C 351.885 1.93849 -0.159021 0
M  V30 3583 O 351.14 1.76544 0.844436 0
M  V30 3584 C 351.439 2.5032 -2.55097 0
M  V30 3585 C 351.105 2.09394 -3.99331 0
M  V30 3586 C 349.767 1.97947 -4.38601 0
M  V30 3587 C 352.119 1.77712 -4.89967 0
M  V30 3588 C 349.447 1.53065 -5.66381 0
M  V30 3589 C 351.799 1.34312 -6.18177 0
M  V30 3590 C 350.463 1.21436 -6.56361 0
M  V30 3591 H 349.733 0.493568 -0.552695 0
M  V30 3592 H 352.38 0.665539 -1.79563 0
M  V30 3593 H 350.685 3.24062 -2.20207 0
M  V30 3594 H 352.382 3.08541 -2.56132 0
M  V30 3595 H 348.972 2.19235 -3.68285 0
M  V30 3596 H 353.156 1.85445 -4.60352 0
M  V30 3597 H 348.412 1.41733 -5.94745 0
M  V30 3598 H 352.586 1.08849 -6.87841 0
M  V30 3599 H 350.213 0.864345 -7.5527 0
M  V30 3600 N 351.788 1.33704 0.83433 0
M  V30 3601 C 353.034 1.25603 1.59222 0
M  V30 3602 C 353.367 -0.176659 1.93395 0
M  V30 3603 O 352.642 -1.11915 1.59076 0
M  V30 3604 C 352.925 2.13576 2.89926 0
M  V30 3605 C 352.778 3.65326 2.62406 0
M  V30 3606 C 354.097 2.01238 3.91397 0
M  V30 3607 H 351.216 0.457613 0.577719 0
M  V30 3608 H 353.858 1.63848 0.961972 0
M  V30 3609 H 352.008 1.8109 3.43713 0
M  V30 3610 H 353.68 4.08124 2.15017 0
M  V30 3611 H 351.923 3.8698 1.96033 0
M  V30 3612 H 352.594 4.22232 3.55562 0
M  V30 3613 H 355.07 2.29738 3.46929 0
M  V30 3614 H 353.946 2.65036 4.80673 0
M  V30 3615 H 354.207 0.985951 4.30966 0
M  V30 3616 N 353.266 -1.05314 1.17247 0
M  V30 3617 C 354.199 -2.12512 0.831507 0
M  V30 3618 C 355.177 -1.61351 -0.201168 0
M  V30 3619 O 356.361 -1.88317 -0.0829831 0
M  V30 3620 C 353.488 -3.37848 0.24015 0
M  V30 3621 C 352.534 -4.07832 1.24801 0
M  V30 3622 S 353.367 -4.56537 2.79882 0
M  V30 3623 C 354.523 -5.85122 2.22223 0
M  V30 3624 H 354.756 -2.41106 1.7394 0
M  V30 3625 H 352.289 -1.17896 0.996988 0
M  V30 3626 H 354.247 -4.10391 -0.0945588 0
M  V30 3627 H 352.908 -3.07392 -0.645668 0
M  V30 3628 H 352.101 -4.97883 0.78287 0
M  V30 3629 H 351.703 -3.41348 1.52831 0
M  V30 3630 H 353.995 -6.58408 1.59703 0
M  V30 3631 H 354.938 -6.36381 3.10523 0
M  V30 3632 H 355.346 -5.39626 1.65722 0
M  V30 3633 N 354.744 -0.972509 -1.24016 0
M  V30 3634 C 355.674 -0.525548 -2.27509 0
M  V30 3635 C 356.655 0.437262 -1.64384 0
M  V30 3636 O 357.84 0.332343 -1.91335 0
M  V30 3637 C 354.97 0.180448 -3.46831 0
M  V30 3638 C 353.924 -0.698859 -4.22256 0
M  V30 3639 C 353.25 0.138903 -5.3452 0
M  V30 3640 C 354.55 -1.98582 -4.83076 0
M  V30 3641 H 356.244 -1.39058 -2.65148 0
M  V30 3642 H 353.79 -0.67009 -1.27459 0
M  V30 3643 H 355.743 0.504387 -4.18371 0
M  V30 3644 H 354.467 1.07987 -3.08231 0
M  V30 3645 H 353.126 -1.00614 -3.52523 0
M  V30 3646 H 352.774 1.03862 -4.9216 0
M  V30 3647 H 352.474 -0.446259 -5.85903 0
M  V30 3648 H 353.998 0.457404 -6.08884 0
M  V30 3649 H 355.412 -1.72715 -5.46665 0
M  V30 3650 H 353.809 -2.5181 -5.44713 0
M  V30 3651 H 354.879 -2.67769 -4.04262 0
M  V30 3652 N 356.222 1.38976 -0.743202 0
M  V30 3653 C 357.47 1.99948 -0.29417 0
M  V30 3654 C 357.791 1.59279 1.12495 0
M  V30 3655 O 357.061 0.844808 1.76748 0
M  V30 3656 H 355.641 0.739473 -0.105774 0
M  V30 3657 H 358.303 1.699 -0.954986 0
M  V30 3658 H 357.399 3.10142 -0.349056 0
M  V30 3659 N 357.7 0.491464 1.49741 0
M  V30 3660 C 358.948 -0.0563141 2.02022 0
M  V30 3661 C 359.269 -1.38363 1.37407 0
M  V30 3662 O 358.539 -1.88702 0.526166 0
M  V30 3663 H 357.119 -0.0238014 0.746621 0
M  V30 3664 H 359.781 0.646533 1.83864 0
M  V30 3665 H 358.877 -0.192967 3.11503 0
M  V30 3666 N 359.178 -1.55987 0.224894 0
M  V30 3667 C 360.111 -2.16413 -0.723929 0
M  V30 3668 C 361.089 -1.10952 -1.18863 0
M  V30 3669 O 362.273 -1.39225 -1.27077 0
M  V30 3670 C 359.4 -2.74711 -1.98121 0
M  V30 3671 C 358.446 -3.9303 -1.6562 0
M  V30 3672 S 359.279 -5.29817 -0.778058 0
M  V30 3673 C 360.435 -5.91555 -2.04483 0
M  V30 3674 H 360.668 -2.96555 -0.210347 0
M  V30 3675 H 358.201 -1.54397 0.00955457 0
M  V30 3676 H 360.159 -3.08938 -2.70311 0
M  V30 3677 H 358.82 -1.94555 -2.46591 0
M  V30 3678 H 358.013 -4.32334 -2.59043 0
M  V30 3679 H 357.615 -3.59966 -1.01491 0
M  V30 3680 H 359.907 -6.07732 -2.99446 0
M  V30 3681 H 360.85 -6.87498 -1.69563 0
M  V30 3682 H 361.258 -5.20419 -2.18688 0
M  V30 3683 N 360.656 0.0484629 -1.57525 0
M  V30 3684 C 361.903 0.743125 -1.88372 0
M  V30 3685 C 362.231 1.76383 -0.819715 0
M  V30 3686 O 361.486 1.94855 0.181659 0
M  V30 3687 C 361.785 1.46632 -3.25935 0
M  V30 3688 C 361.451 0.583427 -4.4711 0
M  V30 3689 C 360.113 0.340191 -4.79996 0
M  V30 3690 C 362.465 -0.0273345 -5.21193 0
M  V30 3691 C 359.793 -0.522903 -5.84365 0
M  V30 3692 C 362.145 -0.878017 -6.26477 0
M  V30 3693 C 360.809 -1.1309 -6.5785 0
M  V30 3694 H 360.079 0.271929 -0.689301 0
M  V30 3695 H 362.726 0.00336166 -1.915 0
M  V30 3696 H 361.031 2.2789 -3.18706 0
M  V30 3697 H 362.728 2.00902 -3.47044 0
M  V30 3698 H 359.318 0.783151 -4.21384 0
M  V30 3699 H 363.502 0.147654 -4.9608 0
M  V30 3700 H 358.758 -0.727335 -6.07058 0
M  V30 3701 H 362.932 -1.35789 -6.83033 0
M  V30 3702 H 360.559 -1.80144 -7.38547 0
M  V30 3703 N 362.134 1.5431 0.320358 0
M  V30 3704 C 363.359 1.76954 1.08175 0
M  V30 3705 C 363.784 0.518193 1.80821 0
M  V30 3706 O 363.142 -0.530411 1.73368 0
M  V30 3707 C 363.19 2.96451 2.05303 0
M  V30 3708 O 362.294 2.68221 3.13259 0
M  V30 3709 H 361.635 0.586275 0.311733 0
M  V30 3710 H 364.165 2.01342 0.363676 0
M  V30 3711 H 364.175 3.23887 2.48116 0
M  V30 3712 H 362.85 3.87196 1.51829 0
M  V30 3713 H 361.427 2.51744 2.75099 0
M  V30 3714 N 363.613 -0.582584 1.46437 0
M  V30 3715 C 364.861 -1.33814 1.51453 0
M  V30 3716 C 365.182 -1.94277 0.167792 0
M  V30 3717 O 364.452 -1.78566 -0.805677 0
M  V30 3718 H 363.032 -0.496838 0.557818 0
M  V30 3719 H 365.694 -0.682281 1.82568 0
M  V30 3720 H 364.79 -2.14479 2.26728 0
M  V30 3721 N 365.091 -1.34144 -0.827227 0
M  V30 3722 C 366.041 -1.21923 -1.92663 0
M  V30 3723 C 367.025 -0.119294 -1.60457 0
M  V30 3724 O 368.217 -0.348539 -1.73534 0
M  V30 3725 C 365.346 -0.972492 -3.29238 0
M  V30 3726 C 364.432 -2.1154 -3.67576 0
M  V30 3727 N 364.823 -3.36627 -3.77512 0
M  V30 3728 C 363.121 -2.02468 -3.97395 0
M  V30 3729 C 363.822 -4.11658 -4.1099 0
M  V30 3730 N 362.798 -3.40207 -4.23981 0
M  V30 3731 H 366.6 -2.16721 -1.98517 0
M  V30 3732 H 364.114 -1.2632 -1.02064 0
M  V30 3733 H 366.111 -0.865847 -4.0781 0
M  V30 3734 H 364.771 -0.0331509 -3.24683 0
M  V30 3735 H 365.782 -3.71234 -3.61118 0
M  V30 3736 H 362.459 -1.16265 -4.00985 0
M  V30 3737 H 363.849 -5.19657 -4.25918 0
M  V30 3738 N 366.569 1.04691 -1.17803 0
M  V30 3739 C 367.797 1.81446 -0.99423 0
M  V30 3740 C 368.212 1.83174 0.457459 0
M  V30 3741 O 367.569 1.26265 1.31771 0
M  V30 3742 C 367.62 3.27334 -1.5341 0
M  V30 3743 O 367.341 3.25798 -2.92895 0
M  V30 3744 C 368.842 4.20759 -1.39559 0
M  V30 3745 H 366.062 0.571599 -0.351447 0
M  V30 3746 H 368.606 1.31982 -1.56208 0
M  V30 3747 H 366.761 3.74052 -1.00815 0
M  V30 3748 H 367.175 4.17144 -3.17949 0
M  V30 3749 H 368.649 5.21084 -1.82141 0
M  V30 3750 H 369.126 4.37856 -0.343394 0
M  V30 3751 H 369.732 3.79901 -1.91195 0
M  V30 3752 N 368.047 0.979072 1.23499 0
M  V30 3753 C 368.957 0.526431 2.28617 0
M  V30 3754 C 369.973 -0.418126 1.68901 0
M  V30 3755 O 371.149 -0.288372 1.99325 0
M  V30 3756 C 368.214 -0.165235 3.46306 0
M  V30 3757 C 367.275 0.82056 4.21385 0
M  V30 3758 C 366.508 0.161807 5.33455 0
M  V30 3759 O 366.731 -1.04742 5.60701 0
M  V30 3760 O 365.665 0.859708 5.95729 0
M  V30 3761 H 369.491 1.4006 2.69475 0
M  V30 3762 H 367.076 0.746643 1.29405 0
M  V30 3763 H 368.958 -0.553287 4.17752 0
M  V30 3764 H 367.633 -1.01419 3.07402 0
M  V30 3765 H 366.54 1.25929 3.52268 0
M  V30 3766 H 367.873 1.63828 4.64135 0
M  V30 3767 N 369.525 -1.3858 0.750561 0
M  V30 3768 C 370.765 -2.02032 0.310258 0
M  V30 3769 C 371.129 -1.58288 -1.08668 0
M  V30 3770 O 372.33 -2.14049 -1.62593 0
M  V30 3771 C 370.601 -3.54856 0.425647 0
M  V30 3772 S 372.16 -4.38748 0.0674797 0
M  V30 3773 H 368.978 -0.700705 0.120554 0
M  V30 3774 H 371.58 -1.69134 0.980512 0
M  V30 3775 H 370.284 -3.84182 1.44335 0
M  V30 3776 H 369.815 -3.92527 -0.261894 0
M  V30 3777 H 371.83 -4.82835 -1.14388 0
M  V30 3778 N 371.003 -0.499398 -1.49478 0
M  V30 3779 C 371.966 0.268838 -2.27618 0
M  V30 3780 C 372.966 0.895383 -1.33565 0
M  V30 3781 O 374.156 0.760164 -1.56739 0
M  V30 3782 C 371.288 1.38559 -3.11471 0
M  V30 3783 H 372.481 -0.416812 -2.96989 0
M  V30 3784 H 370.034 -0.254313 -1.54217 0
M  V30 3785 H 370.769 2.10544 -2.46661 0
M  V30 3786 H 370.554 0.941797 -3.80621 0
M  V30 3787 H 372.044 1.92678 -3.70493 0
M  V30 3788 N 372.481 1.55866 -0.233164 0
M  V30 3789 C 373.729 1.9821 0.394593 0
M  V30 3790 C 374.05 1.12234 1.59463 0
M  V30 3791 O 373.32 0.201981 1.94856 0
M  V30 3792 H 371.9 0.732034 0.148778 0
M  V30 3793 H 374.562 1.92107 -0.32876 0
M  V30 3794 H 373.658 3.03845 0.713063 0
M  V30 3795 N 373.959 -0.0401083 1.57549 0
M  V30 3796 C 374.869 -1.06133 2.0922 0
M  V30 3797 C 375.885 -1.40356 1.0284 0
M  V30 3798 O 377.061 -1.49897 1.34509 0
M  V30 3799 C 374.126 -2.34658 2.55218 0
M  V30 3800 C 373.187 -2.07117 3.76033 0
M  V30 3801 C 372.42 -3.29514 4.19829 0
M  V30 3802 O 372.643 -4.39794 3.63232 0
M  V30 3803 O 371.577 -3.15863 5.12362 0
M  V30 3804 H 375.403 -0.652244 2.96613 0
M  V30 3805 H 372.988 -0.256368 1.47184 0
M  V30 3806 H 374.87 -3.10239 2.85184 0
M  V30 3807 H 373.545 -2.74883 1.70941 0
M  V30 3808 H 372.452 -1.29139 3.51104 0
M  V30 3809 H 373.785 -1.71754 4.61261 0
M  V30 3810 N 375.437 -1.54477 -0.31217 0
M  V30 3811 C 376.683 -1.73483 -1.0503 0
M  V30 3812 C 377.016 -0.513125 -1.87298 0
M  V30 3813 O 376.291 0.489864 -1.8823 0
M  V30 3814 C 376.574 -3.01723 -1.96558 0
M  V30 3815 C 376.427 -4.3417 -1.17545 0
M  V30 3816 C 377.746 -3.25772 -2.95907 0
M  V30 3817 H 374.865 -0.631222 -0.380432 0
M  V30 3818 H 377.507 -1.87184 -0.325932 0
M  V30 3819 H 375.657 -2.90174 -2.58324 0
M  V30 3820 H 377.329 -4.5762 -0.581513 0
M  V30 3821 H 375.572 -4.31159 -0.477925 0
M  V30 3822 H 376.243 -5.20143 -1.84811 0
M  V30 3823 H 378.719 -3.36857 -2.44267 0
M  V30 3824 H 377.595 -4.16838 -3.57123 0
M  V30 3825 H 377.856 -2.43537 -3.68974 0
M  V30 3826 N 376.915 0.57481 -1.46744 0
M  V30 3827 C 378.162 1.33272 -1.52462 0
M  V30 3828 C 378.49 1.93669 -0.179572 0
M  V30 3829 O 377.745 1.7743 0.825664 0
M  V30 3830 C 378.044 2.476 -2.57738 0
M  V30 3831 C 377.71 2.05146 -4.01529 0
M  V30 3832 C 376.372 1.93284 -4.40676 0
M  V30 3833 C 378.724 1.72506 -4.91824 0
M  V30 3834 C 376.052 1.47049 -5.67973 0
M  V30 3835 C 378.404 1.27748 -6.19567 0
M  V30 3836 C 377.068 1.14468 -6.57612 0
M  V30 3837 H 376.338 0.487678 -0.557899 0
M  V30 3838 H 378.985 0.646456 -1.80259 0
M  V30 3839 H 377.29 3.21708 -2.23632 0
M  V30 3840 H 378.987 3.05807 -2.5939 0
M  V30 3841 H 375.577 2.15316 -3.7059 0
M  V30 3842 H 379.761 1.80552 -4.62293 0
M  V30 3843 H 375.017 1.35417 -5.96215 0
M  V30 3844 H 379.191 1.01547 -6.88957 0
M  V30 3845 H 376.818 0.78419 -7.56145 0
M  V30 3846 N 378.394 1.34581 0.820102 0
M  V30 3847 C 379.304 1.28471 1.96297 0
M  V30 3848 C 380.32 0.191902 1.72939 0
M  V30 3849 O 381.496 0.418879 1.96996 0
M  V30 3850 C 378.561 1.04281 3.30645 0
M  V30 3851 C 377.622 2.22745 3.66992 0
M  V30 3852 C 376.855 1.997 4.9493 0
M  V30 3853 O 377.078 0.956656 5.6232 0
M  V30 3854 O 376.012 2.86723 5.2922 0
M  V30 3855 H 379.838 2.24624 2.04396 0
M  V30 3856 H 377.423 1.14816 0.955913 0
M  V30 3857 H 379.305 0.925841 4.11104 0
M  V30 3858 H 377.98 0.111697 3.23507 0
M  V30 3859 H 376.887 2.40003 2.86966 0
M  V30 3860 H 378.22 3.14257 3.78819 0
M  V30 3861 N 379.872 -1.04064 1.18357 0
M  V30 3862 C 381.288 -1.2947 0.933258 0
M  V30 3863 C 381.488 -1.97466 -0.401169 0
M  V30 3864 O 380.544 -2.25528 -1.13549 0
M  V30 3865 C 381.857 -2.15337 2.09882 0
M  V30 3866 C 383.405 -2.28683 2.13712 0
M  V30 3867 C 383.88 -3.17917 3.29686 0
M  V30 3868 N 385.371 -3.25504 3.29547 0
M  V30 3869 C 386.106 -3.94706 4.15926 0
M  V30 3870 N 385.602 -4.66239 5.12439 0
M  V30 3871 N 387.395 -3.90986 4.0384 0
M  V30 3872 H 379.546 -0.583359 2.04232 0
M  V30 3873 H 381.809 -0.319921 0.892387 0
M  V30 3874 H 381.515 -1.72682 3.06389 0
M  V30 3875 H 381.389 -3.16015 2.05947 0
M  V30 3876 H 383.776 -2.70575 1.17784 0
M  V30 3877 H 383.857 -1.27596 2.21705 0
M  V30 3878 H 383.501 -2.76736 4.25887 0
M  V30 3879 H 383.431 -4.19036 3.1893 0
M  V30 3880 H 385.922 -2.74547 2.59677 0
M  V30 3881 H 386.235 -5.16638 5.74722 0
M  V30 3882 H 384.58 -4.65143 5.16398 0
M  V30 3883 H 387.771 -3.34234 3.27727 0
M  V30 3884 H 387.944 -4.44646 4.71375 0
M  V30 3885 N 381.35 -0.985608 -1.22978 0
M  V30 3886 C 382.298 -0.522631 -2.26652 0
M  V30 3887 C 383.292 0.422998 -1.64034 0
M  V30 3888 O 384.498 0.296319 -1.77544 0
M  V30 3889 H 380.873 -0.150597 -0.736766 0
M  V30 3890 H 382.844 -1.40863 -2.63059 0
M  V30 3891 C 381.593 0.154238 -3.47358 0
M  V30 3892 H 380.916 -0.564329 -3.95797 0
M  V30 3893 H 382.356 0.441744 -4.21693 0
M  V30 3894 C 380.815 1.38719 -3.07016 0
M  V30 3895 O 381.345 2.48307 -3.15764 0
M  V30 3896 N 379.551 1.25975 -2.61875 0
M  V30 3897 H 379.098 0.368068 -2.54957 0
M  V30 3898 H 379.056 2.08578 -2.3525 0
M  V30 3899 N 382.828 1.3818 -0.7579 0
M  V30 3900 C 384.076 1.99624 -0.315361 0
M  V30 3901 C 384.397 1.60464 1.10799 0
M  V30 3902 O 383.667 0.863507 1.75842 0
M  V30 3903 H 382.247 0.73831 -0.113611 0
M  V30 3904 H 384.909 1.68878 -0.972952 0
M  V30 3905 H 384.005 3.09754 -0.381931 0
M  V30 3906 N 384.306 0.507319 1.49211 0
M  V30 3907 C 385.722 0.163682 1.58758 0
M  V30 3908 C 385.922 -1.33208 1.51188 0
M  V30 3909 O 384.978 -2.10855 1.38911 0
M  V30 3910 C 386.291 0.746095 2.91297 0
M  V30 3911 C 387.839 0.712773 3.04776 0
M  V30 3912 C 388.314 1.27336 4.39943 0
M  V30 3913 N 389.805 1.23433 4.46451 0
M  V30 3914 C 390.54 1.63821 5.495 0
M  V30 3915 N 390.036 2.11832 6.5962 0
M  V30 3916 N 391.829 1.55198 5.4025 0
M  V30 3917 H 383.98 1.47972 1.52375 0
M  V30 3918 H 386.243 0.614147 0.722168 0
M  V30 3919 H 385.949 1.79534 3.02424 0
M  V30 3920 H 385.823 0.210137 3.76614 0
M  V30 3921 H 388.21 -0.327656 2.93275 0
M  V30 3922 H 388.291 1.28595 2.21127 0
M  V30 3923 H 387.935 2.3126 4.52196 0
M  V30 3924 H 387.865 0.676066 5.22242 0
M  V30 3925 H 390.356 0.882627 3.67448 0
M  V30 3926 H 390.669 2.40703 7.34358 0
M  V30 3927 H 389.014 2.1581 6.60644 0
M  V30 3928 H 392.205 1.17505 4.53112 0
M  V30 3929 H 392.378 1.86997 6.20432 0
M  V30 3930 N 385.784 -1.5574 0.241426 0
M  V30 3931 C 386.731 -2.21149 -0.660432 0
M  V30 3932 C 387.701 -1.17356 -1.17545 0
M  V30 3933 O 388.886 -1.45784 -1.23093 0
M  V30 3934 C 386.026 -2.91059 -1.85414 0
M  V30 3935 C 385.139 -4.09495 -1.37616 0
M  V30 3936 C 384.274 -4.67135 -2.529 0
M  V30 3937 C 383.313 -5.77831 -2.01936 0
M  V30 3938 N 382.45 -6.29677 -3.10566 0
M  V30 3939 H 387.29 -2.97845 -0.095955 0
M  V30 3940 H 384.827 -1.47057 -0.0356024 0
M  V30 3941 H 386.785 -3.29788 -2.5553 0
M  V30 3942 H 385.415 -2.16846 -2.39118 0
M  V30 3943 H 384.467 -3.76117 -0.569235 0
M  V30 3944 H 385.779 -4.89423 -0.962618 0
M  V30 3945 H 384.933 -5.08409 -3.31067 0
M  V30 3946 H 383.672 -3.86411 -2.97553 0
M  V30 3947 H 382.677 -5.36039 -1.22238 0
M  V30 3948 H 383.902 -6.60402 -1.58259 0
M  V30 3949 H 381.848 -5.5186 -3.54664 0
M  V30 3950 H 381.765 -7.04783 -2.73526 0
M  V30 3951 H 383.033 -6.75609 -3.88809 0
M  V30 3952 N 387.262 0.0317525 -1.57568 0
M  V30 3953 C 388.192 1.03274 -2.0942 0
M  V30 3954 C 389.173 1.3788 -0.996143 0
M  V30 3955 O 390.358 1.46811 -1.27122 0
M  V30 3956 C 387.488 2.33448 -2.57137 0
M  V30 3957 C 386.442 2.13091 -3.71182 0
M  V30 3958 C 385.768 3.49001 -4.05095 0
M  V30 3959 C 387.068 1.51928 -4.99715 0
M  V30 3960 H 388.762 0.60112 -2.93303 0
M  V30 3961 H 386.308 0.287705 -1.41097 0
M  V30 3962 H 388.261 3.03802 -2.92032 0
M  V30 3963 H 386.985 2.78665 -1.70333 0
M  V30 3964 H 385.644 1.45171 -3.36632 0
M  V30 3965 H 385.292 3.91862 -3.15362 0
M  V30 3966 H 384.992 3.36207 -4.81911 0
M  V30 3967 H 386.516 4.20721 -4.42522 0
M  V30 3968 H 387.93 2.12196 -5.32584 0
M  V30 3969 H 386.327 1.49716 -5.81124 0
M  V30 3970 H 387.397 0.484811 -4.8247 0
M  V30 3971 N 388.74 1.54641 0.303973 0
M  V30 3972 C 389.687 1.85386 1.37479 0
M  V30 3973 C 390.657 0.702528 1.50512 0
M  V30 3974 O 391.842 0.950867 1.65418 0
M  V30 3975 C 388.982 2.10413 2.73533 0
M  V30 3976 C 388.095 3.38049 2.68974 0
M  V30 3977 C 387.23 3.52934 3.97002 0
M  V30 3978 C 386.269 4.74373 3.86829 0
M  V30 3979 N 385.406 4.8608 5.06627 0
M  V30 3980 H 390.246 2.76732 1.1056 0
M  V30 3981 H 387.783 1.37034 0.534805 0
M  V30 3982 H 389.741 2.22919 3.52652 0
M  V30 3983 H 388.371 1.22338 2.98719 0
M  V30 3984 H 387.423 3.3418 1.81736 0
M  V30 3985 H 388.735 4.27288 2.57346 0
M  V30 3986 H 387.889 3.65088 4.84557 0
M  V30 3987 H 386.628 2.61824 4.1146 0
M  V30 3988 H 385.633 4.62255 2.97658 0
M  V30 3989 H 386.858 5.66888 3.73918 0
M  V30 3990 H 384.804 3.97891 5.21554 0
M  V30 3991 H 384.721 5.69315 4.9741 0
M  V30 3992 H 385.989 5.02587 5.95841 0
M  V30 3993 N 390.218 -0.567019 1.47046 0
M  V30 3994 C 391.148 -1.68482 1.61667 0
M  V30 3995 C 392.129 -1.6358 0.466418 0
M  V30 3996 O 393.314 -1.81354 0.694574 0
M  V30 3997 C 390.444 -3.07124 1.62148 0
M  V30 3998 C 389.398 -3.26867 2.76301 0
M  V30 3999 C 388.724 -4.66196 2.61849 0
M  V30 4000 C 390.024 -3.13186 4.17986 0
M  V30 4001 H 391.718 -1.56502 2.5524 0
M  V30 4002 H 389.264 -0.751486 1.22836 0
M  V30 4003 H 391.217 -3.8516 1.70968 0
M  V30 4004 H 389.941 -3.2004 0.651287 0
M  V30 4005 H 388.6 -2.51237 2.66975 0
M  V30 4006 H 388.248 -4.75898 1.62879 0
M  V30 4007 H 387.948 -4.80356 3.38425 0
M  V30 4008 H 389.472 -5.46379 2.72584 0
M  V30 4009 H 390.886 -3.81049 4.2834 0
M  V30 4010 H 389.283 -3.3886 4.95272 0
M  V30 4011 H 390.353 -2.10057 4.3704 0
M  V30 4012 N 391.696 -1.35014 -0.812953 0
M  V30 4013 C 392.943 -1.27931 -1.56971 0
M  V30 4014 C 393.271 0.148034 -1.93936 0
M  V30 4015 O 392.526 1.11175 -1.61054 0
M  V30 4016 C 392.825 -2.12524 -2.87347 0
M  V30 4017 C 392.491 -3.61401 -2.6963 0
M  V30 4018 C 391.153 -4.01983 -2.64506 0
M  V30 4019 C 393.505 -4.55894 -2.52607 0
M  V30 4020 C 390.833 -5.35235 -2.40293 0
M  V30 4021 C 393.185 -5.89336 -2.29925 0
M  V30 4022 C 391.849 -6.2907 -2.23219 0
M  V30 4023 H 391.119 -0.468131 -0.574399 0
M  V30 4024 H 393.766 -1.66851 -0.939836 0
M  V30 4025 H 392.071 -1.66463 -3.54679 0
M  V30 4026 H 393.768 -2.04383 -3.45005 0
M  V30 4027 H 390.358 -3.29193 -2.74463 0
M  V30 4028 H 394.542 -4.25431 -2.55583 0
M  V30 4029 H 389.798 -5.65028 -2.33566 0
M  V30 4030 H 393.972 -6.62139 -2.15743 0
M  V30 4031 H 391.599 -7.32256 -2.04219 0
M  V30 4032 N 393.175 1.03435 -1.18907 0
M  V30 4033 C 394.405 1.8012 -1.01195 0
M  V30 4034 C 394.813 1.8395 0.442613 0
M  V30 4035 O 394.156 1.27836 1.31923 0
M  V30 4036 C 394.218 3.26792 -1.49823 0
M  V30 4037 C 393.882 3.46609 -2.97844 0
M  V30 4038 C 394.879 3.37278 -3.95651 0
M  V30 4039 C 392.564 3.73001 -3.36416 0
M  V30 4040 C 394.558 3.54054 -5.30023 0
M  V30 4041 C 392.245 3.89423 -4.70949 0
M  V30 4042 C 393.243 3.79951 -5.67562 0
M  V30 4043 O 392.931 3.95895 -6.99659 0
M  V30 4044 H 392.663 0.573865 -0.357289 0
M  V30 4045 H 395.217 1.31207 -1.58031 0
M  V30 4046 H 393.447 3.76703 -0.873578 0
M  V30 4047 H 395.136 3.85055 -1.28404 0
M  V30 4048 H 395.902 3.16846 -3.67197 0
M  V30 4049 H 391.781 3.79469 -2.61772 0
M  V30 4050 H 395.325 3.46577 -6.05417 0
M  V30 4051 H 391.222 4.09351 -4.99101 0
M  V30 4052 H 391.99 4.13019 -7.06653 0
M  V30 4053 N 394.653 0.992116 1.22453 0
M  V30 4054 C 395.901 0.666215 1.90804 0
M  V30 4055 C 396.222 -0.804152 1.77647 0
M  V30 4056 O 395.492 -1.57629 1.16318 0
M  V30 4057 H 394.072 0.243423 0.706225 0
M  V30 4058 H 396.734 1.25845 1.48825 0
M  V30 4059 H 395.83 0.928069 2.97982 0
M  V30 4060 N 396.131 -1.37776 0.765217 0
M  V30 4061 C 397.064 -2.28008 0.0935025 0
M  V30 4062 C 398.042 -1.45985 -0.716047 0
M  V30 4063 O 399.226 -1.75331 -0.692203 0
M  V30 4064 C 396.353 -3.27228 -0.874052 0
M  V30 4065 C 395.399 -4.26239 -0.149307 0
M  V30 4066 S 396.232 -5.22827 1.15809 0
M  V30 4067 C 397.388 -6.256 0.193906 0
M  V30 4068 H 397.621 -2.84631 0.858637 0
M  V30 4069 H 395.154 -1.43952 0.558313 0
M  V30 4070 H 397.112 -3.84902 -1.42691 0
M  V30 4071 H 395.773 -2.69565 -1.61225 0
M  V30 4072 H 394.966 -4.96213 -0.88254 0
M  V30 4073 H 394.568 -3.7252 0.332366 0
M  V30 4074 H 396.86 -6.74508 -0.636011 0
M  V30 4075 H 397.803 -7.02838 0.861638 0
M  V30 4076 H 398.211 -5.64173 -0.191975 0
M  V30 4077 N 397.609 -0.515225 -1.4894 0
M  V30 4078 C 398.834 0.022727 -2.07388 0
M  V30 4079 C 399.259 1.2876 -1.37122 0
M  V30 4080 O 398.617 1.76067 -0.432431 0
M  V30 4081 C 398.665 0.244869 -3.59768 0
M  V30 4082 O 397.769 1.31667 -3.90817 0
M  V30 4083 H 397.11 -0.0325506 -0.663202 0
M  V30 4084 H 399.64 -0.718918 -1.91553 0
M  V30 4085 H 399.65 0.47205 -4.0526 0
M  V30 4086 H 398.325 -0.679194 -4.10317 0
M  V30 4087 H 396.902 1.07331 -3.5712 0
M  V30 4088 N 399.087 1.5561 -0.249682 0
M  V30 4089 C 400.312 2.03865 0.381305 0
M  V30 4090 C 400.737 1.12769 1.50548 0
M  V30 4091 O 400.095 0.121189 1.80895 0
M  V30 4092 C 400.143 3.50101 0.863816 0
M  V30 4093 O 399.247 3.62132 1.97318 0
M  V30 4094 H 398.588 0.658827 0.0827194 0
M  V30 4095 H 401.118 2.01105 -0.376552 0
M  V30 4096 H 401.128 3.90975 1.1663 0
M  V30 4097 H 399.803 4.1588 0.0411816 0
M  V30 4098 H 398.38 3.33155 1.67517 0
M  V30 4099 N 400.565 -0.0233959 1.57583 0
M  V30 4100 C 401.842 -0.748794 1.807 0
M  V30 4101 C 402.222 -1.9327 0.849106 0
M  V30 4102 O 401.57 -2.28247 -0.107468 0
M  V30 4103 C 401.78 -1.17651 3.28571 0
M  V30 4104 C 403.128 -1.59008 3.93702 0
M  V30 4105 O 404.152 -1.27094 3.32755 0
M  V30 4106 O 403.011 -2.18264 5.01022 0
M  V30 4107 H 400.105 -0.362578 0.743281 0
M  V30 4108 H 402.651 0.000261958 1.697 0
M  V30 4109 H 401.423 -0.331603 3.89892 0
M  V30 4110 H 401.046 -1.98541 3.44481 0
M  V30 4111 N 402.043 -1.548 -0.295768 0
M  V30 4112 C 403.271 -1.78327 -1.04914 0
M  V30 4113 C 403.686 -0.545316 -1.80753 0
M  V30 4114 O 403.043 0.485013 -1.75937 0
M  V30 4115 C 403.094 -2.99418 -2.02561 0
M  V30 4116 O 402.815 -4.18431 -1.29798 0
M  V30 4117 C 404.316 -3.35375 -2.89895 0
M  V30 4118 H 401.536 -0.594618 -0.310918 0
M  V30 4119 H 404.08 -2.01763 -0.333454 0
M  V30 4120 H 402.235 -2.78175 -2.69624 0
M  V30 4121 H 402.649 -4.86736 -1.95419 0
M  V30 4122 H 404.123 -4.23332 -3.54251 0
M  V30 4123 H 404.6 -2.53761 -3.58472 0
M  V30 4124 H 405.206 -3.58796 -2.28355 0
M  V30 4125 N 403.521 0.559213 -1.47345 0
M  V30 4126 C 404.484 1.64854 -1.59235 0
M  V30 4127 C 405.484 1.53851 -0.467607 0
M  V30 4128 O 406.674 1.58045 -0.732617 0
M  V30 4129 C 403.806 3.04388 -1.53496 0
M  V30 4130 H 404.999 1.55662 -2.56339 0
M  V30 4131 H 402.552 0.778973 -1.35505 0
M  V30 4132 H 403.287 3.19115 -0.577604 0
M  V30 4133 H 403.072 3.13783 -2.35123 0
M  V30 4134 H 404.562 3.83642 -1.6495 0
M  V30 4135 N 404.999 1.35443 0.805782 0
M  V30 4136 C 405.932 1.22783 1.92353 0
M  V30 4137 C 406.91 0.115543 1.62189 0
M  V30 4138 O 408.094 0.283778 1.86352 0
M  V30 4139 C 405.221 0.890746 3.26777 0
M  V30 4140 C 404.267 2.01519 3.75889 0
M  V30 4141 S 405.1 3.63101 3.93596 0
M  V30 4142 C 406.256 3.31472 5.30921 0
M  V30 4143 H 406.489 2.17394 2.02798 0
M  V30 4144 H 404.022 1.20669 0.963245 0
M  V30 4145 H 405.98 0.703068 4.04434 0
M  V30 4146 H 404.641 -0.0373152 3.14078 0
M  V30 4147 H 403.834 1.7335 4.7325 0
M  V30 4148 H 403.436 2.16124 3.05231 0
M  V30 4149 H 405.728 2.8435 6.1494 0
M  V30 4150 H 406.671 4.28036 5.64084 0
M  V30 4151 H 407.079 2.67221 4.97246 0
M  V30 4152 N 406.477 -1.02803 1.19454 0
M  V30 4153 C 407.425 -2.13213 0.929673 0
M  V30 4154 C 408.419 -1.69011 -0.114806 0
M  V30 4155 O 409.625 -1.79967 0.0345147 0
M  V30 4156 H 406 -0.69662 0.28324 0
M  V30 4157 H 407.971 -2.32744 1.86743 0
M  V30 4158 C 406.72 -3.4429 0.485797 0
M  V30 4159 H 406.043 -3.7872 1.28105 0
M  V30 4160 H 407.483 -4.22638 0.339582 0
M  V30 4161 C 405.942 -3.27258 -0.800244 0
M  V30 4162 O 406.472 -3.55967 -1.86146 0
M  V30 4163 N 404.678 -2.80545 -0.75781 0
M  V30 4164 H 404.225 -2.57382 0.106039 0
M  V30 4165 H 404.183 -2.6953 -1.61867 0
M  V30 4166 N 407.956 -0.998596 -1.21925 0
M  V30 4167 C 408.903 -0.553621 -2.24062 0
M  V30 4168 C 409.873 0.416999 -1.6078 0
M  V30 4169 O 411.058 0.320482 -1.88089 0
M  V30 4170 C 408.198 0.119959 -3.44891 0
M  V30 4171 C 407.311 -0.893077 -4.22668 0
M  V30 4172 C 406.446 -0.192424 -5.30851 0
M  V30 4173 C 405.485 -1.19344 -6.00353 0
M  V30 4174 N 404.622 -0.520707 -7.00166 0
M  V30 4175 H 409.462 -1.4293 -2.61486 0
M  V30 4176 H 406.999 -0.715838 -1.28507 0
M  V30 4177 H 408.957 0.527459 -4.13852 0
M  V30 4178 H 407.587 0.959389 -3.08214 0
M  V30 4179 H 406.639 -1.41886 -3.52948 0
M  V30 4180 H 407.951 -1.65512 -4.70539 0
M  V30 4181 H 407.105 0.271515 -6.06092 0
M  V30 4182 H 405.844 0.602075 -4.83969 0
M  V30 4183 H 404.849 -1.66795 -5.23889 0
M  V30 4184 H 406.074 -1.98891 -6.49322 0
M  V30 4185 H 404.02 0.254252 -6.55507 0
M  V30 4186 H 403.937 -1.2211 -7.46073 0
M  V30 4187 H 405.205 -0.0797596 -7.79459 0
M  V30 4188 N 409.434 1.37368 -0.772513 0
M  V30 4189 C 410.384 2.27613 -0.132823 0
M  V30 4190 C 411.368 1.46138 0.673247 0
M  V30 4191 O 412.56 1.68686 0.536095 0
M  V30 4192 C 409.689 3.35122 0.744864 0
M  V30 4193 C 408.775 4.24044 -0.0690771 0
M  V30 4194 N 409.166 4.93355 -1.1151 0
M  V30 4195 C 407.464 4.45731 0.154782 0
M  V30 4196 C 408.165 5.59 -1.60917 0
M  V30 4197 N 407.141 5.35737 -0.921222 0
M  V30 4198 H 410.943 2.78675 -0.933681 0
M  V30 4199 H 408.457 1.50494 -0.610342 0
M  V30 4200 H 410.454 3.98683 1.21892 0
M  V30 4201 H 409.114 2.85616 1.54446 0
M  V30 4202 H 410.125 4.95785 -1.49726 0
M  V30 4203 H 406.802 4.07096 0.926224 0
M  V30 4204 H 408.192 6.24395 -2.48153 0
M  V30 4205 N 410.912 0.523116 1.48665 0
M  V30 4206 C 411.875 -0.232592 2.28017 0
M  V30 4207 C 412.875 -0.874021 1.34972 0
M  V30 4208 O 414.065 -0.735132 1.57929 0
M  V30 4209 C 411.197 -1.33586 3.13636 0
M  V30 4210 H 412.39 0.464008 2.96289 0
M  V30 4211 H 409.943 0.278816 1.53793 0
M  V30 4212 H 410.678 -2.06593 2.4998 0
M  V30 4213 H 410.463 -0.881125 3.82071 0
M  V30 4214 H 411.953 -1.86759 3.73511 0
M  V30 4215 N 412.39 -1.55475 0.257931 0
M  V30 4216 C 413.638 -1.98813 -0.363009 0
M  V30 4217 C 413.959 -1.14757 -1.57657 0
M  V30 4218 O 413.229 -0.232956 -1.9451 0
M  V30 4219 H 411.809 -0.734308 -0.137113 0
M  V30 4220 H 414.471 -1.9156 0.359281 0
M  V30 4221 H 413.567 -3.04941 -0.664634 0
M  V30 4222 N 413.868 0.0150385 -1.57593 0
M  V30 4223 C 415.116 0.701613 -1.8953 0
M  V30 4224 C 415.437 1.75139 -0.857396 0
M  V30 4225 O 414.707 1.95607 0.107194 0
M  V30 4226 H 413.287 0.26213 -0.699498 0
M  V30 4227 H 415.949 -0.0223304 -1.94887 0
M  V30 4228 H 415.045 1.18236 -2.88837 0
M  V30 4229 N 415.346 1.54954 0.287554 0
M  V30 4230 C 416.592 1.75132 1.02257 0
M  V30 4231 C 416.925 0.542858 1.86458 0
M  V30 4232 O 416.2 -0.459856 1.88986 0
M  V30 4233 C 416.483 3.04812 1.91733 0
M  V30 4234 C 416.336 4.35985 1.10622 0
M  V30 4235 C 417.655 3.30438 2.90687 0
M  V30 4236 H 414.774 0.637194 0.370341 0
M  V30 4237 H 417.416 1.87678 0.296111 0
M  V30 4238 H 415.566 2.94247 2.53675 0
M  V30 4239 H 417.238 4.58487 0.508636 0
M  V30 4240 H 415.481 4.31865 0.409271 0
M  V30 4241 H 416.152 5.23017 1.76513 0
M  V30 4242 H 418.628 3.40701 2.38877 0
M  V30 4243 H 417.504 4.22467 3.50447 0
M  V30 4244 H 417.765 2.49377 3.65053 0
M  V30 4245 N 416.824 -0.551391 1.4764 0
M  V30 4246 C 417.787 -1.64007 1.60107 0
M  V30 4247 C 418.787 -1.53601 0.47576 0
M  V30 4248 O 419.977 -1.57655 0.740988 0
M  V30 4249 C 417.109 -3.03569 1.55108 0
M  V30 4250 H 418.302 -1.543 2.57161 0
M  V30 4251 H 415.855 -0.771776 1.35917 0
M  V30 4252 H 416.59 -3.18804 0.594519 0
M  V30 4253 H 416.375 -3.12532 2.36783 0
M  V30 4254 H 417.865 -3.82762 1.66982 0
M  V30 4255 N 418.302 -1.35869 -0.798587 0
M  V30 4256 C 419.212 -1.31578 -1.94228 0
M  V30 4257 C 420.228 -0.21939 -1.72611 0
M  V30 4258 O 421.404 -0.450167 -1.96305 0
M  V30 4259 C 418.469 -1.09528 -3.28944 0
M  V30 4260 C 417.53 -2.28556 -3.63402 0
M  V30 4261 C 416.763 -2.07549 -4.9169 0
M  V30 4262 O 416.986 -1.046 -5.60727 0
M  V30 4263 O 415.92 -2.95106 -5.24591 0
M  V30 4264 H 419.746 -2.27847 -2.00796 0
M  V30 4265 H 417.331 -1.16322 -0.937526 0
M  V30 4266 H 419.213 -0.991127 -4.09579 0
M  V30 4267 H 417.888 -0.16315 -3.23289 0
M  V30 4268 H 416.795 -2.44538 -2.83112 0
M  V30 4269 H 418.128 -3.20244 -3.73771 0
M  V30 4270 N 419.78 1.02168 -1.19998 0
M  V30 4271 C 421.01 1.79036 -1.031 0
M  V30 4272 C 421.418 1.84409 0.423078 0
M  V30 4273 O 420.761 1.29228 1.30559 0
M  V30 4274 C 420.823 3.25185 -1.53281 0
M  V30 4275 C 420.487 3.43431 -3.01503 0
M  V30 4276 C 421.484 3.33063 -3.99206 0
M  V30 4277 C 419.169 3.69412 -3.40353 0
M  V30 4278 C 421.163 3.48413 -5.33748 0
M  V30 4279 C 418.85 3.84406 -4.75053 0
M  V30 4280 C 419.848 3.7391 -5.71559 0
M  V30 4281 O 419.536 3.88452 -7.03818 0
M  V30 4282 H 419.268 0.570043 -0.363355 0
M  V30 4283 H 421.822 1.29524 -1.59414 0
M  V30 4284 H 420.052 3.75756 -0.913483 0
M  V30 4285 H 421.741 3.83671 -1.32481 0
M  V30 4286 H 422.507 3.12934 -3.70537 0
M  V30 4287 H 418.386 3.76671 -2.65782 0
M  V30 4288 H 421.93 3.40137 -6.09059 0
M  V30 4289 H 417.827 4.04035 -5.03415 0
M  V30 4290 H 418.595 4.055 -7.10993 0
M  V30 4291 N 421.258 1.00505 1.21394 0
M  V30 4292 C 422.674 0.717873 1.42544 0
M  V30 4293 C 422.874 -0.706936 1.88692 0
M  V30 4294 O 421.93 -1.47627 2.04847 0
M  V30 4295 C 423.243 1.73377 2.45684 0
M  V30 4296 C 424.791 1.75059 2.59467 0
M  V30 4297 C 425.266 2.75545 3.6584 0
M  V30 4298 N 426.757 2.74213 3.73311 0
M  V30 4299 C 427.492 3.48626 4.55245 0
M  V30 4300 N 426.988 4.32678 5.41075 0
M  V30 4301 N 428.781 3.37276 4.49668 0
M  V30 4302 H 420.932 1.92506 0.897503 0
M  V30 4303 H 423.195 0.830919 0.456375 0
M  V30 4304 H 422.901 2.75395 2.18748 0
M  V30 4305 H 422.775 1.53647 3.44489 0
M  V30 4306 H 425.162 0.737337 2.8574 0
M  V30 4307 H 425.243 1.98861 1.60897 0
M  V30 4308 H 424.887 3.77028 3.40313 0
M  V30 4309 H 424.817 2.49009 4.64007 0
M  V30 4310 H 427.308 2.13234 3.11993 0
M  V30 4311 H 427.621 4.86253 6.00648 0
M  V30 4312 H 425.966 4.3676 5.40616 0
M  V30 4313 H 429.157 2.71043 3.81646 0
M  V30 4314 H 429.33 3.95524 5.13288 0
M  V30 4315 N 422.737 -1.36956 0.779787 0
M  V30 4316 C 423.7 -2.2851 0.177662 0
M  V30 4317 C 424.7 -1.48393 -0.619377 0
M  V30 4318 O 425.89 -1.68505 -0.441785 0
M  V30 4319 C 423.022 -3.32428 -0.755279 0
M  V30 4320 H 424.215 -2.83269 0.984823 0
M  V30 4321 H 421.768 -1.46358 0.548544 0
M  V30 4322 H 422.503 -2.82808 -1.58714 0
M  V30 4323 H 422.288 -3.91659 -0.185817 0
M  V30 4324 H 423.778 -4.00824 -1.17174 0
M  V30 4325 N 424.215 -0.530993 -1.48385 0
M  V30 4326 C 425.44 0.000729535 -2.074 0
M  V30 4327 C 425.865 1.27298 -1.3848 0
M  V30 4328 O 425.223 1.75599 -0.451081 0
M  V30 4329 C 425.271 0.206697 -3.60007 0
M  V30 4330 O 424.375 1.27514 -3.92191 0
M  V30 4331 H 423.716 -0.039583 -0.662819 0
M  V30 4332 H 426.246 -0.739194 -1.9078 0
M  V30 4333 H 426.256 0.42904 -4.05738 0
M  V30 4334 H 424.931 -0.722675 -4.09573 0
M  V30 4335 H 423.508 1.03537 -3.58238 0
M  V30 4336 N 425.693 1.55336 -0.266172 0
M  V30 4337 C 426.603 2.2583 0.635458 0
M  V30 4338 C 427.619 1.28106 1.17749 0
M  V30 4339 O 428.795 1.61024 1.20968 0
M  V30 4340 C 425.86 2.95879 1.80712 0
M  V30 4341 C 424.921 4.09059 1.30265 0
M  V30 4342 C 424.154 4.75759 2.41846 0
M  V30 4343 O 424.377 4.41622 3.61007 0
M  V30 4344 O 423.311 5.63888 2.1051 0
M  V30 4345 H 427.137 3.03631 0.0646693 0
M  V30 4346 H 424.722 1.49361 -0.0339177 0
M  V30 4347 H 426.604 3.39932 2.49047 0
M  V30 4348 H 425.279 2.21002 2.36516 0
M  V30 4349 H 424.186 3.69482 0.586019 0
M  V30 4350 H 425.519 4.85811 0.790458 0
M  V30 4351 N 427.171 -0.0066808 1.57599 0
M  V30 4352 C 428.419 -0.691552 1.899 0
M  V30 4353 C 428.74 -1.74682 0.866672 0
M  V30 4354 O 428.01 -1.95661 -0.0968189 0
M  V30 4355 H 426.59 -0.258416 0.700878 0
M  V30 4356 H 429.252 0.0326655 1.94873 0
M  V30 4357 H 428.348 -1.16702 2.8946 0
M  V30 4358 N 428.649 -1.55105 -0.279332 0
M  V30 4359 C 429.596 -1.8755 -1.34513 0
M  V30 4360 C 430.566 -0.726384 -1.49375 0
M  V30 4361 O 431.751 -0.977063 -1.63884 0
M  V30 4362 C 428.891 -2.14738 -2.70151 0
M  V30 4363 C 428.004 -3.42285 -2.63562 0
M  V30 4364 C 427.139 -3.59206 -3.91337 0
M  V30 4365 C 426.178 -4.80467 -3.79233 0
M  V30 4366 N 425.315 -4.94079 -4.98829 0
M  V30 4367 H 430.155 -2.78456 -1.06143 0
M  V30 4368 H 427.692 -1.37867 -0.512936 0
M  V30 4369 H 429.65 -2.28501 -3.49061 0
M  V30 4370 H 428.28 -1.27075 -2.96735 0
M  V30 4371 H 427.332 -3.37029 -1.76397 0
M  V30 4372 H 428.644 -4.31328 -2.50515 0
M  V30 4373 H 427.798 -3.72751 -4.78687 0
M  V30 4374 H 426.537 -2.68337 -4.07243 0
M  V30 4375 H 425.542 -4.66932 -2.90266 0
M  V30 4376 H 426.767 -5.72765 -3.64852 0
M  V30 4377 H 424.713 -4.06139 -5.15158 0
M  V30 4378 H 424.63 -5.77156 -4.8829 0
M  V30 4379 H 425.898 -5.12003 -5.8777 0
M  V30 4380 N 430.127 0.543554 -1.4793 0
M  V30 4381 C 431.355 1.32516 -1.58894 0
M  V30 4382 C 431.77 1.87215 -0.244131 0
M  V30 4383 O 431.127 1.65709 0.764652 0
M  V30 4384 C 431.178 2.48554 -2.62494 0
M  V30 4385 O 430.899 1.96112 -3.91755 0
M  V30 4386 C 432.4 3.40572 -2.8377 0
M  V30 4387 H 429.62 0.403472 -0.536145 0
M  V30 4388 H 432.164 0.657106 -1.93655 0
M  V30 4389 H 430.319 3.1127 -2.30629 0
M  V30 4390 H 430.733 2.71967 -4.4848 0
M  V30 4391 H 432.207 4.18375 -3.60093 0
M  V30 4392 H 432.684 3.94965 -1.92092 0
M  V30 4393 H 433.29 2.8366 -3.16887 0
M  V30 4394 N 431.605 1.3629 0.791371 0
M  V30 4395 C 432.851 1.30605 1.55146 0
M  V30 4396 C 433.184 -0.115042 1.93859 0
M  V30 4397 O 432.459 -1.06798 1.62556 0
M  V30 4398 C 432.742 2.22692 2.82985 0
M  V30 4399 C 432.595 3.73489 2.50651 0
M  V30 4400 C 433.914 2.13588 3.84796 0
M  V30 4401 H 431.033 0.475761 0.562868 0
M  V30 4402 H 433.675 1.66825 0.909358 0
M  V30 4403 H 431.825 1.91933 3.37778 0
M  V30 4404 H 433.497 4.14758 2.01924 0
M  V30 4405 H 431.74 3.93021 1.83622 0
M  V30 4406 H 432.411 4.3333 3.41949 0
M  V30 4407 H 434.887 2.40659 3.39445 0
M  V30 4408 H 433.763 2.80195 4.71998 0
M  V30 4409 H 434.024 1.12256 4.27611 0
M  V30 4410 N 433.083 -1.0153 1.20538 0
M  V30 4411 C 433.993 -2.13557 0.971113 0
M  V30 4412 C 435.009 -1.73845 -0.0734366 0
M  V30 4413 O 436.185 -2.01075 0.114299 0
M  V30 4414 C 433.25 -3.42661 0.527639 0
M  V30 4415 C 432.311 -3.96608 1.64319 0
M  V30 4416 C 431.544 -5.1955 1.22078 0
M  V30 4417 O 431.767 -5.70329 0.0900198 0
M  V30 4418 O 430.701 -5.66681 2.02871 0
M  V30 4419 H 434.527 -2.3619 1.90913 0
M  V30 4420 H 432.112 -1.11946 0.989362 0
M  V30 4421 H 433.994 -4.20404 0.289621 0
M  V30 4422 H 432.669 -3.21441 -0.381779 0
M  V30 4423 H 431.576 -3.20139 1.93551 0
M  V30 4424 H 432.909 -4.22219 2.52966 0
M  V30 4425 N 434.561 -1.01147 -1.20859 0
M  V30 4426 C 435.807 -0.698899 -1.90377 0
M  V30 4427 C 436.14 0.76904 -1.78324 0
M  V30 4428 O 435.415 1.55817 -1.16409 0
M  V30 4429 C 435.698 -1.12878 -3.41951 0
M  V30 4430 C 435.551 -2.65665 -3.62963 0
M  V30 4431 C 436.87 -0.696114 -4.3456 0
M  V30 4432 H 433.989 -0.255372 -0.691342 0
M  V30 4433 H 436.631 -1.25831 -1.42361 0
M  V30 4434 H 434.781 -0.652827 -3.82976 0
M  V30 4435 H 436.453 -3.21074 -3.31224 0
M  V30 4436 H 434.696 -3.06878 -3.06608 0
M  V30 4437 H 435.367 -2.90797 -4.69192 0
M  V30 4438 H 437.843 -1.10521 -4.01154 0
M  V30 4439 H 436.719 -1.025 -5.39245 0
M  V30 4440 H 436.98 0.402465 -4.40264 0
M  V30 4441 N 436.039 1.36541 -0.78704 0
M  V30 4442 C 437.45 1.81873 -0.421807 0
M  V30 4443 C 437.801 1.65487 1.05397 0
M  V30 4444 O 436.926 1.17448 1.81755 0
M  V30 4445 C 437.521 3.30192 -0.758841 0
M  V30 4446 C 436.08 3.73743 -0.446468 0
M  V30 4447 C 435.227 2.58844 -0.994728 0
M  V30 4448 H 438.178 1.24796 -0.98039 0
M  V30 4449 H 438.199 3.80468 -0.0490648 0
M  V30 4450 H 437.711 3.42087 -1.83299 0
M  V30 4451 H 435.812 3.6741 0.619739 0
M  V30 4452 H 435.925 4.69272 -0.965415 0
M  V30 4453 H 434.289 2.51245 -0.418087 0
M  V30 4454 H 435.072 2.73525 -2.07458 0
M  V30 4455 N 437.518 0.538854 1.48102 0
M  V30 4456 C 438.748 0.0122958 2.06596 0
M  V30 4457 C 439.156 -1.27861 1.39457 0
M  V30 4458 O 438.499 -1.77348 0.478907 0
M  V30 4459 C 438.561 -0.273131 3.58461 0
M  V30 4460 C 438.225 0.92561 4.47528 0
M  V30 4461 C 439.222 1.82637 4.86765 0
M  V30 4462 C 436.907 1.13511 4.89306 0
M  V30 4463 C 438.901 2.92047 5.66558 0
M  V30 4464 C 436.588 2.23233 5.68868 0
M  V30 4465 C 437.586 3.12333 6.07402 0
M  V30 4466 O 437.274 4.20155 6.85365 0
M  V30 4467 H 437.006 0.0344283 0.675123 0
M  V30 4468 H 439.56 0.746494 1.91355 0
M  V30 4469 H 437.79 -1.06141 3.71848 0
M  V30 4470 H 439.479 -0.742842 3.99045 0
M  V30 4471 H 440.245 1.67649 4.55103 0
M  V30 4472 H 436.124 0.450835 4.5879 0
M  V30 4473 H 439.668 3.6162 5.96554 0
M  V30 4474 H 435.565 2.38201 5.99942 0
M  V30 4475 H 436.333 4.17975 7.03732 0
M  V30 4476 N 438.996 -1.55193 0.274407 0
M  V30 4477 C 439.943 -2.225 -0.613374 0
M  V30 4478 C 440.913 -1.19823 -1.15029 0
M  V30 4479 O 442.098 -1.48362 -1.19973 0
M  V30 4480 C 439.238 -2.94927 -1.79199 0
M  V30 4481 C 438.351 -4.12322 -1.28899 0
M  V30 4482 C 437.486 -4.72394 -2.42934 0
M  V30 4483 C 436.525 -5.81984 -1.89634 0
M  V30 4484 N 435.662 -6.36123 -2.9714 0
M  V30 4485 H 440.502 -2.97982 -0.032756 0
M  V30 4486 H 438.039 -1.47099 -0.00440146 0
M  V30 4487 H 439.997 -3.35134 -2.48478 0
M  V30 4488 H 438.627 -2.2187 -2.34465 0
M  V30 4489 H 437.679 -3.7724 -0.489327 0
M  V30 4490 H 438.991 -4.91355 -0.858587 0
M  V30 4491 H 438.145 -5.15317 -3.20208 0
M  V30 4492 H 436.884 -3.92636 -2.8929 0
M  V30 4493 H 435.889 -5.38511 -1.1084 0
M  V30 4494 H 437.114 -6.6361 -1.44215 0
M  V30 4495 H 435.06 -5.59259 -3.42878 0
M  V30 4496 H 434.977 -7.10427 -2.58515 0
M  V30 4497 H 436.245 -6.83704 -3.74391 0
M  V30 4498 N 440.474 -0.00167713 -1.576 0
M  V30 4499 C 441.722 0.681471 -1.90264 0
M  V30 4500 C 442.043 1.7422 -0.875924 0
M  V30 4501 O 441.313 1.95709 0.0864412 0
M  V30 4502 H 439.893 0.254696 -0.702239 0
M  V30 4503 H 442.555 -0.0429996 -1.94853 0
M  V30 4504 H 441.651 1.15166 -2.90075 0
M  V30 4505 N 441.952 1.55251 0.271103 0
M  V30 4506 C 443.229 1.66664 1.02384 0
M  V30 4507 C 443.609 0.534363 2.04225 0
M  V30 4508 O 442.957 -0.465337 2.23712 0
M  V30 4509 C 443.167 3.05961 1.67895 0
M  V30 4510 C 444.515 3.63772 2.18986 0
M  V30 4511 O 445.539 3.08606 1.77878 0
M  V30 4512 O 444.398 4.60429 2.94393 0
M  V30 4513 H 441.492 0.676957 0.475035 0
M  V30 4514 H 444.038 1.67589 0.26681 0
M  V30 4515 H 442.81 3.79815 0.941071 0
M  V30 4516 H 442.433 3.08943 2.5028 0
M  V30 4517 N 443.43 -0.535701 1.48216 0
M  V30 4518 C 444.676 -1.29375 1.56173 0
M  V30 4519 C 445.009 -1.92804 0.232429 0
M  V30 4520 O 444.284 -1.78992 -0.761048 0
M  V30 4521 C 444.567 -2.38747 2.69577 0
M  V30 4522 C 444.42 -1.80046 4.12193 0
M  V30 4523 C 445.739 -3.40551 2.78771 0
M  V30 4524 H 442.858 -0.469027 0.568491 0
M  V30 4525 H 445.5 -0.597358 1.80365 0
M  V30 4526 H 443.65 -2.98147 2.4908 0
M  V30 4527 H 445.322 -1.24742 4.44114 0
M  V30 4528 H 443.565 -1.10609 4.19462 0
M  V30 4529 H 444.236 -2.59212 4.87353 0
M  V30 4530 H 446.712 -2.91099 2.97322 0
M  V30 4531 H 445.588 -4.1448 3.59857 0
M  V30 4532 H 445.849 -4.00746 1.86696 0
M  V30 4533 N 444.908 -1.36708 -0.784132 0
M  V30 4534 C 445.818 -1.3363 -1.92822 0
M  V30 4535 C 446.834 -0.237686 -1.72369 0
M  V30 4536 O 448.01 -0.470962 -1.95816 0
M  V30 4537 C 445.075 -1.13011 -3.27764 0
M  V30 4538 C 444.136 -2.32397 -3.60957 0
M  V30 4539 C 443.369 -2.12752 -4.89461 0
M  V30 4540 O 443.592 -1.10541 -5.59586 0
M  V30 4541 O 442.526 -3.00653 -5.21432 0
M  V30 4542 H 446.352 -2.29964 -1.98369 0
M  V30 4543 H 443.937 -1.1731 -0.925136 0
M  V30 4544 H 445.819 -1.03451 -4.08504 0
M  V30 4545 H 444.494 -0.19743 -3.23097 0
M  V30 4546 H 443.401 -2.47527 -2.80502 0
M  V30 4547 H 444.734 -3.2419 -3.70354 0
M  V30 4548 N 446.386 1.0089 -1.21074 0
M  V30 4549 C 447.334 2.11707 -0.963476 0
M  V30 4550 C 448.328 1.69172 0.0879032 0
M  V30 4551 O 449.534 1.79889 -0.0631415 0
M  V30 4552 H 445.909 0.692026 -0.294287 0
M  V30 4553 H 447.88 2.29743 -1.90422 0
M  V30 4554 C 446.629 3.43473 -0.540509 0
M  V30 4555 H 445.952 3.76634 -1.34114 0
M  V30 4556 H 447.392 4.22044 -0.406777 0
M  V30 4557 C 445.851 3.2849 0.748079 0
M  V30 4558 O 446.381 3.58883 1.8046 0
M  V30 4559 N 444.587 2.81715 0.713081 0
M  V30 4560 H 444.134 2.5718 -0.146973 0
M  V30 4561 H 444.092 2.72071 1.57558 0
M  V30 4562 N 447.864 1.01787 1.20321 0
M  V30 4563 C 449.092 0.727194 1.937 0
M  V30 4564 C 449.507 -0.712305 1.74848 0
M  V30 4565 O 448.864 -1.48327 1.06327 0
M  V30 4566 C 448.915 1.05497 3.45764 0
M  V30 4567 O 448.636 2.43794 3.64 0
M  V30 4568 C 450.137 0.785534 4.36285 0
M  V30 4569 H 447.357 0.266939 0.615617 0
M  V30 4570 H 449.901 1.35939 1.52777 0
M  V30 4571 H 448.056 0.468158 3.84561 0
M  V30 4572 H 448.47 2.55656 4.57974 0
M  V30 4573 H 449.944 1.06495 5.4163 0
M  V30 4574 H 450.421 -0.280273 4.38305 0
M  V30 4575 H 451.027 1.35456 4.03152 0
M  V30 4576 N 449.342 -1.36122 0.79427 0
M  V30 4577 C 450.591 -1.98361 0.365464 0
M  V30 4578 C 450.904 -1.6374 -1.06997 0
M  V30 4579 O 452.11 -2.19251 -1.60129 0
M  V30 4580 C 450.566 -3.54821 0.602496 0
M  V30 4581 C 450.174 -3.98362 2.04967 0
M  V30 4582 C 451.918 -4.2383 0.238437 0
M  V30 4583 C 449.825 -5.47619 2.2331 0
M  V30 4584 H 448.755 -0.742193 0.13291 0
M  V30 4585 H 451.406 -1.55354 0.976589 0
M  V30 4586 H 449.788 -3.95922 -0.078409 0
M  V30 4587 H 450.962 -3.68447 2.76737 0
M  V30 4588 H 449.277 -3.42206 2.37243 0
M  V30 4589 H 451.874 -5.33529 0.353705 0
M  V30 4590 H 452.217 -4.08264 -0.814006 0
M  V30 4591 H 452.75 -3.88108 0.872769 0
M  V30 4592 H 449.489 -5.68138 3.26955 0
M  V30 4593 H 449.009 -5.79145 1.5605 0
M  V30 4594 H 450.688 -6.13911 2.0426 0
M  V30 4595 N 450.82 -0.546701 -1.47814 0
M  V30 4596 C 451.75 0.195317 -2.32682 0
M  V30 4597 C 452.731 0.918981 -1.43139 0
M  V30 4598 O 453.916 0.901501 -1.72008 0
M  V30 4599 C 451.046 1.23237 -3.247 0
M  V30 4600 C 450 0.625818 -4.234 0
M  V30 4601 C 449.326 1.76674 -5.04669 0
M  V30 4602 C 450.626 -0.413515 -5.2066 0
M  V30 4603 H 452.32 -0.513184 -2.94969 0
M  V30 4604 H 449.866 -0.248241 -1.41844 0
M  V30 4605 H 451.819 1.75955 -3.82907 0
M  V30 4606 H 450.543 1.97067 -2.60446 0
M  V30 4607 H 449.202 0.120023 -3.66403 0
M  V30 4608 H 448.85 2.49383 -4.36826 0
M  V30 4609 H 448.55 1.36673 -5.71484 0
M  V30 4610 H 450.074 2.29738 -5.65732 0
M  V30 4611 H 451.488 0.0272042 -5.73294 0
M  V30 4612 H 449.885 -0.731825 -5.95621 0
M  V30 4613 H 450.955 -1.31325 -4.66778 0
M  V30 4614 N 452.299 1.55045 -0.282633 0
M  V30 4615 C 453.576 1.9179 0.384166 0
M  V30 4616 C 453.956 1.20778 1.73136 0
M  V30 4617 O 453.304 0.33719 2.25998 0
M  V30 4618 C 453.514 3.45149 0.517014 0
M  V30 4619 C 454.862 4.17064 0.796427 0
M  V30 4620 O 455.886 3.51084 0.601535 0
M  V30 4621 O 454.745 5.33837 1.16962 0
M  V30 4622 H 451.839 0.799483 0.211558 0
M  V30 4623 H 454.385 1.66474 -0.32934 0
M  V30 4624 H 453.157 3.88922 -0.430772 0
M  V30 4625 H 452.78 3.76443 1.2797 0
M  V30 4626 N 453.777 0.010035 1.57597 0
M  V30 4627 C 455.026 -0.671945 1.90178 0
M  V30 4628 C 455.339 -1.74376 0.886131 0
M  V30 4629 O 456.545 -2.48107 1.10252 0
M  V30 4630 C 455.001 -1.24636 3.3763 0
M  V30 4631 C 454.609 -0.208838 4.47513 0
M  V30 4632 C 456.353 -1.90595 3.79307 0
M  V30 4633 C 454.26 -0.793814 5.86048 0
M  V30 4634 H 453.19 -0.25474 0.709665 0
M  V30 4635 H 455.841 0.0722206 1.83358 0
M  V30 4636 H 454.223 -2.04152 3.3932 0
M  V30 4637 H 455.397 0.562463 4.57354 0
M  V30 4638 H 453.712 0.350889 4.14919 0
M  V30 4639 H 456.309 -2.35284 4.80151 0
M  V30 4640 H 456.652 -2.74074 3.13352 0
M  V30 4641 H 457.185 -1.17798 3.79958 0
M  V30 4642 H 453.924 0.00240855 6.555 0
M  V30 4643 H 453.444 -1.53404 5.79851 0
M  V30 4644 H 455.123 -1.2894 6.34022 0
M  V30 4645 N 455.255 -1.55392 -0.262866 0
M  V30 4646 C 456.185 -1.91978 -1.32917 0
M  V30 4647 C 457.166 -0.7828 -1.51017 0
M  V30 4648 O 458.351 -1.04178 -1.63892 0
M  V30 4649 C 455.481 -2.20055 -2.68687 0
M  V30 4650 C 454.435 -3.35854 -2.65304 0
M  V30 4651 C 453.761 -3.49435 -4.04721 0
M  V30 4652 C 455.061 -4.71977 -2.23685 0
M  V30 4653 H 456.755 -2.81292 -1.02544 0
M  V30 4654 H 454.301 -1.3534 -0.491846 0
M  V30 4655 H 456.254 -2.44237 -3.43404 0
M  V30 4656 H 454.978 -1.27551 -3.00663 0
M  V30 4657 H 453.637 -3.11655 -1.93045 0
M  V30 4658 H 453.285 -2.54379 -4.33936 0
M  V30 4659 H 452.985 -4.27297 -4.0335 0
M  V30 4660 H 454.509 -3.7592 -4.81161 0
M  V30 4661 H 455.923 -4.95637 -2.88127 0
M  V30 4662 H 454.32 -5.52828 -2.33456 0
M  V30 4663 H 455.39 -4.70115 -1.18827 0
M  V30 4664 N 456.733 0.527833 -1.48498 0
M  V30 4665 C 457.981 1.28101 -1.56316 0
M  V30 4666 C 458.302 1.9352 -0.239781 0
M  V30 4667 O 457.572 1.81433 0.738849 0
M  V30 4668 H 456.152 0.475793 -0.575873 0
M  V30 4669 H 458.814 0.614052 -1.84974 0
M  V30 4670 H 457.91 2.05916 -2.34532 0
M  V30 4671 N 458.211 1.37122 0.776871 0
M  V30 4672 C 459.459 1.31787 1.53221 0
M  V30 4673 C 459.78 -0.0987589 1.9475 0
M  V30 4674 O 459.05 -1.0417 1.65908 0
M  V30 4675 H 457.63 0.484839 0.568278 0
M  V30 4676 H 460.292 1.71556 0.924917 0
M  V30 4677 H 459.388 1.95355 2.43398 0
M  V30 4678 N 459.689 -1.00246 1.21608 0
M  V30 4679 C 460.619 -2.10921 1.00172 0
M  V30 4680 C 461.6 -1.69938 -0.0741587 0
M  V30 4681 O 462.785 -1.94009 0.0861753 0
M  V30 4682 C 459.915 -3.42618 0.568355 0
M  V30 4683 C 458.869 -3.97407 1.58909 0
M  V30 4684 C 458.195 -5.25038 1.01187 0
M  V30 4685 C 459.495 -4.2918 2.97661 0
M  V30 4686 H 461.189 -2.29112 1.92739 0
M  V30 4687 H 458.735 -1.10101 0.928102 0
M  V30 4688 H 460.688 -4.19444 0.405555 0
M  V30 4689 H 459.412 -3.24227 -0.392961 0
M  V30 4690 H 458.071 -3.22703 1.73949 0
M  V30 4691 H 457.719 -5.02982 0.0421965 0
M  V30 4692 H 457.419 -5.62661 1.6937 0
M  V30 4693 H 458.943 -6.04507 0.860448 0
M  V30 4694 H 460.357 -4.96839 2.86049 0
M  V30 4695 H 458.754 -4.77952 3.6288 0
M  V30 4696 H 459.824 -3.3735 3.48315 0
M  V30 4697 N 461.167 -1.02423 -1.1978 0
M  V30 4698 C 462.583 -0.740459 -1.41384 0
M  V30 4699 C 462.783 0.676827 -1.89793 0
M  V30 4700 O 461.839 1.4435 -2.0717 0
M  V30 4701 C 463.152 -1.77264 -2.42895 0
M  V30 4702 C 464.7 -1.79165 -2.56649 0
M  V30 4703 C 465.175 -2.8133 -3.6141 0
M  V30 4704 N 466.666 -2.80118 -3.68901 0
M  V30 4705 C 467.401 -3.55824 -4.49641 0
M  V30 4706 N 466.897 -4.41231 -5.34123 0
M  V30 4707 N 468.69 -3.44387 -4.44246 0
M  V30 4708 H 460.841 -1.9391 -0.866764 0
M  V30 4709 H 463.104 -0.838074 -0.443098 0
M  V30 4710 H 462.81 -2.7884 -2.14339 0
M  V30 4711 H 462.684 -1.59108 -3.42001 0
M  V30 4712 H 465.071 -0.782702 -2.84531 0
M  V30 4713 H 465.152 -2.01396 -1.57713 0
M  V30 4714 H 464.796 -3.82394 -3.34271 0
M  V30 4715 H 464.726 -2.56359 -4.59986 0
M  V30 4716 H 467.217 -2.1817 -3.08562 0
M  V30 4717 H 467.53 -4.95747 -5.92836 0
M  V30 4718 H 465.875 -4.45306 -5.33599 0
M  V30 4719 H 469.066 -2.7708 -3.77285 0
M  V30 4720 H 469.239 -4.0364 -5.06931 0
M  V30 4721 N 462.645 1.35699 -0.801477 0
M  V30 4722 C 463.87 2.03687 -0.390678 0
M  V30 4723 C 464.295 1.60015 0.988778 0
M  V30 4724 O 463.653 0.774357 1.63931 0
M  V30 4725 C 463.701 3.57439 -0.476404 0
M  V30 4726 O 462.805 4.09208 0.512106 0
M  V30 4727 H 462.146 0.64344 -0.163956 0
M  V30 4728 H 464.676 1.73403 -1.08594 0
M  V30 4729 H 464.686 4.06544 -0.344357 0
M  V30 4730 H 463.361 3.88576 -1.48262 0
M  V30 4731 H 461.938 3.7134 0.340721 0
M  V30 4732 N 464.123 0.554532 1.47522 0
M  V30 4733 C 465.351 0.034257 2.06872 0
M  V30 4734 C 465.766 -1.25826 1.40759 0
M  V30 4735 O 465.123 -1.75425 0.503217 0
M  V30 4736 C 465.174 -0.167827 3.6111 0
M  V30 4737 O 464.895 1.07351 4.24744 0
M  V30 4738 C 466.396 -0.72569 4.3732 0
M  V30 4739 H 463.616 0.0446275 0.669514 0
M  V30 4740 H 466.16 0.767181 1.89564 0
M  V30 4741 H 464.315 -0.850872 3.7794 0
M  V30 4742 H 464.729 0.869563 5.17242 0
M  V30 4743 H 466.203 -0.816394 5.45929 0
M  V30 4744 H 466.68 -1.73635 4.0342 0
M  V30 4745 H 467.286 -0.0784292 4.25228 0
M  V30 4746 N 465.601 -1.54893 0.290851 0
M  V30 4747 C 466.841 -2.01842 -0.322388 0
M  V30 4748 C 467.205 -1.17477 -1.51865 0
M  V30 4749 O 468.406 -1.54077 -2.20258 0
M  V30 4750 C 466.677 -3.50874 -0.679844 0
M  V30 4751 S 468.236 -4.19796 -1.27739 0
M  V30 4752 H 465.054 -0.704005 -0.0994866 0
M  V30 4753 H 467.656 -1.91015 0.416358 0
M  V30 4754 H 466.36 -4.09915 0.199435 0
M  V30 4755 H 465.891 -3.65717 -1.44964 0
M  V30 4756 H 467.906 -4.24729 -2.56554 0
M  V30 4757 N 467.08 -0.0183926 -1.57589 0
M  V30 4758 C 468.308 0.673046 -1.95647 0
M  V30 4759 C 468.723 1.66275 -0.894312 0
M  V30 4760 O 468.08 1.82072 0.124975 0
M  V30 4761 C 468.131 1.38884 -3.33756 0
M  V30 4762 O 467.852 0.438806 -4.35897 0
M  V30 4763 C 469.353 2.1731 -3.86383 0
M  V30 4764 H 466.573 0.186292 -0.644621 0
M  V30 4765 H 469.117 -0.0749748 -2.04363 0
M  V30 4766 H 467.272 2.08835 -3.26293 0
M  V30 4767 H 467.686 0.945869 -5.15901 0
M  V30 4768 H 469.16 2.62863 -4.85394 0
M  V30 4769 H 469.637 3.00764 -3.20059 0
M  V30 4770 H 470.243 1.52339 -3.97081 0
M  V30 4771 N 468.558 1.5553 0.254621 0
M  V30 4772 C 469.788 1.80784 1.00004 0
M  V30 4773 C 470.196 0.59071 1.79742 0
M  V30 4774 O 469.539 -0.449988 1.78103 0
M  V30 4775 C 469.601 2.99268 1.99196 0
M  V30 4776 C 469.265 4.35595 1.38224 0
M  V30 4777 C 470.262 5.13884 0.788611 0
M  V30 4778 C 467.947 4.82281 1.40393 0
M  V30 4779 C 469.941 6.37004 0.224783 0
M  V30 4780 C 467.628 6.05351 0.836243 0
M  V30 4781 C 468.626 6.82551 0.24769 0
M  V30 4782 O 468.314 8.03297 -0.311249 0
M  V30 4783 H 468.046 0.60565 0.300274 0
M  V30 4784 H 470.6 2.03411 0.285143 0
M  V30 4785 H 468.83 2.72377 2.74496 0
M  V30 4786 H 470.519 3.11682 2.60018 0
M  V30 4787 H 471.285 4.78938 0.764423 0
M  V30 4788 H 467.164 4.22189 1.85142 0
M  V30 4789 H 470.708 6.97203 -0.235235 0
M  V30 4790 H 466.605 6.39776 0.857733 0
M  V30 4791 H 467.373 8.1825 -0.20237 0
M  V30 4792 N 470.036 -0.519951 1.48776 0
M  V30 4793 C 471.282 -1.27711 1.57536 0
M  V30 4794 C 471.615 -1.92547 0.252866 0
M  V30 4795 O 470.89 -1.7979 -0.742021 0
M  V30 4796 C 471.173 -2.35875 2.72094 0
M  V30 4797 C 471.026 -1.75664 4.1408 0
M  V30 4798 C 472.345 -3.37575 2.82367 0
M  V30 4799 H 469.464 -0.462971 0.573434 0
M  V30 4800 H 472.106 -0.578194 1.80989 0
M  V30 4801 H 470.256 -2.95488 2.52228 0
M  V30 4802 H 471.928 -1.20025 4.45412 0
M  V30 4803 H 470.171 -1.06154 4.20611 0
M  V30 4804 H 470.842 -2.54029 4.90075 0
M  V30 4805 H 473.318 -2.87929 3.00393 0
M  V30 4806 H 472.194 -4.1064 3.64233 0
M  V30 4807 H 472.455 -3.98743 1.90936 0
M  V30 4808 N 471.514 -1.37532 -0.769588 0
M  V30 4809 C 472.762 -1.32597 -1.5252 0
M  V30 4810 C 473.083 0.0884294 -1.94799 0
M  V30 4811 O 472.353 1.03289 -1.66458 0
M  V30 4812 H 470.933 -0.487846 -0.565699 0
M  V30 4813 H 473.595 -1.72044 -0.915806 0
M  V30 4814 H 472.691 -1.96643 -2.42359 0
M  V30 4815 N 472.992 0.995999 -1.22138 0
M  V30 4816 C 473.955 2.06711 -0.990109 0
M  V30 4817 C 474.955 1.60744 0.0422978 0
M  V30 4818 O 476.145 1.73095 -0.195895 0
M  V30 4819 C 473.277 3.37288 -0.49491 0
M  V30 4820 H 474.47 2.28661 -1.94047 0
M  V30 4821 H 472.023 1.16711 -1.03963 0
M  V30 4822 H 472.758 3.21022 0.459948 0
M  V30 4823 H 472.543 3.71986 -1.23971 0
M  V30 4824 H 474.033 4.16103 -0.353253 0
M  V30 4825 N 474.47 1.03057 1.19235 0
M  V30 4826 C 475.433 0.617418 2.20727 0
M  V30 4827 C 476.433 -0.319856 1.57587 0
M  V30 4828 O 477.623 -0.106633 1.73873 0
M  V30 4829 C 474.755 -0.096296 3.40764 0
M  V30 4830 H 475.948 1.51544 2.58794 0
M  V30 4831 H 473.501 0.821949 1.32942 0
M  V30 4832 H 474.236 -1.00859 3.08217 0
M  V30 4833 H 474.021 0.577217 3.87828 0
M  V30 4834 H 475.511 -0.372219 4.15938 0
M  V30 4835 N 475.948 -1.35272 0.808662 0
M  V30 4836 C 476.895 -2.29764 0.218482 0
M  V30 4837 C 477.865 -1.52911 -0.648652 0
M  V30 4838 O 479.05 -1.81341 -0.593297 0
M  V30 4839 C 476.19 -3.39388 -0.625282 0
M  V30 4840 C 475.303 -4.31202 0.262516 0
M  V30 4841 C 474.438 -5.27919 -0.589451 0
M  V30 4842 C 473.477 -6.11371 0.298617 0
M  V30 4843 N 472.614 -7.0022 -0.513443 0
M  V30 4844 H 477.454 -2.79645 1.02968 0
M  V30 4845 H 474.991 -1.37629 0.519303 0
M  V30 4846 H 476.949 -4.01615 -1.12966 0
M  V30 4847 H 475.579 -2.90777 -1.40173 0
M  V30 4848 H 474.631 -3.69962 0.885013 0
M  V30 4849 H 475.943 -4.89748 0.945971 0
M  V30 4850 H 475.097 -5.95529 -1.15888 0
M  V30 4851 H 473.836 -4.69875 -1.30647 0
M  V30 4852 H 472.841 -5.42707 0.880301 0
M  V30 4853 H 474.066 -6.71494 1.01352 0
M  V30 4854 H 472.012 -6.44662 -1.21439 0
M  V30 4855 H 471.929 -7.55917 0.111922 0
M  V30 4856 H 473.197 -7.72175 -1.06608 0
M  V30 4857 N 477.426 -0.562348 -1.47226 0
M  V30 4858 C 478.356 0.170627 -2.32876 0
M  V30 4859 C 479.337 0.903748 -1.44106 0
M  V30 4860 O 480.522 0.883206 -1.72954 0
M  V30 4861 C 477.652 1.19786 -3.25989 0
M  V30 4862 C 476.606 0.580875 -4.2404 0
M  V30 4863 C 475.932 1.71311 -5.06514 0
M  V30 4864 C 477.232 -0.468714 -5.20193 0
M  V30 4865 H 478.926 -0.544441 -2.94408 0
M  V30 4866 H 476.472 -0.263271 -1.41573 0
M  V30 4867 H 478.425 1.71884 -3.84752 0
M  V30 4868 H 477.149 1.94294 -2.62521 0
M  V30 4869 H 475.808 0.0811538 -3.6651 0
M  V30 4870 H 475.456 2.44736 -4.39447 0
M  V30 4871 H 475.156 1.30604 -5.72902 0
M  V30 4872 H 476.68 2.23725 -5.68137 0
M  V30 4873 H 478.094 -0.0336028 -5.7329 0
M  V30 4874 H 476.491 -0.794957 -5.94811 0
M  V30 4875 H 477.561 -1.36269 -4.65359 0
M  V30 4876 N 478.904 1.54736 -0.299062 0
M  V30 4877 C 479.851 2.23448 0.577899 0
M  V30 4878 C 480.821 1.21637 1.13109 0
M  V30 4879 O 482.006 1.50252 1.17597 0
M  V30 4880 C 479.146 2.9774 1.74484 0
M  V30 4881 C 478.259 4.1432 1.22323 0
M  V30 4882 C 477.394 4.76199 2.35388 0
M  V30 4883 C 476.433 5.84927 1.80351 0
M  V30 4884 N 475.57 6.4077 2.86982 0
M  V30 4885 H 480.41 2.97996 -0.0146545 0
M  V30 4886 H 477.947 1.47088 -0.0190013 0
M  V30 4887 H 479.905 3.39045 2.43114 0
M  V30 4888 H 478.535 2.25572 2.30905 0
M  V30 4889 H 477.587 3.7797 0.429249 0
M  V30 4890 H 478.899 4.92659 0.780309 0
M  V30 4891 H 478.053 5.20346 3.11969 0
M  V30 4892 H 476.792 3.97188 2.83006 0
M  V30 4893 H 475.797 5.40207 1.02259 0
M  V30 4894 H 477.022 6.65821 1.3364 0
M  V30 4895 H 474.968 5.64643 3.33938 0
M  V30 4896 H 474.885 7.1445 2.4718 0
M  V30 4897 H 476.153 6.89574 3.63466 0
M  V30 4898 N 480.382 0.0267497 1.57577 0
M  V30 4899 C 481.292 -0.971633 2.13533 0
M  V30 4900 C 482.308 -1.35868 1.08701 0
M  V30 4901 O 483.484 -1.44058 1.40746 0
M  V30 4902 C 480.549 -2.23622 2.64941 0
M  V30 4903 C 479.61 -1.90982 3.8448 0
M  V30 4904 C 478.843 -3.11411 4.33427 0
M  V30 4905 O 479.066 -4.23992 3.81558 0
M  V30 4906 O 478 -2.93848 5.25297 0
M  V30 4907 H 481.826 -0.525853 2.99113 0
M  V30 4908 H 479.411 -0.193712 1.48139 0
M  V30 4909 H 481.293 -2.97864 2.98086 0
M  V30 4910 H 479.968 -2.67386 1.82446 0
M  V30 4911 H 478.875 -1.14132 3.56265 0
M  V30 4912 H 480.208 -1.52036 4.6813 0
M  V30 4913 N 481.861 -1.55662 -0.24637 0
M  V30 4914 C 482.791 -1.93377 -1.30873 0
M  V30 4915 C 483.772 -0.798773 -1.50179 0
M  V30 4916 O 484.957 -1.0591 -1.62778 0
M  V30 4917 C 482.087 -2.22893 -2.66338 0
M  V30 4918 C 481.041 -3.38649 -2.61727 0
M  V30 4919 C 480.367 -3.53708 -4.00992 0
M  V30 4920 C 481.667 -4.74323 -2.18666 0
M  V30 4921 H 483.361 -2.82363 -0.995552 0
M  V30 4922 H 480.907 -1.35854 -0.477464 0
M  V30 4923 H 482.86 -2.47866 -3.40794 0
M  V30 4924 H 481.584 -1.30733 -2.99293 0
M  V30 4925 H 480.243 -3.13685 -1.89729 0
M  V30 4926 H 479.891 -2.58967 -4.31214 0
M  V30 4927 H 479.591 -4.31551 -3.98795 0
M  V30 4928 H 481.115 -3.81003 -4.77147 0
M  V30 4929 H 482.529 -4.98665 -2.82854 0
M  V30 4930 H 480.926 -5.55273 -2.27579 0
M  V30 4931 H 481.996 -4.71349 -1.13834 0
M  V30 4932 N 483.339 0.512053 -1.4905 0
M  V30 4933 C 484.564 1.2959 -1.6193 0
M  V30 4934 C 484.989 1.85906 -0.286454 0
M  V30 4935 O 484.347 1.65312 0.744426 0
M  V30 4936 C 484.395 2.40987 -2.68249 0
M  V30 4937 O 483.499 3.44531 -2.26654 0
M  V30 4938 H 482.84 0.383053 -0.542371 0
M  V30 4939 H 485.37 0.614231 -1.95162 0
M  V30 4940 H 485.38 2.86913 -2.90078 0
M  V30 4941 H 484.055 1.99361 -3.65004 0
M  V30 4942 H 482.632 3.046 -2.15112 0
M  V30 4943 N 484.817 1.37938 0.762283 0
M  V30 4944 C 486.233 1.18945 1.06415 0
M  V30 4945 C 486.433 0.0321163 2.01474 0
M  V30 4946 O 485.489 -0.624844 2.44647 0
M  V30 4947 C 486.802 2.51218 1.65258 0
M  V30 4948 C 488.35 2.57824 1.7747 0
M  V30 4949 C 488.825 3.90251 2.39725 0
M  V30 4950 N 490.316 3.91744 2.47166 0
M  V30 4951 C 491.051 4.90966 2.96209 0
M  V30 4952 N 490.547 6.00585 3.45354 0
M  V30 4953 N 492.34 4.78363 2.9517 0
M  V30 4954 H 484.491 2.11994 0.131301 0
M  V30 4955 H 486.754 0.940262 0.120879 0
M  V30 4956 H 486.46 3.36317 1.02878 0
M  V30 4957 H 486.334 2.68989 2.64433 0
M  V30 4958 H 488.721 1.73126 2.3898 0
M  V30 4959 H 488.802 2.43928 0.770241 0
M  V30 4960 H 488.446 4.75368 1.78852 0
M  V30 4961 H 488.376 4.01454 3.40796 0
M  V30 4962 H 490.867 3.12563 2.12397 0
M  V30 4963 H 491.18 6.72236 3.81207 0
M  V30 4964 H 489.525 6.04217 3.43434 0
M  V30 4965 H 492.716 3.91841 2.56082 0
M  V30 4966 H 492.889 5.55843 3.33081 0
M  V30 4967 N 486.295 -0.989507 1.22664 0
M  V30 4968 C 487.711 -1.25395 0.987331 0
M  V30 4969 C 487.911 -1.9899 -0.317056 0
M  V30 4970 O 486.967 -2.30141 -1.03882 0
M  V30 4971 C 488.28 -2.06242 2.18826 0
M  V30 4972 C 489.828 -2.19413 2.23219 0
M  V30 4973 C 490.303 -3.03648 3.42873 0
M  V30 4974 N 491.794 -3.11234 3.43056 0
M  V30 4975 C 492.529 -3.7671 4.32293 0
M  V30 4976 N 492.025 -4.44085 5.31752 0
M  V30 4977 N 493.818 -3.73505 4.2006 0
M  V30 4978 H 485.969 -0.496212 2.06522 0
M  V30 4979 H 488.232 -0.281784 0.905153 0
M  V30 4980 H 487.938 -1.59531 3.13437 0
M  V30 4981 H 487.812 -3.06996 2.19165 0
M  V30 4982 H 490.199 -2.65336 1.29154 0
M  V30 4983 H 490.28 -1.18078 2.26917 0
M  V30 4984 H 489.924 -2.58424 4.37241 0
M  V30 4985 H 489.854 -4.05132 3.36416 0
M  V30 4986 H 492.345 -2.63287 2.71088 0
M  V30 4987 H 492.658 -4.91797 5.96117 0
M  V30 4988 H 491.003 -4.42822 5.35662 0
M  V30 4989 H 494.194 -3.20033 3.41609 0
M  V30 4990 H 494.367 -4.24253 4.8981 0
M  V30 4991 N 487.773 -1.03688 -1.18687 0
M  V30 4992 C 488.736 -0.629115 -2.20397 0
M  V30 4993 C 489.736 0.311495 -1.57754 0
M  V30 4994 O 490.926 0.0974107 -1.73927 0
M  V30 4995 C 488.058 0.0782231 -3.4081 0
M  V30 4996 H 489.251 -1.52915 -2.57987 0
M  V30 4997 H 486.804 -0.828988 -1.32505 0
M  V30 4998 H 487.539 0.992233 -3.08748 0
M  V30 4999 H 487.324 -0.597776 -3.87517 0
M  V30 5000 H 488.814 0.350156 -4.16129 0
M  V30 5001 N 489.251 1.34841 -0.815825 0
M  V30 5002 C 490.479 2.0273 -0.413294 0
M  V30 5003 C 490.894 1.61459 0.978599 0
M  V30 5004 O 490.251 0.816584 1.63212 0
M  V30 5005 C 490.302 3.58058 -0.497676 0
M  V30 5006 O 490.023 3.97832 -1.8347 0
M  V30 5007 C 491.524 4.4321 -0.0891339 0
M  V30 5008 H 488.744 0.649956 -0.166728 0
M  V30 5009 H 491.288 1.72267 -1.10201 0
M  V30 5010 H 489.443 3.87136 0.142886 0
M  V30 5011 H 489.857 4.92501 -1.80396 0
M  V30 5012 H 491.331 5.5164 -0.199274 0
M  V30 5013 H 491.808 4.28432 0.966571 0
M  V30 5014 H 492.414 4.19446 -0.703214 0
M  V30 5015 N 490.729 0.570148 1.46925 0
M  V30 5016 C 491.976 0.0509529 2.02436 0
M  V30 5017 C 492.304 -1.30405 1.44308 0
M  V30 5018 O 491.559 -1.86493 0.593198 0
M  V30 5019 C 491.858 -0.0780336 3.57315 0
M  V30 5020 C 491.524 1.20775 4.34424 0
M  V30 5021 C 490.186 1.56004 4.5521 0
M  V30 5022 C 492.538 2.0592 4.78797 0
M  V30 5023 C 489.866 2.76201 5.17619 0
M  V30 5024 C 492.218 3.25332 5.42533 0
M  V30 5025 C 490.882 3.60859 5.61549 0
M  V30 5026 H 490.152 0.018645 0.740765 0
M  V30 5027 H 492.799 0.744262 1.76445 0
M  V30 5028 H 491.104 -0.854394 3.82371 0
M  V30 5029 H 492.801 -0.495312 3.97929 0
M  V30 5030 H 489.391 0.923469 4.18533 0
M  V30 5031 H 493.575 1.80008 4.62505 0
M  V30 5032 H 488.831 3.0388 5.30535 0
M  V30 5033 H 493.005 3.91586 5.75876 0
M  V30 5034 H 490.632 4.54088 6.09678 0
M  V30 5035 N 492.207 -1.54576 0.307264 0
M  V30 5036 C 493.456 -1.99442 -0.300976 0
M  V30 5037 C 493.769 -1.19928 -1.5452 0
M  V30 5038 O 494.975 -1.55092 -2.22842 0
M  V30 5039 C 493.431 -3.55084 -0.586809 0
M  V30 5040 C 493.039 -4.43413 0.639438 0
M  V30 5041 C 494.783 -4.0846 -1.1559 0
M  V30 5042 C 492.69 -5.90499 0.326411 0
M  V30 5043 H 491.62 -0.744986 -0.116238 0
M  V30 5044 H 494.271 -1.787 0.416947 0
M  V30 5045 H 492.653 -3.71749 -1.36449 0
M  V30 5046 H 493.827 -4.38522 1.41545 0
M  V30 5047 H 492.142 -4.00842 1.1276 0
M  V30 5048 H 494.739 -5.15926 -1.40445 0
M  V30 5049 H 495.082 -3.59443 -2.10015 0
M  V30 5050 H 495.615 -3.95362 -0.439778 0
M  V30 5051 H 492.354 -6.43676 1.23939 0
M  V30 5052 H 491.874 -5.98382 -0.412212 0
M  V30 5053 H 493.553 -6.46962 -0.0697393 0
M  V30 5054 N 493.685 -0.035106 -1.57561 0
M  V30 5055 C 495.101 0.321334 -1.56332 0
M  V30 5056 C 495.301 1.72509 -1.04129 0
M  V30 5057 O 494.357 2.4287 -0.690694 0
M  V30 5058 C 495.67 0.164469 -3.0025 0
M  V30 5059 C 497.218 0.236786 -3.12103 0
M  V30 5060 C 497.693 0.10864 -4.57871 0
M  V30 5061 N 499.184 0.165433 -4.62904 0
M  V30 5062 C 499.919 0.0901506 -5.73329 0
M  V30 5063 N 499.415 -0.0365606 -6.9279 0
M  V30 5064 N 501.208 0.144572 -5.61914 0
M  V30 5065 H 493.359 -0.952976 -1.89821 0
M  V30 5066 H 495.622 -0.368537 -0.873432 0
M  V30 5067 H 495.328 -0.802746 -3.42416 0
M  V30 5068 H 495.202 0.932194 -3.655 0
M  V30 5069 H 497.589 1.19446 -2.69845 0
M  V30 5070 H 497.67 -0.561419 -2.49563 0
M  V30 5071 H 497.314 -0.845644 -5.00811 0
M  V30 5072 H 497.244 0.925786 -5.18398 0
M  V30 5073 H 499.735 0.263269 -3.76982 0
M  V30 5074 H 500.048 -0.0871487 -7.72751 0
M  V30 5075 H 498.393 -0.0714256 -6.94963 0
M  V30 5076 H 501.584 0.242006 -4.67474 0
M  V30 5077 H 501.757 0.0824413 -6.47948 0
M  V30 5078 N 495.163 1.55791 0.238111 0
M  V30 5079 C 496.409 1.78297 0.966337 0
M  V30 5080 C 496.742 0.601903 1.84637 0
M  V30 5081 O 496.017 -0.399499 1.90353 0
M  V30 5082 C 496.3 3.10758 1.81939 0
M  V30 5083 C 496.153 4.39283 0.966958 0
M  V30 5084 C 497.472 3.39519 2.80027 0
M  V30 5085 H 494.591 0.648654 0.349882 0
M  V30 5086 H 497.233 1.88525 0.236253 0
M  V30 5087 H 495.383 3.02168 2.44185 0
M  V30 5088 H 497.055 4.59873 0.362514 0
M  V30 5089 H 495.298 4.32948 0.271669 0
M  V30 5090 H 495.969 5.28368 1.59784 0
M  V30 5091 H 498.445 3.48128 2.27917 0
M  V30 5092 H 497.321 4.33402 3.36829 0
M  V30 5093 H 497.582 2.60864 3.56934 0
M  V30 5094 N 496.642 -0.504142 1.49319 0
M  V30 5095 C 497.87 -1.28256 1.62351 0
M  V30 5096 C 498.285 -1.86502 0.293682 0
M  V30 5097 O 497.642 -1.67678 -0.720449 0
M  V30 5098 C 497.693 -2.41507 2.68992 0
M  V30 5099 O 497.414 -1.85656 3.96817 0
M  V30 5100 C 498.915 -3.32929 2.927 0
M  V30 5101 H 496.135 -0.389115 0.546654 0
M  V30 5102 H 498.679 -0.605531 1.95329 0
M  V30 5103 H 496.834 -3.05046 2.38801 0
M  V30 5104 H 497.248 -2.59981 4.55533 0
M  V30 5105 H 498.722 -4.0868 3.71058 0
M  V30 5106 H 499.199 -3.89733 2.02496 0
M  V30 5107 H 499.805 -2.75158 3.24296 0
M  V30 5108 N 498.12 -1.38341 -0.754957 0
M  V30 5109 C 499.052 -1.31347 -1.87831 0
M  V30 5110 C 500.065 -0.225955 -1.61224 0
M  V30 5111 O 501.254 -0.48341 -1.7183 0
M  V30 5112 C 498.354 -1.01201 -3.23437 0
M  V30 5113 C 497.527 -2.20834 -3.77559 0
M  V30 5114 C 496.586 -1.87454 -4.91678 0
M  V30 5115 O 495.612 -2.59934 -5.06382 0
M  V30 5116 N 496.814 -0.828682 -5.74555 0
M  V30 5117 H 499.579 -2.28147 -1.94342 0
M  V30 5118 H 497.14 -1.32184 -0.934828 0
M  V30 5119 H 499.132 -0.769249 -3.97322 0
M  V30 5120 H 497.702 -0.132011 -3.12321 0
M  V30 5121 H 496.922 -2.61184 -2.95256 0
M  V30 5122 H 498.21 -3.00678 -4.10451 0
M  V30 5123 H 497.608 -0.227591 -5.65242 0
M  V30 5124 H 496.165 -0.645802 -6.48593 0
M  V30 5125 N 499.598 0.982988 -1.23187 0
M  V30 5126 C 500.53 2.07729 -0.968572 0
M  V30 5127 C 501.543 1.62702 0.0564821 0
M  V30 5128 O 502.732 1.77603 -0.178733 0
M  V30 5129 C 499.832 3.36071 -0.436974 0
M  V30 5130 C 499.005 4.10081 -1.52159 0
M  V30 5131 C 498.064 5.16701 -0.99532 0
M  V30 5132 O 497.09 5.43727 -1.68373 0
M  V30 5133 N 498.292 5.80226 0.178192 0
M  V30 5134 H 501.057 2.30894 -1.9107 0
M  V30 5135 H 498.618 1.14949 -1.1401 0
M  V30 5136 H 500.61 4.04639 -0.0700051 0
M  V30 5137 H 499.18 3.09893 0.410509 0
M  V30 5138 H 498.4 3.36004 -2.06144 0
M  V30 5139 H 499.688 4.56295 -2.25105 0
M  V30 5140 H 499.086 5.60651 0.754096 0
M  V30 5141 H 497.643 6.49982 0.486449 0
M  V30 5142 N 501.076 1.04316 1.18135 0
M  V30 5143 C 502.026 0.606731 2.19779 0
M  V30 5144 C 503.01 -0.352144 1.56999 0
M  V30 5145 O 504.202 -0.170795 1.76174 0
M  V30 5146 C 501.331 -0.0262443 3.4329 0
M  V30 5147 C 500.417 0.955928 4.13186 0
M  V30 5148 N 500.808 2.12395 4.59045 0
M  V30 5149 C 499.106 0.782473 4.39082 0
M  V30 5150 C 499.807 2.74458 5.12882 0
M  V30 5151 N 498.783 2.02316 5.04548 0
M  V30 5152 H 502.585 1.49679 2.5293 0
M  V30 5153 H 500.099 0.912088 1.34368 0
M  V30 5154 H 502.096 -0.356617 4.15372 0
M  V30 5155 H 500.756 -0.911811 3.11635 0
M  V30 5156 H 501.767 2.50272 4.53414 0
M  V30 5157 H 498.444 -0.0527906 4.17467 0
M  V30 5158 H 499.834 3.73459 5.5855 0
M  V30 5159 N 502.554 -1.34406 0.822964 0
M  V30 5160 C 503.502 -2.31428 0.233165 0
M  V30 5161 C 504.496 -1.57404 -0.626118 0
M  V30 5162 O 505.702 -1.72402 -0.517453 0
M  V30 5163 H 502.077 -0.749863 0.0566557 0
M  V30 5164 H 504.048 -2.78699 1.06628 0
M  V30 5165 C 502.797 -3.42653 -0.590264 0
M  V30 5166 H 502.12 -3.99753 0.0616129 0
M  V30 5167 H 503.56 -4.12778 -0.969054 0
M  V30 5168 C 502.019 -2.87112 -1.76262 0
M  V30 5169 O 502.549 -2.81995 -2.8608 0
M  V30 5170 N 500.755 -2.43934 -1.57938 0
M  V30 5171 H 500.302 -2.48296 -0.686078 0
M  V30 5172 H 500.26 -2.07123 -2.36532 0
M  V30 5173 N 504.032 -0.577932 -1.46621 0
M  V30 5174 C 505.26 -0.0671642 -2.06791 0
M  V30 5175 C 505.675 1.23571 -1.42743 0
M  V30 5176 O 505.032 1.74602 -0.531062 0
M  V30 5177 C 505.083 0.110357 -3.61332 0
M  V30 5178 O 504.804 -1.14095 -4.22982 0
M  V30 5179 C 506.305 0.656025 -4.38419 0
M  V30 5180 H 503.525 -0.0552732 -0.66872 0
M  V30 5181 H 506.069 -0.797242 -1.8832 0
M  V30 5182 H 504.224 0.790637 -3.79246 0
M  V30 5183 H 504.638 -0.951742 -5.15793 0
M  V30 5184 H 506.112 0.729438 -5.47159 0
M  V30 5185 H 506.589 1.67195 -4.06131 0
M  V30 5186 H 507.195 0.0107692 -4.25299 0
M  V30 5187 N 505.51 1.54411 -0.315457 0
M  V30 5188 C 506.756 2.00716 0.289972 0
M  V30 5189 C 507.089 1.2034 1.5242 0
M  V30 5190 O 506.364 0.283579 1.92422 0
M  V30 5191 C 506.647 3.54507 0.632196 0
M  V30 5192 C 506.5 4.45615 -0.61218 0
M  V30 5193 C 507.819 4.15421 1.45305 0
M  V30 5194 H 504.938 0.729637 0.10392 0
M  V30 5195 H 507.58 1.8506 -0.430427 0
M  V30 5196 H 505.73 3.67979 1.24595 0
M  V30 5197 H 507.402 4.44026 -1.25053 0
M  V30 5198 H 505.645 4.15621 -1.24264 0
M  V30 5199 H 506.316 5.51022 -0.328379 0
M  V30 5200 H 508.792 4.05474 0.934331 0
M  V30 5201 H 507.668 5.23157 1.66127 0
M  V30 5202 H 507.929 3.68223 2.44671 0
M  V30 5203 N 506.988 0.0434614 1.5754 0
M  V30 5204 C 508.235 -0.632035 1.92384 0
M  V30 5205 C 508.563 -1.71304 0.921157 0
M  V30 5206 O 507.818 -1.95583 -0.067744 0
M  V30 5207 C 508.117 -1.2738 3.3393 0
M  V30 5208 C 507.783 -0.321757 4.49751 0
M  V30 5209 C 506.445 -0.0597611 4.81163 0
M  V30 5210 C 508.797 0.331158 5.20147 0
M  V30 5211 C 506.125 0.862715 5.80322 0
M  V30 5212 C 508.477 1.24178 6.20292 0
M  V30 5213 C 507.141 1.51252 6.50138 0
M  V30 5214 H 506.411 -0.231278 0.703983 0
M  V30 5215 H 509.058 0.108294 1.91194 0
M  V30 5216 H 507.363 -2.08921 3.3145 0
M  V30 5217 H 509.06 -1.80326 3.58167 0
M  V30 5218 H 505.65 -0.53614 4.25233 0
M  V30 5219 H 509.834 0.141826 4.96097 0
M  V30 5220 H 505.09 1.08003 6.01785 0
M  V30 5221 H 509.264 1.75381 6.73954 0
M  V30 5222 H 506.891 2.22897 7.26788 0
M  V30 5223 N 508.466 -1.55915 -0.229846 0
M  V30 5224 C 509.691 -1.8296 -0.976743 0
M  V30 5225 C 510.116 -0.622735 -1.77493 0
M  V30 5226 O 509.474 0.428431 -1.76165 0
M  V30 5227 C 509.522 -3.07916 -1.8767 0
M  V30 5228 O 508.626 -2.86028 -2.97088 0
M  V30 5229 H 507.967 -0.603453 -0.277021 0
M  V30 5230 H 510.497 -2.0312 -0.245669 0
M  V30 5231 H 510.507 -3.37802 -2.2881 0
M  V30 5232 H 509.182 -3.95389 -1.28996 0
M  V30 5233 H 507.759 -2.67355 -2.59954 0
M  V30 5234 O 509.983 0.375361 -1.57077 0
M  V30 5235 H 510.674 1.02655 -1.64261 0
M  V30 END ATOM
M  V30 BEGIN BOND
M  V30 END BOND
M  V30 END CTAB
M  END
$$$$
