drugbank_target|P36946 D-ribose pyranase (DB04286; DB04352)
 OpenBabel12092120023D

  0  0  0     0  0            999 V3000
M  V30 BEGIN CTAB
M  V30 COUNTS 2033 2049 0 0 0
M  V30 BEGIN ATOM
M  V30 1 H -0.908 1.98254 -0.117106 0
M  V30 2 N 0 1.576 0 0
M  V30 3 C 0.933 2.03868 1.02534 0
M  V30 4 C 1.911 0.928543 1.3348 0
M  V30 5 O 3.095 1.19667 1.45644 0
M  V30 6 C 0.222 2.43627 2.35294 0
M  V30 7 C -0.732 3.65373 2.2001 0
M  V30 8 S 0.101 5.13292 1.52614 0
M  V30 9 C 1.257 5.56322 2.86805 0
M  V30 10 H 1.49 2.90518 0.631377 0
M  V30 11 H -0.977 1.52953 0.210867 0
M  V30 12 H 0.981 2.67203 3.11629 0
M  V30 13 H -0.358 1.57376 2.7183 0
M  V30 14 H -1.165 3.90944 3.18086 0
M  V30 15 H -1.563 3.418 1.51819 0
M  V30 16 H 0.729 5.58782 3.83104 0
M  V30 17 H 1.672 6.56266 2.65933 0
M  V30 18 H 2.08 4.83886 2.90714 0
M  V30 19 N 1.4781 -0.272755 1.55222 0
M  V30 20 C 2.4251 -1.33716 1.88119 0
M  V30 21 C 3.3951 -1.49066 0.73271 0
M  V30 22 O 4.5801 -1.63469 0.984002 0
M  V30 23 C 1.7201 -2.69238 2.15882 0
M  V30 24 C 0.8331 -2.62108 3.43399 0
M  V30 25 C -0.0319 -3.89811 3.60861 0
M  V30 26 C -0.9929 -3.77193 4.8207 0
M  V30 27 N -1.8559 -4.9673 4.96189 0
M  V30 28 H 2.9841 -1.04962 2.78903 0
M  V30 29 H 0.5211 -0.507088 1.38083 0
M  V30 30 H 2.4791 -3.48089 2.29978 0
M  V30 31 H 1.1091 -2.96194 1.28331 0
M  V30 32 H 0.1611 -1.74967 3.37773 0
M  V30 33 H 1.4731 -2.48685 4.32386 0
M  V30 34 H 0.6271 -4.77103 3.74777 0
M  V30 35 H -0.6339 -4.06102 2.7006 0
M  V30 36 H -1.6289 -2.88284 4.68159 0
M  V30 37 H -0.4039 -3.62421 5.74307 0
M  V30 38 H -2.4579 -5.13431 4.08319 0
M  V30 39 H -2.5409 -4.85839 5.79221 0
M  V30 40 H -1.2729 -5.85594 5.1449 0
M  V30 41 N 2.9562 -1.48159 -0.537278 0
M  V30 42 C 3.9032 -1.62138 -1.64256 0
M  V30 43 C 4.8732 -0.463668 -1.59497 0
M  V30 44 O 6.0582 -0.686241 -1.78032 0
M  V30 45 C 3.1982 -1.66028 -3.02537 0
M  V30 46 C 2.3112 -2.92855 -3.17585 0
M  V30 47 C 1.4462 -2.87952 -4.46382 0
M  V30 48 C 0.4852 -4.09516 -4.54932 0
M  V30 49 N -0.3778 -4.02733 -5.75109 0
M  V30 50 H 4.4622 -2.56529 -1.51647 0
M  V30 51 H 1.9992 -1.27224 -0.738414 0
M  V30 52 H 3.9572 -1.66265 -3.82638 0
M  V30 53 H 2.5872 -0.751331 -3.13934 0
M  V30 54 H 1.6392 -3.02395 -2.30784 0
M  V30 55 H 2.9512 -3.82822 -3.19764 0
M  V30 56 H 2.1052 -2.8655 -5.34765 0
M  V30 57 H 0.8442 -1.95702 -4.46712 0
M  V30 58 H -0.1508 -4.11201 -3.64957 0
M  V30 59 H 1.0742 -5.02917 -4.56346 0
M  V30 60 H -0.9798 -3.13299 -5.76351 0
M  V30 61 H -1.0628 -4.86397 -5.78752 0
M  V30 62 H 0.2052 -4.05379 -6.65799 0
M  V30 63 N 4.4343 0.785586 -1.36625 0
M  V30 64 C 5.3843 1.88822 -1.27789 0
M  V30 65 C 6.3683 1.60014 -0.168579 0
M  V30 66 O 7.5603 1.72381 -0.401737 0
M  V30 67 C 4.6893 3.26092 -1.07327 0
M  V30 68 C 3.7753 3.60897 -2.22743 0
M  V30 69 N 4.1663 3.66982 -3.48077 0
M  V30 70 C 2.4643 3.90981 -2.14593 0
M  V30 71 C 3.1653 3.98137 -4.24101 0
M  V30 72 N 2.1413 4.13319 -3.53084 0
M  V30 73 H 5.9433 1.91759 -2.22723 0
M  V30 74 H 3.4573 0.981311 -1.29399 0
M  V30 75 H 5.4543 4.04954 -0.990842 0
M  V30 76 H 4.1143 3.24428 -0.132977 0
M  V30 77 H 5.1253 3.49531 -3.82163 0
M  V30 78 H 1.8023 3.9722 -1.2854 0
M  V30 79 H 3.1923 4.09737 -5.32509 0
M  V30 80 N 5.9124 1.20967 1.01018 0
M  V30 81 C 7.1604 1.02172 1.74371 0
M  V30 82 C 7.4814 -0.446414 1.89821 0
M  V30 83 O 6.7514 -1.32234 1.44537 0
M  V30 84 H 5.3314 0.375066 0.646014 0
M  V30 85 H 7.9934 1.52187 1.21758 0
M  V30 86 H 7.0894 1.48538 2.74487 0
M  V30 87 N 7.3905 -1.2043 1.01659 0
M  V30 88 C 8.6395 -1.89118 0.701237 0
M  V30 89 C 8.9525 -1.79705 -0.772358 0
M  V30 90 O 10.1585 -2.43528 -1.20026 0
M  V30 91 C 8.6145 -3.39168 1.20388 0
M  V30 92 C 8.2225 -3.57166 2.70438 0
M  V30 93 C 9.9665 -4.1341 0.963953 0
M  V30 94 C 7.8735 -5.01042 3.14183 0
M  V30 95 H 6.8035 -0.708267 0.2586 0
M  V30 96 H 9.4545 -1.36239 1.22927 0
M  V30 97 H 7.8365 -3.91369 0.603824 0
M  V30 98 H 9.0105 -3.15351 3.35992 0
M  V30 99 H 7.3255 -2.96294 2.92572 0
M  V30 100 H 9.9225 -5.19491 1.26621 0
M  V30 101 H 10.2655 -4.16181 -0.099578 0
M  V30 102 H 10.7985 -3.67309 1.52738 0
M  V30 103 H 7.5375 -5.03426 4.19812 0
M  V30 104 H 7.0575 -5.43668 2.53348 0
M  V30 105 H 8.7365 -5.69623 3.0682 0
M  V30 106 N 8.8686 -0.792821 -1.36206 0
M  V30 107 C 9.7986 -0.207853 -2.32573 0
M  V30 108 C 10.7796 0.659055 -1.56813 0
M  V30 109 O 11.9646 0.592176 -1.84951 0
M  V30 110 C 9.0946 0.655449 -3.41059 0
M  V30 111 C 8.0486 -0.111842 -4.27854 0
M  V30 112 C 7.3746 0.872274 -5.27537 0
M  V30 113 C 8.6746 -1.30299 -5.05786 0
M  V30 114 H 10.3686 -1.01294 -2.81744 0
M  V30 115 H 7.9146 -0.48854 -1.3546 0
M  V30 116 H 9.8676 1.07464 -4.07467 0
M  V30 117 H 8.5916 1.49328 -2.90463 0
M  V30 118 H 7.2506 -0.512053 -3.63006 0
M  V30 119 H 6.8986 1.70523 -4.73214 0
M  V30 120 H 6.5986 0.363291 -5.86476 0
M  V30 121 H 8.1226 1.28996 -5.96818 0
M  V30 122 H 9.5366 -0.959379 -5.65216 0
M  V30 123 H 7.9336 -1.7455 -5.74154 0
M  V30 124 H 9.0036 -2.09663 -4.37229 0
M  V30 125 N 10.3467 1.47872 -0.545128 0
M  V30 126 C 11.2947 2.31533 0.222512 0
M  V30 127 C 12.2887 1.42177 0.920985 0
M  V30 128 O 13.4947 1.59005 0.843645 0
M  V30 129 H 9.8697 0.746519 0.0906278 0
M  V30 130 H 11.8407 2.94139 -0.50246 0
M  V30 131 C 10.5897 3.2457 1.24699 0
M  V30 132 H 9.9127 3.93283 0.718944 0
M  V30 133 H 11.3527 3.85963 1.75523 0
M  V30 134 C 9.8117 2.47237 2.28856 0
M  V30 135 O 10.3417 2.20808 3.35569 0
M  V30 136 N 8.5477 2.08461 2.02466 0
M  V30 137 H 8.0947 2.30155 1.157 0
M  V30 138 H 8.0527 1.57033 2.72375 0
M  V30 139 N 11.8248 0.280983 1.55075 0
M  V30 140 C 13.0498 -0.340154 2.04592 0
M  V30 141 C 13.4748 -1.48246 1.15779 0
M  V30 142 O 12.8328 -1.80614 0.15761 0
M  V30 143 C 12.8808 -0.793104 3.5177 0
M  V30 144 O 11.9848 -1.89981 3.66034 0
M  V30 145 H 11.3258 -0.0694289 0.66036 0
M  V30 146 H 13.8558 0.416993 2.00306 0
M  V30 147 H 13.8658 -1.08729 3.93245 0
M  V30 148 H 12.5408 0.0426163 4.15878 0
M  V30 149 H 11.1178 -1.60771 3.36463 0
M  V30 150 N 13.3029 -1.57598 0.00835791 0
M  V30 151 C 14.2529 -2.05431 -0.989045 0
M  V30 152 C 15.2369 -0.950662 -1.29812 0
M  V30 153 O 16.4289 -1.21438 -1.28771 0
M  V30 154 C 13.5579 -2.56801 -2.27833 0
M  V30 155 C 12.6439 -3.74058 -1.99853 0
M  V30 156 N 13.0349 -4.8544 -1.42062 0
M  V30 157 C 11.3329 -3.82148 -2.29953 0
M  V30 158 C 12.0339 -5.66817 -1.30743 0
M  V30 159 N 11.0099 -5.13077 -1.7959 0
M  V30 160 H 14.8119 -2.88955 -0.536853 0
M  V30 161 H 12.3259 -1.61199 -0.197148 0
M  V30 162 H 14.3229 -2.89349 -3.00137 0
M  V30 163 H 12.9829 -1.74699 -2.73698 0
M  V30 164 H 13.9939 -5.0612 -1.09833 0
M  V30 165 H 10.6709 -3.10916 -2.78635 0
M  V30 166 H 12.0609 -6.66343 -0.862328 0
M  V30 167 N 14.781 0.264519 -1.55364 0
M  V30 168 C 15.711 1.33121 -1.91836 0
M  V30 169 C 16.692 1.51101 -0.781192 0
M  V30 170 O 17.877 1.64003 -1.04003 0
M  V30 171 C 15.007 2.68921 -2.19769 0
M  V30 172 C 13.961 2.65661 -3.35571 0
M  V30 173 C 13.287 4.05093 -3.49004 0
M  V30 174 C 14.587 2.24187 -4.71739 0
M  V30 175 H 16.281 1.02844 -2.81182 0
M  V30 176 H 13.827 0.493286 -1.35287 0
M  V30 177 H 15.78 3.43663 -2.43872 0
M  V30 178 H 14.504 3.00799 -1.27231 0
M  V30 179 H 13.163 1.93377 -3.1145 0
M  V30 180 H 12.811 4.34206 -2.53917 0
M  V30 181 H 12.511 4.03804 -4.26868 0
M  V30 182 H 14.035 4.81561 -3.75408 0
M  V30 183 H 15.449 2.88654 -4.9533 0
M  V30 184 H 13.846 2.34044 -5.52579 0
M  V30 185 H 14.916 1.19327 -4.69988 0
M  V30 186 N 16.2591 1.48442 0.529413 0
M  V30 187 C 17.2221 1.62524 1.61612 0
M  V30 188 C 18.2221 0.498509 1.52877 0
M  V30 189 O 19.4121 0.76431 1.56537 0
M  V30 190 C 16.5441 1.59597 3.01233 0
M  V30 191 H 17.7371 2.59423 1.50465 0
M  V30 192 H 15.2901 1.37047 0.751514 0
M  V30 193 H 16.0251 0.641781 3.17886 0
M  V30 194 H 15.8101 2.41397 3.08982 0
M  V30 195 H 17.3001 1.72646 3.80241 0
M  V30 196 N 17.7372 -0.778329 1.37039 0
M  V30 197 C 18.6842 -1.89139 1.32269 0
M  V30 198 C 19.6542 -1.65017 0.189387 0
M  V30 199 O 20.8392 -1.87024 0.377693 0
M  V30 200 C 17.9792 -3.26112 1.12894 0
M  V30 201 C 17.0922 -3.62233 2.35396 0
M  V30 202 C 16.2272 -4.8838 2.08946 0
M  V30 203 C 15.2662 -5.17212 3.2735 0
M  V30 204 N 14.4032 -6.34546 3.00492 0
M  V30 205 H 19.2432 -1.92552 2.27437 0
M  V30 206 H 16.7802 -0.941473 1.13025 0
M  V30 207 H 18.7382 -4.05116 0.996835 0
M  V30 208 H 17.3682 -3.22091 0.213758 0
M  V30 209 H 16.4202 -2.78265 2.5937 0
M  V30 210 H 17.7322 -3.79481 3.23721 0
M  V30 211 H 16.8862 -5.75274 1.92729 0
M  V30 212 H 15.6252 -4.73222 1.17949 0
M  V30 213 H 14.6302 -4.28796 3.44113 0
M  V30 214 H 15.8552 -5.34283 4.19188 0
M  V30 215 H 13.8012 -6.20759 2.12118 0
M  V30 216 H 13.7182 -6.52179 3.82358 0
M  V30 217 H 14.9862 -7.24394 2.87879 0
M  V30 218 N 19.2153 -1.21501 -1.00376 0
M  V30 219 C 20.4643 -1.02718 -1.73586 0
M  V30 220 C 20.7773 0.439589 -1.90596 0
M  V30 221 O 21.9833 0.746848 -2.61026 0
M  V30 222 C 20.4393 -1.78929 -3.1227 0
M  V30 223 C 20.0473 -3.29783 -3.03228 0
M  V30 224 C 21.7913 -1.68557 -3.89601 0
M  V30 225 C 19.6983 -3.98479 -4.36999 0
M  V30 226 H 18.6283 -0.380733 -0.650814 0
M  V30 227 H 21.2793 -1.45248 -1.1214 0
M  V30 228 H 19.6613 -1.29192 -3.74333 0
M  V30 229 H 20.8353 -3.86832 -2.50395 0
M  V30 230 H 19.1503 -3.40711 -2.39385 0
M  V30 231 H 21.7473 -2.17211 -4.88593 0
M  V30 232 H 22.0903 -0.644021 -4.11288 0
M  V30 233 H 22.6233 -2.15778 -3.34193 0
M  V30 234 H 19.3623 -5.02841 -4.20513 0
M  V30 235 H 18.8823 -3.46219 -4.89788 0
M  V30 236 H 20.5613 -4.03462 -5.05794 0
M  V30 237 N 20.6934 1.19889 -1.02296 0
M  V30 238 C 21.6234 2.25141 -0.619174 0
M  V30 239 C 22.6044 1.66051 0.368915 0
M  V30 240 O 23.7894 1.92546 0.252941 0
M  V30 241 C 20.9194 3.4728 0.0368783 0
M  V30 242 C 19.8734 4.19005 -0.872865 0
M  V30 243 C 19.1994 5.34637 -0.0822402 0
M  V30 244 C 20.4994 4.74452 -2.18387 0
M  V30 245 H 22.1934 2.59171 -1.49903 0
M  V30 246 H 19.7394 1.24579 -0.722222 0
M  V30 247 H 21.6924 4.20098 0.330958 0
M  V30 248 H 20.4164 3.12433 0.95149 0
M  V30 249 H 19.0754 3.48061 -1.15105 0
M  V30 250 H 18.7234 4.96034 0.83422 0
M  V30 251 H 18.4234 5.83557 -0.688149 0
M  V30 252 H 19.9474 6.10255 0.205238 0
M  V30 253 H 21.3614 5.39055 -1.95172 0
M  V30 254 H 19.7584 5.33834 -2.74119 0
M  V30 255 H 20.8284 3.92844 -2.84257 0
M  V30 256 N 22.1715 0.800033 1.35784 0
M  V30 257 C 23.1345 0.211565 2.28221 0
M  V30 258 C 24.1345 -0.59728 1.49296 0
M  V30 259 O 25.3245 -0.416721 1.69142 0
M  V30 260 C 22.4565 -0.705846 3.33513 0
M  V30 261 H 23.6495 1.02677 2.81776 0
M  V30 262 H 21.2025 0.570211 1.45528 0
M  V30 263 H 21.9375 -1.54498 2.85133 0
M  V30 264 H 21.7225 -0.127655 3.91892 0
M  V30 265 H 23.2125 -1.11211 4.02519 0
M  V30 266 N 23.6496 -1.47581 0.552962 0
M  V30 267 C 24.9266 -1.95563 -0.0381515 0
M  V30 268 C 25.3066 -1.49552 -1.48988 0
M  V30 269 O 24.6546 -0.732414 -2.16444 0
M  V30 270 C 24.8646 -3.48848 0.102919 0
M  V30 271 C 26.2126 -4.24577 -0.0446082 0
M  V30 272 O 27.2366 -3.56187 0.0302548 0
M  V30 273 O 26.0956 -5.46116 -0.204923 0
M  V30 274 H 23.1896 -0.824321 -0.0665067 0
M  V30 275 H 25.7356 -1.58001 0.619186 0
M  V30 276 H 24.5076 -3.75129 1.11328 0
M  V30 277 H 24.1306 -3.93165 -0.592224 0
M  V30 278 N 25.1277 -0.289203 -1.54924 0
M  V30 279 C 26.0577 0.58549 -2.2604 0
M  V30 280 C 27.0387 1.14753 -1.25562 0
M  V30 281 O 28.2237 1.17906 -1.54311 0
M  V30 282 C 25.3537 1.76305 -2.99222 0
M  V30 283 C 24.3077 1.33191 -4.06748 0
M  V30 284 C 23.6337 2.5937 -4.6758 0
M  V30 285 C 24.9337 0.471775 -5.20165 0
M  V30 286 H 26.6277 -0.00763532 -2.99399 0
M  V30 287 H 24.1737 -0.00511229 -1.43999 0
M  V30 288 H 26.1267 2.38097 -3.47689 0
M  V30 289 H 24.8507 2.38223 -2.23422 0
M  V30 290 H 23.5097 0.737121 -3.59113 0
M  V30 291 H 23.1577 3.19576 -3.88433 0
M  V30 292 H 22.8577 2.31228 -5.40192 0
M  V30 293 H 24.3817 3.21985 -5.18804 0
M  V30 294 H 25.7957 0.995056 -5.64599 0
M  V30 295 H 24.1927 0.284639 -5.99425 0
M  V30 296 H 25.2627 -0.506041 -4.82252 0
M  V30 297 N 26.6058 1.57591 -0.0167156 0
M  V30 298 C 27.8538 1.90906 0.663285 0
M  V30 299 C 28.1748 0.892509 1.73376 0
M  V30 300 O 27.4448 -0.0677623 1.95783 0
M  V30 301 H 26.0248 0.704637 0.247983 0
M  V30 302 H 28.6868 1.94803 -0.0615909 0
M  V30 303 H 27.7828 2.9116 1.12393 0
M  V30 304 N 28.0839 -0.256276 1.55502 0
M  V30 305 C 29.0339 -1.31981 1.85916 0
M  V30 306 C 30.0179 -1.43927 0.719296 0
M  V30 307 O 31.2099 -1.47326 0.981019 0
M  V30 308 C 28.3389 -2.67703 2.14918 0
M  V30 309 C 27.4249 -2.59801 3.35208 0
M  V30 310 N 27.8159 -2.21524 4.54709 0
M  V30 311 C 26.1139 -2.90832 3.38131 0
M  V30 312 C 26.8149 -2.24024 5.36832 0
M  V30 313 N 25.7909 -2.63158 4.75656 0
M  V30 314 H 29.5929 -1.01423 2.75845 0
M  V30 315 H 27.1069 -0.464911 1.55603 0
M  V30 316 H 29.1039 -3.44445 2.34869 0
M  V30 317 H 27.7639 -2.99137 1.26282 0
M  V30 318 H 28.7749 -1.93223 4.80505 0
M  V30 319 H 25.4519 -3.26867 2.59739 0
M  V30 320 H 26.8419 -1.9685 6.42417 0
M  V30 321 N 29.562 -1.4872 -0.521534 0
M  V30 322 C 30.79 -1.60843 -1.30142 0
M  V30 323 C 31.205 -0.271897 -1.86832 0
M  V30 324 O 30.562 0.739969 -1.66825 0
M  V30 325 C 30.613 -2.66155 -2.4463 0
M  V30 326 O 30.334 -3.94623 -1.90275 0
M  V30 327 C 31.835 -2.88795 -3.36322 0
M  V30 328 H 29.055 -0.542075 -0.395468 0
M  V30 329 H 31.599 -1.94609 -0.628285 0
M  V30 330 H 29.754 -2.35224 -3.07812 0
M  V30 331 H 30.168 -4.52468 -2.65279 0
M  V30 332 H 31.642 -3.66264 -4.12983 0
M  V30 333 H 32.119 -1.97934 -3.9207 0
M  V30 334 H 32.725 -3.21063 -2.78924 0
M  V30 335 N 31.0401 0.771051 -1.3745 0
M  V30 336 C 32.3171 1.519 -1.23231 0
M  V30 337 C 32.6971 2.10383 0.173809 0
M  V30 338 O 32.0451 1.95583 1.18151 0
M  V30 339 C 32.2551 2.59933 -2.32886 0
M  V30 340 C 33.6031 3.27316 -2.70461 0
M  V30 341 O 34.6271 2.70228 -2.32068 0
M  V30 342 O 33.4861 4.30531 -3.36608 0
M  V30 343 H 30.5801 0.672803 -0.480901 0
M  V30 344 H 33.1261 0.807957 -1.49232 0
M  V30 345 H 31.8981 2.14842 -3.27045 0
M  V30 346 H 31.5211 3.38637 -2.08353 0
M  V30 347 N 32.5182 1.22032 0.997298 0
M  V30 348 C 33.4652 0.986467 2.08656 0
M  V30 349 C 34.4352 -0.0902671 1.65855 0
M  V30 350 O 35.6202 0.0584294 1.90711 0
M  V30 351 C 32.7602 0.565569 3.40434 0
M  V30 352 C 31.8732 1.71259 3.96604 0
M  V30 353 C 31.0082 1.24011 5.16522 0
M  V30 354 C 30.0472 2.35896 5.64818 0
M  V30 355 N 29.1842 1.89726 6.7598 0
M  V30 356 H 34.0242 1.91892 2.27994 0
M  V30 357 H 31.5612 0.956199 1.11782 0
M  V30 358 H 33.5192 0.302738 4.161 0
M  V30 359 H 32.1492 -0.329879 3.2111 0
M  V30 360 H 31.2012 2.08986 3.17851 0
M  V30 361 H 32.5132 2.55436 4.28432 0
M  V30 362 H 31.6672 0.934395 5.99461 0
M  V30 363 H 30.4062 0.368487 4.86306 0
M  V30 364 H 29.4112 2.67261 4.8047 0
M  V30 365 H 30.6362 3.23567 5.97061 0
M  V30 366 H 28.5822 1.0492 6.47555 0
M  V30 367 H 28.4992 2.67471 7.07103 0
M  V30 368 H 29.7672 1.62211 7.62435 0
M  V30 369 N 33.9963 -1.19345 1.0293 0
M  V30 370 C 35.2453 -1.88363 0.721256 0
M  V30 371 C 35.5583 -1.80514 -0.753254 0
M  V30 372 O 36.7643 -2.44788 -1.17436 0
M  V30 373 C 35.2203 -3.37872 1.23978 0
M  V30 374 C 34.8283 -3.54278 2.74211 0
M  V30 375 C 36.5723 -4.12365 1.00775 0
M  V30 376 C 34.4793 -4.97682 3.19479 0
M  V30 377 H 33.4093 -0.705484 0.266098 0
M  V30 378 H 36.0603 -1.34928 1.24365 0
M  V30 379 H 34.4423 -3.90707 0.6453 0
M  V30 380 H 35.6163 -3.11769 3.39318 0
M  V30 381 H 33.9313 -2.93174 2.95699 0
M  V30 382 H 36.5283 -5.18119 1.32123 0
M  V30 383 H 36.8713 -4.16263 -0.0554308 0
M  V30 384 H 37.4043 -3.65668 1.56625 0
M  V30 385 H 34.1433 -4.98945 4.25128 0
M  V30 386 H 33.6633 -5.4095 2.591 0
M  V30 387 H 35.3423 -5.66337 3.12845 0
M  V30 388 N 35.4744 -0.807222 -1.35358 0
M  V30 389 C 36.7204 -0.388463 -1.99045 0
M  V30 390 C 37.0534 1.04184 -1.63888 0
M  V30 391 O 36.3284 1.72292 -0.902535 0
M  V30 392 C 36.6114 -0.572783 -3.55515 0
M  V30 393 C 36.4644 -2.04807 -4.00468 0
M  V30 394 C 37.7834 0.00114064 -4.401 0
M  V30 395 H 34.9024 -0.142619 -0.723069 0
M  V30 396 H 37.5444 -1.01687 -1.60498 0
M  V30 397 H 35.6944 -0.0378425 -3.88482 0
M  V30 398 H 37.3664 -2.64544 -3.77908 0
M  V30 399 H 35.6094 -2.54427 -3.51353 0
M  V30 400 H 36.2804 -2.12792 -5.09337 0
M  V30 401 H 38.7564 -0.455716 -4.13597 0
M  V30 402 H 37.6324 -0.157737 -5.48673 0
M  V30 403 H 37.8934 1.09488 -4.28328 0
M  V30 404 N 36.9525 1.47285 -0.560781 0
M  V30 405 C 38.2015 2.01668 -0.035895 0
M  V30 406 C 38.5145 1.44021 1.32353 0
M  V30 407 O 39.7205 1.90088 1.93853 0
M  V30 408 C 38.1765 3.59897 -0.0136659 0
M  V30 409 C 37.7845 4.26536 -1.37006 0
M  V30 410 C 39.5285 4.22017 0.458425 0
M  V30 411 C 37.4355 5.76782 -1.30675 0
M  V30 412 H 36.3655 0.753938 -0.00964879 0
M  V30 413 H 39.0165 1.69243 -0.709166 0
M  V30 414 H 37.3985 3.89301 0.725325 0
M  V30 415 H 38.5725 4.0877 -2.12705 0
M  V30 416 H 36.8875 3.76419 -1.78038 0
M  V30 417 H 39.4845 5.32124 0.524247 0
M  V30 418 H 39.8275 3.89437 1.4712 0
M  V30 419 H 40.3605 3.97159 -0.225818 0
M  V30 420 H 37.0995 6.13988 -2.29564 0
M  V30 421 H 36.6195 5.96875 -0.591622 0
M  V30 422 H 38.2985 6.39063 -1.01033 0
M  V30 423 N 38.4306 0.297415 1.54768 0
M  V30 424 C 39.3936 -0.567375 2.22066 0
M  V30 425 C 40.3936 -1.06409 1.20556 0
M  V30 426 O 41.5836 -0.960691 1.45315 0
M  V30 427 C 38.7156 -1.78517 2.90421 0
M  V30 428 H 39.9086 0.0205534 2.99893 0
M  V30 429 H 37.4616 0.0482163 1.56226 0
M  V30 430 H 38.1966 -2.41303 2.16664 0
M  V30 431 H 37.9816 -1.43669 3.64831 0
M  V30 432 H 39.4716 -2.39964 3.41771 0
M  V30 433 N 39.9087 -1.5758 0.0250728 0
M  V30 434 C 41.1857 -1.82917 -0.692873 0
M  V30 435 C 41.5657 -0.908137 -1.90568 0
M  V30 436 O 40.9137 0.0372298 -2.2847 0
M  V30 437 C 41.1237 -3.32034 -1.07492 0
M  V30 438 C 42.4717 -3.98406 -1.46826 0
M  V30 439 O 43.4957 -3.36505 -1.16801 0
M  V30 440 O 42.3547 -5.07497 -2.02754 0
M  V30 441 H 39.4487 -0.754079 -0.33955 0
M  V30 442 H 41.9947 -1.69619 0.0524456 0
M  V30 443 H 40.7667 -3.90728 -0.211552 0
M  V30 444 H 40.3897 -3.50424 -1.87854 0
M  V30 445 N 41.3868 0.248026 -1.55636 0
M  V30 446 C 42.3498 1.29044 -1.89421 0
M  V30 447 C 43.3498 1.41134 -0.770581 0
M  V30 448 O 44.5398 1.39854 -1.03858 0
M  V30 449 C 41.6718 2.66831 -2.12165 0
M  V30 450 H 42.8648 1.00305 -2.82629 0
M  V30 451 H 40.4178 0.487265 -1.48511 0
M  V30 452 H 41.1528 3.00711 -1.21422 0
M  V30 453 H 40.9378 2.59438 -2.93997 0
M  V30 454 H 42.4278 3.42103 -2.3949 0
M  V30 455 N 42.8649 1.48995 0.513639 0
M  V30 456 C 44.1129 1.57531 1.26604 0
M  V30 457 C 44.4339 0.258236 1.93283 0
M  V30 458 O 43.7039 -0.721502 1.8213 0
M  V30 459 H 42.2839 0.580387 0.470276 0
M  V30 460 H 44.9459 1.85552 0.596373 0
M  V30 461 H 44.0419 2.36486 2.03669 0
M  V30 462 N 44.343 -0.763751 1.37857 0
M  V30 463 C 45.273 -1.89103 1.36975 0
M  V30 464 C 46.254 -1.68439 0.237152 0
M  V30 465 O 47.439 -1.8918 0.438713 0
M  V30 466 C 44.569 -3.26496 1.18395 0
M  V30 467 C 43.523 -3.61741 2.28751 0
M  V30 468 C 42.849 -4.97762 1.95286 0
M  V30 469 C 44.149 -3.67665 3.70972 0
M  V30 470 H 45.843 -1.90099 2.31307 0
M  V30 471 H 43.389 -0.91319 1.11341 0
M  V30 472 H 45.342 -4.05003 1.16406 0
M  V30 473 H 44.066 -3.25955 0.205215 0
M  V30 474 H 42.725 -2.85547 2.29909 0
M  V30 475 H 42.373 -4.93769 0.959221 0
M  V30 476 H 42.073 -5.22313 2.69189 0
M  V30 477 H 43.597 -5.7866 1.94898 0
M  V30 478 H 45.011 -4.36307 3.719 0
M  V30 479 H 43.408 -4.03718 4.43995 0
M  V30 480 H 44.478 -2.68134 4.0402 0
M  V30 481 N 45.8211 -1.22559 -0.990812 0
M  V30 482 C 47.2321 -1.04791 -1.54518 0
M  V30 483 C 47.5831 0.387998 -1.92325 0
M  V30 484 O 46.7081 1.27328 -1.74976 0
M  V30 485 C 47.3031 -1.896 -2.80779 0
M  V30 486 C 45.8621 -1.76124 -3.32652 0
M  V30 487 C 45.0091 -1.8594 -2.05722 0
M  V30 488 H 47.9601 -1.36374 -0.811662 0
M  V30 489 H 47.9811 -1.41464 -3.53225 0
M  V30 490 H 47.4931 -2.94101 -2.53231 0
M  V30 491 H 45.5941 -0.743643 -3.65104 0
M  V30 492 H 45.7071 -2.58913 -4.03114 0
M  V30 493 H 44.0711 -1.29403 -2.19379 0
M  V30 494 H 44.8541 -2.91976 -1.80568 0
M  V30 495 N 47.2992 1.18797 -1.03562 0
M  V30 496 C 48.5452 1.8893 -0.737113 0
M  V30 497 C 48.8782 1.79837 0.732956 0
M  V30 498 O 48.1532 1.19525 1.5344 0
M  V30 499 C 48.4362 3.39607 -1.19745 0
M  V30 500 C 48.2892 3.57537 -2.72924 0
M  V30 501 C 49.6082 4.33069 -0.783526 0
M  V30 502 H 46.7272 0.686057 -0.269249 0
M  V30 503 H 49.3692 1.39797 -1.28673 0
M  V30 504 H 47.5192 3.81583 -0.729855 0
M  V30 505 H 49.1912 3.24688 -3.27682 0
M  V30 506 H 47.4342 3.00363 -3.12993 0
M  V30 507 H 48.1052 4.63238 -3.00191 0
M  V30 508 H 50.5812 3.98846 -1.18581 0
M  V30 509 H 49.4572 5.3707 -1.13343 0
M  V30 510 H 49.7182 4.40986 0.313681 0
M  V30 511 N 48.7773 0.814389 1.34928 0
M  V30 512 C 50.1883 0.458364 1.80986 0
M  V30 513 C 50.5393 -1.02042 1.67577 0
M  V30 514 O 49.6643 -1.79352 1.21086 0
M  V30 515 C 50.2593 0.825212 3.28597 0
M  V30 516 C 48.8183 0.521677 3.72767 0
M  V30 517 C 47.9653 1.04668 2.56788 0
M  V30 518 H 50.9163 1.00533 1.22795 0
M  V30 519 H 50.9373 0.12571 3.80292 0
M  V30 520 H 50.4493 1.90154 3.38324 0
M  V30 521 H 48.5503 -0.545589 3.68584 0
M  V30 522 H 48.6633 1.05977 4.67232 0
M  V30 523 H 47.0273 0.468622 2.50352 0
M  V30 524 H 47.8103 2.12927 2.6929 0
M  V30 525 N 50.2554 -1.46986 0.568584 0
M  V30 526 C 51.5324 -1.95592 -0.0174074 0
M  V30 527 C 51.9124 -1.51124 -1.47393 0
M  V30 528 O 51.2604 -0.755329 -2.15655 0
M  V30 529 C 51.4704 -3.48719 0.139913 0
M  V30 530 C 52.8184 -4.246 0.000426376 0
M  V30 531 O 53.8424 -3.56135 0.0680316 0
M  V30 532 O 52.7014 -5.46302 -0.146988 0
M  V30 533 H 49.7954 -0.82498 -0.0577599 0
M  V30 534 H 52.3414 -1.57335 0.635909 0
M  V30 535 H 51.1134 -3.73927 1.15301 0
M  V30 536 H 50.7364 -3.93771 -0.550491 0
M  V30 537 N 51.7335 -0.305618 -1.54608 0
M  V30 538 C 52.9815 0.301701 -1.99835 0
M  V30 539 C 53.3025 1.54054 -1.19551 0
M  V30 540 O 52.5725 1.93702 -0.292658 0
M  V30 541 H 51.1525 0.114468 -0.738178 0
M  V30 542 H 53.8145 -0.418016 -1.90364 0
M  V30 543 H 52.9105 0.570548 -3.06841 0
M  V30 544 N 53.2116 1.57565 -0.0334293 0
M  V30 545 C 54.4576 1.92262 0.645226 0
M  V30 546 C 54.7906 0.910543 1.71531 0
M  V30 547 O 54.0656 -0.066099 1.94388 0
M  V30 548 C 54.3486 3.37422 1.2577 0
M  V30 549 C 54.2016 4.49369 0.196891 0
M  V30 550 C 55.5206 3.82628 2.17449 0
M  V30 551 H 52.6396 0.699171 0.233085 0
M  V30 552 H 55.2816 1.89779 -0.0915694 0
M  V30 553 H 53.4316 3.39669 1.88566 0
M  V30 554 H 55.1036 4.59254 -0.433962 0
M  V30 555 H 53.3466 4.31168 -0.477137 0
M  V30 556 H 54.0176 5.47978 0.665124 0
M  V30 557 H 56.4936 3.82145 1.64634 0
M  V30 558 H 55.3696 4.84883 2.57254 0
M  V30 559 H 55.6306 3.18376 3.0674 0
M  V30 560 N 54.6897 -0.239769 1.55765 0
M  V30 561 C 55.6197 -1.30052 1.9393 0
M  V30 562 C 56.6007 -1.49839 0.805132 0
M  V30 563 O 57.7857 -1.62328 1.06599 0
M  V30 564 C 54.9157 -2.65391 2.2402 0
M  V30 565 C 53.8697 -2.60289 3.39755 0
M  V30 566 C 53.1957 -3.99489 3.55405 0
M  V30 567 C 54.4957 -2.16654 4.75246 0
M  V30 568 H 56.1897 -0.983573 2.82783 0
M  V30 569 H 53.7357 -0.471701 1.36055 0
M  V30 570 H 55.6887 -3.3974 2.49308 0
M  V30 571 H 54.4127 -2.98736 1.32 0
M  V30 572 H 53.0717 -1.88398 3.14487 0
M  V30 573 H 52.7197 -4.30112 2.60793 0
M  V30 574 H 52.4197 -3.96962 4.33238 0
M  V30 575 H 53.9437 -4.75528 3.83022 0
M  V30 576 H 55.3577 -2.80737 4.99859 0
M  V30 577 H 53.7547 -2.25223 5.56232 0
M  V30 578 H 54.8247 -1.11835 4.71827 0
M  V30 579 N 56.1678 -1.49265 -0.50573 0
M  V30 580 C 57.1148 -1.65585 -1.6078 0
M  V30 581 C 58.0848 -0.497396 -1.58478 0
M  V30 582 O 59.2698 -0.72385 -1.76536 0
M  V30 583 C 56.4098 -1.72408 -2.98948 0
M  V30 584 C 55.5228 -2.99525 -3.11301 0
M  V30 585 C 54.6578 -2.97356 -4.40174 0
M  V30 586 C 53.6968 -4.19074 -4.46143 0
M  V30 587 N 52.8338 -4.14841 -5.66437 0
M  V30 588 H 57.6738 -2.59688 -1.46172 0
M  V30 589 H 55.2108 -1.28761 -0.711261 0
M  V30 590 H 57.1688 -1.74344 -3.79025 0
M  V30 591 H 55.7988 -0.817753 -3.1227 0
M  V30 592 H 54.8508 -3.07222 -2.24318 0
M  V30 593 H 56.1628 -3.89518 -3.11572 0
M  V30 594 H 55.3168 -2.97829 -5.28567 0
M  V30 595 H 54.0558 -2.05133 -4.42461 0
M  V30 596 H 53.0608 -4.1885 -3.56153 0
M  V30 597 H 54.2858 -5.12483 -4.45575 0
M  V30 598 H 52.2318 -3.25453 -5.69575 0
M  V30 599 H 52.1488 -4.98564 -5.68304 0
M  V30 600 H 53.4168 -4.1941 -6.57051 0
M  V30 601 N 57.6459 0.756429 -1.3826 0
M  V30 602 C 58.8949 1.51082 -1.3363 0
M  V30 603 C 59.2079 1.95467 0.0720068 0
M  V30 604 O 60.4139 2.7043 0.240834 0
M  V30 605 C 58.8699 2.72893 -2.34644 0
M  V30 606 C 58.4779 2.35544 -3.81081 0
M  V30 607 C 60.2219 3.50791 -2.39052 0
M  V30 608 C 58.1289 3.53948 -4.73787 0
M  V30 609 H 57.0589 0.56727 -0.49671 0
M  V30 610 H 59.7099 0.827147 -1.638 0
M  V30 611 H 58.0919 3.43227 -1.97513 0
M  V30 612 H 59.2659 1.72894 -4.27135 0
M  V30 613 H 57.5809 1.70786 -3.79764 0
M  V30 614 H 60.1779 4.38823 -3.05513 0
M  V30 615 H 60.5209 3.91745 -1.40861 0
M  V30 616 H 61.0539 2.87467 -2.74968 0
M  V30 617 H 57.7929 3.18064 -5.73163 0
M  V30 618 H 57.3129 4.15651 -4.32428 0
M  V30 619 H 58.9919 4.20566 -4.91663 0
M  V30 620 N 59.124 1.23083 0.984299 0
M  V30 621 C 60.401 0.9689 1.69917 0
M  V30 622 C 60.781 -0.513604 2.04757 0
M  V30 623 O 60.129 -1.48383 1.73767 0
M  V30 624 C 60.339 1.87518 2.94343 0
M  V30 625 C 61.687 2.13636 3.6694 0
M  V30 626 O 62.711 1.85036 3.04368 0
M  V30 627 O 61.57 2.62119 4.79537 0
M  V30 628 H 58.664 0.365095 0.742048 0
M  V30 629 H 61.21 1.34107 1.03987 0
M  V30 630 H 59.982 2.87756 2.65164 0
M  V30 631 H 59.605 1.50514 3.6801 0
M  V30 632 N 60.6021 -1.18246 1.0419 0
M  V30 633 C 61.5321 -2.24127 0.654914 0
M  V30 634 C 62.5131 -1.66617 -0.342451 0
M  V30 635 O 63.6981 -1.92924 -0.222277 0
M  V30 636 C 60.8281 -3.47295 0.0183757 0
M  V30 637 C 59.7821 -4.17563 0.939414 0
M  V30 638 C 59.1081 -5.34438 0.167286 0
M  V30 639 C 60.4081 -4.70917 2.25908 0
M  V30 640 H 62.1021 -2.56753 1.54007 0
M  V30 641 H 59.6481 -1.23414 0.74195 0
M  V30 642 H 61.6011 -4.20572 -0.264082 0
M  V30 643 H 60.3251 -3.13907 -0.901664 0
M  V30 644 H 58.9841 -3.46186 1.20628 0
M  V30 645 H 58.6321 -4.97298 -0.7552 0
M  V30 646 H 58.3321 -5.82388 0.780901 0
M  V30 647 H 59.8561 -6.10504 -0.108125 0
M  V30 648 H 61.2701 -5.35882 2.03724 0
M  V30 649 H 59.6671 -5.29406 2.82577 0
M  V30 650 H 60.7371 -3.88272 2.9047 0
M  V30 651 N 62.0802 -0.821533 -1.34494 0
M  V30 652 C 63.3052 -0.420873 -2.03085 0
M  V30 653 C 63.7302 0.964915 -1.61465 0
M  V30 654 O 63.0882 1.62763 -0.798607 0
M  V30 655 C 63.1362 -0.529414 -3.56693 0
M  V30 656 O 62.2402 0.451302 -4.09923 0
M  V30 657 H 61.5812 -0.173489 -0.640935 0
M  V30 658 H 64.1112 -1.11157 -1.71771 0
M  V30 659 H 64.1212 -0.404671 -4.05988 0
M  V30 660 H 62.7962 -1.54014 -3.86332 0
M  V30 661 H 61.3732 0.285558 -3.71805 0
M  V30 662 N 63.5583 1.46682 -0.576371 0
M  V30 663 C 64.4883 2.33028 0.148397 0
M  V30 664 C 65.4693 1.44961 0.889956 0
M  V30 665 O 66.6543 1.73789 0.866662 0
M  V30 666 C 63.7843 3.27117 1.1667 0
M  V30 667 C 62.7383 4.24575 0.540386 0
M  V30 668 C 62.0643 5.08126 1.6647 0
M  V30 669 C 63.3643 5.19722 -0.518331 0
M  V30 670 H 65.0583 2.93875 -0.572509 0
M  V30 671 H 62.6043 1.41315 -0.276768 0
M  V30 672 H 64.5573 3.86374 1.68204 0
M  V30 673 H 63.2813 2.64364 1.9178 0
M  V30 674 H 61.9403 3.66571 0.0461769 0
M  V30 675 H 61.5883 4.41762 2.40531 0
M  V30 676 H 61.2883 5.74122 1.25131 0
M  V30 677 H 62.8123 5.70246 2.18293 0
M  V30 678 H 64.2263 5.73232 -0.0883058 0
M  V30 679 H 62.6233 5.94026 -0.851679 0
M  V30 680 H 63.6933 4.64037 -1.40703 0
M  V30 681 N 65.0364 0.313813 1.54444 0
M  V30 682 C 65.9834 -0.55655 2.23989 0
M  V30 683 C 66.9534 -1.11943 1.22711 0
M  V30 684 O 68.1384 -1.16158 1.51367 0
M  V30 685 C 65.2784 -1.71635 2.99392 0
M  V30 686 C 64.3914 -1.18364 4.15468 0
M  V30 687 C 63.5264 -2.30834 4.78424 0
M  V30 688 C 62.5654 -1.74762 5.86622 0
M  V30 689 N 61.7024 -2.80855 6.43479 0
M  V30 690 H 66.5424 0.0430893 2.97969 0
M  V30 691 H 64.0794 0.0330359 1.47063 0
M  V30 692 H 66.0374 -2.39868 3.41349 0
M  V30 693 H 64.6674 -2.28742 2.27765 0
M  V30 694 H 63.7194 -0.393163 3.78363 0
M  V30 695 H 65.0314 -0.733262 4.93381 0
M  V30 696 H 64.1854 -3.0699 5.23299 0
M  V30 697 H 62.9244 -2.79204 3.99871 0
M  V30 698 H 61.9294 -0.970995 5.41158 0
M  V30 699 H 63.1544 -1.2728 6.67066 0
M  V30 700 H 61.1004 -3.28535 5.67804 0
M  V30 701 H 61.0174 -2.40351 7.16776 0
M  V30 702 H 62.2854 -3.5687 6.93011 0
M  V30 703 N 66.5145 -1.57545 0.0417849 0
M  V30 704 C 67.9255 -1.80011 -0.495259 0
M  V30 705 C 68.2765 -0.953199 -1.71489 0
M  V30 706 O 67.4015 -0.167138 -2.15754 0
M  V30 707 C 67.9965 -3.26482 -0.905265 0
M  V30 708 C 66.5555 -3.499 -1.38734 0
M  V30 709 C 65.7025 -2.74979 -0.358056 0
M  V30 710 H 68.6535 -1.56425 0.267736 0
M  V30 711 H 68.6745 -3.36887 -1.76882 0
M  V30 712 H 68.1865 -3.88096 -0.017401 0
M  V30 713 H 66.2875 -2.93553 -2.29471 0
M  V30 714 H 66.4005 -4.58615 -1.38598 0
M  V30 715 H 64.7645 -2.40834 -0.828912 0
M  V30 716 H 65.5475 -3.39315 0.521561 0
M  V30 717 N 67.9926 0.231505 -1.5589 0
M  V30 718 C 69.2406 0.955461 -1.78088 0
M  V30 719 C 69.5616 1.85262 -0.608533 0
M  V30 720 O 68.8316 1.92277 0.375035 0
M  V30 721 H 67.4116 0.355787 -0.656829 0
M  V30 722 H 70.0736 0.245751 -1.93344 0
M  V30 723 H 69.1696 1.56814 -2.69844 0
M  V30 724 N 69.4707 1.49531 0.497807 0
M  V30 725 C 70.4007 1.6935 1.60757 0
M  V30 726 C 71.3817 0.542218 1.61227 0
M  V30 727 O 72.5667 0.778417 1.77917 0
M  V30 728 C 69.6967 1.76298 2.99226 0
M  V30 729 C 68.6507 2.91248 3.13622 0
M  V30 730 C 67.9767 2.83312 4.53474 0
M  V30 731 C 69.2767 4.3214 2.93346 0
M  V30 732 H 70.9707 2.62263 1.44425 0
M  V30 733 H 68.5167 1.26208 0.693367 0
M  V30 734 H 70.4697 1.88749 3.76765 0
M  V30 735 H 69.1937 0.799871 3.16654 0
M  V30 736 H 67.8527 2.78404 2.38509 0
M  V30 737 H 67.5007 1.84902 4.67782 0
M  V30 738 H 67.2007 3.60465 4.64046 0
M  V30 739 H 68.7247 2.97775 5.33069 0
M  V30 740 H 70.1387 4.45649 3.60652 0
M  V30 741 H 68.5357 5.1054 3.15387 0
M  V30 742 H 69.6057 4.46363 1.89441 0
M  V30 743 N 70.9488 -0.749086 1.3866 0
M  V30 744 C 72.3598 -1.32664 1.31366 0
M  V30 745 C 72.7108 -1.96179 -0.028484 0
M  V30 746 O 71.8358 -1.9537 -0.93057 0
M  V30 747 C 72.4308 -2.41219 2.37905 0
M  V30 748 C 70.9898 -2.94684 2.34176 0
M  V30 749 C 70.1368 -1.68108 2.20533 0
M  V30 750 H 73.0878 -0.547628 1.48952 0
M  V30 751 H 73.1088 -3.21268 2.0388 0
M  V30 752 H 72.6208 -1.94962 3.35576 0
M  V30 753 H 70.7218 -3.45258 1.401 0
M  V30 754 H 70.8348 -3.48757 3.2849 0
M  V30 755 H 69.1988 -1.91907 1.67463 0
M  V30 756 H 69.9818 -1.23923 3.20153 0
M  V30 757 N 72.4269 -1.23603 -0.977757 0
M  V30 758 C 73.3899 -1.02069 -2.05218 0
M  V30 759 C 74.3899 0.0184305 -1.60789 0
M  V30 760 O 75.5799 -0.221569 -1.72785 0
M  V30 761 C 72.7119 -0.544926 -3.36517 0
M  V30 762 H 73.9049 -1.9742 -2.25755 0
M  V30 763 H 71.4579 -1.05684 -1.15155 0
M  V30 764 H 72.1929 0.412241 -3.21669 0
M  V30 765 H 71.9779 -1.2948 -3.70105 0
M  V30 766 H 73.4679 -0.414985 -4.15533 0
M  V30 767 N 73.905 1.17692 -1.04816 0
M  V30 768 C 75.152 1.87859 -0.75599 0
M  V30 769 C 75.48 1.80812 0.716752 0
M  V30 770 O 74.735 1.20819 1.53952 0
M  V30 771 C 75.034 3.37462 -1.17703 0
M  V30 772 C 74.7 3.64713 -2.65133 0
M  V30 773 C 73.362 3.71859 -3.05408 0
M  V30 774 C 75.714 3.76492 -3.60421 0
M  V30 775 C 73.042 3.88271 -4.39843 0
M  V30 776 C 75.394 3.94421 -4.94585 0
M  V30 777 C 74.058 3.99806 -5.3452 0
M  V30 778 H 73.328 0.687425 -0.276636 0
M  V30 779 H 75.975 1.39255 -1.31455 0
M  V30 780 H 74.28 3.88097 -0.537395 0
M  V30 781 H 75.977 3.90109 -0.928218 0
M  V30 782 H 72.567 3.59772 -2.32942 0
M  V30 783 H 76.751 3.70295 -3.30447 0
M  V30 784 H 72.007 3.90687 -4.70291 0
M  V30 785 H 76.181 4.02477 -5.68318 0
M  V30 786 H 73.808 4.12276 -6.38696 0
M  V30 787 N 75.3831 0.828654 1.34056 0
M  V30 788 C 76.3151 0.212052 2.28217 0
M  V30 789 C 77.3281 -0.601362 1.51286 0
M  V30 790 O 78.5171 -0.430104 1.73241 0
M  V30 791 C 75.6171 -0.72088 3.31144 0
M  V30 792 C 74.7901 0.0509587 4.3737 0
M  V30 793 C 73.8491 -0.803766 5.20025 0
M  V30 794 O 72.8751 -0.246667 5.68665 0
M  V30 795 N 74.0771 -2.1227 5.40298 0
M  V30 796 H 76.8421 1.02105 2.81771 0
M  V30 797 H 74.4031 0.686153 1.46641 0
M  V30 798 H 76.3951 -1.29742 3.8334 0
M  V30 799 H 74.9651 -1.43061 2.77943 0
M  V30 800 H 74.1851 0.808831 3.85813 0
M  V30 801 H 75.4731 0.582065 5.0546 0
M  V30 802 H 74.8711 -2.59898 5.02464 0
M  V30 803 H 73.4281 -2.64796 5.95589 0
M  V30 804 N 76.8612 -1.46375 0.584142 0
M  V30 805 C 78.1382 -1.956 0.0033388 0
M  V30 806 C 78.5182 -1.52679 -1.45782 0
M  V30 807 O 77.8662 -0.77816 -2.14842 0
M  V30 808 C 78.0762 -3.48551 0.176891 0
M  V30 809 C 79.4242 -4.24576 0.0454609 0
M  V30 810 O 80.4482 -3.56043 0.105801 0
M  V30 811 O 79.3072 -5.46427 -0.0890376 0
M  V30 812 H 76.4012 -0.825547 -0.0490066 0
M  V30 813 H 78.9472 -1.56652 0.65256 0
M  V30 814 H 77.7192 -3.72683 1.1926 0
M  V30 815 H 77.3422 -3.94332 -0.508695 0
M  V30 816 N 78.3393 -0.321999 -1.54275 0
M  V30 817 C 79.5673 0.283052 -2.04955 0
M  V30 818 C 79.9823 1.45904 -1.19823 0
M  V30 819 O 79.3393 1.81063 -0.228545 0
M  V30 820 C 79.3903 0.719028 -3.54277 0
M  V30 821 O 79.1113 -0.410175 -4.36176 0
M  V30 822 C 80.6123 1.38705 -4.21041 0
M  V30 823 H 77.8323 0.0584616 -0.668448 0
M  V30 824 H 80.3763 -0.467734 -1.99079 0
M  V30 825 H 78.5313 1.41979 -3.60445 0
M  V30 826 H 78.9453 -0.0669416 -5.24457 0
M  V30 827 H 80.4193 1.64306 -5.2698 0
M  V30 828 H 80.8963 2.33385 -3.72059 0
M  V30 829 H 81.5023 0.728906 -4.19007 0
M  V30 830 N 79.8174 1.5752 -0.0501392 0
M  V30 831 C 80.7804 2.1037 0.909786 0
M  V30 832 C 81.7804 1.02308 1.24056 0
M  V30 833 O 82.9704 1.28385 1.17741 0
M  V30 834 C 80.1024 2.58708 2.21998 0
M  V30 835 H 81.2954 2.96479 0.451665 0
M  V30 836 H 78.8484 1.55038 0.198248 0
M  V30 837 H 79.5834 1.75989 2.72394 0
M  V30 838 H 79.3684 3.37675 1.99295 0
M  V30 839 H 80.8584 2.99747 2.9076 0
M  V30 840 N 81.2955 -0.223234 1.56011 0
M  V30 841 C 82.2585 -1.26014 1.9145 0
M  V30 842 C 83.2585 -1.3989 0.792937 0
M  V30 843 O 84.4485 -1.38184 1.0607 0
M  V30 844 C 81.5805 -2.63422 2.16383 0
M  V30 845 H 82.7735 -0.95796 2.84189 0
M  V30 846 H 80.3265 -0.463576 1.49267 0
M  V30 847 H 81.0615 -2.98741 1.2619 0
M  V30 848 H 80.8465 -2.54728 2.98088 0
M  V30 849 H 82.3365 -3.38249 2.44903 0
M  V30 850 N 82.7736 -1.49793 -0.48987 0
M  V30 851 C 84.0196 -1.60078 -1.24511 0
M  V30 852 C 84.3526 -0.291608 -1.91998 0
M  V30 853 O 83.6276 0.705647 -1.81248 0
M  V30 854 C 83.9106 -2.76791 -2.30345 0
M  V30 855 C 83.7636 -4.17535 -1.67286 0
M  V30 856 C 85.0826 -2.89111 -3.31817 0
M  V30 857 H 82.2016 -0.582645 -0.451324 0
M  V30 858 H 84.8436 -1.82117 -0.541612 0
M  V30 859 H 82.9936 -2.5813 -2.90346 0
M  V30 860 H 84.6656 -4.4774 -1.11026 0
M  V30 861 H 82.9086 -4.22665 -0.976577 0
M  V30 862 H 83.5796 -4.95094 -2.44103 0
M  V30 863 H 86.0556 -3.06133 -2.81819 0
M  V30 864 H 84.9316 -3.72433 -4.03219 0
M  V30 865 H 85.1926 -1.9893 -3.94815 0
M  V30 866 N 84.2517 0.741722 -1.39055 0
M  V30 867 C 85.1817 1.869 -1.39966 0
M  V30 868 C 86.1627 1.6804 -0.26392 0
M  V30 869 O 87.3477 1.88458 -0.468755 0
M  V30 870 C 84.4777 3.24572 -1.23574 0
M  V30 871 C 83.4317 3.58056 -2.34477 0
M  V30 872 C 82.7577 4.94593 -2.0318 0
M  V30 873 C 84.0577 3.61716 -3.76774 0
M  V30 874 H 85.7517 1.86395 -2.34302 0
M  V30 875 H 83.2977 0.895361 -1.1278 0
M  V30 876 H 85.2507 4.031 -1.22834 0
M  V30 877 H 83.9747 3.25587 -0.257045 0
M  V30 878 H 82.6337 2.81854 -2.34423 0
M  V30 879 H 82.2817 4.92181 -1.03765 0
M  V30 880 H 81.9817 5.17964 -2.77465 0
M  V30 881 H 83.5057 5.75486 -2.04079 0
M  V30 882 H 84.9197 4.30335 -3.78794 0
M  V30 883 H 83.3167 3.96603 -4.50362 0
M  V30 884 H 84.3867 2.61672 -4.08235 0
M  V30 885 N 85.7298 1.2412 0.971189 0
M  V30 886 C 86.6928 1.03156 2.04674 0
M  V30 887 C 87.6928 -0.00990322 1.60797 0
M  V30 888 O 88.8828 0.230729 1.72665 0
M  V30 889 C 86.0148 0.562765 3.36223 0
M  V30 890 H 87.2078 1.98614 2.24705 0
M  V30 891 H 84.7608 1.06293 1.14593 0
M  V30 892 H 85.4958 -0.395176 3.21883 0
M  V30 893 H 85.2808 1.31441 3.69413 0
M  V30 894 H 86.7708 0.437015 4.15307 0
M  V30 895 N 87.2079 -1.17134 1.05439 0
M  V30 896 C 88.1179 -2.24878 0.668365 0
M  V30 897 C 89.1339 -1.71186 -0.311687 0
M  V30 898 O 90.3099 -2.00738 -0.163161 0
M  V30 899 C 87.3749 -3.46662 0.051648 0
M  V30 900 C 86.4359 -4.15429 1.08246 0
M  V30 901 C 85.6689 -5.31399 0.495082 0
M  V30 902 O 85.8919 -5.66153 -0.694743 0
M  V30 903 O 84.8259 -5.89187 1.23056 0
M  V30 904 H 88.6519 -2.60189 1.56637 0
M  V30 905 H 86.2369 -1.24482 0.826104 0
M  V30 906 H 88.1189 -4.20394 -0.290966 0
M  V30 907 H 86.7939 -3.13142 -0.819971 0
M  V30 908 H 85.7009 -3.43704 1.47711 0
M  V30 909 H 87.0339 -4.52982 1.92532 0
M  V30 910 N 88.686 -0.835752 -1.33615 0
M  V30 911 C 89.596 -0.269088 -2.33052 0
M  V30 912 C 90.612 0.603251 -1.63208 0
M  V30 913 O 91.788 0.508112 -1.94885 0
M  V30 914 C 88.853 0.549091 -3.42324 0
M  V30 915 C 87.914 -0.347156 -4.27894 0
M  V30 916 C 87.147 0.43207 -5.31948 0
M  V30 917 O 87.37 1.66409 -5.45586 0
M  V30 918 O 86.304 -0.192298 -6.01593 0
M  V30 919 H 90.13 -1.09243 -2.83372 0
M  V30 920 H 87.715 -0.598198 -1.36901 0
M  V30 921 H 89.597 1.01414 -4.09015 0
M  V30 922 H 88.272 1.34955 -2.94226 0
M  V30 923 H 87.179 -0.859979 -3.64081 0
M  V30 924 H 88.512 -1.1123 -4.79467 0
M  V30 925 N 90.1641 1.46063 -0.591896 0
M  V30 926 C 91.0971 2.27452 0.184617 0
M  V30 927 C 92.0751 1.36188 0.888351 0
M  V30 928 O 93.2591 1.65606 0.90039 0
M  V30 929 C 90.3861 3.14162 1.26571 0
M  V30 930 C 89.4321 4.21255 0.666814 0
M  V30 931 S 90.2651 5.33034 -0.513345 0
M  V30 932 C 91.4211 6.23311 0.56872 0
M  V30 933 H 91.6541 2.92963 -0.505939 0
M  V30 934 H 89.1871 1.49676 -0.379014 0
M  V30 935 H 91.1451 3.6468 1.88463 0
M  V30 936 H 89.8061 2.47946 1.92826 0
M  V30 937 H 88.9991 4.81788 1.47974 0
M  V30 938 H 88.6011 3.73797 0.123359 0
M  V30 939 H 90.8931 6.61758 1.45198 0
M  V30 940 H 91.8361 7.081 -7.23824e-05 0
M  V30 941 H 92.2441 5.57646 0.876996 0
M  V30 942 N 91.6422 0.330177 1.54103 0
M  V30 943 C 92.6052 -0.520144 2.2322 0
M  V30 944 C 93.6052 -1.03828 1.22786 0
M  V30 945 O 94.7952 -0.929652 1.4732 0
M  V30 946 C 91.9272 -1.72317 2.94142 0
M  V30 947 H 93.1202 0.0841605 2.99782 0
M  V30 948 H 90.6732 0.0813433 1.56088 0
M  V30 949 H 91.4082 -2.36653 2.21734 0
M  V30 950 H 91.1932 -1.35898 3.67796 0
M  V30 951 H 92.6832 -2.3266 3.46784 0
M  V30 952 N 93.1203 -1.57491 0.0584922 0
M  V30 953 C 94.3663 -1.93264 -0.614558 0
M  V30 954 C 94.6993 -0.937717 -1.7006 0
M  V30 955 O 93.9743 0.0351652 -1.94468 0
M  V30 956 C 94.2573 -3.3938 -1.20386 0
M  V30 957 C 94.1103 -4.49625 -0.125375 0
M  V30 958 C 95.4293 -3.86039 -2.11334 0
M  V30 959 H 92.5483 -0.702791 -0.221933 0
M  V30 960 H 95.1903 -1.8961 0.12175 0
M  V30 961 H 93.3403 -3.42626 -1.83139 0
M  V30 962 H 95.0123 -4.58506 0.506971 0
M  V30 963 H 93.2553 -4.30354 0.545672 0
M  V30 964 H 93.9263 -5.48967 -0.577861 0
M  V30 965 H 96.4023 -3.84716 -1.58534 0
M  V30 966 H 95.2783 -4.88914 -2.49507 0
M  V30 967 H 95.5393 -3.23215 -3.01636 0
M  V30 968 N 94.5984 0.214957 -1.56127 0
M  V30 969 C 95.5084 1.28727 -1.96129 0
M  V30 970 C 96.5244 1.50916 -0.866044 0
M  V30 971 O 97.7004 1.63918 -1.17016 0
M  V30 972 C 94.7654 2.61569 -2.27558 0
M  V30 973 C 93.8264 2.47625 -3.50685 0
M  V30 974 C 93.0594 3.74132 -3.80606 0
M  V30 975 O 93.2824 4.77438 -3.12104 0
M  V30 976 O 92.2164 3.70849 -4.74083 0
M  V30 977 H 96.0424 0.977855 -2.87527 0
M  V30 978 H 93.6274 0.418358 -1.43423 0
M  V30 979 H 95.5094 3.40012 -2.48938 0
M  V30 980 H 94.1844 2.92178 -1.39332 0
M  V30 981 H 93.0914 1.67361 -3.34576 0
M  V30 982 H 94.4244 2.21954 -4.39315 0
M  V30 983 N 96.0765 1.50051 0.48192 0
M  V30 984 C 97.0235 1.68122 1.58125 0
M  V30 985 C 97.9935 0.522545 1.57666 0
M  V30 986 O 99.1785 0.751844 1.75362 0
M  V30 987 C 96.3185 1.77142 2.96167 0
M  V30 988 C 95.4315 3.0444 3.06497 0
M  V30 989 C 94.5665 3.04321 4.35387 0
M  V30 990 C 93.6055 4.26118 4.3942 0
M  V30 991 N 92.7425 4.238 5.59766 0
M  V30 992 H 97.5825 2.6198 1.42022 0
M  V30 993 H 95.1195 1.29877 0.690687 0
M  V30 994 H 97.0775 1.80352 3.76203 0
M  V30 995 H 95.7075 0.867329 3.1093 0
M  V30 996 H 94.7595 3.10752 2.19402 0
M  V30 997 H 96.0715 3.94426 3.05336 0
M  V30 998 H 95.2255 3.062 5.23762 0
M  V30 999 H 93.9645 2.12147 4.39141 0
M  V30 1000 H 92.9695 4.24463 3.49444 0
M  V30 1001 H 94.1945 5.19507 4.37366 0
M  V30 1002 H 92.1405 3.34474 5.64326 0
M  V30 1003 H 92.0575 5.07542 5.60301 0
M  V30 1004 H 93.3255 4.2981 6.50295 0
M  V30 1005 N 97.5546 -0.734337 1.39446 0
M  V30 1006 C 98.8006 -1.49613 1.36908 0
M  V30 1007 C 99.1336 -1.94169 -0.0347829 0
M  V30 1008 O 98.4086 -1.66833 -0.999847 0
M  V30 1009 C 98.6916 -2.73534 2.34203 0
M  V30 1010 C 98.5446 -2.34993 3.83534 0
M  V30 1011 C 99.8636 -3.75635 2.29317 0
M  V30 1012 H 96.9826 -0.542714 0.498629 0
M  V30 1013 H 99.6246 -0.839597 1.70443 0
M  V30 1014 H 97.7746 -3.29553 2.05736 0
M  V30 1015 H 99.4466 -1.84601 4.22753 0
M  V30 1016 H 97.6896 -1.67213 4.00278 0
M  V30 1017 H 98.3606 -3.23738 4.47099 0
M  V30 1018 H 100.837 -3.29203 2.54489 0
M  V30 1019 H 99.7126 -4.60008 2.99472 0
M  V30 1020 H 99.9736 -4.22603 1.29842 0
M  V30 1021 N 99.0327 -1.24633 -0.964593 0
M  V30 1022 C 100.282 -1.08188 -1.7023 0
M  V30 1023 C 100.595 0.37873 -1.91898 0
M  V30 1024 O 101.801 0.663427 -2.6327 0
M  V30 1025 C 100.257 -1.88773 -3.06419 0
M  V30 1026 C 99.8647 -3.39263 -2.92582 0
M  V30 1027 C 101.609 -1.80867 -3.84041 0
M  V30 1028 C 99.5157 -4.1218 -4.24101 0
M  V30 1029 H 98.4457 -0.401245 -0.638372 0
M  V30 1030 H 101.097 -1.48742 -1.07462 0
M  V30 1031 H 99.4787 -1.41035 -3.70034 0
M  V30 1032 H 100.653 -3.94603 -2.37961 0
M  V30 1033 H 98.9677 -3.48154 -2.28424 0
M  V30 1034 H 101.565 -2.32646 -4.81435 0
M  V30 1035 H 101.908 -0.774543 -4.09031 0
M  V30 1036 H 102.441 -2.26301 -3.27159 0
M  V30 1037 H 99.1797 -5.15965 -4.04303 0
M  V30 1038 H 98.6997 -3.61626 -4.78526 0
M  V30 1039 H 100.379 -4.19349 -4.92702 0
M  V30 1040 N 100.511 1.16574 -1.06058 0
M  V30 1041 C 101.474 2.19085 -0.673392 0
M  V30 1042 C 102.474 1.5835 0.279648 0
M  V30 1043 O 103.664 1.74088 0.0623488 0
M  V30 1044 C 100.796 3.40899 0.00954234 0
M  V30 1045 H 101.989 2.54853 -1.58081 0
M  V30 1046 H 99.5418 1.30808 -0.855516 0
M  V30 1047 H 100.277 3.10684 0.929826 0
M  V30 1048 H 100.062 3.86233 -0.67573 0
M  V30 1049 H 101.552 4.1675 0.266245 0
M  V30 1050 N 101.989 0.842826 1.3317 0
M  V30 1051 C 102.952 0.284065 2.27433 0
M  V30 1052 C 103.952 -0.54948 1.5112 0
M  V30 1053 O 105.142 -0.362699 1.70382 0
M  V30 1054 C 102.274 -0.599384 3.35589 0
M  V30 1055 H 103.467 1.11589 2.78366 0
M  V30 1056 H 101.02 0.616221 1.4364 0
M  V30 1057 H 101.755 -1.45349 2.89904 0
M  V30 1058 H 101.54 -0.00291266 3.921 0
M  V30 1059 H 103.03 -0.983488 4.05854 0
M  V30 1060 N 103.467 -1.45747 0.599634 0
M  V30 1061 C 104.43 -2.28917 -0.113835 0
M  V30 1062 C 105.43 -1.3933 -0.802729 0
M  V30 1063 O 106.62 -1.61534 -0.652103 0
M  V30 1064 C 103.752 -3.20152 -1.17114 0
M  V30 1065 H 104.945 -2.93478 0.617289 0
M  V30 1066 H 102.498 -1.52137 0.358327 0
M  V30 1067 H 103.233 -2.60374 -1.93329 0
M  V30 1068 H 103.018 -3.86133 -0.681468 0
M  V30 1069 H 104.508 -3.82708 -1.67105 0
M  V30 1070 N 104.945 -0.338344 -1.53925 0
M  V30 1071 C 105.855 0.529421 -2.28548 0
M  V30 1072 C 106.871 1.11645 -1.3346 0
M  V30 1073 O 108.047 1.13325 -1.66492 0
M  V30 1074 C 105.112 1.66713 -3.03987 0
M  V30 1075 C 104.173 1.11041 -4.14691 0
M  V30 1076 C 103.406 2.19389 -4.86522 0
M  V30 1077 O 103.629 3.40013 -4.57982 0
M  V30 1078 O 102.563 1.83976 -5.73094 0
M  V30 1079 H 106.389 -0.0770399 -3.03602 0
M  V30 1080 H 103.974 -0.103555 -1.49041 0
M  V30 1081 H 105.856 2.32918 -3.5118 0
M  V30 1082 H 104.531 2.25949 -2.31794 0
M  V30 1083 H 103.438 0.413024 -3.71813 0
M  V30 1084 H 104.771 0.562975 -4.8897 0
M  V30 1085 N 106.423 1.57458 -0.0668435 0
M  V30 1086 C 107.672 1.92477 0.602947 0
M  V30 1087 C 107.985 0.948419 1.71068 0
M  V30 1088 O 109.191 1.19124 2.43971 0
M  V30 1089 C 107.647 3.41903 1.12383 0
M  V30 1090 C 107.255 4.47975 0.04737 0
M  V30 1091 C 108.999 3.85931 1.76797 0
M  V30 1092 C 106.906 5.88529 0.582022 0
M  V30 1093 H 105.836 0.718387 0.22899 0
M  V30 1094 H 108.487 1.82978 -0.138276 0
M  V30 1095 H 106.869 3.46459 1.91787 0
M  V30 1096 H 108.043 4.55029 -0.726978 0
M  V30 1097 H 106.358 4.13384 -0.500243 0
M  V30 1098 H 108.955 4.88322 2.17821 0
M  V30 1099 H 109.298 3.23029 2.62599 0
M  V30 1100 H 109.831 3.83958 1.04024 0
M  V30 1101 H 106.57 6.55065 -0.238721 0
M  V30 1102 H 106.09 5.85004 1.324 0
M  V30 1103 H 107.769 6.38258 1.05999 0
M  V30 1104 N 107.901 -0.206675 1.56239 0
M  V30 1105 C 108.848 -1.25617 1.93621 0
M  V30 1106 C 109.818 -1.45824 0.795274 0
M  V30 1107 O 111.003 -1.59148 1.05245 0
M  V30 1108 C 108.143 -2.59839 2.27107 0
M  V30 1109 C 107.256 -2.47308 3.54207 0
M  V30 1110 C 106.391 -3.74155 3.7707 0
M  V30 1111 C 105.43 -3.56407 4.97635 0
M  V30 1112 N 104.567 -4.75238 5.1681 0
M  V30 1113 H 109.407 -0.930383 2.83104 0
M  V30 1114 H 106.944 -0.448065 1.4011 0
M  V30 1115 H 108.902 -3.38021 2.44535 0
M  V30 1116 H 107.532 -2.90485 1.40778 0
M  V30 1117 H 106.584 -1.60483 3.4489 0
M  V30 1118 H 107.896 -2.30122 4.42544 0
M  V30 1119 H 107.05 -4.60778 3.94675 0
M  V30 1120 H 105.789 -3.94282 2.87042 0
M  V30 1121 H 104.794 -2.68168 4.79964 0
M  V30 1122 H 106.019 -3.37736 5.89161 0
M  V30 1123 H 103.965 -4.95651 4.29728 0
M  V30 1124 H 103.882 -4.60835 5.99306 0
M  V30 1125 H 105.15 -5.63246 5.38864 0
M  V30 1126 N 109.379 -1.50304 -0.473955 0
M  V30 1127 C 110.342 -1.6841 -1.55469 0
M  V30 1128 C 111.342 -0.554905 -1.50922 0
M  V30 1129 O 112.532 -0.821882 -1.53593 0
M  V30 1130 C 109.664 -1.70667 -2.95102 0
M  V30 1131 H 110.857 -2.64828 -1.40733 0
M  V30 1132 H 108.41 -1.39742 -0.700132 0
M  V30 1133 H 109.145 -0.75932 -3.15285 0
M  V30 1134 H 108.93 -2.52698 -2.9981 0
M  V30 1135 H 110.42 -1.8664 -3.73571 0
M  V30 1136 N 110.857 0.726932 -1.39834 0
M  V30 1137 C 112.082 1.52121 -1.40976 0
M  V30 1138 C 112.507 1.88098 -0.00826029 0
M  V30 1139 O 111.865 1.52479 0.980807 0
M  V30 1140 C 111.913 2.78021 -2.29644 0
M  V30 1141 O 111.017 3.74272 -1.73188 0
M  V30 1142 H 110.358 0.45908 -0.479731 0
M  V30 1143 H 112.888 0.896207 -1.83927 0
M  V30 1144 H 112.898 3.26671 -2.44438 0
M  V30 1145 H 111.573 2.51169 -3.31492 0
M  V30 1146 H 110.15 3.33073 -1.6768 0
M  V30 1147 N 112.336 1.25143 0.95797 0
M  V30 1148 C 113.284 1.05019 2.07542 0
M  V30 1149 C 114.278 -0.0178751 1.69391 0
M  V30 1150 O 115.484 0.137472 1.79474 0
M  V30 1151 H 111.859 0.32265 0.679265 0
M  V30 1152 H 113.83 1.99759 2.21673 0
M  V30 1153 C 112.579 0.682074 3.40944 0
M  V30 1154 H 111.902 1.49573 3.70767 0
M  V30 1155 H 113.342 0.580945 4.20001 0
M  V30 1156 C 111.801 -0.611608 3.31302 0
M  V30 1157 O 112.331 -1.65465 3.66038 0
M  V30 1158 N 110.537 -0.595982 2.84423 0
M  V30 1159 H 110.084 0.253192 2.56353 0
M  V30 1160 H 110.042 -1.46173 2.78354 0
M  V30 1161 N 113.814 -1.1601 1.06675 0
M  V30 1162 C 114.746 -2.20115 0.638921 0
M  V30 1163 C 115.759 -1.59916 -0.305057 0
M  V30 1164 O 116.948 -1.78245 -0.0954446 0
M  V30 1165 C 114.048 -3.38798 -0.0830083 0
M  V30 1166 C 113.221 -4.2855 0.875426 0
M  V30 1167 C 112.28 -5.25849 0.192042 0
M  V30 1168 O 111.306 -5.63102 0.830921 0
M  V30 1169 N 112.508 -5.70648 -1.06493 0
M  V30 1170 H 115.273 -2.57439 1.53444 0
M  V30 1171 H 112.834 -1.31057 0.950557 0
M  V30 1172 H 114.826 -4.00936 -0.550685 0
M  V30 1173 H 113.396 -2.99947 -0.880386 0
M  V30 1174 H 112.616 -3.63617 1.52238 0
M  V30 1175 H 113.904 -4.85393 1.52548 0
M  V30 1176 H 113.302 -5.42482 -1.60405 0
M  V30 1177 H 111.859 -6.34859 -1.47641 0
M  V30 1178 N 115.292 -0.849877 -1.32721 0
M  V30 1179 C 116.202 -0.293791 -2.32753 0
M  V30 1180 C 117.218 0.585906 -1.63839 0
M  V30 1181 O 118.394 0.487413 -1.95413 0
M  V30 1182 C 115.459 0.512752 -3.42887 0
M  V30 1183 C 114.52 -0.39252 -4.27502 0
M  V30 1184 C 113.753 0.375625 -5.32377 0
M  V30 1185 O 113.976 1.60613 -5.4732 0
M  V30 1186 O 112.91 -0.256094 -6.01355 0
M  V30 1187 H 116.736 -1.12242 -2.82197 0
M  V30 1188 H 114.321 -0.612685 -1.36259 0
M  V30 1189 H 116.203 0.970704 -4.10067 0
M  V30 1190 H 114.878 1.31826 -2.95641 0
M  V30 1191 H 113.785 -0.898547 -3.63149 0
M  V30 1192 H 115.118 -1.16309 -4.7826 0
M  V30 1193 N 116.77 1.45427 -0.607355 0
M  V30 1194 C 117.718 2.32269 0.12411 0
M  V30 1195 C 118.712 1.45955 0.859854 0
M  V30 1196 O 119.918 1.6244 0.775447 0
M  V30 1197 H 116.293 0.749691 0.0588839 0
M  V30 1198 H 118.264 2.91743 -0.626762 0
M  V30 1199 C 117.013 3.29567 1.1082 0
M  V30 1200 H 116.336 3.95978 0.551492 0
M  V30 1201 H 117.776 3.93061 1.58995 0
M  V30 1202 C 116.235 2.56722 2.18164 0
M  V30 1203 O 116.765 2.34842 3.25902 0
M  V30 1204 N 114.971 2.16861 1.93442 0
M  V30 1205 H 114.518 2.34855 1.05834 0
M  V30 1206 H 114.476 1.68444 2.65469 0
M  V30 1207 N 118.248 0.346503 1.53744 0
M  V30 1208 C 119.211 -0.496439 2.23759 0
M  V30 1209 C 120.211 -1.0252 1.2388 0
M  V30 1210 O 121.401 -0.913974 1.48297 0
M  V30 1211 C 118.533 -1.69187 2.95954 0
M  V30 1212 H 119.726 0.115952 2.99676 0
M  V30 1213 H 117.279 0.0978939 1.55993 0
M  V30 1214 H 118.014 -2.34288 2.24231 0
M  V30 1215 H 117.799 -1.31989 3.69217 0
M  V30 1216 H 119.289 -2.28969 3.49232 0
M  V30 1217 N 119.726 -1.57421 0.075193 0
M  V30 1218 C 120.673 -2.12915 -0.890843 0
M  V30 1219 C 121.643 -1.04252 -1.29309 0
M  V30 1220 O 122.828 -1.31933 -1.37834 0
M  V30 1221 C 119.968 -2.69795 -2.15186 0
M  V30 1222 C 119.081 -3.92624 -1.80194 0
M  V30 1223 C 118.216 -4.37736 -3.00933 0
M  V30 1224 C 117.255 -5.53205 -2.61974 0
M  V30 1225 N 116.392 -5.9326 -3.75483 0
M  V30 1226 H 121.232 -2.95156 -0.410735 0
M  V30 1227 H 118.769 -1.45854 -0.191086 0
M  V30 1228 H 120.727 -3.00883 -2.89008 0
M  V30 1229 H 119.357 -1.90313 -2.60731 0
M  V30 1230 H 118.409 -3.67977 -0.964218 0
M  V30 1231 H 119.721 -4.76482 -1.47534 0
M  V30 1232 H 118.875 -4.70503 -3.8303 0
M  V30 1233 H 117.614 -3.52739 -3.36789 0
M  V30 1234 H 116.619 -5.20086 -1.783 0
M  V30 1235 H 117.844 -6.39936 -2.27284 0
M  V30 1236 H 115.79 -5.11212 -4.11094 0
M  V30 1237 H 115.707 -6.71865 -3.46602 0
M  V30 1238 H 116.975 -6.30651 -4.58148 0
M  V30 1239 N 121.204 0.198386 -1.56346 0
M  V30 1240 C 122.451 0.919286 -1.80431 0
M  V30 1241 C 122.779 1.83393 -0.647866 0
M  V30 1242 O 122.034 1.92236 0.366556 0
M  V30 1243 C 122.333 1.77031 -3.10475 0
M  V30 1244 C 121.999 1.00693 -4.39513 0
M  V30 1245 C 120.661 0.796145 -4.74568 0
M  V30 1246 C 123.013 0.469559 -5.19081 0
M  V30 1247 C 120.341 0.0364588 -5.86689 0
M  V30 1248 C 122.693 -0.2769 -6.31994 0
M  V30 1249 C 121.357 -0.49873 -6.65634 0
M  V30 1250 H 120.627 0.336391 -0.660244 0
M  V30 1251 H 123.274 0.185872 -1.90596 0
M  V30 1252 H 121.579 2.5723 -2.95533 0
M  V30 1253 H 123.276 2.33065 -3.26315 0
M  V30 1254 H 119.866 1.18122 -4.12001 0
M  V30 1255 H 124.05 0.619816 -4.92414 0
M  V30 1256 H 119.306 -0.145412 -6.11227 0
M  V30 1257 H 123.48 -0.700684 -6.92866 0
M  V30 1258 H 121.107 -1.0893 -7.52355 0
M  V30 1259 N 122.682 1.50554 0.465978 0
M  V30 1260 C 123.612 1.72722 1.57128 0
M  V30 1261 C 124.593 0.576294 1.6004 0
M  V30 1262 O 125.778 0.81598 1.76225 0
M  V30 1263 C 122.908 1.82605 2.95419 0
M  V30 1264 C 121.862 2.97835 3.07373 0
M  V30 1265 C 121.188 2.92867 4.47363 0
M  V30 1266 C 122.488 4.38265 2.84114 0
M  V30 1267 H 124.182 2.65267 1.38829 0
M  V30 1268 H 121.728 1.2765 0.666441 0
M  V30 1269 H 123.681 1.96698 3.72677 0
M  V30 1270 H 122.405 0.866858 3.14886 0
M  V30 1271 H 121.064 2.83401 2.3255 0
M  V30 1272 H 120.712 1.94783 4.63755 0
M  V30 1273 H 120.412 3.70227 4.56296 0
M  V30 1274 H 121.936 3.09015 5.26633 0
M  V30 1275 H 123.35 4.53198 3.51118 0
M  V30 1276 H 121.747 5.17115 3.04487 0
M  V30 1277 H 122.817 4.50281 1.7993 0
M  V30 1278 N 124.16 -0.719506 1.40217 0
M  V30 1279 C 125.07 -1.86378 1.42479 0
M  V30 1280 C 126.086 -1.71073 0.317834 0
M  V30 1281 O 127.262 -1.93406 0.561794 0
M  V30 1282 C 124.327 -3.22136 1.28178 0
M  V30 1283 C 123.388 -3.49723 2.48982 0
M  V30 1284 C 122.621 -4.79004 2.35353 0
M  V30 1285 O 122.844 -5.53821 1.36524 0
M  V30 1286 O 121.778 -5.06839 3.2465 0
M  V30 1287 H 125.604 -1.87425 2.38968 0
M  V30 1288 H 123.189 -0.869405 1.21498 0
M  V30 1289 H 125.071 -4.03234 1.22395 0
M  V30 1290 H 123.746 -3.21825 0.347934 0
M  V30 1291 H 122.653 -2.6865 2.60342 0
M  V30 1292 H 123.986 -3.54828 3.41113 0
M  V30 1293 N 125.638 -1.25649 -0.95132 0
M  V30 1294 C 126.586 -1.06118 -2.06982 0
M  V30 1295 C 127.58 0.00889169 -1.69398 0
M  V30 1296 O 128.786 -0.146988 -1.79399 0
M  V30 1297 H 125.161 -0.326248 -0.677544 0
M  V30 1298 H 127.132 -2.00932 -2.2061 0
M  V30 1299 C 125.881 -0.700145 -3.40578 0
M  V30 1300 H 125.204 -1.51537 -3.69968 0
M  V30 1301 H 126.644 -0.603211 -4.19687 0
M  V30 1302 C 125.103 0.59403 -3.31622 0
M  V30 1303 O 125.633 1.63522 -3.66911 0
M  V30 1304 N 123.839 0.58089 -2.84735 0
M  V30 1305 H 123.386 -0.266783 -2.56215 0
M  V30 1306 H 123.344 1.44695 -2.79125 0
M  V30 1307 N 127.117 1.15442 -1.07289 0
M  V30 1308 C 128.047 2.22312 -0.714107 0
M  V30 1309 C 129.028 1.67467 0.298155 0
M  V30 1310 O 130.213 1.93445 0.171048 0
M  V30 1311 C 127.343 3.47124 -0.110448 0
M  V30 1312 C 126.297 4.14926 -1.04979 0
M  V30 1313 C 125.623 5.33807 -0.308924 0
M  V30 1314 C 126.923 4.64762 -2.38314 0
M  V30 1315 H 128.617 2.5258 -1.6076 0
M  V30 1316 H 126.163 1.21404 -0.77441 0
M  V30 1317 H 128.116 4.21124 0.152482 0
M  V30 1318 H 126.84 3.16187 0.81812 0
M  V30 1319 H 125.499 3.42866 -1.29764 0
M  V30 1320 H 125.147 4.99126 0.623084 0
M  V30 1321 H 124.847 5.80113 -0.935036 0
M  V30 1322 H 126.371 6.10576 -0.0537771 0
M  V30 1323 H 127.785 5.30292 -2.1786 0
M  V30 1324 H 126.182 5.21728 -2.96514 0
M  V30 1325 H 127.252 3.80434 -3.00663 0
M  V30 1326 N 128.595 0.856903 1.32268 0
M  V30 1327 C 129.842 0.461386 1.97174 0
M  V30 1328 C 130.17 -0.983491 1.67803 0
M  V30 1329 O 129.425 -1.70541 0.959903 0
M  V30 1330 C 129.724 0.649919 3.51441 0
M  V30 1331 C 129.39 2.0656 4.00804 0
M  V30 1332 C 128.052 2.45279 4.13995 0
M  V30 1333 C 130.404 2.98947 4.26943 0
M  V30 1334 C 127.732 3.75653 4.50668 0
M  V30 1335 C 130.084 4.28822 4.65075 0
M  V30 1336 C 128.748 4.67472 4.76472 0
M  V30 1337 H 128.018 0.168833 0.72151 0
M  V30 1338 H 130.665 1.08739 1.57633 0
M  V30 1339 H 128.97 -0.0593018 3.91755 0
M  V30 1340 H 130.667 0.32391 3.9969 0
M  V30 1341 H 127.257 1.75495 3.91024 0
M  V30 1342 H 131.441 2.70265 4.16258 0
M  V30 1343 H 126.697 4.05379 4.57688 0
M  V30 1344 H 130.871 5.0047 4.84255 0
M  V30 1345 H 128.498 5.68539 5.04646 0
M  V30 1346 N 130.073 -1.45103 0.615059 0
M  V30 1347 C 131.298 -2.07064 0.117988 0
M  V30 1348 C 131.723 -1.4554 -1.19163 0
M  V30 1349 O 131.081 -0.550855 -1.72729 0
M  V30 1350 C 131.129 -3.606 -0.000288387 0
M  V30 1351 O 130.233 -3.98847 -1.04856 0
M  V30 1352 H 129.574 -0.659467 0.0774581 0
M  V30 1353 H 132.104 -1.86236 0.847186 0
M  V30 1354 H 132.114 -4.07529 -0.196091 0
M  V30 1355 H 130.789 -4.04765 0.955932 0
M  V30 1356 H 129.366 -3.63577 -0.828619 0
M  V30 1357 N 131.551 -0.354651 -1.53558 0
M  V30 1358 C 132.461 0.50515 -2.29097 0
M  V30 1359 C 133.477 1.10223 -1.34636 0
M  V30 1360 O 134.653 1.11553 -1.67684 0
M  V30 1361 C 131.718 1.63479 -3.05738 0
M  V30 1362 C 130.779 1.06636 -4.15845 0
M  V30 1363 C 130.012 2.14217 -4.88822 0
M  V30 1364 O 130.235 3.35137 -4.61562 0
M  V30 1365 O 129.169 1.77887 -5.75013 0
M  V30 1366 H 132.995 -0.109237 -3.03503 0
M  V30 1367 H 130.58 -0.119357 -1.48922 0
M  V30 1368 H 132.462 2.2918 -3.5363 0
M  V30 1369 H 131.137 2.23478 -2.34178 0
M  V30 1370 H 130.044 0.373565 -3.7223 0
M  V30 1371 H 131.377 0.511081 -4.89539 0
M  V30 1372 N 133.029 1.57378 -0.0835403 0
M  V30 1373 C 133.961 2.10389 0.909338 0
M  V30 1374 C 134.974 1.03858 1.25369 0
M  V30 1375 O 136.163 1.31338 1.20882 0
M  V30 1376 C 133.263 2.55908 2.2218 0
M  V30 1377 C 132.436 3.86145 2.05453 0
M  V30 1378 C 131.495 4.17633 3.20108 0
M  V30 1379 O 130.521 4.87043 2.94581 0
M  V30 1380 N 131.723 3.72113 4.45547 0
M  V30 1381 H 134.488 2.962 0.456657 0
M  V30 1382 H 132.049 1.61579 0.101877 0
M  V30 1383 H 134.041 2.74027 2.97811 0
M  V30 1384 H 132.611 1.75171 2.58909 0
M  V30 1385 H 131.831 3.7729 1.1422 0
M  V30 1386 H 133.119 4.7137 1.91541 0
M  V30 1387 H 132.517 3.16062 4.69171 0
M  V30 1388 H 131.074 3.95409 5.18165 0
M  V30 1389 N 134.507 -0.190092 1.56449 0
M  V30 1390 C 135.417 -1.25591 1.98152 0
M  V30 1391 C 136.433 -1.49519 0.889944 0
M  V30 1392 O 137.609 -1.62036 1.19609 0
M  V30 1393 C 134.674 -2.57916 2.3169 0
M  V30 1394 C 133.735 -2.42015 3.5458 0
M  V30 1395 C 132.968 -3.6803 3.8651 0
M  V30 1396 O 133.191 -4.72413 3.1966 0
M  V30 1397 O 132.125 -3.6326 4.79923 0
M  V30 1398 H 135.951 -0.931988 2.89046 0
M  V30 1399 H 133.536 -0.395488 1.4407 0
M  V30 1400 H 135.418 -3.36008 2.54316 0
M  V30 1401 H 134.093 -2.89925 1.43963 0
M  V30 1402 H 133 -1.62017 3.37196 0
M  V30 1403 H 134.333 -2.14937 4.4279 0
M  V30 1404 N 135.985 -1.50799 -0.457987 0
M  V30 1405 C 137.234 -1.6168 -1.20593 0
M  V30 1406 C 137.547 -0.32888 -1.92815 0
M  V30 1407 O 138.753 -0.316773 -2.69646 0
M  V30 1408 C 137.209 -2.8545 -2.19195 0
M  V30 1409 C 136.817 -4.21168 -1.52715 0
M  V30 1410 C 138.561 -3.05681 -2.94549 0
M  V30 1411 C 136.468 -5.3611 -2.4968 0
M  V30 1412 H 135.398 -0.602134 -0.453818 0
M  V30 1413 H 138.049 -1.77245 -0.475031 0
M  V30 1414 H 136.431 -2.63472 -2.95632 0
M  V30 1415 H 137.605 -4.53449 -0.819775 0
M  V30 1416 H 135.92 -4.06648 -0.895922 0
M  V30 1417 H 138.517 -3.88727 -3.67145 0
M  V30 1418 H 138.86 -2.17929 -3.54701 0
M  V30 1419 H 139.393 -3.27901 -2.25223 0
M  V30 1420 H 136.132 -6.26057 -1.94249 0
M  V30 1421 H 135.652 -5.0823 -3.18532 0
M  V30 1422 H 137.331 -5.6722 -3.11241 0
M  V30 1423 N 137.463 0.71206 -1.40597 0
M  V30 1424 C 138.373 1.8562 -1.43466 0
M  V30 1425 C 139.389 1.70902 -0.326902 0
M  V30 1426 O 140.565 1.93105 -0.572043 0
M  V30 1427 C 137.63 3.21451 -1.29884 0
M  V30 1428 C 136.691 3.48398 -2.50833 0
M  V30 1429 C 135.924 4.77749 -2.3789 0
M  V30 1430 O 136.147 5.53089 -1.39459 0
M  V30 1431 O 135.081 5.05111 -3.27333 0
M  V30 1432 H 138.907 1.86155 -2.39958 0
M  V30 1433 H 136.492 0.86295 -1.21957 0
M  V30 1434 H 138.374 4.02579 -1.24531 0
M  V30 1435 H 137.049 3.21636 -0.364997 0
M  V30 1436 H 135.956 2.67265 -2.61763 0
M  V30 1437 H 137.289 3.53014 -3.4299 0
M  V30 1438 N 138.941 1.26152 0.944643 0
M  V30 1439 C 140.171 1.14094 1.72239 0
M  V30 1440 C 140.579 -0.306931 1.86694 0
M  V30 1441 O 139.922 -1.22222 1.3714 0
M  V30 1442 C 139.984 1.73316 3.14963 0
M  V30 1443 C 139.648 3.2239 3.23904 0
M  V30 1444 C 140.645 4.19252 3.07447 0
M  V30 1445 C 138.33 3.62788 3.47405 0
M  V30 1446 C 140.324 5.54491 3.14353 0
M  V30 1447 C 138.011 4.98162 3.53947 0
M  V30 1448 C 139.009 5.93823 3.37436 0
M  V30 1449 O 138.697 7.26732 3.43679 0
M  V30 1450 H 138.429 0.398292 0.546205 0
M  V30 1451 H 140.983 1.67201 1.19301 0
M  V30 1452 H 139.213 1.14667 3.69308 0
M  V30 1453 H 140.902 1.56214 3.74636 0
M  V30 1454 H 141.668 3.8938 2.8915 0
M  V30 1455 H 137.547 2.88816 3.59313 0
M  V30 1456 H 141.091 6.29137 3.01384 0
M  V30 1457 H 136.988 5.27695 3.71763 0
M  V30 1458 H 137.756 7.3496 3.60245 0
M  V30 1459 N 140.419 -1.14872 1.07899 0
M  V30 1460 C 141.349 -2.2193 0.725887 0
M  V30 1461 C 142.33 -1.67622 -0.28927 0
M  V30 1462 O 143.515 -1.93533 -0.160787 0
M  V30 1463 C 140.645 -3.47061 0.128856 0
M  V30 1464 C 139.599 -4.14363 1.07178 0
M  V30 1465 C 138.925 -5.33636 0.337229 0
M  V30 1466 C 140.225 -4.63492 2.40775 0
M  V30 1467 H 141.919 -2.51724 1.62097 0
M  V30 1468 H 139.465 -1.20991 0.780838 0
M  V30 1469 H 141.418 -4.21199 -0.130147 0
M  V30 1470 H 140.142 -3.16617 -0.80134 0
M  V30 1471 H 138.801 -3.42173 1.3158 0
M  V30 1472 H 138.449 -4.99449 -0.596606 0
M  V30 1473 H 138.149 -5.79609 0.965788 0
M  V30 1474 H 139.673 -6.10539 0.0861567 0
M  V30 1475 H 141.087 -5.2913 2.20669 0
M  V30 1476 H 139.484 -5.20148 2.99276 0
M  V30 1477 H 140.554 -3.78834 3.02676 0
M  V30 1478 N 141.898 -0.863906 -1.31812 0
M  V30 1479 C 143.123 -0.48527 -2.01643 0
M  V30 1480 C 143.548 0.913058 -1.64453 0
M  V30 1481 O 142.906 1.6014 -0.849985 0
M  V30 1482 C 142.954 -0.642625 -3.54828 0
M  V30 1483 O 142.058 0.320659 -4.11151 0
M  V30 1484 H 141.399 -0.193793 -0.635091 0
M  V30 1485 H 143.929 -1.16565 -1.68148 0
M  V30 1486 H 143.939 -0.533628 -4.04495 0
M  V30 1487 H 142.614 -1.66227 -3.81237 0
M  V30 1488 H 141.191 0.167126 -3.72525 0
M  V30 1489 N 143.376 1.44774 -0.622745 0
M  V30 1490 C 144.326 2.2774 0.108889 0
M  V30 1491 C 145.31 1.38189 0.824175 0
M  V30 1492 O 146.502 1.62063 0.711664 0
M  V30 1493 C 143.631 3.25353 1.09546 0
M  V30 1494 C 142.717 4.22392 0.380232 0
M  V30 1495 N 143.108 5.02388 -0.586535 0
M  V30 1496 C 141.406 4.41588 0.625792 0
M  V30 1497 C 142.107 5.72894 -1.00834 0
M  V30 1498 N 141.083 5.42479 -0.348878 0
M  V30 1499 H 144.885 2.86993 -0.63341 0
M  V30 1500 H 142.399 1.5611 -0.447589 0
M  V30 1501 H 144.396 3.83538 1.63414 0
M  V30 1502 H 143.056 2.6766 1.83815 0
M  V30 1503 H 144.067 5.0885 -0.963975 0
M  V30 1504 H 140.744 3.95003 1.352 0
M  V30 1505 H 142.134 6.47158 -1.80656 0
M  V30 1506 N 144.854 0.36279 1.53368 0
M  V30 1507 C 145.764 -0.492994 2.29362 0
M  V30 1508 C 146.78 -1.09507 1.35219 0
M  V30 1509 O 147.956 -1.10662 1.68273 0
M  V30 1510 C 145.021 -1.61855 3.066 0
M  V30 1511 C 144.082 -1.04429 4.16405 0
M  V30 1512 C 143.315 -2.11621 4.89951 0
M  V30 1513 O 143.538 -3.32684 4.63333 0
M  V30 1514 O 142.472 -1.74835 5.75948 0
M  V30 1515 H 146.298 0.125331 3.03441 0
M  V30 1516 H 143.883 0.127253 1.48857 0
M  V30 1517 H 145.765 -2.27302 3.54841 0
M  V30 1518 H 144.44 -2.22233 2.3536 0
M  V30 1519 H 143.347 -0.353819 3.72423 0
M  V30 1520 H 144.68 -0.485113 4.89804 0
M  V30 1521 N 146.332 -1.57332 0.0918853 0
M  V30 1522 C 147.242 -2.17368 -0.882505 0
M  V30 1523 C 148.258 -1.14226 -1.31257 0
M  V30 1524 O 149.434 -1.46582 -1.38115 0
M  V30 1525 C 146.499 -2.73962 -2.12476 0
M  V30 1526 C 145.56 -3.92048 -1.7492 0
M  V30 1527 C 144.793 -4.45933 -2.93223 0
M  V30 1528 O 145.016 -3.98764 -4.07852 0
M  V30 1529 O 143.95 -5.36999 -2.71875 0
M  V30 1530 H 147.776 -3.01031 -0.40172 0
M  V30 1531 H 145.361 -1.48813 -0.132291 0
M  V30 1532 H 147.243 -3.10147 -2.85283 0
M  V30 1533 H 145.918 -1.93347 -2.59613 0
M  V30 1534 H 144.825 -3.6068 -0.993025 0
M  V30 1535 H 146.158 -4.74017 -1.32548 0
M  V30 1536 N 147.81 0.181792 -1.56548 0
M  V30 1537 C 149.057 0.900097 -1.81396 0
M  V30 1538 C 149.385 1.82695 -0.667281 0
M  V30 1539 O 148.64 1.92614 0.346146 0
M  V30 1540 C 148.939 1.73728 -3.12335 0
M  V30 1541 C 148.605 0.960255 -4.40556 0
M  V30 1542 C 147.267 0.745766 -4.75386 0
M  V30 1543 C 149.619 0.414477 -5.19549 0
M  V30 1544 C 146.947 -0.0257694 -5.86694 0
M  V30 1545 C 149.299 -0.343916 -6.31664 0
M  V30 1546 C 147.963 -0.569301 -6.65068 0
M  V30 1547 H 147.233 0.329369 -0.663775 0
M  V30 1548 H 149.88 0.165647 -1.90782 0
M  V30 1549 H 148.185 2.54081 -2.98245 0
M  V30 1550 H 149.882 2.29591 -3.28769 0
M  V30 1551 H 146.472 1.13746 -4.13231 0
M  V30 1552 H 150.656 0.567554 -4.93044 0
M  V30 1553 H 145.912 -0.210233 -6.11038 0
M  V30 1554 H 150.086 -0.774133 -6.92084 0
M  V30 1555 H 147.713 -1.16903 -7.51158 0
M  V30 1556 N 149.288 1.51039 0.449983 0
M  V30 1557 C 150.235 1.71439 1.54523 0
M  V30 1558 C 151.205 0.555871 1.56522 0
M  V30 1559 O 152.39 0.788871 1.73728 0
M  V30 1560 C 149.53 1.83384 2.92343 0
M  V30 1561 C 148.643 3.10873 2.9997 0
M  V30 1562 C 147.778 3.13488 4.28834 0
M  V30 1563 C 146.817 4.35343 4.30282 0
M  V30 1564 N 145.954 4.35579 5.5065 0
M  V30 1565 H 150.794 2.64934 1.36433 0
M  V30 1566 H 148.331 1.31312 0.662982 0
M  V30 1567 H 150.289 1.88291 3.72293 0
M  V30 1568 H 148.919 0.933086 3.0902 0
M  V30 1569 H 147.971 3.15336 2.12761 0
M  V30 1570 H 149.283 4.00814 2.96901 0
M  V30 1571 H 148.437 3.17241 5.17149 0
M  V30 1572 H 147.176 2.21414 4.34543 0
M  V30 1573 H 146.181 4.3178 3.40362 0
M  V30 1574 H 147.406 5.28668 4.26248 0
M  V30 1575 H 145.352 3.46369 5.57104 0
M  V30 1576 H 145.269 5.19313 5.49409 0
M  V30 1577 H 146.537 4.43507 6.41032 0
M  V30 1578 N 150.766 -0.704594 1.40972 0
M  V30 1579 C 151.696 -1.83124 1.44872 0
M  V30 1580 C 152.677 -1.67281 0.30838 0
M  V30 1581 O 153.862 -1.87149 0.518556 0
M  V30 1582 C 150.992 -3.21181 1.32136 0
M  V30 1583 C 149.946 -3.51714 2.43888 0
M  V30 1584 C 149.272 -4.89032 2.16222 0
M  V30 1585 C 150.572 -3.516 3.86232 0
M  V30 1586 H 152.266 -1.80117 2.39161 0
M  V30 1587 H 149.812 -0.865145 1.15114 0
M  V30 1588 H 151.765 -3.99702 1.33479 0
M  V30 1589 H 150.489 -3.24791 0.343279 0
M  V30 1590 H 149.148 -2.75539 2.41813 0
M  V30 1591 H 148.796 -4.89256 1.16778 0
M  V30 1592 H 148.496 -5.10426 2.911 0
M  V30 1593 H 150.02 -5.69873 2.19265 0
M  V30 1594 H 151.434 -4.2014 3.9007 0
M  V30 1595 H 149.831 -3.84523 4.60719 0
M  V30 1596 H 150.901 -2.50757 4.15029 0
M  V30 1597 N 152.244 -1.26651 -0.937939 0
M  V30 1598 C 153.174 -1.10993 -2.05433 0
M  V30 1599 C 154.155 -0.0142161 -1.70094 0
M  V30 1600 O 155.34 -0.186837 -1.93299 0
M  V30 1601 C 152.47 -0.745561 -3.39203 0
M  V30 1602 C 151.424 -1.79337 -3.88616 0
M  V30 1603 C 150.75 -1.28324 -5.19073 0
M  V30 1604 C 152.05 -3.19553 -4.13138 0
M  V30 1605 H 153.744 -2.0438 -2.1879 0
M  V30 1606 H 151.29 -0.984041 -1.05131 0
M  V30 1607 H 153.243 -0.622888 -4.16771 0
M  V30 1608 H 151.967 0.22401 -3.25831 0
M  V30 1609 H 150.626 -1.90477 -3.13231 0
M  V30 1610 H 150.274 -0.303414 -5.02084 0
M  V30 1611 H 149.974 -1.98369 -5.53103 0
M  V30 1612 H 151.498 -1.1733 -5.99221 0
M  V30 1613 H 152.912 -3.11471 -4.81309 0
M  V30 1614 H 151.309 -3.87218 -4.58457 0
M  V30 1615 H 152.379 -3.65368 -3.18801 0
M  V30 1616 N 153.722 1.14298 -1.08507 0
M  V30 1617 C 154.95 1.89219 -0.836876 0
M  V30 1618 C 155.365 1.78638 0.611054 0
M  V30 1619 O 154.722 1.14643 1.41998 0
M  V30 1620 C 154.773 3.39158 -1.25116 0
M  V30 1621 O 154.494 3.49449 -2.64229 0
M  V30 1622 C 155.995 4.31073 -1.03398 0
M  V30 1623 H 153.215 0.599328 -0.301739 0
M  V30 1624 H 155.759 1.44746 -1.44461 0
M  V30 1625 H 153.914 3.81251 -0.687514 0
M  V30 1626 H 154.328 4.42589 -2.81452 0
M  V30 1627 H 155.802 5.34646 -1.37323 0
M  V30 1628 H 156.279 4.3919 0.0289259 0
M  V30 1629 H 156.885 3.94738 -1.58311 0
M  V30 1630 N 155.201 0.870884 1.31352 0
M  V30 1631 C 156.148 0.325425 2.28494 0
M  V30 1632 C 157.118 -0.576615 1.5577 0
M  V30 1633 O 158.303 -0.508059 1.83911 0
M  V30 1634 C 155.443 -0.466283 3.41935 0
M  V30 1635 C 154.556 0.463378 4.29508 0
M  V30 1636 C 153.691 -0.342544 5.30094 0
M  V30 1637 C 152.73 0.583486 6.09313 0
M  V30 1638 N 151.867 -0.186244 7.01853 0
M  V30 1639 H 156.707 1.15901 2.74538 0
M  V30 1640 H 154.244 0.58294 1.35056 0
M  V30 1641 H 156.202 -0.941085 4.06447 0
M  V30 1642 H 154.832 -1.26456 2.97 0
M  V30 1643 H 153.884 1.05663 3.65431 0
M  V30 1644 H 155.196 1.1734 4.84802 0
M  V30 1645 H 154.35 -0.879816 6.00287 0
M  V30 1646 H 153.089 -1.08585 4.75458 0
M  V30 1647 H 152.094 1.13251 5.3801 0
M  V30 1648 H 153.319 1.32566 6.66035 0
M  V30 1649 H 151.265 -0.912348 6.49625 0
M  V30 1650 H 151.182 0.464422 7.54572 0
M  V30 1651 H 152.45 -0.704716 7.76308 0
M  V30 1652 N 156.679 -1.44442 0.630414 0
M  V30 1653 C 157.956 -1.9549 0.0655657 0
M  V30 1654 C 158.336 -1.5724 -1.40851 0
M  V30 1655 O 157.684 -0.846116 -2.12257 0
M  V30 1656 C 157.894 -3.47812 0.287691 0
M  V30 1657 C 159.242 -4.24216 0.180513 0
M  V30 1658 O 160.266 -3.55526 0.219019 0
M  V30 1659 O 159.125 -5.46434 0.0848493 0
M  V30 1660 H 156.219 -0.826688 -0.0227177 0
M  V30 1661 H 158.765 -1.54496 0.702068 0
M  V30 1662 H 157.537 -3.687 1.31056 0
M  V30 1663 H 157.16 -3.95751 -0.382984 0
M  V30 1664 N 158.157 -0.370918 -1.53173 0
M  V30 1665 C 159.12 0.460778 -2.24521 0
M  V30 1666 C 160.12 1.00536 -1.25496 0
M  V30 1667 O 161.31 0.890266 -1.49733 0
M  V30 1668 C 158.442 1.64457 -2.98608 0
M  V30 1669 H 159.635 -0.163613 -2.99453 0
M  V30 1670 H 157.188 -0.122699 -1.55818 0
M  V30 1671 H 157.923 2.30691 -2.2793 0
M  V30 1672 H 157.708 1.26099 -3.7127 0
M  V30 1673 H 159.198 2.23384 -3.5283 0
M  V30 1674 N 159.635 1.57281 -0.100228 0
M  V30 1675 C 160.582 2.14305 0.856858 0
M  V30 1676 C 161.552 1.06296 1.27634 0
M  V30 1677 O 162.737 1.34109 1.35718 0
M  V30 1678 C 159.877 2.73184 2.10866 0
M  V30 1679 C 158.99 3.95442 1.73925 0
M  V30 1680 C 158.125 4.42468 2.93931 0
M  V30 1681 C 157.164 5.57303 2.5314 0
M  V30 1682 N 156.301 5.99158 3.65997 0
M  V30 1683 H 161.141 2.95772 0.363726 0
M  V30 1684 H 158.678 1.46139 0.167858 0
M  V30 1685 H 160.636 3.05442 2.84185 0
M  V30 1686 H 159.266 1.94437 2.57671 0
M  V30 1687 H 158.318 3.69464 0.905554 0
M  V30 1688 H 159.63 4.78769 1.39935 0
M  V30 1689 H 158.784 4.76537 3.75496 0
M  V30 1690 H 157.523 3.58052 3.31134 0
M  V30 1691 H 156.528 5.22857 1.70003 0
M  V30 1692 H 157.753 6.43471 2.17075 0
M  V30 1693 H 155.699 5.17687 4.02909 0
M  V30 1694 H 155.616 6.77295 3.35869 0
M  V30 1695 H 156.884 6.3786 4.48057 0
M  V30 1696 N 161.113 -0.173488 1.56642 0
M  V30 1697 C 162.076 -1.19859 1.95362 0
M  V30 1698 C 163.076 -1.37296 0.83704 0
M  V30 1699 O 164.266 -1.34739 1.10413 0
M  V30 1700 C 161.398 -2.56405 2.24654 0
M  V30 1701 H 162.591 -0.867062 2.87092 0
M  V30 1702 H 160.144 -0.415853 1.50666 0
M  V30 1703 H 160.879 -2.94576 1.35631 0
M  V30 1704 H 160.664 -2.45115 3.06041 0
M  V30 1705 H 162.154 -3.30287 2.5554 0
M  V30 1706 N 162.591 -1.51276 -0.441967 0
M  V30 1707 C 163.837 -1.63958 -1.19355 0
M  V30 1708 C 164.17 -0.352543 -1.90973 0
M  V30 1709 O 163.445 0.647627 -1.83401 0
M  V30 1710 C 163.728 -2.83979 -2.21422 0
M  V30 1711 C 163.581 -4.22646 -1.53918 0
M  V30 1712 C 164.9 -2.99521 -3.22451 0
M  V30 1713 H 162.019 -0.596709 -0.432559 0
M  V30 1714 H 164.661 -1.83748 -0.483398 0
M  V30 1715 H 162.811 -2.67237 -2.81987 0
M  V30 1716 H 164.483 -4.51045 -0.967256 0
M  V30 1717 H 162.726 -4.25558 -0.841615 0
M  V30 1718 H 163.397 -5.02609 -2.28229 0
M  V30 1719 H 165.873 -3.14944 -2.71937 0
M  V30 1720 H 164.749 -3.85072 -3.91166 0
M  V30 1721 H 165.01 -2.11391 -3.88287 0
M  V30 1722 N 164.069 0.697108 -1.41344 0
M  V30 1723 C 165.318 1.45279 -1.39918 0
M  V30 1724 C 165.631 1.95597 -0.0109624 0
M  V30 1725 O 166.837 2.71208 0.125919 0
M  V30 1726 C 165.293 2.62695 -2.46007 0
M  V30 1727 C 164.901 2.19169 -3.90729 0
M  V30 1728 C 166.645 3.40336 -2.53715 0
M  V30 1729 C 164.552 3.33535 -4.88373 0
M  V30 1730 H 163.482 0.545692 -0.520323 0
M  V30 1731 H 166.133 0.756929 -1.67161 0
M  V30 1732 H 164.515 3.34541 -2.11892 0
M  V30 1733 H 165.689 1.54623 -4.34083 0
M  V30 1734 H 164.004 1.54525 -3.86666 0
M  V30 1735 H 166.601 4.2547 -3.2385 0
M  V30 1736 H 166.944 3.85418 -1.5735 0
M  V30 1737 H 167.477 2.75546 -2.86913 0
M  V30 1738 H 164.216 2.93468 -5.86137 0
M  V30 1739 H 163.736 3.96936 -4.49668 0
M  V30 1740 H 165.415 3.99335 -5.09059 0
M  V30 1741 N 165.547 1.27147 0.931209 0
M  V30 1742 C 166.963 1.04475 1.20653 0
M  V30 1743 C 167.163 -0.223885 2.00252 0
M  V30 1744 O 166.219 -0.930332 2.34736 0
M  V30 1745 C 167.532 2.28209 1.95809 0
M  V30 1746 C 169.08 2.33211 2.08762 0
M  V30 1747 C 169.555 3.56665 2.87323 0
M  V30 1748 N 171.046 3.57201 2.94892 0
M  V30 1749 C 171.781 4.49395 3.56134 0
M  V30 1750 N 171.277 5.51889 4.18796 0
M  V30 1751 N 173.07 4.37026 3.53504 0
M  V30 1752 H 165.221 2.08612 0.399333 0
M  V30 1753 H 167.484 0.917312 0.239253 0
M  V30 1754 H 167.19 3.20538 1.44736 0
M  V30 1755 H 167.064 2.33247 2.96438 0
M  V30 1756 H 169.451 1.41391 2.59023 0
M  V30 1757 H 169.532 2.32178 1.07364 0
M  V30 1758 H 169.176 4.4882 2.37746 0
M  V30 1759 H 169.106 3.54948 3.88998 0
M  V30 1760 H 171.597 2.83074 2.50354 0
M  V30 1761 H 171.91 6.18409 4.63454 0
M  V30 1762 H 170.255 5.55735 4.17353 0
M  V30 1763 H 173.446 3.56166 3.03749 0
M  V30 1764 H 173.619 5.09067 4.00942 0
M  V30 1765 N 167.025 -1.13721 1.09112 0
M  V30 1766 C 168.253 -1.88773 0.846899 0
M  V30 1767 C 168.668 -1.7896 -0.601572 0
M  V30 1768 O 168.025 -1.15394 -1.41388 0
M  V30 1769 C 168.076 -3.3849 1.26913 0
M  V30 1770 O 167.797 -3.48043 2.66079 0
M  V30 1771 C 169.298 -4.30518 1.05682 0
M  V30 1772 H 166.518 -0.59772 0.304914 0
M  V30 1773 H 169.062 -1.43977 1.45227 0
M  V30 1774 H 167.217 -3.80881 0.707723 0
M  V30 1775 H 167.631 -4.4109 2.83795 0
M  V30 1776 H 169.105 -5.3391 1.40156 0
M  V30 1777 H 169.582 -4.392 -0.00563416 0
M  V30 1778 H 170.188 -3.93893 1.60402 0
M  V30 1779 N 168.503 -0.877838 -1.30888 0
M  V30 1780 C 169.751 -0.491723 -1.96027 0
M  V30 1781 C 170.072 0.960827 -1.69685 0
M  V30 1782 O 169.342 1.67462 -1.01654 0
M  V30 1783 H 167.922 -0.17885 -0.725273 0
M  V30 1784 H 170.584 -1.11935 -1.59551 0
M  V30 1785 H 169.68 -0.656016 -3.05128 0
M  V30 1786 N 169.982 1.44106 -0.638065 0
M  V30 1787 C 170.892 2.34513 0.0637334 0
M  V30 1788 C 171.908 1.53018 0.828346 0
M  V30 1789 O 173.084 1.85723 0.779036 0
M  V30 1790 C 170.149 3.31095 1.02844 0
M  V30 1791 C 169.21 4.28497 0.26244 0
M  V30 1792 C 168.443 5.20465 1.1812 0
M  V30 1793 O 168.666 5.16514 2.42011 0
M  V30 1794 O 167.6 5.98251 0.661774 0
M  V30 1795 H 171.426 2.95989 -0.68003 0
M  V30 1796 H 169.011 1.43994 -0.398252 0
M  V30 1797 H 170.893 3.90526 1.58327 0
M  V30 1798 H 169.568 2.72144 1.7527 0
M  V30 1799 H 168.475 3.72592 -0.335602 0
M  V30 1800 H 169.808 4.90388 -0.421936 0
M  V30 1801 N 171.46 0.379036 1.52974 0
M  V30 1802 C 172.707 -0.206421 2.01445 0
M  V30 1803 C 173.035 -1.47668 1.26587 0
M  V30 1804 O 172.29 -1.92514 0.351675 0
M  V30 1805 C 172.589 -0.53096 3.53434 0
M  V30 1806 C 172.255 0.646546 4.46241 0
M  V30 1807 C 170.917 0.969604 4.7133 0
M  V30 1808 C 173.269 1.43479 5.01062 0
M  V30 1809 C 170.597 2.08263 5.48492 0
M  V30 1810 C 172.949 2.53834 5.7944 0
M  V30 1811 C 171.613 2.86659 6.02812 0
M  V30 1812 H 170.883 -0.0755349 0.73714 0
M  V30 1813 H 173.53 0.514271 1.84465 0
M  V30 1814 H 171.835 -1.33285 3.68432 0
M  V30 1815 H 173.532 -0.996417 3.88423 0
M  V30 1816 H 170.122 0.384734 4.2687 0
M  V30 1817 H 174.306 1.19844 4.81613 0
M  V30 1818 H 169.562 2.34078 5.64816 0
M  V30 1819 H 173.736 3.15319 6.20924 0
M  V30 1820 H 171.363 3.73026 6.62387 0
M  V30 1821 N 172.938 -1.57226 0.108567 0
M  V30 1822 C 174.166 -1.99179 -0.559954 0
M  V30 1823 C 174.581 -0.988022 -1.60884 0
M  V30 1824 O 173.938 0.0205512 -1.82488 0
M  V30 1825 C 173.989 -3.41159 -1.19552 0
M  V30 1826 O 173.71 -4.37694 -0.188577 0
M  V30 1827 C 175.211 -3.98188 -1.94837 0
M  V30 1828 H 172.431 -0.654228 -0.149088 0
M  V30 1829 H 174.975 -2.03598 0.19183 0
M  V30 1830 H 173.13 -3.37711 -1.89815 0
M  V30 1831 H 173.544 -5.20469 -0.649014 0
M  V30 1832 H 175.018 -4.99644 -2.34648 0
M  V30 1833 H 175.495 -3.3675 -2.81951 0
M  V30 1834 H 176.101 -4.0515 -1.2936 0
M  V30 1835 N 174.416 0.165178 -1.56732 0
M  V30 1836 C 175.827 0.727046 -1.71962 0
M  V30 1837 C 176.178 1.82508 -0.720078 0
M  V30 1838 O 175.303 2.16082 0.117242 0
M  V30 1839 C 175.898 1.32559 -3.11791 0
M  V30 1840 C 174.457 1.83422 -3.28684 0
M  V30 1841 C 173.604 0.715567 -2.67908 0
M  V30 1842 H 176.555 -0.0602896 -1.58585 0
M  V30 1843 H 176.576 2.19533 -3.10782 0
M  V30 1844 H 176.088 0.526195 -3.84516 0
M  V30 1845 H 174.189 2.65986 -2.60926 0
M  V30 1846 H 174.302 1.97543 -4.36478 0
M  V30 1847 H 172.666 1.13758 -2.27884 0
M  V30 1848 H 173.449 -0.0720836 -3.43224 0
M  V30 1849 N 175.894 1.51508 0.433938 0
M  V30 1850 C 177.124 1.67914 1.20369 0
M  V30 1851 C 177.532 0.377461 1.85397 0
M  V30 1852 O 176.875 -0.654255 1.71654 0
M  V30 1853 C 176.937 2.74045 2.32679 0
M  V30 1854 C 176.601 4.16543 1.87991 0
M  V30 1855 C 177.598 5.01211 1.38145 0
M  V30 1856 C 175.283 4.6266 1.95579 0
M  V30 1857 C 177.277 6.30056 0.964774 0
M  V30 1858 C 174.964 5.91501 1.53523 0
M  V30 1859 C 175.962 6.75027 1.04055 0
M  V30 1860 O 175.65 8.01459 0.625964 0
M  V30 1861 H 175.382 0.566578 0.368735 0
M  V30 1862 H 177.936 1.98709 0.51999 0
M  V30 1863 H 176.166 2.38572 3.04336 0
M  V30 1864 H 177.855 2.79295 2.94532 0
M  V30 1865 H 178.621 4.66783 1.31675 0
M  V30 1866 H 174.5 3.97767 2.33029 0
M  V30 1867 H 178.044 6.95202 0.57796 0
M  V30 1868 H 173.941 6.25442 1.59665 0
M  V30 1869 H 174.709 8.15043 0.751509 0
M  V30 1870 N 177.372 -0.689602 1.41712 0
M  V30 1871 C 178.335 -1.78521 1.43746 0
M  V30 1872 C 179.335 -1.57436 0.327191 0
M  V30 1873 O 180.525 -1.64 0.587348 0
M  V30 1874 C 177.657 -3.16971 1.25467 0
M  V30 1875 H 178.85 -1.78108 2.41283 0
M  V30 1876 H 176.403 -0.89781 1.27942 0
M  V30 1877 H 177.138 -3.23019 0.287948 0
M  V30 1878 H 176.923 -3.33678 2.05917 0
M  V30 1879 H 178.413 -3.96935 1.2974 0
M  V30 1880 N 178.85 -1.27639 -0.924453 0
M  V30 1881 C 179.798 -1.10485 -2.04685 0
M  V30 1882 C 180.792 -0.0270421 -1.69378 0
M  V30 1883 O 181.998 -0.185008 -1.79047 0
M  V30 1884 H 178.373 -0.340546 -0.670472 0
M  V30 1885 H 180.344 -2.05566 -2.16298 0
M  V30 1886 C 179.093 -0.772229 -3.39016 0
M  V30 1887 H 178.416 -1.59351 -3.66671 0
M  V30 1888 H 179.856 -0.692097 -4.18313 0
M  V30 1889 C 178.315 0.523554 -3.32807 0
M  V30 1890 O 178.845 1.55702 -3.70297 0
M  V30 1891 N 177.051 0.520363 -2.85903 0
M  V30 1892 H 176.598 -0.32107 -2.55591 0
M  V30 1893 H 176.556 1.38742 -2.82131 0
M  V30 1894 N 180.328 1.1314 -1.09713 0
M  V30 1895 C 181.568 1.8613 -0.844683 0
M  V30 1896 C 181.932 1.81765 0.618491 0
M  V30 1897 O 183.133 2.50024 0.98699 0
M  V30 1898 C 181.404 3.30151 -1.36877 0
M  V30 1899 S 182.963 4.206 -1.25064 0
M  V30 1900 H 179.781 0.642056 -0.305427 0
M  V30 1901 H 182.383 1.36343 -1.4011 0
M  V30 1902 H 181.087 3.30883 -2.42786 0
M  V30 1903 H 180.618 3.85 -0.808614 0
M  V30 1904 H 182.633 4.95783 -0.203486 0
M  V30 1905 N 181.806 0.884767 1.30421 0
M  V30 1906 C 183.055 0.499164 1.95426 0
M  V30 1907 C 183.368 -0.95645 1.70621 0
M  V30 1908 O 184.574 -1.44889 2.29607 0
M  V30 1909 C 183.03 0.84177 3.49917 0
M  V30 1910 C 182.638 2.31514 3.83543 0
M  V30 1911 C 184.382 0.525355 4.21237 0
M  V30 1912 C 182.289 2.59939 5.31212 0
M  V30 1913 H 181.219 0.182944 0.73147 0
M  V30 1914 H 183.87 1.07971 1.48373 0
M  V30 1915 H 182.252 0.190311 3.95542 0
M  V30 1916 H 183.426 3.0109 3.48829 0
M  V30 1917 H 181.741 2.59907 3.25326 0
M  V30 1918 H 184.338 0.714762 5.29901 0
M  V30 1919 H 184.681 -0.535222 4.12845 0
M  V30 1920 H 185.214 1.134 3.81294 0
M  V30 1921 H 181.953 3.64736 5.44654 0
M  V30 1922 H 181.473 1.94972 5.67227 0
M  V30 1923 H 183.152 2.45429 5.98643 0
M  V30 1924 N 183.284 -1.43765 0.645699 0
M  V30 1925 C 184.214 -2.33471 -0.0370477 0
M  V30 1926 C 185.195 -1.49042 -0.819779 0
M  V30 1927 O 186.38 -1.77726 -0.782758 0
M  V30 1928 C 183.51 -3.32311 -1.0093 0
M  V30 1929 C 182.464 -4.2667 -0.337201 0
M  V30 1930 C 181.79 -5.1549 -1.42037 0
M  V30 1931 C 183.09 -5.16657 0.765706 0
M  V30 1932 H 184.784 -2.90809 0.712069 0
M  V30 1933 H 182.33 -1.39834 0.343876 0
M  V30 1934 H 184.283 -3.9396 -1.49578 0
M  V30 1935 H 183.007 -2.73213 -1.78948 0
M  V30 1936 H 181.666 -3.66374 0.128771 0
M  V30 1937 H 181.314 -4.52735 -2.1918 0
M  V30 1938 H 181.014 -5.79438 -0.975966 0
M  V30 1939 H 182.538 -5.80012 -1.90838 0
M  V30 1940 H 183.952 -5.72158 0.361702 0
M  V30 1941 H 182.349 -5.89286 1.13413 0
M  V30 1942 H 183.419 -4.56796 1.62683 0
M  V30 1943 N 184.763 -0.387143 -1.52771 0
M  V30 1944 C 185.695 0.484089 -2.2403 0
M  V30 1945 C 186.708 1.02849 -1.26198 0
M  V30 1946 O 187.897 0.931186 -1.52286 0
M  V30 1947 C 184.997 1.68337 -2.94136 0
M  V30 1948 C 184.17 1.26672 -4.18656 0
M  V30 1949 C 183.229 2.33045 -4.7178 0
M  V30 1950 O 182.255 1.94541 -5.34923 0
M  V30 1951 N 183.457 3.64929 -4.5145 0
M  V30 1952 H 186.222 -0.126404 -2.99433 0
M  V30 1953 H 183.783 -0.213392 -1.60488 0
M  V30 1954 H 185.775 2.39019 -3.26577 0
M  V30 1955 H 184.345 2.20025 -2.22053 0
M  V30 1956 H 183.565 0.388878 -3.92277 0
M  V30 1957 H 184.853 0.964964 -4.99566 0
M  V30 1958 H 184.251 3.98974 -4.01044 0
M  V30 1959 H 182.808 4.31651 -4.88386 0
M  V30 1960 N 186.241 1.57166 -0.116904 0
M  V30 1961 C 187.204 2.14039 0.819742 0
M  V30 1962 C 188.204 1.07477 1.19605 0
M  V30 1963 O 189.394 1.33263 1.1219 0
M  V30 1964 C 186.526 2.67891 2.10826 0
M  V30 1965 H 187.719 2.98128 0.325511 0
M  V30 1966 H 185.272 1.55739 0.132312 0
M  V30 1967 H 186.007 1.87384 2.64685 0
M  V30 1968 H 185.792 3.45823 1.84793 0
M  V30 1969 H 187.282 3.11809 2.77785 0
M  V30 1970 N 187.719 -0.156864 1.56817 0
M  V30 1971 C 188.967 -0.869404 1.82444 0
M  V30 1972 C 189.288 -1.82147 0.69623 0
M  V30 1973 O 188.558 -1.93847 -0.28287 0
M  V30 1974 H 187.138 -0.324043 0.673056 0
M  V30 1975 H 189.8 -0.153224 1.94297 0
M  V30 1976 H 188.896 -1.43761 2.77019 0
M  V30 1977 N 189.197 -1.51736 -0.425897 0
M  V30 1978 C 190.443 -1.65214 -1.1761 0
M  V30 1979 C 190.776 -0.372778 -1.90589 0
M  V30 1980 O 190.051 0.628139 -1.84078 0
M  V30 1981 C 190.334 -2.86312 -2.18398 0
M  V30 1982 C 190.187 -4.24254 -1.49426 0
M  V30 1983 C 191.506 -3.02925 -3.19256 0
M  V30 1984 H 188.625 -0.601263 -0.426206 0
M  V30 1985 H 191.267 -1.8425 -0.463882 0
M  V30 1986 H 189.417 -2.70213 -2.79137 0
M  V30 1987 H 191.089 -4.52046 -0.919362 0
M  V30 1988 H 189.332 -4.26426 -0.796432 0
M  V30 1989 H 190.003 -5.05001 -2.22885 0
M  V30 1990 H 192.479 -3.1781 -2.68581 0
M  V30 1991 H 191.355 -3.89199 -3.8706 0
M  V30 1992 H 191.616 -2.15497 -3.86023 0
M  V30 1993 N 190.675 0.682077 -1.42076 0
M  V30 1994 C 191.605 1.80796 -1.47767 0
M  V30 1995 C 192.586 1.6677 -0.334954 0
M  V30 1996 O 193.771 1.863 -0.548264 0
M  V30 1997 C 190.901 3.19038 -1.37229 0
M  V30 1998 C 189.855 3.47789 -2.49453 0
M  V30 1999 C 189.181 4.8553 -2.23975 0
M  V30 2000 C 190.481 3.45411 -3.91776 0
M  V30 2001 H 192.175 1.7629 -2.41997 0
M  V30 2002 H 189.721 0.846721 -1.16476 0
M  V30 2003 H 191.674 3.97528 -1.39821 0
M  V30 2004 H 190.398 3.24204 -0.394907 0
M  V30 2005 H 189.057 2.71657 -2.46166 0
M  V30 2006 H 188.705 4.87337 -1.24547 0
M  V30 2007 H 188.405 5.0573 -2.99184 0
M  V30 2008 H 189.929 5.66312 -2.28304 0
M  V30 2009 H 191.343 4.13882 -3.96705 0
M  V30 2010 H 189.74 3.77145 -4.66778 0
M  V30 2011 H 190.81 2.44122 -4.18966 0
M  V30 2012 N 192.153 1.28127 0.917671 0
M  V30 2013 C 193.4 1.15052 1.66641 0
M  V30 2014 C 193.728 -0.301677 1.92146 0
M  V30 2015 O 192.983 -1.23622 1.51711 0
M  V30 2016 C 193.282 1.89018 3.03327 0
M  V30 2017 C 192.948 3.38832 2.97496 0
M  V30 2018 C 191.61 3.79693 2.95613 0
M  V30 2019 C 193.962 4.34378 2.88036 0
M  V30 2020 C 191.29 5.14447 2.82066 0
M  V30 2021 C 193.642 5.69201 2.7603 0
M  V30 2022 C 192.306 6.09343 2.72502 0
M  V30 2023 H 191.576 0.421006 0.609783 0
M  V30 2024 H 194.223 1.58855 1.06945 0
M  V30 2025 H 192.528 1.37752 3.66785 0
M  V30 2026 H 194.225 1.76321 3.60156 0
M  V30 2027 H 190.815 3.06342 2.99754 0
M  V30 2028 H 194.999 4.03775 2.88581 0
M  V30 2029 H 190.255 5.44681 2.77728 0
M  V30 2030 H 194.429 6.42901 2.67678 0
M  V30 2031 H 192.056 7.13712 2.61762 0
M  V30 2032 O 193.67 -1.05238 1.22504 0
M  V30 2033 H 194.361 -1.6643 0.990999 0
M  V30 END ATOM
M  V30 BEGIN BOND
M  V30 END BOND
M  V30 END CTAB
M  END
$$$$
