drugbank_target|P37023 Serine/threonine-protein kinase receptor R3 (DB00171)
 OpenBabel12092119323D

  0  0  0     0  0            999 V3000
M  V30 BEGIN CTAB
M  V30 COUNTS 7871 7960 0 0 0
M  V30 BEGIN ATOM
M  V30 1 H -0.908 1.98254 -0.117106 0
M  V30 2 N 0 1.576 0 0
M  V30 3 C 0.933 2.03868 1.02534 0
M  V30 4 C 1.911 0.928543 1.3348 0
M  V30 5 O 3.095 1.19667 1.45644 0
M  V30 6 C 0.222 2.43627 2.35294 0
M  V30 7 C -0.732 3.65373 2.2001 0
M  V30 8 S 0.101 5.13292 1.52614 0
M  V30 9 C 1.257 5.56322 2.86805 0
M  V30 10 H 1.49 2.90518 0.631377 0
M  V30 11 H -0.977 1.52953 0.210867 0
M  V30 12 H 0.981 2.67203 3.11629 0
M  V30 13 H -0.358 1.57376 2.7183 0
M  V30 14 H -1.165 3.90944 3.18086 0
M  V30 15 H -1.563 3.418 1.51819 0
M  V30 16 H 0.729 5.58782 3.83104 0
M  V30 17 H 1.672 6.56266 2.65933 0
M  V30 18 H 2.08 4.83886 2.90714 0
M  V30 19 N 1.4781 -0.272755 1.55222 0
M  V30 20 C 2.7061 -1.02255 1.79865 0
M  V30 21 C 3.1211 -1.79924 0.572088 0
M  V30 22 O 2.4781 -1.76638 -0.458842 0
M  V30 23 C 2.5291 -1.98094 3.02392 0
M  V30 24 O 2.2501 -1.23572 4.20311 0
M  V30 25 C 3.7511 -2.84884 3.39641 0
M  V30 26 H 0.9711 -0.302057 0.599168 0
M  V30 27 H 3.5151 -0.303465 2.02236 0
M  V30 28 H 1.6701 -2.65465 2.82147 0
M  V30 29 H 2.0841 -1.88172 4.89583 0
M  V30 30 H 3.5581 -3.47927 4.28545 0
M  V30 31 H 4.0351 -3.54665 2.59055 0
M  V30 32 H 4.6411 -2.23003 3.62146 0
M  V30 33 N 2.9562 -1.48159 -0.537278 0
M  V30 34 C 3.8862 -1.65029 -1.6519 0
M  V30 35 C 4.8672 -0.499281 -1.62607 0
M  V30 36 O 6.0522 -0.730972 -1.79918 0
M  V30 37 C 3.1822 -1.68303 -3.03795 0
M  V30 38 C 2.1362 -2.8283 -3.21234 0
M  V30 39 C 1.4622 -2.71189 -4.60826 0
M  V30 40 C 2.7622 -4.24211 -3.04701 0
M  V30 41 H 4.4562 -2.58341 -1.51328 0
M  V30 42 H 2.0022 -1.24325 -0.726585 0
M  V30 43 H 3.9552 -1.78693 -3.81637 0
M  V30 44 H 2.6792 -0.715635 -3.18663 0
M  V30 45 H 1.3382 -2.71983 -2.45807 0
M  V30 46 H 0.9862 -1.72435 -4.7252 0
M  V30 47 H 0.6862 -3.48035 -4.7344 0
M  V30 48 H 2.2102 -2.83537 -5.40777 0
M  V30 49 H 3.6242 -4.3593 -3.72341 0
M  V30 50 H 2.0212 -5.01998 -3.28813 0
M  V30 51 H 3.0912 -4.41184 -2.01209 0
M  V30 52 N 4.4343 0.785586 -1.36625 0
M  V30 53 C 5.6823 1.54057 -1.30808 0
M  V30 54 C 6.0033 1.94683 0.111157 0
M  V30 55 O 5.2733 1.65241 1.05224 0
M  V30 56 H 3.8533 0.571354 -0.481211 0
M  V30 57 H 6.5153 0.935821 -1.70963 0
M  V30 58 H 5.6113 2.44637 -1.93801 0
M  V30 59 N 5.9124 1.20967 1.01018 0
M  V30 60 C 7.1374 1.0503 1.78839 0
M  V30 61 C 7.5624 -0.395752 1.8389 0
M  V30 62 O 6.9204 -1.28529 1.27867 0
M  V30 63 C 6.9684 1.64602 3.2084 0
M  V30 64 O 6.0724 0.887988 4.02726 0
M  V30 65 H 5.4134 0.369987 0.551367 0
M  V30 66 H 7.9434 1.60399 1.27018 0
M  V30 67 H 7.9534 1.68607 3.71532 0
M  V30 68 H 6.6284 2.69841 3.16479 0
M  V30 69 H 5.2054 0.922648 3.61305 0
M  V30 70 N 7.3905 -1.2043 1.01659 0
M  V30 71 C 8.8015 -1.71517 0.737482 0
M  V30 72 C 9.1525 -1.81547 -0.743973 0
M  V30 73 O 8.2775 -1.47803 -1.58061 0
M  V30 74 C 8.8725 -3.11515 1.33206 0
M  V30 75 C 7.4315 -3.59912 1.10183 0
M  V30 76 C 6.5785 -2.37116 1.43776 0
M  V30 77 H 9.5295 -1.05444 1.18606 0
M  V30 78 H 9.5505 -3.73575 0.722636 0
M  V30 79 H 9.0625 -3.04182 2.41028 0
M  V30 80 H 7.1635 -3.72577 0.0412756 0
M  V30 81 H 7.2765 -4.44731 1.78188 0
M  V30 82 H 5.6405 -2.39857 0.856778 0
M  V30 83 H 6.4235 -2.32424 2.52654 0
M  V30 84 N 8.8686 -0.792821 -1.36206 0
M  V30 85 C 10.2846 -0.474903 -1.52371 0
M  V30 86 C 10.4846 1.00622 -1.74578 0
M  V30 87 O 9.5406 1.79162 -1.77924 0
M  V30 88 C 10.8536 -1.3083 -2.70747 0
M  V30 89 C 12.4016 -1.30234 -2.84619 0
M  V30 90 C 12.8766 -2.11956 -4.06004 0
M  V30 91 N 14.3676 -2.09419 -4.13156 0
M  V30 92 C 15.1026 -2.69419 -5.06163 0
M  V30 93 N 14.5986 -3.3829 -6.04592 0
M  V30 94 N 16.3916 -2.59134 -4.98804 0
M  V30 95 H 8.5426 -1.75222 -1.20046 0
M  V30 96 H 10.8056 -0.745024 -0.586211 0
M  V30 97 H 10.5116 -2.35881 -2.6087 0
M  V30 98 H 10.3856 -0.95196 -3.6499 0
M  V30 99 H 12.7726 -0.259748 -2.93955 0
M  V30 100 H 12.8536 -1.69847 -1.91274 0
M  V30 101 H 12.4976 -3.16248 -3.97429 0
M  V30 102 H 12.4276 -1.69711 -4.98503 0
M  V30 103 H 14.9186 -1.59297 -3.42685 0
M  V30 104 H 15.2316 -3.81394 -6.7213 0
M  V30 105 H 13.5766 -3.42393 -6.04807 0
M  V30 106 H 16.7676 -2.04927 -4.20859 0
M  V30 107 H 16.9406 -3.06185 -5.711 0
M  V30 108 N 10.3467 1.47872 -0.545128 0
M  V30 109 C 11.2937 2.29849 0.2093 0
M  V30 110 C 12.2637 1.38313 0.919707 0
M  V30 111 O 13.4487 1.67277 0.917772 0
M  V30 112 C 10.5887 3.22019 1.24088 0
M  V30 113 C 9.7017 4.2864 0.537778 0
M  V30 114 C 8.8367 5.07973 1.5536 0
M  V30 115 C 7.8757 6.06381 0.8348 0
M  V30 116 N 7.0127 6.78717 1.79688 0
M  V30 117 H 11.8527 2.93845 -0.49591 0
M  V30 118 H 9.3897 1.44848 -0.256389 0
M  V30 119 H 11.3477 3.73868 1.85144 0
M  V30 120 H 9.9777 2.59914 1.91428 0
M  V30 121 H 9.0297 3.7994 -0.187046 0
M  V30 122 H 10.3417 4.98793 -0.0258907 0
M  V30 123 H 9.4957 5.63912 2.23803 0
M  V30 124 H 8.2347 4.37693 2.15118 0
M  V30 125 H 7.2397 5.49631 0.136388 0
M  V30 126 H 8.4647 6.78665 0.24313 0
M  V30 127 H 6.4107 6.11177 2.38326 0
M  V30 128 H 6.3277 7.44998 1.28505 0
M  V30 129 H 7.5957 7.39237 2.47282 0
M  V30 130 N 11.8248 0.280983 1.55075 0
M  V30 131 C 13.0728 -0.333455 1.9933 0
M  V30 132 C 13.3938 -1.55937 1.17085 0
M  V30 133 O 12.6638 -1.94143 0.261805 0
M  V30 134 H 11.2438 -0.126197 0.736263 0
M  V30 135 H 13.9058 0.387678 1.91005 0
M  V30 136 H 13.0018 -0.619292 3.05894 0
M  V30 137 N 13.3029 -1.57598 0.00835791 0
M  V30 138 C 14.2329 -2.1198 -0.979113 0
M  V30 139 C 15.2139 -1.03091 -1.35301 0
M  V30 140 O 16.3989 -1.30818 -1.43528 0
M  V30 141 C 13.5289 -2.62995 -2.26828 0
M  V30 142 C 12.4829 -3.76485 -2.03576 0
M  V30 143 C 11.8089 -4.13846 -3.38579 0
M  V30 144 C 13.1089 -5.0342 -1.39161 0
M  V30 145 H 14.8029 -2.94738 -0.526281 0
M  V30 146 H 12.3489 -1.41783 -0.251704 0
M  V30 147 H 14.3019 -2.99669 -2.96271 0
M  V30 148 H 13.0259 -1.7737 -2.7424 0
M  V30 149 H 11.6849 -3.40217 -1.36557 0
M  V30 150 H 11.3329 -3.25232 -3.83709 0
M  V30 151 H 11.0329 -4.90312 -3.23834 0
M  V30 152 H 12.5569 -4.53086 -4.09323 0
M  V30 153 H 13.9709 -5.37812 -1.98573 0
M  V30 154 H 12.3679 -5.84746 -1.34878 0
M  V30 155 H 13.4379 -4.83548 -0.361868 0
M  V30 156 N 14.781 0.264519 -1.55364 0
M  V30 157 C 15.711 1.33121 -1.91836 0
M  V30 158 C 16.692 1.51101 -0.781192 0
M  V30 159 O 17.877 1.64003 -1.04003 0
M  V30 160 C 15.007 2.68921 -2.19769 0
M  V30 161 C 13.961 2.65661 -3.35571 0
M  V30 162 C 13.287 4.05093 -3.49004 0
M  V30 163 C 14.587 2.24187 -4.71739 0
M  V30 164 H 16.281 1.02844 -2.81182 0
M  V30 165 H 13.827 0.493286 -1.35287 0
M  V30 166 H 15.78 3.43663 -2.43872 0
M  V30 167 H 14.504 3.00799 -1.27231 0
M  V30 168 H 13.163 1.93377 -3.1145 0
M  V30 169 H 12.811 4.34206 -2.53917 0
M  V30 170 H 12.511 4.03804 -4.26868 0
M  V30 171 H 14.035 4.81561 -3.75408 0
M  V30 172 H 15.449 2.88654 -4.9533 0
M  V30 173 H 13.846 2.34044 -5.52579 0
M  V30 174 H 14.916 1.19327 -4.69988 0
M  V30 175 N 16.2591 1.48442 0.529413 0
M  V30 176 C 17.1921 1.57577 1.65059 0
M  V30 177 C 18.1701 0.426198 1.56915 0
M  V30 178 O 19.3541 0.637877 1.77379 0
M  V30 179 C 16.4811 1.5043 3.03461 0
M  V30 180 C 15.5271 2.70235 3.29962 0
M  V30 181 S 16.3601 4.32198 3.16172 0
M  V30 182 C 17.5161 4.2765 4.57019 0
M  V30 183 H 17.7491 2.52427 1.5706 0
M  V30 184 H 15.2821 1.36982 0.712417 0
M  V30 185 H 17.2401 1.46992 3.8328 0
M  V30 186 H 15.9011 0.569167 3.089 0
M  V30 187 H 15.0941 2.61374 4.30929 0
M  V30 188 H 14.6961 2.70938 2.57815 0
M  V30 189 H 16.9881 3.97618 5.48549 0
M  V30 190 H 17.9311 5.28797 4.70934 0
M  V30 191 H 18.3391 3.5811 4.36368 0
M  V30 192 N 17.7372 -0.778329 1.37039 0
M  V30 193 C 18.6672 -1.90546 1.34962 0
M  V30 194 C 19.6482 -1.68681 0.219274 0
M  V30 195 O 20.8332 -1.89634 0.418624 0
M  V30 196 C 17.9632 -3.27734 1.14925 0
M  V30 197 C 16.9172 -3.64147 2.24902 0
M  V30 198 C 16.2432 -4.99806 1.89996 0
M  V30 199 C 17.5432 -3.71579 3.67051 0
M  V30 200 H 19.2372 -1.92541 2.29277 0
M  V30 201 H 16.7832 -0.924948 1.10366 0
M  V30 202 H 18.7362 -4.06215 1.12104 0
M  V30 203 H 17.4602 -3.26154 0.170631 0
M  V30 204 H 16.1192 -2.8797 2.26868 0
M  V30 205 H 15.7672 -4.94759 0.906796 0
M  V30 206 H 15.4672 -5.25139 2.63634 0
M  V30 207 H 16.9912 -5.80694 1.88749 0
M  V30 208 H 18.4052 -4.40227 3.67251 0
M  V30 209 H 16.8022 -4.08405 4.39688 0
M  V30 210 H 17.8722 -2.72404 4.01154 0
M  V30 211 N 19.2153 -1.21501 -1.00376 0
M  V30 212 C 20.1453 -0.999478 -2.11028 0
M  V30 213 C 21.1263 0.0759671 -1.6993 0
M  V30 214 O 22.3113 -0.0841106 -1.94018 0
M  V30 215 C 19.4413 -0.564709 -3.42678 0
M  V30 216 C 18.3953 -1.58486 -3.97576 0
M  V30 217 C 17.7213 -1.00628 -5.25146 0
M  V30 218 C 19.0213 -2.97204 -4.29496 0
M  V30 219 H 20.7153 -1.92495 -2.29317 0
M  V30 220 H 18.2613 -0.92693 -1.102 0
M  V30 221 H 20.2143 -0.401091 -4.19487 0
M  V30 222 H 18.9383 0.396411 -3.24185 0
M  V30 223 H 17.5973 -1.73606 -3.22888 0
M  V30 224 H 17.2453 -0.0368439 -5.02987 0
M  V30 225 H 16.9453 -1.68771 -5.62841 0
M  V30 226 H 18.4693 -0.854015 -6.04598 0
M  V30 227 H 19.8833 -2.8552 -4.97143 0
M  V30 228 H 18.2803 -3.62372 -4.78338 0
M  V30 229 H 19.3503 -3.47956 -3.3772 0
M  V30 230 N 20.6934 1.19889 -1.02296 0
M  V30 231 C 21.6264 2.21639 -0.543282 0
M  V30 232 C 22.6044 1.57275 0.412698 0
M  V30 233 O 23.7884 1.85568 0.331198 0
M  V30 234 C 20.9154 3.38057 0.208571 0
M  V30 235 C 19.9614 4.20751 -0.697933 0
M  V30 236 S 20.7944 4.89529 -2.17075 0
M  V30 237 C 21.9504 6.09363 -1.42923 0
M  V30 238 H 22.1834 2.61984 -1.40541 0
M  V30 239 H 19.7164 1.30041 -0.832387 0
M  V30 240 H 21.6744 4.05539 0.63624 0
M  V30 241 H 20.3354 2.96159 1.04635 0
M  V30 242 H 19.5284 5.03862 -0.117831 0
M  V30 243 H 19.1304 3.58556 -1.06366 0
M  V30 244 H 21.4224 6.73742 -0.712637 0
M  V30 245 H 22.3654 6.71845 -2.23673 0
M  V30 246 H 22.7734 5.56798 -0.929327 0
M  V30 247 N 22.1715 0.800033 1.35784 0
M  V30 248 C 23.1345 0.211565 2.28221 0
M  V30 249 C 24.1345 -0.59728 1.49296 0
M  V30 250 O 25.3245 -0.416721 1.69142 0
M  V30 251 C 22.4565 -0.705846 3.33513 0
M  V30 252 H 23.6495 1.02677 2.81776 0
M  V30 253 H 21.2025 0.570211 1.45528 0
M  V30 254 H 21.9375 -1.54498 2.85133 0
M  V30 255 H 21.7225 -0.127655 3.91892 0
M  V30 256 H 23.2125 -1.11211 4.02519 0
M  V30 257 N 23.6496 -1.47581 0.552962 0
M  V30 258 C 24.5796 -2.32762 -0.185451 0
M  V30 259 C 25.5606 -1.43527 -0.912905 0
M  V30 260 O 26.7456 -1.72388 -0.894201 0
M  V30 261 C 23.8756 -3.25219 -1.21859 0
M  V30 262 C 22.8296 -4.23661 -0.607864 0
M  V30 263 C 22.1556 -5.05413 -1.74533 0
M  V30 264 C 23.4556 -5.20481 0.435582 0
M  V30 265 H 25.1496 -2.94749 0.525684 0
M  V30 266 H 22.6956 -1.41738 0.254251 0
M  V30 267 H 24.6486 -3.8365 -1.7433 0
M  V30 268 H 23.3726 -2.61279 -1.95961 0
M  V30 269 H 22.0316 -3.66451 -0.104489 0
M  V30 270 H 21.6796 -4.3788 -2.47529 0
M  V30 271 H 21.3796 -5.72059 -1.34249 0
M  V30 272 H 22.9036 -5.66701 -2.27338 0
M  V30 273 H 24.3176 -5.733 -0.00290157 0
M  V30 274 H 22.7146 -5.95305 0.757067 0
M  V30 275 H 23.7846 -4.66217 1.33303 0
M  V30 276 N 25.1277 -0.289203 -1.54924 0
M  V30 277 C 26.3737 0.323998 -2.00195 0
M  V30 278 C 26.7067 1.54441 -1.17735 0
M  V30 279 O 25.9817 1.92875 -0.250878 0
M  V30 280 C 26.2647 0.692276 -3.53383 0
M  V30 281 C 26.1177 -0.536457 -4.46589 0
M  V30 282 C 27.4367 1.52335 -4.12895 0
M  V30 283 H 24.5557 0.116289 -0.727768 0
M  V30 284 H 27.1977 -0.398954 -1.85764 0
M  V30 285 H 25.3477 1.30822 -3.65811 0
M  V30 286 H 27.0197 -1.17499 -4.46085 0
M  V30 287 H 25.2627 -1.17192 -4.1767 0
M  V30 288 H 25.9337 -0.234806 -5.515 0
M  V30 289 H 28.4097 1.00302 -4.0383 0
M  V30 290 H 27.2857 1.74982 -5.20262 0
M  V30 291 H 27.5467 2.50886 -3.64018 0
M  V30 292 N 26.6058 1.57591 -0.0167156 0
M  V30 293 C 27.8338 1.95575 0.675128 0
M  V30 294 C 28.2488 0.892542 1.6637 0
M  V30 295 O 27.6058 -0.126912 1.82058 0
M  V30 296 C 27.6568 3.33608 1.39239 0
M  V30 297 O 27.3778 4.3585 0.443444 0
M  V30 298 C 28.8788 3.86151 2.17721 0
M  V30 299 H 26.0988 0.644423 0.186978 0
M  V30 300 H 28.6428 2.0437 -0.0728 0
M  V30 301 H 26.7978 3.2607 2.09182 0
M  V30 302 H 27.2118 5.158 0.951358 0
M  V30 303 H 28.6858 4.85114 2.63379 0
M  V30 304 H 29.1628 3.19738 3.01105 0
M  V30 305 H 29.7688 3.96918 1.52761 0
M  V30 306 N 28.0839 -0.256276 1.55502 0
M  V30 307 C 29.0159 -1.33981 1.85962 0
M  V30 308 C 30.0289 -1.44743 0.745212 0
M  V30 309 O 31.2179 -1.4626 1.02324 0
M  V30 310 C 28.3179 -2.7194 2.02242 0
M  V30 311 C 27.4909 -2.83562 3.33033 0
M  V30 312 C 26.5499 -4.02304 3.39172 0
M  V30 313 O 25.5759 -3.92273 4.12444 0
M  V30 314 N 26.7779 -5.15045 2.67784 0
M  V30 315 H 29.5429 -1.08191 2.7949 0
M  V30 316 H 27.1039 -0.446388 1.55624 0
M  V30 317 H 29.0959 -3.49697 2.03701 0
M  V30 318 H 27.6659 -2.90479 1.15502 0
M  V30 319 H 26.8859 -1.92555 3.43971 0
M  V30 320 H 28.1739 -2.88271 4.19258 0
M  V30 321 H 27.5719 -5.26085 2.07968 0
M  V30 322 H 26.1289 -5.90972 2.74947 0
M  V30 323 N 29.562 -1.4872 -0.521534 0
M  V30 324 C 30.81 -1.56857 -1.27437 0
M  V30 325 C 31.131 -0.247982 -1.93417 0
M  V30 326 O 30.401 0.731151 -1.81744 0
M  V30 327 H 28.981 -0.577885 -0.473347 0
M  V30 328 H 31.643 -1.85233 -0.606205 0
M  V30 329 H 30.739 -2.35402 -2.0492 0
M  V30 330 N 31.0401 0.771051 -1.3745 0
M  V30 331 C 32.3171 1.519 -1.23231 0
M  V30 332 C 32.6971 2.10383 0.173809 0
M  V30 333 O 32.0451 1.95583 1.18151 0
M  V30 334 C 32.2551 2.59933 -2.32886 0
M  V30 335 C 33.6031 3.27316 -2.70461 0
M  V30 336 O 34.6271 2.70228 -2.32068 0
M  V30 337 O 33.4861 4.30531 -3.36608 0
M  V30 338 H 30.5801 0.672803 -0.480901 0
M  V30 339 H 33.1261 0.807957 -1.49232 0
M  V30 340 H 31.8981 2.14842 -3.27045 0
M  V30 341 H 31.5211 3.38637 -2.08353 0
M  V30 342 N 32.5182 1.22032 0.997298 0
M  V30 343 C 33.9292 1.0397 1.55071 0
M  V30 344 C 34.2802 -0.398192 1.92117 0
M  V30 345 O 33.4052 -1.28254 1.74298 0
M  V30 346 C 34.0002 1.88109 2.81781 0
M  V30 347 C 32.5592 1.74357 3.33581 0
M  V30 348 C 31.7062 1.84846 2.06706 0
M  V30 349 H 34.6572 1.35941 0.818883 0
M  V30 350 H 34.6782 1.39589 3.53971 0
M  V30 351 H 34.1902 2.92754 2.54787 0
M  V30 352 H 32.2912 0.72427 3.65493 0
M  V30 353 H 32.4042 2.56772 4.04481 0
M  V30 354 H 30.7682 1.28238 2.20062 0
M  V30 355 H 31.5512 2.91014 1.82114 0
M  V30 356 N 33.9963 -1.19345 1.0293 0
M  V30 357 C 35.2423 -1.89318 0.727083 0
M  V30 358 C 35.5753 -1.79446 -0.742483 0
M  V30 359 O 34.8503 -1.1871 -1.54072 0
M  V30 360 C 35.1333 -3.40238 1.17942 0
M  V30 361 C 34.9863 -3.58979 2.71024 0
M  V30 362 C 36.3053 -4.33479 0.760548 0
M  V30 363 H 33.4243 -0.687475 0.265606 0
M  V30 364 H 36.0663 -1.40477 1.2793 0
M  V30 365 H 34.2163 -3.81964 0.709608 0
M  V30 366 H 35.8883 -3.26421 3.25955 0
M  V30 367 H 34.1313 -3.02018 3.11396 0
M  V30 368 H 34.8023 -4.64823 2.9773 0
M  V30 369 H 37.2783 -3.99469 1.16464 0
M  V30 370 H 36.1543 -5.37664 1.10493 0
M  V30 371 H 36.4153 -4.40813 -0.337063 0
M  V30 372 N 35.4744 -0.807222 -1.35358 0
M  V30 373 C 36.4214 -0.216037 -2.29787 0
M  V30 374 C 37.3914 0.650278 -1.52842 0
M  V30 375 O 38.5764 0.595227 -1.81278 0
M  V30 376 C 35.7164 0.628893 -3.39321 0
M  V30 377 C 34.8294 -0.257927 -4.31229 0
M  V30 378 C 33.9644 0.595069 -5.27856 0
M  V30 379 C 33.0034 -0.292111 -6.11403 0
M  V30 380 N 32.1404 0.520895 -7.00165 0
M  V30 381 H 36.9804 -1.02671 -2.79755 0
M  V30 382 H 34.5174 -0.517839 -1.37684 0
M  V30 383 H 36.4754 1.13393 -4.01494 0
M  V30 384 H 35.1054 1.40482 -2.90628 0
M  V30 385 H 34.1574 -0.881076 -3.70056 0
M  V30 386 H 35.4694 -0.940759 -4.89848 0
M  V30 387 H 34.6234 1.16522 -5.95405 0
M  V30 388 H 33.3624 1.31146 -4.69736 0
M  V30 389 H 32.3674 -0.874525 -5.428 0
M  V30 390 H 33.5924 -1.00638 -6.71602 0
M  V30 391 H 31.5384 1.22125 -6.44532 0
M  V30 392 H 31.4554 -0.103877 -7.55929 0
M  V30 393 H 32.7234 1.0743 -7.72062 0
M  V30 394 N 36.9525 1.47285 -0.560781 0
M  V30 395 C 38.3635 1.86258 -0.128343 0
M  V30 396 C 38.7145 1.46699 1.30284 0
M  V30 397 O 37.8395 0.871698 1.98067 0
M  V30 398 C 38.4345 3.38044 -0.22614 0
M  V30 399 C 36.9935 3.76096 0.151283 0
M  V30 400 C 36.1405 2.71335 -0.572084 0
M  V30 401 H 39.0915 1.38752 -0.770297 0
M  V30 402 H 39.1125 3.76441 0.554322 0
M  V30 403 H 38.6245 3.66806 -1.26788 0
M  V30 404 H 36.7255 3.52951 1.19399 0
M  V30 405 H 36.8385 4.78641 -0.209765 0
M  V30 406 H 35.2025 2.54696 -0.0147653 0
M  V30 407 H 35.9855 3.02938 -1.61504 0
M  V30 408 N 38.4306 0.297415 1.54768 0
M  V30 409 C 39.6556 -0.318435 2.04941 0
M  V30 410 C 40.0806 -1.4701 1.17345 0
M  V30 411 O 39.4386 -1.80436 0.176758 0
M  V30 412 C 39.4866 -0.755749 3.52592 0
M  V30 413 O 38.5906 -1.86088 3.68028 0
M  V30 414 H 37.9316 -0.062421 0.661059 0
M  V30 415 H 40.4616 0.438215 1.99852 0
M  V30 416 H 40.4716 -1.04552 3.94376 0
M  V30 417 H 39.1466 0.0867233 4.1581 0
M  V30 418 H 37.7236 -1.57193 3.38149 0
M  V30 419 N 39.9087 -1.5758 0.0250728 0
M  V30 420 C 41.3247 -1.56124 -0.331282 0
M  V30 421 C 41.5247 -1.03029 -1.73169 0
M  V30 422 O 40.5807 -0.675215 -2.43305 0
M  V30 423 C 41.8937 -3.00139 -0.183584 0
M  V30 424 C 43.4417 -3.11946 -0.256654 0
M  V30 425 C 43.9167 -4.57793 -0.137792 0
M  V30 426 N 45.4077 -4.6279 -0.194904 0
M  V30 427 C 46.1427 -5.7326 -0.126655 0
M  V30 428 N 45.6387 -6.928 -0.00755288 0
M  V30 429 N 47.4317 -5.61811 -0.180348 0
M  V30 430 H 39.5827 -1.90424 0.94087 0
M  V30 431 H 41.8457 -0.875761 0.362968 0
M  V30 432 H 41.5517 -3.4292 0.780927 0
M  V30 433 H 41.4257 -3.64899 -0.955448 0
M  V30 434 H 43.8127 -2.69079 -1.21162 0
M  V30 435 H 43.8937 -2.49915 0.545517 0
M  V30 436 H 43.5377 -5.01339 0.813739 0
M  V30 437 H 43.4677 -5.17798 -0.958775 0
M  V30 438 H 45.9587 -3.76807 -0.287267 0
M  V30 439 H 46.2717 -7.72791 0.0379428 0
M  V30 440 H 44.6167 -6.94995 0.0271731 0
M  V30 441 H 47.8077 -4.6731 -0.271767 0
M  V30 442 H 47.9807 -6.47882 -0.123697 0
M  V30 443 N 41.3868 0.248026 -1.55636 0
M  V30 444 C 42.6348 0.974295 -1.77065 0
M  V30 445 C 42.9558 1.85897 -0.588849 0
M  V30 446 O 42.2258 1.91868 0.395407 0
M  V30 447 H 40.8058 0.362733 -0.653019 0
M  V30 448 H 43.4678 0.266244 -1.93073 0
M  V30 449 H 42.5638 1.59667 -2.68166 0
M  V30 450 N 42.8649 1.48995 0.513639 0
M  V30 451 C 44.2759 1.5119 1.09537 0
M  V30 452 C 44.6269 0.290906 1.94031 0
M  V30 453 O 43.7519 -0.60049 2.07902 0
M  V30 454 C 44.3469 2.73964 1.99322 0
M  V30 455 C 42.9059 2.78978 2.52682 0
M  V30 456 C 42.0529 2.44934 1.30009 0
M  V30 457 H 45.0039 1.55875 0.298125 0
M  V30 458 H 45.0249 2.53409 2.83838 0
M  V30 459 H 44.5369 3.62813 1.37799 0
M  V30 460 H 42.6379 1.94378 3.1788 0
M  V30 461 H 42.7509 3.8083 2.90698 0
M  V30 462 H 41.1149 1.9644 1.62122 0
M  V30 463 H 41.8979 3.36043 0.702131 0
M  V30 464 N 44.343 -0.763751 1.37857 0
M  V30 465 C 45.273 -1.89103 1.36975 0
M  V30 466 C 46.254 -1.68439 0.237152 0
M  V30 467 O 47.439 -1.8918 0.438713 0
M  V30 468 C 44.569 -3.26496 1.18395 0
M  V30 469 C 43.523 -3.61741 2.28751 0
M  V30 470 C 42.849 -4.97762 1.95286 0
M  V30 471 C 44.149 -3.67665 3.70972 0
M  V30 472 H 45.843 -1.90099 2.31307 0
M  V30 473 H 43.389 -0.91319 1.11341 0
M  V30 474 H 45.342 -4.05003 1.16406 0
M  V30 475 H 44.066 -3.25955 0.205215 0
M  V30 476 H 42.725 -2.85547 2.29909 0
M  V30 477 H 42.373 -4.93769 0.959221 0
M  V30 478 H 42.073 -5.22313 2.69189 0
M  V30 479 H 43.597 -5.7866 1.94898 0
M  V30 480 H 45.011 -4.36307 3.719 0
M  V30 481 H 43.408 -4.03718 4.43995 0
M  V30 482 H 44.478 -2.68134 4.0402 0
M  V30 483 N 45.8211 -1.22559 -0.990812 0
M  V30 484 C 47.0671 -1.05297 -1.73322 0
M  V30 485 C 47.4001 0.410655 -1.89808 0
M  V30 486 O 46.6751 1.30439 -1.44277 0
M  V30 487 C 46.9581 -1.76713 -3.13759 0
M  V30 488 C 46.8111 -3.30684 -3.04907 0
M  V30 489 C 48.1301 -1.52121 -4.12974 0
M  V30 490 H 45.2491 -0.38392 -0.629106 0
M  V30 491 H 47.8911 -1.50926 -1.15418 0
M  V30 492 H 46.0411 -1.37924 -3.63193 0
M  V30 493 H 47.7131 -3.7893 -2.63077 0
M  V30 494 H 45.9561 -3.60253 -2.41661 0
M  V30 495 H 46.6271 -3.75833 -4.04294 0
M  V30 496 H 49.1031 -1.85819 -3.72304 0
M  V30 497 H 47.9791 -2.04582 -5.0935 0
M  V30 498 H 48.2401 -0.454257 -4.3976 0
M  V30 499 N 47.2992 1.18797 -1.03562 0
M  V30 500 C 48.5272 1.92599 -0.755869 0
M  V30 501 C 48.9422 1.75886 0.686271 0
M  V30 502 O 48.2992 1.08517 1.46732 0
M  V30 503 C 48.3502 3.44159 -1.10619 0
M  V30 504 O 48.0712 3.60341 -2.4917 0
M  V30 505 C 49.5722 4.3507 -0.850214 0
M  V30 506 H 46.7922 0.611587 -0.276048 0
M  V30 507 H 49.3362 1.50742 -1.38192 0
M  V30 508 H 47.4912 3.83823 -0.525194 0
M  V30 509 H 47.9052 4.54128 -2.62427 0
M  V30 510 H 49.3792 5.39989 -1.14523 0
M  V30 511 H 49.8562 4.38673 0.215176 0
M  V30 512 H 50.4622 4.01097 -1.41426 0
M  V30 513 N 48.7773 0.814389 1.34928 0
M  V30 514 C 50.0173 0.404165 2.00364 0
M  V30 515 C 50.3813 -1.01166 1.63185 0
M  V30 516 O 51.5823 -1.52431 2.21401 0
M  V30 517 C 49.8533 0.590718 3.52484 0
M  V30 518 S 51.4123 0.272075 4.37956 0
M  V30 519 H 48.2303 0.15311 0.694319 0
M  V30 520 H 50.8323 1.05834 1.64376 0
M  V30 521 H 49.5363 1.62099 3.77031 0
M  V30 522 H 49.0673 -0.0785013 3.93322 0
M  V30 523 H 51.0823 -0.917405 4.87645 0
M  V30 524 N 50.2554 -1.46986 0.568584 0
M  V30 525 C 51.4834 -2.0683 0.0539956 0
M  V30 526 C 51.8984 -1.41953 -1.24478 0
M  V30 527 O 51.2554 -0.519933 -1.74937 0
M  V30 528 C 51.3064 -3.61254 -0.133362 0
M  V30 529 O 51.0274 -4.237 1.11399 0
M  V30 530 C 52.5284 -4.37992 -0.683927 0
M  V30 531 H 49.7484 -0.669058 0.0510141 0
M  V30 532 H 52.2924 -1.88824 0.785234 0
M  V30 533 H 50.4474 -3.78735 -0.81477 0
M  V30 534 H 50.8614 -5.16388 0.91888 0
M  V30 535 H 52.3354 -5.46684 -0.764263 0
M  V30 536 H 52.8124 -4.05058 -1.69778 0
M  V30 537 H 53.4184 -4.25283 -0.0378494 0
M  V30 538 N 51.7335 -0.305618 -1.54608 0
M  V30 539 C 52.9735 0.303114 -2.0214 0
M  V30 540 C 53.3375 1.50737 -1.18921 0
M  V30 541 O 54.5385 2.18778 -1.56172 0
M  V30 542 C 52.8095 0.646332 -3.51507 0
M  V30 543 S 54.3685 1.23727 -4.20995 0
M  V30 544 H 51.1865 0.0927643 -0.704923 0
M  V30 545 H 53.7885 -0.434566 -1.90609 0
M  V30 546 H 52.4925 -0.238541 -4.09706 0
M  V30 547 H 52.0235 1.41468 -3.67084 0
M  V30 548 H 54.0385 2.52489 -4.27158 0
M  V30 549 N 53.2116 1.57565 -0.0334293 0
M  V30 550 C 54.1216 2.13943 0.962572 0
M  V30 551 C 55.1376 1.09276 1.35406 0
M  V30 552 O 56.3136 1.41355 1.4346 0
M  V30 553 C 53.3786 2.65887 2.22497 0
M  V30 554 C 52.4396 3.85286 1.8935 0
M  V30 555 C 51.6726 4.34743 3.09571 0
M  V30 556 O 51.8956 3.83352 4.22371 0
M  V30 557 O 50.8296 5.26538 2.91618 0
M  V30 558 H 54.6556 2.99333 0.513169 0
M  V30 559 H 52.2406 1.4822 0.18743 0
M  V30 560 H 54.1226 2.99346 2.96598 0
M  V30 561 H 52.7976 1.83578 2.6661 0
M  V30 562 H 51.7046 3.56746 1.1262 0
M  V30 563 H 53.0376 4.68771 1.5005 0
M  V30 564 N 54.6897 -0.239769 1.55765 0
M  V30 565 C 55.9147 -0.988373 1.82335 0
M  V30 566 C 56.3397 -1.77886 0.611421 0
M  V30 567 O 55.6977 -1.75889 -0.439639 0
M  V30 568 C 55.7457 -1.89627 3.06715 0
M  V30 569 O 54.8497 -2.98904 2.84131 0
M  V30 570 H 54.1907 -0.280858 0.601677 0
M  V30 571 H 56.7207 -0.258597 2.02959 0
M  V30 572 H 56.7307 -2.30957 3.36338 0
M  V30 573 H 55.4057 -1.31511 3.9456 0
M  V30 574 H 53.9827 -2.61651 2.65694 0
M  V30 575 N 56.1678 -1.49265 -0.50573 0
M  V30 576 C 57.5788 -1.51769 -1.08734 0
M  V30 577 C 57.9298 -0.301192 -1.93874 0
M  V30 578 O 57.0548 0.589456 -2.08217 0
M  V30 579 C 57.6498 -2.75017 -1.97867 0
M  V30 580 C 56.2088 -2.80314 -2.51199 0
M  V30 581 C 55.3558 -2.4562 -1.28709 0
M  V30 582 H 58.3068 -1.56031 -0.289855 0
M  V30 583 H 58.3278 -2.5491 -2.82491 0
M  V30 584 H 57.8398 -3.63539 -1.35873 0
M  V30 585 H 55.9408 -1.96061 -3.16845 0
M  V30 586 H 56.0538 -3.82366 -2.88675 0
M  V30 587 H 54.4178 -1.97297 -1.61078 0
M  V30 588 H 55.2008 -3.36411 -0.6843 0
M  V30 589 N 57.6459 0.756429 -1.3826 0
M  V30 590 C 58.5959 1.86069 -1.31766 0
M  V30 591 C 59.5799 1.59621 -0.202483 0
M  V30 592 O 60.7719 1.7149 -0.438211 0
M  V30 593 C 57.9009 3.23742 -1.1422 0
M  V30 594 C 56.9869 3.56091 -2.30348 0
M  V30 595 N 57.3779 3.59517 -3.55783 0
M  V30 596 C 55.6759 3.86341 -2.22838 0
M  V30 597 C 56.3769 3.89052 -4.32451 0
M  V30 598 N 55.3529 4.05736 -3.61772 0
M  V30 599 H 59.1549 1.86992 -2.26741 0
M  V30 600 H 56.6689 0.953643 -1.31451 0
M  V30 601 H 58.6659 4.02761 -1.07652 0
M  V30 602 H 57.3259 3.24073 -0.201763 0
M  V30 603 H 58.3369 3.41347 -3.89491 0
M  V30 604 H 55.0139 3.94404 -1.36937 0
M  V30 605 H 56.4039 3.98349 -5.4108 0
M  V30 606 N 59.124 1.23083 0.984299 0
M  V30 607 C 60.364 1.07226 1.74017 0
M  V30 608 C 60.728 -0.384766 1.88105 0
M  V30 609 O 61.929 -0.664411 2.60459 0
M  V30 610 C 60.2 1.77348 3.10294 0
M  V30 611 S 61.759 1.77014 4.01512 0
M  V30 612 H 58.577 0.383819 0.598502 0
M  V30 613 H 61.179 1.56158 1.17622 0
M  V30 614 H 59.883 2.82506 2.97689 0
M  V30 615 H 59.414 1.28682 3.71759 0
M  V30 616 H 61.429 0.825956 4.89277 0
M  V30 617 N 60.6021 -1.18246 1.0419 0
M  V30 618 C 61.5491 -2.2192 0.634037 0
M  V30 619 C 62.5191 -1.62179 -0.358765 0
M  V30 620 O 63.7041 -1.89122 -0.252466 0
M  V30 621 C 60.8441 -3.451 0.00445535 0
M  V30 622 C 59.9571 -4.19174 1.04487 0
M  V30 623 C 59.0921 -5.29813 0.383676 0
M  V30 624 C 58.1311 -5.9566 1.4091 0
M  V30 625 N 57.2681 -6.97834 0.772784 0
M  V30 626 H 62.1081 -2.56164 1.52263 0
M  V30 627 H 59.6451 -1.25843 0.761701 0
M  V30 628 H 61.6031 -4.15485 -0.377919 0
M  V30 629 H 60.2331 -3.11472 -0.847652 0
M  V30 630 H 59.2851 -3.47604 1.54518 0
M  V30 631 H 60.5971 -4.64267 1.82368 0
M  V30 632 H 59.7511 -6.06677 -0.0528366 0
M  V30 633 H 58.4901 -4.85825 -0.427208 0
M  V30 634 H 57.4951 -5.17535 1.85574 0
M  V30 635 H 58.7201 -6.4173 2.22171 0
M  V30 636 H 56.6661 -6.55998 -0.0177708 0
M  V30 637 H 56.5831 -7.41186 1.48928 0
M  V30 638 H 57.8511 -7.78665 0.36071 0
M  V30 639 N 62.0802 -0.821533 -1.34494 0
M  V30 640 C 63.3282 -0.408139 -1.97936 0
M  V30 641 C 63.6492 1.03193 -1.65457 0
M  V30 642 O 62.9192 1.71622 -0.944595 0
M  V30 643 H 61.4992 -0.147928 -0.732206 0
M  V30 644 H 64.1612 -1.05067 -1.64155 0
M  V30 645 H 63.2572 -0.52601 -3.07635 0
M  V30 646 N 63.5583 1.46682 -0.576371 0
M  V30 647 C 64.9693 1.86112 -0.148091 0
M  V30 648 C 65.3203 1.48073 1.2872 0
M  V30 649 O 64.4453 0.892656 1.97131 0
M  V30 650 C 65.0403 3.37786 -0.261982 0
M  V30 651 C 63.5993 3.76235 0.111384 0
M  V30 652 C 62.7463 2.70713 -0.60083 0
M  V30 653 H 65.6973 1.37927 -0.78497 0
M  V30 654 H 65.7183 3.77007 0.514364 0
M  V30 655 H 65.2303 3.6544 -1.30671 0
M  V30 656 H 63.3313 3.54198 1.15649 0
M  V30 657 H 63.4443 4.78391 -0.26052 0
M  V30 658 H 61.8083 2.54666 -0.0417783 0
M  V30 659 H 62.5913 3.01208 -1.64708 0
M  V30 660 N 65.0364 0.313813 1.54444 0
M  V30 661 C 66.2644 -0.293918 2.04802 0
M  V30 662 C 66.6794 -1.46537 1.19047 0
M  V30 663 O 66.0364 -1.81182 0.218939 0
M  V30 664 C 66.0874 -0.737806 3.53891 0
M  V30 665 O 65.8084 0.387038 4.36387 0
M  V30 666 C 67.3094 -1.40936 4.203 0
M  V30 667 H 64.5294 -0.0620057 0.668129 0
M  V30 668 H 67.0734 0.457169 1.99324 0
M  V30 669 H 65.2284 -1.43889 3.59687 0
M  V30 670 H 65.6424 0.0391274 5.24485 0
M  V30 671 H 67.1164 -1.67099 5.26101 0
M  V30 672 H 67.5934 -2.35355 3.70816 0
M  V30 673 H 68.1994 -0.751117 4.18615 0
M  V30 674 N 66.5145 -1.57545 0.0417849 0
M  V30 675 C 67.7545 -1.94185 -0.63809 0
M  V30 676 C 68.1185 -0.919339 -1.68559 0
M  V30 677 O 69.3195 -1.17236 -2.41886 0
M  V30 678 C 67.5905 -3.35672 -1.22714 0
M  V30 679 S 69.1495 -3.94256 -1.92633 0
M  V30 680 H 65.9675 -0.679353 -0.209764 0
M  V30 681 H 68.5695 -1.95199 0.108479 0
M  V30 682 H 67.2735 -4.07898 -0.452503 0
M  V30 683 H 66.8045 -3.38132 -2.01073 0
M  V30 684 H 68.8195 -3.7872 -3.20602 0
M  V30 685 N 67.9926 0.231505 -1.5589 0
M  V30 686 C 69.4086 0.580748 -1.48659 0
M  V30 687 C 69.6086 1.87617 -0.73498 0
M  V30 688 O 68.6646 2.51046 -0.270586 0
M  V30 689 C 69.9776 0.669202 -2.93159 0
M  V30 690 C 71.5256 0.760499 -3.03621 0
M  V30 691 C 72.0006 0.880383 -4.49459 0
M  V30 692 N 73.4916 0.944861 -4.53461 0
M  V30 693 C 74.2266 1.05716 -5.63571 0
M  V30 694 N 73.7226 1.13403 -6.83456 0
M  V30 695 N 75.5156 1.09152 -5.514 0
M  V30 696 H 67.6666 -0.618695 -2.03189 0
M  V30 697 H 69.9296 -0.215728 -0.923128 0
M  V30 698 H 69.6356 -0.212904 -3.51055 0
M  V30 699 H 69.5096 1.5361 -3.44505 0
M  V30 700 H 71.8966 1.63305 -2.45796 0
M  V30 701 H 71.9776 -0.131864 -2.5546 0
M  V30 702 H 71.6216 0.0123284 -5.07899 0
M  V30 703 H 71.5516 1.78802 -4.95316 0
M  V30 704 H 74.0426 0.896176 -3.6712 0
M  V30 705 H 74.3556 1.21921 -7.63122 0
M  V30 706 H 72.7006 1.10333 -6.86186 0
M  V30 707 H 75.8916 1.02805 -4.56671 0
M  V30 708 H 76.0646 1.17558 -6.37247 0
M  V30 709 N 69.4707 1.49531 0.497807 0
M  V30 710 C 70.7187 1.58865 1.24926 0
M  V30 711 C 71.0397 0.278721 1.92998 0
M  V30 712 O 70.3097 -0.702144 1.82885 0
M  V30 713 H 68.8897 0.585343 0.464094 0
M  V30 714 H 71.5517 1.86174 0.57666 0
M  V30 715 H 70.6477 2.38633 2.01149 0
M  V30 716 N 70.9488 -0.749086 1.3866 0
M  V30 717 C 71.9118 -1.84457 1.36045 0
M  V30 718 C 72.9118 -1.58682 0.260122 0
M  V30 719 O 74.1018 -1.66343 0.517261 0
M  V30 720 C 71.2338 -3.22008 1.11911 0
M  V30 721 H 72.4268 -1.88182 2.33512 0
M  V30 722 H 69.9798 -0.951266 1.24019 0
M  V30 723 H 70.7148 -3.2395 0.150686 0
M  V30 724 H 70.4998 -3.42111 1.91579 0
M  V30 725 H 71.9898 -4.0208 1.12788 0
M  V30 726 N 72.4269 -1.23603 -0.977757 0
M  V30 727 C 73.6729 -1.08136 -1.72274 0
M  V30 728 C 74.0279 0.377453 -1.88661 0
M  V30 729 O 73.3209 1.27552 -1.42972 0
M  V30 730 C 73.5149 -1.7433 -3.11999 0
M  V30 731 C 73.3439 -3.26498 -3.0924 0
M  V30 732 C 72.1139 -3.9567 -3.14282 0
M  V30 733 C 74.3119 -4.2323 -2.92201 0
M  V30 734 N 72.2939 -5.34799 -3.01436 0
M  V30 735 C 73.6649 -5.49289 -2.87544 0
M  V30 736 C 75.7199 -4.13931 -2.76705 0
M  V30 737 C 74.4229 -6.67116 -2.68978 0
M  V30 738 C 76.4489 -5.31424 -2.59504 0
M  V30 739 C 75.8109 -6.5641 -2.55548 0
M  V30 740 H 71.9099 -0.450247 -0.639376 0
M  V30 741 H 74.4939 -1.5637 -1.16002 0
M  V30 742 H 72.6649 -1.28624 -3.66484 0
M  V30 743 H 74.3969 -1.51815 -3.75146 0
M  V30 744 H 71.1519 -3.46767 -3.22567 0
M  V30 745 H 71.5759 -6.07748 -2.98281 0
M  V30 746 H 76.2179 -3.1807 -2.78552 0
M  V30 747 H 73.9359 -7.63109 -2.65876 0
M  V30 748 H 77.5219 -5.26072 -2.48474 0
M  V30 749 H 76.4019 -7.45795 -2.42405 0
M  V30 750 N 73.905 1.17692 -1.04816 0
M  V30 751 C 75.145 1.89545 -0.764979 0
M  V30 752 C 75.509 1.78979 0.695028 0
M  V30 753 O 76.71 2.45613 1.09215 0
M  V30 754 C 74.981 3.35659 -1.22751 0
M  V30 755 S 76.54 4.25526 -1.07112 0
M  V30 756 H 73.358 0.654432 -0.27792 0
M  V30 757 H 75.96 1.42163 -1.34201 0
M  V30 758 H 74.664 3.40882 -2.28533 0
M  V30 759 H 74.195 3.88083 -0.644594 0
M  V30 760 H 76.21 4.962 0.00697508 0
M  V30 761 N 75.3831 0.828654 1.34056 0
M  V30 762 C 76.6111 0.43262 2.02326 0
M  V30 763 C 77.0261 -0.963147 1.62385 0
M  V30 764 O 76.3831 -1.62425 0.832121 0
M  V30 765 C 76.4341 0.53182 3.57567 0
M  V30 766 O 76.1551 1.87258 3.96063 0
M  V30 767 C 77.6561 0.131422 4.43105 0
M  V30 768 H 74.8761 0.172923 0.648335 0
M  V30 769 H 77.4201 1.1184 1.71208 0
M  V30 770 H 75.5751 -0.105938 3.87255 0
M  V30 771 H 75.9891 1.85087 4.90758 0
M  V30 772 H 77.4631 0.251904 5.51425 0
M  V30 773 H 77.9401 -0.925645 4.29335 0
M  V30 774 H 78.5461 0.743207 4.18756 0
M  V30 775 N 76.8612 -1.46375 0.584142 0
M  V30 776 C 78.1072 -2.02678 0.0703716 0
M  V30 777 C 78.4402 -1.4545 -1.28678 0
M  V30 778 O 77.7152 -0.62014 -1.84349 0
M  V30 779 C 77.9982 -3.60099 0.00614674 0
M  V30 780 C 77.8512 -4.27709 1.3923 0
M  V30 781 C 79.1702 -4.34598 -0.693742 0
M  V30 782 H 76.2892 -0.736504 0.027047 0
M  V30 783 H 78.9312 -1.74501 0.751615 0
M  V30 784 H 77.0812 -3.84236 -0.574009 0
M  V30 785 H 78.7532 -4.14832 2.01773 0
M  V30 786 H 76.9962 -3.87016 1.95962 0
M  V30 787 H 77.6672 -5.36478 1.29982 0
M  V30 788 H 80.1432 -4.15615 -0.200869 0
M  V30 789 H 79.0192 -5.44318 -0.707714 0
M  V30 790 H 79.2802 -4.05759 -1.75533 0
M  V30 791 N 78.3393 -0.321999 -1.54275 0
M  V30 792 C 79.5853 0.281461 -2.00837 0
M  V30 793 C 79.9183 1.51909 -1.20985 0
M  V30 794 O 79.1933 1.923 -0.291733 0
M  V30 795 C 79.4763 0.617162 -3.54772 0
M  V30 796 C 79.3293 -0.631064 -4.45351 0
M  V30 797 C 80.6483 1.43542 -4.16033 0
M  V30 798 H 77.7673 0.100826 -0.730071 0
M  V30 799 H 80.4093 -0.438268 -1.84876 0
M  V30 800 H 78.5593 1.23034 -3.68504 0
M  V30 801 H 80.2313 -1.26934 -4.43492 0
M  V30 802 H 78.4743 -1.26025 -4.15091 0
M  V30 803 H 79.1453 -0.351735 -5.50878 0
M  V30 804 H 81.6213 0.917134 -4.05867 0
M  V30 805 H 80.4973 1.63907 -5.23856 0
M  V30 806 H 80.7583 2.43108 -3.69257 0
M  V30 807 N 79.8174 1.5752 -0.0501392 0
M  V30 808 C 80.7474 2.14502 0.922566 0
M  V30 809 C 81.7284 1.06642 1.3252 0
M  V30 810 O 82.9134 1.34577 1.4001 0
M  V30 811 C 80.0434 2.68916 2.19776 0
M  V30 812 C 78.9974 3.8175 1.93523 0
M  V30 813 C 78.3234 4.22677 3.27487 0
M  V30 814 C 79.6234 5.06932 1.25765 0
M  V30 815 H 81.3174 2.9603 0.447952 0
M  V30 816 H 78.8634 1.42401 0.214024 0
M  V30 817 H 80.8164 3.07419 2.88222 0
M  V30 818 H 79.5404 1.84578 2.69441 0
M  V30 819 H 78.1994 3.43718 1.27489 0
M  V30 820 H 77.8474 3.35291 3.74952 0
M  V30 821 H 77.5474 4.98725 3.1072 0
M  V30 822 H 79.0714 4.63779 3.97166 0
M  V30 823 H 80.4854 5.42888 1.84244 0
M  V30 824 H 78.8824 5.88116 1.19328 0
M  V30 825 H 79.9524 4.84337 0.233536 0
M  V30 826 N 81.2955 -0.223234 1.56011 0
M  V30 827 C 82.5415 -0.949279 1.79211 0
M  V30 828 C 82.8745 -1.84054 0.619494 0
M  V30 829 O 82.1495 -1.90726 -0.381317 0
M  V30 830 C 82.4325 -1.78965 3.12479 0
M  V30 831 C 82.2855 -0.924997 4.40186 0
M  V30 832 C 83.6045 -2.76774 3.42175 0
M  V30 833 H 80.7235 -0.343676 0.651963 0
M  V30 834 H 83.3655 -0.218253 1.88742 0
M  V30 835 H 81.5155 -2.41291 3.04485 0
M  V30 836 H 83.1875 -0.318615 4.60198 0
M  V30 837 H 81.4305 -0.230344 4.33188 0
M  V30 838 H 82.1015 -1.54735 5.29869 0
M  V30 839 H 84.5775 -2.24584 3.50287 0
M  V30 840 H 83.4535 -3.32678 4.36597 0
M  V30 841 H 83.7145 -3.54429 2.64258 0
M  V30 842 N 82.7736 -1.49793 -0.48987 0
M  V30 843 C 84.1896 -1.36803 -0.822022 0
M  V30 844 C 84.3896 -0.409652 -1.97292 0
M  V30 845 O 83.4456 0.154614 -2.52026 0
M  V30 846 C 84.7586 -2.77768 -1.15175 0
M  V30 847 C 86.3066 -2.86549 -1.25931 0
M  V30 848 C 86.7816 -4.28306 -1.62228 0
M  V30 849 N 88.2726 -4.31169 -1.69256 0
M  V30 850 C 89.0076 -5.37832 -1.98807 0
M  V30 851 N 88.5036 -6.54726 -2.26507 0
M  V30 852 N 90.2966 -5.25258 -2.00152 0
M  V30 853 H 82.4476 -2.10691 0.268881 0
M  V30 854 H 84.7106 -0.946241 0.057728 0
M  V30 855 H 84.4166 -3.49648 -0.379335 0
M  V30 856 H 84.2906 -3.13836 -2.09253 0
M  V30 857 H 86.6776 -2.14899 -2.02243 0
M  V30 858 H 86.7586 -2.54049 -0.298776 0
M  V30 859 H 86.4026 -5.00486 -0.864622 0
M  V30 860 H 86.3326 -4.58279 -2.594 0
M  V30 861 H 88.8236 -3.4687 -1.49965 0
M  V30 862 H 89.1366 -7.31833 -2.48276 0
M  V30 863 H 87.4816 -6.57933 -2.23939 0
M  V30 864 H 90.6726 -4.32938 -1.77996 0
M  V30 865 H 90.8456 -6.08476 -2.22848 0
M  V30 866 N 84.2517 0.741722 -1.39055 0
M  V30 867 C 85.1617 1.88621 -1.39496 0
M  V30 868 C 86.1777 1.71557 -0.290578 0
M  V30 869 O 87.3537 1.94275 -0.530954 0
M  V30 870 C 84.4187 3.24134 -1.23037 0
M  V30 871 C 83.4797 3.5364 -2.43387 0
M  V30 872 C 82.7127 4.82687 -2.27703 0
M  V30 873 O 82.9357 5.55922 -1.27696 0
M  V30 874 O 81.8697 5.1194 -3.16545 0
M  V30 875 H 85.6957 1.91203 -2.35956 0
M  V30 876 H 83.2807 0.888625 -1.20099 0
M  V30 877 H 85.1627 4.0513 -1.15964 0
M  V30 878 H 83.8377 3.22337 -0.296691 0
M  V30 879 H 82.7447 2.72758 -2.56035 0
M  V30 880 H 84.0777 3.60209 -3.35425 0
M  V30 881 N 85.7298 1.2412 0.971189 0
M  V30 882 C 86.6398 1.04747 2.09917 0
M  V30 883 C 87.6558 -0.0107162 1.73997 0
M  V30 884 O 88.8318 0.186714 2.00533 0
M  V30 885 C 85.8968 0.650828 3.40537 0
M  V30 886 C 84.9578 1.7851 3.90426 0
M  V30 887 C 84.1908 1.40729 5.14812 0
M  V30 888 O 84.4138 0.29557 5.69634 0
M  V30 889 O 83.3478 2.23168 5.58999 0
M  V30 890 H 87.1738 1.99304 2.29154 0
M  V30 891 H 84.7588 1.02908 1.08307 0
M  V30 892 H 86.6408 0.440992 4.19086 0
M  V30 893 H 85.3158 -0.265649 3.22608 0
M  V30 894 H 84.2228 2.04966 3.12953 0
M  V30 895 H 85.5558 2.68023 4.12825 0
M  V30 896 N 87.2079 -1.17134 1.05439 0
M  V30 897 C 88.4559 -1.87085 0.764429 0
M  V30 898 C 88.7769 -1.81584 -0.710787 0
M  V30 899 O 88.0469 -1.24349 -1.51374 0
M  V30 900 H 86.6269 -0.692627 0.279779 0
M  V30 901 H 89.2889 -1.42087 1.33406 0
M  V30 902 H 88.3849 -2.92759 1.0816 0
M  V30 903 N 88.686 -0.835752 -1.33615 0
M  V30 904 C 90.102 -0.523139 -1.50783 0
M  V30 905 C 90.302 0.950171 -1.77691 0
M  V30 906 O 89.358 1.73411 -1.83534 0
M  V30 907 C 90.671 -1.39378 -2.66448 0
M  V30 908 C 92.219 -1.39223 -2.80332 0
M  V30 909 C 92.694 -2.24765 -3.99055 0
M  V30 910 N 94.185 -2.22458 -4.06284 0
M  V30 911 C 94.92 -2.85386 -4.97336 0
M  V30 912 N 94.416 -3.57354 -5.93523 0
M  V30 913 N 96.209 -2.74872 -4.90308 0
M  V30 914 H 88.36 -1.78952 -1.14411 0
M  V30 915 H 90.623 -0.763297 -0.562212 0
M  V30 916 H 90.329 -2.44061 -2.53234 0
M  V30 917 H 90.203 -1.0676 -3.61776 0
M  V30 918 H 92.59 -0.353136 -2.92979 0
M  V30 919 H 92.671 -1.75846 -1.85773 0
M  V30 920 H 92.315 -3.28732 -3.87167 0
M  V30 921 H 92.245 -1.85485 -4.92852 0
M  V30 922 H 94.736 -1.70119 -3.37443 0
M  V30 923 H 95.049 -4.02584 -6.59656 0
M  V30 924 H 93.394 -3.61461 -5.93608 0
M  V30 925 H 96.585 -2.18213 -4.14126 0
M  V30 926 H 96.758 -3.24199 -5.61069 0
M  V30 927 N 90.1641 1.46063 -0.591896 0
M  V30 928 C 91.1141 2.27458 0.157172 0
M  V30 929 C 92.0981 1.3641 0.853301 0
M  V30 930 O 93.2901 1.60517 0.74588 0
M  V30 931 C 90.4191 3.22956 1.16423 0
M  V30 932 C 89.5051 4.2149 0.469742 0
M  V30 933 N 89.8961 5.03519 -0.479839 0
M  V30 934 C 88.1941 4.40161 0.719319 0
M  V30 935 C 88.8951 5.74904 -0.886591 0
M  V30 936 N 87.8711 5.43097 -0.233731 0
M  V30 937 H 91.6731 2.88272 -0.572392 0
M  V30 938 H 89.1871 1.57024 -0.414375 0
M  V30 939 H 91.1841 3.79986 1.71513 0
M  V30 940 H 89.8441 2.63701 1.89451 0
M  V30 941 H 90.8551 5.1078 -0.855823 0
M  V30 942 H 87.5321 3.92046 1.43548 0
M  V30 943 H 88.9221 6.50844 -1.66888 0
M  V30 944 N 91.6422 0.330177 1.54103 0
M  V30 945 C 93.0532 -0.15652 1.86043 0
M  V30 946 C 93.4042 -1.51086 1.2517 0
M  V30 947 O 92.5292 -2.09023 0.560217 0
M  V30 948 C 93.1242 -0.290784 3.3755 0
M  V30 949 C 91.6832 -0.721705 3.69416 0
M  V30 950 C 90.8302 0.152622 2.7688 0
M  V30 951 H 93.7812 0.550237 1.48856 0
M  V30 952 H 93.8022 -1.12058 3.63625 0
M  V30 953 H 93.3142 0.695068 3.81825 0
M  V30 954 H 91.4152 -1.71706 3.30678 0
M  V30 955 H 91.5282 -0.520869 4.7626 0
M  V30 956 H 89.8922 -0.372894 2.51956 0
M  V30 957 H 90.6752 1.13536 3.23982 0
M  V30 958 N 93.1203 -1.57491 0.0584922 0
M  V30 959 C 94.0523 -2.08916 -0.942694 0
M  V30 960 C 95.0653 -1.0185 -1.27006 0
M  V30 961 O 96.2543 -1.29398 -1.22957 0
M  V30 962 C 93.3543 -2.52341 -2.26224 0
M  V30 963 C 92.5273 -3.82827 -2.1157 0
M  V30 964 C 91.5863 -4.12487 -3.26712 0
M  V30 965 O 90.6123 -4.82295 -3.02292 0
M  V30 966 N 91.8143 -3.64978 -4.5141 0
M  V30 967 H 94.5793 -2.95437 -0.503722 0
M  V30 968 H 92.1403 -1.61397 -0.12757 0
M  V30 969 H 94.1323 -2.69254 -3.02133 0
M  V30 970 H 92.7023 -1.7103 -2.61663 0
M  V30 971 H 91.9223 -3.75425 -1.20208 0
M  V30 972 H 93.2103 -4.68263 -1.99015 0
M  V30 973 H 92.6083 -3.08558 -4.7414 0
M  V30 974 H 91.1653 -3.87115 -5.2439 0
M  V30 975 N 94.5984 0.214957 -1.56127 0
M  V30 976 C 95.5084 1.28727 -1.96129 0
M  V30 977 C 96.5244 1.50916 -0.866044 0
M  V30 978 O 97.7004 1.63918 -1.17016 0
M  V30 979 C 94.7654 2.61569 -2.27558 0
M  V30 980 C 93.8264 2.47625 -3.50685 0
M  V30 981 C 93.0594 3.74132 -3.80606 0
M  V30 982 O 93.2824 4.77438 -3.12104 0
M  V30 983 O 92.2164 3.70849 -4.74083 0
M  V30 984 H 96.0424 0.977855 -2.87527 0
M  V30 985 H 93.6274 0.418358 -1.43423 0
M  V30 986 H 95.5094 3.40012 -2.48938 0
M  V30 987 H 94.1844 2.92178 -1.39332 0
M  V30 988 H 93.0914 1.67361 -3.34576 0
M  V30 989 H 94.4244 2.21954 -4.39315 0
M  V30 990 N 96.0765 1.50051 0.48192 0
M  V30 991 C 97.0265 1.64512 1.5786 0
M  V30 992 C 98.0105 0.500073 1.52932 0
M  V30 993 O 99.2025 0.753964 1.60139 0
M  V30 994 C 96.3315 1.73263 2.9637 0
M  V30 995 C 95.4175 2.93409 3.06222 0
M  V30 996 N 95.8085 4.17236 2.85915 0
M  V30 997 C 94.1065 2.91742 3.37346 0
M  V30 998 C 94.8075 4.981 3.00451 0
M  V30 999 N 93.7835 4.3184 3.30174 0
M  V30 1000 H 97.5855 2.57955 1.40842 0
M  V30 1001 H 95.0995 1.47086 0.688439 0
M  V30 1002 H 97.0965 1.81724 3.75209 0
M  V30 1003 H 95.7565 0.809711 3.14442 0
M  V30 1004 H 96.7675 4.46909 2.6171 0
M  V30 1005 H 93.4445 2.08907 3.61475 0
M  V30 1006 H 94.8345 6.06532 2.89082 0
M  V30 1007 N 97.5546 -0.734337 1.39446 0
M  V30 1008 C 98.9706 -1.03997 1.21065 0
M  V30 1009 C 99.1706 -2.01369 0.0727019 0
M  V30 1010 O 98.2266 -2.45856 -0.575426 0
M  V30 1011 C 99.5396 -1.60163 2.54496 0
M  V30 1012 C 101.088 -1.7224 2.61347 0
M  V30 1013 C 101.563 -2.31814 3.95002 0
M  V30 1014 N 103.054 -2.39223 3.96644 0
M  V30 1015 C 103.789 -2.86258 4.96834 0
M  V30 1016 N 103.285 -3.33184 6.07421 0
M  V30 1017 N 105.078 -2.85473 4.84213 0
M  V30 1018 H 97.2286 -0.0885624 2.12215 0
M  V30 1019 H 99.4916 -0.10191 0.942506 0
M  V30 1020 H 99.1976 -0.960811 3.38321 0
M  V30 1021 H 99.0716 -2.5896 2.74262 0
M  V30 1022 H 101.459 -2.35443 1.77906 0
M  V30 1023 H 101.54 -0.720939 2.4543 0
M  V30 1024 H 101.184 -1.69238 4.78875 0
M  V30 1025 H 101.114 -3.32638 4.08239 0
M  V30 1026 H 103.605 -2.06057 3.16779 0
M  V30 1027 H 103.918 -3.67586 6.7978 0
M  V30 1028 H 102.263 -3.31191 6.11013 0
M  V30 1029 H 105.454 -2.48136 3.96921 0
M  V30 1030 H 105.627 -3.21814 5.62441 0
M  V30 1031 N 99.0327 -1.24633 -0.964593 0
M  V30 1032 C 100.281 -1.08573 -1.70459 0
M  V30 1033 C 100.602 0.375655 -1.91347 0
M  V30 1034 O 99.8717 1.26779 -1.49345 0
M  V30 1035 H 98.4517 -0.398784 -0.631649 0
M  V30 1036 H 101.114 -1.56601 -1.16026 0
M  V30 1037 H 100.21 -1.58623 -2.68785 0
M  V30 1038 N 100.511 1.16574 -1.06058 0
M  V30 1039 C 101.751 1.88723 -0.78504 0
M  V30 1040 C 102.115 1.79706 0.676006 0
M  V30 1041 O 103.316 2.46757 1.06603 0
M  V30 1042 C 101.587 3.34338 -1.26304 0
M  V30 1043 S 103.146 4.24366 -1.1162 0
M  V30 1044 H 99.9638 0.651448 -0.284846 0
M  V30 1045 H 102.566 1.40732 -1.35701 0
M  V30 1046 H 101.27 3.38439 -2.32136 0
M  V30 1047 H 100.801 3.87378 -0.685719 0
M  V30 1048 H 102.816 4.96179 -0.0456539 0
M  V30 1049 N 101.989 0.842826 1.3317 0
M  V30 1050 C 103.237 0.439577 1.97262 0
M  V30 1051 C 103.558 -1.00548 1.67078 0
M  V30 1052 O 102.828 -1.70098 0.971779 0
M  V30 1053 H 101.408 0.159558 0.72976 0
M  V30 1054 H 104.07 1.07665 1.62463 0
M  V30 1055 H 103.166 0.574886 3.0676 0
M  V30 1056 N 103.467 -1.45747 0.599634 0
M  V30 1057 C 104.415 -2.322 -0.136426 0
M  V30 1058 C 105.409 -1.45497 -0.867583 0
M  V30 1059 O 106.615 -1.62027 -0.78405 0
M  V30 1060 H 102.99 -0.749368 -0.0628588 0
M  V30 1061 H 104.961 -2.92072 0.611281 0
M  V30 1062 C 103.71 -3.28974 -1.12567 0
M  V30 1063 H 103.033 -3.9568 -0.572484 0
M  V30 1064 H 104.473 -3.92212 -1.61077 0
M  V30 1065 C 102.932 -2.55561 -2.19523 0
M  V30 1066 O 103.462 -2.33111 -3.27143 0
M  V30 1067 N 101.668 -2.15832 -1.94589 0
M  V30 1068 H 101.215 -2.3429 -1.07078 0
M  V30 1069 H 101.173 -1.67034 -2.66359 0
M  V30 1070 N 104.945 -0.338344 -1.53925 0
M  V30 1071 C 105.875 0.51328 -2.27789 0
M  V30 1072 C 106.856 1.107 -1.29149 0
M  V30 1073 O 108.041 1.12937 -1.57984 0
M  V30 1074 C 105.171 1.66697 -3.04679 0
M  V30 1075 C 104.125 1.20183 -4.1078 0
M  V30 1076 C 103.451 2.44363 -4.75595 0
M  V30 1077 C 104.751 0.30605 -5.21403 0
M  V30 1078 H 106.445 -0.102883 -2.99223 0
M  V30 1079 H 103.991 -0.0509219 -1.4391 0
M  V30 1080 H 105.944 2.26915 -3.55088 0
M  V30 1081 H 104.668 2.30995 -2.30887 0
M  V30 1082 H 103.327 0.622499 -3.61276 0
M  V30 1083 H 102.975 3.07057 -3.98403 0
M  V30 1084 H 102.675 2.13925 -5.47275 0
M  V30 1085 H 104.199 3.05317 -5.28786 0
M  V30 1086 H 105.613 0.814929 -5.67478 0
M  V30 1087 H 104.01 0.0937929 -6.00027 0
M  V30 1088 H 105.08 -0.65921 -4.80398 0
M  V30 1089 N 106.423 1.57458 -0.0668435 0
M  V30 1090 C 107.373 2.0896 0.912119 0
M  V30 1091 C 108.357 0.998186 1.26195 0
M  V30 1092 O 109.549 1.26133 1.24175 0
M  V30 1093 C 106.678 2.6508 2.18145 0
M  V30 1094 C 105.764 3.81218 1.85832 0
M  V30 1095 N 106.155 4.90378 1.23948 0
M  V30 1096 C 104.453 3.9042 2.15612 0
M  V30 1097 C 105.154 5.71279 1.09616 0
M  V30 1098 N 104.13 5.19389 1.60423 0
M  V30 1099 H 107.932 2.90749 0.42924 0
M  V30 1100 H 105.446 1.6182 0.137184 0
M  V30 1101 H 107.443 3.0029 2.89192 0
M  V30 1102 H 106.103 1.84736 2.67025 0
M  V30 1103 H 107.114 5.09847 0.909731 0
M  V30 1104 H 103.791 3.21043 2.66903 0
M  V30 1105 H 105.181 6.69085 0.614425 0
M  V30 1106 N 107.901 -0.206675 1.56239 0
M  V30 1107 C 109.317 -0.557025 1.49564 0
M  V30 1108 C 109.517 -1.86424 0.764735 0
M  V30 1109 O 108.573 -2.50584 0.310491 0
M  V30 1110 C 109.886 -0.622478 2.94186 0
M  V30 1111 C 111.434 -0.712099 3.04792 0
M  V30 1112 C 111.909 -0.808767 4.50803 0
M  V30 1113 N 113.4 -0.8726 4.54907 0
M  V30 1114 C 114.135 -0.967365 5.65181 0
M  V30 1115 N 113.631 -1.02515 6.85173 0
M  V30 1116 N 115.424 -1.00366 5.53067 0
M  V30 1117 H 107.575 0.650943 2.02179 0
M  V30 1118 H 109.838 0.230387 0.919579 0
M  V30 1119 H 109.544 0.268727 3.50672 0
M  V30 1120 H 109.418 -1.4811 3.46905 0
M  V30 1121 H 111.805 -1.59374 2.48363 0
M  V30 1122 H 111.886 0.172489 2.55218 0
M  V30 1123 H 111.53 0.0684754 5.07854 0
M  V30 1124 H 111.46 -1.70899 4.98098 0
M  V30 1125 H 113.951 -0.837657 3.68499 0
M  V30 1126 H 114.264 -1.09765 7.64965 0
M  V30 1127 H 112.609 -0.994026 6.87855 0
M  V30 1128 H 115.8 -0.95527 4.58249 0
M  V30 1129 H 115.973 -1.07405 6.39037 0
M  V30 1130 N 109.379 -1.50304 -0.473955 0
M  V30 1131 C 110.289 -1.7174 -1.5982 0
M  V30 1132 C 111.305 -0.600457 -1.63311 0
M  V30 1133 O 112.481 -0.878441 -1.81233 0
M  V30 1134 C 109.546 -1.80427 -2.96052 0
M  V30 1135 C 108.607 -3.04148 -3.02972 0
M  V30 1136 C 107.84 -3.12411 -4.32706 0
M  V30 1137 O 108.063 -2.27542 -5.23049 0
M  V30 1138 O 106.997 -4.05113 -4.45159 0
M  V30 1139 H 110.823 -2.67035 -1.44657 0
M  V30 1140 H 108.408 -1.34366 -0.653148 0
M  V30 1141 H 110.29 -1.88338 -3.7697 0
M  V30 1142 H 108.965 -0.883156 -3.11419 0
M  V30 1143 H 107.872 -3.0174 -2.21142 0
M  V30 1144 H 109.205 -3.95829 -2.92541 0
M  V30 1145 N 110.857 0.726932 -1.39834 0
M  V30 1146 C 111.787 1.85405 -1.41941 0
M  V30 1147 C 112.768 1.67751 -0.281728 0
M  V30 1148 O 113.953 1.8795 -0.488717 0
M  V30 1149 C 111.083 3.23243 -1.2701 0
M  V30 1150 C 110.037 3.55549 -2.38262 0
M  V30 1151 C 109.363 4.9241 -2.08415 0
M  V30 1152 C 110.663 3.577 -3.80589 0
M  V30 1153 H 112.357 1.83899 -2.36266 0
M  V30 1154 H 109.903 0.883349 -1.13723 0
M  V30 1155 H 111.856 4.01775 -1.27103 0
M  V30 1156 H 110.58 3.25296 -0.291564 0
M  V30 1157 H 109.239 2.79351 -2.37399 0
M  V30 1158 H 108.887 4.91052 -1.0898 0
M  V30 1159 H 108.587 5.14992 -2.82943 0
M  V30 1160 H 110.111 5.73289 -2.10171 0
M  V30 1161 H 111.525 4.26293 -3.83337 0
M  V30 1162 H 109.922 3.91804 -4.54543 0
M  V30 1163 H 110.992 2.57328 -4.10987 0
M  V30 1164 N 112.336 1.25143 0.95797 0
M  V30 1165 C 113.576 1.10893 1.71703 0
M  V30 1166 C 113.94 -0.34478 1.88879 0
M  V30 1167 O 115.141 -0.609014 2.6181 0
M  V30 1168 C 113.412 1.83889 3.06463 0
M  V30 1169 S 114.971 1.85491 3.97666 0
M  V30 1170 H 111.789 0.396428 0.590226 0
M  V30 1171 H 114.391 1.58618 1.14283 0
M  V30 1172 H 113.095 2.88756 2.9163 0
M  V30 1173 H 112.626 1.36538 3.68946 0
M  V30 1174 H 114.641 0.929553 4.87415 0
M  V30 1175 N 113.814 -1.1601 1.06675 0
M  V30 1176 C 115.23 -1.38622 0.790948 0
M  V30 1177 C 115.43 -1.92109 -0.607965 0
M  V30 1178 O 114.486 -2.12239 -1.36787 0
M  V30 1179 C 115.799 -2.36347 1.85905 0
M  V30 1180 C 117.347 -2.50023 1.88301 0
M  V30 1181 C 117.822 -3.51033 2.94176 0
M  V30 1182 N 119.313 -3.58563 2.93235 0
M  V30 1183 C 120.048 -4.36521 3.71803 0
M  V30 1184 N 119.544 -5.17869 4.602 0
M  V30 1185 N 121.337 -4.31541 3.60178 0
M  V30 1186 H 113.488 -0.796294 1.96908 0
M  V30 1187 H 115.751 -0.412597 0.853503 0
M  V30 1188 H 115.457 -2.04147 2.86386 0
M  V30 1189 H 115.331 -3.36042 1.71334 0
M  V30 1190 H 117.718 -2.81524 0.884769 0
M  V30 1191 H 117.799 -1.5035 2.06951 0
M  V30 1192 H 117.443 -3.20268 3.94196 0
M  V30 1193 H 117.373 -4.50445 2.72776 0
M  V30 1194 H 119.864 -3.00496 2.29152 0
M  V30 1195 H 120.177 -5.74578 5.16797 0
M  V30 1196 H 118.522 -5.17199 4.64253 0
M  V30 1197 H 121.713 -3.67051 2.90502 0
M  V30 1198 H 121.886 -4.9205 4.21653 0
M  V30 1199 N 115.292 -0.849877 -1.32721 0
M  V30 1200 C 116.54 -0.450032 -1.97026 0
M  V30 1201 C 116.861 0.996604 -1.67609 0
M  V30 1202 O 116.131 1.6958 -0.980786 0
M  V30 1203 H 114.711 -0.163426 -0.728904 0
M  V30 1204 H 117.373 -1.08526 -1.6189 0
M  V30 1205 H 116.469 -0.591146 -3.0645 0
M  V30 1206 N 116.77 1.45427 -0.607355 0
M  V30 1207 C 118.186 1.57283 -0.270985 0
M  V30 1208 C 118.386 1.59875 1.22647 0
M  V30 1209 O 117.442 1.52893 2.00948 0
M  V30 1210 C 118.755 2.85566 -0.941952 0
M  V30 1211 C 120.303 2.9924 -0.917849 0
M  V30 1212 C 120.778 4.30293 -1.56882 0
M  V30 1213 N 122.269 4.37051 -1.5343 0
M  V30 1214 C 123.004 5.37123 -2.00715 0
M  V30 1215 N 122.5 6.43734 -2.56084 0
M  V30 1216 N 124.293 5.28479 -1.91484 0
M  V30 1217 H 116.444 1.41988 -1.57966 0
M  V30 1218 H 118.707 0.67885 -0.661715 0
M  V30 1219 H 118.413 2.8955 -1.99633 0
M  V30 1220 H 118.287 3.74322 -0.465096 0
M  V30 1221 H 120.674 2.94822 0.127984 0
M  V30 1222 H 120.755 2.11895 -1.43297 0
M  V30 1223 H 120.399 4.35469 -2.61398 0
M  V30 1224 H 120.329 5.16454 -1.02873 0
M  V30 1225 H 122.82 3.60615 -1.12982 0
M  V30 1226 H 123.133 7.16341 -2.89958 0
M  V30 1227 H 121.478 6.44485 -2.60122 0
M  V30 1228 H 124.669 4.44098 -1.47967 0
M  V30 1229 H 124.842 6.0632 -2.28648 0
M  V30 1230 N 118.248 0.346503 1.53744 0
M  V30 1231 C 119.659 -0.136779 1.86198 0
M  V30 1232 C 120.01 -1.49749 1.26766 0
M  V30 1233 O 119.135 -2.08417 0.582355 0
M  V30 1234 C 119.73 -0.254966 3.37839 0
M  V30 1235 C 118.289 -0.682482 3.70161 0
M  V30 1236 C 117.436 0.181981 2.76702 0
M  V30 1237 H 120.387 0.565994 1.48264 0
M  V30 1238 H 120.408 -1.08195 3.64793 0
M  V30 1239 H 119.92 0.735526 3.81066 0
M  V30 1240 H 118.021 -1.68189 3.3248 0
M  V30 1241 H 118.134 -0.470326 4.76786 0
M  V30 1242 H 116.498 -0.34615 2.52337 0
M  V30 1243 H 117.281 1.16966 3.2276 0
M  V30 1244 N 119.726 -1.57421 0.075193 0
M  V30 1245 C 120.954 -1.97946 -0.602076 0
M  V30 1246 C 121.369 -0.953674 -1.62943 0
M  V30 1247 O 120.726 0.0592551 -1.82404 0
M  V30 1248 C 120.777 -3.38546 -1.26762 0
M  V30 1249 O 120.498 -4.37195 -0.281376 0
M  V30 1250 C 121.999 -3.93966 -2.03239 0
M  V30 1251 H 119.219 -0.650918 -0.162931 0
M  V30 1252 H 121.763 -2.03959 0.148601 0
M  V30 1253 H 119.918 -3.33609 -1.96936 0
M  V30 1254 H 120.332 -5.18975 -0.759267 0
M  V30 1255 H 121.806 -4.94555 -2.45193 0
M  V30 1256 H 122.283 -3.30693 -2.8903 0
M  V30 1257 H 122.889 -4.02315 -1.37924 0
M  V30 1258 N 121.204 0.198386 -1.56346 0
M  V30 1259 C 122.114 1.2664 -1.97483 0
M  V30 1260 C 123.13 1.49989 -0.882002 0
M  V30 1261 O 124.306 1.62668 -1.18748 0
M  V30 1262 C 121.371 2.59141 -2.30319 0
M  V30 1263 C 120.432 2.43892 -3.53292 0
M  V30 1264 C 119.665 3.70074 -3.84553 0
M  V30 1265 O 119.888 4.74101 -3.1715 0
M  V30 1266 O 118.822 3.658 -4.7799 0
M  V30 1267 H 122.648 0.947304 -2.88548 0
M  V30 1268 H 120.233 0.403123 -1.43859 0
M  V30 1269 H 122.115 3.37352 -2.5253 0
M  V30 1270 H 120.79 2.90684 -1.42423 0
M  V30 1271 H 119.697 1.63803 -3.36332 0
M  V30 1272 H 121.03 2.17282 -4.41644 0
M  V30 1273 N 122.682 1.50554 0.465978 0
M  V30 1274 C 123.929 1.61798 1.21768 0
M  V30 1275 C 124.257 0.320696 1.91838 0
M  V30 1276 O 123.512 -0.693724 1.82992 0
M  V30 1277 C 123.811 2.75152 2.28093 0
M  V30 1278 C 123.477 4.15454 1.75239 0
M  V30 1279 C 122.139 4.53628 1.60546 0
M  V30 1280 C 124.491 5.03121 1.36083 0
M  V30 1281 C 121.819 5.77204 1.05128 0
M  V30 1282 C 124.171 6.27249 0.821056 0
M  V30 1283 C 122.835 6.64221 0.660795 0
M  V30 1284 H 122.105 0.592063 0.445582 0
M  V30 1285 H 124.752 1.84503 0.512927 0
M  V30 1286 H 123.057 2.46556 3.04496 0
M  V30 1287 H 124.754 2.81055 2.86023 0
M  V30 1288 H 121.344 3.85341 1.87644 0
M  V30 1289 H 125.528 4.74257 1.46267 0
M  V30 1290 H 120.784 6.0452 0.91462 0
M  V30 1291 H 124.958 6.94537 0.509018 0
M  V30 1292 H 122.585 7.59854 0.229226 0
M  V30 1293 N 124.16 -0.719506 1.40217 0
M  V30 1294 C 125.406 -1.48152 1.38488 0
M  V30 1295 C 125.739 -1.94195 -0.0141867 0
M  V30 1296 O 125.014 -1.67884 -0.982096 0
M  V30 1297 C 125.297 -2.71035 2.37091 0
M  V30 1298 C 125.15 -2.30912 3.86005 0
M  V30 1299 C 126.469 -3.73182 2.33288 0
M  V30 1300 H 123.588 -0.537395 0.504357 0
M  V30 1301 H 126.23 -0.821472 1.71324 0
M  V30 1302 H 124.38 -3.27352 2.0922 0
M  V30 1303 H 126.052 -1.80107 4.24687 0
M  V30 1304 H 124.295 -1.62958 4.02029 0
M  V30 1305 H 124.966 -3.18978 4.50508 0
M  V30 1306 H 127.442 -3.26485 2.57966 0
M  V30 1307 H 126.318 -4.56806 3.04334 0
M  V30 1308 H 126.579 -4.21202 1.34317 0
M  V30 1309 N 125.638 -1.25649 -0.95132 0
M  V30 1310 C 126.586 -1.06118 -2.06982 0
M  V30 1311 C 127.58 0.00889169 -1.69398 0
M  V30 1312 O 128.786 -0.146988 -1.79399 0
M  V30 1313 H 125.161 -0.326248 -0.677544 0
M  V30 1314 H 127.132 -2.00932 -2.2061 0
M  V30 1315 C 125.881 -0.700145 -3.40578 0
M  V30 1316 H 125.204 -1.51537 -3.69968 0
M  V30 1317 H 126.644 -0.603211 -4.19687 0
M  V30 1318 C 125.103 0.59403 -3.31622 0
M  V30 1319 O 125.633 1.63522 -3.66911 0
M  V30 1320 N 123.839 0.58089 -2.84735 0
M  V30 1321 H 123.386 -0.266783 -2.56215 0
M  V30 1322 H 123.344 1.44695 -2.79125 0
M  V30 1323 N 127.117 1.15442 -1.07289 0
M  V30 1324 C 128.067 2.18164 -0.662467 0
M  V30 1325 C 129.051 1.57845 0.312074 0
M  V30 1326 O 130.243 1.76552 0.125905 0
M  V30 1327 C 127.372 3.43246 -0.0611295 0
M  V30 1328 C 126.458 4.1062 -1.06077 0
M  V30 1329 N 126.849 4.53491 -2.24008 0
M  V30 1330 C 125.147 4.36949 -0.893964 0
M  V30 1331 C 125.848 5.05731 -2.87422 0
M  V30 1332 N 124.824 4.99236 -2.15091 0
M  V30 1333 H 128.626 2.49038 -1.56068 0
M  V30 1334 H 126.14 1.32003 -0.945988 0
M  V30 1335 H 128.137 4.16145 0.250792 0
M  V30 1336 H 126.797 3.13854 0.832207 0
M  V30 1337 H 127.808 4.46898 -2.6173 0
M  V30 1338 H 124.485 4.17466 -0.0534693 0
M  V30 1339 H 125.875 5.48865 -3.87553 0
M  V30 1340 N 128.595 0.856903 1.32268 0
M  V30 1341 C 129.825 0.47475 2.01071 0
M  V30 1342 C 130.233 -0.933746 1.64553 0
M  V30 1343 O 129.576 -1.62114 0.863989 0
M  V30 1344 C 129.638 0.536746 3.55471 0
M  V30 1345 C 129.302 1.90453 4.15423 0
M  V30 1346 C 130.299 2.87029 4.33486 0
M  V30 1347 C 127.984 2.20229 4.51447 0
M  V30 1348 C 129.978 4.11532 4.86744 0
M  V30 1349 C 127.665 3.44984 5.0441 0
M  V30 1350 C 128.663 4.40452 5.22007 0
M  V30 1351 O 128.351 5.62998 5.73837 0
M  V30 1352 H 128.083 0.184778 0.650256 0
M  V30 1353 H 130.637 1.15615 1.69771 0
M  V30 1354 H 128.867 -0.20152 3.86175 0
M  V30 1355 H 130.556 0.169875 4.05544 0
M  V30 1356 H 131.322 2.6533 4.05986 0
M  V30 1357 H 127.201 1.46705 4.37034 0
M  V30 1358 H 130.745 4.86056 5.00395 0
M  V30 1359 H 126.642 3.66532 5.31342 0
M  V30 1360 H 127.41 5.64987 5.92226 0
M  V30 1361 N 130.073 -1.45103 0.615059 0
M  V30 1362 C 131.313 -2.04069 0.116282 0
M  V30 1363 C 131.677 -1.4721 -1.2326 0
M  V30 1364 O 132.878 -1.97577 -1.82255 0
M  V30 1365 C 131.149 -3.57298 0.085482 0
M  V30 1366 S 132.708 -4.37394 -0.351015 0
M  V30 1367 H 129.526 -0.709006 0.0532183 0
M  V30 1368 H 132.128 -1.77709 0.81484 0
M  V30 1369 H 130.832 -3.9619 1.0706 0
M  V30 1370 H 130.363 -3.88244 -0.634835 0
M  V30 1371 H 132.378 -4.69734 -1.59889 0
M  V30 1372 N 131.551 -0.354651 -1.53558 0
M  V30 1373 C 132.791 0.238651 -2.03002 0
M  V30 1374 C 133.155 1.46878 -1.23656 0
M  V30 1375 O 134.356 2.13699 -1.63053 0
M  V30 1376 C 132.627 0.534175 -3.53386 0
M  V30 1377 S 134.186 1.10271 -4.24719 0
M  V30 1378 H 131.004 0.0702908 -0.707517 0
M  V30 1379 H 133.606 -0.494987 -1.8913 0
M  V30 1380 H 132.31 -0.368765 -4.0874 0
M  V30 1381 H 131.841 1.29718 -3.71398 0
M  V30 1382 H 133.856 2.38772 -4.34974 0
M  V30 1383 N 133.029 1.57378 -0.0835403 0
M  V30 1384 C 134.306 1.85363 0.624507 0
M  V30 1385 C 134.686 0.978239 1.87066 0
M  V30 1386 O 134.034 0.0475908 2.2845 0
M  V30 1387 C 134.244 3.35795 0.950947 0
M  V30 1388 C 135.592 4.03581 1.31939 0
M  V30 1389 O 136.616 3.40609 1.04232 0
M  V30 1390 O 135.475 5.14672 1.83779 0
M  V30 1391 H 132.569 0.766162 0.311329 0
M  V30 1392 H 135.115 1.69307 -0.115362 0
M  V30 1393 H 133.887 3.91244 0.0663899 0
M  V30 1394 H 133.51 3.57154 1.74719 0
M  V30 1395 N 134.507 -0.190092 1.56449 0
M  V30 1396 C 135.732 -0.929864 1.85387 0
M  V30 1397 C 136.157 -1.7585 0.667704 0
M  V30 1398 O 135.515 -1.77198 -0.383459 0
M  V30 1399 C 135.563 -1.79773 3.12593 0
M  V30 1400 O 134.667 -2.89713 2.93496 0
M  V30 1401 H 134.008 -0.261574 0.610307 0
M  V30 1402 H 136.538 -0.193896 2.03679 0
M  V30 1403 H 136.548 -2.20139 3.43515 0
M  V30 1404 H 135.223 -1.18892 3.98544 0
M  V30 1405 H 133.8 -2.53065 2.73884 0
M  V30 1406 N 135.985 -1.50799 -0.457987 0
M  V30 1407 C 136.935 -1.67003 -1.55222 0
M  V30 1408 C 137.919 -0.52434 -1.52117 0
M  V30 1409 O 139.111 -0.779345 -1.58919 0
M  V30 1410 C 136.24 -1.77956 -2.93576 0
M  V30 1411 C 135.326 -2.98243 -3.01516 0
M  V30 1412 N 135.717 -4.21732 -2.79241 0
M  V30 1413 C 134.015 -2.97072 -3.32662 0
M  V30 1414 C 134.716 -5.02817 -2.92489 0
M  V30 1415 N 133.692 -4.37038 -3.23262 0
M  V30 1416 H 137.494 -2.60163 -1.36721 0
M  V30 1417 H 135.008 -1.48163 -0.664952 0
M  V30 1418 H 137.005 -1.87671 -3.72271 0
M  V30 1419 H 135.665 -0.859634 -3.13114 0
M  V30 1420 H 136.676 -4.51016 -2.54567 0
M  V30 1421 H 133.353 -2.14631 -3.58106 0
M  V30 1422 H 134.743 -6.11054 -2.79396 0
M  V30 1423 N 137.463 0.71206 -1.40597 0
M  V30 1424 C 138.393 1.83889 -1.43899 0
M  V30 1425 C 139.374 1.67442 -0.299504 0
M  V30 1426 O 140.559 1.87421 -0.508624 0
M  V30 1427 C 137.689 3.21877 -1.30431 0
M  V30 1428 C 136.643 3.53002 -2.42019 0
M  V30 1429 C 135.969 4.90172 -2.13626 0
M  V30 1430 C 137.269 3.53643 -3.84362 0
M  V30 1431 H 138.963 1.81383 -2.38203 0
M  V30 1432 H 136.509 0.871237 -1.14654 0
M  V30 1433 H 138.462 4.00404 -1.31357 0
M  V30 1434 H 137.186 3.24968 -0.326049 0
M  V30 1435 H 135.845 2.76818 -2.40349 0
M  V30 1436 H 135.493 4.89869 -1.14182 0
M  V30 1437 H 135.193 5.11962 -2.88389 0
M  V30 1438 H 136.717 5.71028 -2.1624 0
M  V30 1439 H 138.131 4.22203 -3.87837 0
M  V30 1440 H 136.528 3.86961 -4.58673 0
M  V30 1441 H 137.598 2.52954 -4.13693 0
M  V30 1442 N 138.941 1.26152 0.944643 0
M  V30 1443 C 140.181 1.12708 1.70517 0
M  V30 1444 C 140.545 -0.324727 1.89234 0
M  V30 1445 O 141.746 -0.581211 2.62441 0
M  V30 1446 C 140.017 1.8713 3.04495 0
M  V30 1447 S 141.576 1.89698 3.95677 0
M  V30 1448 H 138.394 0.402665 0.585988 0
M  V30 1449 H 140.996 1.59821 1.12594 0
M  V30 1450 H 139.7 2.91833 2.88551 0
M  V30 1451 H 139.231 1.40444 3.67477 0
M  V30 1452 H 141.246 0.981198 4.86402 0
M  V30 1453 N 140.419 -1.14872 1.07899 0
M  V30 1454 C 141.367 -2.21857 0.698727 0
M  V30 1455 C 142.361 -1.66845 -0.293086 0
M  V30 1456 O 143.567 -1.79321 -0.156204 0
M  V30 1457 H 139.942 -0.722691 0.207899 0
M  V30 1458 H 141.913 -2.51205 1.61054 0
M  V30 1459 C 140.662 -3.47498 0.11858 0
M  V30 1460 H 139.985 -3.90154 0.872914 0
M  V30 1461 H 141.425 -4.23858 -0.109759 0
M  V30 1462 C 139.884 -3.16947 -1.1422 0
M  V30 1463 O 140.414 -3.3426 -2.22785 0
M  V30 1464 N 138.62 -2.70946 -1.05055 0
M  V30 1465 H 138.167 -2.57058 -0.167038 0
M  V30 1466 H 138.125 -2.50879 -1.89491 0
M  V30 1467 N 141.898 -0.863906 -1.31812 0
M  V30 1468 C 142.848 -0.286898 -2.26188 0
M  V30 1469 C 143.832 0.572577 -1.50367 0
M  V30 1470 O 145.024 0.420447 -1.71934 0
M  V30 1471 C 142.153 0.515849 -3.39402 0
M  V30 1472 C 141.239 -0.356531 -4.22599 0
M  V30 1473 N 141.63 -1.44716 -4.84656 0
M  V30 1474 C 139.928 -0.147898 -4.45755 0
M  V30 1475 C 140.629 -1.98462 -5.46798 0
M  V30 1476 N 139.605 -1.28247 -5.28255 0
M  V30 1477 H 143.407 -1.12055 -2.717 0
M  V30 1478 H 140.921 -0.711012 -1.46008 0
M  V30 1479 H 142.918 0.945701 -4.06032 0
M  V30 1480 H 141.578 1.34718 -2.95434 0
M  V30 1481 H 142.589 -1.83008 -4.84488 0
M  V30 1482 H 139.266 0.647973 -4.12441 0
M  V30 1483 H 140.656 -2.89932 -6.06126 0
M  V30 1484 N 143.376 1.44774 -0.622745 0
M  V30 1485 C 144.324 2.32387 0.0994683 0
M  V30 1486 C 145.318 1.46859 0.844326 0
M  V30 1487 O 146.524 1.63254 0.758174 0
M  V30 1488 H 142.899 0.750273 0.0509291 0
M  V30 1489 H 144.87 2.91062 -0.65767 0
M  V30 1490 C 143.619 3.30723 1.07319 0
M  V30 1491 H 142.942 3.96541 0.509462 0
M  V30 1492 H 144.382 3.94725 1.54817 0
M  V30 1493 C 142.841 2.59021 2.15429 0
M  V30 1494 O 143.371 2.38286 3.23393 0
M  V30 1495 N 141.577 2.189 1.91131 0
M  V30 1496 H 141.124 2.35964 1.03337 0
M  V30 1497 H 141.082 1.71251 2.63668 0
M  V30 1498 N 144.854 0.36279 1.53368 0
M  V30 1499 C 146.1 -0.228113 2.01513 0
M  V30 1500 C 146.433 -1.48648 1.2497 0
M  V30 1501 O 145.708 -1.91459 0.342616 0
M  V30 1502 C 145.991 -0.522884 3.56284 0
M  V30 1503 C 145.844 0.74892 4.43521 0
M  V30 1504 C 147.163 -1.32461 4.19693 0
M  V30 1505 H 144.282 -0.0814343 0.732487 0
M  V30 1506 H 146.924 0.48713 1.83649 0
M  V30 1507 H 145.074 -1.1322 3.71636 0
M  V30 1508 H 146.746 1.38648 4.39971 0
M  V30 1509 H 144.989 1.36986 4.11603 0
M  V30 1510 H 145.66 0.497667 5.49752 0
M  V30 1511 H 148.136 -0.809203 4.08156 0
M  V30 1512 H 147.012 -1.49961 5.28018 0
M  V30 1513 H 147.273 -2.33232 3.75573 0
M  V30 1514 N 146.332 -1.57332 0.0918853 0
M  V30 1515 C 147.557 -1.98995 -0.584442 0
M  V30 1516 C 147.982 -0.970528 -1.61128 0
M  V30 1517 O 147.34 0.0613904 -1.81196 0
M  V30 1518 C 147.388 -3.39636 -1.21161 0
M  V30 1519 O 146.492 -3.40447 -2.32744 0
M  V30 1520 H 145.833 -0.647165 -0.148572 0
M  V30 1521 H 148.363 -2.03873 0.172347 0
M  V30 1522 H 148.373 -3.7726 -1.55367 0
M  V30 1523 H 147.048 -4.13356 -0.459313 0
M  V30 1524 H 145.625 -3.14614 -2.0018 0
M  V30 1525 N 147.81 0.181792 -1.56548 0
M  V30 1526 C 148.74 1.22765 -1.98623 0
M  V30 1527 C 149.721 1.46747 -0.860189 0
M  V30 1528 O 150.906 1.58259 -1.12551 0
M  V30 1529 C 148.036 2.56894 -2.33715 0
M  V30 1530 C 146.99 2.475 -3.49182 0
M  V30 1531 C 146.316 3.86023 -3.69986 0
M  V30 1532 C 147.616 1.98866 -4.82959 0
M  V30 1533 H 149.31 0.877942 -2.86239 0
M  V30 1534 H 146.856 0.42088 -1.37712 0
M  V30 1535 H 148.809 3.30253 -2.61746 0
M  V30 1536 H 147.533 2.93632 -1.42997 0
M  V30 1537 H 146.192 1.76596 -3.21262 0
M  V30 1538 H 145.84 4.20136 -2.76576 0
M  V30 1539 H 145.54 3.80609 -4.47672 0
M  V30 1540 H 147.064 4.60984 -4.00407 0
M  V30 1541 H 148.478 2.61992 -5.09934 0
M  V30 1542 H 146.875 2.04424 -5.64208 0
M  V30 1543 H 147.945 0.942465 -4.75653 0
M  V30 1544 N 149.288 1.51039 0.449983 0
M  V30 1545 C 150.534 1.63322 1.20223 0
M  V30 1546 C 150.867 0.34241 1.91158 0
M  V30 1547 O 150.142 -0.657344 1.83055 0
M  V30 1548 C 150.425 2.82801 2.22925 0
M  V30 1549 C 150.278 4.21823 1.56157 0
M  V30 1550 C 151.597 2.97807 3.24035 0
M  V30 1551 H 148.716 0.594407 0.435718 0
M  V30 1552 H 151.358 1.83489 0.493136 0
M  V30 1553 H 149.508 2.65738 2.834 0
M  V30 1554 H 151.18 4.50526 0.991162 0
M  V30 1555 H 149.423 4.25105 0.864172 0
M  V30 1556 H 150.094 5.01391 2.30891 0
M  V30 1557 H 152.57 3.13497 2.73603 0
M  V30 1558 H 151.446 3.82992 3.93202 0
M  V30 1559 H 151.707 2.09328 3.89402 0
M  V30 1560 N 150.766 -0.704594 1.40972 0
M  V30 1561 C 151.696 -1.83124 1.44872 0
M  V30 1562 C 152.677 -1.67281 0.30838 0
M  V30 1563 O 153.862 -1.87149 0.518556 0
M  V30 1564 C 150.992 -3.21181 1.32136 0
M  V30 1565 C 149.946 -3.51714 2.43888 0
M  V30 1566 C 149.272 -4.89032 2.16222 0
M  V30 1567 C 150.572 -3.516 3.86232 0
M  V30 1568 H 152.266 -1.80117 2.39161 0
M  V30 1569 H 149.812 -0.865145 1.15114 0
M  V30 1570 H 151.765 -3.99702 1.33479 0
M  V30 1571 H 150.489 -3.24791 0.343279 0
M  V30 1572 H 149.148 -2.75539 2.41813 0
M  V30 1573 H 148.796 -4.89256 1.16778 0
M  V30 1574 H 148.496 -5.10426 2.911 0
M  V30 1575 H 150.02 -5.69873 2.19265 0
M  V30 1576 H 151.434 -4.2014 3.9007 0
M  V30 1577 H 149.831 -3.84523 4.60719 0
M  V30 1578 H 150.901 -2.50757 4.15029 0
M  V30 1579 N 152.244 -1.26651 -0.937939 0
M  V30 1580 C 153.154 -1.10276 -2.07066 0
M  V30 1581 C 154.17 -0.0354197 -1.73964 0
M  V30 1582 O 155.346 -0.239816 -1.99967 0
M  V30 1583 C 152.411 -0.740887 -3.38691 0
M  V30 1584 C 151.472 -1.88799 -3.85556 0
M  V30 1585 C 150.705 -1.54329 -5.10899 0
M  V30 1586 O 150.928 -0.446494 -5.6865 0
M  V30 1587 O 149.862 -2.37911 -5.52885 0
M  V30 1588 H 153.688 -2.05309 -2.23789 0
M  V30 1589 H 151.273 -1.05743 -1.0554 0
M  V30 1590 H 153.155 -0.55195 -4.1777 0
M  V30 1591 H 151.83 0.180022 -3.23199 0
M  V30 1592 H 150.737 -2.13191 -3.07409 0
M  V30 1593 H 152.07 -2.78874 -4.05574 0
M  V30 1594 N 153.722 1.14298 -1.08507 0
M  V30 1595 C 154.685 2.17607 -0.719711 0
M  V30 1596 C 155.685 1.58907 0.245997 0
M  V30 1597 O 156.875 1.74181 0.0254081 0
M  V30 1598 C 154.007 3.40842 -0.0627695 0
M  V30 1599 H 155.2 2.51443 -1.63452 0
M  V30 1600 H 152.753 1.28963 -0.88307 0
M  V30 1601 H 153.488 3.12587 0.863716 0
M  V30 1602 H 153.273 3.84713 -0.757504 0
M  V30 1603 H 154.763 4.17221 0.177786 0
M  V30 1604 N 155.201 0.870884 1.31352 0
M  V30 1605 C 156.429 0.49677 2.00848 0
M  V30 1606 C 156.844 -0.910998 1.65367 0
M  V30 1607 O 156.201 -1.59696 0.883374 0
M  V30 1608 C 156.252 0.645308 3.55694 0
M  V30 1609 O 155.973 1.99764 3.89905 0
M  V30 1610 C 157.474 0.272326 4.42463 0
M  V30 1611 H 154.694 0.193462 0.642506 0
M  V30 1612 H 157.238 1.1723 1.67563 0
M  V30 1613 H 155.393 0.0173176 3.87396 0
M  V30 1614 H 155.807 2.00607 4.84621 0
M  V30 1615 H 157.281 0.427208 5.50344 0
M  V30 1616 H 157.758 -0.788587 4.32062 0
M  V30 1617 H 158.364 0.876054 4.1618 0
M  V30 1618 N 156.679 -1.44442 0.630414 0
M  V30 1619 C 157.611 -2.2892 -0.113347 0
M  V30 1620 C 158.624 -1.41243 -0.80959 0
M  V30 1621 O 159.813 -1.65402 -0.671156 0
M  V30 1622 C 156.913 -3.17594 -1.18266 0
M  V30 1623 C 156.086 -4.33682 -0.569073 0
M  V30 1624 C 155.145 -5.03397 -1.53226 0
M  V30 1625 O 154.171 -5.59438 -1.04967 0
M  V30 1626 N 155.373 -5.04783 -2.86661 0
M  V30 1627 H 158.138 -2.93392 0.611636 0
M  V30 1628 H 155.699 -1.54881 0.471523 0
M  V30 1629 H 157.691 -3.61097 -1.82732 0
M  V30 1630 H 156.261 -2.54876 -1.80988 0
M  V30 1631 H 155.481 -3.9338 0.254187 0
M  V30 1632 H 156.769 -5.08608 -0.139767 0
M  V30 1633 H 156.167 -4.60584 -3.28449 0
M  V30 1634 H 154.724 -5.52077 -3.46489 0
M  V30 1635 N 158.157 -0.370918 -1.53173 0
M  V30 1636 C 159.568 0.107139 -1.86392 0
M  V30 1637 C 159.919 1.47714 -1.29132 0
M  V30 1638 O 159.044 2.07464 -0.615439 0
M  V30 1639 C 159.639 0.201187 -3.38202 0
M  V30 1640 C 158.198 0.623507 -3.712 0
M  V30 1641 C 157.345 -0.225978 -2.76378 0
M  V30 1642 H 160.296 -0.58951 -1.47345 0
M  V30 1643 H 160.317 1.02377 -3.66468 0
M  V30 1644 H 159.829 -0.796058 -3.79848 0
M  V30 1645 H 157.93 1.62879 -3.35114 0
M  V30 1646 H 158.043 0.394414 -4.77474 0
M  V30 1647 H 156.407 0.305962 -2.52856 0
M  V30 1648 H 157.19 -1.22086 -3.20858 0
M  V30 1649 N 159.635 1.57281 -0.100228 0
M  V30 1650 C 161.046 1.81725 0.428107 0
M  V30 1651 C 161.397 1.01619 1.67833 0
M  V30 1652 O 160.522 0.247098 2.14985 0
M  V30 1653 C 161.117 3.29617 0.78347 0
M  V30 1654 C 159.676 3.54808 1.25653 0
M  V30 1655 C 158.823 2.76118 0.255752 0
M  V30 1656 H 161.774 1.55324 -0.325608 0
M  V30 1657 H 161.795 3.4322 1.64256 0
M  V30 1658 H 161.307 3.87893 -0.12665 0
M  V30 1659 H 159.408 3.01868 2.18418 0
M  V30 1660 H 159.521 4.63443 1.21482 0
M  V30 1661 H 157.885 2.43745 0.738956 0
M  V30 1662 H 158.668 3.37145 -0.647136 0
M  V30 1663 N 161.113 -0.173488 1.56642 0
M  V30 1664 C 162.338 -0.910149 1.86363 0
M  V30 1665 C 162.763 -1.75132 0.686318 0
M  V30 1666 O 162.121 -1.77595 -0.364643 0
M  V30 1667 C 162.169 -1.76447 3.14482 0
M  V30 1668 O 161.273 -2.86584 2.96553 0
M  V30 1669 H 160.614 -0.255086 0.613047 0
M  V30 1670 H 163.144 -0.172283 2.03873 0
M  V30 1671 H 163.154 -2.16483 3.45831 0
M  V30 1672 H 161.829 -1.14658 3.99783 0
M  V30 1673 H 160.406 -2.50146 2.76553 0
M  V30 1674 N 162.591 -1.51276 -0.441967 0
M  V30 1675 C 163.501 -1.75092 -1.56141 0
M  V30 1676 C 164.517 -0.634963 -1.62001 0
M  V30 1677 O 165.693 -0.916686 -1.79329 0
M  V30 1678 C 162.758 -1.86666 -2.92158 0
M  V30 1679 C 161.819 -3.10506 -2.96453 0
M  V30 1680 C 161.052 -3.21519 -4.25982 0
M  V30 1681 O 161.275 -2.38586 -5.18105 0
M  V30 1682 O 160.209 -4.14465 -4.36466 0
M  V30 1683 H 164.035 -2.70044 -1.38961 0
M  V30 1684 H 161.62 -1.35722 -0.624499 0
M  V30 1685 H 163.502 -1.96292 -3.72891 0
M  V30 1686 H 162.177 -0.949014 -3.09476 0
M  V30 1687 H 161.084 -3.06363 -2.14692 0
M  V30 1688 H 162.417 -4.01945 -2.84079 0
M  V30 1689 N 164.069 0.697108 -1.41344 0
M  V30 1690 C 165.001 1.8224 -1.39001 0
M  V30 1691 C 166.014 1.60152 -0.292428 0
M  V30 1692 O 167.203 1.69684 -0.554048 0
M  V30 1693 C 164.303 3.18976 -1.14489 0
M  V30 1694 C 163.476 3.68105 -2.36258 0
M  V30 1695 C 162.535 4.83506 -2.07625 0
M  V30 1696 O 161.561 4.95201 -2.8065 0
M  V30 1697 N 162.763 5.70637 -1.06555 0
M  V30 1698 H 165.528 1.84742 -2.35988 0
M  V30 1699 H 163.089 0.87937 -1.35936 0
M  V30 1700 H 165.081 3.93801 -0.932885 0
M  V30 1701 H 163.651 3.11508 -0.261043 0
M  V30 1702 H 162.871 2.84204 -2.7317 0
M  V30 1703 H 164.159 3.97667 -3.17393 0
M  V30 1704 H 163.557 5.63817 -0.461125 0
M  V30 1705 H 162.114 6.45368 -0.913444 0
M  V30 1706 N 165.547 1.27147 0.931209 0
M  V30 1707 C 166.958 1.12044 1.49342 0
M  V30 1708 C 167.309 -0.295795 1.93957 0
M  V30 1709 O 166.434 -1.18835 1.80852 0
M  V30 1710 C 167.029 2.02781 2.71414 0
M  V30 1711 C 165.588 1.91794 3.2387 0
M  V30 1712 C 164.735 1.95543 1.96617 0
M  V30 1713 H 167.686 1.40091 0.745672 0
M  V30 1714 H 167.707 1.58156 3.46074 0
M  V30 1715 H 167.219 3.05848 2.38911 0
M  V30 1716 H 165.32 0.916992 3.6114 0
M  V30 1717 H 165.433 2.77852 3.90302 0
M  V30 1718 H 163.797 1.39722 2.12955 0
M  V30 1719 H 164.58 3.00259 1.66432 0
M  V30 1720 N 167.025 -1.13721 1.09112 0
M  V30 1721 C 168.273 -1.84559 0.823562 0
M  V30 1722 C 168.594 -1.83754 -0.652658 0
M  V30 1723 O 167.864 -1.29102 -1.47342 0
M  V30 1724 H 166.444 -0.683376 0.301673 0
M  V30 1725 H 169.106 -1.37771 1.37859 0
M  V30 1726 H 168.202 -2.8917 1.17419 0
M  V30 1727 N 168.503 -0.877838 -1.30888 0
M  V30 1728 C 169.731 -0.507414 -2.00581 0
M  V30 1729 C 170.146 0.902216 -1.65848 0
M  V30 1730 O 169.503 1.59225 -0.891831 0
M  V30 1731 C 169.554 -0.664162 -3.55347 0
M  V30 1732 O 169.275 -2.01829 -3.8884 0
M  V30 1733 C 170.776 -0.295787 -4.42312 0
M  V30 1734 H 167.996 -0.196866 -0.641471 0
M  V30 1735 H 170.54 -1.18117 -1.66939 0
M  V30 1736 H 168.695 -0.0378619 -3.87381 0
M  V30 1737 H 169.109 -2.03174 -4.8355 0
M  V30 1738 H 170.583 -0.456388 -5.5011 0
M  V30 1739 H 171.06 0.765663 -4.32475 0
M  V30 1740 H 171.666 -0.898113 -4.15709 0
M  V30 1741 N 169.982 1.44106 -0.638065 0
M  V30 1742 C 171.259 1.95453 -0.0759321 0
M  V30 1743 C 171.639 1.57984 1.40015 0
M  V30 1744 O 170.987 0.857361 2.11806 0
M  V30 1745 C 171.197 3.47655 -0.306132 0
M  V30 1746 C 172.545 4.24114 -0.203008 0
M  V30 1747 O 173.569 3.55405 -0.237871 0
M  V30 1748 O 172.428 5.46381 -0.113827 0
M  V30 1749 H 169.522 0.826797 0.0183332 0
M  V30 1750 H 172.068 1.54122 -0.710251 0
M  V30 1751 H 170.84 3.68 -1.3301 0
M  V30 1752 H 170.463 3.95949 0.361991 0
M  V30 1753 N 171.46 0.379036 1.52974 0
M  V30 1754 C 172.708 -0.206014 2.01047 0
M  V30 1755 C 173.029 -1.48175 1.26765 0
M  V30 1756 O 172.299 -1.92085 0.384743 0
M  V30 1757 H 170.879 -0.0791184 0.742798 0
M  V30 1758 H 173.541 0.508366 1.88153 0
M  V30 1759 H 172.637 -0.423501 3.09213 0
M  V30 1760 N 172.938 -1.57226 0.108567 0
M  V30 1761 C 173.87 -2.11809 -0.875752 0
M  V30 1762 C 174.883 -1.05839 -1.23701 0
M  V30 1763 O 176.072 -1.33245 -1.18778 0
M  V30 1764 C 173.172 -2.59411 -2.18081 0
M  V30 1765 C 172.345 -3.89364 -1.99284 0
M  V30 1766 C 171.404 -4.22672 -3.13424 0
M  V30 1767 O 170.43 -4.91668 -2.86795 0
M  V30 1768 N 171.632 -3.79154 -4.3957 0
M  V30 1769 H 174.397 -2.9689 -0.409477 0
M  V30 1770 H 171.958 -1.61721 -0.076158 0
M  V30 1771 H 173.95 -2.7873 -2.93414 0
M  V30 1772 H 172.52 -1.79268 -2.5609 0
M  V30 1773 H 171.74 -3.79059 -1.08203 0
M  V30 1774 H 173.028 -4.74358 -1.84017 0
M  V30 1775 H 172.426 -3.23486 -4.64083 0
M  V30 1776 H 170.983 -4.03602 -5.11809 0
M  V30 1777 N 174.416 0.165178 -1.56732 0
M  V30 1778 C 175.346 1.20651 -1.99914 0
M  V30 1779 C 176.327 1.45827 -0.875705 0
M  V30 1780 O 177.512 1.57057 -1.14223 0
M  V30 1781 C 174.642 2.54401 -2.36427 0
M  V30 1782 C 173.596 2.43782 -3.51787 0
M  V30 1783 C 172.922 3.82078 -3.7406 0
M  V30 1784 C 174.222 1.93732 -4.85041 0
M  V30 1785 H 175.916 0.847534 -2.87154 0
M  V30 1786 H 173.462 0.40625 -1.38151 0
M  V30 1787 H 175.415 3.27458 -2.65234 0
M  V30 1788 H 174.139 2.92098 -1.46103 0
M  V30 1789 H 172.798 1.73178 -3.23117 0
M  V30 1790 H 172.446 4.17179 -2.81017 0
M  V30 1791 H 172.146 3.7584 -4.51684 0
M  V30 1792 H 173.67 4.56712 -4.05274 0
M  V30 1793 H 175.084 2.56569 -5.12684 0
M  V30 1794 H 173.481 1.98428 -5.66345 0
M  V30 1795 H 174.551 0.891962 -4.76626 0
M  V30 1796 N 175.894 1.51508 0.433938 0
M  V30 1797 C 176.857 1.72473 1.50949 0
M  V30 1798 C 177.857 0.594725 1.49398 0
M  V30 1799 O 179.047 0.862315 1.5136 0
M  V30 1800 C 176.179 1.78431 2.90474 0
M  V30 1801 H 177.372 2.68467 1.33662 0
M  V30 1802 H 174.925 1.41549 0.662836 0
M  V30 1803 H 175.66 0.842645 3.13161 0
M  V30 1804 H 175.445 2.60558 2.93005 0
M  V30 1805 H 176.935 1.96479 3.68491 0
M  V30 1806 N 177.372 -0.689602 1.41712 0
M  V30 1807 C 178.302 -1.81577 1.46806 0
M  V30 1808 C 179.283 -1.66945 0.326105 0
M  V30 1809 O 180.468 -1.86588 0.538377 0
M  V30 1810 C 177.598 -3.19762 1.35535 0
M  V30 1811 C 176.552 -3.49107 2.47605 0
M  V30 1812 C 175.878 -4.86711 2.21397 0
M  V30 1813 C 177.178 -3.47483 3.89939 0
M  V30 1814 H 178.872 -1.7757 2.41058 0
M  V30 1815 H 176.418 -0.852887 1.16025 0
M  V30 1816 H 178.371 -3.98263 1.3771 0
M  V30 1817 H 177.095 -3.24409 0.377708 0
M  V30 1818 H 175.754 -2.72959 2.44722 0
M  V30 1819 H 175.402 -4.8799 1.21961 0
M  V30 1820 H 175.102 -5.0731 2.96497 0
M  V30 1821 H 176.626 -5.67515 2.25297 0
M  V30 1822 H 178.04 -4.1598 3.94505 0
M  V30 1823 H 176.437 -3.79615 4.64771 0
M  V30 1824 H 177.507 -2.46341 4.17665 0
M  V30 1825 N 178.85 -1.27639 -0.924453 0
M  V30 1826 C 180.099 -1.13549 -1.66702 0
M  V30 1827 C 180.412 0.317487 -1.93006 0
M  V30 1828 O 181.618 0.579333 -2.65247 0
M  V30 1829 C 180.074 -1.98426 -3.00259 0
M  V30 1830 C 179.682 -3.484 -2.81641 0
M  V30 1831 C 181.426 -1.92993 -3.78092 0
M  V30 1832 C 179.333 -4.25464 -4.10773 0
M  V30 1833 H 178.263 -0.421351 -0.625283 0
M  V30 1834 H 180.914 -1.52085 -1.02676 0
M  V30 1835 H 179.296 -1.52736 -3.6536 0
M  V30 1836 H 180.47 -4.01973 -2.25287 0
M  V30 1837 H 178.785 -3.55245 -2.17232 0
M  V30 1838 H 181.382 -2.47844 -4.7379 0
M  V30 1839 H 181.725 -0.904281 -4.0636 0
M  V30 1840 H 182.258 -2.36595 -3.19793 0
M  V30 1841 H 178.997 -5.28566 -3.87683 0
M  V30 1842 H 178.517 -3.76667 -4.66779 0
M  V30 1843 H 180.196 -4.34812 -4.79111 0
M  V30 1844 N 180.328 1.1314 -1.09713 0
M  V30 1845 C 181.258 2.20748 -0.761102 0
M  V30 1846 C 182.239 1.68061 0.262566 0
M  V30 1847 O 183.424 1.93765 0.129977 0
M  V30 1848 C 180.554 3.46812 -0.184054 0
M  V30 1849 C 179.508 4.12606 -1.13757 0
M  V30 1850 C 178.834 5.33031 -0.422083 0
M  V30 1851 C 180.134 4.59603 -2.48118 0
M  V30 1852 H 181.828 2.49113 -1.66082 0
M  V30 1853 H 179.374 1.19734 -0.799987 0
M  V30 1854 H 181.327 4.21353 0.0631215 0
M  V30 1855 H 180.051 3.17851 0.750868 0
M  V30 1856 H 178.71 3.40036 -1.37007 0
M  V30 1857 H 178.358 5.00335 0.517072 0
M  V30 1858 H 178.058 5.77999 -1.05788 0
M  V30 1859 H 179.582 6.10325 -0.183277 0
M  V30 1860 H 180.996 5.25552 -2.29059 0
M  V30 1861 H 179.393 5.15321 -3.07514 0
M  V30 1862 H 180.463 3.73971 -3.08665 0
M  V30 1863 N 181.806 0.884767 1.30421 0
M  V30 1864 C 183.054 0.502112 1.95763 0
M  V30 1865 C 183.375 -0.951815 1.70192 0
M  V30 1866 O 182.645 -1.6692 1.0254 0
M  V30 1867 H 181.225 0.182694 0.724315 0
M  V30 1868 H 183.887 1.1278 1.58955 0
M  V30 1869 H 182.983 0.672188 3.04775 0
M  V30 1870 N 183.284 -1.43765 0.645699 0
M  V30 1871 C 184.695 -1.85193 0.236719 0
M  V30 1872 C 185.046 -1.54045 -1.21509 0
M  V30 1873 O 184.171 -0.985694 -1.92647 0
M  V30 1874 C 184.766 -3.36151 0.422845 0
M  V30 1875 C 183.325 -3.76338 0.0682492 0
M  V30 1876 C 182.472 -2.67538 0.729306 0
M  V30 1877 H 185.423 -1.34025 0.849883 0
M  V30 1878 H 185.444 -3.79032 -0.333904 0
M  V30 1879 H 184.956 -3.5879 1.47958 0
M  V30 1880 H 183.057 -3.59312 -0.986179 0
M  V30 1881 H 183.17 -4.76603 0.488469 0
M  V30 1882 H 181.534 -2.54176 0.163235 0
M  V30 1883 H 182.317 -2.93006 1.78892 0
M  V30 1884 N 184.763 -0.387143 -1.52771 0
M  V30 1885 C 186.009 0.196025 -2.0185 0
M  V30 1886 C 186.342 1.46641 -1.27319 0
M  V30 1887 O 185.617 1.90889 -0.373032 0
M  V30 1888 C 185.9 0.466136 -3.5707 0
M  V30 1889 C 185.753 -0.819385 -4.42274 0
M  V30 1890 C 187.072 1.25768 -4.21747 0
M  V30 1891 H 184.191 0.0697708 -0.73369 0
M  V30 1892 H 186.833 -0.516286 -1.82851 0
M  V30 1893 H 184.983 1.07293 -3.7339 0
M  V30 1894 H 186.655 -1.4563 -4.37709 0
M  V30 1895 H 184.898 -1.43517 -4.09372 0
M  V30 1896 H 185.569 -0.585065 -5.48891 0
M  V30 1897 H 188.045 0.744167 -4.09391 0
M  V30 1898 H 186.921 1.41541 -5.30337 0
M  V30 1899 H 187.182 2.27228 -3.79236 0
M  V30 1900 N 186.241 1.57166 -0.116904 0
M  V30 1901 C 187.171 2.18222 0.830759 0
M  V30 1902 C 188.152 1.12167 1.27877 0
M  V30 1903 O 189.337 1.40394 1.34176 0
M  V30 1904 C 186.467 2.77996 2.08172 0
M  V30 1905 C 185.421 3.89614 1.77157 0
M  V30 1906 C 184.747 4.36187 3.09265 0
M  V30 1907 C 186.047 5.1181 1.04151 0
M  V30 1908 H 187.741 2.97664 0.321992 0
M  V30 1909 H 185.287 1.4318 0.153434 0
M  V30 1910 H 187.24 3.19366 2.74924 0
M  V30 1911 H 185.964 1.9584 2.6137 0
M  V30 1912 H 184.623 3.48816 1.12796 0
M  V30 1913 H 184.271 3.50893 3.60393 0
M  V30 1914 H 183.971 5.11455 2.89288 0
M  V30 1915 H 185.495 4.80207 3.77139 0
M  V30 1916 H 186.909 5.50214 1.61052 0
M  V30 1917 H 185.306 5.92648 0.942762 0
M  V30 1918 H 186.376 4.84892 0.0279022 0
M  V30 1919 N 187.719 -0.156864 1.56817 0
M  V30 1920 C 188.682 -1.17781 1.96622 0
M  V30 1921 C 189.682 -1.36401 0.851555 0
M  V30 1922 O 190.872 -1.33561 1.11836 0
M  V30 1923 C 188.004 -2.54008 2.27361 0
M  V30 1924 H 189.197 -0.836564 2.87996 0
M  V30 1925 H 186.75 -0.39985 1.51099 0
M  V30 1926 H 187.485 -2.9312 1.38748 0
M  V30 1927 H 187.27 -2.41856 3.08623 0
M  V30 1928 H 188.76 -3.27558 2.59029 0
M  V30 1929 N 189.197 -1.51736 -0.425897 0
M  V30 1930 C 190.127 -1.76827 -1.52494 0
M  V30 1931 C 191.108 -0.618524 -1.58456 0
M  V30 1932 O 192.293 -0.862416 -1.74 0
M  V30 1933 C 189.423 -1.90374 -2.90474 0
M  V30 1934 C 188.377 -3.0588 -2.99369 0
M  V30 1935 C 187.703 -3.04625 -4.3944 0
M  V30 1936 C 189.003 -4.45644 -2.72394 0
M  V30 1937 H 190.697 -2.68855 -1.31748 0
M  V30 1938 H 188.243 -1.29372 -0.632362 0
M  V30 1939 H 190.196 -2.0651 -3.6733 0
M  V30 1940 H 188.92 -0.95004 -3.12477 0
M  V30 1941 H 187.579 -2.89467 -2.24954 0
M  V30 1942 H 187.227 -2.0701 -4.58428 0
M  V30 1943 H 186.927 -3.82195 -4.46319 0
M  V30 1944 H 188.451 -3.22869 -5.18255 0
M  V30 1945 H 189.865 -4.62348 -3.38979 0
M  V30 1946 H 188.262 -5.25006 -2.9067 0
M  V30 1947 H 189.332 -4.54893 -1.67929 0
M  V30 1948 N 190.675 0.682077 -1.42076 0
M  V30 1949 C 191.605 1.80796 -1.47767 0
M  V30 1950 C 192.586 1.6677 -0.334954 0
M  V30 1951 O 193.771 1.863 -0.548264 0
M  V30 1952 C 190.901 3.19038 -1.37229 0
M  V30 1953 C 189.855 3.47789 -2.49453 0
M  V30 1954 C 189.181 4.8553 -2.23975 0
M  V30 1955 C 190.481 3.45411 -3.91776 0
M  V30 1956 H 192.175 1.7629 -2.41997 0
M  V30 1957 H 189.721 0.846721 -1.16476 0
M  V30 1958 H 191.674 3.97528 -1.39821 0
M  V30 1959 H 190.398 3.24204 -0.394907 0
M  V30 1960 H 189.057 2.71657 -2.46166 0
M  V30 1961 H 188.705 4.87337 -1.24547 0
M  V30 1962 H 188.405 5.0573 -2.99184 0
M  V30 1963 H 189.929 5.66312 -2.28304 0
M  V30 1964 H 191.343 4.13882 -3.96705 0
M  V30 1965 H 189.74 3.77145 -4.66778 0
M  V30 1966 H 190.81 2.44122 -4.18966 0
M  V30 1967 N 192.153 1.28127 0.917671 0
M  V30 1968 C 193.116 1.11744 2.00115 0
M  V30 1969 C 194.116 0.0583052 1.60694 0
M  V30 1970 O 195.306 0.303755 1.71531 0
M  V30 1971 C 192.438 0.704862 3.33533 0
M  V30 1972 H 193.631 2.07966 2.16079 0
M  V30 1973 H 191.184 1.11058 1.09981 0
M  V30 1974 H 191.919 -0.258299 3.2327 0
M  V30 1975 H 191.704 1.4699 3.63505 0
M  V30 1976 H 193.194 0.612768 4.1308 0
M  V30 1977 N 193.631 -1.12557 1.10312 0
M  V30 1978 C 194.561 -2.20341 0.772798 0
M  V30 1979 C 195.542 -1.68198 -0.25365 0
M  V30 1980 O 196.727 -1.93831 -0.119699 0
M  V30 1981 C 193.857 -3.46709 0.202443 0
M  V30 1982 C 192.811 -4.11996 1.15943 0
M  V30 1983 C 192.137 -5.328 0.450345 0
M  V30 1984 C 193.437 -4.5828 2.50552 0
M  V30 1985 H 195.131 -2.48229 1.674 0
M  V30 1986 H 192.677 -1.19308 0.806326 0
M  V30 1987 H 194.63 -4.2138 -0.0407752 0
M  V30 1988 H 193.354 -3.18245 -0.734001 0
M  V30 1989 H 192.013 -3.39305 1.38808 0
M  V30 1990 H 191.661 -5.00602 -0.490531 0
M  V30 1991 H 191.361 -5.7743 1.08851 0
M  V30 1992 H 192.885 -6.10219 0.215642 0
M  V30 1993 H 194.299 -5.2433 2.31843 0
M  V30 1994 H 192.696 -5.13683 3.10242 0
M  V30 1995 H 193.766 -3.72329 3.10643 0
M  V30 1996 N 195.109 -0.891671 -1.2995 0
M  V30 1997 C 196.355 -0.514261 -1.96171 0
M  V30 1998 C 196.688 0.935506 -1.70182 0
M  V30 1999 O 195.963 1.66204 -1.01028 0
M  V30 2000 C 196.246 -0.797719 -3.51153 0
M  V30 2001 C 196.099 -2.2986 -3.86632 0
M  V30 2002 C 197.418 -0.278749 -4.39216 0
M  V30 2003 H 194.537 -0.188314 -0.712535 0
M  V30 2004 H 197.179 -1.11689 -1.53706 0
M  V30 2005 H 195.329 -0.284826 -3.87455 0
M  V30 2006 H 197.001 -2.88042 -3.60319 0
M  V30 2007 H 195.244 -2.76257 -3.34462 0
M  V30 2008 H 195.915 -2.44753 -4.94773 0
M  V30 2009 H 198.391 -0.717825 -4.09862 0
M  V30 2010 H 197.267 -0.506353 -5.46559 0
M  V30 2011 H 197.528 0.820266 -4.34424 0
M  V30 2012 N 196.587 1.43421 -0.653314 0
M  V30 2013 C 197.55 2.29182 0.0287951 0
M  V30 2014 C 198.55 1.42213 0.750465 0
M  V30 2015 O 199.74 1.63843 0.591701 0
M  V30 2016 C 196.872 3.24278 1.05151 0
M  V30 2017 H 198.065 2.90985 -0.725786 0
M  V30 2018 H 195.618 1.50702 -0.414545 0
M  V30 2019 H 196.353 2.6737 1.83532 0
M  V30 2020 H 196.138 3.88396 0.537687 0
M  V30 2021 H 197.628 3.88647 1.52786 0
M  V30 2022 N 198.065 0.39524 1.52563 0
M  V30 2023 C 198.995 -0.428384 2.29537 0
M  V30 2024 C 199.976 -1.05831 1.33169 0
M  V30 2025 O 201.161 -1.06995 1.62067 0
M  V30 2026 C 198.291 -1.55274 3.10656 0
M  V30 2027 C 197.245 -1.04855 4.14957 0
M  V30 2028 C 196.571 -2.26543 4.84337 0
M  V30 2029 C 197.871 -0.112324 5.22179 0
M  V30 2030 H 199.565 0.213867 2.98635 0
M  V30 2031 H 197.111 0.104298 1.43622 0
M  V30 2032 H 199.064 -2.1358 3.63265 0
M  V30 2033 H 197.788 -2.22266 2.39302 0
M  V30 2034 H 196.447 -0.487985 3.63338 0
M  V30 2035 H 196.095 -2.92059 4.09525 0
M  V30 2036 H 195.795 -1.93466 5.54837 0
M  V30 2037 H 197.319 -2.85481 5.39753 0
M  V30 2038 H 198.733 -0.603752 5.70112 0
M  V30 2039 H 197.13 0.128968 5.99961 0
M  V30 2040 H 198.2 0.837052 4.77621 0
M  V30 2041 N 199.544 -1.57102 0.125237 0
M  V30 2042 C 200.792 -1.95021 -0.530198 0
M  V30 2043 C 201.113 -1.00982 -1.66816 0
M  V30 2044 O 200.383 -0.0672693 -1.95784 0
M  V30 2045 H 198.963 -0.720046 -0.198853 0
M  V30 2046 H 201.625 -1.93916 0.19564 0
M  V30 2047 H 200.721 -2.98211 -0.920681 0
M  V30 2048 N 201.022 0.148545 -1.56898 0
M  V30 2049 C 202.268 0.862694 -1.83536 0
M  V30 2050 C 202.601 1.80889 -0.706604 0
M  V30 2051 O 201.876 1.92328 0.289885 0
M  V30 2052 C 202.159 1.63853 -3.20662 0
M  V30 2053 C 202.012 0.713925 -4.44098 0
M  V30 2054 C 203.331 2.60133 -3.54991 0
M  V30 2055 H 200.45 0.312179 -0.667618 0
M  V30 2056 H 203.092 0.127953 -1.89569 0
M  V30 2057 H 201.242 2.26489 -3.1565 0
M  V30 2058 H 202.914 0.098686 -4.61194 0
M  V30 2059 H 201.157 0.0234019 -4.33794 0
M  V30 2060 H 201.828 1.29278 -5.36648 0
M  V30 2061 H 204.304 2.07616 -3.60603 0
M  V30 2062 H 203.18 3.11468 -4.51972 0
M  V30 2063 H 203.441 3.41417 -2.80868 0
M  V30 2064 N 202.5 1.5196 0.417844 0
M  V30 2065 C 203.43 1.77634 1.51554 0
M  V30 2066 C 204.411 0.626918 1.58126 0
M  V30 2067 O 205.596 0.871632 1.7354 0
M  V30 2068 C 202.726 1.91911 2.8946 0
M  V30 2069 C 201.68 3.07463 2.97743 0
M  V30 2070 C 201.006 3.06951 4.37819 0
M  V30 2071 C 202.306 4.47082 2.70027 0
M  V30 2072 H 204 2.6955 1.3032 0
M  V30 2073 H 201.546 1.29706 0.625492 0
M  V30 2074 H 203.499 2.08455 3.6623 0
M  V30 2075 H 202.223 0.966598 3.11969 0
M  V30 2076 H 200.882 2.90656 2.23416 0
M  V30 2077 H 200.53 2.09438 4.57323 0
M  V30 2078 H 200.23 3.84556 4.44286 0
M  V30 2079 H 201.754 3.25613 5.16535 0
M  V30 2080 H 203.168 4.6414 3.36522 0
M  V30 2081 H 201.565 5.2654 2.87881 0
M  V30 2082 H 202.635 4.55777 1.65514 0
M  V30 2083 N 203.978 -0.674533 1.42435 0
M  V30 2084 C 205.226 -1.43175 1.42637 0
M  V30 2085 C 205.547 -1.94951 0.0438992 0
M  V30 2086 O 204.817 -1.7308 -0.917607 0
M  V30 2087 H 203.397 -0.531307 0.525092 0
M  V30 2088 H 206.059 -0.797006 1.77859 0
M  V30 2089 H 205.155 -2.28463 2.12629 0
M  V30 2090 N 205.456 -1.28612 -0.910864 0
M  V30 2091 C 206.386 -1.15326 -2.03032 0
M  V30 2092 C 207.367 -0.0502924 -1.70026 0
M  V30 2093 O 208.552 -0.227797 -1.92859 0
M  V30 2094 C 205.682 -0.817343 -3.37545 0
M  V30 2095 C 204.636 -1.8754 -3.84724 0
M  V30 2096 C 203.962 -1.39305 -5.16235 0
M  V30 2097 C 205.262 -3.28244 -4.06267 0
M  V30 2098 H 206.956 -2.08975 -2.14406 0
M  V30 2099 H 204.502 -1.00612 -1.03021 0
M  V30 2100 H 206.455 -0.711151 -4.15356 0
M  V30 2101 H 205.179 0.154846 -3.26233 0
M  V30 2102 H 203.838 -1.97079 -3.09121 0
M  V30 2103 H 203.486 -0.409846 -5.01328 0
M  V30 2104 H 203.186 -2.10057 -5.48771 0
M  V30 2105 H 204.71 -1.30014 -5.96598 0
M  V30 2106 H 206.124 -3.21611 -4.74594 0
M  V30 2107 H 204.521 -3.96855 -4.5014 0
M  V30 2108 H 205.591 -3.72048 -3.10979 0
M  V30 2109 N 206.934 1.1197 -1.10907 0
M  V30 2110 C 208.18 1.84059 -0.865674 0
M  V30 2111 C 208.535 1.82731 0.602254 0
M  V30 2112 O 207.828 1.26543 1.43866 0
M  V30 2113 C 208.022 3.30749 -1.35425 0
M  V30 2114 C 207.851 3.46363 -2.86815 0
M  V30 2115 C 206.621 3.59712 -3.54874 0
M  V30 2116 C 208.819 3.41116 -3.84895 0
M  V30 2117 N 206.801 3.63741 -4.94536 0
M  V30 2118 C 208.172 3.51698 -5.10596 0
M  V30 2119 C 210.227 3.24612 -3.77533 0
M  V30 2120 C 208.93 3.4748 -6.29802 0
M  V30 2121 C 210.956 3.21708 -4.96244 0
M  V30 2122 C 210.318 3.32856 -6.20795 0
M  V30 2123 H 206.417 0.689015 -0.369841 0
M  V30 2124 H 209.001 1.34016 -1.41237 0
M  V30 2125 H 207.172 3.79322 -0.834814 0
M  V30 2126 H 208.904 3.90718 -1.05458 0
M  V30 2127 H 205.659 3.62038 -3.05329 0
M  V30 2128 H 206.083 3.69408 -5.67333 0
M  V30 2129 H 210.725 3.14883 -2.8215 0
M  V30 2130 H 208.443 3.55978 -7.25469 0
M  V30 2131 H 212.029 3.10113 -4.92261 0
M  V30 2132 H 210.909 3.3059 -7.11112 0
M  V30 2133 N 208.412 0.89855 1.29475 0
M  V30 2134 C 209.362 0.346767 2.25348 0
M  V30 2135 C 210.346 -0.532509 1.51833 0
M  V30 2136 O 211.538 -0.374714 1.72988 0
M  V30 2137 C 208.667 -0.425681 3.40651 0
M  V30 2138 C 207.753 0.46845 4.21505 0
M  V30 2139 N 208.144 1.57514 4.80648 0
M  V30 2140 C 206.442 0.26603 4.45206 0
M  V30 2141 C 207.143 2.12889 5.41344 0
M  V30 2142 N 206.119 1.42208 5.24669 0
M  V30 2143 H 209.921 1.19219 2.68634 0
M  V30 2144 H 207.435 0.749473 1.44072 0
M  V30 2145 H 209.432 -0.837716 4.08397 0
M  V30 2146 H 208.092 -1.26838 2.98902 0
M  V30 2147 H 209.103 1.95789 4.79465 0
M  V30 2148 H 205.78 -0.538394 4.14014 0
M  V30 2149 H 207.17 3.05901 5.98226 0
M  V30 2150 N 209.89 -1.43072 0.660911 0
M  V30 2151 C 211.136 -2.0202 0.177708 0
M  V30 2152 C 211.469 -1.52066 -1.20787 0
M  V30 2153 O 210.744 -0.716987 -1.80802 0
M  V30 2154 C 211.027 -3.59561 0.197019 0
M  V30 2155 C 210.88 -4.19727 1.61706 0
M  V30 2156 C 212.199 -4.37664 -0.462396 0
M  V30 2157 H 209.318 -0.734034 0.0660494 0
M  V30 2158 H 211.96 -1.70272 0.843058 0
M  V30 2159 H 210.11 -3.86739 -0.369527 0
M  V30 2160 H 211.782 -4.03553 2.23479 0
M  V30 2161 H 210.025 -3.76084 2.16201 0
M  V30 2162 H 210.696 -5.28834 1.58237 0
M  V30 2163 H 213.172 -4.16095 0.0197215 0
M  V30 2164 H 212.048 -5.47305 -0.418188 0
M  V30 2165 H 212.309 -4.14493 -1.53778 0
M  V30 2166 N 211.368 -0.403325 -1.52352 0
M  V30 2167 C 212.784 -0.0539281 -1.59509 0
M  V30 2168 C 212.984 1.43307 -1.41652 0
M  V30 2169 O 212.04 2.19924 -1.24056 0
M  V30 2170 C 213.353 -0.543654 -2.95745 0
M  V30 2171 C 214.901 -0.501125 -3.08962 0
M  V30 2172 C 215.376 -0.967267 -4.47669 0
M  V30 2173 N 216.867 -0.923849 -4.53893 0
M  V30 2174 C 217.602 -1.25578 -5.5948 0
M  V30 2175 N 217.098 -1.65889 -6.72646 0
M  V30 2176 N 218.891 -1.17613 -5.49658 0
M  V30 2177 H 211.042 -1.37123 -1.62206 0
M  V30 2178 H 213.305 -0.56294 -0.76276 0
M  V30 2179 H 213.011 -1.58275 -3.14073 0
M  V30 2180 H 212.885 0.0498042 -3.77167 0
M  V30 2181 H 215.272 0.528909 -2.90321 0
M  V30 2182 H 215.353 -1.13056 -2.2946 0
M  V30 2183 H 214.997 -1.9956 -4.67053 0
M  V30 2184 H 214.927 -0.314698 -5.25659 0
M  V30 2185 H 217.418 -0.627403 -3.72655 0
M  V30 2186 H 217.731 -1.89543 -7.49195 0
M  V30 2187 H 216.076 -1.69787 -6.73942 0
M  V30 2188 H 219.267 -0.860115 -4.6013 0
M  V30 2189 H 219.44 -1.43812 -6.3184 0
M  V30 2190 N 212.846 1.57033 -0.133567 0
M  V30 2191 C 214.262 1.58035 0.222944 0
M  V30 2192 C 214.462 1.14713 1.6566 0
M  V30 2193 O 213.518 0.841218 2.38075 0
M  V30 2194 C 214.831 3.00691 -0.0236116 0
M  V30 2195 C 216.379 3.12973 0.0411512 0
M  V30 2196 C 216.854 4.57654 -0.177899 0
M  V30 2197 N 218.345 4.63033 -0.124365 0
M  V30 2198 C 219.08 5.72771 -0.268553 0
M  V30 2199 N 218.576 6.91206 -0.46972 0
M  V30 2200 N 220.369 5.61718 -0.2071 0
M  V30 2201 H 212.52 1.8349 -1.06981 0
M  V30 2202 H 214.783 0.848677 -0.422436 0
M  V30 2203 H 214.489 3.36726 -1.0153 0
M  V30 2204 H 214.363 3.70614 0.701808 0
M  V30 2205 H 216.75 2.76787 1.02338 0
M  V30 2206 H 216.831 2.45564 -0.716383 0
M  V30 2207 H 216.475 4.94542 -1.15717 0
M  V30 2208 H 216.405 5.23173 0.599797 0
M  V30 2209 H 218.896 3.7789 0.027011 0
M  V30 2210 H 219.209 7.70693 -0.570212 0
M  V30 2211 H 217.554 6.93156 -0.505876 0
M  V30 2212 H 220.745 4.68072 -0.0507986 0
M  V30 2213 H 220.918 6.47195 -0.322909 0
M  V30 2214 N 214.325 -0.140222 1.56975 0
M  V30 2215 C 215.741 -0.493088 1.51792 0
M  V30 2216 C 215.941 -1.83013 0.843116 0
M  V30 2217 O 214.997 -2.49041 0.416493 0
M  V30 2218 C 216.31 -0.497144 2.96562 0
M  V30 2219 C 217.858 -0.582186 3.07538 0
M  V30 2220 C 218.333 -0.616838 4.53827 0
M  V30 2221 N 219.824 -0.678873 4.58198 0
M  V30 2222 C 220.559 -0.726782 5.68775 0
M  V30 2223 N 220.055 -0.733623 6.88905 0
M  V30 2224 N 221.848 -0.768179 5.56826 0
M  V30 2225 H 213.999 0.736108 1.99237 0
M  V30 2226 H 216.262 0.269182 0.90898 0
M  V30 2227 H 215.968 0.417217 3.49217 0
M  V30 2228 H 215.842 -1.33263 3.52875 0
M  V30 2229 H 218.229 -1.48697 2.54899 0
M  V30 2230 H 218.31 0.280581 2.54257 0
M  V30 2231 H 217.954 0.283812 5.07106 0
M  V30 2232 H 217.884 -1.49619 5.04898 0
M  V30 2233 H 220.375 -0.68061 3.7172 0
M  V30 2234 H 220.688 -0.772215 7.68932 0
M  V30 2235 H 219.033 -0.701389 6.91452 0
M  V30 2236 H 222.224 -0.760051 4.61888 0
M  V30 2237 H 222.397 -0.80205 6.43017 0
M  V30 2238 N 215.803 -1.52179 -0.40978 0
M  V30 2239 C 216.735 -1.71703 -1.51825 0
M  V30 2240 C 217.748 -0.597445 -1.51441 0
M  V30 2241 O 218.937 -0.872582 -1.55719 0
M  V30 2242 C 216.037 -1.74171 -2.90719 0
M  V30 2243 C 215.21 -3.03156 -3.15302 0
M  V30 2244 C 214.269 -2.97445 -4.34065 0
M  V30 2245 O 213.295 -3.71352 -4.31377 0
M  V30 2246 N 214.497 -2.15191 -5.39141 0
M  V30 2247 H 217.262 -2.67334 -1.35472 0
M  V30 2248 H 214.823 -1.50409 -0.599069 0
M  V30 2249 H 216.815 -1.67884 -3.68235 0
M  V30 2250 H 215.385 -0.860166 -3.00533 0
M  V30 2251 H 214.605 -3.23097 -2.25836 0
M  V30 2252 H 215.893 -3.88484 -3.28569 0
M  V30 2253 H 215.291 -1.54573 -5.44173 0
M  V30 2254 H 213.848 -2.1476 -6.15403 0
M  V30 2255 N 217.281 0.66697 -1.42791 0
M  V30 2256 C 218.191 1.80962 -1.49299 0
M  V30 2257 C 219.207 1.69775 -0.381108 0
M  V30 2258 O 220.383 1.91188 -0.633188 0
M  V30 2259 C 217.448 3.17156 -1.40045 0
M  V30 2260 C 216.509 3.40242 -2.6179 0
M  V30 2261 C 215.742 4.69939 -2.52969 0
M  V30 2262 O 215.965 5.48372 -1.56985 0
M  V30 2263 O 214.899 4.94441 -3.43237 0
M  V30 2264 H 218.725 1.78427 -2.45759 0
M  V30 2265 H 216.31 0.823713 -1.24641 0
M  V30 2266 H 218.192 3.98413 -1.37276 0
M  V30 2267 H 216.867 3.20312 -0.467138 0
M  V30 2268 H 215.774 2.58802 -2.70134 0
M  V30 2269 H 217.107 3.41923 -3.54047 0
M  V30 2270 N 218.759 1.29093 0.90403 0
M  V30 2271 C 219.706 1.13853 2.00764 0
M  V30 2272 C 220.676 0.0330084 1.66067 0
M  V30 2273 O 221.861 0.199733 1.89752 0
M  V30 2274 C 219.001 0.816537 3.35301 0
M  V30 2275 C 218.114 2.00206 3.82807 0
M  V30 2276 C 217.249 1.61983 5.059 0
M  V30 2277 C 216.288 2.77143 5.45764 0
M  V30 2278 N 215.425 2.39346 6.60044 0
M  V30 2279 H 220.265 2.08276 2.13132 0
M  V30 2280 H 217.802 1.03648 1.04381 0
M  V30 2281 H 219.76 0.610557 4.12708 0
M  V30 2282 H 218.39 -0.090779 3.22672 0
M  V30 2283 H 217.442 2.31988 3.01473 0
M  V30 2284 H 218.754 2.86512 4.08304 0
M  V30 2285 H 217.908 1.37649 5.90879 0
M  V30 2286 H 216.647 0.728202 4.82233 0
M  V30 2287 H 215.652 3.02165 4.59322 0
M  V30 2288 H 216.877 3.66964 5.71414 0
M  V30 2289 H 214.823 1.52665 6.37989 0
M  V30 2290 H 214.74 3.19185 6.85315 0
M  V30 2291 H 216.008 2.1832 7.48303 0
M  V30 2292 N 220.237 -1.11381 1.11499 0
M  V30 2293 C 221.169 -2.17207 0.731704 0
M  V30 2294 C 222.182 -1.61066 -0.236957 0
M  V30 2295 O 223.371 -1.78489 -0.0197591 0
M  V30 2296 C 220.471 -3.38846 0.0607624 0
M  V30 2297 C 219.644 -4.24451 1.0564 0
M  V30 2298 C 218.703 -5.24562 0.4149 0
M  V30 2299 O 217.729 -5.59071 1.069 0
M  V30 2300 N 218.931 -5.74651 -0.821943 0
M  V30 2301 H 221.696 -2.50699 1.64225 0
M  V30 2302 H 219.257 -1.26908 1.00529 0
M  V30 2303 H 221.249 -4.02911 -0.380139 0
M  V30 2304 H 219.819 -3.03411 -0.752376 0
M  V30 2305 H 219.039 -3.56833 1.67524 0
M  V30 2306 H 220.327 -4.78486 1.72998 0
M  V30 2307 H 219.725 -5.48797 -1.37252 0
M  V30 2308 H 218.282 -6.40549 -1.20582 0
M  V30 2309 N 221.715 -0.905404 -1.28997 0
M  V30 2310 C 223.131 -0.60233 -1.47798 0
M  V30 2311 C 223.331 0.854645 -1.82478 0
M  V30 2312 O 222.387 1.63439 -1.92468 0
M  V30 2313 C 223.7 -1.53306 -2.58685 0
M  V30 2314 C 225.248 -1.53887 -2.72558 0
M  V30 2315 C 225.723 -2.45602 -3.86579 0
M  V30 2316 N 227.214 -2.43681 -3.93921 0
M  V30 2317 C 227.949 -3.11347 -4.81509 0
M  V30 2318 N 227.445 -3.88313 -5.73746 0
M  V30 2319 N 229.238 -3.00476 -4.75048 0
M  V30 2320 H 221.389 -1.84765 -1.04764 0
M  V30 2321 H 223.652 -0.792025 -0.520961 0
M  V30 2322 H 223.358 -2.57141 -2.39941 0
M  V30 2323 H 223.232 -1.25787 -3.55609 0
M  V30 2324 H 225.619 -0.507941 -2.90696 0
M  V30 2325 H 225.7 -1.85447 -1.76191 0
M  V30 2326 H 225.344 -3.48792 -3.69197 0
M  V30 2327 H 225.274 -2.11349 -4.82327 0
M  V30 2328 H 227.765 -1.87767 -3.27951 0
M  V30 2329 H 228.078 -4.36985 -6.37389 0
M  V30 2330 H 226.423 -3.92419 -5.73614 0
M  V30 2331 H 229.614 -2.39858 -4.01977 0
M  V30 2332 H 229.787 -3.53485 -5.43095 0
M  V30 2333 N 223.193 1.4272 -0.668489 0
M  V30 2334 C 224.441 2.01226 -0.187769 0
M  V30 2335 C 224.762 1.53092 1.2078 0
M  V30 2336 O 224.032 0.74993 1.80977 0
M  V30 2337 H 222.612 0.744041 -0.0664272 0
M  V30 2338 H 225.274 1.74723 -0.863583 0
M  V30 2339 H 224.37 3.11556 -0.184166 0
M  V30 2340 N 224.671 0.411399 1.52136 0
M  V30 2341 C 225.601 -0.404015 2.29978 0
M  V30 2342 C 226.582 -1.04412 1.34284 0
M  V30 2343 O 227.767 -1.0527 1.63192 0
M  V30 2344 C 224.897 -1.5197 3.12286 0
M  V30 2345 C 223.851 -1.00448 4.16046 0
M  V30 2346 C 223.177 -2.21393 4.86712 0
M  V30 2347 C 224.477 -0.0569336 5.22269 0
M  V30 2348 H 226.171 0.245529 2.98392 0
M  V30 2349 H 223.717 0.119525 1.43503 0
M  V30 2350 H 225.67 -2.09715 3.6551 0
M  V30 2351 H 224.394 -2.19716 2.41646 0
M  V30 2352 H 223.053 -0.449421 3.63835 0
M  V30 2353 H 222.701 -2.87699 4.12599 0
M  V30 2354 H 222.401 -1.87571 5.56858 0
M  V30 2355 H 223.925 -2.7974 5.4275 0
M  V30 2356 H 225.339 -0.54325 5.7072 0
M  V30 2357 H 223.736 0.192594 5.99791 0
M  V30 2358 H 224.806 0.887663 4.76706 0
M  V30 2359 N 226.149 -1.5696 0.141893 0
M  V30 2360 C 227.099 -2.13074 -0.811383 0
M  V30 2361 C 228.083 -1.05726 -1.21288 0
M  V30 2362 O 229.275 -1.31914 -1.18015 0
M  V30 2363 C 226.404 -2.75186 -2.0525 0
M  V30 2364 C 225.49 -3.8965 -1.67432 0
M  V30 2365 N 225.881 -4.95733 -1.0041 0
M  V30 2366 C 224.179 -4.00262 -1.96739 0
M  V30 2367 C 224.88 -5.75858 -0.822345 0
M  V30 2368 N 223.856 -5.26452 -1.3546 0
M  V30 2369 H 227.658 -2.92465 -0.290031 0
M  V30 2370 H 225.172 -1.6229 -0.0598218 0
M  V30 2371 H 227.169 -3.13745 -2.74535 0
M  V30 2372 H 225.829 -1.97266 -2.57907 0
M  V30 2373 H 226.84 -5.13607 -0.665441 0
M  V30 2374 H 223.517 -3.33412 -2.51282 0
M  V30 2375 H 224.907 -6.71254 -0.294496 0
M  V30 2376 N 227.627 0.131896 -1.57047 0
M  V30 2377 C 228.852 0.860418 -1.8871 0
M  V30 2378 C 229.277 1.73251 -0.73251 0
M  V30 2379 O 228.635 1.785 0.317429 0
M  V30 2380 C 228.683 1.68047 -3.19049 0
M  V30 2381 O 227.787 2.7862 -3.04047 0
M  V30 2382 H 227.128 0.238743 -0.619595 0
M  V30 2383 H 229.658 0.118169 -2.04258 0
M  V30 2384 H 229.668 2.07238 -3.51449 0
M  V30 2385 H 228.343 1.04018 -4.02682 0
M  V30 2386 H 226.92 2.42726 -2.83088 0
M  V30 2387 N 229.106 1.52395 0.401703 0
M  V30 2388 C 230.016 1.7917 1.51444 0
M  V30 2389 C 231.032 0.677691 1.6026 0
M  V30 2390 O 232.208 0.963909 1.76835 0
M  V30 2391 C 229.273 1.94347 2.87107 0
M  V30 2392 C 228.334 3.18257 2.88116 0
M  V30 2393 C 227.567 3.32701 4.17308 0
M  V30 2394 O 227.79 2.52238 5.11598 0
M  V30 2395 O 226.724 4.25891 4.25324 0
M  V30 2396 H 230.55 2.73633 1.31752 0
M  V30 2397 H 228.135 1.3733 0.588296 0
M  V30 2398 H 230.017 2.06109 3.67555 0
M  V30 2399 H 228.692 1.03073 3.06851 0
M  V30 2400 H 227.599 3.11947 2.06494 0
M  V30 2401 H 228.932 4.09336 2.73322 0
M  V30 2402 N 230.584 -0.659388 1.43143 0
M  V30 2403 C 231.514 -1.78422 1.50625 0
M  V30 2404 C 232.495 -1.66216 0.361443 0
M  V30 2405 O 233.68 -1.85404 0.577834 0
M  V30 2406 C 230.81 -3.16815 1.42287 0
M  V30 2407 C 229.764 -3.43777 2.54954 0
M  V30 2408 C 229.09 -4.81905 2.31671 0
M  V30 2409 C 230.39 -3.39134 3.97222 0
M  V30 2410 H 232.084 -1.72417 2.44771 0
M  V30 2411 H 229.63 -0.828084 1.17808 0
M  V30 2412 H 231.583 -3.95253 1.46127 0
M  V30 2413 H 230.307 -3.23534 0.446435 0
M  V30 2414 H 228.966 -2.67707 2.50457 0
M  V30 2415 H 228.614 -4.85294 1.32284 0
M  V30 2416 H 228.314 -5.00906 3.07192 0
M  V30 2417 H 229.838 -5.62609 2.37284 0
M  V30 2418 H 231.252 -4.07518 4.03239 0
M  V30 2419 H 229.649 -3.69671 4.72719 0
M  V30 2420 H 230.719 -2.37426 4.22797 0
M  V30 2421 N 232.062 -1.29571 -0.897171 0
M  V30 2422 C 233.31 -1.17456 -1.64464 0
M  V30 2423 C 233.631 0.273698 -1.9307 0
M  V30 2424 O 232.901 1.18684 -1.55855 0
M  V30 2425 H 231.481 -0.431706 -0.609622 0
M  V30 2426 H 234.143 -1.62531 -1.07562 0
M  V30 2427 H 233.239 -1.72648 -2.59998 0
M  V30 2428 N 233.54 1.10788 -1.12088 0
M  V30 2429 C 234.45 2.20599 -0.798338 0
M  V30 2430 C 235.466 1.72712 0.21135 0
M  V30 2431 O 236.642 2.01348 0.0458477 0
M  V30 2432 C 233.707 3.45771 -0.253674 0
M  V30 2433 C 232.768 4.08411 -1.32283 0
M  V30 2434 C 232.001 5.27608 -0.80406 0
M  V30 2435 O 232.224 5.69241 0.363478 0
M  V30 2436 O 231.158 5.8101 -1.57198 0
M  V30 2437 H 234.984 2.50614 -1.7154 0
M  V30 2438 H 232.569 1.19454 -0.897275 0
M  V30 2439 H 234.451 4.21376 0.0453691 0
M  V30 2440 H 233.126 3.1739 0.636005 0
M  V30 2441 H 232.033 3.34507 -1.67499 0
M  V30 2442 H 233.366 4.40986 -2.18614 0
M  V30 2443 N 235.018 0.912232 1.28515 0
M  V30 2444 C 236.243 0.559774 1.99703 0
M  V30 2445 C 236.668 -0.851393 1.67729 0
M  V30 2446 O 236.026 -1.56875 0.908834 0
M  V30 2447 C 236.074 0.773874 3.52198 0
M  V30 2448 O 235.178 -0.167842 4.12058 0
M  V30 2449 H 234.519 0.21723 0.627461 0
M  V30 2450 H 237.049 1.22725 1.63706 0
M  V30 2451 H 237.059 0.683386 4.02236 0
M  V30 2452 H 235.734 1.80261 3.74805 0
M  V30 2453 H 234.311 -0.0287509 3.72889 0
M  V30 2454 N 236.496 -1.42363 0.676048 0
M  V30 2455 C 237.721 -2.06377 0.205705 0
M  V30 2456 C 238.146 -1.50463 -1.12883 0
M  V30 2457 O 237.504 -0.623619 -1.70237 0
M  V30 2458 C 237.552 -3.60277 0.152655 0
M  V30 2459 O 236.656 -4.02935 -0.87845 0
M  V30 2460 H 235.997 -0.655588 0.105359 0
M  V30 2461 H 238.527 -1.82475 0.925412 0
M  V30 2462 H 238.537 -4.07993 -0.0230675 0
M  V30 2463 H 237.212 -4.00346 1.12675 0
M  V30 2464 H 235.789 -3.66764 -0.673668 0
M  V30 2465 N 237.974 -0.419461 -1.51915 0
M  V30 2466 C 238.904 0.391813 -2.30189 0
M  V30 2467 C 239.885 1.03699 -1.34836 0
M  V30 2468 O 241.07 1.04403 -1.63748 0
M  V30 2469 C 238.2 1.50312 -3.13087 0
M  V30 2470 C 237.154 0.9824 -4.16573 0
M  V30 2471 C 236.48 2.18809 -4.8788 0
M  V30 2472 C 237.78 0.0292356 -5.22292 0
M  V30 2473 H 239.474 -0.26135 -2.98257 0
M  V30 2474 H 237.02 -0.127134 -1.43438 0
M  V30 2475 H 238.973 2.07773 -3.66617 0
M  V30 2476 H 237.697 2.18431 -2.42807 0
M  V30 2477 H 236.356 0.430119 -3.64068 0
M  V30 2478 H 236.004 2.85507 -4.14119 0
M  V30 2479 H 235.704 1.84615 -5.57845 0
M  V30 2480 H 237.228 2.76858 -5.44226 0
M  V30 2481 H 238.642 0.512976 -5.71 0
M  V30 2482 H 237.039 -0.2244 -5.9968 0
M  V30 2483 H 238.109 -0.912931 -4.76228 0
M  V30 2484 N 239.452 1.56882 -0.150215 0
M  V30 2485 C 240.701 1.95403 0.500071 0
M  V30 2486 C 241.014 1.03777 1.658 0
M  V30 2487 O 242.22 1.31889 2.37313 0
M  V30 2488 C 240.676 3.4738 0.941018 0
M  V30 2489 C 240.284 4.47596 -0.190158 0
M  V30 2490 C 242.028 3.9476 1.56091 0
M  V30 2491 C 239.935 5.90787 0.269237 0
M  V30 2492 H 238.865 0.729515 0.190588 0
M  V30 2493 H 241.516 1.81988 -0.235074 0
M  V30 2494 H 239.898 3.56138 1.73152 0
M  V30 2495 H 241.072 4.50536 -0.967157 0
M  V30 2496 H 239.387 4.10151 -0.718666 0
M  V30 2497 H 241.984 4.99181 1.9163 0
M  V30 2498 H 242.327 3.36494 2.45107 0
M  V30 2499 H 242.86 3.88932 0.835249 0
M  V30 2500 H 239.599 6.52879 -0.585621 0
M  V30 2501 H 239.119 5.912 1.01204 0
M  V30 2502 H 240.798 6.42979 0.720176 0
M  V30 2503 N 240.93 -0.123565 1.57115 0
M  V30 2504 C 241.86 -1.15309 2.03042 0
M  V30 2505 C 242.841 -1.43454 0.914061 0
M  V30 2506 O 244.026 -1.53973 1.18347 0
M  V30 2507 C 241.156 -2.48043 2.43089 0
M  V30 2508 C 240.11 -2.3437 3.58127 0
M  V30 2509 C 239.436 -3.72026 3.84059 0
M  V30 2510 C 240.736 -1.80804 4.90007 0
M  V30 2511 H 242.43 -0.771102 2.893 0
M  V30 2512 H 239.976 -0.369479 1.39179 0
M  V30 2513 H 241.929 -3.20311 2.73823 0
M  V30 2514 H 240.653 -2.88122 1.53796 0
M  V30 2515 H 239.312 -1.64551 3.27595 0
M  V30 2516 H 238.96 -4.09582 2.91979 0
M  V30 2517 H 238.66 -3.63732 4.6149 0
M  V30 2518 H 240.184 -4.45806 4.1724 0
M  V30 2519 H 241.598 -2.42886 5.19307 0
M  V30 2520 H 239.995 -1.83343 5.71407 0
M  V30 2521 H 241.065 -0.76528 4.78823 0
M  V30 2522 N 242.408 -1.52605 -0.393616 0
M  V30 2523 C 243.355 -1.77055 -1.48054 0
M  V30 2524 C 244.325 -0.61358 -1.54352 0
M  V30 2525 O 245.51 -0.852806 -1.70681 0
M  V30 2526 C 242.65 -1.94108 -2.85335 0
M  V30 2527 C 241.763 -3.21792 -2.88226 0
M  V30 2528 C 240.898 -3.29188 -4.16904 0
M  V30 2529 C 239.937 -4.51013 -4.13828 0
M  V30 2530 N 239.074 -4.55716 -5.34105 0
M  V30 2531 H 243.914 -2.69815 -1.26506 0
M  V30 2532 H 241.451 -1.33683 -0.61379 0
M  V30 2533 H 243.409 -2.01979 -3.65049 0
M  V30 2534 H 242.039 -1.04713 -3.05344 0
M  V30 2535 H 241.091 -3.23015 -2.00911 0
M  V30 2536 H 242.403 -4.11557 -2.8182 0
M  V30 2537 H 241.557 -3.36216 -5.05018 0
M  V30 2538 H 240.296 -2.37389 -4.26026 0
M  V30 2539 H 239.301 -4.44115 -3.24102 0
M  V30 2540 H 240.526 -5.44123 -4.06333 0
M  V30 2541 H 238.472 -3.66807 -5.43865 0
M  V30 2542 H 238.389 -5.39346 -5.29756 0
M  V30 2543 H 239.657 -4.66993 -6.2413 0
M  V30 2544 N 243.887 0.651787 -1.4349 0
M  V30 2545 C 244.85 1.74647 -1.48429 0
M  V30 2546 C 245.85 1.56513 -0.368817 0
M  V30 2547 O 247.04 1.62385 -0.630623 0
M  V30 2548 C 244.172 3.13533 -1.33827 0
M  V30 2549 H 245.365 1.71649 -2.4592 0
M  V30 2550 H 242.918 0.863573 -1.30277 0
M  V30 2551 H 243.653 3.22142 -0.37349 0
M  V30 2552 H 243.438 3.28101 -2.14691 0
M  V30 2553 H 244.928 3.93356 -1.40218 0
M  V30 2554 N 245.365 1.30045 0.890287 0
M  V30 2555 C 246.59 1.21598 1.68014 0
M  V30 2556 C 247.015 -0.218678 1.86825 0
M  V30 2557 O 246.373 -1.15756 1.39536 0
M  V30 2558 C 246.421 1.94434 3.03691 0
M  V30 2559 O 245.525 1.2678 3.92429 0
M  V30 2560 H 244.866 0.420856 0.513592 0
M  V30 2561 H 247.396 1.71775 1.11151 0
M  V30 2562 H 247.406 2.03251 3.5377 0
M  V30 2563 H 246.081 2.98777 2.89318 0
M  V30 2564 H 244.658 1.26282 3.50866 0
M  V30 2565 N 246.843 -1.10192 1.12674 0
M  V30 2566 C 247.753 -2.20172 0.810026 0
M  V30 2567 C 248.769 -1.72821 -0.202188 0
M  V30 2568 O 249.945 -2.01369 -0.0351691 0
M  V30 2569 C 247.01 -3.45631 0.272007 0
M  V30 2570 C 246.071 -4.07704 1.34447 0
M  V30 2571 C 245.304 -5.27175 0.832029 0
M  V30 2572 O 245.527 -5.69425 -0.333284 0
M  V30 2573 O 244.461 -5.80168 1.60277 0
M  V30 2574 H 248.287 -2.49701 1.72867 0
M  V30 2575 H 245.872 -1.18977 0.903597 0
M  V30 2576 H 247.754 -4.21394 -0.0230219 0
M  V30 2577 H 246.429 -3.17723 -0.619164 0
M  V30 2578 H 245.336 -3.33614 1.6927 0
M  V30 2579 H 246.669 -4.3982 2.2095 0
M  V30 2580 N 248.321 -0.919034 -1.28029 0
M  V30 2581 C 249.253 -0.368762 -2.26214 0
M  V30 2582 C 250.266 0.495716 -1.55069 0
M  V30 2583 O 251.455 0.30974 -1.75792 0
M  V30 2584 C 248.555 0.491049 -3.35324 0
M  V30 2585 C 247.728 -0.352133 -4.3598 0
M  V30 2586 C 246.787 0.443622 -5.24327 0
M  V30 2587 O 245.813 -0.14566 -5.69014 0
M  V30 2588 N 247.015 1.74545 -5.53637 0
M  V30 2589 H 249.78 -1.21273 -2.74068 0
M  V30 2590 H 247.341 -0.785541 -1.41566 0
M  V30 2591 H 249.333 1.03026 -3.91366 0
M  V30 2592 H 247.903 1.23574 -2.87138 0
M  V30 2593 H 247.123 -1.07269 -3.79324 0
M  V30 2594 H 248.411 -0.928883 -5.00249 0
M  V30 2595 H 247.809 2.24666 -5.19174 0
M  V30 2596 H 246.366 2.23138 -6.12416 0
M  V30 2597 N 249.799 1.42003 -0.683588 0
M  V30 2598 C 251.047 2.01015 -0.209101 0
M  V30 2599 C 251.368 1.54365 1.19149 0
M  V30 2600 O 250.638 0.769083 1.80172 0
M  V30 2601 H 249.218 0.743294 -0.074315 0
M  V30 2602 H 251.88 1.73798 -0.882066 0
M  V30 2603 H 250.976 3.11343 -0.2172 0
M  V30 2604 N 251.277 0.427512 1.51691 0
M  V30 2605 C 252.554 -0.201684 1.94557 0
M  V30 2606 C 252.934 -1.60981 1.36559 0
M  V30 2607 O 252.282 -2.21814 0.548702 0
M  V30 2608 C 252.492 -0.189394 3.48486 0
M  V30 2609 C 253.84 -0.39978 4.22714 0
M  V30 2610 O 254.864 -0.267945 3.55191 0
M  V30 2611 O 253.723 -0.661249 5.42485 0
M  V30 2612 H 250.817 -0.135261 0.815864 0
M  V30 2613 H 253.363 0.484782 1.62628 0
M  V30 2614 H 252.135 0.795431 3.8313 0
M  V30 2615 H 251.758 -0.919187 3.86829 0
M  V30 2616 N 252.755 -1.56801 0.158532 0
M  V30 2617 C 253.98 -2.01295 -0.499516 0
M  V30 2618 C 254.405 -1.03799 -1.56867 0
M  V30 2619 O 253.763 -0.0155162 -1.81293 0
M  V30 2620 C 253.811 -3.44469 -1.06647 0
M  V30 2621 O 252.915 -3.50012 -2.18095 0
M  V30 2622 H 252.256 -0.652884 -0.12099 0
M  V30 2623 H 254.786 -2.02958 0.258661 0
M  V30 2624 H 254.796 -3.8351 -1.39227 0
M  V30 2625 H 253.471 -4.14932 -0.283581 0
M  V30 2626 H 252.048 -3.22822 -1.86656 0
M  V30 2627 N 254.233 0.115231 -1.57178 0
M  V30 2628 C 255.166 1.17166 -1.95825 0
M  V30 2629 C 256.144 1.39912 -0.828463 0
M  V30 2630 O 257.328 1.54004 -1.08697 0
M  V30 2631 C 254.455 2.52478 -2.25771 0
M  V30 2632 C 253.501 2.46136 -3.48309 0
M  V30 2633 S 254.334 1.89736 -5.0076 0
M  V30 2634 C 255.49 3.26713 -5.33863 0
M  V30 2635 H 255.723 0.842103 -2.85124 0
M  V30 2636 H 253.256 0.322136 -1.51002 0
M  V30 2637 H 255.214 3.30332 -2.43702 0
M  V30 2638 H 253.875 2.82609 -1.37079 0
M  V30 2639 H 253.068 3.45819 -3.66641 0
M  V30 2640 H 252.67 1.76404 -3.29784 0
M  V30 2641 H 254.962 4.22935 -5.29275 0
M  V30 2642 H 255.905 3.13205 -6.35065 0
M  V30 2643 H 256.313 3.25316 -4.61335 0
M  V30 2644 N 255.711 1.52812 0.385517 0
M  V30 2645 C 256.641 1.80808 1.47752 0
M  V30 2646 C 257.622 0.660318 1.5676 0
M  V30 2647 O 258.807 0.908246 1.71652 0
M  V30 2648 C 255.937 1.98008 2.85324 0
M  V30 2649 C 254.891 3.13709 2.91154 0
M  V30 2650 C 254.217 3.16169 4.31209 0
M  V30 2651 C 255.517 4.52709 2.60483 0
M  V30 2652 H 257.211 2.72253 1.24573 0
M  V30 2653 H 254.757 1.31003 0.597839 0
M  V30 2654 H 256.71 2.16176 3.61726 0
M  V30 2655 H 255.434 1.03255 3.09848 0
M  V30 2656 H 254.093 2.95329 2.17201 0
M  V30 2657 H 253.741 2.19092 4.52778 0
M  V30 2658 H 253.441 3.93894 4.36029 0
M  V30 2659 H 254.965 3.36496 5.09512 0
M  V30 2660 H 256.379 4.71173 3.26602 0
M  V30 2661 H 254.776 5.32528 2.76648 0
M  V30 2662 H 255.846 4.59186 1.55809 0
M  V30 2663 N 257.189 -0.644168 1.43834 0
M  V30 2664 C 258.437 -1.40117 1.45642 0
M  V30 2665 C 258.758 -1.94814 0.0852413 0
M  V30 2666 O 258.028 -1.74988 -0.880688 0
M  V30 2667 H 256.608 -0.52005 0.536243 0
M  V30 2668 H 259.27 -0.7591 1.7951 0
M  V30 2669 H 258.366 -2.23902 2.17427 0
M  V30 2670 N 258.668 -1.30515 -0.883378 0
M  V30 2671 C 259.945 -1.10086 -1.6168 0
M  V30 2672 C 260.325 0.349269 -2.08191 0
M  V30 2673 O 259.673 1.34105 -1.85008 0
M  V30 2674 C 259.883 -2.10315 -2.78511 0
M  V30 2675 C 261.231 -2.42119 -3.48803 0
M  V30 2676 O 262.255 -2.08638 -2.88702 0
M  V30 2677 O 261.114 -2.99396 -4.57192 0
M  V30 2678 H 258.208 -0.422907 -0.710689 0
M  V30 2679 H 260.754 -1.41947 -0.930015 0
M  V30 2680 H 259.526 -3.07917 -2.41459 0
M  V30 2681 H 259.149 -1.79282 -3.54886 0
M  V30 2682 N 260.146 1.09593 -1.13257 0
M  V30 2683 C 261.076 2.18214 -0.830946 0
M  V30 2684 C 262.057 1.68812 0.208966 0
M  V30 2685 O 263.242 1.9408 0.0682666 0
M  V30 2686 C 260.372 3.46051 -0.294296 0
M  V30 2687 C 259.326 4.08778 -1.26826 0
M  V30 2688 C 258.652 5.31419 -0.591449 0
M  V30 2689 C 259.952 4.51476 -2.62615 0
M  V30 2690 H 261.646 2.43703 -1.73923 0
M  V30 2691 H 259.192 1.17128 -0.837675 0
M  V30 2692 H 261.145 4.2134 -0.0709606 0
M  V30 2693 H 259.869 3.20079 0.649366 0
M  V30 2694 H 258.528 3.35505 -1.47756 0
M  V30 2695 H 258.176 5.01727 0.357633 0
M  V30 2696 H 257.876 5.74341 -1.24123 0
M  V30 2697 H 259.4 6.09433 -0.377355 0
M  V30 2698 H 260.814 5.17999 -2.45663 0
M  V30 2699 H 259.211 5.05277 -3.23752 0
M  V30 2700 H 260.281 3.63962 -3.20406 0
M  V30 2701 N 261.624 0.925811 1.2754 0
M  V30 2702 C 262.554 0.440748 2.29303 0
M  V30 2703 C 263.535 -0.497971 1.62648 0
M  V30 2704 O 264.72 -0.403126 1.8997 0
M  V30 2705 C 261.85 -0.309048 3.45922 0
M  V30 2706 C 260.804 0.54166 4.24559 0
M  V30 2707 C 260.13 -0.337191 5.33636 0
M  V30 2708 C 261.43 1.80516 4.90114 0
M  V30 2709 H 263.124 1.29121 2.70126 0
M  V30 2710 H 260.67 0.622323 1.29858 0
M  V30 2711 H 262.623 -0.659315 4.1621 0
M  V30 2712 H 261.347 -1.19352 3.04011 0
M  V30 2713 H 260.006 0.874609 3.56014 0
M  V30 2714 H 259.654 -1.22056 4.87966 0
M  V30 2715 H 259.354 0.228497 5.87156 0
M  V30 2716 H 260.878 -0.683072 6.06767 0
M  V30 2717 H 262.292 1.52307 5.52698 0
M  V30 2718 H 260.689 2.3142 5.53683 0
M  V30 2719 H 261.759 2.52581 4.13921 0
M  V30 2720 N 263.102 -1.41638 0.69111 0
M  V30 2721 C 264.379 -1.95036 0.148421 0
M  V30 2722 C 264.759 -1.63072 -1.34055 0
M  V30 2723 O 264.107 -0.93538 -2.08478 0
M  V30 2724 C 264.317 -3.46279 0.434951 0
M  V30 2725 C 265.665 -4.23069 0.360275 0
M  V30 2726 O 266.689 -3.54277 0.369613 0
M  V30 2727 O 265.548 -5.45583 0.316534 0
M  V30 2728 H 262.642 -0.826908 0.0123654 0
M  V30 2729 H 265.188 -1.5138 0.766963 0
M  V30 2730 H 263.96 -3.6281 1.46576 0
M  V30 2731 H 263.583 -3.97019 -0.214787 0
M  V30 2732 N 264.58 -0.43555 -1.51462 0
M  V30 2733 C 265.805 0.132627 -2.06976 0
M  V30 2734 C 266.23 1.35848 -1.30104 0
M  V30 2735 O 265.588 1.78112 -0.338493 0
M  V30 2736 C 265.636 0.43523 -3.57964 0
M  V30 2737 O 264.74 1.52198 -3.83288 0
M  V30 2738 H 264.081 0.00265 -0.663995 0
M  V30 2739 H 266.611 -0.616369 -1.95095 0
M  V30 2740 H 266.621 0.686206 -4.02188 0
M  V30 2741 H 265.296 -0.460739 -4.1334 0
M  V30 2742 H 263.873 1.2611 -3.50928 0
M  V30 2743 N 266.058 1.56714 -0.166846 0
M  V30 2744 C 267.335 1.88412 0.525373 0
M  V30 2745 C 267.715 1.07602 1.81618 0
M  V30 2746 O 267.063 0.168621 2.27877 0
M  V30 2747 C 267.273 3.40363 0.771613 0
M  V30 2748 C 268.621 4.10007 1.1036 0
M  V30 2749 O 269.645 3.45655 0.860304 0
M  V30 2750 O 268.504 5.2369 1.56239 0
M  V30 2751 H 265.598 0.781587 0.270278 0
M  V30 2752 H 268.144 1.68458 -0.204946 0
M  V30 2753 H 266.916 3.91046 -0.141093 0
M  V30 2754 H 266.539 3.65914 1.55541 0
M  V30 2755 N 267.536 -0.106894 1.57237 0
M  V30 2756 C 268.776 -0.818277 1.87306 0
M  V30 2757 C 269.14 -1.76474 0.756371 0
M  V30 2758 O 270.341 -2.5186 0.939155 0
M  V30 2759 C 268.612 -1.53806 3.22612 0
M  V30 2760 S 270.171 -2.28935 3.74345 0
M  V30 2761 H 266.989 -0.272862 0.656557 0
M  V30 2762 H 269.591 -0.075988 1.95352 0
M  V30 2763 H 268.295 -0.834951 4.01817 0
M  V30 2764 H 267.826 -2.32049 3.17674 0
M  V30 2765 H 269.841 -3.54871 3.46815 0
M  V30 2766 N 269.014 -1.53014 -0.377408 0
M  V30 2767 C 270.242 -1.72515 -1.14219 0
M  V30 2768 C 270.657 -0.448735 -1.8339 0
M  V30 2769 O 270.014 0.577592 -1.73119 0
M  V30 2770 C 270.065 -2.8826 -2.18148 0
M  V30 2771 O 269.786 -4.10962 -1.51795 0
M  V30 2772 C 271.287 -3.19536 -3.07264 0
M  V30 2773 H 268.507 -0.577301 -0.342001 0
M  V30 2774 H 271.051 -1.99712 -0.439935 0
M  V30 2775 H 269.206 -2.63492 -2.83991 0
M  V30 2776 H 269.62 -4.75693 -2.20945 0
M  V30 2777 H 271.094 -4.03959 -3.76193 0
M  V30 2778 H 271.571 -2.34403 -3.71419 0
M  V30 2779 H 272.177 -3.46186 -2.47053 0
M  V30 2780 N 270.492 0.636531 -1.44174 0
M  V30 2781 C 271.72 1.42353 -1.50144 0
M  V30 2782 C 272.135 1.88389 -0.124575 0
M  V30 2783 O 271.492 1.6051 0.868489 0
M  V30 2784 C 271.543 2.64744 -2.46156 0
M  V30 2785 O 271.264 2.20629 -3.7849 0
M  V30 2786 C 272.765 3.57929 -2.61537 0
M  V30 2787 H 269.985 0.436752 -0.5094 0
M  V30 2788 H 272.529 0.778933 -1.89084 0
M  V30 2789 H 270.684 3.25307 -2.10366 0
M  V30 2790 H 271.098 2.99938 -4.30276 0
M  V30 2791 H 272.572 4.40428 -3.32757 0
M  V30 2792 H 273.049 4.06382 -1.66585 0
M  V30 2793 H 273.655 3.03238 -2.98206 0
M  V30 2794 N 271.97 1.30982 0.876444 0
M  V30 2795 C 273.218 1.20058 1.62575 0
M  V30 2796 C 273.539 -0.242947 1.93481 0
M  V30 2797 O 272.809 -1.1619 1.57724 0
M  V30 2798 H 271.389 0.44135 0.602677 0
M  V30 2799 H 274.051 1.64222 1.04962 0
M  V30 2800 H 273.147 1.76762 2.57219 0
M  V30 2801 N 273.449 -1.08991 1.13837 0
M  V30 2802 C 274.674 -1.85551 0.926585 0
M  V30 2803 C 275.099 -1.80782 -0.519566 0
M  V30 2804 O 274.457 -1.18855 -1.36906 0
M  V30 2805 C 274.505 -3.31266 1.42462 0
M  V30 2806 O 273.609 -4.07822 0.612789 0
M  V30 2807 H 272.95 -0.575192 0.331738 0
M  V30 2808 H 275.48 -1.37604 1.51414 0
M  V30 2809 H 275.49 -3.82112 1.43019 0
M  V30 2810 H 274.165 -3.34052 2.47754 0
M  V30 2811 H 272.742 -3.66731 0.675463 0
M  V30 2812 N 274.927 -0.932562 -1.27047 0
M  V30 2813 C 276.175 -0.574422 -1.93765 0
M  V30 2814 C 276.496 0.887993 -1.73608 0
M  V30 2815 O 275.766 1.62999 -1.08665 0
M  V30 2816 H 274.346 -0.209451 -0.717035 0
M  V30 2817 H 277.008 -1.18601 -1.5466 0
M  V30 2818 H 276.104 -0.784841 -3.02071 0
M  V30 2819 N 276.405 1.4127 -0.698611 0
M  V30 2820 C 277.63 2.06024 -0.238512 0
M  V30 2821 C 278.055 1.5224 1.10475 0
M  V30 2822 O 277.413 0.650623 1.69223 0
M  V30 2823 C 277.461 3.59988 -0.209952 0
M  V30 2824 O 276.565 4.04282 0.814235 0
M  V30 2825 H 275.906 0.653829 -0.115775 0
M  V30 2826 H 278.436 1.8098 -0.954326 0
M  V30 2827 H 278.446 4.07979 -0.0418436 0
M  V30 2828 H 277.121 3.98503 -1.1903 0
M  V30 2829 H 275.698 3.6779 0.615234 0
M  V30 2830 N 277.883 0.443576 1.51229 0
M  V30 2831 C 279.131 -0.120557 2.0174 0
M  V30 2832 C 279.452 -1.42665 1.32935 0
M  V30 2833 O 278.722 -1.9028 0.465866 0
M  V30 2834 H 277.302 -0.0475426 0.745486 0
M  V30 2835 H 279.964 0.587711 1.85828 0
M  V30 2836 H 279.06 -0.291972 3.10731 0
M  V30 2837 N 279.361 -1.56624 0.175154 0
M  V30 2838 C 280.291 -2.21155 -0.749195 0
M  V30 2839 C 281.272 -1.16836 -1.23626 0
M  V30 2840 O 282.457 -1.45277 -1.28873 0
M  V30 2841 C 279.587 -2.8553 -1.97711 0
M  V30 2842 C 278.541 -3.95921 -1.62575 0
M  V30 2843 C 277.867 -4.47365 -2.92864 0
M  V30 2844 C 279.167 -5.15323 -0.850838 0
M  V30 2845 H 280.861 -2.98653 -0.211295 0
M  V30 2846 H 278.407 -1.43651 -0.100188 0
M  V30 2847 H 280.36 -3.2935 -2.62881 0
M  V30 2848 H 279.084 -2.05406 -2.53921 0
M  V30 2849 H 277.743 -3.52762 -0.997719 0
M  V30 2850 H 277.391 -3.64027 -3.47122 0
M  V30 2851 H 277.091 -5.21839 -2.70106 0
M  V30 2852 H 278.615 -4.93873 -3.59056 0
M  V30 2853 H 280.029 -5.55812 -1.40521 0
M  V30 2854 H 278.426 -5.95739 -0.722154 0
M  V30 2855 H 279.496 -4.84661 0.152082 0
M  V30 2856 N 280.839 0.0985539 -1.57292 0
M  V30 2857 C 282.25 0.653457 -1.74891 0
M  V30 2858 C 282.601 1.7929 -0.796838 0
M  V30 2859 O 281.726 2.16385 0.0254886 0
M  V30 2860 C 282.321 1.19216 -3.17133 0
M  V30 2861 C 280.88 1.69316 -3.36168 0
M  V30 2862 C 280.027 0.601294 -2.70702 0
M  V30 2863 H 282.978 -0.127497 -1.58187 0
M  V30 2864 H 282.999 2.06154 -3.19814 0
M  V30 2865 H 282.511 0.362635 -3.86402 0
M  V30 2866 H 280.612 2.5468 -2.71972 0
M  V30 2867 H 280.725 1.78853 -4.44464 0
M  V30 2868 H 279.089 1.0399 -2.32504 0
M  V30 2869 H 279.872 -0.217592 -3.4261 0
M  V30 2870 N 282.317 1.53212 0.369288 0
M  V30 2871 C 283.564 1.69215 1.11232 0
M  V30 2872 C 283.892 0.442048 1.8941 0
M  V30 2873 O 283.147 -0.575944 1.87033 0
M  V30 2874 C 283.446 2.89101 2.10132 0
M  V30 2875 C 283.112 4.25758 1.48463 0
M  V30 2876 C 281.774 4.6292 1.31372 0
M  V30 2877 C 284.126 5.10757 1.03811 0
M  V30 2878 C 281.454 5.82722 0.68207 0
M  V30 2879 C 283.806 6.31201 0.420487 0
M  V30 2880 C 282.47 6.67079 0.237038 0
M  V30 2881 H 281.74 0.619201 0.407027 0
M  V30 2882 H 284.387 1.87391 0.394552 0
M  V30 2883 H 282.692 2.65421 2.88199 0
M  V30 2884 H 284.389 2.98676 2.6757 0
M  V30 2885 H 280.979 3.96494 1.62758 0
M  V30 2886 H 285.163 4.82599 1.1581 0
M  V30 2887 H 280.419 6.09113 0.528316 0
M  V30 2888 H 284.593 6.96368 0.0662874 0
M  V30 2889 H 282.22 7.59774 -0.254477 0
M  V30 2890 N 283.795 -0.628877 1.44509 0
M  V30 2891 C 284.725 -1.75187 1.54376 0
M  V30 2892 C 285.706 -1.65411 0.396618 0
M  V30 2893 O 286.891 -1.84137 0.617031 0
M  V30 2894 C 284.021 -3.13725 1.48976 0
M  V30 2895 C 282.975 -3.38291 2.62189 0
M  V30 2896 C 282.301 -4.76883 2.41841 0
M  V30 2897 C 283.601 -3.30632 4.04326 0
M  V30 2898 H 285.295 -1.67187 2.48373 0
M  V30 2899 H 282.841 -0.802909 1.19538 0
M  V30 2900 H 284.794 -3.92064 1.54478 0
M  V30 2901 H 283.518 -3.22515 0.514961 0
M  V30 2902 H 282.177 -2.62334 2.56079 0
M  V30 2903 H 281.825 -4.82378 1.42548 0
M  V30 2904 H 281.525 -4.94278 3.17747 0
M  V30 2905 H 283.049 -5.57449 2.49165 0
M  V30 2906 H 284.463 -3.98873 4.11793 0
M  V30 2907 H 282.86 -3.59561 4.80454 0
M  V30 2908 H 283.93 -2.28404 4.27738 0
M  V30 2909 N 285.273 -1.31445 -0.869486 0
M  V30 2910 C 286.519 -1.21337 -1.62496 0
M  V30 2911 C 286.852 0.227872 -1.92858 0
M  V30 2912 O 286.127 1.16094 -1.56053 0
M  V30 2913 C 286.41 -2.05814 -2.95487 0
M  V30 2914 C 286.263 -3.5824 -2.72 0
M  V30 2915 C 287.582 -1.9079 -3.96594 0
M  V30 2916 H 284.701 -0.442135 -0.589649 0
M  V30 2917 H 287.343 -1.6124 -1.00507 0
M  V30 2918 H 285.493 -1.71913 -3.48394 0
M  V30 2919 H 287.165 -4.0228 -2.25762 0
M  V30 2920 H 285.408 -3.81647 -2.06224 0
M  V30 2921 H 286.079 -4.12657 -3.66631 0
M  V30 2922 H 288.555 -2.20459 -3.52898 0
M  V30 2923 H 287.431 -2.52199 -4.87531 0
M  V30 2924 H 287.692 -0.871341 -4.33428 0
M  V30 2925 N 286.751 1.08385 -1.14413 0
M  V30 2926 C 287.683 2.1519 -0.789036 0
M  V30 2927 C 288.696 1.61638 0.19417 0
M  V30 2928 O 289.885 1.78479 -0.0275711 0
M  V30 2929 C 286.985 3.38565 -0.15058 0
M  V30 2930 C 286.158 4.21501 -1.16857 0
M  V30 2931 C 285.217 5.23277 -0.553832 0
M  V30 2932 O 284.243 5.56041 -1.21686 0
M  V30 2933 N 285.445 5.76629 0.669296 0
M  V30 2934 H 288.21 2.46257 -1.70814 0
M  V30 2935 H 285.771 1.24198 -1.03858 0
M  V30 2936 H 287.763 4.03777 0.273181 0
M  V30 2937 H 286.333 3.05299 0.671667 0
M  V30 2938 H 285.553 3.52265 -1.76926 0
M  V30 2939 H 286.841 4.73731 -1.85624 0
M  V30 2940 H 286.239 5.52243 1.22654 0
M  V30 2941 H 284.796 6.43521 1.03556 0
M  V30 2942 N 288.23 0.939286 1.26551 0
M  V30 2943 C 289.646 0.641304 1.46149 0
M  V30 2944 C 289.846 -0.805964 1.84679 0
M  V30 2945 O 288.902 -1.58278 1.96734 0
M  V30 2946 C 290.215 1.6011 2.54529 0
M  V30 2947 C 291.763 1.6106 2.68382 0
M  V30 2948 C 292.238 2.55765 3.79932 0
M  V30 2949 N 293.729 2.5404 3.87322 0
M  V30 2950 C 294.464 3.24004 4.73085 0
M  V30 2951 N 293.96 4.03388 5.63249 0
M  V30 2952 N 295.753 3.12965 4.66914 0
M  V30 2953 H 287.904 1.87478 0.998285 0
M  V30 2954 H 290.167 0.805559 0.499779 0
M  V30 2955 H 289.873 2.63412 2.33039 0
M  V30 2956 H 289.747 1.35171 3.52149 0
M  V30 2957 H 292.134 0.584835 2.89247 0
M  V30 2958 H 292.215 1.90053 1.71212 0
M  V30 2959 H 291.859 3.58458 3.5982 0
M  V30 2960 H 291.789 2.24063 4.76554 0
M  V30 2961 H 294.28 1.96396 3.22858 0
M  V30 2962 H 294.593 4.5373 6.25579 0
M  V30 2963 H 292.938 4.07489 5.63008 0
M  V30 2964 H 296.129 2.50432 3.95476 0
M  V30 2965 H 296.302 3.67759 5.33533 0
M  V30 2966 N 289.708 -1.40897 0.706093 0
M  V30 2967 C 290.936 -2.05373 0.250887 0
M  V30 2968 C 291.351 -1.53172 -1.10381 0
M  V30 2969 O 290.708 -0.684305 -1.69185 0
M  V30 2970 C 290.759 -3.6088 0.211571 0
M  V30 2971 O 290.48 -4.11153 1.51276 0
M  V30 2972 C 291.981 -4.42517 -0.263346 0
M  V30 2973 H 289.201 -0.66115 0.114552 0
M  V30 2974 H 291.745 -1.80479 0.961635 0
M  V30 2975 H 289.9 -3.84777 -0.450073 0
M  V30 2976 H 290.314 -5.05279 1.40689 0
M  V30 2977 H 291.788 -5.51479 -0.239718 0
M  V30 2978 H 292.265 -4.19396 -1.30397 0
M  V30 2979 H 292.871 -4.23708 0.367677 0
M  V30 2980 N 291.186 -0.45159 -1.50991 0
M  V30 2981 C 292.432 0.110237 -2.025 0
M  V30 2982 C 292.765 1.41109 -1.33424 0
M  V30 2983 O 292.04 1.89135 -0.453659 0
M  V30 2984 C 292.323 0.314271 -3.58726 0
M  V30 2985 C 292.176 -1.00623 -4.38401 0
M  V30 2986 C 293.495 1.07767 -4.26702 0
M  V30 2987 H 290.614 0.0385897 -0.735989 0
M  V30 2988 H 293.256 -0.593374 -1.80497 0
M  V30 2989 H 291.406 0.913601 -3.77605 0
M  V30 2990 H 293.078 -1.64064 -4.31139 0
M  V30 2991 H 291.321 -1.6075 -4.02917 0
M  V30 2992 H 291.992 -0.817341 -5.45915 0
M  V30 2993 H 294.468 0.56986 -4.12179 0
M  V30 2994 H 293.344 1.18921 -5.35863 0
M  V30 2995 H 293.605 2.10939 -3.88532 0
M  V30 2996 N 292.664 1.56529 -0.183458 0
M  V30 2997 C 293.627 2.17324 0.728223 0
M  V30 2998 C 294.627 1.12453 1.14939 0
M  V30 2999 O 295.817 1.37902 1.06437 0
M  V30 3000 C 292.949 2.76591 1.99274 0
M  V30 3001 H 294.142 2.99241 0.198772 0
M  V30 3002 H 291.695 1.5616 0.0661391 0
M  V30 3003 H 292.43 1.98441 2.56499 0
M  V30 3004 H 292.215 3.5335 1.69959 0
M  V30 3005 H 293.705 3.23311 2.6431 0
M  V30 3006 N 294.142 -0.090211 1.57342 0
M  V30 3007 C 295.558 -0.444547 1.53284 0
M  V30 3008 C 295.758 -1.80238 0.900914 0
M  V30 3009 O 294.814 -2.4759 0.495513 0
M  V30 3010 C 296.127 -0.402543 2.97993 0
M  V30 3011 C 297.675 -0.48405 3.09234 0
M  V30 3012 C 298.15 -0.472144 4.5556 0
M  V30 3013 N 299.641 -0.532757 4.60126 0
M  V30 3014 C 300.376 -0.545462 5.708 0
M  V30 3015 N 299.872 -0.514082 6.9089 0
M  V30 3016 N 301.665 -0.59064 5.58988 0
M  V30 3017 H 293.816 0.799121 1.96794 0
M  V30 3018 H 296.079 0.297965 0.899956 0
M  V30 3019 H 295.785 0.528106 3.47712 0
M  V30 3020 H 295.659 -1.21969 3.56936 0
M  V30 3021 H 298.046 -1.40512 2.595 0
M  V30 3022 H 298.127 0.361328 2.53235 0
M  V30 3023 H 297.771 0.445 5.05947 0
M  V30 3024 H 297.701 -1.3348 5.09402 0
M  V30 3025 H 300.192 -0.562006 3.73698 0
M  V30 3026 H 300.505 -0.527195 7.71 0
M  V30 3027 H 298.85 -0.481054 6.93333 0
M  V30 3028 H 302.041 -0.61272 4.64073 0
M  V30 3029 H 302.214 -0.597073 6.45243 0
M  V30 3030 N 295.62 -1.53406 -0.361157 0
M  V30 3031 C 296.552 -1.76446 -1.46286 0
M  V30 3032 C 297.565 -0.645322 -1.49464 0
M  V30 3033 O 298.754 -0.921681 -1.52864 0
M  V30 3034 C 295.854 -1.83332 -2.85031 0
M  V30 3035 C 295.027 -3.13033 -3.05498 0
M  V30 3036 C 294.086 -3.11104 -4.24383 0
M  V30 3037 O 293.112 -3.84888 -4.19344 0
M  V30 3038 N 294.314 -2.32234 -5.32022 0
M  V30 3039 H 297.079 -2.71508 -1.26899 0
M  V30 3040 H 294.64 -1.52238 -0.550915 0
M  V30 3041 H 296.632 -1.79514 -3.62708 0
M  V30 3042 H 295.202 -0.955342 -2.97644 0
M  V30 3043 H 294.422 -3.30119 -2.15442 0
M  V30 3044 H 295.71 -3.9874 -3.16044 0
M  V30 3045 H 295.108 -1.71807 -5.38979 0
M  V30 3046 H 293.665 -2.3423 -6.08259 0
M  V30 3047 N 297.098 0.621204 -1.44841 0
M  V30 3048 C 298.344 1.3826 -1.48365 0
M  V30 3049 C 298.677 1.93831 -0.119624 0
M  V30 3050 O 297.952 1.74251 0.864111 0
M  V30 3051 C 298.235 2.54058 -2.55199 0
M  V30 3052 C 298.088 2.03772 -4.00995 0
M  V30 3053 C 299.407 3.56225 -2.58442 0
M  V30 3054 H 296.526 0.501374 -0.540179 0
M  V30 3055 H 299.168 0.7015 -1.76576 0
M  V30 3056 H 297.318 3.12162 -2.31274 0
M  V30 3057 H 298.99 1.50423 -4.36086 0
M  V30 3058 H 297.233 1.34876 -4.12299 0
M  V30 3059 H 297.904 2.87185 -4.71411 0
M  V30 3060 H 300.38 3.07939 -2.79844 0
M  V30 3061 H 299.256 4.34756 -3.3508 0
M  V30 3062 H 299.517 4.10949 -1.63013 0
M  V30 3063 N 298.576 1.31904 0.862503 0
M  V30 3064 C 299.539 1.20131 1.95195 0
M  V30 3065 C 300.539 0.126409 1.60302 0
M  V30 3066 O 301.729 0.376234 1.70089 0
M  V30 3067 C 298.861 0.845691 3.30244 0
M  V30 3068 H 300.054 2.16943 2.07064 0
M  V30 3069 H 297.607 1.15622 1.05172 0
M  V30 3070 H 298.342 -0.120957 3.24074 0
M  V30 3071 H 298.127 1.62276 3.56944 0
M  V30 3072 H 299.617 0.787418 4.10109 0
M  V30 3073 N 300.054 -1.07777 1.14986 0
M  V30 3074 C 300.984 -2.16865 0.865557 0
M  V30 3075 C 301.965 -1.69123 -0.182083 0
M  V30 3076 O 303.15 -1.94164 -0.0373815 0
M  V30 3077 C 300.28 -3.45539 0.349313 0
M  V30 3078 C 299.234 -4.06708 1.33313 0
M  V30 3079 C 298.56 -5.30411 0.675918 0
M  V30 3080 C 299.86 -4.47241 2.69764 0
M  V30 3081 H 301.554 -2.40905 1.77778 0
M  V30 3082 H 299.1 -1.15781 0.856203 0
M  V30 3083 H 301.053 -4.21174 0.137983 0
M  V30 3084 H 299.777 -3.21072 -0.598362 0
M  V30 3085 H 298.436 -3.33112 1.53075 0
M  V30 3086 H 298.084 -5.02232 -0.277767 0
M  V30 3087 H 297.784 -5.72293 1.33244 0
M  V30 3088 H 299.308 -6.08755 0.474262 0
M  V30 3089 H 300.722 -5.14025 2.53873 0
M  V30 3090 H 299.119 -5.00062 3.3175 0
M  V30 3091 H 300.189 -3.58818 3.26156 0
M  V30 3092 N 301.532 -0.945985 -1.26051 0
M  V30 3093 C 302.778 -0.597002 -1.93814 0
M  V30 3094 C 303.111 0.862484 -1.73997 0
M  V30 3095 O 302.386 1.61769 -1.07986 0
M  V30 3096 C 302.669 -0.945937 -3.47454 0
M  V30 3097 C 302.522 -2.46052 -3.76535 0
M  V30 3098 C 303.841 -0.464785 -4.37639 0
M  V30 3099 H 300.96 -0.218366 -0.703907 0
M  V30 3100 H 303.602 -1.18107 -1.48831 0
M  V30 3101 H 301.752 -0.448902 -3.85898 0
M  V30 3102 H 303.424 -3.03065 -3.47778 0
M  V30 3103 H 301.667 -2.90194 -3.22444 0
M  V30 3104 H 302.338 -2.65517 -4.83947 0
M  V30 3105 H 304.814 -0.891016 -4.06448 0
M  V30 3106 H 303.69 -0.737712 -5.4392 0
M  V30 3107 H 303.951 0.635274 -4.37512 0
M  V30 3108 N 303.011 1.40521 -0.713556 0
M  V30 3109 C 303.921 2.34522 -0.0606667 0
M  V30 3110 C 304.937 1.57193 0.74607 0
M  V30 3111 O 306.113 1.89591 0.679493 0
M  V30 3112 C 303.178 3.36081 0.851491 0
M  V30 3113 C 302.239 4.29286 0.0349339 0
M  V30 3114 C 301.472 5.25994 0.903649 0
M  V30 3115 O 301.695 5.28616 2.14292 0
M  V30 3116 O 300.629 6.00918 0.343723 0
M  V30 3117 H 304.455 2.91968 -0.835972 0
M  V30 3118 H 302.04 1.41681 -0.47402 0
M  V30 3119 H 303.922 3.98369 1.37404 0
M  V30 3120 H 302.597 2.81052 1.60598 0
M  V30 3121 H 301.504 3.70289 -0.532633 0
M  V30 3122 H 302.837 4.87462 -0.681287 0
M  V30 3123 N 304.489 0.459591 1.5075 0
M  V30 3124 C 305.729 -0.09824 2.04164 0
M  V30 3125 C 306.093 -1.3801 1.33481 0
M  V30 3126 O 307.294 -2.01959 1.77387 0
M  V30 3127 C 305.565 -0.289467 3.56226 0
M  V30 3128 S 307.124 -0.807507 4.31306 0
M  V30 3129 H 303.942 -0.0213845 0.710678 0
M  V30 3130 H 306.544 0.624098 1.85271 0
M  V30 3131 H 305.248 0.649461 4.05229 0
M  V30 3132 H 304.779 -1.03825 3.79452 0
M  V30 3133 H 306.794 -2.0824 4.50389 0
M  V30 3134 N 305.967 -1.56429 0.191757 0
M  V30 3135 C 307.213 -1.97777 -0.448554 0
M  V30 3136 C 307.546 -1.07847 -1.61501 0
M  V30 3137 O 306.821 -0.129774 -1.94067 0
M  V30 3138 C 307.104 -3.48362 -0.911906 0
M  V30 3139 C 306.957 -4.4907 0.256136 0
M  V30 3140 C 308.276 -4.02561 -1.77857 0
M  V30 3141 H 305.395 -0.719071 -0.161572 0
M  V30 3142 H 308.037 -1.87896 0.282007 0
M  V30 3143 H 306.187 -3.56914 -1.53442 0
M  V30 3144 H 307.859 -4.5256 0.893733 0
M  V30 3145 H 306.102 -4.24181 0.908436 0
M  V30 3146 H 306.773 -5.51889 -0.11053 0
M  V30 3147 H 309.249 -3.96767 -1.25359 0
M  V30 3148 H 308.125 -5.08301 -2.07174 0
M  V30 3149 H 308.386 -3.47616 -2.73158 0
M  V30 3150 N 307.445 0.0818655 -1.57387 0
M  V30 3151 C 308.693 0.781368 -1.86384 0
M  V30 3152 C 309.014 1.78618 -0.782342 0
M  V30 3153 O 308.284 1.94976 0.190061 0
M  V30 3154 H 306.864 0.291562 -0.687751 0
M  V30 3155 H 309.526 0.060348 -1.94807 0
M  V30 3156 H 308.622 1.3038 -2.83562 0
M  V30 3157 N 308.923 1.53595 0.353017 0
M  V30 3158 C 309.87 1.80919 1.43308 0
M  V30 3159 C 310.84 0.654288 1.5267 0
M  V30 3160 O 312.025 0.897759 1.6836 0
M  V30 3161 C 309.165 2.01605 2.80089 0
M  V30 3162 C 308.278 3.29321 2.79593 0
M  V30 3163 C 307.413 3.40125 4.0803 0
M  V30 3164 C 306.452 4.61826 4.01725 0
M  V30 3165 N 305.589 4.69716 5.21834 0
M  V30 3166 H 310.429 2.73074 1.19308 0
M  V30 3167 H 307.966 1.35263 0.578131 0
M  V30 3168 H 309.924 2.11586 3.59565 0
M  V30 3169 H 308.554 1.12772 3.0246 0
M  V30 3170 H 307.606 3.28229 1.92276 0
M  V30 3171 H 308.918 4.18884 2.70809 0
M  V30 3172 H 308.072 3.49488 4.95927 0
M  V30 3173 H 306.811 2.48601 4.19582 0
M  V30 3174 H 305.816 4.52552 3.12213 0
M  V30 3175 H 307.041 5.54705 3.91764 0
M  V30 3176 H 304.987 3.81097 5.33948 0
M  V30 3177 H 304.904 5.53202 5.1527 0
M  V30 3178 H 306.172 4.83376 6.11529 0
M  V30 3179 N 310.401 -0.613514 1.45168 0
M  V30 3180 C 311.649 -1.36997 1.48581 0
M  V30 3181 C 311.97 -1.94589 0.126545 0
M  V30 3182 O 311.24 -1.76816 -0.843372 0
M  V30 3183 H 309.82 -0.508558 0.547154 0
M  V30 3184 H 312.482 -0.720853 1.81079 0
M  V30 3185 H 311.578 -2.1924 2.22127 0
M  V30 3186 N 311.879 -1.3236 -0.855495 0
M  V30 3187 C 313.295 -1.11332 -1.14356 0
M  V30 3188 C 313.495 0.106751 -2.01217 0
M  V30 3189 O 312.551 0.791891 -2.39761 0
M  V30 3190 C 313.864 -2.39237 -1.82171 0
M  V30 3191 C 315.412 -2.44986 -1.9481 0
M  V30 3192 C 315.887 -3.7281 -2.66039 0
M  V30 3193 N 317.378 -3.73787 -2.73565 0
M  V30 3194 C 318.113 -4.69394 -3.29327 0
M  V30 3195 N 317.609 -5.75367 -3.85907 0
M  V30 3196 N 319.402 -4.56893 -3.27423 0
M  V30 3197 H 311.553 -2.10586 -0.277027 0
M  V30 3198 H 313.816 -0.929701 -0.185364 0
M  V30 3199 H 313.522 -3.28431 -1.25802 0
M  V30 3200 H 313.396 -2.50134 -2.82335 0
M  V30 3201 H 315.783 -1.56252 -2.50338 0
M  V30 3202 H 315.864 -2.38043 -0.936448 0
M  V30 3203 H 315.508 -4.61918 -2.11174 0
M  V30 3204 H 315.438 -3.77024 -3.67642 0
M  V30 3205 H 317.929 -2.97189 -2.33424 0
M  V30 3206 H 318.242 -6.44378 -4.26611 0
M  V30 3207 H 316.587 -5.79123 -3.84242 0
M  V30 3208 H 319.778 -3.73269 -2.82467 0
M  V30 3209 H 319.951 -5.31577 -3.7058 0
M  V30 3210 N 313.357 1.07166 -1.15556 0
M  V30 3211 C 314.587 1.83248 -0.954133 0
M  V30 3212 C 314.995 1.82449 0.500911 0
M  V30 3213 O 314.338 1.23575 1.35923 0
M  V30 3214 C 314.4 3.31393 -1.39351 0
M  V30 3215 C 314.064 3.5591 -2.86666 0
M  V30 3216 C 315.061 3.49695 -3.8472 0
M  V30 3217 C 312.746 3.83515 -3.24379 0
M  V30 3218 C 314.74 3.70737 -5.18491 0
M  V30 3219 C 312.427 4.04209 -4.58321 0
M  V30 3220 C 313.425 3.97815 -5.55186 0
M  V30 3221 O 313.113 4.17954 -6.86709 0
M  V30 3222 H 312.845 0.584941 -0.338851 0
M  V30 3223 H 315.399 1.36169 -1.53777 0
M  V30 3224 H 313.629 3.79292 -0.75329 0
M  V30 3225 H 315.318 3.88945 -1.16089 0
M  V30 3226 H 316.084 3.28368 -3.56931 0
M  V30 3227 H 311.963 3.87605 -2.49567 0
M  V30 3228 H 315.507 3.65663 -5.94085 0
M  V30 3229 H 311.404 4.25023 -4.85825 0
M  V30 3230 H 312.172 4.35291 -6.93155 0
M  V30 3231 N 314.835 0.952656 1.25548 0
M  V30 3232 C 316.083 0.605176 1.92826 0
M  V30 3233 C 316.404 -0.860261 1.74999 0
M  V30 3234 O 315.674 -1.6125 1.11244 0
M  V30 3235 H 314.254 0.220832 0.713612 0
M  V30 3236 H 316.916 1.21047 1.52754 0
M  V30 3237 H 316.012 0.832798 3.00784 0
M  V30 3238 N 316.313 -1.40141 0.720998 0
M  V30 3239 C 317.223 -2.34486 0.0731031 0
M  V30 3240 C 318.239 -1.57587 -0.737723 0
M  V30 3241 O 319.415 -1.89949 -0.669429 0
M  V30 3242 C 316.48 -3.36528 -0.833656 0
M  V30 3243 C 315.541 -4.29298 -0.0121673 0
M  V30 3244 C 314.774 -5.26466 -0.875742 0
M  V30 3245 O 314.997 -5.29745 -2.11485 0
M  V30 3246 O 313.931 -6.01092 -0.31185 0
M  V30 3247 H 317.757 -2.9152 0.851444 0
M  V30 3248 H 315.342 -1.41427 0.481527 0
M  V30 3249 H 317.224 -3.99093 -1.35289 0
M  V30 3250 H 315.899 -2.81899 -1.59105 0
M  V30 3251 H 314.806 -3.70001 0.552262 0
M  V30 3252 H 316.139 -4.87094 0.707129 0
M  V30 3253 N 317.792 -0.46758 -1.50504 0
M  V30 3254 C 319.038 0.0887532 -2.02606 0
M  V30 3255 C 319.371 1.39686 -1.34913 0
M  V30 3256 O 318.646 1.88644 -0.473694 0
M  V30 3257 C 318.929 0.276206 -3.59039 0
M  V30 3258 C 318.782 -1.05267 -4.37309 0
M  V30 3259 C 320.101 1.03235 -4.27821 0
M  V30 3260 H 317.22 0.0307814 -0.736357 0
M  V30 3261 H 319.862 -0.612485 -1.79857 0
M  V30 3262 H 318.012 0.8735 -3.78553 0
M  V30 3263 H 319.684 -1.68628 -4.29374 0
M  V30 3264 H 317.927 -1.65015 -4.01189 0
M  V30 3265 H 318.598 -0.875197 -5.45018 0
M  V30 3266 H 321.074 0.526111 -4.12761 0
M  V30 3267 H 319.95 1.1323 -5.37094 0
M  V30 3268 H 320.211 2.06806 -3.90748 0
M  V30 3269 N 319.27 1.56325 -0.20005 0
M  V30 3270 C 320.516 1.98772 0.431408 0
M  V30 3271 C 320.871 1.0849 1.58895 0
M  V30 3272 O 320.164 0.130331 1.91156 0
M  V30 3273 C 320.358 3.4495 0.935103 0
M  V30 3274 C 320.187 4.49371 -0.172096 0
M  V30 3275 C 318.957 5.0134 -0.631377 0
M  V30 3276 C 321.155 5.04822 -0.982806 0
M  V30 3277 N 319.137 5.89433 -1.71588 0
M  V30 3278 C 320.508 5.89632 -1.91661 0
M  V30 3279 C 322.563 4.87242 -1.02467 0
M  V30 3280 C 321.266 6.58741 -2.88881 0
M  V30 3281 C 323.292 5.57094 -1.98494 0
M  V30 3282 C 322.654 6.41655 -2.90617 0
M  V30 3283 H 318.753 0.771922 0.125144 0
M  V30 3284 H 321.337 1.92266 -0.306883 0
M  V30 3285 H 319.508 3.51946 1.64282 0
M  V30 3286 H 321.24 3.74354 1.53758 0
M  V30 3287 H 317.995 4.73071 -0.223827 0
M  V30 3288 H 318.419 6.38182 -2.25948 0
M  V30 3289 H 323.061 4.21538 -0.326408 0
M  V30 3290 H 320.779 7.23641 -3.5968 0
M  V30 3291 H 324.365 5.45466 -2.0238 0
M  V30 3292 H 323.245 6.94755 -3.63711 0
M  V30 3293 N 320.748 -0.0735177 1.57428 0
M  V30 3294 C 322.164 -0.428264 1.53747 0
M  V30 3295 C 322.364 -1.79272 0.91998 0
M  V30 3296 O 321.42 -2.47051 0.521745 0
M  V30 3297 C 322.733 -0.370914 2.98404 0
M  V30 3298 C 324.281 -0.451224 3.0973 0
M  V30 3299 C 324.756 -0.4238 4.56035 0
M  V30 3300 N 326.247 -0.483925 4.60665 0
M  V30 3301 C 326.982 -0.484891 5.71346 0
M  V30 3302 N 326.478 -0.440775 6.91396 0
M  V30 3303 N 328.271 -0.531319 5.59583 0
M  V30 3304 H 320.422 0.819949 1.95935 0
M  V30 3305 H 322.685 0.307493 0.896745 0
M  V30 3306 H 322.391 0.564956 3.47133 0
M  V30 3307 H 322.265 -1.18176 3.5821 0
M  V30 3308 H 324.652 -1.37752 2.60976 0
M  V30 3309 H 324.733 0.388167 2.52838 0
M  V30 3310 H 324.377 0.498638 5.05446 0
M  V30 3311 H 324.307 -1.2807 5.10789 0
M  V30 3312 H 326.798 -0.522338 3.74273 0
M  V30 3313 H 327.111 -0.44539 7.71515 0
M  V30 3314 H 325.456 -0.40749 6.93804 0
M  V30 3315 H 328.647 -0.563464 4.64696 0
M  V30 3316 H 328.82 -0.528603 6.4584 0
M  V30 3317 N 322.226 -1.5378 -0.344866 0
M  V30 3318 C 323.474 -1.70625 -1.08311 0
M  V30 3319 C 323.795 -0.471447 -1.89215 0
M  V30 3320 O 323.065 0.514616 -1.8902 0
M  V30 3321 H 321.645 -0.629058 -0.402859 0
M  V30 3322 H 324.307 -1.9103 -0.386459 0
M  V30 3323 H 323.403 -2.57656 -1.76124 0
M  V30 3324 N 323.704 0.605807 -1.45491 0
M  V30 3325 C 324.634 1.72709 -1.57143 0
M  V30 3326 C 325.615 1.6476 -0.422884 0
M  V30 3327 O 326.8 1.83132 -0.646247 0
M  V30 3328 C 323.93 3.11316 -1.53948 0
M  V30 3329 C 322.884 3.34077 -2.67537 0
M  V30 3330 C 322.21 4.72975 -2.49397 0
M  V30 3331 C 323.51 3.24158 -4.09535 0
M  V30 3332 H 325.204 1.63214 -2.51001 0
M  V30 3333 H 322.75 0.78379 -1.208 0
M  V30 3334 H 324.703 3.89557 -1.60696 0
M  V30 3335 H 323.427 3.21655 -0.566205 0
M  V30 3336 H 322.086 2.58227 -2.6022 0
M  V30 3337 H 321.734 4.8005 -1.50205 0
M  V30 3338 H 321.434 4.8916 -3.25571 0
M  V30 3339 H 322.958 5.53414 -2.58002 0
M  V30 3340 H 324.372 3.92271 -4.18086 0
M  V30 3341 H 322.769 3.51872 -4.86113 0
M  V30 3342 H 323.839 2.2157 -4.31317 0
M  V30 3343 N 325.182 1.32811 0.848464 0
M  V30 3344 C 326.428 1.24917 1.60522 0
M  V30 3345 C 326.783 -0.185761 1.91501 0
M  V30 3346 O 326.076 -1.12524 1.55077 0
M  V30 3347 C 326.27 2.04831 2.92881 0
M  V30 3348 C 326.099 3.55949 2.74828 0
M  V30 3349 C 324.869 4.25277 2.72887 0
M  V30 3350 C 327.067 4.50476 2.48145 0
M  V30 3351 N 325.049 5.62408 2.46111 0
M  V30 3352 C 326.42 5.75427 2.30832 0
M  V30 3353 C 328.475 4.39665 2.33664 0
M  V30 3354 C 327.178 6.90789 2.00508 0
M  V30 3355 C 329.204 5.54833 2.04731 0
M  V30 3356 C 328.566 6.78787 1.88223 0
M  V30 3357 H 324.665 0.512279 0.590842 0
M  V30 3358 H 327.249 1.67246 0.996839 0
M  V30 3359 H 325.42 1.64837 3.51686 0
M  V30 3360 H 327.152 1.88782 3.57971 0
M  V30 3361 H 323.907 3.77456 2.86049 0
M  V30 3362 H 324.331 6.3467 2.35634 0
M  V30 3363 H 328.973 3.44477 2.45144 0
M  V30 3364 H 326.691 7.85984 1.87765 0
M  V30 3365 H 330.277 5.48398 1.94295 0
M  V30 3366 H 329.157 7.66396 1.66155 0
M  V30 3367 N 326.66 -1.06551 1.16123 0
M  V30 3368 C 327.61 -2.12209 0.833736 0
M  V30 3369 C 328.594 -1.59825 -0.185656 0
M  V30 3370 O 329.786 -1.76994 0.0147906 0
M  V30 3371 C 326.915 -3.41674 0.333697 0
M  V30 3372 C 326.001 -4.00892 1.38372 0
M  V30 3373 N 326.392 -4.34256 2.59337 0
M  V30 3374 C 324.69 -4.28463 1.23836 0
M  V30 3375 C 325.391 -4.81291 3.26701 0
M  V30 3376 N 324.367 -4.80565 2.54083 0
M  V30 3377 H 328.169 -2.35849 1.75364 0
M  V30 3378 H 325.683 -1.24068 1.04789 0
M  V30 3379 H 327.68 -4.16822 0.0806918 0
M  V30 3380 H 326.34 -3.19475 -0.58017 0
M  V30 3381 H 327.351 -4.24687 2.96415 0
M  V30 3382 H 324.028 -4.15721 0.38504 0
M  V30 3383 H 325.418 -5.16332 4.29943 0
M  V30 3384 N 328.138 -0.959301 -1.25041 0
M  V30 3385 C 329.386 -0.615393 -1.92503 0
M  V30 3386 C 329.707 0.850969 -1.75452 0
M  V30 3387 O 328.977 1.60658 -1.12098 0
M  V30 3388 H 327.557 -0.224613 -0.712431 0
M  V30 3389 H 330.219 -1.21855 -1.5211 0
M  V30 3390 H 329.315 -0.848738 -3.00338 0
M  V30 3391 N 329.616 1.39756 -0.72842 0
M  V30 3392 C 330.526 2.34444 -0.0855374 0
M  V30 3393 C 331.542 1.57976 0.729356 0
M  V30 3394 O 332.718 1.90301 0.659346 0
M  V30 3395 C 329.783 3.36965 0.815798 0
M  V30 3396 C 328.844 4.29299 -0.0105996 0
M  V30 3397 C 328.077 5.26923 0.84781 0
M  V30 3398 O 328.3 5.30859 2.08673 0
M  V30 3399 O 327.234 6.01249 0.279969 0
M  V30 3400 H 331.06 2.91065 -0.866892 0
M  V30 3401 H 328.645 1.4117 -0.48902 0
M  V30 3402 H 330.527 3.99804 1.33171 0
M  V30 3403 H 329.202 2.82739 1.57608 0
M  V30 3404 H 328.109 3.69703 -0.571877 0
M  V30 3405 H 329.442 4.86712 -0.73295 0
M  V30 3406 N 331.094 0.475555 1.50254 0
M  V30 3407 C 332.319 -0.0777042 2.07254 0
M  V30 3408 C 332.744 -1.3235 1.3366 0
M  V30 3409 O 332.102 -1.77152 0.385597 0
M  V30 3410 C 332.15 -0.340169 3.58992 0
M  V30 3411 O 331.254 -1.41982 3.87188 0
M  V30 3412 H 330.595 0.0149556 0.663832 0
M  V30 3413 H 333.125 0.667878 1.93392 0
M  V30 3414 H 333.135 -0.579332 4.03866 0
M  V30 3415 H 331.81 0.570167 4.11973 0
M  V30 3416 H 330.387 -1.16762 3.54148 0
M  V30 3417 N 332.573 -1.56217 0.208337 0
M  V30 3418 C 333.819 -1.98242 -0.427552 0
M  V30 3419 C 334.152 -1.09554 -1.60348 0
M  V30 3420 O 333.427 -0.15035 -1.93918 0
M  V30 3421 C 333.71 -3.4931 -0.874907 0
M  V30 3422 C 333.563 -4.48773 0.303751 0
M  V30 3423 C 334.882 -4.04424 -1.73577 0
M  V30 3424 H 332.001 -0.720744 -0.153936 0
M  V30 3425 H 334.643 -1.87586 0.30192 0
M  V30 3426 H 332.793 -3.58522 -1.49648 0
M  V30 3427 H 334.465 -4.51586 0.941682 0
M  V30 3428 H 332.708 -4.23194 0.953375 0
M  V30 3429 H 333.379 -5.51976 -0.0519883 0
M  V30 3430 H 335.855 -3.98075 -1.21143 0
M  V30 3431 H 334.731 -5.1047 -2.01771 0
M  V30 3432 H 334.992 -3.50494 -2.69456 0
M  V30 3433 N 334.051 0.0651679 -1.57465 0
M  V30 3434 C 335.014 1.06117 -2.03155 0
M  V30 3435 C 336.014 1.31204 -0.929632 0
M  V30 3436 O 337.204 1.26813 -1.19432 0
M  V30 3437 C 334.336 2.4032 -2.41783 0
M  V30 3438 H 335.529 0.667231 -2.92383 0
M  V30 3439 H 333.082 0.311075 -1.53173 0
M  V30 3440 H 333.817 2.84532 -1.55601 0
M  V30 3441 H 333.602 2.23451 -3.22199 0
M  V30 3442 H 335.092 3.11898 -2.77685 0
M  V30 3443 N 335.529 1.53961 0.336706 0
M  V30 3444 C 336.775 1.7179 1.07777 0
M  V30 3445 C 337.108 0.483263 1.88091 0
M  V30 3446 O 336.383 -0.519747 1.87427 0
M  V30 3447 C 336.666 2.98558 2.01334 0
M  V30 3448 C 336.519 4.32245 1.24437 0
M  V30 3449 C 337.838 3.21023 3.01052 0
M  V30 3450 H 334.957 0.625089 0.390426 0
M  V30 3451 H 337.599 1.86641 0.35567 0
M  V30 3452 H 335.749 2.86028 2.62908 0
M  V30 3453 H 337.421 4.56637 0.654243 0
M  V30 3454 H 335.664 4.30344 0.546458 0
M  V30 3455 H 336.335 5.17137 1.93063 0
M  V30 3456 H 338.811 3.32929 2.49595 0
M  V30 3457 H 337.687 4.11104 3.6371 0
M  V30 3458 H 337.948 2.37637 3.72802 0
M  V30 3459 N 337.007 -0.598083 1.45811 0
M  V30 3460 C 337.954 -1.7082 1.55207 0
M  V30 3461 C 338.924 -1.61278 0.39732 0
M  V30 3462 O 340.109 -1.80717 0.612038 0
M  V30 3463 C 337.249 -3.09144 1.53376 0
M  V30 3464 C 336.362 -3.29423 2.79472 0
M  V30 3465 C 335.497 -4.57907 2.69248 0
M  V30 3466 C 334.536 -4.71476 3.90354 0
M  V30 3467 N 333.673 -5.9127 3.78608 0
M  V30 3468 H 338.513 -1.62125 2.50039 0
M  V30 3469 H 336.05 -0.790389 1.24062 0
M  V30 3470 H 338.008 -3.89186 1.50301 0
M  V30 3471 H 336.638 -3.16773 0.620876 0
M  V30 3472 H 335.69 -2.43091 2.92594 0
M  V30 3473 H 337.002 -3.3532 3.69272 0
M  V30 3474 H 336.156 -5.46157 2.64192 0
M  V30 3475 H 334.895 -4.54423 1.77063 0
M  V30 3476 H 333.9 -3.81648 3.95759 0
M  V30 3477 H 335.125 -4.76751 4.83617 0
M  V30 3478 H 333.071 -5.88813 2.89199 0
M  V30 3479 H 332.988 -5.98369 4.6205 0
M  V30 3480 H 334.256 -6.81992 3.77501 0
M  V30 3481 N 338.485 -1.33259 -0.841409 0
M  V30 3482 C 339.734 -1.23921 -1.59143 0
M  V30 3483 C 340.047 0.1941 -1.94635 0
M  V30 3484 O 341.253 0.409474 -2.68394 0
M  V30 3485 C 339.709 -2.17119 -2.87032 0
M  V30 3486 C 339.317 -3.65606 -2.58914 0
M  V30 3487 C 341.061 -2.16648 -3.65053 0
M  V30 3488 C 338.968 -4.50726 -3.82884 0
M  V30 3489 H 337.898 -0.460264 -0.597221 0
M  V30 3490 H 340.549 -1.58307 -0.927959 0
M  V30 3491 H 338.931 -1.75663 -3.54906 0
M  V30 3492 H 340.105 -4.15487 -1.99267 0
M  V30 3493 H 338.42 -3.68341 -1.942 0
M  V30 3494 H 341.017 -2.77474 -4.57069 0
M  V30 3495 H 341.36 -1.16088 -3.99787 0
M  V30 3496 H 341.893 -2.56453 -3.041 0
M  V30 3497 H 338.632 -5.52151 -3.53283 0
M  V30 3498 H 338.152 -4.0559 -4.41879 0
M  V30 3499 H 339.831 -4.64401 -4.50489 0
M  V30 3500 N 339.963 1.05934 -1.16686 0
M  V30 3501 C 341.21 1.788 -0.950622 0
M  V30 3502 C 341.538 1.87384 0.521305 0
M  V30 3503 O 340.793 1.36438 1.40297 0
M  V30 3504 C 341.092 3.23105 -1.52767 0
M  V30 3505 C 340.758 3.34594 -3.02254 0
M  V30 3506 C 339.42 3.37437 -3.43059 0
M  V30 3507 C 341.772 3.36219 -3.98254 0
M  V30 3508 C 339.1 3.39525 -4.78477 0
M  V30 3509 C 341.452 3.39845 -5.33562 0
M  V30 3510 C 340.116 3.40971 -5.73842 0
M  V30 3511 H 339.386 0.654275 -0.347857 0
M  V30 3512 H 342.033 1.24555 -1.45459 0
M  V30 3513 H 340.338 3.80227 -0.94524 0
M  V30 3514 H 342.035 3.7809 -1.336 0
M  V30 3515 H 338.625 3.3309 -2.6972 0
M  V30 3516 H 342.809 3.33231 -3.67792 0
M  V30 3517 H 338.065 3.38703 -5.09009 0
M  V30 3518 H 342.239 3.4005 -6.07733 0
M  V30 3519 H 339.866 3.42342 -6.78753 0
M  V30 3520 N 341.441 0.965919 1.2453 0
M  V30 3521 C 342.666 0.643971 1.97149 0
M  V30 3522 C 343.091 -0.779487 1.71189 0
M  V30 3523 O 342.449 -1.5288 0.974553 0
M  V30 3524 C 342.497 0.922557 3.48599 0
M  V30 3525 O 341.601 0.00707672 4.12399 0
M  V30 3526 H 340.942 0.243647 0.617683 0
M  V30 3527 H 343.472 1.29558 1.58353 0
M  V30 3528 H 343.482 0.853373 3.98976 0
M  V30 3529 H 342.157 1.95996 3.66822 0
M  V30 3530 H 340.734 0.12943 3.72675 0
M  V30 3531 N 342.919 -1.39368 0.735821 0
M  V30 3532 C 344.144 -2.05319 0.293052 0
M  V30 3533 C 344.569 -1.55115 -1.064 0
M  V30 3534 O 343.927 -0.695261 -1.67439 0
M  V30 3535 C 343.975 -3.59305 0.305323 0
M  V30 3536 O 343.079 -4.06299 -0.706761 0
M  V30 3537 H 342.42 -0.650529 0.13307 0
M  V30 3538 H 344.95 -1.78386 1.00197 0
M  V30 3539 H 344.96 -4.07724 0.149997 0
M  V30 3540 H 343.635 -3.95207 1.29553 0
M  V30 3541 H 342.212 -3.69292 -0.517504 0
M  V30 3542 N 344.397 -0.483516 -1.5 0
M  V30 3543 C 345.813 -0.138404 -1.58999 0
M  V30 3544 C 346.013 1.35597 -1.4905 0
M  V30 3545 O 345.069 2.13039 -1.35539 0
M  V30 3546 C 346.382 -0.699658 -2.92447 0
M  V30 3547 C 347.93 -0.664195 -3.05872 0
M  V30 3548 C 348.405 -1.20321 -4.41913 0
M  V30 3549 N 349.896 -1.16315 -4.48358 0
M  V30 3550 C 350.631 -1.55058 -5.52037 0
M  V30 3551 N 350.127 -2.01311 -6.62907 0
M  V30 3552 N 351.92 -1.46584 -5.42651 0
M  V30 3553 H 344.071 -1.45529 -1.5471 0
M  V30 3554 H 346.334 -0.60258 -0.731848 0
M  V30 3555 H 346.04 -1.747 -3.05242 0
M  V30 3556 H 345.914 -0.150194 -3.76901 0
M  V30 3557 H 348.301 0.374272 -2.92717 0
M  V30 3558 H 348.382 -1.25061 -2.23144 0
M  V30 3559 H 348.026 -2.24037 -4.55818 0
M  V30 3560 H 347.956 -0.592896 -5.23252 0
M  V30 3561 H 350.447 -0.824058 -3.68806 0
M  V30 3562 H 350.76 -2.2899 -7.38095 0
M  V30 3563 H 349.105 -2.05273 -6.63994 0
M  V30 3564 H 352.296 -1.10281 -4.54924 0
M  V30 3565 H 352.469 -1.77103 -6.23329 0
M  V30 3566 N 345.875 1.56104 -0.216619 0
M  V30 3567 C 347.152 1.89988 0.465165 0
M  V30 3568 C 347.532 1.13326 1.78102 0
M  V30 3569 O 346.88 0.241033 2.27225 0
M  V30 3570 C 347.09 3.42646 0.662939 0
M  V30 3571 C 348.438 4.13311 0.972602 0
M  V30 3572 O 349.462 3.48217 0.749901 0
M  V30 3573 O 348.321 5.28396 1.39499 0
M  V30 3574 H 345.415 0.78979 0.245276 0
M  V30 3575 H 347.961 1.67721 -0.258436 0
M  V30 3576 H 346.733 3.90399 -0.26543 0
M  V30 3577 H 346.356 3.70677 1.43821 0
M  V30 3578 N 347.353 -0.0568162 1.57498 0
M  V30 3579 C 348.263 -1.08346 2.08083 0
M  V30 3580 C 349.279 -1.41439 1.01346 0
M  V30 3581 O 350.455 -1.51316 1.32912 0
M  V30 3582 C 347.52 -2.37352 2.52715 0
M  V30 3583 C 346.581 -2.11093 3.73816 0
M  V30 3584 C 345.814 -3.33949 4.1631 0
M  V30 3585 O 346.037 -4.43622 3.58547 0
M  V30 3586 O 344.971 -3.21279 5.08983 0
M  V30 3587 H 348.797 -0.683667 2.95905 0
M  V30 3588 H 346.382 -0.271965 1.46904 0
M  V30 3589 H 348.264 -3.13246 2.81877 0
M  V30 3590 H 346.939 -2.76681 1.68016 0
M  V30 3591 H 345.846 -1.32856 3.49714 0
M  V30 3592 H 347.179 -1.76637 4.59413 0
M  V30 3593 N 348.832 -1.54138 -0.328536 0
M  V30 3594 C 349.764 -1.79509 -1.4251 0
M  V30 3595 C 350.777 -0.67688 -1.48061 0
M  V30 3596 O 351.966 -0.953898 -1.50874 0
M  V30 3597 C 349.066 -1.89337 -2.81078 0
M  V30 3598 C 348.239 -3.19443 -2.98789 0
M  V30 3599 C 347.298 -3.20036 -4.17688 0
M  V30 3600 O 346.324 -3.93697 -4.11086 0
M  V30 3601 N 347.526 -2.43467 -5.26976 0
M  V30 3602 H 350.291 -2.74139 -1.21111 0
M  V30 3603 H 347.852 -1.53373 -0.518499 0
M  V30 3604 H 349.844 -1.87167 -3.58818 0
M  V30 3605 H 348.414 -1.01826 -2.95551 0
M  V30 3606 H 347.634 -3.34614 -2.08391 0
M  V30 3607 H 348.922 -4.05354 -3.07515 0
M  V30 3608 H 348.32 -1.83201 -5.35214 0
M  V30 3609 H 346.877 -2.4708 -6.03154 0
M  V30 3610 N 350.31 0.590341 -1.46126 0
M  V30 3611 C 351.535 1.37991 -1.54833 0
M  V30 3612 C 351.96 1.87163 -0.187506 0
M  V30 3613 O 351.318 1.61133 0.831008 0
M  V30 3614 C 351.366 2.54867 -2.55098 0
M  V30 3615 O 350.47 3.56061 -2.08073 0
M  V30 3616 H 349.811 0.411265 -0.521303 0
M  V30 3617 H 352.341 0.716819 -1.91632 0
M  V30 3618 H 352.351 3.01886 -2.74461 0
M  V30 3619 H 351.026 2.18429 -3.53923 0
M  V30 3620 H 349.603 3.15574 -1.98664 0
M  V30 3621 N 351.788 1.33704 0.83433 0
M  V30 3622 C 353.034 1.26612 1.59188 0
M  V30 3623 C 353.389 -0.165439 1.91687 0
M  V30 3624 O 352.682 -1.10873 1.56262 0
M  V30 3625 C 352.876 2.07926 2.90692 0
M  V30 3626 C 352.705 3.58844 2.71038 0
M  V30 3627 C 351.475 4.28148 2.68361 0
M  V30 3628 C 353.673 4.53082 2.43353 0
M  V30 3629 N 351.655 5.64987 2.40132 0
M  V30 3630 C 353.026 5.77843 2.24716 0
M  V30 3631 C 355.081 4.42119 2.28987 0
M  V30 3632 C 353.784 6.92877 1.9317 0
M  V30 3633 C 355.81 5.56973 1.98835 0
M  V30 3634 C 355.172 6.80745 1.81012 0
M  V30 3635 H 351.271 0.518517 0.585375 0
M  V30 3636 H 353.855 1.68294 0.979044 0
M  V30 3637 H 352.026 1.68558 3.49918 0
M  V30 3638 H 353.758 1.92568 3.55949 0
M  V30 3639 H 350.513 3.80469 2.82029 0
M  V30 3640 H 350.937 6.37133 2.28889 0
M  V30 3641 H 355.579 3.47058 2.41477 0
M  V30 3642 H 353.297 7.87931 1.79418 0
M  V30 3643 H 356.883 5.50428 1.88468 0
M  V30 3644 H 355.763 7.68115 1.58017 0
M  V30 3645 N 353.266 -1.05314 1.17247 0
M  V30 3646 C 354.513 -1.78293 0.960091 0
M  V30 3647 C 354.841 -1.87658 -0.51136 0
M  V30 3648 O 354.096 -1.3718 -1.39571 0
M  V30 3649 C 354.395 -3.2229 1.54479 0
M  V30 3650 C 354.061 -3.32987 3.04024 0
M  V30 3651 C 352.723 -3.35613 3.44844 0
M  V30 3652 C 355.075 -3.34102 4.00031 0
M  V30 3653 C 352.403 -3.36982 4.8027 0
M  V30 3654 C 354.755 -3.3701 5.35357 0
M  V30 3655 C 353.419 -3.37923 5.75642 0
M  V30 3656 H 352.689 -0.652422 0.351322 0
M  V30 3657 H 355.336 -1.23782 1.46117 0
M  V30 3658 H 353.641 -3.7972 0.965391 0
M  V30 3659 H 355.338 -3.77376 1.35603 0
M  V30 3660 H 351.928 -3.31655 2.71483 0
M  V30 3661 H 356.112 -3.31276 3.69554 0
M  V30 3662 H 351.368 -3.35999 5.10798 0
M  V30 3663 H 355.542 -3.36822 6.09528 0
M  V30 3664 H 353.169 -3.38738 6.80559 0
M  V30 3665 N 354.744 -0.972509 -1.24016 0
M  V30 3666 C 356.16 -0.679827 -1.44397 0
M  V30 3667 C 356.36 0.756716 -1.86751 0
M  V30 3668 O 355.416 1.53007 -2.00861 0
M  V30 3669 C 356.729 -1.66803 -2.50195 0
M  V30 3670 C 358.277 -1.68119 -2.64017 0
M  V30 3671 C 358.752 -2.65748 -3.73017 0
M  V30 3672 N 360.243 -2.64219 -3.8045 0
M  V30 3673 C 360.978 -3.36433 -4.64328 0
M  V30 3674 N 360.474 -4.1818 -5.52356 0
M  V30 3675 N 362.267 -3.25235 -4.58453 0
M  V30 3676 H 354.418 -1.90059 -0.948228 0
M  V30 3677 H 356.681 -0.818527 -0.478245 0
M  V30 3678 H 356.387 -2.69498 -2.25973 0
M  V30 3679 H 356.261 -1.4446 -3.48441 0
M  V30 3680 H 358.648 -0.661319 -2.87594 0
M  V30 3681 H 358.729 -1.94525 -1.66113 0
M  V30 3682 H 358.373 -3.67872 -3.50189 0
M  V30 3683 H 358.303 -2.36619 -4.70446 0
M  V30 3684 H 360.794 -2.04887 -3.17537 0
M  V30 3685 H 361.107 -4.70157 -6.13329 0
M  V30 3686 H 359.452 -4.22273 -5.52006 0
M  V30 3687 H 362.643 -2.60829 -3.88698 0
M  V30 3688 H 362.816 -3.81776 -5.23594 0
M  V30 3689 N 356.222 1.38976 -0.743202 0
M  V30 3690 C 357.132 2.3434 -0.110399 0
M  V30 3691 C 358.148 1.58741 0.712559 0
M  V30 3692 O 359.324 1.9099 0.639125 0
M  V30 3693 C 356.389 3.37812 0.780012 0
M  V30 3694 C 355.45 4.29263 -0.0561319 0
M  V30 3695 C 354.683 5.27793 0.791875 0
M  V30 3696 O 354.906 5.33043 2.03031 0
M  V30 3697 O 353.84 6.01512 0.216183 0
M  V30 3698 H 357.666 2.90129 -0.897714 0
M  V30 3699 H 355.251 1.40643 -0.503966 0
M  V30 3700 H 357.133 4.01194 1.28923 0
M  V30 3701 H 355.808 2.84395 1.546 0
M  V30 3702 H 354.715 3.69076 -0.611056 0
M  V30 3703 H 356.048 4.85907 -0.784531 0
M  V30 3704 N 357.7 0.491464 1.49741 0
M  V30 3705 C 358.928 -0.0535151 2.06831 0
M  V30 3706 C 359.343 -1.31683 1.35296 0
M  V30 3707 O 358.7 -1.77402 0.42836 0
M  V30 3708 C 358.751 -0.320835 3.60073 0
M  V30 3709 O 358.472 0.892394 4.28915 0
M  V30 3710 C 359.973 -0.910519 4.33848 0
M  V30 3711 H 357.193 0.0161909 0.670805 0
M  V30 3712 H 359.737 0.68609 1.92647 0
M  V30 3713 H 357.892 -1.0104 3.73991 0
M  V30 3714 H 358.306 0.649401 5.20464 0
M  V30 3715 H 359.78 -1.04721 5.41976 0
M  V30 3716 H 360.257 -1.90589 3.95692 0
M  V30 3717 H 360.863 -0.258712 4.24512 0
M  V30 3718 N 359.178 -1.55987 0.224894 0
M  V30 3719 C 360.088 -2.24066 -0.69511 0
M  V30 3720 C 361.104 -1.24939 -1.21104 0
M  V30 3721 O 362.28 -1.5776 -1.25195 0
M  V30 3722 C 359.345 -2.90983 -1.88493 0
M  V30 3723 C 358.406 -4.05462 -1.41064 0
M  V30 3724 C 357.639 -4.69179 -2.54375 0
M  V30 3725 O 357.862 -4.31895 -3.72589 0
M  V30 3726 O 356.796 -5.58108 -2.25386 0
M  V30 3727 H 360.622 -3.03353 -0.145149 0
M  V30 3728 H 358.207 -1.49399 -0.00569476 0
M  V30 3729 H 360.089 -3.33209 -2.57972 0
M  V30 3730 H 358.764 -2.14653 -2.42293 0
M  V30 3731 H 357.671 -3.67798 -0.683774 0
M  V30 3732 H 359.004 -4.83545 -0.918985 0
M  V30 3733 N 360.656 0.0484629 -1.57525 0
M  V30 3734 C 361.905 0.742065 -1.87553 0
M  V30 3735 C 362.218 1.77545 -0.820802 0
M  V30 3736 O 363.424 2.52027 -1.00967 0
M  V30 3737 C 361.88 1.37081 -3.32771 0
M  V30 3738 C 361.488 0.374786 -4.4643 0
M  V30 3739 C 363.232 2.04542 -3.71972 0
M  V30 3740 C 361.139 1.01077 -5.82698 0
M  V30 3741 H 360.069 0.280903 -0.699721 0
M  V30 3742 H 362.72 -0.00411877 -1.835 0
M  V30 3743 H 361.102 2.16605 -3.31509 0
M  V30 3744 H 362.276 -0.392331 -4.59127 0
M  V30 3745 H 360.591 -0.196653 -4.15935 0
M  V30 3746 H 363.188 2.52943 -4.71088 0
M  V30 3747 H 363.531 2.85515 -3.02964 0
M  V30 3748 H 364.064 1.31819 -3.75325 0
M  V30 3749 H 360.803 0.240878 -6.55057 0
M  V30 3750 H 360.323 1.74819 -5.73758 0
M  V30 3751 H 362.002 1.52383 -6.28799 0
M  V30 3752 N 362.134 1.5431 0.320358 0
M  V30 3753 C 363.364 1.7638 1.07582 0
M  V30 3754 C 363.772 0.513944 1.82086 0
M  V30 3755 O 363.115 -0.525123 1.76035 0
M  V30 3756 C 363.177 2.9055 2.1171 0
M  V30 3757 C 362.841 4.2934 1.56575 0
M  V30 3758 C 363.838 5.10077 1.00586 0
M  V30 3759 C 361.523 4.75893 1.60722 0
M  V30 3760 C 363.517 6.35477 0.494756 0
M  V30 3761 C 361.204 6.0126 1.09224 0
M  V30 3762 C 362.202 6.80886 0.53696 0
M  V30 3763 O 361.89 8.03894 0.0297371 0
M  V30 3764 H 361.622 0.592369 0.325692 0
M  V30 3765 H 364.176 2.02019 0.37116 0
M  V30 3766 H 362.406 2.60489 2.85801 0
M  V30 3767 H 364.095 3.00373 2.73003 0
M  V30 3768 H 364.861 4.75265 0.966869 0
M  V30 3769 H 360.74 4.13957 2.02882 0
M  V30 3770 H 364.284 6.97574 0.0606842 0
M  V30 3771 H 360.181 6.35562 1.12831 0
M  V30 3772 H 360.949 8.18372 0.14486 0
M  V30 3773 N 363.613 -0.582584 1.46437 0
M  V30 3774 C 364.561 -1.71272 1.5738 0
M  V30 3775 C 365.555 -1.63524 0.44229 0
M  V30 3776 O 366.761 -1.69016 0.619166 0
M  V30 3777 H 363.136 -0.566273 0.494813 0
M  V30 3778 H 365.107 -1.59174 2.52401 0
M  V30 3779 C 363.856 -3.09658 1.58136 0
M  V30 3780 H 363.179 -3.16291 2.44541 0
M  V30 3781 H 364.619 -3.88494 1.69847 0
M  V30 3782 C 363.078 -3.3547 0.310026 0
M  V30 3783 O 363.608 -3.97199 -0.599683 0
M  V30 3784 N 361.814 -2.89925 0.197901 0
M  V30 3785 H 361.361 -2.39873 0.93909 0
M  V30 3786 H 361.319 -3.07568 -0.65185 0
M  V30 3787 N 365.091 -1.34144 -0.827227 0
M  V30 3788 C 366.319 -1.29325 -1.61501 0
M  V30 3789 C 366.734 0.13354 -1.88327 0
M  V30 3790 O 366.091 1.0793 -1.47164 0
M  V30 3791 C 366.142 -2.07746 -2.95844 0
M  V30 3792 O 365.863 -3.4486 -2.70191 0
M  V30 3793 C 367.364 -2.10273 -3.90256 0
M  V30 3794 H 364.584 -0.445069 -0.50215 0
M  V30 3795 H 367.128 -1.76693 -1.02955 0
M  V30 3796 H 365.283 -1.6403 -3.5096 0
M  V30 3797 H 365.697 -3.85345 -3.55822 0
M  V30 3798 H 367.171 -2.69575 -4.81698 0
M  V30 3799 H 367.648 -1.096 -4.25305 0
M  V30 3800 H 368.254 -2.54059 -3.41078 0
M  V30 3801 N 366.569 1.04691 -1.17803 0
M  V30 3802 C 367.815 1.78045 -0.970969 0
M  V30 3803 C 368.148 1.87686 0.498751 0
M  V30 3804 O 367.423 1.38035 1.37027 0
M  V30 3805 C 367.706 3.2166 -1.61884 0
M  V30 3806 C 367.559 3.20001 -3.161 0
M  V30 3807 C 368.878 4.1962 -1.3269 0
M  V30 3808 H 365.997 0.64633 -0.354155 0
M  V30 3809 H 368.639 1.22333 -1.45378 0
M  V30 3810 H 366.789 3.69232 -1.20831 0
M  V30 3811 H 368.461 2.80467 -3.66246 0
M  V30 3812 H 366.704 2.58203 -3.48588 0
M  V30 3813 H 367.375 4.21386 -3.56564 0
M  V30 3814 H 369.851 3.80567 -1.68249 0
M  V30 3815 H 368.727 5.18339 -1.80599 0
M  V30 3816 H 368.988 4.414 -0.248622 0
M  V30 3817 N 368.047 0.979072 1.23499 0
M  V30 3818 C 368.977 0.537606 2.27227 0
M  V30 3819 C 369.958 -0.428539 1.64613 0
M  V30 3820 O 371.143 -0.322191 1.91509 0
M  V30 3821 C 368.273 -0.162052 3.46922 0
M  V30 3822 C 367.227 0.721242 4.21879 0
M  V30 3823 C 366.553 -0.110555 5.34586 0
M  V30 3824 C 367.853 2.01141 4.82016 0
M  V30 3825 H 369.547 1.40462 2.64406 0
M  V30 3826 H 367.093 0.67684 1.27102 0
M  V30 3827 H 369.046 -0.482192 4.18632 0
M  V30 3828 H 367.77 -1.06351 3.08799 0
M  V30 3829 H 366.429 1.02482 3.51984 0
M  V30 3830 H 366.077 -1.0125 4.92704 0
M  V30 3831 H 365.777 0.477325 5.85658 0
M  V30 3832 H 367.301 -0.425107 6.09118 0
M  V30 3833 H 368.715 1.75612 5.45741 0
M  V30 3834 H 367.112 2.54695 5.43369 0
M  V30 3835 H 368.182 2.69909 4.02836 0
M  V30 3836 N 369.525 -1.3858 0.750561 0
M  V30 3837 C 370.455 -2.33102 0.136237 0
M  V30 3838 C 371.436 -1.54713 -0.706965 0
M  V30 3839 O 372.621 -1.83043 -0.648769 0
M  V30 3840 C 369.751 -3.38882 -0.760017 0
M  V30 3841 C 368.705 -4.27995 -0.0197785 0
M  V30 3842 C 368.031 -5.24605 -1.03408 0
M  V30 3843 C 369.331 -5.09554 1.14684 0
M  V30 3844 H 371.025 -2.84726 0.925822 0
M  V30 3845 H 368.571 -1.36898 0.446654 0
M  V30 3846 H 370.524 -4.0397 -1.19943 0
M  V30 3847 H 369.248 -2.85734 -1.58189 0
M  V30 3848 H 367.907 -3.64409 0.400184 0
M  V30 3849 H 367.555 -4.67746 -1.84994 0
M  V30 3850 H 367.255 -5.85081 -0.543464 0
M  V30 3851 H 368.779 -5.9257 -1.47288 0
M  V30 3852 H 370.193 -5.67899 0.785118 0
M  V30 3853 H 368.59 -5.7925 1.56812 0
M  V30 3854 H 369.66 -4.4347 1.96118 0
M  V30 3855 N 371.003 -0.499398 -1.49478 0
M  V30 3856 C 372.419 -0.155261 -1.58843 0
M  V30 3857 C 372.619 1.34008 -1.50479 0
M  V30 3858 O 371.675 2.11589 -1.37791 0
M  V30 3859 C 372.988 -0.730636 -2.91689 0
M  V30 3860 C 374.536 -0.696599 -3.0515 0
M  V30 3861 C 375.011 -1.25001 -4.40612 0
M  V30 3862 N 376.502 -1.21064 -4.47099 0
M  V30 3863 C 377.237 -1.60905 -5.50361 0
M  V30 3864 N 376.733 -2.08331 -6.60735 0
M  V30 3865 N 378.526 -1.52331 -5.41065 0
M  V30 3866 H 370.677 -1.47162 -1.53158 0
M  V30 3867 H 372.94 -0.610309 -0.725415 0
M  V30 3868 H 372.646 -1.77928 -3.03372 0
M  V30 3869 H 372.52 -0.190161 -3.7672 0
M  V30 3870 H 374.907 0.343204 -2.93097 0
M  V30 3871 H 374.988 -1.2742 -2.21806 0
M  V30 3872 H 374.632 -2.28859 -4.53416 0
M  V30 3873 H 374.562 -0.64836 -5.22593 0
M  V30 3874 H 377.053 -0.863128 -3.67911 0
M  V30 3875 H 377.366 -2.36805 -7.35624 0
M  V30 3876 H 375.711 -2.12304 -6.6178 0
M  V30 3877 H 378.902 -1.151 -4.53729 0
M  V30 3878 H 379.075 -1.83704 -6.21415 0
M  V30 3879 N 372.481 1.55866 -0.233164 0
M  V30 3880 C 373.431 2.17442 0.685774 0
M  V30 3881 C 374.415 1.12617 1.14918 0
M  V30 3882 O 375.607 1.3857 1.10124 0
M  V30 3883 C 372.736 2.86685 1.88856 0
M  V30 3884 C 371.822 3.98749 1.4443 0
M  V30 3885 N 372.213 5.00744 0.713364 0
M  V30 3886 C 370.511 4.11052 1.73068 0
M  V30 3887 C 371.212 5.79673 0.485205 0
M  V30 3888 N 370.188 5.33454 1.04536 0
M  V30 3889 H 373.99 2.93659 0.119022 0
M  V30 3890 H 371.504 1.62362 -0.0348995 0
M  V30 3891 H 373.501 3.29218 2.55776 0
M  V30 3892 H 372.161 2.11967 2.45967 0
M  V30 3893 H 373.172 5.16613 0.364861 0
M  V30 3894 H 369.849 3.47495 2.31416 0
M  V30 3895 H 371.239 6.71829 -0.097365 0
M  V30 3896 N 373.959 -0.0401083 1.57549 0
M  V30 3897 C 375.236 -0.767917 1.79896 0
M  V30 3898 C 375.616 -1.9416 0.82856 0
M  V30 3899 O 374.964 -2.2812 -0.131671 0
M  V30 3900 C 375.174 -1.2113 3.27305 0
M  V30 3901 C 376.522 -1.63175 3.91994 0
M  V30 3902 O 377.546 -1.30616 3.31388 0
M  V30 3903 O 376.405 -2.23565 4.98679 0
M  V30 3904 H 373.499 -0.370441 0.739393 0
M  V30 3905 H 376.045 -0.017737 1.69691 0
M  V30 3906 H 374.817 -0.372937 3.89519 0
M  V30 3907 H 374.44 -2.02183 3.42356 0
M  V30 3908 N 375.437 -1.54477 -0.31217 0
M  V30 3909 C 376.385 -1.85395 -1.40469 0
M  V30 3910 C 377.379 -0.726749 -1.53019 0
M  V30 3911 O 378.585 -0.910582 -1.55269 0
M  V30 3912 H 374.96 -0.587845 -0.46898 0
M  V30 3913 H 376.931 -2.76736 -1.11623 0
M  V30 3914 C 375.68 -2.10811 -2.76503 0
M  V30 3915 H 375.003 -2.97014 -2.67625 0
M  V30 3916 H 376.443 -2.3639 -3.51988 0
M  V30 3917 C 374.902 -0.903165 -3.24568 0
M  V30 3918 O 375.432 -0.118085 -4.01526 0
M  V30 3919 N 373.638 -0.711634 -2.81752 0
M  V30 3920 H 373.185 -1.35171 -2.19286 0
M  V30 3921 H 373.143 0.0930473 -3.14262 0
M  V30 3922 N 376.915 0.57481 -1.46744 0
M  V30 3923 C 378.164 1.32898 -1.51727 0
M  V30 3924 C 378.477 1.948 -0.176692 0
M  V30 3925 O 379.683 2.71299 -0.104385 0
M  V30 3926 C 378.139 2.40901 -2.67385 0
M  V30 3927 C 377.747 1.85266 -4.07898 0
M  V30 3928 C 379.491 3.17609 -2.81646 0
M  V30 3929 C 377.398 2.90945 -5.14883 0
M  V30 3930 H 376.328 0.499631 -0.564699 0
M  V30 3931 H 378.979 0.612536 -1.72975 0
M  V30 3932 H 377.361 3.15379 -2.39483 0
M  V30 3933 H 378.535 1.17278 -4.45626 0
M  V30 3934 H 376.85 1.21199 -3.98371 0
M  V30 3935 H 379.447 3.96493 -3.58744 0
M  V30 3936 H 379.79 3.70696 -1.89448 0
M  V30 3937 H 380.323 2.50239 -3.09233 0
M  V30 3938 H 377.062 2.42736 -6.089 0
M  V30 3939 H 376.582 3.57398 -4.81691 0
M  V30 3940 H 378.261 3.54755 -5.41071 0
M  V30 3941 N 378.394 1.34581 0.820102 0
M  V30 3942 C 379.324 1.29038 1.94606 0
M  V30 3943 C 380.305 0.1673 1.69275 0
M  V30 3944 O 381.49 0.360112 1.90832 0
M  V30 3945 C 378.62 1.04793 3.31113 0
M  V30 3946 C 377.574 2.13597 3.70891 0
M  V30 3947 C 376.9 1.74537 5.05412 0
M  V30 3948 C 378.2 3.55451 3.8269 0
M  V30 3949 H 379.894 2.23248 1.99501 0
M  V30 3950 H 377.44 1.0747 0.958449 0
M  V30 3951 H 379.393 0.995592 4.0947 0
M  V30 3952 H 378.117 0.0702565 3.26524 0
M  V30 3953 H 376.776 2.17905 2.9481 0
M  V30 3954 H 376.424 0.754226 4.97313 0
M  V30 3955 H 376.124 2.47361 5.32997 0
M  V30 3956 H 377.648 1.70803 5.86224 0
M  V30 3957 H 379.062 3.5354 4.51312 0
M  V30 3958 H 377.459 4.26922 4.21732 0
M  V30 3959 H 378.529 3.92587 2.84611 0
M  V30 3960 N 379.872 -1.04064 1.18357 0
M  V30 3961 C 381.12 -1.76915 0.977013 0
M  V30 3962 C 381.441 -1.88624 -0.494577 0
M  V30 3963 O 380.711 -1.41125 -1.3587 0
M  V30 3964 H 379.291 -0.65535 0.358504 0
M  V30 3965 H 381.953 -1.25592 1.49039 0
M  V30 3966 H 381.049 -2.78178 1.41504 0
M  V30 3967 N 381.35 -0.985608 -1.22978 0
M  V30 3968 C 382.597 -0.657386 -1.91532 0
M  V30 3969 C 382.925 0.809707 -1.76845 0
M  V30 3970 O 382.18 1.60021 -1.12658 0
M  V30 3971 C 382.479 -1.00014 -3.43121 0
M  V30 3972 C 382.145 -2.4583 -3.77993 0
M  V30 3973 C 380.807 -2.85679 -3.87222 0
M  V30 3974 C 383.159 -3.40378 -3.94705 0
M  V30 3975 C 380.487 -4.19081 -4.10595 0
M  V30 3976 C 382.839 -4.73429 -4.1958 0
M  V30 3977 C 381.503 -5.1303 -4.27032 0
M  V30 3978 H 380.773 -0.240555 -0.700867 0
M  V30 3979 H 383.42 -1.24044 -1.45895 0
M  V30 3980 H 381.725 -0.335072 -3.90365 0
M  V30 3981 H 383.422 -0.724322 -3.94404 0
M  V30 3982 H 380.012 -2.13939 -3.71387 0
M  V30 3983 H 384.196 -3.10766 -3.8696 0
M  V30 3984 H 379.452 -4.49362 -4.14589 0
M  V30 3985 H 383.626 -5.46644 -4.31455 0
M  V30 3986 H 381.253 -6.16418 -4.44896 0
M  V30 3987 N 382.828 1.3818 -0.7579 0
M  V30 3988 C 384.077 1.99261 -0.312744 0
M  V30 3989 C 384.39 1.60846 1.11301 0
M  V30 3990 O 385.596 2.14929 1.65885 0
M  V30 3991 C 384.052 3.56294 -0.50821 0
M  V30 3992 C 383.66 4.03657 -1.94333 0
M  V30 3993 C 385.404 4.24313 -0.125982 0
M  V30 3994 C 383.311 5.53347 -2.08712 0
M  V30 3995 H 382.241 0.745456 -0.113185 0
M  V30 3996 H 384.892 1.57889 -0.935056 0
M  V30 3997 H 383.274 3.95575 0.183353 0
M  V30 3998 H 384.448 3.75655 -2.66871 0
M  V30 3999 H 382.763 3.48376 -2.28086 0
M  V30 4000 H 385.36 5.34279 -0.212125 0
M  V30 4001 H 385.703 4.05962 0.921964 0
M  V30 4002 H 386.236 3.90285 -0.769563 0
M  V30 4003 H 382.975 5.76607 -3.11777 0
M  V30 4004 H 382.495 5.83078 -1.4064 0
M  V30 4005 H 384.174 6.19111 -1.87912 0
M  V30 4006 N 384.306 0.507319 1.49211 0
M  V30 4007 C 385.269 -0.256763 2.27757 0
M  V30 4008 C 386.269 -0.888287 1.34038 0
M  V30 4009 O 387.459 -0.751841 1.5714 0
M  V30 4010 C 384.591 -1.36905 3.12202 0
M  V30 4011 H 385.784 0.432557 2.96764 0
M  V30 4012 H 383.337 0.262488 1.5408 0
M  V30 4013 H 384.072 -2.09233 2.47775 0
M  V30 4014 H 383.857 -0.921599 3.81115 0
M  V30 4015 H 385.347 -1.9071 3.7151 0
M  V30 4016 N 385.784 -1.5574 0.241426 0
M  V30 4017 C 387.009 -2.0366 -0.392111 0
M  V30 4018 C 387.434 -1.11969 -1.51144 0
M  V30 4019 O 386.792 -0.111594 -1.80956 0
M  V30 4020 C 386.84 -3.49638 -0.882371 0
M  V30 4021 O 385.944 -3.6108 -1.99235 0
M  V30 4022 H 385.285 -0.658379 -0.0862122 0
M  V30 4023 H 387.815 -2.01302 0.365881 0
M  V30 4024 H 387.825 -3.90351 -1.18702 0
M  V30 4025 H 386.5 -4.15852 -0.0632361 0
M  V30 4026 H 385.077 -3.32262 -1.69282 0
M  V30 4027 N 387.262 0.0317525 -1.57568 0
M  V30 4028 C 388.539 0.758366 -1.803 0
M  V30 4029 C 388.919 1.93718 -0.838845 0
M  V30 4030 O 388.267 2.28187 0.119571 0
M  V30 4031 C 388.477 1.19392 -3.27943 0
M  V30 4032 C 389.825 1.61094 -3.92854 0
M  V30 4033 O 390.849 1.28857 -3.32076 0
M  V30 4034 O 389.708 2.20918 -4.99858 0
M  V30 4035 H 386.802 0.366514 -0.741348 0
M  V30 4036 H 389.348 0.00873765 -1.69698 0
M  V30 4037 H 388.12 0.352275 -3.89711 0
M  V30 4038 H 387.743 2.00365 -3.43424 0
M  V30 4039 N 388.74 1.54641 0.303973 0
M  V30 4040 C 389.673 1.80263 1.3993 0
M  V30 4041 C 390.651 0.653657 1.48883 0
M  V30 4042 O 391.835 0.893284 1.6599 0
M  V30 4043 C 388.962 1.9367 2.77866 0
M  V30 4044 C 388.008 3.16078 2.86351 0
M  V30 4045 S 388.841 4.74219 2.4875 0
M  V30 4046 C 389.997 4.90558 3.88721 0
M  V30 4047 H 390.23 2.72886 1.17986 0
M  V30 4048 H 387.763 1.46014 0.501918 0
M  V30 4049 H 389.721 2.0208 3.57315 0
M  V30 4050 H 388.382 1.01991 2.9708 0
M  V30 4051 H 387.575 3.22252 3.87517 0
M  V30 4052 H 387.177 3.06099 2.14893 0
M  V30 4053 H 389.469 4.74398 4.83687 0
M  V30 4054 H 390.412 5.92651 3.87518 0
M  V30 4055 H 390.82 4.18728 3.78585 0
M  V30 4056 N 390.218 -0.567019 1.47046 0
M  V30 4057 C 391.446 -1.35027 1.56765 0
M  V30 4058 C 391.861 -1.8758 0.214316 0
M  V30 4059 O 391.218 -1.64471 -0.790919 0
M  V30 4060 C 391.269 -2.52698 2.58507 0
M  V30 4061 O 390.99 -2.0232 3.88585 0
M  V30 4062 C 392.491 -3.45043 2.78316 0
M  V30 4063 H 389.711 -0.41195 0.529658 0
M  V30 4064 H 392.255 -0.687832 1.92585 0
M  V30 4065 H 390.41 -3.149 2.25648 0
M  V30 4066 H 390.824 -2.79068 4.44096 0
M  V30 4067 H 392.298 -4.2405 3.53391 0
M  V30 4068 H 392.775 -3.97971 1.85784 0
M  V30 4069 H 393.381 -2.88665 3.12334 0
M  V30 4070 N 391.696 -1.35014 -0.812953 0
M  V30 4071 C 392.921 -1.31187 -1.60639 0
M  V30 4072 C 393.346 0.109382 -1.87782 0
M  V30 4073 O 392.704 1.07424 -1.46047 0
M  V30 4074 C 392.752 -2.11809 -2.91838 0
M  V30 4075 O 391.856 -1.49444 -3.8437 0
M  V30 4076 H 391.197 -0.450084 -0.488181 0
M  V30 4077 H 393.727 -1.77963 -1.00947 0
M  V30 4078 H 393.737 -2.23531 -3.41318 0
M  V30 4079 H 392.412 -3.15137 -2.71407 0
M  V30 4080 H 390.989 -1.46524 -3.42907 0
M  V30 4081 N 393.175 1.03435 -1.18907 0
M  V30 4082 C 394.591 1.28973 -0.940111 0
M  V30 4083 C 394.791 1.97676 0.390691 0
M  V30 4084 O 393.847 2.26127 1.12352 0
M  V30 4085 C 395.16 2.14221 -2.11021 0
M  V30 4086 C 396.708 2.27547 -2.14922 0
M  V30 4087 C 397.183 3.16164 -3.31367 0
M  V30 4088 N 398.674 3.23752 -3.31269 0
M  V30 4089 C 399.409 3.92495 -4.18014 0
M  V30 4090 N 398.905 4.63515 -5.14904 0
M  V30 4091 N 400.698 3.88838 -4.05908 0
M  V30 4092 H 392.849 0.57252 -2.04538 0
M  V30 4093 H 395.112 0.315184 -0.894071 0
M  V30 4094 H 394.818 1.71054 -3.073 0
M  V30 4095 H 394.692 3.14919 -2.0762 0
M  V30 4096 H 397.079 2.69947 -1.19217 0
M  V30 4097 H 397.16 1.26418 -2.22378 0
M  V30 4098 H 396.804 2.74474 -4.27348 0
M  V30 4099 H 396.734 4.17339 -3.21148 0
M  V30 4100 H 399.225 2.73167 -2.61129 0
M  V30 4101 H 399.538 5.13583 -5.77453 0
M  V30 4102 H 397.883 4.62398 -5.18857 0
M  V30 4103 H 401.074 3.32491 -3.29495 0
M  V30 4104 H 401.247 4.4214 -4.73726 0
M  V30 4105 N 394.653 0.992116 1.22453 0
M  V30 4106 C 395.601 0.534644 2.26372 0
M  V30 4107 C 396.595 -0.414293 1.64256 0
M  V30 4108 O 397.801 -0.286899 1.77699 0
M  V30 4109 H 394.176 0.154502 0.735957 0
M  V30 4110 H 396.147 1.42256 2.62309 0
M  V30 4111 C 394.896 -0.135815 3.47435 0
M  V30 4112 H 394.219 0.585311 3.95492 0
M  V30 4113 H 395.659 -0.419374 4.21921 0
M  V30 4114 C 394.118 -1.37089 3.07747 0
M  V30 4115 O 394.648 -2.46629 3.17076 0
M  V30 4116 N 392.854 -1.24585 2.62539 0
M  V30 4117 H 392.401 -0.354542 2.55149 0
M  V30 4118 H 392.359 -2.07327 2.36353 0
M  V30 4119 N 396.131 -1.37776 0.765217 0
M  V30 4120 C 397.356 -2.04651 0.336537 0
M  V30 4121 C 397.781 -1.57337 -1.03086 0
M  V30 4122 O 397.139 -0.730621 -1.65927 0
M  V30 4123 C 397.187 -3.58577 0.381468 0
M  V30 4124 O 396.291 -4.07706 -0.62042 0
M  V30 4125 H 395.632 -0.64756 0.146838 0
M  V30 4126 H 398.162 -1.76221 1.03959 0
M  V30 4127 H 398.172 -4.07314 0.236448 0
M  V30 4128 H 396.847 -3.9237 1.37907 0
M  V30 4129 H 395.424 -3.70306 -0.439056 0
M  V30 4130 N 397.609 -0.515225 -1.4894 0
M  V30 4131 C 398.834 0.022727 -2.07388 0
M  V30 4132 C 399.259 1.2876 -1.37122 0
M  V30 4133 O 398.617 1.76067 -0.432431 0
M  V30 4134 C 398.665 0.244869 -3.59768 0
M  V30 4135 O 397.769 1.31667 -3.90817 0
M  V30 4136 H 397.11 -0.0325506 -0.663202 0
M  V30 4137 H 399.64 -0.718918 -1.91553 0
M  V30 4138 H 399.65 0.47205 -4.0526 0
M  V30 4139 H 398.325 -0.679194 -4.10317 0
M  V30 4140 H 396.902 1.07331 -3.5712 0
M  V30 4141 N 399.087 1.5561 -0.249682 0
M  V30 4142 C 400.315 2.03411 0.378352 0
M  V30 4143 C 400.73 1.12886 1.51335 0
M  V30 4144 O 400.087 0.143833 1.81932 0
M  V30 4145 C 400.138 3.50537 0.88351 0
M  V30 4146 O 399.859 4.37614 -0.20626 0
M  V30 4147 C 401.36 4.14113 1.58195 0
M  V30 4148 H 398.58 0.664994 0.08958 0
M  V30 4149 H 401.124 2.01044 -0.374357 0
M  V30 4150 H 399.279 3.5343 1.58639 0
M  V30 4151 H 399.693 5.24199 0.177782 0
M  V30 4152 H 401.167 5.18741 1.8871 0
M  V30 4153 H 401.644 3.60767 2.50487 0
M  V30 4154 H 402.25 4.15151 0.923573 0
M  V30 4155 N 400.565 -0.0233959 1.57583 0
M  V30 4156 C 401.497 -1.04994 2.03737 0
M  V30 4157 C 402.51 -1.32125 0.951152 0
M  V30 4158 O 403.699 -1.29512 1.22837 0
M  V30 4159 C 400.799 -2.39026 2.40249 0
M  V30 4160 C 399.972 -2.31171 3.7132 0
M  V30 4161 C 399.031 -3.47698 3.94959 0
M  V30 4162 O 398.057 -3.26937 4.65941 0
M  V30 4163 N 399.259 -4.6976 3.41037 0
M  V30 4164 H 402.024 -0.656507 2.92421 0
M  V30 4165 H 399.585 -0.211235 1.60516 0
M  V30 4166 H 401.577 -3.15712 2.53196 0
M  V30 4167 H 400.147 -2.70194 1.57207 0
M  V30 4168 H 399.367 -1.39547 3.68674 0
M  V30 4169 H 400.655 -2.23071 4.57293 0
M  V30 4170 H 400.053 -4.89528 2.83512 0
M  V30 4171 H 398.61 -5.43791 3.59353 0
M  V30 4172 N 402.043 -1.548 -0.295768 0
M  V30 4173 C 402.973 -1.89115 -1.36959 0
M  V30 4174 C 403.954 -0.75059 -1.52644 0
M  V30 4175 O 405.139 -1.00678 -1.66065 0
M  V30 4176 C 402.269 -2.14307 -2.73295 0
M  V30 4177 C 401.223 -3.30151 -2.72368 0
M  V30 4178 C 400.549 -3.40772 -4.12042 0
M  V30 4179 C 401.849 -4.67126 -2.33646 0
M  V30 4180 H 403.543 -2.79053 -1.08488 0
M  V30 4181 H 401.089 -1.34266 -0.520443 0
M  V30 4182 H 403.042 -2.36898 -3.48507 0
M  V30 4183 H 401.766 -1.21145 -3.03301 0
M  V30 4184 H 400.425 -3.0749 -1.99613 0
M  V30 4185 H 400.073 -2.45117 -4.39234 0
M  V30 4186 H 399.773 -4.18645 -4.12322 0
M  V30 4187 H 401.297 -3.6563 -4.89027 0
M  V30 4188 H 402.711 -4.89414 -2.98575 0
M  V30 4189 H 401.108 -5.47751 -2.45129 0
M  V30 4190 H 402.178 -4.67489 -1.28772 0
M  V30 4191 N 403.521 0.559213 -1.47345 0
M  V30 4192 C 404.767 1.31614 -1.55079 0
M  V30 4193 C 405.122 1.91257 -0.209422 0
M  V30 4194 O 404.415 1.74796 0.784656 0
M  V30 4195 C 404.609 2.44853 -2.6035 0
M  V30 4196 C 404.438 1.96305 -4.04591 0
M  V30 4197 C 403.208 1.8024 -4.72061 0
M  V30 4198 C 405.406 1.50872 -4.91673 0
M  V30 4199 N 403.388 1.26011 -6.00828 0
M  V30 4200 C 404.759 1.08395 -6.10451 0
M  V30 4201 C 406.814 1.38905 -4.78132 0
M  V30 4202 C 405.517 0.551399 -7.17183 0
M  V30 4203 C 407.543 0.870518 -5.84958 0
M  V30 4204 C 406.905 0.455661 -7.02925 0
M  V30 4205 H 403.004 0.473712 -0.62219 0
M  V30 4206 H 405.588 0.634103 -1.84085 0
M  V30 4207 H 403.759 3.10589 -2.33215 0
M  V30 4208 H 405.491 3.11849 -2.57938 0
M  V30 4209 H 402.246 2.02895 -4.27937 0
M  V30 4210 H 402.67 1.00991 -6.69425 0
M  V30 4211 H 407.312 1.69591 -3.87297 0
M  V30 4212 H 405.03 0.232159 -8.07766 0
M  V30 4213 H 408.616 0.781507 -5.76527 0
M  V30 4214 H 407.496 0.0606414 -7.84177 0
M  V30 4215 N 404.999 1.35443 0.805782 0
M  V30 4216 C 405.929 1.31095 1.93226 0
M  V30 4217 C 406.91 0.185244 1.69088 0
M  V30 4218 O 408.095 0.380332 1.90439 0
M  V30 4219 C 405.225 1.08299 3.29983 0
M  V30 4220 C 404.179 2.17519 3.68605 0
M  V30 4221 C 403.505 1.79887 5.03532 0
M  V30 4222 C 404.805 3.5949 3.78898 0
M  V30 4223 H 406.499 2.25352 1.97122 0
M  V30 4224 H 404.045 1.0848 0.946996 0
M  V30 4225 H 405.998 1.03897 4.08391 0
M  V30 4226 H 404.722 0.104885 3.26432 0
M  V30 4227 H 403.381 2.2102 2.92482 0
M  V30 4228 H 403.029 0.80693 4.96485 0
M  V30 4229 H 402.729 2.53001 5.30344 0
M  V30 4230 H 404.253 1.77011 5.84379 0
M  V30 4231 H 405.667 3.58307 4.47536 0
M  V30 4232 H 404.064 4.31371 4.1718 0
M  V30 4233 H 405.134 3.95584 2.80431 0
M  V30 4234 N 406.477 -1.02803 1.19454 0
M  V30 4235 C 407.726 -1.7562 0.991996 0
M  V30 4236 C 408.039 -1.89672 -0.477901 0
M  V30 4237 O 409.245 -2.59468 -0.799287 0
M  V30 4238 C 407.701 -3.15812 1.72601 0
M  V30 4239 C 407.309 -3.0981 3.23607 0
M  V30 4240 C 409.053 -3.92918 1.60674 0
M  V30 4241 C 406.96 -4.44939 3.89594 0
M  V30 4242 H 405.89 -0.658352 0.367543 0
M  V30 4243 H 408.541 -1.15044 1.42959 0
M  V30 4244 H 406.923 -3.7686 1.21624 0
M  V30 4245 H 408.097 -2.58138 3.81709 0
M  V30 4246 H 406.412 -2.46201 3.35819 0
M  V30 4247 H 409.009 -4.9287 2.07323 0
M  V30 4248 H 409.352 -4.12502 0.561025 0
M  V30 4249 H 409.885 -3.38472 2.09001 0
M  V30 4250 H 406.624 -4.30559 4.94267 0
M  V30 4251 H 406.144 -4.96664 3.36281 0
M  V30 4252 H 407.823 -5.1382 3.93189 0
M  V30 4253 N 407.956 -0.998596 -1.21925 0
M  V30 4254 C 409.184 -0.696286 -1.94832 0
M  V30 4255 C 409.599 0.740032 -1.73692 0
M  V30 4256 O 408.956 1.5 -1.03953 0
M  V30 4257 C 409.007 -0.999833 -3.47398 0
M  V30 4258 O 408.728 -2.37972 -3.67833 0
M  V30 4259 C 410.229 -0.716025 -4.37479 0
M  V30 4260 H 407.449 -0.257111 -0.619786 0
M  V30 4261 H 409.993 -1.33491 -1.54921 0
M  V30 4262 H 408.148 -0.406918 -3.85257 0
M  V30 4263 H 408.562 -2.48338 -4.61983 0
M  V30 4264 H 410.036 -0.978642 -5.43256 0
M  V30 4265 H 410.513 0.349968 -4.37803 0
M  V30 4266 H 411.119 -1.29025 -4.05256 0
M  V30 4267 N 409.434 1.37368 -0.772513 0
M  V30 4268 C 410.384 2.27613 -0.132823 0
M  V30 4269 C 411.368 1.46138 0.673247 0
M  V30 4270 O 412.56 1.68686 0.536095 0
M  V30 4271 C 409.689 3.35122 0.744864 0
M  V30 4272 C 408.775 4.24044 -0.0690771 0
M  V30 4273 N 409.166 4.93355 -1.1151 0
M  V30 4274 C 407.464 4.45731 0.154782 0
M  V30 4275 C 408.165 5.59 -1.60917 0
M  V30 4276 N 407.141 5.35737 -0.921222 0
M  V30 4277 H 410.943 2.78675 -0.933681 0
M  V30 4278 H 408.457 1.50494 -0.610342 0
M  V30 4279 H 410.454 3.98683 1.21892 0
M  V30 4280 H 409.114 2.85616 1.54446 0
M  V30 4281 H 410.125 4.95785 -1.49726 0
M  V30 4282 H 406.802 4.07096 0.926224 0
M  V30 4283 H 408.192 6.24395 -2.48153 0
M  V30 4284 N 410.912 0.523116 1.48665 0
M  V30 4285 C 412.142 -0.00961724 2.06598 0
M  V30 4286 C 412.55 -1.29333 1.38093 0
M  V30 4287 O 411.893 -1.77846 0.46007 0
M  V30 4288 C 411.955 -0.311135 3.58151 0
M  V30 4289 C 411.619 0.878092 4.48485 0
M  V30 4290 C 412.616 1.77464 4.88674 0
M  V30 4291 C 410.301 1.08315 4.90483 0
M  V30 4292 C 412.295 2.86021 5.69623 0
M  V30 4293 C 409.982 2.17187 5.71203 0
M  V30 4294 C 410.98 3.05873 6.10681 0
M  V30 4295 O 410.668 4.12862 6.89783 0
M  V30 4296 H 410.4 0.0272658 0.67545 0
M  V30 4297 H 412.954 0.726156 1.92136 0
M  V30 4298 H 411.184 -1.10079 3.70701 0
M  V30 4299 H 412.873 -0.785125 3.98234 0
M  V30 4300 H 413.639 1.62813 4.56855 0
M  V30 4301 H 409.518 0.402149 4.59243 0
M  V30 4302 H 413.062 3.55272 6.00356 0
M  V30 4303 H 408.959 2.31824 6.02435 0
M  V30 4304 H 409.727 4.10487 7.08126 0
M  V30 4305 N 412.39 -1.55475 0.257931 0
M  V30 4306 C 413.34 -2.18506 -0.651094 0
M  V30 4307 C 414.324 -1.14431 -1.13112 0
M  V30 4308 O 415.516 -1.40305 -1.07905 0
M  V30 4309 C 412.645 -2.89653 -1.84272 0
M  V30 4310 C 411.731 -4.00996 -1.38068 0
M  V30 4311 N 412.122 -5.01816 -0.633609 0
M  V30 4312 C 410.42 -4.13753 -1.66506 0
M  V30 4313 C 411.121 -5.80371 -0.392922 0
M  V30 4314 N 410.097 -5.3505 -0.960359 0
M  V30 4315 H 413.899 -2.93811 -0.0722883 0
M  V30 4316 H 411.413 -1.62286 0.0607256 0
M  V30 4317 H 413.41 -3.33245 -2.50506 0
M  V30 4318 H 412.07 -2.15854 -2.42564 0
M  V30 4319 H 413.081 -5.17128 -0.282626 0
M  V30 4320 H 409.758 -3.51133 -2.25858 0
M  V30 4321 H 411.148 -6.7159 0.204235 0
M  V30 4322 N 413.868 0.0150385 -1.57593 0
M  V30 4323 C 414.778 1.02791 -2.10882 0
M  V30 4324 C 415.794 1.38702 -1.0506 0
M  V30 4325 O 416.97 1.47739 -1.36877 0
M  V30 4326 C 414.035 2.30568 -2.58919 0
M  V30 4327 C 413.096 2.01108 -3.79281 0
M  V30 4328 C 412.329 3.22794 -4.25018 0
M  V30 4329 O 412.552 4.33959 -3.70183 0
M  V30 4330 O 411.486 3.07672 -5.17322 0
M  V30 4331 H 415.312 0.604973 -2.97613 0
M  V30 4332 H 412.897 0.23292 -1.47573 0
M  V30 4333 H 414.779 3.05662 -2.90084 0
M  V30 4334 H 413.454 2.72129 -1.75293 0
M  V30 4335 H 412.361 1.23537 -3.53114 0
M  V30 4336 H 413.694 1.64394 -4.63935 0
M  V30 4337 N 415.346 1.54954 0.287554 0
M  V30 4338 C 416.296 1.8322 1.357 0
M  V30 4339 C 417.28 0.690152 1.45347 0
M  V30 4340 O 418.472 0.951137 1.49273 0
M  V30 4341 C 415.601 2.09481 2.71979 0
M  V30 4342 C 414.687 3.29906 2.66502 0
M  V30 4343 N 415.078 4.50154 2.30641 0
M  V30 4344 C 413.376 3.32203 2.97585 0
M  V30 4345 C 414.077 5.32209 2.34794 0
M  V30 4346 N 413.053 4.70258 2.72688 0
M  V30 4347 H 416.855 2.73746 1.0696 0
M  V30 4348 H 414.369 1.54635 0.496167 0
M  V30 4349 H 416.366 2.27882 3.49107 0
M  V30 4350 H 415.026 1.2023 3.0162 0
M  V30 4351 H 416.037 4.76515 2.02865 0
M  V30 4352 H 412.714 2.53101 3.32034 0
M  V30 4353 H 414.104 6.38321 2.09753 0
M  V30 4354 N 416.824 -0.551391 1.4764 0
M  V30 4355 C 418.072 -1.30572 1.54258 0
M  V30 4356 C 418.393 -1.93877 0.208963 0
M  V30 4357 O 417.663 -1.80234 -0.767619 0
M  V30 4358 H 416.243 -0.484894 0.568231 0
M  V30 4359 H 418.905 -0.643402 1.83974 0
M  V30 4360 H 418.001 -2.09621 2.31226 0
M  V30 4361 N 418.302 -1.35869 -0.798587 0
M  V30 4362 C 419.527 -1.32883 -1.59238 0
M  V30 4363 C 419.952 0.0894587 -1.87887 0
M  V30 4364 O 419.31 1.05869 -1.47178 0
M  V30 4365 C 419.358 -2.14892 -2.89575 0
M  V30 4366 O 418.462 -1.53512 -3.82763 0
M  V30 4367 H 417.803 -0.455236 -0.48338 0
M  V30 4368 H 420.333 -1.79024 -0.990539 0
M  V30 4369 H 420.343 -2.27139 -3.38928 0
M  V30 4370 H 419.018 -3.17998 -2.68049 0
M  V30 4371 H 417.595 -1.50153 -3.41334 0
M  V30 4372 N 419.78 1.02168 -1.19998 0
M  V30 4373 C 420.71 2.12488 -0.96804 0
M  V30 4374 C 421.691 1.69799 0.101185 0
M  V30 4375 O 422.876 1.94121 -0.0552993 0
M  V30 4376 C 420.006 3.43479 -0.513776 0
M  V30 4377 C 418.96 3.99884 -1.52566 0
M  V30 4378 C 418.286 5.26582 -0.928214 0
M  V30 4379 C 419.586 4.33861 -2.90795 0
M  V30 4380 H 421.28 2.32149 -1.89069 0
M  V30 4381 H 418.826 1.11564 -0.910468 0
M  V30 4382 H 420.779 4.20036 -0.338774 0
M  V30 4383 H 419.503 3.23561 0.444493 0
M  V30 4384 H 418.162 3.25429 -1.68794 0
M  V30 4385 H 417.81 5.02986 0.0378289 0
M  V30 4386 H 417.51 5.65284 -1.60397 0
M  V30 4387 H 419.034 6.05799 -0.764167 0
M  V30 4388 H 420.448 5.01327 -2.78109 0
M  V30 4389 H 418.845 4.83664 -3.55231 0
M  V30 4390 H 419.915 3.42848 -3.42904 0
M  V30 4391 N 421.258 1.00505 1.21394 0
M  V30 4392 C 422.488 0.705584 1.94178 0
M  V30 4393 C 422.896 -0.735846 1.74304 0
M  V30 4394 O 422.239 -1.50954 1.04683 0
M  V30 4395 C 422.301 0.94689 3.46806 0
M  V30 4396 C 421.965 2.37517 3.90429 0
M  V30 4397 C 422.962 3.35539 3.97127 0
M  V30 4398 C 420.647 2.71284 4.22742 0
M  V30 4399 C 422.641 4.65395 4.3553 0
M  V30 4400 C 420.328 4.01356 4.60822 0
M  V30 4401 C 421.326 4.98223 4.67186 0
M  V30 4402 O 421.014 6.25969 5.04399 0
M  V30 4403 H 420.746 0.259216 0.624326 0
M  V30 4404 H 423.3 1.34592 1.55159 0
M  V30 4405 H 421.53 0.249386 3.85895 0
M  V30 4406 H 423.219 0.640804 4.0081 0
M  V30 4407 H 423.985 3.10786 3.7234 0
M  V30 4408 H 419.864 1.96581 4.16985 0
M  V30 4409 H 423.408 5.41002 4.40412 0
M  V30 4410 H 419.305 4.25893 4.85063 0
M  V30 4411 H 420.073 6.30085 5.22431 0
M  V30 4412 N 422.737 -1.36956 0.779787 0
M  V30 4413 C 424.014 -1.93697 0.272156 0
M  V30 4414 C 424.394 -1.71267 -1.23413 0
M  V30 4415 O 423.742 -1.06607 -2.02107 0
M  V30 4416 C 423.952 -3.42812 0.654291 0
M  V30 4417 C 425.3 -4.19921 0.628602 0
M  V30 4418 O 426.324 -3.51209 0.594172 0
M  V30 4419 O 425.183 -5.42465 0.662864 0
M  V30 4420 H 422.277 -0.824447 0.0649286 0
M  V30 4421 H 424.823 -1.46196 0.861682 0
M  V30 4422 H 423.595 -3.52754 1.69353 0
M  V30 4423 H 423.218 -3.97582 0.0381369 0
M  V30 4424 N 424.215 -0.530993 -1.48385 0
M  V30 4425 C 425.462 0.0027373 -2.025 0
M  V30 4426 C 425.79 1.34186 -1.40799 0
M  V30 4427 O 425.045 1.88 -0.543544 0
M  V30 4428 C 425.344 0.172742 -3.56982 0
M  V30 4429 C 425.01 -1.09215 -4.37473 0
M  V30 4430 C 423.672 -1.43881 -4.59186 0
M  V30 4431 C 426.024 -1.93153 -4.84088 0
M  V30 4432 C 423.352 -2.62381 -5.2476 0
M  V30 4433 C 425.704 -3.10833 -5.50968 0
M  V30 4434 C 424.368 -3.45843 -5.70919 0
M  V30 4435 H 423.638 0.00100165 -0.740999 0
M  V30 4436 H 426.285 -0.697219 -1.78357 0
M  V30 4437 H 424.59 0.955473 -3.79971 0
M  V30 4438 H 426.287 0.600642 -3.96476 0
M  V30 4439 H 422.877 -0.812177 -4.20834 0
M  V30 4440 H 427.061 -1.67683 -4.67115 0
M  V30 4441 H 422.317 -2.89707 -5.38405 0
M  V30 4442 H 426.491 -3.7618 -5.86056 0
M  V30 4443 H 424.118 -4.37764 -6.21503 0
M  V30 4444 N 425.693 1.55336 -0.266172 0
M  V30 4445 C 426.623 2.25146 0.618981 0
M  V30 4446 C 427.604 1.23845 1.16604 0
M  V30 4447 O 428.789 1.52544 1.20183 0
M  V30 4448 C 425.919 2.96572 1.80728 0
M  V30 4449 C 424.873 4.04726 1.39215 0
M  V30 4450 C 424.199 4.63678 2.66283 0
M  V30 4451 C 425.499 5.19407 0.548942 0
M  V30 4452 H 427.193 2.99377 0.0368116 0
M  V30 4453 H 424.739 1.43991 0.0162651 0
M  V30 4454 H 426.692 3.44116 2.43232 0
M  V30 4455 H 425.416 2.19861 2.41514 0
M  V30 4456 H 424.075 3.57979 0.790351 0
M  V30 4457 H 423.723 3.83646 3.25308 0
M  V30 4458 H 423.423 5.367 2.39222 0
M  V30 4459 H 424.947 5.13967 3.29651 0
M  V30 4460 H 426.361 5.63059 1.07876 0
M  V30 4461 H 424.758 5.98936 0.373593 0
M  V30 4462 H 425.828 4.8295 -0.434394 0
M  V30 4463 N 427.171 -0.0066808 1.57599 0
M  V30 4464 C 428.103 -1.02827 2.04839 0
M  V30 4465 C 429.116 -1.31108 0.965113 0
M  V30 4466 O 430.305 -1.28202 1.24203 0
M  V30 4467 C 427.405 -2.36464 2.42771 0
M  V30 4468 C 426.578 -2.27219 3.73751 0
M  V30 4469 C 425.637 -3.43489 3.98625 0
M  V30 4470 O 424.663 -3.21976 4.69382 0
M  V30 4471 N 425.865 -4.66116 3.46 0
M  V30 4472 H 428.63 -0.625455 2.93101 0
M  V30 4473 H 426.191 -0.194198 1.60731 0
M  V30 4474 H 428.183 -3.13008 2.56531 0
M  V30 4475 H 426.753 -2.68512 1.60063 0
M  V30 4476 H 425.973 -1.35629 3.70133 0
M  V30 4477 H 427.261 -2.18208 4.59633 0
M  V30 4478 H 426.659 -4.86493 2.88688 0
M  V30 4479 H 425.216 -5.39949 3.65101 0
M  V30 4480 N 428.649 -1.55105 -0.279332 0
M  V30 4481 C 430.065 -1.46803 -0.626187 0
M  V30 4482 C 430.265 -0.676939 -1.89789 0
M  V30 4483 O 429.321 -0.19326 -2.51759 0
M  V30 4484 C 430.634 -2.90962 -0.759034 0
M  V30 4485 C 432.182 -3.01138 -0.853504 0
M  V30 4486 C 432.657 -4.46539 -1.01818 0
M  V30 4487 N 434.148 -4.50341 -1.08386 0
M  V30 4488 C 434.883 -5.60053 -1.22996 0
M  V30 4489 N 434.379 -6.79645 -1.34366 0
M  V30 4490 N 436.172 -5.47783 -1.26056 0
M  V30 4491 H 428.323 -2.04996 0.555921 0
M  V30 4492 H 430.586 -0.929325 0.187239 0
M  V30 4493 H 430.292 -3.51544 0.104852 0
M  V30 4494 H 430.166 -3.39619 -1.64131 0
M  V30 4495 H 432.553 -2.40658 -1.70786 0
M  V30 4496 H 432.634 -2.55745 0.0532466 0
M  V30 4497 H 432.278 -5.0762 -0.168504 0
M  V30 4498 H 432.208 -4.89583 -1.93948 0
M  V30 4499 H 434.699 -3.64191 -1.00864 0
M  V30 4500 H 435.012 -7.59012 -1.4533 0
M  V30 4501 H 433.357 -6.82469 -1.31382 0
M  V30 4502 H 436.548 -4.53294 -1.168 0
M  V30 4503 H 436.721 -6.33331 -1.37098 0
M  V30 4504 N 430.127 0.543554 -1.4793 0
M  V30 4505 C 431.059 1.665 -1.57513 0
M  V30 4506 C 432.072 1.56156 -0.460333 0
M  V30 4507 O 433.261 1.62865 -0.730573 0
M  V30 4508 C 430.361 3.05063 -1.47614 0
M  V30 4509 C 429.534 3.41024 -2.739 0
M  V30 4510 C 428.593 4.58809 -2.57645 0
M  V30 4511 O 427.619 4.62707 -3.31498 0
M  V30 4512 N 428.821 5.56149 -1.66368 0
M  V30 4513 H 431.586 1.5872 -2.5422 0
M  V30 4514 H 429.147 0.730517 -1.44482 0
M  V30 4515 H 431.139 3.81712 -1.34455 0
M  V30 4516 H 429.709 3.06994 -0.589359 0
M  V30 4517 H 428.929 2.53687 -3.01723 0
M  V30 4518 H 430.217 3.61831 -3.57709 0
M  V30 4519 H 429.615 5.55767 -1.05543 0
M  V30 4520 H 428.172 6.32071 -1.59154 0
M  V30 4521 N 431.605 1.3629 0.791371 0
M  V30 4522 C 432.833 1.33562 1.58016 0
M  V30 4523 C 433.248 -0.0835616 1.88615 0
M  V30 4524 O 432.605 -1.0399 1.49974 0
M  V30 4525 C 432.656 2.15517 2.90232 0
M  V30 4526 O 432.377 3.51902 2.60953 0
M  V30 4527 C 433.878 2.20546 3.84544 0
M  V30 4528 H 431.098 0.458226 0.490173 0
M  V30 4529 H 433.642 1.79361 0.982345 0
M  V30 4530 H 431.797 1.73278 3.46487 0
M  V30 4531 H 432.211 3.94644 3.4548 0
M  V30 4532 H 433.685 2.82252 4.74382 0
M  V30 4533 H 434.162 1.20838 4.2225 0
M  V30 4534 H 434.768 2.63013 3.34222 0
M  V30 4535 N 433.083 -1.0153 1.20538 0
M  V30 4536 C 434.013 -2.11972 0.979295 0
M  V30 4537 C 434.994 -1.6985 -0.0921787 0
M  V30 4538 O 436.179 -1.94089 0.0655932 0
M  V30 4539 C 433.309 -3.43201 0.531984 0
M  V30 4540 C 432.263 -3.9907 1.54685 0
M  V30 4541 C 431.589 -5.26082 0.956127 0
M  V30 4542 C 432.889 -4.32313 2.93092 0
M  V30 4543 H 434.583 -2.31143 1.90298 0
M  V30 4544 H 432.129 -1.11079 0.916372 0
M  V30 4545 H 434.082 -4.1985 0.361044 0
M  V30 4546 H 432.806 -3.23792 -0.427327 0
M  V30 4547 H 431.465 -3.2453 1.70517 0
M  V30 4548 H 431.113 -5.02999 -0.0111538 0
M  V30 4549 H 430.813 -5.64426 1.63393 0
M  V30 4550 H 432.337 -6.05386 0.796284 0
M  V30 4551 H 433.751 -4.99845 2.80763 0
M  V30 4552 H 432.148 -4.81774 3.57791 0
M  V30 4553 H 433.218 -3.41025 3.44717 0
M  V30 4554 N 434.561 -1.01147 -1.20859 0
M  V30 4555 C 435.471 -0.58686 -2.27141 0
M  V30 4556 C 436.487 0.373198 -1.69951 0
M  V30 4557 O 437.663 0.235423 -2.00019 0
M  V30 4558 C 434.728 0.0733602 -3.46622 0
M  V30 4559 C 433.789 -0.931995 -4.19061 0
M  V30 4560 C 433.022 -0.303186 -5.32838 0
M  V30 4561 O 433.245 0.898395 -5.63281 0
M  V30 4562 O 432.179 -1.01735 -5.9324 0
M  V30 4563 H 436.005 -1.47155 -2.65667 0
M  V30 4564 H 433.59 -0.780689 -1.2738 0
M  V30 4565 H 435.472 0.442333 -4.19072 0
M  V30 4566 H 434.147 0.932329 -3.09983 0
M  V30 4567 H 433.054 -1.35224 -3.48805 0
M  V30 4568 H 434.387 -1.76076 -4.59628 0
M  V30 4569 N 436.039 1.36541 -0.78704 0
M  V30 4570 C 437.45 1.81873 -0.421807 0
M  V30 4571 C 437.801 1.65487 1.05397 0
M  V30 4572 O 436.926 1.17448 1.81755 0
M  V30 4573 C 437.521 3.30192 -0.758841 0
M  V30 4574 C 436.08 3.73743 -0.446468 0
M  V30 4575 C 435.227 2.58844 -0.994728 0
M  V30 4576 H 438.178 1.24796 -0.98039 0
M  V30 4577 H 438.199 3.80468 -0.0490648 0
M  V30 4578 H 437.711 3.42087 -1.83299 0
M  V30 4579 H 435.812 3.6741 0.619739 0
M  V30 4580 H 435.925 4.69272 -0.965415 0
M  V30 4581 H 434.289 2.51245 -0.418087 0
M  V30 4582 H 435.072 2.73525 -2.07458 0
M  V30 4583 N 437.518 0.538854 1.48102 0
M  V30 4584 C 438.468 -0.23907 2.26743 0
M  V30 4585 C 439.452 -0.901923 1.33245 0
M  V30 4586 O 440.644 -0.803263 1.57723 0
M  V30 4587 C 437.773 -1.2799 3.18549 0
M  V30 4588 C 436.859 -0.621388 4.19523 0
M  V30 4589 N 437.25 0.298004 5.04921 0
M  V30 4590 C 435.548 -0.877533 4.37282 0
M  V30 4591 C 436.249 0.678757 5.77726 0
M  V30 4592 N 435.225 0.0377881 5.43587 0
M  V30 4593 H 439.027 0.468096 2.90148 0
M  V30 4594 H 436.541 0.357497 1.58416 0
M  V30 4595 H 438.538 -1.851 3.73555 0
M  V30 4596 H 437.198 -1.98835 2.567 0
M  V30 4597 H 438.209 0.671126 5.13533 0
M  V30 4598 H 434.886 -1.57588 3.86616 0
M  V30 4599 H 436.276 1.43316 6.56437 0
M  V30 4600 N 438.996 -1.55193 0.274407 0
M  V30 4601 C 439.926 -2.25471 -0.607032 0
M  V30 4602 C 440.907 -1.24461 -1.15946 0
M  V30 4603 O 442.092 -1.53179 -1.19373 0
M  V30 4604 C 439.222 -2.97526 -1.79153 0
M  V30 4605 C 438.176 -4.05459 -1.37067 0
M  V30 4606 C 437.502 -4.65084 -2.6382 0
M  V30 4607 C 438.802 -5.19691 -0.521389 0
M  V30 4608 H 440.496 -2.99393 -0.0209343 0
M  V30 4609 H 438.042 -1.43997 -0.00862866 0
M  V30 4610 H 439.995 -3.45402 -2.41404 0
M  V30 4611 H 438.719 -2.21138 -2.40344 0
M  V30 4612 H 437.378 -3.58393 -0.771355 0
M  V30 4613 H 437.026 -3.85365 -3.23268 0
M  V30 4614 H 436.726 -5.37961 -2.36372 0
M  V30 4615 H 438.25 -5.15708 -3.26921 0
M  V30 4616 H 439.664 -5.63623 -1.04889 0
M  V30 4617 H 438.061 -5.99126 -0.341825 0
M  V30 4618 H 439.131 -4.82713 0.46 0
M  V30 4619 N 440.474 -0.00167713 -1.576 0
M  V30 4620 C 441.437 0.974046 -2.07473 0
M  V30 4621 C 442.437 1.27143 -0.984444 0
M  V30 4622 O 443.627 1.21633 -1.24703 0
M  V30 4623 C 440.759 2.29849 -2.51759 0
M  V30 4624 H 441.952 0.54262 -2.9495 0
M  V30 4625 H 439.505 0.245829 -1.54355 0
M  V30 4626 H 440.24 2.77677 -1.67529 0
M  V30 4627 H 440.025 2.09584 -3.31386 0
M  V30 4628 H 441.515 2.9984 -2.90664 0
M  V30 4629 N 441.952 1.55251 0.271103 0
M  V30 4630 C 442.882 1.9127 1.33933 0
M  V30 4631 C 443.863 0.77478 1.5143 0
M  V30 4632 O 445.048 1.03307 1.64442 0
M  V30 4633 C 442.178 2.18627 2.69851 0
M  V30 4634 C 441.132 3.34442 2.67081 0
M  V30 4635 C 440.458 3.47284 4.06569 0
M  V30 4636 C 441.758 4.70784 2.26185 0
M  V30 4637 H 443.452 2.80744 1.04035 0
M  V30 4638 H 440.998 1.35077 0.499017 0
M  V30 4639 H 442.951 2.42413 3.44694 0
M  V30 4640 H 441.675 1.25955 3.01335 0
M  V30 4641 H 440.334 3.10627 1.94695 0
M  V30 4642 H 439.982 2.52074 4.35279 0
M  V30 4643 H 439.682 4.25152 4.0561 0
M  V30 4644 H 441.206 3.73363 4.83148 0
M  V30 4645 H 442.62 4.94102 2.90751 0
M  V30 4646 H 441.017 5.51582 2.36384 0
M  V30 4647 H 442.087 4.69478 1.21319 0
M  V30 4648 N 443.43 -0.535701 1.48216 0
M  V30 4649 C 444.846 -0.863701 1.3421 0
M  V30 4650 C 445.046 -1.98458 0.34879 0
M  V30 4651 O 444.102 -2.51432 -0.23204 0
M  V30 4652 C 445.415 -1.23662 2.74095 0
M  V30 4653 C 446.963 -1.34683 2.82541 0
M  V30 4654 C 447.438 -1.75322 4.23115 0
M  V30 4655 N 448.929 -1.82434 4.2576 0
M  V30 4656 C 449.664 -2.15252 5.31464 0
M  V30 4657 N 449.16 -2.46533 6.47452 0
M  V30 4658 N 450.953 -2.16209 5.18855 0
M  V30 4659 H 443.104 0.203965 2.11418 0
M  V30 4660 H 445.367 0.0286033 0.947568 0
M  V30 4661 H 445.073 -0.486674 3.48316 0
M  V30 4662 H 444.947 -2.18805 3.07253 0
M  V30 4663 H 447.334 -2.08756 2.08579 0
M  V30 4664 H 447.415 -0.376756 2.5301 0
M  V30 4665 H 447.059 -1.01812 4.97591 0
M  V30 4666 H 446.989 -2.7337 4.50085 0
M  V30 4667 H 449.48 -1.6056 3.42095 0
M  V30 4668 H 449.793 -2.70662 7.23852 0
M  V30 4669 H 448.138 -2.44065 6.50736 0
M  V30 4670 H 451.329 -1.91224 4.2726 0
M  V30 4671 H 451.502 -2.41453 6.01335 0
M  V30 4672 N 444.908 -1.36708 -0.784132 0
M  V30 4673 C 445.838 -1.34153 -1.91116 0
M  V30 4674 C 446.819 -0.212121 -1.68772 0
M  V30 4675 O 448.004 -0.410581 -1.8981 0
M  V30 4676 C 445.134 -1.13535 -3.28218 0
M  V30 4677 C 444.088 -2.23356 -3.65097 0
M  V30 4678 C 443.414 -1.87875 -5.00607 0
M  V30 4679 C 444.714 -3.65473 -3.73131 0
M  V30 4680 H 446.408 -2.28459 -1.93512 0
M  V30 4681 H 443.954 -1.09973 -0.929618 0
M  V30 4682 H 445.907 -1.10381 -4.06687 0
M  V30 4683 H 444.631 -0.156804 -3.26223 0
M  V30 4684 H 443.29 -2.25645 -2.88929 0
M  V30 4685 H 442.938 -0.885814 -4.95139 0
M  V30 4686 H 442.638 -2.61406 -5.26252 0
M  V30 4687 H 444.162 -1.86286 -5.81489 0
M  V30 4688 H 445.576 -3.65382 -4.41779 0
M  V30 4689 H 443.973 -4.37953 -4.10265 0
M  V30 4690 H 445.043 -3.99995 -2.74102 0
M  V30 4691 N 446.386 1.0089 -1.21074 0
M  V30 4692 C 447.349 2.0775 -0.968129 0
M  V30 4693 C 448.349 1.6069 0.0593445 0
M  V30 4694 O 449.539 1.73293 -0.177525 0
M  V30 4695 C 446.671 3.37794 -0.459108 0
M  V30 4696 H 447.864 2.30707 -1.9161 0
M  V30 4697 H 445.417 1.17807 -1.02719 0
M  V30 4698 H 446.152 3.20516 0.49397 0
M  V30 4699 H 445.937 3.7328 -1.20019 0
M  V30 4700 H 447.427 4.16454 -0.309099 0
M  V30 4701 N 447.864 1.01787 1.20321 0
M  V30 4702 C 449.11 0.708985 1.90003 0
M  V30 4703 C 449.443 -0.759572 1.78729 0
M  V30 4704 O 448.718 -1.55198 1.17234 0
M  V30 4705 C 449.001 1.1469 3.41348 0
M  V30 4706 C 448.854 2.67586 3.61549 0
M  V30 4707 C 450.173 0.71915 4.34185 0
M  V30 4708 H 447.292 0.259034 0.689978 0
M  V30 4709 H 449.934 1.26584 1.41692 0
M  V30 4710 H 448.084 0.673128 3.82624 0
M  V30 4711 H 449.756 3.22826 3.29517 0
M  V30 4712 H 447.999 3.085 3.04976 0
M  V30 4713 H 448.67 2.93281 4.67643 0
M  V30 4714 H 451.146 1.12647 4.00562 0
M  V30 4715 H 450.022 1.05358 5.38694 0
M  V30 4716 H 450.283 -0.379111 4.40472 0
M  V30 4717 N 449.342 -1.36122 0.79427 0
M  V30 4718 C 450.567 -2.03891 0.379871 0
M  V30 4719 C 450.992 -1.59488 -0.997251 0
M  V30 4720 O 450.35 -0.765652 -1.64339 0
M  V30 4721 C 450.398 -3.57687 0.457442 0
M  V30 4722 O 449.502 -4.08931 -0.5338 0
M  V30 4723 H 448.843 -0.6443 0.160541 0
M  V30 4724 H 451.373 -1.73976 1.07673 0
M  V30 4725 H 451.383 -4.06721 0.322792 0
M  V30 4726 H 450.058 -3.89357 1.46199 0
M  V30 4727 H 448.635 -3.71154 -0.360409 0
M  V30 4728 N 450.82 -0.546701 -1.47814 0
M  V30 4729 C 451.783 0.196287 -2.28358 0
M  V30 4730 C 452.783 0.852437 -1.36346 0
M  V30 4731 O 453.973 0.709913 -1.59078 0
M  V30 4732 C 451.105 1.28579 -3.15722 0
M  V30 4733 H 452.298 -0.511086 -2.95513 0
M  V30 4734 H 449.851 -0.303248 -1.5333 0
M  V30 4735 H 450.586 2.0259 -2.53235 0
M  V30 4736 H 450.371 0.820229 -3.83425 0
M  V30 4737 H 451.861 1.80793 -3.76435 0
M  V30 4738 N 452.299 1.55045 -0.282633 0
M  V30 4739 C 453.262 2.21515 0.588539 0
M  V30 4740 C 454.262 1.19535 1.07554 0
M  V30 4741 O 455.452 1.44391 0.974514 0
M  V30 4742 C 452.584 2.88704 1.8128 0
M  V30 4743 H 453.777 2.99899 0.00806397 0
M  V30 4744 H 451.33 1.56265 -0.0333067 0
M  V30 4745 H 452.065 2.14352 2.43359 0
M  V30 4746 H 451.85 3.63443 1.47144 0
M  V30 4747 H 453.34 3.39465 2.43214 0
M  V30 4748 N 453.777 0.010035 1.57597 0
M  V30 4749 C 455.017 -0.677084 1.9286 0
M  V30 4750 C 455.381 -1.70377 0.885192 0
M  V30 4751 O 456.582 -2.44199 1.12339 0
M  V30 4752 C 454.853 -1.29452 3.33132 0
M  V30 4753 S 456.412 -2.00537 3.90295 0
M  V30 4754 H 453.23 -0.223409 0.674989 0
M  V30 4755 H 455.832 0.0691289 1.95378 0
M  V30 4756 H 454.536 -0.534593 4.06903 0
M  V30 4757 H 454.067 -2.07845 3.34012 0
M  V30 4758 H 456.082 -3.28168 3.72183 0
M  V30 4759 N 455.255 -1.55392 -0.262866 0
M  V30 4760 C 456.503 -1.76127 -0.991147 0
M  V30 4761 C 456.824 -0.571083 -1.8645 0
M  V30 4762 O 456.094 0.413698 -1.91482 0
M  V30 4763 H 454.674 -0.649528 -0.368948 0
M  V30 4764 H 457.336 -1.9281 -0.284655 0
M  V30 4765 H 456.432 -2.6663 -1.62219 0
M  V30 4766 N 456.733 0.527833 -1.48498 0
M  V30 4767 C 457.663 1.64136 -1.66077 0
M  V30 4768 C 458.644 1.62286 -0.509625 0
M  V30 4769 O 459.829 1.79449 -0.742413 0
M  V30 4770 C 456.959 3.02717 -1.70234 0
M  V30 4771 C 455.913 3.19426 -2.8487 0
M  V30 4772 C 455.239 4.5909 -2.74118 0
M  V30 4773 C 456.539 3.01993 -4.26142 0
M  V30 4774 H 458.233 1.4968 -2.593 0
M  V30 4775 H 455.779 0.718654 -1.24785 0
M  V30 4776 H 457.732 3.80491 -1.8112 0
M  V30 4777 H 456.456 3.18201 -0.735911 0
M  V30 4778 H 455.115 2.4407 -2.73542 0
M  V30 4779 H 454.763 4.71413 -1.7544 0
M  V30 4780 H 454.463 4.71214 -3.51042 0
M  V30 4781 H 455.987 5.3896 -2.86974 0
M  V30 4782 H 457.401 3.69558 -4.38292 0
M  V30 4783 H 455.798 3.2561 -5.04082 0
M  V30 4784 H 456.868 1.98396 -4.42456 0
M  V30 4785 N 458.211 1.37122 0.776871 0
M  V30 4786 C 459.174 1.32301 1.8716 0
M  V30 4787 C 460.174 0.228099 1.59174 0
M  V30 4788 O 461.364 0.483642 1.67352 0
M  V30 4789 C 458.496 1.054 3.24197 0
M  V30 4790 H 459.689 2.29673 1.92848 0
M  V30 4791 H 457.242 1.22077 0.97606 0
M  V30 4792 H 457.977 0.0853872 3.24188 0
M  V30 4793 H 457.762 1.84648 3.45901 0
M  V30 4794 H 459.252 1.04664 4.04271 0
M  V30 4795 N 459.689 -1.00246 1.21608 0
M  V30 4796 C 460.639 -2.07492 0.945051 0
M  V30 4797 C 461.623 -1.60585 -0.100675 0
M  V30 4798 O 462.815 -1.76667 0.10859 0
M  V30 4799 C 459.944 -3.39425 0.514342 0
M  V30 4800 C 459.03 -3.92993 1.59428 0
M  V30 4801 N 459.421 -4.19898 2.81991 0
M  V30 4802 C 457.719 -4.21297 1.46374 0
M  V30 4803 C 458.42 -4.63297 3.51754 0
M  V30 4804 N 457.396 -4.66421 2.79199 0
M  V30 4805 H 461.198 -2.26222 1.87619 0
M  V30 4806 H 458.712 -1.18339 1.11219 0
M  V30 4807 H 460.709 -4.15808 0.301527 0
M  V30 4808 H 459.369 -3.22101 -0.410008 0
M  V30 4809 H 460.38 -4.08377 3.1851 0
M  V30 4810 H 457.057 -4.13095 0.604863 0
M  V30 4811 H 458.447 -4.92816 4.56708 0
M  V30 4812 N 461.167 -1.02423 -1.1978 0
M  V30 4813 C 462.097 -0.62157 -2.25075 0
M  V30 4814 C 463.078 0.367148 -1.6609 0
M  V30 4815 O 464.263 0.250892 -1.92573 0
M  V30 4816 C 461.393 0.0331826 -3.47284 0
M  V30 4817 C 460.347 -0.877323 -4.18912 0
M  V30 4818 C 459.673 -0.0879296 -5.34628 0
M  V30 4819 C 460.973 -2.18892 -4.74219 0
M  V30 4820 H 462.667 -1.50179 -2.59011 0
M  V30 4821 H 460.213 -0.723547 -1.24502 0
M  V30 4822 H 462.166 0.326488 -4.20133 0
M  V30 4823 H 460.89 0.948164 -3.12534 0
M  V30 4824 H 459.549 -1.15475 -3.47938 0
M  V30 4825 H 459.197 0.828941 -4.96123 0
M  V30 4826 H 458.897 -0.694359 -5.83483 0
M  V30 4827 H 460.421 0.198743 -6.10276 0
M  V30 4828 H 461.835 -1.95746 -5.38847 0
M  V30 4829 H 460.232 -2.74686 -5.33542 0
M  V30 4830 H 461.302 -2.84674 -3.92541 0
M  V30 4831 N 462.645 1.35699 -0.801477 0
M  V30 4832 C 463.595 2.2728 -0.181073 0
M  V30 4833 C 464.579 1.47533 0.642098 0
M  V30 4834 O 465.771 1.69785 0.500193 0
M  V30 4835 C 462.9 3.36626 0.673612 0
M  V30 4836 C 461.986 4.23802 -0.159008 0
M  V30 4837 N 462.377 4.90879 -1.2195 0
M  V30 4838 C 460.675 4.45959 0.0602005 0
M  V30 4839 C 461.376 5.5546 -1.72738 0
M  V30 4840 N 460.352 5.33663 -1.03465 0
M  V30 4841 H 464.154 2.76632 -0.992582 0
M  V30 4842 H 461.668 1.49166 -0.642127 0
M  V30 4843 H 463.665 4.01179 1.13408 0
M  V30 4844 H 462.325 2.88828 1.48353 0
M  V30 4845 H 463.336 4.92497 -1.60209 0
M  V30 4846 H 460.013 4.08969 0.839664 0
M  V30 4847 H 461.403 6.18991 -2.61342 0
M  V30 4848 N 464.123 0.554532 1.47522 0
M  V30 4849 C 465.369 0.0295227 2.02779 0
M  V30 4850 C 465.702 -1.31582 1.42828 0
M  V30 4851 O 464.977 -1.85561 0.582872 0
M  V30 4852 C 465.26 -0.0664057 3.60039 0
M  V30 4853 C 465.113 1.30585 4.30427 0
M  V30 4854 C 466.432 -0.781162 4.33112 0
M  V30 4855 H 463.551 0.0122027 0.736899 0
M  V30 4856 H 466.193 0.716305 1.7598 0
M  V30 4857 H 464.343 -0.651307 3.83002 0
M  V30 4858 H 466.015 1.93374 4.18813 0
M  V30 4859 H 464.258 1.88125 3.90886 0
M  V30 4860 H 464.929 1.19147 5.38988 0
M  V30 4861 H 467.405 -0.284565 4.15126 0
M  V30 4862 H 466.281 -0.817237 5.42782 0
M  V30 4863 H 466.542 -1.83672 4.0214 0
M  V30 4864 N 465.601 -1.54893 0.290851 0
M  V30 4865 C 466.511 -2.26812 -0.59945 0
M  V30 4866 C 467.527 -1.29963 -1.15696 0
M  V30 4867 O 468.703 -1.62928 -1.18391 0
M  V30 4868 C 465.768 -2.98716 -1.75982 0
M  V30 4869 C 464.829 -4.1108 -1.2374 0
M  V30 4870 C 464.062 -4.79546 -2.34246 0
M  V30 4871 O 464.285 -4.47309 -3.53936 0
M  V30 4872 O 463.219 -5.67165 -2.01512 0
M  V30 4873 H 467.045 -3.03696 -0.0163561 0
M  V30 4874 H 464.63 -1.49289 0.0576755 0
M  V30 4875 H 466.512 -3.43851 -2.43607 0
M  V30 4876 H 465.187 -2.24737 -2.3297 0
M  V30 4877 H 464.094 -3.70367 -0.527163 0
M  V30 4878 H 465.427 -4.87007 -0.71307 0
M  V30 4879 N 467.08 -0.0183926 -1.57589 0
M  V30 4880 C 468.329 0.66185 -1.90532 0
M  V30 4881 C 468.642 1.73904 -0.895366 0
M  V30 4882 O 469.848 2.47518 -1.11566 0
M  V30 4883 C 468.304 1.22844 -3.38286 0
M  V30 4884 C 467.912 0.185103 -4.47617 0
M  V30 4885 C 469.656 1.88581 -3.80312 0
M  V30 4886 C 467.563 0.762723 -5.86461 0
M  V30 4887 H 466.493 0.250972 -0.711006 0
M  V30 4888 H 469.144 -0.0819435 -1.83317 0
M  V30 4889 H 467.526 2.0235 -3.40398 0
M  V30 4890 H 468.7 -0.58671 -4.5705 0
M  V30 4891 H 467.015 -0.372889 -4.14727 0
M  V30 4892 H 469.612 2.32735 -4.81392 0
M  V30 4893 H 469.955 2.72408 -3.14801 0
M  V30 4894 H 470.488 1.15782 -3.80578 0
M  V30 4895 H 467.227 -0.0371713 -6.55489 0
M  V30 4896 H 466.747 1.50327 -5.80656 0
M  V30 4897 H 468.426 1.25576 -6.34697 0
M  V30 4898 N 468.558 1.5553 0.254621 0
M  V30 4899 C 469.805 1.77 0.983736 0
M  V30 4900 C 470.133 0.58133 1.85609 0
M  V30 4901 O 469.388 -0.435621 1.9079 0
M  V30 4902 C 469.687 3.03891 1.88109 0
M  V30 4903 C 469.353 4.35597 1.16472 0
M  V30 4904 C 468.015 4.7139 0.966714 0
M  V30 4905 C 470.367 5.1705 0.656387 0
M  V30 4906 C 467.695 5.86176 0.247942 0
M  V30 4907 C 470.047 6.32581 -0.0488807 0
M  V30 4908 C 468.711 6.67 -0.258438 0
M  V30 4909 H 467.981 0.647688 0.359974 0
M  V30 4910 H 470.628 1.89802 0.254463 0
M  V30 4911 H 468.933 2.86068 2.67717 0
M  V30 4912 H 470.63 3.17701 2.44677 0
M  V30 4913 H 467.22 4.07475 1.32899 0
M  V30 4914 H 471.404 4.8986 0.796933 0
M  V30 4915 H 466.66 6.11354 0.075035 0
M  V30 4916 H 470.834 6.94942 -0.450444 0
M  V30 4917 H 468.461 7.55793 -0.817358 0
M  V30 4918 N 470.036 -0.519951 1.48776 0
M  V30 4919 C 471.284 -1.2727 1.56993 0
M  V30 4920 C 471.605 -1.9339 0.25004 0
M  V30 4921 O 470.875 -1.81822 -0.729216 0
M  V30 4922 H 469.455 -0.472732 0.578389 0
M  V30 4923 H 472.117 -0.604234 1.85297 0
M  V30 4924 H 471.213 -2.04669 2.3562 0
M  V30 4925 N 471.514 -1.37532 -0.769588 0
M  V30 4926 C 472.742 -1.36059 -1.55871 0
M  V30 4927 C 473.157 0.053544 -1.88724 0
M  V30 4928 O 472.514 1.01591 -1.5161 0
M  V30 4929 C 472.565 -2.20107 -2.86767 0
M  V30 4930 O 472.286 -3.56009 -2.55321 0
M  V30 4931 C 473.787 -2.26636 -3.80987 0
M  V30 4932 H 471.007 -0.465967 -0.482821 0
M  V30 4933 H 473.551 -1.80901 -0.953686 0
M  V30 4934 H 471.706 -1.78768 -3.43687 0
M  V30 4935 H 472.12 -4.0009 -3.39158 0
M  V30 4936 H 473.594 -2.89763 -4.69831 0
M  V30 4937 H 474.071 -1.2754 -4.20274 0
M  V30 4938 H 474.677 -2.68296 -3.29996 0
M  V30 4939 N 472.992 0.995999 -1.22138 0
M  V30 4940 C 473.924 2.08745 -0.946485 0
M  V30 4941 C 474.937 1.62633 0.0737356 0
M  V30 4942 O 476.126 1.77782 -0.159886 0
M  V30 4943 C 473.226 3.36516 -0.401305 0
M  V30 4944 C 472.399 4.11672 -1.47801 0
M  V30 4945 C 471.458 5.17728 -0.940461 0
M  V30 4946 O 470.484 5.45482 -1.62596 0
M  V30 4947 N 471.686 5.80005 0.239723 0
M  V30 4948 H 474.451 2.32908 -1.88611 0
M  V30 4949 H 472.012 1.16152 -1.12785 0
M  V30 4950 H 474.004 4.04691 -0.0270837 0
M  V30 4951 H 472.574 3.0944 0.443354 0
M  V30 4952 H 471.794 3.38171 -2.02568 0
M  V30 4953 H 473.082 4.58657 -2.20253 0
M  V30 4954 H 472.48 5.5982 0.813518 0
M  V30 4955 H 471.037 6.4943 0.555361 0
M  V30 4956 N 474.47 1.03057 1.19235 0
M  V30 4957 C 475.718 0.726581 1.88587 0
M  V30 4958 C 476.039 -0.747227 1.80115 0
M  V30 4959 O 475.309 -1.53849 1.21274 0
M  V30 4960 H 473.889 0.265768 0.698124 0
M  V30 4961 H 476.551 1.30516 1.44746 0
M  V30 4962 H 475.647 1.0224 2.94879 0
M  V30 4963 N 475.948 -1.35272 0.808662 0
M  V30 4964 C 476.895 -2.29764 0.218482 0
M  V30 4965 C 477.865 -1.52911 -0.648652 0
M  V30 4966 O 479.05 -1.81341 -0.593297 0
M  V30 4967 C 476.19 -3.39388 -0.625282 0
M  V30 4968 C 475.303 -4.31202 0.262516 0
M  V30 4969 C 474.438 -5.27919 -0.589451 0
M  V30 4970 C 473.477 -6.11371 0.298617 0
M  V30 4971 N 472.614 -7.0022 -0.513443 0
M  V30 4972 H 477.454 -2.79645 1.02968 0
M  V30 4973 H 474.991 -1.37629 0.519303 0
M  V30 4974 H 476.949 -4.01615 -1.12966 0
M  V30 4975 H 475.579 -2.90777 -1.40173 0
M  V30 4976 H 474.631 -3.69962 0.885013 0
M  V30 4977 H 475.943 -4.89748 0.945971 0
M  V30 4978 H 475.097 -5.95529 -1.15888 0
M  V30 4979 H 473.836 -4.69875 -1.30647 0
M  V30 4980 H 472.841 -5.42707 0.880301 0
M  V30 4981 H 474.066 -6.71494 1.01352 0
M  V30 4982 H 472.012 -6.44662 -1.21439 0
M  V30 4983 H 471.929 -7.55917 0.111922 0
M  V30 4984 H 473.197 -7.72175 -1.06608 0
M  V30 4985 N 477.426 -0.562348 -1.47226 0
M  V30 4986 C 478.837 -0.130325 -1.86245 0
M  V30 4987 C 479.188 1.30128 -1.46838 0
M  V30 4988 O 478.313 1.97974 -0.873805 0
M  V30 4989 C 478.908 -0.229738 -3.3802 0
M  V30 4990 C 477.467 0.14728 -3.76112 0
M  V30 4991 C 476.614 -0.574971 -2.71274 0
M  V30 4992 H 479.565 -0.771773 -1.3867 0
M  V30 4993 H 479.586 0.550316 -3.76499 0
M  V30 4994 H 479.098 -1.27178 -3.66671 0
M  V30 4995 H 477.199 1.19023 -3.53078 0
M  V30 4996 H 477.312 -0.214858 -4.78618 0
M  V30 4997 H 475.676 -0.0174756 -2.54694 0
M  V30 4998 H 476.459 -1.61827 -3.02766 0
M  V30 4999 N 478.904 1.54736 -0.299062 0
M  V30 5000 C 479.867 2.22127 0.565012 0
M  V30 5001 C 480.867 1.20669 1.06281 0
M  V30 5002 O 482.057 1.45417 0.959145 0
M  V30 5003 C 479.189 2.90611 1.78208 0
M  V30 5004 H 480.382 2.99891 -0.0237448 0
M  V30 5005 H 477.935 1.5622 -0.0498788 0
M  V30 5006 H 478.67 2.16921 2.41072 0
M  V30 5007 H 478.455 3.64984 1.43281 0
M  V30 5008 H 479.945 3.42026 2.396 0
M  V30 5009 N 480.382 0.0267497 1.57577 0
M  V30 5010 C 481.631 -0.651736 1.9088 0
M  V30 5011 C 481.944 -1.73427 0.904576 0
M  V30 5012 O 483.15 -2.46923 1.12877 0
M  V30 5013 C 481.606 -1.21048 3.38933 0
M  V30 5014 C 481.214 -0.161362 4.47709 0
M  V30 5015 C 482.958 -1.86562 3.81307 0
M  V30 5016 C 480.865 -0.731611 5.86857 0
M  V30 5017 H 479.795 -0.247198 0.712326 0
M  V30 5018 H 482.446 0.0916641 1.83271 0
M  V30 5019 H 480.828 -2.00542 3.41466 0
M  V30 5020 H 482.002 0.61094 4.56732 0
M  V30 5021 H 480.317 0.394877 4.14523 0
M  V30 5022 H 482.914 -2.30178 4.8262 0
M  V30 5023 H 483.257 -2.70735 3.16241 0
M  V30 5024 H 483.79 -1.13762 3.81186 0
M  V30 5025 H 480.529 0.0719329 6.55461 0
M  V30 5026 H 480.049 -1.47245 5.81445 0
M  V30 5027 H 481.728 -1.22208 6.35354 0
M  V30 5028 N 481.861 -1.55662 -0.24637 0
M  V30 5029 C 482.824 -1.89558 -1.28842 0
M  V30 5030 C 483.824 -0.772082 -1.41052 0
M  V30 5031 O 485.014 -1.04007 -1.39743 0
M  V30 5032 C 482.146 -2.12449 -2.66605 0
M  V30 5033 H 483.339 -2.82735 -1.00004 0
M  V30 5034 H 480.892 -1.48562 -0.485684 0
M  V30 5035 H 481.627 -1.21742 -3.00582 0
M  V30 5036 H 481.412 -2.94273 -2.59125 0
M  V30 5037 H 482.902 -2.39854 -3.41847 0
M  V30 5038 N 483.339 0.512053 -1.4905 0
M  V30 5039 C 484.289 1.61142 -1.61298 0
M  V30 5040 C 485.273 1.53908 -0.46916 0
M  V30 5041 O 486.465 1.61625 -0.721547 0
M  V30 5042 C 483.594 2.998 -1.67256 0
M  V30 5043 C 482.68 3.12072 -2.87179 0
M  V30 5044 N 483.071 2.94263 -4.11391 0
M  V30 5045 C 481.369 3.43156 -2.84886 0
M  V30 5046 C 482.07 3.10426 -4.91946 0
M  V30 5047 N 481.046 3.38808 -4.251 0
M  V30 5048 H 484.848 1.46011 -2.55065 0
M  V30 5049 H 482.362 0.717934 -1.45669 0
M  V30 5050 H 484.359 3.78794 -1.74128 0
M  V30 5051 H 483.019 3.1601 -0.746195 0
M  V30 5052 H 484.03 2.70661 -4.41546 0
M  V30 5053 H 480.707 3.65611 -2.01581 0
M  V30 5054 H 482.097 3.01243 -6.00585 0
M  V30 5055 N 484.817 1.37938 0.762283 0
M  V30 5056 C 486.233 1.18945 1.06415 0
M  V30 5057 C 486.433 0.0321163 2.01474 0
M  V30 5058 O 485.489 -0.624844 2.44647 0
M  V30 5059 C 486.802 2.51218 1.65258 0
M  V30 5060 C 488.35 2.57824 1.7747 0
M  V30 5061 C 488.825 3.90251 2.39725 0
M  V30 5062 N 490.316 3.91744 2.47166 0
M  V30 5063 C 491.051 4.90966 2.96209 0
M  V30 5064 N 490.547 6.00585 3.45354 0
M  V30 5065 N 492.34 4.78363 2.9517 0
M  V30 5066 H 484.491 2.11994 0.131301 0
M  V30 5067 H 486.754 0.940262 0.120879 0
M  V30 5068 H 486.46 3.36317 1.02878 0
M  V30 5069 H 486.334 2.68989 2.64433 0
M  V30 5070 H 488.721 1.73126 2.3898 0
M  V30 5071 H 488.802 2.43928 0.770241 0
M  V30 5072 H 488.446 4.75368 1.78852 0
M  V30 5073 H 488.376 4.01454 3.40796 0
M  V30 5074 H 490.867 3.12563 2.12397 0
M  V30 5075 H 491.18 6.72236 3.81207 0
M  V30 5076 H 489.525 6.04217 3.43434 0
M  V30 5077 H 492.716 3.91841 2.56082 0
M  V30 5078 H 492.889 5.55843 3.33081 0
M  V30 5079 N 486.295 -0.989507 1.22664 0
M  V30 5080 C 487.572 -1.70326 0.961688 0
M  V30 5081 C 487.952 -2.04537 -0.522279 0
M  V30 5082 O 487.3 -1.73136 -1.49118 0
M  V30 5083 C 487.51 -2.95135 1.86269 0
M  V30 5084 C 488.858 -3.67842 2.12078 0
M  V30 5085 O 489.882 -3.0515 1.83745 0
M  V30 5086 O 488.741 -4.80644 2.60083 0
M  V30 5087 H 485.835 -0.743589 0.361946 0
M  V30 5088 H 488.381 -1.04555 1.33665 0
M  V30 5089 H 487.153 -2.66382 2.8663 0
M  V30 5090 H 486.776 -3.68645 1.48952 0
M  V30 5091 N 487.773 -1.03688 -1.18687 0
M  V30 5092 C 489.02 -0.73803 -1.88572 0
M  V30 5093 C 489.348 0.733973 -1.8012 0
M  V30 5094 O 488.603 1.55098 -1.19344 0
M  V30 5095 C 488.902 -1.14477 -3.3857 0
M  V30 5096 C 488.568 -2.61641 -3.67226 0
M  V30 5097 C 487.23 -3.01846 -3.74757 0
M  V30 5098 C 489.582 -3.56812 -3.79914 0
M  V30 5099 C 486.91 -4.36118 -3.92451 0
M  V30 5100 C 489.262 -4.90799 -3.99123 0
M  V30 5101 C 487.926 -5.3068 -4.04888 0
M  V30 5102 H 487.196 -0.270064 -0.690034 0
M  V30 5103 H 489.843 -1.3012 -1.40503 0
M  V30 5104 H 488.148 -0.500337 -3.88592 0
M  V30 5105 H 489.845 -0.89095 -3.90977 0
M  V30 5106 H 486.435 -2.29498 -3.61979 0
M  V30 5107 H 490.619 -3.26899 -3.73431 0
M  V30 5108 H 485.875 -4.66542 -3.95157 0
M  V30 5109 H 490.049 -5.64451 -4.07882 0
M  V30 5110 H 487.676 -6.34733 -4.18351 0
M  V30 5111 N 489.251 1.34841 -0.815825 0
M  V30 5112 C 490.198 2.29644 -0.230664 0
M  V30 5113 C 491.168 1.53253 0.640533 0
M  V30 5114 O 492.353 1.81653 0.583672 0
M  V30 5115 C 489.493 3.39715 0.607275 0
M  V30 5116 C 488.606 4.31056 -0.28538 0
M  V30 5117 C 487.741 5.28225 0.561446 0
M  V30 5118 C 486.78 6.11204 -0.331035 0
M  V30 5119 N 485.917 7.00483 0.476302 0
M  V30 5120 H 490.757 2.79095 -1.0445 0
M  V30 5121 H 488.294 1.37351 -0.526595 0
M  V30 5122 H 490.252 4.02208 1.10835 0
M  V30 5123 H 488.882 2.91517 1.38629 0
M  V30 5124 H 487.934 3.69487 -0.904621 0
M  V30 5125 H 489.246 4.89239 -0.97193 0
M  V30 5126 H 488.4 5.96135 1.12728 0
M  V30 5127 H 487.139 4.70562 1.28153 0
M  V30 5128 H 486.144 5.42232 -0.909069 0
M  V30 5129 H 487.369 6.70947 -1.04912 0
M  V30 5130 H 485.315 6.45296 1.18019 0
M  V30 5131 H 485.232 7.55847 -0.152008 0
M  V30 5132 H 486.5 7.7273 1.02512 0
M  V30 5133 N 490.729 0.570148 1.46925 0
M  V30 5134 C 491.954 0.0542592 2.07329 0
M  V30 5135 C 492.379 -1.23582 1.41806 0
M  V30 5136 O 491.737 -1.74341 0.497479 0
M  V30 5137 C 491.785 -0.111175 3.60429 0
M  V30 5138 O 490.889 -1.17071 3.95434 0
M  V30 5139 H 490.23 0.0571425 0.661537 0
M  V30 5140 H 492.76 0.789516 1.88753 0
M  V30 5141 H 492.77 -0.321315 4.06733 0
M  V30 5142 H 491.445 0.831012 4.07513 0
M  V30 5143 H 490.022 -0.940029 3.60857 0
M  V30 5144 N 492.207 -1.54576 0.307264 0
M  V30 5145 C 493.623 -1.59534 -0.0459251 0
M  V30 5146 C 493.823 -1.32414 -1.51884 0
M  V30 5147 O 492.879 -1.1006 -2.27251 0
M  V30 5148 C 494.192 -2.98566 0.357649 0
M  V30 5149 C 495.74 -3.11491 0.306937 0
M  V30 5150 C 496.215 -4.52842 0.685427 0
M  V30 5151 N 497.706 -4.58782 0.638203 0
M  V30 5152 C 498.441 -5.66238 0.903458 0
M  V30 5153 N 497.937 -6.81703 1.23501 0
M  V30 5154 N 499.73 -5.55937 0.830102 0
M  V30 5155 H 491.881 -1.70464 1.26712 0
M  V30 5156 H 494.144 -0.79647 0.514139 0
M  V30 5157 H 493.85 -3.23356 1.38325 0
M  V30 5158 H 493.724 -3.76117 -0.285565 0
M  V30 5159 H 496.111 -2.86446 -0.709424 0
M  V30 5160 H 496.192 -2.36081 0.984861 0
M  V30 5161 H 495.836 -4.78618 1.69963 0
M  V30 5162 H 495.766 -5.26598 -0.0146346 0
M  V30 5163 H 498.257 -3.75849 0.393138 0
M  V30 5164 H 498.57 -7.59582 1.42322 0
M  V30 5165 H 496.915 -6.8324 1.27311 0
M  V30 5166 H 500.106 -4.64608 0.570693 0
M  V30 5167 H 500.279 -6.39597 1.04019 0
M  V30 5168 N 493.685 -0.035106 -1.57561 0
M  V30 5169 C 494.633 0.962707 -2.11742 0
M  V30 5170 C 495.627 1.33296 -1.0454 0
M  V30 5171 O 496.833 1.31449 -1.22968 0
M  V30 5172 H 493.208 0.32826 -0.676572 0
M  V30 5173 H 495.179 0.48048 -2.94506 0
M  V30 5174 C 493.928 2.23388 -2.66445 0
M  V30 5175 H 493.251 1.95774 -3.48587 0
M  V30 5176 H 494.691 2.91402 -3.07995 0
M  V30 5177 C 493.15 2.96769 -1.59467 0
M  V30 5178 O 493.68 3.89105 -0.998 0
M  V30 5179 N 491.886 2.59212 -1.31369 0
M  V30 5180 H 491.433 1.84202 -1.80076 0
M  V30 5181 H 491.391 3.08618 -0.600173 0
M  V30 5182 N 495.163 1.55791 0.238111 0
M  V30 5183 C 496.409 1.78297 0.966337 0
M  V30 5184 C 496.742 0.601903 1.84637 0
M  V30 5185 O 496.017 -0.399499 1.90353 0
M  V30 5186 C 496.3 3.10758 1.81939 0
M  V30 5187 C 496.153 4.39283 0.966958 0
M  V30 5188 C 497.472 3.39519 2.80027 0
M  V30 5189 H 494.591 0.648654 0.349882 0
M  V30 5190 H 497.233 1.88525 0.236253 0
M  V30 5191 H 495.383 3.02168 2.44185 0
M  V30 5192 H 497.055 4.59873 0.362514 0
M  V30 5193 H 495.298 4.32948 0.271669 0
M  V30 5194 H 495.969 5.28368 1.59784 0
M  V30 5195 H 498.445 3.48128 2.27917 0
M  V30 5196 H 497.321 4.33402 3.36829 0
M  V30 5197 H 497.582 2.60864 3.56934 0
M  V30 5198 N 496.642 -0.504142 1.49319 0
M  V30 5199 C 497.572 -1.61473 1.68667 0
M  V30 5200 C 498.553 -1.61455 0.535378 0
M  V30 5201 O 499.738 -1.78245 0.770868 0
M  V30 5202 C 496.868 -2.99971 1.75028 0
M  V30 5203 C 495.822 -3.14854 2.89916 0
M  V30 5204 C 495.148 -4.54671 2.81387 0
M  V30 5205 C 496.448 -2.95176 4.30893 0
M  V30 5206 H 498.142 -1.45535 2.61648 0
M  V30 5207 H 495.688 -0.698711 1.25913 0
M  V30 5208 H 497.641 -3.77562 1.8715 0
M  V30 5209 H 496.365 -3.1699 0.786441 0
M  V30 5210 H 495.024 -2.39687 2.77391 0
M  V30 5211 H 494.672 -4.68562 1.82917 0
M  V30 5212 H 494.372 -4.6557 3.58494 0
M  V30 5213 H 495.896 -5.34327 2.95512 0
M  V30 5214 H 497.31 -3.62538 4.44116 0
M  V30 5215 H 495.707 -3.17549 5.09198 0
M  V30 5216 H 496.777 -1.91332 4.45556 0
M  V30 5217 N 498.12 -1.38341 -0.754957 0
M  V30 5218 C 499.366 -1.34672 -1.51628 0
M  V30 5219 C 499.699 0.0636036 -1.94096 0
M  V30 5220 O 498.974 1.0245 -1.6533 0
M  V30 5221 C 499.257 -2.30116 -2.76981 0
M  V30 5222 C 499.11 -3.80003 -2.4066 0
M  V30 5223 C 500.429 -2.23715 -3.78998 0
M  V30 5224 H 497.548 -0.490517 -0.550056 0
M  V30 5225 H 500.19 -1.69178 -0.864807 0
M  V30 5226 H 498.34 -2.00821 -3.3257 0
M  V30 5227 H 500.012 -4.19966 -1.90856 0
M  V30 5228 H 498.255 -3.97751 -1.73137 0
M  V30 5229 H 498.926 -4.42244 -3.30339 0
M  V30 5230 H 501.402 -2.49574 -3.32945 0
M  V30 5231 H 500.278 -2.9261 -4.64403 0
M  V30 5232 H 500.539 -1.23554 -4.24484 0
M  V30 5233 N 499.598 0.982988 -1.23187 0
M  V30 5234 C 500.545 2.07491 -1.01075 0
M  V30 5235 C 501.515 1.65949 0.070905 0
M  V30 5236 O 502.7 1.90629 -0.0806822 0
M  V30 5237 C 499.84 3.39751 -0.605261 0
M  V30 5238 C 498.953 3.94578 -1.75876 0
M  V30 5239 C 498.088 5.15039 -1.3003 0
M  V30 5240 C 497.127 5.62027 -2.42472 0
M  V30 5241 N 496.264 6.73719 -1.97602 0
M  V30 5242 H 501.104 2.25739 -1.9454 0
M  V30 5243 H 498.641 1.10659 -0.969179 0
M  V30 5244 H 500.599 4.15719 -0.351279 0
M  V30 5245 H 499.229 3.21473 0.292382 0
M  V30 5246 H 498.281 3.1539 -2.12681 0
M  V30 5247 H 499.593 4.25422 -2.60418 0
M  V30 5248 H 498.747 5.9833 -1.00429 0
M  V30 5249 H 497.486 4.85843 -0.425216 0
M  V30 5250 H 496.491 4.77318 -2.7285 0
M  V30 5251 H 497.716 5.93244 -3.30512 0
M  V30 5252 H 495.662 6.46287 -1.1247 0
M  V30 5253 H 495.579 7.03934 -2.75705 0
M  V30 5254 H 496.847 7.6049 -1.71098 0
M  V30 5255 N 501.076 1.04316 1.18135 0
M  V30 5256 C 502.301 0.768047 1.92655 0
M  V30 5257 C 502.726 -0.66904 1.758 0
M  V30 5258 O 502.084 -1.46372 1.06981 0
M  V30 5259 C 502.132 1.14239 3.42026 0
M  V30 5260 O 501.236 0.269333 4.1152 0
M  V30 5261 H 500.577 0.282436 0.600937 0
M  V30 5262 H 503.107 1.39367 1.49793 0
M  V30 5263 H 503.117 1.10538 3.92741 0
M  V30 5264 H 501.792 2.18928 3.53615 0
M  V30 5265 H 500.369 0.366175 3.71098 0
M  V30 5266 N 502.554 -1.34406 0.822964 0
M  V30 5267 C 503.502 -2.31428 0.233165 0
M  V30 5268 C 504.496 -1.57404 -0.626118 0
M  V30 5269 O 505.702 -1.72402 -0.517453 0
M  V30 5270 H 502.077 -0.749863 0.0566557 0
M  V30 5271 H 504.048 -2.78699 1.06628 0
M  V30 5272 C 502.797 -3.42653 -0.590264 0
M  V30 5273 H 502.12 -3.99753 0.0616129 0
M  V30 5274 H 503.56 -4.12778 -0.969054 0
M  V30 5275 C 502.019 -2.87112 -1.76262 0
M  V30 5276 O 502.549 -2.81995 -2.8608 0
M  V30 5277 N 500.755 -2.43934 -1.57938 0
M  V30 5278 H 500.302 -2.48296 -0.686078 0
M  V30 5279 H 500.26 -2.07123 -2.36532 0
M  V30 5280 N 504.032 -0.577932 -1.46621 0
M  V30 5281 C 504.962 0.145917 -2.33044 0
M  V30 5282 C 505.943 0.888412 -1.45056 0
M  V30 5283 O 507.128 0.864812 -1.73881 0
M  V30 5284 C 504.258 1.16322 -3.27241 0
M  V30 5285 C 503.212 0.535868 -4.24632 0
M  V30 5286 C 502.538 1.65929 -5.08303 0
M  V30 5287 C 503.838 -0.523861 -5.19666 0
M  V30 5288 H 505.532 -0.575636 -2.93814 0
M  V30 5289 H 503.078 -0.278272 -1.41286 0
M  V30 5290 H 505.031 1.67793 -3.86553 0
M  V30 5291 H 503.755 1.91498 -2.64567 0
M  V30 5292 H 502.414 0.0422759 -3.66576 0
M  V30 5293 H 502.062 2.40061 -4.42018 0
M  V30 5294 H 501.762 1.2452 -5.74255 0
M  V30 5295 H 503.286 2.17686 -5.70478 0
M  V30 5296 H 504.7 -0.0944059 -5.73222 0
M  V30 5297 H 503.097 -0.858 -5.93935 0
M  V30 5298 H 504.167 -1.41197 -4.63887 0
M  V30 5299 N 505.51 1.54411 -0.315457 0
M  V30 5300 C 506.442 2.21527 0.588067 0
M  V30 5301 C 507.455 1.21263 1.08624 0
M  V30 5302 O 508.644 1.47777 1.00121 0
M  V30 5303 C 505.744 2.85963 1.81875 0
M  V30 5304 C 504.917 4.12291 1.46063 0
M  V30 5305 C 503.976 4.60396 2.54799 0
M  V30 5306 O 503.002 5.25265 2.19283 0
M  V30 5307 N 504.204 4.33935 3.85591 0
M  V30 5308 H 506.969 2.99697 0.013414 0
M  V30 5309 H 504.53 1.61308 -0.138295 0
M  V30 5310 H 506.522 3.15071 2.53993 0
M  V30 5311 H 505.092 2.11548 2.30144 0
M  V30 5312 H 504.312 3.90036 0.571445 0
M  V30 5313 H 505.6 4.9452 1.19695 0
M  V30 5314 H 504.998 3.81996 4.17248 0
M  V30 5315 H 503.555 4.67718 4.53964 0
M  V30 5316 N 506.988 0.0434614 1.5754 0
M  V30 5317 C 508.228 -0.636023 1.94253 0
M  V30 5318 C 508.592 -1.68461 0.921132 0
M  V30 5319 O 509.793 -2.41762 1.17494 0
M  V30 5320 C 508.064 -1.22357 3.35803 0
M  V30 5321 S 509.623 -1.92213 3.94461 0
M  V30 5322 H 506.441 -0.209041 0.679575 0
M  V30 5323 H 509.043 0.110556 1.95187 0
M  V30 5324 H 507.747 -0.448162 4.07946 0
M  V30 5325 H 507.278 -2.00713 3.38346 0
M  V30 5326 H 509.293 -3.20199 3.79061 0
M  V30 5327 N 508.466 -1.55915 -0.229846 0
M  V30 5328 C 509.706 -1.80314 -0.962614 0
M  V30 5329 C 510.07 -0.61568 -1.81861 0
M  V30 5330 O 511.271 -0.738795 -2.58448 0
M  V30 5331 C 509.542 -3.0956 -1.78627 0
M  V30 5332 S 511.101 -3.55243 -2.57581 0
M  V30 5333 H 507.919 -0.633142 -0.323499 0
M  V30 5334 H 510.521 -1.94155 -0.228919 0
M  V30 5335 H 509.225 -3.94033 -1.14742 0
M  V30 5336 H 508.756 -2.98503 -2.56241 0
M  V30 5337 H 510.771 -3.17924 -3.80971 0
M  V30 5338 N 509.944 0.496216 -1.49584 0
M  V30 5339 C 511.193 1.24668 -1.58558 0
M  V30 5340 C 511.506 1.9359 -0.279703 0
M  V30 5341 O 512.712 2.70365 -0.248048 0
M  V30 5342 C 511.168 2.26388 -2.79779 0
M  V30 5343 C 510.776 1.63384 -4.17145 0
M  V30 5344 C 512.52 3.02233 -2.98086 0
M  V30 5345 C 510.427 2.63243 -5.29582 0
M  V30 5346 H 509.357 0.468995 -0.590389 0
M  V30 5347 H 512.008 0.519985 -1.75978 0
M  V30 5348 H 510.39 3.02241 -2.55863 0
M  V30 5349 H 511.564 0.93491 -4.51216 0
M  V30 5350 H 509.879 0.999121 -4.04236 0
M  V30 5351 H 512.476 3.76919 -3.79257 0
M  V30 5352 H 512.819 3.60132 -2.08831 0
M  V30 5353 H 513.352 2.33495 -3.22063 0
M  V30 5354 H 510.091 2.10119 -6.20911 0
M  V30 5355 H 509.611 3.31363 -4.99959 0
M  V30 5356 H 511.29 3.25575 -5.59115 0
M  V30 5357 N 511.423 1.38739 0.74761 0
M  V30 5358 C 512.386 1.36241 1.84312 0
M  V30 5359 C 513.386 0.261811 1.58654 0
M  V30 5360 O 514.576 0.519031 1.66288 0
M  V30 5361 C 511.708 1.12253 3.21888 0
M  V30 5362 H 512.901 2.33712 1.87933 0
M  V30 5363 H 510.454 1.2412 0.949946 0
M  V30 5364 H 511.189 0.154133 3.23934 0
M  V30 5365 H 510.974 1.91943 3.41907 0
M  V30 5366 H 512.464 1.13215 4.0196 0
M  V30 5367 N 512.901 -0.976442 1.23707 0
M  V30 5368 C 514.178 -1.69296 0.979699 0
M  V30 5369 C 514.558 -2.0508 -0.500555 0
M  V30 5370 O 513.906 -1.74708 -1.47273 0
M  V30 5371 C 514.116 -2.93143 1.89389 0
M  V30 5372 C 515.464 -3.65572 2.15968 0
M  V30 5373 O 516.488 -3.03184 1.86971 0
M  V30 5374 O 515.347 -4.77859 2.65167 0
M  V30 5375 H 512.441 -0.739708 0.369812 0
M  V30 5376 H 514.987 -1.03131 1.34767 0
M  V30 5377 H 513.759 -2.63327 2.89439 0
M  V30 5378 H 513.382 -3.67044 1.52854 0
M  V30 5379 N 514.379 -1.04941 -1.1758 0
M  V30 5380 C 515.309 -0.669172 -2.23706 0
M  V30 5381 C 516.29 0.331835 -1.66832 0
M  V30 5382 O 517.475 0.209988 -1.93061 0
M  V30 5383 C 514.605 -0.0404889 -3.47276 0
M  V30 5384 C 513.559 -0.965983 -4.16957 0
M  V30 5385 C 512.885 -0.201312 -5.34321 0
M  V30 5386 C 514.185 -2.28902 -4.69469 0
M  V30 5387 H 515.879 -1.55639 -2.55767 0
M  V30 5388 H 513.425 -0.749793 -1.22939 0
M  V30 5389 H 515.378 0.237298 -4.20731 0
M  V30 5390 H 514.102 0.881658 -3.14475 0
M  V30 5391 H 512.761 -1.22829 -3.45411 0
M  V30 5392 H 512.409 0.723519 -4.97769 0
M  V30 5393 H 512.109 -0.817968 -5.81879 0
M  V30 5394 H 513.633 0.0692499 -6.10561 0
M  V30 5395 H 515.047 -2.07132 -5.34574 0
M  V30 5396 H 513.444 -2.85942 -5.27596 0
M  V30 5397 H 514.514 -2.92937 -3.86414 0
M  V30 5398 N 515.857 1.33968 -0.830081 0
M  V30 5399 C 517.105 1.97672 -0.420734 0
M  V30 5400 C 517.426 1.66111 1.02138 0
M  V30 5401 O 516.696 0.955503 1.71017 0
M  V30 5402 H 515.276 0.73125 -0.152587 0
M  V30 5403 H 517.938 1.63483 -1.0611 0
M  V30 5404 H 517.034 3.07294 -0.545588 0
M  V30 5405 N 517.335 0.585699 1.46312 0
M  V30 5406 C 518.265 -0.133556 2.33118 0
M  V30 5407 C 519.246 -0.880707 1.45525 0
M  V30 5408 O 520.431 -0.855579 1.74337 0
M  V30 5409 C 517.561 -1.14585 3.27853 0
M  V30 5410 C 516.515 -0.513341 4.2491 0
M  V30 5411 C 515.841 -1.63231 5.09175 0
M  V30 5412 C 517.141 0.551413 5.19381 0
M  V30 5413 H 518.835 0.59121 2.93505 0
M  V30 5414 H 516.381 0.285761 1.41136 0
M  V30 5415 H 518.334 -1.65741 3.87438 0
M  V30 5416 H 517.058 -1.90093 2.65579 0
M  V30 5417 H 515.717 -0.0228349 3.66593 0
M  V30 5418 H 515.365 -2.37713 4.43285 0
M  V30 5419 H 515.065 -1.21473 5.74907 0
M  V30 5420 H 516.589 -2.14658 5.71624 0
M  V30 5421 H 518.003 0.124804 5.73164 0
M  V30 5422 H 516.4 0.889486 5.93471 0
M  V30 5423 H 517.47 1.43655 4.63132 0
M  V30 5424 N 518.813 -1.54241 0.323641 0
M  V30 5425 C 519.776 -2.22997 -0.529602 0
M  V30 5426 C 520.776 -1.22345 -1.04347 0
M  V30 5427 O 521.966 -1.46924 -0.935889 0
M  V30 5428 C 519.098 -2.93409 -1.73562 0
M  V30 5429 H 520.291 -2.99815 0.0714518 0
M  V30 5430 H 517.844 -1.56121 0.0747258 0
M  V30 5431 H 518.579 -2.20729 -2.37591 0
M  V30 5432 H 518.364 -3.67217 -1.37456 0
M  V30 5433 H 519.854 -3.45794 -2.34128 0
M  V30 5434 N 520.291 -0.0518155 -1.57515 0
M  V30 5435 C 521.537 0.622745 -1.93002 0
M  V30 5436 C 521.87 1.70456 -0.930499 0
M  V30 5437 O 521.145 1.94452 0.0434086 0
M  V30 5438 C 521.428 1.21824 -3.38867 0
M  V30 5439 C 521.281 0.144434 -4.49568 0
M  V30 5440 C 522.6 2.12968 -3.8514 0
M  V30 5441 H 519.719 0.22491 -0.701844 0
M  V30 5442 H 522.361 -0.113711 -1.89659 0
M  V30 5443 H 520.511 1.8459 -3.41846 0
M  V30 5444 H 522.183 -0.48753 -4.58717 0
M  V30 5445 H 520.426 -0.527424 -4.30582 0
M  V30 5446 H 521.097 0.601127 -5.48717 0
M  V30 5447 H 523.573 1.60163 -3.8404 0
M  V30 5448 H 522.449 2.51578 -4.87852 0
M  V30 5449 H 522.71 3.03004 -3.21934 0
M  V30 5450 N 521.769 1.56035 0.221574 0
M  V30 5451 C 522.702 1.87427 1.30178 0
M  V30 5452 C 523.68 0.731658 1.45209 0
M  V30 5453 O 524.864 0.980016 1.61022 0
M  V30 5454 C 521.991 2.08127 2.67209 0
M  V30 5455 C 521.037 3.30813 2.69194 0
M  V30 5456 S 521.87 4.86738 2.23263 0
M  V30 5457 C 523.026 5.10474 3.62171 0
M  V30 5458 H 523.259 2.78756 1.03355 0
M  V30 5459 H 520.792 1.48469 0.423813 0
M  V30 5460 H 522.75 2.20736 3.46101 0
M  V30 5461 H 521.411 1.17595 2.91256 0
M  V30 5462 H 520.604 3.42341 3.6989 0
M  V30 5463 H 520.206 3.1706 1.98366 0
M  V30 5464 H 522.498 4.9937 4.5786 0
M  V30 5465 H 523.441 6.12359 3.55558 0
M  V30 5466 H 523.849 4.38208 3.55857 0
M  V30 5467 N 523.247 -0.488276 1.49845 0
M  V30 5468 C 524.197 -1.58556 1.63842 0
M  V30 5469 C 525.181 -1.53142 0.493586 0
M  V30 5470 O 526.373 -1.60457 0.747169 0
M  V30 5471 C 523.502 -2.97101 1.72005 0
M  V30 5472 C 522.588 -3.07463 2.92108 0
M  V30 5473 N 522.979 -2.87681 4.16021 0
M  V30 5474 C 521.277 -3.3858 2.90309 0
M  V30 5475 C 521.978 -3.0256 4.96822 0
M  V30 5476 N 520.954 -3.32002 4.30437 0
M  V30 5477 H 524.756 -1.41935 2.57355 0
M  V30 5478 H 522.27 -0.694668 1.46793 0
M  V30 5479 H 524.267 -3.75976 1.80132 0
M  V30 5480 H 522.927 -3.14782 0.796375 0
M  V30 5481 H 523.938 -2.63603 4.45796 0
M  V30 5482 H 520.615 -3.62357 2.07372 0
M  V30 5483 H 522.005 -2.9165 6.05301 0
M  V30 5484 N 524.725 -1.39134 -0.740242 0
M  V30 5485 C 525.95 -1.39518 -1.53459 0
M  V30 5486 C 526.375 0.00968883 -1.88098 0
M  V30 5487 O 525.733 0.995312 -1.51536 0
M  V30 5488 C 525.781 -2.26981 -2.802 0
M  V30 5489 O 524.885 -1.69609 -3.75908 0
M  V30 5490 H 524.226 -0.475328 -0.463637 0
M  V30 5491 H 526.756 -1.83064 -0.913717 0
M  V30 5492 H 526.766 -2.41309 -3.28989 0
M  V30 5493 H 525.441 -3.29081 -2.5432 0
M  V30 5494 H 524.018 -1.64495 -3.34658 0
M  V30 5495 N 526.204 0.969867 -1.24223 0
M  V30 5496 C 527.136 2.0669 -0.99055 0
M  V30 5497 C 528.149 1.62753 0.0392222 0
M  V30 5498 O 529.338 1.77403 -0.197561 0
M  V30 5499 C 526.438 3.35589 -0.472594 0
M  V30 5500 C 525.611 4.08444 -1.56499 0
M  V30 5501 C 524.67 5.15616 -1.05007 0
M  V30 5502 O 523.696 5.41911 -1.7413 0
M  V30 5503 N 524.898 5.80383 0.116641 0
M  V30 5504 H 527.663 2.28855 -1.93508 0
M  V30 5505 H 525.224 1.13733 -1.15223 0
M  V30 5506 H 527.216 4.04542 -0.112919 0
M  V30 5507 H 525.786 3.10311 0.377617 0
M  V30 5508 H 525.006 3.33798 -2.09696 0
M  V30 5509 H 526.294 4.53882 -2.29932 0
M  V30 5510 H 525.692 5.6142 0.694589 0
M  V30 5511 H 524.249 6.50462 0.417483 0
M  V30 5512 N 527.682 1.05563 1.17022 0
M  V30 5513 C 528.93 0.76642 1.87004 0
M  V30 5514 C 529.251 -0.708854 1.8166 0
M  V30 5515 O 528.521 -1.51242 1.2451 0
M  V30 5516 H 527.101 0.280516 0.692329 0
M  V30 5517 H 529.763 1.33557 1.41945 0
M  V30 5518 H 528.859 1.08472 2.92644 0
M  V30 5519 N 529.16 -1.33526 0.837174 0
M  V30 5520 C 530.385 -2.0258 0.444545 0
M  V30 5521 C 530.81 -1.6258 -0.946006 0
M  V30 5522 O 530.168 -0.817548 -1.6182 0
M  V30 5523 C 530.216 -3.5605 0.571006 0
M  V30 5524 O 529.32 -4.10422 -0.403431 0
M  V30 5525 H 528.661 -0.638866 0.180958 0
M  V30 5526 H 531.191 -1.70462 1.13154 0
M  V30 5527 H 531.201 -4.05488 0.452024 0
M  V30 5528 H 529.876 -3.84509 1.58512 0
M  V30 5529 H 528.453 -3.72113 -0.242147 0
M  V30 5530 N 530.638 -0.59345 -1.46 0
M  V30 5531 C 531.915 -0.0157933 -1.95594 0
M  V30 5532 C 532.295 1.44807 -1.53604 0
M  V30 5533 O 531.643 2.14342 -0.791824 0
M  V30 5534 C 531.853 -0.199081 -3.48432 0
M  V30 5535 C 533.201 -0.0724943 -4.24538 0
M  V30 5536 O 534.225 -0.128469 -3.55968 0
M  V30 5537 O 533.084 0.0542426 -5.46473 0
M  V30 5538 H 530.178 0.043749 -0.825842 0
M  V30 5539 H 532.724 -0.662522 -1.56233 0
M  V30 5540 H 531.496 -1.21631 -3.71916 0
M  V30 5541 H 531.119 0.483576 -3.94648 0
M  V30 5542 N 532.116 1.54067 -0.331816 0
M  V30 5543 C 533.346 2.04833 0.269605 0
M  V30 5544 C 533.754 1.20714 1.45687 0
M  V30 5545 O 533.097 0.232539 1.82222 0
M  V30 5546 C 533.159 3.51386 0.759499 0
M  V30 5547 C 532.823 4.55971 -0.306557 0
M  V30 5548 C 533.82 5.07126 -1.14538 0
M  V30 5549 C 531.505 5.00216 -0.457116 0
M  V30 5550 C 533.499 6.01096 -2.12042 0
M  V30 5551 C 531.186 5.93999 -1.43556 0
M  V30 5552 C 532.184 6.44326 -2.26568 0
M  V30 5553 O 531.872 7.36267 -3.22749 0
M  V30 5554 H 531.604 0.673509 0.0579763 0
M  V30 5555 H 534.158 1.99748 -0.478521 0
M  V30 5556 H 532.388 3.53896 1.55867 0
M  V30 5557 H 534.077 3.85184 1.28017 0
M  V30 5558 H 534.843 4.73716 -1.04009 0
M  V30 5559 H 530.722 4.60652 0.179142 0
M  V30 5560 H 534.266 6.40302 -2.76873 0
M  V30 5561 H 530.163 6.26825 -1.54146 0
M  V30 5562 H 530.931 7.54165 -3.18083 0
M  V30 5563 N 533.594 0.0601682 1.57485 0
M  V30 5564 C 534.524 -0.90889 2.15085 0
M  V30 5565 C 535.505 -1.31838 1.07484 0
M  V30 5566 O 536.69 -1.3915 1.35466 0
M  V30 5567 C 533.82 -2.18059 2.7031 0
M  V30 5568 C 532.774 -1.91088 3.82974 0
M  V30 5569 C 532.1 -3.24789 4.24754 0
M  V30 5570 C 533.4 -1.22535 5.07723 0
M  V30 5571 H 535.094 -0.429093 2.96309 0
M  V30 5572 H 532.64 -0.204952 1.42534 0
M  V30 5573 H 534.593 -2.86258 3.09248 0
M  V30 5574 H 533.317 -2.6826 1.8629 0
M  V30 5575 H 531.976 -1.25297 3.44523 0
M  V30 5576 H 531.624 -3.72809 3.37672 0
M  V30 5577 H 531.324 -3.07538 5.00694 0
M  V30 5578 H 532.848 -3.94205 4.66299 0
M  V30 5579 H 534.262 -1.80783 5.4405 0
M  V30 5580 H 532.659 -1.1558 5.88864 0
M  V30 5581 H 533.729 -0.202692 4.84476 0
M  V30 5582 N 535.072 -1.5615 -0.213296 0
M  V30 5583 C 536.349 -1.70349 -0.961281 0
M  V30 5584 C 536.729 -0.609791 -2.02101 0
M  V30 5585 O 536.077 0.381987 -2.25285 0
M  V30 5586 C 536.287 -3.11982 -1.56424 0
M  V30 5587 C 537.635 -3.71649 -2.05334 0
M  V30 5588 O 538.659 -3.14995 -1.66302 0
M  V30 5589 O 537.518 -4.71038 -2.77102 0
M  V30 5590 H 534.612 -0.694121 -0.449582 0
M  V30 5591 H 537.158 -1.68464 -0.204426 0
M  V30 5592 H 535.93 -3.83046 -0.799457 0
M  V30 5593 H 535.553 -3.18019 -2.38641 0
M  V30 5594 N 536.55 0.480323 -1.50102 0
M  V30 5595 C 537.799 1.22979 -1.59872 0
M  V30 5596 C 538.112 1.93282 -0.30022 0
M  V30 5597 O 539.318 2.70086 -0.276709 0
M  V30 5598 C 537.774 2.23408 -2.82164 0
M  V30 5599 C 537.382 1.5895 -4.18854 0
M  V30 5600 C 539.126 2.99055 -3.01275 0
M  V30 5601 C 537.033 2.57611 -5.32344 0
M  V30 5602 H 535.963 0.462707 -0.59533 0
M  V30 5603 H 538.614 0.501291 -1.7652 0
M  V30 5604 H 536.996 2.99511 -2.59055 0
M  V30 5605 H 538.17 0.887 -4.52182 0
M  V30 5606 H 536.485 0.956191 -4.05273 0
M  V30 5607 H 539.082 3.72876 -3.83233 0
M  V30 5608 H 539.425 3.57897 -2.12639 0
M  V30 5609 H 539.958 2.30066 -3.24522 0
M  V30 5610 H 536.697 2.03521 -6.23105 0
M  V30 5611 H 536.217 3.26041 -5.03445 0
M  V30 5612 H 537.896 3.19627 -5.62537 0
M  V30 5613 N 538.028 1.39524 0.732853 0
M  V30 5614 C 539.276 1.36594 1.48951 0
M  V30 5615 C 539.597 -0.0367507 1.94965 0
M  V30 5616 O 538.867 -0.988391 1.69138 0
M  V30 5617 H 537.447 0.502673 0.552566 0
M  V30 5618 H 540.109 1.74411 0.869869 0
M  V30 5619 H 539.205 2.03 2.3706 0
M  V30 5620 N 539.506 -0.963266 1.24736 0
M  V30 5621 C 540.454 -2.07985 1.04139 0
M  V30 5622 C 541.448 -1.69381 -0.0250556 0
M  V30 5623 O 542.654 -1.79531 0.129863 0
M  V30 5624 H 539.029 -0.680627 0.319768 0
M  V30 5625 H 541 -2.22517 1.98818 0
M  V30 5626 C 539.749 -3.4123 0.667615 0
M  V30 5627 H 539.072 -3.71397 1.48 0
M  V30 5628 H 540.512 -4.20244 0.563136 0
M  V30 5629 C 538.971 -3.3104 -0.625647 0
M  V30 5630 O 539.501 -3.65334 -1.67016 0
M  V30 5631 N 537.707 -2.84168 -0.608033 0
M  V30 5632 H 537.254 -2.56458 0.242323 0
M  V30 5633 H 537.212 -2.77732 -1.47352 0
M  V30 5634 N 540.985 -1.06182 -1.16461 0
M  V30 5635 C 541.933 -0.665716 -2.2287 0
M  V30 5636 C 542.927 0.317822 -1.66392 0
M  V30 5637 O 544.133 0.182807 -1.79069 0
M  V30 5638 H 540.508 -0.197148 -0.725697 0
M  V30 5639 H 542.479 -1.57307 -2.53569 0
M  V30 5640 C 541.228 -0.0669803 -3.47635 0
M  V30 5641 H 540.551 -0.814899 -3.91407 0
M  V30 5642 H 541.991 0.172669 -4.23648 0
M  V30 5643 C 540.45 1.18913 -3.15216 0
M  V30 5644 O 540.98 2.27723 -3.30916 0
M  V30 5645 N 539.186 1.09066 -2.69357 0
M  V30 5646 H 538.733 0.20518 -2.56782 0
M  V30 5647 H 538.691 1.93195 -2.48039 0
M  V30 5648 N 542.463 1.3308 -0.844243 0
M  V30 5649 C 543.874 1.7992 -0.498566 0
M  V30 5650 C 544.225 1.69808 0.982834 0
M  V30 5651 O 543.35 1.25051 1.7661 0
M  V30 5652 C 543.945 3.26677 -0.898204 0
M  V30 5653 C 542.504 3.71513 -0.604583 0
M  V30 5654 C 541.651 2.54393 -1.10362 0
M  V30 5655 H 544.602 1.20526 -1.03244 0
M  V30 5656 H 544.623 3.79918 -0.21039 0
M  V30 5657 H 544.135 3.34004 -1.97643 0
M  V30 5658 H 542.236 3.69708 0.46335 0
M  V30 5659 H 542.349 4.64755 -1.16358 0
M  V30 5660 H 540.713 2.49246 -0.524273 0
M  V30 5661 H 541.496 2.6448 -2.18873 0
M  V30 5662 N 543.941 0.601185 1.45683 0
M  V30 5663 C 545.357 0.264315 1.57396 0
M  V30 5664 C 545.557 -1.23324 1.59353 0
M  V30 5665 O 544.613 -2.01594 1.52039 0
M  V30 5666 C 545.926 0.929839 2.85962 0
M  V30 5667 C 547.474 0.905156 2.99626 0
M  V30 5668 C 547.949 1.55057 4.30954 0
M  V30 5669 N 549.44 1.51576 4.37697 0
M  V30 5670 C 550.175 1.98436 5.37969 0
M  V30 5671 N 549.671 2.53352 6.44813 0
M  V30 5672 N 551.464 1.89242 5.29286 0
M  V30 5673 H 543.615 1.57363 1.42656 0
M  V30 5674 H 545.878 0.658831 0.681649 0
M  V30 5675 H 545.584 1.98404 2.90394 0
M  V30 5676 H 545.458 0.449224 3.74515 0
M  V30 5677 H 547.845 -0.14048 2.94765 0
M  V30 5678 H 547.926 1.42397 2.12501 0
M  V30 5679 H 547.57 2.5955 4.36573 0
M  V30 5680 H 547.5 1.00682 5.16886 0
M  V30 5681 H 549.991 1.11452 3.61091 0
M  V30 5682 H 550.304 2.86918 7.17564 0
M  V30 5683 H 548.649 2.57388 6.45582 0
M  V30 5684 H 551.84 1.46083 4.44722 0
M  V30 5685 H 552.013 2.26075 6.07284 0
M  V30 5686 N 545.419 -1.53889 0.339982 0
M  V30 5687 C 546.665 -2.01152 -0.258003 0
M  V30 5688 C 546.998 -1.22749 -1.50487 0
M  V30 5689 O 546.273 -0.314156 -1.91946 0
M  V30 5690 C 546.556 -3.55468 -0.575717 0
M  V30 5691 C 546.409 -4.44584 0.682996 0
M  V30 5692 C 547.728 -4.1768 -1.38677 0
M  V30 5693 H 544.847 -0.731198 -0.0922992 0
M  V30 5694 H 547.489 -1.84352 0.459814 0
M  V30 5695 H 545.639 -3.69914 -1.18725 0
M  V30 5696 H 547.311 -4.41981 1.32102 0
M  V30 5697 H 545.554 -4.13592 1.3086 0
M  V30 5698 H 546.225 -5.5043 0.416001 0
M  V30 5699 H 548.701 -4.0691 -0.869705 0
M  V30 5700 H 547.577 -5.25734 -1.57783 0
M  V30 5701 H 547.838 -3.72069 -2.38782 0
M  V30 5702 N 546.897 -0.0685191 -1.57451 0
M  V30 5703 C 548.145 0.60016 -1.92983 0
M  V30 5704 C 548.466 1.70348 -0.949028 0
M  V30 5705 O 547.736 1.959 0.00335647 0
M  V30 5706 H 546.316 0.224682 -0.712409 0
M  V30 5707 H 548.978 -0.125605 -1.94495 0
M  V30 5708 H 548.074 1.02759 -2.94698 0
M  V30 5709 N 548.375 1.56261 0.205012 0
M  V30 5710 C 549.603 1.84141 0.943386 0
M  V30 5711 C 550.018 0.649772 1.77266 0
M  V30 5712 O 549.375 -0.381612 1.78466 0
M  V30 5713 C 549.426 3.10719 1.84759 0
M  V30 5714 O 549.147 4.25286 1.05181 0
M  V30 5715 C 550.648 3.51706 2.69848 0
M  V30 5716 H 547.868 0.611734 0.275721 0
M  V30 5717 H 550.412 2.03364 0.215253 0
M  V30 5718 H 548.567 2.93422 2.52947 0
M  V30 5719 H 548.981 4.97301 1.66709 0
M  V30 5720 H 550.455 4.43266 3.28967 0
M  V30 5721 H 550.932 2.7423 3.43067 0
M  V30 5722 H 551.538 3.71499 2.07047 0
M  V30 5723 N 549.853 -0.472356 1.50355 0
M  V30 5724 C 550.8 -1.57051 1.69126 0
M  V30 5725 C 551.77 -1.5733 0.532574 0
M  V30 5726 O 552.955 -1.7488 0.762994 0
M  V30 5727 C 550.095 -2.95033 1.79024 0
M  V30 5728 C 549.208 -3.04552 3.06386 0
M  V30 5729 C 548.343 -4.33441 3.07087 0
M  V30 5730 C 547.382 -4.36697 4.28908 0
M  V30 5731 N 546.519 -5.57056 4.27356 0
M  V30 5732 H 551.359 -1.40351 2.62879 0
M  V30 5733 H 548.896 -0.682403 1.30314 0
M  V30 5734 H 550.854 -3.75048 1.82744 0
M  V30 5735 H 549.484 -3.10371 0.887109 0
M  V30 5736 H 548.536 -2.17419 3.12143 0
M  V30 5737 H 549.848 -3.02818 3.96362 0
M  V30 5738 H 549.002 -5.21801 3.09529 0
M  V30 5739 H 547.741 -4.37782 2.14939 0
M  V30 5740 H 546.746 -3.46734 4.2668 0
M  V30 5741 H 547.971 -4.34049 5.22282 0
M  V30 5742 H 545.917 -5.62184 3.3806 0
M  V30 5743 H 545.834 -5.57058 5.111 0
M  V30 5744 H 547.102 -6.47545 4.33942 0
M  V30 5745 N 551.331 -1.39911 -0.725443 0
M  V30 5746 C 552.747 -1.21725 -1.03224 0
M  V30 5747 C 552.947 -0.0855224 -2.01318 0
M  V30 5748 O 552.003 0.55976 -2.46217 0
M  V30 5749 C 553.316 -2.55511 -1.58539 0
M  V30 5750 C 554.864 -2.62439 -1.70572 0
M  V30 5751 C 555.339 -3.9647 -2.29294 0
M  V30 5752 N 556.83 -3.98159 -2.36692 0
M  V30 5753 C 557.565 -4.98647 -2.83088 0
M  V30 5754 N 557.061 -6.0953 -3.2931 0
M  V30 5755 N 558.854 -4.8602 -2.82384 0
M  V30 5756 H 551.005 -2.12267 -0.075048 0
M  V30 5757 H 553.268 -0.943136 -0.0959066 0
M  V30 5758 H 552.974 -3.38926 -0.939249 0
M  V30 5759 H 552.848 -2.75905 -2.57208 0
M  V30 5760 H 555.235 -1.79401 -2.34306 0
M  V30 5761 H 555.316 -2.45885 -0.705297 0
M  V30 5762 H 554.96 -4.79942 -1.66186 0
M  V30 5763 H 554.89 -4.10349 -3.30032 0
M  V30 5764 H 557.381 -3.18085 -2.04035 0
M  V30 5765 H 557.694 -6.82106 -3.6325 0
M  V30 5766 H 556.039 -6.1311 -3.27294 0
M  V30 5767 H 559.23 -3.98493 -2.45603 0
M  V30 5768 H 559.403 -5.64478 -3.18226 0
M  V30 5769 N 552.809 0.956637 -1.25245 0
M  V30 5770 C 554.039 1.7332 -1.12445 0
M  V30 5771 C 554.447 1.86392 0.324732 0
M  V30 5772 O 553.79 1.35967 1.23526 0
M  V30 5773 C 553.852 3.16603 -1.70303 0
M  V30 5774 C 553.516 3.26966 -3.19284 0
M  V30 5775 C 554.513 3.11434 -4.16299 0
M  V30 5776 C 552.198 3.50851 -3.59456 0
M  V30 5777 C 554.192 3.1963 -5.51467 0
M  V30 5778 C 551.879 3.58684 -4.94761 0
M  V30 5779 C 552.877 3.43087 -5.90576 0
M  V30 5780 O 552.565 3.50598 -7.2342 0
M  V30 5781 H 552.297 0.549981 -0.393061 0
M  V30 5782 H 554.851 1.20892 -1.66055 0
M  V30 5783 H 553.081 3.70385 -1.11138 0
M  V30 5784 H 554.77 3.76109 -1.52632 0
M  V30 5785 H 555.536 2.92853 -3.86604 0
M  V30 5786 H 551.415 3.62053 -2.85375 0
M  V30 5787 H 554.959 3.07373 -6.26233 0
M  V30 5788 H 550.856 3.76782 -5.24124 0
M  V30 5789 H 551.624 3.67242 -7.31489 0
M  V30 5790 N 554.287 1.06798 1.15896 0
M  V30 5791 C 555.22 0.627503 2.19403 0
M  V30 5792 C 556.198 -0.352352 1.58736 0
M  V30 5793 O 557.382 -0.260111 1.86697 0
M  V30 5794 C 554.509 -0.079356 3.38607 0
M  V30 5795 C 553.555 0.858057 4.17779 0
M  V30 5796 S 554.388 2.35605 4.80885 0
M  V30 5797 C 555.544 1.66083 6.03463 0
M  V30 5798 H 555.777 1.50441 2.56427 0
M  V30 5799 H 553.31 0.881427 1.26768 0
M  V30 5800 H 555.268 -0.48095 4.07673 0
M  V30 5801 H 553.929 -0.932524 2.99938 0
M  V30 5802 H 553.122 0.310108 5.03045 0
M  V30 5803 H 552.724 1.19977 3.54234 0
M  V30 5804 H 555.016 0.969337 6.7053 0
M  V30 5805 H 555.959 2.49159 6.62816 0
M  V30 5806 H 556.367 1.14122 5.52844 0
M  V30 5807 N 555.766 -1.3263 0.851289 0
M  V30 5808 C 556.729 -2.27247 0.298541 0
M  V30 5809 C 557.729 -1.51467 -0.539847 0
M  V30 5810 O 558.919 -1.7061 -0.351843 0
M  V30 5811 C 556.051 -3.35964 -0.578004 0
M  V30 5812 H 557.244 -2.7765 1.13359 0
M  V30 5813 H 554.797 -1.43245 0.625354 0
M  V30 5814 H 555.532 -2.90823 -1.435 0
M  V30 5815 H 555.317 -3.92094 0.0220539 0
M  V30 5816 H 556.807 -4.06472 -0.957626 0
M  V30 5817 N 557.244 -0.608902 -1.45362 0
M  V30 5818 C 558.655 -0.189511 -1.85736 0
M  V30 5819 C 559.006 1.2539 -1.50903 0
M  V30 5820 O 558.131 1.95094 -0.936347 0
M  V30 5821 C 558.726 -0.33716 -3.37118 0
M  V30 5822 C 557.285 0.0275487 -3.7639 0
M  V30 5823 C 556.432 -0.660983 -2.69307 0
M  V30 5824 H 559.383 -0.815499 -1.36144 0
M  V30 5825 H 559.404 0.430257 -3.7806 0
M  V30 5826 H 558.916 -1.38779 -3.62439 0
M  V30 5827 H 557.017 1.0773 -3.56686 0
M  V30 5828 H 557.13 -0.367018 -4.77692 0
M  V30 5829 H 555.494 -0.0984958 -2.54509 0
M  V30 5830 H 556.277 -1.71377 -2.97464 0
M  V30 5831 N 558.722 1.53707 -0.348139 0
M  V30 5832 C 559.632 2.28881 0.514857 0
M  V30 5833 C 560.648 1.34168 1.10793 0
M  V30 5834 O 561.824 1.6721 1.12262 0
M  V30 5835 C 558.889 3.05042 1.64774 0
M  V30 5836 C 557.95 4.15389 1.08398 0
M  V30 5837 C 557.183 4.87909 2.16287 0
M  V30 5838 O 557.406 4.60137 3.3709 0
M  V30 5839 O 556.34 5.74254 1.80323 0
M  V30 5840 H 560.166 3.03547 -0.0963699 0
M  V30 5841 H 557.751 1.48972 -0.113043 0
M  V30 5842 H 559.633 3.52656 2.30677 0
M  V30 5843 H 558.308 2.33228 2.24469 0
M  V30 5844 H 557.215 3.72068 0.389341 0
M  V30 5845 H 558.548 4.89318 0.531829 0
M  V30 5846 N 560.2 0.0768682 1.57412 0
M  V30 5847 C 561.446 -0.591961 1.93968 0
M  V30 5848 C 561.779 -1.68954 0.9575 0
M  V30 5849 O 561.054 -1.94496 -0.0124675 0
M  V30 5850 C 561.337 -1.16418 3.40762 0
M  V30 5851 C 561.19 -0.0728933 4.49741 0
M  V30 5852 C 562.509 -2.06814 3.88479 0
M  V30 5853 H 559.628 -0.213716 0.705333 0
M  V30 5854 H 562.27 0.14387 1.89455 0
M  V30 5855 H 560.42 -1.79128 3.4474 0
M  V30 5856 H 562.092 0.560446 4.57883 0
M  V30 5857 H 560.335 0.595859 4.29688 0
M  V30 5858 H 561.006 -0.513755 5.49604 0
M  V30 5859 H 563.482 -1.54033 3.8654 0
M  V30 5860 H 562.358 -2.43785 4.91793 0
M  V30 5861 H 562.619 -2.97844 3.26713 0
M  V30 5862 N 561.678 -1.56367 -0.196722 0
M  V30 5863 C 562.608 -1.97442 -1.24655 0
M  V30 5864 C 563.589 -0.846147 -1.47561 0
M  V30 5865 O 564.774 -1.11035 -1.59326 0
M  V30 5866 C 561.904 -2.31253 -2.59112 0
M  V30 5867 C 560.858 -3.46804 -2.50821 0
M  V30 5868 C 560.184 -3.66286 -3.89536 0
M  V30 5869 C 561.484 -4.8104 -2.03465 0
M  V30 5870 H 563.178 -2.85388 -0.905216 0
M  V30 5871 H 560.724 -1.37304 -0.434002 0
M  V30 5872 H 562.677 -2.58583 -3.32736 0
M  V30 5873 H 561.401 -1.40188 -2.94983 0
M  V30 5874 H 560.06 -3.19563 -1.79653 0
M  V30 5875 H 559.708 -2.72555 -4.22756 0
M  V30 5876 H 559.408 -4.4402 -3.84864 0
M  V30 5877 H 560.932 -3.9599 -4.64784 0
M  V30 5878 H 562.346 -5.07411 -2.66846 0
M  V30 5879 H 560.743 -5.62232 -2.09798 0
M  V30 5880 H 561.813 -4.74732 -0.98781 0
M  V30 5881 N 563.156 0.464375 -1.50603 0
M  V30 5882 C 564.433 1.22549 -1.5245 0
M  V30 5883 C 564.813 2.09327 -0.273035 0
M  V30 5884 O 564.161 2.16074 0.743242 0
M  V30 5885 C 564.371 2.05074 -2.82393 0
M  V30 5886 C 565.719 2.63036 -3.33313 0
M  V30 5887 O 566.743 2.1531 -2.8376 0
M  V30 5888 O 565.602 3.5001 -4.19709 0
M  V30 5889 H 562.696 0.556471 -0.611775 0
M  V30 5890 H 565.242 0.475648 -1.62898 0
M  V30 5891 H 564.014 1.41169 -3.64948 0
M  V30 5892 H 563.637 2.87179 -2.7498 0
M  V30 5893 N 564.634 1.40294 0.718013 0
M  V30 5894 C 565.544 1.42678 1.86226 0
M  V30 5895 C 566.56 0.319655 1.71039 0
M  V30 5896 O 567.736 0.563852 1.93346 0
M  V30 5897 C 564.801 1.2852 3.21999 0
M  V30 5898 C 563.862 2.49354 3.49458 0
M  V30 5899 C 563.095 2.35863 4.78753 0
M  V30 5900 O 563.318 1.37114 5.53675 0
M  V30 5901 O 562.252 3.25189 5.06494 0
M  V30 5902 H 566.078 2.39167 1.87171 0
M  V30 5903 H 563.663 1.2159 0.868112 0
M  V30 5904 H 565.545 1.22824 4.03103 0
M  V30 5905 H 564.22 0.351359 3.21787 0
M  V30 5906 H 563.127 2.60628 2.68373 0
M  V30 5907 H 564.46 3.41491 3.54464 0
M  V30 5908 N 566.112 -0.949982 1.2575 0
M  V30 5909 C 567.044 -2.05088 1.02331 0
M  V30 5910 C 568.057 -1.62795 -0.0133247 0
M  V30 5911 O 569.246 -1.77067 0.225759 0
M  V30 5912 C 566.346 -3.34794 0.525924 0
M  V30 5913 C 565.519 -4.05903 1.62978 0
M  V30 5914 C 564.578 -5.1388 1.13196 0
M  V30 5915 O 563.604 -5.39072 1.82729 0
M  V30 5916 N 564.806 -5.80495 -0.0242926 0
M  V30 5917 H 567.571 -2.25747 1.97125 0
M  V30 5918 H 565.132 -1.11886 1.17018 0
M  V30 5919 H 567.124 -4.04312 0.177263 0
M  V30 5920 H 565.694 -3.10872 -0.328202 0
M  V30 5921 H 564.914 -3.3042 2.1498 0
M  V30 5922 H 566.202 -4.50166 2.37124 0
M  V30 5923 H 565.6 -5.62454 -0.605184 0
M  V30 5924 H 564.157 -6.51043 -0.313947 0
M  V30 5925 N 567.59 -1.07411 -1.15328 0
M  V30 5926 C 568.839 -0.792643 -1.85473 0
M  V30 5927 C 569.152 0.683789 -1.83259 0
M  V30 5928 O 570.358 1.08005 -2.49093 0
M  V30 5929 C 568.814 -1.36787 -3.32892 0
M  V30 5930 C 568.422 -2.87536 -3.43551 0
M  V30 5931 C 570.166 -1.16444 -4.08217 0
M  V30 5932 C 568.073 -3.38247 -4.85122 0
M  V30 5933 H 567.003 -0.292838 -0.694811 0
M  V30 5934 H 569.654 -1.29426 -1.30082 0
M  V30 5935 H 568.036 -0.793993 -3.87958 0
M  V30 5936 H 569.21 -3.50973 -2.98588 0
M  V30 5937 H 567.525 -3.06676 -2.81672 0
M  V30 5938 H 570.122 -1.51808 -5.12697 0
M  V30 5939 H 570.465 -0.10353 -4.16171 0
M  V30 5940 H 570.998 -1.70472 -3.59422 0
M  V30 5941 H 567.737 -4.43866 -4.82351 0
M  V30 5942 H 567.257 -2.79564 -5.30664 0
M  V30 5943 H 568.936 -3.34238 -5.5398 0
M  V30 5944 N 569.068 1.32177 -0.85831 0
M  V30 5945 C 570.484 1.49873 -0.548656 0
M  V30 5946 C 570.684 1.79278 0.919874 0
M  V30 5947 O 569.74 1.86451 1.70271 0
M  V30 5948 C 571.053 2.64043 -1.4388 0
M  V30 5949 C 572.601 2.77928 -1.43961 0
M  V30 5950 C 573.076 3.95182 -2.31506 0
M  V30 5951 N 574.567 4.0245 -2.29321 0
M  V30 5952 C 575.302 4.9242 -2.93786 0
M  V30 5953 N 574.798 5.87373 -3.67376 0
M  V30 5954 N 576.591 4.85572 -2.83155 0
M  V30 5955 H 568.742 1.11357 -1.80868 0
M  V30 5956 H 571.005 0.549175 -0.772729 0
M  V30 5957 H 570.711 2.49055 -2.48324 0
M  V30 5958 H 570.585 3.59912 -1.12885 0
M  V30 5959 H 572.972 2.92338 -0.402813 0
M  V30 5960 H 573.053 1.82762 -1.78974 0
M  V30 5961 H 572.697 3.81531 -3.35256 0
M  V30 5962 H 572.627 4.89633 -1.93823 0
M  V30 5963 H 575.118 3.34507 -1.75822 0
M  V30 5964 H 575.431 6.52728 -4.13722 0
M  V30 5965 H 573.776 5.87388 -3.71484 0
M  V30 5966 H 576.967 4.10363 -2.25211 0
M  V30 5967 H 577.14 5.55486 -3.33676 0
M  V30 5968 N 570.547 0.616602 1.45037 0
M  V30 5969 C 571.775 0.121968 2.0654 0
M  V30 5970 C 572.19 -1.19743 1.45969 0
M  V30 5971 O 571.547 -1.73133 0.577168 0
M  V30 5972 C 571.598 -0.0145171 3.61497 0
M  V30 5973 O 571.319 1.25269 4.19809 0
M  V30 5974 C 572.82 -0.539555 4.40004 0
M  V30 5975 H 570.04 0.0729837 0.667019 0
M  V30 5976 H 572.584 0.846891 1.8614 0
M  V30 5977 H 570.739 -0.689809 3.81209 0
M  V30 5978 H 571.153 1.08816 5.13088 0
M  V30 5979 H 572.627 -0.584112 5.48901 0
M  V30 5980 H 573.104 -1.56368 4.10421 0
M  V30 5981 H 573.71 0.101995 4.25178 0
M  V30 5982 N 572.025 -1.5352 0.356285 0
M  V30 5983 C 573.302 -1.93405 -0.292223 0
M  V30 5984 C 573.682 -1.28901 -1.67176 0
M  V30 5985 O 573.03 -0.444632 -2.24132 0
M  V30 5986 C 573.24 -3.47223 -0.35175 0
M  V30 5987 C 574.588 -4.20389 -0.596534 0
M  V30 5988 O 575.612 -3.53554 -0.433344 0
M  V30 5989 O 574.471 -5.3881 -0.913589 0
M  V30 5990 H 571.565 -0.808666 -0.173172 0
M  V30 5991 H 574.111 -1.64713 0.408391 0
M  V30 5992 H 572.883 -3.86423 0.615841 0
M  V30 5993 H 572.506 -3.8212 -1.09864 0
M  V30 5994 N 573.503 -0.0852151 -1.57369 0
M  V30 5995 C 574.743 0.584297 -1.95871 0
M  V30 5996 C 575.107 1.6596 -0.965473 0
M  V30 5997 O 576.308 2.38561 -1.23862 0
M  V30 5998 C 574.579 1.13411 -3.38929 0
M  V30 5999 S 576.138 1.81687 -3.99419 0
M  V30 6000 H 572.956 0.19095 -0.684879 0
M  V30 6001 H 575.558 -0.162267 -1.94825 0
M  V30 6002 H 574.262 0.339845 -4.0899 0
M  V30 6003 H 573.793 1.91672 -3.43548 0
M  V30 6004 H 575.808 3.10037 -3.87417 0
M  V30 6005 N 574.981 1.5647 0.188427 0
M  V30 6006 C 576.228 1.81013 0.907779 0
M  V30 6007 C 576.556 0.65953 1.82977 0
M  V30 6008 O 575.811 -0.354308 1.92466 0
M  V30 6009 C 576.11 3.11596 1.7505 0
M  V30 6010 C 575.776 4.40145 0.978922 0
M  V30 6011 C 574.438 4.75066 0.765912 0
M  V30 6012 C 576.79 5.19369 0.436498 0
M  V30 6013 C 574.118 5.867 -0.00089868 0
M  V30 6014 C 576.47 6.31805 -0.317136 0
M  V30 6015 C 575.134 6.65303 -0.541103 0
M  V30 6016 H 574.404 0.662373 0.33218 0
M  V30 6017 H 577.051 1.9071 0.173732 0
M  V30 6018 H 575.356 2.97165 2.55343 0
M  V30 6019 H 577.053 3.27793 2.30983 0
M  V30 6020 H 573.643 4.12745 1.15497 0
M  V30 6021 H 577.827 4.92799 0.588449 0
M  V30 6022 H 573.083 6.11122 -0.184329 0
M  V30 6023 H 577.257 6.92406 -0.744788 0
M  V30 6024 H 574.884 7.51646 -1.13718 0
M  V30 6025 N 576.459 -0.456382 1.50847 0
M  V30 6026 C 577.369 -1.57805 1.73594 0
M  V30 6027 C 578.385 -1.62599 0.619476 0
M  V30 6028 O 579.561 -1.80195 0.899532 0
M  V30 6029 C 576.626 -2.93926 1.8387 0
M  V30 6030 C 575.687 -2.99402 3.07663 0
M  V30 6031 C 574.92 -4.29031 3.1744 0
M  V30 6032 O 575.143 -5.20358 2.33631 0
M  V30 6033 O 574.077 -4.40401 4.10281 0
M  V30 6034 H 577.903 -1.41531 2.68705 0
M  V30 6035 H 575.488 -0.637422 1.3512 0
M  V30 6036 H 577.37 -3.74747 1.92725 0
M  V30 6037 H 576.045 -3.10368 0.91944 0
M  V30 6038 H 574.952 -2.17606 3.043 0
M  V30 6039 H 576.285 -2.87901 3.99216 0
M  V30 6040 N 577.937 -1.40673 -0.710563 0
M  V30 6041 C 579.162 -1.42741 -1.50465 0
M  V30 6042 C 579.587 -0.0302116 -1.88076 0
M  V30 6043 O 578.945 0.962945 -1.53613 0
M  V30 6044 C 578.993 -2.32873 -2.75322 0
M  V30 6045 O 578.097 -1.77544 -3.72226 0
M  V30 6046 H 577.438 -0.485056 -0.45345 0
M  V30 6047 H 579.968 -1.84961 -0.874681 0
M  V30 6048 H 579.978 -2.48233 -3.23797 0
M  V30 6049 H 578.653 -3.34401 -2.47283 0
M  V30 6050 H 577.23 -1.71556 -3.31093 0
M  V30 6051 N 579.415 0.9433 -1.26252 0
M  V30 6052 C 580.645 1.72117 -1.14277 0
M  V30 6053 C 581.053 1.86726 0.304944 0
M  V30 6054 O 580.396 1.3727 1.22076 0
M  V30 6055 C 580.458 3.14778 -1.73651 0
M  V30 6056 C 580.122 3.23561 -3.22734 0
M  V30 6057 C 581.119 3.07001 -4.19579 0
M  V30 6058 C 578.804 3.47019 -3.63157 0
M  V30 6059 C 580.798 3.13763 -5.54826 0
M  V30 6060 C 578.485 3.53416 -4.98538 0
M  V30 6061 C 579.483 3.36804 -5.94182 0
M  V30 6062 O 579.171 3.42906 -7.27098 0
M  V30 6063 H 578.903 0.545781 -0.398873 0
M  V30 6064 H 581.457 1.19123 -1.67328 0
M  V30 6065 H 579.687 3.69186 -1.1506 0
M  V30 6066 H 581.376 3.74469 -1.56613 0
M  V30 6067 H 582.142 2.88736 -3.89688 0
M  V30 6068 H 578.021 3.59006 -2.89199 0
M  V30 6069 H 581.565 3.00714 -6.29458 0
M  V30 6070 H 577.462 3.71201 -5.28091 0
M  V30 6071 H 578.23 3.59463 -7.35342 0
M  V30 6072 N 580.893 1.08022 1.14757 0
M  V30 6073 C 581.84 0.706657 2.19716 0
M  V30 6074 C 582.81 -0.30525 1.63271 0
M  V30 6075 O 583.995 -0.19015 1.8985 0
M  V30 6076 C 581.135 0.117914 3.44898 0
M  V30 6077 C 580.248 1.18212 4.15512 0
M  V30 6078 C 579.383 0.557659 5.28265 0
M  V30 6079 C 578.422 1.60418 5.90705 0
M  V30 6080 N 577.559 1.0018 6.94916 0
M  V30 6081 H 582.399 1.60603 2.51019 0
M  V30 6082 H 579.936 0.802664 1.23271 0
M  V30 6083 H 581.894 -0.241112 4.16503 0
M  V30 6084 H 580.524 -0.744788 3.1409 0
M  V30 6085 H 579.576 1.65863 3.42335 0
M  V30 6086 H 580.888 1.97533 4.5802 0
M  V30 6087 H 580.042 0.146654 6.06523 0
M  V30 6088 H 578.781 -0.267249 4.86967 0
M  V30 6089 H 577.786 2.02489 5.11154 0
M  V30 6090 H 579.011 2.43149 6.34078 0
M  V30 6091 H 576.957 0.197917 6.55701 0
M  V30 6092 H 576.874 1.73216 7.35889 0
M  V30 6093 H 578.142 0.616523 7.77058 0
M  V30 6094 N 582.371 -1.3172 0.865308 0
M  V30 6095 C 583.617 -1.97559 0.483944 0
M  V30 6096 C 583.972 -1.67181 -0.95227 0
M  V30 6097 O 583.265 -0.955392 -1.66081 0
M  V30 6098 C 583.459 -3.5102 0.672283 0
M  V30 6099 C 583.288 -3.96312 2.12525 0
M  V30 6100 C 582.058 -4.22877 2.76591 0
M  V30 6101 C 584.256 -4.10596 3.09702 0
M  V30 6102 N 582.238 -4.5449 4.12689 0
M  V30 6103 C 583.609 -4.45867 4.30816 0
M  V30 6104 C 585.664 -3.92961 3.05755 0
M  V30 6105 C 584.367 -4.65344 5.48495 0
M  V30 6106 C 586.393 -4.13628 4.22688 0
M  V30 6107 C 585.755 -4.49227 5.42563 0
M  V30 6108 H 581.854 -0.74862 0.226035 0
M  V30 6109 H 584.438 -1.59336 1.11893 0
M  V30 6110 H 582.609 -3.88342 0.0669224 0
M  V30 6111 H 584.341 -4.03865 0.259765 0
M  V30 6112 H 581.096 -4.15343 2.27567 0
M  V30 6113 H 581.52 -4.74464 4.82921 0
M  V30 6114 H 586.162 -3.64531 2.14188 0
M  V30 6115 H 583.88 -4.92624 6.40584 0
M  V30 6116 H 587.466 -4.01474 4.21082 0
M  V30 6117 H 586.346 -4.64895 6.31539 0
M  V30 6118 N 583.85 -0.624285 -1.44708 0
M  V30 6119 C 585.077 -0.132919 -2.06473 0
M  V30 6120 C 585.493 1.18967 -1.46602 0
M  V30 6121 O 584.85 1.72824 -0.586341 0
M  V30 6122 C 584.901 -0.00465418 -3.615 0
M  V30 6123 O 584.622 -1.27494 -4.19138 0
M  V30 6124 C 586.123 0.516213 -4.40284 0
M  V30 6125 H 583.343 -0.0765201 -0.666623 0
M  V30 6126 H 585.887 -0.856751 -1.85688 0
M  V30 6127 H 584.042 0.669583 -3.8157 0
M  V30 6128 H 584.456 -1.11536 -5.12504 0
M  V30 6129 H 585.93 0.554994 -5.49203 0
M  V30 6130 H 586.407 1.5419 -4.11245 0
M  V30 6131 H 587.013 -0.124542 -4.25118 0
M  V30 6132 N 585.328 1.53329 -0.364422 0
M  V30 6133 C 586.605 1.93557 0.281962 0
M  V30 6134 C 586.985 1.29786 1.6649 0
M  V30 6135 O 586.333 0.456512 2.23893 0
M  V30 6136 C 586.543 3.47405 0.333331 0
M  V30 6137 C 587.891 4.20699 0.574231 0
M  V30 6138 O 588.915 3.53779 0.414588 0
M  V30 6139 O 587.774 5.39287 0.885002 0
M  V30 6140 H 584.868 0.809573 0.168881 0
M  V30 6141 H 587.414 1.64494 -0.417121 0
M  V30 6142 H 586.186 3.86091 -0.636326 0
M  V30 6143 H 585.809 3.82697 1.07836 0
M  V30 6144 N 586.806 0.0935595 1.57322 0
M  V30 6145 C 588.055 -0.570191 1.93473 0
M  V30 6146 C 588.368 -1.69434 0.977318 0
M  V30 6147 O 589.574 -2.41914 1.23248 0
M  V30 6148 C 588.03 -1.06564 3.43762 0
M  V30 6149 C 587.638 0.0286723 4.47991 0
M  V30 6150 C 589.382 -1.70221 3.88877 0
M  V30 6151 C 587.289 -0.482046 5.89432 0
M  V30 6152 H 586.219 -0.216764 0.72217 0
M  V30 6153 H 588.87 0.169313 1.82717 0
M  V30 6154 H 587.252 -1.85878 3.49664 0
M  V30 6155 H 588.426 0.804106 4.5373 0
M  V30 6156 H 586.741 0.570336 4.12476 0
M  V30 6157 H 589.338 -2.09502 4.91948 0
M  V30 6158 H 589.681 -2.57078 3.27439 0
M  V30 6159 H 590.214 -0.974919 3.85668 0
M  V30 6160 H 586.953 0.349871 6.54566 0
M  V30 6161 H 586.473 -1.22452 5.87167 0
M  V30 6162 H 588.152 -0.951508 6.39965 0
M  V30 6163 N 588.284 -1.56567 -0.180126 0
M  V30 6164 C 589.53 -1.82658 -0.894859 0
M  V30 6165 C 589.885 -0.672826 -1.80252 0
M  V30 6166 O 589.178 0.331227 -1.88715 0
M  V30 6167 C 589.372 -3.1252 -1.73395 0
M  V30 6168 C 589.201 -4.40417 -0.909028 0
M  V30 6169 C 587.971 -5.01872 -0.587562 0
M  V30 6170 C 590.169 -5.13669 -0.254698 0
M  V30 6171 N 588.151 -6.13373 0.254428 0
M  V30 6172 C 589.522 -6.18373 0.448837 0
M  V30 6173 C 591.577 -4.97603 -0.171958 0
M  V30 6174 C 590.28 -7.08753 1.22725 0
M  V30 6175 C 592.306 -5.88418 0.593101 0
M  V30 6176 C 591.668 -6.92579 1.28503 0
M  V30 6177 H 587.767 -0.719493 -0.306356 0
M  V30 6178 H 590.351 -1.94021 -0.16247 0
M  V30 6179 H 588.522 -3.02365 -2.43783 0
M  V30 6180 H 590.254 -3.2664 -2.38931 0
M  V30 6181 H 587.009 -4.64666 -0.915557 0
M  V30 6182 H 587.433 -6.73721 0.665474 0
M  V30 6183 H 592.075 -4.17089 -0.692555 0
M  V30 6184 H 589.793 -7.88718 1.75923 0
M  V30 6185 H 593.379 -5.78059 0.658674 0
M  V30 6186 H 592.259 -7.61638 1.86754 0
M  V30 6187 N 589.762 0.448376 -1.51087 0
M  V30 6188 C 590.725 1.52588 -1.71025 0
M  V30 6189 C 591.725 1.49958 -0.580442 0
M  V30 6190 O 592.915 1.52176 -0.847833 0
M  V30 6191 C 590.047 2.92163 -1.75652 0
M  V30 6192 H 591.24 1.36218 -2.67179 0
M  V30 6193 H 588.793 0.676313 -1.4091 0
M  V30 6194 H 589.528 3.13951 -0.812724 0
M  V30 6195 H 589.313 2.95478 -2.57751 0
M  V30 6196 H 590.803 3.70349 -1.92953 0
M  V30 6197 N 591.24 1.41047 0.703093 0
M  V30 6198 C 592.487 1.4 1.46309 0
M  V30 6199 C 592.815 0.00654574 1.94499 0
M  V30 6200 O 592.07 -0.980255 1.6938 0
M  V30 6201 C 592.369 2.34686 2.6955 0
M  V30 6202 C 592.035 3.81684 2.40058 0
M  V30 6203 C 590.697 4.21731 2.31725 0
M  V30 6204 C 593.049 4.74525 2.15581 0
M  V30 6205 C 590.377 5.52637 1.97001 0
M  V30 6206 C 592.729 6.05744 1.82366 0
M  V30 6207 C 591.393 6.44819 1.72524 0
M  V30 6208 H 590.663 0.512295 0.535382 0
M  V30 6209 H 593.31 1.73792 0.804275 0
M  V30 6210 H 591.615 1.94122 3.40329 0
M  V30 6211 H 593.312 2.31152 3.27673 0
M  V30 6212 H 589.902 3.49963 2.47435 0
M  V30 6213 H 594.086 4.44395 2.20968 0
M  V30 6214 H 589.342 5.81802 1.87928 0
M  V30 6215 H 593.516 6.77189 1.62444 0
M  V30 6216 H 591.143 7.46168 1.45385 0
M  V30 6217 N 592.718 -0.936591 1.26751 0
M  V30 6218 C 593.966 -1.67998 1.12343 0
M  V30 6219 C 594.287 -1.92137 -0.332938 0
M  V30 6220 O 593.557 -1.52132 -1.23421 0
M  V30 6221 H 592.137 -0.622609 0.412756 0
M  V30 6222 H 594.799 -1.12509 1.59147 0
M  V30 6223 H 593.895 -2.65185 1.64571 0
M  V30 6224 N 594.196 -1.08629 -1.14182 0
M  V30 6225 C 595.126 -0.740003 -2.21464 0
M  V30 6226 C 596.107 0.278591 -1.67803 0
M  V30 6227 O 597.292 0.148461 -1.93632 0
M  V30 6228 C 594.422 -0.150952 -3.46972 0
M  V30 6229 C 593.376 -1.09815 -4.13672 0
M  V30 6230 C 592.702 -0.3712 -5.3341 0
M  V30 6231 C 594.002 -2.43722 -4.61949 0
M  V30 6232 H 595.696 -1.63697 -2.50686 0
M  V30 6233 H 593.242 -0.788526 -1.20492 0
M  V30 6234 H 595.195 0.103325 -4.21273 0
M  V30 6235 H 593.919 0.781164 -3.1712 0
M  V30 6236 H 592.578 -1.33756 -3.41328 0
M  V30 6237 H 592.226 0.564792 -4.99819 0
M  V30 6238 H 591.926 -1.00267 -5.78982 0
M  V30 6239 H 593.45 -0.12503 -6.10472 0
M  V30 6240 H 594.864 -2.24034 -5.27714 0
M  V30 6241 H 593.261 -3.02582 -5.18232 0
M  V30 6242 H 594.331 -3.05082 -3.76899 0
M  V30 6243 N 595.674 1.31259 -0.872281 0
M  V30 6244 C 596.92 1.96913 -0.485083 0
M  V30 6245 C 597.253 1.68774 0.960667 0
M  V30 6246 O 596.528 0.985495 1.67685 0
M  V30 6247 C 596.811 3.52299 -0.745502 0
M  V30 6248 C 596.664 3.90002 -2.24095 0
M  V30 6249 C 597.983 4.39582 -0.213516 0
M  V30 6250 H 595.102 0.715252 -0.177716 0
M  V30 6251 H 597.744 1.55347 -1.09395 0
M  V30 6252 H 595.894 3.87835 -0.227276 0
M  V30 6253 H 597.566 3.64555 -2.82661 0
M  V30 6254 H 595.809 3.38526 -2.71261 0
M  V30 6255 H 596.48 4.98352 -2.37381 0
M  V30 6256 H 598.956 4.10882 -0.656902 0
M  V30 6257 H 597.832 5.47251 -0.42516 0
M  V30 6258 H 598.093 4.33158 0.884666 0
M  V30 6259 N 597.152 0.631951 1.44375 0
M  V30 6260 C 598.082 -0.0593243 2.33425 0
M  V30 6261 C 599.063 -0.833964 1.48253 0
M  V30 6262 O 600.248 -0.799682 1.76971 0
M  V30 6263 C 597.378 -1.04096 3.31333 0
M  V30 6264 C 596.332 -0.377899 4.26328 0
M  V30 6265 C 595.658 -1.4695 5.14111 0
M  V30 6266 C 596.958 0.716371 5.17364 0
M  V30 6267 H 598.652 0.684287 2.91475 0
M  V30 6268 H 596.198 0.330518 1.40156 0
M  V30 6269 H 598.151 -1.53331 3.92514 0
M  V30 6270 H 596.875 -1.81547 2.71493 0
M  V30 6271 H 595.534 0.0938054 3.6648 0
M  V30 6272 H 595.182 -2.2349 4.50623 0
M  V30 6273 H 594.882 -1.03121 5.78481 0
M  V30 6274 H 596.406 -1.96363 5.78164 0
M  V30 6275 H 597.82 0.307089 5.72477 0
M  V30 6276 H 596.217 1.07784 5.90341 0
M  V30 6277 H 597.287 1.58316 4.58327 0
M  V30 6278 N 598.631 -1.53133 0.372548 0
M  V30 6279 C 599.877 -2.02336 -0.207823 0
M  V30 6280 C 600.232 -1.25477 -1.45853 0
M  V30 6281 O 599.525 -0.341971 -1.88524 0
M  V30 6282 C 599.719 -3.53206 -0.545938 0
M  V30 6283 C 599.548 -4.44674 0.670454 0
M  V30 6284 C 598.318 -4.91217 1.18465 0
M  V30 6285 C 600.516 -4.90772 1.53777 0
M  V30 6286 N 598.498 -5.66711 2.36034 0
M  V30 6287 C 599.869 -5.64678 2.56004 0
M  V30 6288 C 601.924 -4.72836 1.55983 0
M  V30 6289 C 600.627 -6.22555 3.60303 0
M  V30 6290 C 602.653 -5.31583 2.59179 0
M  V30 6291 C 602.015 -6.05381 3.6013 0
M  V30 6292 H 598.114 -0.781048 -0.0385783 0
M  V30 6293 H 600.698 -1.87665 0.518664 0
M  V30 6294 H 598.869 -3.68024 -1.24149 0
M  V30 6295 H 600.601 -3.89123 -1.112 0
M  V30 6296 H 597.356 -4.67652 0.748205 0
M  V30 6297 H 597.78 -6.09117 2.95475 0
M  V30 6298 H 602.422 -4.15299 0.792877 0
M  V30 6299 H 600.14 -6.79183 4.37876 0
M  V30 6300 H 603.726 -5.19595 2.61749 0
M  V30 6301 H 602.606 -6.50028 4.38672 0
M  V30 6302 N 600.109 -0.101901 -1.5727 0
M  V30 6303 C 601.019 0.868647 -2.17926 0
M  V30 6304 C 602.035 1.30527 -1.1506 0
M  V30 6305 O 603.211 1.37178 -1.47459 0
M  V30 6306 C 600.276 2.10727 -2.75309 0
M  V30 6307 C 599.337 1.7242 -3.93154 0
M  V30 6308 C 598.57 2.90377 -4.47791 0
M  V30 6309 O 598.793 4.05305 -4.01353 0
M  V30 6310 O 597.727 2.6845 -5.38719 0
M  V30 6311 H 601.553 0.382544 -3.01281 0
M  V30 6312 H 599.138 0.122812 -1.48894 0
M  V30 6313 H 601.02 2.83303 -3.11958 0
M  V30 6314 H 599.695 2.58376 -1.94996 0
M  V30 6315 H 598.602 0.970039 -3.61305 0
M  V30 6316 H 599.935 1.29528 -4.74851 0
M  V30 6317 N 601.587 1.56661 0.17182 0
M  V30 6318 C 602.836 1.81158 0.886831 0
M  V30 6319 C 603.149 0.679072 1.83434 0
M  V30 6320 O 604.355 0.808964 2.59168 0
M  V30 6321 C 602.811 3.20999 1.6275 0
M  V30 6322 C 602.419 4.42117 0.723652 0
M  V30 6323 C 604.163 3.5479 2.33076 0
M  V30 6324 C 602.07 5.7298 1.46452 0
M  V30 6325 H 601 0.675543 0.334899 0
M  V30 6326 H 603.651 1.82967 0.139765 0
M  V30 6327 H 602.033 3.13506 2.4193 0
M  V30 6328 H 603.207 4.60789 -0.0311485 0
M  V30 6329 H 601.522 4.16197 0.130063 0
M  V30 6330 H 604.119 4.49806 2.89099 0
M  V30 6331 H 604.462 2.79646 3.08389 0
M  V30 6332 H 604.995 3.63834 1.6084 0
M  V30 6333 H 601.734 6.51152 0.753729 0
M  V30 6334 H 601.254 5.58285 2.19266 0
M  V30 6335 H 602.933 6.14916 2.01214 0
M  V30 6336 N 603.065 -0.440357 1.51323 0
M  V30 6337 C 604.028 -1.51679 1.71832 0
M  V30 6338 C 605.028 -1.49648 0.588386 0
M  V30 6339 O 606.218 -1.51724 0.855891 0
M  V30 6340 C 603.35 -2.91228 1.77199 0
M  V30 6341 H 604.543 -1.34799 2.67898 0
M  V30 6342 H 602.096 -0.66883 1.41267 0
M  V30 6343 H 602.831 -3.13516 0.829363 0
M  V30 6344 H 602.616 -2.94107 2.59314 0
M  V30 6345 H 604.106 -3.69321 1.94915 0
M  V30 6346 N 604.543 -1.41418 -0.695603 0
M  V30 6347 C 605.959 -1.23887 -1.00619 0
M  V30 6348 C 606.159 -0.128206 -2.01092 0
M  V30 6349 O 605.215 0.507408 -2.47349 0
M  V30 6350 C 606.528 -2.58816 -1.53083 0
M  V30 6351 C 608.076 -2.65998 -1.64967 0
M  V30 6352 C 608.551 -4.01244 -2.20833 0
M  V30 6353 N 610.042 -4.0309 -2.28194 0
M  V30 6354 C 610.777 -5.04539 -2.72448 0
M  V30 6355 N 610.273 -6.16378 -3.16306 0
M  V30 6356 N 612.066 -4.91901 -2.72011 0
M  V30 6357 H 604.217 -2.12379 -0.0300061 0
M  V30 6358 H 606.48 -0.944958 -0.0758797 0
M  V30 6359 H 606.186 -3.40842 -0.867147 0
M  V30 6360 H 606.06 -2.81299 -2.51298 0
M  V30 6361 H 608.447 -1.84331 -2.30448 0
M  V30 6362 H 608.528 -2.47325 -0.652982 0
M  V30 6363 H 608.172 -4.83359 -1.55968 0
M  V30 6364 H 608.102 -4.17257 -3.21254 0
M  V30 6365 H 610.593 -3.22341 -1.97242 0
M  V30 6366 H 610.906 -6.89658 -3.487 0
M  V30 6367 H 609.251 -6.19914 -3.14215 0
M  V30 6368 H 612.442 -4.03613 -2.37095 0
M  V30 6369 H 612.615 -5.71102 -3.06181 0
M  V30 6370 N 606.021 0.929856 -1.27246 0
M  V30 6371 C 607.437 1.20542 -1.04603 0
M  V30 6372 C 607.637 2.00276 0.221754 0
M  V30 6373 O 606.693 2.34835 0.927833 0
M  V30 6374 C 608.006 1.95566 -2.28417 0
M  V30 6375 C 609.554 2.08513 -2.33433 0
M  V30 6376 C 610.029 2.86943 -3.5697 0
M  V30 6377 N 611.52 2.94512 -3.57515 0
M  V30 6378 C 612.255 3.55656 -4.49774 0
M  V30 6379 N 611.751 4.18209 -5.52334 0
M  V30 6380 N 613.544 3.53038 -4.37402 0
M  V30 6381 H 605.695 0.397113 -2.08655 0
M  V30 6382 H 607.958 0.238277 -0.917566 0
M  V30 6383 H 607.664 1.44395 -3.20691 0
M  V30 6384 H 607.538 2.9619 -2.33563 0
M  V30 6385 H 609.925 2.58872 -1.41666 0
M  V30 6386 H 610.006 1.07117 -2.32292 0
M  V30 6387 H 609.65 2.37268 -4.49072 0
M  V30 6388 H 609.58 3.8862 -3.55362 0
M  V30 6389 H 612.071 2.50053 -2.83341 0
M  V30 6390 H 612.384 4.62796 -6.18902 0
M  V30 6391 H 610.729 4.16761 -5.56179 0
M  V30 6392 H 613.92 3.0337 -3.56489 0
M  V30 6393 H 614.093 4.004 -5.09493 0
M  V30 6394 N 607.499 1.09233 1.13605 0
M  V30 6395 C 608.727 0.848908 1.88683 0
M  V30 6396 C 609.142 -0.599667 1.79024 0
M  V30 6397 O 608.499 -1.41265 1.15544 0
M  V30 6398 C 608.55 1.27273 3.38355 0
M  V30 6399 O 608.271 2.66449 3.47759 0
M  V30 6400 C 609.772 1.0614 4.30406 0
M  V30 6401 H 606.992 0.305549 0.597395 0
M  V30 6402 H 609.536 1.4538 1.43823 0
M  V30 6403 H 607.691 0.711776 3.80805 0
M  V30 6404 H 608.105 2.84264 4.40788 0
M  V30 6405 H 609.579 1.40725 5.33761 0
M  V30 6406 H 610.056 -0.000960332 4.392 0
M  V30 6407 H 610.662 1.60821 3.93722 0
M  V30 6408 N 608.977 -1.30795 0.87923 0
M  V30 6409 C 610.226 -1.95636 0.490875 0
M  V30 6410 C 610.539 -1.70214 -0.963674 0
M  V30 6411 O 611.745 -2.28991 -1.45861 0
M  V30 6412 C 610.201 -3.50271 0.826929 0
M  V30 6413 C 609.809 -3.84521 2.29886 0
M  V30 6414 C 611.553 -4.21456 0.507494 0
M  V30 6415 C 609.46 -5.32309 2.57685 0
M  V30 6416 H 608.39 -0.732238 0.179841 0
M  V30 6417 H 611.041 -1.48829 1.07341 0
M  V30 6418 H 609.423 -3.9562 0.173542 0
M  V30 6419 H 610.597 -3.50102 2.99609 0
M  V30 6420 H 608.912 -3.26425 2.58526 0
M  V30 6421 H 611.509 -5.30199 0.692293 0
M  V30 6422 H 611.852 -4.12614 -0.552718 0
M  V30 6423 H 612.385 -3.81772 1.11782 0
M  V30 6424 H 609.124 -5.46195 3.62424 0
M  V30 6425 H 608.644 -5.68048 1.92566 0
M  V30 6426 H 610.323 -5.99678 2.42889 0
M  V30 6427 N 610.455 -0.639598 -1.44038 0
M  V30 6428 C 611.701 -0.147698 -2.02261 0
M  V30 6429 C 612.034 1.23031 -1.50256 0
M  V30 6430 O 611.309 1.81847 -0.690068 0
M  V30 6431 C 611.592 -0.14362 -3.59813 0
M  V30 6432 C 611.445 -1.55458 -4.22082 0
M  V30 6433 C 612.764 0.527317 -4.36929 0
M  V30 6434 H 609.883 -0.0551453 -0.734934 0
M  V30 6435 H 612.525 -0.817688 -1.71505 0
M  V30 6436 H 610.675 0.426898 -3.86147 0
M  V30 6437 H 612.347 -2.17464 -4.06826 0
M  V30 6438 H 610.59 -2.10594 -3.79253 0
M  V30 6439 H 611.261 -1.50369 -5.31124 0
M  V30 6440 H 613.737 0.0420504 -4.16079 0
M  V30 6441 H 612.613 0.499389 -5.46624 0
M  V30 6442 H 612.874 1.59914 -4.12165 0
M  V30 6443 N 611.933 1.52934 -0.380664 0
M  V30 6444 C 612.881 2.27727 0.47361 0
M  V30 6445 C 613.875 1.31288 1.0705 0
M  V30 6446 O 615.081 1.4886 1.01197 0
M  V30 6447 H 611.456 0.732189 0.171475 0
M  V30 6448 H 613.427 2.97864 -0.178785 0
M  V30 6449 C 612.176 3.0904 1.59341 0
M  V30 6450 H 611.499 3.831 1.14343 0
M  V30 6451 H 612.939 3.64527 2.16555 0
M  V30 6452 C 611.398 2.20813 2.54447 0
M  V30 6453 O 611.928 1.82907 3.57642 0
M  V30 6454 N 610.134 1.85145 2.23986 0
M  V30 6455 H 609.681 2.16169 1.40103 0
M  V30 6456 H 609.639 1.26402 2.87871 0
M  V30 6457 N 613.412 0.11024 1.57214 0
M  V30 6458 C 614.66 -0.548783 1.94506 0
M  V30 6459 C 614.981 -1.67772 0.99386 0
M  V30 6460 O 614.251 -1.9584 0.0485841 0
M  V30 6461 H 612.831 -0.205715 0.718116 0
M  V30 6462 H 615.493 0.177127 1.94093 0
M  V30 6463 H 614.589 -0.949096 2.97319 0
M  V30 6464 N 614.89 -1.56749 -0.16351 0
M  V30 6465 C 616.139 -1.81626 -0.877211 0
M  V30 6466 C 616.452 -0.688791 -1.83071 0
M  V30 6467 O 617.658 -0.822697 -2.58735 0
M  V30 6468 C 616.114 -3.21858 -1.61045 0
M  V30 6469 C 615.722 -4.42494 -0.700195 0
M  V30 6470 C 617.466 -3.56021 -2.31192 0
M  V30 6471 C 615.373 -5.73748 -1.43412 0
M  V30 6472 H 614.303 -0.67731 -0.331312 0
M  V30 6473 H 616.954 -1.83039 -0.13006 0
M  V30 6474 H 615.336 -3.14784 -2.40264 0
M  V30 6475 H 616.51 -4.60766 0.0555849 0
M  V30 6476 H 614.825 -4.1626 -0.10799 0
M  V30 6477 H 617.422 -4.51333 -2.8671 0
M  V30 6478 H 617.765 -2.81277 -3.06902 0
M  V30 6479 H 618.298 -3.64682 -1.58909 0
M  V30 6480 H 615.037 -6.51543 -0.719186 0
M  V30 6481 H 614.557 -5.5944 -2.16302 0
M  V30 6482 H 616.236 -6.15975 -1.9795 0
M  V30 6483 N 616.368 0.432326 -1.51554 0
M  V30 6484 C 617.614 1.18309 -1.64714 0
M  V30 6485 C 617.947 1.90745 -0.364696 0
M  V30 6486 O 617.222 1.8381 0.635936 0
M  V30 6487 C 617.505 2.1961 -2.85383 0
M  V30 6488 C 617.358 1.51223 -4.23617 0
M  V30 6489 C 618.677 3.20538 -3.01569 0
M  V30 6490 H 615.796 0.428751 -0.599451 0
M  V30 6491 H 618.438 0.471689 -1.84052 0
M  V30 6492 H 616.588 2.8028 -2.69027 0
M  V30 6493 H 618.26 0.938516 -4.51652 0
M  V30 6494 H 616.503 0.814501 -4.26085 0
M  V30 6495 H 617.174 2.25024 -5.04052 0
M  V30 6496 H 619.65 2.69926 -3.16669 0
M  V30 6497 H 618.526 3.88706 -3.87555 0
M  V30 6498 H 618.787 3.86933 -2.13859 0
M  V30 6499 N 617.846 1.41785 0.688094 0
M  V30 6500 C 618.756 1.46596 1.83158 0
M  V30 6501 C 619.772 0.355862 1.70322 0
M  V30 6502 O 620.948 0.604737 1.92106 0
M  V30 6503 C 618.013 1.35322 3.192 0
M  V30 6504 C 617.074 2.56711 3.4409 0
M  V30 6505 C 616.307 2.45965 4.73642 0
M  V30 6506 O 616.53 1.48827 5.50642 0
M  V30 6507 O 615.464 3.35859 4.99482 0
M  V30 6508 H 619.29 2.43083 1.82056 0
M  V30 6509 H 616.875 1.23404 0.842126 0
M  V30 6510 H 618.757 1.31347 4.00407 0
M  V30 6511 H 617.432 0.419536 3.2097 0
M  V30 6512 H 616.339 2.66262 2.62784 0
M  V30 6513 H 617.672 3.48933 3.47141 0
M  V30 6514 N 619.324 -0.923095 1.27737 0
M  V30 6515 C 620.601 -1.64989 1.05062 0
M  V30 6516 C 620.981 -2.07018 -0.413124 0
M  V30 6517 O 620.329 -1.80797 -1.39731 0
M  V30 6518 C 620.539 -2.84847 2.01652 0
M  V30 6519 C 621.887 -3.56083 2.31279 0
M  V30 6520 O 622.911 -2.94981 1.99662 0
M  V30 6521 O 621.77 -4.66182 2.85196 0
M  V30 6522 H 618.864 -0.723357 0.400853 0
M  V30 6523 H 621.41 -0.973224 1.3902 0
M  V30 6524 H 620.182 -2.50814 3.00347 0
M  V30 6525 H 619.805 -3.60231 1.68284 0
M  V30 6526 N 620.802 -1.09834 -1.13024 0
M  V30 6527 C 622.032 -0.857657 -1.87957 0
M  V30 6528 C 622.44 0.595008 -1.796 0
M  V30 6529 O 621.783 1.42158 -1.16347 0
M  V30 6530 C 621.845 -1.21949 -3.38185 0
M  V30 6531 C 621.509 -2.67791 -3.7032 0
M  V30 6532 C 622.506 -3.66036 -3.69207 0
M  V30 6533 C 620.191 -3.04019 -3.99847 0
M  V30 6534 C 622.185 -4.98533 -3.9717 0
M  V30 6535 C 619.872 -4.36706 -4.27471 0
M  V30 6536 C 620.87 -5.33772 -4.26118 0
M  V30 6537 O 620.558 -6.64072 -4.53061 0
M  V30 6538 H 620.29 -0.308009 -0.601753 0
M  V30 6539 H 622.844 -1.46496 -1.43973 0
M  V30 6540 H 621.074 -0.555249 -3.82693 0
M  V30 6541 H 622.763 -0.957281 -3.9445 0
M  V30 6542 H 623.529 -3.39392 -3.46465 0
M  V30 6543 H 619.408 -2.29096 -4.00045 0
M  V30 6544 H 622.952 -5.74288 -3.96029 0
M  V30 6545 H 618.849 -4.63091 -4.49685 0
M  V30 6546 H 619.617 -6.69608 -4.7071 0
M  V30 6547 N 622.28 1.30327 -0.886154 0
M  V30 6548 C 623.696 1.48676 -0.580323 0
M  V30 6549 C 623.896 1.81189 0.881639 0
M  V30 6550 O 622.952 1.90021 1.66278 0
M  V30 6551 C 624.265 2.60932 -1.49449 0
M  V30 6552 C 625.813 2.74812 -1.49824 0
M  V30 6553 C 626.288 3.90183 -2.39836 0
M  V30 6554 N 627.779 3.97495 -2.37806 0
M  V30 6555 C 628.514 4.86078 -3.04165 0
M  V30 6556 N 628.01 5.79448 -3.79753 0
M  V30 6557 N 629.803 4.79456 -2.93391 0
M  V30 6558 H 621.954 1.07495 -1.8319 0
M  V30 6559 H 624.217 0.532661 -0.784204 0
M  V30 6560 H 623.923 2.43731 -2.5355 0
M  V30 6561 H 623.797 3.57437 -1.20494 0
M  V30 6562 H 626.184 2.91418 -0.464731 0
M  V30 6563 H 626.265 1.78924 -1.82811 0
M  V30 6564 H 625.909 3.74334 -3.43273 0
M  V30 6565 H 625.839 4.85411 -2.04166 0
M  V30 6566 H 628.33 3.30703 -1.82877 0
M  V30 6567 H 628.643 6.43805 -4.27475 0
M  V30 6568 H 626.988 5.79376 -3.8386 0
M  V30 6569 H 630.179 4.05494 -2.33864 0
M  V30 6570 H 630.352 5.48283 -3.45383 0
M  V30 6571 N 623.758 0.647228 1.43697 0
M  V30 6572 C 625.169 0.238689 1.85168 0
M  V30 6573 C 625.52 -1.21345 1.54175 0
M  V30 6574 O 624.645 -1.92542 0.987743 0
M  V30 6575 C 625.24 0.426422 3.36106 0
M  V30 6576 C 623.799 0.0722541 3.76331 0
M  V30 6577 C 622.946 0.732153 2.6746 0
M  V30 6578 H 625.897 0.851309 1.33934 0
M  V30 6579 H 625.918 -0.32987 3.79067 0
M  V30 6580 H 625.43 1.48339 3.58632 0
M  V30 6581 H 623.531 -0.982355 3.59417 0
M  V30 6582 H 623.644 0.493541 4.76551 0
M  V30 6583 H 622.008 0.16594 2.54159 0
M  V30 6584 H 622.791 1.79204 2.92816 0
M  V30 6585 N 625.236 -1.5273 0.388769 0
M  V30 6586 C 626.647 -1.86505 -0.0853788 0
M  V30 6587 C 626.998 -1.30847 -1.46197 0
M  V30 6588 O 626.123 -0.639609 -2.06732 0
M  V30 6589 C 626.718 -3.38414 -0.161703 0
M  V30 6590 C 625.277 -3.71902 -0.580144 0
M  V30 6591 C 624.424 -2.76095 0.258218 0
M  V30 6592 H 627.375 -1.46647 0.606665 0
M  V30 6593 H 627.396 -3.67638 -0.980936 0
M  V30 6594 H 626.908 -3.78893 0.840333 0
M  V30 6595 H 625.009 -3.36992 -1.58957 0
M  V30 6596 H 625.122 -4.77902 -0.338663 0
M  V30 6597 H 623.486 -2.53195 -0.276432 0
M  V30 6598 H 624.269 -3.19411 1.25822 0
M  V30 6599 N 626.714 -0.118576 -1.57153 0
M  V30 6600 C 627.961 0.539526 -1.9518 0
M  V30 6601 C 628.289 1.66714 -1.00184 0
M  V30 6602 O 627.544 1.95683 -0.0256482 0
M  V30 6603 C 627.843 1.11303 -3.39627 0
M  V30 6604 C 627.509 0.106809 -4.50773 0
M  V30 6605 C 626.171 -0.169876 -4.809 0
M  V30 6606 C 628.523 -0.57895 -5.17975 0
M  V30 6607 C 625.851 -1.13861 -5.75545 0
M  V30 6608 C 628.203 -1.53631 -6.13661 0
M  V30 6609 C 626.867 -1.82099 -6.42181 0
M  V30 6610 H 626.137 0.197427 -0.714215 0
M  V30 6611 H 628.784 -0.199391 -1.90459 0
M  V30 6612 H 627.089 1.92869 -3.4104 0
M  V30 6613 H 628.786 1.63032 -3.66363 0
M  V30 6614 H 625.376 0.332645 -4.27307 0
M  V30 6615 H 629.56 -0.378359 -4.94856 0
M  V30 6616 H 624.816 -1.36592 -5.95947 0
M  V30 6617 H 628.99 -2.07337 -6.64819 0
M  V30 6618 H 626.617 -2.57319 -7.15326 0
M  V30 6619 N 628.193 1.56834 0.155195 0
M  V30 6620 C 629.423 1.86778 0.883044 0
M  V30 6621 C 629.831 0.703824 1.75622 0
M  V30 6622 O 629.174 -0.33581 1.80605 0
M  V30 6623 C 629.236 3.1133 1.79761 0
M  V30 6624 C 628.9 4.43504 1.10242 0
M  V30 6625 C 629.897 5.17859 0.460204 0
M  V30 6626 C 627.582 4.90233 1.09437 0
M  V30 6627 C 629.576 6.37144 -0.180782 0
M  V30 6628 C 627.263 6.09444 0.449569 0
M  V30 6629 C 628.261 6.82744 -0.186888 0
M  V30 6630 O 627.949 7.99692 -0.821486 0
M  V30 6631 H 627.681 0.62352 0.261149 0
M  V30 6632 H 630.235 2.04813 0.155204 0
M  V30 6633 H 628.465 2.89282 2.56618 0
M  V30 6634 H 630.154 3.27587 2.39669 0
M  V30 6635 H 630.92 4.8283 0.458289 0
M  V30 6636 H 626.799 4.33109 1.57917 0
M  V30 6637 H 630.343 6.94296 -0.678154 0
M  V30 6638 H 626.24 6.43936 0.449123 0
M  V30 6639 H 627.008 8.15306 -0.722337 0
M  V30 6640 N 629.671 -0.424282 1.51781 0
M  V30 6641 C 630.948 -1.18464 1.55646 0
M  V30 6642 C 631.328 -2.08529 0.328438 0
M  V30 6643 O 630.676 -2.17969 -0.685693 0
M  V30 6644 C 630.886 -1.97514 2.87731 0
M  V30 6645 C 632.234 -2.54106 3.40169 0
M  V30 6646 O 633.258 -2.07711 2.89369 0
M  V30 6647 O 632.117 -3.38759 4.28841 0
M  V30 6648 H 629.211 -0.540055 0.626314 0
M  V30 6649 H 631.757 -0.432291 1.64102 0
M  V30 6650 H 630.529 -1.31444 3.68562 0
M  V30 6651 H 630.152 -2.79787 2.82498 0
M  V30 6652 N 631.149 -1.42148 -0.680565 0
M  V30 6653 C 632.395 -1.42521 -1.44277 0
M  V30 6654 C 632.728 -0.0393718 -1.9416 0
M  V30 6655 O 632.003 0.935425 -1.70529 0
M  V30 6656 C 632.286 -2.44475 -2.64394 0
M  V30 6657 C 632.139 -3.92226 -2.20179 0
M  V30 6658 C 633.458 -2.43491 -3.66606 0
M  V30 6659 H 630.577 -0.518985 -0.523282 0
M  V30 6660 H 633.219 -1.73524 -0.773914 0
M  V30 6661 H 631.369 -2.18168 -3.21458 0
M  V30 6662 H 633.041 -4.29493 -1.68327 0
M  V30 6663 H 631.284 -4.0637 -1.5181 0
M  V30 6664 H 631.955 -4.59133 -3.06433 0
M  V30 6665 H 634.431 -2.66872 -3.19247 0
M  V30 6666 H 633.307 -3.16816 -4.4824 0
M  V30 6667 H 633.568 -1.45881 -4.17338 0
M  V30 6668 N 632.627 0.916307 -1.28225 0
M  V30 6669 C 633.873 1.66765 -1.154 0
M  V30 6670 C 634.206 1.91912 0.297251 0
M  V30 6671 O 633.481 1.51766 1.21644 0
M  V30 6672 C 633.764 3.02715 -1.95028 0
M  V30 6673 C 633.617 2.84738 -3.48201 0
M  V30 6674 C 634.936 4.03215 -1.76369 0
M  V30 6675 H 632.055 0.605205 -0.42059 0
M  V30 6676 H 634.697 1.06255 -1.57512 0
M  V30 6677 H 632.847 3.54365 -1.59242 0
M  V30 6678 H 634.519 2.40118 -3.9388 0
M  V30 6679 H 632.762 2.19848 -3.73964 0
M  V30 6680 H 633.433 3.8127 -3.99171 0
M  V30 6681 H 635.909 3.60617 -2.07593 0
M  V30 6682 H 634.785 4.96306 -2.34459 0
M  V30 6683 H 635.046 4.36288 -0.71452 0
M  V30 6684 N 634.105 1.10431 1.1244 0
M  V30 6685 C 635.516 0.864439 1.65482 0
M  V30 6686 C 635.867 -0.60527 1.8663 0
M  V30 6687 O 634.992 -1.46492 1.59276 0
M  V30 6688 C 635.587 1.56267 3.0061 0
M  V30 6689 C 634.146 1.3695 3.50602 0
M  V30 6690 C 633.293 1.61209 2.25626 0
M  V30 6691 H 636.244 1.26203 0.962209 0
M  V30 6692 H 636.265 1.00166 3.67079 0
M  V30 6693 H 635.777 2.63231 2.85186 0
M  V30 6694 H 633.878 0.321481 3.71211 0
M  V30 6695 H 633.991 2.11143 4.30064 0
M  V30 6696 H 632.355 1.03482 2.32731 0
M  V30 6697 H 633.138 2.69425 2.12756 0
M  V30 6698 N 635.583 -1.29855 0.893053 0
M  V30 6699 C 636.531 -2.29867 0.355512 0
M  V30 6700 C 637.525 -1.60502 -0.541801 0
M  V30 6701 O 638.731 -1.74902 -0.425339 0
M  V30 6702 H 635.106 -0.745805 0.0963247 0
M  V30 6703 H 637.077 -2.72655 1.21252 0
M  V30 6704 C 635.826 -3.453 -0.407801 0
M  V30 6705 H 635.149 -3.98864 0.273426 0
M  V30 6706 H 636.589 -4.17334 -0.748887 0
M  V30 6707 C 635.048 -2.96051 -1.60795 0
M  V30 6708 O 635.578 -2.96763 -2.7073 0
M  V30 6709 N 633.784 -2.51963 -1.44786 0
M  V30 6710 H 633.331 -2.51583 -0.553498 0
M  V30 6711 H 633.289 -2.1937 -2.2522 0
M  V30 6712 N 637.061 -0.65484 -1.43351 0
M  V30 6713 C 638.338 -0.0987371 -1.95351 0
M  V30 6714 C 638.718 1.38161 -1.59608 0
M  V30 6715 O 638.066 2.10791 -0.882021 0
M  V30 6716 C 638.276 -0.346684 -3.47274 0
M  V30 6717 C 639.624 -0.25249 -4.23849 0
M  V30 6718 O 640.648 -0.279332 -3.55103 0
M  V30 6719 O 639.507 -0.177584 -5.46211 0
M  V30 6720 H 636.601 0.0086829 -0.826954 0
M  V30 6721 H 639.147 -0.728189 -1.53282 0
M  V30 6722 H 637.919 -1.37296 -3.66423 0
M  V30 6723 H 637.542 0.315757 -3.96344 0
M  V30 6724 N 638.539 1.52521 -0.396863 0
M  V30 6725 C 639.95 1.86547 0.0754868 0
M  V30 6726 C 640.301 1.31621 1.45501 0
M  V30 6727 O 639.426 0.650563 2.0639 0
M  V30 6728 C 640.021 3.38495 0.143754 0
M  V30 6729 C 638.58 3.72205 0.560413 0
M  V30 6730 C 637.727 2.75954 -0.272856 0
M  V30 6731 H 640.678 1.46323 -0.614434 0
M  V30 6732 H 640.699 3.68153 0.961425 0
M  V30 6733 H 640.211 3.78442 -0.860415 0
M  V30 6734 H 638.312 3.3783 1.57167 0
M  V30 6735 H 638.425 4.78074 0.313314 0
M  V30 6736 H 636.789 2.53339 0.263 0
M  V30 6737 H 637.572 3.1874 -1.27515 0
M  V30 6738 N 640.017 0.126909 1.57088 0
M  V30 6739 C 641.242 -0.53997 2.00248 0
M  V30 6740 C 641.667 -1.58927 1.00618 0
M  V30 6741 O 641.025 -1.81288 -0.0210131 0
M  V30 6742 C 641.073 -1.13565 3.4225 0
M  V30 6743 O 640.177 -2.25103 3.45547 0
M  V30 6744 H 639.518 -0.13412 0.650314 0
M  V30 6745 H 642.048 0.217718 2.03438 0
M  V30 6746 H 642.058 -1.46925 3.80627 0
M  V30 6747 H 640.733 -0.367122 4.14277 0
M  V30 6748 H 639.31 -1.93123 3.18995 0
M  V30 6749 N 641.495 -1.56914 -0.146875 0
M  V30 6750 C 642.742 -1.83356 -0.859467 0
M  V30 6751 C 643.07 -0.707811 -1.81164 0
M  V30 6752 O 642.325 0.303155 -1.93338 0
M  V30 6753 C 642.624 -3.16128 -1.66727 0
M  V30 6754 C 642.29 -4.42586 -0.861881 0
M  V30 6755 C 640.952 -4.76929 -0.639687 0
M  V30 6756 C 643.304 -5.20344 -0.298643 0
M  V30 6757 C 640.632 -5.86491 0.156451 0
M  V30 6758 C 642.984 -6.30742 0.484536 0
M  V30 6759 C 641.648 -6.63635 0.717306 0
M  V30 6760 H 640.918 -0.670947 -0.314501 0
M  V30 6761 H 643.565 -1.91104 -0.123108 0
M  V30 6762 H 641.87 -3.03831 -2.47374 0
M  V30 6763 H 643.567 -3.33802 -2.2221 0
M  V30 6764 H 640.157 -4.15662 -1.04513 0
M  V30 6765 H 644.341 -4.94186 -0.457585 0
M  V30 6766 H 639.597 -6.10419 0.346292 0
M  V30 6767 H 643.771 -6.90188 0.928105 0
M  V30 6768 H 641.398 -7.48367 1.33607 0
M  V30 6769 N 642.974 0.416227 -1.52004 0
M  V30 6770 C 643.884 1.53147 -1.77717 0
M  V30 6771 C 644.9 1.609 -0.662368 0
M  V30 6772 O 646.076 1.77747 -0.946991 0
M  V30 6773 C 643.141 2.88948 -1.91598 0
M  V30 6774 C 642.202 2.9114 -3.15493 0
M  V30 6775 C 641.435 4.20464 -3.28703 0
M  V30 6776 O 641.658 5.13981 -2.47345 0
M  V30 6777 O 640.592 4.29368 -4.21813 0
M  V30 6778 H 644.418 1.34357 -2.72363 0
M  V30 6779 H 642.003 0.601373 -1.36762 0
M  V30 6780 H 643.885 3.69505 -2.02593 0
M  V30 6781 H 642.56 3.07821 -1.00141 0
M  V30 6782 H 641.467 2.09461 -3.09962 0
M  V30 6783 H 642.8 2.77216 -4.06709 0
M  V30 6784 N 644.452 1.42507 0.673017 0
M  V30 6785 C 645.729 1.33554 1.42908 0
M  V30 6786 C 646.109 -0.0262211 2.11084 0
M  V30 6787 O 645.457 -1.04181 2.03368 0
M  V30 6788 C 645.667 2.50498 2.43006 0
M  V30 6789 C 647.015 2.92694 3.07596 0
M  V30 6790 O 648.039 2.50401 2.53333 0
M  V30 6791 O 646.898 3.65899 4.05931 0
M  V30 6792 H 643.992 0.526785 0.637516 0
M  V30 6793 H 646.538 1.54518 0.701591 0
M  V30 6794 H 645.31 3.41272 1.9144 0
M  V30 6795 H 644.933 2.3153 3.23233 0
M  V30 6796 N 645.93 -0.909495 1.28709 0
M  V30 6797 C 646.863 -2.01388 1.07323 0
M  V30 6798 C 647.841 -1.62596 -0.0119757 0
M  V30 6799 O 649.025 -1.88003 0.136796 0
M  V30 6800 C 646.152 -3.32755 0.631797 0
M  V30 6801 C 645.198 -3.90532 1.71428 0
M  V30 6802 S 646.031 -4.20853 3.31124 0
M  V30 6803 C 647.187 -5.55276 2.88825 0
M  V30 6804 H 647.42 -2.19219 2.00824 0
M  V30 6805 H 644.953 -1.05489 1.12745 0
M  V30 6806 H 646.911 -4.08702 0.38381 0
M  V30 6807 H 645.572 -3.12818 -0.283451 0
M  V30 6808 H 644.765 -4.85385 1.35712 0
M  V30 6809 H 644.367 -3.21237 1.91528 0
M  V30 6810 H 646.659 -6.35341 2.3526 0
M  V30 6811 H 647.602 -5.95907 3.82492 0
M  V30 6812 H 648.01 -5.16666 2.27412 0
M  V30 6813 N 647.408 -1.11026 -1.11852 0
M  V30 6814 C 648.355 -0.764662 -2.17765 0
M  V30 6815 C 649.325 0.261854 -1.64023 0
M  V30 6816 O 650.51 0.139748 -1.90288 0
M  V30 6817 C 647.65 -0.209317 -3.44465 0
M  V30 6818 C 646.763 -1.29187 -4.12231 0
M  V30 6819 C 645.898 -0.697523 -5.266 0
M  V30 6820 C 644.937 -1.76023 -5.86244 0
M  V30 6821 N 644.074 -1.18569 -6.92016 0
M  V30 6822 H 648.914 -1.67202 -2.46673 0
M  V30 6823 H 646.451 -0.835065 -1.21099 0
M  V30 6824 H 648.409 0.130599 -4.16996 0
M  V30 6825 H 647.039 0.661251 -3.15955 0
M  V30 6826 H 646.091 -1.74881 -3.37818 0
M  V30 6827 H 647.403 -2.09607 -4.52622 0
M  V30 6828 H 646.557 -0.307412 -6.05921 0
M  V30 6829 H 645.296 0.138044 -4.87505 0
M  V30 6830 H 644.301 -2.1597 -5.05606 0
M  V30 6831 H 645.526 -2.59875 -6.27409 0
M  V30 6832 H 643.472 -0.371695 -6.54946 0
M  V30 6833 H 643.389 -1.92666 -7.31038 0
M  V30 6834 H 644.657 -0.82233 -7.7515 0
M  V30 6835 N 648.886 1.2938 -0.899927 0
M  V30 6836 C 649.833 2.27713 -0.376243 0
M  V30 6837 C 650.803 1.57016 0.541774 0
M  V30 6838 O 651.988 1.84997 0.466966 0
M  V30 6839 C 649.128 3.42889 0.39 0
M  V30 6840 C 648.241 4.28369 -0.558938 0
M  V30 6841 C 647.376 5.30726 0.224379 0
M  V30 6842 C 646.415 6.07862 -0.719068 0
M  V30 6843 N 645.552 7.02094 0.0298569 0
M  V30 6844 H 650.392 2.71888 -1.21988 0
M  V30 6845 H 647.929 1.33724 -0.612879 0
M  V30 6846 H 649.887 4.08443 0.850314 0
M  V30 6847 H 648.517 2.99743 1.19809 0
M  V30 6848 H 647.569 3.62986 -1.13777 0
M  V30 6849 H 648.881 4.82068 -1.2811 0
M  V30 6850 H 648.035 6.02098 0.745881 0
M  V30 6851 H 646.774 4.77759 0.979674 0
M  V30 6852 H 645.779 5.35353 -1.25207 0
M  V30 6853 H 647.004 6.62917 -1.4737 0
M  V30 6854 H 644.95 6.51496 0.767415 0
M  V30 6855 H 644.867 7.5335 -0.632391 0
M  V30 6856 H 646.135 7.77685 0.531615 0
M  V30 6857 N 650.364 0.662433 1.43002 0
M  V30 6858 C 651.61 0.179857 2.02001 0
M  V30 6859 C 651.943 -1.20625 1.52195 0
M  V30 6860 O 651.218 -1.80726 0.718911 0
M  V30 6861 C 651.501 0.200845 3.59539 0
M  V30 6862 C 651.354 1.62153 4.19555 0
M  V30 6863 C 652.673 -0.457738 4.37713 0
M  V30 6864 H 649.792 0.0668305 0.733964 0
M  V30 6865 H 652.434 0.84487 1.70182 0
M  V30 6866 H 650.584 -0.365411 3.86778 0
M  V30 6867 H 652.256 2.23908 4.03315 0
M  V30 6868 H 650.499 2.16601 3.75854 0
M  V30 6869 H 651.17 1.58799 5.28665 0
M  V30 6870 H 653.646 0.0241495 4.16093 0
M  V30 6871 H 652.522 -0.412363 5.47349 0
M  V30 6872 H 652.783 -1.53336 4.14657 0
M  V30 6873 N 651.842 -1.52309 0.404946 0
M  V30 6874 C 653.088 -2.02065 -0.172455 0
M  V30 6875 C 653.421 -1.29022 -1.45145 0
M  V30 6876 O 652.696 -0.395284 -1.90441 0
M  V30 6877 C 652.979 -3.5759 -0.424433 0
M  V30 6878 C 652.832 -4.41287 0.870945 0
M  V30 6879 C 654.151 -4.23186 -1.20837 0
M  V30 6880 H 651.27 -0.734454 -0.0612035 0
M  V30 6881 H 653.912 -1.82236 0.53759 0
M  V30 6882 H 652.062 -3.74617 -1.02929 0
M  V30 6883 H 653.734 -4.3598 1.50729 0
M  V30 6884 H 651.977 -4.07669 1.48284 0
M  V30 6885 H 652.648 -5.48171 0.649083 0
M  V30 6886 H 655.124 -4.10232 -0.696338 0
M  V30 6887 H 654 -5.31953 -1.35343 0
M  V30 6888 H 654.261 -3.81862 -2.22786 0
M  V30 6889 N 653.32 -0.135238 -1.57019 0
M  V30 6890 C 654.56 0.521686 -1.9763 0
M  V30 6891 C 654.924 1.62804 -1.01778 0
M  V30 6892 O 656.125 2.345 -1.31389 0
M  V30 6893 C 654.396 1.0257 -3.42365 0
M  V30 6894 S 655.955 1.68888 -4.04997 0
M  V30 6895 H 652.773 0.169064 -0.690607 0
M  V30 6896 H 655.375 -0.224168 -1.94211 0
M  V30 6897 H 654.079 0.209556 -4.09865 0
M  V30 6898 H 653.61 1.80645 -3.49472 0
M  V30 6899 H 655.625 2.97554 -3.97084 0
M  V30 6900 N 654.798 1.5699 0.138552 0
M  V30 6901 C 656.044 1.84081 0.85099 0
M  V30 6902 C 656.377 0.718107 1.80435 0
M  V30 6903 O 655.652 -0.277633 1.92508 0
M  V30 6904 C 655.935 3.21699 1.61808 0
M  V30 6905 C 655.788 4.44544 0.685633 0
M  V30 6906 C 657.107 3.5664 2.57868 0
M  V30 6907 H 654.226 0.669592 0.307922 0
M  V30 6908 H 656.868 1.89646 0.11588 0
M  V30 6909 H 655.018 3.17086 2.24474 0
M  V30 6910 H 656.69 4.61248 0.0693179 0
M  V30 6911 H 654.933 4.338 -0.00421993 0
M  V30 6912 H 655.604 5.3746 1.25858 0
M  V30 6913 H 658.08 3.61918 2.05316 0
M  V30 6914 H 656.956 4.53946 3.08584 0
M  V30 6915 H 657.217 2.83036 3.39622 0
M  V30 6916 N 656.276 -0.40816 1.52223 0
M  V30 6917 C 657.553 -1.16807 1.56893 0
M  V30 6918 C 657.933 -2.08169 0.350537 0
M  V30 6919 O 657.281 -2.18684 -0.662536 0
M  V30 6920 C 657.491 -1.94451 2.8981 0
M  V30 6921 C 658.839 -2.50484 3.42845 0
M  V30 6922 O 659.863 -2.0463 2.91556 0
M  V30 6923 O 658.722 -3.34192 4.3241 0
M  V30 6924 H 655.816 -0.533382 0.632007 0
M  V30 6925 H 658.362 -0.414862 1.64551 0
M  V30 6926 H 657.134 -1.27527 3.69936 0
M  V30 6927 H 656.757 -2.76775 2.85449 0
M  V30 6928 N 657.755 -1.42862 -0.66545 0
M  V30 6929 C 658.687 -1.43026 -1.79098 0
M  V30 6930 C 659.7 -0.32803 -1.59461 0
M  V30 6931 O 660.889 -0.591709 -1.68407 0
M  V30 6932 C 657.989 -1.21566 -3.16346 0
M  V30 6933 C 657.162 -2.44399 -3.62751 0
M  V30 6934 C 656.221 -2.18344 -4.78761 0
M  V30 6935 O 655.247 -2.91611 -4.88827 0
M  V30 6936 N 656.449 -1.1924 -5.68122 0
M  V30 6937 H 659.214 -2.40045 -1.79439 0
M  V30 6938 H 656.775 -1.37861 -0.848872 0
M  V30 6939 H 658.767 -1.02037 -3.91625 0
M  V30 6940 H 657.337 -0.330368 -3.10849 0
M  V30 6941 H 656.557 -2.79433 -2.78048 0
M  V30 6942 H 657.845 -3.26173 -3.90498 0
M  V30 6943 H 657.243 -0.586603 -5.6265 0
M  V30 6944 H 655.8 -1.05698 -6.43173 0
M  V30 6945 N 659.233 0.902656 -1.29189 0
M  V30 6946 C 660.165 2.01149 -1.09872 0
M  V30 6947 C 661.178 1.62732 -0.0471046 0
M  V30 6948 O 662.367 1.76107 -0.29132 0
M  V30 6949 C 659.467 3.32612 -0.649818 0
M  V30 6950 C 658.64 3.99574 -1.7793 0
M  V30 6951 C 657.699 5.09325 -1.32191 0
M  V30 6952 O 656.725 5.31919 -2.02611 0
M  V30 6953 N 657.927 5.80185 -0.191171 0
M  V30 6954 H 660.692 2.18276 -2.05368 0
M  V30 6955 H 658.253 1.07466 -1.2109 0
M  V30 6956 H 660.245 4.03375 -0.327199 0
M  V30 6957 H 658.815 3.11876 0.212597 0
M  V30 6958 H 658.035 3.22213 -2.27095 0
M  V30 6959 H 659.323 4.41056 -2.53668 0
M  V30 6960 H 658.721 5.64312 0.396016 0
M  V30 6961 H 657.278 6.5176 0.0721001 0
M  V30 6962 N 660.711 1.11618 1.11262 0
M  V30 6963 C 661.939 0.888739 1.8684 0
M  V30 6964 C 662.354 -0.561558 1.80255 0
M  V30 6965 O 661.711 -1.38782 1.18515 0
M  V30 6966 C 661.762 1.34422 3.35579 0
M  V30 6967 O 661.483 2.73766 3.42029 0
M  V30 6968 C 662.984 1.15246 4.28058 0
M  V30 6969 H 660.204 0.318152 0.590779 0
M  V30 6970 H 662.748 1.48398 1.40707 0
M  V30 6971 H 660.903 0.79239 3.7921 0
M  V30 6972 H 661.317 2.9355 4.34659 0
M  V30 6973 H 662.791 1.52015 5.30656 0
M  V30 6974 H 663.268 0.0922007 4.39103 0
M  V30 6975 H 663.874 1.69136 3.90222 0
M  V30 6976 N 662.189 -1.289 0.906776 0
M  V30 6977 C 663.6 -1.77336 0.58384 0
M  V30 6978 C 663.951 -1.74304 -0.900697 0
M  V30 6979 O 663.076 -1.33335 -1.70443 0
M  V30 6980 C 663.671 -3.22019 1.05304 0
M  V30 6981 C 662.23 -3.68205 0.781148 0
M  V30 6982 C 661.377 -2.48837 1.22373 0
M  V30 6983 H 664.328 -1.15462 1.08877 0
M  V30 6984 H 664.349 -3.78481 0.391414 0
M  V30 6985 H 663.861 -3.24194 2.13353 0
M  V30 6986 H 661.962 -3.71497 -0.28643 0
M  V30 6987 H 662.075 -4.58675 1.384 0
M  V30 6988 H 660.439 -2.46461 0.642594 0
M  V30 6989 H 661.222 -2.53736 2.31242 0
M  V30 6990 N 663.667 -0.670007 -1.42649 0
M  V30 6991 C 664.895 -0.19854 -2.05945 0
M  V30 6992 C 665.31 1.14243 -1.50313 0
M  V30 6993 O 664.667 1.70872 -0.641027 0
M  V30 6994 C 664.718 -0.11966 -3.61302 0
M  V30 6995 O 664.439 -1.40764 -4.1487 0
M  V30 6996 C 665.94 0.375878 -4.41704 0
M  V30 6997 H 663.16 -0.0976894 -0.663851 0
M  V30 6998 H 665.704 -0.915392 -1.82868 0
M  V30 6999 H 663.859 0.547851 -3.83507 0
M  V30 7000 H 664.273 -1.27784 -5.08696 0
M  V30 7001 H 665.747 0.379988 -5.50691 0
M  V30 7002 H 666.224 1.41028 -4.15942 0
M  V30 7003 H 666.83 -0.259727 -4.24506 0
M  V30 7004 N 665.145 1.52092 -0.413018 0
M  V30 7005 C 666.394 2.01041 0.16287 0
M  V30 7006 C 666.707 1.30288 1.45892 0
M  V30 7007 O 667.913 1.70075 2.11629 0
M  V30 7008 C 666.369 3.58283 0.340806 0
M  V30 7009 C 665.977 4.37955 -0.943377 0
M  V30 7010 C 667.721 4.15452 0.871774 0
M  V30 7011 C 665.628 5.86847 -0.732417 0
M  V30 7012 H 664.558 0.751224 0.0646414 0
M  V30 7013 H 667.209 1.75404 -0.539059 0
M  V30 7014 H 665.591 3.80266 1.10516 0
M  V30 7015 H 666.765 4.2773 -1.71418 0
M  V30 7016 H 665.08 3.92122 -1.40105 0
M  V30 7017 H 667.677 5.24375 1.0457 0
M  V30 7018 H 668.02 3.73057 1.84755 0
M  V30 7019 H 668.553 3.97452 0.166377 0
M  V30 7020 H 665.292 6.33609 -1.67986 0
M  V30 7021 H 664.812 5.998 -0.000980058 0
M  V30 7022 H 666.491 6.45906 -0.376105 0
M  V30 7023 N 666.623 0.143563 1.56945 0
M  V30 7024 C 668.034 -0.37783 1.82837 0
M  V30 7025 C 668.385 -1.64967 1.06209 0
M  V30 7026 O 667.51 -2.14221 0.306291 0
M  V30 7027 C 668.105 -0.692274 3.31652 0
M  V30 7028 C 666.664 -1.1582 3.58138 0
M  V30 7029 C 665.811 -0.17951 2.76718 0
M  V30 7030 H 668.762 0.368317 1.54367 0
M  V30 7031 H 668.783 -1.54729 3.47619 0
M  V30 7032 H 668.295 0.233572 3.87397 0
M  V30 7033 H 666.396 -2.10011 3.07776 0
M  V30 7034 H 666.509 -1.08655 4.66616 0
M  V30 7035 H 664.873 -0.671458 2.4569 0
M  V30 7036 H 665.656 0.739865 3.35233 0
M  V30 7037 N 668.101 -1.57061 -0.130224 0
M  V30 7038 C 669.049 -2.00486 -1.17933 0
M  V30 7039 C 670.043 -0.899933 -1.43519 0
M  V30 7040 O 671.249 -1.08514 -1.43613 0
M  V30 7041 H 667.624 -0.638441 -0.397363 0
M  V30 7042 H 669.595 -2.87848 -0.786501 0
M  V30 7043 C 668.344 -2.41565 -2.50084 0
M  V30 7044 H 667.667 -3.26148 -2.31231 0
M  V30 7045 H 669.107 -2.75757 -3.22078 0
M  V30 7046 C 667.566 -1.27485 -3.11848 0
M  V30 7047 O 668.096 -0.584688 -3.97422 0
M  V30 7048 N 666.302 -1.03478 -2.71552 0
M  V30 7049 H 665.849 -1.59779 -2.02061 0
M  V30 7050 H 665.807 -0.27341 -3.13209 0
M  V30 7051 N 669.579 0.400081 -1.52437 0
M  V30 7052 C 670.995 0.739359 -1.41441 0
M  V30 7053 C 671.195 1.94512 -0.526053 0
M  V30 7054 O 670.251 2.525 0.00472502 0
M  V30 7055 C 671.564 0.984824 -2.84116 0
M  V30 7056 C 673.112 1.08698 -2.93519 0
M  V30 7057 C 673.587 1.36515 -4.37181 0
M  V30 7058 N 675.078 1.43361 -4.40457 0
M  V30 7059 C 675.813 1.66528 -5.48686 0
M  V30 7060 N 675.309 1.87239 -6.67018 0
M  V30 7061 N 677.102 1.68617 -5.36213 0
M  V30 7062 H 669.253 -0.393484 -2.08723 0
M  V30 7063 H 671.516 -0.1138 -0.941145 0
M  V30 7064 H 671.222 0.171096 -3.51284 0
M  V30 7065 H 671.096 1.90253 -3.25705 0
M  V30 7066 H 673.483 1.89129 -2.26526 0
M  V30 7067 H 673.564 0.147432 -2.55375 0
M  V30 7068 H 673.208 0.565982 -5.04737 0
M  V30 7069 H 673.138 2.31737 -4.7287 0
M  V30 7070 H 675.629 1.29108 -3.55161 0
M  V30 7071 H 675.942 2.04392 -7.45281 0
M  V30 7072 H 674.287 1.84486 -6.70067 0
M  V30 7073 H 677.478 1.5198 -4.42741 0
M  V30 7074 H 677.651 1.86332 -6.20632 0
M  V30 7075 N 671.057 1.43213 0.657864 0
M  V30 7076 C 671.987 1.50815 1.78262 0
M  V30 7077 C 672.968 0.363211 1.66177 0
M  V30 7078 O 674.153 0.579806 1.85343 0
M  V30 7079 C 671.283 1.42625 3.16663 0
M  V30 7080 C 670.237 2.5532 3.43505 0
M  V30 7081 C 669.563 2.32184 4.81658 0
M  V30 7082 C 670.863 3.97583 3.38711 0
M  V30 7083 H 672.557 2.44954 1.72157 0
M  V30 7084 H 670.103 1.17896 0.82683 0
M  V30 7085 H 672.056 1.46548 3.95097 0
M  V30 7086 H 670.78 0.449877 3.23487 0
M  V30 7087 H 669.439 2.50742 2.6744 0
M  V30 7088 H 669.087 1.32801 4.85153 0
M  V30 7089 H 668.787 3.07724 5.00579 0
M  V30 7090 H 670.311 2.37883 5.62356 0
M  V30 7091 H 671.725 4.03673 4.07089 0
M  V30 7092 H 670.122 4.73112 3.69168 0
M  V30 7093 H 671.192 4.23049 2.36976 0
M  V30 7094 N 672.536 -0.895792 1.29666 0
M  V30 7095 C 673.499 -1.98189 1.15124 0
M  V30 7096 C 674.499 -1.60572 0.0855717 0
M  V30 7097 O 675.689 -1.70991 0.332826 0
M  V30 7098 C 672.821 -3.32289 0.761372 0
M  V30 7099 H 674.014 -2.12518 2.11603 0
M  V30 7100 H 671.567 -1.0808 1.12908 0
M  V30 7101 H 672.302 -3.23662 -0.203393 0
M  V30 7102 H 672.087 -3.60958 1.53139 0
M  V30 7103 H 673.577 -4.1198 0.682792 0
M  V30 7104 N 674.014 -1.12206 -1.10668 0
M  V30 7105 C 674.977 -0.790867 -2.15123 0
M  V30 7106 C 675.977 0.193618 -1.5963 0
M  V30 7107 O 677.167 -0.0318728 -1.74171 0
M  V30 7108 C 674.299 -0.174797 -3.40452 0
M  V30 7109 H 675.492 -1.7163 -2.45933 0
M  V30 7110 H 673.045 -0.924993 -1.2599 0
M  V30 7111 H 673.78 0.760478 -3.15257 0
M  V30 7112 H 673.565 -0.88358 -3.82015 0
M  V30 7113 H 675.055 0.0405162 -4.1758 0
M  V30 7114 N 675.492 1.28418 -0.913599 0
M  V30 7115 C 676.769 1.89977 -0.465619 0
M  V30 7116 C 677.149 1.82813 1.05559 0
M  V30 7117 O 676.497 1.26397 1.90358 0
M  V30 7118 C 676.707 3.34492 -0.995813 0
M  V30 7119 C 678.055 4.11468 -1.04782 0
M  V30 7120 O 679.079 3.43451 -0.944445 0
M  V30 7121 O 677.938 5.33046 -1.20518 0
M  V30 7122 H 675.032 0.813734 -0.147532 0
M  V30 7123 H 677.578 1.36786 -1.00437 0
M  V30 7124 H 676.35 3.33929 -2.03978 0
M  V30 7125 H 675.973 3.95181 -0.437878 0
M  V30 7126 N 676.97 0.677563 1.42291 0
M  V30 7127 C 678.381 0.277912 1.8462 0
M  V30 7128 C 678.732 -1.18048 1.56714 0
M  V30 7129 O 677.857 -1.90404 1.02836 0
M  V30 7130 C 678.452 0.497619 3.35126 0
M  V30 7131 C 677.011 0.152063 3.76093 0
M  V30 7132 C 676.158 0.78872 2.65847 0
M  V30 7133 H 679.109 0.879527 1.32098 0
M  V30 7134 H 679.13 -0.24939 3.79682 0
M  V30 7135 H 678.642 1.55913 3.55405 0
M  V30 7136 H 676.743 -0.905896 3.6142 0
M  V30 7137 H 676.856 0.594514 4.75397 0
M  V30 7138 H 675.22 0.219813 2.5375 0
M  V30 7139 H 676.003 1.85374 2.88949 0
M  V30 7140 N 678.448 -1.51871 0.421078 0
M  V30 7141 C 679.694 -2.02237 -0.151014 0
M  V30 7142 C 680.027 -1.30554 -1.43768 0
M  V30 7143 O 679.302 -0.41546 -1.90011 0
M  V30 7144 C 679.585 -3.5802 -0.386482 0
M  V30 7145 C 679.438 -4.40339 0.9177 0
M  V30 7146 C 680.757 -4.24444 -1.16342 0
M  V30 7147 H 677.876 -0.735062 -0.0534102 0
M  V30 7148 H 680.518 -1.81656 0.556888 0
M  V30 7149 H 678.668 -3.75688 -0.989494 0
M  V30 7150 H 680.34 -4.34357 1.55344 0
M  V30 7151 H 678.583 -4.06073 1.526 0
M  V30 7152 H 679.254 -5.47451 0.707187 0
M  V30 7153 H 681.73 -4.10948 -0.652788 0
M  V30 7154 H 680.606 -5.33358 -1.29693 0
M  V30 7155 H 680.867 -3.84204 -2.18724 0
M  V30 7156 N 679.926 -0.151884 -1.56866 0
M  V30 7157 C 680.856 0.781943 -2.20018 0
M  V30 7158 C 681.837 1.25347 -1.14987 0
M  V30 7159 O 683.022 1.31015 -1.43348 0
M  V30 7160 C 680.152 2.01928 -2.82564 0
M  V30 7161 C 679.106 1.68434 -3.93464 0
M  V30 7162 C 678.432 2.99472 -4.42968 0
M  V30 7163 C 679.732 0.927244 -5.14003 0
M  V30 7164 H 681.426 0.255607 -2.98307 0
M  V30 7165 H 678.972 0.121502 -1.43486 0
M  V30 7166 H 680.925 2.67741 -3.25411 0
M  V30 7167 H 679.649 2.56943 -2.01614 0
M  V30 7168 H 678.308 1.04998 -3.51242 0
M  V30 7169 H 677.956 3.52488 -3.58834 0
M  V30 7170 H 677.656 2.77823 -5.17772 0
M  V30 7171 H 679.18 3.66348 -4.88489 0
M  V30 7172 H 680.594 1.48756 -5.53665 0
M  V30 7173 H 678.991 0.810513 -5.94601 0
M  V30 7174 H 680.061 -0.0801163 -4.84834 0
M  V30 7175 N 681.404 1.57128 0.121893 0
M  V30 7176 C 682.629 1.89254 0.848385 0
M  V30 7177 C 683.054 0.743527 1.72781 0
M  V30 7178 O 682.412 -0.306056 1.78698 0
M  V30 7179 C 682.46 3.20113 1.66012 0
M  V30 7180 O 681.564 3.05815 2.76679 0
M  V30 7181 H 680.905 0.621103 0.234793 0
M  V30 7182 H 683.435 2.0433 0.10516 0
M  V30 7183 H 683.445 3.52761 2.04996 0
M  V30 7184 H 682.12 4.03336 1.01452 0
M  V30 7185 H 680.697 2.84627 2.40918 0
M  V30 7186 N 682.882 -0.391992 1.52647 0
M  V30 7187 C 684.13 -1.13507 1.67214 0
M  V30 7188 C 684.451 -1.90575 0.41304 0
M  V30 7189 O 683.721 -1.87348 -0.572498 0
M  V30 7190 H 682.301 -0.422013 0.616372 0
M  V30 7191 H 684.963 -0.44502 1.89751 0
M  V30 7192 H 684.059 -1.83964 2.52118 0
M  V30 7193 N 684.36 -1.4356 -0.65026 0
M  V30 7194 C 685.29 -1.51758 -1.77459 0
M  V30 7195 C 686.271 -0.372019 -1.65982 0
M  V30 7196 O 687.456 -0.589627 -1.85033 0
M  V30 7197 C 684.586 -1.44302 -3.15902 0
M  V30 7198 C 683.54 -2.57138 -3.42146 0
M  V30 7199 C 682.866 -2.34735 -4.8042 0
M  V30 7200 C 684.166 -3.99373 -3.36598 0
M  V30 7201 H 685.86 -2.45863 -1.70855 0
M  V30 7202 H 683.406 -1.18333 -0.820566 0
M  V30 7203 H 685.359 -1.48641 -3.94314 0
M  V30 7204 H 684.083 -0.467026 -3.23244 0
M  V30 7205 H 682.742 -2.52157 -2.66106 0
M  V30 7206 H 682.39 -1.35372 -4.84441 0
M  V30 7207 H 682.09 -3.10375 -4.9894 0
M  V30 7208 H 683.614 -2.40862 -5.61086 0
M  V30 7209 H 685.028 -4.05826 -4.04942 0
M  V30 7210 H 683.425 -4.75063 -3.66654 0
M  V30 7211 H 684.495 -4.243 -2.34729 0
M  V30 7212 N 685.838 0.888903 -1.30139 0
M  V30 7213 C 686.801 1.97576 -1.16174 0
M  V30 7214 C 687.801 1.60525 -0.094086 0
M  V30 7215 O 688.991 1.70812 -0.341889 0
M  V30 7216 C 686.123 3.3188 -0.778983 0
M  V30 7217 H 687.316 2.11393 -2.12728 0
M  V30 7218 H 684.869 1.0748 -1.1348 0
M  V30 7219 H 685.604 3.23765 0.186225 0
M  V30 7220 H 685.389 3.60141 -1.55051 0
M  V30 7221 H 686.879 4.11612 -0.704631 0
M  V30 7222 N 687.317 1.12792 1.10072 0
M  V30 7223 C 688.249 0.757003 2.16338 0
M  V30 7224 C 689.262 -0.218144 1.61332 0
M  V30 7225 O 690.451 0.0010727 1.785 0
M  V30 7226 C 687.551 0.100303 3.38752 0
M  V30 7227 C 686.724 1.10586 4.2319 0
M  V30 7228 C 685.783 0.47609 5.24042 0
M  V30 7229 O 684.809 1.13418 5.57786 0
M  V30 7230 N 686.011 -0.754823 5.75572 0
M  V30 7231 H 688.776 1.6714 2.48766 0
M  V30 7232 H 686.337 1.02003 1.25726 0
M  V30 7233 H 688.329 -0.333092 4.03327 0
M  V30 7234 H 686.899 -0.716915 3.04268 0
M  V30 7235 H 686.119 1.71677 3.54853 0
M  V30 7236 H 687.407 1.78571 4.76435 0
M  V30 7237 H 686.805 -1.30838 5.50362 0
M  V30 7238 H 685.362 -1.13098 6.41913 0
M  V30 7239 N 688.795 -1.27931 0.920396 0
M  V30 7240 C 689.728 -2.2537 0.358285 0
M  V30 7241 C 690.706 -1.53328 -0.541242 0
M  V30 7242 O 691.89 -1.82196 -0.483399 0
M  V30 7243 C 689.017 -3.35178 -0.487193 0
M  V30 7244 C 688.063 -4.25079 0.347881 0
M  V30 7245 S 688.896 -5.05792 1.75883 0
M  V30 7246 C 690.052 -6.19089 0.920832 0
M  V30 7247 H 690.285 -2.72701 1.18413 0
M  V30 7248 H 687.818 -1.36474 0.722088 0
M  V30 7249 H 689.776 -3.98895 -0.96916 0
M  V30 7250 H 688.437 -2.865 -1.28749 0
M  V30 7251 H 687.63 -5.03113 -0.298912 0
M  V30 7252 H 687.232 -3.66119 0.763748 0
M  V30 7253 H 689.524 -6.77326 0.15349 0
M  V30 7254 H 690.467 -6.8803 1.67394 0
M  V30 7255 H 690.875 -5.62573 0.466069 0
M  V30 7256 N 690.273 -0.685099 -1.4193 0
M  V30 7257 C 691.206 0.0371639 -2.2817 0
M  V30 7258 C 692.184 0.798436 -1.41647 0
M  V30 7259 O 693.368 0.791428 -1.71081 0
M  V30 7260 C 690.495 1.05993 -3.21688 0
M  V30 7261 C 689.541 0.393043 -4.24685 0
M  V30 7262 S 690.374 -0.856921 -5.28599 0
M  V30 7263 C 691.53 0.164508 -6.25684 0
M  V30 7264 H 691.763 -0.694305 -2.89079 0
M  V30 7265 H 689.296 -0.474999 -1.46912 0
M  V30 7266 H 691.254 1.64489 -3.76103 0
M  V30 7267 H 689.915 1.7639 -2.59895 0
M  V30 7268 H 689.108 1.16513 -4.90348 0
M  V30 7269 H 688.71 -0.118589 -3.73812 0
M  V30 7270 H 691.002 1.02106 -6.69762 0
M  V30 7271 H 691.945 -0.457917 -7.06618 0
M  V30 7272 H 692.353 0.514596 -5.6215 0
M  V30 7273 N 691.751 1.51645 -0.429126 0
M  V30 7274 C 693.167 1.59394 -0.080994 0
M  V30 7275 C 693.367 1.44064 1.40882 0
M  V30 7276 O 692.423 1.27771 2.17786 0
M  V30 7277 C 693.736 2.94779 -0.593773 0
M  V30 7278 C 695.284 3.08067 -0.553494 0
M  V30 7279 C 695.759 4.45963 -1.04311 0
M  V30 7280 N 697.25 4.5226 -1.00076 0
M  V30 7281 C 697.985 5.57268 -1.35056 0
M  V30 7282 N 697.481 6.69734 -1.77282 0
M  V30 7283 N 699.274 5.47582 -1.26925 0
M  V30 7284 H 691.425 1.59856 -1.39857 0
M  V30 7285 H 693.688 0.753095 -0.575805 0
M  V30 7286 H 693.394 3.11342 -1.63583 0
M  V30 7287 H 693.268 3.77197 -0.0142202 0
M  V30 7288 H 695.655 2.91177 0.479556 0
M  V30 7289 H 695.736 2.27508 -1.16935 0
M  V30 7290 H 695.38 4.63598 -2.07459 0
M  V30 7291 H 695.31 5.25049 -0.403873 0
M  V30 7292 H 697.801 3.71537 -0.690564 0
M  V30 7293 H 698.114 7.4587 -2.02232 0
M  V30 7294 H 696.459 6.70963 -1.81202 0
M  V30 7295 H 699.65 4.58604 -0.93809 0
M  V30 7296 H 699.823 6.29308 -1.54516 0
M  V30 7297 N 693.229 0.160201 1.56784 0
M  V30 7298 C 694.139 -0.787167 2.21 0
M  V30 7299 C 695.155 -1.26167 1.19825 0
M  V30 7300 O 696.331 -1.31611 1.52448 0
M  V30 7301 C 693.396 -2.00364 2.8294 0
M  V30 7302 C 692.457 -1.5771 3.99282 0
M  V30 7303 C 691.69 -2.73558 4.58259 0
M  V30 7304 O 691.913 -3.90129 4.16119 0
M  V30 7305 O 690.847 -2.48271 5.48311 0
M  V30 7306 H 694.673 -0.270462 3.02493 0
M  V30 7307 H 692.258 -0.0674666 1.49248 0
M  V30 7308 H 694.14 -2.71529 3.22257 0
M  V30 7309 H 692.815 -2.50961 2.04451 0
M  V30 7310 H 691.722 -0.835274 3.64656 0
M  V30 7311 H 693.055 -1.11815 4.79331 0
M  V30 7312 N 694.707 -1.5719 -0.113559 0
M  V30 7313 C 695.947 -1.86958 -0.82621 0
M  V30 7314 C 696.311 -0.748884 -1.76793 0
M  V30 7315 O 697.512 -0.92847 -2.52256 0
M  V30 7316 C 695.783 -3.21957 -1.55173 0
M  V30 7317 S 697.342 -3.73371 -2.3052 0
M  V30 7318 H 694.16 -0.655394 -0.275643 0
M  V30 7319 H 696.762 -1.95318 -0.0842684 0
M  V30 7320 H 695.466 -4.01459 -0.851977 0
M  V30 7321 H 694.997 -3.16688 -2.33393 0
M  V30 7322 H 697.012 -3.45308 -3.56338 0
M  V30 7323 N 696.185 0.383891 -1.52853 0
M  V30 7324 C 697.431 1.12667 -1.69345 0
M  V30 7325 C 697.786 1.87519 -0.430635 0
M  V30 7326 O 697.079 1.82742 0.575846 0
M  V30 7327 C 697.273 2.12881 -2.87082 0
M  V30 7328 C 697.102 1.47873 -4.24692 0
M  V30 7329 C 695.872 1.24064 -4.89833 0
M  V30 7330 C 698.07 0.926118 -5.05893 0
M  V30 7331 N 696.052 0.552138 -6.11412 0
M  V30 7332 C 697.423 0.365966 -6.18919 0
M  V30 7333 C 699.478 0.823023 -4.91051 0
M  V30 7334 C 698.181 -0.287204 -7.18726 0
M  V30 7335 C 700.207 0.183666 -5.91115 0
M  V30 7336 C 699.569 -0.365693 -7.0345 0
M  V30 7337 H 695.668 0.398064 -0.673104 0
M  V30 7338 H 698.252 0.415504 -1.90215 0
M  V30 7339 H 696.423 2.81329 -2.67784 0
M  V30 7340 H 698.155 2.79703 -2.92486 0
M  V30 7341 H 694.91 1.51701 -4.48647 0
M  V30 7342 H 695.334 0.223783 -6.7663 0
M  V30 7343 H 699.976 1.23354 -4.04405 0
M  V30 7344 H 697.694 -0.709719 -8.04977 0
M  V30 7345 H 701.28 0.105074 -5.81705 0
M  V30 7346 H 700.16 -0.85261 -7.79551 0
M  V30 7347 N 697.663 1.43903 0.642637 0
M  V30 7348 C 698.893 1.49323 1.4278 0
M  V30 7349 C 699.301 0.113058 1.88862 0
M  V30 7350 O 698.644 -0.889089 1.60751 0
M  V30 7351 C 698.706 2.3861 2.68897 0
M  V30 7352 C 698.37 3.85976 2.44687 0
M  V30 7353 C 699.367 4.7681 2.07239 0
M  V30 7354 C 697.052 4.30567 2.58683 0
M  V30 7355 C 699.046 6.10234 1.841 0
M  V30 7356 C 696.733 5.64042 2.35159 0
M  V30 7357 C 697.731 6.53693 1.97925 0
M  V30 7358 O 697.419 7.84698 1.74654 0
M  V30 7359 H 697.151 0.509109 0.444729 0
M  V30 7360 H 699.705 1.89425 0.794195 0
M  V30 7361 H 697.935 1.93415 3.34855 0
M  V30 7362 H 699.624 2.35112 3.30873 0
M  V30 7363 H 700.39 4.43635 1.95993 0
M  V30 7364 H 696.269 3.61054 2.86637 0
M  V30 7365 H 699.813 6.80171 1.54962 0
M  V30 7366 H 695.71 5.96782 2.46011 0
M  V30 7367 H 696.478 7.96382 1.88993 0
M  V30 7368 N 699.141 -0.881989 1.30609 0
M  V30 7369 C 700.552 -1.44956 1.17664 0
M  V30 7370 C 700.903 -1.94945 -0.221531 0
M  V30 7371 O 700.028 -1.85257 -1.11844 0
M  V30 7372 C 700.623 -2.63474 2.12995 0
M  V30 7373 C 699.182 -3.16312 2.04019 0
M  V30 7374 C 698.329 -1.89008 2.02907 0
M  V30 7375 H 701.28 -0.691645 1.42835 0
M  V30 7376 H 701.301 -3.39783 1.71253 0
M  V30 7377 H 700.813 -2.2706 3.14746 0
M  V30 7378 H 698.914 -3.57376 1.0542 0
M  V30 7379 H 699.027 -3.79409 2.9255 0
M  V30 7380 H 697.391 -2.07465 1.47751 0
M  V30 7381 H 698.174 -1.54848 3.06394 0
M  V30 7382 N 700.619 -1.13374 -1.09472 0
M  V30 7383 C 701.567 -0.806105 -2.18185 0
M  V30 7384 C 702.561 0.21136 -1.68076 0
M  V30 7385 O 703.767 0.0685558 -1.79869 0
M  V30 7386 H 700.142 -0.242901 -0.71169 0
M  V30 7387 H 702.113 -1.73115 -2.43051 0
M  V30 7388 C 700.862 -0.287928 -3.46506 0
M  V30 7389 H 700.185 -1.06217 -3.85432 0
M  V30 7390 H 701.625 -0.0971054 -4.23889 0
M  V30 7391 C 700.084 0.986256 -3.22141 0
M  V30 7392 O 700.614 2.06217 -3.44728 0
M  V30 7393 N 698.82 0.917153 -2.75747 0
M  V30 7394 H 698.367 0.0414609 -2.57567 0
M  V30 7395 H 698.325 1.77029 -2.59823 0
M  V30 7396 N 702.098 1.27442 -0.927168 0
M  V30 7397 C 703.509 1.76385 -0.611979 0
M  V30 7398 C 703.86 1.75715 0.872853 0
M  V30 7399 O 702.985 1.3603 1.683 0
M  V30 7400 C 703.58 3.20303 -1.10414 0
M  V30 7401 C 702.139 3.66916 -0.839628 0
M  V30 7402 C 701.286 2.46859 -1.26317 0
M  V30 7403 H 704.237 1.13716 -1.107 0
M  V30 7404 H 704.258 3.77811 -0.451578 0
M  V30 7405 H 703.77 3.20759 -2.18484 0
M  V30 7406 H 701.871 3.71906 0.227292 0
M  V30 7407 H 701.984 4.56415 -1.45679 0
M  V30 7408 H 700.348 2.45407 -0.681723 0
M  V30 7409 H 701.131 2.50025 -2.3525 0
M  V30 7410 N 703.576 0.692616 1.41565 0
M  V30 7411 C 704.801 0.229776 2.06123 0
M  V30 7412 C 705.226 -1.11119 1.5177 0
M  V30 7413 O 704.584 -1.69498 0.643444 0
M  V30 7414 C 704.632 0.19469 3.60074 0
M  V30 7415 O 703.736 -0.831366 4.03933 0
M  V30 7416 H 703.077 0.113002 0.654314 0
M  V30 7417 H 705.607 0.946645 1.81383 0
M  V30 7418 H 705.617 0.0245487 4.07993 0
M  V30 7419 H 704.292 1.17339 3.99004 0
M  V30 7420 H 702.869 -0.630819 3.67526 0
M  V30 7421 N 705.054 -1.51416 0.437162 0
M  V30 7422 C 706.017 -2.26312 -0.362729 0
M  V30 7423 C 707.017 -1.29748 -0.949847 0
M  V30 7424 O 708.207 -1.53462 -0.824325 0
M  V30 7425 C 705.339 -3.05475 -1.5132 0
M  V30 7426 H 706.532 -2.98459 0.29365 0
M  V30 7427 H 704.085 -1.55137 0.190327 0
M  V30 7428 H 704.82 -2.37744 -2.20563 0
M  V30 7429 H 704.605 -3.76401 -1.09838 0
M  V30 7430 H 706.095 -3.62209 -2.07833 0
M  V30 7431 N 706.532 -0.168513 -1.56696 0
M  V30 7432 C 707.948 0.187686 -1.58493 0
M  V30 7433 C 708.148 1.63063 -1.18375 0
M  V30 7434 O 707.204 2.36142 -0.894042 0
M  V30 7435 C 708.517 -0.0905858 -3.00564 0
M  V30 7436 C 710.065 -0.028575 -3.12987 0
M  V30 7437 C 710.54 -0.279799 -4.57145 0
M  V30 7438 N 712.031 -0.227476 -4.62641 0
M  V30 7439 C 712.766 -0.396073 -5.7203 0
M  V30 7440 N 712.262 -0.623572 -6.89988 0
M  V30 7441 N 714.055 -0.332173 -5.61118 0
M  V30 7442 H 706.206 -1.11042 -1.81062 0
M  V30 7443 H 708.469 -0.441235 -0.839056 0
M  V30 7444 H 708.175 -1.09006 -3.34381 0
M  V30 7445 H 708.049 0.619078 -3.72085 0
M  V30 7446 H 710.436 0.961471 -2.78998 0
M  V30 7447 H 710.517 -0.770905 -2.43907 0
M  V30 7448 H 710.161 -1.26704 -4.91842 0
M  V30 7449 H 710.091 0.48311 -5.24379 0
M  V30 7450 H 712.582 -0.0571723 -3.77857 0
M  V30 7451 H 712.895 -0.741745 -7.69232 0
M  V30 7452 H 711.24 -0.660153 -6.91858 0
M  V30 7453 H 714.431 -0.155051 -4.67843 0
M  V30 7454 H 714.604 -0.466994 -6.46315 0
M  V30 7455 N 708.01 1.57248 0.105221 0
M  V30 7456 C 708.94 2.04374 1.12931 0
M  V30 7457 C 709.921 0.93074 1.42377 0
M  V30 7458 O 711.106 1.20136 1.52581 0
M  V30 7459 C 708.236 2.45967 2.45189 0
M  V30 7460 C 707.19 3.60838 2.30174 0
M  V30 7461 C 706.516 3.88374 3.67518 0
M  V30 7462 C 707.816 4.92084 1.75073 0
M  V30 7463 H 709.51 2.9018 0.737287 0
M  V30 7464 H 707.056 1.39601 0.353211 0
M  V30 7465 H 709.009 2.77542 3.17094 0
M  V30 7466 H 707.733 1.57148 2.86308 0
M  V30 7467 H 706.392 3.29493 1.60716 0
M  V30 7468 H 706.04 2.96739 4.06147 0
M  V30 7469 H 705.74 4.65703 3.58321 0
M  V30 7470 H 707.264 4.22415 4.40906 0
M  V30 7471 H 708.678 5.22106 2.36809 0
M  V30 7472 H 707.075 5.73507 1.76662 0
M  V30 7473 H 708.145 4.79684 0.709347 0
M  V30 7474 N 709.488 -0.375779 1.53054 0
M  V30 7475 C 710.716 -1.14036 1.72637 0
M  V30 7476 C 711.131 -1.83342 0.450687 0
M  V30 7477 O 710.488 -1.7318 -0.575749 0
M  V30 7478 C 710.539 -2.17841 2.88492 0
M  V30 7479 O 710.26 -1.51358 4.11123 0
M  V30 7480 C 711.761 -3.06924 3.19863 0
M  V30 7481 H 708.981 -0.341386 0.577665 0
M  V30 7482 H 711.525 -0.437809 1.99759 0
M  V30 7483 H 709.68 -2.8371 2.63794 0
M  V30 7484 H 710.094 -2.20439 4.75928 0
M  V30 7485 H 711.568 -3.75763 4.04359 0
M  V30 7486 H 712.045 -3.71169 2.34798 0
M  V30 7487 H 712.651 -2.46684 3.46449 0
M  V30 7488 N 710.966 -1.44241 -0.634997 0
M  V30 7489 C 711.929 -1.50457 -1.72903 0
M  V30 7490 C 712.929 -0.387058 -1.56072 0
M  V30 7491 O 714.119 -0.649531 -1.61638 0
M  V30 7492 C 711.251 -1.37477 -3.1195 0
M  V30 7493 H 712.444 -2.47907 -1.68767 0
M  V30 7494 H 709.997 -1.31276 -0.84831 0
M  V30 7495 H 710.732 -0.41106 -3.21684 0
M  V30 7496 H 710.517 -2.18506 -3.25573 0
M  V30 7497 H 712.007 -1.44799 -3.91692 0
M  V30 7498 N 712.444 0.87505 -1.31075 0
M  V30 7499 C 713.374 1.99775 -1.20881 0
M  V30 7500 C 714.355 1.69822 -0.0971612 0
M  V30 7501 O 715.54 1.92158 -0.280895 0
M  V30 7502 C 712.67 3.35163 -0.910118 0
M  V30 7503 C 711.624 3.79406 -1.98078 0
M  V30 7504 C 710.95 5.12197 -1.53488 0
M  V30 7505 C 712.25 3.97061 -3.39323 0
M  V30 7506 H 713.944 2.08562 -2.14808 0
M  V30 7507 H 711.49 1.00207 -1.03415 0
M  V30 7508 H 713.443 4.13237 -0.825423 0
M  V30 7509 H 712.167 3.26536 0.064822 0
M  V30 7510 H 710.826 3.03568 -2.05528 0
M  V30 7511 H 710.474 5.00007 -0.547941 0
M  V30 7512 H 710.174 5.4277 -2.2511 0
M  V30 7513 H 711.698 5.92785 -1.46417 0
M  V30 7514 H 713.112 4.65545 -3.34576 0
M  V30 7515 H 711.509 4.39025 -4.09118 0
M  V30 7516 H 712.579 3.00601 -3.80483 0
M  V30 7517 N 713.922 1.13953 1.08869 0
M  V30 7518 C 715.338 0.878924 1.33218 0
M  V30 7519 C 715.538 -0.482478 1.95638 0
M  V30 7520 O 714.594 -1.22778 2.2064 0
M  V30 7521 C 715.907 2.00798 2.23832 0
M  V30 7522 C 717.455 2.04073 2.37325 0
M  V30 7523 C 717.93 3.16258 3.31278 0
M  V30 7524 N 719.421 3.15805 3.38853 0
M  V30 7525 C 720.156 3.99249 4.11567 0
M  V30 7526 N 719.652 4.92721 4.87029 0
M  V30 7527 N 721.445 3.87327 4.0735 0
M  V30 7528 H 713.596 2.01645 0.66731 0
M  V30 7529 H 715.859 0.878395 0.356547 0
M  V30 7530 H 715.565 2.98986 1.85203 0
M  V30 7531 H 715.439 1.92704 3.24261 0
M  V30 7532 H 717.826 1.06495 2.75214 0
M  V30 7533 H 717.907 2.16239 1.36654 0
M  V30 7534 H 717.551 4.14079 2.9411 0
M  V30 7535 H 717.481 3.0133 4.31866 0
M  V30 7536 H 719.972 2.48102 2.8505 0
M  V30 7537 H 720.285 5.52867 5.39961 0
M  V30 7538 H 718.63 4.96723 4.86098 0
M  V30 7539 H 721.821 3.13627 3.475 0
M  V30 7540 H 721.994 4.52585 4.63757 0
M  V30 7541 N 715.4 -1.26948 0.933913 0
M  V30 7542 C 716.649 -1.93378 0.573409 0
M  V30 7543 C 716.962 -1.74148 -0.890614 0
M  V30 7544 O 718.168 -2.34971 -1.36017 0
M  V30 7545 C 716.624 -3.46449 0.974747 0
M  V30 7546 C 716.232 -3.74425 2.45988 0
M  V30 7547 C 717.976 -4.18924 0.685791 0
M  V30 7548 C 715.883 -5.209 2.8003 0
M  V30 7549 H 714.813 -0.723952 0.210736 0
M  V30 7550 H 717.464 -1.44143 1.13557 0
M  V30 7551 H 715.846 -3.94528 0.341181 0
M  V30 7552 H 717.02 -3.37079 3.14188 0
M  V30 7553 H 715.335 -3.15167 2.72138 0
M  V30 7554 H 717.932 -5.26786 0.916546 0
M  V30 7555 H 718.275 -4.14587 -0.377217 0
M  V30 7556 H 718.808 -3.76687 1.27874 0
M  V30 7557 H 715.547 -5.30332 3.85264 0
M  V30 7558 H 715.067 -5.59369 2.16485 0
M  V30 7559 H 716.746 -5.88837 2.68105 0
M  V30 7560 N 716.879 -0.700114 -1.41195 0
M  V30 7561 C 717.826 -0.0376652 -2.30769 0
M  V30 7562 C 718.796 0.766544 -1.47354 0
M  V30 7563 O 719.981 0.73365 -1.76131 0
M  V30 7564 C 717.121 0.889452 -3.33441 0
M  V30 7565 C 716.234 0.076373 -4.31932 0
M  V30 7566 C 715.369 1.00155 -5.21673 0
M  V30 7567 C 714.408 0.181644 -6.1183 0
M  V30 7568 N 713.545 1.06087 -6.94039 0
M  V30 7569 H 718.385 -0.80726 -2.86858 0
M  V30 7570 H 715.922 -0.409798 -1.41277 0
M  V30 7571 H 717.88 1.44107 -3.91522 0
M  V30 7572 H 716.51 1.6254 -2.78892 0
M  V30 7573 H 715.562 -0.592223 -3.75762 0
M  V30 7574 H 716.874 -0.559076 -4.95657 0
M  V30 7575 H 716.028 1.62223 -5.8461 0
M  V30 7576 H 714.767 1.67085 -4.58186 0
M  V30 7577 H 713.772 -0.452085 -5.47938 0
M  V30 7578 H 714.997 -0.483925 -6.77374 0
M  V30 7579 H 712.943 1.7161 -6.33156 0
M  V30 7580 H 712.86 0.481094 -7.54468 0
M  V30 7581 H 714.128 1.66822 -7.6144 0
M  V30 7582 N 718.357 1.51182 -0.445186 0
M  V30 7583 C 719.304 2.27939 0.362291 0
M  V30 7584 C 720.274 1.31864 1.01 0
M  V30 7585 O 721.459 1.60776 1.02741 0
M  V30 7586 C 718.599 3.13016 1.45311 0
M  V30 7587 C 717.712 4.24093 0.822757 0
M  V30 7588 C 716.847 4.96467 1.88928 0
M  V30 7589 C 715.886 5.99454 1.23778 0
M  V30 7590 N 715.023 6.65206 2.24602 0
M  V30 7591 H 719.863 2.965 -0.29862 0
M  V30 7592 H 717.4 1.46237 -0.15911 0
M  V30 7593 H 719.358 3.60673 2.09692 0
M  V30 7594 H 717.988 2.46553 2.08354 0
M  V30 7595 H 717.04 3.80341 0.0670364 0
M  V30 7596 H 718.352 4.97853 0.307184 0
M  V30 7597 H 717.506 5.47712 2.60953 0
M  V30 7598 H 716.245 4.22355 2.4386 0
M  V30 7599 H 715.25 5.47494 0.503042 0
M  V30 7600 H 716.475 6.75527 0.695694 0
M  V30 7601 H 714.421 5.93901 2.78599 0
M  V30 7602 H 714.338 7.34756 1.77958 0
M  V30 7603 H 715.606 7.21078 2.96085 0
M  V30 7604 N 719.835 0.176821 1.56605 0
M  V30 7605 C 721.063 -0.472828 2.01425 0
M  V30 7606 C 721.478 -1.56436 1.05703 0
M  V30 7607 O 720.835 -1.82405 0.058808 0
M  V30 7608 C 720.886 -1.04607 3.46034 0
M  V30 7609 O 720.607 0.00189608 4.381 0
M  V30 7610 C 722.108 -1.7734 4.06282 0
M  V30 7611 H 719.328 -0.120503 0.660091 0
M  V30 7612 H 721.872 0.280166 2.02572 0
M  V30 7613 H 720.027 -1.74953 3.45645 0
M  V30 7614 H 720.441 -0.422118 5.22799 0
M  V30 7615 H 721.915 -2.12703 5.09374 0
M  V30 7616 H 722.392 -2.67043 3.4869 0
M  V30 7617 H 722.998 -1.11623 4.10391 0
M  V30 7618 N 721.313 -1.57302 -0.09688 0
M  V30 7619 C 722.243 -2.0497 -1.11846 0
M  V30 7620 C 723.224 -0.938278 -1.41882 0
M  V30 7621 O 724.409 -1.20943 -1.51942 0
M  V30 7622 C 721.539 -2.47264 -2.43881 0
M  V30 7623 C 720.493 -3.62053 -2.28257 0
M  V30 7624 C 719.819 -3.90318 -3.65453 0
M  V30 7625 C 721.119 -4.93005 -1.72461 0
M  V30 7626 H 722.813 -2.90567 -0.721888 0
M  V30 7627 H 720.359 -1.39786 -0.345803 0
M  V30 7628 H 722.312 -2.7922 -3.15617 0
M  V30 7629 H 721.036 -1.58664 -2.8547 0
M  V30 7630 H 719.695 -3.30341 -1.58967 0
M  V30 7631 H 719.343 -2.98889 -4.04567 0
M  V30 7632 H 719.043 -4.67597 -3.55846 0
M  V30 7633 H 720.567 -4.24747 -4.3866 0
M  V30 7634 H 721.981 -5.23354 -2.34036 0
M  V30 7635 H 720.378 -5.74436 -1.73618 0
M  V30 7636 H 721.448 -4.80053 -0.683898 0
M  V30 7637 N 722.791 0.367657 -1.53252 0
M  V30 7638 C 723.723 1.47032 -1.75824 0
M  V30 7639 C 724.736 1.49736 -0.63898 0
M  V30 7640 O 725.925 1.53253 -0.915193 0
M  V30 7641 C 723.025 2.85805 -1.82122 0
M  V30 7642 C 722.198 3.06822 -3.11736 0
M  V30 7643 C 721.257 4.25698 -3.09302 0
M  V30 7644 O 720.283 4.20972 -3.83107 0
M  V30 7645 N 721.485 5.33002 -2.29977 0
M  V30 7646 H 724.25 1.28048 -2.70968 0
M  V30 7647 H 721.811 0.557363 -1.52004 0
M  V30 7648 H 723.803 3.63465 -1.77975 0
M  V30 7649 H 722.373 2.98046 -0.942716 0
M  V30 7650 H 721.593 2.1684 -3.29202 0
M  V30 7651 H 722.881 3.17731 -3.97397 0
M  V30 7652 H 722.279 5.39703 -1.69521 0
M  V30 7653 H 720.836 6.09247 -2.3165 0
M  V30 7654 N 724.269 1.44576 0.627338 0
M  V30 7655 C 725.216 1.51734 1.73912 0
M  V30 7656 C 726.186 0.364745 1.62046 0
M  V30 7657 O 727.371 0.575503 1.81914 0
M  V30 7658 C 724.511 1.47116 3.12171 0
M  V30 7659 C 723.624 2.72778 3.34986 0
M  V30 7660 C 722.759 2.59968 4.63239 0
M  V30 7661 C 721.798 3.80776 4.79245 0
M  V30 7662 N 720.935 3.66618 5.98778 0
M  V30 7663 H 725.775 2.46722 1.6713 0
M  V30 7664 H 723.312 1.22444 0.815224 0
M  V30 7665 H 725.27 1.42429 3.92135 0
M  V30 7666 H 723.9 0.556928 3.17959 0
M  V30 7667 H 722.952 2.87637 2.48936 0
M  V30 7668 H 724.264 3.62441 3.42692 0
M  V30 7669 H 723.418 2.53135 5.51369 0
M  V30 7670 H 722.157 1.67872 4.57898 0
M  V30 7671 H 721.162 3.87989 3.89544 0
M  V30 7672 H 722.387 4.73913 4.86398 0
M  V30 7673 H 720.333 2.77277 5.9452 0
M  V30 7674 H 720.25 4.499 6.07557 0
M  V30 7675 H 721.518 3.63684 6.89459 0
M  V30 7676 N 725.747 -0.868086 1.31537 0
M  V30 7677 C 726.996 -1.61607 1.20689 0
M  V30 7678 C 727.309 -1.94204 -0.233275 0
M  V30 7679 O 728.515 -2.67515 -0.463465 0
M  V30 7680 C 726.971 -2.91348 2.11292 0
M  V30 7681 C 726.579 -2.66227 3.60315 0
M  V30 7682 C 728.323 -3.69344 2.09249 0
M  V30 7683 C 726.23 -3.91887 4.42921 0
M  V30 7684 H 725.16 -0.606373 0.448138 0
M  V30 7685 H 727.811 -0.959666 1.56405 0
M  V30 7686 H 726.193 -3.58374 1.68477 0
M  V30 7687 H 727.367 -2.07597 4.11388 0
M  V30 7688 H 725.682 -2.01582 3.64354 0
M  V30 7689 H 728.279 -4.62567 2.68209 0
M  V30 7690 H 728.622 -4.02044 1.0801 0
M  V30 7691 H 729.155 -3.09205 2.50274 0
M  V30 7692 H 725.894 -3.64336 5.44922 0
M  V30 7693 H 725.414 -4.49961 3.96605 0
M  V30 7694 H 727.093 -4.59754 4.55231 0
M  V30 7695 N 727.225 -1.14528 -1.08264 0
M  V30 7696 C 728.45 -0.938381 -1.84957 0
M  V30 7697 C 728.875 0.508044 -1.81109 0
M  V30 7698 O 728.233 1.36146 -1.19724 0
M  V30 7699 C 728.281 -1.44568 -3.30352 0
M  V30 7700 O 727.385 -0.638745 -4.07423 0
M  V30 7701 H 726.726 -0.335394 -0.573068 0
M  V30 7702 H 729.256 -1.52287 -1.36637 0
M  V30 7703 H 729.266 -1.45449 -3.81194 0
M  V30 7704 H 727.941 -2.49876 -3.32468 0
M  V30 7705 H 726.518 -0.698801 -3.66294 0
M  V30 7706 N 728.703 1.26451 -0.940633 0
M  V30 7707 C 729.651 2.28389 -0.440581 0
M  V30 7708 C 730.645 1.62402 0.481859 0
M  V30 7709 O 731.851 1.76361 0.360132 0
M  V30 7710 H 728.226 0.741716 -0.123938 0
M  V30 7711 H 730.197 2.67967 -1.31288 0
M  V30 7712 C 728.946 3.46576 0.279364 0
M  V30 7713 H 728.269 3.97574 -0.421274 0
M  V30 7714 H 729.709 4.19826 0.59348 0
M  V30 7715 C 728.168 3.01815 1.49697 0
M  V30 7716 O 728.698 3.06607 2.59529 0
M  V30 7717 N 726.904 2.57163 1.35334 0
M  V30 7718 H 726.451 2.53464 0.459743 0
M  V30 7719 H 726.409 2.27578 2.16923 0
M  V30 7720 N 730.181 0.707592 1.40822 0
M  V30 7721 C 731.406 0.251626 2.05868 0
M  V30 7722 C 731.831 -1.09503 1.5294 0
M  V30 7723 O 731.189 -1.68806 0.661385 0
M  V30 7724 C 731.237 0.23287 3.59847 0
M  V30 7725 O 730.341 -0.788477 4.04792 0
M  V30 7726 H 729.682 0.119936 0.653078 0
M  V30 7727 H 732.212 0.96583 1.80369 0
M  V30 7728 H 732.222 0.0678204 4.07944 0
M  V30 7729 H 730.897 1.21565 3.97737 0
M  V30 7730 H 729.474 -0.591802 3.68174 0
M  V30 7731 N 731.66 -1.50943 0.453197 0
M  V30 7732 C 733.071 -1.86699 -0.00619892 0
M  V30 7733 C 733.422 -1.3693 -1.40515 0
M  V30 7734 O 732.547 -0.726715 -2.03833 0
M  V30 7735 C 733.142 -3.38795 -0.018025 0
M  V30 7736 C 731.701 -3.74028 -0.421885 0
M  V30 7737 C 730.848 -2.74752 0.375087 0
M  V30 7738 H 733.799 -1.43942 0.668317 0
M  V30 7739 H 733.82 -3.71468 -0.824125 0
M  V30 7740 H 733.332 -3.74988 1.00028 0
M  V30 7741 H 731.433 -3.43431 -1.44521 0
M  V30 7742 H 731.546 -4.78908 -0.135664 0
M  V30 7743 H 729.91 -2.5414 -0.168794 0
M  V30 7744 H 730.693 -3.13787 1.39256 0
M  V30 7745 N 733.138 -0.185124 -1.56509 0
M  V30 7746 C 734.048 0.751908 -2.22224 0
M  V30 7747 C 735.064 1.24244 -1.21817 0
M  V30 7748 O 736.24 1.29169 -1.54523 0
M  V30 7749 C 733.305 1.95837 -2.86092 0
M  V30 7750 C 732.366 1.51337 -4.01741 0
M  V30 7751 C 731.599 2.66233 -4.62554 0
M  V30 7752 O 731.822 3.8346 -4.22273 0
M  V30 7753 O 730.756 2.39517 -5.52191 0
M  V30 7754 H 734.582 0.222304 -3.02885 0
M  V30 7755 H 732.167 0.0437141 -1.49336 0
M  V30 7756 H 734.049 2.66368 -3.26536 0
M  V30 7757 H 732.724 2.47677 -2.08417 0
M  V30 7758 H 731.631 0.777155 -3.65939 0
M  V30 7759 H 732.964 1.04175 -4.81049 0
M  V30 7760 N 734.616 1.57351 0.0885366 0
M  V30 7761 C 735.563 2.02523 1.10693 0
M  V30 7762 C 736.533 0.902736 1.39427 0
M  V30 7763 O 737.718 1.16921 1.50779 0
M  V30 7764 C 734.858 2.46013 2.42016 0
M  V30 7765 C 733.971 3.7181 2.19957 0
M  V30 7766 C 733.106 4.04152 3.44724 0
M  V30 7767 C 732.145 5.2304 3.17956 0
M  V30 7768 N 731.282 5.51102 4.35007 0
M  V30 7769 H 736.122 2.89302 0.714742 0
M  V30 7770 H 733.659 1.43084 0.341378 0
M  V30 7771 H 735.617 2.69274 3.18665 0
M  V30 7772 H 734.247 1.62235 2.79069 0
M  V30 7773 H 733.299 3.55987 1.34079 0
M  V30 7774 H 734.611 4.58604 1.96173 0
M  V30 7775 H 733.765 4.28225 4.29777 0
M  V30 7776 H 732.504 3.15893 3.71568 0
M  V30 7777 H 731.509 4.98781 2.31296 0
M  V30 7778 H 732.734 6.12902 2.92451 0
M  V30 7779 H 730.68 4.65802 4.61914 0
M  V30 7780 H 730.597 6.3228 4.14437 0
M  V30 7781 H 731.865 5.79714 5.21106 0
M  V30 7782 N 736.094 -0.359525 1.53444 0
M  V30 7783 C 737.505 -0.936009 1.61542 0
M  V30 7784 C 737.856 -1.90069 0.486633 0
M  V30 7785 O 736.981 -2.12929 -0.386047 0
M  V30 7786 C 737.576 -1.70441 2.92806 0
M  V30 7787 C 736.135 -2.23015 3.03218 0
M  V30 7788 C 735.282 -1.04438 2.56881 0
M  V30 7789 H 738.233 -0.138134 1.58098 0
M  V30 7790 H 738.254 -2.56609 2.80948 0
M  V30 7791 H 737.766 -1.00205 3.74941 0
M  V30 7792 H 735.867 -2.96475 2.25684 0
M  V30 7793 H 735.98 -2.50481 4.08407 0
M  V30 7794 H 734.344 -1.41314 2.11902 0
M  V30 7795 H 735.127 -0.356905 3.4144 0
M  V30 7796 N 737.572 -1.44907 -0.619662 0
M  V30 7797 C 738.519 -1.52654 -1.73105 0
M  V30 7798 C 739.489 -0.373334 -1.6185 0
M  V30 7799 O 740.674 -0.585143 -1.81606 0
M  V30 7800 C 737.814 -1.48769 -3.11387 0
M  V30 7801 C 736.927 -2.74551 -3.33535 0
M  V30 7802 C 736.062 -2.62421 -4.61854 0
M  V30 7803 C 735.101 -3.83312 -4.77219 0
M  V30 7804 N 734.238 -3.69789 -5.96826 0
M  V30 7805 H 739.078 -2.47605 -1.65819 0
M  V30 7806 H 736.615 -1.22875 -0.808719 0
M  V30 7807 H 738.573 -1.44507 -3.91374 0
M  V30 7808 H 737.203 -0.573783 -3.1766 0
M  V30 7809 H 736.255 -2.88953 -2.47408 0
M  V30 7810 H 737.567 -3.64253 -3.40765 0
M  V30 7811 H 736.721 -2.56056 -5.50019 0
M  V30 7812 H 735.46 -1.70298 -4.57001 0
M  V30 7813 H 734.465 -3.90049 -3.87481 0
M  V30 7814 H 735.69 -4.76486 -4.83878 0
M  V30 7815 H 733.636 -2.80426 -5.93041 0
M  V30 7816 H 733.553 -4.53116 -6.05163 0
M  V30 7817 H 734.821 -3.67335 -6.87521 0
M  V30 7818 N 739.05 0.861098 -1.31996 0
M  V30 7819 C 740.296 1.61721 -1.22369 0
M  V30 7820 C 740.629 1.93 0.215587 0
M  V30 7821 O 739.904 1.56789 1.15098 0
M  V30 7822 C 740.187 2.9417 -2.07691 0
M  V30 7823 C 740.04 2.69714 -3.59965 0
M  V30 7824 C 741.359 3.95372 -1.93312 0
M  V30 7825 H 738.478 0.586822 -0.44588 0
M  V30 7826 H 741.12 0.994788 -1.61876 0
M  V30 7827 H 739.27 3.47292 -1.74128 0
M  V30 7828 H 740.942 2.23196 -4.03709 0
M  V30 7829 H 739.185 2.03789 -3.82952 0
M  V30 7830 H 739.856 3.63996 -4.14983 0
M  V30 7831 H 742.332 3.51487 -2.22701 0
M  V30 7832 H 741.208 4.85916 -2.55298 0
M  V30 7833 H 741.469 4.32865 -0.898922 0
M  V30 7834 N 740.528 1.15101 1.07655 0
M  V30 7835 C 741.777 0.918528 1.79572 0
M  V30 7836 C 742.09 -0.555922 1.87534 0
M  V30 7837 O 743.296 -0.905893 2.55941 0
M  V30 7838 C 741.752 1.59394 3.22679 0
M  V30 7839 C 741.36 3.1052 3.22927 0
M  V30 7840 C 743.104 1.44289 3.99225 0
M  V30 7841 C 741.011 3.70862 4.60668 0
M  V30 7842 H 739.941 0.340006 0.672987 0
M  V30 7843 H 742.592 1.38079 1.20857 0
M  V30 7844 H 740.974 1.05936 3.81567 0
M  V30 7845 H 742.148 3.70708 2.737 0
M  V30 7846 H 740.463 3.25351 2.59876 0
M  V30 7847 H 743.06 1.86766 5.01022 0
M  V30 7848 H 743.403 0.389975 4.14469 0
M  V30 7849 H 743.936 1.94826 3.46825 0
M  V30 7850 H 740.675 4.7604 4.50628 0
M  V30 7851 H 740.195 3.15456 5.10145 0
M  V30 7852 H 741.874 3.71607 5.29639 0
M  V30 7853 N 742.006 -1.2595 0.947325 0
M  V30 7854 C 742.938 -2.25336 0.41906 0
M  V30 7855 C 743.951 -1.56135 -0.461051 0
M  V30 7856 O 745.14 -1.76438 -0.270505 0
M  V30 7857 C 742.24 -3.36334 -0.416233 0
M  V30 7858 C 741.413 -4.35088 0.449162 0
M  V30 7859 C 740.472 -5.25185 -0.326716 0
M  V30 7860 O 739.498 -5.68548 0.272374 0
M  V30 7861 N 740.7 -5.57388 -1.6217 0
M  V30 7862 H 743.465 -2.71298 1.27348 0
M  V30 7863 H 741.026 -1.39781 0.81688 0
M  V30 7864 H 743.018 -3.93564 -0.942826 0
M  V30 7865 H 741.588 -2.89819 -1.17148 0
M  V30 7866 H 740.808 -3.76841 1.15692 0
M  V30 7867 H 742.096 -4.98056 1.04008 0
M  V30 7868 H 741.494 -5.2405 -2.13046 0
M  V30 7869 H 740.051 -6.17234 -2.0944 0
M  V30 7870 O 743.523 -0.8533 -1.37117 0
M  V30 7871 H 744.214 -0.44662 -1.88481 0
M  V30 END ATOM
M  V30 BEGIN BOND
M  V30 END BOND
M  V30 END CTAB
M  END
$$$$
