drugbank_target|P37063 Pyruvate oxidase (DB03147)
 OpenBabel12092119523D

  0  0  0     0  0            999 V3000
M  V30 BEGIN CTAB
M  V30 COUNTS 9277 9374 0 0 0
M  V30 BEGIN ATOM
M  V30 1 H -0.908 1.98254 -0.117106 0
M  V30 2 N 0 1.576 0 0
M  V30 3 C 0.933 2.03868 1.02534 0
M  V30 4 C 1.911 0.928543 1.3348 0
M  V30 5 O 3.095 1.19667 1.45644 0
M  V30 6 C 0.222 2.43627 2.35294 0
M  V30 7 C -0.732 3.65373 2.2001 0
M  V30 8 S 0.101 5.13292 1.52614 0
M  V30 9 C 1.257 5.56322 2.86805 0
M  V30 10 H 1.49 2.90518 0.631377 0
M  V30 11 H -0.977 1.52953 0.210867 0
M  V30 12 H 0.981 2.67203 3.11629 0
M  V30 13 H -0.358 1.57376 2.7183 0
M  V30 14 H -1.165 3.90944 3.18086 0
M  V30 15 H -1.563 3.418 1.51819 0
M  V30 16 H 0.729 5.58782 3.83104 0
M  V30 17 H 1.672 6.56266 2.65933 0
M  V30 18 H 2.08 4.83886 2.90714 0
M  V30 19 N 1.4781 -0.272755 1.55222 0
M  V30 20 C 2.7241 -1.00581 1.761 0
M  V30 21 C 3.0571 -1.85932 0.560625 0
M  V30 22 O 2.3321 -1.89416 -0.441801 0
M  V30 23 C 2.6151 -1.88816 3.06628 0
M  V30 24 C 2.4681 -1.06457 4.37021 0
M  V30 25 C 3.7871 -2.8752 3.33197 0
M  V30 26 H 0.9061 -0.364244 0.640699 0
M  V30 27 H 3.5481 -0.278189 1.87952 0
M  V30 28 H 1.6981 -2.50856 2.96654 0
M  V30 29 H 3.3701 -0.464863 4.58952 0
M  V30 30 H 1.6131 -0.368043 4.32236 0
M  V30 31 H 2.2841 -1.71514 5.24678 0
M  V30 32 H 4.7601 -2.35615 3.42965 0
M  V30 33 H 3.6361 -3.46399 4.25792 0
M  V30 34 H 3.8971 -3.62657 2.52849 0
M  V30 35 N 2.9562 -1.48159 -0.537278 0
M  V30 36 C 3.8892 -1.567 -1.65893 0
M  V30 37 C 4.8672 -0.41787 -1.57139 0
M  V30 38 O 6.0512 -0.628461 -1.77715 0
M  V30 39 C 3.1782 -1.48818 -3.04255 0
M  V30 40 C 2.2242 -2.68482 -3.31391 0
M  V30 41 S 3.0572 -4.30516 -3.1846 0
M  V30 42 C 4.2132 -4.2522 -4.59281 0
M  V30 43 H 4.4462 -2.5159 -1.58397 0
M  V30 44 H 1.9792 -1.36602 -0.719672 0
M  V30 45 H 3.9372 -1.44958 -3.84054 0
M  V30 46 H 2.5982 -0.552777 -3.09198 0
M  V30 47 H 1.7912 -2.59085 -4.32309 0
M  V30 48 H 1.3932 -2.69567 -2.59248 0
M  V30 49 H 3.6852 -3.94703 -5.5065 0
M  V30 50 H 4.6282 -5.26292 -4.73732 0
M  V30 51 H 5.0362 -3.55791 -4.38261 0
M  V30 52 N 4.4343 0.785586 -1.36625 0
M  V30 53 C 5.3813 1.89838 -1.31264 0
M  V30 54 C 6.3513 1.65115 -0.180633 0
M  V30 55 O 7.5363 1.87222 -0.36777 0
M  V30 56 C 4.6763 3.26706 -1.11163 0
M  V30 57 C 3.7893 3.63476 -2.33472 0
M  V30 58 C 2.9243 4.89481 -2.06353 0
M  V30 59 C 1.9633 5.18941 -3.24602 0
M  V30 60 N 1.1003 6.36131 -2.97123 0
M  V30 61 H 5.9403 1.93756 -2.26413 0
M  V30 62 H 3.4773 0.947454 -1.12524 0
M  V30 63 H 5.4353 4.05639 -0.975337 0
M  V30 64 H 4.0653 3.222 -0.196674 0
M  V30 65 H 3.1173 2.79636 -2.57891 0
M  V30 66 H 4.4293 3.81193 -3.21704 0
M  V30 67 H 3.5833 5.76288 -1.89675 0
M  V30 68 H 2.3223 4.73841 -1.15437 0
M  V30 69 H 1.3273 4.30615 -3.41834 0
M  V30 70 H 2.5523 5.36498 -4.16349 0
M  V30 71 H 0.4983 6.21875 -2.08823 0
M  V30 72 H 0.4153 6.54198 -3.78894 0
M  V30 73 H 1.6833 7.2591 -2.84033 0
M  V30 74 N 5.9124 1.20967 1.01018 0
M  V30 75 C 6.8444 0.922059 2.09835 0
M  V30 76 C 7.8574 -0.0927106 1.62536 0
M  V30 77 O 9.0464 0.139127 1.77957 0
M  V30 78 C 6.1464 0.362004 3.36961 0
M  V30 79 C 5.3194 1.42986 4.13369 0
M  V30 80 C 4.3784 0.879976 5.1879 0
M  V30 81 O 3.4044 1.56219 5.47343 0
M  V30 82 N 4.6064 -0.307396 5.79686 0
M  V30 83 H 7.3714 1.8588 2.35093 0
M  V30 84 H 4.9324 1.11422 1.1746 0
M  V30 85 H 6.9244 -0.0201474 4.04695 0
M  V30 86 H 5.4944 -0.479437 3.08902 0
M  V30 87 H 4.7144 1.98608 3.40512 0
M  V30 88 H 6.0024 2.14885 4.61196 0
M  V30 89 H 5.4004 -0.878796 5.58832 0
M  V30 90 H 3.9574 -0.631115 6.48737 0
M  V30 91 N 7.3905 -1.2043 1.01659 0
M  V30 92 C 8.6185 -1.93777 0.725132 0
M  V30 93 C 9.0335 -1.74772 -0.714166 0
M  V30 94 O 8.3905 -1.06169 -1.4844 0
M  V30 95 C 8.4415 -3.45876 1.05129 0
M  V30 96 O 8.1625 -3.6426 2.43406 0
M  V30 97 C 9.6635 -4.36368 0.780891 0
M  V30 98 H 6.8835 -0.615901 0.266284 0
M  V30 99 H 9.4275 -1.52922 1.35776 0
M  V30 100 H 7.5825 -3.8461 0.464065 0
M  V30 101 H 7.9965 -4.58246 2.55169 0
M  V30 102 H 9.4705 -5.41743 1.05918 0
M  V30 103 H 9.9475 -4.38275 -0.284937 0
M  V30 104 H 10.5535 -4.03296 1.35027 0
M  V30 105 N 8.8686 -0.792821 -1.36206 0
M  V30 106 C 9.8156 -0.191653 -2.30003 0
M  V30 107 C 10.7856 0.666453 -1.52143 0
M  V30 108 O 11.9706 0.61442 -1.80636 0
M  V30 109 C 9.1106 0.664848 -3.38635 0
M  V30 110 C 8.2236 -0.212175 -4.31479 0
M  V30 111 C 7.3586 0.651022 -5.27196 0
M  V30 112 C 6.3976 -0.227247 -6.11678 0
M  V30 113 N 5.5346 0.595127 -6.99573 0
M  V30 114 H 10.3746 -0.996978 -2.80828 0
M  V30 115 H 7.9116 -0.503206 -1.38225 0
M  V30 116 H 9.8696 1.17645 -4.00269 0
M  V30 117 H 8.4996 1.43557 -2.89122 0
M  V30 118 H 7.5516 -0.841777 -3.70969 0
M  V30 119 H 8.8636 -0.888751 -4.90818 0
M  V30 120 H 8.0176 1.2283 -5.94136 0
M  V30 121 H 6.7566 1.36121 -4.68319 0
M  V30 122 H 5.7616 -0.816904 -5.43697 0
M  V30 123 H 6.9866 -0.93509 -6.72631 0
M  V30 124 H 4.9326 1.28955 -6.432 0
M  V30 125 H 4.8496 -0.0236952 -7.55996 0
M  V30 126 H 6.1176 1.15613 -7.70879 0
M  V30 127 N 10.3467 1.47872 -0.545128 0
M  V30 128 C 11.2787 2.27869 0.246621 0
M  V30 129 C 12.2917 1.36282 0.890561 0
M  V30 130 O 13.4807 1.61207 0.766449 0
M  V30 131 C 10.5807 3.10159 1.36582 0
M  V30 132 C 9.7537 4.29627 0.820954 0
M  V30 133 C 8.8127 4.93607 1.82314 0
M  V30 134 O 7.8387 5.52366 1.37406 0
M  V30 135 N 9.0407 4.87211 3.15603 0
M  V30 136 H 11.8057 2.96459 -0.439539 0
M  V30 137 H 9.3667 1.57367 -0.380421 0
M  V30 138 H 11.3587 3.49829 2.03474 0
M  V30 139 H 9.9287 2.43891 1.9554 0
M  V30 140 H 9.1487 3.94192 -0.0244032 0
M  V30 141 H 10.4367 5.06928 0.436063 0
M  V30 142 H 9.8347 4.40651 3.54744 0
M  V30 143 H 8.3917 5.30937 3.78087 0
M  V30 144 N 11.8248 0.280983 1.55075 0
M  V30 145 C 13.0528 -0.337293 2.04132 0
M  V30 146 C 13.4678 -1.4903 1.15912 0
M  V30 147 O 12.8248 -1.81606 0.180459 0
M  V30 148 C 12.8758 -0.812706 3.52246 0
M  V30 149 O 12.5968 0.294387 4.3711 0
M  V30 150 C 14.0978 -1.4982 4.17216 0
M  V30 151 H 11.3178 -0.0761638 0.666663 0
M  V30 152 H 13.8618 0.414787 2.00249 0
M  V30 153 H 12.0168 -1.51486 3.56554 0
M  V30 154 H 12.4308 -0.0721325 5.2445 0
M  V30 155 H 13.9048 -1.7822 5.22438 0
M  V30 156 H 14.3818 -2.43168 3.65741 0
M  V30 157 H 14.9878 -0.839742 4.16927 0
M  V30 158 N 13.3029 -1.57598 0.00835791 0
M  V30 159 C 14.2509 -2.10078 -0.998508 0
M  V30 160 C 15.2449 -1.02262 -1.35051 0
M  V30 161 O 16.4509 -1.20719 -1.33518 0
M  V30 162 H 12.8259 -0.670903 -0.339696 0
M  V30 163 H 14.7969 -2.93648 -0.530398 0
M  V30 164 C 13.5459 -2.62615 -2.27879 0
M  V30 165 H 12.8689 -3.45213 -2.01662 0
M  V30 166 H 14.3089 -3.03004 -2.96588 0
M  V30 167 C 12.7679 -1.54407 -2.99433 0
M  V30 168 O 13.2979 -0.931812 -3.90743 0
M  V30 169 N 11.5039 -1.2695 -2.61404 0
M  V30 170 H 11.0509 -1.76924 -1.87232 0
M  V30 171 H 11.0089 -0.547704 -3.09593 0
M  V30 172 N 14.781 0.264519 -1.55364 0
M  V30 173 C 16.03 0.992812 -1.75574 0
M  V30 174 C 16.343 1.87142 -0.568979 0
M  V30 175 O 17.549 2.63513 -0.653682 0
M  V30 176 C 16.005 1.81519 -3.10771 0
M  V30 177 C 15.613 0.984839 -4.37041 0
M  V30 178 C 17.357 2.53727 -3.40327 0
M  V30 179 C 15.264 1.80209 -5.63275 0
M  V30 180 H 14.194 0.374412 -0.65447 0
M  V30 181 H 16.845 0.248138 -1.81815 0
M  V30 182 H 15.227 2.60115 -2.98591 0
M  V30 183 H 16.401 0.242455 -4.60162 0
M  V30 184 H 14.716 0.37691 -4.14691 0
M  V30 185 H 17.313 3.15292 -4.3185 0
M  V30 186 H 17.656 3.24447 -2.60845 0
M  V30 187 H 18.189 1.82156 -3.53644 0
M  V30 188 H 14.928 1.13896 -6.45529 0
M  V30 189 H 14.448 2.52022 -5.44284 0
M  V30 190 H 16.127 2.37364 -6.01887 0
M  V30 191 N 16.2591 1.48442 0.529413 0
M  V30 192 C 17.1891 1.65902 1.64313 0
M  V30 193 C 18.1701 0.507897 1.6234 0
M  V30 194 O 19.3551 0.740503 1.79528 0
M  V30 195 C 16.4851 1.69911 3.02898 0
M  V30 196 C 15.4391 2.8453 3.19729 0
M  V30 197 C 14.7651 2.73629 4.59381 0
M  V30 198 C 16.0651 4.25821 3.02447 0
M  V30 199 H 17.7591 2.5914 1.49955 0
M  V30 200 H 15.3051 1.24709 0.719982 0
M  V30 201 H 17.2581 1.80715 3.80684 0
M  V30 202 H 15.9821 0.732524 3.18279 0
M  V30 203 H 14.6411 2.73283 2.44361 0
M  V30 204 H 14.2891 1.74938 4.71599 0
M  V30 205 H 13.9891 3.50541 4.71588 0
M  V30 206 H 15.5131 2.86401 5.39265 0
M  V30 207 H 16.9271 4.37898 3.70024 0
M  V30 208 H 15.3241 5.03735 3.26146 0
M  V30 209 H 16.3941 4.42244 1.98867 0
M  V30 210 N 17.7372 -0.778329 1.37039 0
M  V30 211 C 18.7002 -1.87301 1.32102 0
M  V30 212 C 19.7002 -1.59198 0.226405 0
M  V30 213 O 20.8902 -1.67403 0.481861 0
M  V30 214 C 18.0222 -3.24309 1.05055 0
M  V30 215 H 19.2152 -1.93093 2.29467 0
M  V30 216 H 16.7682 -0.977358 1.21973 0
M  V30 217 H 17.5032 -3.24196 0.0819373 0
M  V30 218 H 17.2882 -3.46098 1.84279 0
M  V30 219 H 18.7782 -4.04382 1.04234 0
M  V30 220 N 19.2153 -1.21501 -1.00376 0
M  V30 221 C 20.4633 -1.03095 -1.73827 0
M  V30 222 C 20.7843 0.436341 -1.90055 0
M  V30 223 O 20.0543 1.31466 -1.45236 0
M  V30 224 H 18.6343 -0.378487 -0.644016 0
M  V30 225 H 21.2963 -1.52831 -1.20949 0
M  V30 226 H 20.3923 -1.49991 -2.73695 0
M  V30 227 N 20.6934 1.19889 -1.02296 0
M  V30 228 C 21.6564 2.21116 -0.603351 0
M  V30 229 C 22.6564 1.5738 0.329884 0
M  V30 230 O 23.8464 1.73802 0.117702 0
M  V30 231 C 20.9784 3.40696 0.117992 0
M  V30 232 H 22.1714 2.59754 -1.49893 0
M  V30 233 H 19.7244 1.33463 -0.813468 0
M  V30 234 H 20.4594 3.07569 1.0282 0
M  V30 235 H 20.2444 3.88188 -0.552511 0
M  V30 236 H 21.7344 4.15692 0.398696 0
M  V30 237 N 22.1715 0.800033 1.35784 0
M  V30 238 C 23.1345 0.211565 2.28221 0
M  V30 239 C 24.1345 -0.59728 1.49296 0
M  V30 240 O 25.3245 -0.416721 1.69142 0
M  V30 241 C 22.4565 -0.705846 3.33513 0
M  V30 242 H 23.6495 1.02677 2.81776 0
M  V30 243 H 21.2025 0.570211 1.45528 0
M  V30 244 H 21.9375 -1.54498 2.85133 0
M  V30 245 H 21.7225 -0.127655 3.91892 0
M  V30 246 H 23.2125 -1.11211 4.02519 0
M  V30 247 N 23.6496 -1.47581 0.552962 0
M  V30 248 C 24.8956 -2.02782 0.0273648 0
M  V30 249 C 25.2286 -1.42687 -1.31734 0
M  V30 250 O 24.5036 -0.580897 -1.85623 0
M  V30 251 C 24.7866 -3.60031 -0.0702371 0
M  V30 252 C 24.6396 -4.30566 1.30126 0
M  V30 253 C 25.9586 -4.33028 -0.785771 0
M  V30 254 H 23.0776 -0.736912 0.0114185 0
M  V30 255 H 25.7196 -1.76056 0.714432 0
M  V30 256 H 23.8696 -3.82932 -0.655382 0
M  V30 257 H 25.5416 -4.19018 1.92929 0
M  V30 258 H 23.7846 -3.91086 1.87709 0
M  V30 259 H 24.4556 -5.39114 1.18573 0
M  V30 260 H 26.9316 -4.15095 -0.288982 0
M  V30 261 H 25.8076 -5.42695 -0.823013 0
M  V30 262 H 26.0686 -4.01945 -1.841 0
M  V30 263 N 25.1277 -0.289203 -1.54924 0
M  V30 264 C 26.3767 0.324231 -1.99077 0
M  V30 265 C 26.6897 1.5591 -1.18117 0
M  V30 266 O 27.8957 2.24637 -1.52481 0
M  V30 267 C 26.3517 0.628209 -3.54375 0
M  V30 268 C 25.9597 -0.587647 -4.44129 0
M  V30 269 C 27.7037 1.20349 -4.07083 0
M  V30 270 C 25.6107 -0.257475 -5.90839 0
M  V30 271 H 24.5407 0.124924 -0.743579 0
M  V30 272 H 27.1917 -0.396063 -1.79175 0
M  V30 273 H 25.5737 1.40778 -3.70132 0
M  V30 274 H 26.7477 -1.36418 -4.40144 0
M  V30 275 H 25.0627 -1.08074 -4.0213 0
M  V30 276 H 27.6597 1.46456 -5.14252 0
M  V30 277 H 28.0027 2.14195 -3.56968 0
M  V30 278 H 28.5357 0.485889 -3.94821 0
M  V30 279 H 25.2747 -1.16419 -6.45079 0
M  V30 280 H 24.7947 0.482018 -5.9786 0
M  V30 281 H 26.4737 0.145238 -6.46837 0
M  V30 282 N 26.6058 1.57591 -0.0167156 0
M  V30 283 C 27.5528 2.09462 0.969251 0
M  V30 284 C 28.5228 0.99381 1.33089 0
M  V30 285 O 29.7078 1.26726 1.42636 0
M  V30 286 C 26.8478 2.61622 2.25051 0
M  V30 287 C 25.9608 3.85666 1.94642 0
M  V30 288 C 25.0958 4.26266 3.16972 0
M  V30 289 C 24.1348 5.43101 2.82326 0
M  V30 290 N 23.2718 5.78915 3.97243 0
M  V30 291 H 28.1118 2.93428 0.519997 0
M  V30 292 H 25.6488 1.45044 0.245087 0
M  V30 293 H 27.6068 2.89949 2.99976 0
M  V30 294 H 26.2368 1.80505 2.67615 0
M  V30 295 H 25.2888 3.64145 1.10013 0
M  V30 296 H 26.6008 4.70678 1.65117 0
M  V30 297 H 25.7548 4.55963 4.00228 0
M  V30 298 H 24.4938 3.39996 3.49648 0
M  V30 299 H 23.4988 5.1311 1.97479 0
M  V30 300 H 24.7238 6.3106 2.50879 0
M  V30 301 H 22.6698 4.95602 4.29785 0
M  V30 302 H 22.5868 6.58539 3.71299 0
M  V30 303 H 23.8548 6.13212 4.81239 0
M  V30 304 N 28.0839 -0.256276 1.55502 0
M  V30 305 C 29.3299 -0.987079 1.77157 0
M  V30 306 C 29.6629 -1.85327 0.580315 0
M  V30 307 O 28.9379 -1.89874 -0.421686 0
M  V30 308 C 29.2209 -1.85553 3.08613 0
M  V30 309 C 29.0739 -1.01816 4.38125 0
M  V30 310 C 30.3929 -2.8397 3.36228 0
M  V30 311 H 27.5119 -0.357428 0.644526 0
M  V30 312 H 30.1539 -0.258239 1.88237 0
M  V30 313 H 28.3039 -2.47695 2.99298 0
M  V30 314 H 29.9759 -0.416159 4.59419 0
M  V30 315 H 28.2189 -0.322178 4.32602 0
M  V30 316 H 28.8899 -1.65939 5.26468 0
M  V30 317 H 31.3659 -2.31964 3.45445 0
M  V30 318 H 30.2419 -3.41864 4.29442 0
M  V30 319 H 30.5029 -3.59955 2.56681 0
M  V30 320 N 29.562 -1.4872 -0.521534 0
M  V30 321 C 30.492 -1.66771 -1.63431 0
M  V30 322 C 31.473 -0.516499 -1.62069 0
M  V30 323 O 32.658 -0.750013 -1.79132 0
M  V30 324 C 29.788 -1.71515 -3.01993 0
M  V30 325 C 28.742 -2.86222 -3.18216 0
M  V30 326 C 28.068 -2.76061 -4.57924 0
M  V30 327 C 29.368 -4.27419 -3.00184 0
M  V30 328 H 31.062 -2.59932 -1.48579 0
M  V30 329 H 28.608 -1.25089 -0.713358 0
M  V30 330 H 30.561 -1.82731 -3.7972 0
M  V30 331 H 29.285 -0.749393 -3.17886 0
M  V30 332 H 27.944 -2.74575 -2.42908 0
M  V30 333 H 27.592 -1.77437 -4.70665 0
M  V30 334 H 27.292 -3.53037 -4.69722 0
M  V30 335 H 28.816 -2.89256 -5.37739 0
M  V30 336 H 30.23 -4.39855 -3.67697 0
M  V30 337 H 28.627 -5.05458 -3.2347 0
M  V30 338 H 29.697 -4.43293 -1.96518 0
M  V30 339 N 31.0401 0.771051 -1.3745 0
M  V30 340 C 31.9501 1.91538 -1.35464 0
M  V30 341 C 32.9661 1.72134 -0.254123 0
M  V30 342 O 34.1421 1.95358 -0.489626 0
M  V30 343 C 31.2071 3.26671 -1.16134 0
M  V30 344 C 30.2681 3.58723 -2.35831 0
M  V30 345 C 29.5011 4.87409 -2.17413 0
M  V30 346 O 29.7241 5.58506 -1.15876 0
M  V30 347 O 28.6581 5.18539 -3.05615 0
M  V30 348 H 32.4841 1.96165 -2.31847 0
M  V30 349 H 30.0691 0.9139 -1.18187 0
M  V30 350 H 31.9511 4.07499 -1.07345 0
M  V30 351 H 30.6261 3.22894 -0.228251 0
M  V30 352 H 29.5331 2.78127 -2.50192 0
M  V30 353 H 30.8661 3.67243 -3.27709 0
M  V30 354 N 32.5182 1.22032 0.997298 0
M  V30 355 C 33.4812 0.987909 2.06816 0
M  V30 356 C 34.4812 -0.0440084 1.6074 0
M  V30 357 O 35.6712 0.194053 1.73116 0
M  V30 358 C 32.8032 0.49132 3.37341 0
M  V30 359 H 33.9962 1.93803 2.28868 0
M  V30 360 H 31.5492 1.03838 1.16822 0
M  V30 361 H 32.2842 -0.463364 3.20973 0
M  V30 362 H 32.0692 1.23575 3.72118 0
M  V30 363 H 33.5592 0.348824 4.16141 0
M  V30 364 N 33.9963 -1.19345 1.0293 0
M  V30 365 C 35.2423 -1.89585 0.736824 0
M  V30 366 C 35.5973 -1.78148 -0.726703 0
M  V30 367 O 34.8903 -1.16332 -1.52242 0
M  V30 368 C 35.0843 -3.39292 1.12319 0
M  V30 369 C 34.9133 -3.65298 2.62273 0
M  V30 370 C 33.6833 -3.83304 3.29251 0
M  V30 371 C 35.8813 -3.6682 3.60482 0
M  V30 372 N 33.8633 -3.96944 4.68304 0
M  V30 373 C 35.2343 -3.86037 4.85155 0
M  V30 374 C 37.2893 -3.49848 3.54275 0
M  V30 375 C 35.9923 -3.9004 6.04369 0
M  V30 376 C 38.0183 -3.55129 4.72903 0
M  V30 377 C 37.3803 -3.74831 5.9639 0
M  V30 378 H 33.4793 -0.712856 0.321497 0
M  V30 379 H 36.0633 -1.43427 1.31669 0
M  V30 380 H 34.2343 -3.84172 0.571524 0
M  V30 381 H 35.9663 -3.97055 0.78292 0
M  V30 382 H 32.7213 -3.82211 2.79663 0
M  V30 383 H 33.1453 -4.07613 5.40538 0
M  V30 384 H 37.7873 -3.33572 2.59788 0
M  V30 385 H 35.5053 -4.05108 6.99223 0
M  V30 386 H 39.0913 -3.43287 4.69729 0
M  V30 387 H 37.9713 -3.78792 6.86649 0
M  V30 388 N 35.4744 -0.807222 -1.35358 0
M  V30 389 C 36.7224 -0.387122 -1.98358 0
M  V30 390 C 37.0434 1.04942 -1.64354 0
M  V30 391 O 36.3134 1.72615 -0.926339 0
M  V30 392 H 34.8934 -0.140154 -0.733734 0
M  V30 393 H 37.5554 -1.0332 -1.6526 0
M  V30 394 H 36.6514 -0.493352 -3.08176 0
M  V30 395 N 36.9525 1.47285 -0.560781 0
M  V30 396 C 38.1985 2.02764 -0.0381184 0
M  V30 397 C 38.5315 1.43384 1.30976 0
M  V30 398 O 37.8065 0.590733 1.85312 0
M  V30 399 C 38.0895 3.60064 0.0511427 0
M  V30 400 C 37.9425 4.2987 -1.32408 0
M  V30 401 C 39.2615 4.33439 0.762795 0
M  V30 402 H 36.3805 0.736841 -0.0153264 0
M  V30 403 H 39.0225 1.75675 -0.723759 0
M  V30 404 H 37.1725 3.83274 0.635065 0
M  V30 405 H 38.8445 4.17989 -1.95148 0
M  V30 406 H 37.0875 3.90085 -1.8978 0
M  V30 407 H 37.7585 5.38478 -1.21431 0
M  V30 408 H 40.2345 4.15243 0.266965 0
M  V30 409 H 39.1105 5.43124 0.794221 0
M  V30 410 H 39.3715 4.02915 1.81966 0
M  V30 411 N 38.4306 0.297415 1.54768 0
M  V30 412 C 39.7076 -0.365847 1.92148 0
M  V30 413 C 40.0876 -1.71975 1.22424 0
M  V30 414 O 39.4356 -2.25666 0.358739 0
M  V30 415 C 39.6456 -0.484056 3.45627 0
M  V30 416 C 40.9936 -0.756594 4.17805 0
M  V30 417 O 42.0176 -0.568007 3.51642 0
M  V30 418 O 40.8766 -1.11863 5.34929 0
M  V30 419 H 37.9706 -0.203919 0.801465 0
M  V30 420 H 40.5166 0.34521 1.66152 0
M  V30 421 H 39.2886 0.467865 3.88493 0
M  V30 422 H 38.9116 -1.24372 3.77647 0
M  V30 423 N 39.9087 -1.5758 0.0250728 0
M  V30 424 C 40.8587 -2.06468 -0.967201 0
M  V30 425 C 41.8427 -0.964376 -1.28797 0
M  V30 426 O 43.0347 -1.22797 -1.27475 0
M  V30 427 C 40.1637 -2.59203 -2.25097 0
M  V30 428 C 39.2497 -3.76157 -1.95874 0
M  V30 429 N 39.6407 -4.86919 -1.36905 0
M  V30 430 C 37.9387 -3.84566 -2.25887 0
M  V30 431 C 38.6397 -5.68172 -1.24724 0
M  V30 432 N 37.6157 -5.14953 -1.74138 0
M  V30 433 H 41.4177 -2.89508 -0.506176 0
M  V30 434 H 38.9317 -1.61399 -0.18004 0
M  V30 435 H 40.9287 -2.92517 -2.97052 0
M  V30 436 H 39.5887 -1.77592 -2.71829 0
M  V30 437 H 40.5997 -5.07256 -1.04459 0
M  V30 438 H 37.2767 -3.13854 -2.75321 0
M  V30 439 H 38.6667 -6.67221 -0.791605 0
M  V30 440 N 41.3868 0.248026 -1.55636 0
M  V30 441 C 42.3168 1.31079 -1.93237 0
M  V30 442 C 43.2978 1.50264 -0.797174 0
M  V30 443 O 44.4828 1.62891 -1.05737 0
M  V30 444 C 41.6128 2.66575 -2.22609 0
M  V30 445 C 40.5668 2.62087 -3.3837 0
M  V30 446 C 39.8928 4.01369 -3.53281 0
M  V30 447 C 41.1928 2.19171 -4.7409 0
M  V30 448 H 42.8868 0.998556 -2.82257 0
M  V30 449 H 40.4328 0.47891 -1.35803 0
M  V30 450 H 42.3858 3.41057 -2.47503 0
M  V30 451 H 41.1098 2.99432 -1.30414 0
M  V30 452 H 39.7688 1.90063 -3.13483 0
M  V30 453 H 39.4168 4.31489 -2.58508 0
M  V30 454 H 39.1168 3.99254 -4.31127 0
M  V30 455 H 40.6408 4.77552 -3.80495 0
M  V30 456 H 42.0548 2.83384 -4.98363 0
M  V30 457 H 40.4518 2.2817 -5.5503 0
M  V30 458 H 41.5218 1.14336 -4.71227 0
M  V30 459 N 42.8649 1.48995 0.513639 0
M  V30 460 C 44.0949 1.61297 1.291 0
M  V30 461 C 44.5029 0.278656 1.87137 0
M  V30 462 O 43.8459 -0.744325 1.67945 0
M  V30 463 C 43.9079 2.61326 2.46879 0
M  V30 464 C 43.5719 4.05993 2.09807 0
M  V30 465 C 44.5689 4.93183 1.64519 0
M  V30 466 C 42.2539 4.51642 2.19829 0
M  V30 467 C 44.2479 6.24056 1.2974 0
M  V30 468 C 41.9349 5.82532 1.84662 0
M  V30 469 C 42.9329 6.68562 1.3969 0
M  V30 470 O 42.6209 7.97014 1.04992 0
M  V30 471 H 42.3529 0.546236 0.39825 0
M  V30 472 H 44.9069 1.95673 0.62459 0
M  V30 473 H 43.1369 2.22104 3.16554 0
M  V30 474 H 44.8259 2.6329 3.08923 0
M  V30 475 H 45.5919 4.59147 1.56233 0
M  V30 476 H 41.4709 3.84855 2.53786 0
M  V30 477 H 45.0149 6.91161 0.945659 0
M  V30 478 H 40.9119 6.16099 1.92594 0
M  V30 479 H 41.6799 8.09913 1.18249 0
M  V30 480 N 44.343 -0.763751 1.37857 0
M  V30 481 C 45.591 -1.51957 1.33243 0
M  V30 482 C 45.912 -1.94835 -0.0801709 0
M  V30 483 O 45.182 -1.66894 -1.02582 0
M  V30 484 H 43.762 -0.563626 0.49024 0
M  V30 485 H 46.424 -0.908504 1.7243 0
M  V30 486 H 45.52 -2.41523 1.97669 0
M  V30 487 N 45.8211 -1.22559 -0.990812 0
M  V30 488 C 47.0701 -1.04553 -1.72486 0
M  V30 489 C 47.3831 0.419349 -1.91052 0
M  V30 490 O 48.5891 0.719121 -2.61803 0
M  V30 491 C 47.0451 -1.82231 -3.10355 0
M  V30 492 C 46.6531 -3.32981 -2.99713 0
M  V30 493 C 48.3971 -1.7268 -3.87791 0
M  V30 494 C 46.3041 -4.03091 -4.32748 0
M  V30 495 H 45.2341 -0.387614 -0.646739 0
M  V30 496 H 47.8851 -1.46429 -1.10593 0
M  V30 497 H 46.2671 -1.33155 -3.72942 0
M  V30 498 H 47.4411 -3.89466 -2.46278 0
M  V30 499 H 45.7561 -3.43231 -2.35758 0
M  V30 500 H 48.3531 -2.22381 -4.86262 0
M  V30 501 H 48.6961 -0.687607 -4.10582 0
M  V30 502 H 49.2291 -2.1931 -3.31885 0
M  V30 503 H 45.9681 -5.07273 -4.15156 0
M  V30 504 H 45.4881 -3.51394 -4.86089 0
M  V30 505 H 47.1671 -4.08804 -5.01486 0
M  V30 506 N 47.2992 1.18797 -1.03562 0
M  V30 507 C 48.7102 1.70322 -0.764676 0
M  V30 508 C 49.0612 1.82708 0.714996 0
M  V30 509 O 48.1862 1.50299 1.55689 0
M  V30 510 C 48.7812 3.09356 -1.38145 0
M  V30 511 C 47.3402 3.58114 -1.15895 0
M  V30 512 C 46.4872 2.34798 -1.4753 0
M  V30 513 H 49.4382 1.03543 -1.20268 0
M  V30 514 H 49.4592 3.72378 -0.781977 0
M  V30 515 H 48.9712 3.00309 -2.45837 0
M  V30 516 H 47.0722 3.72464 -0.100544 0
M  V30 517 H 47.1852 4.4184 -1.8524 0
M  V30 518 H 45.5492 2.38464 -0.894829 0
M  V30 519 H 46.3322 2.28375 -2.56319 0
M  V30 520 N 48.7773 0.814389 1.34928 0
M  V30 521 C 50.0253 0.397636 1.9815 0
M  V30 522 C 50.3463 -1.04069 1.64908 0
M  V30 523 O 49.6163 -1.72121 0.93548 0
M  V30 524 H 48.1963 0.144043 0.732981 0
M  V30 525 H 50.8583 1.04195 1.6471 0
M  V30 526 H 49.9543 0.509688 3.0791 0
M  V30 527 N 50.2554 -1.46986 0.568584 0
M  V30 528 C 51.5034 -2.02041 0.0487022 0
M  V30 529 C 51.8244 -1.44408 -1.31039 0
M  V30 530 O 51.0944 -0.623477 -1.85714 0
M  V30 531 H 49.6744 -0.746849 0.015014 0
M  V30 532 H 52.3364 -1.80257 0.741168 0
M  V30 533 H 51.4324 -3.12085 -0.0308961 0
M  V30 534 N 51.7335 -0.305618 -1.54608 0
M  V30 535 C 52.9585 0.307562 -2.05107 0
M  V30 536 C 53.3835 1.46385 -1.18123 0
M  V30 537 O 52.7415 1.8034 -0.186324 0
M  V30 538 C 52.7895 0.73704 -3.52987 0
M  V30 539 O 51.8935 1.84134 -3.6901 0
M  V30 540 H 51.2345 0.0589143 -0.661381 0
M  V30 541 H 53.7645 -0.448807 -1.99617 0
M  V30 542 H 53.7745 1.02459 -3.94925 0
M  V30 543 H 52.4495 -0.108773 -4.15758 0
M  V30 544 H 51.0265 1.55398 -3.38978 0
M  V30 545 N 53.2116 1.57565 -0.0334293 0
M  V30 546 C 54.4606 1.91155 0.643639 0
M  V30 547 C 54.7736 0.91192 1.73042 0
M  V30 548 O 55.9796 1.13923 2.46442 0
M  V30 549 C 54.4356 3.39443 1.1961 0
M  V30 550 C 54.0436 4.47774 0.142381 0
M  V30 551 C 55.7876 3.82094 1.84944 0
M  V30 552 C 53.6946 5.87162 0.706727 0
M  V30 553 H 52.6246 0.713368 0.244176 0
M  V30 554 H 55.2756 1.8323 -0.0994323 0
M  V30 555 H 53.6576 3.42313 1.99092 0
M  V30 556 H 54.8316 4.56469 -0.630296 0
M  V30 557 H 53.1466 4.14352 -0.412446 0
M  V30 558 H 55.7436 4.83591 2.2813 0
M  V30 559 H 56.0866 3.17386 2.69392 0
M  V30 560 H 56.6196 3.81665 1.12145 0
M  V30 561 H 53.3586 6.55424 -0.0997178 0
M  V30 562 H 52.8786 5.82064 1.44779 0
M  V30 563 H 54.5576 6.35866 1.19514 0
M  V30 564 N 54.6897 -0.239769 1.55765 0
M  V30 565 C 55.6377 -1.31668 1.91745 0
M  V30 566 C 56.6317 -1.49462 0.797338 0
M  V30 567 O 57.8377 -1.50852 0.982021 0
M  V30 568 H 54.2127 -0.441048 0.609082 0
M  V30 569 H 56.1837 -0.985923 2.81642 0
M  V30 570 C 54.9327 -2.66368 2.2348 0
M  V30 571 H 54.2557 -2.53478 3.09175 0
M  V30 572 H 55.6957 -3.40578 2.52553 0
M  V30 573 C 54.1547 -3.20002 1.05359 0
M  V30 574 O 54.6847 -4.00538 0.305261 0
M  V30 575 N 52.8907 -2.78126 0.842292 0
M  V30 576 H 52.4377 -2.12742 1.45253 0
M  V30 577 H 52.3957 -3.14354 0.053652 0
M  V30 578 N 56.1678 -1.49265 -0.50573 0
M  V30 579 C 57.3928 -1.62478 -1.28902 0
M  V30 580 C 57.8178 -0.294332 -1.85783 0
M  V30 581 O 57.1758 0.737412 -1.65626 0
M  V30 582 C 57.2238 -2.69268 -2.39848 0
M  V30 583 O 56.3278 -2.28113 -3.43567 0
M  V30 584 H 55.6688 -0.54399 -0.380751 0
M  V30 585 H 58.1988 -1.95421 -0.605952 0
M  V30 586 H 58.2088 -2.91291 -2.85681 0
M  V30 587 H 56.8838 -3.65846 -1.97812 0
M  V30 588 H 55.4608 -2.16401 -3.03685 0
M  V30 589 N 57.6459 0.756429 -1.3826 0
M  V30 590 C 58.8949 1.51082 -1.3363 0
M  V30 591 C 59.2079 1.95467 0.0720068 0
M  V30 592 O 60.4139 2.7043 0.240834 0
M  V30 593 C 58.8699 2.72893 -2.34644 0
M  V30 594 C 58.4779 2.35544 -3.81081 0
M  V30 595 C 60.2219 3.50791 -2.39052 0
M  V30 596 C 58.1289 3.53948 -4.73787 0
M  V30 597 H 57.0589 0.56727 -0.49671 0
M  V30 598 H 59.7099 0.827147 -1.638 0
M  V30 599 H 58.0919 3.43227 -1.97513 0
M  V30 600 H 59.2659 1.72894 -4.27135 0
M  V30 601 H 57.5809 1.70786 -3.79764 0
M  V30 602 H 60.1779 4.38823 -3.05513 0
M  V30 603 H 60.5209 3.91745 -1.40861 0
M  V30 604 H 61.0539 2.87467 -2.74968 0
M  V30 605 H 57.7929 3.18064 -5.73163 0
M  V30 606 H 57.3129 4.15651 -4.32428 0
M  V30 607 H 58.9919 4.20566 -4.91663 0
M  V30 608 N 59.124 1.23083 0.984299 0
M  V30 609 C 60.057 0.951786 2.07404 0
M  V30 610 C 61.035 -0.10848 1.62238 0
M  V30 611 O 62.219 0.0249467 1.88483 0
M  V30 612 C 59.346 0.433142 3.35919 0
M  V30 613 C 58.392 1.47941 4.0002 0
M  V30 614 S 59.225 3.05556 4.39768 0
M  V30 615 C 60.381 2.55351 5.71442 0
M  V30 616 H 60.614 1.87456 2.30754 0
M  V30 617 H 58.147 1.06284 1.11996 0
M  V30 618 H 60.105 0.140506 4.10259 0
M  V30 619 H 58.766 -0.468656 3.10584 0
M  V30 620 H 57.959 1.06658 4.92585 0
M  V30 621 H 57.561 1.7212 3.3204 0
M  V30 622 H 59.853 1.97128 6.48187 0
M  V30 623 H 60.796 3.46441 6.17563 0
M  V30 624 H 61.204 1.96339 5.29255 0
M  V30 625 N 60.6021 -1.18246 1.0419 0
M  V30 626 C 61.8791 -1.84121 0.660208 0
M  V30 627 C 62.2591 -1.92778 -0.860221 0
M  V30 628 O 61.6071 -1.45464 -1.76217 0
M  V30 629 C 61.8171 -3.22355 1.33747 0
M  V30 630 C 63.1651 -3.98376 1.46906 0
M  V30 631 O 64.1891 -3.31799 1.29568 0
M  V30 632 O 63.0481 -5.17665 1.75171 0
M  V30 633 H 60.1421 -0.794036 0.231161 0
M  V30 634 H 62.6881 -1.25628 1.14087 0
M  V30 635 H 61.4601 -3.10964 2.37522 0
M  V30 636 H 61.0831 -3.88506 0.845515 0
M  V30 637 N 62.0802 -0.821533 -1.34494 0
M  V30 638 C 63.0432 -0.247847 -2.27856 0
M  V30 639 C 64.0432 0.573453 -1.50227 0
M  V30 640 O 65.2332 0.389759 -1.69784 0
M  V30 641 C 62.3652 0.652698 -3.34593 0
M  V30 642 H 63.5582 -1.07146 -2.80107 0
M  V30 643 H 61.1112 -0.593291 -1.44602 0
M  V30 644 H 61.8462 1.49943 -2.87555 0
M  V30 645 H 61.6312 0.065292 -3.92046 0
M  V30 646 H 63.1212 1.04793 -4.04238 0
M  V30 647 N 63.5583 1.46682 -0.576371 0
M  V30 648 C 64.4883 2.33028 0.148397 0
M  V30 649 C 65.4693 1.44961 0.889956 0
M  V30 650 O 66.6543 1.73789 0.866662 0
M  V30 651 C 63.7843 3.27117 1.1667 0
M  V30 652 C 62.7383 4.24575 0.540386 0
M  V30 653 C 62.0643 5.08126 1.6647 0
M  V30 654 C 63.3643 5.19722 -0.518331 0
M  V30 655 H 65.0583 2.93875 -0.572509 0
M  V30 656 H 62.6043 1.41315 -0.276768 0
M  V30 657 H 64.5573 3.86374 1.68204 0
M  V30 658 H 63.2813 2.64364 1.9178 0
M  V30 659 H 61.9403 3.66571 0.0461769 0
M  V30 660 H 61.5883 4.41762 2.40531 0
M  V30 661 H 61.2883 5.74122 1.25131 0
M  V30 662 H 62.8123 5.70246 2.18293 0
M  V30 663 H 64.2263 5.73232 -0.0883058 0
M  V30 664 H 62.6233 5.94026 -0.851679 0
M  V30 665 H 63.6933 4.64037 -1.40703 0
M  V30 666 N 65.0364 0.313813 1.54444 0
M  V30 667 C 66.2614 -0.296681 2.05267 0
M  V30 668 C 66.6864 -1.45757 1.18897 0
M  V30 669 O 66.0444 -1.80239 0.195886 0
M  V30 670 C 66.0924 -0.71831 3.53373 0
M  V30 671 O 65.1964 -1.82175 3.69981 0
M  V30 672 H 64.5374 -0.0554061 0.661684 0
M  V30 673 H 67.0674 0.459387 1.99376 0
M  V30 674 H 67.0774 -1.00364 3.95463 0
M  V30 675 H 65.7524 0.130821 4.15694 0
M  V30 676 H 64.3294 -1.53598 3.39797 0
M  V30 677 N 66.5145 -1.57545 0.0417849 0
M  V30 678 C 67.4775 -2.09885 -0.92093 0
M  V30 679 C 68.4775 -1.01648 -1.24596 0
M  V30 680 O 69.6675 -1.27759 -1.1842 0
M  V30 681 C 66.7995 -2.57527 -2.23367 0
M  V30 682 H 67.9925 -2.96236 -0.467382 0
M  V30 683 H 65.5455 -1.5493 -0.206467 0
M  V30 684 H 66.2805 -1.74542 -2.73323 0
M  V30 685 H 66.0655 -3.36613 -2.01083 0
M  V30 686 H 67.5555 -2.98201 -2.92346 0
M  V30 687 N 67.9926 0.231505 -1.5589 0
M  V30 688 C 68.9026 1.308 -1.94752 0
M  V30 689 C 69.9186 1.51826 -0.849989 0
M  V30 690 O 71.0946 1.6515 -1.15271 0
M  V30 691 C 68.1596 2.63968 -2.24771 0
M  V30 692 C 67.2206 2.51331 -3.48039 0
M  V30 693 C 66.4536 3.78148 -3.76616 0
M  V30 694 O 66.6766 4.80722 -3.07022 0
M  V30 695 O 65.6106 3.75857 -4.70123 0
M  V30 696 H 69.4366 1.0083 -2.86474 0
M  V30 697 H 67.0216 0.433547 -1.42971 0
M  V30 698 H 68.9036 3.42633 -2.45318 0
M  V30 699 H 67.5786 2.9364 -1.36225 0
M  V30 700 H 66.4856 1.709 -3.32782 0
M  V30 701 H 67.8186 2.26601 -4.36936 0
M  V30 702 N 69.4707 1.49531 0.497807 0
M  V30 703 C 70.8867 1.36365 0.829266 0
M  V30 704 C 71.0867 0.399184 1.97506 0
M  V30 705 O 70.1427 -0.167977 2.51941 0
M  V30 706 C 71.4557 2.77153 1.16647 0
M  V30 707 C 73.0037 2.85877 1.27449 0
M  V30 708 C 73.4787 4.2744 1.64497 0
M  V30 709 N 74.9697 4.30265 1.7154 0
M  V30 710 C 75.7047 5.3677 2.01656 0
M  V30 711 N 75.2007 6.53516 2.29976 0
M  V30 712 N 76.9937 5.24189 2.02934 0
M  V30 713 H 69.1447 2.10831 -0.257703 0
M  V30 714 H 71.4077 0.946534 -0.0527091 0
M  V30 715 H 71.1137 3.49442 0.397872 0
M  V30 716 H 70.9877 3.12722 2.10915 0
M  V30 717 H 73.3747 2.13824 2.0338 0
M  V30 718 H 73.4557 2.53887 0.312244 0
M  V30 719 H 73.0997 5.00021 0.891151 0
M  V30 720 H 73.0297 4.56896 2.61827 0
M  V30 721 H 75.5207 3.4607 1.51802 0
M  V30 722 H 75.8337 7.30506 2.52153 0
M  V30 723 H 74.1787 6.56737 2.27425 0
M  V30 724 H 77.3697 4.31988 1.80289 0
M  V30 725 H 77.5427 6.07286 2.26071 0
M  V30 726 N 70.9488 -0.749086 1.3866 0
M  V30 727 C 72.2258 -1.4992 1.25632 0
M  V30 728 C 72.6058 -2.10633 -0.140317 0
M  V30 729 O 71.9538 -1.97437 -1.15025 0
M  V30 730 C 72.1638 -2.56195 2.36992 0
M  V30 731 C 73.5118 -3.22972 2.75634 0
M  V30 732 O 74.5358 -2.66502 2.36337 0
M  V30 733 O 73.3948 -4.25122 3.43415 0
M  V30 734 H 70.4888 -0.665067 0.491544 0
M  V30 735 H 73.0348 -0.784113 1.50498 0
M  V30 736 H 71.8068 -2.09612 3.30422 0
M  V30 737 H 71.4298 -3.35279 2.13714 0
M  V30 738 N 72.4269 -1.23603 -0.977757 0
M  V30 739 C 73.8429 -0.999251 -1.24447 0
M  V30 740 C 74.0429 0.298053 -1.99283 0
M  V30 741 O 73.0989 1.01681 -2.31122 0
M  V30 742 C 74.4119 -2.20784 -2.04144 0
M  V30 743 C 75.9599 -2.25303 -2.17273 0
M  V30 744 C 76.4349 -3.45755 -3.00362 0
M  V30 745 N 77.9259 -3.4601 -3.07947 0
M  V30 746 C 78.6609 -4.35868 -3.72568 0
M  V30 747 N 78.1569 -5.35966 -4.38991 0
M  V30 748 N 79.9499 -4.23605 -3.6948 0
M  V30 749 H 72.1009 -2.06986 -0.476483 0
M  V30 750 H 74.3639 -0.907801 -0.273134 0
M  V30 751 H 74.0699 -3.14945 -1.56533 0
M  V30 752 H 73.9439 -2.22085 -3.04891 0
M  V30 753 H 76.3309 -1.3168 -2.64092 0
M  V30 754 H 76.4119 -2.28033 -1.15907 0
M  V30 755 H 76.0559 -4.39687 -2.5424 0
M  V30 756 H 75.9859 -3.40266 -4.01904 0
M  V30 757 H 78.4769 -2.73588 -2.60688 0
M  V30 758 H 78.7899 -6.00783 -4.86086 0
M  V30 759 H 77.1349 -5.39863 -4.37691 0
M  V30 760 H 80.3259 -3.44647 -3.16759 0
M  V30 761 H 80.4989 -4.93836 -4.1956 0
M  V30 762 N 73.905 1.17692 -1.04816 0
M  V30 763 C 75.154 1.87192 -0.751132 0
M  V30 764 C 75.467 1.8169 0.724441 0
M  V30 765 O 76.673 2.46625 1.13527 0
M  V30 766 C 75.129 3.35857 -1.29338 0
M  V30 767 C 74.737 3.4987 -2.79812 0
M  V30 768 C 76.481 4.10709 -1.07322 0
M  V30 769 C 74.388 4.92536 -3.27356 0
M  V30 770 H 73.318 0.701162 -0.277288 0
M  V30 771 H 75.969 1.32932 -1.26496 0
M  V30 772 H 74.351 3.89631 -0.707376 0
M  V30 773 H 75.525 3.06332 -3.44235 0
M  V30 774 H 73.84 2.88433 -3.00325 0
M  V30 775 H 76.437 5.15952 -1.4035 0
M  V30 776 H 76.78 4.16299 -0.0108001 0
M  V30 777 H 77.313 3.6313 -1.62423 0
M  V30 778 H 74.052 4.92119 -4.33012 0
M  V30 779 H 73.572 5.3676 -2.67673 0
M  V30 780 H 75.251 5.61288 -3.21815 0
M  V30 781 N 75.3831 0.828654 1.34056 0
M  V30 782 C 76.3331 0.226828 2.26869 0
M  V30 783 C 77.3171 -0.612243 1.48796 0
M  V30 784 O 78.5091 -0.465884 1.70759 0
M  V30 785 C 75.6381 -0.605654 3.37915 0
M  V30 786 C 74.7241 0.244361 4.23395 0
M  V30 787 N 75.1151 1.31815 4.88322 0
M  V30 788 C 73.4131 0.0296616 4.4599 0
M  V30 789 C 74.1141 1.83895 5.51867 0
M  V30 790 N 73.0901 1.14196 5.3147 0
M  V30 791 H 76.8921 1.04811 2.74576 0
M  V30 792 H 74.4061 0.67205 1.47842 0
M  V30 793 H 76.4031 -1.05302 4.03382 0
M  V30 794 H 75.0631 -1.42504 2.91758 0
M  V30 795 H 76.0741 1.70099 4.8917 0
M  V30 796 H 72.7511 -0.757097 4.10578 0
M  V30 797 H 74.1411 2.7376 6.136 0
M  V30 798 N 76.8612 -1.46375 0.584142 0
M  V30 799 C 78.0912 -2.06461 0.0758195 0
M  V30 800 C 78.4992 -1.43322 -1.23512 0
M  V30 801 O 77.8422 -0.533216 -1.75791 0
M  V30 802 C 77.9042 -3.59131 -0.162773 0
M  V30 803 C 77.5682 -4.4447 1.06279 0
M  V30 804 C 78.5652 -4.80918 1.97519 0
M  V30 805 C 76.2502 -4.85584 1.28504 0
M  V30 806 C 78.2442 -5.57309 3.09331 0
M  V30 807 C 75.9312 -5.61734 2.4062 0
M  V30 808 C 76.9292 -5.9751 3.30863 0
M  V30 809 O 76.6172 -6.72121 4.41032 0
M  V30 810 H 76.3492 -0.673745 0.0551725 0
M  V30 811 H 78.9032 -1.88969 0.804984 0
M  V30 812 H 77.1332 -3.74936 -0.946565 0
M  V30 813 H 78.8222 -4.0114 -0.619782 0
M  V30 814 H 79.5882 -4.49732 1.81565 0
M  V30 815 H 75.4672 -4.57187 0.591702 0
M  V30 816 H 79.0112 -5.85152 3.79793 0
M  V30 817 H 74.9082 -5.92334 2.56537 0
M  V30 818 H 75.6762 -6.90547 4.39417 0
M  V30 819 N 78.3393 -0.321999 -1.54275 0
M  V30 820 C 79.5883 0.281931 -1.9972 0
M  V30 821 C 79.9013 1.53369 -1.21397 0
M  V30 822 O 81.1073 2.21352 -1.57211 0
M  V30 823 C 79.5633 0.5529 -3.55628 0
M  V30 824 C 79.1713 -0.681721 -4.42783 0
M  V30 825 C 80.9153 1.11687 -4.09544 0
M  V30 826 C 78.8223 -0.382742 -5.9016 0
M  V30 827 H 77.7523 0.109124 -0.746062 0
M  V30 828 H 80.4033 -0.43398 -1.78294 0
M  V30 829 H 78.7853 1.32896 -3.73035 0
M  V30 830 H 79.9593 -1.45723 -4.37151 0
M  V30 831 H 78.2743 -1.1658 -3.99748 0
M  V30 832 H 80.8713 1.35515 -5.17242 0
M  V30 833 H 81.2143 2.06575 -3.61431 0
M  V30 834 H 81.7473 0.402032 -3.95763 0
M  V30 835 H 78.4863 -1.30076 -6.42464 0
M  V30 836 H 78.0063 0.355094 -5.98748 0
M  V30 837 H 79.6853 0.00800157 -6.47 0
M  V30 838 N 79.8174 1.5752 -0.0501392 0
M  V30 839 C 80.7494 2.08413 0.95376 0
M  V30 840 C 81.7624 1.01175 1.27544 0
M  V30 841 O 82.9514 1.28744 1.23641 0
M  V30 842 C 80.0514 2.51138 2.27559 0
M  V30 843 C 79.2244 3.817 2.13598 0
M  V30 844 C 78.2834 4.10749 3.28895 0
M  V30 845 O 77.3094 4.80685 3.04845 0
M  V30 846 N 78.5114 3.62579 4.5334 0
M  V30 847 H 81.2764 2.95165 0.519383 0
M  V30 848 H 78.8374 1.61327 0.136127 0
M  V30 849 H 80.8294 2.67648 3.03557 0
M  V30 850 H 79.3994 1.6964 2.62567 0
M  V30 851 H 78.6194 3.74782 1.22197 0
M  V30 852 H 79.9074 4.67201 2.01496 0
M  V30 853 H 79.3054 3.06039 4.75769 0
M  V30 854 H 77.8624 3.84329 5.26436 0
M  V30 855 N 81.2955 -0.223234 1.56011 0
M  V30 856 C 82.5415 -0.949279 1.79211 0
M  V30 857 C 82.8745 -1.84054 0.619494 0
M  V30 858 O 82.1495 -1.90726 -0.381317 0
M  V30 859 C 82.4325 -1.78965 3.12479 0
M  V30 860 C 82.2855 -0.924997 4.40186 0
M  V30 861 C 83.6045 -2.76774 3.42175 0
M  V30 862 H 80.7235 -0.343676 0.651963 0
M  V30 863 H 83.3655 -0.218253 1.88742 0
M  V30 864 H 81.5155 -2.41291 3.04485 0
M  V30 865 H 83.1875 -0.318615 4.60198 0
M  V30 866 H 81.4305 -0.230344 4.33188 0
M  V30 867 H 82.1015 -1.54735 5.29869 0
M  V30 868 H 84.5775 -2.24584 3.50287 0
M  V30 869 H 83.4535 -3.32678 4.36597 0
M  V30 870 H 83.7145 -3.54429 2.64258 0
M  V30 871 N 82.7736 -1.49793 -0.48987 0
M  V30 872 C 84.1896 -1.36803 -0.822022 0
M  V30 873 C 84.3896 -0.409652 -1.97292 0
M  V30 874 O 83.4456 0.154614 -2.52026 0
M  V30 875 C 84.7586 -2.77768 -1.15175 0
M  V30 876 C 86.3066 -2.86549 -1.25931 0
M  V30 877 C 86.7816 -4.28306 -1.62228 0
M  V30 878 N 88.2726 -4.31169 -1.69256 0
M  V30 879 C 89.0076 -5.37832 -1.98807 0
M  V30 880 N 88.5036 -6.54726 -2.26507 0
M  V30 881 N 90.2966 -5.25258 -2.00152 0
M  V30 882 H 82.4476 -2.10691 0.268881 0
M  V30 883 H 84.7106 -0.946241 0.057728 0
M  V30 884 H 84.4166 -3.49648 -0.379335 0
M  V30 885 H 84.2906 -3.13836 -2.09253 0
M  V30 886 H 86.6776 -2.14899 -2.02243 0
M  V30 887 H 86.7586 -2.54049 -0.298776 0
M  V30 888 H 86.4026 -5.00486 -0.864622 0
M  V30 889 H 86.3326 -4.58279 -2.594 0
M  V30 890 H 88.8236 -3.4687 -1.49965 0
M  V30 891 H 89.1366 -7.31833 -2.48276 0
M  V30 892 H 87.4816 -6.57933 -2.23939 0
M  V30 893 H 90.6726 -4.32938 -1.77996 0
M  V30 894 H 90.8456 -6.08476 -2.22848 0
M  V30 895 N 84.2517 0.741722 -1.39055 0
M  V30 896 C 85.2017 1.84661 -1.33732 0
M  V30 897 C 86.1857 1.59397 -0.219401 0
M  V30 898 O 87.3777 1.71015 -0.456375 0
M  V30 899 C 84.5067 3.22512 -1.17647 0
M  V30 900 C 83.5927 3.53628 -2.34112 0
M  V30 901 N 83.9837 3.55723 -3.59576 0
M  V30 902 C 82.2817 3.83956 -2.26923 0
M  V30 903 C 82.9827 3.84443 -4.36553 0
M  V30 904 N 81.9587 4.01877 -3.66055 0
M  V30 905 H 85.7607 1.84576 -2.28711 0
M  V30 906 H 83.2747 0.939647 -1.32455 0
M  V30 907 H 85.2717 4.01597 -1.11917 0
M  V30 908 H 83.9317 3.2384 -0.236124 0
M  V30 909 H 84.9427 3.37196 -3.93089 0
M  V30 910 H 81.6197 3.92929 -1.41113 0
M  V30 911 H 83.0097 3.92588 -5.45274 0
M  V30 912 N 85.7298 1.2412 0.971189 0
M  V30 913 C 86.6398 1.04747 2.09917 0
M  V30 914 C 87.6558 -0.0107162 1.73997 0
M  V30 915 O 88.8318 0.186714 2.00533 0
M  V30 916 C 85.8968 0.650828 3.40537 0
M  V30 917 C 84.9578 1.7851 3.90426 0
M  V30 918 C 84.1908 1.40729 5.14812 0
M  V30 919 O 84.4138 0.29557 5.69634 0
M  V30 920 O 83.3478 2.23168 5.58999 0
M  V30 921 H 87.1738 1.99304 2.29154 0
M  V30 922 H 84.7588 1.02908 1.08307 0
M  V30 923 H 86.6408 0.440992 4.19086 0
M  V30 924 H 85.3158 -0.265649 3.22608 0
M  V30 925 H 84.2228 2.04966 3.12953 0
M  V30 926 H 85.5558 2.68023 4.12825 0
M  V30 927 N 87.2079 -1.17134 1.05439 0
M  V30 928 C 88.1179 -2.24878 0.668365 0
M  V30 929 C 89.1339 -1.71186 -0.311687 0
M  V30 930 O 90.3099 -2.00738 -0.163161 0
M  V30 931 C 87.3749 -3.46662 0.051648 0
M  V30 932 C 86.4359 -4.15429 1.08246 0
M  V30 933 C 85.6689 -5.31399 0.495082 0
M  V30 934 O 85.8919 -5.66153 -0.694743 0
M  V30 935 O 84.8259 -5.89187 1.23056 0
M  V30 936 H 88.6519 -2.60189 1.56637 0
M  V30 937 H 86.2369 -1.24482 0.826104 0
M  V30 938 H 88.1189 -4.20394 -0.290966 0
M  V30 939 H 86.7939 -3.13142 -0.819971 0
M  V30 940 H 85.7009 -3.43704 1.47711 0
M  V30 941 H 87.0339 -4.52982 1.92532 0
M  V30 942 N 88.686 -0.835752 -1.33615 0
M  V30 943 C 89.932 -0.430596 -1.98176 0
M  V30 944 C 90.265 1.00684 -1.66061 0
M  V30 945 O 89.54 1.70339 -0.938877 0
M  V30 946 C 89.823 -0.648065 -3.5422 0
M  V30 947 C 89.676 -2.13255 -3.96033 0
M  V30 948 C 90.995 -0.0922113 -4.40003 0
M  V30 949 H 88.114 -0.157924 -0.719881 0
M  V30 950 H 90.756 -1.05069 -1.58305 0
M  V30 951 H 88.906 -0.120237 -3.88314 0
M  V30 952 H 90.578 -2.725 -3.72211 0
M  V30 953 H 88.821 -2.61823 -3.45878 0
M  V30 954 H 89.492 -2.23547 -5.04708 0
M  V30 955 H 91.968 -0.543343 -4.12537 0
M  V30 956 H 90.844 -0.274083 -5.48215 0
M  V30 957 H 91.105 1.00378 -4.30554 0
M  V30 958 N 90.1641 1.46063 -0.591896 0
M  V30 959 C 91.4121 2.01938 -0.0808391 0
M  V30 960 C 91.7331 1.46475 1.28725 0
M  V30 961 O 91.0031 0.652944 1.84698 0
M  V30 962 H 89.5831 0.746516 -0.0268938 0
M  V30 963 H 92.2451 1.79055 -0.769752 0
M  V30 964 H 91.3411 3.12094 -0.0187578 0
M  V30 965 N 91.6422 0.330177 1.54103 0
M  V30 966 C 92.6052 -0.520144 2.2322 0
M  V30 967 C 93.6052 -1.03828 1.22786 0
M  V30 968 O 94.7952 -0.929652 1.4732 0
M  V30 969 C 91.9272 -1.72317 2.94142 0
M  V30 970 H 93.1202 0.0841605 2.99782 0
M  V30 971 H 90.6732 0.0813433 1.56088 0
M  V30 972 H 91.4082 -2.36653 2.21734 0
M  V30 973 H 91.1932 -1.35898 3.67796 0
M  V30 974 H 92.6832 -2.3266 3.46784 0
M  V30 975 N 93.1203 -1.57491 0.0584922 0
M  V30 976 C 94.0533 -2.07533 -0.948969 0
M  V30 977 C 95.0313 -0.977444 -1.29942 0
M  V30 978 O 96.2153 -1.2499 -1.41102 0
M  V30 979 C 93.3423 -2.52192 -2.2609 0
M  V30 980 C 92.3883 -3.73287 -2.06298 0
M  V30 981 S 93.2213 -5.18603 -1.33459 0
M  V30 982 C 94.3773 -5.66583 -2.65959 0
M  V30 983 H 94.6103 -2.92662 -0.523118 0
M  V30 984 H 92.1433 -1.53631 -0.153954 0
M  V30 985 H 94.1013 -2.78585 -3.01498 0
M  V30 986 H 92.7623 -1.67356 -2.65802 0
M  V30 987 H 91.9553 -4.0248 -3.03357 0
M  V30 988 H 91.5573 -3.47199 -1.39029 0
M  V30 989 H 93.8493 -5.72616 -3.62101 0
M  V30 990 H 94.7923 -6.65684 -2.41393 0
M  V30 991 H 95.2003 -4.94342 -2.72554 0
M  V30 992 N 94.5984 0.214957 -1.56127 0
M  V30 993 C 95.5614 1.24997 -1.92116 0
M  V30 994 C 96.5614 1.39467 -0.800344 0
M  V30 995 O 97.7514 1.37619 -1.06802 0
M  V30 996 C 94.8834 2.62271 -2.17777 0
M  V30 997 H 96.0764 0.942875 -2.84693 0
M  V30 998 H 93.6294 0.455654 -1.49511 0
M  V30 999 H 94.3644 2.98068 -1.27773 0
M  V30 1000 H 94.1494 2.53143 -2.99434 0
M  V30 1001 H 95.6394 3.36946 -2.46693 0
M  V30 1002 N 96.0765 1.50051 0.48192 0
M  V30 1003 C 97.0395 1.67584 1.5636 0
M  V30 1004 C 98.0395 0.546894 1.51214 0
M  V30 1005 O 99.2295 0.813725 1.54026 0
M  V30 1006 C 96.3615 1.691 2.96003 0
M  V30 1007 H 97.5545 2.64078 1.42136 0
M  V30 1008 H 95.1075 1.39369 0.707533 0
M  V30 1009 H 95.8425 0.742589 3.15684 0
M  V30 1010 H 95.6275 2.51105 3.01146 0
M  V30 1011 H 97.1175 1.84656 3.74556 0
M  V30 1012 N 97.5546 -0.734337 1.39446 0
M  V30 1013 C 98.5176 -1.83004 1.37994 0
M  V30 1014 C 99.5176 -1.58397 0.276938 0
M  V30 1015 O 100.708 -1.65785 0.534875 0
M  V30 1016 C 97.8396 -3.20802 1.1532 0
M  V30 1017 H 99.0326 -1.85694 2.35494 0
M  V30 1018 H 96.5856 -0.938059 1.25021 0
M  V30 1019 H 97.3206 -3.23772 0.185036 0
M  V30 1020 H 97.1056 -3.4006 1.95197 0
M  V30 1021 H 98.5956 -4.00862 1.17046 0
M  V30 1022 N 99.0327 -1.24633 -0.964593 0
M  V30 1023 C 99.9957 -1.0424 -2.04124 0
M  V30 1024 C 100.996 0.00137563 -1.608 0
M  V30 1025 O 102.186 -0.239883 -1.7254 0
M  V30 1026 C 99.3177 -0.580588 -3.3592 0
M  V30 1027 H 100.511 -1.99803 -2.23649 0
M  V30 1028 H 98.0637 -1.06899 -1.14027 0
M  V30 1029 H 98.7987 0.3781 -3.22088 0
M  V30 1030 H 98.5837 -1.33398 -3.6871 0
M  V30 1031 H 100.074 -0.459034 -4.15069 0
M  V30 1032 N 100.511 1.16574 -1.06058 0
M  V30 1033 C 101.788 1.83048 -0.689416 0
M  V30 1034 C 102.168 1.94122 0.829443 0
M  V30 1035 O 101.516 1.48249 1.7388 0
M  V30 1036 C 101.726 3.20186 -1.38859 0
M  V30 1037 C 103.074 3.95989 -1.53226 0
M  V30 1038 O 104.098 3.29696 -1.3483 0
M  V30 1039 O 102.957 5.14813 -1.83384 0
M  V30 1040 H 100.051 0.790258 -0.243764 0
M  V30 1041 H 102.597 1.23797 -1.16071 0
M  V30 1042 H 101.369 3.07146 -2.4244 0
M  V30 1043 H 100.992 3.87112 -0.907216 0
M  V30 1044 N 101.989 0.842826 1.3317 0
M  V30 1045 C 102.952 0.284065 2.27433 0
M  V30 1046 C 103.952 -0.54948 1.5112 0
M  V30 1047 O 105.142 -0.362699 1.70382 0
M  V30 1048 C 102.274 -0.599384 3.35589 0
M  V30 1049 H 103.467 1.11589 2.78366 0
M  V30 1050 H 101.02 0.616221 1.4364 0
M  V30 1051 H 101.755 -1.45349 2.89904 0
M  V30 1052 H 101.54 -0.00291266 3.921 0
M  V30 1053 H 103.03 -0.983488 4.05854 0
M  V30 1054 N 103.467 -1.45747 0.599634 0
M  V30 1055 C 104.414 -2.30467 -0.123849 0
M  V30 1056 C 105.384 -1.41632 -0.86774 0
M  V30 1057 O 106.569 -1.70568 -0.855056 0
M  V30 1058 C 103.709 -3.26402 -1.12051 0
M  V30 1059 C 102.822 -4.3034 -0.37832 0
M  V30 1060 C 101.957 -5.13389 -1.364 0
M  V30 1061 C 100.996 -6.09061 -0.609171 0
M  V30 1062 N 100.133 -6.84918 -1.54374 0
M  V30 1063 H 104.973 -2.91802 0.604627 0
M  V30 1064 H 102.51 -1.43797 0.309972 0
M  V30 1065 H 104.468 -3.80482 -1.7114 0
M  V30 1066 H 103.098 -2.66839 -1.8165 0
M  V30 1067 H 102.15 -3.78984 0.327929 0
M  V30 1068 H 103.462 -4.98354 0.210997 0
M  V30 1069 H 102.616 -5.7183 -2.02719 0
M  V30 1070 H 101.355 -4.45376 -1.98725 0
M  V30 1071 H 100.36 -5.49758 0.0676979 0
M  V30 1072 H 101.585 -6.79099 0.00891991 0
M  V30 1073 H 99.531 -6.19601 -2.15478 0
M  V30 1074 H 99.448 -7.49254 -1.00766 0
M  V30 1075 H 100.716 -7.47906 -2.19676 0
M  V30 1076 N 104.945 -0.338344 -1.53925 0
M  V30 1077 C 105.875 0.51328 -2.27789 0
M  V30 1078 C 106.856 1.107 -1.29149 0
M  V30 1079 O 108.041 1.12937 -1.57984 0
M  V30 1080 C 105.171 1.66697 -3.04679 0
M  V30 1081 C 104.125 1.20183 -4.1078 0
M  V30 1082 C 103.451 2.44363 -4.75595 0
M  V30 1083 C 104.751 0.30605 -5.21403 0
M  V30 1084 H 106.445 -0.102883 -2.99223 0
M  V30 1085 H 103.991 -0.0509219 -1.4391 0
M  V30 1086 H 105.944 2.26915 -3.55088 0
M  V30 1087 H 104.668 2.30995 -2.30887 0
M  V30 1088 H 103.327 0.622499 -3.61276 0
M  V30 1089 H 102.975 3.07057 -3.98403 0
M  V30 1090 H 102.675 2.13925 -5.47275 0
M  V30 1091 H 104.199 3.05317 -5.28786 0
M  V30 1092 H 105.613 0.814929 -5.67478 0
M  V30 1093 H 104.01 0.0937929 -6.00027 0
M  V30 1094 H 105.08 -0.65921 -4.80398 0
M  V30 1095 N 106.423 1.57458 -0.0668435 0
M  V30 1096 C 107.651 1.97624 0.612565 0
M  V30 1097 C 108.066 0.94502 1.63447 0
M  V30 1098 O 107.423 -0.0689276 1.8237 0
M  V30 1099 C 107.474 3.37869 1.28555 0
M  V30 1100 O 107.195 4.3704 0.304557 0
M  V30 1101 C 108.696 3.92882 2.05325 0
M  V30 1102 H 105.916 0.650045 0.166381 0
M  V30 1103 H 108.46 2.04035 -0.137782 0
M  V30 1104 H 106.615 3.3256 1.98702 0
M  V30 1105 H 107.029 5.18565 0.786779 0
M  V30 1106 H 108.503 4.93247 2.47812 0
M  V30 1107 H 108.98 3.29156 2.9078 0
M  V30 1108 H 109.586 4.01577 1.40056 0
M  V30 1109 N 107.901 -0.206675 1.56239 0
M  V30 1110 C 109.149 -0.927007 1.79586 0
M  V30 1111 C 109.47 -1.8427 0.637929 0
M  V30 1112 O 108.74 -1.92849 -0.344398 0
M  V30 1113 H 107.32 -0.345292 0.662407 0
M  V30 1114 H 109.982 -0.21496 1.93711 0
M  V30 1115 H 109.078 -1.52501 2.72305 0
M  V30 1116 N 109.379 -1.50304 -0.473955 0
M  V30 1117 C 110.326 -1.68959 -1.57231 0
M  V30 1118 C 111.296 -0.530899 -1.57387 0
M  V30 1119 O 112.481 -0.761133 -1.74961 0
M  V30 1120 C 109.621 -1.7871 -2.95223 0
M  V30 1121 C 108.734 -3.06061 -3.04878 0
M  V30 1122 C 107.869 -3.06626 -4.33767 0
M  V30 1123 C 106.908 -4.28443 -4.37154 0
M  V30 1124 N 106.045 -4.26763 -5.5751 0
M  V30 1125 H 110.885 -2.6273 -1.40631 0
M  V30 1126 H 108.422 -1.30241 -0.683789 0
M  V30 1127 H 110.38 -1.82344 -3.75242 0
M  V30 1128 H 109.01 -0.883806 -3.10465 0
M  V30 1129 H 108.062 -3.11911 -2.17751 0
M  V30 1130 H 109.374 -3.96039 -3.0324 0
M  V30 1131 H 108.528 -3.08973 -5.22131 0
M  V30 1132 H 107.267 -2.14473 -4.3801 0
M  V30 1133 H 106.272 -4.2631 -3.47188 0
M  V30 1134 H 107.497 -5.2182 -4.34605 0
M  V30 1135 H 105.443 -3.37462 -5.62544 0
M  V30 1136 H 105.36 -5.10507 -5.57601 0
M  V30 1137 H 106.628 -4.33253 -6.48006 0
M  V30 1138 N 110.857 0.726932 -1.39834 0
M  V30 1139 C 112.106 1.48214 -1.36805 0
M  V30 1140 C 112.419 1.95576 0.0305291 0
M  V30 1141 O 113.625 2.7088 0.183417 0
M  V30 1142 C 112.081 2.67854 -2.40379 0
M  V30 1143 C 111.689 2.27408 -3.85992 0
M  V30 1144 C 113.433 3.45641 -2.46439 0
M  V30 1145 C 111.34 3.43819 -4.81189 0
M  V30 1146 H 110.27 0.556606 -0.508631 0
M  V30 1147 H 112.921 0.792216 -1.65518 0
M  V30 1148 H 111.303 3.3896 -2.04749 0
M  V30 1149 H 112.477 1.63795 -4.30706 0
M  V30 1150 H 110.792 1.62692 -3.83302 0
M  V30 1151 H 113.389 4.32244 -3.14753 0
M  V30 1152 H 113.732 3.88669 -1.49139 0
M  V30 1153 H 114.265 2.8157 -2.81004 0
M  V30 1154 H 111.004 3.05834 -5.79781 0
M  V30 1155 H 110.524 4.06385 -4.41148 0
M  V30 1156 H 112.203 4.10043 -5.00474 0
M  V30 1157 N 112.336 1.25143 0.95797 0
M  V30 1158 C 113.584 1.09476 1.69881 0
M  V30 1159 C 113.905 -0.365502 1.91544 0
M  V30 1160 O 113.175 -1.25985 1.50015 0
M  V30 1161 H 111.755 0.402128 0.629525 0
M  V30 1162 H 114.417 1.57214 1.15194 0
M  V30 1163 H 113.513 1.60046 2.6794 0
M  V30 1164 N 113.814 -1.1601 1.06675 0
M  V30 1165 C 115.06 -1.86909 0.786945 0
M  V30 1166 C 115.393 -1.81717 -0.685018 0
M  V30 1167 O 114.668 -1.23551 -1.50218 0
M  V30 1168 C 114.951 -3.36313 1.28707 0
M  V30 1169 C 114.804 -3.50175 2.82308 0
M  V30 1170 C 116.123 -4.3084 0.898071 0
M  V30 1171 H 113.242 -0.678677 0.287343 0
M  V30 1172 H 115.884 -1.36336 1.32334 0
M  V30 1173 H 114.034 -3.79513 0.830768 0
M  V30 1174 H 115.706 -3.15886 3.36175 0
M  V30 1175 H 113.949 -2.91959 3.20847 0
M  V30 1176 H 114.62 -4.55116 3.12368 0
M  V30 1177 H 117.096 -3.95561 1.29114 0
M  V30 1178 H 115.972 -5.33876 1.27543 0
M  V30 1179 H 116.233 -4.41662 -0.196651 0
M  V30 1180 N 115.292 -0.849877 -1.32721 0
M  V30 1181 C 116.532 -0.457146 -1.99222 0
M  V30 1182 C 116.896 0.968038 -1.6581 0
M  V30 1183 O 118.097 1.46507 -2.25364 0
M  V30 1184 C 116.368 -0.683966 -3.50794 0
M  V30 1185 S 117.927 -0.388095 -4.3708 0
M  V30 1186 H 114.745 -0.171464 -0.690015 0
M  V30 1187 H 117.347 -1.10155 -1.61512 0
M  V30 1188 H 116.051 -1.72038 -3.726 0
M  V30 1189 H 115.582 -0.0258086 -3.93392 0
M  V30 1190 H 117.597 0.787791 -4.89906 0
M  V30 1191 N 116.77 1.45427 -0.607355 0
M  V30 1192 C 118.017 2.02241 -0.102455 0
M  V30 1193 C 118.345 1.4758 1.26691 0
M  V30 1194 O 117.6 0.640468 1.84923 0
M  V30 1195 C 117.899 3.57398 -0.0129263 0
M  V30 1196 C 117.565 4.3121 -1.31792 0
M  V30 1197 C 116.227 4.51092 -1.67539 0
M  V30 1198 C 118.579 4.73401 -2.18039 0
M  V30 1199 C 115.907 5.10422 -2.89285 0
M  V30 1200 C 118.259 5.34078 -3.39034 0
M  V30 1201 C 116.923 5.52184 -3.75033 0
M  V30 1202 H 116.193 0.740051 -0.037491 0
M  V30 1203 H 118.84 1.74494 -0.788926 0
M  V30 1204 H 117.145 3.84421 0.756806 0
M  V30 1205 H 118.842 3.99061 0.393881 0
M  V30 1206 H 115.432 4.16047 -1.02968 0
M  V30 1207 H 119.616 4.57774 -1.91721 0
M  V30 1208 H 114.872 5.22629 -3.17283 0
M  V30 1209 H 119.046 5.65724 -4.06115 0
M  V30 1210 H 116.673 5.97925 -4.69457 0
M  V30 1211 N 118.248 0.346503 1.53744 0
M  V30 1212 C 119.496 -0.248612 2.00565 0
M  V30 1213 C 119.817 -1.5083 1.23593 0
M  V30 1214 O 119.087 -1.92858 0.343912 0
M  V30 1215 H 117.667 -0.0948564 0.740953 0
M  V30 1216 H 120.329 0.468341 1.89189 0
M  V30 1217 H 119.425 -0.488994 3.08245 0
M  V30 1218 N 119.726 -1.57421 0.075193 0
M  V30 1219 C 120.951 -1.98364 -0.605515 0
M  V30 1220 C 121.376 -0.953383 -1.62149 0
M  V30 1221 O 120.734 0.0806053 -1.81121 0
M  V30 1222 C 120.782 -3.38332 -1.24756 0
M  V30 1223 O 119.886 -3.37959 -2.36342 0
M  V30 1224 H 119.227 -0.645553 -0.155428 0
M  V30 1225 H 121.757 -2.04044 0.150714 0
M  V30 1226 H 121.767 -3.75591 -1.5936 0
M  V30 1227 H 120.442 -4.12846 -0.503129 0
M  V30 1228 H 119.019 -3.12474 -2.03506 0
M  V30 1229 N 121.204 0.198386 -1.56346 0
M  V30 1230 C 122.167 1.22952 -1.93431 0
M  V30 1231 C 123.167 1.38611 -0.815092 0
M  V30 1232 O 124.357 1.36479 -1.08255 0
M  V30 1233 C 121.489 2.59946 -2.20546 0
M  V30 1234 H 122.682 0.912626 -2.85677 0
M  V30 1235 H 120.235 0.43977 -1.49986 0
M  V30 1236 H 120.97 2.96696 -1.30927 0
M  V30 1237 H 120.755 2.49953 -3.02102 0
M  V30 1238 H 122.245 3.3431 -2.50253 0
M  V30 1239 N 122.682 1.50554 0.465978 0
M  V30 1240 C 123.93 1.61479 1.21528 0
M  V30 1241 C 124.251 0.319596 1.92363 0
M  V30 1242 O 123.521 -0.663194 1.84333 0
M  V30 1243 H 122.101 0.595055 0.451573 0
M  V30 1244 H 124.763 1.87355 0.53704 0
M  V30 1245 H 123.859 2.42846 1.96042 0
M  V30 1246 N 124.16 -0.719506 1.40217 0
M  V30 1247 C 125.571 -1.29848 1.34151 0
M  V30 1248 C 125.922 -1.96196 0.0131349 0
M  V30 1249 O 125.047 -1.973 -0.88892 0
M  V30 1250 C 125.642 -2.36118 2.42968 0
M  V30 1251 C 124.201 -2.8965 2.40374 0
M  V30 1252 C 123.348 -1.63393 2.24049 0
M  V30 1253 H 126.299 -0.51591 1.5008 0
M  V30 1254 H 126.32 -3.16871 2.10649 0
M  V30 1255 H 125.832 -1.878 3.39636 0
M  V30 1256 H 123.933 -3.42208 1.47392 0
M  V30 1257 H 124.046 -3.4171 3.35814 0
M  V30 1258 H 122.41 -1.88312 1.71495 0
M  V30 1259 H 123.193 -1.17104 3.2271 0
M  V30 1260 N 125.638 -1.25649 -0.95132 0
M  V30 1261 C 126.886 -1.10375 -1.69298 0
M  V30 1262 C 127.207 0.355339 -1.91735 0
M  V30 1263 O 126.477 1.25188 -1.50681 0
M  V30 1264 H 125.057 -0.405461 -0.627384 0
M  V30 1265 H 127.719 -1.57823 -1.14358 0
M  V30 1266 H 126.815 -1.61465 -2.67087 0
M  V30 1267 N 127.117 1.15442 -1.07289 0
M  V30 1268 C 128.365 1.85845 -0.794096 0
M  V30 1269 C 128.686 1.82692 0.681809 0
M  V30 1270 O 127.956 1.26741 1.49377 0
M  V30 1271 H 126.536 0.688089 -0.290763 0
M  V30 1272 H 129.198 1.39947 -1.3565 0
M  V30 1273 H 128.294 2.91001 -1.12804 0
M  V30 1274 N 128.595 0.856903 1.32268 0
M  V30 1275 C 129.823 0.475439 2.01363 0
M  V30 1276 C 130.238 -0.928486 1.64392 0
M  V30 1277 O 129.595 -1.60624 0.866387 0
M  V30 1278 C 129.646 0.607545 3.56358 0
M  V30 1279 O 129.367 1.95617 3.92002 0
M  V30 1280 C 130.868 0.225382 4.42727 0
M  V30 1281 H 128.088 0.186636 0.644521 0
M  V30 1282 H 130.632 1.15446 1.68797 0
M  V30 1283 H 128.787 -0.0237719 3.87393 0
M  V30 1284 H 129.201 1.95455 4.86721 0
M  V30 1285 H 130.675 0.368813 5.50767 0
M  V30 1286 H 131.152 -0.834369 4.31202 0
M  V30 1287 H 131.758 0.831864 4.17085 0
M  V30 1288 N 130.073 -1.45103 0.615059 0
M  V30 1289 C 131.023 -2.27679 -0.120966 0
M  V30 1290 C 132.007 -1.3775 -0.831491 0
M  V30 1291 O 133.199 -1.61683 -0.720249 0
M  V30 1292 C 130.328 -3.24767 -1.1127 0
M  V30 1293 C 129.414 -4.22184 -0.402627 0
M  V30 1294 N 129.805 -5.02692 0.559884 0
M  V30 1295 C 128.103 -4.4125 -0.649202 0
M  V30 1296 C 128.804 -5.73421 0.977942 0
M  V30 1297 N 127.78 -5.42657 0.320104 0
M  V30 1298 H 131.582 -2.87325 0.618181 0
M  V30 1299 H 129.096 -1.56345 0.439304 0
M  V30 1300 H 131.093 -3.82666 -1.65446 0
M  V30 1301 H 129.753 -2.66682 -1.85232 0
M  V30 1302 H 130.764 -5.09354 0.936976 0
M  V30 1303 H 127.441 -3.9428 -1.37293 0
M  V30 1304 H 128.831 -6.48107 1.77222 0
M  V30 1305 N 131.551 -0.354651 -1.53558 0
M  V30 1306 C 132.481 0.489091 -2.2832 0
M  V30 1307 C 133.462 1.09324 -1.30316 0
M  V30 1308 O 134.647 1.11255 -1.59173 0
M  V30 1309 C 131.777 1.63456 -3.0643 0
M  V30 1310 C 130.731 1.1582 -4.12031 0
M  V30 1311 C 130.057 2.39305 -4.7816 0
M  V30 1312 C 131.357 0.250731 -5.21698 0
M  V30 1313 H 133.051 -0.134614 -2.99097 0
M  V30 1314 H 130.597 -0.0661826 -1.43848 0
M  V30 1315 H 132.55 2.23136 -3.57475 0
M  V30 1316 H 131.274 2.28533 -2.33325 0
M  V30 1317 H 129.933 0.584146 -3.61916 0
M  V30 1318 H 129.581 3.02814 -4.01637 0
M  V30 1319 H 129.281 2.08109 -5.49513 0
M  V30 1320 H 130.805 2.99691 -5.31994 0
M  V30 1321 H 132.219 0.754695 -5.68311 0
M  V30 1322 H 130.616 0.0301468 -6.00092 0
M  V30 1323 H 131.686 -0.710125 -4.79672 0
M  V30 1324 N 133.029 1.57378 -0.0835403 0
M  V30 1325 C 133.962 2.09016 0.915833 0
M  V30 1326 C 134.94 0.997993 1.2837 0
M  V30 1327 O 136.124 1.27219 1.39096 0
M  V30 1328 C 133.251 2.55757 2.22049 0
M  V30 1329 C 132.297 3.76522 2.00333 0
M  V30 1330 S 133.13 5.20661 1.25191 0
M  V30 1331 C 134.286 5.70743 2.56912 0
M  V30 1332 H 134.519 2.93457 0.476492 0
M  V30 1333 H 132.052 1.53856 0.129493 0
M  V30 1334 H 134.01 2.83346 2.97027 0
M  V30 1335 H 132.671 1.71564 2.63106 0
M  V30 1336 H 131.864 4.07256 2.96916 0
M  V30 1337 H 131.466 3.49367 1.33488 0
M  V30 1338 H 133.758 5.78304 3.52946 0
M  V30 1339 H 134.701 6.6944 2.30772 0
M  V30 1340 H 135.109 4.98616 2.64655 0
M  V30 1341 N 134.507 -0.190092 1.56449 0
M  V30 1342 C 135.455 -1.25501 1.95837 0
M  V30 1343 C 136.449 -1.4685 0.844485 0
M  V30 1344 O 137.655 -1.47651 1.02952 0
M  V30 1345 H 134.03 -0.421447 0.622805 0
M  V30 1346 H 136.001 -0.895821 2.84636 0
M  V30 1347 C 134.75 -2.59124 2.31841 0
M  V30 1348 H 134.073 -2.43514 3.17082 0
M  V30 1349 H 135.513 -3.32371 2.6326 0
M  V30 1350 C 133.972 -3.16488 1.15486 0
M  V30 1351 O 134.502 -3.99365 0.432535 0
M  V30 1352 N 132.708 -2.75305 0.930349 0
M  V30 1353 H 132.255 -2.08013 1.51948 0
M  V30 1354 H 132.213 -3.14024 0.153634 0
M  V30 1355 N 135.985 -1.50799 -0.457987 0
M  V30 1356 C 137.233 -1.62121 -1.2067 0
M  V30 1357 C 137.554 -0.329793 -1.92191 0
M  V30 1358 O 136.824 0.653409 -1.84682 0
M  V30 1359 H 135.404 -0.597441 -0.448411 0
M  V30 1360 H 138.066 -1.87637 -0.527096 0
M  V30 1361 H 137.162 -2.43882 -1.94751 0
M  V30 1362 N 137.463 0.71206 -1.40597 0
M  V30 1363 C 138.393 1.83889 -1.43899 0
M  V30 1364 C 139.374 1.67442 -0.299504 0
M  V30 1365 O 140.559 1.87421 -0.508624 0
M  V30 1366 C 137.689 3.21877 -1.30431 0
M  V30 1367 C 136.643 3.53002 -2.42019 0
M  V30 1368 C 135.969 4.90172 -2.13626 0
M  V30 1369 C 137.269 3.53643 -3.84362 0
M  V30 1370 H 138.963 1.81383 -2.38203 0
M  V30 1371 H 136.509 0.871237 -1.14654 0
M  V30 1372 H 138.462 4.00404 -1.31357 0
M  V30 1373 H 137.186 3.24968 -0.326049 0
M  V30 1374 H 135.845 2.76818 -2.40349 0
M  V30 1375 H 135.493 4.89869 -1.14182 0
M  V30 1376 H 135.193 5.11962 -2.88389 0
M  V30 1377 H 136.717 5.71028 -2.1624 0
M  V30 1378 H 138.131 4.22203 -3.87837 0
M  V30 1379 H 136.528 3.86961 -4.58673 0
M  V30 1380 H 137.598 2.52954 -4.13693 0
M  V30 1381 N 138.941 1.26152 0.944643 0
M  V30 1382 C 140.171 1.14094 1.72239 0
M  V30 1383 C 140.579 -0.306931 1.86694 0
M  V30 1384 O 139.922 -1.22222 1.3714 0
M  V30 1385 C 139.984 1.73316 3.14963 0
M  V30 1386 C 139.648 3.2239 3.23904 0
M  V30 1387 C 140.645 4.19252 3.07447 0
M  V30 1388 C 138.33 3.62788 3.47405 0
M  V30 1389 C 140.324 5.54491 3.14353 0
M  V30 1390 C 138.011 4.98162 3.53947 0
M  V30 1391 C 139.009 5.93823 3.37436 0
M  V30 1392 O 138.697 7.26732 3.43679 0
M  V30 1393 H 138.429 0.398292 0.546205 0
M  V30 1394 H 140.983 1.67201 1.19301 0
M  V30 1395 H 139.213 1.14667 3.69308 0
M  V30 1396 H 140.902 1.56214 3.74636 0
M  V30 1397 H 141.668 3.8938 2.8915 0
M  V30 1398 H 137.547 2.88816 3.59313 0
M  V30 1399 H 141.091 6.29137 3.01384 0
M  V30 1400 H 136.988 5.27695 3.71763 0
M  V30 1401 H 137.756 7.3496 3.60245 0
M  V30 1402 N 140.419 -1.14872 1.07899 0
M  V30 1403 C 141.696 -1.81928 0.71845 0
M  V30 1404 C 142.076 -1.95417 -0.798455 0
M  V30 1405 O 141.424 -1.50997 -1.715 0
M  V30 1406 C 141.634 -3.17937 1.43935 0
M  V30 1407 C 142.982 -3.93501 1.59506 0
M  V30 1408 O 144.006 -3.27509 1.40058 0
M  V30 1409 O 142.865 -5.1183 1.91551 0
M  V30 1410 H 139.959 -0.78628 0.256305 0
M  V30 1411 H 142.505 -1.21934 1.18026 0
M  V30 1412 H 141.277 -3.0325 2.47295 0
M  V30 1413 H 140.9 -3.85619 0.968687 0
M  V30 1414 N 141.898 -0.863906 -1.31812 0
M  V30 1415 C 142.861 -0.320212 -2.26952 0
M  V30 1416 C 143.861 0.525369 -1.51975 0
M  V30 1417 O 145.051 0.335547 -1.70938 0
M  V30 1418 C 142.183 0.545919 -3.365 0
M  V30 1419 H 143.376 -1.16004 -2.76556 0
M  V30 1420 H 140.929 -0.638995 -1.42641 0
M  V30 1421 H 141.664 1.40718 -2.92179 0
M  V30 1422 H 141.449 -0.0594674 -3.92055 0
M  V30 1423 H 142.939 0.918796 -4.07367 0
M  V30 1424 N 143.376 1.44774 -0.622745 0
M  V30 1425 C 144.792 1.56986 -0.287652 0
M  V30 1426 C 144.992 1.61167 1.20944 0
M  V30 1427 O 144.048 1.55015 1.99315 0
M  V30 1428 C 145.361 2.84551 -0.972188 0
M  V30 1429 C 146.909 2.9825 -0.949536 0
M  V30 1430 C 147.384 4.28605 -1.61437 0
M  V30 1431 N 148.875 4.35399 -1.58057 0
M  V30 1432 C 149.61 5.34964 -2.064 0
M  V30 1433 N 149.106 6.40981 -2.62897 0
M  V30 1434 N 150.899 5.26419 -1.97078 0
M  V30 1435 H 143.05 1.40304 -1.59463 0
M  V30 1436 H 145.313 0.671794 -0.668878 0
M  V30 1437 H 145.019 2.87417 -2.02693 0
M  V30 1438 H 144.893 3.73807 -0.504771 0
M  V30 1439 H 147.28 2.94941 0.0967067 0
M  V30 1440 H 147.361 2.10364 -1.45536 0
M  V30 1441 H 147.005 4.32672 -2.66002 0
M  V30 1442 H 146.935 5.15334 -1.08344 0
M  V30 1443 H 149.426 3.59397 -1.16801 0
M  V30 1444 H 149.739 7.13225 -2.97539 0
M  V30 1445 H 148.084 6.4169 -2.66943 0
M  V30 1446 H 151.275 4.42504 -1.52669 0
M  V30 1447 H 151.448 6.03861 -2.35066 0
M  V30 1448 N 144.854 0.36279 1.53368 0
M  V30 1449 C 145.764 -0.492994 2.29362 0
M  V30 1450 C 146.78 -1.09507 1.35219 0
M  V30 1451 O 147.956 -1.10662 1.68273 0
M  V30 1452 C 145.021 -1.61855 3.066 0
M  V30 1453 C 144.082 -1.04429 4.16405 0
M  V30 1454 C 143.315 -2.11621 4.89951 0
M  V30 1455 O 143.538 -3.32684 4.63333 0
M  V30 1456 O 142.472 -1.74835 5.75948 0
M  V30 1457 H 146.298 0.125331 3.03441 0
M  V30 1458 H 143.883 0.127253 1.48857 0
M  V30 1459 H 145.765 -2.27302 3.54841 0
M  V30 1460 H 144.44 -2.22233 2.3536 0
M  V30 1461 H 143.347 -0.353819 3.72423 0
M  V30 1462 H 144.68 -0.485113 4.89804 0
M  V30 1463 N 146.332 -1.57332 0.0918853 0
M  V30 1464 C 147.609 -1.85691 -0.614668 0
M  V30 1465 C 147.989 -0.988146 -1.86545 0
M  V30 1466 O 147.337 -0.0597055 -2.28422 0
M  V30 1467 C 147.547 -3.36294 -0.933126 0
M  V30 1468 C 148.895 -4.04275 -1.29796 0
M  V30 1469 O 149.919 -3.41157 -1.02424 0
M  V30 1470 O 148.778 -5.1564 -1.81047 0
M  V30 1471 H 145.872 -0.767802 -0.307261 0
M  V30 1472 H 148.418 -1.69244 0.12434 0
M  V30 1473 H 147.19 -3.91273 -0.0456404 0
M  V30 1474 H 146.813 -3.58076 -1.72822 0
M  V30 1475 N 147.81 0.181792 -1.56548 0
M  V30 1476 C 148.76 1.22961 -1.92002 0
M  V30 1477 C 149.744 1.40331 -0.787146 0
M  V30 1478 O 150.936 1.42478 -1.05019 0
M  V30 1479 C 148.065 2.57144 -2.27446 0
M  V30 1480 C 147.151 2.43512 -3.47222 0
M  V30 1481 N 147.542 1.99577 -4.64761 0
M  V30 1482 C 145.84 2.74368 -3.51622 0
M  V30 1483 C 146.541 1.98156 -5.46909 0
M  V30 1484 N 145.517 2.40164 -4.8767 0
M  V30 1485 H 149.319 0.881462 -2.8037 0
M  V30 1486 H 146.833 0.390141 -1.57644 0
M  V30 1487 H 148.83 3.32847 -2.51035 0
M  V30 1488 H 147.49 2.92771 -1.40411 0
M  V30 1489 H 148.501 1.70078 -4.89177 0
M  V30 1490 H 145.178 3.14102 -2.75038 0
M  V30 1491 H 146.568 1.65975 -6.51077 0
M  V30 1492 N 149.288 1.51039 0.449983 0
M  V30 1493 C 150.534 1.63322 1.20223 0
M  V30 1494 C 150.867 0.34241 1.91158 0
M  V30 1495 O 150.142 -0.657344 1.83055 0
M  V30 1496 C 150.425 2.82801 2.22925 0
M  V30 1497 C 150.278 4.21823 1.56157 0
M  V30 1498 C 151.597 2.97807 3.24035 0
M  V30 1499 H 148.716 0.594407 0.435718 0
M  V30 1500 H 151.358 1.83489 0.493136 0
M  V30 1501 H 149.508 2.65738 2.834 0
M  V30 1502 H 151.18 4.50526 0.991162 0
M  V30 1503 H 149.423 4.25105 0.864172 0
M  V30 1504 H 150.094 5.01391 2.30891 0
M  V30 1505 H 152.57 3.13497 2.73603 0
M  V30 1506 H 151.446 3.82992 3.93202 0
M  V30 1507 H 151.707 2.09328 3.89402 0
M  V30 1508 N 150.766 -0.704594 1.40972 0
M  V30 1509 C 152.177 -1.28418 1.3552 0
M  V30 1510 C 152.528 -1.96171 0.0339434 0
M  V30 1511 O 151.653 -1.98231 -0.867944 0
M  V30 1512 C 152.248 -2.33528 2.45459 0
M  V30 1513 C 150.807 -2.87085 2.43433 0
M  V30 1514 C 149.954 -1.61007 2.2577 0
M  V30 1515 H 152.905 -0.499963 1.50619 0
M  V30 1516 H 152.926 -3.14619 2.13998 0
M  V30 1517 H 152.438 -1.84187 3.41609 0
M  V30 1518 H 150.539 -3.40626 1.51013 0
M  V30 1519 H 150.652 -3.3813 3.39419 0
M  V30 1520 H 149.016 -1.86482 1.73483 0
M  V30 1521 H 149.799 -1.13675 3.23933 0
M  V30 1522 N 152.244 -1.26651 -0.937939 0
M  V30 1523 C 153.49 -1.12553 -1.687 0
M  V30 1524 C 153.823 0.329782 -1.91379 0
M  V30 1525 O 153.098 1.24202 -1.4968 0
M  V30 1526 C 153.381 -1.89862 -3.05981 0
M  V30 1527 C 153.234 -3.43318 -2.90607 0
M  V30 1528 C 154.553 -1.69499 -4.0615 0
M  V30 1529 H 151.672 -0.410257 -0.612257 0
M  V30 1530 H 154.314 -1.55685 -1.08913 0
M  V30 1531 H 152.464 -1.53204 -3.57017 0
M  V30 1532 H 154.136 -3.89747 -2.46769 0
M  V30 1533 H 152.379 -3.70179 -2.26164 0
M  V30 1534 H 153.05 -3.92642 -3.8799 0
M  V30 1535 H 155.526 -2.01442 -3.64088 0
M  V30 1536 H 154.402 -2.26002 -5.00214 0
M  V30 1537 H 154.663 -0.640365 -4.37438 0
M  V30 1538 N 153.722 1.14298 -1.08507 0
M  V30 1539 C 154.652 2.21542 -0.737646 0
M  V30 1540 C 155.633 1.67773 0.280377 0
M  V30 1541 O 156.818 1.93616 0.150521 0
M  V30 1542 C 153.948 3.46988 -0.147259 0
M  V30 1543 C 152.902 4.13789 -1.09374 0
M  V30 1544 C 152.228 5.33449 -0.365524 0
M  V30 1545 C 153.528 4.62208 -2.4323 0
M  V30 1546 H 155.222 2.5086 -1.6343 0
M  V30 1547 H 152.768 1.20576 -0.787243 0
M  V30 1548 H 154.721 4.21262 0.107808 0
M  V30 1549 H 153.445 3.17037 0.784538 0
M  V30 1550 H 152.104 3.4147 -1.33393 0
M  V30 1551 H 151.752 4.99759 0.57011 0
M  V30 1552 H 151.452 5.79088 -0.996512 0
M  V30 1553 H 152.976 6.10485 -0.118534 0
M  V30 1554 H 154.39 5.27952 -2.23472 0
M  V30 1555 H 152.787 5.18553 -3.02031 0
M  V30 1556 H 153.857 3.77224 -3.04681 0
M  V30 1557 N 155.201 0.870884 1.31352 0
M  V30 1558 C 156.164 0.332243 2.26779 0
M  V30 1559 C 157.164 -0.517302 1.52252 0
M  V30 1560 O 158.354 -0.326477 1.71113 0
M  V30 1561 C 155.486 -0.528066 3.36785 0
M  V30 1562 H 156.679 1.17469 2.75937 0
M  V30 1563 H 154.232 0.64655 1.423 0
M  V30 1564 H 154.967 -1.39167 2.92922 0
M  V30 1565 H 154.752 0.0802582 3.92018 0
M  V30 1566 H 156.242 -0.897179 4.07849 0
M  V30 1567 N 156.679 -1.44442 0.630414 0
M  V30 1568 C 157.609 -2.33418 -0.0618083 0
M  V30 1569 C 158.59 -1.48165 -0.835541 0
M  V30 1570 O 159.775 -1.76886 -0.801564 0
M  V30 1571 C 156.905 -3.31222 -1.04449 0
M  V30 1572 C 155.859 -4.26288 -0.382436 0
M  V30 1573 C 155.185 -5.13954 -1.47497 0
M  V30 1574 C 156.485 -5.1744 0.710865 0
M  V30 1575 H 158.179 -2.91548 0.681184 0
M  V30 1576 H 155.725 -1.40191 0.329026 0
M  V30 1577 H 157.678 -3.92351 -1.53748 0
M  V30 1578 H 156.402 -2.71299 -1.81836 0
M  V30 1579 H 155.061 -3.6649 0.0899054 0
M  V30 1580 H 154.709 -4.50385 -2.2397 0
M  V30 1581 H 154.409 -5.7837 -1.03737 0
M  V30 1582 H 155.933 -5.77955 -1.96979 0
M  V30 1583 H 157.347 -5.72509 0.300996 0
M  V30 1584 H 155.744 -5.90455 1.07156 0
M  V30 1585 H 156.814 -4.58496 1.57829 0
M  V30 1586 N 158.157 -0.370918 -1.53173 0
M  V30 1587 C 159.406 0.218249 -2.00516 0
M  V30 1588 C 159.719 1.49429 -1.26215 0
M  V30 1589 O 160.925 2.16239 -1.64174 0
M  V30 1590 C 159.381 0.43948 -3.57207 0
M  V30 1591 C 158.989 -0.822244 -4.4039 0
M  V30 1592 C 160.733 0.986012 -4.1289 0
M  V30 1593 C 158.64 -0.570304 -5.88644 0
M  V30 1594 H 157.57 0.0853333 -0.749156 0
M  V30 1595 H 160.221 -0.490483 -1.76823 0
M  V30 1596 H 158.603 1.20961 -3.77074 0
M  V30 1597 H 159.777 -1.59557 -4.32294 0
M  V30 1598 H 158.092 -1.29238 -3.95836 0
M  V30 1599 H 160.689 1.18991 -5.21292 0
M  V30 1600 H 161.032 1.94972 -3.6782 0
M  V30 1601 H 161.565 0.27592 -3.96842 0
M  V30 1602 H 158.304 -1.50449 -6.38001 0
M  V30 1603 H 157.824 0.164427 -5.99575 0
M  V30 1604 H 159.503 -0.19784 -6.46697 0
M  V30 1605 N 159.635 1.57281 -0.100228 0
M  V30 1606 C 160.883 1.94153 0.561157 0
M  V30 1607 C 161.204 0.983157 1.68401 0
M  V30 1608 O 160.474 0.0361132 1.95867 0
M  V30 1609 H 159.054 0.716791 0.210283 0
M  V30 1610 H 161.716 1.94202 -0.164765 0
M  V30 1611 H 160.812 2.96709 0.968008 0
M  V30 1612 N 161.113 -0.173488 1.56642 0
M  V30 1613 C 162.045 -1.23935 1.92802 0
M  V30 1614 C 163.058 -1.40589 0.820889 0
M  V30 1615 O 164.247 -1.40631 1.09933 0
M  V30 1616 C 161.347 -2.60837 2.16373 0
M  V30 1617 C 160.52 -2.6551 3.47596 0
M  V30 1618 C 159.579 -3.8376 3.60021 0
M  V30 1619 O 158.605 -3.69859 4.32658 0
M  V30 1620 N 159.807 -5.00127 2.94709 0
M  V30 1621 H 162.572 -0.932236 2.84832 0
M  V30 1622 H 160.133 -0.363268 1.57772 0
M  V30 1623 H 162.125 -3.38407 2.21952 0
M  V30 1624 H 160.695 -2.83948 1.30738 0
M  V30 1625 H 159.915 -1.74052 3.53694 0
M  V30 1626 H 161.203 -2.65641 4.33949 0
M  V30 1627 H 160.601 -5.14322 2.35563 0
M  V30 1628 H 159.158 -5.75567 3.05886 0
M  V30 1629 N 162.591 -1.51276 -0.441967 0
M  V30 1630 C 163.838 -1.63715 -1.19179 0
M  V30 1631 C 164.166 -0.351175 -1.91303 0
M  V30 1632 O 163.421 0.664524 -1.84072 0
M  V30 1633 C 163.72 -2.78746 -2.23686 0
M  V30 1634 C 163.386 -4.18189 -1.68607 0
M  V30 1635 C 162.048 -4.56125 -1.53308 0
M  V30 1636 C 164.4 -5.05222 -1.28062 0
M  V30 1637 C 161.728 -5.78804 -0.959317 0
M  V30 1638 C 164.08 -6.28476 -0.721162 0
M  V30 1639 C 162.744 -6.65188 -0.55504 0
M  V30 1640 H 162.014 -0.599076 -0.436106 0
M  V30 1641 H 164.661 -1.85296 -0.48351 0
M  V30 1642 H 162.966 -2.51369 -3.00535 0
M  V30 1643 H 164.663 -2.8557 -2.81515 0
M  V30 1644 H 161.253 -3.88277 -1.8149 0
M  V30 1645 H 165.437 -4.76524 -1.38704 0
M  V30 1646 H 160.693 -6.05899 -0.81833 0
M  V30 1647 H 164.867 -6.95259 -0.398458 0
M  V30 1648 H 162.494 -7.60123 -0.108311 0
M  V30 1649 N 164.069 0.697108 -1.41344 0
M  V30 1650 C 165.317 1.45426 -1.40341 0
M  V30 1651 C 165.638 1.94996 -0.0128787 0
M  V30 1652 O 164.908 1.71599 0.945027 0
M  V30 1653 H 163.488 0.539594 -0.516573 0
M  V30 1654 H 166.15 0.825201 -1.76569 0
M  V30 1655 H 165.246 2.31817 -2.08967 0
M  V30 1656 N 165.547 1.27147 0.931209 0
M  V30 1657 C 166.775 1.16082 1.71267 0
M  V30 1658 C 167.19 -0.282772 1.8667 0
M  V30 1659 O 166.547 -1.19283 1.38122 0
M  V30 1660 C 166.598 1.8358 3.11417 0
M  V30 1661 O 166.319 3.22299 2.96741 0
M  V30 1662 C 167.82 1.78597 4.05732 0
M  V30 1663 H 165.04 0.403758 0.535929 0
M  V30 1664 H 167.584 1.67953 1.16671 0
M  V30 1665 H 165.739 1.35623 3.62885 0
M  V30 1666 H 166.153 3.55851 3.85319 0
M  V30 1667 H 167.627 2.30444 5.01597 0
M  V30 1668 H 168.104 0.754564 4.3267 0
M  V30 1669 H 168.71 2.26152 3.60188 0
M  V30 1670 N 167.025 -1.13721 1.09112 0
M  V30 1671 C 168.253 -1.88773 0.846899 0
M  V30 1672 C 168.668 -1.7896 -0.601572 0
M  V30 1673 O 168.025 -1.15394 -1.41388 0
M  V30 1674 C 168.076 -3.3849 1.26913 0
M  V30 1675 O 167.797 -3.48043 2.66079 0
M  V30 1676 C 169.298 -4.30518 1.05682 0
M  V30 1677 H 166.518 -0.59772 0.304914 0
M  V30 1678 H 169.062 -1.43977 1.45227 0
M  V30 1679 H 167.217 -3.80881 0.707723 0
M  V30 1680 H 167.631 -4.4109 2.83795 0
M  V30 1681 H 169.105 -5.3391 1.40156 0
M  V30 1682 H 169.582 -4.392 -0.00563416 0
M  V30 1683 H 170.188 -3.93893 1.60402 0
M  V30 1684 N 168.503 -0.877838 -1.30888 0
M  V30 1685 C 169.751 -0.491723 -1.96027 0
M  V30 1686 C 170.072 0.960827 -1.69685 0
M  V30 1687 O 169.342 1.67462 -1.01654 0
M  V30 1688 H 167.922 -0.17885 -0.725273 0
M  V30 1689 H 170.584 -1.11935 -1.59551 0
M  V30 1690 H 169.68 -0.656016 -3.05128 0
M  V30 1691 N 169.982 1.44106 -0.638065 0
M  V30 1692 C 170.915 2.27924 0.112161 0
M  V30 1693 C 171.893 1.38945 0.844574 0
M  V30 1694 O 173.077 1.68386 0.847248 0
M  V30 1695 C 170.204 3.18029 1.16512 0
M  V30 1696 C 169.25 4.23163 0.532458 0
M  V30 1697 S 170.083 5.31131 -0.682666 0
M  V30 1698 C 171.239 6.24805 0.37013 0
M  V30 1699 H 171.472 2.91205 -0.598887 0
M  V30 1700 H 169.005 1.48394 -0.426441 0
M  V30 1701 H 170.963 3.70492 1.76766 0
M  V30 1702 H 169.624 2.53955 1.8484 0
M  V30 1703 H 168.817 4.86252 1.32571 0
M  V30 1704 H 168.419 3.74 0.00437644 0
M  V30 1705 H 170.711 6.66042 1.24071 0
M  V30 1706 H 171.654 7.07741 -0.225349 0
M  V30 1707 H 172.062 5.60154 0.699141 0
M  V30 1708 N 171.46 0.379036 1.52974 0
M  V30 1709 C 172.408 -0.476033 2.27677 0
M  V30 1710 C 173.402 -1.0719 1.31174 0
M  V30 1711 O 174.608 -1.01355 1.48752 0
M  V30 1712 H 170.983 -0.172255 0.732006 0
M  V30 1713 H 172.954 0.175615 2.97883 0
M  V30 1714 C 171.703 -1.5967 3.0887 0
M  V30 1715 H 171.026 -1.1475 3.82978 0
M  V30 1716 H 172.466 -2.16943 3.64296 0
M  V30 1717 C 170.925 -2.54682 2.20542 0
M  V30 1718 O 171.455 -3.57836 1.82527 0
M  V30 1719 N 169.661 -2.24183 1.84907 0
M  V30 1720 H 169.208 -1.40333 2.1602 0
M  V30 1721 H 169.166 -2.88006 1.26096 0
M  V30 1722 N 172.938 -1.57226 0.108567 0
M  V30 1723 C 173.871 -2.10447 -0.882464 0
M  V30 1724 C 174.849 -1.01829 -1.26766 0
M  V30 1725 O 176.033 -1.29415 -1.37054 0
M  V30 1726 C 173.16 -2.59258 -2.17952 0
M  V30 1727 C 172.206 -3.79662 -1.94318 0
M  V30 1728 S 173.039 -5.22586 -1.16892 0
M  V30 1729 C 174.195 -5.74758 -2.47799 0
M  V30 1730 H 174.428 -2.94178 -0.429745 0
M  V30 1731 H 171.961 -1.54043 -0.105 0
M  V30 1732 H 173.919 -2.88036 -2.92482 0
M  V30 1733 H 172.58 -1.75728 -2.60343 0
M  V30 1734 H 171.773 -4.11928 -2.90399 0
M  V30 1735 H 171.375 -3.51446 -1.27913 0
M  V30 1736 H 173.667 -5.83846 -3.43701 0
M  V30 1737 H 174.61 -6.73027 -2.20093 0
M  V30 1738 H 175.018 -5.02763 -2.56689 0
M  V30 1739 N 174.416 0.165178 -1.56732 0
M  V30 1740 C 175.693 0.908443 -1.73224 0
M  V30 1741 C 176.073 2.0013 -0.67165 0
M  V30 1742 O 175.421 2.26353 0.31253 0
M  V30 1743 C 175.631 1.46756 -3.16644 0
M  V30 1744 C 176.979 1.93809 -3.77787 0
M  V30 1745 O 178.003 1.56537 -3.1996 0
M  V30 1746 O 176.862 2.62486 -4.79336 0
M  V30 1747 H 173.956 0.428025 -0.707618 0
M  V30 1748 H 176.502 0.152526 -1.69013 0
M  V30 1749 H 175.274 0.68129 -3.85323 0
M  V30 1750 H 174.897 2.28749 -3.25207 0
M  V30 1751 N 175.894 1.51508 0.433938 0
M  V30 1752 C 177.122 1.68157 1.20543 0
M  V30 1753 C 177.537 0.380362 1.84929 0
M  V30 1754 O 176.894 -0.641446 1.70856 0
M  V30 1755 C 176.945 2.79965 2.28696 0
M  V30 1756 O 176.666 4.05045 1.66943 0
M  V30 1757 C 178.167 3.07912 3.18912 0
M  V30 1758 H 175.387 0.56421 0.363191 0
M  V30 1759 H 177.931 1.97941 0.513754 0
M  V30 1760 H 176.086 2.5277 2.93574 0
M  V30 1761 H 176.5 4.67165 2.38448 0
M  V30 1762 H 177.974 3.89719 3.90926 0
M  V30 1763 H 178.451 2.20456 3.79863 0
M  V30 1764 H 179.057 3.36779 2.59731 0
M  V30 1765 N 177.372 -0.689602 1.41712 0
M  V30 1766 C 178.619 -1.44966 1.4139 0
M  V30 1767 C 178.947 -1.94484 0.025105 0
M  V30 1768 O 178.202 -1.70307 -0.964048 0
M  V30 1769 C 178.501 -2.67298 2.37247 0
M  V30 1770 C 178.167 -2.36405 3.83958 0
M  V30 1771 C 176.829 -2.27691 4.23923 0
M  V30 1772 C 179.181 -2.11043 4.76561 0
M  V30 1773 C 176.509 -1.91719 5.54492 0
M  V30 1774 C 178.861 -1.76578 6.07456 0
M  V30 1775 C 177.525 -1.66363 6.46436 0
M  V30 1776 H 176.795 -0.53047 0.517381 0
M  V30 1777 H 179.442 -0.787655 1.74552 0
M  V30 1778 H 177.747 -3.38461 1.9736 0
M  V30 1779 H 179.444 -3.25452 2.34269 0
M  V30 1780 H 176.034 -2.44085 3.52308 0
M  V30 1781 H 180.218 -2.16717 4.46483 0
M  V30 1782 H 175.474 -1.82367 5.83568 0
M  V30 1783 H 179.648 -1.55974 6.78708 0
M  V30 1784 H 177.275 -1.38258 7.47522 0
M  V30 1785 N 178.85 -1.27639 -0.924453 0
M  V30 1786 C 179.782 -1.06442 -2.02985 0
M  V30 1787 C 180.795 -0.0194771 -1.62788 0
M  V30 1788 O 181.984 -0.261388 -1.76576 0
M  V30 1789 C 179.084 -0.59327 -3.33667 0
M  V30 1790 C 178.257 -1.71123 -4.02537 0
M  V30 1791 C 177.316 -1.23527 -5.11495 0
M  V30 1792 O 176.342 -1.93553 -5.35281 0
M  V30 1793 N 177.544 -0.0926678 -5.80426 0
M  V30 1794 H 180.309 -2.01633 -2.2173 0
M  V30 1795 H 177.87 -1.19248 -1.09505 0
M  V30 1796 H 179.862 -0.258686 -4.03872 0
M  V30 1797 H 178.432 0.265502 -3.1147 0
M  V30 1798 H 177.652 -2.21593 -3.26022 0
M  V30 1799 H 178.94 -2.46145 -4.45298 0
M  V30 1800 H 178.338 0.491741 -5.63559 0
M  V30 1801 H 176.895 0.182714 -6.51544 0
M  V30 1802 N 180.328 1.1314 -1.09713 0
M  V30 1803 C 181.238 2.22242 -0.751367 0
M  V30 1804 C 182.254 1.72224 0.247938 0
M  V30 1805 O 183.43 2.01205 0.0885463 0
M  V30 1806 C 180.495 3.46231 -0.180274 0
M  V30 1807 C 179.556 4.11125 -1.2359 0
M  V30 1808 C 178.789 5.29195 -0.691966 0
M  V30 1809 O 179.012 5.68342 0.48414 0
M  V30 1810 O 177.946 5.84214 -1.44838 0
M  V30 1811 H 181.772 2.54197 -1.66186 0
M  V30 1812 H 179.357 1.21331 -0.871735 0
M  V30 1813 H 181.239 4.21185 0.134739 0
M  V30 1814 H 179.914 3.1597 0.703185 0
M  V30 1815 H 178.821 3.37985 -1.60366 0
M  V30 1816 H 180.154 4.45524 -2.09211 0
M  V30 1817 N 181.806 0.884767 1.30421 0
M  V30 1818 C 182.739 0.295999 2.26272 0
M  V30 1819 C 183.717 -0.58332 1.51777 0
M  V30 1820 O 184.901 -0.53346 1.80794 0
M  V30 1821 C 182.028 -0.57944 3.33707 0
M  V30 1822 C 181.074 0.230525 4.25877 0
M  V30 1823 S 181.907 1.61867 5.1045 0
M  V30 1824 C 183.063 0.749756 6.21393 0
M  V30 1825 H 183.296 1.10848 2.75862 0
M  V30 1826 H 180.829 0.684178 1.38414 0
M  V30 1827 H 182.787 -1.07879 3.96071 0
M  V30 1828 H 181.448 -1.36601 2.82841 0
M  V30 1829 H 180.641 -0.437542 5.02097 0
M  V30 1830 H 180.243 0.662493 3.68086 0
M  V30 1831 H 182.535 -0.0333547 6.77492 0
M  V30 1832 H 183.478 1.48356 6.92384 0
M  V30 1833 H 183.886 0.310751 5.63644 0
M  V30 1834 N 183.284 -1.43765 0.645699 0
M  V30 1835 C 184.232 -2.32516 -0.0624849 0
M  V30 1836 C 185.226 -1.48183 -0.820855 0
M  V30 1837 O 186.432 -1.64439 -0.732106 0
M  V30 1838 H 182.807 -0.750989 -0.0389864 0
M  V30 1839 H 184.778 -2.89979 0.703892 0
M  V30 1840 C 183.527 -3.32389 -1.02044 0
M  V30 1841 H 182.85 -3.97301 -0.446312 0
M  V30 1842 H 184.29 -3.97138 -1.48517 0
M  V30 1843 C 182.749 -2.62416 -2.11281 0
M  V30 1844 O 183.279 -2.434 -3.19561 0
M  V30 1845 N 181.485 -2.21913 -1.87624 0
M  V30 1846 H 181.032 -2.37578 -0.995703 0
M  V30 1847 H 180.99 -1.75424 -2.6091 0
M  V30 1848 N 184.763 -0.387143 -1.52771 0
M  V30 1849 C 185.673 0.456442 -2.30117 0
M  V30 1850 C 186.689 1.07342 -1.36944 0
M  V30 1851 O 187.865 1.07971 -1.70013 0
M  V30 1852 C 184.93 1.56957 -3.09136 0
M  V30 1853 C 183.991 0.977916 -4.18014 0
M  V30 1854 C 183.224 2.038 -4.93256 0
M  V30 1855 O 183.447 3.25271 -4.68567 0
M  V30 1856 O 182.381 1.6565 -5.78657 0
M  V30 1857 H 186.207 -0.17359 -3.03203 0
M  V30 1858 H 183.792 -0.150919 -1.48636 0
M  V30 1859 H 185.674 2.21628 -3.58412 0
M  V30 1860 H 184.349 2.18461 -2.38865 0
M  V30 1861 H 183.256 0.294525 -3.72939 0
M  V30 1862 H 184.589 0.407128 -4.90513 0
M  V30 1863 N 186.241 1.57166 -0.116904 0
M  V30 1864 C 187.189 2.16457 0.851418 0
M  V30 1865 C 188.183 1.11323 1.27686 0
M  V30 1866 O 189.389 1.2963 1.24884 0
M  V30 1867 H 185.764 0.69271 0.292672 0
M  V30 1868 H 187.735 2.96605 0.32685 0
M  V30 1869 C 186.484 2.77689 2.09246 0
M  V30 1870 H 185.807 3.58285 1.77402 0
M  V30 1871 H 187.247 3.22716 2.7501 0
M  V30 1872 C 185.706 1.74667 2.88085 0
M  V30 1873 O 186.236 1.19877 3.83396 0
M  V30 1874 N 184.442 1.44656 2.52038 0
M  V30 1875 H 183.989 1.89402 1.74599 0
M  V30 1876 H 183.947 0.759675 3.05084 0
M  V30 1877 N 187.719 -0.156864 1.56817 0
M  V30 1878 C 189.13 -0.717916 1.72345 0
M  V30 1879 C 189.481 -1.82124 0.729747 0
M  V30 1880 O 188.606 -2.16141 -0.105781 0
M  V30 1881 C 189.201 -1.30904 3.12489 0
M  V30 1882 C 187.76 -1.81676 3.29653 0
M  V30 1883 C 186.907 -0.701349 2.68284 0
M  V30 1884 H 189.858 0.0686989 1.58551 0
M  V30 1885 H 189.879 -2.17882 3.11942 0
M  V30 1886 H 189.391 -0.505796 3.8479 0
M  V30 1887 H 187.492 -2.64598 2.62333 0
M  V30 1888 H 187.605 -1.95226 4.3752 0
M  V30 1889 H 185.969 -1.12548 2.28484 0
M  V30 1890 H 186.752 0.0902846 3.43181 0
M  V30 1891 N 189.197 -1.51736 -0.425897 0
M  V30 1892 C 190.446 -1.64201 -1.17136 0
M  V30 1893 C 190.759 -0.369705 -1.92074 0
M  V30 1894 O 191.965 -0.373898 -2.68913 0
M  V30 1895 C 190.421 -2.90035 -2.13091 0
M  V30 1896 C 190.029 -4.24312 -1.43747 0
M  V30 1897 C 191.773 -3.1186 -2.87999 0
M  V30 1898 C 189.68 -5.41285 -2.38253 0
M  V30 1899 H 188.61 -0.611624 -0.440944 0
M  V30 1900 H 191.261 -1.78212 -0.437328 0
M  V30 1901 H 189.643 -2.69684 -2.89977 0
M  V30 1902 H 190.817 -4.55086 -0.723408 0
M  V30 1903 H 189.132 -4.08456 -0.809465 0
M  V30 1904 H 191.729 -3.96427 -3.58817 0
M  V30 1905 H 192.072 -2.25403 -3.49999 0
M  V30 1906 H 192.605 -3.32605 -2.18217 0
M  V30 1907 H 189.344 -6.30037 -1.80925 0
M  V30 1908 H 188.864 -5.14872 -3.0768 0
M  V30 1909 H 190.543 -5.73694 -2.99139 0
M  V30 1910 N 190.675 0.682077 -1.42076 0
M  V30 1911 C 191.905 1.46844 -1.45329 0
M  V30 1912 C 192.313 1.89102 -0.0609328 0
M  V30 1913 O 191.656 1.58238 0.933082 0
M  V30 1914 C 191.718 2.75375 -2.31104 0
M  V30 1915 C 191.382 2.55238 -3.79081 0
M  V30 1916 C 192.379 2.20309 -4.70914 0
M  V30 1917 C 190.064 2.70459 -4.2327 0
M  V30 1918 C 192.058 2.00859 -6.04925 0
M  V30 1919 C 189.745 2.50624 -5.57343 0
M  V30 1920 C 190.743 2.15876 -6.47986 0
M  V30 1921 O 190.431 1.96227 -7.79583 0
M  V30 1922 H 190.163 0.4586 -0.496651 0
M  V30 1923 H 192.717 0.846131 -1.87162 0
M  V30 1924 H 190.947 3.40061 -1.84107 0
M  V30 1925 H 192.636 3.37231 -2.25898 0
M  V30 1926 H 193.402 2.08153 -4.38061 0
M  V30 1927 H 189.281 2.96485 -3.53012 0
M  V30 1928 H 192.825 1.7366 -6.75639 0
M  V30 1929 H 188.722 2.62375 -5.89771 0
M  V30 1930 H 189.49 2.10883 -7.90867 0
M  V30 1931 N 192.153 1.28127 0.917671 0
M  V30 1932 C 193.116 1.11744 2.00115 0
M  V30 1933 C 194.116 0.0583052 1.60694 0
M  V30 1934 O 195.306 0.303755 1.71531 0
M  V30 1935 C 192.438 0.704862 3.33533 0
M  V30 1936 H 193.631 2.07966 2.16079 0
M  V30 1937 H 191.184 1.11058 1.09981 0
M  V30 1938 H 191.919 -0.258299 3.2327 0
M  V30 1939 H 191.704 1.4699 3.63505 0
M  V30 1940 H 193.194 0.612768 4.1308 0
M  V30 1941 N 193.631 -1.12557 1.10312 0
M  V30 1942 C 194.908 -1.80363 0.756878 0
M  V30 1943 C 195.288 -1.97067 -0.756824 0
M  V30 1944 O 194.636 -1.54601 -1.68259 0
M  V30 1945 C 194.846 -3.14812 1.50647 0
M  V30 1946 C 196.194 -3.90029 1.67817 0
M  V30 1947 O 197.218 -3.24464 1.46974 0
M  V30 1948 O 196.077 -5.07652 2.02365 0
M  V30 1949 H 193.171 -0.780667 0.272926 0
M  V30 1950 H 195.717 -1.19404 1.20586 0
M  V30 1951 H 194.489 -2.97936 2.53672 0
M  V30 1952 H 194.112 -3.83478 1.05026 0
M  V30 1953 N 195.109 -0.891671 -1.2995 0
M  V30 1954 C 196.355 -0.514261 -1.96171 0
M  V30 1955 C 196.688 0.935506 -1.70182 0
M  V30 1956 O 195.963 1.66204 -1.01028 0
M  V30 1957 C 196.246 -0.797719 -3.51153 0
M  V30 1958 C 196.099 -2.2986 -3.86632 0
M  V30 1959 C 197.418 -0.278749 -4.39216 0
M  V30 1960 H 194.537 -0.188314 -0.712535 0
M  V30 1961 H 197.179 -1.11689 -1.53706 0
M  V30 1962 H 195.329 -0.284826 -3.87455 0
M  V30 1963 H 197.001 -2.88042 -3.60319 0
M  V30 1964 H 195.244 -2.76257 -3.34462 0
M  V30 1965 H 195.915 -2.44753 -4.94773 0
M  V30 1966 H 198.391 -0.717825 -4.09862 0
M  V30 1967 H 197.267 -0.506353 -5.46559 0
M  V30 1968 H 197.528 0.820266 -4.34424 0
M  V30 1969 N 196.587 1.43421 -0.653314 0
M  V30 1970 C 197.55 2.29182 0.0287951 0
M  V30 1971 C 198.55 1.42213 0.750465 0
M  V30 1972 O 199.74 1.63843 0.591701 0
M  V30 1973 C 196.872 3.24278 1.05151 0
M  V30 1974 H 198.065 2.90985 -0.725786 0
M  V30 1975 H 195.618 1.50702 -0.414545 0
M  V30 1976 H 196.353 2.6737 1.83532 0
M  V30 1977 H 196.138 3.88396 0.537687 0
M  V30 1978 H 197.628 3.88647 1.52786 0
M  V30 1979 N 198.065 0.39524 1.52563 0
M  V30 1980 C 199.342 -0.242908 1.94086 0
M  V30 1981 C 199.722 -1.63841 1.33114 0
M  V30 1982 O 199.07 -2.22928 0.501529 0
M  V30 1983 C 199.28 -0.26327 3.48006 0
M  V30 1984 C 200.628 -0.489354 4.21771 0
M  V30 1985 O 201.652 -0.343226 3.54543 0
M  V30 1986 O 200.511 -0.776169 5.4096 0
M  V30 1987 H 197.605 -0.152536 0.812811 0
M  V30 1988 H 200.151 0.450178 1.6362 0
M  V30 1989 H 198.923 0.713985 3.84731 0
M  V30 1990 H 198.546 -1.00103 3.84792 0
M  V30 1991 N 199.544 -1.57102 0.125237 0
M  V30 1992 C 200.774 -1.99472 -0.538015 0
M  V30 1993 C 201.182 -1.00395 -1.60366 0
M  V30 1994 O 200.525 0.0103875 -1.83697 0
M  V30 1995 C 200.587 -3.38262 -1.21734 0
M  V30 1996 C 200.251 -4.56021 -0.298897 0
M  V30 1997 C 201.248 -5.17817 0.464943 0
M  V30 1998 C 198.933 -5.01869 -0.208149 0
M  V30 1999 C 200.927 -6.23852 1.3072 0
M  V30 2000 C 198.614 -6.07763 0.637736 0
M  V30 2001 C 199.612 -6.68622 1.39403 0
M  V30 2002 O 199.3 -7.7247 2.22586 0
M  V30 2003 H 199.032 -0.659934 -0.146501 0
M  V30 2004 H 201.586 -2.04321 0.210267 0
M  V30 2005 H 199.816 -3.30185 -2.01282 0
M  V30 2006 H 201.505 -3.6488 -1.77813 0
M  V30 2007 H 202.271 -4.83308 0.404741 0
M  V30 2008 H 198.15 -4.54241 -0.786522 0
M  V30 2009 H 201.694 -6.71284 1.898 0
M  V30 2010 H 197.591 -6.41701 0.699309 0
M  V30 2011 H 198.359 -7.89595 2.15596 0
M  V30 2012 N 201.022 0.148545 -1.56898 0
M  V30 2013 C 201.97 1.20265 -1.99096 0
M  V30 2014 C 202.964 1.44559 -0.883123 0
M  V30 2015 O 204.17 1.4487 -1.0683 0
M  V30 2016 H 200.545 0.404786 -0.63376 0
M  V30 2017 H 202.516 0.82004 -2.86911 0
M  V30 2018 C 201.265 2.52886 -2.3863 0
M  V30 2019 H 200.588 2.35021 -3.23427 0
M  V30 2020 H 202.028 3.25274 -2.7198 0
M  V30 2021 C 200.487 3.13315 -1.23837 0
M  V30 2022 O 201.017 3.98077 -0.538268 0
M  V30 2023 N 199.223 2.72742 -1.00301 0
M  V30 2024 H 198.77 2.03912 -1.5741 0
M  V30 2025 H 198.728 3.13507 -0.236838 0
M  V30 2026 N 202.5 1.5196 0.417844 0
M  V30 2027 C 203.746 1.65836 1.16732 0
M  V30 2028 C 204.079 0.382881 1.90388 0
M  V30 2029 O 203.354 -0.618368 1.84408 0
M  V30 2030 C 203.637 2.87466 2.16876 0
M  V30 2031 C 203.49 4.25041 1.47174 0
M  V30 2032 C 204.809 3.04613 3.17646 0
M  V30 2033 H 201.928 0.603515 0.423011 0
M  V30 2034 H 204.57 1.84494 0.454105 0
M  V30 2035 H 202.72 2.71689 2.777 0
M  V30 2036 H 204.392 4.52527 0.895376 0
M  V30 2037 H 202.635 4.26843 0.773806 0
M  V30 2038 H 203.306 5.06176 2.20204 0
M  V30 2039 H 205.782 3.1923 2.66892 0
M  V30 2040 H 204.658 3.91247 3.8499 0
M  V30 2041 H 204.919 2.17541 3.84874 0
M  V30 2042 N 203.978 -0.674533 1.42435 0
M  V30 2043 C 205.206 -1.46283 1.46317 0
M  V30 2044 C 205.621 -1.88653 0.0745836 0
M  V30 2045 O 204.978 -1.58151 -0.91074 0
M  V30 2046 C 205.029 -2.71178 2.3905 0
M  V30 2047 O 204.75 -2.30586 3.72507 0
M  V30 2048 C 206.251 -3.64738 2.51955 0
M  V30 2049 H 203.471 -0.450104 0.497642 0
M  V30 2050 H 206.015 -0.828792 1.86953 0
M  V30 2051 H 204.17 -3.3077 2.01667 0
M  V30 2052 H 204.584 -3.11241 4.22172 0
M  V30 2053 H 206.058 -4.49096 3.20962 0
M  V30 2054 H 206.535 -4.10656 1.55752 0
M  V30 2055 H 207.141 -3.11038 2.90061 0
M  V30 2056 N 205.456 -1.28612 -0.910864 0
M  V30 2057 C 206.419 -1.12803 -1.9952 0
M  V30 2058 C 207.419 -0.0668264 -1.60661 0
M  V30 2059 O 208.609 -0.312847 -1.71368 0
M  V30 2060 C 205.741 -0.72254 -3.33155 0
M  V30 2061 H 206.934 -2.09109 -2.14973 0
M  V30 2062 H 204.487 -1.11639 -1.09391 0
M  V30 2063 H 205.222 0.241152 -3.23402 0
M  V30 2064 H 205.007 -1.48916 -3.62721 0
M  V30 2065 H 206.497 -0.634666 -4.12749 0
M  V30 2066 N 206.934 1.1197 -1.10907 0
M  V30 2067 C 208.18 1.8386 -0.855773 0
M  V30 2068 C 208.513 1.84134 0.617103 0
M  V30 2069 O 207.788 1.29041 1.45529 0
M  V30 2070 C 208.071 3.31305 -1.411 0
M  V30 2071 C 207.924 3.39456 -2.9511 0
M  V30 2072 C 209.243 4.2721 -1.05736 0
M  V30 2073 H 206.362 0.667545 -0.312334 0
M  V30 2074 H 209.004 1.31331 -1.37303 0
M  V30 2075 H 207.154 3.76169 -0.97105 0
M  V30 2076 H 208.826 3.03191 -3.47668 0
M  V30 2077 H 207.069 2.79849 -3.31462 0
M  V30 2078 H 207.74 4.43209 -3.29044 0
M  V30 2079 H 210.216 3.90497 -1.43706 0
M  V30 2080 H 209.092 5.28775 -1.47269 0
M  V30 2081 H 209.353 4.42088 0.0325958 0
M  V30 2082 N 208.412 0.89855 1.29475 0
M  V30 2083 C 209.36 0.365253 2.29714 0
M  V30 2084 C 210.354 -0.534993 1.6073 0
M  V30 2085 O 211.56 -0.417921 1.75081 0
M  V30 2086 H 207.935 0.0994853 0.74539 0
M  V30 2087 H 209.906 1.22406 2.72138 0
M  V30 2088 C 208.655 -0.393159 3.4547 0
M  V30 2089 H 207.978 0.290332 3.98744 0
M  V30 2090 H 209.418 -0.731189 4.17648 0
M  V30 2091 C 207.877 -1.59539 2.9673 0
M  V30 2092 O 208.407 -2.69469 2.97908 0
M  V30 2093 N 206.613 -1.43716 2.52575 0
M  V30 2094 H 206.16 -0.542828 2.51816 0
M  V30 2095 H 206.118 -2.24288 2.20323 0
M  V30 2096 N 209.89 -1.43072 0.660911 0
M  V30 2097 C 210.853 -2.29194 -0.0166406 0
M  V30 2098 C 211.853 -1.42609 -0.742912 0
M  V30 2099 O 213.043 -1.64155 -0.583004 0
M  V30 2100 C 210.175 -3.24831 -1.0343 0
M  V30 2101 H 211.368 -2.90596 0.741208 0
M  V30 2102 H 208.921 -1.5048 0.422532 0
M  V30 2103 H 209.656 -2.68339 -1.82111 0
M  V30 2104 H 209.441 -3.88676 -0.517082 0
M  V30 2105 H 210.931 -3.89451 -1.50723 0
M  V30 2106 N 211.368 -0.403325 -1.52352 0
M  V30 2107 C 212.331 0.413051 -2.25447 0
M  V30 2108 C 213.331 0.978513 -1.276 0
M  V30 2109 O 214.521 0.858305 -1.51587 0
M  V30 2110 C 211.653 1.58087 -3.02029 0
M  V30 2111 H 212.846 -0.227094 -2.99039 0
M  V30 2112 H 210.399 -0.155722 -1.55522 0
M  V30 2113 H 211.134 2.25804 -2.32772 0
M  V30 2114 H 210.919 1.18195 -3.73861 0
M  V30 2115 H 212.409 2.1585 -3.57489 0
M  V30 2116 N 212.846 1.57033 -0.133567 0
M  V30 2117 C 214.074 2.00044 0.528195 0
M  V30 2118 C 214.489 1.01349 1.59291 0
M  V30 2119 O 213.846 0.00848369 1.82498 0
M  V30 2120 C 213.897 3.43018 1.1411 0
M  V30 2121 O 213.618 4.37939 0.11892 0
M  V30 2122 C 215.119 4.01237 1.88477 0
M  V30 2123 H 212.339 0.656517 0.138661 0
M  V30 2124 H 214.883 2.03267 -0.224196 0
M  V30 2125 H 213.038 3.40688 1.84418 0
M  V30 2126 H 213.452 5.21436 0.56613 0
M  V30 2127 H 214.926 5.03314 2.26669 0
M  V30 2128 H 215.403 3.41193 2.76558 0
M  V30 2129 H 216.009 4.07156 1.22898 0
M  V30 2130 N 214.325 -0.140222 1.56975 0
M  V30 2131 C 215.255 -1.17456 2.01808 0
M  V30 2132 C 216.236 -1.44415 0.898794 0
M  V30 2133 O 217.421 -1.5522 1.16707 0
M  V30 2134 C 214.551 -2.50607 2.40444 0
M  V30 2135 C 213.505 -2.38155 3.55621 0
M  V30 2136 C 212.831 -3.76078 3.80091 0
M  V30 2137 C 214.131 -1.85991 4.88062 0
M  V30 2138 H 215.825 -0.801743 2.88466 0
M  V30 2139 H 213.371 -0.38422 1.38779 0
M  V30 2140 H 215.324 -3.23197 2.7041 0
M  V30 2141 H 214.048 -2.89737 1.50732 0
M  V30 2142 H 212.707 -1.68016 3.25832 0
M  V30 2143 H 212.355 -4.12656 2.87618 0
M  V30 2144 H 212.055 -3.68606 4.57606 0
M  V30 2145 H 213.579 -4.50206 4.12488 0
M  V30 2146 H 214.993 -2.4838 5.16701 0
M  V30 2147 H 213.39 -1.89393 5.6943 0
M  V30 2148 H 214.46 -0.816023 4.77984 0
M  V30 2149 N 215.803 -1.52179 -0.40978 0
M  V30 2150 C 217.214 -1.58377 -0.988615 0
M  V30 2151 C 217.565 -0.423879 -1.91566 0
M  V30 2152 O 216.69 0.455844 -2.11544 0
M  V30 2153 C 217.285 -2.87044 -1.79976 0
M  V30 2154 C 215.844 -2.95722 -2.32863 0
M  V30 2155 C 214.991 -2.53309 -1.12828 0
M  V30 2156 H 217.942 -1.57558 -0.190039 0
M  V30 2157 H 217.963 -2.7236 -2.65707 0
M  V30 2158 H 217.475 -3.71444 -1.12478 0
M  V30 2159 H 215.576 -2.15814 -3.03735 0
M  V30 2160 H 215.689 -3.99951 -2.63773 0
M  V30 2161 H 214.053 -2.07142 -1.48204 0
M  V30 2162 H 214.836 -3.40082 -0.46897 0
M  V30 2163 N 217.281 0.66697 -1.42791 0
M  V30 2164 C 218.231 1.77313 -1.43332 0
M  V30 2165 C 219.215 1.5801 -0.303586 0
M  V30 2166 O 220.407 1.68356 -0.546385 0
M  V30 2167 C 217.536 3.15822 -1.34578 0
M  V30 2168 C 216.622 3.40721 -2.52528 0
M  V30 2169 N 217.013 3.36162 -3.77927 0
M  V30 2170 C 215.311 3.71387 -2.46956 0
M  V30 2171 C 216.012 3.60762 -4.56318 0
M  V30 2172 N 214.988 3.81908 -3.86843 0
M  V30 2173 H 218.79 1.72193 -2.38174 0
M  V30 2174 H 216.304 0.868114 -1.3725 0
M  V30 2175 H 218.301 3.951 -1.33048 0
M  V30 2176 H 216.961 3.22133 -0.407453 0
M  V30 2177 H 217.972 3.15885 -4.10411 0
M  V30 2178 H 214.649 3.84897 -1.61743 0
M  V30 2179 H 216.039 3.63132 -5.65318 0
M  V30 2180 N 218.759 1.29093 0.90403 0
M  V30 2181 C 220.005 1.16986 1.65656 0
M  V30 2182 C 220.338 -0.278925 1.92186 0
M  V30 2183 O 219.613 -1.2019 1.5292 0
M  V30 2184 C 219.896 1.97908 3.0084 0
M  V30 2185 C 219.749 3.50903 2.81403 0
M  V30 2186 C 221.068 1.80208 4.01513 0
M  V30 2187 H 218.187 0.426346 0.601164 0
M  V30 2188 H 220.829 1.58518 1.04747 0
M  V30 2189 H 218.979 1.62616 3.52829 0
M  V30 2190 H 220.651 3.96153 2.36348 0
M  V30 2191 H 218.894 3.76045 2.1627 0
M  V30 2192 H 219.565 4.02791 3.77443 0
M  V30 2193 H 222.041 2.11025 3.58619 0
M  V30 2194 H 220.917 2.39184 4.94047 0
M  V30 2195 H 221.178 0.756119 4.35586 0
M  V30 2196 N 220.237 -1.11381 1.11499 0
M  V30 2197 C 221.486 -1.82494 0.858993 0
M  V30 2198 C 221.799 -1.85605 -0.617278 0
M  V30 2199 O 223.005 -2.52824 -0.989552 0
M  V30 2200 C 221.461 -3.27745 1.48699 0
M  V30 2201 C 221.069 -3.32961 2.99735 0
M  V30 2202 C 222.813 -4.03754 1.31085 0
M  V30 2203 C 220.72 -4.72612 3.55516 0
M  V30 2204 H 219.65 -0.683802 0.317696 0
M  V30 2205 H 222.301 -1.25331 1.34031 0
M  V30 2206 H 220.683 -3.84844 0.933339 0
M  V30 2207 H 221.857 -2.85741 3.61509 0
M  V30 2208 H 220.172 -2.70433 3.16631 0
M  V30 2209 H 222.769 -5.06891 1.70192 0
M  V30 2210 H 223.112 -4.15527 0.253496 0
M  V30 2211 H 223.645 -3.53043 1.83318 0
M  V30 2212 H 220.384 -4.66036 4.60967 0
M  V30 2213 H 219.904 -5.2024 2.98513 0
M  V30 2214 H 221.583 -5.4157 3.53992 0
M  V30 2215 N 221.715 -0.905404 -1.28997 0
M  V30 2216 C 222.992 -0.453513 -1.9027 0
M  V30 2217 C 223.372 1.06721 -1.82137 0
M  V30 2218 O 222.72 1.91159 -1.25182 0
M  V30 2219 C 222.93 -0.974494 -3.35119 0
M  V30 2220 C 224.278 -1.0216 -4.12127 0
M  V30 2221 O 225.302 -0.922557 -3.44046 0
M  V30 2222 O 224.161 -1.17121 -5.33802 0
M  V30 2223 H 221.255 -0.142347 -0.814657 0
M  V30 2224 H 223.801 -0.995642 -1.37423 0
M  V30 2225 H 222.573 -2.01848 -3.35221 0
M  V30 2226 H 222.196 -0.412706 -3.95452 0
M  V30 2227 N 223.193 1.4272 -0.668489 0
M  V30 2228 C 224.103 2.34596 0.0139753 0
M  V30 2229 C 225.119 1.5474 0.795703 0
M  V30 2230 O 226.295 1.87334 0.739466 0
M  V30 2231 C 223.36 3.33202 0.957982 0
M  V30 2232 C 222.421 4.28957 0.17149 0
M  V30 2233 C 221.654 5.22853 1.07053 0
M  V30 2234 O 221.877 5.21531 2.31001 0
M  V30 2235 O 220.811 5.9952 0.534727 0
M  V30 2236 H 224.637 2.9448 -0.742661 0
M  V30 2237 H 222.222 1.43117 -0.428705 0
M  V30 2238 H 224.104 3.93796 1.50008 0
M  V30 2239 H 222.779 2.758 1.69458 0
M  V30 2240 H 221.686 3.71796 -0.414558 0
M  V30 2241 H 223.019 4.89383 -0.52586 0
M  V30 2242 N 224.671 0.411399 1.52136 0
M  V30 2243 C 225.634 -0.401089 2.25663 0
M  V30 2244 C 226.634 -0.971732 1.28117 0
M  V30 2245 O 227.824 -0.850254 1.52041 0
M  V30 2246 C 224.956 -1.56483 3.02863 0
M  V30 2247 H 226.149 0.24295 2.98914 0
M  V30 2248 H 223.702 0.163968 1.55438 0
M  V30 2249 H 224.437 -2.24567 2.33967 0
M  V30 2250 H 224.222 -1.16211 3.74483 0
M  V30 2251 H 225.712 -2.13951 3.58629 0
M  V30 2252 N 226.149 -1.5696 0.141893 0
M  V30 2253 C 227.398 -1.95135 -0.510427 0
M  V30 2254 C 227.711 -1.02896 -1.66348 0
M  V30 2255 O 228.917 -1.30629 -2.38009 0
M  V30 2256 C 227.373 -3.46876 -0.959427 0
M  V30 2257 C 226.981 -4.47691 0.166419 0
M  V30 2258 C 228.725 -3.93927 -1.58183 0
M  V30 2259 C 226.632 -5.90636 -0.300565 0
M  V30 2260 H 225.562 -0.728494 -0.194454 0
M  V30 2261 H 228.213 -1.8211 0.22542 0
M  V30 2262 H 226.595 -3.55215 -1.75038 0
M  V30 2263 H 227.769 -4.51043 0.94325 0
M  V30 2264 H 226.084 -4.10527 0.696905 0
M  V30 2265 H 228.681 -4.98158 -1.94275 0
M  V30 2266 H 229.024 -3.3519 -2.46888 0
M  V30 2267 H 229.557 -3.88484 -0.855863 0
M  V30 2268 H 226.296 -6.5318 0.550989 0
M  V30 2269 H 225.816 -5.90655 -1.04338 0
M  V30 2270 H 227.495 -6.42588 -0.754265 0
M  V30 2271 N 227.627 0.131896 -1.57047 0
M  V30 2272 C 229.043 0.485031 -1.52051 0
M  V30 2273 C 229.243 1.82563 -0.85281 0
M  V30 2274 O 228.299 2.48817 -0.429694 0
M  V30 2275 C 229.612 0.481409 -2.96821 0
M  V30 2276 C 231.16 0.565868 -3.07842 0
M  V30 2277 C 231.635 0.592762 -4.54148 0
M  V30 2278 N 233.126 0.654564 -4.58552 0
M  V30 2279 C 233.861 0.696608 -5.69153 0
M  V30 2280 N 233.357 0.697078 -6.89284 0
M  V30 2281 N 235.15 0.738639 -5.57226 0
M  V30 2282 H 227.301 -0.746664 -1.98843 0
M  V30 2283 H 229.564 -0.273999 -0.90754 0
M  V30 2284 H 229.27 -0.435731 -3.4899 0
M  V30 2285 H 229.144 1.3139 -3.53577 0
M  V30 2286 H 231.531 1.47343 -2.55684 0
M  V30 2287 H 231.612 -0.29406 -2.54104 0
M  V30 2288 H 231.256 -0.310701 -5.06949 0
M  V30 2289 H 231.186 1.46939 -5.05684 0
M  V30 2290 H 233.677 0.660887 -3.72076 0
M  V30 2291 H 233.99 0.731426 -7.69331 0
M  V30 2292 H 232.335 0.66471 -6.91814 0
M  V30 2293 H 235.526 0.735545 -4.62285 0
M  V30 2294 H 235.699 0.767938 -6.43434 0
M  V30 2295 N 229.106 1.52395 0.401703 0
M  V30 2296 C 230.522 1.41363 0.740864 0
M  V30 2297 C 230.722 0.523982 1.94568 0
M  V30 2298 O 229.778 -0.00741204 2.52499 0
M  V30 2299 C 231.091 2.84011 0.987847 0
M  V30 2300 C 232.639 2.93404 1.09011 0
M  V30 2301 C 233.114 4.37036 1.3698 0
M  V30 2302 N 234.605 4.40304 1.43829 0
M  V30 2303 C 235.34 5.48508 1.67112 0
M  V30 2304 N 234.836 6.66819 1.87949 0
M  V30 2305 N 236.629 5.36034 1.69187 0
M  V30 2306 H 228.78 2.08765 -0.391262 0
M  V30 2307 H 231.043 0.941265 -0.112798 0
M  V30 2308 H 230.749 3.51265 0.174835 0
M  V30 2309 H 230.623 3.25502 1.906 0
M  V30 2310 H 233.01 2.26325 1.8937 0
M  V30 2311 H 233.091 2.55359 0.15015 0
M  V30 2312 H 232.735 5.04676 0.571353 0
M  V30 2313 H 232.665 4.72623 2.3224 0
M  V30 2314 H 235.156 3.55024 1.29486 0
M  V30 2315 H 235.469 7.45063 2.05185 0
M  V30 2316 H 233.814 6.6987 1.85199 0
M  V30 2317 H 237.005 4.42579 1.52451 0
M  V30 2318 H 237.178 6.20434 1.86993 0
M  V30 2319 N 230.584 -0.659388 1.43143 0
M  V30 2320 C 231.547 -1.75432 1.47501 0
M  V30 2321 C 232.547 -1.56707 0.360512 0
M  V30 2322 O 233.737 -1.62717 0.622002 0
M  V30 2323 C 230.869 -3.14239 1.32162 0
M  V30 2324 H 232.062 -1.7295 2.45006 0
M  V30 2325 H 229.615 -0.870469 1.29817 0
M  V30 2326 H 230.35 -3.22336 0.356401 0
M  V30 2327 H 230.135 -3.29235 2.12948 0
M  V30 2328 H 231.625 -3.94094 1.3813 0
M  V30 2329 N 232.062 -1.29571 -0.897171 0
M  V30 2330 C 233.292 -1.20408 -1.67886 0
M  V30 2331 C 233.7 0.237429 -1.87704 0
M  V30 2332 O 233.043 1.17048 -1.41582 0
M  V30 2333 C 233.105 -1.84887 -3.08314 0
M  V30 2334 C 232.769 -3.34189 -3.11716 0
M  V30 2335 C 233.766 -4.30374 -2.91675 0
M  V30 2336 C 231.451 -3.75431 -3.33701 0
M  V30 2337 C 233.445 -5.65776 -2.93557 0
M  V30 2338 C 231.132 -5.10955 -3.35214 0
M  V30 2339 C 232.13 -6.05938 -3.15164 0
M  V30 2340 O 231.818 -7.38987 -3.1647 0
M  V30 2341 H 231.55 -0.418289 -0.531046 0
M  V30 2342 H 234.104 -1.71514 -1.13014 0
M  V30 2343 H 232.334 -1.28295 -3.64798 0
M  V30 2344 H 234.023 -1.70011 -3.6858 0
M  V30 2345 H 234.789 -3.99844 -2.74499 0
M  V30 2346 H 230.668 -3.01953 -3.48347 0
M  V30 2347 H 234.212 -6.39889 -2.77826 0
M  V30 2348 H 230.109 -5.4113 -3.51922 0
M  V30 2349 H 230.877 -7.47823 -3.3272 0
M  V30 2350 N 233.54 1.10788 -1.12088 0
M  V30 2351 C 234.503 2.15207 -0.788577 0
M  V30 2352 C 235.503 1.59609 0.195317 0
M  V30 2353 O 236.693 1.74174 -0.0300193 0
M  V30 2354 C 233.825 3.4047 -0.171174 0
M  V30 2355 H 235.018 2.46116 -1.71368 0
M  V30 2356 H 232.571 1.26089 -0.923652 0
M  V30 2357 H 233.306 3.15176 0.763832 0
M  V30 2358 H 233.091 3.82109 -0.879514 0
M  V30 2359 H 234.581 4.17576 0.04496 0
M  V30 2360 N 235.018 0.912232 1.28515 0
M  V30 2361 C 235.968 0.370649 2.24967 0
M  V30 2362 C 236.952 -0.516375 1.52389 0
M  V30 2363 O 238.144 -0.356345 1.73376 0
M  V30 2364 C 235.273 -0.389526 3.41083 0
M  V30 2365 C 234.359 0.51313 4.20984 0
M  V30 2366 N 234.75 1.62604 4.78951 0
M  V30 2367 C 233.048 0.313235 4.44899 0
M  V30 2368 C 233.749 2.18619 5.39055 0
M  V30 2369 N 232.725 1.47765 5.23132 0
M  V30 2370 H 236.527 1.22061 2.67354 0
M  V30 2371 H 234.041 0.764712 1.43269 0
M  V30 2372 H 236.038 -0.794353 4.09262 0
M  V30 2373 H 234.698 -1.2366 3.0023 0
M  V30 2374 H 235.709 2.00864 4.77362 0
M  V30 2375 H 232.386 -0.494452 4.14562 0
M  V30 2376 H 233.776 3.12228 5.94948 0
M  V30 2377 N 236.496 -1.42363 0.676048 0
M  V30 2378 C 237.428 -2.29164 -0.0404605 0
M  V30 2379 C 238.441 -1.43747 -0.764245 0
M  V30 2380 O 239.63 -1.67453 -0.618195 0
M  V30 2381 C 236.73 -3.21196 -1.08103 0
M  V30 2382 C 235.903 -4.35273 -0.430812 0
M  V30 2383 C 234.962 -5.08017 -1.37133 0
M  V30 2384 O 233.988 -5.62494 -0.87116 0
M  V30 2385 N 235.19 -5.13647 -2.70456 0
M  V30 2386 H 237.955 -2.91298 0.704667 0
M  V30 2387 H 235.516 -1.53303 0.520559 0
M  V30 2388 H 237.508 -3.66728 -1.71152 0
M  V30 2389 H 236.078 -2.60505 -1.72788 0
M  V30 2390 H 235.298 -3.92372 0.379209 0
M  V30 2391 H 236.586 -5.08795 0.0221132 0
M  V30 2392 H 235.984 -4.708 -3.1363 0
M  V30 2393 H 234.541 -5.62821 -3.28749 0
M  V30 2394 N 237.974 -0.419461 -1.51915 0
M  V30 2395 C 239.222 0.152637 -2.01523 0
M  V30 2396 C 239.543 1.44762 -1.30649 0
M  V30 2397 O 238.813 1.90997 -0.435535 0
M  V30 2398 H 237.393 0.0593966 -0.744635 0
M  V30 2399 H 240.055 -0.558073 -1.86739 0
M  V30 2400 H 239.151 0.341369 -3.10227 0
M  V30 2401 N 239.452 1.56882 -0.150215 0
M  V30 2402 C 240.698 1.96518 0.500834 0
M  V30 2403 C 241.031 1.03527 1.64304 0
M  V30 2404 O 240.306 0.0782751 1.94342 0
M  V30 2405 C 240.589 3.45822 1.00395 0
M  V30 2406 C 240.442 4.49591 -0.136983 0
M  V30 2407 C 241.761 3.97704 1.88467 0
M  V30 2408 H 238.88 0.714535 0.18058 0
M  V30 2409 H 241.522 1.88577 -0.232091 0
M  V30 2410 H 239.672 3.5272 1.62851 0
M  V30 2411 H 241.344 4.5477 -0.77343 0
M  V30 2412 H 239.587 4.26441 -0.795652 0
M  V30 2413 H 240.258 5.51402 0.256815 0
M  V30 2414 H 242.734 3.93304 1.35834 0
M  V30 2415 H 241.61 5.0263 2.20578 0
M  V30 2416 H 241.871 3.40252 2.82279 0
M  V30 2417 N 240.93 -0.123565 1.57115 0
M  V30 2418 C 241.893 -1.13583 1.99076 0
M  V30 2419 C 242.893 -1.34564 0.880296 0
M  V30 2420 O 244.083 -1.31158 1.14644 0
M  V30 2421 C 241.215 -2.49128 2.32698 0
M  V30 2422 H 242.408 -0.775287 2.89706 0
M  V30 2423 H 239.961 -0.36771 1.51913 0
M  V30 2424 H 240.696 -2.90111 1.44934 0
M  V30 2425 H 240.481 -2.35255 3.13684 0
M  V30 2426 H 241.971 -3.2199 2.65918 0
M  V30 2427 N 242.408 -1.52605 -0.393616 0
M  V30 2428 C 243.654 -1.67672 -1.14079 0
M  V30 2429 C 243.987 -0.413121 -1.89755 0
M  V30 2430 O 243.262 0.588952 -1.85369 0
M  V30 2431 C 243.545 -2.9088 -2.12276 0
M  V30 2432 C 243.398 -4.27329 -1.40394 0
M  V30 2433 C 244.717 -3.09628 -3.12759 0
M  V30 2434 H 241.836 -0.610168 -0.413356 0
M  V30 2435 H 244.478 -1.85193 -0.424696 0
M  V30 2436 H 242.628 -2.76073 -2.73342 0
M  V30 2437 H 244.3 -4.53894 -0.82327 0
M  V30 2438 H 242.543 -4.2802 -0.705801 0
M  V30 2439 H 243.214 -5.09615 -2.12123 0
M  V30 2440 H 245.69 -3.23436 -2.61779 0
M  V30 2441 H 244.566 -3.97322 -3.78717 0
M  V30 2442 H 244.827 -2.23637 -3.81365 0
M  V30 2443 N 243.887 0.651787 -1.4349 0
M  V30 2444 C 245.133 1.41376 -1.45398 0
M  V30 2445 C 245.466 1.94041 -0.0784823 0
M  V30 2446 O 244.741 1.72379 0.900878 0
M  V30 2447 C 245.024 2.59414 -2.49752 0
M  V30 2448 C 244.877 2.12232 -3.96582 0
M  V30 2449 C 246.196 3.61626 -2.50827 0
M  V30 2450 H 243.315 0.512719 -0.529422 0
M  V30 2451 H 245.957 0.738796 -1.75048 0
M  V30 2452 H 244.107 3.16997 -2.246 0
M  V30 2453 H 245.779 1.59639 -4.32797 0
M  V30 2454 H 244.022 1.43592 -4.09346 0
M  V30 2455 H 244.693 2.9712 -4.65214 0
M  V30 2456 H 247.169 3.13805 -2.7325 0
M  V30 2457 H 246.045 4.41766 -3.25783 0
M  V30 2458 H 246.306 4.14314 -1.5426 0
M  V30 2459 N 245.365 1.30045 0.890287 0
M  V30 2460 C 246.297 1.11786 2.00091 0
M  V30 2461 C 247.31 0.0626307 1.62679 0
M  V30 2462 O 248.499 0.308112 1.75821 0
M  V30 2463 C 245.599 0.681527 3.31977 0
M  V30 2464 C 244.772 1.81735 3.97858 0
M  V30 2465 C 243.831 1.37045 5.08041 0
M  V30 2466 O 242.857 2.07677 5.29961 0
M  V30 2467 N 244.059 0.246525 5.79976 0
M  V30 2468 H 246.824 2.07441 2.16306 0
M  V30 2469 H 244.385 1.2211 1.06305 0
M  V30 2470 H 246.377 0.365675 4.03045 0
M  V30 2471 H 244.947 -0.182828 3.12065 0
M  V30 2472 H 244.167 2.30159 3.20032 0
M  V30 2473 H 245.455 2.57865 4.38615 0
M  V30 2474 H 244.853 -0.34215 5.64664 0
M  V30 2475 H 243.41 -0.00990438 6.51799 0
M  V30 2476 N 246.843 -1.10192 1.12674 0
M  V30 2477 C 248.092 -1.81573 0.8783 0
M  V30 2478 C 248.405 -1.86249 -0.597557 0
M  V30 2479 O 249.611 -2.5386 -0.962681 0
M  V30 2480 C 248.067 -3.26149 1.52167 0
M  V30 2481 C 247.675 -3.29763 3.03249 0
M  V30 2482 C 249.419 -4.0234 1.3536 0
M  V30 2483 C 247.326 -4.68815 3.60508 0
M  V30 2484 H 246.256 -0.680394 0.324931 0
M  V30 2485 H 248.907 -1.23902 1.35353 0
M  V30 2486 H 247.289 -3.83832 0.974104 0
M  V30 2487 H 248.463 -2.8189 3.6452 0
M  V30 2488 H 246.778 -2.67059 3.19481 0
M  V30 2489 H 249.375 -5.05058 1.75559 0
M  V30 2490 H 249.718 -4.15235 0.297554 0
M  V30 2491 H 250.251 -3.51079 1.87052 0
M  V30 2492 H 246.99 -4.61121 4.65884 0
M  V30 2493 H 246.51 -5.17045 3.04014 0
M  V30 2494 H 248.189 -5.37785 3.59717 0
M  V30 2495 N 248.321 -0.919034 -1.28029 0
M  V30 2496 C 249.732 -0.600735 -1.76771 0
M  V30 2497 C 250.083 0.884024 -1.75156 0
M  V30 2498 O 249.208 1.69163 -1.34956 0
M  V30 2499 C 249.803 -1.08372 -3.21 0
M  V30 2500 C 248.362 -0.816248 -3.67443 0
M  V30 2501 C 247.509 -1.24742 -2.47658 0
M  V30 2502 H 250.46 -1.09974 -1.14418 0
M  V30 2503 H 250.481 -0.427512 -3.78091 0
M  V30 2504 H 249.993 -2.16437 -3.22144 0
M  V30 2505 H 248.094 0.250968 -3.71754 0
M  V30 2506 H 248.207 -1.4277 -4.57333 0
M  V30 2507 H 246.571 -0.666083 -2.45836 0
M  V30 2508 H 247.354 -2.33653 -2.51518 0
M  V30 2509 N 249.799 1.42003 -0.683588 0
M  V30 2510 C 251.045 2.01712 -0.209825 0
M  V30 2511 C 251.378 1.53968 1.18353 0
M  V30 2512 O 250.653 0.745661 1.79639 0
M  V30 2513 C 250.936 3.59202 -0.254197 0
M  V30 2514 C 250.789 4.17102 -1.68363 0
M  V30 2515 C 252.108 4.38344 0.392709 0
M  V30 2516 H 249.227 0.732891 -0.0777189 0
M  V30 2517 H 251.869 1.68909 -0.87004 0
M  V30 2518 H 250.019 3.87278 0.307954 0
M  V30 2519 H 251.691 3.99946 -2.29871 0
M  V30 2520 H 249.934 3.72597 -2.22157 0
M  V30 2521 H 250.605 5.26249 -1.6663 0
M  V30 2522 H 253.081 4.16011 -0.0859162 0
M  V30 2523 H 251.957 5.47901 0.331063 0
M  V30 2524 H 252.218 4.16887 1.47164 0
M  V30 2525 N 251.277 0.427512 1.51691 0
M  V30 2526 C 252.554 -0.201684 1.94557 0
M  V30 2527 C 252.934 -1.60981 1.36559 0
M  V30 2528 O 252.282 -2.21814 0.548702 0
M  V30 2529 C 252.492 -0.189394 3.48486 0
M  V30 2530 C 253.84 -0.39978 4.22714 0
M  V30 2531 O 254.864 -0.267945 3.55191 0
M  V30 2532 O 253.723 -0.661249 5.42485 0
M  V30 2533 H 250.817 -0.135261 0.815864 0
M  V30 2534 H 253.363 0.484782 1.62628 0
M  V30 2535 H 252.135 0.795431 3.8313 0
M  V30 2536 H 251.758 -0.919187 3.86829 0
M  V30 2537 N 252.755 -1.56801 0.158532 0
M  V30 2538 C 253.685 -2.20347 -0.772609 0
M  V30 2539 C 254.666 -1.15518 -1.24859 0
M  V30 2540 O 255.851 -1.43902 -1.30406 0
M  V30 2541 C 252.981 -2.83417 -2.00729 0
M  V30 2542 C 251.935 -3.94174 -1.66765 0
M  V30 2543 C 251.261 -4.44233 -2.97592 0
M  V30 2544 C 252.561 -5.14392 -0.905447 0
M  V30 2545 H 254.255 -2.98413 -0.242959 0
M  V30 2546 H 251.801 -1.43537 -0.115419 0
M  V30 2547 H 253.754 -3.26543 -2.6636 0
M  V30 2548 H 252.478 -2.02701 -2.56086 0
M  V30 2549 H 251.137 -3.51684 -1.03508 0
M  V30 2550 H 250.785 -3.60325 -3.50963 0
M  V30 2551 H 250.485 -5.18945 -2.75626 0
M  V30 2552 H 252.009 -4.90037 -3.64274 0
M  V30 2553 H 253.423 -5.5429 -1.46408 0
M  V30 2554 H 251.82 -5.9494 -0.7853 0
M  V30 2555 H 252.89 -4.84795 0.100668 0
M  V30 2556 N 254.233 0.115231 -1.57178 0
M  V30 2557 C 255.644 0.67197 -1.74188 0
M  V30 2558 C 255.995 1.80125 -0.777777 0
M  V30 2559 O 255.12 2.16346 0.0484376 0
M  V30 2560 C 255.715 1.22573 -3.1585 0
M  V30 2561 C 254.274 1.72872 -3.34353 0
M  V30 2562 C 253.421 0.629972 -2.70049 0
M  V30 2563 H 256.372 -0.110712 -1.58313 0
M  V30 2564 H 256.393 2.09535 -3.17609 0
M  V30 2565 H 255.905 0.403598 -3.85996 0
M  V30 2566 H 254.006 2.5755 -2.69256 0
M  V30 2567 H 254.119 1.83557 -4.42542 0
M  V30 2568 H 252.483 1.0645 -2.31388 0
M  V30 2569 H 253.266 -0.181241 -3.42821 0
M  V30 2570 N 255.711 1.52812 0.385517 0
M  V30 2571 C 256.957 1.69225 1.12847 0
M  V30 2572 C 257.312 0.42864 1.87564 0
M  V30 2573 O 256.605 -0.57779 1.8268 0
M  V30 2574 C 256.799 2.86856 2.13187 0
M  V30 2575 C 256.628 4.24535 1.48325 0
M  V30 2576 C 255.398 4.89701 1.24585 0
M  V30 2577 C 257.596 5.05794 0.931501 0
M  V30 2578 N 255.578 6.11353 0.558644 0
M  V30 2579 C 256.949 6.1888 0.372552 0
M  V30 2580 C 259.004 4.90963 0.828248 0
M  V30 2581 C 257.707 7.18757 -0.279556 0
M  V30 2582 C 259.733 5.91095 0.189956 0
M  V30 2583 C 259.095 7.03489 -0.358207 0
M  V30 2584 H 255.194 0.67268 0.39878 0
M  V30 2585 H 257.778 1.9017 0.417528 0
M  V30 2586 H 255.949 2.67484 2.81614 0
M  V30 2587 H 257.681 2.92188 2.80014 0
M  V30 2588 H 254.436 4.48485 1.52178 0
M  V30 2589 H 254.86 6.76606 0.230983 0
M  V30 2590 H 259.502 4.04274 1.23784 0
M  V30 2591 H 257.22 8.05052 -0.701152 0
M  V30 2592 H 260.806 5.81694 0.111264 0
M  V30 2593 H 259.686 7.79642 -0.844314 0
M  V30 2594 N 257.189 -0.644168 1.43834 0
M  V30 2595 C 258.121 -1.76955 1.45669 0
M  V30 2596 C 259.134 -1.58956 0.351666 0
M  V30 2597 O 260.323 -1.6751 0.616644 0
M  V30 2598 C 257.423 -3.14507 1.26248 0
M  V30 2599 C 256.596 -3.59083 2.49757 0
M  V30 2600 C 255.655 -4.75467 2.25427 0
M  V30 2601 O 254.681 -4.84444 2.98836 0
M  V30 2602 N 255.883 -5.66289 1.27661 0
M  V30 2603 H 258.648 -1.75856 2.42682 0
M  V30 2604 H 256.209 -0.828312 1.39106 0
M  V30 2605 H 258.201 -3.90067 1.0784 0
M  V30 2606 H 256.771 -3.10325 0.376478 0
M  V30 2607 H 255.991 -2.7387 2.8353 0
M  V30 2608 H 257.279 -3.85613 3.31934 0
M  V30 2609 H 256.677 -5.61718 0.670064 0
M  V30 2610 H 255.234 -6.41533 1.15234 0
M  V30 2611 N 258.668 -1.30515 -0.883378 0
M  V30 2612 C 259.6 -1.12846 -1.99496 0
M  V30 2613 C 260.613 -0.0712571 -1.62644 0
M  V30 2614 O 261.802 -0.317432 -1.75655 0
M  V30 2615 C 258.902 -0.699123 -3.3161 0
M  V30 2616 C 258.075 -1.83842 -3.96889 0
M  V30 2617 C 257.134 -1.39737 -5.07307 0
M  V30 2618 O 256.16 -2.10485 -5.28852 0
M  V30 2619 N 257.362 -0.277279 -5.79837 0
M  V30 2620 H 260.127 -2.08585 -2.15203 0
M  V30 2621 H 257.688 -1.22672 -1.05656 0
M  V30 2622 H 259.68 -0.387044 -4.02845 0
M  V30 2623 H 258.25 0.166276 -3.12157 0
M  V30 2624 H 257.47 -2.31853 -3.18807 0
M  V30 2625 H 258.758 -2.60187 -4.37241 0
M  V30 2626 H 258.156 0.3122 -5.64838 0
M  V30 2627 H 256.713 -0.0246623 -6.51795 0
M  V30 2628 N 260.146 1.09593 -1.13257 0
M  V30 2629 C 261.395 1.81105 -0.887917 0
M  V30 2630 C 261.708 1.86563 0.587672 0
M  V30 2631 O 262.914 2.54367 0.949204 0
M  V30 2632 C 261.37 3.25338 -1.53895 0
M  V30 2633 C 260.978 3.28151 -3.04994 0
M  V30 2634 C 262.722 4.01617 -1.37492 0
M  V30 2635 C 260.629 4.66897 -3.6299 0
M  V30 2636 H 259.559 0.678661 -0.328534 0
M  V30 2637 H 262.21 1.23183 -1.36008 0
M  V30 2638 H 260.592 3.8331 -0.994446 0
M  V30 2639 H 261.766 2.79953 -3.66009 0
M  V30 2640 H 260.081 2.65361 -3.20893 0
M  V30 2641 H 262.678 5.04119 -1.78235 0
M  V30 2642 H 263.021 4.15072 -0.31957 0
M  V30 2643 H 263.554 3.50082 -1.88912 0
M  V30 2644 H 260.293 4.58643 -4.68323 0
M  V30 2645 H 259.813 5.15426 -3.06752 0
M  V30 2646 H 261.492 5.3587 -3.62563 0
M  V30 2647 N 261.624 0.925811 1.2754 0
M  V30 2648 C 263.035 0.610102 1.7645 0
M  V30 2649 C 263.386 -0.874723 1.75622 0
M  V30 2650 O 262.511 -1.68444 1.35851 0
M  V30 2651 C 263.106 1.10073 3.20421 0
M  V30 2652 C 261.665 0.835723 3.67005 0
M  V30 2653 C 260.812 1.26054 2.46993 0
M  V30 2654 H 263.763 1.10579 1.13833 0
M  V30 2655 H 263.784 0.447557 3.77859 0
M  V30 2656 H 263.296 2.18143 3.20991 0
M  V30 2657 H 261.397 -0.231249 3.71882 0
M  V30 2658 H 261.51 1.45193 4.56569 0
M  V30 2659 H 259.874 0.679111 2.45479 0
M  V30 2660 H 260.657 2.34984 2.50275 0
M  V30 2661 N 263.102 -1.41638 0.69111 0
M  V30 2662 C 264.065 -2.29178 0.0319786 0
M  V30 2663 C 265.065 -1.44153 -0.712496 0
M  V30 2664 O 266.255 -1.65354 -0.548053 0
M  V30 2665 C 263.387 -3.26952 -0.965161 0
M  V30 2666 H 264.58 -2.88959 0.802681 0
M  V30 2667 H 262.133 -1.4955 0.454356 0
M  V30 2668 H 262.868 -2.72142 -1.76378 0
M  V30 2669 H 262.653 -3.89685 -0.434522 0
M  V30 2670 H 264.143 -3.92561 -1.42428 0
M  V30 2671 N 264.58 -0.43555 -1.51462 0
M  V30 2672 C 265.49 0.383001 -2.31453 0
M  V30 2673 C 266.506 1.02931 -1.4029 0
M  V30 2674 O 267.682 1.02507 -1.73362 0
M  V30 2675 C 264.747 1.47043 -3.13973 0
M  V30 2676 C 263.808 0.844433 -4.20913 0
M  V30 2677 C 263.041 1.88004 -4.9949 0
M  V30 2678 O 263.264 3.10199 -4.78678 0
M  V30 2679 O 262.198 1.47157 -5.83634 0
M  V30 2680 H 266.024 -0.269964 -3.02498 0
M  V30 2681 H 263.609 -0.19813 -1.4808 0
M  V30 2682 H 265.491 2.10113 -3.65281 0
M  V30 2683 H 264.166 2.10751 -2.45695 0
M  V30 2684 H 263.073 0.175729 -3.73687 0
M  V30 2685 H 264.406 0.250869 -4.9156 0
M  V30 2686 N 266.058 1.56714 -0.166846 0
M  V30 2687 C 267.335 1.88412 0.525373 0
M  V30 2688 C 267.715 1.07602 1.81618 0
M  V30 2689 O 267.063 0.168621 2.27877 0
M  V30 2690 C 267.273 3.40363 0.771613 0
M  V30 2691 C 268.621 4.10007 1.1036 0
M  V30 2692 O 269.645 3.45655 0.860304 0
M  V30 2693 O 268.504 5.2369 1.56239 0
M  V30 2694 H 265.598 0.781587 0.270278 0
M  V30 2695 H 268.144 1.68458 -0.204946 0
M  V30 2696 H 266.916 3.91046 -0.141093 0
M  V30 2697 H 266.539 3.65914 1.55541 0
M  V30 2698 N 267.536 -0.106894 1.57237 0
M  V30 2699 C 268.782 -0.808678 1.86633 0
M  V30 2700 C 269.137 -1.76917 0.756178 0
M  V30 2701 O 268.43 -1.90055 -0.242834 0
M  V30 2702 C 268.624 -1.58628 3.20268 0
M  V30 2703 C 268.453 -0.702592 4.44178 0
M  V30 2704 C 267.223 -0.352808 5.04067 0
M  V30 2705 C 269.421 -0.0148031 5.14298 0
M  V30 2706 N 267.403 0.540279 6.11518 0
M  V30 2707 C 268.774 0.736809 6.15606 0
M  V30 2708 C 270.829 0.0603524 4.97863 0
M  V30 2709 C 269.532 1.55654 7.02257 0
M  V30 2710 C 271.558 0.866942 5.85011 0
M  V30 2711 C 270.92 1.60671 6.85831 0
M  V30 2712 H 267.019 -0.27246 0.733001 0
M  V30 2713 H 269.603 -0.0717858 1.94568 0
M  V30 2714 H 267.774 -2.29413 3.13408 0
M  V30 2715 H 269.506 -2.23434 3.3743 0
M  V30 2716 H 266.261 -0.697802 4.68431 0
M  V30 2717 H 266.685 0.979029 6.69884 0
M  V30 2718 H 271.327 -0.497236 4.19866 0
M  V30 2719 H 269.045 2.12524 7.79653 0
M  V30 2720 H 272.631 0.927612 5.74358 0
M  V30 2721 H 271.511 2.2208 7.52097 0
M  V30 2722 N 269.014 -1.53014 -0.377408 0
M  V30 2723 C 270.244 -1.72265 -1.14054 0
M  V30 2724 C 270.652 -0.44601 -1.83868 0
M  V30 2725 O 269.995 0.590095 -1.73964 0
M  V30 2726 C 270.057 -2.82492 -2.22348 0
M  V30 2727 C 269.721 -4.23233 -1.72402 0
M  V30 2728 C 270.718 -5.05992 -1.19448 0
M  V30 2729 C 268.403 -4.696 -1.78273 0
M  V30 2730 C 270.397 -6.33203 -0.730268 0
M  V30 2731 C 268.084 -5.96792 -1.31464 0
M  V30 2732 C 269.082 -6.78424 -0.789297 0
M  V30 2733 O 268.77 -8.0323 -0.328077 0
M  V30 2734 H 268.502 -0.579873 -0.347453 0
M  V30 2735 H 271.056 -2.00502 -0.445882 0
M  V30 2736 H 269.286 -2.49702 -2.95272 0
M  V30 2737 H 270.975 -2.90034 -2.83963 0
M  V30 2738 H 271.741 -4.71349 -1.14259 0
M  V30 2739 H 267.62 -4.06142 -2.18106 0
M  V30 2740 H 271.164 -6.96868 -0.319542 0
M  V30 2741 H 267.061 -6.30937 -1.36342 0
M  V30 2742 H 267.829 -8.1727 -0.448493 0
M  V30 2743 N 270.492 0.636531 -1.44174 0
M  V30 2744 C 271.455 1.73063 -1.50273 0
M  V30 2745 C 272.455 1.56113 -0.385397 0
M  V30 2746 O 273.645 1.61707 -0.64781 0
M  V30 2747 C 270.777 3.12096 -1.37145 0
M  V30 2748 H 271.97 1.69031 -2.47727 0
M  V30 2749 H 269.523 0.849706 -1.31186 0
M  V30 2750 H 270.258 3.21728 -0.407636 0
M  V30 2751 H 270.043 3.25805 -2.18159 0
M  V30 2752 H 271.533 3.91846 -1.44382 0
M  V30 2753 N 271.97 1.30982 0.876444 0
M  V30 2754 C 273.195 1.23373 1.66715 0
M  V30 2755 C 273.62 -0.19885 1.87046 0
M  V30 2756 O 272.978 -1.1427 1.40756 0
M  V30 2757 C 273.026 1.97644 3.01611 0
M  V30 2758 O 272.13 1.30935 3.91062 0
M  V30 2759 H 271.471 0.426279 0.509099 0
M  V30 2760 H 274.001 1.72944 1.09323 0
M  V30 2761 H 274.011 2.06992 3.51594 0
M  V30 2762 H 272.686 3.01829 2.86133 0
M  V30 2763 H 271.263 1.29996 3.49507 0
M  V30 2764 N 273.449 -1.08991 1.13837 0
M  V30 2765 C 274.412 -2.13925 0.822715 0
M  V30 2766 C 275.412 -1.599 -0.1699 0
M  V30 2767 O 276.602 -1.74104 0.0577251 0
M  V30 2768 C 273.734 -3.40155 0.225318 0
M  V30 2769 H 274.927 -2.43358 1.75262 0
M  V30 2770 H 272.48 -1.24603 0.943594 0
M  V30 2771 H 273.215 -3.16352 -0.713594 0
M  V30 2772 H 273 -3.80661 0.940193 0
M  V30 2773 H 274.49 -4.17594 0.0214784 0
M  V30 2774 N 274.927 -0.932562 -1.27047 0
M  V30 2775 C 275.875 -0.42603 -2.28665 0
M  V30 2776 C 276.869 0.49219 -1.62092 0
M  V30 2777 O 278.075 0.371355 -1.76128 0
M  V30 2778 H 274.45 -0.119213 -0.742491 0
M  V30 2779 H 276.421 -1.29579 -2.68797 0
M  V30 2780 C 275.17 0.301426 -3.46391 0
M  V30 2781 H 274.493 -0.39595 -3.97834 0
M  V30 2782 H 275.933 0.6202 -4.1944 0
M  V30 2783 C 274.392 1.51616 -3.00856 0
M  V30 2784 O 274.922 2.61476 -3.04948 0
M  V30 2785 N 273.128 1.36969 -2.56296 0
M  V30 2786 H 272.675 0.475873 -2.53166 0
M  V30 2787 H 272.633 2.18368 -2.26192 0
M  V30 2788 N 276.405 1.4127 -0.698611 0
M  V30 2789 C 277.63 2.06024 -0.238512 0
M  V30 2790 C 278.055 1.5224 1.10475 0
M  V30 2791 O 277.413 0.650623 1.69223 0
M  V30 2792 C 277.461 3.59988 -0.209952 0
M  V30 2793 O 276.565 4.04282 0.814235 0
M  V30 2794 H 275.906 0.653829 -0.115775 0
M  V30 2795 H 278.436 1.8098 -0.954326 0
M  V30 2796 H 278.446 4.07979 -0.0418436 0
M  V30 2797 H 277.121 3.98503 -1.1903 0
M  V30 2798 H 275.698 3.6779 0.615234 0
M  V30 2799 N 277.883 0.443576 1.51229 0
M  V30 2800 C 279.113 -0.119117 2.06256 0
M  V30 2801 C 279.521 -1.36471 1.31043 0
M  V30 2802 O 278.864 -1.80034 0.365151 0
M  V30 2803 C 278.926 -0.500546 3.55998 0
M  V30 2804 C 278.59 0.639125 4.52509 0
M  V30 2805 C 279.587 1.51311 4.97394 0
M  V30 2806 C 277.272 0.821632 4.95535 0
M  V30 2807 C 279.266 2.55425 5.83984 0
M  V30 2808 C 276.953 1.86603 5.81913 0
M  V30 2809 C 277.951 2.73072 6.26036 0
M  V30 2810 O 277.639 3.75718 7.10698 0
M  V30 2811 H 277.371 -0.00857665 0.675946 0
M  V30 2812 H 279.925 0.623288 1.95715 0
M  V30 2813 H 278.155 -1.29575 3.64345 0
M  V30 2814 H 279.844 -0.995116 3.93513 0
M  V30 2815 H 280.61 1.38367 4.64844 0
M  V30 2816 H 276.489 0.158149 4.60729 0
M  V30 2817 H 280.033 3.22949 6.18344 0
M  V30 2818 H 275.93 1.99564 6.13876 0
M  V30 2819 H 276.698 3.72374 7.2889 0
M  V30 2820 N 279.361 -1.56624 0.175154 0
M  V30 2821 C 280.293 -2.15333 -0.785128 0
M  V30 2822 C 281.306 -1.1099 -1.19101 0
M  V30 2823 O 282.495 -1.38162 -1.13019 0
M  V30 2824 C 279.595 -2.68427 -2.06882 0
M  V30 2825 C 278.768 -3.97466 -1.8259 0
M  V30 2826 C 277.827 -4.35585 -2.95215 0
M  V30 2827 O 276.853 -5.03389 -2.65684 0
M  V30 2828 N 278.055 -3.97457 -4.23094 0
M  V30 2829 H 280.82 -2.98359 -0.283187 0
M  V30 2830 H 278.381 -1.61898 -0.00749817 0
M  V30 2831 H 280.373 -2.90924 -2.81328 0
M  V30 2832 H 278.943 -1.89968 -2.48256 0
M  V30 2833 H 278.163 -3.83307 -0.920287 0
M  V30 2834 H 279.451 -4.81736 -1.63733 0
M  V30 2835 H 278.849 -3.42878 -4.49945 0
M  V30 2836 H 277.406 -4.24947 -4.9423 0
M  V30 2837 N 280.839 0.0985539 -1.57292 0
M  V30 2838 C 282.067 0.816318 -1.90115 0
M  V30 2839 C 282.482 1.72451 -0.768509 0
M  V30 2840 O 281.839 1.80643 0.259687 0
M  V30 2841 C 281.89 1.63259 -3.22535 0
M  V30 2842 O 281.611 0.760934 -4.31441 0
M  V30 2843 C 283.112 2.45372 -3.69199 0
M  V30 2844 H 280.332 0.233595 -0.629027 0
M  V30 2845 H 282.876 0.0768229 -2.04356 0
M  V30 2846 H 281.031 2.32463 -3.09903 0
M  V30 2847 H 281.445 1.32595 -5.07463 0
M  V30 2848 H 282.919 2.98144 -4.64558 0
M  V30 2849 H 283.396 3.23677 -2.96867 0
M  V30 2850 H 284.002 1.81373 -3.84687 0
M  V30 2851 N 282.317 1.53212 0.369288 0
M  V30 2852 C 283.728 1.60943 0.946276 0
M  V30 2853 C 284.079 0.47452 1.90375 0
M  V30 2854 O 283.204 -0.399597 2.12679 0
M  V30 2855 C 283.799 2.91715 1.72302 0
M  V30 2856 C 282.358 3.01792 2.24941 0
M  V30 2857 C 281.505 2.56211 1.06072 0
M  V30 2858 H 284.456 1.58007 0.148198 0
M  V30 2859 H 284.477 2.79309 2.58393 0
M  V30 2860 H 283.989 3.74295 1.0259 0
M  V30 2861 H 282.09 2.23791 2.97906 0
M  V30 2862 H 282.203 4.06803 2.53077 0
M  V30 2863 H 280.567 2.10998 1.4266 0
M  V30 2864 H 281.35 3.41206 0.378639 0
M  V30 2865 N 283.795 -0.628877 1.44509 0
M  V30 2866 C 284.725 -1.75187 1.54376 0
M  V30 2867 C 285.706 -1.65411 0.396618 0
M  V30 2868 O 286.891 -1.84137 0.617031 0
M  V30 2869 C 284.021 -3.13725 1.48976 0
M  V30 2870 C 282.975 -3.38291 2.62189 0
M  V30 2871 C 282.301 -4.76883 2.41841 0
M  V30 2872 C 283.601 -3.30632 4.04326 0
M  V30 2873 H 285.295 -1.67187 2.48373 0
M  V30 2874 H 282.841 -0.802909 1.19538 0
M  V30 2875 H 284.794 -3.92064 1.54478 0
M  V30 2876 H 283.518 -3.22515 0.514961 0
M  V30 2877 H 282.177 -2.62334 2.56079 0
M  V30 2878 H 281.825 -4.82378 1.42548 0
M  V30 2879 H 281.525 -4.94278 3.17747 0
M  V30 2880 H 283.049 -5.57449 2.49165 0
M  V30 2881 H 284.463 -3.98873 4.11793 0
M  V30 2882 H 282.86 -3.59561 4.80454 0
M  V30 2883 H 283.93 -2.28404 4.27738 0
M  V30 2884 N 285.273 -1.31445 -0.869486 0
M  V30 2885 C 286.203 -1.21727 -1.99261 0
M  V30 2886 C 287.184 -0.104359 -1.6978 0
M  V30 2887 O 288.369 -0.289038 -1.92037 0
M  V30 2888 C 285.499 -0.924317 -3.34774 0
M  V30 2889 C 284.453 -1.99685 -3.78563 0
M  V30 2890 C 283.779 -1.55658 -5.11541 0
M  V30 2891 C 285.079 -3.41003 -3.95619 0
M  V30 2892 H 286.773 -2.1569 -2.07649 0
M  V30 2893 H 284.319 -1.03839 -0.997675 0
M  V30 2894 H 286.272 -0.842934 -4.12883 0
M  V30 2895 H 284.996 0.0509793 -3.2656 0
M  V30 2896 H 283.655 -2.06813 -3.02694 0
M  V30 2897 H 283.303 -0.569132 -4.9977 0
M  V30 2898 H 283.003 -2.27409 -5.41811 0
M  V30 2899 H 284.527 -1.48928 -5.92159 0
M  V30 2900 H 285.941 -3.36547 -4.64122 0
M  V30 2901 H 284.338 -4.10975 -4.37286 0
M  V30 2902 H 285.408 -3.81754 -2.98985 0
M  V30 2903 N 286.751 1.08385 -1.14413 0
M  V30 2904 C 288.162 1.62258 -0.923535 0
M  V30 2905 C 288.513 1.88691 0.537595 0
M  V30 2906 O 287.638 1.64454 1.40655 0
M  V30 2907 C 288.233 2.94781 -1.67002 0
M  V30 2908 C 286.792 3.45437 -1.495 0
M  V30 2909 C 285.939 2.19668 -1.69238 0
M  V30 2910 H 288.89 0.916086 -1.2959 0
M  V30 2911 H 288.911 3.63229 -1.13334 0
M  V30 2912 H 288.423 2.7551 -2.73342 0
M  V30 2913 H 286.524 3.6981 -0.455097 0
M  V30 2914 H 286.637 4.22173 -2.2651 0
M  V30 2915 H 285.001 2.28849 -1.11804 0
M  V30 2916 H 285.784 2.02905 -2.7692 0
M  V30 2917 N 288.23 0.939286 1.26551 0
M  V30 2918 C 289.14 0.453432 2.30176 0
M  V30 2919 C 290.156 -0.471649 1.67486 0
M  V30 2920 O 291.332 -0.35164 1.98306 0
M  V30 2921 C 288.397 -0.275326 3.45605 0
M  V30 2922 C 287.458 0.686084 4.23782 0
M  V30 2923 C 286.691 -0.00798994 5.33699 0
M  V30 2924 O 286.914 -1.22528 5.57085 0
M  V30 2925 O 285.848 0.669746 5.98162 0
M  V30 2926 H 289.674 1.31416 2.73795 0
M  V30 2927 H 287.259 0.705095 1.31715 0
M  V30 2928 H 289.141 -0.685911 4.1578 0
M  V30 2929 H 287.816 -1.11147 3.0402 0
M  V30 2930 H 286.723 1.14658 3.56096 0
M  V30 2931 H 288.056 1.48979 4.69112 0
M  V30 2932 N 289.708 -1.40897 0.706093 0
M  V30 2933 C 291.119 -1.84023 0.315052 0
M  V30 2934 C 291.47 -1.5906 -1.14866 0
M  V30 2935 O 290.595 -1.06651 -1.88293 0
M  V30 2936 C 291.19 -3.34055 0.565038 0
M  V30 2937 C 289.749 -3.7571 0.227806 0
M  V30 2938 C 288.896 -2.64204 0.842122 0
M  V30 2939 H 291.847 -1.303 0.905963 0
M  V30 2940 H 291.868 -3.80107 -0.172843 0
M  V30 2941 H 291.38 -3.52192 1.63042 0
M  V30 2942 H 289.481 -3.63172 -0.832895 0
M  V30 2943 H 289.594 -4.74103 0.690174 0
M  V30 2944 H 287.958 -2.53255 0.270893 0
M  V30 2945 H 288.741 -2.85155 1.91158 0
M  V30 2946 N 291.186 -0.45159 -1.50991 0
M  V30 2947 C 292.463 0.170707 -1.94854 0
M  V30 2948 C 292.843 1.58788 -1.39103 0
M  V30 2949 O 292.191 2.20913 -0.583921 0
M  V30 2950 C 292.401 0.133929 -3.48743 0
M  V30 2951 C 293.749 0.33248 -4.23296 0
M  V30 2952 O 294.773 0.211403 -3.55572 0
M  V30 2953 O 293.632 0.57486 -5.43468 0
M  V30 2954 H 290.726 0.122264 -0.817912 0
M  V30 2955 H 293.272 -0.510594 -1.61836 0
M  V30 2956 H 292.044 -0.856283 -3.81816 0
M  V30 2957 H 291.667 0.857529 -3.88242 0
M  V30 2958 N 292.664 1.56529 -0.183458 0
M  V30 2959 C 293.91 1.97537 0.459036 0
M  V30 2960 C 294.243 1.06989 1.62071 0
M  V30 2961 O 293.518 0.11948 1.94133 0
M  V30 2962 C 293.801 3.47874 0.930368 0
M  V30 2963 C 293.654 4.492 -0.232317 0
M  V30 2964 C 294.973 4.01612 1.79989 0
M  V30 2965 H 292.092 0.718204 0.165383 0
M  V30 2966 H 294.734 1.88042 -0.272038 0
M  V30 2967 H 292.884 3.56095 1.55333 0
M  V30 2968 H 294.556 4.53027 -0.86972 0
M  V30 2969 H 292.799 4.24657 -0.885928 0
M  V30 2970 H 293.47 5.51823 0.139796 0
M  V30 2971 H 295.946 3.96097 1.27461 0
M  V30 2972 H 294.822 5.07195 2.09867 0
M  V30 2973 H 295.083 3.46163 2.74998 0
M  V30 2974 N 294.142 -0.090211 1.57342 0
M  V30 2975 C 295.074 -1.13541 1.99101 0
M  V30 2976 C 296.087 -1.3604 0.894258 0
M  V30 2977 O 297.276 -1.34606 1.17233 0
M  V30 2978 C 294.376 -2.49001 2.29895 0
M  V30 2979 C 293.549 -2.46712 3.61182 0
M  V30 2980 C 292.608 -3.64136 3.79857 0
M  V30 2981 O 291.634 -3.46405 4.51655 0
M  V30 2982 N 292.836 -4.83802 3.20806 0
M  V30 2983 H 295.601 -0.779942 2.89373 0
M  V30 2984 H 293.162 -0.279125 1.59476 0
M  V30 2985 H 295.154 -3.26166 2.39578 0
M  V30 2986 H 293.724 -2.76619 1.45605 0
M  V30 2987 H 292.944 -1.55058 3.62423 0
M  V30 2988 H 294.232 -2.42265 4.4742 0
M  V30 2989 H 293.63 -5.01112 2.62494 0
M  V30 2990 H 292.187 -5.58543 3.35966 0
M  V30 2991 N 295.62 -1.53406 -0.361157 0
M  V30 2992 C 296.583 -1.79479 -1.42548 0
M  V30 2993 C 297.583 -0.665327 -1.4639 0
M  V30 2994 O 298.773 -0.933549 -1.47073 0
M  V30 2995 C 295.905 -1.92087 -2.8163 0
M  V30 2996 H 297.098 -2.74538 -1.20701 0
M  V30 2997 H 294.651 -1.4455 -0.594546 0
M  V30 2998 H 295.386 -0.991099 -3.08784 0
M  V30 2999 H 295.171 -2.74241 -2.80239 0
M  V30 3000 H 296.661 -2.13836 -3.58697 0
M  V30 3001 N 297.098 0.621204 -1.44841 0
M  V30 3002 C 298.344 1.3826 -1.48365 0
M  V30 3003 C 298.677 1.93831 -0.119624 0
M  V30 3004 O 297.952 1.74251 0.864111 0
M  V30 3005 C 298.235 2.54058 -2.55199 0
M  V30 3006 C 298.088 2.03772 -4.00995 0
M  V30 3007 C 299.407 3.56225 -2.58442 0
M  V30 3008 H 296.526 0.501374 -0.540179 0
M  V30 3009 H 299.168 0.7015 -1.76576 0
M  V30 3010 H 297.318 3.12162 -2.31274 0
M  V30 3011 H 298.99 1.50423 -4.36086 0
M  V30 3012 H 297.233 1.34876 -4.12299 0
M  V30 3013 H 297.904 2.87185 -4.71411 0
M  V30 3014 H 300.38 3.07939 -2.79844 0
M  V30 3015 H 299.256 4.34756 -3.3508 0
M  V30 3016 H 299.517 4.10949 -1.63013 0
M  V30 3017 N 298.576 1.31904 0.862503 0
M  V30 3018 C 299.804 1.24998 1.64873 0
M  V30 3019 C 300.219 -0.183425 1.87907 0
M  V30 3020 O 299.576 -1.11794 1.44251 0
M  V30 3021 C 299.627 1.99829 3.01248 0
M  V30 3022 O 299.348 3.37575 2.79239 0
M  V30 3023 C 300.849 1.99852 3.95694 0
M  V30 3024 H 298.069 0.431599 0.513773 0
M  V30 3025 H 300.613 1.73901 1.07604 0
M  V30 3026 H 298.768 1.54668 3.55185 0
M  V30 3027 H 299.182 3.75776 3.65914 0
M  V30 3028 H 300.656 2.56709 4.88676 0
M  V30 3029 H 301.133 0.982852 4.28062 0
M  V30 3030 H 301.739 2.44926 3.47694 0
M  V30 3031 N 300.054 -1.07777 1.14986 0
M  V30 3032 C 301.47 -1.32373 0.891596 0
M  V30 3033 C 301.67 -1.9609 -0.463788 0
M  V30 3034 O 300.726 -2.21801 -1.20667 0
M  V30 3035 C 302.039 -2.21905 2.02925 0
M  V30 3036 C 303.587 -2.35367 2.06329 0
M  V30 3037 C 304.062 -3.28245 3.19405 0
M  V30 3038 N 305.553 -3.35824 3.19024 0
M  V30 3039 C 306.288 -4.07739 4.03158 0
M  V30 3040 N 305.784 -4.82306 4.97346 0
M  V30 3041 N 307.577 -4.03635 3.91197 0
M  V30 3042 H 299.728 -0.648039 2.02273 0
M  V30 3043 H 301.991 -0.348149 0.881757 0
M  V30 3044 H 301.697 -1.82342 3.0074 0
M  V30 3045 H 301.571 -3.22407 1.95789 0
M  V30 3046 H 303.958 -2.74186 1.09116 0
M  V30 3047 H 304.039 -1.34585 2.17533 0
M  V30 3048 H 303.683 -2.90146 4.16867 0
M  V30 3049 H 303.613 -4.28971 3.05437 0
M  V30 3050 H 306.104 -2.8267 2.50811 0
M  V30 3051 H 306.417 -5.34661 5.57994 0
M  V30 3052 H 304.762 -4.81337 5.01338 0
M  V30 3053 H 307.953 -3.44491 3.16928 0
M  V30 3054 H 308.126 -4.59417 4.5699 0
M  V30 3055 N 301.532 -0.945985 -1.26051 0
M  V30 3056 C 302.462 -0.477172 -2.28572 0
M  V30 3057 C 303.443 0.472032 -1.63419 0
M  V30 3058 O 304.628 0.372853 -1.90587 0
M  V30 3059 C 301.758 0.253975 -3.4637 0
M  V30 3060 C 300.712 -0.609135 -4.23643 0
M  V30 3061 C 300.038 0.252252 -5.34105 0
M  V30 3062 C 301.338 -1.8829 -4.8718 0
M  V30 3063 H 303.032 -1.33402 -2.68038 0
M  V30 3064 H 300.578 -0.642904 -1.28852 0
M  V30 3065 H 302.531 0.593016 -4.17207 0
M  V30 3066 H 301.255 1.145 -3.05871 0
M  V30 3067 H 299.914 -0.931138 -3.54578 0
M  V30 3068 H 299.562 1.14278 -4.89846 0
M  V30 3069 H 299.262 -0.32188 -5.86718 0
M  V30 3070 H 300.786 0.586454 -6.07777 0
M  V30 3071 H 302.2 -1.61081 -5.50205 0
M  V30 3072 H 300.597 -2.40199 -5.49931 0
M  V30 3073 H 301.667 -2.59134 -4.09851 0
M  V30 3074 N 303.011 1.40521 -0.713556 0
M  V30 3075 C 304.239 2.05237 -0.261775 0
M  V30 3076 C 304.654 1.53755 1.09567 0
M  V30 3077 O 304.011 0.693268 1.6882 0
M  V30 3078 C 304.062 3.60763 -0.230706 0
M  V30 3079 O 303.783 4.10345 -1.53455 0
M  V30 3080 C 305.284 4.42651 0.239874 0
M  V30 3081 H 302.504 0.660533 -0.118057 0
M  V30 3082 H 305.048 1.79967 -0.971192 0
M  V30 3083 H 303.203 3.8501 0.429661 0
M  V30 3084 H 303.617 5.04526 -1.43366 0
M  V30 3085 H 305.091 5.51599 0.210468 0
M  V30 3086 H 305.568 4.20082 1.28171 0
M  V30 3087 H 306.174 4.23507 -0.390142 0
M  V30 3088 N 304.489 0.459591 1.5075 0
M  V30 3089 C 305.421 -0.37665 2.26084 0
M  V30 3090 C 306.434 -0.967109 1.30961 0
M  V30 3091 O 307.623 -0.857468 1.56556 0
M  V30 3092 C 304.723 -1.54112 3.01832 0
M  V30 3093 C 303.896 -1.06553 4.24223 0
M  V30 3094 C 302.955 -2.1027 4.82362 0
M  V30 3095 O 301.981 -1.68798 5.43595 0
M  V30 3096 N 303.183 -3.42974 4.68347 0
M  V30 3097 H 305.948 0.269124 2.98489 0
M  V30 3098 H 303.509 0.28972 1.59287 0
M  V30 3099 H 305.501 -2.23165 3.37608 0
M  V30 3100 H 304.071 -2.0918 2.32298 0
M  V30 3101 H 303.291 -0.201274 3.93686 0
M  V30 3102 H 304.579 -0.725516 5.03601 0
M  V30 3103 H 303.977 -3.79385 4.19623 0
M  V30 3104 H 302.534 -4.07858 5.08424 0
M  V30 3105 N 305.967 -1.56429 0.191757 0
M  V30 3106 C 307.195 -2.01867 -0.453586 0
M  V30 3107 C 307.61 -1.07191 -1.5542 0
M  V30 3108 O 306.967 -0.0762108 -1.82341 0
M  V30 3109 C 307.018 -3.47017 -1.013 0
M  V30 3110 O 306.739 -4.38078 0.0437005 0
M  V30 3111 C 308.24 -4.07956 -1.73456 0
M  V30 3112 H 305.46 -0.661211 -0.114199 0
M  V30 3113 H 308.004 -2.02295 0.299483 0
M  V30 3114 H 306.159 -3.47298 -1.71647 0
M  V30 3115 H 306.573 -5.23178 -0.372212 0
M  V30 3116 H 308.047 -5.1138 -2.07833 0
M  V30 3117 H 308.524 -3.51222 -2.63704 0
M  V30 3118 H 309.13 -4.11437 -1.07702 0
M  V30 3119 N 307.445 0.0818655 -1.57387 0
M  V30 3120 C 308.375 1.09885 -2.06028 0
M  V30 3121 C 309.356 1.4098 -0.951774 0
M  V30 3122 O 310.541 1.50781 -1.22387 0
M  V30 3123 C 307.671 2.4151 -2.4958 0
M  V30 3124 C 306.625 2.24792 -3.64215 0
M  V30 3125 C 305.951 3.61712 -3.93787 0
M  V30 3126 C 307.251 1.67749 -4.94629 0
M  V30 3127 H 308.945 0.694128 -2.91243 0
M  V30 3128 H 306.491 0.332448 -1.4011 0
M  V30 3129 H 308.444 3.12939 -2.82219 0
M  V30 3130 H 307.168 2.83943 -1.61381 0
M  V30 3131 H 305.827 1.55807 -3.31843 0
M  V30 3132 H 305.475 4.01697 -3.02735 0
M  V30 3133 H 305.175 3.51368 -4.70971 0
M  V30 3134 H 306.699 4.34587 -4.28913 0
M  V30 3135 H 308.113 2.29032 -5.25564 0
M  V30 3136 H 306.51 1.68128 -5.76067 0
M  V30 3137 H 307.58 0.638059 -4.80684 0
M  V30 3138 N 308.923 1.53595 0.353017 0
M  V30 3139 C 309.853 1.83902 1.43883 0
M  V30 3140 C 310.834 0.693421 1.55324 0
M  V30 3141 O 312.019 0.944452 1.69687 0
M  V30 3142 C 309.149 2.04016 2.8106 0
M  V30 3143 C 308.103 3.19814 2.84434 0
M  V30 3144 C 307.429 3.25244 4.24406 0
M  V30 3145 C 308.729 4.58133 2.50822 0
M  V30 3146 H 310.423 2.74835 1.1877 0
M  V30 3147 H 307.969 1.32242 0.569917 0
M  V30 3148 H 309.922 2.238 3.57059 0
M  V30 3149 H 308.646 1.09804 3.07588 0
M  V30 3150 H 307.305 2.9987 2.10887 0
M  V30 3151 H 306.953 2.28646 4.48029 0
M  V30 3152 H 306.653 4.03054 4.27576 0
M  V30 3153 H 308.177 3.47228 5.0226 0
M  V30 3154 H 309.591 4.77995 3.16534 0
M  V30 3155 H 307.988 5.38276 2.6529 0
M  V30 3156 H 309.058 4.62387 1.46034 0
M  V30 3157 N 310.401 -0.613514 1.45168 0
M  V30 3158 C 311.364 -1.7065 1.53007 0
M  V30 3159 C 312.364 -1.5548 0.410184 0
M  V30 3160 O 313.554 -1.60656 0.673455 0
M  V30 3161 C 310.686 -3.09875 1.42093 0
M  V30 3162 H 311.879 -1.65068 2.50385 0
M  V30 3163 H 309.432 -0.828728 1.32521 0
M  V30 3164 H 310.167 -3.21039 0.458769 0
M  V30 3165 H 309.952 -3.22293 2.23315 0
M  V30 3166 H 311.442 -3.895 1.50598 0
M  V30 3167 N 311.879 -1.3236 -0.855495 0
M  V30 3168 C 312.842 -1.21164 -1.94556 0
M  V30 3169 C 313.842 -0.134908 -1.60233 0
M  V30 3170 O 315.032 -0.385249 -1.69887 0
M  V30 3171 C 312.164 -0.863192 -3.29791 0
M  V30 3172 H 313.357 -2.18038 -2.05911 0
M  V30 3173 H 310.91 -1.16179 -1.04557 0
M  V30 3174 H 311.645 0.103769 -3.24134 0
M  V30 3175 H 311.43 -1.64166 -3.56078 0
M  V30 3176 H 312.92 -0.809156 -4.09686 0
M  V30 3177 N 313.357 1.07166 -1.15556 0
M  V30 3178 C 314.267 2.17947 -0.868116 0
M  V30 3179 C 315.283 1.73297 0.156297 0
M  V30 3180 O 316.459 2.01392 -0.0182327 0
M  V30 3181 C 313.524 3.44789 -0.36355 0
M  V30 3182 C 312.585 4.03996 -1.45209 0
M  V30 3183 C 311.818 5.24783 -0.971508 0
M  V30 3184 O 312.041 5.70109 0.182194 0
M  V30 3185 O 310.975 5.75715 -1.75603 0
M  V30 3186 H 314.801 2.4503 -1.79427 0
M  V30 3187 H 312.386 1.16539 -0.934824 0
M  V30 3188 H 314.268 4.21307 -0.0887113 0
M  V30 3189 H 312.943 3.19253 0.534708 0
M  V30 3190 H 311.85 3.29009 -1.78056 0
M  V30 3191 H 313.183 4.33808 -2.32533 0
M  V30 3192 N 314.835 0.952656 1.25548 0
M  V30 3193 C 316.251 0.656769 1.4546 0
M  V30 3194 C 316.451 -0.78633 1.85524 0
M  V30 3195 O 315.507 -1.56183 1.98402 0
M  V30 3196 C 316.82 1.62801 2.52817 0
M  V30 3197 C 318.368 1.63897 2.66659 0
M  V30 3198 C 318.843 2.5978 3.77198 0
M  V30 3199 N 320.334 2.58133 3.84606 0
M  V30 3200 C 321.069 3.29003 4.69621 0
M  V30 3201 N 320.565 4.09339 5.58939 0
M  V30 3202 N 322.358 3.179 4.63569 0
M  V30 3203 H 314.509 1.88526 0.978344 0
M  V30 3204 H 316.772 0.810815 0.491206 0
M  V30 3205 H 316.478 2.65869 2.30232 0
M  V30 3206 H 316.352 1.38898 3.50695 0
M  V30 3207 H 318.739 0.615481 2.8861 0
M  V30 3208 H 318.82 1.91858 1.69187 0
M  V30 3209 H 318.464 3.62254 3.55997 0
M  V30 3210 H 318.394 2.29105 4.7415 0
M  V30 3211 H 320.885 1.99809 3.20757 0
M  V30 3212 H 321.198 4.6034 6.20731 0
M  V30 3213 H 319.543 4.13438 5.58654 0
M  V30 3214 H 322.734 2.54612 3.92798 0
M  V30 3215 H 322.907 3.73398 5.29602 0
M  V30 3216 N 316.313 -1.40141 0.720998 0
M  V30 3217 C 317.724 -1.83678 0.334553 0
M  V30 3218 C 318.075 -1.6027 -1.13173 0
M  V30 3219 O 317.2 -1.08643 -1.87152 0
M  V30 3220 C 317.795 -3.33437 0.600437 0
M  V30 3221 C 316.354 -3.75447 0.267642 0
M  V30 3222 C 315.501 -2.63296 0.870097 0
M  V30 3223 H 318.452 -1.29331 0.919732 0
M  V30 3224 H 318.473 -3.80269 -0.132517 0
M  V30 3225 H 317.985 -3.50442 1.66768 0
M  V30 3226 H 316.086 -3.64035 -0.794329 0
M  V30 3227 H 316.199 -4.73344 0.74042 0
M  V30 3228 H 314.563 -2.52954 0.297739 0
M  V30 3229 H 315.346 -2.83112 1.94172 0
M  V30 3230 N 317.792 -0.46758 -1.50504 0
M  V30 3231 C 318.722 0.318381 -2.31319 0
M  V30 3232 C 319.703 0.993564 -1.38066 0
M  V30 3233 O 320.888 0.991411 -1.66987 0
M  V30 3234 C 318.018 1.40275 -3.17711 0
M  V30 3235 C 316.972 0.849373 -4.19487 0
M  V30 3236 C 316.298 2.03177 -4.94594 0
M  V30 3237 C 317.598 -0.136942 -5.2212 0
M  V30 3238 H 319.292 -0.356106 -2.97275 0
M  V30 3239 H 316.838 -0.172703 -1.42961 0
M  V30 3240 H 318.791 1.96004 -3.73042 0
M  V30 3241 H 317.515 2.10596 -2.49634 0
M  V30 3242 H 316.174 0.314076 -3.65252 0
M  V30 3243 H 315.822 2.72187 -4.22993 0
M  V30 3244 H 315.522 1.66774 -5.63436 0
M  V30 3245 H 317.046 2.59403 -5.52759 0
M  V30 3246 H 318.46 0.331056 -5.72343 0
M  V30 3247 H 316.857 -0.41507 -5.98663 0
M  V30 3248 H 317.927 -1.06398 -4.73083 0
M  V30 3249 N 319.27 1.56325 -0.20005 0
M  V30 3250 C 320.519 1.96895 0.437652 0
M  V30 3251 C 320.832 1.08999 1.62415 0
M  V30 3252 O 322.038 1.39372 2.32997 0
M  V30 3253 C 320.494 3.50198 0.830025 0
M  V30 3254 C 320.102 4.46765 -0.332461 0
M  V30 3255 C 321.846 3.99526 1.43453 0
M  V30 3256 C 319.753 5.91344 0.0811468 0
M  V30 3257 H 318.683 0.735209 0.167282 0
M  V30 3258 H 321.334 1.81148 -0.292853 0
M  V30 3259 H 319.716 3.61467 1.61734 0
M  V30 3260 H 320.89 4.47231 -1.11 0
M  V30 3261 H 319.205 4.07657 -0.848789 0
M  V30 3262 H 321.802 5.05025 1.75652 0
M  V30 3263 H 322.145 3.44122 2.34277 0
M  V30 3264 H 322.678 3.91393 0.71109 0
M  V30 3265 H 319.417 6.50685 -0.793033 0
M  V30 3266 H 318.937 5.94121 0.823445 0
M  V30 3267 H 320.616 6.44945 0.515252 0
M  V30 3268 N 320.748 -0.0735177 1.57428 0
M  V30 3269 C 321.978 -0.78483 1.91112 0
M  V30 3270 C 322.386 -1.71729 0.7941 0
M  V30 3271 O 321.729 -1.82105 -0.241542 0
M  V30 3272 C 321.791 -1.63346 3.20247 0
M  V30 3273 C 321.455 -0.870557 4.48632 0
M  V30 3274 C 322.452 -0.19058 5.19551 0
M  V30 3275 C 320.137 -0.838242 4.95256 0
M  V30 3276 C 322.131 0.511503 6.35344 0
M  V30 3277 C 319.818 -0.132386 6.10957 0
M  V30 3278 C 320.816 0.541288 6.80852 0
M  V30 3279 O 320.504 1.23578 7.94345 0
M  V30 3280 H 320.236 -0.228408 0.636244 0
M  V30 3281 H 322.79 -0.0486039 2.05342 0
M  V30 3282 H 321.02 -2.41245 3.02222 0
M  V30 3283 H 322.709 -2.22329 3.39595 0
M  V30 3284 H 323.475 -0.206864 4.84559 0
M  V30 3285 H 319.354 -1.35206 4.40727 0
M  V30 3286 H 322.898 1.03789 6.89836 0
M  V30 3287 H 318.795 -0.114023 6.45399 0
M  V30 3288 H 319.563 1.14487 8.10454 0
M  V30 3289 N 322.226 -1.5378 -0.344866 0
M  V30 3290 C 323.456 -1.74646 -1.10374 0
M  V30 3291 C 323.864 -0.48491 -1.8288 0
M  V30 3292 O 323.207 0.553062 -1.75177 0
M  V30 3293 C 323.269 -2.87145 -2.16306 0
M  V30 3294 C 322.933 -4.26795 -1.63386 0
M  V30 3295 C 323.93 -5.08412 -1.08688 0
M  V30 3296 C 321.615 -4.73276 -1.68272 0
M  V30 3297 C 323.609 -6.34609 -0.595792 0
M  V30 3298 C 321.296 -5.99446 -1.18776 0
M  V30 3299 C 322.294 -6.79946 -0.645215 0
M  V30 3300 O 321.982 -8.03745 -0.157626 0
M  V30 3301 H 321.714 -0.587112 -0.335075 0
M  V30 3302 H 324.268 -2.01403 -0.403252 0
M  V30 3303 H 322.498 -2.55909 -2.89909 0
M  V30 3304 H 324.187 -2.95992 -2.77747 0
M  V30 3305 H 324.953 -4.73666 -1.04236 0
M  V30 3306 H 320.832 -4.10677 -2.09442 0
M  V30 3307 H 324.376 -6.97389 -0.171654 0
M  V30 3308 H 320.273 -6.33687 -1.22928 0
M  V30 3309 H 321.041 -8.18038 -0.275037 0
M  V30 3310 N 323.704 0.605807 -1.45491 0
M  V30 3311 C 324.952 1.36207 -1.49305 0
M  V30 3312 C 325.273 1.94519 -0.136863 0
M  V30 3313 O 324.543 1.77261 0.833983 0
M  V30 3314 H 323.123 0.50565 -0.549843 0
M  V30 3315 H 325.785 0.711239 -1.81459 0
M  V30 3316 H 324.881 2.18058 -2.23287 0
M  V30 3317 N 325.182 1.32811 0.848464 0
M  V30 3318 C 326.431 1.23075 1.59798 0
M  V30 3319 C 326.744 -0.204419 1.94529 0
M  V30 3320 O 327.95 -0.423701 2.68173 0
M  V30 3321 C 326.406 2.15594 2.88179 0
M  V30 3322 C 326.014 3.64228 2.60849 0
M  V30 3323 C 327.758 2.14709 3.66197 0
M  V30 3324 C 325.665 4.48689 3.85269 0
M  V30 3325 H 324.595 0.457091 0.599653 0
M  V30 3326 H 327.246 1.57813 0.936342 0
M  V30 3327 H 325.628 1.73778 3.55833 0
M  V30 3328 H 326.802 4.14424 2.01467 0
M  V30 3329 H 325.117 3.67306 1.96151 0
M  V30 3330 H 327.714 2.75046 4.58534 0
M  V30 3331 H 328.057 1.13966 4.00397 0
M  V30 3332 H 328.59 2.54837 3.05455 0
M  V30 3333 H 325.329 5.5027 3.56207 0
M  V30 3334 H 324.849 4.03241 4.44024 0
M  V30 3335 H 326.528 4.62006 4.52946 0
M  V30 3336 N 326.66 -1.06551 1.16123 0
M  V30 3337 C 327.908 -1.78947 0.939267 0
M  V30 3338 C 328.229 -1.87532 -0.534476 0
M  V30 3339 O 327.499 -1.38211 -1.38833 0
M  V30 3340 H 326.079 -0.662807 0.344523 0
M  V30 3341 H 328.741 -1.28725 1.46342 0
M  V30 3342 H 327.837 -2.81117 1.35572 0
M  V30 3343 N 328.138 -0.959301 -1.25041 0
M  V30 3344 C 329.101 -0.487677 -2.23952 0
M  V30 3345 C 330.101 0.41119 -1.55454 0
M  V30 3346 O 331.291 0.207825 -1.72956 0
M  V30 3347 C 328.423 0.294807 -3.39623 0
M  V30 3348 H 329.616 -1.36198 -2.67189 0
M  V30 3349 H 327.169 -0.743042 -1.37508 0
M  V30 3350 H 327.904 1.18658 -3.01813 0
M  V30 3351 H 327.689 -0.35012 -3.90534 0
M  V30 3352 H 329.179 0.614089 -4.1306 0
M  V30 3353 N 329.616 1.39756 -0.72842 0
M  V30 3354 C 331.032 1.5442 -0.403308 0
M  V30 3355 C 331.232 1.69694 1.08656 0
M  V30 3356 O 330.288 1.69373 1.87267 0
M  V30 3357 C 331.601 2.76555 -1.18058 0
M  V30 3358 C 333.149 2.90384 -1.16815 0
M  V30 3359 C 333.624 4.15449 -1.92785 0
M  V30 3360 N 335.115 4.22475 -1.89918 0
M  V30 3361 C 335.85 5.1818 -2.45514 0
M  V30 3362 N 335.346 6.19714 -3.09719 0
M  V30 3363 N 337.139 5.1035 -2.35584 0
M  V30 3364 H 329.29 1.28089 -1.69431 0
M  V30 3365 H 331.553 0.620327 -0.716867 0
M  V30 3366 H 331.259 2.7159 -2.23455 0
M  V30 3367 H 331.133 3.69033 -0.780662 0
M  V30 3368 H 333.52 2.94846 -0.12234 0
M  V30 3369 H 333.601 1.98988 -1.6074 0
M  V30 3370 H 333.245 4.11749 -2.97364 0
M  V30 3371 H 333.175 5.05877 -1.46272 0
M  V30 3372 H 335.666 3.49743 -1.43138 0
M  V30 3373 H 335.979 6.8919 -3.49625 0
M  V30 3374 H 334.324 6.20121 -3.13807 0
M  V30 3375 H 337.515 4.2996 -1.85072 0
M  V30 3376 H 337.688 5.84761 -2.79211 0
M  V30 3377 N 331.094 0.475555 1.50254 0
M  V30 3378 C 332.041 -0.316293 2.28622 0
M  V30 3379 C 333.011 -0.983227 1.33873 0
M  V30 3380 O 334.196 -0.994805 1.62814 0
M  V30 3381 C 331.336 -1.38975 3.1588 0
M  V30 3382 C 330.449 -0.737146 4.25664 0
M  V30 3383 C 329.584 -1.78887 5.00173 0
M  V30 3384 C 328.623 -1.11676 6.01826 0
M  V30 3385 N 327.76 -2.11154 6.69596 0
M  V30 3386 H 332.6 0.358297 2.95838 0
M  V30 3387 H 330.137 0.188541 1.45887 0
M  V30 3388 H 332.095 -2.02383 3.64825 0
M  V30 3389 H 330.725 -2.03344 2.50701 0
M  V30 3390 H 329.777 0.0096065 3.80399 0
M  V30 3391 H 331.089 -0.206816 4.98371 0
M  V30 3392 H 330.243 -2.49865 5.52859 0
M  V30 3393 H 328.982 -2.35302 4.27182 0
M  V30 3394 H 327.987 -0.392633 5.48396 0
M  V30 3395 H 329.212 -0.55945 6.76792 0
M  V30 3396 H 327.158 -2.66577 5.99394 0
M  V30 3397 H 327.075 -1.63118 7.38193 0
M  V30 3398 H 328.343 -2.81497 7.26897 0
M  V30 3399 N 332.573 -1.56217 0.208337 0
M  V30 3400 C 333.536 -2.18455 -0.693557 0
M  V30 3401 C 334.536 -1.14268 -1.13135 0
M  V30 3402 O 335.726 -1.39577 -1.0423 0
M  V30 3403 C 332.858 -2.79727 -1.94848 0
M  V30 3404 H 334.051 -2.99519 -0.15114 0
M  V30 3405 H 331.604 -1.56245 -0.041287 0
M  V30 3406 H 332.339 -2.02497 -2.53309 0
M  V30 3407 H 332.124 -3.56009 -1.64316 0
M  V30 3408 H 333.614 -3.27475 -2.59133 0
M  V30 3409 N 334.051 0.0651679 -1.57465 0
M  V30 3410 C 335.299 0.761555 -1.87202 0
M  V30 3411 C 335.62 1.77778 -0.801243 0
M  V30 3412 O 334.89 1.95166 0.16937 0
M  V30 3413 H 333.47 0.284251 -0.690804 0
M  V30 3414 H 336.132 0.0396827 -1.9486 0
M  V30 3415 H 335.228 1.27365 -2.84929 0
M  V30 3416 N 335.529 1.53961 0.336706 0
M  V30 3417 C 336.476 1.82428 1.41381 0
M  V30 3418 C 337.446 0.670444 1.51968 0
M  V30 3419 O 338.631 0.915565 1.67398 0
M  V30 3420 C 335.771 2.04564 2.77934 0
M  V30 3421 C 334.884 3.32267 2.76084 0
M  V30 3422 C 334.019 3.44434 4.04399 0
M  V30 3423 C 333.058 4.66061 3.96804 0
M  V30 3424 N 332.195 4.75224 5.16823 0
M  V30 3425 H 337.035 2.74324 1.16405 0
M  V30 3426 H 334.572 1.35869 0.563752 0
M  V30 3427 H 336.53 2.15388 3.57301 0
M  V30 3428 H 335.16 1.15974 3.01247 0
M  V30 3429 H 334.212 3.3025 1.88784 0
M  V30 3430 H 335.524 4.21733 2.66351 0
M  V30 3431 H 334.678 3.54728 4.92192 0
M  V30 3432 H 333.417 2.53037 4.16921 0
M  V30 3433 H 332.422 4.55838 3.07396 0
M  V30 3434 H 333.647 5.58829 3.85858 0
M  V30 3435 H 331.593 3.86739 5.29876 0
M  V30 3436 H 331.51 5.58636 5.09374 0
M  V30 3437 H 332.778 4.89835 6.06367 0
M  V30 3438 N 337.007 -0.598083 1.45811 0
M  V30 3439 C 337.917 -1.73632 1.57763 0
M  V30 3440 C 338.933 -1.67763 0.461676 0
M  V30 3441 O 340.109 -1.87949 0.723685 0
M  V30 3442 C 337.174 -3.10114 1.55018 0
M  V30 3443 C 336.235 -3.27364 2.77726 0
M  V30 3444 C 335.468 -4.57334 2.75102 0
M  V30 3445 O 335.691 -5.40258 1.8297 0
M  V30 3446 O 334.625 -4.77502 3.66437 0
M  V30 3447 H 338.451 -1.66498 2.53992 0
M  V30 3448 H 336.036 -0.763308 1.28429 0
M  V30 3449 H 337.918 -3.9141 1.56129 0
M  V30 3450 H 336.593 -3.17718 0.619431 0
M  V30 3451 H 335.5 -2.45619 2.82174 0
M  V30 3452 H 336.833 -3.24641 3.69958 0
M  V30 3453 N 338.485 -1.33259 -0.841409 0
M  V30 3454 C 339.415 -1.25926 -1.96634 0
M  V30 3455 C 340.396 -0.140349 -1.6952 0
M  V30 3456 O 341.581 -0.329707 -1.91381 0
M  V30 3457 C 338.711 -0.99512 -3.32738 0
M  V30 3458 C 337.665 -2.0767 -3.74242 0
M  V30 3459 C 336.991 -1.66474 -5.08125 0
M  V30 3460 C 338.291 -3.49318 -3.88297 0
M  V30 3461 H 339.985 -2.20046 -2.03027 0
M  V30 3462 H 337.531 -1.05931 -0.975425 0
M  V30 3463 H 339.484 -0.930323 -4.11002 0
M  V30 3464 H 338.208 -0.0183004 -3.26595 0
M  V30 3465 H 336.867 -2.13187 -2.98239 0
M  V30 3466 H 336.515 -0.675012 -4.9845 0
M  V30 3467 H 336.215 -2.3885 -5.36865 0
M  V30 3468 H 337.739 -1.61455 -5.88867 0
M  V30 3469 H 339.153 -3.46316 -4.56879 0
M  V30 3470 H 337.55 -4.20158 -4.28471 0
M  V30 3471 H 338.62 -3.8801 -2.9082 0
M  V30 3472 N 339.963 1.05934 -1.16686 0
M  V30 3473 C 340.873 2.17014 -0.891183 0
M  V30 3474 C 341.889 1.73453 0.137907 0
M  V30 3475 O 343.065 2.01361 -0.039592 0
M  V30 3476 C 340.13 3.44384 -0.400099 0
M  V30 3477 C 339.191 4.02433 -1.49486 0
M  V30 3478 C 338.424 5.23723 -1.02711 0
M  V30 3479 O 338.647 5.7027 0.121716 0
M  V30 3480 O 337.581 5.7382 -1.81699 0
M  V30 3481 H 341.407 2.43113 -1.82015 0
M  V30 3482 H 338.992 1.15541 -0.947132 0
M  V30 3483 H 340.874 4.21189 -0.133392 0
M  V30 3484 H 339.549 3.19802 0.500817 0
M  V30 3485 H 338.456 3.27102 -1.81535 0
M  V30 3486 H 339.789 4.31317 -2.37121 0
M  V30 3487 N 341.441 0.965919 1.2453 0
M  V30 3488 C 342.373 0.452465 2.2469 0
M  V30 3489 C 343.386 -0.437821 1.56802 0
M  V30 3490 O 344.575 -0.244283 1.76821 0
M  V30 3491 C 341.675 -0.366258 3.36915 0
M  V30 3492 C 340.848 0.513701 4.34373 0
M  V30 3493 C 339.907 -0.248716 5.25612 0
M  V30 3494 O 338.933 0.356745 5.68081 0
M  V30 3495 N 340.135 -1.53877 5.59734 0
M  V30 3496 H 342.9 1.31361 2.69378 0
M  V30 3497 H 340.461 0.837541 1.38553 0
M  V30 3498 H 342.453 -0.884297 3.94921 0
M  V30 3499 H 341.023 -1.12832 2.91526 0
M  V30 3500 H 340.243 1.21273 3.75082 0
M  V30 3501 H 341.531 1.11391 4.96457 0
M  V30 3502 H 340.929 -2.05243 5.27154 0
M  V30 3503 H 339.486 -2.00254 6.20275 0
M  V30 3504 N 342.919 -1.39368 0.735821 0
M  V30 3505 C 343.849 -2.33234 0.111506 0
M  V30 3506 C 344.83 -1.53954 -0.723334 0
M  V30 3507 O 346.015 -1.82344 -0.668147 0
M  V30 3508 C 343.145 -3.38057 -0.795917 0
M  V30 3509 C 342.099 -4.2795 -0.065172 0
M  V30 3510 C 341.425 -5.23479 -1.08967 0
M  V30 3511 C 342.725 -5.10741 1.09273 0
M  V30 3512 H 344.419 -2.85692 0.895571 0
M  V30 3513 H 341.965 -1.37364 0.432109 0
M  V30 3514 H 343.918 -4.02675 -1.24221 0
M  V30 3515 H 342.642 -2.8404 -1.61211 0
M  V30 3516 H 341.301 -3.64813 0.361511 0
M  V30 3517 H 340.949 -4.65758 -1.89944 0
M  V30 3518 H 340.649 -5.84472 -0.605489 0
M  V30 3519 H 342.173 -5.90974 -1.53565 0
M  V30 3520 H 343.587 -5.68699 0.724841 0
M  V30 3521 H 341.984 -5.8088 1.50659 0
M  V30 3522 H 343.054 -4.45525 1.91404 0
M  V30 3523 N 344.397 -0.483516 -1.5 0
M  V30 3524 C 345.622 0.0667119 -2.07293 0
M  V30 3525 C 346.047 1.3164 -1.3436 0
M  V30 3526 O 345.405 1.76945 -0.394987 0
M  V30 3527 C 345.453 0.321126 -3.59167 0
M  V30 3528 O 344.557 1.39927 -3.87936 0
M  V30 3529 H 343.898 -0.0184758 -0.663743 0
M  V30 3530 H 346.428 -0.678125 -1.93035 0
M  V30 3531 H 346.438 0.557906 -4.04168 0
M  V30 3532 H 345.113 -0.592007 -4.11665 0
M  V30 3533 H 343.69 1.14882 -3.54763 0
M  V30 3534 N 345.875 1.56104 -0.216619 0
M  V30 3535 C 346.822 2.2007 0.695531 0
M  V30 3536 C 347.792 1.15471 1.19397 0
M  V30 3537 O 348.977 1.43807 1.25396 0
M  V30 3538 C 346.117 2.88073 1.90021 0
M  V30 3539 C 345.23 4.07253 1.44113 0
M  V30 3540 C 344.365 4.63052 2.603 0
M  V30 3541 C 343.404 5.74545 2.11103 0
M  V30 3542 N 342.541 6.24656 3.20545 0
M  V30 3543 H 347.381 2.97655 0.143327 0
M  V30 3544 H 344.918 1.46982 0.0589934 0
M  V30 3545 H 346.876 3.25681 2.60745 0
M  V30 3546 H 345.506 2.13015 2.42538 0
M  V30 3547 H 344.558 3.75164 0.628999 0
M  V30 3548 H 345.87 4.8783 1.04036 0
M  V30 3549 H 345.024 5.03078 3.39113 0
M  V30 3550 H 343.763 3.81628 3.03663 0
M  V30 3551 H 342.768 5.34027 1.3075 0
M  V30 3552 H 343.993 6.57801 1.68746 0
M  V30 3553 H 341.939 5.46148 3.63399 0
M  V30 3554 H 341.856 7.00343 2.84704 0
M  V30 3555 H 343.124 6.69338 3.99508 0
M  V30 3556 N 347.353 -0.0568162 1.57498 0
M  V30 3557 C 348.581 -0.765626 1.92213 0
M  V30 3558 C 348.996 -1.70353 0.813961 0
M  V30 3559 O 348.353 -1.81268 -0.211701 0
M  V30 3560 C 348.404 -1.5465 3.2675 0
M  V30 3561 O 348.125 -0.646278 4.33307 0
M  V30 3562 C 349.626 -2.35497 3.75574 0
M  V30 3563 H 346.846 -0.216835 0.634999 0
M  V30 3564 H 349.39 -0.0226146 2.04487 0
M  V30 3565 H 347.545 -2.24165 3.15957 0
M  V30 3566 H 347.959 -1.19093 5.108 0
M  V30 3567 H 349.433 -2.85722 4.72299 0
M  V30 3568 H 349.91 -3.15692 3.05344 0
M  V30 3569 H 350.516 -1.7111 3.8936 0
M  V30 3570 N 348.832 -1.54138 -0.328536 0
M  V30 3571 C 349.762 -1.86167 -1.40939 0
M  V30 3572 C 350.743 -0.718044 -1.54202 0
M  V30 3573 O 351.928 -0.971328 -1.68163 0
M  V30 3574 C 349.058 -2.08461 -2.77779 0
M  V30 3575 C 348.012 -3.24299 -2.7931 0
M  V30 3576 C 347.338 -3.31955 -4.19178 0
M  V30 3577 C 348.638 -4.62065 -2.43502 0
M  V30 3578 H 350.332 -2.76689 -1.14383 0
M  V30 3579 H 347.878 -1.33132 -0.548806 0
M  V30 3580 H 349.831 -2.29453 -3.53454 0
M  V30 3581 H 348.555 -1.14684 -3.05802 0
M  V30 3582 H 347.214 -3.03187 -2.0609 0
M  V30 3583 H 346.862 -2.35745 -4.44335 0
M  V30 3584 H 346.562 -4.09805 -4.2111 0
M  V30 3585 H 348.086 -3.55175 -4.96672 0
M  V30 3586 H 349.5 -4.8297 -3.08889 0
M  V30 3587 H 347.897 -5.42429 -2.56693 0
M  V30 3588 H 348.967 -4.64652 -1.38659 0
M  V30 3589 N 350.31 0.590341 -1.46126 0
M  V30 3590 C 351.257 1.69994 -1.56111 0
M  V30 3591 C 352.227 1.61065 -0.405867 0
M  V30 3592 O 353.412 1.8039 -0.621613 0
M  V30 3593 C 350.552 3.08326 -1.55013 0
M  V30 3594 C 349.665 3.27936 -2.81215 0
M  V30 3595 C 348.8 4.56473 -2.71673 0
M  V30 3596 C 347.839 4.694 -3.92849 0
M  V30 3597 N 346.976 5.89254 -3.81738 0
M  V30 3598 H 351.816 1.60797 -2.50895 0
M  V30 3599 H 349.353 0.783799 -1.24479 0
M  V30 3600 H 351.311 3.88383 -1.52362 0
M  V30 3601 H 349.941 3.16439 -0.637667 0
M  V30 3602 H 348.993 2.41536 -2.93879 0
M  V30 3603 H 350.305 3.33357 -3.71045 0
M  V30 3604 H 349.459 5.44748 -2.67085 0
M  V30 3605 H 348.198 4.53477 -1.7947 0
M  V30 3606 H 347.203 3.79544 -3.97777 0
M  V30 3607 H 348.428 4.7418 -4.86138 0
M  V30 3608 H 346.374 5.87271 -2.92317 0
M  V30 3609 H 346.291 5.95911 -4.65217 0
M  V30 3610 H 347.559 6.79981 -3.81112 0
M  V30 3611 N 351.788 1.33704 0.83433 0
M  V30 3612 C 353.037 1.24763 1.58484 0
M  V30 3613 C 353.35 -0.183775 1.94735 0
M  V30 3614 O 354.556 -0.395234 2.68608 0
M  V30 3615 C 353.012 2.18638 2.85876 0
M  V30 3616 C 352.62 3.66974 2.56971 0
M  V30 3617 C 354.364 2.18581 3.63899 0
M  V30 3618 C 352.271 4.5275 3.80488 0
M  V30 3619 H 351.201 0.463425 0.594772 0
M  V30 3620 H 353.852 1.58797 0.919551 0
M  V30 3621 H 352.234 1.77542 3.5397 0
M  V30 3622 H 353.408 4.16538 1.9706 0
M  V30 3623 H 351.723 3.69366 1.92244 0
M  V30 3624 H 354.32 2.79894 4.55591 0
M  V30 3625 H 354.663 1.18207 3.99165 0
M  V30 3626 H 355.196 2.58062 3.02735 0
M  V30 3627 H 351.935 5.54017 3.5035 0
M  V30 3628 H 351.455 4.07927 4.39722 0
M  V30 3629 H 353.134 4.66784 4.4802 0
M  V30 3630 N 353.266 -1.05314 1.17247 0
M  V30 3631 C 354.677 -1.59753 0.96623 0
M  V30 3632 C 355.028 -1.9005 -0.487378 0
M  V30 3633 O 354.153 -1.68126 -1.36245 0
M  V30 3634 C 354.748 -2.90249 1.74759 0
M  V30 3635 C 353.307 -3.41352 1.58606 0
M  V30 3636 C 352.454 -2.15103 1.75002 0
M  V30 3637 H 355.405 -0.881406 1.31973 0
M  V30 3638 H 355.426 -3.60097 1.22925 0
M  V30 3639 H 354.938 -2.68166 2.8055 0
M  V30 3640 H 353.039 -3.68474 0.552985 0
M  V30 3641 H 353.152 -4.16019 2.37624 0
M  V30 3642 H 351.516 -2.25804 1.17833 0
M  V30 3643 H 352.299 -1.95491 2.82202 0
M  V30 3644 N 354.744 -0.972509 -1.24016 0
M  V30 3645 C 355.674 -0.525548 -2.27509 0
M  V30 3646 C 356.655 0.437262 -1.64384 0
M  V30 3647 O 357.84 0.332343 -1.91335 0
M  V30 3648 C 354.97 0.180448 -3.46831 0
M  V30 3649 C 353.924 -0.698859 -4.22256 0
M  V30 3650 C 353.25 0.138903 -5.3452 0
M  V30 3651 C 354.55 -1.98582 -4.83076 0
M  V30 3652 H 356.244 -1.39058 -2.65148 0
M  V30 3653 H 353.79 -0.67009 -1.27459 0
M  V30 3654 H 355.743 0.504387 -4.18371 0
M  V30 3655 H 354.467 1.07987 -3.08231 0
M  V30 3656 H 353.126 -1.00614 -3.52523 0
M  V30 3657 H 352.774 1.03862 -4.9216 0
M  V30 3658 H 352.474 -0.446259 -5.85903 0
M  V30 3659 H 353.998 0.457404 -6.08884 0
M  V30 3660 H 355.412 -1.72715 -5.46665 0
M  V30 3661 H 353.809 -2.5181 -5.44713 0
M  V30 3662 H 354.879 -2.67769 -4.04262 0
M  V30 3663 N 356.222 1.38976 -0.743202 0
M  V30 3664 C 357.155 2.28128 -0.0572165 0
M  V30 3665 C 358.133 1.44827 0.739182 0
M  V30 3666 O 359.317 1.74207 0.720009 0
M  V30 3667 C 356.444 3.25796 0.926001 0
M  V30 3668 C 355.49 4.25947 0.217099 0
M  V30 3669 S 356.323 5.24604 -1.07477 0
M  V30 3670 C 357.479 6.25829 -0.0943545 0
M  V30 3671 H 357.712 2.85961 -0.813246 0
M  V30 3672 H 355.245 1.44822 -0.535341 0
M  V30 3673 H 357.203 3.82583 1.48797 0
M  V30 3674 H 355.864 2.66966 1.65493 0
M  V30 3675 H 355.057 4.94746 0.961372 0
M  V30 3676 H 354.659 3.73002 -0.273059 0
M  V30 3677 H 356.951 6.73411 0.743239 0
M  V30 3678 H 357.894 7.0412 -0.749713 0
M  V30 3679 H 358.302 5.63797 0.281706 0
M  V30 3680 N 357.7 0.491464 1.49741 0
M  V30 3681 C 358.925 -0.0557177 2.07325 0
M  V30 3682 C 359.35 -1.30925 1.35056 0
M  V30 3683 O 358.708 -1.76733 0.404365 0
M  V30 3684 C 358.756 -0.302074 3.59333 0
M  V30 3685 O 357.86 -1.37868 3.88672 0
M  V30 3686 H 357.201 0.0219956 0.663636 0
M  V30 3687 H 359.731 0.688352 1.92673 0
M  V30 3688 H 359.741 -0.536464 4.04458 0
M  V30 3689 H 358.416 0.61383 4.11345 0
M  V30 3690 H 356.993 -1.12999 3.55367 0
M  V30 3691 N 359.178 -1.55987 0.224894 0
M  V30 3692 C 360.406 -2.02784 -0.410665 0
M  V30 3693 C 360.821 -1.10464 -1.53112 0
M  V30 3694 O 360.178 -0.114871 -1.82138 0
M  V30 3695 C 360.229 -3.49087 -0.939165 0
M  V30 3696 O 359.95 -4.37887 0.136614 0
M  V30 3697 C 361.451 -4.11543 -1.64763 0
M  V30 3698 H 358.671 -0.663484 -0.100148 0
M  V30 3699 H 361.215 -2.01614 0.342326 0
M  V30 3700 H 359.37 -3.50861 -1.64242 0
M  V30 3701 H 359.784 -5.23849 -0.261155 0
M  V30 3702 H 361.258 -5.15673 -1.96939 0
M  V30 3703 H 361.735 -3.56736 -2.56195 0
M  V30 3704 H 362.341 -4.13629 -0.989503 0
M  V30 3705 N 360.656 0.0484629 -1.57525 0
M  V30 3706 C 361.886 0.754326 -1.92337 0
M  V30 3707 C 362.294 1.70443 -0.82132 0
M  V30 3708 O 361.637 1.82466 0.21254 0
M  V30 3709 C 361.699 1.58231 -3.22805 0
M  V30 3710 C 361.363 0.799074 -4.4996 0
M  V30 3711 C 362.36 0.1079 -5.19788 0
M  V30 3712 C 360.045 0.759345 -4.96527 0
M  V30 3713 C 362.039 -0.612516 -6.3445 0
M  V30 3714 C 359.726 0.0351713 -6.1109 0
M  V30 3715 C 360.724 -0.649537 -6.79904 0
M  V30 3716 O 360.412 -1.36199 -7.92278 0
M  V30 3717 H 360.144 0.218257 -0.639797 0
M  V30 3718 H 362.698 0.0159295 -2.05394 0
M  V30 3719 H 360.928 2.36406 -3.06021 0
M  V30 3720 H 362.617 2.16898 -3.43089 0
M  V30 3721 H 363.383 0.129748 -4.84826 0
M  V30 3722 H 359.262 1.28177 -4.42822 0
M  V30 3723 H 362.806 -1.14751 -6.88097 0
M  V30 3724 H 358.703 0.0113314 -6.45499 0
M  V30 3725 H 359.471 -1.27366 -8.0853 0
M  V30 3726 N 362.134 1.5431 0.320358 0
M  V30 3727 C 363.545 1.63872 0.894594 0
M  V30 3728 C 363.896 0.534847 1.88769 0
M  V30 3729 O 363.021 -0.331732 2.13842 0
M  V30 3730 C 363.616 2.97049 1.62934 0
M  V30 3731 C 362.175 3.08796 2.15226 0
M  V30 3732 C 361.322 2.59456 0.978671 0
M  V30 3733 H 364.273 1.58398 0.0978544 0
M  V30 3734 H 364.294 2.87388 2.49376 0
M  V30 3735 H 363.806 3.7737 0.906302 0
M  V30 3736 H 361.907 2.33156 2.90636 0
M  V30 3737 H 362.02 4.14649 2.40006 0
M  V30 3738 H 360.384 2.1543 1.35875 0
M  V30 3739 H 361.167 3.42237 0.269895 0
M  V30 3740 N 363.613 -0.582584 1.46437 0
M  V30 3741 C 364.576 -1.67366 1.56592 0
M  V30 3742 C 365.576 -1.54575 0.443072 0
M  V30 3743 O 366.766 -1.59191 0.707381 0
M  V30 3744 C 363.898 -3.06791 1.48634 0
M  V30 3745 H 365.091 -1.5972 2.5383 0
M  V30 3746 H 362.644 -0.800432 1.34249 0
M  V30 3747 H 363.379 -3.19993 0.526763 0
M  V30 3748 H 363.164 -3.17484 2.30101 0
M  V30 3749 H 364.654 -3.86218 1.58826 0
M  V30 3750 N 365.091 -1.34144 -0.827227 0
M  V30 3751 C 366.038 -1.25364 -1.93785 0
M  V30 3752 C 367.008 -0.129774 -1.65592 0
M  V30 3753 O 368.193 -0.310024 -1.88264 0
M  V30 3754 C 365.333 -1.01064 -3.2997 0
M  V30 3755 C 364.446 -2.22185 -3.70484 0
M  V30 3756 C 363.581 -1.91203 -4.95595 0
M  V30 3757 C 362.62 -3.08491 -5.28677 0
M  V30 3758 N 361.757 -2.77421 -6.44967 0
M  V30 3759 H 366.597 -2.20347 -2.00627 0
M  V30 3760 H 364.134 -1.09558 -0.981608 0
M  V30 3761 H 366.092 -0.850139 -4.08446 0
M  V30 3762 H 364.722 -0.0975026 -3.22653 0
M  V30 3763 H 363.774 -2.4917 -2.87434 0
M  V30 3764 H 365.086 -3.0983 -3.90905 0
M  V30 3765 H 364.24 -1.71864 -5.81848 0
M  V30 3766 H 362.979 -1.00812 -4.77167 0
M  V30 3767 H 361.984 -3.28431 -4.40923 0
M  V30 3768 H 363.209 -3.99655 -5.49047 0
M  V30 3769 H 361.155 -1.89601 -6.28003 0
M  V30 3770 H 361.072 -3.58598 -6.6554 0
M  V30 3771 H 362.34 -2.61577 -7.34301 0
M  V30 3772 N 366.569 1.04691 -1.17803 0
M  V30 3773 C 367.817 1.7743 -0.967617 0
M  V30 3774 C 368.138 1.88359 0.504574 0
M  V30 3775 O 367.408 1.40402 1.36617 0
M  V30 3776 H 365.988 0.657242 -0.355024 0
M  V30 3777 H 368.65 1.2638 -1.48371 0
M  V30 3778 H 367.746 2.78924 -1.40027 0
M  V30 3779 N 368.047 0.979072 1.23499 0
M  V30 3780 C 369.296 0.642751 1.91185 0
M  V30 3781 C 369.609 -0.827253 1.77245 0
M  V30 3782 O 370.815 -1.27458 2.39722 0
M  V30 3783 C 369.271 1.09901 3.42709 0
M  V30 3784 C 368.879 2.59327 3.65313 0
M  V30 3785 C 370.623 0.836371 4.16179 0
M  V30 3786 C 368.53 2.98627 5.10467 0
M  V30 3787 H 367.46 0.236698 0.715884 0
M  V30 3788 H 370.111 1.1868 1.39955 0
M  V30 3789 H 368.493 0.48319 3.93041 0
M  V30 3790 H 369.667 3.26136 3.25533 0
M  V30 3791 H 367.982 2.83323 3.05151 0
M  V30 3792 H 370.579 1.10586 5.23139 0
M  V30 3793 H 370.922 -0.227509 4.15678 0
M  V30 3794 H 371.455 1.41371 3.71832 0
M  V30 3795 H 368.194 4.04133 5.16098 0
M  V30 3796 H 367.714 2.3651 5.51201 0
M  V30 3797 H 369.393 2.89159 5.78788 0
M  V30 3798 N 369.525 -1.3858 0.750561 0
M  V30 3799 C 370.771 -2.00481 0.305825 0
M  V30 3800 C 371.104 -1.5944 -1.10872 0
M  V30 3801 O 370.379 -0.83052 -1.75877 0
M  V30 3802 C 370.662 -3.5758 0.425287 0
M  V30 3803 C 370.515 -4.08594 1.88072 0
M  V30 3804 C 371.834 -4.39719 -0.183122 0
M  V30 3805 H 368.953 -0.728348 0.112598 0
M  V30 3806 H 371.595 -1.64566 0.949638 0
M  V30 3807 H 369.745 -3.88306 -0.122828 0
M  V30 3808 H 371.417 -3.88523 2.48691 0
M  V30 3809 H 369.66 -3.61574 2.39681 0
M  V30 3810 H 370.331 -5.177 1.91548 0
M  V30 3811 H 372.807 -4.15128 0.284303 0
M  V30 3812 H 371.683 -5.48856 -0.0692757 0
M  V30 3813 H 371.944 -4.23434 -1.27106 0
M  V30 3814 N 371.003 -0.499398 -1.49478 0
M  V30 3815 C 371.966 0.268838 -2.27618 0
M  V30 3816 C 372.966 0.895383 -1.33565 0
M  V30 3817 O 374.156 0.760164 -1.56739 0
M  V30 3818 C 371.288 1.38559 -3.11471 0
M  V30 3819 H 372.481 -0.416812 -2.96989 0
M  V30 3820 H 370.034 -0.254313 -1.54217 0
M  V30 3821 H 370.769 2.10544 -2.46661 0
M  V30 3822 H 370.554 0.941797 -3.80621 0
M  V30 3823 H 372.044 1.92678 -3.70493 0
M  V30 3824 N 372.481 1.55866 -0.233164 0
M  V30 3825 C 373.758 1.90471 0.444988 0
M  V30 3826 C 374.138 1.15209 1.7689 0
M  V30 3827 O 373.486 0.265119 2.26957 0
M  V30 3828 C 373.696 3.4333 0.626559 0
M  V30 3829 C 375.044 4.14319 0.92871 0
M  V30 3830 O 376.068 3.48993 0.712926 0
M  V30 3831 O 374.927 5.29846 1.33887 0
M  V30 3832 H 372.021 0.792347 0.236885 0
M  V30 3833 H 374.567 1.67437 -0.276211 0
M  V30 3834 H 373.339 3.90095 -0.306822 0
M  V30 3835 H 372.962 3.72181 1.39881 0
M  V30 3836 N 373.959 -0.0401083 1.57549 0
M  V30 3837 C 375.375 -0.395556 1.54621 0
M  V30 3838 C 375.575 -1.77281 0.957799 0
M  V30 3839 O 374.631 -2.45888 0.574031 0
M  V30 3840 C 375.944 -0.307535 2.99123 0
M  V30 3841 C 377.492 -0.385425 3.10618 0
M  V30 3842 C 377.967 -0.326973 4.56831 0
M  V30 3843 N 379.458 -0.386102 4.61588 0
M  V30 3844 C 380.193 -0.363591 5.72246 0
M  V30 3845 N 379.689 -0.29402 6.92176 0
M  V30 3846 N 381.482 -0.412503 5.60584 0
M  V30 3847 H 373.633 0.861325 1.94152 0
M  V30 3848 H 375.896 0.326445 0.890021 0
M  V30 3849 H 375.602 0.638461 3.45856 0
M  V30 3850 H 375.476 -1.10552 3.60636 0
M  V30 3851 H 377.863 -1.32185 2.63839 0
M  V30 3852 H 377.944 0.44171 2.51957 0
M  V30 3853 H 377.588 0.605738 5.04275 0
M  V30 3854 H 377.518 -1.17207 5.13391 0
M  V30 3855 H 380.009 -0.442832 3.75296 0
M  V30 3856 H 380.322 -0.28164 7.72287 0
M  V30 3857 H 378.667 -0.260232 6.94513 0
M  V30 3858 H 381.858 -0.464769 4.65787 0
M  V30 3859 H 382.031 -0.391492 6.46816 0
M  V30 3860 N 375.437 -1.54477 -0.31217 0
M  V30 3861 C 376.667 -1.76948 -1.06645 0
M  V30 3862 C 377.075 -0.523593 -1.81811 0
M  V30 3863 O 376.418 0.51578 -1.76311 0
M  V30 3864 C 376.48 -2.91668 -2.10166 0
M  V30 3865 C 376.144 -4.30165 -1.54296 0
M  V30 3866 C 377.141 -5.10603 -0.978793 0
M  V30 3867 C 374.826 -4.76738 -1.58196 0
M  V30 3868 C 376.82 -6.3573 -0.461048 0
M  V30 3869 C 374.507 -6.01831 -1.06034 0
M  V30 3870 C 375.505 -6.81161 -0.500844 0
M  V30 3871 O 375.193 -8.03899 0.0128958 0
M  V30 3872 H 374.925 -0.594088 -0.322546 0
M  V30 3873 H 377.479 -2.02213 -0.360441 0
M  V30 3874 H 375.709 -2.62001 -2.84416 0
M  V30 3875 H 377.398 -3.01817 -2.71406 0
M  V30 3876 H 378.164 -4.75771 -0.941651 0
M  V30 3877 H 374.043 -4.15027 -2.00683 0
M  V30 3878 H 377.587 -6.97596 -0.0236894 0
M  V30 3879 H 373.484 -6.36152 -1.09459 0
M  V30 3880 H 374.252 -8.18437 -0.101457 0
M  V30 3881 N 376.915 0.57481 -1.46744 0
M  V30 3882 C 378.326 1.15695 -1.46532 0
M  V30 3883 C 378.677 1.95068 -0.210425 0
M  V30 3884 O 377.802 2.05241 0.685944 0
M  V30 3885 C 378.397 2.1048 -2.65487 0
M  V30 3886 C 376.956 2.64002 -2.68291 0
M  V30 3887 C 376.103 1.40026 -2.39349 0
M  V30 3888 H 379.054 0.362325 -1.54509 0
M  V30 3889 H 379.075 2.94074 -2.41455 0
M  V30 3890 H 378.587 1.52683 -3.56805 0
M  V30 3891 H 376.688 3.25646 -1.81067 0
M  V30 3892 H 376.801 3.06197 -3.68483 0
M  V30 3893 H 375.165 1.70106 -1.89568 0
M  V30 3894 H 375.948 0.840485 -3.32852 0
M  V30 3895 N 378.394 1.34581 0.820102 0
M  V30 3896 C 379.357 1.2628 1.91275 0
M  V30 3897 C 380.357 0.177344 1.59819 0
M  V30 3898 O 381.547 0.430156 1.68806 0
M  V30 3899 C 378.679 0.950327 3.27386 0
M  V30 3900 H 379.872 2.23421 2.00057 0
M  V30 3901 H 377.425 1.1891 1.0144 0
M  V30 3902 H 378.16 -0.0177938 3.24295 0
M  V30 3903 H 377.945 1.73549 3.51601 0
M  V30 3904 H 379.435 0.917492 4.07396 0
M  V30 3905 N 379.872 -1.04064 1.18357 0
M  V30 3906 C 381.102 -1.80654 1.00238 0
M  V30 3907 C 381.51 -1.83713 -0.452362 0
M  V30 3908 O 380.853 -1.27135 -1.32599 0
M  V30 3909 C 380.915 -3.27582 1.48088 0
M  V30 3910 C 380.579 -3.48184 2.96002 0
M  V30 3911 C 381.576 -3.39372 3.93856 0
M  V30 3912 C 379.261 -3.7478 3.34433 0
M  V30 3913 C 381.255 -3.5686 5.28138 0
M  V30 3914 C 378.942 -3.91915 4.68877 0
M  V30 3915 C 379.94 -3.82956 5.65539 0
M  V30 3916 O 379.628 -3.996 6.97549 0
M  V30 3917 H 379.36 -0.575751 0.354241 0
M  V30 3918 H 381.914 -1.32044 1.57333 0
M  V30 3919 H 380.144 -3.77161 0.853588 0
M  V30 3920 H 381.833 -3.8573 1.2636 0
M  V30 3921 H 382.599 -3.18789 3.65511 0
M  V30 3922 H 378.478 -3.80852 2.59756 0
M  V30 3923 H 382.022 -3.49783 6.03571 0
M  V30 3924 H 377.919 -4.11992 4.96923 0
M  V30 3925 H 378.687 -4.1676 7.04452 0
M  V30 3926 N 381.35 -0.985608 -1.22978 0
M  V30 3927 C 382.28 -0.549649 -2.26939 0
M  V30 3928 C 383.261 0.419803 -1.64838 0
M  V30 3929 O 384.446 0.31203 -1.91677 0
M  V30 3930 C 381.576 0.143652 -3.47003 0
M  V30 3931 C 380.53 -0.743606 -4.21491 0
M  V30 3932 C 379.856 0.0822027 -5.34637 0
M  V30 3933 C 381.156 -2.03694 -4.80943 0
M  V30 3934 H 382.85 -1.41862 -2.63658 0
M  V30 3935 H 380.396 -0.683571 -1.26741 0
M  V30 3936 H 382.349 0.459985 -4.18882 0
M  V30 3937 H 381.073 1.04711 -3.09359 0
M  V30 3938 H 379.732 -1.04347 -3.51436 0
M  V30 3939 H 379.38 0.986359 -4.93234 0
M  V30 3940 H 379.08 -0.508377 -5.85397 0
M  V30 3941 H 380.604 0.392797 -6.09335 0
M  V30 3942 H 382.018 -1.78504 -5.44802 0
M  V30 3943 H 380.415 -2.57573 -5.42011 0
M  V30 3944 H 381.485 -2.72042 -4.01399 0
M  V30 3945 N 382.828 1.3818 -0.7579 0
M  V30 3946 C 384.076 1.99624 -0.315361 0
M  V30 3947 C 384.397 1.60464 1.10799 0
M  V30 3948 O 383.667 0.863507 1.75842 0
M  V30 3949 H 382.247 0.73831 -0.113611 0
M  V30 3950 H 384.909 1.68878 -0.972952 0
M  V30 3951 H 384.005 3.09754 -0.381931 0
M  V30 3952 N 384.306 0.507319 1.49211 0
M  V30 3953 C 385.531 -0.033725 2.07373 0
M  V30 3954 C 385.956 -1.29485 1.36437 0
M  V30 3955 O 385.314 -1.76294 0.423087 0
M  V30 3956 C 385.362 -0.263945 3.59633 0
M  V30 3957 O 384.466 -1.33737 3.90113 0
M  V30 3958 H 383.807 0.0290331 0.663365 0
M  V30 3959 H 386.337 0.708749 1.91932 0
M  V30 3960 H 386.347 -0.493536 4.05004 0
M  V30 3961 H 385.022 0.657424 4.10671 0
M  V30 3962 H 383.599 -1.09224 3.56545 0
M  V30 3963 N 385.784 -1.5574 0.241426 0
M  V30 3964 C 386.747 -2.19877 -0.647063 0
M  V30 3965 C 387.747 -1.16642 -1.10686 0
M  V30 3966 O 388.937 -1.41757 -1.01245 0
M  V30 3967 C 386.069 -2.83797 -1.88871 0
M  V30 3968 H 387.262 -2.99772 -0.087574 0
M  V30 3969 H 384.815 -1.56298 -0.00813574 0
M  V30 3970 H 385.55 -2.07824 -2.48957 0
M  V30 3971 H 385.335 -3.59414 -1.56728 0
M  V30 3972 H 386.825 -3.32898 -2.52129 0
M  V30 3973 N 387.262 0.0317525 -1.57568 0
M  V30 3974 C 388.21 1.05165 -2.07468 0
M  V30 3975 C 389.204 1.3761 -0.98792 0
M  V30 3976 O 390.41 1.36546 -1.17282 0
M  V30 3977 H 386.785 0.35666 -0.66204 0
M  V30 3978 H 388.756 0.604958 -2.92203 0
M  V30 3979 C 387.505 2.34488 -2.56731 0
M  V30 3980 H 386.828 2.10383 -3.39969 0
M  V30 3981 H 388.268 3.04203 -2.95358 0
M  V30 3982 C 386.727 3.03266 -1.46736 0
M  V30 3983 O 387.257 3.92988 -0.832069 0
M  V30 3984 N 385.463 2.6455 -1.20256 0
M  V30 3985 H 385.01 1.91674 -1.72102 0
M  V30 3986 H 384.968 3.10886 -0.468737 0
M  V30 3987 N 388.74 1.54641 0.303973 0
M  V30 3988 C 390.156 1.45788 0.649463 0
M  V30 3989 C 390.356 0.64666 1.90842 0
M  V30 3990 O 389.412 0.153183 2.52035 0
M  V30 3991 C 390.725 2.89718 0.805227 0
M  V30 3992 C 392.273 2.99742 0.901305 0
M  V30 3993 C 392.748 4.44863 1.08909 0
M  V30 3994 N 394.239 4.48559 1.15536 0
M  V30 3995 C 394.974 5.58026 1.3189 0
M  V30 3996 N 394.47 6.77422 1.45161 0
M  V30 3997 N 396.263 5.45708 1.34755 0
M  V30 3998 H 388.414 2.05854 -0.523237 0
M  V30 3999 H 390.677 0.932186 -0.172431 0
M  V30 4000 H 390.383 3.51666 -0.0489108 0
M  V30 4001 H 390.257 3.36964 1.69513 0
M  V30 4002 H 392.644 2.3791 1.74593 0
M  V30 4003 H 392.725 2.55797 -0.0125531 0
M  V30 4004 H 392.369 5.07288 0.249241 0
M  V30 4005 H 392.299 4.86436 2.01713 0
M  V30 4006 H 394.79 3.6254 1.06646 0
M  V30 4007 H 395.103 7.56604 1.57387 0
M  V30 4008 H 393.448 6.80292 1.42223 0
M  V30 4009 H 396.639 4.51378 1.23996 0
M  V30 4010 H 396.812 6.3107 1.47157 0
M  V30 4011 N 390.218 -0.567019 1.47046 0
M  V30 4012 C 391.464 -1.32658 1.53394 0
M  V30 4013 C 391.797 -1.93254 0.19148 0
M  V30 4014 O 391.072 -1.77338 -0.798844 0
M  V30 4015 C 391.355 -2.44412 2.64452 0
M  V30 4016 C 391.208 -1.88749 4.08282 0
M  V30 4017 C 392.527 -3.46387 2.71485 0
M  V30 4018 H 389.646 -0.48098 0.558415 0
M  V30 4019 H 392.288 -0.635481 1.79058 0
M  V30 4020 H 390.438 -3.03363 2.427 0
M  V30 4021 H 392.11 -1.34134 4.41368 0
M  V30 4022 H 390.353 -1.19481 4.17021 0
M  V30 4023 H 391.024 -2.69491 4.81745 0
M  V30 4024 H 393.5 -2.9734 2.91081 0
M  V30 4025 H 392.376 -4.2202 3.50985 0
M  V30 4026 H 392.637 -4.04616 1.78153 0
M  V30 4027 N 391.696 -1.35014 -0.812953 0
M  V30 4028 C 392.659 -1.27292 -1.90602 0
M  V30 4029 C 393.659 -0.185817 -1.59723 0
M  V30 4030 O 394.849 -0.439102 -1.68575 0
M  V30 4031 C 391.981 -0.967676 -3.26877 0
M  V30 4032 H 393.174 -2.24479 -1.9887 0
M  V30 4033 H 390.727 -1.19446 -1.00808 0
M  V30 4034 H 391.462 0.0005954 -3.243 0
M  V30 4035 H 391.247 -1.75412 -3.50675 0
M  V30 4036 H 392.737 -0.939085 -4.06904 0
M  V30 4037 N 393.175 1.03435 -1.18907 0
M  V30 4038 C 394.107 2.1165 -0.879595 0
M  V30 4039 C 395.12 1.62316 0.125439 0
M  V30 4040 O 396.309 1.78201 -0.103245 0
M  V30 4041 C 393.409 3.37622 -0.294042 0
M  V30 4042 C 392.582 4.16166 -1.34629 0
M  V30 4043 C 391.641 5.20457 -0.775274 0
M  V30 4044 O 390.667 5.50379 -1.4516 0
M  V30 4045 N 391.869 5.78949 0.424126 0
M  V30 4046 H 394.634 2.38791 -1.81105 0
M  V30 4047 H 392.195 1.19681 -1.09032 0
M  V30 4048 H 394.187 4.04572 0.101679 0
M  V30 4049 H 392.757 3.07873 0.541575 0
M  V30 4050 H 391.977 3.44444 -1.91707 0
M  V30 4051 H 393.265 4.65432 -2.05549 0
M  V30 4052 H 392.663 5.56948 0.991209 0
M  V30 4053 H 391.22 6.47334 0.761691 0
M  V30 4054 N 394.653 0.992116 1.22453 0
M  V30 4055 C 395.6 0.541731 2.24352 0
M  V30 4056 C 396.57 -0.425519 1.60557 0
M  V30 4057 O 397.755 -0.330453 1.87917 0
M  V30 4058 C 394.895 -0.138248 3.44823 0
M  V30 4059 C 394.008 0.870649 4.23136 0
M  V30 4060 C 393.143 0.164269 5.30946 0
M  V30 4061 C 392.182 1.16159 6.00977 0
M  V30 4062 N 391.319 0.483568 7.00433 0
M  V30 4063 H 396.159 1.41541 2.62241 0
M  V30 4064 H 393.696 0.709013 1.28885 0
M  V30 4065 H 395.654 -0.5494 4.13567 0
M  V30 4066 H 394.284 -0.975721 3.077 0
M  V30 4067 H 393.336 1.40013 3.53696 0
M  V30 4068 H 394.648 1.63014 4.7141 0
M  V30 4069 H 393.802 -0.303653 6.0594 0
M  V30 4070 H 392.541 -0.627733 4.83643 0
M  V30 4071 H 391.546 1.64015 5.24766 0
M  V30 4072 H 392.771 1.95445 6.50368 0
M  V30 4073 H 390.717 -0.289012 6.55363 0
M  V30 4074 H 390.634 1.18152 7.4671 0
M  V30 4075 H 391.902 0.0384219 7.79491 0
M  V30 4076 N 396.131 -1.37776 0.765217 0
M  V30 4077 C 397.542 -1.82521 0.392819 0
M  V30 4078 C 397.893 -1.63789 -1.08017 0
M  V30 4079 O 397.018 -1.14542 -1.83601 0
M  V30 4080 C 397.613 -3.31358 0.706214 0
M  V30 4081 C 396.172 -3.74406 0.386952 0
M  V30 4082 C 395.319 -2.60394 0.953422 0
M  V30 4083 H 398.27 -1.2634 0.960412 0
M  V30 4084 H 398.291 -3.80498 -0.0114706 0
M  V30 4085 H 397.803 -3.44959 1.77833 0
M  V30 4086 H 395.904 -3.66377 -0.678112 0
M  V30 4087 H 396.017 -4.70749 0.890636 0
M  V30 4088 H 394.381 -2.51878 0.378064 0
M  V30 4089 H 395.164 -2.76791 2.03081 0
M  V30 4090 N 397.609 -0.515225 -1.4894 0
M  V30 4091 C 398.572 0.244681 -2.2789 0
M  V30 4092 C 399.572 0.881166 -1.34507 0
M  V30 4093 O 400.762 0.743497 -1.57537 0
M  V30 4094 C 397.894 1.35247 -3.12923 0
M  V30 4095 H 399.087 -0.448289 -2.96531 0
M  V30 4096 H 396.64 -0.270656 -1.53939 0
M  V30 4097 H 397.375 2.07916 -2.48881 0
M  V30 4098 H 397.16 0.901374 -3.81599 0
M  V30 4099 H 398.65 1.88737 -3.72516 0
M  V30 4100 N 399.087 1.5561 -0.249682 0
M  V30 4101 C 400.035 2.22894 0.664906 0
M  V30 4102 C 401.029 1.21743 1.17792 0
M  V30 4103 O 402.235 1.39748 1.13449 0
M  V30 4104 H 398.61 0.715022 0.232912 0
M  V30 4105 H 400.581 2.98307 0.0742998 0
M  V30 4106 C 399.33 2.94424 1.84959 0
M  V30 4107 H 398.653 3.72031 1.46399 0
M  V30 4108 H 400.093 3.44862 2.4667 0
M  V30 4109 C 398.552 1.98454 2.72245 0
M  V30 4110 O 399.082 1.51939 3.71857 0
M  V30 4111 N 397.288 1.65496 2.38871 0
M  V30 4112 H 396.835 2.03517 1.57919 0
M  V30 4113 H 396.793 1.0155 2.97548 0
M  V30 4114 N 400.565 -0.0233959 1.57583 0
M  V30 4115 C 401.475 -1.03907 2.10334 0
M  V30 4116 C 402.491 -1.39257 1.04323 0
M  V30 4117 O 403.667 -1.48462 1.36091 0
M  V30 4118 C 400.732 -2.31938 2.57693 0
M  V30 4119 C 399.793 -2.03117 3.78209 0
M  V30 4120 C 399.026 -3.25043 4.233 0
M  V30 4121 O 399.249 -4.35916 3.67876 0
M  V30 4122 O 398.183 -3.10411 5.15683 0
M  V30 4123 H 402.009 -0.620748 2.97288 0
M  V30 4124 H 399.594 -0.240743 1.47448 0
M  V30 4125 H 401.476 -3.07196 2.88458 0
M  V30 4126 H 400.151 -2.73055 1.73847 0
M  V30 4127 H 399.058 -1.25408 3.52454 0
M  V30 4128 H 400.391 -1.66852 4.63056 0
M  V30 4129 N 402.043 -1.548 -0.295768 0
M  V30 4130 C 403.006 -1.85363 -1.34808 0
M  V30 4131 C 404.006 -0.726817 -1.43436 0
M  V30 4132 O 405.196 -0.995088 -1.42981 0
M  V30 4133 C 402.328 -2.03859 -2.73229 0
M  V30 4134 H 403.521 -2.7941 -1.08949 0
M  V30 4135 H 401.074 -1.46942 -0.532702 0
M  V30 4136 H 401.809 -1.12117 -3.04303 0
M  V30 4137 H 401.594 -2.8588 -2.68356 0
M  V30 4138 H 403.084 -2.28857 -3.49305 0
M  V30 4139 N 403.521 0.559213 -1.47345 0
M  V30 4140 C 404.451 1.67622 -1.62558 0
M  V30 4141 C 405.432 1.63331 -0.475087 0
M  V30 4142 O 406.617 1.80983 -0.704182 0
M  V30 4143 C 403.747 3.0626 -1.63774 0
M  V30 4144 C 402.701 3.25397 -2.7803 0
M  V30 4145 C 402.027 4.64801 -2.64318 0
M  V30 4146 C 403.327 3.10965 -4.19641 0
M  V30 4147 H 405.021 1.55146 -2.56067 0
M  V30 4148 H 402.567 0.744961 -1.23233 0
M  V30 4149 H 404.52 3.84247 -1.73008 0
M  V30 4150 H 403.244 3.1969 -0.66825 0
M  V30 4151 H 401.903 2.49817 -2.68304 0
M  V30 4152 H 401.551 4.75028 -1.65401 0
M  V30 4153 H 401.251 4.78555 -3.40968 0
M  V30 4154 H 402.775 5.44926 -2.75478 0
M  V30 4155 H 404.189 3.78772 -4.30354 0
M  V30 4156 H 402.586 3.36229 -4.97062 0
M  V30 4157 H 403.656 2.07736 -4.38148 0
M  V30 4158 N 404.999 1.35443 0.805782 0
M  V30 4159 C 405.962 1.28301 1.89925 0
M  V30 4160 C 406.962 0.194285 1.59622 0
M  V30 4161 O 408.152 0.448036 1.6834 0
M  V30 4162 C 405.284 0.984997 3.2636 0
M  V30 4163 H 406.477 2.2553 1.97677 0
M  V30 4164 H 404.03 1.19979 1.00173 0
M  V30 4165 H 404.765 0.016603 3.24296 0
M  V30 4166 H 404.55 1.77269 3.4974 0
M  V30 4167 H 406.04 0.960651 4.064 0
M  V30 4168 N 406.477 -1.02803 1.19454 0
M  V30 4169 C 407.409 -2.11181 0.890807 0
M  V30 4170 C 408.422 -1.6238 -0.116829 0
M  V30 4171 O 409.611 -1.78144 0.112694 0
M  V30 4172 C 406.711 -3.37461 0.311942 0
M  V30 4173 C 405.884 -4.15446 1.36834 0
M  V30 4174 C 404.943 -5.20039 0.802864 0
M  V30 4175 O 403.969 -5.49602 1.48077 0
M  V30 4176 N 405.171 -5.79165 -0.393417 0
M  V30 4177 H 407.936 -2.37827 1.82369 0
M  V30 4178 H 405.497 -1.19101 1.09666 0
M  V30 4179 H 407.489 -4.0462 -0.0802225 0
M  V30 4180 H 406.059 -3.08156 -0.52524 0
M  V30 4181 H 405.279 -3.43423 1.93531 0
M  V30 4182 H 406.567 -4.64335 2.08015 0
M  V30 4183 H 405.965 -5.57466 -0.961658 0
M  V30 4184 H 404.522 -6.47729 -0.727351 0
M  V30 4185 N 407.956 -0.998596 -1.21925 0
M  V30 4186 C 408.919 -0.558679 -2.22287 0
M  V30 4187 C 409.919 0.361525 -1.56683 0
M  V30 4188 O 411.109 0.152695 -1.73529 0
M  V30 4189 C 408.241 0.18661 -3.40389 0
M  V30 4190 H 409.434 -1.4463 -2.62721 0
M  V30 4191 H 406.987 -0.786413 -1.35075 0
M  V30 4192 H 407.722 1.08996 -3.05435 0
M  V30 4193 H 407.507 -0.474188 -3.89222 0
M  V30 4194 H 408.997 0.482367 -4.14805 0
M  V30 4195 N 409.434 1.37368 -0.772513 0
M  V30 4196 C 410.711 1.93839 -0.26188 0
M  V30 4197 C 411.091 1.7061 1.24319 0
M  V30 4198 O 410.439 1.05534 2.02669 0
M  V30 4199 C 410.649 3.43154 -0.636102 0
M  V30 4200 C 411.997 4.20249 -0.606324 0
M  V30 4201 O 413.021 3.5152 -0.575538 0
M  V30 4202 O 411.88 5.42809 -0.634086 0
M  V30 4203 H 408.974 0.82478 -0.0605555 0
M  V30 4204 H 411.52 1.4665 -0.853917 0
M  V30 4205 H 410.292 3.53647 -1.6748 0
M  V30 4206 H 409.915 3.97596 -0.0170516 0
M  V30 4207 N 410.912 0.523116 1.48665 0
M  V30 4208 C 412.158 -0.0134963 2.02796 0
M  V30 4209 C 412.491 -1.34582 1.40004 0
M  V30 4210 O 411.766 -1.86756 0.543381 0
M  V30 4211 C 412.049 -0.14276 3.59817 0
M  V30 4212 C 411.902 1.21425 4.331 0
M  V30 4213 C 413.221 -0.872856 4.31357 0
M  V30 4214 H 410.34 -0.00343074 0.736992 0
M  V30 4215 H 412.982 0.678816 1.7746 0
M  V30 4216 H 411.132 -0.732401 3.81534 0
M  V30 4217 H 412.804 1.84447 4.2282 0
M  V30 4218 H 411.047 1.79791 3.94788 0
M  V30 4219 H 411.718 1.07687 5.41394 0
M  V30 4220 H 414.194 -0.372555 4.14429 0
M  V30 4221 H 413.07 -0.932185 5.40927 0
M  V30 4222 H 413.331 -1.92161 3.98154 0
M  V30 4223 N 412.39 -1.55475 0.257931 0
M  V30 4224 C 413.636 -1.99502 -0.364266 0
M  V30 4225 C 413.969 -1.146 -1.56782 0
M  V30 4226 O 413.244 -0.211968 -1.93342 0
M  V30 4227 C 413.527 -3.51917 -0.763333 0
M  V30 4228 C 413.38 -4.4758 0.446371 0
M  V30 4229 C 414.699 -4.09742 -1.60623 0
M  V30 4230 H 411.818 -0.725277 -0.130929 0
M  V30 4231 H 414.46 -1.8653 0.361446 0
M  V30 4232 H 412.61 -3.63101 -1.38166 0
M  V30 4233 H 414.282 -4.48362 1.08487 0
M  V30 4234 H 412.525 -4.19947 1.08753 0
M  V30 4235 H 413.196 -5.51862 0.123645 0
M  V30 4236 H 415.672 -4.01727 -1.08418 0
M  V30 4237 H 414.548 -5.16631 -1.85429 0
M  V30 4238 H 414.809 -3.58889 -2.58169 0
M  V30 4239 N 413.868 0.0150385 -1.57593 0
M  V30 4240 C 414.798 1.01047 -2.10503 0
M  V30 4241 C 415.779 1.36816 -1.01071 0
M  V30 4242 O 416.964 1.45455 -1.28672 0
M  V30 4243 C 414.094 2.30708 -2.59598 0
M  V30 4244 C 413.048 2.09142 -3.73421 0
M  V30 4245 C 412.374 3.44685 -4.08774 0
M  V30 4246 C 413.674 1.46619 -5.01298 0
M  V30 4247 H 415.368 0.569978 -2.93925 0
M  V30 4248 H 412.914 0.272724 -1.41394 0
M  V30 4249 H 414.867 3.00687 -2.95238 0
M  V30 4250 H 413.591 2.76843 -1.73279 0
M  V30 4251 H 412.25 1.41592 -3.38153 0
M  V30 4252 H 411.898 3.88495 -3.195 0
M  V30 4253 H 411.598 3.31077 -4.8545 0
M  V30 4254 H 413.122 4.16004 -4.4696 0
M  V30 4255 H 414.536 2.06535 -5.34805 0
M  V30 4256 H 412.933 1.43544 -5.82679 0
M  V30 4257 H 414.003 0.433611 -4.82957 0
M  V30 4258 N 415.346 1.54954 0.287554 0
M  V30 4259 C 416.593 1.74873 1.02106 0
M  V30 4260 C 416.921 0.541829 1.86801 0
M  V30 4261 O 416.176 -0.475992 1.89823 0
M  V30 4262 C 416.475 2.99833 1.94512 0
M  V30 4263 C 416.141 4.33029 1.25686 0
M  V30 4264 C 414.803 4.69233 1.06649 0
M  V30 4265 C 417.155 5.15542 0.765913 0
M  V30 4266 C 414.483 5.85518 0.372222 0
M  V30 4267 C 416.835 6.32542 0.0853101 0
M  V30 4268 C 415.499 6.67398 -0.1169 0
M  V30 4269 H 414.769 0.639906 0.373632 0
M  V30 4270 H 417.416 1.89219 0.294665 0
M  V30 4271 H 415.721 2.80325 2.73725 0
M  V30 4272 H 417.418 3.1244 2.51361 0
M  V30 4273 H 414.008 4.04564 1.41512 0
M  V30 4274 H 418.192 4.88059 0.90066 0
M  V30 4275 H 413.448 6.11057 0.204695 0
M  V30 4276 H 417.622 6.95741 -0.302936 0
M  V30 4277 H 415.249 7.57357 -0.656859 0
M  V30 4278 N 416.824 -0.551391 1.4764 0
M  V30 4279 C 418.07 -1.31024 1.54792 0
M  V30 4280 C 418.403 -1.9304 0.211967 0
M  V30 4281 O 417.678 -1.78175 -0.77999 0
M  V30 4282 C 417.961 -2.41593 2.67029 0
M  V30 4283 C 417.814 -1.84408 4.10261 0
M  V30 4284 C 419.133 -3.43488 2.75143 0
M  V30 4285 H 416.252 -0.475031 0.563485 0
M  V30 4286 H 418.894 -0.616454 1.79722 0
M  V30 4287 H 417.044 -3.00772 2.45904 0
M  V30 4288 H 418.716 -1.29445 4.42766 0
M  V30 4289 H 416.959 -1.15051 4.18265 0
M  V30 4290 H 417.63 -2.64367 4.84576 0
M  V30 4291 H 420.106 -2.94236 2.94218 0
M  V30 4292 H 418.982 -4.18274 3.55441 0
M  V30 4293 H 419.243 -4.02703 1.82435 0
M  V30 4294 N 418.302 -1.35869 -0.798587 0
M  V30 4295 C 419.55 -1.29332 -1.55298 0
M  V30 4296 C 419.871 0.129729 -1.94568 0
M  V30 4297 O 419.141 1.06796 -1.6423 0
M  V30 4298 H 417.721 -0.475737 -0.57592 0
M  V30 4299 H 420.383 -1.70062 -0.952093 0
M  V30 4300 H 419.479 -1.91458 -2.46476 0
M  V30 4301 N 419.78 1.02168 -1.19998 0
M  V30 4302 C 420.728 2.12717 -0.940967 0
M  V30 4303 C 421.722 1.69069 0.105841 0
M  V30 4304 O 422.928 1.79946 -0.0440583 0
M  V30 4305 H 419.303 0.695108 -0.28693 0
M  V30 4306 H 421.274 2.3175 -1.87975 0
M  V30 4307 C 420.023 3.44027 -0.504049 0
M  V30 4308 H 419.346 3.78036 -1.30112 0
M  V30 4309 H 420.786 4.22452 -0.361991 0
M  V30 4310 C 419.245 3.27678 0.782878 0
M  V30 4311 O 419.775 3.56949 1.84256 0
M  V30 4312 N 417.981 2.80943 0.742921 0
M  V30 4313 H 417.528 2.57322 -0.119687 0
M  V30 4314 H 417.486 2.70385 1.60435 0
M  V30 4315 N 421.258 1.00505 1.21394 0
M  V30 4316 C 422.206 0.558623 2.25792 0
M  V30 4317 C 423.2 -0.396848 1.64686 0
M  V30 4318 O 424.406 -0.268035 1.77993 0
M  V30 4319 H 420.781 0.1623 0.734277 0
M  V30 4320 H 422.752 1.4503 2.60785 0
M  V30 4321 C 421.501 -0.0989574 3.47559 0
M  V30 4322 H 420.824 0.627225 3.94849 0
M  V30 4323 H 422.264 -0.3746 4.22342 0
M  V30 4324 C 420.723 -1.33817 3.09184 0
M  V30 4325 O 421.253 -2.43252 3.19674 0
M  V30 4326 N 419.459 -1.21793 2.63846 0
M  V30 4327 H 419.006 -0.32746 2.5551 0
M  V30 4328 H 418.964 -2.04809 2.38539 0
M  V30 4329 N 422.737 -1.36956 0.779787 0
M  V30 4330 C 423.967 -2.03459 0.358877 0
M  V30 4331 C 424.375 -1.58939 -1.02641 0
M  V30 4332 O 423.718 -0.769777 -1.66794 0
M  V30 4333 C 423.78 -3.5796 0.332393 0
M  V30 4334 C 423.444 -4.25644 1.66362 0
M  V30 4335 C 424.441 -4.49205 2.61746 0
M  V30 4336 C 422.126 -4.63313 1.94027 0
M  V30 4337 C 424.12 -5.09503 3.82996 0
M  V30 4338 C 421.807 -5.2333 3.15546 0
M  V30 4339 C 422.805 -5.46363 4.0985 0
M  V30 4340 O 422.493 -6.05122 5.29228 0
M  V30 4341 H 422.225 -0.659767 0.147254 0
M  V30 4342 H 424.779 -1.76111 1.05708 0
M  V30 4343 H 423.009 -3.84388 -0.422237 0
M  V30 4344 H 424.698 -4.05852 -0.0625389 0
M  V30 4345 H 425.464 -4.20508 2.41657 0
M  V30 4346 H 421.343 -4.44715 1.21448 0
M  V30 4347 H 424.887 -5.27397 4.56617 0
M  V30 4348 H 420.784 -5.51451 3.35517 0
M  V30 4349 H 421.552 -6.23595 5.30161 0
M  V30 4350 N 424.215 -0.530993 -1.48385 0
M  V30 4351 C 425.626 -0.0907905 -1.86479 0
M  V30 4352 C 425.977 1.33213 -1.44044 0
M  V30 4353 O 425.102 1.99783 -0.831615 0
M  V30 4354 C 425.697 -0.157987 -3.38431 0
M  V30 4355 C 424.256 0.227026 -3.75715 0
M  V30 4356 C 423.403 -0.5173 -2.72432 0
M  V30 4357 H 426.354 -0.742186 -1.40276 0
M  V30 4358 H 426.375 0.630053 -3.75247 0
M  V30 4359 H 425.887 -1.19372 -3.69286 0
M  V30 4360 H 423.988 1.26486 -3.50474 0
M  V30 4361 H 424.101 -0.113288 -4.78966 0
M  V30 4362 H 422.465 0.0365527 -2.54674 0
M  V30 4363 H 423.248 -1.55368 -3.0613 0
M  V30 4364 N 425.693 1.55336 -0.266172 0
M  V30 4365 C 426.94 1.99397 0.353158 0
M  V30 4366 C 427.268 1.15451 1.56529 0
M  V30 4367 O 426.523 0.209974 1.9457 0
M  V30 4368 C 426.822 3.48606 0.787957 0
M  V30 4369 C 426.488 4.49773 -0.318541 0
M  V30 4370 C 425.15 4.77158 -0.62239 0
M  V30 4371 C 427.502 5.10212 -1.06459 0
M  V30 4372 C 424.83 5.62251 -1.67602 0
M  V30 4373 C 427.182 5.96449 -2.10788 0
M  V30 4374 C 425.846 6.22158 -2.41817 0
M  V30 4375 H 425.116 0.729644 0.12923 0
M  V30 4376 H 427.763 1.87732 -0.37802 0
M  V30 4377 H 426.068 3.57701 1.59866 0
M  V30 4378 H 427.765 3.80098 1.27775 0
M  V30 4379 H 424.355 4.2854 -0.0715925 0
M  V30 4380 H 428.539 4.89086 -0.843098 0
M  V30 4381 H 423.795 5.80419 -1.92155 0
M  V30 4382 H 427.969 6.42317 -2.69076 0
M  V30 4383 H 425.596 6.87888 -3.23596 0
M  V30 4384 N 427.171 -0.0066808 1.57599 0
M  V30 4385 C 428.134 -0.985035 2.06953 0
M  V30 4386 C 429.134 -1.27663 0.977687 0
M  V30 4387 O 430.324 -1.22293 1.24057 0
M  V30 4388 C 427.456 -2.3118 2.50536 0
M  V30 4389 H 428.649 -0.558255 2.94658 0
M  V30 4390 H 426.202 -0.254011 1.54222 0
M  V30 4391 H 426.937 -2.78561 1.66054 0
M  V30 4392 H 426.722 -2.11338 3.3027 0
M  V30 4393 H 428.212 -3.01377 2.8907 0
M  V30 4394 N 428.649 -1.55105 -0.279332 0
M  V30 4395 C 429.559 -1.90638 -1.36727 0
M  V30 4396 C 430.575 -0.802899 -1.54368 0
M  V30 4397 O 431.751 -1.10138 -1.68616 0
M  V30 4398 C 428.816 -2.16547 -2.70755 0
M  V30 4399 C 427.877 -3.40146 -2.61915 0
M  V30 4400 C 427.11 -3.6481 -3.8955 0
M  V30 4401 O 427.333 -2.92095 -4.89935 0
M  V30 4402 O 426.267 -4.58343 -3.90135 0
M  V30 4403 H 430.093 -2.83237 -1.09591 0
M  V30 4404 H 427.678 -1.4157 -0.477306 0
M  V30 4405 H 429.56 -2.34665 -3.50014 0
M  V30 4406 H 428.235 -1.27131 -2.9769 0
M  V30 4407 H 427.142 -3.2737 -1.81052 0
M  V30 4408 H 428.475 -4.29761 -2.3993 0
M  V30 4409 N 430.127 0.543554 -1.4793 0
M  V30 4410 C 431.373 1.30201 -1.55485 0
M  V30 4411 C 431.706 1.92925 -0.222201 0
M  V30 4412 O 430.981 1.78586 0.77053 0
M  V30 4413 C 431.264 2.40174 -2.68307 0
M  V30 4414 C 431.117 1.8223 -4.11233 0
M  V30 4415 C 432.436 3.42024 -2.76961 0
M  V30 4416 H 429.555 0.472036 -0.565996 0
M  V30 4417 H 432.197 0.606914 -1.80046 0
M  V30 4418 H 430.347 2.99463 -2.47495 0
M  V30 4419 H 432.019 1.27096 -4.43446 0
M  V30 4420 H 430.262 1.12832 -4.18869 0
M  V30 4421 H 430.933 2.61793 -4.85972 0
M  V30 4422 H 433.409 2.92672 -2.95774 0
M  V30 4423 H 432.285 4.16383 -3.57654 0
M  V30 4424 H 432.546 4.0173 -1.84568 0
M  V30 4425 N 431.605 1.3629 0.791371 0
M  V30 4426 C 432.83 1.33726 1.58531 0
M  V30 4427 C 433.255 -0.0794933 1.87932 0
M  V30 4428 O 432.613 -1.05087 1.47738 0
M  V30 4429 C 432.661 2.16425 2.88431 0
M  V30 4430 O 431.765 1.5554 3.81944 0
M  V30 4431 H 431.106 0.457793 0.480959 0
M  V30 4432 H 433.636 1.79547 0.981031 0
M  V30 4433 H 433.646 2.28933 3.37718 0
M  V30 4434 H 432.321 3.19415 2.66359 0
M  V30 4435 H 430.898 1.51961 3.40532 0
M  V30 4436 N 433.083 -1.0153 1.20538 0
M  V30 4437 C 434.03 -2.10098 0.955383 0
M  V30 4438 C 435 -1.65702 -0.114878 0
M  V30 4439 O 436.185 -1.90776 0.0301118 0
M  V30 4440 C 433.325 -3.41236 0.514969 0
M  V30 4441 C 432.438 -3.99102 1.65353 0
M  V30 4442 C 431.573 -5.18306 1.16329 0
M  V30 4443 C 430.612 -5.68258 2.27485 0
M  V30 4444 N 429.749 -6.78722 1.7967 0
M  V30 4445 H 434.589 -2.30818 1.88486 0
M  V30 4446 H 432.126 -1.13189 0.939499 0
M  V30 4447 H 434.084 -4.16504 0.240935 0
M  V30 4448 H 432.714 -3.20585 -0.377512 0
M  V30 4449 H 431.766 -3.20918 2.04245 0
M  V30 4450 H 433.078 -4.32177 2.49047 0
M  V30 4451 H 432.232 -6.00782 0.845302 0
M  V30 4452 H 430.971 -4.86799 0.296254 0
M  V30 4453 H 429.976 -4.84385 2.60099 0
M  V30 4454 H 431.201 -6.01798 3.14667 0
M  V30 4455 H 429.147 -6.49042 0.95295 0
M  V30 4456 H 429.064 -7.10996 2.56944 0
M  V30 4457 H 430.332 -7.64759 1.50875 0
M  V30 4458 N 434.561 -1.01147 -1.20859 0
M  V30 4459 C 435.524 -0.582224 -2.21682 0
M  V30 4460 C 436.524 0.344887 -1.57058 0
M  V30 4461 O 437.714 0.134281 -1.73682 0
M  V30 4462 C 434.846 0.150496 -3.40568 0
M  V30 4463 H 436.039 -1.47408 -2.61172 0
M  V30 4464 H 433.592 -0.800695 -1.34233 0
M  V30 4465 H 434.327 1.0575 -3.06574 0
M  V30 4466 H 434.112 -0.515444 -3.88697 0
M  V30 4467 H 435.602 0.438344 -4.15293 0
M  V30 4468 N 436.039 1.36541 -0.78704 0
M  V30 4469 C 437.286 1.99304 -0.358341 0
M  V30 4470 C 437.614 1.62467 1.06933 0
M  V30 4471 O 436.869 0.870019 1.75297 0
M  V30 4472 C 437.168 3.54343 -0.466485 0
M  V30 4473 C 436.834 4.10993 -1.85461 0
M  V30 4474 C 435.496 4.26177 -2.23443 0
M  V30 4475 C 437.848 4.41895 -2.76366 0
M  V30 4476 C 435.176 4.69573 -3.51736 0
M  V30 4477 C 437.528 4.86722 -4.04084 0
M  V30 4478 C 436.192 5.00112 -4.42091 0
M  V30 4479 H 435.462 0.729306 -0.131126 0
M  V30 4480 H 438.109 1.63068 -1.00404 0
M  V30 4481 H 436.414 3.90918 0.262719 0
M  V30 4482 H 438.111 4.00833 -0.115854 0
M  V30 4483 H 434.701 3.99612 -1.54946 0
M  V30 4484 H 438.885 4.29735 -2.48277 0
M  V30 4485 H 434.141 4.78127 -3.81057 0
M  V30 4486 H 438.315 5.09598 -4.7464 0
M  V30 4487 H 435.942 5.33498 -5.41557 0
M  V30 4488 N 437.518 0.538854 1.48102 0
M  V30 4489 C 438.465 -0.219042 2.29758 0
M  V30 4490 C 439.435 -0.925562 1.37922 0
M  V30 4491 O 440.62 -0.924855 1.66886 0
M  V30 4492 C 437.76 -1.25452 3.2149 0
M  V30 4493 C 436.873 -0.555943 4.28408 0
M  V30 4494 C 436.008 -1.57512 5.0731 0
M  V30 4495 C 435.047 -0.860498 6.06021 0
M  V30 4496 N 434.184 -1.82564 6.77949 0
M  V30 4497 H 439.024 0.483449 2.94052 0
M  V30 4498 H 436.561 0.250247 1.44956 0
M  V30 4499 H 438.519 -1.86727 3.7308 0
M  V30 4500 H 437.149 -1.92528 2.591 0
M  V30 4501 H 436.201 0.170938 3.80016 0
M  V30 4502 H 437.513 0.00474616 4.988 0
M  V30 4503 H 436.667 -2.26191 5.62959 0
M  V30 4504 H 435.406 -2.16972 4.36778 0
M  V30 4505 H 434.411 -0.159686 5.49568 0
M  V30 4506 H 435.636 -0.271897 6.78555 0
M  V30 4507 H 433.582 -2.40915 6.10161 0
M  V30 4508 H 433.499 -1.31662 7.44447 0
M  V30 4509 H 434.767 -2.50414 7.38182 0
M  V30 4510 N 438.996 -1.55193 0.274407 0
M  V30 4511 C 439.944 -2.23924 -0.629362 0
M  V30 4512 C 440.938 -1.23602 -1.1584 0
M  V30 4513 O 442.144 -1.41535 -1.11211 0
M  V30 4514 H 438.519 -0.718637 -0.221507 0
M  V30 4515 H 440.49 -2.98388 -0.0268322 0
M  V30 4516 C 439.239 -2.97329 -1.80252 0
M  V30 4517 H 438.562 -3.74313 -1.40462 0
M  V30 4518 H 440.002 -3.48743 -2.41152 0
M  V30 4519 C 438.461 -2.0276 -2.69054 0
M  V30 4520 O 438.991 -1.57836 -3.69392 0
M  V30 4521 N 437.197 -1.69275 -2.36208 0
M  V30 4522 H 436.744 -2.06004 -1.54661 0
M  V30 4523 H 436.702 -1.06271 -2.95895 0
M  V30 4524 N 440.474 -0.00167713 -1.576 0
M  V30 4525 C 441.702 0.693759 -1.94922 0
M  V30 4526 C 442.117 1.67215 -0.876626 0
M  V30 4527 O 441.474 1.81929 0.144279 0
M  V30 4528 C 441.525 1.42416 -3.32265 0
M  V30 4529 O 441.246 0.485014 -4.35407 0
M  V30 4530 C 442.747 2.21395 -3.84056 0
M  V30 4531 H 439.967 0.193118 -0.642609 0
M  V30 4532 H 442.511 -0.0532952 -2.04431 0
M  V30 4533 H 440.666 2.12284 -3.24059 0
M  V30 4534 H 441.08 1.00053 -5.14868 0
M  V30 4535 H 442.554 2.67996 -4.82578 0
M  V30 4536 H 443.031 3.04142 -3.16851 0
M  V30 4537 H 443.637 1.56542 -3.95443 0
M  V30 4538 N 441.952 1.55251 0.271103 0
M  V30 4539 C 443.368 1.47133 0.618393 0
M  V30 4540 C 443.568 0.686994 1.89427 0
M  V30 4541 O 442.624 0.206609 2.51653 0
M  V30 4542 C 443.937 2.91361 0.743593 0
M  V30 4543 C 445.485 3.01587 0.837522 0
M  V30 4544 C 445.96 4.47073 0.994483 0
M  V30 4545 N 447.451 4.50909 1.05996 0
M  V30 4546 C 448.186 5.60698 1.20024 0
M  V30 4547 N 447.682 6.80348 1.30759 0
M  V30 4548 N 449.475 5.48444 1.23149 0
M  V30 4549 H 441.626 2.04698 -0.566784 0
M  V30 4550 H 443.889 0.928319 -0.192165 0
M  V30 4551 H 443.595 3.51483 -0.123493 0
M  V30 4552 H 443.469 3.40484 1.62328 0
M  V30 4553 H 445.856 2.4156 1.69507 0
M  V30 4554 H 445.937 2.55713 -0.0668086 0
M  V30 4555 H 445.581 5.07703 0.141582 0
M  V30 4556 H 445.511 4.90605 1.91349 0
M  V30 4557 H 448.002 3.6472 0.989316 0
M  V30 4558 H 448.315 7.59772 1.41303 0
M  V30 4559 H 446.66 6.83156 1.27761 0
M  V30 4560 H 449.851 4.53907 1.14394 0
M  V30 4561 H 450.024 6.34049 1.33738 0
M  V30 4562 N 443.43 -0.535701 1.48216 0
M  V30 4563 C 444.66 -1.3148 1.59363 0
M  V30 4564 C 445.068 -1.8753 0.250844 0
M  V30 4565 O 444.411 -1.66821 -0.769174 0
M  V30 4566 C 444.473 -2.50731 2.57632 0
M  V30 4567 C 444.137 -2.15811 4.02833 0
M  V30 4568 C 445.134 -1.71822 4.90686 0
M  V30 4569 C 442.819 -2.26509 4.48329 0
M  V30 4570 C 444.813 -1.3899 6.22062 0
M  V30 4571 C 442.5 -1.93289 5.79726 0
M  V30 4572 C 443.498 -1.49599 6.66415 0
M  V30 4573 O 443.186 -1.16812 7.95368 0
M  V30 4574 H 442.918 -0.406315 0.540263 0
M  V30 4575 H 445.472 -0.653569 1.94725 0
M  V30 4576 H 443.702 -3.19817 2.1738 0
M  V30 4577 H 445.391 -3.12797 2.58675 0
M  V30 4578 H 446.157 -1.63031 4.56778 0
M  V30 4579 H 442.036 -2.59471 3.81045 0
M  V30 4580 H 445.58 -1.04816 6.89681 0
M  V30 4581 H 441.477 -2.01718 6.13172 0
M  V30 4582 H 442.245 -1.30259 8.08069 0
M  V30 4583 N 444.908 -1.36708 -0.784132 0
M  V30 4584 C 446.155 -1.31231 -1.54222 0
M  V30 4585 C 446.483 0.106864 -1.94206 0
M  V30 4586 O 445.738 1.07734 -1.63376 0
M  V30 4587 C 446.037 -2.18571 -2.82774 0
M  V30 4588 C 445.703 -3.67039 -2.61903 0
M  V30 4589 C 444.365 -4.07503 -2.55919 0
M  V30 4590 C 446.717 -4.61149 -2.4288 0
M  V30 4591 C 444.045 -5.40211 -2.28886 0
M  V30 4592 C 446.397 -5.94081 -2.17373 0
M  V30 4593 C 445.061 -6.33664 -2.09825 0
M  V30 4594 H 444.331 -0.48021 -0.56434 0
M  V30 4595 H 446.978 -1.68807 -0.904233 0
M  V30 4596 H 445.283 -1.73949 -3.51068 0
M  V30 4597 H 446.98 -2.11655 -3.40592 0
M  V30 4598 H 443.57 -3.34941 -2.67418 0
M  V30 4599 H 447.754 -4.30756 -2.46501 0
M  V30 4600 H 443.01 -5.69855 -2.21529 0
M  V30 4601 H 447.184 -6.66566 -2.01649 0
M  V30 4602 H 444.811 -7.36423 -1.88641 0
M  V30 4603 N 446.386 1.0089 -1.21074 0
M  V30 4604 C 447.316 2.1145 -0.990523 0
M  V30 4605 C 448.297 1.69897 0.0831699 0
M  V30 4606 O 449.482 1.94052 -0.0758853 0
M  V30 4607 C 446.612 3.42914 -0.550177 0
M  V30 4608 C 445.566 3.98244 -1.56799 0
M  V30 4609 C 444.892 5.25568 -0.984013 0
M  V30 4610 C 446.192 4.30752 -2.95381 0
M  V30 4611 H 447.886 2.3013 -1.91521 0
M  V30 4612 H 445.432 1.10592 -0.92225 0
M  V30 4613 H 447.385 4.19653 -0.383305 0
M  V30 4614 H 446.109 3.24014 0.41015 0
M  V30 4615 H 444.768 3.23621 -1.72236 0
M  V30 4616 H 444.416 5.02998 -0.0155216 0
M  V30 4617 H 444.116 5.63551 -1.66384 0
M  V30 4618 H 445.64 6.04955 -0.828378 0
M  V30 4619 H 447.054 4.98349 -2.8341 0
M  V30 4620 H 445.451 4.79869 -3.60341 0
M  V30 4621 H 446.521 3.39192 -3.46521 0
M  V30 4622 N 447.864 1.01787 1.20321 0
M  V30 4623 C 448.796 0.547357 2.22568 0
M  V30 4624 C 449.809 -0.370922 1.58518 0
M  V30 4625 O 450.998 -0.169067 1.77698 0
M  V30 4626 C 448.098 -0.223031 3.38165 0
M  V30 4627 C 447.271 0.697472 4.31803 0
M  V30 4628 C 446.33 -0.025562 5.26194 0
M  V30 4629 O 445.356 0.597367 5.66057 0
M  V30 4630 N 446.558 -1.29999 5.65757 0
M  V30 4631 H 449.323 1.42668 2.63564 0
M  V30 4632 H 446.884 0.895552 1.34876 0
M  V30 4633 H 448.876 -0.716002 3.98316 0
M  V30 4634 H 447.446 -1.00366 2.9605 0
M  V30 4635 H 446.666 1.37073 3.69601 0
M  V30 4636 H 447.954 1.32347 4.91286 0
M  V30 4637 H 447.352 -1.827 5.35385 0
M  V30 4638 H 445.909 -1.73766 6.28211 0
M  V30 4639 N 449.342 -1.36122 0.79427 0
M  V30 4640 C 450.591 -1.98361 0.365464 0
M  V30 4641 C 450.904 -1.6374 -1.06997 0
M  V30 4642 O 452.11 -2.19251 -1.60129 0
M  V30 4643 C 450.566 -3.54821 0.602496 0
M  V30 4644 C 450.174 -3.98362 2.04967 0
M  V30 4645 C 451.918 -4.2383 0.238437 0
M  V30 4646 C 449.825 -5.47619 2.2331 0
M  V30 4647 H 448.755 -0.742193 0.13291 0
M  V30 4648 H 451.406 -1.55354 0.976589 0
M  V30 4649 H 449.788 -3.95922 -0.078409 0
M  V30 4650 H 450.962 -3.68447 2.76737 0
M  V30 4651 H 449.277 -3.42206 2.37243 0
M  V30 4652 H 451.874 -5.33529 0.353705 0
M  V30 4653 H 452.217 -4.08264 -0.814006 0
M  V30 4654 H 452.75 -3.88108 0.872769 0
M  V30 4655 H 449.489 -5.68138 3.26955 0
M  V30 4656 H 449.009 -5.79145 1.5605 0
M  V30 4657 H 450.688 -6.13911 2.0426 0
M  V30 4658 N 450.82 -0.546701 -1.47814 0
M  V30 4659 C 452.097 0.0464413 -1.95545 0
M  V30 4660 C 452.477 1.4962 -1.48919 0
M  V30 4661 O 451.825 2.16752 -0.723232 0
M  V30 4662 C 452.035 -0.0881298 -3.48889 0
M  V30 4663 C 453.383 0.0626059 -4.24554 0
M  V30 4664 O 454.407 -0.0151555 -3.56197 0
M  V30 4665 O 453.266 0.228071 -5.46024 0
M  V30 4666 H 450.36 0.0700004 -0.824032 0
M  V30 4667 H 452.906 -0.612482 -1.58262 0
M  V30 4668 H 451.678 -1.09737 -3.75597 0
M  V30 4669 H 451.301 0.608886 -3.9291 0
M  V30 4670 N 452.299 1.55045 -0.282633 0
M  V30 4671 C 453.548 1.98938 0.332667 0
M  V30 4672 C 453.861 1.17455 1.56409 0
M  V30 4673 O 455.067 1.51527 2.25282 0
M  V30 4674 C 453.523 3.54105 0.643226 0
M  V30 4675 C 453.131 4.44374 -0.568814 0
M  V30 4676 C 454.875 4.06569 1.22074 0
M  V30 4677 C 452.782 5.90943 -0.232426 0
M  V30 4678 H 451.712 0.743043 0.128075 0
M  V30 4679 H 454.363 1.79341 -0.388464 0
M  V30 4680 H 452.745 3.69532 1.42346 0
M  V30 4681 H 453.919 4.40718 -1.34551 0
M  V30 4682 H 452.234 4.02585 -1.06369 0
M  V30 4683 H 454.831 5.13626 1.48635 0
M  V30 4684 H 455.174 3.56057 2.15707 0
M  V30 4685 H 455.707 3.94612 0.502621 0
M  V30 4686 H 452.446 6.45567 -1.13683 0
M  V30 4687 H 451.966 5.9765 0.507357 0
M  V30 4688 H 453.645 6.4677 0.172657 0
M  V30 4689 N 453.777 0.010035 1.57597 0
M  V30 4690 C 455.054 -0.710296 1.82248 0
M  V30 4691 C 455.434 -1.91426 0.889911 0
M  V30 4692 O 454.782 -2.28424 -0.0590292 0
M  V30 4693 C 454.992 -1.10655 3.30993 0
M  V30 4694 C 456.34 -1.50621 3.96987 0
M  V30 4695 O 457.364 -1.20007 3.35375 0
M  V30 4696 O 456.223 -2.07587 5.05539 0
M  V30 4697 H 453.317 -0.34673 0.750804 0
M  V30 4698 H 455.863 0.0362578 1.69661 0
M  V30 4699 H 454.635 -0.248826 3.90508 0
M  V30 4700 H 454.258 -1.91189 3.48615 0
M  V30 4701 N 455.255 -1.55392 -0.262866 0
M  V30 4702 C 456.666 -1.67079 -0.833158 0
M  V30 4703 C 457.017 -0.604539 -1.86654 0
M  V30 4704 O 456.142 0.252138 -2.14926 0
M  V30 4705 C 456.737 -3.02891 -1.51797 0
M  V30 4706 C 455.296 -3.16571 -2.03617 0
M  V30 4707 C 454.443 -2.62909 -0.881701 0
M  V30 4708 H 457.394 -1.58652 -0.0389986 0
M  V30 4709 H 457.415 -2.96445 -2.38538 0
M  V30 4710 H 456.927 -3.80473 -0.765619 0
M  V30 4711 H 455.028 -2.43782 -2.81782 0
M  V30 4712 H 455.141 -4.23271 -2.24452 0
M  V30 4713 H 453.505 -2.20324 -1.27786 0
M  V30 4714 H 454.288 -3.43003 -0.14269 0
M  V30 4715 N 456.733 0.527833 -1.48498 0
M  V30 4716 C 457.696 1.61439 -1.62696 0
M  V30 4717 C 458.696 1.52824 -0.500136 0
M  V30 4718 O 459.886 1.56456 -0.765976 0
M  V30 4719 C 457.018 3.01063 -1.59918 0
M  V30 4720 H 458.211 1.50189 -2.59583 0
M  V30 4721 H 455.764 0.750055 -1.37127 0
M  V30 4722 H 456.499 3.17818 -0.645163 0
M  V30 4723 H 456.284 3.08725 -2.41726 0
M  V30 4724 H 457.774 3.80057 -1.73051 0
M  V30 4725 N 458.211 1.37122 0.776871 0
M  V30 4726 C 459.158 1.3247 1.88998 0
M  V30 4727 C 460.128 0.191143 1.64997 0
M  V30 4728 O 461.313 0.379683 1.86984 0
M  V30 4729 C 458.453 1.13241 3.25992 0
M  V30 4730 C 457.566 2.35782 3.61982 0
M  V30 4731 C 456.701 2.09465 4.88158 0
M  V30 4732 C 455.74 3.279 5.16864 0
M  V30 4733 N 454.877 3.01167 6.34226 0
M  V30 4734 H 459.717 2.27642 1.9231 0
M  V30 4735 H 457.254 1.13125 0.94027 0
M  V30 4736 H 459.212 1.00115 4.0501 0
M  V30 4737 H 457.842 0.217186 3.22069 0
M  V30 4738 H 456.894 2.59666 2.77989 0
M  V30 4739 H 458.206 3.24125 3.79137 0
M  V30 4740 H 457.36 1.93341 5.75069 0
M  V30 4741 H 456.099 1.18452 4.73097 0
M  V30 4742 H 455.104 3.44569 4.2843 0
M  V30 4743 H 456.329 4.19757 5.33836 0
M  V30 4744 H 454.275 2.12779 6.20533 0
M  V30 4745 H 454.192 3.83052 6.51772 0
M  V30 4746 H 455.46 2.88649 7.24087 0
M  V30 4747 N 459.689 -1.00246 1.21608 0
M  V30 4748 C 460.619 -2.10921 1.00172 0
M  V30 4749 C 461.6 -1.69938 -0.0741587 0
M  V30 4750 O 462.785 -1.94009 0.0861753 0
M  V30 4751 C 459.915 -3.42618 0.568355 0
M  V30 4752 C 458.869 -3.97407 1.58909 0
M  V30 4753 C 458.195 -5.25038 1.01187 0
M  V30 4754 C 459.495 -4.2918 2.97661 0
M  V30 4755 H 461.189 -2.29112 1.92739 0
M  V30 4756 H 458.735 -1.10101 0.928102 0
M  V30 4757 H 460.688 -4.19444 0.405555 0
M  V30 4758 H 459.412 -3.24227 -0.392961 0
M  V30 4759 H 458.071 -3.22703 1.73949 0
M  V30 4760 H 457.719 -5.02982 0.0421965 0
M  V30 4761 H 457.419 -5.62661 1.6937 0
M  V30 4762 H 458.943 -6.04507 0.860448 0
M  V30 4763 H 460.357 -4.96839 2.86049 0
M  V30 4764 H 458.754 -4.77952 3.6288 0
M  V30 4765 H 459.824 -3.3735 3.48315 0
M  V30 4766 N 461.167 -1.02423 -1.1978 0
M  V30 4767 C 462.415 -0.716569 -1.8897 0
M  V30 4768 C 462.736 0.756769 -1.79716 0
M  V30 4769 O 462.006 1.5449 -1.20456 0
M  V30 4770 H 460.586 -0.262062 -0.699523 0
M  V30 4771 H 463.248 -1.29747 -1.45436 0
M  V30 4772 H 462.344 -1.00675 -2.95417 0
M  V30 4773 N 462.645 1.35699 -0.801477 0
M  V30 4774 C 463.592 2.29876 -0.206294 0
M  V30 4775 C 464.562 1.52565 0.656752 0
M  V30 4776 O 465.747 1.81024 0.602906 0
M  V30 4777 C 462.887 3.39052 0.643272 0
M  V30 4778 C 462 4.31335 -0.239644 0
M  V30 4779 C 461.135 5.27599 0.61744 0
M  V30 4780 C 460.174 6.11521 -0.26619 0
M  V30 4781 N 459.311 6.99938 0.550571 0
M  V30 4782 H 464.151 2.80187 -1.01484 0
M  V30 4783 H 461.688 1.37902 -0.511997 0
M  V30 4784 H 463.646 4.0101 1.15094 0
M  V30 4785 H 462.276 2.9003 1.41713 0
M  V30 4786 H 461.328 3.70426 -0.865381 0
M  V30 4787 H 462.64 4.90243 -0.919985 0
M  V30 4788 H 461.794 5.94906 1.19045 0
M  V30 4789 H 460.533 4.69176 1.33137 0
M  V30 4790 H 459.538 5.43166 -0.851507 0
M  V30 4791 H 460.763 6.72022 -0.9779 0
M  V30 4792 H 458.709 6.44008 1.24856 0
M  V30 4793 H 458.626 7.55966 -0.071832 0
M  V30 4794 H 459.894 7.71599 1.10702 0
M  V30 4795 N 464.123 0.554532 1.47522 0
M  V30 4796 C 465.539 0.214107 1.58157 0
M  V30 4797 C 465.739 -1.28331 1.55349 0
M  V30 4798 O 464.795 -2.06329 1.45549 0
M  V30 4799 C 466.108 0.838391 2.88776 0
M  V30 4800 C 467.656 0.809374 3.02354 0
M  V30 4801 C 468.131 1.41268 4.35669 0
M  V30 4802 N 469.622 1.37574 4.42298 0
M  V30 4803 C 470.357 1.8122 5.4401 0
M  V30 4804 N 469.853 2.3271 6.52547 0
M  V30 4805 N 471.646 1.72307 5.35039 0
M  V30 4806 H 463.797 1.52744 1.4759 0
M  V30 4807 H 466.06 0.636812 0.702264 0
M  V30 4808 H 465.766 1.89065 2.96559 0
M  V30 4809 H 465.64 0.329847 3.75755 0
M  V30 4810 H 468.027 -0.234187 2.94169 0
M  V30 4811 H 468.108 1.35565 2.16924 0
M  V30 4812 H 467.752 2.45529 4.4461 0
M  V30 4813 H 467.682 0.841871 5.19827 0
M  V30 4814 H 470.173 0.999081 3.64454 0
M  V30 4815 H 470.486 2.63944 7.26329 0
M  V30 4816 H 468.831 2.36719 6.53444 0
M  V30 4817 H 472.022 1.3186 4.49144 0
M  V30 4818 H 472.195 2.06641 6.14169 0
M  V30 4819 N 465.601 -1.54893 0.290851 0
M  V30 4820 C 466.551 -2.19838 -0.604599 0
M  V30 4821 C 467.535 -1.16805 -1.10659 0
M  V30 4822 O 468.727 -1.42562 -1.04905 0
M  V30 4823 C 465.856 -2.93497 -1.78086 0
M  V30 4824 C 464.942 -4.03835 -1.29531 0
M  V30 4825 N 465.333 -5.03047 -0.527024 0
M  V30 4826 C 463.631 -4.17192 -1.57693 0
M  V30 4827 C 464.332 -5.81074 -0.269728 0
M  V30 4828 N 463.308 -5.36966 -0.846651 0
M  V30 4829 H 467.11 -2.93898 -0.00995032 0
M  V30 4830 H 464.624 -1.62121 0.0951353 0
M  V30 4831 H 466.621 -3.38484 -2.43381 0
M  V30 4832 H 465.281 -2.2095 -2.37931 0
M  V30 4833 H 466.292 -5.17611 -0.172872 0
M  V30 4834 H 462.969 -3.55845 -2.18359 0
M  V30 4835 H 464.359 -6.71005 0.346643 0
M  V30 4836 N 467.08 -0.0183926 -1.57589 0
M  V30 4837 C 468.027 0.967022 -2.09565 0
M  V30 4838 C 468.997 1.32983 -0.995225 0
M  V30 4839 O 470.182 1.42501 -1.26878 0
M  V30 4840 C 467.322 2.24772 -2.61861 0
M  V30 4841 C 466.435 1.94232 -3.85873 0
M  V30 4842 C 465.57 3.16518 -4.26603 0
M  V30 4843 C 464.609 2.81748 -5.43401 0
M  V30 4844 N 463.746 3.96626 -5.79338 0
M  V30 4845 H 468.586 0.516874 -2.93483 0
M  V30 4846 H 466.123 0.243544 -1.4507 0
M  V30 4847 H 468.081 2.99667 -2.90268 0
M  V30 4848 H 466.711 2.67423 -1.8079 0
M  V30 4849 H 465.763 1.09625 -3.64262 0
M  V30 4850 H 467.075 1.64616 -4.70853 0
M  V30 4851 H 466.229 3.99743 -4.56389 0
M  V30 4852 H 464.968 3.49286 -3.40368 0
M  V30 4853 H 463.973 1.96933 -5.1332 0
M  V30 4854 H 465.198 2.50207 -6.31327 0
M  V30 4855 H 463.144 4.29257 -4.96059 0
M  V30 4856 H 463.061 3.70598 -6.58933 0
M  V30 4857 H 464.329 4.80586 -6.13724 0
M  V30 4858 N 468.558 1.5553 0.254621 0
M  V30 4859 C 469.786 1.81046 1.00149 0
M  V30 4860 C 470.201 0.593047 1.79244 0
M  V30 4861 O 469.558 -0.438196 1.77161 0
M  V30 4862 C 469.609 3.04684 1.94551 0
M  V30 4863 O 469.33 4.21725 1.18658 0
M  V30 4864 C 470.831 3.42943 2.80901 0
M  V30 4865 H 468.051 0.602653 0.295044 0
M  V30 4866 H 470.595 2.02576 0.279842 0
M  V30 4867 H 468.75 2.85226 2.62154 0
M  V30 4868 H 469.164 4.91746 1.82445 0
M  V30 4869 H 470.638 4.32576 3.42902 0
M  V30 4870 H 471.115 2.63176 3.51617 0
M  V30 4871 H 471.721 3.64724 2.18762 0
M  V30 4872 N 470.036 -0.519951 1.48776 0
M  V30 4873 C 471.313 -1.28123 1.47797 0
M  V30 4874 C 471.693 -2.10196 0.195157 0
M  V30 4875 O 471.041 -2.13167 -0.822925 0
M  V30 4876 C 471.251 -2.15413 2.74587 0
M  V30 4877 C 472.599 -2.75225 3.23321 0
M  V30 4878 O 473.623 -2.25694 2.75574 0
M  V30 4879 O 472.482 -3.65346 4.06429 0
M  V30 4880 H 469.576 -0.578793 0.590701 0
M  V30 4881 H 472.122 -0.535779 1.6102 0
M  V30 4882 H 470.894 -1.54617 3.59457 0
M  V30 4883 H 470.517 -2.97186 2.64132 0
M  V30 4884 N 471.514 -1.37532 -0.769588 0
M  V30 4885 C 472.763 -1.32183 -1.5235 0
M  V30 4886 C 473.076 0.0906555 -1.9539 0
M  V30 4887 O 474.282 0.266628 -2.70188 0
M  V30 4888 C 472.738 -2.32029 -2.75119 0
M  V30 4889 C 472.346 -3.78816 -2.3917 0
M  V30 4890 C 474.09 -2.35694 -3.53056 0
M  V30 4891 C 471.997 -4.70388 -3.58453 0
M  V30 4892 H 470.927 -0.491275 -0.571984 0
M  V30 4893 H 473.578 -1.63004 -0.842739 0
M  V30 4894 H 471.96 -1.94229 -3.45096 0
M  V30 4895 H 473.134 -4.25466 -1.76962 0
M  V30 4896 H 471.449 -3.78117 -1.74402 0
M  V30 4897 H 474.046 -3.01312 -4.41718 0
M  V30 4898 H 474.389 -1.37117 -3.93071 0
M  V30 4899 H 474.922 -2.72212 -2.90078 0
M  V30 4900 H 471.661 -5.70102 -3.23518 0
M  V30 4901 H 471.181 -4.28442 -4.19758 0
M  V30 4902 H 472.86 -4.87628 -4.25239 0
M  V30 4903 N 472.992 0.995999 -1.22138 0
M  V30 4904 C 473.955 2.06711 -0.990109 0
M  V30 4905 C 474.955 1.60744 0.0422978 0
M  V30 4906 O 476.145 1.73095 -0.195895 0
M  V30 4907 C 473.277 3.37288 -0.49491 0
M  V30 4908 H 474.47 2.28661 -1.94047 0
M  V30 4909 H 472.023 1.16711 -1.03963 0
M  V30 4910 H 472.758 3.21022 0.459948 0
M  V30 4911 H 472.543 3.71986 -1.23971 0
M  V30 4912 H 474.033 4.16103 -0.353253 0
M  V30 4913 N 474.47 1.03057 1.19235 0
M  V30 4914 C 475.716 0.729098 1.89241 0
M  V30 4915 C 476.049 -0.740573 1.79525 0
M  V30 4916 O 475.324 -1.53946 1.18874 0
M  V30 4917 C 475.607 1.18304 3.40112 0
M  V30 4918 C 475.46 2.71406 3.5869 0
M  V30 4919 C 476.779 0.765161 4.33397 0
M  V30 4920 H 473.898 0.266338 0.687192 0
M  V30 4921 H 476.54 1.28079 1.40341 0
M  V30 4922 H 474.69 0.713672 3.81889 0
M  V30 4923 H 476.362 3.26303 3.26074 0
M  V30 4924 H 474.605 3.11717 3.01687 0
M  V30 4925 H 475.276 2.98225 4.64506 0
M  V30 4926 H 477.752 1.16889 3.99345 0
M  V30 4927 H 476.628 1.11065 5.37546 0
M  V30 4928 H 476.889 -0.332372 4.40849 0
M  V30 4929 N 475.948 -1.35272 0.808662 0
M  V30 4930 C 476.878 -2.32315 0.234981 0
M  V30 4931 C 477.859 -1.57572 -0.64071 0
M  V30 4932 O 479.044 -1.8563 -0.570551 0
M  V30 4933 C 476.174 -3.41801 -0.615601 0
M  V30 4934 C 475.128 -4.27694 0.161767 0
M  V30 4935 C 474.454 -5.28519 -0.810649 0
M  V30 4936 C 475.754 -5.04231 1.36193 0
M  V30 4937 H 477.448 -2.80543 1.04575 0
M  V30 4938 H 474.994 -1.3488 0.504315 0
M  V30 4939 H 476.947 -4.08693 -1.02702 0
M  V30 4940 H 475.671 -2.92186 -1.45928 0
M  V30 4941 H 474.33 -3.62384 0.554382 0
M  V30 4942 H 473.978 -4.75171 -1.64988 0
M  V30 4943 H 473.678 -5.8686 -0.294822 0
M  V30 4944 H 475.202 -5.98283 -1.22023 0
M  V30 4945 H 476.616 -5.64058 1.02528 0
M  V30 4946 H 475.013 -5.72077 1.81239 0
M  V30 4947 H 476.083 -4.34753 2.14751 0
M  V30 4948 N 477.426 -0.562348 -1.47226 0
M  V30 4949 C 478.389 0.172056 -2.28553 0
M  V30 4950 C 479.389 0.837928 -1.37242 0
M  V30 4951 O 480.579 0.693001 -1.59822 0
M  V30 4952 C 477.711 1.25223 -3.17068 0
M  V30 4953 H 478.904 -0.542401 -2.94954 0
M  V30 4954 H 476.457 -0.319493 -1.53 0
M  V30 4955 H 477.192 1.99892 -2.55369 0
M  V30 4956 H 476.977 0.779515 -3.84273 0
M  V30 4957 H 478.467 1.76791 -3.78332 0
M  V30 4958 N 478.904 1.54736 -0.299062 0
M  V30 4959 C 480.181 1.92187 0.363802 0
M  V30 4960 C 480.561 1.22607 1.71845 0
M  V30 4961 O 479.909 0.361141 2.25628 0
M  V30 4962 C 480.119 3.45678 0.480377 0
M  V30 4963 C 481.467 4.17885 0.752147 0
M  V30 4964 O 482.491 3.51702 0.564264 0
M  V30 4965 O 481.35 5.35048 1.11294 0
M  V30 4966 H 478.444 0.801681 0.203066 0
M  V30 4967 H 480.99 1.66115 -0.346978 0
M  V30 4968 H 479.762 3.88443 -0.471999 0
M  V30 4969 H 479.385 3.77779 1.2397 0
M  V30 4970 N 480.382 0.0267497 1.57577 0
M  V30 4971 C 481.345 -0.940916 2.08996 0
M  V30 4972 C 482.345 -1.25561 1.00455 0
M  V30 4973 O 483.535 -1.19634 1.26623 0
M  V30 4974 C 480.667 -2.25814 2.55384 0
M  V30 4975 H 481.86 -0.495628 2.95776 0
M  V30 4976 H 479.413 -0.221241 1.54726 0
M  V30 4977 H 480.148 -2.74976 1.71926 0
M  V30 4978 H 479.933 -2.04285 3.34679 0
M  V30 4979 H 481.423 -2.95178 2.95398 0
M  V30 4980 N 481.861 -1.55662 -0.24637 0
M  V30 4981 C 482.793 -1.86811 -1.32794 0
M  V30 4982 C 483.806 -0.754413 -1.44265 0
M  V30 4983 O 484.995 -1.03253 -1.45606 0
M  V30 4984 C 482.095 -2.0397 -2.70646 0
M  V30 4985 C 481.268 -3.34832 -2.81436 0
M  V30 4986 C 480.327 -3.41727 -4.00136 0
M  V30 4987 O 479.353 -4.14934 -3.89639 0
M  V30 4988 N 480.555 -2.71058 -5.1333 0
M  V30 4989 H 483.32 -2.80174 -1.06409 0
M  V30 4990 H 480.881 -1.55906 -0.43647 0
M  V30 4991 H 482.873 -2.05924 -3.48393 0
M  V30 4992 H 481.443 -1.1735 -2.89738 0
M  V30 4993 H 480.663 -3.4519 -1.90361 0
M  V30 4994 H 481.951 -4.21085 -2.85595 0
M  V30 4995 H 481.349 -2.11314 -5.2475 0
M  V30 4996 H 479.906 -2.78704 -5.89209 0
M  V30 4997 N 483.339 0.512053 -1.4905 0
M  V30 4998 C 484.286 1.6148 -1.64902 0
M  V30 4999 C 485.256 1.58687 -0.490673 0
M  V30 5000 O 486.441 1.76842 -0.71636 0
M  V30 5001 C 483.581 2.99676 -1.71139 0
M  V30 5002 C 482.694 3.12568 -2.98203 0
M  V30 5003 C 481.829 4.4143 -2.95487 0
M  V30 5004 C 480.868 4.47916 -4.17179 0
M  V30 5005 N 480.005 5.68191 -4.12437 0
M  V30 5006 H 484.845 1.47271 -2.59066 0
M  V30 5007 H 482.382 0.716713 -1.28459 0
M  V30 5008 H 484.34 3.79761 -1.72736 0
M  V30 5009 H 482.97 3.12614 -0.804508 0
M  V30 5010 H 482.022 2.25618 -3.06269 0
M  V30 5011 H 483.334 3.1322 -3.88194 0
M  V30 5012 H 482.488 5.29825 -2.95585 0
M  V30 5013 H 481.227 4.43326 -2.03256 0
M  V30 5014 H 480.232 3.57925 -4.17337 0
M  V30 5015 H 481.457 4.47744 -5.1059 0
M  V30 5016 H 479.403 5.7095 -3.23036 0
M  V30 5017 H 479.32 5.70413 -4.96151 0
M  V30 5018 H 480.588 6.58823 -4.16621 0
M  V30 5019 N 484.817 1.37938 0.762283 0
M  V30 5020 C 486.045 1.36883 1.55147 0
M  V30 5021 C 486.46 -0.0435348 1.8875 0
M  V30 5022 O 485.817 -1.00786 1.52146 0
M  V30 5023 C 485.868 2.21624 2.85596 0
M  V30 5024 O 485.589 3.57358 2.5343 0
M  V30 5025 C 487.09 2.28653 3.7978 0
M  V30 5026 H 484.31 0.468521 0.480343 0
M  V30 5027 H 486.854 1.81404 0.944079 0
M  V30 5028 H 485.009 1.80588 3.42734 0
M  V30 5029 H 485.423 4.01883 3.37032 0
M  V30 5030 H 486.897 2.9225 4.68288 0
M  V30 5031 H 487.374 1.29767 4.19592 0
M  V30 5032 H 487.98 2.70043 3.28568 0
M  V30 5033 N 486.295 -0.989507 1.22664 0
M  V30 5034 C 487.225 -2.09847 1.02404 0
M  V30 5035 C 488.206 -1.70007 -0.0561303 0
M  V30 5036 O 489.391 -1.93906 0.106748 0
M  V30 5037 C 486.521 -3.41996 0.604663 0
M  V30 5038 C 485.475 -3.95699 1.63115 0
M  V30 5039 C 484.801 -5.23936 1.0675 0
M  V30 5040 C 486.101 -4.25999 3.02196 0
M  V30 5041 H 487.795 -2.27054 1.95158 0
M  V30 5042 H 485.341 -1.09111 0.939727 0
M  V30 5043 H 487.294 -4.1899 0.45002 0
M  V30 5044 H 486.018 -3.24626 -0.35855 0
M  V30 5045 H 484.677 -3.2084 1.77362 0
M  V30 5046 H 484.325 -5.02909 0.0955422 0
M  V30 5047 H 484.025 -5.60833 1.75328 0
M  V30 5048 H 485.549 -6.0356 0.924516 0
M  V30 5049 H 486.963 -4.93777 2.91303 0
M  V30 5050 H 485.36 -4.74076 3.67929 0
M  V30 5051 H 486.43 -3.33636 3.51873 0
M  V30 5052 N 487.773 -1.03688 -1.18687 0
M  V30 5053 C 488.736 -0.629115 -2.20397 0
M  V30 5054 C 489.736 0.311495 -1.57754 0
M  V30 5055 O 490.926 0.0974107 -1.73927 0
M  V30 5056 C 488.058 0.0782231 -3.4081 0
M  V30 5057 H 489.251 -1.52915 -2.57987 0
M  V30 5058 H 486.804 -0.828988 -1.32505 0
M  V30 5059 H 487.539 0.992233 -3.08748 0
M  V30 5060 H 487.324 -0.597776 -3.87517 0
M  V30 5061 H 488.814 0.350156 -4.16129 0
M  V30 5062 N 489.251 1.34841 -0.815825 0
M  V30 5063 C 490.214 2.27959 -0.238185 0
M  V30 5064 C 491.214 1.49983 0.579816 0
M  V30 5065 O 492.404 1.69617 0.396953 0
M  V30 5066 C 489.536 3.34314 0.666876 0
M  V30 5067 H 490.729 2.80558 -1.05958 0
M  V30 5068 H 488.282 1.44852 -0.587156 0
M  V30 5069 H 489.017 2.86916 1.5116 0
M  V30 5070 H 488.802 3.92014 0.0819106 0
M  V30 5071 H 490.292 4.0379 1.06506 0
M  V30 5072 N 490.729 0.570148 1.46925 0
M  V30 5073 C 491.978 0.0487352 2.01641 0
M  V30 5074 C 492.291 -1.31433 1.44861 0
M  V30 5075 O 493.497 -1.92638 1.91318 0
M  V30 5076 C 491.953 0.0365817 3.59881 0
M  V30 5077 C 491.561 1.39719 4.25655 0
M  V30 5078 C 493.305 -0.431545 4.22301 0
M  V30 5079 C 491.212 1.34345 5.75939 0
M  V30 5080 H 490.142 0.0144492 0.753862 0
M  V30 5081 H 492.793 0.719928 1.68788 0
M  V30 5082 H 491.175 -0.700522 3.89755 0
M  V30 5083 H 492.349 2.15303 4.07408 0
M  V30 5084 H 490.664 1.80431 3.75278 0
M  V30 5085 H 493.261 -0.490354 5.32447 0
M  V30 5086 H 493.604 -1.44638 3.90366 0
M  V30 5087 H 494.137 0.251102 3.97007 0
M  V30 5088 H 490.876 2.33469 6.12513 0
M  V30 5089 H 490.396 0.629615 5.96486 0
M  V30 5090 H 492.075 1.051 6.38407 0
M  V30 5091 N 492.207 -1.54576 0.307264 0
M  V30 5092 C 493.137 -2.26708 -0.55907 0
M  V30 5093 C 494.118 -1.26893 -1.1328 0
M  V30 5094 O 495.303 -1.55677 -1.16097 0
M  V30 5095 C 492.433 -3.01259 -1.72801 0
M  V30 5096 C 491.387 -4.08275 -1.28435 0
M  V30 5097 C 490.713 -4.70575 -2.53895 0
M  V30 5098 C 492.013 -5.2068 -0.411038 0
M  V30 5099 H 493.707 -2.9937 0.042576 0
M  V30 5100 H 491.253 -1.43983 0.0219173 0
M  V30 5101 H 493.206 -3.50444 -2.34023 0
M  V30 5102 H 491.93 -2.26187 -2.356 0
M  V30 5103 H 490.589 -3.59949 -0.695161 0
M  V30 5104 H 490.237 -3.92136 -3.15021 0
M  V30 5105 H 489.937 -5.42854 -2.24908 0
M  V30 5106 H 491.461 -5.22527 -3.15908 0
M  V30 5107 H 492.875 -5.65721 -0.929097 0
M  V30 5108 H 491.272 -5.99716 -0.214664 0
M  V30 5109 H 492.342 -4.81629 0.562287 0
M  V30 5110 N 493.685 -0.035106 -1.57561 0
M  V30 5111 C 494.648 0.929819 -2.09492 0
M  V30 5112 C 495.648 1.25026 -1.01119 0
M  V30 5113 O 496.838 1.18961 -1.27255 0
M  V30 5114 C 493.97 2.24457 -2.56577 0
M  V30 5115 H 495.163 0.479935 -2.96035 0
M  V30 5116 H 492.716 0.213033 -1.54841 0
M  V30 5117 H 493.451 2.74061 -1.73382 0
M  V30 5118 H 493.236 2.02508 -3.35757 0
M  V30 5119 H 494.726 2.93607 -2.96959 0
M  V30 5120 N 495.163 1.55791 0.238111 0
M  V30 5121 C 496.095 1.87513 1.31802 0
M  V30 5122 C 497.108 0.762053 1.43863 0
M  V30 5123 O 498.297 1.04024 1.45056 0
M  V30 5124 C 495.397 2.05402 2.69561 0
M  V30 5125 C 494.57 3.3632 2.79656 0
M  V30 5126 C 493.629 3.43844 3.98319 0
M  V30 5127 O 492.655 4.16994 3.87433 0
M  V30 5128 N 493.857 2.73777 5.11885 0
M  V30 5129 H 496.622 2.80734 1.04922 0
M  V30 5130 H 494.183 1.56135 0.428196 0
M  V30 5131 H 496.175 2.07769 3.47296 0
M  V30 5132 H 494.745 1.18884 2.89111 0
M  V30 5133 H 493.965 3.46195 1.88528 0
M  V30 5134 H 495.253 4.22594 2.83358 0
M  V30 5135 H 494.651 2.14094 5.23622 0
M  V30 5136 H 493.208 2.81825 5.87723 0
M  V30 5137 N 496.642 -0.504142 1.49319 0
M  V30 5138 C 497.888 -1.26033 1.58882 0
M  V30 5139 C 498.221 -1.92268 0.273274 0
M  V30 5140 O 497.496 -1.80567 -0.72291 0
M  V30 5141 C 497.779 -2.32976 2.7458 0
M  V30 5142 C 497.632 -1.71263 4.1592 0
M  V30 5143 C 498.951 -3.34561 2.85932 0
M  V30 5144 H 496.07 -0.456863 0.578312 0
M  V30 5145 H 498.712 -0.558965 1.81592 0
M  V30 5146 H 496.862 -2.92796 2.55348 0
M  V30 5147 H 498.534 -1.15294 4.4666 0
M  V30 5148 H 496.777 -1.01686 4.21714 0
M  V30 5149 H 497.448 -2.48816 4.92742 0
M  V30 5150 H 499.924 -2.84727 3.0343 0
M  V30 5151 H 498.8 -4.06754 3.68568 0
M  V30 5152 H 499.061 -3.96695 1.95154 0
M  V30 5153 N 498.12 -1.38341 -0.754957 0
M  V30 5154 C 499.345 -1.37882 -1.5493 0
M  V30 5155 C 499.77 0.0296385 -1.88077 0
M  V30 5156 O 499.128 1.01133 -1.50472 0
M  V30 5157 C 499.176 -2.23996 -2.82592 0
M  V30 5158 O 498.28 -1.65612 -3.77686 0
M  V30 5159 H 497.621 -0.470384 -0.468652 0
M  V30 5160 H 500.151 -1.82084 -0.933082 0
M  V30 5161 H 500.161 -2.37806 -3.3153 0
M  V30 5162 H 498.836 -3.26365 -2.57796 0
M  V30 5163 H 497.413 -1.60936 -3.36384 0
M  V30 5164 N 499.598 0.982988 -1.23187 0
M  V30 5165 C 500.508 2.10907 -1.02739 0
M  V30 5166 C 501.524 1.73979 0.0273188 0
M  V30 5167 O 502.7 2.00702 -0.16757 0
M  V30 5168 C 499.765 3.41142 -0.618304 0
M  V30 5169 C 498.826 3.92112 -1.74777 0
M  V30 5170 C 498.059 5.16131 -1.3581 0
M  V30 5171 O 498.282 5.6989 -0.241201 0
M  V30 5172 O 497.216 5.61103 -2.17824 0
M  V30 5173 H 501.042 2.31046 -1.97108 0
M  V30 5174 H 498.627 1.09284 -1.01869 0
M  V30 5175 H 500.509 4.19488 -0.400982 0
M  V30 5176 H 499.184 3.2234 0.296421 0
M  V30 5177 H 498.091 3.14895 -2.0197 0
M  V30 5178 H 499.424 4.15364 -2.64071 0
M  V30 5179 N 501.076 1.04316 1.18135 0
M  V30 5180 C 502.492 0.762858 1.40188 0
M  V30 5181 C 502.692 -0.646547 1.90846 0
M  V30 5182 O 501.748 -1.41036 2.0944 0
M  V30 5183 C 503.061 1.81106 2.40044 0
M  V30 5184 C 504.609 1.83226 2.53766 0
M  V30 5185 C 505.084 2.87044 3.56889 0
M  V30 5186 N 506.575 2.85951 3.64398 0
M  V30 5187 C 507.31 3.62932 4.43923 0
M  V30 5188 N 506.806 4.49672 5.27036 0
M  V30 5189 N 508.599 3.51411 4.38711 0
M  V30 5190 H 500.75 1.95264 0.835805 0
M  V30 5191 H 503.013 0.845017 0.429709 0
M  V30 5192 H 502.719 2.82214 2.09876 0
M  V30 5193 H 502.593 1.64529 3.39426 0
M  V30 5194 H 504.98 0.827869 2.8325 0
M  V30 5195 H 505.061 2.03879 1.54489 0
M  V30 5196 H 504.705 3.87663 3.28145 0
M  V30 5197 H 504.635 2.63645 4.5585 0
M  V30 5198 H 507.126 2.23051 3.05052 0
M  V30 5199 H 507.439 5.05116 5.84874 0
M  V30 5200 H 505.784 4.53738 5.26447 0
M  V30 5201 H 508.975 2.83047 3.72829 0
M  V30 5202 H 509.148 4.11654 5.00445 0
M  V30 5203 N 502.554 -1.34406 0.822964 0
M  V30 5204 C 503.464 -2.33298 0.246838 0
M  V30 5205 C 504.48 -1.62625 -0.618797 0
M  V30 5206 O 505.656 -1.94391 -0.526685 0
M  V30 5207 C 502.721 -3.41785 -0.581731 0
M  V30 5208 C 501.782 -4.28206 0.306309 0
M  V30 5209 C 501.015 -5.31512 -0.48281 0
M  V30 5210 O 501.238 -5.43973 -1.71607 0
M  V30 5211 O 500.172 -6.01749 0.134884 0
M  V30 5212 H 503.998 -2.84401 1.06534 0
M  V30 5213 H 501.583 -1.37466 0.585108 0
M  V30 5214 H 503.465 -4.08028 -1.05313 0
M  V30 5215 H 502.14 -2.92925 -1.37756 0
M  V30 5216 H 501.047 -3.64885 0.825199 0
M  V30 5217 H 502.38 -4.80507 1.06649 0
M  V30 5218 N 504.032 -0.577932 -1.46621 0
M  V30 5219 C 505.257 -0.0652536 -2.07297 0
M  V30 5220 C 505.682 1.22828 -1.4246 0
M  V30 5221 O 505.04 1.74075 -0.506718 0
M  V30 5222 C 505.088 0.0920589 -3.60482 0
M  V30 5223 O 504.192 1.14972 -3.96049 0
M  V30 5224 H 503.533 -0.06065 -0.661224 0
M  V30 5225 H 506.063 -0.799515 -1.88332 0
M  V30 5226 H 506.073 0.299741 -4.06897 0
M  V30 5227 H 504.748 -0.852612 -4.07067 0
M  V30 5228 H 503.325 0.920879 -3.61351 0
M  V30 5229 N 505.51 1.54411 -0.315457 0
M  V30 5230 C 506.738 2.04833 0.291738 0
M  V30 5231 C 507.153 1.19203 1.46411 0
M  V30 5232 O 506.51 0.220867 1.81159 0
M  V30 5233 C 506.561 3.53969 0.73404 0
M  V30 5234 O 506.282 4.36346 -0.391682 0
M  V30 5235 C 507.783 4.2045 1.40489 0
M  V30 5236 H 505.003 0.668195 0.0612947 0
M  V30 5237 H 507.547 1.99276 -0.45929 0
M  V30 5238 H 505.702 3.5984 1.43506 0
M  V30 5239 H 506.116 5.24481 -0.0447088 0
M  V30 5240 H 507.59 5.26278 1.66539 0
M  V30 5241 H 508.067 3.71067 2.3496 0
M  V30 5242 H 508.673 4.18694 0.746662 0
M  V30 5243 N 506.988 0.0434614 1.5754 0
M  V30 5244 C 508.399 -0.493343 1.80064 0
M  V30 5245 C 508.75 -1.71388 0.955023 0
M  V30 5246 O 507.875 -2.15736 0.169434 0
M  V30 5247 C 508.47 -0.90179 3.26578 0
M  V30 5248 C 507.029 -1.38362 3.50047 0
M  V30 5249 C 506.176 -0.355129 2.75017 0
M  V30 5250 H 509.127 0.2694 1.56397 0
M  V30 5251 H 509.148 -1.76523 3.37075 0
M  V30 5252 H 508.66 -0.013271 3.88098 0
M  V30 5253 H 506.761 -2.29159 2.93798 0
M  V30 5254 H 506.874 -1.3811 4.58762 0
M  V30 5255 H 505.238 -0.826348 2.40922 0
M  V30 5256 H 506.021 0.525172 3.39259 0
M  V30 5257 N 508.466 -1.55915 -0.229846 0
M  V30 5258 C 509.712 -1.79718 -0.952517 0
M  V30 5259 C 510.067 -0.61514 -1.82301 0
M  V30 5260 O 509.36 0.391098 -1.87566 0
M  V30 5261 C 509.554 -3.06845 -1.8325 0
M  V30 5262 C 509.383 -4.37302 -1.04868 0
M  V30 5263 C 508.153 -4.99749 -0.746932 0
M  V30 5264 C 510.351 -5.12599 -0.417989 0
M  V30 5265 N 508.333 -6.13871 0.0591596 0
M  V30 5266 C 509.704 -6.19488 0.251879 0
M  V30 5267 C 511.759 -4.96804 -0.33018 0
M  V30 5268 C 510.462 -7.12299 1.00115 0
M  V30 5269 C 512.488 -5.90007 0.4056 0
M  V30 5270 C 511.85 -6.96317 1.06404 0
M  V30 5271 H 507.949 -0.709382 -0.329091 0
M  V30 5272 H 510.533 -1.93406 -0.224114 0
M  V30 5273 H 508.704 -2.94456 -2.53279 0
M  V30 5274 H 510.436 -3.18874 -2.49202 0
M  V30 5275 H 507.191 -4.61518 -1.06292 0
M  V30 5276 H 507.615 -6.75497 0.450798 0
M  V30 5277 H 512.257 -4.14675 -0.824898 0
M  V30 5278 H 509.975 -7.93916 1.50741 0
M  V30 5279 H 513.561 -5.79862 0.474436 0
M  V30 5280 H 512.441 -7.67194 1.62429 0
M  V30 5281 N 509.944 0.496216 -1.49584 0
M  V30 5282 C 511.19 1.24918 -1.60521 0
M  V30 5283 C 511.545 1.90197 -0.290352 0
M  V30 5284 O 510.838 1.77967 0.709813 0
M  V30 5285 C 511.032 2.3359 -2.705 0
M  V30 5286 C 510.861 1.78969 -4.12553 0
M  V30 5287 C 509.631 1.60057 -4.79281 0
M  V30 5288 C 511.829 1.29883 -4.97629 0
M  V30 5289 N 509.811 1.00415 -6.05632 0
M  V30 5290 C 511.182 0.824057 -6.14499 0
M  V30 5291 C 513.237 1.18501 -4.83593 0
M  V30 5292 C 511.94 0.246721 -7.18877 0
M  V30 5293 C 513.966 0.621634 -5.88124 0
M  V30 5294 C 513.328 0.157116 -7.04225 0
M  V30 5295 H 509.427 0.446896 -0.641722 0
M  V30 5296 H 512.011 0.555456 -1.86609 0
M  V30 5297 H 510.182 3.00418 -2.46178 0
M  V30 5298 H 511.914 3.00628 -2.70933 0
M  V30 5299 H 508.669 1.84562 -4.36158 0
M  V30 5300 H 509.093 0.725074 -6.73106 0
M  V30 5301 H 513.735 1.53012 -3.94141 0
M  V30 5302 H 511.453 -0.110651 -8.08024 0
M  V30 5303 H 515.039 0.536279 -5.79323 0
M  V30 5304 H 513.919 -0.272009 -7.83728 0
M  V30 5305 N 511.423 1.38739 0.74761 0
M  V30 5306 C 512.355 1.32341 1.87132 0
M  V30 5307 C 513.368 0.234502 1.61102 0
M  V30 5308 O 514.557 0.492516 1.71571 0
M  V30 5309 C 511.657 1.02915 3.22896 0
M  V30 5310 C 510.83 2.22834 3.76383 0
M  V30 5311 C 509.889 1.90059 4.90677 0
M  V30 5312 O 508.915 2.62615 5.04997 0
M  V30 5313 N 510.117 0.859141 5.74107 0
M  V30 5314 H 512.882 2.29175 1.93129 0
M  V30 5315 H 510.443 1.32678 0.927805 0
M  V30 5316 H 512.435 0.79031 3.96908 0
M  V30 5317 H 511.005 0.148572 3.12247 0
M  V30 5318 H 510.225 2.62747 2.93867 0
M  V30 5319 H 511.513 3.02851 4.08851 0
M  V30 5320 H 510.911 0.257564 5.65113 0
M  V30 5321 H 509.468 0.680189 6.48241 0
M  V30 5322 N 512.901 -0.976442 1.23707 0
M  V30 5323 C 513.864 -2.0511 1.02287 0
M  V30 5324 C 514.864 -1.60791 -0.0167195 0
M  V30 5325 O 516.054 -1.72761 0.223408 0
M  V30 5326 C 513.186 -3.36458 0.548507 0
M  V30 5327 H 514.379 -2.25545 1.9766 0
M  V30 5328 H 511.932 -1.15042 1.05806 0
M  V30 5329 H 512.667 -3.21713 -0.408818 0
M  V30 5330 H 512.452 -3.69967 1.29874 0
M  V30 5331 H 513.942 -4.15489 0.419406 0
M  V30 5332 N 514.379 -1.04941 -1.1758 0
M  V30 5333 C 515.327 -0.64204 -2.23563 0
M  V30 5334 C 516.321 0.335453 -1.66045 0
M  V30 5335 O 517.527 0.20179 -1.78865 0
M  V30 5336 H 513.902 -0.18944 -0.727748 0
M  V30 5337 H 515.873 -1.54609 -2.55223 0
M  V30 5338 C 514.622 -0.0301051 -3.47687 0
M  V30 5339 H 513.945 -0.773339 -3.92249 0
M  V30 5340 H 515.385 0.217592 -4.23441 0
M  V30 5341 C 513.844 1.2225 -3.13937 0
M  V30 5342 O 514.374 2.3122 -3.28482 0
M  V30 5343 N 512.58 1.11917 -2.68185 0
M  V30 5344 H 512.127 0.232403 -2.5655 0
M  V30 5345 H 512.085 1.95814 -2.45976 0
M  V30 5346 N 515.857 1.33968 -0.830081 0
M  V30 5347 C 516.787 2.31911 -0.271911 0
M  V30 5348 C 517.768 1.58571 0.61556 0
M  V30 5349 O 518.953 1.86514 0.540946 0
M  V30 5350 C 516.083 3.42737 0.561146 0
M  V30 5351 C 515.037 4.27383 -0.229789 0
M  V30 5352 C 514.363 5.29742 0.726463 0
M  V30 5353 C 515.663 5.02 -1.44197 0
M  V30 5354 H 517.357 2.78844 -1.09025 0
M  V30 5355 H 514.903 1.34061 -0.52571 0
M  V30 5356 H 516.856 4.10276 0.961867 0
M  V30 5357 H 515.58 2.94471 1.41261 0
M  V30 5358 H 514.239 3.61456 -0.611964 0
M  V30 5359 H 513.887 4.77736 1.57408 0
M  V30 5360 H 513.587 5.87255 0.20142 0
M  V30 5361 H 515.111 6.00149 1.12489 0
M  V30 5362 H 516.525 5.62355 -1.11488 0
M  V30 5363 H 514.922 5.69122 -1.90317 0
M  V30 5364 H 515.992 4.31281 -2.2164 0
M  V30 5365 N 517.335 0.585699 1.46312 0
M  V30 5366 C 518.298 -0.135673 2.28798 0
M  V30 5367 C 519.298 -0.815988 1.38558 0
M  V30 5368 O 520.488 -0.667487 1.60904 0
M  V30 5369 C 517.62 -1.20163 3.1902 0
M  V30 5370 H 518.813 0.589257 2.94054 0
M  V30 5371 H 516.366 0.343794 1.52472 0
M  V30 5372 H 517.101 -1.95804 2.58517 0
M  V30 5373 H 516.886 -0.718282 3.85465 0
M  V30 5374 H 518.376 -1.70749 3.81096 0
M  V30 5375 N 518.813 -1.54241 0.323641 0
M  V30 5376 C 519.761 -2.25813 -0.557804 0
M  V30 5377 C 520.755 -1.27225 -1.11849 0
M  V30 5378 O 521.961 -1.45001 -1.06652 0
M  V30 5379 H 518.336 -0.72532 -0.198532 0
M  V30 5380 H 520.307 -2.98322 0.0681112 0
M  V30 5381 C 519.056 -3.02913 -1.70701 0
M  V30 5382 H 518.379 -3.78593 -1.28482 0
M  V30 5383 H 519.819 -3.56238 -2.29935 0
M  V30 5384 C 518.278 -2.11217 -2.62467 0
M  V30 5385 O 518.808 -1.69508 -3.64184 0
M  V30 5386 N 517.014 -1.76704 -2.30703 0
M  V30 5387 H 516.561 -2.1082 -1.48029 0
M  V30 5388 H 516.519 -1.15631 -2.92364 0
M  V30 5389 N 520.291 -0.0518155 -1.57515 0
M  V30 5390 C 521.537 0.622745 -1.93002 0
M  V30 5391 C 521.87 1.70456 -0.930499 0
M  V30 5392 O 521.145 1.94452 0.0434086 0
M  V30 5393 C 521.428 1.21824 -3.38867 0
M  V30 5394 C 521.281 0.144434 -4.49568 0
M  V30 5395 C 522.6 2.12968 -3.8514 0
M  V30 5396 H 519.719 0.22491 -0.701844 0
M  V30 5397 H 522.361 -0.113711 -1.89659 0
M  V30 5398 H 520.511 1.8459 -3.41846 0
M  V30 5399 H 522.183 -0.48753 -4.58717 0
M  V30 5400 H 520.426 -0.527424 -4.30582 0
M  V30 5401 H 521.097 0.601127 -5.48717 0
M  V30 5402 H 523.573 1.60163 -3.8404 0
M  V30 5403 H 522.449 2.51578 -4.87852 0
M  V30 5404 H 522.71 3.03004 -3.21934 0
M  V30 5405 N 521.769 1.56035 0.221574 0
M  V30 5406 C 522.716 1.92413 1.27459 0
M  V30 5407 C 523.686 0.781323 1.46576 0
M  V30 5408 O 524.871 1.03721 1.60145 0
M  V30 5409 C 522.011 2.24617 2.61995 0
M  V30 5410 C 521.124 3.51831 2.50677 0
M  V30 5411 C 520.259 3.73482 3.77736 0
M  V30 5412 C 519.298 4.94211 3.6114 0
M  V30 5413 N 518.435 5.12252 4.80148 0
M  V30 5414 H 523.275 2.82203 0.957355 0
M  V30 5415 H 520.812 1.39676 0.461415 0
M  V30 5416 H 522.77 2.41298 3.40339 0
M  V30 5417 H 521.4 1.38 2.91815 0
M  V30 5418 H 520.452 3.43343 1.63767 0
M  V30 5419 H 521.764 4.40328 2.34334 0
M  V30 5420 H 520.918 3.9026 4.64523 0
M  V30 5421 H 519.657 2.83266 3.97003 0
M  V30 5422 H 518.662 4.77384 2.72736 0
M  V30 5423 H 519.887 5.85912 3.43343 0
M  V30 5424 H 517.833 4.24978 4.99729 0
M  V30 5425 H 517.75 5.94881 4.66532 0
M  V30 5426 H 519.018 5.33465 5.68362 0
M  V30 5427 N 523.247 -0.488276 1.49845 0
M  V30 5428 C 524.195 -1.60917 1.67954 0
M  V30 5429 C 525.189 -1.6038 0.54539 0
M  V30 5430 O 526.395 -1.64736 0.7254 0
M  V30 5431 H 522.77 -0.533658 0.529824 0
M  V30 5432 H 524.741 -1.428 2.62013 0
M  V30 5433 C 523.49 -2.98975 1.77509 0
M  V30 5434 H 522.813 -3.00099 2.6416 0
M  V30 5435 H 524.253 -3.76906 1.9421 0
M  V30 5436 C 522.712 -3.3282 0.522745 0
M  V30 5437 O 523.242 -4.00208 -0.345866 0
M  V30 5438 N 521.448 -2.8808 0.381882 0
M  V30 5439 H 520.995 -2.33415 1.08974 0
M  V30 5440 H 520.953 -3.11091 -0.454929 0
M  V30 5441 N 524.725 -1.39134 -0.740242 0
M  V30 5442 C 525.971 -1.37278 -1.50088 0
M  V30 5443 C 526.326 0.0329967 -1.92372 0
M  V30 5444 O 525.619 0.998447 -1.63529 0
M  V30 5445 C 525.813 -2.27457 -2.75678 0
M  V30 5446 C 525.642 -3.76662 -2.45674 0
M  V30 5447 C 524.412 -4.45617 -2.38229 0
M  V30 5448 C 526.61 -4.6877 -2.11563 0
M  V30 5449 N 524.592 -5.80187 -2.00641 0
M  V30 5450 C 525.963 -5.91951 -1.84376 0
M  V30 5451 C 528.018 -4.56843 -1.97987 0
M  V30 5452 C 526.721 -7.04538 -1.4498 0
M  V30 5453 C 528.747 -5.69347 -1.59994 0
M  V30 5454 C 528.109 -6.91597 -1.33687 0
M  V30 5455 H 524.208 -0.557611 -0.548265 0
M  V30 5456 H 526.792 -1.74638 -0.860784 0
M  V30 5457 H 524.963 -1.92263 -3.37475 0
M  V30 5458 H 526.695 -2.16631 -3.41838 0
M  V30 5459 H 523.45 -3.98993 -2.5515 0
M  V30 5460 H 523.874 -6.51387 -1.84454 0
M  V30 5461 H 528.516 -3.62868 -2.16995 0
M  V30 5462 H 526.234 -7.98419 -1.24712 0
M  V30 5463 H 529.82 -5.62104 -1.50102 0
M  V30 5464 H 528.7 -7.77176 -1.04728 0
M  V30 5465 N 526.204 0.969867 -1.24223 0
M  V30 5466 C 527.62 1.23809 -1.00716 0
M  V30 5467 C 527.82 1.99469 0.285358 0
M  V30 5468 O 526.876 2.31764 1.00207 0
M  V30 5469 C 528.189 2.02734 -2.2208 0
M  V30 5470 C 529.737 2.15834 -2.26681 0
M  V30 5471 C 530.212 2.98154 -3.47661 0
M  V30 5472 N 531.703 3.05737 -3.47964 0
M  V30 5473 C 532.438 3.69785 -4.38231 0
M  V30 5474 N 531.934 4.35569 -5.3875 0
M  V30 5475 N 533.727 3.66775 -4.25949 0
M  V30 5476 H 525.878 0.463294 -2.07286 0
M  V30 5477 H 528.141 0.267348 -0.909521 0
M  V30 5478 H 527.847 1.54524 -3.15935 0
M  V30 5479 H 527.721 3.0347 -2.24021 0
M  V30 5480 H 530.108 2.63248 -1.33359 0
M  V30 5481 H 530.189 1.14453 -2.28767 0
M  V30 5482 H 529.833 2.51435 -4.41297 0
M  V30 5483 H 529.763 3.99729 -3.42818 0
M  V30 5484 H 532.254 2.58941 -2.75242 0
M  V30 5485 H 532.567 4.82251 -6.03866 0
M  V30 5486 H 530.912 4.34244 -5.42639 0
M  V30 5487 H 534.103 3.14558 -3.46657 0
M  V30 5488 H 534.276 4.16407 -4.96497 0
M  V30 5489 N 527.682 1.05563 1.17022 0
M  V30 5490 C 528.645 0.664098 2.19368 0
M  V30 5491 C 529.645 -0.286358 1.5823 0
M  V30 5492 O 530.835 -0.069728 1.7406 0
M  V30 5493 C 527.967 -0.0239932 3.40892 0
M  V30 5494 H 529.16 1.57 2.55521 0
M  V30 5495 H 526.713 0.849964 1.31169 0
M  V30 5496 H 527.448 -0.942988 3.10287 0
M  V30 5497 H 527.233 0.659351 3.86516 0
M  V30 5498 H 528.723 -0.283909 4.16634 0
M  V30 5499 N 529.16 -1.33526 0.837174 0
M  V30 5500 C 530.39 -2.01754 0.444848 0
M  V30 5501 C 530.798 -1.63149 -0.958072 0
M  V30 5502 O 530.141 -0.839827 -1.63379 0
M  V30 5503 C 530.203 -3.56228 0.483917 0
M  V30 5504 C 529.867 -4.18205 1.84265 0
M  V30 5505 C 530.864 -4.37699 2.80563 0
M  V30 5506 C 528.549 -4.54667 2.13503 0
M  V30 5507 C 530.543 -4.928 4.04261 0
M  V30 5508 C 528.23 -5.09475 3.37458 0
M  V30 5509 C 529.228 -5.28488 4.32654 0
M  V30 5510 O 528.916 -5.82132 5.54417 0
M  V30 5511 H 528.648 -0.652928 0.175104 0
M  V30 5512 H 531.202 -1.71469 1.13082 0
M  V30 5513 H 529.432 -3.85833 -0.258826 0
M  V30 5514 H 531.121 -4.05752 0.109653 0
M  V30 5515 H 531.887 -4.0988 2.59274 0
M  V30 5516 H 527.766 -4.39164 1.40201 0
M  V30 5517 H 531.31 -5.07555 4.78574 0
M  V30 5518 H 527.207 -5.36725 3.58604 0
M  V30 5519 H 527.975 -6.00548 5.56133 0
M  V30 5520 N 530.638 -0.59345 -1.46 0
M  V30 5521 C 531.568 0.121192 -2.33185 0
M  V30 5522 C 532.549 0.872977 -1.4599 0
M  V30 5523 O 533.734 0.846321 -1.74789 0
M  V30 5524 C 530.864 1.12844 -3.28456 0
M  V30 5525 C 529.818 0.4908 -4.25177 0
M  V30 5526 C 529.144 1.60529 -5.10034 0
M  V30 5527 C 530.444 -0.578949 -5.19081 0
M  V30 5528 H 532.138 -0.606767 -2.93187 0
M  V30 5529 H 529.684 -0.293242 -1.40983 0
M  V30 5530 H 531.637 1.63684 -3.88311 0
M  V30 5531 H 530.361 1.88681 -2.66584 0
M  V30 5532 H 529.02 0.00339328 -3.666 0
M  V30 5533 H 528.668 2.35359 -4.44539 0
M  V30 5534 H 528.368 1.18422 -5.75543 0
M  V30 5535 H 529.892 2.11623 -5.72755 0
M  V30 5536 H 531.306 -0.155199 -5.7309 0
M  V30 5537 H 529.703 -0.920947 -5.92991 0
M  V30 5538 H 530.773 -1.46109 -4.62364 0
M  V30 5539 N 532.116 1.54067 -0.331816 0
M  V30 5540 C 533.079 2.23275 0.517768 0
M  V30 5541 C 534.079 1.22897 1.03697 0
M  V30 5542 O 535.269 1.47419 0.928084 0
M  V30 5543 C 532.401 2.94326 1.72004 0
M  V30 5544 H 533.594 2.99773 -0.0873507 0
M  V30 5545 H 531.147 1.56079 -0.0830042 0
M  V30 5546 H 531.882 2.21986 2.36417 0
M  V30 5547 H 531.667 3.67941 1.35507 0
M  V30 5548 H 533.157 3.47031 2.32291 0
M  V30 5549 N 533.594 0.0601682 1.57485 0
M  V30 5550 C 534.819 -0.624416 1.97777 0
M  V30 5551 C 535.244 -1.63051 0.937867 0
M  V30 5552 O 534.602 -1.81036 -0.0978845 0
M  V30 5553 C 534.65 -1.27979 3.37126 0
M  V30 5554 O 533.754 -2.39556 3.35688 0
M  V30 5555 H 533.095 -0.161581 0.64404 0
M  V30 5556 H 535.625 0.131237 2.04179 0
M  V30 5557 H 535.635 -1.62937 3.74053 0
M  V30 5558 H 534.31 -0.542501 4.12347 0
M  V30 5559 H 532.887 -2.06478 3.10517 0
M  V30 5560 N 535.072 -1.5615 -0.213296 0
M  V30 5561 C 536.002 -1.96109 -1.26742 0
M  V30 5562 C 536.983 -0.830448 -1.48451 0
M  V30 5563 O 538.168 -1.09339 -1.60495 0
M  V30 5564 C 535.298 -2.28492 -2.61551 0
M  V30 5565 C 534.252 -3.44124 -2.54485 0
M  V30 5566 C 533.578 -3.62134 -3.93399 0
M  V30 5567 C 534.878 -4.78855 -2.08556 0
M  V30 5568 H 536.572 -2.84412 -0.935434 0
M  V30 5569 H 534.118 -1.36836 -0.44854 0
M  V30 5570 H 536.071 -2.55039 -3.3546 0
M  V30 5571 H 534.795 -1.37052 -2.96453 0
M  V30 5572 H 533.454 -3.17639 -1.83033 0
M  V30 5573 H 533.102 -2.68055 -4.25623 0
M  V30 5574 H 532.802 -4.39913 -3.89551 0
M  V30 5575 H 534.326 -3.91038 -4.68958 0
M  V30 5576 H 535.74 -5.04552 -2.72213 0
M  V30 5577 H 534.137 -5.59975 -2.1575 0
M  V30 5578 H 535.207 -4.73657 -1.03811 0
M  V30 5579 N 536.55 0.480323 -1.50102 0
M  V30 5580 C 537.46 1.60547 -1.71061 0
M  V30 5581 C 538.476 1.63564 -0.593529 0
M  V30 5582 O 539.652 1.81604 -0.870751 0
M  V30 5583 C 536.717 2.96814 -1.79171 0
M  V30 5584 C 535.778 3.04259 -3.02861 0
M  V30 5585 C 535.011 4.34027 -3.10574 0
M  V30 5586 O 535.234 5.24009 -2.25323 0
M  V30 5587 O 534.168 4.46873 -4.03223 0
M  V30 5588 H 537.994 1.45788 -2.6642 0
M  V30 5589 H 535.579 0.658838 -1.34088 0
M  V30 5590 H 537.461 3.77765 -1.86738 0
M  V30 5591 H 536.136 3.11791 -0.869947 0
M  V30 5592 H 535.043 2.22419 -3.008 0
M  V30 5593 H 536.376 2.94216 -3.94586 0
M  V30 5594 N 538.028 1.39524 0.732853 0
M  V30 5595 C 539.305 1.27373 1.48444 0
M  V30 5596 C 539.685 -0.115725 2.10783 0
M  V30 5597 O 539.033 -1.12713 1.98766 0
M  V30 5598 C 539.243 2.39966 2.53412 0
M  V30 5599 C 540.591 2.79384 3.19733 0
M  V30 5600 O 541.615 2.39431 2.63725 0
M  V30 5601 O 540.474 3.48353 4.21085 0
M  V30 5602 H 537.568 0.499272 0.659285 0
M  V30 5603 H 540.114 1.51403 0.766496 0
M  V30 5604 H 538.886 3.32845 2.05742 0
M  V30 5605 H 538.509 2.17612 3.32762 0
M  V30 5606 N 539.506 -0.963266 1.24736 0
M  V30 5607 C 540.453 -2.05857 1.04363 0
M  V30 5608 C 541.423 -1.6604 -0.0444951 0
M  V30 5609 O 542.608 -1.90477 0.110999 0
M  V30 5610 C 539.748 -3.38745 0.659235 0
M  V30 5611 C 538.861 -3.9173 1.82131 0
M  V30 5612 C 537.996 -5.12906 1.38208 0
M  V30 5613 C 537.035 -5.58098 2.51382 0
M  V30 5614 N 536.172 -6.7049 2.08295 0
M  V30 5615 H 541.012 -2.22616 1.98107 0
M  V30 5616 H 538.549 -1.09103 0.986661 0
M  V30 5617 H 540.507 -4.15107 0.417371 0
M  V30 5618 H 539.137 -3.21898 -0.241201 0
M  V30 5619 H 538.189 -3.11966 2.17672 0
M  V30 5620 H 539.501 -4.21225 2.67153 0
M  V30 5621 H 538.655 -5.96657 1.09935 0
M  V30 5622 H 537.394 -4.85105 0.502456 0
M  V30 5623 H 536.399 -4.72917 2.80409 0
M  V30 5624 H 537.624 -5.87911 3.39909 0
M  V30 5625 H 535.57 -6.44416 1.22737 0
M  V30 5626 H 535.487 -6.99458 2.86869 0
M  V30 5627 H 536.755 -7.57672 1.83175 0
M  V30 5628 N 540.985 -1.06182 -1.16461 0
M  V30 5629 C 541.917 -0.629584 -2.20383 0
M  V30 5630 C 542.93 0.311834 -1.59786 0
M  V30 5631 O 544.119 0.103 -1.78203 0
M  V30 5632 C 541.219 0.0973695 -3.3876 0
M  V30 5633 C 540.392 -0.857252 -4.28917 0
M  V30 5634 C 539.451 -0.169749 -5.25926 0
M  V30 5635 O 538.477 -0.807044 -5.6345 0
M  V30 5636 N 539.679 1.08911 -5.70192 0
M  V30 5637 H 542.444 -1.52352 -2.58087 0
M  V30 5638 H 540.005 -0.944993 -1.31459 0
M  V30 5639 H 541.997 0.567676 -4.00699 0
M  V30 5640 H 540.567 0.893093 -2.99571 0
M  V30 5641 H 539.787 -1.50696 -3.64259 0
M  V30 5642 H 541.075 -1.50489 -4.86035 0
M  V30 5643 H 540.473 1.62703 -5.41797 0
M  V30 5644 H 539.03 1.50331 -6.34227 0
M  V30 5645 N 542.463 1.3308 -0.844243 0
M  V30 5646 C 543.373 2.32876 -0.283922 0
M  V30 5647 C 544.389 1.63589 0.592846 0
M  V30 5648 O 545.565 1.95205 0.495693 0
M  V30 5649 C 542.63 3.42667 0.527283 0
M  V30 5650 C 541.691 4.27664 -0.374394 0
M  V30 5651 C 540.924 5.32212 0.39819 0
M  V30 5652 O 541.147 5.46635 1.62932 0
M  V30 5653 O 540.081 6.01458 -0.2306 0
M  V30 5654 H 543.907 2.82671 -1.11045 0
M  V30 5655 H 541.492 1.36518 -0.606903 0
M  V30 5656 H 543.374 4.09652 0.988078 0
M  V30 5657 H 542.049 2.95079 1.33078 0
M  V30 5658 H 540.956 3.63526 -0.883144 0
M  V30 5659 H 542.289 4.78749 -1.1428 0
M  V30 5660 N 543.941 0.601185 1.45683 0
M  V30 5661 C 545.189 0.0936957 2.01883 0
M  V30 5662 C 545.51 -1.2779 1.47291 0
M  V30 5663 O 544.78 -1.84279 0.664691 0
M  V30 5664 H 543.36 0.0316466 0.746329 0
M  V30 5665 H 546.022 0.781137 1.78562 0
M  V30 5666 H 545.118 0.0386297 3.12076 0
M  V30 5667 N 545.419 -1.53889 0.339982 0
M  V30 5668 C 546.83 -1.86139 -0.144671 0
M  V30 5669 C 547.181 -1.2613 -1.50285 0
M  V30 5670 O 546.306 -0.573515 -2.08662 0
M  V30 5671 C 546.901 -3.37728 -0.269285 0
M  V30 5672 C 545.46 -3.69868 -0.698168 0
M  V30 5673 C 544.607 -2.76777 0.170249 0
M  V30 5674 H 547.558 -1.48503 0.559704 0
M  V30 5675 H 547.579 -3.64331 -1.0974 0
M  V30 5676 H 547.091 -3.81375 0.719366 0
M  V30 5677 H 545.192 -3.31764 -1.69597 0
M  V30 5678 H 545.305 -4.76582 -0.490533 0
M  V30 5679 H 543.669 -2.52188 -0.356844 0
M  V30 5680 H 544.452 -3.23253 1.15597 0
M  V30 5681 N 546.897 -0.0685191 -1.57451 0
M  V30 5682 C 547.827 0.89747 -2.15564 0
M  V30 5683 C 548.808 1.31266 -1.08181 0
M  V30 5684 O 549.993 1.38429 -1.36202 0
M  V30 5685 C 547.123 2.16623 -2.71463 0
M  V30 5686 C 546.077 1.89054 -3.83982 0
M  V30 5687 C 545.403 3.22532 -4.26471 0
M  V30 5688 C 546.703 1.1984 -5.08366 0
M  V30 5689 H 548.397 0.413373 -2.96533 0
M  V30 5690 H 545.943 0.197391 -1.42641 0
M  V30 5691 H 547.896 2.84614 -3.10761 0
M  V30 5692 H 546.62 2.67269 -1.8771 0
M  V30 5693 H 545.279 1.23469 -3.45183 0
M  V30 5694 H 544.927 3.71013 -3.39644 0
M  V30 5695 H 544.627 3.04879 -5.02317 0
M  V30 5696 H 546.151 3.91727 -4.68383 0
M  V30 5697 H 547.565 1.77896 -5.45001 0
M  V30 5698 H 545.962 1.12456 -5.89469 0
M  V30 5699 H 547.032 0.176996 -4.84577 0
M  V30 5700 N 548.375 1.56261 0.205012 0
M  V30 5701 C 549.307 1.90266 1.27795 0
M  V30 5702 C 550.32 0.792397 1.42214 0
M  V30 5703 O 551.509 1.07077 1.42817 0
M  V30 5704 C 548.609 2.11074 2.65143 0
M  V30 5705 C 547.782 3.42176 2.7246 0
M  V30 5706 C 546.841 3.52216 3.90936 0
M  V30 5707 O 545.867 4.25119 3.78501 0
M  V30 5708 N 547.069 2.84573 5.05963 0
M  V30 5709 H 549.834 2.82896 0.989434 0
M  V30 5710 H 547.395 1.57008 0.394981 0
M  V30 5711 H 549.387 2.15089 3.4281 0
M  V30 5712 H 547.957 1.2499 2.86524 0
M  V30 5713 H 547.177 3.50116 1.81142 0
M  V30 5714 H 548.465 4.28509 2.74331 0
M  V30 5715 H 547.863 2.25152 5.18963 0
M  V30 5716 H 546.42 2.94228 5.81613 0
M  V30 5717 N 549.853 -0.472356 1.50355 0
M  V30 5718 C 550.816 -1.5529 1.68576 0
M  V30 5719 C 551.816 -1.50863 0.556511 0
M  V30 5720 O 553.006 -1.53505 0.823516 0
M  V30 5721 C 550.138 -2.94921 1.70981 0
M  V30 5722 H 551.331 -1.40451 2.64978 0
M  V30 5723 H 548.884 -0.698645 1.39816 0
M  V30 5724 H 549.619 -3.15204 0.762675 0
M  V30 5725 H 549.404 -2.99541 2.53017 0
M  V30 5726 H 550.894 -3.73372 1.87037 0
M  V30 5727 N 551.331 -1.39911 -0.725443 0
M  V30 5728 C 552.561 -1.40744 -1.51244 0
M  V30 5729 C 552.969 -0.00275403 -1.892 0
M  V30 5730 O 552.312 0.981299 -1.55294 0
M  V30 5731 C 552.374 -2.22527 -2.82351 0
M  V30 5732 C 552.038 -3.71053 -2.66774 0
M  V30 5733 C 553.035 -4.63916 -2.34686 0
M  V30 5734 C 550.72 -4.14753 -2.83347 0
M  V30 5735 C 552.714 -5.98463 -2.19366 0
M  V30 5736 C 550.401 -5.49372 -2.67644 0
M  V30 5737 C 551.399 -6.41042 -2.357 0
M  V30 5738 O 551.087 -7.73181 -2.20107 0
M  V30 5739 H 550.819 -0.482314 -0.473655 0
M  V30 5740 H 553.373 -1.84472 -0.903284 0
M  V30 5741 H 551.603 -1.73563 -3.45562 0
M  V30 5742 H 553.292 -2.15421 -3.44018 0
M  V30 5743 H 554.058 -4.31453 -2.21525 0
M  V30 5744 H 549.937 -3.43728 -3.072 0
M  V30 5745 H 553.481 -6.69979 -1.94354 0
M  V30 5746 H 549.378 -5.81424 -2.80387 0
M  V30 5747 H 550.146 -7.84008 -2.35103 0
M  V30 5748 N 552.809 0.956637 -1.25245 0
M  V30 5749 C 553.741 2.05628 -1.01242 0
M  V30 5750 C 554.754 1.62785 0.0219579 0
M  V30 5751 O 555.943 1.77184 -0.216365 0
M  V30 5752 C 553.043 3.35069 -0.508161 0
M  V30 5753 C 552.216 4.06761 -1.60823 0
M  V30 5754 C 551.275 5.14473 -1.1047 0
M  V30 5755 O 550.301 5.40033 -1.79868 0
M  V30 5756 N 551.503 5.80474 0.0550773 0
M  V30 5757 H 554.268 2.2679 -1.95925 0
M  V30 5758 H 551.829 1.12505 -1.16423 0
M  V30 5759 H 553.821 4.044 -0.155819 0
M  V30 5760 H 552.391 3.10694 0.344683 0
M  V30 5761 H 551.611 3.31555 -2.13224 0
M  V30 5762 H 552.899 4.51418 -2.34733 0
M  V30 5763 H 552.297 5.62125 0.635004 0
M  V30 5764 H 550.854 6.50868 0.348469 0
M  V30 5765 N 554.287 1.06798 1.15896 0
M  V30 5766 C 555.533 0.788934 1.86825 0
M  V30 5767 C 555.866 -0.683084 1.8179 0
M  V30 5768 O 555.141 -1.50086 1.23711 0
M  V30 5769 C 555.424 1.29065 3.36176 0
M  V30 5770 C 555.277 2.8268 3.49874 0
M  V30 5771 C 556.596 0.902655 4.30744 0
M  V30 5772 H 553.715 0.288066 0.678371 0
M  V30 5773 H 556.357 1.32479 1.36195 0
M  V30 5774 H 554.507 0.834806 3.79425 0
M  V30 5775 H 556.179 3.36511 3.15528 0
M  V30 5776 H 554.422 3.21157 2.91617 0
M  V30 5777 H 555.093 3.12852 4.54783 0
M  V30 5778 H 557.569 1.29535 3.95424 0
M  V30 5779 H 556.445 1.28111 5.3374 0
M  V30 5780 H 556.706 -0.191951 4.41683 0
M  V30 5781 N 555.766 -1.3263 0.851289 0
M  V30 5782 C 556.696 -2.31449 0.308771 0
M  V30 5783 C 557.677 -1.59531 -0.590255 0
M  V30 5784 O 558.862 -1.87351 -0.511205 0
M  V30 5785 C 555.992 -3.43586 -0.506548 0
M  V30 5786 C 554.946 -4.26963 0.297753 0
M  V30 5787 C 554.272 -5.30831 -0.642094 0
M  V30 5788 C 555.572 -4.99643 1.52166 0
M  V30 5789 H 557.266 -2.77074 1.13447 0
M  V30 5790 H 554.812 -1.33207 0.546971 0
M  V30 5791 H 556.765 -4.11754 -0.896474 0
M  V30 5792 H 555.489 -2.96681 -1.36558 0
M  V30 5793 H 554.148 -3.60437 0.669391 0
M  V30 5794 H 553.796 -4.8018 -1.49788 0
M  V30 5795 H 553.496 -5.87501 -0.107968 0
M  V30 5796 H 555.02 -6.01862 -1.02927 0
M  V30 5797 H 556.434 -5.6051 1.20421 0
M  V30 5798 H 554.831 -5.66022 1.99347 0
M  V30 5799 H 555.901 -4.27701 2.28474 0
M  V30 5800 N 557.244 -0.608902 -1.45362 0
M  V30 5801 C 558.66 -0.272659 -1.57254 0
M  V30 5802 C 558.86 1.22477 -1.60005 0
M  V30 5803 O 557.916 2.00785 -1.53106 0
M  V30 5804 C 559.229 -0.944991 -2.85465 0
M  V30 5805 C 560.777 -0.921033 -2.99142 0
M  V30 5806 C 561.252 -1.5734 -4.30126 0
M  V30 5807 N 562.743 -1.53895 -4.36887 0
M  V30 5808 C 563.478 -2.01286 -5.36909 0
M  V30 5809 N 562.974 -2.56768 -6.43461 0
M  V30 5810 N 564.767 -1.92046 -5.28275 0
M  V30 5811 H 556.918 -1.58117 -1.4182 0
M  V30 5812 H 559.181 -0.662437 -0.678146 0
M  V30 5813 H 558.887 -1.99941 -2.89338 0
M  V30 5814 H 558.761 -0.469079 -3.74272 0
M  V30 5815 H 561.148 0.124846 -2.94836 0
M  V30 5816 H 561.229 -1.43522 -2.11743 0
M  V30 5817 H 560.873 -2.61862 -4.35191 0
M  V30 5818 H 560.803 -1.03422 -5.16344 0
M  V30 5819 H 563.294 -1.13366 -3.60495 0
M  V30 5820 H 563.607 -2.9072 -7.16032 0
M  V30 5821 H 561.952 -2.60808 -6.44208 0
M  V30 5822 H 565.143 -1.48439 -4.43941 0
M  V30 5823 H 565.316 -2.29293 -6.06077 0
M  V30 5824 N 558.722 1.53707 -0.348139 0
M  V30 5825 C 559.685 2.23812 0.494058 0
M  V30 5826 C 560.685 1.23989 1.02388 0
M  V30 5827 O 561.875 1.48395 0.912396 0
M  V30 5828 C 559.007 2.96133 1.68872 0
M  V30 5829 H 560.2 2.99663 -0.119141 0
M  V30 5830 H 557.753 1.55983 -0.0995539 0
M  V30 5831 H 558.488 2.24481 2.34049 0
M  V30 5832 H 558.273 3.69357 1.31596 0
M  V30 5833 H 559.763 3.49475 2.28597 0
M  V30 5834 N 560.2 0.0768682 1.57412 0
M  V30 5835 C 561.446 -0.591961 1.93968 0
M  V30 5836 C 561.779 -1.68954 0.9575 0
M  V30 5837 O 561.054 -1.94496 -0.0124675 0
M  V30 5838 C 561.337 -1.16418 3.40762 0
M  V30 5839 C 561.19 -0.0728933 4.49741 0
M  V30 5840 C 562.509 -2.06814 3.88479 0
M  V30 5841 H 559.628 -0.213716 0.705333 0
M  V30 5842 H 562.27 0.14387 1.89455 0
M  V30 5843 H 560.42 -1.79128 3.4474 0
M  V30 5844 H 562.092 0.560446 4.57883 0
M  V30 5845 H 560.335 0.595859 4.29688 0
M  V30 5846 H 561.006 -0.513755 5.49604 0
M  V30 5847 H 563.482 -1.54033 3.8654 0
M  V30 5848 H 562.358 -2.43785 4.91793 0
M  V30 5849 H 562.619 -2.97844 3.26713 0
M  V30 5850 N 561.678 -1.56367 -0.196722 0
M  V30 5851 C 562.626 -1.95304 -1.2633 0
M  V30 5852 C 563.62 -0.838252 -1.47206 0
M  V30 5853 O 564.826 -1.02325 -1.48087 0
M  V30 5854 H 561.201 -0.621013 -0.424083 0
M  V30 5855 H 563.172 -2.84254 -0.907879 0
M  V30 5856 C 561.921 -2.3074 -2.60104 0
M  V30 5857 H 561.244 -3.16047 -2.44856 0
M  V30 5858 H 562.684 -2.61849 -3.33484 0
M  V30 5859 C 561.143 -1.14143 -3.16975 0
M  V30 5860 O 561.673 -0.415602 -3.99544 0
M  V30 5861 N 559.879 -0.91867 -2.75697 0
M  V30 5862 H 559.426 -1.51065 -2.08656 0
M  V30 5863 H 559.384 -0.140321 -3.14087 0
M  V30 5864 N 563.156 0.464375 -1.50603 0
M  V30 5865 C 564.103 1.56152 -1.69956 0
M  V30 5866 C 565.073 1.57046 -0.54091 0
M  V30 5867 O 566.258 1.74473 -0.772258 0
M  V30 5868 C 563.398 2.94079 -1.80586 0
M  V30 5869 C 562.511 3.02923 -3.07996 0
M  V30 5870 C 561.646 4.31806 -3.09382 0
M  V30 5871 C 560.685 4.34417 -4.31218 0
M  V30 5872 N 559.822 5.54782 -4.30304 0
M  V30 5873 H 564.662 1.38955 -2.6362 0
M  V30 5874 H 562.199 0.675482 -1.30674 0
M  V30 5875 H 564.157 3.74073 -1.8473 0
M  V30 5876 H 562.787 3.09896 -0.903556 0
M  V30 5877 H 561.839 2.1576 -3.13292 0
M  V30 5878 H 563.151 3.00712 -3.97962 0
M  V30 5879 H 562.305 5.20153 -3.12292 0
M  V30 5880 H 561.044 4.36636 -2.17257 0
M  V30 5881 H 560.049 3.44467 -4.28512 0
M  V30 5882 H 561.274 4.31273 -5.24576 0
M  V30 5883 H 559.22 5.60384 -3.41037 0
M  V30 5884 H 559.137 5.54339 -5.14047 0
M  V30 5885 H 560.405 6.45235 -4.3737 0
M  V30 5886 N 564.634 1.40294 0.718013 0
M  V30 5887 C 565.883 1.37746 1.4734 0
M  V30 5888 C 566.196 -0.0180754 1.95592 0
M  V30 5889 O 567.402 -0.166166 2.70991 0
M  V30 5890 C 565.858 2.4208 2.66318 0
M  V30 5891 C 565.466 3.87432 2.24945 0
M  V30 5892 C 567.21 2.48635 3.44065 0
M  V30 5893 C 565.117 4.83368 3.40748 0
M  V30 5894 H 564.047 0.512165 0.553356 0
M  V30 5895 H 566.698 1.66019 0.781661 0
M  V30 5896 H 565.08 2.06903 3.3765 0
M  V30 5897 H 566.254 4.3174 1.6105 0
M  V30 5898 H 564.569 3.8433 1.60249 0
M  V30 5899 H 567.166 3.17499 4.30231 0
M  V30 5900 H 567.509 1.51611 3.87711 0
M  V30 5901 H 568.042 2.82791 2.79775 0
M  V30 5902 H 564.781 5.81716 3.02136 0
M  V30 5903 H 564.301 4.43726 4.03568 0
M  V30 5904 H 565.98 5.03074 4.06848 0
M  V30 5905 N 566.112 -0.949982 1.2575 0
M  V30 5906 C 567.075 -2.02894 1.06615 0
M  V30 5907 C 568.075 -1.60791 0.0173905 0
M  V30 5908 O 569.265 -1.72249 0.260003 0
M  V30 5909 C 566.397 -3.35219 0.619751 0
M  V30 5910 H 567.59 -2.21302 2.02399 0
M  V30 5911 H 565.143 -1.12772 1.08223 0
M  V30 5912 H 565.878 -3.22508 -0.340486 0
M  V30 5913 H 565.663 -3.67129 1.37692 0
M  V30 5914 H 567.153 -4.14505 0.507443 0
M  V30 5915 N 567.59 -1.07411 -1.15328 0
M  V30 5916 C 568.5 -0.706438 -2.23711 0
M  V30 5917 C 569.516 0.282586 -1.7169 0
M  V30 5918 O 570.692 0.129066 -2.00986 0
M  V30 5919 C 567.757 -0.11048 -3.46524 0
M  V30 5920 C 566.818 -1.15282 -4.13532 0
M  V30 5921 C 566.051 -0.585205 -5.30482 0
M  V30 5922 O 566.274 0.598549 -5.67251 0
M  V30 5923 O 565.208 -1.33039 -5.87013 0
M  V30 5924 H 569.034 -1.61031 -2.57493 0
M  V30 5925 H 566.619 -0.847113 -1.23062 0
M  V30 5926 H 568.501 0.21957 -4.20828 0
M  V30 5927 H 567.176 0.766703 -3.14489 0
M  V30 5928 H 566.083 -1.53523 -3.41147 0
M  V30 5929 H 567.416 -2.00192 -4.49649 0
M  V30 5930 N 569.068 1.32177 -0.85831 0
M  V30 5931 C 570.479 1.79381 -0.517621 0
M  V30 5932 C 570.83 1.70841 0.964769 0
M  V30 5933 O 569.955 1.26917 1.75274 0
M  V30 5934 C 570.55 3.25706 -0.932801 0
M  V30 5935 C 569.109 3.70851 -0.643953 0
M  V30 5936 C 568.256 2.53208 -1.13054 0
M  V30 5937 H 571.207 1.19424 -1.04516 0
M  V30 5938 H 571.228 3.79673 -0.250674 0
M  V30 5939 H 570.74 3.31889 -2.01174 0
M  V30 5940 H 568.841 3.70178 0.424112 0
M  V30 5941 H 568.954 4.63495 -1.21281 0
M  V30 5942 H 567.318 2.48676 -0.550679 0
M  V30 5943 H 568.101 2.62143 -2.21666 0
M  V30 5944 N 570.547 0.616602 1.45037 0
M  V30 5945 C 571.824 0.0469086 1.95544 0
M  V30 5946 C 572.204 -1.42345 1.55888 0
M  V30 5947 O 571.552 -2.13055 0.825824 0
M  V30 5948 C 571.762 0.254489 3.48071 0
M  V30 5949 C 573.11 0.140025 4.24369 0
M  V30 5950 O 574.134 0.185084 3.55719 0
M  V30 5951 O 572.993 0.0327034 5.4649 0
M  V30 5952 H 570.087 -0.0306051 0.826433 0
M  V30 5953 H 572.633 0.687293 1.55159 0
M  V30 5954 H 571.405 1.27532 3.69934 0
M  V30 5955 H 571.028 -0.42073 3.95368 0
M  V30 5956 N 572.025 -1.5352 0.356285 0
M  V30 5957 C 572.988 -2.24071 -0.482182 0
M  V30 5958 C 573.988 -1.24531 -1.01729 0
M  V30 5959 O 575.178 -1.48876 -0.904513 0
M  V30 5960 C 572.31 -2.97025 -1.67299 0
M  V30 5961 H 573.503 -2.99596 0.135031 0
M  V30 5962 H 571.056 -1.55928 0.107825 0
M  V30 5963 H 571.791 -2.25719 -2.32855 0
M  V30 5964 H 571.576 -3.7005 -1.29636 0
M  V30 5965 H 573.066 -3.50683 -2.26741 0
M  V30 5966 N 573.503 -0.0852151 -1.57369 0
M  V30 5967 C 574.752 0.580443 -1.93168 0
M  V30 5968 C 575.065 1.6995 -0.968319 0
M  V30 5969 O 576.271 2.42564 -1.21963 0
M  V30 5970 C 574.727 1.08386 -3.43192 0
M  V30 5971 C 574.335 -0.00491388 -4.48 0
M  V30 5972 C 576.079 1.72281 -3.87968 0
M  V30 5973 C 573.986 0.513299 -5.89168 0
M  V30 5974 H 572.916 0.22059 -0.72101 0
M  V30 5975 H 575.567 -0.159621 -1.82804 0
M  V30 5976 H 573.949 1.8773 -3.48674 0
M  V30 5977 H 575.123 -0.780032 -4.5415 0
M  V30 5978 H 573.438 -0.548453 -4.12772 0
M  V30 5979 H 576.035 2.12108 -4.9083 0
M  V30 5980 H 576.378 2.58811 -3.26071 0
M  V30 5981 H 576.911 0.995359 -3.85146 0
M  V30 5982 H 573.65 -0.315153 -6.54742 0
M  V30 5983 H 573.17 1.25564 -5.8651 0
M  V30 5984 H 574.849 0.985433 -6.39451 0
M  V30 5985 N 574.981 1.5647 0.188427 0
M  V30 5986 C 576.211 1.84863 0.922463 0
M  V30 5987 C 576.619 0.666413 1.77075 0
M  V30 5988 O 575.962 -0.374044 1.79852 0
M  V30 5989 C 576.024 3.07447 1.86324 0
M  V30 5990 C 575.688 4.41066 1.19625 0
M  V30 5991 C 576.685 5.16767 0.569946 0
M  V30 5992 C 574.37 4.87802 1.19811 0
M  V30 5993 C 576.364 6.37384 -0.045594 0
M  V30 5994 C 574.051 6.08353 0.57874 0
M  V30 5995 C 575.049 6.82987 -0.0420259 0
M  V30 5996 O 574.737 8.01254 -0.651675 0
M  V30 5997 H 574.469 0.61784 0.274316 0
M  V30 5998 H 577.023 2.04437 0.198613 0
M  V30 5999 H 575.253 2.83774 2.62696 0
M  V30 6000 H 576.942 3.2243 2.46564 0
M  V30 6001 H 577.708 4.81749 0.560601 0
M  V30 6002 H 573.587 4.29662 1.67069 0
M  V30 6003 H 577.131 6.95578 -0.530731 0
M  V30 6004 H 573.028 6.42838 0.58561 0
M  V30 6005 H 573.796 8.16655 -0.549236 0
M  V30 6006 N 576.459 -0.456382 1.50847 0
M  V30 6007 C 577.684 -1.2349 1.66628 0
M  V30 6008 C 578.109 -1.84715 0.355254 0
M  V30 6009 O 577.467 -1.67961 -0.682559 0
M  V30 6010 C 577.515 -2.30865 2.77009 0
M  V30 6011 O 576.619 -3.35882 2.39285 0
M  V30 6012 H 575.96 -0.36266 0.556214 0
M  V30 6013 H 578.49 -0.541374 1.97308 0
M  V30 6014 H 578.5 -2.75949 3.00526 0
M  V30 6015 H 577.175 -1.85677 3.72152 0
M  V30 6016 H 575.752 -2.96406 2.26269 0
M  V30 6017 N 577.937 -1.40673 -0.710563 0
M  V30 6018 C 579.186 -1.38525 -1.46607 0
M  V30 6019 C 579.499 0.0077024 -1.95598 0
M  V30 6020 O 580.705 0.151792 -2.71075 0
M  V30 6021 C 579.161 -2.43489 -2.6503 0
M  V30 6022 C 578.769 -3.88619 -2.22888 0
M  V30 6023 C 580.513 -2.50456 -3.42742 0
M  V30 6024 C 578.42 -4.85168 -3.3818 0
M  V30 6025 H 577.35 -0.515092 -0.550632 0
M  V30 6026 H 580.001 -1.66431 -0.772846 0
M  V30 6027 H 578.383 -2.0869 -3.36548 0
M  V30 6028 H 579.557 -4.32588 -1.58758 0
M  V30 6029 H 577.872 -3.85174 -1.58208 0
M  V30 6030 H 580.469 -3.19776 -4.28541 0
M  V30 6031 H 580.812 -1.53665 -3.86902 0
M  V30 6032 H 581.345 -2.84271 -2.78271 0
M  V30 6033 H 578.084 -5.8331 -2.99047 0
M  V30 6034 H 577.604 -4.4586 -4.01209 0
M  V30 6035 H 579.283 -5.05225 -4.04174 0
M  V30 6036 N 579.415 0.9433 -1.26252 0
M  V30 6037 C 580.692 1.66639 -1.02424 0
M  V30 6038 C 581.072 2.06335 0.446006 0
M  V30 6039 O 580.42 1.78551 1.42589 0
M  V30 6040 C 580.63 2.88019 -1.97094 0
M  V30 6041 C 581.978 3.59718 -2.25584 0
M  V30 6042 O 583.002 2.9812 -1.94943 0
M  V30 6043 O 581.861 4.7066 -2.77743 0
M  V30 6044 H 578.955 0.729643 -0.389294 0
M  V30 6045 H 581.501 0.995218 -1.37454 0
M  V30 6046 H 580.273 2.5556 -2.96319 0
M  V30 6047 H 579.896 3.62863 -1.62532 0
M  V30 6048 N 580.893 1.08022 1.14757 0
M  V30 6049 C 582.139 0.808705 1.85978 0
M  V30 6050 C 582.472 -0.663764 1.82504 0
M  V30 6051 O 581.747 -1.48765 1.25296 0
M  V30 6052 C 582.03 1.32623 3.34788 0
M  V30 6053 C 581.883 2.86375 3.46856 0
M  V30 6054 C 583.202 0.948291 4.29762 0
M  V30 6055 H 580.321 0.295244 0.675278 0
M  V30 6056 H 582.963 1.33917 1.34783 0
M  V30 6057 H 581.113 0.875002 3.78518 0
M  V30 6058 H 582.785 3.39839 3.11941 0
M  V30 6059 H 581.028 3.24232 2.88194 0
M  V30 6060 H 581.699 3.17658 4.51439 0
M  V30 6061 H 584.175 1.33722 3.94028 0
M  V30 6062 H 583.051 1.33765 5.32352 0
M  V30 6063 H 583.312 -0.145094 4.41862 0
M  V30 6064 N 582.371 -1.3172 0.865308 0
M  V30 6065 C 583.619 -1.96487 0.472995 0
M  V30 6066 C 583.94 -1.68761 -0.976975 0
M  V30 6067 O 583.21 -1.00051 -1.68424 0
M  V30 6068 H 581.79 -0.726947 0.171922 0
M  V30 6069 H 584.452 -1.60612 1.10407 0
M  V30 6070 H 583.548 -3.0574 0.62687 0
M  V30 6071 N 583.85 -0.624285 -1.44708 0
M  V30 6072 C 585.127 -0.0572781 -1.95516 0
M  V30 6073 C 585.507 1.41516 -1.56641 0
M  V30 6074 O 584.855 2.12614 -0.837111 0
M  V30 6075 C 585.065 -0.272944 -3.47931 0
M  V30 6076 C 586.413 -0.162529 -4.24289 0
M  V30 6077 O 587.437 -0.203946 -3.55616 0
M  V30 6078 O 586.296 -0.0616847 -5.46465 0
M  V30 6079 H 583.389 0.0262219 -0.826584 0
M  V30 6080 H 585.936 -0.695512 -1.54793 0
M  V30 6081 H 584.707 -1.29492 -3.69253 0
M  V30 6082 H 584.331 0.399756 -3.95585 0
M  V30 6083 N 585.328 1.53329 -0.364422 0
M  V30 6084 C 586.577 2.00421 0.226747 0
M  V30 6085 C 586.89 1.25581 1.49963 0
M  V30 6086 O 588.096 1.63256 2.16933 0
M  V30 6087 C 586.552 3.57017 0.454618 0
M  V30 6088 C 586.16 4.40734 -0.803568 0
M  V30 6089 C 587.904 4.12468 1.00351 0
M  V30 6090 C 585.811 5.8888 -0.545345 0
M  V30 6091 H 584.741 0.748787 0.0885082 0
M  V30 6092 H 587.392 1.7703 -0.482983 0
M  V30 6093 H 585.774 3.76558 1.22558 0
M  V30 6094 H 586.948 4.32967 -1.57723 0
M  V30 6095 H 585.263 3.96381 -1.27559 0
M  V30 6096 H 587.86 5.20783 1.212 0
M  V30 6097 H 588.203 3.6699 1.9653 0
M  V30 6098 H 588.736 3.96721 0.29274 0
M  V30 6099 H 585.475 6.38633 -1.47743 0
M  V30 6100 H 584.995 5.99499 0.189842 0
M  V30 6101 H 586.674 6.46776 -0.170425 0
M  V30 6102 N 586.806 0.0935595 1.57322 0
M  V30 6103 C 587.754 -0.883457 2.15169 0
M  V30 6104 C 588.748 -1.29324 1.09415 0
M  V30 6105 O 589.954 -1.26795 1.27762 0
M  V30 6106 H 586.329 -0.302923 0.688289 0
M  V30 6107 H 588.3 -0.370845 2.96087 0
M  V30 6108 C 587.049 -2.13345 2.74552 0
M  V30 6109 H 586.372 -1.82702 3.55612 0
M  V30 6110 H 587.812 -2.7977 3.18598 0
M  V30 6111 C 586.271 -2.90646 1.70371 0
M  V30 6112 O 586.801 -3.85133 1.14173 0
M  V30 6113 N 585.007 -2.54157 1.40899 0
M  V30 6114 H 584.554 -1.77391 1.86789 0
M  V30 6115 H 584.512 -3.06178 0.714301 0
M  V30 6116 N 588.284 -1.56567 -0.180126 0
M  V30 6117 C 589.214 -1.98753 -1.22553 0
M  V30 6118 C 590.195 -0.86175 -1.46656 0
M  V30 6119 O 591.38 -1.12719 -1.58139 0
M  V30 6120 C 588.51 -2.33988 -2.56645 0
M  V30 6121 C 587.464 -3.49445 -2.47128 0
M  V30 6122 C 586.79 -3.70397 -3.8563 0
M  V30 6123 C 588.09 -4.83171 -1.98352 0
M  V30 6124 H 589.784 -2.86332 -0.874896 0
M  V30 6125 H 587.33 -1.37757 -0.419414 0
M  V30 6126 H 589.283 -2.62097 -3.29974 0
M  V30 6127 H 588.007 -1.43309 -2.93479 0
M  V30 6128 H 586.666 -3.2145 -1.76254 0
M  V30 6129 H 586.314 -2.77023 -4.19842 0
M  V30 6130 H 586.014 -4.48077 -3.80132 0
M  V30 6131 H 587.538 -4.00897 -4.60558 0
M  V30 6132 H 588.952 -5.10213 -2.61449 0
M  V30 6133 H 587.349 -5.64425 -2.03823 0
M  V30 6134 H 588.419 -4.75753 -0.937402 0
M  V30 6135 N 589.762 0.448376 -1.51087 0
M  V30 6136 C 590.71 1.56407 -1.72161 0
M  V30 6137 C 591.704 1.58878 -0.587721 0
M  V30 6138 O 592.91 1.62755 -0.768822 0
M  V30 6139 H 589.285 0.519423 -0.543786 0
M  V30 6140 H 591.256 1.35803 -2.65707 0
M  V30 6141 C 590.005 2.94163 -1.85373 0
M  V30 6142 H 589.328 2.9299 -2.72024 0
M  V30 6143 H 590.768 3.71625 -2.04135 0
M  V30 6144 C 589.227 3.31317 -0.610803 0
M  V30 6145 O 589.757 4.00985 0.239636 0
M  V30 6146 N 587.963 2.86966 -0.458127 0
M  V30 6147 H 587.51 2.30443 -1.15124 0
M  V30 6148 H 587.468 3.12188 0.372289 0
M  V30 6149 N 591.24 1.41047 0.703093 0
M  V30 6150 C 592.203 1.42036 1.79884 0
M  V30 6151 C 593.203 0.312153 1.57741 0
M  V30 6152 O 594.393 0.571672 1.64553 0
M  V30 6153 C 591.525 1.22437 3.18154 0
M  V30 6154 H 592.718 2.39572 1.80403 0
M  V30 6155 H 590.271 1.27079 0.909977 0
M  V30 6156 H 591.006 0.257112 3.23279 0
M  V30 6157 H 590.791 2.02723 3.35627 0
M  V30 6158 H 592.281 1.25946 3.98155 0
M  V30 6159 N 592.718 -0.936591 1.26751 0
M  V30 6160 C 593.666 -2.0573 1.08527 0
M  V30 6161 C 594.66 -1.69397 0.0108784 0
M  V30 6162 O 595.866 -1.79215 0.167915 0
M  V30 6163 H 592.241 -0.673691 0.334133 0
M  V30 6164 H 594.212 -2.1825 2.03493 0
M  V30 6165 C 592.961 -3.39738 0.739845 0
M  V30 6166 H 592.284 -3.68174 1.55845 0
M  V30 6167 H 593.724 -4.18955 0.652149 0
M  V30 6168 C 592.183 -3.32292 -0.555288 0
M  V30 6169 O 592.713 -3.68794 -1.59229 0
M  V30 6170 N 590.919 -2.85394 -0.54762 0
M  V30 6171 H 590.466 -2.55886 0.296667 0
M  V30 6172 H 590.424 -2.80795 -1.41427 0
M  V30 6173 N 594.196 -1.08629 -1.14182 0
M  V30 6174 C 595.612 -0.814363 -1.3726 0
M  V30 6175 C 595.812 0.575271 -1.93114 0
M  V30 6176 O 594.868 1.33165 -2.1453 0
M  V30 6177 C 596.181 -1.8989 -2.33157 0
M  V30 6178 C 597.729 -1.92518 -2.46791 0
M  V30 6179 C 598.204 -3.00092 -3.45989 0
M  V30 6180 N 599.695 -2.99279 -3.53534 0
M  V30 6181 C 600.43 -3.79158 -4.30147 0
M  V30 6182 N 599.926 -4.68923 -5.09983 0
M  V30 6183 N 601.719 -3.67451 -4.25366 0
M  V30 6184 H 593.87 -1.98232 -0.762758 0
M  V30 6185 H 596.133 -0.860383 -0.398051 0
M  V30 6186 H 595.839 -2.89809 -1.99257 0
M  V30 6187 H 595.713 -1.77013 -3.33086 0
M  V30 6188 H 598.1 -0.932425 -2.79982 0
M  V30 6189 H 598.181 -2.09473 -1.46816 0
M  V30 6190 H 597.825 -3.99575 -3.13532 0
M  V30 6191 H 597.755 -2.80382 -4.45751 0
M  V30 6192 H 600.246 -2.3422 -2.96563 0
M  V30 6193 H 600.559 -5.26475 -5.65724 0
M  V30 6194 H 598.904 -4.72964 -5.09244 0
M  V30 6195 H 602.095 -2.9669 -3.62067 0
M  V30 6196 H 602.268 -4.29944 -4.84822 0
M  V30 6197 N 595.674 1.31259 -0.872281 0
M  V30 6198 C 596.624 2.26 -0.301295 0
M  V30 6199 C 597.608 1.50729 0.562991 0
M  V30 6200 O 598.8 1.72198 0.40949 0
M  V30 6201 C 595.929 3.39724 0.494227 0
M  V30 6202 C 595.015 4.22363 -0.383432 0
M  V30 6203 N 595.406 4.83724 -1.47799 0
M  V30 6204 C 593.704 4.45652 -0.176278 0
M  V30 6205 C 594.405 5.45523 -2.01939 0
M  V30 6206 N 593.381 5.27428 -1.31608 0
M  V30 6207 H 597.183 2.70981 -1.13782 0
M  V30 6208 H 594.697 1.45552 -0.720294 0
M  V30 6209 H 596.694 4.06626 0.919828 0
M  V30 6210 H 595.354 2.96286 1.32834 0
M  V30 6211 H 596.365 4.83313 -1.8609 0
M  V30 6212 H 593.042 4.12845 0.621698 0
M  V30 6213 H 594.432 6.04268 -2.93786 0
M  V30 6214 N 597.152 0.631951 1.44375 0
M  V30 6215 C 598.082 -0.0593243 2.33425 0
M  V30 6216 C 599.063 -0.833964 1.48253 0
M  V30 6217 O 600.248 -0.799682 1.76971 0
M  V30 6218 C 597.378 -1.04096 3.31333 0
M  V30 6219 C 596.332 -0.377899 4.26328 0
M  V30 6220 C 595.658 -1.4695 5.14111 0
M  V30 6221 C 596.958 0.716371 5.17364 0
M  V30 6222 H 598.652 0.684287 2.91475 0
M  V30 6223 H 596.198 0.330518 1.40156 0
M  V30 6224 H 598.151 -1.53331 3.92514 0
M  V30 6225 H 596.875 -1.81547 2.71493 0
M  V30 6226 H 595.534 0.0938054 3.6648 0
M  V30 6227 H 595.182 -2.2349 4.50623 0
M  V30 6228 H 594.882 -1.03121 5.78481 0
M  V30 6229 H 596.406 -1.96363 5.78164 0
M  V30 6230 H 597.82 0.307089 5.72477 0
M  V30 6231 H 596.217 1.07784 5.90341 0
M  V30 6232 H 597.287 1.58316 4.58327 0
M  V30 6233 N 598.631 -1.53133 0.372548 0
M  V30 6234 C 599.578 -2.25951 -0.470631 0
M  V30 6235 C 600.548 -1.26895 -1.07176 0
M  V30 6236 O 601.733 -1.55691 -1.10294 0
M  V30 6237 C 598.873 -3.05726 -1.6008 0
M  V30 6238 C 597.986 -4.19684 -1.02416 0
M  V30 6239 C 597.121 -4.86888 -2.124 0
M  V30 6240 C 596.16 -5.92866 -1.52238 0
M  V30 6241 N 595.297 -6.53732 -2.56084 0
M  V30 6242 H 600.137 -2.97587 0.156816 0
M  V30 6243 H 597.674 -1.4683 0.0891571 0
M  V30 6244 H 599.632 -3.50258 -2.26661 0
M  V30 6245 H 598.262 -2.36331 -2.1988 0
M  V30 6246 H 597.314 -3.79588 -0.248426 0
M  V30 6247 H 598.626 -4.95821 -0.544366 0
M  V30 6248 H 597.78 -5.34638 -2.86787 0
M  V30 6249 H 596.519 -4.10239 -2.63734 0
M  V30 6250 H 595.524 -5.4447 -0.763685 0
M  V30 6251 H 596.749 -6.71439 -1.0172 0
M  V30 6252 H 594.695 -5.79932 -3.06618 0
M  V30 6253 H 594.612 -7.25429 -2.12811 0
M  V30 6254 H 595.88 -7.0613 -3.30152 0
M  V30 6255 N 600.109 -0.101901 -1.5727 0
M  V30 6256 C 601.039 0.851544 -2.17419 0
M  V30 6257 C 602.02 1.28942 -1.10941 0
M  V30 6258 O 603.205 1.35509 -1.39107 0
M  V30 6259 C 600.335 2.10816 -2.75996 0
M  V30 6260 C 599.289 1.80867 -3.87906 0
M  V30 6261 C 598.615 3.13413 -4.33216 0
M  V30 6262 C 599.915 1.0903 -5.10793 0
M  V30 6263 H 601.609 0.350381 -2.97343 0
M  V30 6264 H 599.155 0.16709 -1.43027 0
M  V30 6265 H 601.108 2.77959 -3.16729 0
M  V30 6266 H 599.832 2.63227 -1.93337 0
M  V30 6267 H 598.491 1.16119 -3.47724 0
M  V30 6268 H 598.139 3.63725 -3.47438 0
M  V30 6269 H 597.839 2.94155 -5.08671 0
M  V30 6270 H 599.363 3.81704 -4.76586 0
M  V30 6271 H 600.777 1.66295 -5.48652 0
M  V30 6272 H 599.174 0.99927 -5.91722 0
M  V30 6273 H 600.244 0.0741704 -4.84843 0
M  V30 6274 N 601.587 1.56661 0.17182 0
M  V30 6275 C 602.815 1.861 0.904115 0
M  V30 6276 C 603.23 0.687227 1.75848 0
M  V30 6277 O 602.587 -0.343671 1.79235 0
M  V30 6278 C 602.638 3.14568 1.78127 0
M  V30 6279 O 602.359 4.27422 0.961366 0
M  V30 6280 C 603.86 3.5735 2.62327 0
M  V30 6281 H 601.08 0.617445 0.262684 0
M  V30 6282 H 603.624 2.03775 0.172068 0
M  V30 6283 H 601.779 2.98721 2.46666 0
M  V30 6284 H 602.193 5.00725 1.56123 0
M  V30 6285 H 603.667 4.50144 3.1949 0
M  V30 6286 H 604.144 2.81445 3.37173 0
M  V30 6287 H 604.75 3.75807 1.99121 0
M  V30 6288 N 603.065 -0.440357 1.51323 0
M  V30 6289 C 604.476 -1.02032 1.56353 0
M  V30 6290 C 604.827 -1.92382 0.385197 0
M  V30 6291 O 603.952 -2.10583 -0.498373 0
M  V30 6292 C 604.547 -1.85723 2.83359 0
M  V30 6293 C 603.106 -2.38774 2.90971 0
M  V30 6294 C 602.253 -1.17908 2.50984 0
M  V30 6295 H 605.204 -0.221744 1.57143 0
M  V30 6296 H 605.225 -2.71141 2.66951 0
M  V30 6297 H 604.737 -1.19939 3.69102 0
M  V30 6298 H 602.838 -3.08021 2.09651 0
M  V30 6299 H 602.951 -2.71778 3.94555 0
M  V30 6300 H 601.315 -1.52347 2.04114 0
M  V30 6301 H 602.098 -0.537393 3.39068 0
M  V30 6302 N 604.543 -1.41418 -0.695603 0
M  V30 6303 C 605.768 -1.44329 -1.48942 0
M  V30 6304 C 606.193 -0.0501579 -1.88033 0
M  V30 6305 O 605.551 0.946598 -1.54626 0
M  V30 6306 C 605.599 -2.3578 -2.72837 0
M  V30 6307 O 604.703 -1.81482 -3.70322 0
M  V30 6308 H 604.044 -0.489838 -0.44828 0
M  V30 6309 H 606.574 -1.85878 -0.855014 0
M  V30 6310 H 606.584 -2.51654 -3.21145 0
M  V30 6311 H 605.259 -3.37005 -2.43722 0
M  V30 6312 H 603.836 -1.75058 -3.29255 0
M  V30 6313 N 606.021 0.929856 -1.27246 0
M  V30 6314 C 606.969 2.05151 -1.09616 0
M  V30 6315 C 607.963 1.69388 -0.0198617 0
M  V30 6316 O 609.169 1.79124 -0.177417 0
M  V30 6317 H 605.544 0.671909 -0.337701 0
M  V30 6318 H 607.515 2.17168 -2.04648 0
M  V30 6319 C 606.264 3.3934 -0.757851 0
M  V30 6320 H 605.587 3.67343 -1.57795 0
M  V30 6321 H 607.027 4.18603 -0.674358 0
M  V30 6322 C 605.486 3.32582 0.537658 0
M  V30 6323 O 606.016 3.69633 1.57271 0
M  V30 6324 N 604.222 2.8568 0.532478 0
M  V30 6325 H 603.769 2.55725 -0.310233 0
M  V30 6326 H 603.727 2.81541 1.39936 0
M  V30 6327 N 607.499 1.09233 1.13605 0
M  V30 6328 C 608.915 0.82163 1.36826 0
M  V30 6329 C 609.115 -0.565021 1.93416 0
M  V30 6330 O 608.171 -1.32026 2.15234 0
M  V30 6331 C 609.484 1.91124 2.32147 0
M  V30 6332 C 611.032 1.93824 2.45767 0
M  V30 6333 C 611.507 3.01923 3.44393 0
M  V30 6334 N 612.998 3.01149 3.51942 0
M  V30 6335 C 613.733 3.81434 4.2813 0
M  V30 6336 N 613.229 4.71621 5.07489 0
M  V30 6337 N 615.022 3.69702 4.23411 0
M  V30 6338 H 607.173 1.98633 0.752234 0
M  V30 6339 H 609.436 0.862482 0.393482 0
M  V30 6340 H 609.142 2.90862 1.97717 0
M  V30 6341 H 609.016 1.78777 3.32142 0
M  V30 6342 H 611.403 0.94726 2.79483 0
M  V30 6343 H 611.484 2.10248 1.45703 0
M  V30 6344 H 611.128 4.01232 3.11408 0
M  V30 6345 H 611.058 2.82742 4.44257 0
M  V30 6346 H 613.549 2.35789 2.95317 0
M  V30 6347 H 613.862 5.29468 5.62924 0
M  V30 6348 H 612.207 4.75658 5.06729 0
M  V30 6349 H 615.398 2.98606 3.60489 0
M  V30 6350 H 615.571 4.32509 4.82535 0
M  V30 6351 N 608.977 -1.30795 0.87923 0
M  V30 6352 C 609.927 -2.25838 0.313276 0
M  V30 6353 C 610.911 -1.51025 -0.55499 0
M  V30 6354 O 612.103 -1.72413 -0.400353 0
M  V30 6355 C 609.232 -3.39981 -0.476204 0
M  V30 6356 C 608.318 -4.22154 0.405826 0
M  V30 6357 N 608.709 -4.82934 1.50362 0
M  V30 6358 C 607.007 -4.45552 0.199909 0
M  V30 6359 C 607.708 -5.44444 2.0483 0
M  V30 6360 N 606.684 -5.26723 1.34403 0
M  V30 6361 H 610.486 -2.70374 1.15218 0
M  V30 6362 H 608 -1.45168 0.728003 0
M  V30 6363 H 609.997 -4.07108 -0.898251 0
M  V30 6364 H 608.657 -2.96986 -1.31261 0
M  V30 6365 H 609.668 -4.82319 1.8865 0
M  V30 6366 H 606.345 -4.13169 -0.599795 0
M  V30 6367 H 607.735 -6.02701 2.96986 0
M  V30 6368 N 610.455 -0.639598 -1.44038 0
M  V30 6369 C 611.704 -0.144885 -2.01179 0
M  V30 6370 C 612.017 1.24372 -1.50967 0
M  V30 6371 O 613.223 1.83291 -2.00292 0
M  V30 6372 C 611.679 -0.208244 -3.59297 0
M  V30 6373 C 611.287 -1.59869 -4.18504 0
M  V30 6374 C 613.031 0.229568 -4.23879 0
M  V30 6375 C 610.938 -1.61671 -5.68873 0
M  V30 6376 H 609.868 -0.0504005 -0.752314 0
M  V30 6377 H 612.519 -0.799639 -1.65161 0
M  V30 6378 H 610.901 0.513767 -3.92653 0
M  V30 6379 H 612.075 -2.34496 -3.96671 0
M  V30 6380 H 610.39 -1.98131 -3.66242 0
M  V30 6381 H 612.987 0.235758 -5.3418 0
M  V30 6382 H 613.33 1.25848 -3.96822 0
M  V30 6383 H 613.863 -0.440233 -3.95357 0
M  V30 6384 H 610.602 -2.62427 -6.00677 0
M  V30 6385 H 610.122 -0.913489 -5.92803 0
M  V30 6386 H 611.801 -1.35439 -6.32665 0
M  V30 6387 N 611.933 1.52934 -0.380664 0
M  V30 6388 C 613.161 2.05886 0.204599 0
M  V30 6389 C 613.576 1.25305 1.41223 0
M  V30 6390 O 612.933 0.297504 1.80059 0
M  V30 6391 C 612.984 3.56764 0.583249 0
M  V30 6392 O 612.705 4.34292 -0.576398 0
M  V30 6393 C 614.206 4.2603 1.2253 0
M  V30 6394 H 611.426 0.670193 0.0328991 0
M  V30 6395 H 613.97 1.97148 -0.543397 0
M  V30 6396 H 612.125 3.65603 1.28115 0
M  V30 6397 H 612.539 5.23819 -0.267119 0
M  V30 6398 H 614.013 5.32868 1.44068 0
M  V30 6399 H 614.49 3.80698 2.19011 0
M  V30 6400 H 615.096 4.21485 0.568407 0
M  V30 6401 N 613.412 0.11024 1.57214 0
M  V30 6402 C 614.637 -0.561179 1.99664 0
M  V30 6403 C 615.062 -1.59985 0.989266 0
M  V30 6404 O 614.42 -1.81255 -0.0402399 0
M  V30 6405 C 614.468 -1.17189 3.41027 0
M  V30 6406 O 613.572 -2.28755 3.4314 0
M  V30 6407 H 612.913 -0.14101 0.648855 0
M  V30 6408 H 615.443 0.196128 2.03658 0
M  V30 6409 H 615.453 -1.50954 3.79047 0
M  V30 6410 H 614.128 -0.411041 4.13864 0
M  V30 6411 H 612.705 -1.96495 3.16929 0
M  V30 6412 N 614.89 -1.56749 -0.16351 0
M  V30 6413 C 615.838 -1.97939 -1.22159 0
M  V30 6414 C 616.832 -0.869288 -1.45395 0
M  V30 6415 O 618.038 -1.05443 -1.45883 0
M  V30 6416 H 614.413 -0.629869 -0.410815 0
M  V30 6417 H 616.384 -2.86115 -0.847381 0
M  V30 6418 C 615.133 -2.36206 -2.55151 0
M  V30 6419 H 614.456 -3.2117 -2.38097 0
M  V30 6420 H 615.896 -2.68863 -3.27854 0
M  V30 6421 C 614.355 -1.20841 -3.14482 0
M  V30 6422 O 614.885 -0.500258 -3.98573 0
M  V30 6423 N 613.091 -0.976943 -2.73686 0
M  V30 6424 H 612.638 -1.55457 -2.05404 0
M  V30 6425 H 612.596 -0.206912 -3.13718 0
M  V30 6426 N 616.368 0.432326 -1.51554 0
M  V30 6427 C 617.298 1.53242 -1.76179 0
M  V30 6428 C 618.279 1.58717 -0.611801 0
M  V30 6429 O 619.464 1.74364 -0.855033 0
M  V30 6430 C 616.594 2.91278 -1.89141 0
M  V30 6431 C 615.548 3.00663 -3.04608 0
M  V30 6432 C 614.874 4.40728 -3.02759 0
M  V30 6433 C 616.174 2.74281 -4.44485 0
M  V30 6434 H 617.868 1.32886 -2.68294 0
M  V30 6435 H 615.414 0.637841 -1.29103 0
M  V30 6436 H 617.367 3.68203 -2.04951 0
M  V30 6437 H 616.091 3.12877 -0.936785 0
M  V30 6438 H 614.75 2.26179 -2.88511 0
M  V30 6439 H 614.398 4.59301 -2.05065 0
M  V30 6440 H 614.098 4.47936 -3.80299 0
M  V30 6441 H 615.622 5.19619 -3.20669 0
M  V30 6442 H 617.036 3.40936 -4.60907 0
M  V30 6443 H 615.433 2.92893 -5.23769 0
M  V30 6444 H 616.503 1.69856 -4.54177 0
M  V30 6445 N 617.846 1.41785 0.688094 0
M  V30 6446 C 619.093 1.41544 1.44816 0
M  V30 6447 C 619.421 0.0271746 1.94481 0
M  V30 6448 O 618.676 -0.962235 1.7041 0
M  V30 6449 C 618.975 2.37532 2.67046 0
M  V30 6450 C 618.641 3.84209 2.35996 0
M  V30 6451 C 617.303 4.24165 2.27239 0
M  V30 6452 C 619.655 4.76785 2.10536 0
M  V30 6453 C 616.983 5.54695 1.91128 0
M  V30 6454 C 619.335 6.07644 1.75931 0
M  V30 6455 C 617.999 6.46613 1.65675 0
M  V30 6456 H 617.269 0.517945 0.529919 0
M  V30 6457 H 619.916 1.74635 0.785797 0
M  V30 6458 H 618.221 1.9772 3.38251 0
M  V30 6459 H 619.918 2.34615 3.25203 0
M  V30 6460 H 616.508 3.52567 2.4371 0
M  V30 6461 H 620.692 4.46714 2.16242 0
M  V30 6462 H 615.948 5.83762 1.81746 0
M  V30 6463 H 620.122 6.78874 1.55252 0
M  V30 6464 H 617.749 7.47668 1.37463 0
M  V30 6465 N 619.324 -0.923095 1.27737 0
M  V30 6466 C 620.287 -2.00587 1.10894 0
M  V30 6467 C 621.287 -1.60718 0.0514927 0
M  V30 6468 O 622.477 -1.71658 0.296481 0
M  V30 6469 C 619.609 -3.33829 0.690717 0
M  V30 6470 H 620.802 -2.16959 2.07048 0
M  V30 6471 H 618.355 -1.10451 1.1059 0
M  V30 6472 H 619.09 -3.23157 -0.272 0
M  V30 6473 H 618.875 -3.64125 1.45448 0
M  V30 6474 H 620.365 -4.13336 0.595252 0
M  V30 6475 N 620.802 -1.09834 -1.13024 0
M  V30 6476 C 622.03 -0.858902 -1.8823 0
M  V30 6477 C 622.445 0.590164 -1.79339 0
M  V30 6478 O 621.802 1.4065 -1.16292 0
M  V30 6479 C 621.853 -1.29066 -3.37675 0
M  V30 6480 O 621.574 -2.6829 -3.46341 0
M  V30 6481 C 623.075 -1.08421 -4.29837 0
M  V30 6482 H 620.295 -0.308713 -0.595766 0
M  V30 6483 H 622.839 -1.4614 -1.4305 0
M  V30 6484 H 620.994 -0.731961 -3.80422 0
M  V30 6485 H 621.408 -2.86598 -4.39274 0
M  V30 6486 H 622.882 -1.43553 -5.33007 0
M  V30 6487 H 623.359 -0.0223315 -4.39194 0
M  V30 6488 H 623.965 -1.62907 -3.92863 0
M  V30 6489 N 622.28 1.30327 -0.886154 0
M  V30 6490 C 623.213 2.26241 -0.298407 0
M  V30 6491 C 624.191 1.51839 0.581704 0
M  V30 6492 O 625.375 1.80851 0.531536 0
M  V30 6493 C 622.502 3.33768 0.575888 0
M  V30 6494 C 621.548 4.25852 -0.235057 0
M  V30 6495 S 622.381 5.10277 -1.62411 0
M  V30 6496 C 623.537 6.21313 -0.756368 0
M  V30 6497 H 623.77 2.75744 -1.11141 0
M  V30 6498 H 621.303 1.38341 -0.685651 0
M  V30 6499 H 623.261 3.96186 1.07458 0
M  V30 6500 H 621.922 2.82986 1.363 0
M  V30 6501 H 621.115 5.02143 0.432198 0
M  V30 6502 H 620.717 3.68015 -0.666409 0
M  V30 6503 H 623.009 6.77495 0.0261451 0
M  V30 6504 H 623.952 6.92226 -1.49093 0
M  V30 6505 H 624.36 5.63611 -0.316749 0
M  V30 6506 N 623.758 0.647228 1.43697 0
M  V30 6507 C 625.006 0.157876 2.01482 0
M  V30 6508 C 625.327 -1.23039 1.51282 0
M  V30 6509 O 624.597 -1.82071 0.722982 0
M  V30 6510 H 623.177 0.0553745 0.744945 0
M  V30 6511 H 625.839 0.83755 1.75986 0
M  V30 6512 H 624.935 0.137895 3.11795 0
M  V30 6513 N 625.236 -1.5273 0.388769 0
M  V30 6514 C 626.482 -2.01871 -0.193877 0
M  V30 6515 C 626.815 -1.27475 -1.46505 0
M  V30 6516 O 626.09 -0.375063 -1.90849 0
M  V30 6517 C 626.373 -3.5712 -0.462336 0
M  V30 6518 C 626.226 -4.42186 0.824091 0
M  V30 6519 C 627.545 -4.21881 -1.25319 0
M  V30 6520 H 624.664 -0.733764 -0.0689899 0
M  V30 6521 H 627.306 -1.82796 0.518231 0
M  V30 6522 H 625.456 -3.73504 -1.06896 0
M  V30 6523 H 627.128 -4.37554 1.46096 0
M  V30 6524 H 625.371 -4.09219 1.43952 0
M  V30 6525 H 626.042 -5.48828 0.590905 0
M  V30 6526 H 628.518 -4.0947 -0.73981 0
M  V30 6527 H 627.394 -5.30487 -1.40977 0
M  V30 6528 H 627.655 -3.79478 -2.26824 0
M  V30 6529 N 626.714 -0.118576 -1.57153 0
M  V30 6530 C 627.962 0.538461 -1.94795 0
M  V30 6531 C 628.283 1.67243 -1.00274 0
M  V30 6532 O 627.553 1.95811 -0.0589692 0
M  V30 6533 H 626.133 0.201904 -0.719197 0
M  V30 6534 H 628.795 -0.187418 -1.93997 0
M  V30 6535 H 627.891 0.933315 -2.97818 0
M  V30 6536 N 628.193 1.56834 0.155195 0
M  V30 6537 C 629.442 1.82088 0.867567 0
M  V30 6538 C 629.755 0.69849 1.82703 0
M  V30 6539 O 630.961 0.836407 2.58295 0
M  V30 6540 C 629.417 3.22707 1.59336 0
M  V30 6541 C 629.025 4.42859 0.676719 0
M  V30 6542 C 630.769 3.57242 2.293 0
M  V30 6543 C 628.676 5.74501 1.40367 0
M  V30 6544 H 627.606 0.679057 0.327715 0
M  V30 6545 H 630.257 1.83105 0.120351 0
M  V30 6546 H 628.639 3.16054 2.38591 0
M  V30 6547 H 629.813 4.60731 -0.0800196 0
M  V30 6548 H 628.128 4.16311 0.0859129 0
M  V30 6549 H 630.725 4.52847 2.84312 0
M  V30 6550 H 631.068 2.82901 3.05406 0
M  V30 6551 H 631.601 3.6552 1.56972 0
M  V30 6552 H 628.34 6.51915 0.684623 0
M  V30 6553 H 627.86 5.60579 2.13332 0
M  V30 6554 H 629.539 6.17016 1.94681 0
M  V30 6555 N 629.671 -0.424282 1.51781 0
M  V30 6556 C 631.082 -1.00368 1.57427 0
M  V30 6557 C 631.433 -1.91962 0.40558 0
M  V30 6558 O 630.558 -2.111 -0.47601 0
M  V30 6559 C 631.153 -1.82707 2.85313 0
M  V30 6560 C 629.712 -2.35675 2.93487 0
M  V30 6561 C 628.859 -1.1524 2.5222 0
M  V30 6562 H 631.81 -0.205064 1.5737 0
M  V30 6563 H 631.831 -2.68294 2.69812 0
M  V30 6564 H 631.343 -1.16017 3.70353 0
M  V30 6565 H 629.444 -3.05781 2.12906 0
M  V30 6566 H 629.557 -2.67578 3.97415 0
M  V30 6567 H 627.921 -1.50174 2.05718 0
M  V30 6568 H 628.704 -0.5014 3.39619 0
M  V30 6569 N 631.149 -1.42148 -0.680565 0
M  V30 6570 C 632.397 -1.42029 -1.43779 0
M  V30 6571 C 632.718 -0.0356347 -1.94967 0
M  V30 6572 O 631.988 0.924936 -1.7269 0
M  V30 6573 H 630.568 -0.522835 -0.533529 0
M  V30 6574 H 633.23 -1.7752 -0.804538 0
M  V30 6575 H 632.326 -2.11658 -2.29363 0
M  V30 6576 N 632.627 0.916307 -1.28225 0
M  V30 6577 C 633.59 1.99996 -1.11957 0
M  V30 6578 C 634.59 1.60688 -0.0600152 0
M  V30 6579 O 635.78 1.71499 -0.30558 0
M  V30 6580 C 632.912 3.33458 -0.708411 0
M  V30 6581 H 634.105 2.15858 -2.08196 0
M  V30 6582 H 631.658 1.09863 -1.11175 0
M  V30 6583 H 632.393 3.23297 0.254859 0
M  V30 6584 H 632.178 3.63349 -1.47377 0
M  V30 6585 H 633.668 4.13014 -0.617164 0
M  V30 6586 N 634.105 1.10431 1.1244 0
M  V30 6587 C 635.354 0.841539 1.83306 0
M  V30 6588 C 635.667 -0.634961 1.85007 0
M  V30 6589 O 636.873 -1.01363 2.51869 0
M  V30 6590 C 635.329 1.45565 3.29149 0
M  V30 6591 C 634.937 2.96544 3.35806 0
M  V30 6592 C 636.681 1.27227 4.04986 0
M  V30 6593 C 634.588 3.5099 4.75983 0
M  V30 6594 H 633.518 0.311156 0.686803 0
M  V30 6595 H 636.169 1.32829 1.26604 0
M  V30 6596 H 634.551 0.896574 3.85717 0
M  V30 6597 H 635.725 3.58766 2.89177 0
M  V30 6598 H 634.04 3.14036 2.73442 0
M  V30 6599 H 636.637 1.65348 5.08492 0
M  V30 6600 H 636.98 0.213834 4.1575 0
M  V30 6601 H 637.513 1.79941 3.54776 0
M  V30 6602 H 634.252 4.56499 4.70413 0
M  V30 6603 H 633.772 2.93535 5.23065 0
M  V30 6604 H 635.451 3.48808 5.44924 0
M  V30 6605 N 635.583 -1.29855 0.893053 0
M  V30 6606 C 636.546 -2.26183 0.370687 0
M  V30 6607 C 637.546 -1.53108 -0.491385 0
M  V30 6608 O 638.736 -1.71643 -0.297386 0
M  V30 6609 C 635.868 -3.37633 -0.470827 0
M  V30 6610 H 637.061 -2.73903 1.22135 0
M  V30 6611 H 634.614 -1.41183 0.67061 0
M  V30 6612 H 635.349 -2.95241 -1.34175 0
M  V30 6613 H 635.134 -3.91825 0.146784 0
M  V30 6614 H 636.624 -4.09313 -0.827825 0
M  V30 6615 N 637.061 -0.65484 -1.43351 0
M  V30 6616 C 638.024 0.0263562 -2.29185 0
M  V30 6617 C 639.024 0.748951 -1.42293 0
M  V30 6618 O 640.214 0.589957 -1.63906 0
M  V30 6619 C 637.346 1.04806 -3.2439 0
M  V30 6620 H 638.539 -0.728883 -2.90908 0
M  V30 6621 H 636.092 -0.416149 -1.50658 0
M  V30 6622 H 636.827 1.83247 -2.67565 0
M  V30 6623 H 636.612 0.533554 -3.88453 0
M  V30 6624 H 638.102 1.52372 -3.88809 0
M  V30 6625 N 638.539 1.52521 -0.396863 0
M  V30 6626 C 639.486 2.26671 0.434624 0
M  V30 6627 C 640.456 1.28584 1.05144 0
M  V30 6628 O 641.641 1.57426 1.07804 0
M  V30 6629 C 638.781 3.08234 1.55196 0
M  V30 6630 C 637.894 4.21261 0.957262 0
M  V30 6631 C 637.029 4.90205 2.04627 0
M  V30 6632 C 636.068 5.95213 1.42787 0
M  V30 6633 N 635.205 6.57723 2.45651 0
M  V30 6634 H 640.045 2.973 -0.204139 0
M  V30 6635 H 637.582 1.46669 -0.112505 0
M  V30 6636 H 639.54 3.53819 2.2106 0
M  V30 6637 H 638.17 2.398 2.16092 0
M  V30 6638 H 637.222 3.79935 0.188005 0
M  V30 6639 H 638.534 4.96624 0.465416 0
M  V30 6640 H 637.688 5.39133 2.78246 0
M  V30 6641 H 636.427 4.14383 2.57174 0
M  V30 6642 H 635.432 5.45616 0.676968 0
M  V30 6643 H 636.657 6.72972 0.910255 0
M  V30 6644 H 634.603 5.84737 2.97353 0
M  V30 6645 H 634.52 7.28723 2.01243 0
M  V30 6646 H 635.788 7.11293 3.18876 0
M  V30 6647 N 640.017 0.126909 1.57088 0
M  V30 6648 C 640.947 -0.816847 2.18746 0
M  V30 6649 C 641.928 -1.27161 1.12979 0
M  V30 6650 O 643.113 -1.33279 1.41246 0
M  V30 6651 C 640.243 -2.06398 2.79315 0
M  V30 6652 C 639.197 -1.74673 3.90735 0
M  V30 6653 C 638.523 -3.06482 4.38147 0
M  V30 6654 C 639.823 -1.0089 5.12463 0
M  V30 6655 H 641.517 -0.303032 2.97863 0
M  V30 6656 H 639.063 -0.144314 1.43275 0
M  V30 6657 H 641.016 -2.72885 3.2111 0
M  V30 6658 H 639.74 -2.60118 1.975 0
M  V30 6659 H 638.399 -1.10572 3.49527 0
M  V30 6660 H 638.047 -3.58152 3.5318 0
M  V30 6661 H 637.747 -2.86025 5.13287 0
M  V30 6662 H 639.271 -3.74073 4.82599 0
M  V30 6663 H 640.685 -1.57546 5.51228 0
M  V30 6664 H 639.082 -0.905006 5.93237 0
M  V30 6665 H 640.152 0.00297335 4.849 0
M  V30 6666 N 641.495 -1.56914 -0.146875 0
M  V30 6667 C 642.443 -1.99224 -1.20053 0
M  V30 6668 C 643.437 -0.884661 -1.44465 0
M  V30 6669 O 644.643 -1.06984 -1.44756 0
M  V30 6670 H 641.018 -0.634191 -0.404112 0
M  V30 6671 H 642.989 -2.86998 -0.816987 0
M  V30 6672 C 641.738 -2.38899 -2.52632 0
M  V30 6673 H 641.061 -3.23677 -2.34677 0
M  V30 6674 H 642.501 -2.72326 -3.24984 0
M  V30 6675 C 640.96 -1.2417 -3.13183 0
M  V30 6676 O 641.49 -0.542503 -3.9802 0
M  V30 6677 N 639.696 -1.00592 -2.72635 0
M  V30 6678 H 639.243 -1.57627 -2.03744 0
M  V30 6679 H 639.201 -0.240174 -3.13481 0
M  V30 6680 N 642.974 0.416227 -1.52004 0
M  V30 6681 C 644.204 1.18401 -1.69307 0
M  V30 6682 C 644.612 1.84943 -0.399072 0
M  V30 6683 O 643.955 1.72406 0.634177 0
M  V30 6684 C 644.017 2.29465 -2.76742 0
M  V30 6685 C 643.681 1.83117 -4.18709 0
M  V30 6686 C 644.678 1.32286 -5.02789 0
M  V30 6687 C 642.363 1.90167 -4.64911 0
M  V30 6688 C 644.357 0.891178 -6.31139 0
M  V30 6689 C 642.044 1.4661 -5.93253 0
M  V30 6690 C 643.042 0.961696 -6.76196 0
M  V30 6691 O 642.73 0.532388 -8.02135 0
M  V30 6692 H 642.462 0.362098 -0.570843 0
M  V30 6693 H 645.016 0.496764 -1.99302 0
M  V30 6694 H 643.246 3.01531 -2.42107 0
M  V30 6695 H 644.935 2.91252 -2.82713 0
M  V30 6696 H 645.701 1.26218 -4.68288 0
M  V30 6697 H 641.58 2.28371 -4.00459 0
M  V30 6698 H 645.124 0.496788 -6.95829 0
M  V30 6699 H 641.021 1.52355 -6.27263 0
M  V30 6700 H 641.789 0.656339 -8.15864 0
M  V30 6701 N 644.452 1.42507 0.673017 0
M  V30 6702 C 645.863 1.38347 1.25367 0
M  V30 6703 C 646.214 0.0776327 1.96046 0
M  V30 6704 O 645.339 -0.823571 2.00116 0
M  V30 6705 C 645.934 2.506 2.28002 0
M  V30 6706 C 644.493 2.49767 2.81591 0
M  V30 6707 C 643.64 2.293 1.55938 0
M  V30 6708 H 646.591 1.51695 0.466288 0
M  V30 6709 H 646.612 2.20953 3.09774 0
M  V30 6710 H 646.124 3.45627 1.76532 0
M  V30 6711 H 644.225 1.58563 3.37177 0
M  V30 6712 H 644.338 3.46867 3.30485 0
M  V30 6713 H 642.702 1.77594 1.82572 0
M  V30 6714 H 643.485 3.26385 1.06431 0
M  V30 6715 N 645.93 -0.909495 1.28709 0
M  V30 6716 C 646.84 -2.04558 1.14861 0
M  V30 6717 C 647.856 -1.73842 0.0741621 0
M  V30 6718 O 649.032 -1.99383 0.2843 0
M  V30 6719 C 646.097 -3.36957 0.816148 0
M  V30 6720 C 645.158 -3.81255 1.97341 0
M  V30 6721 C 644.391 -5.07335 1.65671 0
M  V30 6722 O 644.614 -5.67514 0.573053 0
M  V30 6723 O 643.548 -5.47449 2.50167 0
M  V30 6724 H 647.374 -2.19161 2.10243 0
M  V30 6725 H 644.959 -1.03159 1.08068 0
M  V30 6726 H 646.841 -4.16436 0.644873 0
M  V30 6727 H 645.516 -3.2352 -0.107983 0
M  V30 6728 H 644.423 -3.02584 2.19986 0
M  V30 6729 H 645.756 -3.99261 2.87839 0
M  V30 6730 N 647.408 -1.11026 -1.11852 0
M  V30 6731 C 648.824 -0.843294 -1.35502 0
M  V30 6732 C 649.024 0.534179 -1.9429 0
M  V30 6733 O 648.08 1.28585 -2.17307 0
M  V30 6734 C 649.393 -1.94793 -2.29077 0
M  V30 6735 C 650.941 -1.97709 -2.42652 0
M  V30 6736 C 651.416 -3.07364 -3.39546 0
M  V30 6737 N 652.907 -3.0671 -3.47107 0
M  V30 6738 C 653.642 -3.88197 -4.22008 0
M  V30 6739 N 653.138 -4.79635 -4.99922 0
M  V30 6740 N 654.931 -3.76391 -4.17476 0
M  V30 6741 H 647.082 -1.99805 -0.720538 0
M  V30 6742 H 649.345 -0.868633 -0.379711 0
M  V30 6743 H 649.051 -2.93971 -1.93065 0
M  V30 6744 H 648.925 -1.84039 -3.29256 0
M  V30 6745 H 651.312 -0.991604 -2.77941 0
M  V30 6746 H 651.393 -2.1254 -1.4234 0
M  V30 6747 H 651.037 -4.06136 -3.04985 0
M  V30 6748 H 650.967 -2.89774 -4.39703 0
M  V30 6749 H 653.458 -2.40457 -2.91528 0
M  V30 6750 H 653.771 -5.38357 -5.54429 0
M  V30 6751 H 652.116 -4.8366 -4.99097 0
M  V30 6752 H 655.307 -3.04303 -3.55693 0
M  V30 6753 H 655.48 -4.40131 -4.75593 0
M  V30 6754 N 648.886 1.2938 -0.899927 0
M  V30 6755 C 649.818 2.26737 -0.335139 0
M  V30 6756 C 650.831 1.54316 0.518681 0
M  V30 6757 O 652.02 1.75313 0.335803 0
M  V30 6758 C 649.12 3.34558 0.540774 0
M  V30 6759 C 648.293 4.36455 -0.287372 0
M  V30 6760 C 647.352 5.2361 0.52141 0
M  V30 6761 O 646.378 5.69167 -0.0611735 0
M  V30 6762 N 647.58 5.50985 1.82745 0
M  V30 6763 H 650.345 2.75838 -1.17191 0
M  V30 6764 H 647.906 1.42716 -0.764438 0
M  V30 6765 H 649.898 3.89794 1.08825 0
M  V30 6766 H 648.468 2.85272 1.27823 0
M  V30 6767 H 647.688 3.80875 -1.01626 0
M  V30 6768 H 648.976 5.01573 -0.854518 0
M  V30 6769 H 648.374 5.15781 2.32349 0
M  V30 6770 H 646.931 6.09036 2.32204 0
M  V30 6771 N 650.364 0.662433 1.43002 0
M  V30 6772 C 651.61 0.179857 2.02001 0
M  V30 6773 C 651.943 -1.20625 1.52195 0
M  V30 6774 O 651.218 -1.80726 0.718911 0
M  V30 6775 C 651.501 0.200845 3.59539 0
M  V30 6776 C 651.354 1.62153 4.19555 0
M  V30 6777 C 652.673 -0.457738 4.37713 0
M  V30 6778 H 649.792 0.0668305 0.733964 0
M  V30 6779 H 652.434 0.84487 1.70182 0
M  V30 6780 H 650.584 -0.365411 3.86778 0
M  V30 6781 H 652.256 2.23908 4.03315 0
M  V30 6782 H 650.499 2.16601 3.75854 0
M  V30 6783 H 651.17 1.58799 5.28665 0
M  V30 6784 H 653.646 0.0241495 4.16093 0
M  V30 6785 H 652.522 -0.412363 5.47349 0
M  V30 6786 H 652.783 -1.53336 4.14657 0
M  V30 6787 N 651.842 -1.52309 0.404946 0
M  V30 6788 C 653.089 -2.01767 -0.1722 0
M  V30 6789 C 653.417 -1.29075 -1.45498 0
M  V30 6790 O 652.672 -0.3843 -1.9189 0
M  V30 6791 C 652.971 -3.54284 -0.470895 0
M  V30 6792 C 652.637 -4.45079 0.722194 0
M  V30 6793 C 651.299 -4.69617 1.04946 0
M  V30 6794 C 653.651 -4.98555 1.51962 0
M  V30 6795 C 650.979 -5.44878 2.17543 0
M  V30 6796 C 653.331 -5.75049 2.63632 0
M  V30 6797 C 651.995 -5.9786 2.9685 0
M  V30 6798 H 651.265 -0.738316 -0.0630125 0
M  V30 6799 H 653.912 -1.83566 0.545506 0
M  V30 6800 H 652.217 -3.70642 -1.27012 0
M  V30 6801 H 653.914 -3.90058 -0.930346 0
M  V30 6802 H 650.504 -4.26155 0.457131 0
M  V30 6803 H 654.688 -4.79509 1.28002 0
M  V30 6804 H 649.944 -5.60762 2.43631 0
M  V30 6805 H 654.118 -6.15483 3.25813 0
M  V30 6806 H 651.745 -6.5596 3.84215 0
M  V30 6807 N 653.32 -0.135238 -1.57019 0
M  V30 6808 C 654.268 0.826099 -2.17436 0
M  V30 6809 C 655.262 1.26378 -1.12805 0
M  V30 6810 O 656.468 1.23363 -1.31079 0
M  V30 6811 H 652.843 0.284568 -0.696078 0
M  V30 6812 H 654.814 0.292212 -2.96966 0
M  V30 6813 C 653.563 2.05991 -2.80112 0
M  V30 6814 H 652.886 1.73209 -3.60331 0
M  V30 6815 H 654.326 2.71225 -3.25903 0
M  V30 6816 C 652.785 2.86027 -1.78017 0
M  V30 6817 O 653.315 3.81971 -1.24344 0
M  V30 6818 N 651.521 2.50332 -1.47588 0
M  V30 6819 H 651.068 1.72377 -1.91426 0
M  V30 6820 H 651.026 3.04177 -0.795228 0
M  V30 6821 N 654.798 1.5699 0.138552 0
M  V30 6822 C 655.728 2.01933 1.17241 0
M  V30 6823 C 656.709 0.90033 1.44319 0
M  V30 6824 O 657.894 1.16872 1.55095 0
M  V30 6825 C 655.024 2.40711 2.50351 0
M  V30 6826 C 653.978 3.55874 2.37776 0
M  V30 6827 C 653.304 3.80491 3.75674 0
M  V30 6828 C 654.604 4.8826 1.85472 0
M  V30 6829 H 656.298 2.88551 0.798672 0
M  V30 6830 H 653.844 1.3882 0.382743 0
M  V30 6831 H 655.797 2.70754 3.22909 0
M  V30 6832 H 654.521 1.5104 2.89576 0
M  V30 6833 H 653.18 3.2601 1.67669 0
M  V30 6834 H 652.828 2.88057 4.12349 0
M  V30 6835 H 652.528 4.57998 3.68119 0
M  V30 6836 H 654.052 4.12967 4.49767 0
M  V30 6837 H 655.466 5.16965 2.4783 0
M  V30 6838 H 653.863 5.69631 1.88787 0
M  V30 6839 H 654.933 4.78071 0.810935 0
M  V30 6840 N 656.276 -0.40816 1.52223 0
M  V30 6841 C 657.239 -1.48 1.7501 0
M  V30 6842 C 658.239 -1.48367 0.619996 0
M  V30 6843 O 659.429 -1.49874 0.887881 0
M  V30 6844 C 656.561 -2.87403 1.83336 0
M  V30 6845 H 657.754 -1.29086 2.70697 0
M  V30 6846 H 655.307 -0.638715 1.42654 0
M  V30 6847 H 656.042 -3.11686 0.895677 0
M  V30 6848 H 655.827 -2.8854 2.65494 0
M  V30 6849 H 657.317 -3.65103 2.02705 0
M  V30 6850 N 657.755 -1.42862 -0.66545 0
M  V30 6851 C 659.003 -1.43546 -1.42264 0
M  V30 6852 C 659.324 -0.0563116 -1.94919 0
M  V30 6853 O 658.594 0.906568 -1.73661 0
M  V30 6854 H 657.174 -0.528464 -0.527953 0
M  V30 6855 H 659.836 -1.78363 -0.785665 0
M  V30 6856 H 658.932 -2.14079 -2.27105 0
M  V30 6857 N 659.233 0.902656 -1.29189 0
M  V30 6858 C 660.51 1.63296 -1.07674 0
M  V30 6859 C 660.89 2.07649 0.380137 0
M  V30 6860 O 660.238 1.82997 1.36837 0
M  V30 6861 C 660.448 2.81603 -2.06158 0
M  V30 6862 C 661.796 3.52359 -2.36914 0
M  V30 6863 O 662.82 2.91767 -2.04329 0
M  V30 6864 O 661.679 4.61586 -2.92576 0
M  V30 6865 H 658.773 0.716889 -0.41231 0
M  V30 6866 H 661.319 0.950984 -1.4055 0
M  V30 6867 H 660.091 2.46004 -3.04299 0
M  V30 6868 H 659.714 3.57508 -1.73993 0
M  V30 6869 N 660.711 1.11618 1.11262 0
M  V30 6870 C 661.959 0.864469 1.82678 0
M  V30 6871 C 662.28 -0.611564 1.85162 0
M  V30 6872 O 661.55 -1.44429 1.32352 0
M  V30 6873 H 660.13 0.316821 0.676486 0
M  V30 6874 H 662.792 1.40894 1.34666 0
M  V30 6875 H 661.888 1.23832 2.86482 0
M  V30 6876 N 662.189 -1.289 0.906776 0
M  V30 6877 C 663.437 -1.94883 0.535266 0
M  V30 6878 C 663.758 -1.71784 -0.922791 0
M  V30 6879 O 663.028 -1.05359 -1.65156 0
M  V30 6880 H 661.608 -0.721109 0.194962 0
M  V30 6881 H 664.27 -1.57018 1.15461 0
M  V30 6882 H 663.366 -3.03591 0.723821 0
M  V30 6883 N 663.667 -0.670007 -1.42649 0
M  V30 6884 C 664.63 0.00204659 -2.292 0
M  V30 6885 C 665.63 0.733817 -1.4308 0
M  V30 6886 O 666.82 0.57254 -1.64522 0
M  V30 6887 C 663.952 1.01359 -3.25483 0
M  V30 6888 H 665.145 -0.759696 -2.90118 0
M  V30 6889 H 662.698 -0.432105 -1.50208 0
M  V30 6890 H 663.433 1.80399 -2.69493 0
M  V30 6891 H 663.218 0.492323 -3.88997 0
M  V30 6892 H 664.708 1.4824 -3.90403 0
M  V30 6893 N 665.145 1.52092 -0.413018 0
M  V30 6894 C 666.37 2.06756 0.163338 0
M  V30 6895 C 666.795 1.28073 1.37764 0
M  V30 6896 O 666.153 0.312015 1.78595 0
M  V30 6897 C 666.201 3.57278 0.488322 0
M  V30 6898 O 665.305 3.80986 1.57871 0
M  V30 6899 H 664.646 0.663882 0.0125068 0
M  V30 6900 H 667.176 1.95988 -0.587339 0
M  V30 6901 H 667.186 4.01125 0.745836 0
M  V30 6902 H 665.861 4.13978 -0.399327 0
M  V30 6903 H 664.438 3.49017 1.31306 0
M  V30 6904 N 666.623 0.143563 1.56945 0
M  V30 6905 C 667.556 -0.835367 2.1236 0
M  V30 6906 C 668.534 -1.24466 1.04627 0
M  V30 6907 O 669.718 -1.34138 1.32436 0
M  V30 6908 C 666.845 -2.12123 2.64048 0
M  V30 6909 C 665.891 -1.85812 3.83896 0
M  V30 6910 S 666.724 -1.05222 5.25061 0
M  V30 6911 C 667.88 -2.34935 5.80135 0
M  V30 6912 H 668.113 -0.364109 2.95062 0
M  V30 6913 H 665.646 -0.0706601 1.54238 0
M  V30 6914 H 667.604 -2.85993 2.94479 0
M  V30 6915 H 666.265 -2.56364 1.81483 0
M  V30 6916 H 665.458 -2.81151 4.18294 0
M  V30 6917 H 665.06 -1.20052 3.54208 0
M  V30 6918 H 667.352 -3.3061 5.91357 0
M  V30 6919 H 668.295 -2.05046 6.77762 0
M  V30 6920 H 668.703 -2.45426 5.08356 0
M  V30 6921 N 668.101 -1.57061 -0.130224 0
M  V30 6922 C 669.329 -1.88432 -0.854456 0
M  V30 6923 C 669.744 -0.733608 -1.73964 0
M  V30 6924 O 669.101 0.296029 -1.80083 0
M  V30 6925 C 669.152 -3.1918 -1.69724 0
M  V30 6926 O 668.873 -4.2982 -0.847705 0
M  V30 6927 C 670.374 -3.6418 -2.5276 0
M  V30 6928 H 667.594 -0.624193 -0.246221 0
M  V30 6929 H 670.138 -2.04159 -0.11798 0
M  V30 6930 H 668.293 -3.05156 -2.3866 0
M  V30 6931 H 668.707 -5.04689 -1.42792 0
M  V30 6932 H 670.181 -4.58457 -3.07443 0
M  V30 6933 H 670.658 -2.90285 -3.29592 0
M  V30 6934 H 671.264 -3.80954 -1.89087 0
M  V30 6935 N 669.579 0.400081 -1.52437 0
M  V30 6936 C 670.512 1.50929 -1.7116 0
M  V30 6937 C 671.49 1.52679 -0.559275 0
M  V30 6938 O 672.674 1.71251 -0.787735 0
M  V30 6939 C 669.801 2.89433 -1.75915 0
M  V30 6940 C 668.847 3.05556 -2.97553 0
M  V30 6941 S 669.68 2.77919 -4.57735 0
M  V30 6942 C 670.836 4.18636 -4.6529 0
M  V30 6943 H 671.069 1.3482 -2.64973 0
M  V30 6944 H 668.602 0.592245 -1.4259 0
M  V30 6945 H 670.56 3.69253 -1.7934 0
M  V30 6946 H 669.221 3.02877 -0.832137 0
M  V30 6947 H 668.414 4.0691 -2.97388 0
M  V30 6948 H 668.016 2.33615 -2.92062 0
M  V30 6949 H 670.308 5.12406 -4.43223 0
M  V30 6950 H 671.251 4.23821 -5.67258 0
M  V30 6951 H 671.659 4.04029 -3.94234 0
M  V30 6952 N 671.057 1.43213 0.657864 0
M  V30 6953 C 671.989 1.43974 1.78337 0
M  V30 6954 C 673.002 0.336482 1.59285 0
M  V30 6955 O 674.191 0.600631 1.68091 0
M  V30 6956 C 671.291 1.23242 3.15697 0
M  V30 6957 C 670.464 2.46319 3.61449 0
M  V30 6958 C 669.523 2.2088 4.77597 0
M  V30 6959 O 668.549 2.942 4.87273 0
M  V30 6960 N 669.751 1.22251 5.67481 0
M  V30 6961 H 672.516 2.40993 1.78164 0
M  V30 6962 H 670.077 1.3831 0.841549 0
M  V30 6963 H 672.069 1.04113 3.91079 0
M  V30 6964 H 670.639 0.346849 3.1067 0
M  V30 6965 H 669.859 2.80904 2.76563 0
M  V30 6966 H 671.147 3.28239 3.88763 0
M  V30 6967 H 670.545 0.616433 5.62331 0
M  V30 6968 H 669.102 1.09107 6.42603 0
M  V30 6969 N 672.536 -0.895792 1.29666 0
M  V30 6970 C 673.813 -1.62723 1.08538 0
M  V30 6971 C 674.193 -2.07848 -0.369119 0
M  V30 6972 O 673.541 -1.8372 -1.35864 0
M  V30 6973 C 673.751 -2.80505 2.07648 0
M  V30 6974 C 675.099 -3.51098 2.3878 0
M  V30 6975 O 676.123 -2.90679 2.05874 0
M  V30 6976 O 674.982 -4.60028 2.9502 0
M  V30 6977 H 672.076 -0.714692 0.416106 0
M  V30 6978 H 674.622 -0.943517 1.41053 0
M  V30 6979 H 673.394 -2.44386 3.05599 0
M  V30 6980 H 673.017 -3.5658 1.75887 0
M  V30 6981 N 674.014 -1.12206 -1.10668 0
M  V30 6982 C 674.944 -0.810086 -2.18997 0
M  V30 6983 C 675.925 0.225065 -1.68604 0
M  V30 6984 O 677.11 0.086783 -1.94006 0
M  V30 6985 C 674.24 -0.261262 -3.46316 0
M  V30 6986 C 673.194 -1.2292 -4.09969 0
M  V30 6987 C 672.52 -0.540713 -5.31959 0
M  V30 6988 C 673.82 -2.58295 -4.53962 0
M  V30 6989 H 675.514 -1.7159 -2.45352 0
M  V30 6990 H 673.06 -0.82646 -1.17922 0
M  V30 6991 H 675.013 -0.0307522 -4.21389 0
M  V30 6992 H 673.737 0.679879 -3.19445 0
M  V30 6993 H 672.396 -1.44548 -3.369 0
M  V30 6994 H 672.044 0.405492 -5.01363 0
M  V30 6995 H 671.744 -1.18637 -5.75499 0
M  V30 6996 H 673.268 -0.319184 -6.09765 0
M  V30 6997 H 674.682 -2.40709 -5.20319 0
M  V30 6998 H 673.079 -3.18916 -5.08343 0
M  V30 6999 H 674.149 -3.16918 -3.67002 0
M  V30 7000 N 675.492 1.28418 -0.913599 0
M  V30 7001 C 676.455 2.25564 -0.406624 0
M  V30 7002 C 677.455 1.5387 0.466965 0
M  V30 7003 O 678.645 1.72094 0.270042 0
M  V30 7004 C 675.777 3.38339 0.417053 0
M  V30 7005 H 676.97 2.71926 -1.26477 0
M  V30 7006 H 674.523 1.40098 -0.692986 0
M  V30 7007 H 675.258 2.97339 1.29461 0
M  V30 7008 H 675.043 3.91542 -0.209102 0
M  V30 7009 H 676.533 4.10578 0.762602 0
M  V30 7010 N 676.97 0.677563 1.42291 0
M  V30 7011 C 678.198 0.209459 2.05837 0
M  V30 7012 C 678.613 -1.13444 1.50917 0
M  V30 7013 O 677.97 -1.70529 0.65008 0
M  V30 7014 C 678.021 0.138819 3.61233 0
M  V30 7015 O 677.742 1.42962 4.14118 0
M  V30 7016 C 679.243 -0.352449 4.41897 0
M  V30 7017 H 676.463 0.101209 0.663323 0
M  V30 7018 H 679.007 0.925077 1.8238 0
M  V30 7019 H 677.162 -0.527505 3.83792 0
M  V30 7020 H 677.576 1.3048 5.08011 0
M  V30 7021 H 679.05 -0.350778 5.50884 0
M  V30 7022 H 679.527 -1.3882 4.16684 0
M  V30 7023 H 680.133 0.282236 4.24362 0
M  V30 7024 N 678.448 -1.51871 0.421078 0
M  V30 7025 C 679.38 -2.25052 -0.434065 0
M  V30 7026 C 680.393 -1.28458 -1.00013 0
M  V30 7027 O 681.582 -1.54323 -0.897033 0
M  V30 7028 C 678.682 -2.97813 -1.61743 0
M  V30 7029 C 677.855 -4.21374 -1.17315 0
M  V30 7030 C 676.914 -4.76854 -2.22478 0
M  V30 7031 O 675.94 -5.39123 -1.82577 0
M  V30 7032 N 677.142 -4.59467 -3.54782 0
M  V30 7033 H 679.907 -2.99077 0.193073 0
M  V30 7034 H 677.468 -1.59972 0.249088 0
M  V30 7035 H 679.46 -3.3182 -2.31685 0
M  V30 7036 H 678.03 -2.26899 -2.15024 0
M  V30 7037 H 677.25 -3.93046 -0.3014 0
M  V30 7038 H 678.538 -5.01591 -0.853444 0
M  V30 7039 H 677.936 -4.09832 -3.89941 0
M  V30 7040 H 676.493 -4.9788 -4.20665 0
M  V30 7041 N 679.926 -0.151884 -1.56866 0
M  V30 7042 C 681.172 0.498742 -1.96572 0
M  V30 7043 C 681.505 1.64194 -1.03702 0
M  V30 7044 O 680.78 1.94334 -0.0803432 0
M  V30 7045 C 681.063 1.00027 -3.45929 0
M  V30 7046 C 680.916 -0.141767 -4.49577 0
M  V30 7047 C 682.235 1.88044 -3.97904 0
M  V30 7048 H 679.354 0.17982 -0.714726 0
M  V30 7049 H 681.996 -0.234097 -1.88552 0
M  V30 7050 H 680.146 1.62476 -3.52894 0
M  V30 7051 H 681.818 -0.778269 -4.54687 0
M  V30 7052 H 680.061 -0.80019 -4.26356 0
M  V30 7053 H 680.732 0.250947 -5.51429 0
M  V30 7054 H 683.208 1.35416 -3.93449 0
M  V30 7055 H 682.084 2.20043 -5.02864 0
M  V30 7056 H 682.345 2.81916 -3.40552 0
M  V30 7057 N 681.404 1.57128 0.121893 0
M  V30 7058 C 682.336 1.96773 1.17529 0
M  V30 7059 C 683.349 0.866668 1.37814 0
M  V30 7060 O 684.538 1.14497 1.3694 0
M  V30 7061 C 681.638 2.24832 2.53582 0
M  V30 7062 C 680.811 3.56138 2.53939 0
M  V30 7063 C 679.87 3.72443 3.71716 0
M  V30 7064 O 678.896 4.44584 3.55434 0
M  V30 7065 N 680.098 3.10993 4.90167 0
M  V30 7066 H 682.863 2.87743 0.838086 0
M  V30 7067 H 680.424 1.58881 0.311199 0
M  V30 7068 H 682.416 2.32958 3.30927 0
M  V30 7069 H 680.986 1.40002 2.79496 0
M  V30 7070 H 680.206 3.59226 1.62329 0
M  V30 7071 H 681.494 4.42448 2.51231 0
M  V30 7072 H 680.892 2.52345 5.06299 0
M  V30 7073 H 679.449 3.24644 5.65198 0
M  V30 7074 N 682.882 -0.391992 1.52647 0
M  V30 7075 C 684.112 -1.15692 1.71169 0
M  V30 7076 C 684.52 -1.84285 0.428444 0
M  V30 7077 O 683.863 -1.73393 -0.606669 0
M  V30 7078 C 683.925 -2.25033 2.80357 0
M  V30 7079 C 683.589 -1.76433 4.21569 0
M  V30 7080 C 684.586 -1.2427 5.0483 0
M  V30 7081 C 682.271 -1.82746 4.67877 0
M  V30 7082 C 684.265 -0.790657 6.32477 0
M  V30 7083 C 681.952 -1.37153 5.9551 0
M  V30 7084 C 682.95 -0.853997 6.7764 0
M  V30 7085 O 682.638 -0.404708 8.02881 0
M  V30 7086 H 682.37 -0.35297 0.576531 0
M  V30 7087 H 684.924 -0.464994 2.00067 0
M  V30 7088 H 683.154 -2.97641 2.46874 0
M  V30 7089 H 684.843 -2.86718 2.87311 0
M  V30 7090 H 685.609 -1.18752 4.70237 0
M  V30 7091 H 681.488 -2.21971 4.04042 0
M  V30 7092 H 685.032 -0.386024 6.96531 0
M  V30 7093 H 680.929 -1.42356 6.29607 0
M  V30 7094 H 681.697 -0.526459 8.16805 0
M  V30 7095 N 684.36 -1.4356 -0.65026 0
M  V30 7096 C 685.31 -1.45392 -1.75628 0
M  V30 7097 C 686.294 -0.322006 -1.57645 0
M  V30 7098 O 687.486 -0.565996 -1.67707 0
M  V30 7099 C 684.615 -1.38254 -3.1423 0
M  V30 7100 C 683.701 -2.56487 -3.3775 0
M  V30 7101 N 684.092 -3.81824 -3.31729 0
M  V30 7102 C 682.39 -2.51274 -3.6848 0
M  V30 7103 C 683.091 -4.60497 -3.55412 0
M  V30 7104 N 682.067 -3.91274 -3.77367 0
M  V30 7105 H 685.869 -2.40167 -1.69402 0
M  V30 7106 H 683.383 -1.38254 -0.852037 0
M  V30 7107 H 685.38 -1.3765 -3.9352 0
M  V30 7108 H 684.04 -0.445019 -3.21636 0
M  V30 7109 H 685.051 -4.14069 -3.11074 0
M  V30 7110 H 681.728 -1.66223 -3.82983 0
M  V30 7111 H 683.118 -5.69518 -3.5651 0
M  V30 7112 N 685.838 0.888903 -1.30139 0
M  V30 7113 C 686.768 2.01046 -1.18755 0
M  V30 7114 C 687.749 1.69916 -0.0791438 0
M  V30 7115 O 688.934 1.92445 -0.260498 0
M  V30 7116 C 686.064 3.36109 -0.874518 0
M  V30 7117 C 685.018 3.81486 -1.94043 0
M  V30 7118 C 684.344 5.13796 -1.48047 0
M  V30 7119 C 685.644 4.00637 -3.35093 0
M  V30 7120 H 687.338 2.10828 -2.12584 0
M  V30 7121 H 684.884 1.01298 -1.02346 0
M  V30 7122 H 686.837 4.14089 -0.781548 0
M  V30 7123 H 685.561 3.26449 0.0994519 0
M  V30 7124 H 684.22 3.05731 -2.02297 0
M  V30 7125 H 683.868 5.0056 -0.494878 0
M  V30 7126 H 683.568 5.45127 -2.19341 0
M  V30 7127 H 685.092 5.94305 -1.40121 0
M  V30 7128 H 686.506 4.69067 -3.2962 0
M  V30 7129 H 684.903 4.43339 -4.04438 0
M  V30 7130 H 685.973 3.0462 -3.77273 0
M  V30 7131 N 687.317 1.12792 1.10072 0
M  V30 7132 C 688.728 0.899346 1.63611 0
M  V30 7133 C 689.079 -0.565547 1.87872 0
M  V30 7134 O 688.204 -1.43081 1.62348 0
M  V30 7135 C 688.799 1.62608 2.97227 0
M  V30 7136 C 687.358 1.44356 3.47618 0
M  V30 7137 C 686.505 1.65958 2.22156 0
M  V30 7138 H 689.456 1.28216 0.935223 0
M  V30 7139 H 689.477 1.0793 3.64872 0
M  V30 7140 H 688.989 2.69221 2.79538 0
M  V30 7141 H 687.09 0.400148 3.70445 0
M  V30 7142 H 687.203 2.20218 4.25489 0
M  V30 7143 H 685.567 1.08395 2.30484 0
M  V30 7144 H 686.35 2.73877 2.06993 0
M  V30 7145 N 688.795 -1.27931 0.920396 0
M  V30 7146 C 690.041 -1.94977 0.557832 0
M  V30 7147 C 690.374 -1.72224 -0.897365 0
M  V30 7148 O 689.649 -1.04705 -1.63912 0
M  V30 7149 C 689.932 -3.49289 0.875741 0
M  V30 7150 C 689.785 -3.81416 2.38416 0
M  V30 7151 C 691.104 -4.38486 0.376517 0
M  V30 7152 H 688.223 -0.708164 0.20414 0
M  V30 7153 H 690.865 -1.5118 1.15085 0
M  V30 7154 H 689.015 -3.86724 0.371062 0
M  V30 7155 H 690.687 -3.53813 2.95997 0
M  V30 7156 H 688.93 -3.28225 2.83639 0
M  V30 7157 H 689.601 -4.89198 2.55713 0
M  V30 7158 H 692.077 -4.08161 0.808945 0
M  V30 7159 H 690.953 -5.45296 0.627976 0
M  V30 7160 H 691.214 -4.36143 -0.723293 0
M  V30 7161 N 690.273 -0.685099 -1.4193 0
M  V30 7162 C 691.522 -0.208816 -2.00616 0
M  V30 7163 C 691.835 1.19506 -1.54847 0
M  V30 7164 O 693.041 1.76826 -2.06021 0
M  V30 7165 C 691.497 -0.322446 -3.58453 0
M  V30 7166 C 691.105 -1.73102 -4.13206 0
M  V30 7167 C 692.849 0.0945979 -4.24395 0
M  V30 7168 C 690.756 -1.79687 -5.63442 0
M  V30 7169 H 689.686 -0.0743092 -0.750329 0
M  V30 7170 H 692.337 -0.851778 -1.62533 0
M  V30 7171 H 690.719 0.388588 -3.94089 0
M  V30 7172 H 691.893 -2.46997 -3.8901 0
M  V30 7173 H 690.208 -2.09682 -3.59753 0
M  V30 7174 H 692.805 0.0656937 -5.3466 0
M  V30 7175 H 693.148 1.1316 -4.00625 0
M  V30 7176 H 693.681 -0.56579 -3.93756 0
M  V30 7177 H 690.42 -2.81404 -5.92024 0
M  V30 7178 H 689.94 -1.10162 -5.89597 0
M  V30 7179 H 691.619 -1.55498 -6.28036 0
M  V30 7180 N 691.751 1.51645 -0.429126 0
M  V30 7181 C 692.699 2.29119 0.400921 0
M  V30 7182 C 693.693 1.34628 1.02819 0
M  V30 7183 O 694.899 1.52004 0.964098 0
M  V30 7184 H 691.274 0.737273 0.148095 0
M  V30 7185 H 693.245 2.97144 -0.273457 0
M  V30 7186 C 691.994 3.13953 1.49429 0
M  V30 7187 H 691.317 3.86544 1.02097 0
M  V30 7188 H 692.757 3.71232 2.04849 0
M  V30 7189 C 691.216 2.28796 2.47293 0
M  V30 7190 O 691.746 1.94193 3.51642 0
M  V30 7191 N 689.952 1.92177 2.17982 0
M  V30 7192 H 689.499 2.20517 1.33154 0
M  V30 7193 H 689.457 1.35497 2.83704 0
M  V30 7194 N 693.229 0.160201 1.56784 0
M  V30 7195 C 694.475 -0.48831 1.96833 0
M  V30 7196 C 694.808 -1.63641 1.04571 0
M  V30 7197 O 694.083 -1.94289 0.0906481 0
M  V30 7198 C 694.366 -0.981908 3.46454 0
M  V30 7199 C 694.219 0.165607 4.49495 0
M  V30 7200 C 695.538 -1.85931 3.98896 0
M  V30 7201 H 692.657 -0.176027 0.71567 0
M  V30 7202 H 695.299 0.244093 1.88426 0
M  V30 7203 H 693.449 -1.60602 3.5375 0
M  V30 7204 H 695.121 0.802372 4.54268 0
M  V30 7205 H 693.364 0.822789 4.25926 0
M  V30 7206 H 694.035 -0.221699 5.51555 0
M  V30 7207 H 696.511 -1.33327 3.94161 0
M  V30 7208 H 695.387 -2.17373 5.04024 0
M  V30 7209 H 695.648 -2.80106 3.42042 0
M  V30 7210 N 694.707 -1.5719 -0.113559 0
M  V30 7211 C 695.953 -1.85412 -0.821597 0
M  V30 7212 C 696.286 -0.746722 -1.7927 0
M  V30 7213 O 695.561 0.246971 -1.92926 0
M  V30 7214 C 695.844 -3.24233 -1.56669 0
M  V30 7215 C 695.697 -4.45578 -0.614823 0
M  V30 7216 C 697.016 -3.60697 -2.52161 0
M  V30 7217 H 694.135 -0.674406 -0.29723 0
M  V30 7218 H 696.777 -1.89807 -0.085694 0
M  V30 7219 H 694.927 -3.20617 -2.19401 0
M  V30 7220 H 696.599 -4.613 0.00407137 0
M  V30 7221 H 694.842 -4.33738 0.0732332 0
M  V30 7222 H 695.513 -5.39395 -1.17292 0
M  V30 7223 H 697.989 -3.65139 -1.99532 0
M  V30 7224 H 696.865 -4.58798 -3.01323 0
M  V30 7225 H 697.126 -2.88403 -3.35076 0
M  V30 7226 N 696.185 0.383891 -1.52853 0
M  V30 7227 C 697.432 1.12842 -1.68146 0
M  V30 7228 C 697.76 1.89823 -0.423954 0
M  V30 7229 O 697.015 1.86475 0.593765 0
M  V30 7230 C 697.314 2.12881 -2.87082 0
M  V30 7231 C 696.98 1.52519 -4.24322 0
M  V30 7232 C 695.642 1.35783 -4.61645 0
M  V30 7233 C 697.994 1.0868 -5.09743 0
M  V30 7234 C 695.322 0.737643 -5.82044 0
M  V30 7235 C 697.674 0.480699 -6.30771 0
M  V30 7236 C 696.338 0.300681 -6.66822 0
M  V30 7237 H 695.608 0.412917 -0.615289 0
M  V30 7238 H 698.255 0.412416 -1.87006 0
M  V30 7239 H 696.56 2.90719 -2.62659 0
M  V30 7240 H 698.257 2.70408 -2.96109 0
M  V30 7241 H 694.847 1.66534 -3.94923 0
M  V30 7242 H 699.031 1.2041 -4.81472 0
M  V30 7243 H 694.287 0.586415 -6.08581 0
M  V30 7244 H 698.461 0.132733 -6.96273 0
M  V30 7245 H 696.088 -0.181966 -7.59982 0
M  V30 7246 N 697.663 1.43903 0.642637 0
M  V30 7247 C 698.891 1.4954 1.42988 0
M  V30 7248 C 699.306 0.116588 1.8844 0
M  V30 7249 O 698.663 -0.875285 1.60141 0
M  V30 7250 C 698.714 2.45031 2.65785 0
M  V30 7251 O 698.435 3.77551 2.22232 0
M  V30 7252 C 699.936 2.60017 3.59035 0
M  V30 7253 H 697.156 0.507544 0.438907 0
M  V30 7254 H 699.7 1.88752 0.786942 0
M  V30 7255 H 697.855 2.08985 3.26196 0
M  V30 7256 H 698.269 4.29001 3.01759 0
M  V30 7257 H 699.743 3.30887 4.41835 0
M  V30 7258 H 700.22 1.64861 4.07084 0
M  V30 7259 H 700.826 2.96918 3.045 0
M  V30 7260 N 699.141 -0.881989 1.30609 0
M  V30 7261 C 700.089 -2.00942 1.17155 0
M  V30 7262 C 701.083 -1.69198 0.0827154 0
M  V30 7263 O 702.289 -1.78342 0.243775 0
M  V30 7264 H 698.664 -0.658913 0.362406 0
M  V30 7265 H 700.635 -2.09423 2.12567 0
M  V30 7266 C 699.384 -3.36294 0.883273 0
M  V30 7267 H 698.707 -3.61233 1.7132 0
M  V30 7268 H 700.147 -4.15812 0.829255 0
M  V30 7269 C 698.606 -3.34348 -0.413851 0
M  V30 7270 O 699.136 -3.75216 -1.43444 0
M  V30 7271 N 697.342 -2.87459 -0.426082 0
M  V30 7272 H 696.889 -2.54397 0.40493 0
M  V30 7273 H 696.847 -2.8654 -1.29391 0
M  V30 7274 N 700.619 -1.13374 -1.09472 0
M  V30 7275 C 701.859 -0.905422 -1.83252 0
M  V30 7276 C 702.223 0.558396 -1.83701 0
M  V30 7277 O 703.424 0.904254 -2.53134 0
M  V30 7278 C 701.695 -1.47658 -3.25472 0
M  V30 7279 S 703.254 -1.38825 -4.16261 0
M  V30 7280 H 700.072 -0.326371 -0.631667 0
M  V30 7281 H 702.674 -1.44517 -1.31663 0
M  V30 7282 H 701.378 -2.53533 -3.22722 0
M  V30 7283 H 700.909 -0.934756 -3.82133 0
M  V30 7284 H 702.924 -0.366379 -4.94846 0
M  V30 7285 N 702.098 1.27442 -0.927168 0
M  V30 7286 C 703.03 2.25975 -0.383158 0
M  V30 7287 C 704.043 1.55382 0.485832 0
M  V30 7288 O 705.232 1.75986 0.298541 0
M  V30 7289 C 702.332 3.35629 0.469688 0
M  V30 7290 C 701.505 4.35747 -0.379886 0
M  V30 7291 C 700.564 5.24598 0.410227 0
M  V30 7292 O 699.59 5.68909 -0.181888 0
M  V30 7293 N 700.792 5.54737 1.71017 0
M  V30 7294 H 703.557 2.7329 -1.23015 0
M  V30 7295 H 701.118 1.41063 -0.794539 0
M  V30 7296 H 703.11 3.92015 1.00532 0
M  V30 7297 H 701.68 2.87919 1.21744 0
M  V30 7298 H 700.9 3.78634 -1.09682 0
M  V30 7299 H 702.188 4.99648 -0.960717 0
M  V30 7300 H 701.586 5.20594 2.21356 0
M  V30 7301 H 700.143 6.13824 2.19234 0
M  V30 7302 N 703.576 0.692616 1.41565 0
M  V30 7303 C 704.806 0.230943 2.05305 0
M  V30 7304 C 705.214 -1.12379 1.52209 0
M  V30 7305 O 704.557 -1.71281 0.663968 0
M  V30 7306 C 704.619 0.107894 3.59338 0
M  V30 7307 C 704.283 1.39419 4.35214 0
M  V30 7308 C 705.28 2.33143 4.64694 0
M  V30 7309 C 702.965 1.64674 4.74539 0
M  V30 7310 C 704.959 3.50385 5.32456 0
M  V30 7311 C 702.646 2.82202 5.42038 0
M  V30 7312 C 703.644 3.74881 5.70923 0
M  V30 7313 O 703.332 4.90351 6.37033 0
M  V30 7314 H 703.064 0.105708 0.667684 0
M  V30 7315 H 705.618 0.94488 1.82376 0
M  V30 7316 H 703.848 -0.661785 3.80995 0
M  V30 7317 H 705.537 -0.316213 4.04666 0
M  V30 7318 H 706.303 2.14887 4.34797 0
M  V30 7319 H 702.182 0.934007 4.51439 0
M  V30 7320 H 705.726 4.22743 5.54918 0
M  V30 7321 H 701.623 3.00376 5.71353 0
M  V30 7322 H 702.391 4.90128 6.55528 0
M  V30 7323 N 705.054 -1.51416 0.437162 0
M  V30 7324 C 706.302 -2.01687 -0.129108 0
M  V30 7325 C 706.623 -1.32329 -1.43227 0
M  V30 7326 O 705.893 -0.457796 -1.90476 0
M  V30 7327 H 704.473 -0.745277 -0.0507023 0
M  V30 7328 H 707.135 -1.86075 0.579828 0
M  V30 7329 H 706.231 -3.10605 -0.305141 0
M  V30 7330 N 706.532 -0.168513 -1.56696 0
M  V30 7331 C 707.779 0.477158 -1.96798 0
M  V30 7332 C 708.107 1.63442 -1.05437 0
M  V30 7333 O 707.362 1.95503 -0.0878903 0
M  V30 7334 C 707.661 1.00441 -3.42996 0
M  V30 7335 C 707.327 -0.0366556 -4.50885 0
M  V30 7336 C 705.989 -0.322785 -4.80116 0
M  V30 7337 C 708.341 -0.743447 -5.1587 0
M  V30 7338 C 705.669 -1.32114 -5.71632 0
M  V30 7339 C 708.021 -1.73077 -6.08463 0
M  V30 7340 C 706.685 -2.02437 -6.36062 0
M  V30 7341 H 705.955 0.174604 -0.720135 0
M  V30 7342 H 708.602 -0.259884 -1.89728 0
M  V30 7343 H 706.907 1.81922 -3.47004 0
M  V30 7344 H 708.604 1.51294 -3.71364 0
M  V30 7345 H 705.194 0.196532 -4.28149 0
M  V30 7346 H 709.378 -0.535602 -4.93401 0
M  V30 7347 H 704.634 -1.55482 -5.913 0
M  V30 7348 H 708.808 -2.28382 -6.57886 0
M  V30 7349 H 706.435 -2.79946 -7.06777 0
M  V30 7350 N 708.01 1.57248 0.105221 0
M  V30 7351 C 709.259 1.84756 0.809198 0
M  V30 7352 C 709.572 0.756262 1.80389 0
M  V30 7353 O 710.778 0.918158 2.55504 0
M  V30 7354 C 709.234 3.27613 1.48989 0
M  V30 7355 C 708.842 4.44788 0.535484 0
M  V30 7356 C 710.586 3.64356 2.17819 0
M  V30 7357 C 708.493 5.78676 1.22019 0
M  V30 7358 H 707.423 0.689139 0.305946 0
M  V30 7359 H 710.074 1.83395 0.0620371 0
M  V30 7360 H 708.456 3.23485 2.28415 0
M  V30 7361 H 709.63 4.60243 -0.226557 0
M  V30 7362 H 707.945 4.16374 -0.0465769 0
M  V30 7363 H 710.542 4.61663 2.69761 0
M  V30 7364 H 710.885 2.92474 2.96251 0
M  V30 7365 H 711.418 3.70328 1.45264 0
M  V30 7366 H 708.157 6.53763 0.476875 0
M  V30 7367 H 707.677 5.67083 1.9539 0
M  V30 7368 H 709.356 6.22897 1.74952 0
M  V30 7369 N 709.488 -0.375779 1.53054 0
M  V30 7370 C 710.435 -1.45978 1.78771 0
M  V30 7371 C 711.405 -1.53625 0.631552 0
M  V30 7372 O 712.59 -1.69674 0.872667 0
M  V30 7373 C 709.73 -2.8305 1.97425 0
M  V30 7374 C 708.843 -2.84451 3.25134 0
M  V30 7375 C 707.978 -4.13034 3.34031 0
M  V30 7376 C 707.017 -4.08536 4.55812 0
M  V30 7377 N 706.154 -5.2875 4.61918 0
M  V30 7378 H 710.994 -1.23349 2.71273 0
M  V30 7379 H 708.531 -0.598147 1.3439 0
M  V30 7380 H 710.489 -3.62666 2.06225 0
M  V30 7381 H 709.119 -3.04101 1.0827 0
M  V30 7382 H 708.171 -1.97127 3.25338 0
M  V30 7383 H 709.483 -2.76998 4.14818 0
M  V30 7384 H 708.637 -5.0106 3.42087 0
M  V30 7385 H 707.376 -4.23226 2.42345 0
M  V30 7386 H 706.381 -3.18897 4.47867 0
M  V30 7387 H 707.606 -3.99955 5.48828 0
M  V30 7388 H 705.552 -5.39547 3.73129 0
M  V30 7389 H 705.469 -5.23426 5.45492 0
M  V30 7390 H 706.737 -6.18637 4.74245 0
M  V30 7391 N 710.966 -1.44241 -0.634997 0
M  V30 7392 C 712.243 -1.37296 -1.39317 0
M  V30 7393 C 712.623 -0.0297532 -2.11079 0
M  V30 7394 O 711.971 0.987524 -2.06059 0
M  V30 7395 C 712.181 -2.56853 -2.36279 0
M  V30 7396 C 713.529 -3.00747 -2.99728 0
M  V30 7397 O 714.553 -2.5703 -2.46605 0
M  V30 7398 O 713.412 -3.76533 -3.96087 0
M  V30 7399 H 710.506 -0.543503 -0.623325 0
M  V30 7400 H 713.052 -1.56324 -0.660376 0
M  V30 7401 H 711.824 -3.46228 -1.82324 0
M  V30 7402 H 711.447 -2.40019 -3.16981 0
M  V30 7403 N 712.444 0.87505 -1.31075 0
M  V30 7404 C 713.354 2.01441 -1.20244 0
M  V30 7405 C 714.37 1.73584 -0.120227 0
M  V30 7406 O 715.546 1.98559 -0.337063 0
M  V30 7407 C 712.611 3.34675 -0.905199 0
M  V30 7408 C 711.672 3.75889 -2.0738 0
M  V30 7409 C 710.905 5.02764 -1.79064 0
M  V30 7410 O 711.128 5.65795 -0.723318 0
M  V30 7411 O 710.062 5.40623 -2.64594 0
M  V30 7412 H 713.888 2.13509 -2.1598 0
M  V30 7413 H 711.473 1.00257 -1.10765 0
M  V30 7414 H 713.355 4.1458 -0.755057 0
M  V30 7415 H 712.03 3.23692 0.0221695 0
M  V30 7416 H 710.937 2.96645 -2.27931 0
M  V30 7417 H 712.27 3.91489 -2.98324 0
M  V30 7418 N 713.922 1.13953 1.08869 0
M  V30 7419 C 714.854 0.779906 2.15523 0
M  V30 7420 C 715.867 -0.20102 1.61554 0
M  V30 7421 O 717.056 0.0200049 1.78489 0
M  V30 7422 C 714.156 0.136226 3.38626 0
M  V30 7423 C 713.329 1.15069 4.21993 0
M  V30 7424 C 712.388 0.531645 5.23507 0
M  V30 7425 O 711.414 1.19327 5.56552 0
M  V30 7426 N 712.616 -0.693734 5.7634 0
M  V30 7427 H 715.381 1.69769 2.46979 0
M  V30 7428 H 712.942 1.03331 1.24637 0
M  V30 7429 H 714.934 -0.290295 4.03658 0
M  V30 7430 H 713.504 -0.684603 3.05011 0
M  V30 7431 H 712.724 1.75431 3.53012 0
M  V30 7432 H 714.012 1.83614 4.74514 0
M  V30 7433 H 713.41 -1.24994 5.51718 0
M  V30 7434 H 711.967 -1.06283 6.43076 0
M  V30 7435 N 715.4 -1.26948 0.933913 0
M  V30 7436 C 716.31 -2.30366 0.443671 0
M  V30 7437 C 717.326 -1.67284 -0.478745 0
M  V30 7438 O 718.502 -1.98156 -0.360043 0
M  V30 7439 C 715.567 -3.45485 -0.289974 0
M  V30 7440 C 714.628 -4.24069 0.668114 0
M  V30 7441 C 713.861 -5.33691 -0.0306138 0
M  V30 7442 O 714.084 -5.5656 -1.24888 0
M  V30 7443 O 713.018 -5.98441 0.644384 0
M  V30 7444 H 716.844 -2.74349 1.30254 0
M  V30 7445 H 714.429 -1.32012 0.699506 0
M  V30 7446 H 716.311 -4.15486 -0.70353 0
M  V30 7447 H 714.986 -3.03546 -1.12435 0
M  V30 7448 H 713.893 -3.56579 1.13147 0
M  V30 7449 H 715.226 -4.69739 1.46989 0
M  V30 7450 N 716.879 -0.700114 -1.41195 0
M  V30 7451 C 718.156 -0.160836 -1.94938 0
M  V30 7452 C 718.536 1.33014 -1.63922 0
M  V30 7453 O 717.884 2.07878 -0.948636 0
M  V30 7454 C 718.094 -0.456991 -3.45995 0
M  V30 7455 C 719.442 -0.387207 -4.22831 0
M  V30 7456 O 720.466 -0.392164 -3.54035 0
M  V30 7457 O 719.325 -0.351267 -5.4537 0
M  V30 7458 H 716.419 -0.0176304 -0.826812 0
M  V30 7459 H 718.965 -0.776586 -1.50888 0
M  V30 7460 H 717.737 -1.48884 -3.61869 0
M  V30 7461 H 717.36 0.189503 -3.97148 0
M  V30 7462 N 718.357 1.51182 -0.445186 0
M  V30 7463 C 719.585 2.06568 0.117091 0
M  V30 7464 C 720 1.31182 1.35781 0
M  V30 7465 O 719.357 0.373605 1.78635 0
M  V30 7466 C 719.408 3.58917 0.431408 0
M  V30 7467 O 719.129 4.31456 -0.760078 0
M  V30 7468 C 720.63 4.30843 1.0435 0
M  V30 7469 H 717.85 0.670985 0.00444436 0
M  V30 7470 H 720.394 1.94666 -0.626525 0
M  V30 7471 H 718.549 3.70708 1.12493 0
M  V30 7472 H 718.963 5.22215 -0.489048 0
M  V30 7473 H 720.437 5.38499 1.21337 0
M  V30 7474 H 720.914 3.89644 2.02667 0
M  V30 7475 H 721.52 4.23516 0.38913 0
M  V30 7476 N 719.835 0.176821 1.56605 0
M  V30 7477 C 720.783 -0.768159 2.1955 0
M  V30 7478 C 721.777 -1.23343 1.16116 0
M  V30 7479 O 722.983 -1.19844 1.34303 0
M  V30 7480 H 719.358 -0.266013 0.703378 0
M  V30 7481 H 721.329 -0.213374 2.97636 0
M  V30 7482 C 720.078 -1.98492 2.85475 0
M  V30 7483 H 719.401 -1.63595 3.64797 0
M  V30 7484 H 720.841 -2.62489 3.3298 0
M  V30 7485 C 719.3 -2.81207 1.85538 0
M  V30 7486 O 719.83 -3.7854 1.34427 0
M  V30 7487 N 718.036 -2.46331 1.54173 0
M  V30 7488 H 717.583 -1.67241 1.95929 0
M  V30 7489 H 717.541 -3.01961 0.875595 0
M  V30 7490 N 721.313 -1.57302 -0.09688 0
M  V30 7491 C 722.245 -1.98618 -1.14384 0
M  V30 7492 C 723.258 -0.888483 -1.36418 0
M  V30 7493 O 724.447 -1.16661 -1.35101 0
M  V30 7494 C 721.547 -2.28838 -2.49973 0
M  V30 7495 C 720.72 -3.60132 -2.48241 0
M  V30 7496 C 719.779 -3.7831 -3.65743 0
M  V30 7497 O 718.805 -4.50183 -3.48316 0
M  V30 7498 N 720.007 -3.18752 -4.85157 0
M  V30 7499 H 722.772 -2.8904 -0.792202 0
M  V30 7500 H 720.333 -1.59356 -0.285883 0
M  V30 7501 H 722.325 -2.38193 -3.27179 0
M  V30 7502 H 720.895 -1.44431 -2.77233 0
M  V30 7503 H 720.115 -3.61763 -1.56593 0
M  V30 7504 H 721.403 -4.46389 -2.4416 0
M  V30 7505 H 720.801 -2.60368 -5.0222 0
M  V30 7506 H 719.358 -3.33595 -5.59962 0
M  V30 7507 N 722.791 0.367657 -1.53252 0
M  V30 7508 C 723.739 1.47061 -1.8021 0
M  V30 7509 C 724.733 1.55539 -0.671112 0
M  V30 7510 O 725.939 1.58451 -0.854014 0
M  V30 7511 H 722.314 0.489868 -0.570555 0
M  V30 7512 H 724.285 1.21527 -2.72532 0
M  V30 7513 C 723.034 2.83924 -2.00706 0
M  V30 7514 H 722.357 2.78158 -2.87172 0
M  V30 7515 H 723.797 3.60281 -2.23547 0
M  V30 7516 C 722.256 3.27613 -0.785568 0
M  V30 7517 O 722.786 4.01691 0.0267459 0
M  V30 7518 N 720.992 2.84134 -0.609597 0
M  V30 7519 H 720.539 2.24017 -1.27178 0
M  V30 7520 H 720.497 3.13723 0.206281 0
M  V30 7521 N 724.269 1.44576 0.627338 0
M  V30 7522 C 725.546 1.38033 1.38586 0
M  V30 7523 C 725.926 0.0409468 2.1106 0
M  V30 7524 O 725.274 -0.976582 2.0658 0
M  V30 7525 C 725.484 2.58102 2.34913 0
M  V30 7526 C 726.832 3.02332 2.98129 0
M  V30 7527 O 727.856 2.58334 2.45238 0
M  V30 7528 O 726.715 3.78628 3.94085 0
M  V30 7529 H 723.809 0.546801 0.620434 0
M  V30 7530 H 726.355 1.56672 0.652077 0
M  V30 7531 H 725.127 3.4719 1.80485 0
M  V30 7532 H 724.75 2.41696 3.15703 0
M  V30 7533 N 725.747 -0.868086 1.31537 0
M  V30 7534 C 726.994 -1.62127 1.2133 0
M  V30 7535 C 727.322 -1.93158 -0.2281 0
M  V30 7536 O 726.577 -1.5632 -1.1774 0
M  V30 7537 C 726.876 -2.95889 2.0046 0
M  V30 7538 C 726.542 -2.84343 3.49943 0
M  V30 7539 C 725.204 -2.80901 3.90702 0
M  V30 7540 C 727.556 -2.71243 4.45058 0
M  V30 7541 C 724.884 -2.6222 5.24841 0
M  V30 7542 C 727.236 -2.54098 5.79325 0
M  V30 7543 C 725.9 -2.4904 6.19302 0
M  V30 7544 H 725.17 -0.593265 0.443979 0
M  V30 7545 H 727.817 -1.00803 1.62822 0
M  V30 7546 H 726.122 -3.61259 1.51655 0
M  V30 7547 H 727.819 -3.53161 1.89942 0
M  V30 7548 H 724.409 -2.8784 3.17563 0
M  V30 7549 H 728.593 -2.72956 4.14498 0
M  V30 7550 H 723.849 -2.56731 5.54887 0
M  V30 7551 H 728.023 -2.42938 6.52652 0
M  V30 7552 H 725.65 -2.34324 7.23185 0
M  V30 7553 N 727.225 -1.14528 -1.08264 0
M  V30 7554 C 728.474 -0.908992 -1.80056 0
M  V30 7555 C 728.787 0.565859 -1.87236 0
M  V30 7556 O 729.993 0.919454 -2.55457 0
M  V30 7557 C 728.449 -1.57681 -3.23519 0
M  V30 7558 C 728.057 -3.08803 -3.24569 0
M  V30 7559 C 729.801 -1.4217 -3.99985 0
M  V30 7560 C 727.708 -3.68414 -4.62629 0
M  V30 7561 H 726.638 -0.336432 -0.674781 0
M  V30 7562 H 729.289 -1.37437 -1.21587 0
M  V30 7563 H 727.671 -1.03911 -3.82124 0
M  V30 7564 H 728.845 -3.69252 -2.75663 0
M  V30 7565 H 727.16 -3.23968 -2.61598 0
M  V30 7566 H 729.757 -1.84106 -5.02005 0
M  V30 7567 H 730.1 -0.367989 -4.1467 0
M  V30 7568 H 730.633 -1.92984 -3.47853 0
M  V30 7569 H 727.372 -4.73644 -4.53147 0
M  V30 7570 H 726.892 -3.12746 -5.11811 0
M  V30 7571 H 728.571 -3.68793 -5.31602 0
M  V30 7572 N 728.703 1.26451 -0.940633 0
M  V30 7573 C 729.951 1.93395 -0.586748 0
M  V30 7574 C 730.272 1.7417 0.876921 0
M  V30 7575 O 729.542 1.097 1.62304 0
M  V30 7576 H 728.122 0.715687 -0.214012 0
M  V30 7577 H 730.784 1.53902 -1.19584 0
M  V30 7578 H 729.88 3.01565 -0.804059 0
M  V30 7579 N 730.181 0.707592 1.40822 0
M  V30 7580 C 731.427 0.244031 2.01326 0
M  V30 7581 C 731.76 -1.15722 1.55955 0
M  V30 7582 O 731.035 -1.78347 0.776044 0
M  V30 7583 C 731.318 0.315128 3.58718 0
M  V30 7584 C 731.171 1.75419 4.14184 0
M  V30 7585 C 732.49 -0.318251 4.38948 0
M  V30 7586 H 729.609 0.0901471 0.731466 0
M  V30 7587 H 732.251 0.898584 1.67408 0
M  V30 7588 H 730.401 -0.242176 3.87744 0
M  V30 7589 H 732.073 2.36626 3.95987 0
M  V30 7590 H 730.316 2.28449 3.68773 0
M  V30 7591 H 730.987 1.75538 5.23345 0
M  V30 7592 H 733.463 0.156514 4.15806 0
M  V30 7593 H 732.339 -0.238019 5.48384 0
M  V30 7594 H 732.6 -1.40067 4.19325 0
M  V30 7595 N 731.66 -1.50943 0.453197 0
M  V30 7596 C 732.57 -2.31884 -0.355963 0
M  V30 7597 C 733.586 -1.41481 -1.01287 0
M  V30 7598 O 734.762 -1.74546 -1.00477 0
M  V30 7599 C 731.827 -3.15668 -1.43369 0
M  V30 7600 C 730.888 -4.2187 -0.795253 0
M  V30 7601 C 730.121 -5.0165 -1.82162 0
M  V30 7602 O 730.344 -4.82266 -3.04592 0
M  V30 7603 O 729.278 -5.85311 -1.40336 0
M  V30 7604 H 733.104 -3.02162 0.305248 0
M  V30 7605 H 730.689 -1.47839 0.215398 0
M  V30 7606 H 732.571 -3.67709 -2.05836 0
M  V30 7607 H 731.246 -2.48137 -2.07869 0
M  V30 7608 H 730.153 -3.73867 -0.132106 0
M  V30 7609 H 731.486 -4.9182 -0.193484 0
M  V30 7610 N 733.138 -0.185124 -1.56509 0
M  V30 7611 C 734.385 0.456258 -1.97293 0
M  V30 7612 C 734.713 1.62314 -1.07165 0
M  V30 7613 O 733.968 1.95398 -0.108621 0
M  V30 7614 C 734.267 0.967977 -3.44042 0
M  V30 7615 C 733.933 -0.084476 -4.50821 0
M  V30 7616 C 732.595 -0.373689 -4.79747 0
M  V30 7617 C 734.947 -0.79812 -5.15053 0
M  V30 7618 C 732.275 -1.3817 -5.70198 0
M  V30 7619 C 734.627 -1.79521 -6.06593 0
M  V30 7620 C 733.291 -2.09172 -6.3388 0
M  V30 7621 H 732.561 0.166957 -0.721946 0
M  V30 7622 H 735.208 -0.279992 -1.89442 0
M  V30 7623 H 733.513 1.78231 -3.48914 0
M  V30 7624 H 735.21 1.47347 -3.72948 0
M  V30 7625 H 731.8 0.15111 -4.28334 0
M  V30 7626 H 735.984 -0.587903 -4.92806 0
M  V30 7627 H 731.24 -1.61745 -5.89617 0
M  V30 7628 H 735.414 -2.35347 -6.55427 0
M  V30 7629 H 733.041 -2.87427 -7.03768 0
M  V30 7630 N 734.616 1.57351 0.0885366 0
M  V30 7631 C 735.564 2.03542 1.12576 0
M  V30 7632 C 736.558 0.937668 1.41082 0
M  V30 7633 O 737.764 1.12283 1.40686 0
M  V30 7634 H 734.139 0.648752 0.380296 0
M  V30 7635 H 736.11 2.89833 0.709906 0
M  V30 7636 C 734.859 2.4811 2.43591 0
M  V30 7637 H 734.182 3.32164 2.22502 0
M  V30 7638 H 735.622 2.842 3.14653 0
M  V30 7639 C 734.081 1.35708 3.08359 0
M  V30 7640 O 734.611 0.689852 3.95732 0
M  V30 7641 N 732.817 1.10641 2.68713 0
M  V30 7642 H 732.364 1.6508 1.97753 0
M  V30 7643 H 732.322 0.356355 3.12374 0
M  V30 7644 N 736.094 -0.359525 1.53444 0
M  V30 7645 C 737.371 -1.11756 1.6053 0
M  V30 7646 C 737.751 -2.06949 0.416587 0
M  V30 7647 O 737.099 -2.20681 -0.592628 0
M  V30 7648 C 737.309 -1.85133 2.95849 0
M  V30 7649 C 738.657 -2.3945 3.50641 0
M  V30 7650 O 739.681 -1.95251 2.97918 0
M  V30 7651 O 738.54 -3.20266 4.42823 0
M  V30 7652 H 735.634 -0.513005 0.648656 0
M  V30 7653 H 738.18 -0.362301 1.65787 0
M  V30 7654 H 736.952 -1.15694 3.73806 0
M  V30 7655 H 736.575 -2.67554 2.9411 0
M  V30 7656 N 737.572 -1.44907 -0.619662 0
M  V30 7657 C 738.821 -1.47569 -1.37501 0
M  V30 7658 C 739.134 -0.116707 -1.95252 0
M  V30 7659 O 740.34 -0.020909 -2.71492 0
M  V30 7660 C 738.796 -2.59851 -2.49009 0
M  V30 7661 C 738.404 -4.02008 -1.97722 0
M  V30 7662 C 740.148 -2.71746 -3.2612 0
M  V30 7663 C 738.055 -5.05693 -3.0664 0
M  V30 7664 H 736.985 -0.549068 -0.51676 0
M  V30 7665 H 739.636 -1.71009 -0.665437 0
M  V30 7666 H 738.018 -2.29671 -3.22594 0
M  V30 7667 H 739.192 -4.41809 -1.30925 0
M  V30 7668 H 737.507 -3.94456 -1.33392 0
M  V30 7669 H 740.104 -3.46382 -4.07337 0
M  V30 7670 H 740.447 -1.77959 -3.76346 0
M  V30 7671 H 740.98 -3.01392 -2.5963 0
M  V30 7672 H 737.719 -6.01148 -2.61345 0
M  V30 7673 H 737.239 -4.70473 -3.72042 0
M  V30 7674 H 738.918 -5.29906 -3.71226 0
M  V30 7675 N 739.05 0.861098 -1.31996 0
M  V30 7676 C 740.327 1.59788 -1.12814 0
M  V30 7677 C 740.707 2.08753 0.313882 0
M  V30 7678 O 740.055 1.87258 1.30946 0
M  V30 7679 C 740.265 2.74901 -2.15012 0
M  V30 7680 C 741.613 3.44643 -2.48004 0
M  V30 7681 O 742.637 2.85119 -2.13508 0
M  V30 7682 O 741.496 4.52044 -3.07113 0
M  V30 7683 H 738.59 0.703408 -0.434909 0
M  V30 7684 H 741.136 0.905788 -1.43505 0
M  V30 7685 H 739.908 2.36198 -3.11971 0
M  V30 7686 H 739.531 3.51792 -1.85279 0
M  V30 7687 N 740.528 1.15101 1.07655 0
M  V30 7688 C 741.775 0.923974 1.80191 0
M  V30 7689 C 742.103 -0.549065 1.86589 0
M  V30 7690 O 741.358 -1.42307 1.3434 0
M  V30 7691 C 741.657 1.47954 3.25337 0
M  V30 7692 C 741.323 2.97253 3.39044 0
M  V30 7693 C 739.985 3.38012 3.42493 0
M  V30 7694 C 742.337 3.93219 3.42094 0
M  V30 7695 C 739.665 4.73384 3.4659 0
M  V30 7696 C 742.017 5.28458 3.47728 0
M  V30 7697 C 740.681 5.68717 3.49453 0
M  V30 7698 H 739.951 0.338106 0.659367 0
M  V30 7699 H 742.598 1.43594 1.26701 0
M  V30 7700 H 740.903 0.888691 3.81588 0
M  V30 7701 H 742.6 1.27972 3.80032 0
M  V30 7702 H 739.19 2.64746 3.37057 0
M  V30 7703 H 743.374 3.62805 3.38654 0
M  V30 7704 H 738.63 5.03925 3.46222 0
M  V30 7705 H 742.804 6.02618 3.49034 0
M  V30 7706 H 740.431 6.73596 3.5238 0
M  V30 7707 N 742.006 -1.2595 0.947325 0
M  V30 7708 C 743.231 -1.98083 0.614633 0
M  V30 7709 C 743.656 -1.70013 -0.804815 0
M  V30 7710 O 743.014 -0.95175 -1.54309 0
M  V30 7711 C 743.062 -3.4993 0.870706 0
M  V30 7712 O 742.166 -4.12364 -0.0541451 0
M  V30 7713 H 741.507 -0.621232 0.234451 0
M  V30 7714 H 744.037 -1.60259 1.27193 0
M  V30 7715 H 744.047 -4.00198 0.794051 0
M  V30 7716 H 742.722 -3.69691 1.90529 0
M  V30 7717 H 741.299 -3.72826 0.0740917 0
M  V30 7718 N 743.484 -0.715051 -1.40445 0
M  V30 7719 C 744.431 -0.0621393 -2.30716 0
M  V30 7720 C 745.401 0.750871 -1.48159 0
M  V30 7721 O 746.586 0.714928 -1.76899 0
M  V30 7722 C 743.726 0.854036 -3.34365 0
M  V30 7723 C 742.839 0.0305565 -4.31989 0
M  V30 7724 C 741.974 0.946162 -5.22706 0
M  V30 7725 C 741.013 0.116741 -6.11989 0
M  V30 7726 N 740.15 0.987194 -6.95125 0
M  V30 7727 H 744.99 -0.83764 -2.85985 0
M  V30 7728 H 742.527 -0.424759 -1.40834 0
M  V30 7729 H 744.485 1.39946 -3.93028 0
M  V30 7730 H 743.115 1.59572 -2.806 0
M  V30 7731 H 742.167 -0.632044 -3.75112 0
M  V30 7732 H 743.479 -0.611615 -4.95036 0
M  V30 7733 H 742.633 1.56014 -5.86297 0
M  V30 7734 H 741.372 1.62216 -4.59932 0
M  V30 7735 H 740.377 -0.510176 -5.47428 0
M  V30 7736 H 741.602 -0.555742 -6.76822 0
M  V30 7737 H 739.548 1.64885 -6.3494 0
M  V30 7738 H 739.465 0.401046 -7.54936 0
M  V30 7739 H 740.733 1.58737 -7.63166 0
M  V30 7740 N 744.962 1.50701 -0.461195 0
M  V30 7741 C 746.211 2.01458 0.0988277 0
M  V30 7742 C 746.524 1.34863 1.41673 0
M  V30 7743 O 747.73 1.76721 2.06111 0
M  V30 7744 C 746.186 3.59186 0.226648 0
M  V30 7745 C 745.794 4.34732 -1.08223 0
M  V30 7746 C 747.538 4.18015 0.73916 0
M  V30 7747 C 745.445 5.8422 -0.918747 0
M  V30 7748 H 744.375 0.7529 0.040709 0
M  V30 7749 H 747.026 1.736 -0.594589 0
M  V30 7750 H 745.408 3.83589 0.983621 0
M  V30 7751 H 746.582 4.22059 -1.84939 0
M  V30 7752 H 744.897 3.87466 -1.52509 0
M  V30 7753 H 747.494 5.27436 0.878347 0
M  V30 7754 H 747.837 3.78746 1.72793 0
M  V30 7755 H 748.37 3.9778 0.0398469 0
M  V30 7756 H 745.109 6.27944 -1.88059 0
M  V30 7757 H 744.629 5.99493 -0.191801 0
M  V30 7758 H 746.308 6.44382 -0.581405 0
M  V30 7759 N 746.441 0.193421 1.56409 0
M  V30 7760 C 747.404 -0.714371 2.17783 0
M  V30 7761 C 748.404 -1.1422 1.13183 0
M  V30 7762 O 749.594 -1.05557 1.38576 0
M  V30 7763 C 746.726 -1.97509 2.77855 0
M  V30 7764 H 747.919 -0.179714 2.99361 0
M  V30 7765 H 745.472 -0.0561944 1.56199 0
M  V30 7766 H 746.207 -2.5523 2.0007 0
M  V30 7767 H 745.992 -1.67706 3.54425 0
M  V30 7768 H 747.482 -2.62246 3.24987 0
M  V30 7769 N 747.919 -1.57396 -0.0801906 0
M  V30 7770 C 749.196 -1.77883 -0.813451 0
M  V30 7771 C 749.576 -0.778879 -1.96206 0
M  V30 7772 O 748.924 0.189683 -2.27711 0
M  V30 7773 C 749.134 -3.24116 -1.2942 0
M  V30 7774 C 750.482 -3.87714 -1.73098 0
M  V30 7775 O 751.506 -3.27956 -1.39007 0
M  V30 7776 O 750.365 -4.92828 -2.36184 0
M  V30 7777 H 747.459 -0.729727 -0.389138 0
M  V30 7778 H 750.005 -1.69591 -0.0609166 0
M  V30 7779 H 748.777 -3.88443 -0.471947 0
M  V30 7780 H 748.4 -3.371 -2.1083 0
M  V30 7781 N 749.397 0.351382 -1.53633 0
M  V30 7782 C 750.645 1.09034 -1.70165 0
M  V30 7783 C 750.966 1.89413 -0.463422 0
M  V30 7784 O 750.236 1.888 0.522624 0
M  V30 7785 H 748.816 0.405522 -0.627344 0
M  V30 7786 H 751.478 0.394554 -1.90865 0
M  V30 7787 H 750.574 1.77215 -2.56907 0
M  V30 7788 N 750.875 1.45233 0.611969 0
M  V30 7789 C 752.121 1.49242 1.37312 0
M  V30 7790 C 752.454 0.131963 1.93751 0
M  V30 7791 O 751.729 -0.852999 1.74798 0
M  V30 7792 C 752.012 2.56811 2.52428 0
M  V30 7793 C 751.865 4.02284 2.01215 0
M  V30 7794 C 753.184 2.60705 3.54572 0
M  V30 7795 H 750.303 0.54336 0.497925 0
M  V30 7796 H 752.945 1.77019 0.690242 0
M  V30 7797 H 751.095 2.33256 3.10683 0
M  V30 7798 H 752.767 4.37035 1.47643 0
M  V30 7799 H 751.01 4.1315 1.32248 0
M  V30 7800 H 751.681 4.7323 2.84178 0
M  V30 7801 H 754.157 2.81799 3.06151 0
M  V30 7802 H 753.033 3.37841 4.32614 0
M  V30 7803 H 753.294 1.65627 4.09903 0
M  V30 7804 N 752.353 -0.854086 1.3245 0
M  V30 7805 C 753.303 -1.9508 1.18016 0
M  V30 7806 C 754.287 -1.60665 0.0869417 0
M  V30 7807 O 755.479 -1.74201 0.313505 0
M  V30 7808 C 752.608 -3.3113 0.905961 0
M  V30 7809 C 751.694 -3.71763 2.04091 0
M  V30 7810 N 752.085 -3.84218 3.28953 0
M  V30 7811 C 750.383 -4.01393 1.94421 0
M  V30 7812 C 751.084 -4.192 4.03294 0
M  V30 7813 N 750.06 -4.30749 3.31596 0
M  V30 7814 H 753.862 -2.02843 2.12678 0
M  V30 7815 H 751.376 -1.04588 1.24238 0
M  V30 7816 H 753.373 -4.09471 0.783508 0
M  V30 7817 H 752.033 -3.24684 -0.0322715 0
M  V30 7818 H 753.044 -3.68524 3.63883 0
M  V30 7819 H 749.721 -4.03246 1.08162 0
M  V30 7820 H 751.111 -4.36301 5.1097 0
M  V30 7821 N 753.831 -1.1567 -1.07043 0
M  V30 7822 C 754.764 -0.799867 -2.13723 0
M  V30 7823 C 755.742 0.225098 -1.61034 0
M  V30 7824 O 756.926 0.11093 -1.88173 0
M  V30 7825 C 754.053 -0.18997 -3.38167 0
M  V30 7826 C 753.099 -1.18733 -4.0964 0
M  V30 7827 S 753.932 -2.73074 -4.60642 0
M  V30 7828 C 755.088 -2.13512 -5.88356 0
M  V30 7829 H 755.321 -1.70342 -2.43661 0
M  V30 7830 H 752.854 -0.979377 -1.19363 0
M  V30 7831 H 754.812 0.155471 -4.10205 0
M  V30 7832 H 753.473 0.691229 -3.064 0
M  V30 7833 H 752.666 -0.708873 -4.9899 0
M  V30 7834 H 752.268 -1.47747 -3.43579 0
M  V30 7835 H 754.56 -1.49911 -6.60706 0
M  V30 7836 H 755.503 -3.01042 -6.40921 0
M  V30 7837 H 755.911 -1.57693 -5.42027 0
M  V30 7838 N 755.309 1.25446 -0.953992 0
M  V30 7839 C 756.241 2.25111 -0.431004 0
M  V30 7840 C 757.254 1.56377 0.452764 0
M  V30 7841 O 758.443 1.76579 0.261144 0
M  V30 7842 C 755.543 3.3655 0.39839 0
M  V30 7843 C 754.716 4.34843 -0.472229 0
M  V30 7844 C 753.775 5.25351 0.29886 0
M  V30 7845 O 752.801 5.68396 -0.302522 0
M  V30 7846 N 754.003 5.5824 1.59211 0
M  V30 7847 H 756.768 2.70619 -1.28785 0
M  V30 7848 H 754.329 1.39346 -0.824281 0
M  V30 7849 H 756.321 3.94059 0.921941 0
M  V30 7850 H 754.891 2.90436 1.15609 0
M  V30 7851 H 754.111 3.76222 -1.17689 0
M  V30 7852 H 755.399 4.97497 -1.06648 0
M  V30 7853 H 754.797 5.25172 2.10264 0
M  V30 7854 H 753.354 6.18336 2.06164 0
M  V30 7855 N 756.787 0.722489 1.40064 0
M  V30 7856 C 757.75 0.0830209 2.2905 0
M  V30 7857 C 758.75 -0.680208 1.45705 0
M  V30 7858 O 759.94 -0.511084 1.66534 0
M  V30 7859 C 757.072 -0.892092 3.29021 0
M  V30 7860 H 758.265 0.866848 2.87099 0
M  V30 7861 H 755.818 0.487556 1.48501 0
M  V30 7862 H 756.553 -1.70273 2.76003 0
M  V30 7863 H 756.338 -0.34761 3.90556 0
M  V30 7864 H 757.828 -1.33648 3.95636 0
M  V30 7865 N 758.265 -1.50454 0.469181 0
M  V30 7866 C 759.512 -2.02315 -0.086469 0
M  V30 7867 C 759.84 -1.3513 -1.39893 0
M  V30 7868 O 759.095 -0.465341 -1.90087 0
M  V30 7869 C 759.394 -3.55963 -0.320207 0
M  V30 7870 C 759.06 -4.41615 0.910318 0
M  V30 7871 C 757.722 -4.64743 1.2477 0
M  V30 7872 C 760.074 -4.91661 1.72971 0
M  V30 7873 C 757.402 -5.35161 2.40457 0
M  V30 7874 C 759.754 -5.6335 2.87785 0
M  V30 7875 C 758.418 -5.84732 3.2194 0
M  V30 7876 H 757.688 -0.740324 -0.0316412 0
M  V30 7877 H 760.335 -1.81087 0.622872 0
M  V30 7878 H 758.64 -3.75695 -1.11177 0
M  V30 7879 H 760.337 -3.93653 -0.764071 0
M  V30 7880 H 756.927 -4.23833 0.637467 0
M  V30 7881 H 761.111 -4.73649 1.48224 0
M  V30 7882 H 756.367 -5.49924 2.67196 0
M  V30 7883 H 760.541 -6.0111 3.51624 0
M  V30 7884 H 758.168 -6.39074 4.1169 0
M  V30 7885 N 759.743 -0.201713 -1.56304 0
M  V30 7886 C 761.159 0.154025 -1.58855 0
M  V30 7887 C 761.359 1.60516 -1.21807 0
M  V30 7888 O 760.415 2.34193 -0.94393 0
M  V30 7889 C 761.728 -0.154319 -3.00304 0
M  V30 7890 C 763.276 -0.0949578 -3.12856 0
M  V30 7891 C 763.751 -0.376703 -4.56448 0
M  V30 7892 N 765.242 -0.325558 -4.62054 0
M  V30 7893 C 765.977 -0.51732 -5.71062 0
M  V30 7894 N 765.473 -0.769789 -6.8851 0
M  V30 7895 N 767.266 -0.45112 -5.60287 0
M  V30 7896 H 759.417 -1.14858 -1.78666 0
M  V30 7897 H 761.68 -0.458934 -0.829508 0
M  V30 7898 H 761.386 -1.16074 -3.31994 0
M  V30 7899 H 761.26 0.540014 -3.73314 0
M  V30 7900 H 763.647 0.902075 -2.80974 0
M  V30 7901 H 763.728 -0.822468 -2.42217 0
M  V30 7902 H 763.372 -1.37108 -4.89044 0
M  V30 7903 H 763.302 0.371772 -5.25286 0
M  V30 7904 H 765.793 -0.137308 -3.7765 0
M  V30 7905 H 766.106 -0.904744 -7.67486 0
M  V30 7906 H 764.451 -0.806758 -6.90302 0
M  V30 7907 H 767.642 -0.254253 -4.67409 0
M  V30 7908 H 767.815 -0.603982 -6.45179 0
M  V30 7909 N 761.222 1.57436 0.0718424 0
M  V30 7910 C 762.468 1.87525 0.772149 0
M  V30 7911 C 762.801 0.79399 1.77227 0
M  V30 7912 O 762.076 -0.195733 1.93513 0
M  V30 7913 C 762.359 3.28272 1.48018 0
M  V30 7914 C 762.212 4.47052 0.49647 0
M  V30 7915 C 763.531 3.67256 2.42509 0
M  V30 7916 H 760.65 0.682049 0.279245 0
M  V30 7917 H 763.292 1.89967 0.03534 0
M  V30 7918 H 761.442 3.26321 2.10824 0
M  V30 7919 H 763.114 4.61127 -0.126375 0
M  V30 7920 H 761.357 4.33392 -0.188205 0
M  V30 7921 H 762.028 5.42315 1.02949 0
M  V30 7922 H 764.504 3.70301 1.89781 0
M  V30 7923 H 763.38 4.66626 2.89053 0
M  V30 7924 H 763.641 2.97186 3.27312 0
M  V30 7925 N 762.7 -0.34323 1.53817 0
M  V30 7926 C 763.648 -1.44176 1.82527 0
M  V30 7927 C 764.642 -1.54452 0.695772 0
M  V30 7928 O 765.848 -1.57072 0.879114 0
M  V30 7929 H 762.223 -0.480729 0.578277 0
M  V30 7930 H 764.194 -1.17176 2.74431 0
M  V30 7931 C 762.943 -2.80695 2.05197 0
M  V30 7932 H 762.266 -2.73554 2.91561 0
M  V30 7933 H 763.706 -3.56679 2.29251 0
M  V30 7934 C 762.165 -3.26322 0.837589 0
M  V30 7935 O 762.695 -4.01683 0.0371631 0
M  V30 7936 N 760.901 -2.83128 0.654724 0
M  V30 7937 H 760.448 -2.21965 1.30725 0
M  V30 7938 H 760.406 -3.14011 -0.156345 0
M  V30 7939 N 764.178 -1.45556 -0.604258 0
M  V30 7940 C 765.125 -1.54482 -1.71476 0
M  V30 7941 C 766.095 -0.390479 -1.61445 0
M  V30 7942 O 767.28 -0.604371 -1.80975 0
M  V30 7943 C 764.42 -1.52064 -3.09791 0
M  V30 7944 C 763.533 -2.78073 -3.30604 0
M  V30 7945 C 762.668 -2.67304 -4.59044 0
M  V30 7946 C 761.707 -3.88352 -4.73127 0
M  V30 7947 N 760.844 -3.76098 -5.9287 0
M  V30 7948 H 765.684 -2.49349 -1.63184 0
M  V30 7949 H 763.221 -1.23725 -0.795641 0
M  V30 7950 H 765.179 -1.48649 -3.89819 0
M  V30 7951 H 763.809 -0.607442 -3.17033 0
M  V30 7952 H 762.861 -2.91561 -2.44329 0
M  V30 7953 H 764.173 -3.67847 -3.36883 0
M  V30 7954 H 763.327 -2.61875 -5.47272 0
M  V30 7955 H 762.066 -1.75135 -4.55169 0
M  V30 7956 H 761.071 -3.94137 -3.83322 0
M  V30 7957 H 762.296 -4.81591 -4.78797 0
M  V30 7958 H 760.242 -2.867 -5.90033 0
M  V30 7959 H 760.159 -4.59509 -6.00323 0
M  V30 7960 H 761.427 -3.74607 -6.83586 0
M  V30 7961 N 765.656 0.84705 -1.32902 0
M  V30 7962 C 766.905 1.59667 -1.23245 0
M  V30 7963 C 767.218 1.94551 0.202349 0
M  V30 7964 O 768.424 2.68218 0.420847 0
M  V30 7965 C 766.88 2.8795 -2.15901 0
M  V30 7966 C 766.488 2.60461 -3.64505 0
M  V30 7967 C 768.232 3.65968 -2.15098 0
M  V30 7968 C 766.139 3.84791 -4.49099 0
M  V30 7969 H 765.069 0.599167 -0.457728 0
M  V30 7970 H 767.72 0.934662 -1.57912 0
M  V30 7971 H 766.102 3.55648 -1.74157 0
M  V30 7972 H 767.276 2.01026 -4.14639 0
M  V30 7973 H 765.591 1.9576 -3.67515 0
M  V30 7974 H 768.188 4.58241 -2.75534 0
M  V30 7975 H 768.531 4.00275 -1.14392 0
M  V30 7976 H 769.064 3.05184 -2.55162 0
M  V30 7977 H 765.803 3.55621 -5.50649 0
M  V30 7978 H 765.323 4.43594 -4.03713 0
M  V30 7979 H 767.002 4.52454 -4.62487 0
M  V30 7980 N 767.134 1.16236 1.06428 0
M  V30 7981 C 768.044 0.881976 2.1739 0
M  V30 7982 C 769.06 -0.145259 1.73393 0
M  V30 7983 O 770.236 0.0310558 2.01376 0
M  V30 7984 C 767.301 0.385496 3.4455 0
M  V30 7985 C 766.362 1.47779 4.03063 0
M  V30 7986 C 765.595 1.0049 5.24154 0
M  V30 7987 O 765.818 -0.145889 5.70213 0
M  V30 7988 O 764.752 1.79265 5.74585 0
M  V30 7989 H 768.578 1.80983 2.43883 0
M  V30 7990 H 766.163 0.942226 1.15942 0
M  V30 7991 H 768.045 0.115536 4.21242 0
M  V30 7992 H 766.72 -0.514369 3.19587 0
M  V30 7993 H 765.627 1.80147 3.27869 0
M  V30 7994 H 766.96 2.35291 4.32318 0
M  V30 7995 N 768.612 -1.24939 0.960631 0
M  V30 7996 C 769.544 -2.24879 0.442937 0
M  V30 7997 C 770.557 -1.56615 -0.444464 0
M  V30 7998 O 771.746 -1.76715 -0.251776 0
M  V30 7999 C 768.846 -3.36757 -0.380537 0
M  V30 8000 C 768.019 -4.34587 0.495283 0
M  V30 8001 C 767.078 -5.25502 -0.270995 0
M  V30 8002 O 766.104 -5.68227 0.332661 0
M  V30 8003 N 767.306 -5.59077 -1.56249 0
M  V30 8004 H 770.071 -2.69932 1.30218 0
M  V30 8005 H 767.632 -1.38907 0.83166 0
M  V30 8006 H 769.624 -3.94542 -0.90103 0
M  V30 8007 H 768.194 -2.91045 -1.14067 0
M  V30 8008 H 767.414 -3.75593 1.19682 0
M  V30 8009 H 768.702 -4.96925 1.09285 0
M  V30 8010 H 768.1 -5.2628 -2.07476 0
M  V30 8011 H 766.657 -6.19421 -2.02882 0
M  V30 8012 N 770.09 -0.729906 -1.39679 0
M  V30 8013 C 771.02 -0.101618 -2.33279 0
M  V30 8014 C 772.001 0.729854 -1.53646 0
M  V30 8015 O 773.186 0.67587 -1.82059 0
M  V30 8016 C 770.316 0.81024 -3.37716 0
M  V30 8017 C 769.27 0.0833126 -4.27919 0
M  V30 8018 C 768.596 1.11185 -5.23012 0
M  V30 8019 C 769.896 -1.07107 -5.112 0
M  V30 8020 H 771.59 -0.883452 -2.86069 0
M  V30 8021 H 769.136 -0.426283 -1.37546 0
M  V30 8022 H 771.089 1.25927 -4.02145 0
M  V30 8023 H 769.813 1.62413 -2.83354 0
M  V30 8024 H 768.472 -0.346043 -3.64963 0
M  V30 8025 H 768.12 1.91917 -4.64948 0
M  V30 8026 H 767.82 0.63026 -5.8421 0
M  V30 8027 H 769.344 1.56068 -5.90318 0
M  V30 8028 H 770.758 -0.700726 -5.69002 0
M  V30 8029 H 769.155 -1.48196 -5.81514 0
M  V30 8030 H 770.225 -1.89513 -4.46332 0
M  V30 8031 N 771.568 1.50203 -0.477153 0
M  V30 8032 C 772.979 1.86685 -0.0235041 0
M  V30 8033 C 773.33 1.39148 1.38319 0
M  V30 8034 O 772.455 0.759051 2.02651 0
M  V30 8035 C 773.05 3.38781 -0.0358767 0
M  V30 8036 C 771.609 3.74652 0.362327 0
M  V30 8037 C 770.756 2.7412 -0.41875 0
M  V30 8038 H 773.707 1.4286 -0.691133 0
M  V30 8039 H 773.728 3.72732 0.764924 0
M  V30 8040 H 773.24 3.73349 -1.05981 0
M  V30 8041 H 771.341 3.45686 1.39039 0
M  V30 8042 H 771.454 4.79063 0.059457 0
M  V30 8043 H 769.818 2.54376 0.128341 0
M  V30 8044 H 770.601 3.11532 -1.44231 0
M  V30 8045 N 773.046 0.209999 1.56195 0
M  V30 8046 C 774.323 -0.473214 1.89789 0
M  V30 8047 C 774.703 -1.78581 1.1257 0
M  V30 8048 O 774.051 -2.27325 0.231398 0
M  V30 8049 C 774.261 -0.677458 3.42362 0
M  V30 8050 C 775.609 -0.990114 4.12895 0
M  V30 8051 O 776.633 -0.764655 3.47896 0
M  V30 8052 O 775.492 -1.41737 5.278 0
M  V30 8053 H 772.586 -0.248622 0.788743 0
M  V30 8054 H 775.132 0.251324 1.67829 0
M  V30 8055 H 773.904 0.248878 3.90508 0
M  V30 8056 H 773.527 -1.45391 3.70064 0
M  V30 8057 N 774.524 -1.57472 -0.0634922 0
M  V30 8058 C 775.77 -1.87932 -0.762194 0
M  V30 8059 C 776.103 -0.803377 -1.76804 0
M  V30 8060 O 775.378 0.185468 -1.93614 0
M  V30 8061 C 775.661 -3.29053 -1.46275 0
M  V30 8062 C 775.514 -4.47309 -0.472755 0
M  V30 8063 C 776.833 -3.68537 -2.40558 0
M  V30 8064 H 773.952 -0.683521 -0.275624 0
M  V30 8065 H 776.594 -1.89983 -0.0252651 0
M  V30 8066 H 774.744 -3.27435 -2.0909 0
M  V30 8067 H 776.416 -4.61053 0.150828 0
M  V30 8068 H 774.659 -4.33286 0.211187 0
M  V30 8069 H 775.33 -5.42853 -1.00072 0
M  V30 8070 H 777.806 -3.71302 -1.87814 0
M  V30 8071 H 776.682 -4.68152 -2.86574 0
M  V30 8072 H 776.943 -2.98917 -3.25731 0
M  V30 8073 N 776.003 0.335068 -1.53997 0
M  V30 8074 C 777.25 1.07435 -1.71651 0
M  V30 8075 C 777.578 1.88378 -0.48413 0
M  V30 8076 O 776.833 1.8827 0.534139 0
M  V30 8077 C 777.132 2.0364 -2.9371 0
M  V30 8078 C 776.798 1.38942 -4.28959 0
M  V30 8079 C 775.46 1.21027 -4.65732 0
M  V30 8080 C 777.812 0.924083 -5.12943 0
M  V30 8081 C 775.14 0.552097 -5.84097 0
M  V30 8082 C 777.492 0.27978 -6.31981 0
M  V30 8083 C 776.156 0.0883843 -6.67441 0
M  V30 8084 H 775.426 0.393133 -0.628114 0
M  V30 8085 H 778.073 0.352712 -1.88224 0
M  V30 8086 H 776.378 2.82215 -2.71775 0
M  V30 8087 H 778.075 2.6085 -3.04562 0
M  V30 8088 H 774.665 1.53885 -4.00022 0
M  V30 8089 H 778.849 1.05032 -4.85059 0
M  V30 8090 H 774.105 0.392502 -6.10139 0
M  V30 8091 H 778.279 -0.0888479 -6.96343 0
M  V30 8092 H 775.906 -0.423657 -7.59019 0
M  V30 8093 N 777.481 1.45874 0.596531 0
M  V30 8094 C 778.391 1.57947 1.73464 0
M  V30 8095 C 779.407 0.463461 1.67714 0
M  V30 8096 O 780.583 0.725685 1.87872 0
M  V30 8097 C 777.648 1.55348 3.09948 0
M  V30 8098 C 776.709 2.78074 3.27068 0
M  V30 8099 C 775.942 2.75589 4.57041 0
M  V30 8100 O 776.165 1.83545 5.40063 0
M  V30 8101 O 775.099 3.66945 4.77111 0
M  V30 8102 H 778.925 2.54169 1.66228 0
M  V30 8103 H 776.51 1.2851 0.76194 0
M  V30 8104 H 778.392 1.56545 3.91244 0
M  V30 8105 H 777.067 0.622811 3.17652 0
M  V30 8106 H 775.974 2.82435 2.45319 0
M  V30 8107 H 777.307 3.70303 3.24248 0
M  V30 8108 N 778.959 -0.83999 1.33349 0
M  V30 8109 C 779.891 -1.95678 1.19344 0
M  V30 8110 C 780.904 -1.62322 0.124692 0
M  V30 8111 O 782.093 -1.74516 0.375012 0
M  V30 8112 C 779.193 -3.29133 0.807771 0
M  V30 8113 C 778.366 -3.9063 1.96792 0
M  V30 8114 C 777.425 -5.02438 1.56341 0
M  V30 8115 O 776.451 -5.21646 2.27759 0
M  V30 8116 N 777.653 -5.78612 0.467767 0
M  V30 8117 H 780.418 -2.08229 2.15548 0
M  V30 8118 H 777.979 -1.01566 1.26079 0
M  V30 8119 H 779.971 -4.01355 0.519282 0
M  V30 8120 H 778.541 -3.12535 -0.063555 0
M  V30 8121 H 777.761 -3.11011 2.4221 0
M  V30 8122 H 779.049 -4.2845 2.74422 0
M  V30 8123 H 778.447 -5.65559 -0.126324 0
M  V30 8124 H 777.004 -6.51362 0.238945 0
M  V30 8125 N 780.437 -1.16799 -1.0581 0
M  V30 8126 C 781.4 -0.881396 -2.11575 0
M  V30 8127 C 782.4 0.12574 -1.60308 0
M  V30 8128 O 783.59 -0.105716 -1.73879 0
M  V30 8129 C 780.722 -0.319037 -3.39404 0
M  V30 8130 H 781.915 -1.81907 -2.38432 0
M  V30 8131 H 779.468 -0.977597 -1.21954 0
M  V30 8132 H 780.203 0.626082 -3.18199 0
M  V30 8133 H 779.988 -1.04481 -3.77923 0
M  V30 8134 H 781.478 -0.13663 -4.17376 0
M  V30 8135 N 781.915 1.24427 -0.967243 0
M  V30 8136 C 782.862 2.25398 -0.496419 0
M  V30 8137 C 783.832 1.59667 0.457781 0
M  V30 8138 O 785.017 1.87213 0.368246 0
M  V30 8139 C 782.157 3.44474 0.207693 0
M  V30 8140 C 781.27 4.24804 -0.785221 0
M  V30 8141 C 780.405 5.31169 -0.0572631 0
M  V30 8142 C 779.444 6.03195 -1.04027 0
M  V30 8143 N 778.581 7.01265 -0.34235 0
M  V30 8144 H 783.421 2.65039 -1.36229 0
M  V30 8145 H 780.958 1.30288 -0.682902 0
M  V30 8146 H 782.916 4.12376 0.632612 0
M  V30 8147 H 781.546 3.05672 1.03752 0
M  V30 8148 H 780.598 3.56445 -1.32858 0
M  V30 8149 H 781.91 4.74599 -1.53483 0
M  V30 8150 H 781.064 6.05205 0.425674 0
M  V30 8151 H 779.803 4.8228 0.725047 0
M  V30 8152 H 778.808 5.27964 -1.53409 0
M  V30 8153 H 780.033 6.54173 -1.82302 0
M  V30 8154 H 777.979 6.54648 0.420993 0
M  V30 8155 H 777.896 7.48939 -1.03084 0
M  V30 8156 H 779.164 7.7941 0.118634 0
M  V30 8157 N 783.393 0.737304 1.3929 0
M  V30 8158 C 784.356 0.10731 2.28949 0
M  V30 8159 C 785.356 -0.664716 1.46418 0
M  V30 8160 O 786.546 -0.493392 1.67067 0
M  V30 8161 C 783.678 -0.857145 3.29948 0
M  V30 8162 H 784.871 0.89725 2.86163 0
M  V30 8163 H 782.424 0.503279 1.47976 0
M  V30 8164 H 783.159 -1.67336 2.77794 0
M  V30 8165 H 782.944 -0.306167 3.90903 0
M  V30 8166 H 784.434 -1.29444 3.97031 0
M  V30 8167 N 784.871 -1.49948 0.485112 0
M  V30 8168 C 786.12 -2.01589 -0.066765 0
M  V30 8169 C 786.433 -1.371 -1.39509 0
M  V30 8170 O 787.639 -1.79978 -2.03274 0
M  V30 8171 C 786.095 -3.59501 -0.169476 0
M  V30 8172 C 785.703 -4.32955 1.15126 0
M  V30 8173 C 787.447 -4.19138 -0.672564 0
M  V30 8174 C 785.354 -5.82684 1.01158 0
M  V30 8175 H 784.284 -0.753453 -0.0287259 0
M  V30 8176 H 786.935 -1.72632 0.622132 0
M  V30 8177 H 785.317 -3.85106 -0.922471 0
M  V30 8178 H 786.491 -4.19064 1.9163 0
M  V30 8179 H 784.806 -3.84991 1.58654 0
M  V30 8180 H 787.403 -5.28767 -0.794325 0
M  V30 8181 H 787.746 -3.81447 -1.66745 0
M  V30 8182 H 788.279 -3.97793 0.0234415 0
M  V30 8183 H 785.018 -6.24873 1.98025 0
M  V30 8184 H 784.538 -5.99112 0.287151 0
M  V30 8185 H 786.217 -6.43376 0.683847 0
M  V30 8186 N 786.349 -0.21828 -1.56081 0
M  V30 8187 C 787.312 0.679633 -2.18892 0
M  V30 8188 C 788.312 1.12405 -1.14986 0
M  V30 8189 O 789.502 1.03339 -1.40238 0
M  V30 8190 C 786.634 1.93063 -2.80962 0
M  V30 8191 H 787.827 0.132066 -2.99609 0
M  V30 8192 H 785.38 0.0313374 -1.56269 0
M  V30 8193 H 786.115 2.52015 -2.04106 0
M  V30 8194 H 785.9 1.62046 -3.57048 0
M  V30 8195 H 787.39 2.57043 -3.29118 0
M  V30 8196 N 787.827 1.57504 0.0551401 0
M  V30 8197 C 788.759 2.0158 1.09078 0
M  V30 8198 C 789.772 0.92434 1.34014 0
M  V30 8199 O 790.961 1.20202 1.31961 0
M  V30 8200 C 788.061 2.35385 2.43818 0
M  V30 8201 C 787.234 3.66588 2.38605 0
M  V30 8202 C 786.293 3.87874 3.55585 0
M  V30 8203 O 785.319 4.59259 3.36258 0
M  V30 8204 N 786.521 3.31503 4.76536 0
M  V30 8205 H 789.286 2.91039 0.71529 0
M  V30 8206 H 786.847 1.60058 0.243532 0
M  V30 8207 H 788.839 2.46784 3.20749 0
M  V30 8208 H 787.409 1.51731 2.73307 0
M  V30 8209 H 786.629 3.65787 1.46947 0
M  V30 8210 H 787.917 4.52706 2.32239 0
M  V30 8211 H 787.315 2.73592 4.9514 0
M  V30 8212 H 785.872 3.48324 5.50921 0
M  V30 8213 N 789.305 -0.326896 1.54172 0
M  V30 8214 C 790.255 -1.40319 1.79707 0
M  V30 8215 C 791.239 -1.47056 0.652938 0
M  V30 8216 O 792.431 -1.51645 0.91284 0
M  V30 8217 C 789.56 -2.77222 2.02491 0
M  V30 8218 C 788.646 -2.74811 3.23016 0
M  V30 8219 N 789.037 -2.42022 4.44138 0
M  V30 8220 C 787.335 -3.05943 3.24522 0
M  V30 8221 C 788.036 -2.48263 5.26061 0
M  V30 8222 N 787.012 -2.84567 4.63166 0
M  V30 8223 H 790.814 -1.13892 2.70935 0
M  V30 8224 H 788.328 -0.53536 1.53322 0
M  V30 8225 H 790.325 -3.54793 2.18923 0
M  V30 8226 H 788.985 -3.04582 1.12515 0
M  V30 8227 H 789.996 -2.14926 4.71197 0
M  V30 8228 H 786.673 -3.38367 2.44569 0
M  V30 8229 H 788.063 -2.2593 6.32776 0
M  V30 8230 N 790.784 -1.46188 -0.588786 0
M  V30 8231 C 791.694 -1.58865 -1.72624 0
M  V30 8232 C 792.71 -0.472348 -1.67466 0
M  V30 8233 O 793.886 -0.735638 -1.87484 0
M  V30 8234 C 790.951 -1.56989 -3.0912 0
M  V30 8235 C 790.012 -2.79804 -3.25589 0
M  V30 8236 C 789.245 -2.78009 -4.55573 0
M  V30 8237 O 789.468 -1.86406 -5.39082 0
M  V30 8238 O 788.402 -3.6947 -4.75159 0
M  V30 8239 H 792.228 -2.55047 -1.64878 0
M  V30 8240 H 789.813 -1.28912 -0.755115 0
M  V30 8241 H 791.695 -1.58618 -3.90408 0
M  V30 8242 H 790.37 -0.639648 -3.17317 0
M  V30 8243 H 789.277 -2.83732 -2.43818 0
M  V30 8244 H 790.61 -3.72017 -3.22279 0
M  V30 8245 N 792.262 0.832906 -1.33792 0
M  V30 8246 C 793.673 1.40489 -1.22963 0
M  V30 8247 C 794.024 1.95633 0.149026 0
M  V30 8248 O 793.149 1.8928 1.04891 0
M  V30 8249 C 793.744 2.55387 -2.22627 0
M  V30 8250 C 792.303 3.08522 -2.15618 0
M  V30 8251 C 791.45 1.81347 -2.09782 0
M  V30 8252 H 794.401 0.638156 -1.45304 0
M  V30 8253 H 794.422 3.33193 -1.83746 0
M  V30 8254 H 793.934 2.15222 -3.22957 0
M  V30 8255 H 792.035 3.53217 -1.18611 0
M  V30 8256 H 792.148 3.6829 -3.0643 0
M  V30 8257 H 790.512 2.01839 -1.55349 0
M  V30 8258 H 791.295 1.43369 -3.1193 0
M  V30 8259 N 793.74 1.17359 1.05189 0
M  V30 8260 C 794.986 0.963413 1.78455 0
M  V30 8261 C 795.319 -0.506703 1.87473 0
M  V30 8262 O 794.594 -1.37611 1.37453 0
M  V30 8263 C 794.877 1.60519 3.22344 0
M  V30 8264 C 794.73 3.14741 3.21338 0
M  V30 8265 C 796.049 1.3091 4.20179 0
M  V30 8266 H 793.168 0.351412 0.647826 0
M  V30 8267 H 795.81 1.44858 1.22948 0
M  V30 8268 H 793.96 1.19265 3.69741 0
M  V30 8269 H 795.632 3.65053 2.82017 0
M  V30 8270 H 793.875 3.4749 2.59679 0
M  V30 8271 H 794.546 3.54775 4.22894 0
M  V30 8272 H 797.022 1.66635 3.81277 0
M  V30 8273 H 795.898 1.784 5.191 0
M  V30 8274 H 796.159 0.229908 4.41502 0
M  V30 8275 N 795.218 -1.23913 0.973828 0
M  V30 8276 C 796.148 -2.27453 0.527969 0
M  V30 8277 C 797.129 -1.6443 -0.435513 0
M  V30 8278 O 798.314 -1.9137 -0.330306 0
M  V30 8279 C 795.444 -3.4685 -0.176757 0
M  V30 8280 C 794.398 -4.22181 0.703352 0
M  V30 8281 C 793.724 -5.34534 -0.133215 0
M  V30 8282 C 795.024 -4.82865 1.99096 0
M  V30 8283 H 796.718 -2.65 1.3934 0
M  V30 8284 H 794.264 -1.27388 0.671446 0
M  V30 8285 H 796.217 -4.18424 -0.499934 0
M  V30 8286 H 794.941 -3.08346 -1.07659 0
M  V30 8287 H 793.6 -3.52416 1.00989 0
M  V30 8288 H 793.248 -4.92271 -1.03338 0
M  V30 8289 H 792.948 -5.85855 0.452494 0
M  V30 8290 H 794.472 -6.08933 -0.450924 0
M  V30 8291 H 795.886 -5.46481 1.73297 0
M  V30 8292 H 794.283 -5.44444 2.52389 0
M  V30 8293 H 795.353 -4.03977 2.68199 0
M  V30 8294 N 796.696 -0.74468 -1.38897 0
M  V30 8295 C 797.945 -0.293716 -1.9955 0
M  V30 8296 C 798.258 1.12831 -1.59777 0
M  V30 8297 O 799.464 1.67929 -2.13336 0
M  V30 8298 C 797.92 -0.474188 -3.56762 0
M  V30 8299 C 797.528 -1.90472 -4.05493 0
M  V30 8300 C 799.272 -0.0854875 -4.24414 0
M  V30 8301 C 797.179 -2.03423 -5.55314 0
M  V30 8302 H 796.109 -0.106066 -0.746502 0
M  V30 8303 H 798.76 -0.919948 -1.58774 0
M  V30 8304 H 797.142 0.221092 -3.95382 0
M  V30 8305 H 798.316 -2.63274 -3.78184 0
M  V30 8306 H 796.631 -2.24752 -3.50536 0
M  V30 8307 H 799.228 -0.161133 -5.34457 0
M  V30 8308 H 799.571 0.96066 -4.05064 0
M  V30 8309 H 800.104 -0.732286 -3.91002 0
M  V30 8310 H 796.843 -3.0626 -5.79556 0
M  V30 8311 H 796.363 -1.3507 -5.84394 0
M  V30 8312 H 798.042 -1.81996 -6.20876 0
M  V30 8313 N 798.174 1.49689 -0.493057 0
M  V30 8314 C 799.451 1.9525 0.116907 0
M  V30 8315 C 799.831 1.43429 1.54892 0
M  V30 8316 O 799.179 0.644621 2.19219 0
M  V30 8317 C 799.389 3.4898 0.037705 0
M  V30 8318 C 800.737 4.24052 0.215621 0
M  V30 8319 O 801.761 3.5602 0.113266 0
M  V30 8320 O 800.62 5.44847 0.42477 0
M  V30 8321 H 797.714 0.820973 0.099662 0
M  V30 8322 H 800.26 1.60367 -0.555029 0
M  V30 8323 H 799.032 3.79309 -0.961251 0
M  V30 8324 H 798.655 3.9046 0.750137 0
M  V30 8325 N 799.652 0.226554 1.55963 0
M  V30 8326 C 800.615 -0.668015 2.19249 0
M  V30 8327 C 801.615 -1.11794 1.1558 0
M  V30 8328 O 802.805 -1.02593 1.40784 0
M  V30 8329 C 799.937 -1.91571 2.81981 0
M  V30 8330 H 801.13 -0.116175 2.99675 0
M  V30 8331 H 798.683 -0.0230497 1.56283 0
M  V30 8332 H 799.418 -2.50929 2.05439 0
M  V30 8333 H 799.203 -1.6015 3.57903 0
M  V30 8334 H 800.693 -2.55294 3.30477 0
M  V30 8335 N 801.13 -1.57531 -0.0467866 0
M  V30 8336 C 802.376 -1.8873 -0.742218 0
M  V30 8337 C 802.709 -0.822084 -1.75941 0
M  V30 8338 O 801.984 0.164922 -1.938 0
M  V30 8339 C 802.267 -3.30586 -1.42776 0
M  V30 8340 C 802.12 -4.47785 -0.425285 0
M  V30 8341 C 803.439 -3.71068 -2.36636 0
M  V30 8342 H 800.558 -0.686406 -0.268359 0
M  V30 8343 H 803.2 -1.89999 -0.00511341 0
M  V30 8344 H 801.35 -3.29634 -2.05605 0
M  V30 8345 H 803.022 -4.60867 0.199721 0
M  V30 8346 H 801.265 -4.33037 0.25713 0
M  V30 8347 H 801.936 -5.43884 -0.943086 0
M  V30 8348 H 804.412 -3.73273 -1.83866 0
M  V30 8349 H 803.288 -4.71165 -2.81593 0
M  V30 8350 H 803.549 -3.02355 -3.22542 0
M  V30 8351 N 802.608 0.318715 -1.54344 0
M  V30 8352 C 803.857 1.05363 -1.71993 0
M  V30 8353 C 804.17 1.89018 -0.503155 0
M  V30 8354 O 805.376 2.65639 -0.561085 0
M  V30 8355 C 803.832 1.92281 -3.0423 0
M  V30 8356 C 803.44 1.13715 -4.33328 0
M  V30 8357 C 805.184 2.65479 -3.31242 0
M  V30 8358 C 803.091 1.99806 -5.56625 0
M  V30 8359 H 802.021 0.397081 -0.64097 0
M  V30 8360 H 804.672 0.311598 -1.80835 0
M  V30 8361 H 803.054 2.70402 -2.89307 0
M  V30 8362 H 804.228 0.403305 -4.59032 0
M  V30 8363 H 802.543 0.521769 -4.13118 0
M  V30 8364 H 805.14 3.30209 -4.20555 0
M  V30 8365 H 805.483 3.33374 -2.49334 0
M  V30 8366 H 806.016 1.94417 -3.47054 0
M  V30 8367 H 802.755 1.36411 -6.41149 0
M  V30 8368 H 802.275 2.70911 -5.35133 0
M  V30 8369 H 803.954 2.58277 -5.93213 0
M  V30 8370 N 804.086 1.46499 0.581025 0
M  V30 8371 C 805.314 1.5547 1.36517 0
M  V30 8372 C 805.729 0.196407 1.87776 0
M  V30 8373 O 805.086 -0.806577 1.63709 0
M  V30 8374 C 805.137 2.56084 2.55154 0
M  V30 8375 O 804.858 3.86637 2.06018 0
M  V30 8376 C 806.359 2.75011 3.47683 0
M  V30 8377 H 803.579 0.525703 0.416986 0
M  V30 8378 H 806.123 1.9192 0.706177 0
M  V30 8379 H 804.278 2.22633 3.17039 0
M  V30 8380 H 804.692 4.41413 2.83292 0
M  V30 8381 H 806.166 3.49329 4.27403 0
M  V30 8382 H 806.643 1.81978 3.99726 0
M  V30 8383 H 807.249 3.09565 2.91632 0
M  V30 8384 N 805.565 -0.825799 1.34232 0
M  V30 8385 C 806.813 -1.57873 1.26177 0
M  V30 8386 C 807.134 -1.94267 -0.168904 0
M  V30 8387 O 806.404 -1.62045 -1.10084 0
M  V30 8388 H 804.984 -0.585388 0.464037 0
M  V30 8389 H 807.646 -0.986163 1.6811 0
M  V30 8390 H 806.742 -2.50283 1.86453 0
M  V30 8391 N 807.043 -1.17915 -1.04565 0
M  V30 8392 C 808.32 -0.881187 -1.74627 0
M  V30 8393 C 808.7 0.617123 -2.01878 0
M  V30 8394 O 808.048 1.57032 -1.65991 0
M  V30 8395 C 808.258 -1.72299 -3.03503 0
M  V30 8396 C 809.606 -1.94688 -3.77335 0
M  V30 8397 O 810.63 -1.6931 -3.13389 0
M  V30 8398 O 809.489 -2.37379 -4.92253 0
M  V30 8399 H 806.583 -0.326864 -0.759664 0
M  V30 8400 H 809.129 -1.28642 -1.10676 0
M  V30 8401 H 807.901 -2.73891 -2.79462 0
M  V30 8402 H 807.524 -1.31593 -3.75192 0
M  V30 8403 N 808.521 1.23394 -0.980386 0
M  V30 8404 C 809.937 1.43961 -0.689008 0
M  V30 8405 C 810.137 1.87229 0.744809 0
M  V30 8406 O 809.193 2.01831 1.51725 0
M  V30 8407 C 810.506 2.49128 -1.68392 0
M  V30 8408 C 812.054 2.62941 -1.69796 0
M  V30 8409 C 812.529 3.71317 -2.68118 0
M  V30 8410 N 814.02 3.7876 -2.66636 0
M  V30 8411 C 814.755 4.62176 -3.39383 0
M  V30 8412 N 814.251 5.49682 -4.21688 0
M  V30 8413 N 816.044 4.56372 -3.28147 0
M  V30 8414 H 808.195 0.936106 -1.90659 0
M  V30 8415 H 810.458 0.473023 -0.821555 0
M  V30 8416 H 810.164 2.24252 -2.70931 0
M  V30 8417 H 810.038 3.47514 -1.46675 0
M  V30 8418 H 812.425 2.87168 -0.679617 0
M  V30 8419 H 812.506 1.64871 -1.95579 0
M  V30 8420 H 812.15 3.4784 -3.70095 0
M  V30 8421 H 812.08 4.68929 -2.3961 0
M  V30 8422 H 814.571 3.16226 -2.06904 0
M  V30 8423 H 814.884 6.10323 -4.74053 0
M  V30 8424 H 813.229 5.49306 -4.25779 0
M  V30 8425 H 816.42 3.87029 -2.63299 0
M  V30 8426 H 816.593 5.21153 -3.85102 0
M  V30 8427 N 809.999 0.752036 1.385 0
M  V30 8428 C 811.41 0.375385 1.82887 0
M  V30 8429 C 811.761 -1.09575 1.62751 0
M  V30 8430 O 810.886 -1.84685 1.12785 0
M  V30 8431 C 811.481 0.674563 3.32017 0
M  V30 8432 C 810.04 0.351208 3.74758 0
M  V30 8433 C 809.187 0.928531 2.61292 0
M  V30 8434 H 812.138 0.948313 1.27251 0
M  V30 8435 H 812.159 -0.0477781 3.8047 0
M  V30 8436 H 811.671 1.74533 3.46641 0
M  V30 8437 H 809.772 -0.713042 3.65714 0
M  V30 8438 H 809.885 0.845675 4.71577 0
M  V30 8439 H 808.249 0.354012 2.52228 0
M  V30 8440 H 809.032 2.0043 2.78716 0
M  V30 8441 N 811.477 -1.49425 0.500989 0
M  V30 8442 C 812.407 -2.31971 -0.266775 0
M  V30 8443 C 813.388 -1.40245 -0.962563 0
M  V30 8444 O 814.573 -1.69154 -0.953968 0
M  V30 8445 C 811.703 -3.20757 -1.33163 0
M  V30 8446 C 810.657 -4.21275 -0.75572 0
M  V30 8447 C 809.983 -4.98997 -1.92109 0
M  V30 8448 C 811.283 -5.21686 0.253213 0
M  V30 8449 H 812.977 -2.96408 0.422237 0
M  V30 8450 H 810.523 -1.4254 0.204505 0
M  V30 8451 H 812.476 -3.77315 -1.87646 0
M  V30 8452 H 811.2 -2.54263 -2.04983 0
M  V30 8453 H 809.859 -3.65861 -0.232637 0
M  V30 8454 H 809.507 -4.28951 -2.62698 0
M  V30 8455 H 809.207 -5.67011 -1.54182 0
M  V30 8456 H 810.731 -5.584 -2.47026 0
M  V30 8457 H 812.145 -5.72939 -0.203483 0
M  V30 8458 H 810.542 -5.9759 0.548322 0
M  V30 8459 H 811.612 -4.70596 1.16909 0
M  V30 8460 N 812.955 -0.234822 -1.55841 0
M  V30 8461 C 814.366 0.270588 -1.84729 0
M  V30 8462 C 814.717 1.58494 -1.15646 0
M  V30 8463 O 813.842 2.12071 -0.430667 0
M  V30 8464 C 814.437 0.497733 -3.35124 0
M  V30 8465 C 812.996 0.947428 -3.64281 0
M  V30 8466 C 812.143 0.01787 -2.77294 0
M  V30 8467 H 815.094 -0.457691 -1.51957 0
M  V30 8468 H 815.115 1.34199 -3.56049 0
M  V30 8469 H 814.627 -0.459037 -3.85376 0
M  V30 8470 H 812.728 1.91709 -3.19497 0
M  V30 8471 H 812.841 0.812651 -4.72158 0
M  V30 8472 H 811.205 0.527071 -2.49187 0
M  V30 8473 H 811.988 -0.934056 -3.30349 0
M  V30 8474 N 814.433 1.57553 0.0384317 0
M  V30 8475 C 815.396 2.04927 1.02653 0
M  V30 8476 C 816.396 0.951768 1.29607 0
M  V30 8477 O 817.586 1.21568 1.24768 0
M  V30 8478 C 814.718 2.45828 2.36181 0
M  V30 8479 H 815.911 2.93474 0.617508 0
M  V30 8480 H 813.464 1.53679 0.285031 0
M  V30 8481 H 814.199 1.60408 2.8185 0
M  V30 8482 H 813.984 3.25945 2.1795 0
M  V30 8483 H 815.474 2.82939 3.0714 0
M  V30 8484 N 815.911 -0.310526 1.54511 0
M  V30 8485 C 816.821 -1.4054 1.87844 0
M  V30 8486 C 817.837 -1.55954 0.771635 0
M  V30 8487 O 819.013 -1.70801 1.06719 0
M  V30 8488 C 816.078 -2.75063 2.11048 0
M  V30 8489 C 815.139 -2.68715 3.348 0
M  V30 8490 C 814.372 -3.96821 3.56887 0
M  V30 8491 O 814.595 -4.95721 2.82165 0
M  V30 8492 O 813.529 -3.99291 4.50389 0
M  V30 8493 H 817.355 -1.15275 2.80972 0
M  V30 8494 H 814.94 -0.505732 1.4058 0
M  V30 8495 H 816.822 -3.54671 2.27566 0
M  V30 8496 H 815.497 -3.00191 1.21108 0
M  V30 8497 H 814.404 -1.87611 3.23655 0
M  V30 8498 H 815.737 -2.4854 4.2484 0
M  V30 8499 N 817.389 -1.46805 -0.573248 0
M  V30 8500 C 818.336 -1.58084 -1.68161 0
M  V30 8501 C 819.306 -0.424636 -1.6058 0
M  V30 8502 O 820.491 -0.642623 -1.79652 0
M  V30 8503 C 817.631 -1.58601 -3.06496 0
M  V30 8504 C 816.744 -2.85023 -3.24632 0
M  V30 8505 C 815.879 -2.76981 -4.53271 0
M  V30 8506 C 814.918 -3.983 -4.64783 0
M  V30 8507 N 814.055 -3.88589 -5.84759 0
M  V30 8508 H 818.895 -2.52755 -1.57858 0
M  V30 8509 H 816.432 -1.25385 -0.769218 0
M  V30 8510 H 818.39 -1.56885 -3.86579 0
M  V30 8511 H 817.02 -0.674553 -3.15673 0
M  V30 8512 H 816.072 -2.96678 -2.38089 0
M  V30 8513 H 817.384 -3.7491 -3.29004 0
M  V30 8514 H 816.538 -2.73424 -5.41594 0
M  V30 8515 H 815.277 -1.84751 -4.51352 0
M  V30 8516 H 814.282 -4.02179 -3.74876 0
M  V30 8517 H 815.507 -4.91639 -4.68474 0
M  V30 8518 H 813.453 -2.99151 -5.83819 0
M  V30 8519 H 813.37 -4.7214 -5.90441 0
M  V30 8520 H 814.638 -3.89022 -6.75486 0
M  V30 8521 N 818.867 0.818669 -1.34668 0
M  V30 8522 C 819.797 1.94468 -1.29245 0
M  V30 8523 C 820.778 1.69257 -0.169101 0
M  V30 8524 O 821.963 1.90794 -0.362143 0
M  V30 8525 C 819.093 3.31001 -1.05145 0
M  V30 8526 C 818.047 3.70663 -2.13992 0
M  V30 8527 C 817.373 5.05226 -1.75074 0
M  V30 8528 C 818.673 3.82312 -3.55858 0
M  V30 8529 H 820.367 1.99263 -2.2346 0
M  V30 8530 H 817.913 0.957304 -1.07572 0
M  V30 8531 H 819.866 4.09364 -0.999949 0
M  V30 8532 H 818.59 3.26517 -0.0737312 0
M  V30 8533 H 817.249 2.94578 -2.18219 0
M  V30 8534 H 816.897 4.97233 -0.759518 0
M  V30 8535 H 816.597 5.32734 -2.47928 0
M  V30 8536 H 818.121 5.86042 -1.71427 0
M  V30 8537 H 819.535 4.50935 -3.5402 0
M  V30 8538 H 817.932 4.21278 -4.2737 0
M  V30 8539 H 819.002 2.84193 -3.9289 0
M  V30 8540 N 820.346 1.18468 1.03938 0
M  V30 8541 C 821.762 0.934635 1.29371 0
M  V30 8542 C 821.962 -0.399067 1.97509 0
M  V30 8543 O 821.018 -1.13309 2.25648 0
M  V30 8544 C 822.331 2.10111 2.15114 0
M  V30 8545 C 823.879 2.13955 2.28456 0
M  V30 8546 C 824.354 3.30024 3.17566 0
M  V30 8547 N 825.845 3.29893 3.25153 0
M  V30 8548 C 826.58 4.16346 3.94263 0
M  V30 8549 N 826.076 5.12934 4.65693 0
M  V30 8550 N 827.869 4.04256 3.90556 0
M  V30 8551 H 820.02 2.04294 0.581185 0
M  V30 8552 H 822.283 0.892727 0.318971 0
M  V30 8553 H 821.989 3.06572 1.72355 0
M  V30 8554 H 821.863 2.06283 3.15796 0
M  V30 8555 H 824.25 1.18072 2.7045 0
M  V30 8556 H 824.331 2.2184 1.2736 0
M  V30 8557 H 823.975 4.26181 2.76283 0
M  V30 8558 H 823.905 3.19376 4.18697 0
M  V30 8559 H 826.396 2.59969 2.74271 0
M  V30 8560 H 826.709 5.75271 5.16026 0
M  V30 8561 H 825.054 5.16893 4.64593 0
M  V30 8562 H 828.245 3.28083 3.33885 0
M  V30 8563 H 828.418 4.71848 4.44144 0
M  V30 8564 N 821.824 -1.22873 0.986916 0
M  V30 8565 C 822.754 -2.2688 0.552064 0
M  V30 8566 C 823.735 -1.64883 -0.418048 0
M  V30 8567 O 824.92 -1.9171 -0.30999 0
M  V30 8568 C 822.05 -3.47018 -0.139959 0
M  V30 8569 C 821.004 -4.21411 0.748091 0
M  V30 8570 C 820.33 -5.34645 -0.0765132 0
M  V30 8571 C 821.63 -4.80726 2.04206 0
M  V30 8572 H 823.324 -2.63507 1.42143 0
M  V30 8573 H 820.87 -1.26668 0.68492 0
M  V30 8574 H 822.823 -4.18931 -0.455527 0
M  V30 8575 H 821.547 -3.0947 -1.04382 0
M  V30 8576 H 820.206 -3.51325 1.04721 0
M  V30 8577 H 819.854 -4.93339 -0.981109 0
M  V30 8578 H 819.554 -5.85342 0.514606 0
M  V30 8579 H 821.078 -6.09377 -0.386313 0
M  V30 8580 H 822.492 -5.44612 1.79083 0
M  V30 8581 H 820.889 -5.41737 2.5815 0
M  V30 8582 H 821.959 -4.01109 2.72469 0
M  V30 8583 N 823.302 -0.75937 -1.38099 0
M  V30 8584 C 824.579 -0.243371 -1.9408 0
M  V30 8585 C 824.959 1.25942 -1.69416 0
M  V30 8586 O 824.307 2.03667 -1.03595 0
M  V30 8587 C 824.517 -0.603328 -3.43745 0
M  V30 8588 C 825.865 -0.566195 -4.20808 0
M  V30 8589 O 826.889 -0.541969 -3.52053 0
M  V30 8590 O 825.748 -0.582261 -5.43389 0
M  V30 8591 H 822.842 -0.0526825 -0.82532 0
M  V30 8592 H 825.388 -0.839884 -1.47459 0
M  V30 8593 H 824.16 -1.64098 -3.55229 0
M  V30 8594 H 823.783 0.0208887 -3.97595 0
M  V30 8595 N 824.78 1.49157 -0.508906 0
M  V30 8596 C 826.005 2.07376 0.0315182 0
M  V30 8597 C 826.43 1.36575 1.2934 0
M  V30 8598 O 825.788 0.424963 1.76249 0
M  V30 8599 C 825.836 3.59661 0.260118 0
M  V30 8600 O 824.94 3.90255 1.33322 0
M  V30 8601 H 824.281 0.663334 -0.029739 0
M  V30 8602 H 826.811 1.91857 -0.710791 0
M  V30 8603 H 826.821 4.05056 0.489225 0
M  V30 8604 H 825.496 4.10601 -0.661794 0
M  V30 8605 H 824.073 3.56661 1.08844 0
M  V30 8606 N 826.258 0.243083 1.55714 0
M  V30 8607 C 827.221 -0.644723 2.19945 0
M  V30 8608 C 828.221 -1.10562 1.16759 0
M  V30 8609 O 829.411 -1.01095 1.41865 0
M  V30 8610 C 826.543 -1.88569 2.83997 0
M  V30 8611 H 827.736 -0.0843839 2.99781 0
M  V30 8612 H 825.289 -0.00647246 1.56299 0
M  V30 8613 H 826.024 -2.48736 2.08089 0
M  V30 8614 H 825.809 -1.56345 3.59581 0
M  V30 8615 H 827.299 -2.51774 3.33166 0
M  V30 8616 N 827.736 -1.57571 -0.0300757 0
M  V30 8617 C 828.964 -1.93485 -0.732891 0
M  V30 8618 C 829.379 -0.842758 -1.68947 0
M  V30 8619 O 828.736 0.180904 -1.81601 0
M  V30 8620 C 828.787 -3.29328 -1.49082 0
M  V30 8621 O 828.508 -4.34341 -0.572639 0
M  V30 8622 C 830.009 -3.79517 -2.29088 0
M  V30 8623 H 827.229 -0.638588 -0.206026 0
M  V30 8624 H 829.773 -2.04496 0.0120966 0
M  V30 8625 H 827.928 -3.19716 -2.1877 0
M  V30 8626 H 828.342 -5.12748 -1.10406 0
M  V30 8627 H 829.816 -4.77081 -2.77665 0
M  V30 8628 H 830.293 -3.10659 -3.10464 0
M  V30 8629 H 830.899 -3.92208 -1.64477 0
M  V30 8630 N 829.214 0.302327 -1.54673 0
M  V30 8631 C 830.439 1.06103 -1.78205 0
M  V30 8632 C 830.864 1.80204 -0.53926 0
M  V30 8633 O 830.222 1.73975 0.510142 0
M  V30 8634 C 830.27 2.01829 -2.98827 0
M  V30 8635 O 829.374 3.10108 -2.71858 0
M  V30 8636 H 828.715 0.30487 -0.589873 0
M  V30 8637 H 831.245 0.340153 -2.01753 0
M  V30 8638 H 831.255 2.44319 -3.2676 0
M  V30 8639 H 829.93 1.473 -3.88942 0
M  V30 8640 H 828.507 2.72142 -2.54937 0
M  V30 8641 N 830.692 1.47107 0.565454 0
M  V30 8642 C 831.917 1.57153 1.35343 0
M  V30 8643 C 832.342 0.219247 1.86818 0
M  V30 8644 O 831.7 -0.803539 1.62521 0
M  V30 8645 C 831.748 2.59387 2.50501 0
M  V30 8646 O 830.852 2.14086 3.52478 0
M  V30 8647 H 830.193 0.528209 0.402357 0
M  V30 8648 H 832.723 1.92821 0.684189 0
M  V30 8649 H 832.733 2.79546 2.97184 0
M  V30 8650 H 831.408 3.57579 2.12391 0
M  V30 8651 H 829.985 2.03991 3.12157 0
M  V30 8652 N 832.17 -0.811516 1.35101 0
M  V30 8653 C 833.133 -1.90467 1.27495 0
M  V30 8654 C 834.133 -1.59703 0.187516 0
M  V30 8655 O 835.323 -1.68528 0.440896 0
M  V30 8656 C 832.455 -3.26774 0.971154 0
M  V30 8657 H 833.648 -1.98631 2.2469 0
M  V30 8658 H 831.201 -1.00681 1.19553 0
M  V30 8659 H 831.936 -3.243 0.0028557 0
M  V30 8660 H 831.721 -3.50488 1.75785 0
M  V30 8661 H 833.211 -4.06804 0.943414 0
M  V30 8662 N 833.648 -1.19017 -1.03309 0
M  V30 8663 C 834.611 -0.926076 -2.09658 0
M  V30 8664 C 835.611 0.0917077 -1.60538 0
M  V30 8665 O 836.801 -0.142574 -1.73616 0
M  V30 8666 C 833.933 -0.390958 -3.38651 0
M  V30 8667 H 835.126 -1.86923 -2.3452 0
M  V30 8668 H 832.679 -1.00325 -1.19853 0
M  V30 8669 H 833.414 0.558446 -3.19456 0
M  V30 8670 H 833.199 -1.12474 -3.75622 0
M  V30 8671 H 834.689 -0.225131 -4.16993 0
M  V30 8672 N 835.127 1.22348 -0.993418 0
M  V30 8673 C 836.404 1.86632 -0.585495 0
M  V30 8674 C 836.784 1.89156 0.937187 0
M  V30 8675 O 836.132 1.38247 1.81934 0
M  V30 8676 C 836.342 3.27481 -1.20652 0
M  V30 8677 C 837.69 4.03971 -1.30738 0
M  V30 8678 O 838.714 3.3675 -1.16096 0
M  V30 8679 O 837.573 5.24302 -1.54173 0
M  V30 8680 H 834.667 0.802704 -0.198984 0
M  V30 8681 H 837.213 1.30122 -1.08933 0
M  V30 8682 H 835.985 3.20281 -2.24802 0
M  V30 8683 H 835.608 3.91597 -0.688312 0
M  V30 8684 N 836.605 0.766683 1.37694 0
M  V30 8685 C 837.854 0.325425 1.99057 0
M  V30 8686 C 838.167 -1.10275 1.61551 0
M  V30 8687 O 839.373 -1.64513 2.1598 0
M  V30 8688 C 837.829 0.530886 3.55963 0
M  V30 8689 C 837.437 1.96899 4.02411 0
M  V30 8690 C 839.181 0.152997 4.24224 0
M  V30 8691 C 837.088 2.12232 5.52007 0
M  V30 8692 H 836.018 0.117929 0.744721 0
M  V30 8693 H 838.669 0.945091 1.5729 0
M  V30 8694 H 837.051 -0.158162 3.95684 0
M  V30 8695 H 838.225 2.69258 3.73948 0
M  V30 8696 H 836.54 2.303 3.46916 0
M  V30 8697 H 839.137 0.24614 5.34133 0
M  V30 8698 H 839.48 -0.896096 4.06541 0
M  V30 8699 H 840.013 0.794398 3.89787 0
M  V30 8700 H 836.752 3.15442 5.7461 0
M  V30 8701 H 836.272 1.4435 5.82171 0
M  V30 8702 H 837.951 1.9185 6.17902 0
M  V30 8703 N 838.083 -1.48885 0.516809 0
M  V30 8704 C 838.993 -2.33185 -0.257293 0
M  V30 8705 C 840.009 -1.4565 -0.951952 0
M  V30 8706 O 841.185 -1.78651 -0.929834 0
M  V30 8707 C 838.25 -3.21465 -1.29851 0
M  V30 8708 C 837.311 -4.24863 -0.615608 0
M  V30 8709 C 836.544 -5.08925 -1.60722 0
M  V30 8710 O 836.767 -4.9475 -2.83863 0
M  V30 8711 O 835.701 -5.90737 -1.15384 0
M  V30 8712 H 839.527 -3.00596 0.433131 0
M  V30 8713 H 837.112 -1.46792 0.277908 0
M  V30 8714 H 838.994 -3.76108 -1.90055 0
M  V30 8715 H 837.669 -2.5673 -1.97158 0
M  V30 8716 H 836.576 -3.74091 0.0265829 0
M  V30 8717 H 837.909 -4.92198 0.0152871 0
M  V30 8718 N 839.561 -0.251338 -1.55583 0
M  V30 8719 C 840.524 0.63305 -2.20284 0
M  V30 8720 C 841.524 1.09941 -1.17344 0
M  V30 8721 O 842.714 1.00341 -1.42399 0
M  V30 8722 C 839.846 1.8706 -2.84993 0
M  V30 8723 H 841.039 0.0684846 -2.99822 0
M  V30 8724 H 838.592 -0.00181653 -1.563 0
M  V30 8725 H 839.327 2.47629 -2.09405 0
M  V30 8726 H 839.112 1.54436 -3.60405 0
M  V30 8727 H 840.602 2.50004 -3.34496 0
M  V30 8728 N 841.039 1.57585 0.0217189 0
M  V30 8729 C 842.286 1.89606 0.711045 0
M  V30 8730 C 842.614 0.849535 1.74966 0
M  V30 8731 O 841.869 -0.14856 1.95135 0
M  V30 8732 C 842.168 3.28377 1.41079 0
M  V30 8733 C 841.834 4.48035 0.507454 0
M  V30 8734 C 840.496 4.80504 0.258672 0
M  V30 8735 C 842.848 5.21071 -0.115793 0
M  V30 8736 C 840.176 5.83393 -0.622013 0
M  V30 8737 C 842.528 6.24897 -0.984224 0
M  V30 8738 C 841.192 6.55836 -1.2424 0
M  V30 8739 H 840.462 0.693817 0.26019 0
M  V30 8740 H 843.109 1.91478 -0.0291424 0
M  V30 8741 H 841.414 3.22528 2.22448 0
M  V30 8742 H 843.111 3.50404 1.94982 0
M  V30 8743 H 839.701 4.22653 0.711516 0
M  V30 8744 H 843.885 4.96259 0.0634327 0
M  V30 8745 H 839.141 6.05736 -0.830267 0
M  V30 8746 H 843.315 6.8063 -1.47363 0
M  V30 8747 H 840.942 7.35383 -1.92653 0
M  V30 8748 N 842.517 -0.29412 1.54831 0
M  V30 8749 C 843.464 -1.36296 1.86258 0
M  V30 8750 C 844.434 -1.50061 0.712097 0
M  V30 8751 O 845.619 -1.64809 0.961381 0
M  V30 8752 C 842.759 -2.72187 2.12151 0
M  V30 8753 C 841.872 -2.66816 3.39755 0
M  V30 8754 C 841.007 -3.94747 3.55455 0
M  V30 8755 C 840.046 -3.838 4.76827 0
M  V30 8756 N 839.183 -5.03521 4.89296 0
M  V30 8757 H 844.023 -1.08796 2.7743 0
M  V30 8758 H 841.56 -0.526069 1.37371 0
M  V30 8759 H 843.518 -3.51225 2.25159 0
M  V30 8760 H 842.148 -2.97934 1.24237 0
M  V30 8761 H 841.2 -1.79605 3.3533 0
M  V30 8762 H 842.512 -2.5462 4.28917 0
M  V30 8763 H 841.666 -4.82223 3.68166 0
M  V30 8764 H 840.405 -4.09785 2.64438 0
M  V30 8765 H 839.41 -2.94708 4.64141 0
M  V30 8766 H 840.635 -3.70301 5.69258 0
M  V30 8767 H 838.581 -5.1901 4.01204 0
M  V30 8768 H 838.498 -4.93775 5.72471 0
M  V30 8769 H 839.766 -5.92629 5.06371 0
M  V30 8770 N 843.995 -1.47404 -0.557645 0
M  V30 8771 C 844.927 -1.55917 -1.67995 0
M  V30 8772 C 845.94 -0.445411 -1.56588 0
M  V30 8773 O 847.129 -0.714999 -1.63554 0
M  V30 8774 C 844.229 -1.44697 -3.06457 0
M  V30 8775 C 843.402 -2.70633 -3.43622 0
M  V30 8776 C 842.461 -2.53256 -4.61246 0
M  V30 8777 O 841.487 -3.27068 -4.65849 0
M  V30 8778 N 842.689 -1.61053 -5.57711 0
M  V30 8779 H 845.454 -2.52694 -1.61139 0
M  V30 8780 H 843.015 -1.43778 -0.744271 0
M  V30 8781 H 845.007 -1.30806 -3.82978 0
M  V30 8782 H 843.577 -0.560039 -3.07542 0
M  V30 8783 H 842.797 -2.99288 -2.56555 0
M  V30 8784 H 844.085 -3.5424 -3.65228 0
M  V30 8785 H 843.483 -1.00235 -5.56749 0
M  V30 8786 H 842.04 -1.53115 -6.33561 0
M  V30 8787 N 845.473 0.80434 -1.35529 0
M  V30 8788 C 846.889 1.10023 -1.15616 0
M  V30 8789 C 847.089 2.01478 0.0298535 0
M  V30 8790 O 846.145 2.42609 0.699778 0
M  V30 8791 C 847.458 1.72905 -2.46017 0
M  V30 8792 C 849.006 1.85315 -2.52245 0
M  V30 8793 C 849.481 2.51612 -3.82695 0
M  V30 8794 N 850.972 2.59095 -3.83958 0
M  V30 8795 C 851.707 3.11167 -4.81625 0
M  V30 8796 N 851.203 3.63659 -5.89681 0
M  V30 8797 N 852.996 3.09741 -4.6906 0
M  V30 8798 H 845.147 0.196428 -2.1149 0
M  V30 8799 H 847.41 0.149735 -0.9361 0
M  V30 8800 H 847.116 1.13171 -3.32994 0
M  V30 8801 H 846.99 2.72579 -2.6073 0
M  V30 8802 H 849.377 2.44191 -1.65695 0
M  V30 8803 H 849.458 0.844886 -2.41444 0
M  V30 8804 H 849.102 1.93385 -4.69643 0
M  V30 8805 H 849.032 3.5298 -3.90785 0
M  V30 8806 H 851.523 2.21908 -3.05884 0
M  V30 8807 H 851.836 4.01699 -6.60195 0
M  V30 8808 H 850.181 3.61852 -5.9337 0
M  V30 8809 H 853.372 2.68011 -3.83781 0
M  V30 8810 H 853.545 3.50016 -5.45338 0
M  V30 8811 N 846.951 1.19563 1.02676 0
M  V30 8812 C 848.181 1.0234 1.79472 0
M  V30 8813 C 848.589 -0.430891 1.84228 0
M  V30 8814 O 847.932 -1.31106 1.28674 0
M  V30 8815 C 847.994 1.51901 3.25832 0
M  V30 8816 C 847.658 3.00045 3.44706 0
M  V30 8817 C 848.655 3.9779 3.34752 0
M  V30 8818 C 846.34 3.38784 3.70851 0
M  V30 8819 C 848.334 5.32267 3.50672 0
M  V30 8820 C 846.021 4.73419 3.86416 0
M  V30 8821 C 847.019 5.69969 3.7633 0
M  V30 8822 O 846.707 7.02165 3.91432 0
M  V30 8823 H 846.439 0.360936 0.571578 0
M  V30 8824 H 848.993 1.58863 1.30198 0
M  V30 8825 H 847.223 0.897546 3.7614 0
M  V30 8826 H 848.912 1.30853 3.84229 0
M  V30 8827 H 849.678 3.69207 3.14502 0
M  V30 8828 H 845.557 2.64183 3.77794 0
M  V30 8829 H 849.101 6.07612 3.42715 0
M  V30 8830 H 844.998 5.01697 4.06165 0
M  V30 8831 H 845.766 7.09268 4.08511 0
M  V30 8832 N 848.429 -1.21819 0.999893 0
M  V30 8833 C 849.339 -2.27691 0.565159 0
M  V30 8834 C 850.355 -1.69587 -0.389398 0
M  V30 8835 O 851.531 -1.99786 -0.254499 0
M  V30 8836 C 848.596 -3.46537 -0.106432 0
M  V30 8837 C 847.657 -4.19932 0.891964 0
M  V30 8838 C 846.89 -5.33103 0.252327 0
M  V30 8839 O 847.113 -5.62398 -0.952103 0
M  V30 8840 O 846.047 -5.94184 0.960698 0
M  V30 8841 H 849.873 -2.67059 1.44613 0
M  V30 8842 H 847.458 -1.28119 0.768499 0
M  V30 8843 H 849.34 -4.18631 -0.482301 0
M  V30 8844 H 848.015 -3.09079 -0.961865 0
M  V30 8845 H 846.922 -3.5008 1.3189 0
M  V30 8846 H 848.255 -4.61287 1.71682 0
M  V30 8847 N 849.908 -0.773975 -1.37286 0
M  V30 8848 C 850.871 -0.167974 -2.28584 0
M  V30 8849 C 851.871 0.625662 -1.48129 0
M  V30 8850 O 853.061 0.448924 -1.68316 0
M  V30 8851 C 850.193 0.769364 -3.32105 0
M  V30 8852 H 851.386 -0.972806 -2.83684 0
M  V30 8853 H 848.939 -0.542335 -1.46589 0
M  V30 8854 H 849.674 1.59912 -2.82132 0
M  V30 8855 H 849.459 0.202419 -3.91577 0
M  V30 8856 H 850.949 1.18872 -4.00324 0
M  V30 8857 N 851.386 1.48609 -0.524698 0
M  V30 8858 C 852.318 2.27508 0.278 0
M  V30 8859 C 853.331 1.35042 0.909258 0
M  V30 8860 O 854.52 1.60136 0.788592 0
M  V30 8861 C 851.62 3.08247 1.40843 0
M  V30 8862 C 850.793 4.28455 0.880083 0
M  V30 8863 C 849.852 4.91048 1.891 0
M  V30 8864 O 848.878 5.5042 1.45005 0
M  V30 8865 N 850.08 4.82816 3.22288 0
M  V30 8866 H 852.845 2.97037 -0.398642 0
M  V30 8867 H 850.406 1.57876 -0.358698 0
M  V30 8868 H 852.398 3.46992 2.08276 0
M  V30 8869 H 850.968 2.41173 1.98883 0
M  V30 8870 H 850.188 3.94189 0.0299228 0
M  V30 8871 H 851.476 5.06279 0.505881 0
M  V30 8872 H 850.874 4.3572 3.60783 0
M  V30 8873 H 849.431 5.25676 3.85368 0
M  V30 8874 N 852.864 0.259585 1.55447 0
M  V30 8875 C 854.141 -0.412595 1.91199 0
M  V30 8876 C 854.521 -1.74909 1.18194 0
M  V30 8877 O 853.869 -2.26474 0.303603 0
M  V30 8878 C 854.079 -0.568195 3.44344 0
M  V30 8879 C 855.427 -0.858253 4.15836 0
M  V30 8880 O 856.451 -0.653588 3.50152 0
M  V30 8881 O 855.31 -1.24874 5.32042 0
M  V30 8882 H 852.404 -0.223403 0.796254 0
M  V30 8883 H 854.95 0.30459 1.66944 0
M  V30 8884 H 853.722 0.372989 3.89518 0
M  V30 8885 H 853.345 -1.33544 3.74502 0
M  V30 8886 N 854.342 -1.57594 -0.0133615 0
M  V30 8887 C 855.272 -2.10611 -1.00823 0
M  V30 8888 C 856.253 -1.01217 -1.36708 0
M  V30 8889 O 857.438 -1.28827 -1.45318 0
M  V30 8890 C 854.568 -2.59844 -2.30431 0
M  V30 8891 C 853.522 -3.73644 -2.08745 0
M  V30 8892 C 852.848 -4.09141 -3.4425 0
M  V30 8893 C 854.148 -5.01454 -1.46086 0
M  V30 8894 H 855.842 -2.93985 -0.566849 0
M  V30 8895 H 853.388 -1.41423 -0.271219 0
M  V30 8896 H 855.341 -2.95557 -3.00373 0
M  V30 8897 H 854.065 -1.73573 -2.76658 0
M  V30 8898 H 852.724 -3.38303 -1.41232 0
M  V30 8899 H 852.372 -3.19914 -3.88155 0
M  V30 8900 H 852.072 -4.85802 -3.3056 0
M  V30 8901 H 853.596 -4.47402 -4.15528 0
M  V30 8902 H 855.01 -5.35024 -2.05966 0
M  V30 8903 H 853.407 -5.82832 -1.42924 0
M  V30 8904 H 854.477 -4.83003 -0.428471 0
M  V30 8905 N 855.82 0.285905 -1.54985 0
M  V30 8906 C 856.752 1.37505 -1.83371 0
M  V30 8907 C 857.765 1.46138 -0.717454 0
M  V30 8908 O 858.954 1.48186 -0.995142 0
M  V30 8909 C 856.054 2.7575 -1.97016 0
M  V30 8910 C 855.227 2.89866 -3.27561 0
M  V30 8911 C 854.286 4.08704 -3.31433 0
M  V30 8912 O 853.312 4.00073 -4.04883 0
M  V30 8913 N 854.514 5.20062 -2.57907 0
M  V30 8914 H 857.279 1.13505 -2.77375 0
M  V30 8915 H 854.84 0.476006 -1.54744 0
M  V30 8916 H 856.832 3.5352 -1.96991 0
M  V30 8917 H 855.402 2.9263 -1.09938 0
M  V30 8918 H 854.622 1.99085 -3.40234 0
M  V30 8919 H 855.91 2.96219 -4.13681 0
M  V30 8920 H 855.308 5.29958 -1.97891 0
M  V30 8921 H 853.865 5.96111 -2.63619 0
M  V30 8922 N 857.298 1.47698 0.54982 0
M  V30 8923 C 858.709 1.48474 1.13191 0
M  V30 8924 C 859.06 0.243504 1.94683 0
M  V30 8925 O 858.185 -0.651009 2.06375 0
M  V30 8926 C 858.78 2.69022 2.05944 0
M  V30 8927 C 857.339 2.72733 2.5941 0
M  V30 8928 C 856.486 2.41691 1.35944 0
M  V30 8929 H 859.437 1.55101 0.336048 0
M  V30 8930 H 859.458 2.46412 2.89934 0
M  V30 8931 H 858.97 3.59345 1.46605 0
M  V30 8932 H 857.071 1.86568 3.22526 0
M  V30 8933 H 857.184 3.73628 2.99899 0
M  V30 8934 H 855.548 1.92428 1.66864 0
M  V30 8935 H 856.331 3.34231 0.783869 0
M  V30 8936 N 858.776 -0.797141 1.35954 0
M  V30 8937 C 859.706 -1.92387 1.32323 0
M  V30 8938 C 860.687 -1.68967 0.196007 0
M  V30 8939 O 861.872 -1.90193 0.39245 0
M  V30 8940 C 859.002 -3.29286 1.10398 0
M  V30 8941 C 857.956 -3.67212 2.19862 0
M  V30 8942 C 857.282 -5.02377 1.8309 0
M  V30 8943 C 858.582 -3.76602 3.61896 0
M  V30 8944 H 860.276 -1.95683 2.26602 0
M  V30 8945 H 857.822 -0.94007 1.09081 0
M  V30 8946 H 859.775 -4.07721 1.06495 0
M  V30 8947 H 858.499 -3.26358 0.125668 0
M  V30 8948 H 857.158 -2.91069 2.22878 0
M  V30 8949 H 856.806 -4.95961 0.838527 0
M  V30 8950 H 856.506 -5.28722 2.56372 0
M  V30 8951 H 858.03 -5.8324 1.80729 0
M  V30 8952 H 859.444 -4.45246 3.6115 0
M  V30 8953 H 857.841 -4.14425 4.34018 0
M  V30 8954 H 858.911 -2.77906 3.97361 0
M  V30 8955 N 860.254 -1.20106 -1.0204 0
M  V30 8956 C 861.479 -1.0351 -1.79723 0
M  V30 8957 C 861.904 0.411328 -1.83548 0
M  V30 8958 O 861.262 1.29608 -1.26773 0
M  V30 8959 C 861.31 -1.61876 -3.22224 0
M  V30 8960 O 860.414 -0.853813 -4.03465 0
M  V30 8961 H 859.755 -0.365299 -0.554484 0
M  V30 8962 H 862.285 -1.59316 -1.28373 0
M  V30 8963 H 862.295 -1.65451 -3.72948 0
M  V30 8964 H 860.97 -2.67148 -3.18755 0
M  V30 8965 H 859.547 -0.891983 -3.62075 0
M  V30 8966 N 861.732 1.21287 -1.00634 0
M  V30 8967 C 862.96 1.94385 -0.708678 0
M  V30 8968 C 863.375 1.7416 0.728957 0
M  V30 8969 O 862.732 1.04906 1.49335 0
M  V30 8970 C 862.783 3.46755 -1.02193 0
M  V30 8971 O 862.504 3.6631 -2.40309 0
M  V30 8972 C 864.005 4.37014 -0.743867 0
M  V30 8973 H 861.225 0.618136 -0.261052 0
M  V30 8974 H 863.769 1.54067 -1.34475 0
M  V30 8975 H 861.924 3.8499 -0.431441 0
M  V30 8976 H 862.338 4.60393 -2.51274 0
M  V30 8977 H 863.812 5.42621 -1.01321 0
M  V30 8978 H 864.289 4.38017 0.322084 0
M  V30 8979 H 864.895 4.04426 -1.31603 0
M  V30 8980 N 863.21 0.781244 1.36873 0
M  V30 8981 C 864.44 0.361042 2.03421 0
M  V30 8982 C 864.848 -1.02471 1.59048 0
M  V30 8983 O 864.191 -1.66712 0.771552 0
M  V30 8984 C 864.253 0.336202 3.57924 0
M  V30 8985 C 863.917 1.66815 4.25467 0
M  V30 8986 C 864.914 2.62224 4.48926 0
M  V30 8987 C 862.599 1.9452 4.63106 0
M  V30 8988 C 864.593 3.83538 5.09095 0
M  V30 8989 C 862.28 3.16103 5.22994 0
M  V30 8990 C 863.278 4.10431 5.45926 0
M  V30 8991 O 862.966 5.29871 6.04559 0
M  V30 8992 H 862.698 0.147956 0.65961 0
M  V30 8993 H 865.252 1.05895 1.75998 0
M  V30 8994 H 863.482 -0.418147 3.84433 0
M  V30 8995 H 865.171 -0.0582199 4.05858 0
M  V30 8996 H 865.937 2.42104 4.20251 0
M  V30 8997 H 861.816 1.21921 4.44585 0
M  V30 8998 H 865.36 4.57178 5.2691 0
M  V30 8999 H 861.257 3.36104 5.51094 0
M  V30 9000 H 862.025 5.30825 6.23031 0
M  V30 9001 N 864.689 -1.48329 0.532571 0
M  V30 9002 C 865.619 -2.32485 -0.217511 0
M  V30 9003 C 866.6 -1.42255 -0.932598 0
M  V30 9004 O 867.785 -1.7114 -0.917873 0
M  V30 9005 C 864.915 -3.23509 -1.26329 0
M  V30 9006 C 863.869 -4.22784 -0.666191 0
M  V30 9007 C 863.195 -5.0296 -1.81482 0
M  V30 9008 C 864.495 -5.21031 0.363813 0
M  V30 9009 H 866.189 -2.95445 0.485014 0
M  V30 9010 H 863.735 -1.42075 0.234694 0
M  V30 9011 H 865.688 -3.81211 -1.79601 0
M  V30 9012 H 864.412 -2.58554 -1.99543 0
M  V30 9013 H 863.071 -3.66272 -0.15498 0
M  V30 9014 H 862.719 -4.34427 -2.5354 0
M  V30 9015 H 862.419 -5.70154 -1.4212 0
M  V30 9016 H 863.943 -5.63514 -2.35126 0
M  V30 9017 H 865.357 -5.73241 -0.0819079 0
M  V30 9018 H 863.754 -5.96292 0.674956 0
M  V30 9019 H 864.824 -4.6801 1.26865 0
M  V30 9020 N 866.167 -0.267825 -1.55308 0
M  V30 9021 C 867.114 0.6228 -2.22238 0
M  V30 9022 C 868.084 1.15536 -1.19334 0
M  V30 9023 O 869.269 1.206 -1.47852 0
M  V30 9024 C 866.409 1.80447 -2.94164 0
M  V30 9025 C 865.522 1.30646 -4.11771 0
M  V30 9026 C 864.657 2.44935 -4.7136 0
M  V30 9027 C 863.696 1.92099 -5.81175 0
M  V30 9028 N 862.833 2.99834 -6.34857 0
M  V30 9029 H 867.673 0.0453874 -2.97965 0
M  V30 9030 H 865.21 0.0106371 -1.47096 0
M  V30 9031 H 867.168 2.49896 -3.34078 0
M  V30 9032 H 865.798 2.35403 -2.20874 0
M  V30 9033 H 864.85 0.505314 -3.77029 0
M  V30 9034 H 866.162 0.879409 -4.90987 0
M  V30 9035 H 865.316 3.2239 -5.13955 0
M  V30 9036 H 864.055 2.90951 -3.91406 0
M  V30 9037 H 863.06 1.13122 -5.38037 0
M  V30 9038 H 864.285 1.47027 -6.62993 0
M  V30 9039 H 862.231 3.45246 -5.578 0
M  V30 9040 H 862.148 2.61524 -7.09324 0
M  V30 9041 H 863.416 3.77286 -6.82111 0
M  V30 9042 N 867.645 1.57599 0.00500368 0
M  V30 9043 C 868.577 2.04949 1.02609 0
M  V30 9044 C 869.59 0.966507 1.31006 0
M  V30 9045 O 870.779 1.2434 1.2807 0
M  V30 9046 C 867.879 2.43023 2.36206 0
M  V30 9047 C 867.052 3.73993 2.26821 0
M  V30 9048 C 866.111 3.9899 3.43065 0
M  V30 9049 O 865.137 4.69725 3.21477 0
M  V30 9050 N 866.339 3.46496 4.65748 0
M  V30 9051 H 869.104 2.93167 0.622336 0
M  V30 9052 H 866.665 1.60752 0.192488 0
M  V30 9053 H 868.657 2.56863 3.12735 0
M  V30 9054 H 867.227 1.60349 2.68341 0
M  V30 9055 H 866.447 3.70277 1.35235 0
M  V30 9056 H 867.735 4.59865 2.17719 0
M  V30 9057 H 867.133 2.89206 4.86186 0
M  V30 9058 H 865.69 3.65675 5.3956 0
M  V30 9059 N 869.123 -0.277682 1.55134 0
M  V30 9060 C 870.37 -1.0099 1.7552 0
M  V30 9061 C 870.698 -1.86452 0.553712 0
M  V30 9062 O 869.953 -1.90122 -0.463896 0
M  V30 9063 C 870.252 -1.92599 3.01065 0
M  V30 9064 C 869.918 -1.22926 4.3382 0
M  V30 9065 C 868.58 -1.03659 4.69902 0
M  V30 9066 C 870.932 -0.733071 5.16019 0
M  V30 9067 C 868.26 -0.334933 5.85743 0
M  V30 9068 C 870.612 -0.0450319 6.32584 0
M  V30 9069 C 869.276 0.159393 6.6731 0
M  V30 9070 H 868.546 -0.36955 0.642273 0
M  V30 9071 H 871.193 -0.282611 1.89403 0
M  V30 9072 H 869.498 -2.71934 2.82062 0
M  V30 9073 H 871.195 -2.49367 3.14034 0
M  V30 9074 H 867.785 -1.38933 4.05457 0
M  V30 9075 H 871.969 -0.869565 4.88623 0
M  V30 9076 H 867.225 -0.165783 6.11175 0
M  V30 9077 H 871.399 0.34723 6.95534 0
M  V30 9078 H 869.026 0.70507 7.56923 0
M  V30 9079 N 870.601 -1.47988 -0.541979 0
M  V30 9080 C 871.849 -1.55086 -1.29587 0
M  V30 9081 C 872.17 -0.221304 -1.9374 0
M  V30 9082 O 871.44 0.756128 -1.80719 0
M  V30 9083 H 870.02 -0.571307 -0.481266 0
M  V30 9084 H 872.682 -1.8438 -0.631675 0
M  V30 9085 H 871.778 -2.32556 -2.08144 0
M  V30 9086 N 872.079 0.78992 -1.36375 0
M  V30 9087 C 873.009 1.91683 -1.33341 0
M  V30 9088 C 873.99 1.68861 -0.204965 0
M  V30 9089 O 875.175 1.89982 -0.402531 0
M  V30 9090 C 872.305 3.28696 -1.12143 0
M  V30 9091 C 871.259 3.66041 -2.21806 0
M  V30 9092 C 870.585 5.01399 -1.85751 0
M  V30 9093 C 871.885 3.74677 -3.63888 0
M  V30 9094 H 873.579 1.94478 -2.27637 0
M  V30 9095 H 871.125 0.934271 -1.09578 0
M  V30 9096 H 873.078 4.07151 -1.08656 0
M  V30 9097 H 871.802 3.26287 -0.142974 0
M  V30 9098 H 870.461 2.89883 -2.24418 0
M  V30 9099 H 870.109 4.9551 -0.864817 0
M  V30 9100 H 869.809 5.27355 -2.59173 0
M  V30 9101 H 871.333 5.82274 -1.83819 0
M  V30 9102 H 872.747 4.43324 -3.63506 0
M  V30 9103 H 871.144 4.12118 -4.3621 0
M  V30 9104 H 872.214 2.75795 -3.9883 0
M  V30 9105 N 873.557 1.20646 1.01402 0
M  V30 9106 C 874.834 0.927176 1.72229 0
M  V30 9107 C 875.214 -0.563382 2.03443 0
M  V30 9108 O 874.562 -1.52576 1.70096 0
M  V30 9109 C 874.772 1.80285 2.98828 0
M  V30 9110 C 876.12 2.04624 3.72041 0
M  V30 9111 O 877.144 1.77559 3.0879 0
M  V30 9112 O 876.003 2.50347 4.85787 0
M  V30 9113 H 873.097 0.346891 0.75073 0
M  V30 9114 H 875.643 1.31532 1.07227 0
M  V30 9115 H 874.415 2.81204 2.72102 0
M  V30 9116 H 874.038 1.41495 3.71571 0
M  V30 9117 N 875.035 -1.20752 1.01276 0
M  V30 9118 C 876.312 -1.85676 0.615112 0
M  V30 9119 C 876.692 -1.90623 -0.906976 0
M  V30 9120 O 876.04 -1.41124 -1.79712 0
M  V30 9121 C 876.25 -3.2552 1.25847 0
M  V30 9122 C 877.598 -4.0184 1.37148 0
M  V30 9123 O 878.622 -3.3486 1.21438 0
M  V30 9124 O 877.481 -5.21783 1.62495 0
M  V30 9125 H 874.575 -0.799437 0.211729 0
M  V30 9126 H 877.121 -1.28372 1.10989 0
M  V30 9127 H 875.893 -3.16664 2.29869 0
M  V30 9128 H 875.516 -3.90452 0.750524 0
M  V30 9129 N 876.513 -0.788492 -1.36457 0
M  V30 9130 C 877.443 -0.200468 -2.32638 0
M  V30 9131 C 878.424 0.664031 -1.56603 0
M  V30 9132 O 879.609 0.598045 -1.84762 0
M  V30 9133 C 876.739 0.666274 -3.40849 0
M  V30 9134 C 875.693 -0.0982574 -4.27887 0
M  V30 9135 C 875.019 0.889018 -5.27258 0
M  V30 9136 C 876.319 -1.28692 -5.06197 0
M  V30 9137 H 878.013 -1.00399 -2.82065 0
M  V30 9138 H 875.559 -0.484237 -1.35614 0
M  V30 9139 H 877.512 1.08757 -4.07124 0
M  V30 9140 H 876.236 1.50249 -2.89987 0
M  V30 9141 H 874.895 -0.500525 -3.63167 0
M  V30 9142 H 874.543 1.72024 -4.7267 0
M  V30 9143 H 874.243 0.381909 -5.86358 0
M  V30 9144 H 875.767 1.30891 -5.96406 0
M  V30 9145 H 877.181 -0.941429 -5.65517 0
M  V30 9146 H 875.578 -1.72726 -5.74705 0
M  V30 9147 H 876.648 -2.08273 -4.37893 0
M  V30 9148 N 877.991 1.48044 -0.54043 0
M  V30 9149 C 878.923 2.2779 0.253854 0
M  V30 9150 C 879.936 1.35999 0.894883 0
M  V30 9151 O 881.125 1.60963 0.771563 0
M  V30 9152 C 878.225 3.09724 1.37566 0
M  V30 9153 C 877.398 4.29364 0.83459 0
M  V30 9154 C 876.457 4.93026 1.83881 0
M  V30 9155 O 875.483 5.51927 1.39159 0
M  V30 9156 N 876.685 4.86207 3.17149 0
M  V30 9157 H 879.45 2.96597 -0.430125 0
M  V30 9158 H 877.011 1.57487 -0.375423 0
M  V30 9159 H 879.003 3.49181 2.04584 0
M  V30 9160 H 877.573 2.43269 1.96314 0
M  V30 9161 H 876.793 3.94198 -0.0118878 0
M  V30 9162 H 878.081 5.06787 0.452155 0
M  V30 9163 H 877.479 4.39523 3.56141 0
M  V30 9164 H 876.036 5.29733 3.79771 0
M  V30 9165 N 879.47 0.276058 1.55163 0
M  V30 9166 C 880.42 -0.625549 2.19251 0
M  V30 9167 C 881.404 -1.11769 1.15744 0
M  V30 9168 O 882.596 -1.0626 1.41555 0
M  V30 9169 C 879.725 -1.80879 2.91784 0
M  V30 9170 C 878.811 -1.33379 4.0258 0
M  V30 9171 N 879.202 -0.575002 5.02521 0
M  V30 9172 C 877.5 -1.61666 4.15668 0
M  V30 9173 C 878.201 -0.325164 5.8079 0
M  V30 9174 N 877.177 -0.897851 5.36134 0
M  V30 9175 H 880.979 -0.0379943 2.93875 0
M  V30 9176 H 878.493 0.079661 1.62205 0
M  V30 9177 H 880.49 -2.466 3.36146 0
M  V30 9178 H 879.15 -2.40028 2.1867 0
M  V30 9179 H 880.161 -0.222256 5.17423 0
M  V30 9180 H 876.838 -2.21745 3.53745 0
M  V30 9181 H 878.228 0.282598 6.71305 0
M  V30 9182 N 880.948 -1.576 0.00335426 0
M  V30 9183 C 881.88 -2.0549 -1.01521 0
M  V30 9184 C 882.893 -0.973441 -1.30491 0
M  V30 9185 O 884.082 -1.25017 -1.27409 0
M  V30 9186 C 881.182 -2.44272 -2.34914 0
M  V30 9187 C 880.355 -3.75191 -2.24835 0
M  V30 9188 C 879.414 -4.00804 -3.40944 0
M  V30 9189 O 878.44 -4.71423 -3.18981 0
M  V30 9190 N 879.642 -3.48961 -4.63904 0
M  V30 9191 H 882.407 -2.93493 -0.60678 0
M  V30 9192 H 879.968 -1.60851 -0.18396 0
M  V30 9193 H 881.96 -2.58518 -3.11369 0
M  V30 9194 H 880.53 -1.6177 -2.67487 0
M  V30 9195 H 879.75 -3.70989 -1.3327 0
M  V30 9196 H 881.038 -4.61013 -2.15277 0
M  V30 9197 H 880.436 -2.9178 -4.84645 0
M  V30 9198 H 878.993 -3.68531 -5.37613 0
M  V30 9199 N 882.426 0.269451 -1.5528 0
M  V30 9200 C 883.675 0.998381 -1.75258 0
M  V30 9201 C 883.988 1.87321 -0.563034 0
M  V30 9202 O 885.194 2.63719 -0.645313 0
M  V30 9203 C 883.65 1.82505 -3.10193 0
M  V30 9204 C 883.258 0.99871 -4.36726 0
M  V30 9205 C 885.002 2.54807 -3.3952 0
M  V30 9206 C 882.909 1.81997 -5.627 0
M  V30 9207 H 881.839 0.376488 -0.653278 0
M  V30 9208 H 884.49 0.253909 -1.81735 0
M  V30 9209 H 882.872 2.61061 -2.97763 0
M  V30 9210 H 884.046 0.257064 -4.60082 0
M  V30 9211 H 882.361 0.390074 -4.14569 0
M  V30 9212 H 884.958 3.16662 -4.30847 0
M  V30 9213 H 885.301 3.25273 -2.59813 0
M  V30 9214 H 885.834 1.83278 -3.53064 0
M  V30 9215 H 882.573 1.15945 -6.45164 0
M  V30 9216 H 882.093 2.53749 -5.43481 0
M  V30 9217 H 883.772 2.39274 -6.0113 0
M  V30 9218 N 883.904 1.48273 0.534124 0
M  V30 9219 C 885.152 1.55771 1.28762 0
M  V30 9220 C 885.473 0.231575 1.9362 0
M  V30 9221 O 884.743 -0.746533 1.81118 0
M  V30 9222 H 883.323 0.573851 0.47823 0
M  V30 9223 H 885.985 1.84712 0.621888 0
M  V30 9224 H 885.081 2.33657 2.06908 0
M  V30 9225 N 885.382 -0.782676 1.36792 0
M  V30 9226 C 886.314 -1.9044 1.27536 0
M  V30 9227 C 887.327 -1.61647 0.193426 0
M  V30 9228 O 888.516 -1.72769 0.448692 0
M  V30 9229 C 885.616 -3.2541 0.946641 0
M  V30 9230 C 884.789 -3.81932 2.13183 0
M  V30 9231 C 883.848 -4.95355 1.7751 0
M  V30 9232 O 882.874 -5.11517 2.49678 0
M  V30 9233 N 884.076 -5.76108 0.712755 0
M  V30 9234 H 886.841 -1.98899 2.24186 0
M  V30 9235 H 884.402 -0.96127 1.30274 0
M  V30 9236 H 886.394 -3.98791 0.689043 0
M  V30 9237 H 884.964 -3.12524 0.0690591 0
M  V30 9238 H 884.184 -3.00459 2.55183 0
M  V30 9239 H 885.472 -4.16426 2.92347 0
M  V30 9240 H 884.87 -5.65586 0.113662 0
M  V30 9241 H 883.427 -6.49762 0.514995 0
M  V30 9242 N 886.86 -1.21182 -1.00761 0
M  V30 9243 C 888.108 -1.02543 -1.74153 0
M  V30 9244 C 888.429 0.442372 -1.89916 0
M  V30 9245 O 887.699 1.31927 -1.44818 0
M  V30 9246 H 886.279 -0.37644 -0.645214 0
M  V30 9247 H 888.941 -1.52446 -1.21434 0
M  V30 9248 H 888.037 -1.49122 -2.7417 0
M  V30 9249 N 888.338 1.20213 -1.01915 0
M  V30 9250 C 889.586 1.89272 -0.708552 0
M  V30 9251 C 889.907 1.79394 0.76438 0
M  V30 9252 O 889.177 1.198 1.54999 0
M  V30 9253 H 887.757 0.700628 -0.259094 0
M  V30 9254 H 890.419 1.45985 -1.29129 0
M  V30 9255 H 889.515 2.95841 -0.994215 0
M  V30 9256 N 889.816 0.795718 1.36037 0
M  V30 9257 C 891.063 0.371024 1.99072 0
M  V30 9258 C 891.391 -1.05896 1.63145 0
M  V30 9259 O 890.646 -1.7474 0.881163 0
M  V30 9260 C 890.945 0.489038 3.54038 0
M  V30 9261 C 890.611 1.88075 4.09803 0
M  V30 9262 C 889.273 2.26152 4.24745 0
M  V30 9263 C 891.625 2.79174 4.40126 0
M  V30 9264 C 888.953 3.54718 4.67324 0
M  V30 9265 C 891.305 4.07175 4.8414 0
M  V30 9266 C 889.969 4.45266 4.97287 0
M  V30 9267 H 889.239 0.135767 0.728456 0
M  V30 9268 H 891.886 1.0144 1.62426 0
M  V30 9269 H 890.191 -0.237823 3.91078 0
M  V30 9270 H 891.888 0.141374 4.00751 0
M  V30 9271 H 888.478 1.57488 3.98617 0
M  V30 9272 H 892.662 2.51009 4.28145 0
M  V30 9273 H 887.918 3.84093 4.75691 0
M  V30 9274 H 892.092 4.77875 5.06565 0
M  V30 9275 H 889.719 5.44943 5.30038 0
M  V30 9276 O 891.333 -1.46044 0.689439 0
M  V30 9277 H 892.024 -1.92374 0.226226 0
M  V30 END ATOM
M  V30 BEGIN BOND
M  V30 END BOND
M  V30 END CTAB
M  END
$$$$
