drugbank_target|P37062 NADH peroxidase (DB03147; DB03382)
 OpenBabel12092120233D

  0  0  0     0  0            999 V3000
M  V30 BEGIN CTAB
M  V30 COUNTS 6983 7047 0 0 0
M  V30 BEGIN ATOM
M  V30 1 H -0.908 1.98254 -0.117106 0
M  V30 2 N 0 1.576 0 0
M  V30 3 C 0.933 2.03868 1.02534 0
M  V30 4 C 1.911 0.928543 1.3348 0
M  V30 5 O 3.095 1.19667 1.45644 0
M  V30 6 C 0.222 2.43627 2.35294 0
M  V30 7 C -0.732 3.65373 2.2001 0
M  V30 8 S 0.101 5.13292 1.52614 0
M  V30 9 C 1.257 5.56322 2.86805 0
M  V30 10 H 1.49 2.90518 0.631377 0
M  V30 11 H -0.977 1.52953 0.210867 0
M  V30 12 H 0.981 2.67203 3.11629 0
M  V30 13 H -0.358 1.57376 2.7183 0
M  V30 14 H -1.165 3.90944 3.18086 0
M  V30 15 H -1.563 3.418 1.51819 0
M  V30 16 H 0.729 5.58782 3.83104 0
M  V30 17 H 1.672 6.56266 2.65933 0
M  V30 18 H 2.08 4.83886 2.90714 0
M  V30 19 N 1.4781 -0.272755 1.55222 0
M  V30 20 C 2.4251 -1.33716 1.88119 0
M  V30 21 C 3.3951 -1.49066 0.73271 0
M  V30 22 O 4.5801 -1.63469 0.984002 0
M  V30 23 C 1.7201 -2.69238 2.15882 0
M  V30 24 C 0.8331 -2.62108 3.43399 0
M  V30 25 C -0.0319 -3.89811 3.60861 0
M  V30 26 C -0.9929 -3.77193 4.8207 0
M  V30 27 N -1.8559 -4.9673 4.96189 0
M  V30 28 H 2.9841 -1.04962 2.78903 0
M  V30 29 H 0.5211 -0.507088 1.38083 0
M  V30 30 H 2.4791 -3.48089 2.29978 0
M  V30 31 H 1.1091 -2.96194 1.28331 0
M  V30 32 H 0.1611 -1.74967 3.37773 0
M  V30 33 H 1.4731 -2.48685 4.32386 0
M  V30 34 H 0.6271 -4.77103 3.74777 0
M  V30 35 H -0.6339 -4.06102 2.7006 0
M  V30 36 H -1.6289 -2.88284 4.68159 0
M  V30 37 H -0.4039 -3.62421 5.74307 0
M  V30 38 H -2.4579 -5.13431 4.08319 0
M  V30 39 H -2.5409 -4.85839 5.79221 0
M  V30 40 H -1.2729 -5.85594 5.1449 0
M  V30 41 N 2.9562 -1.48159 -0.537278 0
M  V30 42 C 4.2022 -1.56035 -1.29541 0
M  V30 43 C 4.5352 -0.230377 -1.92829 0
M  V30 44 O 3.8102 0.762952 -1.78911 0
M  V30 45 C 4.0932 -2.69323 -2.39034 0
M  V30 46 C 3.9462 -4.12002 -1.80485 0
M  V30 47 C 5.2652 -2.78408 -3.40847 0
M  V30 48 H 2.3842 -0.567992 -0.469632 0
M  V30 49 H 5.0262 -1.80302 -0.599277 0
M  V30 50 H 3.1762 -2.48763 -2.98412 0
M  V30 51 H 4.8482 -4.43981 -1.25215 0
M  V30 52 H 3.0912 -4.19344 -1.11055 0
M  V30 53 H 3.7622 -4.87077 -2.59731 0
M  V30 54 H 6.2382 -2.97012 -2.91416 0
M  V30 55 H 5.1142 -3.59416 -4.14863 0
M  V30 56 H 5.3752 -1.86269 -4.00944 0
M  V30 57 N 4.4343 0.785586 -1.36625 0
M  V30 58 C 5.6833 1.53883 -1.30396 0
M  V30 59 C 5.9963 1.95271 0.113452 0
M  V30 60 O 7.2023 2.69858 0.298142 0
M  V30 61 C 5.6583 2.77808 -2.28802 0
M  V30 62 C 5.2663 2.43574 -3.75999 0
M  V30 63 C 7.0103 3.55783 -2.31558 0
M  V30 64 C 4.9173 3.63919 -4.66173 0
M  V30 65 H 3.8473 0.577678 -0.484566 0
M  V30 66 H 6.4983 0.861705 -1.62009 0
M  V30 67 H 4.8803 3.47339 -1.90188 0
M  V30 68 H 6.0543 1.81916 -4.23371 0
M  V30 69 H 4.3693 1.78803 -3.76056 0
M  V30 70 H 6.9663 4.45205 -2.96137 0
M  V30 71 H 7.3093 3.94644 -1.3252 0
M  V30 72 H 7.8423 2.93235 -2.68809 0
M  V30 73 H 4.5813 3.3015 -5.66287 0
M  V30 74 H 4.1013 4.2473 -4.23515 0
M  V30 75 H 5.7803 4.30901 -4.82632 0
M  V30 76 N 5.9124 1.20967 1.01018 0
M  V30 77 C 7.1584 1.02526 1.74975 0
M  V30 78 C 7.4914 -0.4408 1.89131 0
M  V30 79 O 6.7664 -1.32718 1.42184 0
M  V30 80 C 7.0494 1.71699 3.1653 0
M  V30 81 C 6.9024 3.25791 3.10129 0
M  V30 82 C 8.2214 1.45531 4.15342 0
M  V30 83 H 5.3404 0.373863 0.635134 0
M  V30 84 H 7.9824 1.49071 1.17805 0
M  V30 85 H 6.1324 1.32128 3.65341 0
M  V30 86 H 7.8044 3.74697 2.69072 0
M  V30 87 H 6.0474 3.56363 2.47362 0
M  V30 88 H 6.7184 3.69353 4.10222 0
M  V30 89 H 9.1944 1.79872 3.75213 0
M  V30 90 H 8.0704 1.96453 5.1254 0
M  V30 91 H 8.3314 0.384237 4.40427 0
M  V30 92 N 7.3905 -1.2043 1.01659 0
M  V30 93 C 8.3205 -2.25466 0.607226 0
M  V30 94 C 9.3015 -1.65853 -0.377716 0
M  V30 95 O 10.4865 -1.92409 -0.263149 0
M  V30 96 C 7.6165 -3.47256 -0.0552949 0
M  V30 97 C 6.5705 -4.19462 0.850632 0
M  V30 98 C 5.8965 -5.34673 0.0538859 0
M  V30 99 C 7.1965 -4.75603 2.15868 0
M  V30 100 H 8.8905 -2.59962 1.48526 0
M  V30 101 H 6.4365 -1.2496 0.715605 0
M  V30 102 H 8.3895 -4.19917 -0.353233 0
M  V30 103 H 7.1135 -3.11924 -0.968045 0
M  V30 104 H 5.7725 -3.48667 1.13257 0
M  V30 105 H 5.4205 -4.95585 -0.860514 0
M  V30 106 H 5.1205 -5.83913 0.657192 0
M  V30 107 H 6.6445 -6.10138 -0.237598 0
M  V30 108 H 8.0585 -5.40083 1.92311 0
M  V30 109 H 6.4555 -5.3528 2.71284 0
M  V30 110 H 7.5255 -3.94346 2.82169 0
M  V30 111 N 8.8686 -0.792821 -1.36206 0
M  V30 112 C 10.1166 -0.366062 -1.98757 0
M  V30 113 C 10.4376 1.0668 -1.63231 0
M  V30 114 O 9.7076 1.73587 -0.907978 0
M  V30 115 H 8.2876 -0.132364 -0.735179 0
M  V30 116 H 10.9496 -1.01562 -1.66347 0
M  V30 117 H 10.0456 -0.460638 -3.08682 0
M  V30 118 N 10.3467 1.47872 -0.545128 0
M  V30 119 C 11.5717 2.07391 -0.0190611 0
M  V30 120 C 11.9967 1.39688 1.25971 0
M  V30 121 O 11.3547 0.467816 1.7516 0
M  V30 122 C 11.4027 3.60188 0.172335 0
M  V30 123 O 10.5067 3.9339 1.23766 0
M  V30 124 H 9.8477 0.662411 -0.0459059 0
M  V30 125 H 12.3777 1.90066 -0.757365 0
M  V30 126 H 12.3877 4.06129 0.390305 0
M  V30 127 H 11.0627 4.08865 -0.761725 0
M  V30 128 H 9.6397 3.5921 1.00114 0
M  V30 129 N 11.8248 0.280983 1.55075 0
M  V30 130 C 13.0498 -0.340154 2.04592 0
M  V30 131 C 13.4748 -1.48246 1.15779 0
M  V30 132 O 12.8328 -1.80614 0.15761 0
M  V30 133 C 12.8808 -0.793104 3.5177 0
M  V30 134 O 11.9848 -1.89981 3.66034 0
M  V30 135 H 11.3258 -0.0694289 0.66036 0
M  V30 136 H 13.8558 0.416993 2.00306 0
M  V30 137 H 13.8658 -1.08729 3.93245 0
M  V30 138 H 12.5408 0.0426163 4.15878 0
M  V30 139 H 11.1178 -1.60771 3.36463 0
M  V30 140 N 13.3029 -1.57598 0.00835791 0
M  V30 141 C 14.2529 -2.05431 -0.989045 0
M  V30 142 C 15.2369 -0.950662 -1.29812 0
M  V30 143 O 16.4289 -1.21438 -1.28771 0
M  V30 144 C 13.5579 -2.56801 -2.27833 0
M  V30 145 C 12.6439 -3.74058 -1.99853 0
M  V30 146 N 13.0349 -4.8544 -1.42062 0
M  V30 147 C 11.3329 -3.82148 -2.29953 0
M  V30 148 C 12.0339 -5.66817 -1.30743 0
M  V30 149 N 11.0099 -5.13077 -1.7959 0
M  V30 150 H 14.8119 -2.88955 -0.536853 0
M  V30 151 H 12.3259 -1.61199 -0.197148 0
M  V30 152 H 14.3229 -2.89349 -3.00137 0
M  V30 153 H 12.9829 -1.74699 -2.73698 0
M  V30 154 H 13.9939 -5.0612 -1.09833 0
M  V30 155 H 10.6709 -3.10916 -2.78635 0
M  V30 156 H 12.0609 -6.66343 -0.862328 0
M  V30 157 N 14.781 0.264519 -1.55364 0
M  V30 158 C 16.029 0.993021 -1.76021 0
M  V30 159 C 16.35 1.86511 -0.569099 0
M  V30 160 O 15.62 1.91438 0.415735 0
M  V30 161 H 14.2 0.369639 -0.649135 0
M  V30 162 H 16.862 0.286707 -1.9278 0
M  V30 163 H 15.958 1.62502 -2.66457 0
M  V30 164 N 16.2591 1.48442 0.529413 0
M  V30 165 C 17.5071 1.56179 1.28267 0
M  V30 166 C 17.8281 0.237721 1.93546 0
M  V30 167 O 17.0981 -0.740779 1.81354 0
M  V30 168 H 15.6781 0.575367 0.476405 0
M  V30 169 H 18.3401 1.84909 0.61602 0
M  V30 170 H 17.4361 2.34312 2.06165 0
M  V30 171 N 17.7372 -0.778329 1.37039 0
M  V30 172 C 18.9672 -1.56507 1.34868 0
M  V30 173 C 19.3752 -1.89072 -0.0694802 0
M  V30 174 O 18.7182 -1.51434 -1.03987 0
M  V30 175 C 18.7802 -2.90641 2.11585 0
M  V30 176 C 18.4442 -2.80746 3.60598 0
M  V30 177 C 19.4412 -2.52226 4.54618 0
M  V30 178 C 17.1262 -2.98974 4.03633 0
M  V30 179 C 19.1202 -2.42054 5.89651 0
M  V30 180 C 16.8072 -2.88423 5.38754 0
M  V30 181 C 17.8052 -2.60002 6.31576 0
M  V30 182 O 17.4932 -2.49465 7.64214 0
M  V30 183 H 17.2252 -0.491723 0.463879 0
M  V30 184 H 19.7792 -0.973053 1.80889 0
M  V30 185 H 18.0092 -3.51936 1.60243 0
M  V30 186 H 19.6982 -3.51992 2.0213 0
M  V30 187 H 20.4642 -2.37835 4.22681 0
M  V30 188 H 16.3432 -3.20099 3.31749 0
M  V30 189 H 19.8872 -2.19791 6.62071 0
M  V30 190 H 15.7842 -3.0238 5.70295 0
M  V30 191 H 16.5522 -2.64864 7.74461 0
M  V30 192 N 19.2153 -1.21501 -1.00376 0
M  V30 193 C 20.1253 -0.991447 -2.12621 0
M  V30 194 C 21.1413 0.0568446 -1.73907 0
M  V30 195 O 22.3173 -0.13348 -2.00957 0
M  V30 196 C 19.3823 -0.560312 -3.42142 0
M  V30 197 C 18.4433 -1.68096 -3.95022 0
M  V30 198 C 17.6763 -1.2703 -5.18362 0
M  V30 199 O 17.8993 -0.144438 -5.70217 0
M  V30 200 O 16.8333 -2.08269 -5.64719 0
M  V30 201 H 20.6593 -1.93158 -2.34358 0
M  V30 202 H 18.2443 -0.999999 -1.10997 0
M  V30 203 H 20.1263 -0.329724 -4.20108 0
M  V30 204 H 18.8013 0.351089 -3.2179 0
M  V30 205 H 17.7083 -1.96597 -3.18278 0
M  V30 206 H 19.0413 -2.56983 -4.19786 0
M  V30 207 N 20.6934 1.19889 -1.02296 0
M  V30 208 C 21.6564 2.21116 -0.603351 0
M  V30 209 C 22.6564 1.5738 0.329884 0
M  V30 210 O 23.8464 1.73802 0.117702 0
M  V30 211 C 20.9784 3.40696 0.117992 0
M  V30 212 H 22.1714 2.59754 -1.49893 0
M  V30 213 H 19.7244 1.33463 -0.813468 0
M  V30 214 H 20.4594 3.07569 1.0282 0
M  V30 215 H 20.2444 3.88188 -0.552511 0
M  V30 216 H 21.7344 4.15692 0.398696 0
M  V30 217 N 22.1715 0.800033 1.35784 0
M  V30 218 C 23.4175 0.377901 1.99248 0
M  V30 219 C 23.7505 -1.05052 1.63333 0
M  V30 220 O 23.0255 -1.72768 0.893385 0
M  V30 221 C 23.3085 0.553922 3.55814 0
M  V30 222 C 23.1615 2.0268 4.01548 0
M  V30 223 C 24.4805 -0.0244802 4.40093 0
M  V30 224 H 21.5995 0.138782 0.723815 0
M  V30 225 H 24.2415 1.00835 1.61035 0
M  V30 226 H 22.3915 0.0172398 3.88496 0
M  V30 227 H 24.0635 2.62536 3.79305 0
M  V30 228 H 22.3065 2.5256 3.52698 0
M  V30 229 H 22.9775 2.10087 5.10458 0
M  V30 230 H 25.4535 0.433775 4.13833 0
M  V30 231 H 24.3295 0.128637 5.48749 0
M  V30 232 H 24.5905 -1.11758 4.27741 0
M  V30 233 N 23.6496 -1.47581 0.552962 0
M  V30 234 C 24.5596 -2.33743 -0.200353 0
M  V30 235 C 25.5756 -1.47928 -0.916151 0
M  V30 236 O 26.7516 -1.80865 -0.885993 0
M  V30 237 C 23.8166 -3.24536 -1.21973 0
M  V30 238 C 22.8776 -4.26238 -0.511819 0
M  V30 239 C 22.1106 -5.12693 -1.48263 0
M  V30 240 O 22.3336 -5.01525 -2.71714 0
M  V30 241 O 21.2676 -5.93375 -1.00945 0
M  V30 242 H 25.0936 -2.9945 0.506304 0
M  V30 243 H 22.6786 -1.46071 0.313622 0
M  V30 244 H 24.5606 -3.80631 -1.80827 0
M  V30 245 H 23.2356 -2.61462 -1.90839 0
M  V30 246 H 22.1426 -3.73914 0.117799 0
M  V30 247 H 23.4756 -4.92014 0.135308 0
M  V30 248 N 25.1277 -0.289203 -1.54924 0
M  V30 249 C 26.0377 0.601863 -2.26748 0
M  V30 250 C 27.0537 1.15834 -1.2984 0
M  V30 251 O 28.2297 1.18564 -1.62802 0
M  V30 252 C 25.2947 1.76299 -2.98529 0
M  V30 253 C 24.3557 1.24178 -4.10948 0
M  V30 254 C 23.5887 2.34757 -4.79296 0
M  V30 255 O 23.8117 3.54411 -4.46933 0
M  V30 256 O 22.7457 2.02115 -5.66951 0
M  V30 257 H 26.5717 0.0195879 -3.03694 0
M  V30 258 H 24.1567 -0.0560868 -1.49295 0
M  V30 259 H 26.0387 2.43973 -3.43592 0
M  V30 260 H 24.7137 2.33209 -2.24488 0
M  V30 261 H 23.6207 0.531104 -3.70311 0
M  V30 262 H 24.9537 0.718252 -4.86931 0
M  V30 263 N 26.6058 1.57591 -0.0167156 0
M  V30 264 C 27.5358 2.12496 0.967858 0
M  V30 265 C 28.5168 1.03807 1.34752 0
M  V30 266 O 29.7018 1.31577 1.42833 0
M  V30 267 C 26.8318 2.64194 2.25431 0
M  V30 268 C 25.7858 3.77559 2.01576 0
M  V30 269 C 25.1118 4.15636 3.36379 0
M  V30 270 C 26.4118 5.04151 1.36489 0
M  V30 271 H 28.1058 2.95013 0.510643 0
M  V30 272 H 25.6518 1.41915 0.244181 0
M  V30 273 H 27.6048 3.01236 2.94678 0
M  V30 274 H 26.3288 1.78821 2.73296 0
M  V30 275 H 24.9878 3.40937 1.34751 0
M  V30 276 H 24.6358 3.27263 3.81979 0
M  V30 277 H 24.3358 4.92022 3.21229 0
M  V30 278 H 25.8598 4.5525 4.06915 0
M  V30 279 H 27.2738 5.38857 1.95718 0
M  V30 280 H 25.6708 5.85453 1.31776 0
M  V30 281 H 26.7408 4.83733 0.336219 0
M  V30 282 N 28.0839 -0.256276 1.55502 0
M  V30 283 C 29.0139 -1.32102 1.92539 0
M  V30 284 C 29.9949 -1.50684 0.789194 0
M  V30 285 O 31.1799 -1.63449 1.04872 0
M  V30 286 C 28.3099 -2.67752 2.21192 0
M  V30 287 C 27.2639 -2.63878 3.36975 0
M  V30 288 C 26.5899 -4.03236 3.51147 0
M  V30 289 C 27.8899 -2.21682 4.72921 0
M  V30 290 H 29.5839 -1.01351 2.81724 0
M  V30 291 H 27.1299 -0.486105 1.35547 0
M  V30 292 H 29.0829 -3.42365 2.45691 0
M  V30 293 H 27.8069 -3.0012 1.28824 0
M  V30 294 H 26.4659 -1.91722 3.12471 0
M  V30 295 H 26.1139 -4.32854 2.56216 0
M  V30 296 H 25.8139 -4.01535 4.29003 0
M  V30 297 H 27.3379 -4.79563 3.77957 0
M  V30 298 H 28.7519 -2.86023 4.96854 0
M  V30 299 H 27.1489 -2.3111 5.53812 0
M  V30 300 H 28.2189 -1.16833 4.70615 0
M  V30 301 N 29.562 -1.4872 -0.521534 0
M  V30 302 C 30.51 -1.64328 -1.64618 0
M  V30 303 C 31.504 -0.50953 -1.61555 0
M  V30 304 O 32.71 -0.688525 -1.66311 0
M  V30 305 H 29.085 -0.517805 -0.545328 0
M  V30 306 H 31.056 -2.58767 -1.48601 0
M  V30 307 C 29.805 -1.70805 -3.02855 0
M  V30 308 H 29.128 -2.5741 -3.05909 0
M  V30 309 H 30.568 -1.85766 -3.81139 0
M  V30 310 C 29.027 -0.448479 -3.33902 0
M  V30 311 O 29.557 0.434928 -3.99339 0
M  V30 312 N 27.763 -0.317616 -2.88859 0
M  V30 313 H 27.31 -1.03748 -2.35784 0
M  V30 314 H 27.268 0.524113 -3.10001 0
M  V30 315 N 31.0401 0.771051 -1.3745 0
M  V30 316 C 31.9701 1.89827 -1.3597 0
M  V30 317 C 32.9511 1.68562 -0.228216 0
M  V30 318 O 34.1361 1.8941 -0.428675 0
M  V30 319 C 31.2661 3.2712 -1.16662 0
M  V30 320 C 30.2201 3.6295 -2.2683 0
M  V30 321 C 29.5461 4.98791 -1.92644 0
M  V30 322 C 30.8461 3.69627 -3.69017 0
M  V30 323 H 32.5401 1.91323 -2.30295 0
M  V30 324 H 30.0861 0.919082 -1.10855 0
M  V30 325 H 32.0391 4.05615 -1.14256 0
M  V30 326 H 30.7631 3.26059 -0.187926 0
M  V30 327 H 29.4221 2.86763 -2.28392 0
M  V30 328 H 29.0701 4.94271 -0.933021 0
M  V30 329 H 28.7701 5.23733 -2.66416 0
M  V30 330 H 30.2941 5.79685 -1.91826 0
M  V30 331 H 31.7081 4.38273 -3.69581 0
M  V30 332 H 30.1051 4.06067 -4.41848 0
M  V30 333 H 31.1751 2.70273 -4.02592 0
M  V30 334 N 32.5182 1.22032 0.997298 0
M  V30 335 C 33.4682 0.953838 2.07089 0
M  V30 336 C 34.4522 -0.0938669 1.60626 0
M  V30 337 O 35.6442 0.116078 1.76619 0
M  V30 338 C 32.7732 0.528726 3.39204 0
M  V30 339 C 31.8592 1.61092 3.92314 0
M  V30 340 N 32.2502 2.83768 4.18699 0
M  V30 341 C 30.5482 1.48158 4.20672 0
M  V30 342 C 31.2492 3.53715 4.61802 0
M  V30 343 N 30.2252 2.81174 4.65233 0
M  V30 344 H 34.0272 1.88577 2.25424 0
M  V30 345 H 31.5412 1.11719 1.17867 0
M  V30 346 H 33.5382 0.31915 4.15677 0
M  V30 347 H 32.1982 -0.39635 3.22272 0
M  V30 348 H 33.2092 3.20238 4.07023 0
M  V30 349 H 29.8862 0.622369 4.12835 0
M  V30 350 H 31.2762 4.58793 4.90875 0
M  V30 351 N 33.9963 -1.19345 1.0293 0
M  V30 352 C 35.4073 -1.70725 0.755633 0
M  V30 353 C 35.7583 -1.82326 -0.724676 0
M  V30 354 O 34.8833 -1.49471 -1.56484 0
M  V30 355 C 35.4783 -3.10084 1.36503 0
M  V30 356 C 34.0373 -3.58723 1.13994 0
M  V30 357 C 33.1843 -2.35577 1.46283 0
M  V30 358 H 36.1353 -1.0418 1.19718 0
M  V30 359 H 36.1563 -3.72787 0.762217 0
M  V30 360 H 35.6683 -3.01609 2.44241 0
M  V30 361 H 33.7693 -3.72512 0.0807901 0
M  V30 362 H 33.8823 -4.42816 1.82894 0
M  V30 363 H 32.2463 -2.38935 0.88217 0
M  V30 364 H 33.0293 -2.29731 2.55105 0
M  V30 365 N 35.4744 -0.807222 -1.35358 0
M  V30 366 C 36.7514 -0.311126 -1.9311 0
M  V30 367 C 37.1314 1.19937 -1.73719 0
M  V30 368 O 36.4794 1.99918 -1.10657 0
M  V30 369 C 36.6894 -0.723226 -3.41424 0
M  V30 370 C 38.0374 -0.713078 -4.18569 0
M  V30 371 O 39.0614 -0.664811 -3.49941 0
M  V30 372 O 37.9204 -0.772022 -5.41019 0
M  V30 373 H 35.0144 -0.081526 -0.822972 0
M  V30 374 H 37.5604 -0.890962 -1.4443 0
M  V30 375 H 36.3324 -1.76426 -3.4927 0
M  V30 376 H 35.9554 -0.118232 -3.97424 0
M  V30 377 N 36.9525 1.47285 -0.560781 0
M  V30 378 C 37.9155 2.28535 0.174488 0
M  V30 379 C 38.9155 1.37153 0.839388 0
M  V30 380 O 40.1055 1.59748 0.694702 0
M  V30 381 C 37.2375 3.16934 1.25561 0
M  V30 382 H 38.4305 2.95012 -0.539262 0
M  V30 383 H 35.9835 1.53034 -0.317865 0
M  V30 384 H 36.7185 2.55157 2.00164 0
M  V30 385 H 36.5035 3.8419 0.783604 0
M  V30 386 H 37.9935 3.78143 1.77193 0
M  V30 387 N 38.4306 0.297415 1.54768 0
M  V30 388 C 39.3406 -0.58983 2.27064 0
M  V30 389 C 40.3566 -1.15144 1.30453 0
M  V30 390 O 41.5326 -1.17699 1.63428 0
M  V30 391 C 38.5976 -1.74714 2.9946 0
M  V30 392 C 37.6586 -1.21997 4.11601 0
M  V30 393 C 36.8916 -2.32212 4.80535 0
M  V30 394 O 37.1146 -3.52036 4.48806 0
M  V30 395 O 36.0486 -1.99106 5.68014 0
M  V30 396 H 39.8746 -0.00348199 3.037 0
M  V30 397 H 37.4596 0.0640035 1.49263 0
M  V30 398 H 39.3416 -2.42147 3.44881 0
M  V30 399 H 38.0166 -2.32016 2.25722 0
M  V30 400 H 36.9236 -0.511458 3.70587 0
M  V30 401 H 38.2566 -0.692419 4.87305 0
M  V30 402 N 39.9087 -1.5758 0.0250728 0
M  V30 403 C 41.1577 -1.90811 -0.653767 0
M  V30 404 C 41.4707 -0.90273 -1.73523 0
M  V30 405 O 42.6767 -1.12614 -2.47043 0
M  V30 406 C 41.1327 -3.38804 -1.21409 0
M  V30 407 C 40.7407 -4.47692 -0.166126 0
M  V30 408 C 42.4847 -3.81108 -1.86967 0
M  V30 409 C 40.3917 -5.86779 -0.737856 0
M  V30 410 H 39.3217 -0.712063 -0.247956 0
M  V30 411 H 41.9727 -1.83281 0.0897137 0
M  V30 412 H 40.3547 -3.41252 -2.00905 0
M  V30 413 H 41.5287 -4.56797 0.606079 0
M  V30 414 H 39.8437 -4.14565 0.390466 0
M  V30 415 H 42.4407 -4.82375 -2.30692 0
M  V30 416 H 42.7837 -3.15953 -2.71071 0
M  V30 417 H 43.3167 -3.81065 -1.14167 0
M  V30 418 H 40.0557 -6.55468 0.0649577 0
M  V30 419 H 39.5757 -5.81288 -1.47864 0
M  V30 420 H 41.2547 -6.35223 -1.22884 0
M  V30 421 N 41.3868 0.248026 -1.55636 0
M  V30 422 C 42.3188 1.32993 -1.8667 0
M  V30 423 C 43.3318 1.44345 -0.752877 0
M  V30 424 O 44.5208 1.45715 -1.03098 0
M  V30 425 C 41.6208 2.70863 -2.03682 0
M  V30 426 C 40.7938 2.81792 -3.34532 0
M  V30 427 C 39.8528 4.005 -3.41301 0
M  V30 428 O 38.8788 3.9008 -4.14519 0
M  V30 429 N 40.0808 5.13618 -2.70512 0
M  V30 430 H 42.8458 1.06707 -2.8006 0
M  V30 431 H 40.4068 0.438129 -1.55859 0
M  V30 432 H 42.3988 3.48612 -2.05553 0
M  V30 433 H 40.9688 2.89862 -1.17041 0
M  V30 434 H 40.1888 1.90729 -3.44987 0
M  V30 435 H 41.4768 2.86043 -4.20781 0
M  V30 436 H 40.8748 5.24975 -2.10755 0
M  V30 437 H 39.4318 5.89505 -2.78077 0
M  V30 438 N 42.8649 1.48995 0.513639 0
M  V30 439 C 44.1109 1.59053 1.26783 0
M  V30 440 C 44.4659 0.268136 1.90522 0
M  V30 441 O 43.7589 -0.730534 1.77126 0
M  V30 442 C 43.9529 2.67756 2.36731 0
M  V30 443 C 43.7819 4.10437 1.83771 0
M  V30 444 C 42.5519 4.7738 1.65639 0
M  V30 445 C 44.7499 4.9608 1.35681 0
M  V30 446 N 42.7319 6.04419 1.07476 0
M  V30 447 C 44.1029 6.13496 0.895715 0
M  V30 448 C 46.1579 4.82177 1.24136 0
M  V30 449 C 44.8609 7.1854 0.3306 0
M  V30 450 C 46.8869 5.87358 0.690229 0
M  V30 451 C 46.2489 7.03993 0.239292 0
M  V30 452 H 42.3479 0.636463 0.454355 0
M  V30 453 H 44.9319 1.85948 0.577196 0
M  V30 454 H 43.1029 2.42655 3.03271 0
M  V30 455 H 44.8349 2.67406 3.0377 0
M  V30 456 H 41.5899 4.33974 1.8964 0
M  V30 457 H 42.0139 6.72214 0.803579 0
M  V30 458 H 46.6559 3.92329 1.57601 0
M  V30 459 H 44.3739 8.08098 -0.0163435 0
M  V30 460 H 47.9599 5.78658 0.603852 0
M  V30 461 H 46.8399 7.83992 -0.180526 0
M  V30 462 N 44.343 -0.763751 1.37857 0
M  V30 463 C 45.573 -1.55067 1.3652 0
M  V30 464 C 45.981 -1.89135 -0.0494227 0
M  V30 465 O 45.324 -1.52529 -1.02375 0
M  V30 466 C 45.386 -2.8838 2.14656 0
M  V30 467 C 45.05 -2.76905 3.63555 0
M  V30 468 C 46.047 -2.4739 4.57268 0
M  V30 469 C 43.732 -2.94676 4.06781 0
M  V30 470 C 45.726 -2.35786 5.92186 0
M  V30 471 C 43.413 -2.82692 5.41782 0
M  V30 472 C 44.411 -2.53289 6.34298 0
M  V30 473 O 44.099 -2.41345 7.66817 0
M  V30 474 H 43.831 -0.486776 0.469069 0
M  V30 475 H 46.385 -0.953812 1.81911 0
M  V30 476 H 44.615 -3.50217 1.63967 0
M  V30 477 H 46.304 -3.49828 2.05852 0
M  V30 478 H 47.07 -2.33339 4.2518 0
M  V30 479 H 42.949 -3.16563 3.35126 0
M  V30 480 H 46.493 -2.12757 6.64365 0
M  V30 481 H 42.39 -2.96314 5.7347 0
M  V30 482 H 43.158 -2.56634 7.77226 0
M  V30 483 N 45.8211 -1.22559 -0.990812 0
M  V30 484 C 46.7311 -1.01394 -2.11557 0
M  V30 485 C 47.7471 0.0383962 -1.73958 0
M  V30 486 O 48.9231 -0.154787 -2.00804 0
M  V30 487 C 45.9881 -0.596569 -3.41529 0
M  V30 488 C 45.0491 -1.72276 -3.93217 0
M  V30 489 C 44.2821 -1.32521 -5.16985 0
M  V30 490 O 44.5051 -0.204909 -5.70032 0
M  V30 491 O 43.4391 -2.14247 -5.62478 0
M  V30 492 H 47.2651 -1.95633 -2.32296 0
M  V30 493 H 44.8501 -1.01172 -1.0993 0
M  V30 494 H 46.7321 -0.374263 -4.19735 0
M  V30 495 H 45.4071 0.316939 -3.22145 0
M  V30 496 H 44.3141 -1.99961 -3.16174 0
M  V30 497 H 45.6471 -2.61421 -4.17037 0
M  V30 498 N 47.2992 1.18797 -1.03562 0
M  V30 499 C 48.2462 2.22253 -0.622259 0
M  V30 500 C 49.2162 1.61987 0.36736 0
M  V30 501 O 50.4012 1.88986 0.262492 0
M  V30 502 C 47.5412 3.45097 0.0138462 0
M  V30 503 C 46.6542 4.19722 -1.02263 0
M  V30 504 C 45.7892 5.30009 -0.355573 0
M  V30 505 C 44.8282 5.96399 -1.37749 0
M  V30 506 N 43.9652 6.98234 -0.735766 0
M  V30 507 H 48.8052 2.56968 -1.50903 0
M  V30 508 H 46.3422 1.26245 -0.755017 0
M  V30 509 H 48.3002 4.15279 0.399948 0
M  V30 510 H 46.9302 3.11018 0.864158 0
M  V30 511 H 45.9822 3.48418 -1.52673 0
M  V30 512 H 47.2942 4.65227 -1.79903 0
M  V30 513 H 46.4482 6.0664 0.0850095 0
M  V30 514 H 45.1872 4.85592 0.452967 0
M  V30 515 H 44.1922 5.18512 -1.82826 0
M  V30 516 H 45.4172 6.42899 -2.18764 0
M  V30 517 H 43.3632 6.55979 0.0525597 0
M  V30 518 H 43.2802 7.41965 -1.44995 0
M  V30 519 H 44.5482 7.78845 -0.31941 0
M  V30 520 N 48.7773 0.814389 1.34928 0
M  V30 521 C 50.0253 0.397636 1.9815 0
M  V30 522 C 50.3463 -1.04069 1.64908 0
M  V30 523 O 49.6163 -1.72121 0.93548 0
M  V30 524 H 48.1963 0.144043 0.732981 0
M  V30 525 H 50.8583 1.04195 1.6471 0
M  V30 526 H 49.9543 0.509688 3.0791 0
M  V30 527 N 50.2554 -1.46986 0.568584 0
M  V30 528 C 51.5324 -1.95592 -0.0174074 0
M  V30 529 C 51.9124 -1.51124 -1.47393 0
M  V30 530 O 51.2604 -0.755329 -2.15655 0
M  V30 531 C 51.4704 -3.48719 0.139913 0
M  V30 532 C 52.8184 -4.246 0.000426376 0
M  V30 533 O 53.8424 -3.56135 0.0680316 0
M  V30 534 O 52.7014 -5.46302 -0.146988 0
M  V30 535 H 49.7954 -0.82498 -0.0577599 0
M  V30 536 H 52.3414 -1.57335 0.635909 0
M  V30 537 H 51.1134 -3.73927 1.15301 0
M  V30 538 H 50.7364 -3.93771 -0.550491 0
M  V30 539 N 51.7335 -0.305618 -1.54608 0
M  V30 540 C 52.9805 0.302298 -2.00231 0
M  V30 541 C 53.3085 1.5354 -1.19398 0
M  V30 542 O 52.5635 1.93973 -0.259423 0
M  V30 543 C 52.8625 0.698983 -3.50498 0
M  V30 544 C 52.5285 -0.432903 -4.48817 0
M  V30 545 C 51.1905 -0.743622 -4.75419 0
M  V30 546 C 53.5425 -1.19409 -5.07337 0
M  V30 547 C 50.8705 -1.81857 -5.57804 0
M  V30 548 C 53.2225 -2.25899 -5.90891 0
M  V30 549 C 51.8865 -2.57572 -6.15803 0
M  V30 550 H 51.1565 0.110619 -0.732697 0
M  V30 551 H 53.8035 -0.425674 -1.86709 0
M  V30 552 H 52.1085 1.50711 -3.61654 0
M  V30 553 H 53.8055 1.1806 -3.83227 0
M  V30 554 H 50.3955 -0.18063 -4.28219 0
M  V30 555 H 54.5795 -0.967295 -4.86782 0
M  V30 556 H 49.8355 -2.06864 -5.75341 0
M  V30 557 H 54.0095 -2.85335 -6.35261 0
M  V30 558 H 51.6365 -3.40998 -6.7943 0
M  V30 559 N 53.2116 1.57565 -0.0334293 0
M  V30 560 C 54.4606 1.91155 0.643639 0
M  V30 561 C 54.7736 0.91192 1.73042 0
M  V30 562 O 55.9796 1.13923 2.46442 0
M  V30 563 C 54.4356 3.39443 1.1961 0
M  V30 564 C 54.0436 4.47774 0.142381 0
M  V30 565 C 55.7876 3.82094 1.84944 0
M  V30 566 C 53.6946 5.87162 0.706727 0
M  V30 567 H 52.6246 0.713368 0.244176 0
M  V30 568 H 55.2756 1.8323 -0.0994323 0
M  V30 569 H 53.6576 3.42313 1.99092 0
M  V30 570 H 54.8316 4.56469 -0.630296 0
M  V30 571 H 53.1466 4.14352 -0.412446 0
M  V30 572 H 55.7436 4.83591 2.2813 0
M  V30 573 H 56.0866 3.17386 2.69392 0
M  V30 574 H 56.6196 3.81665 1.12145 0
M  V30 575 H 53.3586 6.55424 -0.0997178 0
M  V30 576 H 52.8786 5.82064 1.44779 0
M  V30 577 H 54.5576 6.35866 1.19514 0
M  V30 578 N 54.6897 -0.239769 1.55765 0
M  V30 579 C 55.9147 -0.988373 1.82335 0
M  V30 580 C 56.3397 -1.77886 0.611421 0
M  V30 581 O 55.6977 -1.75889 -0.439639 0
M  V30 582 C 55.7457 -1.89627 3.06715 0
M  V30 583 O 54.8497 -2.98904 2.84131 0
M  V30 584 H 54.1907 -0.280858 0.601677 0
M  V30 585 H 56.7207 -0.258597 2.02959 0
M  V30 586 H 56.7307 -2.30957 3.36338 0
M  V30 587 H 55.4057 -1.31511 3.9456 0
M  V30 588 H 53.9827 -2.61651 2.65694 0
M  V30 589 N 56.1678 -1.49265 -0.50573 0
M  V30 590 C 57.4148 -1.58513 -1.26015 0
M  V30 591 C 57.7428 -0.26972 -1.92621 0
M  V30 592 O 56.9978 0.741997 -1.81088 0
M  V30 593 C 57.2968 -2.69008 -2.35308 0
M  V30 594 C 56.9628 -4.10662 -1.86192 0
M  V30 595 C 55.6248 -4.49212 -1.72516 0
M  V30 596 C 57.9768 -4.99336 -1.49375 0
M  V30 597 C 55.3048 -5.74214 -1.20394 0
M  V30 598 C 57.6568 -6.24852 -0.987072 0
M  V30 599 C 56.3208 -6.62236 -0.836669 0
M  V30 600 H 55.5908 -0.580041 -0.461122 0
M  V30 601 H 58.2378 -1.83078 -0.561665 0
M  V30 602 H 56.5428 -2.38396 -3.10926 0
M  V30 603 H 58.2398 -2.73373 -2.93374 0
M  V30 604 H 54.8298 -3.8023 -1.97795 0
M  V30 605 H 59.0138 -4.70212 -1.5879 0
M  V30 606 H 54.2698 -6.01883 -1.07458 0
M  V30 607 H 58.4438 -6.92944 -0.692983 0
M  V30 608 H 56.0708 -7.58979 -0.430607 0
M  V30 609 N 57.6459 0.756429 -1.3826 0
M  V30 610 C 58.5759 1.88374 -1.37976 0
M  V30 611 C 59.5569 1.68311 -0.246082 0
M  V30 612 O 60.7419 1.88944 -0.44874 0
M  V30 613 C 57.8719 3.25864 -1.20125 0
M  V30 614 C 56.8259 3.60523 -2.30666 0
M  V30 615 C 56.1519 4.9672 -1.97923 0
M  V30 616 C 57.4519 3.65692 -3.72916 0
M  V30 617 H 59.1459 1.88869 -2.32312 0
M  V30 618 H 56.6919 0.907272 -1.11824 0
M  V30 619 H 58.6449 4.0438 -1.18552 0
M  V30 620 H 57.3689 3.25841 -0.222498 0
M  V30 621 H 56.0279 2.84324 -2.3142 0
M  V30 622 H 55.6759 4.93253 -0.985393 0
M  V30 623 H 55.3759 5.20878 -2.71955 0
M  V30 624 H 56.8999 5.77618 -1.97964 0
M  V30 625 H 58.3139 4.34328 -3.74208 0
M  V30 626 H 56.7109 4.01358 -4.4613 0
M  V30 627 H 57.7809 2.65987 -4.05436 0
M  V30 628 N 59.124 1.23083 0.984299 0
M  V30 629 C 60.349 1.088 1.76571 0
M  V30 630 C 60.774 -0.356657 1.84688 0
M  V30 631 O 60.132 -1.25788 1.30565 0
M  V30 632 C 60.18 1.71371 3.17277 0
M  V30 633 O 59.284 0.973213 4.00752 0
M  V30 634 H 58.625 0.381599 0.543395 0
M  V30 635 H 61.155 1.63057 1.23587 0
M  V30 636 H 61.165 1.76449 3.67872 0
M  V30 637 H 59.84 2.76493 3.10684 0
M  V30 638 H 58.417 0.999078 3.59267 0
M  V30 639 N 60.6021 -1.18246 1.0419 0
M  V30 640 C 61.8421 -1.89948 0.754916 0
M  V30 641 C 62.2061 -1.78608 -0.70451 0
M  V30 642 O 63.4071 -2.4503 -1.10516 0
M  V30 643 C 61.6781 -3.36305 1.20969 0
M  V30 644 S 63.2371 -4.26088 1.04854 0
M  V30 645 H 60.0551 -0.655897 0.274446 0
M  V30 646 H 62.6571 -1.42873 1.33445 0
M  V30 647 H 61.3611 -3.42089 2.26722 0
M  V30 648 H 60.8921 -3.8842 0.624004 0
M  V30 649 H 62.9071 -4.96189 -0.0332896 0
M  V30 650 N 62.0802 -0.821533 -1.34494 0
M  V30 651 C 63.3282 -0.408139 -1.97936 0
M  V30 652 C 63.6492 1.03193 -1.65457 0
M  V30 653 O 62.9192 1.71622 -0.944595 0
M  V30 654 H 61.4992 -0.147928 -0.732206 0
M  V30 655 H 64.1612 -1.05067 -1.64155 0
M  V30 656 H 63.2572 -0.52601 -3.07635 0
M  V30 657 N 63.5583 1.46682 -0.576371 0
M  V30 658 C 64.4913 2.27243 0.208731 0
M  V30 659 C 65.4693 1.35238 0.902746 0
M  V30 660 O 66.6533 1.64641 0.917904 0
M  V30 661 C 63.7803 3.12802 1.29896 0
M  V30 662 C 62.8263 4.20524 0.711457 0
M  V30 663 S 63.6593 5.33548 -0.456781 0
M  V30 664 C 64.8153 6.22673 0.634798 0
M  V30 665 H 65.0483 2.93484 -0.474838 0
M  V30 666 H 62.5813 1.50069 -0.363118 0
M  V30 667 H 64.5393 3.62661 1.92321 0
M  V30 668 H 63.2003 2.45887 1.95444 0
M  V30 669 H 62.3933 4.80191 1.53076 0
M  V30 670 H 61.9953 3.73645 0.162999 0
M  V30 671 H 64.2873 6.60181 1.52209 0
M  V30 672 H 65.2303 7.0806 0.0750311 0
M  V30 673 H 65.6383 5.56684 0.936092 0
M  V30 674 N 65.0364 0.313813 1.54444 0
M  V30 675 C 65.9684 -0.590425 2.21465 0
M  V30 676 C 66.9814 -1.08753 1.21147 0
M  V30 677 O 68.1704 -1.00278 1.4767 0
M  V30 678 C 65.2704 -1.82179 2.85769 0
M  V30 679 C 64.4434 -1.46502 4.12136 0
M  V30 680 C 63.5024 -2.55288 4.60124 0
M  V30 681 O 62.5284 -2.19842 5.25032 0
M  V30 682 N 63.7304 -3.86053 4.33525 0
M  V30 683 H 66.4954 -0.0166033 2.99695 0
M  V30 684 H 64.0564 0.136578 1.61323 0
M  V30 685 H 66.0484 -2.54328 3.14801 0
M  V30 686 H 64.6184 -2.30369 2.11303 0
M  V30 687 H 63.8384 -0.575595 3.89975 0
M  V30 688 H 65.1264 -1.20221 4.94393 0
M  V30 689 H 64.5244 -4.17654 3.81552 0
M  V30 690 H 63.0814 -4.54461 4.67235 0
M  V30 691 N 66.5145 -1.57545 0.0417849 0
M  V30 692 C 67.4445 -2.14009 -0.933929 0
M  V30 693 C 68.4255 -1.05938 -1.33083 0
M  V30 694 O 69.6105 -1.33833 -1.40721 0
M  V30 695 C 66.7405 -2.67747 -2.21199 0
M  V30 696 C 65.6945 -3.80718 -1.95544 0
M  V30 697 C 65.0205 -4.20935 -3.29724 0
M  V30 698 C 66.3205 -5.06258 -1.28452 0
M  V30 699 H 68.0145 -2.95788 -0.463645 0
M  V30 700 H 65.5605 -1.42285 -0.221573 0
M  V30 701 H 67.5135 -3.05886 -2.89848 0
M  V30 702 H 66.2375 -1.83147 -2.70416 0
M  V30 703 H 64.8965 -3.43037 -1.2931 0
M  V30 704 H 64.5445 -3.33298 -3.76724 0
M  V30 705 H 64.2445 -4.9707 -3.13361 0
M  V30 706 H 65.7685 -4.61666 -3.9962 0
M  V30 707 H 67.1825 -5.41903 -1.8712 0
M  V30 708 H 65.5795 -5.87475 -1.22445 0
M  V30 709 H 66.6495 -4.84207 -0.259219 0
M  V30 710 N 67.9926 0.231505 -1.5589 0
M  V30 711 C 69.2226 0.973092 -1.82248 0
M  V30 712 C 69.6306 1.78845 -0.617328 0
M  V30 713 O 68.9736 1.78752 0.423499 0
M  V30 714 C 69.0356 1.94732 -3.02192 0
M  V30 715 C 68.6996 1.31743 -4.37599 0
M  V30 716 C 69.6966 0.712238 -5.14998 0
M  V30 717 C 67.3816 1.33218 -4.84312 0
M  V30 718 C 69.3756 0.130195 -6.37267 0
M  V30 719 C 67.0626 0.746286 -6.06526 0
M  V30 720 C 68.0606 0.146337 -6.82843 0
M  V30 721 O 67.7486 -0.430465 -8.02747 0
M  V30 722 H 67.4806 0.29125 -0.61004 0
M  V30 723 H 70.0346 0.254915 -2.03812 0
M  V30 724 H 68.2646 2.70422 -2.76422 0
M  V30 725 H 69.9536 2.55362 -3.15508 0
M  V30 726 H 70.7196 0.69324 -4.8002 0
M  V30 727 H 66.5986 1.78854 -4.24891 0
M  V30 728 H 70.1426 -0.33871 -6.96777 0
M  V30 729 H 66.0396 0.762663 -6.40979 0
M  V30 730 H 66.8076 -0.323818 -8.17859 0
M  V30 731 N 69.4707 1.49531 0.497807 0
M  V30 732 C 70.4007 1.6935 1.60757 0
M  V30 733 C 71.3817 0.542218 1.61227 0
M  V30 734 O 72.5667 0.778417 1.77917 0
M  V30 735 C 69.6967 1.76298 2.99226 0
M  V30 736 C 68.6507 2.91248 3.13622 0
M  V30 737 C 67.9767 2.83312 4.53474 0
M  V30 738 C 69.2767 4.3214 2.93346 0
M  V30 739 H 70.9707 2.62263 1.44425 0
M  V30 740 H 68.5167 1.26208 0.693367 0
M  V30 741 H 70.4697 1.88749 3.76765 0
M  V30 742 H 69.1937 0.799871 3.16654 0
M  V30 743 H 67.8527 2.78404 2.38509 0
M  V30 744 H 67.5007 1.84902 4.67782 0
M  V30 745 H 67.2007 3.60465 4.64046 0
M  V30 746 H 68.7247 2.97775 5.33069 0
M  V30 747 H 70.1387 4.45649 3.60652 0
M  V30 748 H 68.5357 5.1054 3.15387 0
M  V30 749 H 69.6057 4.46363 1.89441 0
M  V30 750 N 70.9488 -0.749086 1.3866 0
M  V30 751 C 71.8588 -1.89358 1.38494 0
M  V30 752 C 72.8748 -1.71708 0.281476 0
M  V30 753 O 74.0508 -1.94554 0.520643 0
M  V30 754 C 71.1158 -3.24782 1.21316 0
M  V30 755 C 70.1768 -3.54926 2.41508 0
M  V30 756 C 69.4098 -4.83888 2.2514 0
M  V30 757 O 69.6328 -5.56592 1.24746 0
M  V30 758 O 68.5668 -5.13612 3.13826 0
M  V30 759 H 72.3928 -1.92452 2.34938 0
M  V30 760 H 69.9778 -0.894981 1.19626 0
M  V30 761 H 71.8598 -4.05739 1.13814 0
M  V30 762 H 70.5348 -3.2249 0.279592 0
M  V30 763 H 69.4418 -2.74112 2.54585 0
M  V30 764 H 70.7748 -3.61983 3.3351 0
M  V30 765 N 72.4269 -1.23603 -0.977757 0
M  V30 766 C 73.6749 -1.06759 -1.71601 0
M  V30 767 C 73.9959 0.395929 -1.90938 0
M  V30 768 O 73.2659 1.28356 -1.47992 0
M  V30 769 H 71.8459 -0.392062 -0.635843 0
M  V30 770 H 74.5079 -1.55362 -1.1768 0
M  V30 771 H 73.6039 -1.55763 -2.70452 0
M  V30 772 N 73.905 1.17692 -1.04816 0
M  V30 773 C 74.852 2.21581 -0.645797 0
M  V30 774 C 75.822 1.62367 0.350159 0
M  V30 775 O 77.007 1.89254 0.242433 0
M  V30 776 C 74.147 3.45092 -0.0227568 0
M  V30 777 C 73.26 4.18613 -1.06709 0
M  V30 778 C 72.395 5.29602 -0.411767 0
M  V30 779 C 71.434 5.94904 -1.44067 0
M  V30 780 N 70.571 6.97414 -0.809781 0
M  V30 781 H 75.411 2.55353 -1.5362 0
M  V30 782 H 72.948 1.25438 -0.768364 0
M  V30 783 H 74.906 4.15679 0.35588 0
M  V30 784 H 73.536 3.11917 0.831122 0
M  V30 785 H 72.588 3.46779 -1.5636 0
M  V30 786 H 73.9 4.63293 -1.84827 0
M  V30 787 H 73.054 6.06696 0.0206623 0
M  V30 788 H 71.793 4.86045 0.401438 0
M  V30 789 H 70.798 5.16544 -1.88316 0
M  V30 790 H 72.023 6.40542 -2.25571 0
M  V30 791 H 69.969 6.55998 -0.0170186 0
M  V30 792 H 69.886 7.40386 -1.52856 0
M  V30 793 H 71.154 7.78463 -0.401999 0
M  V30 794 N 75.3831 0.828654 1.34056 0
M  V30 795 C 76.6291 0.42008 1.98402 0
M  V30 796 C 76.9621 -1.01564 1.65525 0
M  V30 797 O 76.2371 -1.70834 0.929831 0
M  V30 798 C 76.5201 0.62927 3.54559 0
M  V30 799 C 76.3731 2.11152 3.97159 0
M  V30 800 C 77.6921 0.0688756 4.40046 0
M  V30 801 H 74.8111 0.154104 0.720709 0
M  V30 802 H 77.4531 1.04228 1.5886 0
M  V30 803 H 75.6031 0.0996418 3.88372 0
M  V30 804 H 77.2751 2.70522 3.73651 0
M  V30 805 H 75.5181 2.59985 3.47261 0
M  V30 806 H 76.1891 2.20868 5.05887 0
M  V30 807 H 78.6651 0.521458 4.1282 0
M  V30 808 H 77.5411 0.245006 5.48353 0
M  V30 809 H 77.8021 -1.0266 4.30015 0
M  V30 810 N 76.8612 -1.46375 0.584142 0
M  V30 811 C 77.8082 -2.30323 -0.148286 0
M  V30 812 C 78.7782 -1.40703 -0.882713 0
M  V30 813 O 79.9632 -1.69651 -0.873099 0
M  V30 814 C 77.1032 -3.25196 -1.15507 0
M  V30 815 C 76.2162 -4.29915 -0.423943 0
M  V30 816 C 75.3512 -5.11914 -1.41838 0
M  V30 817 C 74.3902 -6.08381 -0.673736 0
M  V30 818 N 73.5272 -6.83242 -1.6163 0
M  V30 819 H 78.3672 -2.92427 0.573644 0
M  V30 820 H 75.9042 -1.44118 0.294703 0
M  V30 821 H 77.8622 -3.78646 -1.75166 0
M  V30 822 H 76.4922 -2.64898 -1.8447 0
M  V30 823 H 75.5442 -3.7931 0.287714 0
M  V30 824 H 76.8562 -4.98549 0.158128 0
M  V30 825 H 76.0102 -5.69648 -2.08773 0
M  V30 826 H 74.7492 -4.43243 -2.03438 0
M  V30 827 H 73.7542 -5.49799 0.00938483 0
M  V30 828 H 74.9792 -6.79071 -0.0631082 0
M  V30 829 H 72.9252 -6.1728 -2.22038 0
M  V30 830 H 72.8422 -7.48144 -1.08707 0
M  V30 831 H 74.1102 -7.45534 -2.27596 0
M  V30 832 N 78.3393 -0.321999 -1.54275 0
M  V30 833 C 79.6163 0.335232 -1.92706 0
M  V30 834 C 79.9963 1.70006 -1.25145 0
M  V30 835 O 79.3443 2.25067 -0.394596 0
M  V30 836 C 79.5543 0.429008 -3.46353 0
M  V30 837 C 80.9023 0.690029 -4.18956 0
M  V30 838 O 81.9263 0.511992 -3.52501 0
M  V30 839 O 80.7853 1.03338 -5.36641 0
M  V30 840 H 77.8793 0.191143 -0.804608 0
M  V30 841 H 80.4253 -0.3716 -1.65581 0
M  V30 842 H 79.1973 -0.529611 -3.87699 0
M  V30 843 H 78.8203 1.18348 -3.79578 0
M  V30 844 N 79.8174 1.5752 -0.0501392 0
M  V30 845 C 81.0634 1.92936 0.624798 0
M  V30 846 C 81.3964 0.928685 1.70555 0
M  V30 847 O 80.6714 -0.0454779 1.94447 0
M  V30 848 C 80.9544 3.38737 1.22185 0
M  V30 849 C 80.8074 4.49552 0.149218 0
M  V30 850 C 82.1264 3.84913 2.13378 0
M  V30 851 H 79.2454 0.701604 0.225657 0
M  V30 852 H 81.8874 1.89671 -0.111693 0
M  V30 853 H 80.0374 3.4165 1.84953 0
M  V30 854 H 81.7094 4.58768 -0.482648 0
M  V30 855 H 79.9524 4.30638 -0.522841 0
M  V30 856 H 80.6234 5.48653 0.606966 0
M  V30 857 H 83.0994 3.8387 1.60572 0
M  V30 858 H 81.9754 4.87584 2.52097 0
M  V30 859 H 82.2364 3.21611 3.03346 0
M  V30 860 N 81.2955 -0.223234 1.56011 0
M  V30 861 C 82.2435 -1.29627 1.93131 0
M  V30 862 C 83.2375 -1.48608 0.813146 0
M  V30 863 O 84.4435 -1.49802 0.997966 0
M  V30 864 H 80.8185 -0.434563 0.613726 0
M  V30 865 H 82.7895 -0.955995 2.82672 0
M  V30 866 C 81.5385 -2.63983 2.26292 0
M  V30 867 H 80.8615 -2.50185 3.11846 0
M  V30 868 H 82.3015 -3.3788 2.56151 0
M  V30 869 C 80.7605 -3.18866 1.08747 0
M  V30 870 O 81.2905 -4.00192 0.347727 0
M  V30 871 N 79.4965 -2.77217 0.871743 0
M  V30 872 H 79.0435 -2.1119 1.47501 0
M  V30 873 H 79.0015 -3.1428 0.0869905 0
M  V30 874 N 82.7736 -1.49793 -0.48987 0
M  V30 875 C 83.9986 -1.63836 -1.27172 0
M  V30 876 C 84.4236 -0.31402 -1.8546 0
M  V30 877 O 83.7816 0.719803 -1.66399 0
M  V30 878 C 83.8296 -2.71797 -2.36978 0
M  V30 879 O 82.9336 -2.31744 -3.41128 0
M  V30 880 H 82.2746 -0.547997 -0.37496 0
M  V30 881 H 84.8046 -1.96053 -0.585191 0
M  V30 882 H 84.8146 -2.94305 -2.82575 0
M  V30 883 H 83.4896 -3.67923 -1.93921 0
M  V30 884 H 82.0666 -2.1961 -3.01373 0
M  V30 885 N 84.2517 0.741722 -1.39055 0
M  V30 886 C 85.4977 1.50336 -1.36113 0
M  V30 887 C 85.8307 1.94148 0.0450796 0
M  V30 888 O 85.1057 1.66301 1.00868 0
M  V30 889 C 85.3887 2.74773 -2.32749 0
M  V30 890 C 85.2417 2.37023 -3.82283 0
M  V30 891 C 86.5607 3.76846 -2.27322 0
M  V30 892 H 83.6797 0.545351 -0.495743 0
M  V30 893 H 86.3217 0.848624 -1.69995 0
M  V30 894 H 84.4717 3.30639 -2.03986 0
M  V30 895 H 86.1437 1.8684 -4.21768 0
M  V30 896 H 84.3867 1.69334 -3.99385 0
M  V30 897 H 85.0577 3.26104 -4.45376 0
M  V30 898 H 87.5337 3.30548 -2.5274 0
M  V30 899 H 86.4097 4.6159 -2.97028 0
M  V30 900 H 86.6707 4.23286 -1.27599 0
M  V30 901 N 85.7298 1.2412 0.971189 0
M  V30 902 C 87.1458 1.00584 1.23916 0
M  V30 903 C 87.3458 -0.287481 1.99439 0
M  V30 904 O 86.4018 -1.00454 2.31658 0
M  V30 905 C 87.7148 2.21864 2.0297 0
M  V30 906 C 89.2628 2.26452 2.16076 0
M  V30 907 C 89.7378 3.47343 2.98524 0
M  V30 908 N 91.2288 3.47639 3.06107 0
M  V30 909 C 91.9638 4.37837 3.70251 0
M  V30 910 N 91.4598 5.38286 4.36142 0
M  V30 911 N 93.2528 4.25558 3.67228 0
M  V30 912 H 85.4038 2.07236 0.465499 0
M  V30 913 H 87.6668 0.909236 0.268315 0
M  V30 914 H 87.3728 3.15771 1.54861 0
M  V30 915 H 87.2468 2.23698 3.03709 0
M  V30 916 H 89.6338 1.33078 2.6339 0
M  V30 917 H 89.7148 2.28645 1.14696 0
M  V30 918 H 89.3588 4.41029 2.51905 0
M  V30 919 H 89.2888 3.42393 4.00093 0
M  V30 920 H 91.7798 2.74966 2.59233 0
M  V30 921 H 92.0928 6.03352 4.82894 0
M  V30 922 H 90.4378 5.42176 4.34822 0
M  V30 923 H 93.6288 3.46322 3.14927 0
M  V30 924 H 93.8018 4.96054 4.16935 0
M  V30 925 N 87.2079 -1.17134 1.05439 0
M  V30 926 C 88.4379 -1.91094 0.785274 0
M  V30 927 C 88.8459 -1.77198 -0.663142 0
M  V30 928 O 88.1889 -1.10835 -1.46497 0
M  V30 929 C 88.2509 -3.42594 1.08949 0
M  V30 930 C 87.9149 -3.80274 2.53458 0
M  V30 931 C 88.9119 -3.82912 3.51673 0
M  V30 932 C 86.5969 -4.11162 2.88532 0
M  V30 933 C 88.5909 -4.15913 4.83006 0
M  V30 934 C 86.2779 -4.43831 4.20068 0
M  V30 935 C 87.2759 -4.46185 5.17115 0
M  V30 936 O 86.9639 -4.78083 6.46291 0
M  V30 937 H 86.6959 -0.613073 0.284811 0
M  V30 938 H 89.2499 -1.49461 1.40893 0
M  V30 939 H 87.4799 -3.84534 0.408741 0
M  V30 940 H 89.1689 -3.97817 0.805991 0
M  V30 941 H 89.9349 -3.5917 3.25917 0
M  V30 942 H 85.8139 -4.085 2.13656 0
M  V30 943 H 89.3579 -4.17665 5.5875 0
M  V30 944 H 85.2549 -4.67037 4.45586 0
M  V30 945 H 86.0229 -4.9593 6.51149 0
M  V30 946 N 88.686 -0.835752 -1.33615 0
M  V30 947 C 89.619 -0.211815 -2.27215 0
M  V30 948 C 90.597 0.639249 -1.49507 0
M  V30 949 O 91.781 0.600193 -1.78689 0
M  V30 950 C 88.908 0.702893 -3.31326 0
M  V30 951 C 87.954 -0.0723049 -4.26439 0
M  V30 952 S 88.787 -1.42811 -5.16106 0
M  V30 953 C 89.943 -0.518613 -6.23748 0
M  V30 954 H 90.176 -1.00533 -2.79786 0
M  V30 955 H 87.709 -0.632336 -1.40858 0
M  V30 956 H 89.667 1.22505 -3.91794 0
M  V30 957 H 88.328 1.47004 -2.77576 0
M  V30 958 H 87.521 0.62359 -5.00127 0
M  V30 959 H 87.123 -0.525424 -3.70291 0
M  V30 960 H 89.415 0.284778 -6.76901 0
M  V30 961 H 90.358 -1.22556 -6.97413 0
M  V30 962 H 90.766 -0.101344 -5.64409 0
M  V30 963 N 90.1641 1.46063 -0.591896 0
M  V30 964 C 91.3921 2.06717 -0.0868936 0
M  V30 965 C 91.8071 1.43916 1.22203 0
M  V30 966 O 91.1641 0.547698 1.74088 0
M  V30 967 C 91.2151 3.6142 0.0758725 0
M  V30 968 O 90.9361 4.21874 -1.18126 0
M  V30 969 C 92.4371 4.39025 0.61416 0
M  V30 970 H 89.6571 0.668162 -0.0616518 0
M  V30 971 H 92.2011 1.8755 -0.815175 0
M  V30 972 H 90.3561 3.79983 0.754413 0
M  V30 973 H 90.7701 5.14861 -1.00092 0
M  V30 974 H 92.2441 5.4783 0.677193 0
M  V30 975 H 92.7211 4.07708 1.63312 0
M  V30 976 H 93.3271 4.2529 -0.0298142 0
M  V30 977 N 91.6422 0.330177 1.54103 0
M  V30 978 C 92.8902 -0.269871 2.0029 0
M  V30 979 C 93.2112 -1.52133 1.21986 0
M  V30 980 O 92.4812 -1.93212 0.323438 0
M  V30 981 H 91.0612 -0.10271 0.739905 0
M  V30 982 H 93.7232 0.448249 1.89675 0
M  V30 983 H 92.8192 -0.52166 3.07709 0
M  V30 984 N 93.1203 -1.57491 0.0584922 0
M  V30 985 C 94.0303 -2.15448 -0.928414 0
M  V30 986 C 95.0463 -1.11416 -1.3365 0
M  V30 987 O 96.2223 -1.4362 -1.41193 0
M  V30 988 C 93.2873 -2.69393 -2.18239 0
M  V30 989 C 92.3483 -3.88249 -1.83196 0
M  V30 990 C 91.5813 -4.39613 -3.02616 0
M  V30 991 O 91.8043 -3.90023 -4.16219 0
M  V30 992 O 90.7383 -5.31111 -2.83204 0
M  V30 993 H 94.5643 -3.00112 -0.465483 0
M  V30 994 H 92.1493 -1.48499 -0.163826 0
M  V30 995 H 94.0313 -3.04026 -2.91798 0
M  V30 996 H 92.7063 -1.87796 -2.63656 0
M  V30 997 H 91.6133 -3.58492 -1.06931 0
M  V30 998 H 92.9463 -4.71098 -1.42573 0
M  V30 999 N 94.5984 0.214957 -1.56127 0
M  V30 1000 C 95.5454 1.26642 -1.92952 0
M  V30 1001 C 96.5154 1.46244 -0.78753 0
M  V30 1002 O 97.7004 1.59704 -1.04399 0
M  V30 1003 C 94.8404 2.6104 -2.25726 0
M  V30 1004 C 93.9534 2.49183 -3.52891 0
M  V30 1005 C 93.0884 3.76149 -3.7508 0
M  V30 1006 C 92.1274 3.59041 -4.95738 0
M  V30 1007 N 91.2644 4.77972 -5.14283 0
M  V30 1008 H 96.1044 0.945384 -2.82607 0
M  V30 1009 H 93.6414 0.455489 -1.3987 0
M  V30 1010 H 95.5994 3.39313 -2.42739 0
M  V30 1011 H 94.2294 2.91227 -1.39236 0
M  V30 1012 H 93.2814 1.6231 -3.44034 0
M  V30 1013 H 94.5934 2.32466 -4.41318 0
M  V30 1014 H 93.7474 4.62865 -3.92226 0
M  V30 1015 H 92.4864 3.95799 -2.84947 0
M  V30 1016 H 91.4914 2.7071 -4.78535 0
M  V30 1017 H 92.7164 3.40856 -5.87362 0
M  V30 1018 H 90.6624 4.97923 -4.27093 0
M  V30 1019 H 90.5794 4.64006 -5.96853 0
M  V30 1020 H 91.8474 5.66096 -5.35869 0
M  V30 1021 N 96.0765 1.50051 0.48192 0
M  V30 1022 C 97.0095 1.62749 1.59963 0
M  V30 1023 C 97.9875 0.475903 1.5548 0
M  V30 1024 O 99.1715 0.693986 1.7526 0
M  V30 1025 C 96.2985 1.60008 2.98522 0
M  V30 1026 C 95.3445 2.80596 3.21198 0
M  V30 1027 S 96.1775 4.42038 3.02262 0
M  V30 1028 C 97.3335 4.41973 4.43182 0
M  V30 1029 H 97.5665 2.57296 1.4895 0
M  V30 1030 H 95.0995 1.39179 0.668477 0
M  V30 1031 H 97.0575 1.59112 3.78409 0
M  V30 1032 H 95.7185 0.667153 3.06933 0
M  V30 1033 H 94.9115 2.74952 4.22395 0
M  V30 1034 H 94.5135 2.79003 2.49065 0
M  V30 1035 H 96.8055 4.14868 5.35622 0
M  V30 1036 H 97.7485 5.43512 4.53873 0
M  V30 1037 H 98.1565 3.71812 4.24755 0
M  V30 1038 N 97.5546 -0.734337 1.39446 0
M  V30 1039 C 98.4646 -1.87879 1.40495 0
M  V30 1040 C 99.4806 -1.714 0.299672 0
M  V30 1041 O 100.657 -1.93991 0.541249 0
M  V30 1042 C 97.7216 -3.23477 1.24754 0
M  V30 1043 C 96.7826 -3.52344 2.45259 0
M  V30 1044 C 96.0156 -4.81473 2.30259 0
M  V30 1045 O 96.2386 -5.55237 1.30643 0
M  V30 1046 O 95.1726 -5.10254 3.19256 0
M  V30 1047 H 98.9986 -1.89949 2.36966 0
M  V30 1048 H 96.5836 -0.882243 1.20569 0
M  V30 1049 H 98.4656 -4.04509 1.18111 0
M  V30 1050 H 97.1406 -3.22176 0.313781 0
M  V30 1051 H 96.0476 -2.71396 2.57478 0
M  V30 1052 H 97.3806 -3.58426 3.37331 0
M  V30 1053 N 99.0327 -1.24633 -0.964593 0
M  V30 1054 C 100.258 -1.11596 -1.74818 0
M  V30 1055 C 100.683 0.32723 -1.85232 0
M  V30 1056 O 100.041 1.23695 -1.32549 0
M  V30 1057 C 100.089 -1.76397 -3.1451 0
M  V30 1058 O 99.1927 -1.03685 -3.99153 0
M  V30 1059 H 98.5337 -0.390196 -0.537255 0
M  V30 1060 H 101.064 -1.65002 -1.20977 0
M  V30 1061 H 101.074 -1.8228 -3.65018 0
M  V30 1062 H 99.7487 -2.81401 -3.06246 0
M  V30 1063 H 98.3257 -1.05611 -3.57632 0
M  V30 1064 N 100.511 1.16574 -1.06058 0
M  V30 1065 C 101.927 1.3904 -0.783585 0
M  V30 1066 C 102.127 1.91784 0.618145 0
M  V30 1067 O 101.183 2.11511 1.37911 0
M  V30 1068 C 102.496 2.37329 -1.84649 0
M  V30 1069 C 104.044 2.51018 -1.86973 0
M  V30 1070 C 104.519 3.52588 -2.92311 0
M  V30 1071 N 106.01 3.60113 -2.91329 0
M  V30 1072 C 106.745 4.38486 -3.69482 0
M  V30 1073 N 106.241 5.20302 -4.57447 0
M  V30 1074 N 108.034 4.33446 -3.57885 0
M  V30 1075 H 100.185 0.806725 -1.96483 0
M  V30 1076 H 102.448 0.417117 -0.851303 0
M  V30 1077 H 102.154 2.05663 -2.85299 0
M  V30 1078 H 102.028 3.36946 -1.6955 0
M  V30 1079 H 104.415 2.81989 -0.869827 0
M  V30 1080 H 104.496 1.51445 -2.0615 0
M  V30 1081 H 104.14 3.22354 -3.92492 0
M  V30 1082 H 104.07 4.51886 -2.70383 0
M  V30 1083 H 106.561 3.01707 -2.27555 0
M  V30 1084 H 106.874 5.77311 -5.13743 0
M  V30 1085 H 105.219 5.19653 -4.61503 0
M  V30 1086 H 108.41 3.68586 -2.88551 0
M  V30 1087 H 108.583 4.94279 -4.19037 0
M  V30 1088 N 101.989 0.842826 1.3317 0
M  V30 1089 C 103.237 0.439577 1.97262 0
M  V30 1090 C 103.558 -1.00548 1.67078 0
M  V30 1091 O 102.828 -1.70098 0.971779 0
M  V30 1092 H 101.408 0.159558 0.72976 0
M  V30 1093 H 104.07 1.07665 1.62463 0
M  V30 1094 H 103.166 0.574886 3.0676 0
M  V30 1095 N 103.467 -1.45747 0.599634 0
M  V30 1096 C 104.713 -2.02592 0.0918643 0
M  V30 1097 C 105.046 -1.46806 -1.27128 0
M  V30 1098 O 104.321 -0.639658 -1.83681 0
M  V30 1099 C 104.604 -3.60073 0.0443398 0
M  V30 1100 C 104.457 -4.26208 1.43759 0
M  V30 1101 C 105.776 -4.35309 -0.647608 0
M  V30 1102 H 102.895 -0.736175 0.034857 0
M  V30 1103 H 105.537 -1.73694 0.770081 0
M  V30 1104 H 103.687 -3.84823 -0.533224 0
M  V30 1105 H 105.359 -4.12668 2.06162 0
M  V30 1106 H 103.602 -3.84916 2.00056 0
M  V30 1107 H 104.273 -5.35069 1.35665 0
M  V30 1108 H 106.749 -4.15805 -0.156776 0
M  V30 1109 H 105.625 -5.45038 -0.649942 0
M  V30 1110 H 105.886 -4.07598 -1.71219 0
M  V30 1111 N 104.945 -0.338344 -1.53925 0
M  V30 1112 C 105.893 0.536231 -2.26335 0
M  V30 1113 C 106.887 1.1063 -1.28286 0
M  V30 1114 O 108.093 1.05264 -1.46012 0
M  V30 1115 H 104.468 0.191602 -0.727181 0
M  V30 1116 H 106.439 -0.0965747 -2.98244 0
M  V30 1117 C 105.188 1.67803 -3.04528 0
M  V30 1118 H 104.511 1.24864 -3.79801 0
M  V30 1119 H 105.951 2.26526 -3.58416 0
M  V30 1120 C 104.41 2.60439 -2.13712 0
M  V30 1121 O 104.94 3.6255 -1.72975 0
M  V30 1122 N 103.146 2.29006 -1.78898 0
M  V30 1123 H 102.693 1.46011 -2.12223 0
M  V30 1124 H 102.651 2.91248 -1.18416 0
M  V30 1125 N 106.423 1.57458 -0.0668435 0
M  V30 1126 C 107.669 1.93587 0.6043 0
M  V30 1127 C 108.002 0.946722 1.69561 0
M  V30 1128 O 107.277 -0.0248516 1.94484 0
M  V30 1129 C 107.56 3.40014 1.18585 0
M  V30 1130 C 107.413 4.49685 0.101529 0
M  V30 1131 C 108.732 3.87154 2.09284 0
M  V30 1132 H 105.851 0.703958 0.218202 0
M  V30 1133 H 108.493 1.89542 -0.131804 0
M  V30 1134 H 106.643 3.43592 1.81319 0
M  V30 1135 H 108.315 4.5823 -0.531279 0
M  V30 1136 H 106.558 4.30059 -0.568487 0
M  V30 1137 H 107.229 5.49266 0.54874 0
M  V30 1138 H 109.705 3.85551 1.56491 0
M  V30 1139 H 108.581 4.90231 2.46911 0
M  V30 1140 H 108.842 3.2481 2.99918 0
M  V30 1141 N 107.901 -0.206675 1.56239 0
M  V30 1142 C 109.148 -0.928842 1.79941 0
M  V30 1143 C 109.476 -1.83734 0.638131 0
M  V30 1144 O 108.731 -1.92039 -0.376746 0
M  V30 1145 C 109.03 -1.78675 3.09532 0
M  V30 1146 C 108.696 -1.03022 4.38973 0
M  V30 1147 C 107.358 -0.821302 4.74139 0
M  V30 1148 C 109.71 -0.497081 5.18824 0
M  V30 1149 C 107.038 -0.0675719 5.86661 0
M  V30 1150 C 109.39 0.24338 6.32132 0
M  V30 1151 C 108.054 0.463422 6.65889 0
M  V30 1152 H 107.324 -0.339887 0.658451 0
M  V30 1153 H 109.971 -0.195977 1.90495 0
M  V30 1154 H 108.276 -2.58794 2.94165 0
M  V30 1155 H 109.973 -2.34792 3.25075 0
M  V30 1156 H 106.563 -1.20306 4.11369 0
M  V30 1157 H 110.747 -0.645921 4.92079 0
M  V30 1158 H 106.003 0.112995 6.11296 0
M  V30 1159 H 110.177 0.66393 6.93228 0
M  V30 1160 H 107.804 1.04938 7.52922 0
M  V30 1161 N 109.379 -1.50304 -0.473955 0
M  V30 1162 C 110.604 -1.65175 -1.25427 0
M  V30 1163 C 111.029 -0.333673 -1.85117 0
M  V30 1164 O 110.387 0.702114 -1.67153 0
M  V30 1165 C 110.435 -2.74295 -2.34082 0
M  V30 1166 O 109.539 -2.35349 -3.38651 0
M  V30 1167 H 108.88 -0.551944 -0.369126 0
M  V30 1168 H 111.41 -1.96662 -0.564364 0
M  V30 1169 H 111.42 -2.97285 -2.79438 0
M  V30 1170 H 110.095 -3.69959 -1.90008 0
M  V30 1171 H 108.672 -2.22794 -2.99027 0
M  V30 1172 N 110.857 0.726932 -1.39834 0
M  V30 1173 C 111.805 1.86235 -1.39353 0
M  V30 1174 C 112.799 1.67144 -0.275555 0
M  V30 1175 O 114.005 1.74387 -0.44601 0
M  V30 1176 H 110.38 0.613174 -0.43534 0
M  V30 1177 H 112.351 1.83756 -2.35109 0
M  V30 1178 C 111.1 3.23995 -1.26185 0
M  V30 1179 H 110.423 3.39285 -2.11484 0
M  V30 1180 H 111.863 4.03609 -1.29907 0
M  V30 1181 C 110.322 3.36888 0.0290018 0
M  V30 1182 O 110.852 3.89152 0.99619 0
M  V30 1183 N 109.058 2.90446 0.0947437 0
M  V30 1184 H 108.605 2.48102 -0.693035 0
M  V30 1185 H 108.563 2.99451 0.957932 0
M  V30 1186 N 112.336 1.25143 0.95797 0
M  V30 1187 C 113.564 1.12424 1.73691 0
M  V30 1188 C 113.979 -0.322304 1.86029 0
M  V30 1189 O 113.336 -1.22186 1.35561 0
M  V30 1190 C 113.387 1.76933 3.15241 0
M  V30 1191 O 113.108 3.15932 3.03511 0
M  V30 1192 C 114.609 1.6995 4.09429 0
M  V30 1193 H 111.829 0.3923 0.544373 0
M  V30 1194 H 114.373 1.6544 1.20207 0
M  V30 1195 H 112.528 1.27895 3.6568 0
M  V30 1196 H 112.942 3.47598 3.9278 0
M  V30 1197 H 114.416 2.19753 5.06372 0
M  V30 1198 H 114.893 0.662619 4.34173 0
M  V30 1199 H 115.499 2.18461 3.64904 0
M  V30 1200 N 113.814 -1.1601 1.06675 0
M  V30 1201 C 114.724 -2.24156 0.692179 0
M  V30 1202 C 115.74 -1.71507 -0.293513 0
M  V30 1203 O 116.916 -2.009 -0.141861 0
M  V30 1204 C 113.981 -3.46587 0.0884131 0
M  V30 1205 C 113.042 -4.14257 1.12646 0
M  V30 1206 C 112.275 -5.30844 0.551416 0
M  V30 1207 O 112.498 -5.66858 -0.634656 0
M  V30 1208 O 111.432 -5.87848 1.29298 0
M  V30 1209 H 115.258 -2.58513 1.59388 0
M  V30 1210 H 112.843 -1.23599 0.83926 0
M  V30 1211 H 114.725 -4.20679 -0.246361 0
M  V30 1212 H 113.4 -3.13994 -0.786712 0
M  V30 1213 H 112.307 -3.42118 1.51348 0
M  V30 1214 H 113.64 -4.50914 1.97325 0
M  V30 1215 N 115.292 -0.849877 -1.32721 0
M  V30 1216 C 116.541 -0.447175 -1.96681 0
M  V30 1217 C 116.854 1.00135 -1.68025 0
M  V30 1218 O 118.06 1.50926 -2.25685 0
M  V30 1219 C 116.516 -0.7487 -3.52026 0
M  V30 1220 C 116.124 -2.21264 -3.89546 0
M  V30 1221 C 117.868 -0.413487 -4.22481 0
M  V30 1222 C 115.775 -2.45763 -5.37917 0
M  V30 1223 H 114.705 -0.163486 -0.736063 0
M  V30 1224 H 117.356 -1.03999 -1.51183 0
M  V30 1225 H 115.738 -0.0853727 -3.95908 0
M  V30 1226 H 116.912 -2.91736 -3.56689 0
M  V30 1227 H 115.227 -2.5119 -3.32103 0
M  V30 1228 H 117.824 -0.574017 -5.3161 0
M  V30 1229 H 118.167 0.644492 -4.11281 0
M  V30 1230 H 118.7 -1.03251 -3.84167 0
M  V30 1231 H 115.439 -3.50168 -5.54132 0
M  V30 1232 H 114.959 -1.79864 -5.72197 0
M  V30 1233 H 116.638 -2.29471 -6.0494 0
M  V30 1234 N 116.77 1.45427 -0.607355 0
M  V30 1235 C 117.998 2.06614 -0.108814 0
M  V30 1236 C 118.413 1.45204 1.2067 0
M  V30 1237 O 117.77 0.566132 1.73497 0
M  V30 1238 C 117.821 3.61481 0.0375347 0
M  V30 1239 O 117.542 4.20598 -1.22593 0
M  V30 1240 C 119.043 4.39652 0.567561 0
M  V30 1241 H 116.263 0.66747 -0.0687351 0
M  V30 1242 H 118.807 1.86675 -0.835022 0
M  V30 1243 H 116.962 3.80762 0.714068 0
M  V30 1244 H 117.376 5.1377 -1.05547 0
M  V30 1245 H 118.85 5.48518 0.61905 0
M  V30 1246 H 119.327 4.09417 1.58978 0
M  V30 1247 H 119.933 4.25234 -0.0749202 0
M  V30 1248 N 118.248 0.346503 1.53744 0
M  V30 1249 C 119.211 -0.496439 2.23759 0
M  V30 1250 C 120.211 -1.0252 1.2388 0
M  V30 1251 O 121.401 -0.913974 1.48297 0
M  V30 1252 C 118.533 -1.69187 2.95954 0
M  V30 1253 H 119.726 0.115952 2.99676 0
M  V30 1254 H 117.279 0.0978939 1.55993 0
M  V30 1255 H 118.014 -2.34288 2.24231 0
M  V30 1256 H 117.799 -1.31989 3.69217 0
M  V30 1257 H 119.289 -2.28969 3.49232 0
M  V30 1258 N 119.726 -1.57421 0.075193 0
M  V30 1259 C 120.975 -1.92794 -0.592731 0
M  V30 1260 C 121.288 -0.957478 -1.70563 0
M  V30 1261 O 122.494 -1.20417 -2.43335 0
M  V30 1262 C 120.95 -3.42495 -1.10569 0
M  V30 1263 C 120.558 -4.47994 -0.0236121 0
M  V30 1264 C 122.302 -3.86864 -1.74748 0
M  V30 1265 C 120.209 -5.88829 -0.550803 0
M  V30 1266 H 119.139 -0.719591 -0.225177 0
M  V30 1267 H 121.79 -1.82902 0.147978 0
M  V30 1268 H 120.172 -3.47471 -1.89947 0
M  V30 1269 H 121.346 -4.54637 0.751099 0
M  V30 1270 H 119.661 -4.13113 0.522159 0
M  V30 1271 H 122.258 -4.8947 -2.15229 0
M  V30 1272 H 122.601 -3.24417 -2.60882 0
M  V30 1273 H 123.134 -3.84504 -1.01986 0
M  V30 1274 H 119.873 -6.54929 0.273457 0
M  V30 1275 H 119.393 -5.85698 -1.29296 0
M  V30 1276 H 121.072 -6.38811 -1.02613 0
M  V30 1277 N 121.204 0.198386 -1.56346 0
M  V30 1278 C 122.136 1.26987 -1.90806 0
M  V30 1279 C 123.149 1.41877 -0.798419 0
M  V30 1280 O 124.338 1.42362 -1.07682 0
M  V30 1281 C 121.438 2.64246 -2.12196 0
M  V30 1282 C 120.611 2.71007 -3.43328 0
M  V30 1283 C 119.67 3.89439 -3.5387 0
M  V30 1284 O 118.696 3.76695 -4.26719 0
M  V30 1285 N 119.898 5.04752 -2.86715 0
M  V30 1286 H 122.663 0.977433 -2.83313 0
M  V30 1287 H 120.224 0.388322 -1.57174 0
M  V30 1288 H 122.216 3.41896 -2.1654 0
M  V30 1289 H 120.786 2.85992 -1.26204 0
M  V30 1290 H 120.006 1.79657 -3.50881 0
M  V30 1291 H 121.294 2.72512 -4.29668 0
M  V30 1292 H 120.692 5.18004 -2.2735 0
M  V30 1293 H 119.249 5.8036 -2.96691 0
M  V30 1294 N 122.682 1.50554 0.465978 0
M  V30 1295 C 124.093 1.54599 1.04671 0
M  V30 1296 C 124.444 0.352488 1.93008 0
M  V30 1297 O 123.569 -0.534044 2.09707 0
M  V30 1298 C 124.164 2.80166 1.90505 0
M  V30 1299 C 122.723 2.86876 2.43678 0
M  V30 1300 C 121.87 2.48947 1.22151 0
M  V30 1301 H 124.821 1.56744 0.248384 0
M  V30 1302 H 124.842 2.62311 2.75633 0
M  V30 1303 H 124.354 3.67013 1.26186 0
M  V30 1304 H 122.455 2.04393 3.11536 0
M  V30 1305 H 122.568 3.89885 2.78436 0
M  V30 1306 H 120.932 2.01498 1.5579 0
M  V30 1307 H 121.715 3.38107 0.594866 0
M  V30 1308 N 124.16 -0.719506 1.40217 0
M  V30 1309 C 125.107 -1.83359 1.40172 0
M  V30 1310 C 126.077 -1.64065 0.259206 0
M  V30 1311 O 127.262 -1.85254 0.456677 0
M  V30 1312 C 124.402 -3.2103 1.26624 0
M  V30 1313 C 123.515 -3.51923 2.50548 0
M  V30 1314 C 122.65 -4.79079 2.29471 0
M  V30 1315 C 121.689 -5.02863 3.48992 0
M  V30 1316 N 120.826 -6.2123 3.27135 0
M  V30 1317 H 125.666 -1.82733 2.35399 0
M  V30 1318 H 123.203 -0.892688 1.16917 0
M  V30 1319 H 125.161 -4.00524 1.16776 0
M  V30 1320 H 123.791 -3.20895 0.350176 0
M  V30 1321 H 122.843 -2.67014 2.70939 0
M  V30 1322 H 124.155 -3.6541 3.39525 0
M  V30 1323 H 123.309 -5.66582 2.16955 0
M  V30 1324 H 122.048 -4.67794 1.37913 0
M  V30 1325 H 121.053 -4.13816 3.6199 0
M  V30 1326 H 122.278 -5.16023 4.41472 0
M  V30 1327 H 120.224 -6.11204 2.38256 0
M  V30 1328 H 120.141 -6.35375 4.09675 0
M  V30 1329 H 121.409 -7.11532 3.18344 0
M  V30 1330 N 125.638 -1.25649 -0.95132 0
M  V30 1331 C 126.548 -1.08073 -2.08224 0
M  V30 1332 C 127.564 -0.0169666 -1.73992 0
M  V30 1333 O 128.74 -0.218593 -2.0021 0
M  V30 1334 C 125.805 -0.704922 -3.39458 0
M  V30 1335 C 124.866 -1.84699 -3.87537 0
M  V30 1336 C 124.099 -1.48902 -5.12508 0
M  V30 1337 O 124.322 -0.386156 -5.69091 0
M  V30 1338 O 123.256 -2.32033 -5.55378 0
M  V30 1339 H 127.082 -2.02924 -2.25954 0
M  V30 1340 H 124.667 -1.04618 -1.06656 0
M  V30 1341 H 126.549 -0.507609 -4.18332 0
M  V30 1342 H 125.224 0.214291 -3.2299 0
M  V30 1343 H 124.131 -2.09919 -3.09653 0
M  V30 1344 H 125.464 -2.74557 -4.08509 0
M  V30 1345 N 127.117 1.15442 -1.07289 0
M  V30 1346 C 128.067 2.18164 -0.662467 0
M  V30 1347 C 129.051 1.57845 0.312074 0
M  V30 1348 O 130.243 1.76552 0.125905 0
M  V30 1349 C 127.372 3.43246 -0.0611295 0
M  V30 1350 C 126.458 4.1062 -1.06077 0
M  V30 1351 N 126.849 4.53491 -2.24008 0
M  V30 1352 C 125.147 4.36949 -0.893964 0
M  V30 1353 C 125.848 5.05731 -2.87422 0
M  V30 1354 N 124.824 4.99236 -2.15091 0
M  V30 1355 H 128.626 2.49038 -1.56068 0
M  V30 1356 H 126.14 1.32003 -0.945988 0
M  V30 1357 H 128.137 4.16145 0.250792 0
M  V30 1358 H 126.797 3.13854 0.832207 0
M  V30 1359 H 127.808 4.46898 -2.6173 0
M  V30 1360 H 124.485 4.17466 -0.0534693 0
M  V30 1361 H 125.875 5.48865 -3.87553 0
M  V30 1362 N 128.595 0.856903 1.32268 0
M  V30 1363 C 129.527 0.260412 2.27716 0
M  V30 1364 C 130.54 -0.569137 1.52528 0
M  V30 1365 O 131.729 -0.39326 1.74114 0
M  V30 1366 C 128.829 -0.650477 3.32599 0
M  V30 1367 C 128.002 0.14372 4.37164 0
M  V30 1368 C 127.061 -0.69328 5.21613 0
M  V30 1369 O 126.087 -0.12599 5.69061 0
M  V30 1370 N 127.289 -2.00761 5.44679 0
M  V30 1371 H 130.054 1.08059 2.79541 0
M  V30 1372 H 127.615 0.717103 1.45152 0
M  V30 1373 H 129.607 -1.21581 3.86005 0
M  V30 1374 H 128.177 -1.37133 2.80915 0
M  V30 1375 H 127.397 0.890486 3.8401 0
M  V30 1376 H 128.685 0.68915 5.04111 0
M  V30 1377 H 128.083 -2.49181 5.07863 0
M  V30 1378 H 126.64 -2.52103 6.01072 0
M  V30 1379 N 130.073 -1.45103 0.615059 0
M  V30 1380 C 131.319 -2.02483 0.113347 0
M  V30 1381 C 131.652 -1.48146 -1.25564 0
M  V30 1382 O 130.927 -0.659104 -1.82992 0
M  V30 1383 C 131.21 -3.60005 0.0825278 0
M  V30 1384 C 131.063 -4.2466 1.48271 0
M  V30 1385 C 132.382 -4.35972 -0.601401 0
M  V30 1386 H 129.501 -0.735764 0.0426632 0
M  V30 1387 H 132.143 -1.72868 0.788461 0
M  V30 1388 H 130.293 -3.85367 -0.492378 0
M  V30 1389 H 131.965 -4.10458 2.10527 0
M  V30 1390 H 130.208 -3.82772 2.04127 0
M  V30 1391 H 130.879 -5.336 1.41332 0
M  V30 1392 H 133.355 -4.15947 -0.112666 0
M  V30 1393 H 132.231 -5.45697 -0.592097 0
M  V30 1394 H 132.492 -4.09391 -1.66887 0
M  V30 1395 N 131.551 -0.354651 -1.53558 0
M  V30 1396 C 132.779 0.239515 -2.05509 0
M  V30 1397 C 133.194 1.4333 -1.2289 0
M  V30 1398 O 132.551 1.80538 -0.266899 0
M  V30 1399 C 132.602 0.643719 -3.55723 0
M  V30 1400 O 132.323 -0.502602 -4.35207 0
M  V30 1401 C 133.824 1.29743 -4.23889 0
M  V30 1402 H 131.044 0.0442697 -0.669538 0
M  V30 1403 H 133.588 -0.509856 -1.98042 0
M  V30 1404 H 131.743 1.34302 -3.63376 0
M  V30 1405 H 132.157 -0.178172 -5.24197 0
M  V30 1406 H 133.631 1.53091 -5.30346 0
M  V30 1407 H 134.108 2.25441 -3.76926 0
M  V30 1408 H 134.714 0.639865 -4.20459 0
M  V30 1409 N 133.029 1.57378 -0.0835403 0
M  V30 1410 C 134.275 1.94217 0.583733 0
M  V30 1411 C 134.608 0.964653 1.68547 0
M  V30 1412 O 133.883 -0.00422258 1.945 0
M  V30 1413 C 134.166 3.41253 1.14972 0
M  V30 1414 C 134.019 4.49768 0.0538277 0
M  V30 1415 C 135.338 3.89352 2.05166 0
M  V30 1416 H 132.457 0.706233 0.210724 0
M  V30 1417 H 135.099 1.89392 -0.1519 0
M  V30 1418 H 133.249 3.45496 1.77665 0
M  V30 1419 H 134.921 4.57641 -0.579851 0
M  V30 1420 H 133.164 4.29432 -0.614068 0
M  V30 1421 H 133.835 5.49817 0.490452 0
M  V30 1422 H 136.311 3.87189 1.52393 0
M  V30 1423 H 135.187 4.92822 2.41698 0
M  V30 1424 H 135.448 3.27973 2.96456 0
M  V30 1425 N 134.507 -0.190092 1.56449 0
M  V30 1426 C 135.454 -1.23557 1.94942 0
M  V30 1427 C 136.424 -1.44972 0.810696 0
M  V30 1428 O 137.609 -1.58023 1.06927 0
M  V30 1429 C 134.749 -2.57416 2.2985 0
M  V30 1430 C 133.862 -2.43537 3.5681 0
M  V30 1431 C 132.997 -3.70134 3.81017 0
M  V30 1432 C 132.036 -3.51109 5.01387 0
M  V30 1433 N 131.173 -4.6973 5.21822 0
M  V30 1434 H 136.013 -0.900304 2.84075 0
M  V30 1435 H 133.55 -0.43318 1.40577 0
M  V30 1436 H 135.508 -3.35409 2.48106 0
M  V30 1437 H 134.138 -2.88975 1.43852 0
M  V30 1438 H 133.19 -1.56816 3.46573 0
M  V30 1439 H 134.502 -2.25415 4.4496 0
M  V30 1440 H 133.656 -4.56566 3.9954 0
M  V30 1441 H 132.395 -3.91215 2.91207 0
M  V30 1442 H 131.4 -2.63063 4.82782 0
M  V30 1443 H 132.625 -3.31468 5.9271 0
M  V30 1444 H 130.571 -4.91065 4.34961 0
M  V30 1445 H 130.488 -4.54452 6.0416 0
M  V30 1446 H 131.756 -5.57499 5.44808 0
M  V30 1447 N 135.985 -1.50799 -0.457987 0
M  V30 1448 C 137.262 -1.52968 -1.21902 0
M  V30 1449 C 137.642 -0.281906 -2.09209 0
M  V30 1450 O 136.99 0.734076 -2.16388 0
M  V30 1451 C 137.2 -2.8326 -2.03875 0
M  V30 1452 C 138.548 -3.34425 -2.6162 0
M  V30 1453 O 139.572 -2.8467 -2.14106 0
M  V30 1454 O 138.431 -4.21188 -3.48228 0
M  V30 1455 H 135.525 -0.614129 -0.553873 0
M  V30 1456 H 138.071 -1.63098 -0.468739 0
M  V30 1457 H 136.843 -3.65543 -1.39621 0
M  V30 1458 H 136.466 -2.76195 -2.8601 0
M  V30 1459 N 137.463 0.71206 -1.40597 0
M  V30 1460 C 138.393 1.83889 -1.43899 0
M  V30 1461 C 139.374 1.67442 -0.299504 0
M  V30 1462 O 140.559 1.87421 -0.508624 0
M  V30 1463 C 137.689 3.21877 -1.30431 0
M  V30 1464 C 136.643 3.53002 -2.42019 0
M  V30 1465 C 135.969 4.90172 -2.13626 0
M  V30 1466 C 137.269 3.53643 -3.84362 0
M  V30 1467 H 138.963 1.81383 -2.38203 0
M  V30 1468 H 136.509 0.871237 -1.14654 0
M  V30 1469 H 138.462 4.00404 -1.31357 0
M  V30 1470 H 137.186 3.24968 -0.326049 0
M  V30 1471 H 135.845 2.76818 -2.40349 0
M  V30 1472 H 135.493 4.89869 -1.14182 0
M  V30 1473 H 135.193 5.11962 -2.88389 0
M  V30 1474 H 136.717 5.71028 -2.1624 0
M  V30 1475 H 138.131 4.22203 -3.87837 0
M  V30 1476 H 136.528 3.86961 -4.58673 0
M  V30 1477 H 137.598 2.52954 -4.13693 0
M  V30 1478 N 138.941 1.26152 0.944643 0
M  V30 1479 C 140.187 1.11657 1.69294 0
M  V30 1480 C 140.52 -0.339926 1.91202 0
M  V30 1481 O 139.795 -1.24994 1.49019 0
M  V30 1482 C 140.078 1.88236 3.06984 0
M  V30 1483 C 139.931 3.41772 2.92424 0
M  V30 1484 C 141.25 1.67343 4.07043 0
M  V30 1485 H 138.369 0.407004 0.614424 0
M  V30 1486 H 141.011 1.55106 1.09737 0
M  V30 1487 H 139.161 1.51308 3.57824 0
M  V30 1488 H 140.833 3.88433 2.48832 0
M  V30 1489 H 139.076 3.68974 2.28124 0
M  V30 1490 H 139.747 3.90579 3.90067 0
M  V30 1491 H 142.223 1.99509 3.65151 0
M  V30 1492 H 141.099 2.23346 5.01406 0
M  V30 1493 H 141.36 0.617158 4.37771 0
M  V30 1494 N 140.419 -1.14872 1.07899 0
M  V30 1495 C 141.644 -1.90202 0.826926 0
M  V30 1496 C 142.069 -1.77774 -0.614664 0
M  V30 1497 O 141.427 -1.11431 -1.43013 0
M  V30 1498 C 141.475 -3.38352 1.24702 0
M  V30 1499 O 140.579 -4.10497 0.39575 0
M  V30 1500 H 139.92 -0.591968 0.300782 0
M  V30 1501 H 142.45 -1.45437 1.43907 0
M  V30 1502 H 142.46 -3.89156 1.22563 0
M  V30 1503 H 141.135 -3.46715 2.29698 0
M  V30 1504 H 139.712 -3.69796 0.480117 0
M  V30 1505 N 141.898 -0.863906 -1.31812 0
M  V30 1506 C 143.146 -0.470904 -1.96537 0
M  V30 1507 C 143.467 0.978771 -1.68657 0
M  V30 1508 O 142.737 1.6853 -0.998717 0
M  V30 1509 H 141.317 -0.171148 -0.72713 0
M  V30 1510 H 143.979 -1.10236 -1.60729 0
M  V30 1511 H 143.075 -0.623616 -3.05806 0
M  V30 1512 N 143.376 1.44774 -0.622745 0
M  V30 1513 C 144.286 2.34433 0.0886031 0
M  V30 1514 C 145.302 1.52131 0.844529 0
M  V30 1515 O 146.478 1.84886 0.798691 0
M  V30 1516 C 143.543 3.29986 1.0635 0
M  V30 1517 C 142.604 4.28195 0.307873 0
M  V30 1518 C 141.837 5.19183 1.23633 0
M  V30 1519 O 142.06 5.13918 2.47476 0
M  V30 1520 O 140.994 5.97515 0.725189 0
M  V30 1521 H 144.82 2.96693 -0.648599 0
M  V30 1522 H 142.405 1.44408 -0.382957 0
M  V30 1523 H 144.287 3.88825 1.6246 0
M  V30 1524 H 142.962 2.70269 1.78146 0
M  V30 1525 H 141.869 3.72927 -0.296064 0
M  V30 1526 H 143.202 4.90808 -0.3699 0
M  V30 1527 N 144.854 0.36279 1.53368 0
M  V30 1528 C 145.764 -0.492994 2.29362 0
M  V30 1529 C 146.78 -1.09507 1.35219 0
M  V30 1530 O 147.956 -1.10662 1.68273 0
M  V30 1531 C 145.021 -1.61855 3.066 0
M  V30 1532 C 144.082 -1.04429 4.16405 0
M  V30 1533 C 143.315 -2.11621 4.89951 0
M  V30 1534 O 143.538 -3.32684 4.63333 0
M  V30 1535 O 142.472 -1.74835 5.75948 0
M  V30 1536 H 146.298 0.125331 3.03441 0
M  V30 1537 H 143.883 0.127253 1.48857 0
M  V30 1538 H 145.765 -2.27302 3.54841 0
M  V30 1539 H 144.44 -2.22233 2.3536 0
M  V30 1540 H 143.347 -0.353819 3.72423 0
M  V30 1541 H 144.68 -0.485113 4.89804 0
M  V30 1542 N 146.332 -1.57332 0.0918853 0
M  V30 1543 C 147.748 -1.57389 -0.264766 0
M  V30 1544 C 147.948 -1.10281 -1.68643 0
M  V30 1545 O 147.004 -0.777801 -2.40222 0
M  V30 1546 C 148.317 -3.00648 -0.0561195 0
M  V30 1547 C 149.865 -3.12754 -0.124116 0
M  V30 1548 C 150.34 -4.57965 0.0564972 0
M  V30 1549 N 151.831 -4.632 0.00155611 0
M  V30 1550 C 152.566 -5.73281 0.116598 0
M  V30 1551 N 152.062 -6.92208 0.286294 0
M  V30 1552 N 153.855 -5.6207 0.0580973 0
M  V30 1553 H 146.006 -1.86262 1.02079 0
M  V30 1554 H 148.269 -0.859579 0.399786 0
M  V30 1555 H 147.975 -3.393 0.925669 0
M  V30 1556 H 147.849 -3.68623 -0.799823 0
M  V30 1557 H 150.236 -2.73976 -1.09641 0
M  V30 1558 H 150.317 -2.47377 0.651024 0
M  V30 1559 H 149.961 -4.97436 1.02564 0
M  V30 1560 H 149.891 -5.21399 -0.738297 0
M  V30 1561 H 152.382 -3.77686 -0.127192 0
M  V30 1562 H 152.695 -7.71934 0.365676 0
M  V30 1563 H 151.04 -6.94254 0.32192 0
M  V30 1564 H 154.231 -4.68043 -0.0733204 0
M  V30 1565 H 154.404 -6.47824 0.151203 0
M  V30 1566 N 147.81 0.181792 -1.56548 0
M  V30 1567 C 149.056 0.901431 -1.81665 0
M  V30 1568 C 149.389 1.82347 -0.668075 0
M  V30 1569 O 148.664 1.91669 0.330615 0
M  V30 1570 C 148.947 1.70618 -3.17115 0
M  V30 1571 C 148.8 0.807964 -4.42484 0
M  V30 1572 C 150.119 2.67605 -3.49393 0
M  V30 1573 H 147.238 0.32627 -0.660846 0
M  V30 1574 H 149.88 0.168134 -1.89255 0
M  V30 1575 H 148.03 2.33133 -3.10775 0
M  V30 1576 H 149.702 0.19649 -4.60881 0
M  V30 1577 H 147.945 0.115411 -4.33646 0
M  V30 1578 H 148.616 1.40632 -5.33785 0
M  V30 1579 H 151.092 2.15218 -3.56118 0
M  V30 1580 H 149.968 3.20985 -4.45264 0
M  V30 1581 H 150.229 3.47298 -2.73563 0
M  V30 1582 N 149.288 1.51039 0.449983 0
M  V30 1583 C 150.198 1.74261 1.57067 0
M  V30 1584 C 151.214 0.626363 1.62335 0
M  V30 1585 O 152.39 0.907162 1.79812 0
M  V30 1586 C 149.455 1.85114 2.93144 0
M  V30 1587 C 148.516 3.0893 2.98095 0
M  V30 1588 C 147.749 3.19256 4.27681 0
M  V30 1589 O 147.972 2.35835 5.19363 0
M  V30 1590 O 146.906 4.12144 4.38658 0
M  V30 1591 H 150.732 2.69303 1.40391 0
M  V30 1592 H 148.317 1.35389 0.631688 0
M  V30 1593 H 150.199 1.94311 3.73926 0
M  V30 1594 H 148.874 0.932588 3.09975 0
M  V30 1595 H 147.781 3.0522 2.16314 0
M  V30 1596 H 149.114 4.00433 2.86206 0
M  V30 1597 N 150.766 -0.704594 1.40972 0
M  V30 1598 C 151.714 -1.83994 1.42299 0
M  V30 1599 C 152.708 -1.66684 0.302111 0
M  V30 1600 O 153.914 -1.73655 0.473697 0
M  V30 1601 H 150.289 -0.606171 0.44504 0
M  V30 1602 H 152.26 -1.79992 2.38003 0
M  V30 1603 C 151.009 -3.21946 1.31323 0
M  V30 1604 H 150.332 -3.35878 2.16855 0
M  V30 1605 H 151.772 -4.01491 1.36311 0
M  V30 1606 C 150.231 -3.36891 0.0245977 0
M  V30 1607 O 150.761 -3.90687 -0.934153 0
M  V30 1608 N 148.967 -2.90559 -0.0485243 0
M  V30 1609 H 148.514 -2.46968 0.732419 0
M  V30 1610 H 148.472 -3.00937 -0.910171 0
M  V30 1611 N 152.244 -1.26651 -0.937939 0
M  V30 1612 C 153.474 -1.15006 -1.71631 0
M  V30 1613 C 153.882 0.297026 -1.86854 0
M  V30 1614 O 153.225 1.21493 -1.37786 0
M  V30 1615 C 153.287 -1.74984 -3.14039 0
M  V30 1616 C 152.951 -3.24103 -3.2219 0
M  V30 1617 C 153.948 -4.20877 -3.05219 0
M  V30 1618 C 151.633 -3.64625 -3.45476 0
M  V30 1619 C 153.627 -5.56151 -3.11408 0
M  V30 1620 C 151.314 -5.00032 -3.513 0
M  V30 1621 C 152.312 -5.95604 -3.34282 0
M  V30 1622 O 152 -7.28545 -3.3982 0
M  V30 1623 H 151.732 -0.401183 -0.544085 0
M  V30 1624 H 154.286 -1.67832 -1.18413 0
M  V30 1625 H 152.516 -1.16624 -3.68695 0
M  V30 1626 H 154.205 -1.58199 -3.73802 0
M  V30 1627 H 154.971 -3.90908 -2.87081 0
M  V30 1628 H 150.85 -2.90718 -3.57777 0
M  V30 1629 H 154.394 -6.30727 -2.98043 0
M  V30 1630 H 150.291 -5.29659 -3.68959 0
M  V30 1631 H 151.059 -7.3686 -3.56343 0
M  V30 1632 N 153.722 1.14298 -1.08507 0
M  V30 1633 C 154.999 1.81544 -0.728088 0
M  V30 1634 C 155.379 1.95838 0.78808 0
M  V30 1635 O 154.727 1.51904 1.70697 0
M  V30 1636 C 154.937 3.17169 -1.45619 0
M  V30 1637 C 156.285 3.9265 -1.61591 0
M  V30 1638 O 157.309 3.26762 -1.41793 0
M  V30 1639 O 156.168 5.10807 -1.94263 0
M  V30 1640 H 153.262 0.78491 -0.260471 0
M  V30 1641 H 155.808 1.21307 -1.18671 0
M  V30 1642 H 154.58 3.01934 -2.489 0
M  V30 1643 H 154.203 3.851 -0.989124 0
M  V30 1644 N 155.201 0.870884 1.31352 0
M  V30 1645 C 156.148 0.325425 2.28494 0
M  V30 1646 C 157.118 -0.576615 1.5577 0
M  V30 1647 O 158.303 -0.508059 1.83911 0
M  V30 1648 C 155.443 -0.466283 3.41935 0
M  V30 1649 C 154.556 0.463378 4.29508 0
M  V30 1650 C 153.691 -0.342544 5.30094 0
M  V30 1651 C 152.73 0.583486 6.09313 0
M  V30 1652 N 151.867 -0.186244 7.01853 0
M  V30 1653 H 156.707 1.15901 2.74538 0
M  V30 1654 H 154.244 0.58294 1.35056 0
M  V30 1655 H 156.202 -0.941085 4.06447 0
M  V30 1656 H 154.832 -1.26456 2.97 0
M  V30 1657 H 153.884 1.05663 3.65431 0
M  V30 1658 H 155.196 1.1734 4.84802 0
M  V30 1659 H 154.35 -0.879816 6.00287 0
M  V30 1660 H 153.089 -1.08585 4.75458 0
M  V30 1661 H 152.094 1.13251 5.3801 0
M  V30 1662 H 153.319 1.32566 6.66035 0
M  V30 1663 H 151.265 -0.912348 6.49625 0
M  V30 1664 H 151.182 0.464422 7.54572 0
M  V30 1665 H 152.45 -0.704716 7.76308 0
M  V30 1666 N 156.679 -1.44442 0.630414 0
M  V30 1667 C 157.609 -2.33418 -0.0618083 0
M  V30 1668 C 158.59 -1.48165 -0.835541 0
M  V30 1669 O 159.775 -1.76886 -0.801564 0
M  V30 1670 C 156.905 -3.31222 -1.04449 0
M  V30 1671 C 155.859 -4.26288 -0.382436 0
M  V30 1672 C 155.185 -5.13954 -1.47497 0
M  V30 1673 C 156.485 -5.1744 0.710865 0
M  V30 1674 H 158.179 -2.91548 0.681184 0
M  V30 1675 H 155.725 -1.40191 0.329026 0
M  V30 1676 H 157.678 -3.92351 -1.53748 0
M  V30 1677 H 156.402 -2.71299 -1.81836 0
M  V30 1678 H 155.061 -3.6649 0.0899054 0
M  V30 1679 H 154.709 -4.50385 -2.2397 0
M  V30 1680 H 154.409 -5.7837 -1.03737 0
M  V30 1681 H 155.933 -5.77955 -1.96979 0
M  V30 1682 H 157.347 -5.72509 0.300996 0
M  V30 1683 H 155.744 -5.90455 1.07156 0
M  V30 1684 H 156.814 -4.58496 1.57829 0
M  V30 1685 N 158.157 -0.370918 -1.53173 0
M  V30 1686 C 159.406 0.218249 -2.00516 0
M  V30 1687 C 159.719 1.49429 -1.26215 0
M  V30 1688 O 160.925 2.16239 -1.64174 0
M  V30 1689 C 159.381 0.43948 -3.57207 0
M  V30 1690 C 158.989 -0.822244 -4.4039 0
M  V30 1691 C 160.733 0.986012 -4.1289 0
M  V30 1692 C 158.64 -0.570304 -5.88644 0
M  V30 1693 H 157.57 0.0853333 -0.749156 0
M  V30 1694 H 160.221 -0.490483 -1.76823 0
M  V30 1695 H 158.603 1.20961 -3.77074 0
M  V30 1696 H 159.777 -1.59557 -4.32294 0
M  V30 1697 H 158.092 -1.29238 -3.95836 0
M  V30 1698 H 160.689 1.18991 -5.21292 0
M  V30 1699 H 161.032 1.94972 -3.6782 0
M  V30 1700 H 161.565 0.27592 -3.96842 0
M  V30 1701 H 158.304 -1.50449 -6.38001 0
M  V30 1702 H 157.824 0.164427 -5.99575 0
M  V30 1703 H 159.503 -0.19784 -6.46697 0
M  V30 1704 N 159.635 1.57281 -0.100228 0
M  V30 1705 C 160.884 1.93713 0.561984 0
M  V30 1706 C 161.197 0.984492 1.69018 0
M  V30 1707 O 162.403 1.24273 2.41389 0
M  V30 1708 C 160.859 3.4421 1.05106 0
M  V30 1709 C 160.467 4.47975 -0.0476628 0
M  V30 1710 C 162.211 3.89595 1.68571 0
M  V30 1711 C 160.118 5.89631 0.457055 0
M  V30 1712 H 159.048 0.723082 0.2137 0
M  V30 1713 H 161.699 1.82644 -0.177057 0
M  V30 1714 H 160.081 3.50449 1.84395 0
M  V30 1715 H 161.255 4.53385 -0.823333 0
M  V30 1716 H 159.57 4.1223 -0.587816 0
M  V30 1717 H 162.167 4.92832 2.07414 0
M  V30 1718 H 162.51 3.28526 2.55688 0
M  V30 1719 H 163.043 3.86078 0.958562 0
M  V30 1720 H 159.782 6.54411 -0.377616 0
M  V30 1721 H 159.302 5.87681 1.19962 0
M  V30 1722 H 160.981 6.40363 0.92437 0
M  V30 1723 N 161.113 -0.173488 1.56642 0
M  V30 1724 C 162.338 -0.910149 1.86363 0
M  V30 1725 C 162.763 -1.75132 0.686318 0
M  V30 1726 O 162.121 -1.77595 -0.364643 0
M  V30 1727 C 162.169 -1.76447 3.14482 0
M  V30 1728 O 161.273 -2.86584 2.96553 0
M  V30 1729 H 160.614 -0.255086 0.613047 0
M  V30 1730 H 163.144 -0.172283 2.03873 0
M  V30 1731 H 163.154 -2.16483 3.45831 0
M  V30 1732 H 161.829 -1.14658 3.99783 0
M  V30 1733 H 160.406 -2.50146 2.76553 0
M  V30 1734 N 162.591 -1.51276 -0.441967 0
M  V30 1735 C 164.002 -1.56244 -1.02199 0
M  V30 1736 C 164.353 -0.383149 -1.92422 0
M  V30 1737 O 163.478 0.500613 -2.1053 0
M  V30 1738 C 164.073 -2.83162 -1.86024 0
M  V30 1739 C 162.632 -2.90716 -2.39084 0
M  V30 1740 C 161.779 -2.50858 -1.18175 0
M  V30 1741 H 164.73 -1.5712 -0.223416 0
M  V30 1742 H 164.751 -2.66663 -2.71425 0
M  V30 1743 H 164.263 -3.68974 -1.20331 0
M  V30 1744 H 162.364 -2.09323 -3.08244 0
M  V30 1745 H 162.477 -3.94266 -2.72198 0
M  V30 1746 H 160.841 -2.03951 -1.52565 0
M  V30 1747 H 161.624 -3.3901 -0.541001 0
M  V30 1748 N 164.069 0.697108 -1.41344 0
M  V30 1749 C 165.317 1.45426 -1.40341 0
M  V30 1750 C 165.638 1.94996 -0.0128787 0
M  V30 1751 O 164.908 1.71599 0.945027 0
M  V30 1752 H 163.488 0.539594 -0.516573 0
M  V30 1753 H 166.15 0.825201 -1.76569 0
M  V30 1754 H 165.246 2.31817 -2.08967 0
M  V30 1755 N 165.547 1.27147 0.931209 0
M  V30 1756 C 166.51 1.09615 2.01289 0
M  V30 1757 C 167.51 0.0412581 1.60747 0
M  V30 1758 O 168.7 0.285545 1.71844 0
M  V30 1759 C 165.832 0.669447 3.34262 0
M  V30 1760 H 167.025 2.05662 2.18273 0
M  V30 1761 H 164.578 1.09885 1.11153 0
M  V30 1762 H 165.313 -0.292572 3.22978 0
M  V30 1763 H 165.098 1.43127 3.65044 0
M  V30 1764 H 166.588 0.568921 4.13706 0
M  V30 1765 N 167.025 -1.13721 1.09112 0
M  V30 1766 C 168.271 -1.85198 0.826414 0
M  V30 1767 C 168.604 -1.83129 -0.646319 0
M  V30 1768 O 167.879 -1.2671 -1.47563 0
M  V30 1769 C 168.162 -3.33507 1.35812 0
M  V30 1770 C 168.015 -3.44108 2.89672 0
M  V30 1771 C 169.334 -4.28838 0.989256 0
M  V30 1772 H 166.453 -0.67243 0.301675 0
M  V30 1773 H 169.095 -1.33499 1.35197 0
M  V30 1774 H 167.245 -3.77666 0.911082 0
M  V30 1775 H 168.917 -3.08684 3.428 0
M  V30 1776 H 167.16 -2.85087 3.26967 0
M  V30 1777 H 167.831 -4.48388 3.21951 0
M  V30 1778 H 170.307 -3.92734 1.37475 0
M  V30 1779 H 169.183 -5.31051 1.38838 0
M  V30 1780 H 169.444 -4.4198 -0.102924 0
M  V30 1781 N 168.503 -0.877838 -1.30888 0
M  V30 1782 C 169.914 -0.544193 -1.78593 0
M  V30 1783 C 170.265 0.939301 -1.72254 0
M  V30 1784 O 169.39 1.7337 -1.29505 0
M  V30 1785 C 169.985 -0.98105 -3.24285 0
M  V30 1786 C 168.544 -0.698935 -3.69854 0
M  V30 1787 C 167.691 -1.168 -2.51502 0
M  V30 1788 H 170.642 -1.06278 -1.17859 0
M  V30 1789 H 170.663 -0.307009 -3.79259 0
M  V30 1790 H 170.175 -2.06079 -3.28866 0
M  V30 1791 H 168.276 0.369112 -3.70767 0
M  V30 1792 H 168.389 -1.28148 -4.61644 0
M  V30 1793 H 166.753 -0.587535 -2.47831 0
M  V30 1794 H 167.536 -2.25533 -2.58824 0
M  V30 1795 N 169.982 1.44106 -0.638065 0
M  V30 1796 C 171.229 2.01978 -0.14533 0
M  V30 1797 C 171.557 1.50234 1.23532 0
M  V30 1798 O 170.812 0.679548 1.83523 0
M  V30 1799 C 171.111 3.5729 -0.0887327 0
M  V30 1800 C 170.777 4.28317 -1.40909 0
M  V30 1801 C 169.439 4.47437 -1.77069 0
M  V30 1802 C 171.791 4.6867 -2.28031 0
M  V30 1803 C 169.119 5.04171 -3.00047 0
M  V30 1804 C 171.471 5.26766 -3.50286 0
M  V30 1805 C 170.135 5.44104 -3.86661 0
M  V30 1806 H 169.405 0.739089 -0.0531801 0
M  V30 1807 H 172.052 1.72781 -0.825761 0
M  V30 1808 H 170.357 3.8594 0.675095 0
M  V30 1809 H 172.054 3.99807 0.309145 0
M  V30 1810 H 168.644 4.1377 -1.1177 0
M  V30 1811 H 172.828 4.53604 -2.01388 0
M  V30 1812 H 168.084 5.15782 -3.28298 0
M  V30 1813 H 172.258 5.56983 -4.18023 0
M  V30 1814 H 169.885 5.87832 -4.82034 0
M  V30 1815 N 171.46 0.379036 1.52974 0
M  V30 1816 C 172.37 -0.468639 2.29872 0
M  V30 1817 C 173.386 -1.08067 1.36373 0
M  V30 1818 O 174.562 -1.08871 1.69438 0
M  V30 1819 C 171.627 -1.58594 3.083 0
M  V30 1820 C 170.688 -1.00007 4.17489 0
M  V30 1821 C 169.921 -2.06413 4.92168 0
M  V30 1822 O 170.144 -3.27751 4.66835 0
M  V30 1823 O 169.078 -1.68717 5.7777 0
M  V30 1824 H 172.904 0.157508 3.03291 0
M  V30 1825 H 170.489 0.143035 1.48714 0
M  V30 1826 H 172.371 -2.23525 3.57232 0
M  V30 1827 H 171.046 -2.19724 2.37703 0
M  V30 1828 H 169.953 -0.314299 3.72777 0
M  V30 1829 H 171.286 -0.433135 4.90291 0
M  V30 1830 N 172.938 -1.57226 0.108567 0
M  V30 1831 C 173.868 -2.17778 -0.84232 0
M  V30 1832 C 174.849 -1.11487 -1.2847 0
M  V30 1833 O 176.034 -1.39681 -1.34918 0
M  V30 1834 C 173.164 -2.76888 -2.09644 0
M  V30 1835 C 172.118 -3.88669 -1.79221 0
M  V30 1836 C 171.444 -4.34541 -3.11574 0
M  V30 1837 C 172.744 -5.11251 -1.06864 0
M  V30 1838 H 174.438 -2.97489 -0.337774 0
M  V30 1839 H 171.984 -1.43097 -0.161025 0
M  V30 1840 H 173.937 -3.17904 -2.76614 0
M  V30 1841 H 172.661 -1.94451 -2.62405 0
M  V30 1842 H 171.32 -3.48213 -1.14644 0
M  V30 1843 H 170.968 -3.48977 -3.62249 0
M  V30 1844 H 170.668 -5.09914 -2.91996 0
M  V30 1845 H 172.192 -4.782 -3.7968 0
M  V30 1846 H 173.606 -5.49352 -1.63968 0
M  V30 1847 H 172.003 -5.9214 -0.974178 0
M  V30 1848 H 173.073 -4.8487 -0.0536168 0
M  V30 1849 N 174.416 0.165178 -1.56732 0
M  V30 1850 C 175.693 0.908443 -1.73224 0
M  V30 1851 C 176.073 2.0013 -0.67165 0
M  V30 1852 O 175.421 2.26353 0.31253 0
M  V30 1853 C 175.631 1.46756 -3.16644 0
M  V30 1854 C 176.979 1.93809 -3.77787 0
M  V30 1855 O 178.003 1.56537 -3.1996 0
M  V30 1856 O 176.862 2.62486 -4.79336 0
M  V30 1857 H 173.956 0.428025 -0.707618 0
M  V30 1858 H 176.502 0.152526 -1.69013 0
M  V30 1859 H 175.274 0.68129 -3.85323 0
M  V30 1860 H 174.897 2.28749 -3.25207 0
M  V30 1861 N 175.894 1.51508 0.433938 0
M  V30 1862 C 177.143 1.63578 1.18005 0
M  V30 1863 C 177.456 0.359514 1.92268 0
M  V30 1864 O 178.662 0.359632 2.69108 0
M  V30 1865 C 177.118 2.88901 2.14626 0
M  V30 1866 C 176.726 4.23544 1.45995 0
M  V30 1867 C 178.47 3.10328 2.89649 0
M  V30 1868 C 176.377 5.40014 2.4112 0
M  V30 1869 H 175.307 0.609277 0.444182 0
M  V30 1870 H 177.958 1.77978 0.446773 0
M  V30 1871 H 176.34 2.68142 2.91403 0
M  V30 1872 H 177.514 4.54696 0.747532 0
M  V30 1873 H 175.829 4.08021 0.831115 0
M  V30 1874 H 178.426 3.94518 3.60915 0
M  V30 1875 H 178.769 2.23544 3.51189 0
M  V30 1876 H 179.302 3.31443 2.19978 0
M  V30 1877 H 176.041 6.29068 1.84264 0
M  V30 1878 H 175.561 5.13233 3.10406 0
M  V30 1879 H 177.24 5.72099 3.02177 0
M  V30 1880 N 177.372 -0.689602 1.41712 0
M  V30 1881 C 178.783 -1.26973 1.36875 0
M  V30 1882 C 179.134 -1.96124 0.054748 0
M  V30 1883 O 178.259 -1.99141 -0.84687 0
M  V30 1884 C 178.854 -2.30912 2.47922 0
M  V30 1885 C 177.413 -2.84486 2.46464 0
M  V30 1886 C 176.56 -1.58603 2.27465 0
M  V30 1887 H 179.511 -0.48396 1.51141 0
M  V30 1888 H 179.532 -3.12331 2.17323 0
M  V30 1889 H 179.044 -1.80554 3.43543 0
M  V30 1890 H 177.145 -3.39005 1.54617 0
M  V30 1891 H 177.258 -3.34511 3.42986 0
M  V30 1892 H 175.622 -1.84632 1.75451 0
M  V30 1893 H 176.405 -1.10233 3.25121 0
M  V30 1894 N 178.85 -1.27639 -0.924453 0
M  V30 1895 C 180.098 -1.13941 -1.66918 0
M  V30 1896 C 180.419 0.314589 -1.92446 0
M  V30 1897 O 179.689 1.21964 -1.53303 0
M  V30 1898 H 178.269 -0.418678 -0.618642 0
M  V30 1899 H 180.931 -1.60213 -1.10985 0
M  V30 1900 H 180.027 -1.67094 -2.63602 0
M  V30 1901 N 180.328 1.1314 -1.09713 0
M  V30 1902 C 181.275 2.18642 -0.739196 0
M  V30 1903 C 182.245 1.63706 0.280978 0
M  V30 1904 O 183.43 1.90111 0.161946 0
M  V30 1905 C 180.57 3.44685 -0.169102 0
M  V30 1906 C 179.683 4.13711 -1.24367 0
M  V30 1907 C 178.818 5.27379 -0.636019 0
M  V30 1908 C 177.857 5.88259 -1.69169 0
M  V30 1909 N 176.994 6.93352 -1.10485 0
M  V30 1910 H 181.834 2.48607 -1.64312 0
M  V30 1911 H 179.371 1.22066 -0.820875 0
M  V30 1912 H 181.329 4.16815 0.179256 0
M  V30 1913 H 179.959 3.15161 0.698079 0
M  V30 1914 H 179.011 3.39835 -1.70927 0
M  V30 1915 H 180.323 4.55037 -2.04311 0
M  V30 1916 H 179.477 6.06238 -0.236677 0
M  V30 1917 H 178.216 4.8731 0.194928 0
M  V30 1918 H 177.221 5.08092 -2.10055 0
M  V30 1919 H 178.446 6.30399 -2.52536 0
M  V30 1920 H 176.392 6.55335 -0.295234 0
M  V30 1921 H 176.309 7.33236 -1.84121 0
M  V30 1922 H 177.577 7.76057 -0.73181 0
M  V30 1923 N 181.806 0.884767 1.30421 0
M  V30 1924 C 183.083 0.423185 1.90967 0
M  V30 1925 C 183.463 -1.09605 1.80416 0
M  V30 1926 O 182.811 -1.93126 1.22125 0
M  V30 1927 C 183.021 0.921056 3.36627 0
M  V30 1928 C 184.369 0.955903 4.137 0
M  V30 1929 O 185.393 0.867706 3.4547 0
M  V30 1930 O 184.252 1.08614 5.35598 0
M  V30 1931 H 181.346 0.129369 0.816819 0
M  V30 1932 H 183.892 0.973653 1.3899 0
M  V30 1933 H 182.664 1.96489 3.3839 0
M  V30 1934 H 182.287 0.349741 3.96059 0
M  V30 1935 N 183.284 -1.43765 0.645699 0
M  V30 1936 C 184.214 -2.33471 -0.0370477 0
M  V30 1937 C 185.195 -1.49042 -0.819779 0
M  V30 1938 O 186.38 -1.77726 -0.782758 0
M  V30 1939 C 183.51 -3.32311 -1.0093 0
M  V30 1940 C 182.464 -4.2667 -0.337201 0
M  V30 1941 C 181.79 -5.1549 -1.42037 0
M  V30 1942 C 183.09 -5.16657 0.765706 0
M  V30 1943 H 184.784 -2.90809 0.712069 0
M  V30 1944 H 182.33 -1.39834 0.343876 0
M  V30 1945 H 184.283 -3.9396 -1.49578 0
M  V30 1946 H 183.007 -2.73213 -1.78948 0
M  V30 1947 H 181.666 -3.66374 0.128771 0
M  V30 1948 H 181.314 -4.52735 -2.1918 0
M  V30 1949 H 181.014 -5.79438 -0.975966 0
M  V30 1950 H 182.538 -5.80012 -1.90838 0
M  V30 1951 H 183.952 -5.72158 0.361702 0
M  V30 1952 H 182.349 -5.89286 1.13413 0
M  V30 1953 H 183.419 -4.56796 1.62683 0
M  V30 1954 N 184.763 -0.387143 -1.52771 0
M  V30 1955 C 186.04 0.253197 -1.93954 0
M  V30 1956 C 186.42 1.64545 -1.32243 0
M  V30 1957 O 185.768 2.23191 -0.489699 0
M  V30 1958 C 185.978 0.281722 -3.47861 0
M  V30 1959 C 187.326 0.511715 -4.21505 0
M  V30 1960 O 188.35 0.362023 -3.54356 0
M  V30 1961 O 187.209 0.804847 -5.40541 0
M  V30 1962 H 184.303 0.156845 -0.811991 0
M  V30 1963 H 186.849 -0.441494 -1.63856 0
M  V30 1964 H 185.621 -0.693571 -3.85104 0
M  V30 1965 H 185.244 1.02142 -3.84256 0
M  V30 1966 N 186.241 1.57166 -0.116904 0
M  V30 1967 C 187.189 2.16457 0.851418 0
M  V30 1968 C 188.183 1.11323 1.27686 0
M  V30 1969 O 189.389 1.2963 1.24884 0
M  V30 1970 H 185.764 0.69271 0.292672 0
M  V30 1971 H 187.735 2.96605 0.32685 0
M  V30 1972 C 186.484 2.77689 2.09246 0
M  V30 1973 H 185.807 3.58285 1.77402 0
M  V30 1974 H 187.247 3.22716 2.7501 0
M  V30 1975 C 185.706 1.74667 2.88085 0
M  V30 1976 O 186.236 1.19877 3.83396 0
M  V30 1977 N 184.442 1.44656 2.52038 0
M  V30 1978 H 183.989 1.89402 1.74599 0
M  V30 1979 H 183.947 0.759675 3.05084 0
M  V30 1980 N 187.719 -0.156864 1.56817 0
M  V30 1981 C 188.968 -0.869504 1.81996 0
M  V30 1982 C 189.281 -1.82777 0.696545 0
M  V30 1983 O 190.487 -2.58384 0.833658 0
M  V30 1984 C 188.943 -1.59679 3.22538 0
M  V30 1985 C 188.551 -0.681431 4.42787 0
M  V30 1986 C 190.295 -2.2968 3.56997 0
M  V30 1987 C 188.202 -1.40978 5.74351 0
M  V30 1988 H 187.132 -0.328438 0.678708 0
M  V30 1989 H 189.783 -0.1223 1.83092 0
M  V30 1990 H 188.165 -2.38927 3.158 0
M  V30 1991 H 189.339 0.0751166 4.60739 0
M  V30 1992 H 187.654 -0.0903431 4.16302 0
M  V30 1993 H 190.251 -2.84794 4.52544 0
M  V30 1994 H 190.594 -3.05707 2.82576 0
M  V30 1995 H 191.127 -1.57361 3.65352 0
M  V30 1996 H 187.866 -0.691561 6.51842 0
M  V30 1997 H 187.386 -2.13929 5.60352 0
M  V30 1998 H 189.065 -1.95337 6.16808 0
M  V30 1999 N 189.197 -1.51736 -0.425897 0
M  V30 2000 C 190.427 -1.68549 -1.19476 0
M  V30 2001 C 190.835 -0.387288 -1.85194 0
M  V30 2002 O 190.178 0.645142 -1.71999 0
M  V30 2003 C 190.24 -2.75275 -2.31223 0
M  V30 2004 C 189.904 -4.17534 -1.8578 0
M  V30 2005 C 190.901 -5.01936 -1.35485 0
M  V30 2006 C 188.586 -4.6369 -1.93123 0
M  V30 2007 C 190.58 -6.30559 -0.931347 0
M  V30 2008 C 188.267 -5.92307 -1.50384 0
M  V30 2009 C 189.265 -6.75569 -1.00473 0
M  V30 2010 O 188.953 -8.0178 -0.583452 0
M  V30 2011 H 188.685 -0.568525 -0.365725 0
M  V30 2012 H 191.239 -1.98982 -0.509444 0
M  V30 2013 H 189.469 -2.40182 -3.03067 0
M  V30 2014 H 191.158 -2.80853 -2.93047 0
M  V30 2015 H 191.924 -4.67475 -1.29197 0
M  V30 2016 H 187.803 -3.98997 -2.30916 0
M  V30 2017 H 191.347 -6.95498 -0.541084 0
M  V30 2018 H 187.244 -6.2628 -1.56346 0
M  V30 2019 H 188.012 -8.1543 -0.708275 0
M  V30 2020 N 190.675 0.682077 -1.42076 0
M  V30 2021 C 191.605 1.80796 -1.47767 0
M  V30 2022 C 192.586 1.6677 -0.334954 0
M  V30 2023 O 193.771 1.863 -0.548264 0
M  V30 2024 C 190.901 3.19038 -1.37229 0
M  V30 2025 C 189.855 3.47789 -2.49453 0
M  V30 2026 C 189.181 4.8553 -2.23975 0
M  V30 2027 C 190.481 3.45411 -3.91776 0
M  V30 2028 H 192.175 1.7629 -2.41997 0
M  V30 2029 H 189.721 0.846721 -1.16476 0
M  V30 2030 H 191.674 3.97528 -1.39821 0
M  V30 2031 H 190.398 3.24204 -0.394907 0
M  V30 2032 H 189.057 2.71657 -2.46166 0
M  V30 2033 H 188.705 4.87337 -1.24547 0
M  V30 2034 H 188.405 5.0573 -2.99184 0
M  V30 2035 H 189.929 5.66312 -2.28304 0
M  V30 2036 H 191.343 4.13882 -3.96705 0
M  V30 2037 H 189.74 3.77145 -4.66778 0
M  V30 2038 H 190.81 2.44122 -4.18966 0
M  V30 2039 N 192.153 1.28127 0.917671 0
M  V30 2040 C 193.086 1.06039 2.02067 0
M  V30 2041 C 194.064 -0.0223285 1.62585 0
M  V30 2042 O 195.248 0.124823 1.88086 0
M  V30 2043 C 192.375 0.610596 3.33151 0
M  V30 2044 C 191.421 1.68937 3.91615 0
M  V30 2045 S 192.254 3.28437 4.22953 0
M  V30 2046 C 193.41 2.85283 5.57103 0
M  V30 2047 H 193.643 1.99425 2.20493 0
M  V30 2048 H 191.176 1.12071 1.06205 0
M  V30 2049 H 193.134 0.357778 4.08938 0
M  V30 2050 H 191.795 -0.303364 3.12632 0
M  V30 2051 H 190.988 1.32619 4.86239 0
M  V30 2052 H 190.59 1.89478 3.2245 0
M  V30 2053 H 192.882 2.3121 6.36827 0
M  V30 2054 H 193.825 3.7869 5.98331 0
M  V30 2055 H 194.233 2.24118 5.18104 0
M  V30 2056 N 193.631 -1.12557 1.10312 0
M  V30 2057 C 195.047 -1.36036 0.834649 0
M  V30 2058 C 195.247 -1.93946 -0.546539 0
M  V30 2059 O 194.303 -2.16484 -1.29966 0
M  V30 2060 C 195.616 -2.30312 1.9333 0
M  V30 2061 C 197.164 -2.43906 1.9616 0
M  V30 2062 C 197.639 -3.41496 3.05195 0
M  V30 2063 N 199.13 -3.49053 3.04494 0
M  V30 2064 C 199.865 -4.24471 3.85502 0
M  V30 2065 N 199.361 -5.02966 4.76442 0
M  V30 2066 N 201.154 -4.19864 3.73725 0
M  V30 2067 H 193.305 -0.733246 1.99342 0
M  V30 2068 H 195.568 -0.385234 0.866198 0
M  V30 2069 H 195.274 -1.94933 2.92735 0
M  V30 2070 H 195.148 -3.30421 1.81939 0
M  V30 2071 H 197.535 -2.78567 0.973886 0
M  V30 2072 H 197.616 -1.4369 2.11629 0
M  V30 2073 H 197.26 -3.07565 4.04186 0
M  V30 2074 H 197.19 -4.41539 2.86968 0
M  V30 2075 H 199.681 -2.93053 2.38596 0
M  V30 2076 H 199.994 -5.57846 5.34815 0
M  V30 2077 H 198.339 -5.02167 4.80472 0
M  V30 2078 H 201.53 -3.57623 3.02032 0
M  V30 2079 H 201.703 -4.78386 4.37093 0
M  V30 2080 N 195.109 -0.891671 -1.2995 0
M  V30 2081 C 196.357 -0.512486 -1.95494 0
M  V30 2082 C 196.678 0.942776 -1.70695 0
M  V30 2083 O 195.948 1.66374 -1.03424 0
M  V30 2084 H 194.528 -0.186533 -0.723336 0
M  V30 2085 H 197.19 -1.13621 -1.58355 0
M  V30 2086 H 196.286 -0.688342 -3.04415 0
M  V30 2087 N 196.587 1.43421 -0.653314 0
M  V30 2088 C 198.003 1.56341 -0.320886 0
M  V30 2089 C 198.203 1.63696 1.17499 0
M  V30 2090 O 197.259 1.59208 1.95982 0
M  V30 2091 C 198.572 2.82424 -1.03233 0
M  V30 2092 C 200.12 2.96168 -1.01259 0
M  V30 2093 C 200.595 4.25084 -1.70492 0
M  V30 2094 N 202.086 4.31948 -1.67257 0
M  V30 2095 C 202.821 5.30466 -2.17701 0
M  V30 2096 N 202.317 6.35261 -2.76434 0
M  V30 2097 N 204.11 5.2212 -2.082 0
M  V30 2098 H 196.261 1.3689 -1.62403 0
M  V30 2099 H 198.524 0.657455 -0.682977 0
M  V30 2100 H 198.23 2.83053 -2.08744 0
M  V30 2101 H 198.104 3.72653 -0.583948 0
M  V30 2102 H 200.491 2.9508 0.0341235 0
M  V30 2103 H 200.572 2.07229 -1.49966 0
M  V30 2104 H 200.216 4.26932 -2.7512 0
M  V30 2105 H 200.146 5.1292 -1.19251 0
M  V30 2106 H 202.637 3.56838 -1.24398 0
M  V30 2107 H 202.95 7.06754 -3.12601 0
M  V30 2108 H 201.295 6.35884 -2.80495 0
M  V30 2109 H 204.486 4.39166 -1.62021 0
M  V30 2110 H 204.659 5.98739 -2.47822 0
M  V30 2111 N 198.065 0.39524 1.52563 0
M  V30 2112 C 198.997 -0.472201 2.24283 0
M  V30 2113 C 200.01 -1.02178 1.26742 0
M  V30 2114 O 201.199 -0.923097 1.52778 0
M  V30 2115 C 198.299 -1.66775 2.95024 0
M  V30 2116 C 197.472 -1.2445 4.19322 0
M  V30 2117 C 196.531 -2.30539 4.7301 0
M  V30 2118 O 195.557 -1.91702 5.35947 0
M  V30 2119 N 196.759 -3.6253 4.53379 0
M  V30 2120 H 199.524 0.142282 2.99362 0
M  V30 2121 H 197.085 0.2219 1.60372 0
M  V30 2122 H 199.077 -2.37283 3.27839 0
M  V30 2123 H 197.647 -2.18845 2.23217 0
M  V30 2124 H 196.867 -0.368069 3.92478 0
M  V30 2125 H 198.155 -0.938457 5.0007 0
M  V30 2126 H 197.553 -3.96841 4.03154 0
M  V30 2127 H 196.11 -4.29055 4.90668 0
M  V30 2128 N 199.544 -1.57102 0.125237 0
M  V30 2129 C 200.79 -1.96488 -0.525753 0
M  V30 2130 C 201.145 -1.00786 -1.6389 0
M  V30 2131 O 200.438 -0.038979 -1.9156 0
M  V30 2132 C 200.632 -3.40096 -1.09862 0
M  V30 2133 C 200.461 -4.4968 -0.0425004 0
M  V30 2134 C 199.231 -5.03781 0.391463 0
M  V30 2135 C 201.429 -5.08936 0.740829 0
M  V30 2136 N 199.411 -5.96948 1.4327 0
M  V30 2137 C 200.782 -5.98105 1.6331 0
M  V30 2138 C 202.837 -4.91576 0.791029 0
M  V30 2139 C 201.54 -6.71774 2.57122 0
M  V30 2140 C 203.566 -5.6593 1.71688 0
M  V30 2141 C 202.928 -6.5479 2.59672 0
M  V30 2142 H 199.027 -0.765072 -0.161831 0
M  V30 2143 H 201.611 -1.93511 0.214801 0
M  V30 2144 H 199.782 -3.43707 -1.80887 0
M  V30 2145 H 201.514 -3.66591 -1.71444 0
M  V30 2146 H 198.269 -4.736 -0.00213584 0
M  V30 2147 H 198.693 -6.48236 1.95243 0
M  V30 2148 H 203.335 -4.22615 0.124915 0
M  V30 2149 H 201.053 -7.39977 3.24744 0
M  V30 2150 H 204.639 -5.54501 1.76125 0
M  V30 2151 H 203.519 -7.11316 3.30149 0
M  V30 2152 N 201.022 0.148545 -1.56898 0
M  V30 2153 C 201.985 1.16736 -1.97244 0
M  V30 2154 C 202.985 1.35947 -0.858777 0
M  V30 2155 O 204.175 1.32966 -1.12542 0
M  V30 2156 C 201.307 2.52798 -2.28705 0
M  V30 2157 H 202.5 0.821279 -2.88435 0
M  V30 2158 H 200.053 0.391831 -1.51309 0
M  V30 2159 H 200.788 2.92381 -1.403 0
M  V30 2160 H 200.573 2.40216 -3.09901 0
M  V30 2161 H 202.063 3.26179 -2.60762 0
M  V30 2162 N 202.5 1.5196 0.417844 0
M  V30 2163 C 203.749 1.6482 1.16264 0
M  V30 2164 C 204.062 0.379886 1.91876 0
M  V30 2165 O 205.268 0.388154 2.68711 0
M  V30 2166 C 203.724 2.91161 2.1155 0
M  V30 2167 C 203.332 4.25068 1.41495 0
M  V30 2168 C 205.076 3.13383 2.86341 0
M  V30 2169 C 202.983 5.42541 2.35379 0
M  V30 2170 H 201.913 0.613954 0.437694 0
M  V30 2171 H 204.564 1.78442 0.427871 0
M  V30 2172 H 202.946 2.71218 2.88543 0
M  V30 2173 H 204.12 4.55463 0.699263 0
M  V30 2174 H 202.435 4.0888 0.787792 0
M  V30 2175 H 205.032 3.98324 3.5671 0
M  V30 2176 H 205.375 2.27256 3.48798 0
M  V30 2177 H 205.908 3.33757 2.1645 0
M  V30 2178 H 202.647 6.30987 1.77582 0
M  V30 2179 H 202.167 5.16497 3.04945 0
M  V30 2180 H 203.846 5.75272 2.96093 0
M  V30 2181 N 203.978 -0.674533 1.42435 0
M  V30 2182 C 204.925 -1.78807 1.45934 0
M  V30 2183 C 205.895 -1.63157 0.311271 0
M  V30 2184 O 207.08 -1.83707 0.515383 0
M  V30 2185 C 204.22 -3.16839 1.36773 0
M  V30 2186 C 203.333 -3.43774 2.61617 0
M  V30 2187 C 202.468 -4.71536 2.44597 0
M  V30 2188 C 201.507 -4.91505 3.64814 0
M  V30 2189 N 200.644 -6.10508 3.46734 0
M  V30 2190 H 205.484 -1.75151 2.41093 0
M  V30 2191 H 203.021 -0.85504 1.19697 0
M  V30 2192 H 204.979 -3.96606 1.29459 0
M  V30 2193 H 203.609 -3.19619 0.452089 0
M  V30 2194 H 202.661 -2.58259 2.79297 0
M  V30 2195 H 203.973 -3.54423 3.50978 0
M  V30 2196 H 203.127 -5.59393 2.3487 0
M  V30 2197 H 201.866 -4.6317 1.52726 0
M  V30 2198 H 200.871 -4.0209 3.74972 0
M  V30 2199 H 202.096 -5.01716 4.57665 0
M  V30 2200 H 200.042 -6.03315 2.5758 0
M  V30 2201 H 199.959 -6.2202 4.29682 0
M  V30 2202 H 201.227 -7.01044 3.40819 0
M  V30 2203 N 205.456 -1.28612 -0.910864 0
M  V30 2204 C 206.386 -1.15326 -2.03032 0
M  V30 2205 C 207.367 -0.0502924 -1.70026 0
M  V30 2206 O 208.552 -0.227797 -1.92859 0
M  V30 2207 C 205.682 -0.817343 -3.37545 0
M  V30 2208 C 204.636 -1.8754 -3.84724 0
M  V30 2209 C 203.962 -1.39305 -5.16235 0
M  V30 2210 C 205.262 -3.28244 -4.06267 0
M  V30 2211 H 206.956 -2.08975 -2.14406 0
M  V30 2212 H 204.502 -1.00612 -1.03021 0
M  V30 2213 H 206.455 -0.711151 -4.15356 0
M  V30 2214 H 205.179 0.154846 -3.26233 0
M  V30 2215 H 203.838 -1.97079 -3.09121 0
M  V30 2216 H 203.486 -0.409846 -5.01328 0
M  V30 2217 H 203.186 -2.10057 -5.48771 0
M  V30 2218 H 204.71 -1.30014 -5.96598 0
M  V30 2219 H 206.124 -3.21611 -4.74594 0
M  V30 2220 H 204.521 -3.96855 -4.5014 0
M  V30 2221 H 205.591 -3.72048 -3.10979 0
M  V30 2222 N 206.934 1.1197 -1.10907 0
M  V30 2223 C 207.881 2.17846 -0.762345 0
M  V30 2224 C 208.851 1.63995 0.263599 0
M  V30 2225 O 210.036 1.90273 0.141773 0
M  V30 2226 C 207.176 3.44487 -0.205651 0
M  V30 2227 C 206.289 4.12369 -1.28748 0
M  V30 2228 C 205.424 5.26674 -0.691919 0
M  V30 2229 C 204.463 5.86431 -1.75399 0
M  V30 2230 N 203.6 6.92142 -1.17833 0
M  V30 2231 H 208.44 2.46851 -1.6694 0
M  V30 2232 H 205.977 1.21188 -0.833776 0
M  V30 2233 H 207.935 4.16981 0.135037 0
M  V30 2234 H 206.565 3.15884 0.664613 0
M  V30 2235 H 205.617 3.38003 -1.74522 0
M  V30 2236 H 206.929 4.52844 -2.09125 0
M  V30 2237 H 206.083 6.05953 -0.300963 0
M  V30 2238 H 204.822 4.8749 0.143232 0
M  V30 2239 H 203.827 5.05835 -2.15432 0
M  V30 2240 H 205.052 6.27685 -2.59208 0
M  V30 2241 H 202.998 6.54985 -0.364725 0
M  V30 2242 H 202.915 7.31242 -1.91887 0
M  V30 2243 H 204.183 7.75237 -0.81408 0
M  V30 2244 N 208.412 0.89855 1.29475 0
M  V30 2245 C 209.344 0.332726 2.26772 0
M  V30 2246 C 210.357 -0.520323 1.54261 0
M  V30 2247 O 211.546 -0.337668 1.75277 0
M  V30 2248 C 208.646 -0.544334 3.345 0
M  V30 2249 C 207.819 0.282728 4.36485 0
M  V30 2250 C 206.878 -0.526982 5.23555 0
M  V30 2251 O 205.904 0.0551165 5.69173 0
M  V30 2252 N 207.106 -1.83331 5.5079 0
M  V30 2253 H 209.871 1.16897 2.75962 0
M  V30 2254 H 207.432 0.762919 1.42798 0
M  V30 2255 H 209.424 -1.09239 3.89678 0
M  V30 2256 H 207.994 -1.28127 2.85136 0
M  V30 2257 H 207.214 1.01221 3.80983 0
M  V30 2258 H 208.502 0.84918 5.01664 0
M  V30 2259 H 207.9 -2.32898 5.15534 0
M  V30 2260 H 206.457 -2.32852 6.08788 0
M  V30 2261 N 209.89 -1.43072 0.660911 0
M  V30 2262 C 210.837 -2.30785 -0.0259884 0
M  V30 2263 C 211.807 -1.45184 -0.806888 0
M  V30 2264 O 212.992 -1.74041 -0.781943 0
M  V30 2265 C 210.132 -3.30861 -0.981067 0
M  V30 2266 C 209.245 -4.31558 -0.195458 0
M  V30 2267 C 208.38 -5.18712 -1.14503 0
M  V30 2268 C 207.419 -6.11097 -0.350299 0
M  V30 2269 N 206.556 -6.90849 -1.25186 0
M  V30 2270 H 211.396 -2.88975 0.727846 0
M  V30 2271 H 208.933 -1.42353 0.370682 0
M  V30 2272 H 210.891 -3.87399 -1.54849 0
M  V30 2273 H 209.521 -2.74304 -1.70169 0
M  V30 2274 H 208.573 -3.77252 0.488374 0
M  V30 2275 H 209.885 -4.9701 0.422176 0
M  V30 2276 H 209.039 -5.79914 -1.78284 0
M  V30 2277 H 207.778 -4.53404 -1.79656 0
M  V30 2278 H 206.783 -5.48976 0.300808 0
M  V30 2279 H 208.008 -6.7845 0.296941 0
M  V30 2280 H 205.954 -6.28182 -1.89005 0
M  V30 2281 H 205.871 -7.52854 -0.688971 0
M  V30 2282 H 207.139 -7.5655 -1.87757 0
M  V30 2283 N 211.368 -0.403325 -1.52352 0
M  V30 2284 C 212.596 0.174012 -2.06167 0
M  V30 2285 C 213.011 1.39347 -1.27388 0
M  V30 2286 O 212.368 1.79597 -0.324201 0
M  V30 2287 C 212.419 0.530223 -3.5759 0
M  V30 2288 O 212.14 -0.640806 -4.33388 0
M  V30 2289 C 213.641 1.16192 -4.27802 0
M  V30 2290 H 210.861 0.0229464 -0.670608 0
M  V30 2291 H 213.405 -0.572604 -1.9632 0
M  V30 2292 H 211.56 1.22673 -3.67464 0
M  V30 2293 H 211.974 -0.344851 -5.23365 0
M  V30 2294 H 213.448 1.36141 -5.34948 0
M  V30 2295 H 213.925 2.13335 -3.83907 0
M  V30 2296 H 214.531 0.505775 -4.22282 0
M  V30 2297 N 212.846 1.57033 -0.133567 0
M  V30 2298 C 214.092 1.95976 0.521649 0
M  V30 2299 C 214.425 1.01779 1.65393 0
M  V30 2300 O 213.7 0.0576581 1.94415 0
M  V30 2301 C 213.983 3.44738 1.04057 0
M  V30 2302 C 213.836 4.49711 -0.0892897 0
M  V30 2303 C 215.155 3.95682 1.92675 0
M  V30 2304 H 212.274 0.712579 0.188149 0
M  V30 2305 H 214.916 1.88813 -0.212076 0
M  V30 2306 H 213.066 3.50973 1.66583 0
M  V30 2307 H 214.738 4.55565 -0.725152 0
M  V30 2308 H 212.981 4.27261 -0.750378 0
M  V30 2309 H 213.652 5.51099 0.315284 0
M  V30 2310 H 216.128 3.91841 1.39998 0
M  V30 2311 H 215.004 5.00262 2.25897 0
M  V30 2312 H 215.265 3.37239 2.85872 0
M  V30 2313 N 214.325 -0.140222 1.56975 0
M  V30 2314 C 215.602 -0.880769 1.74648 0
M  V30 2315 C 215.982 -1.99036 0.703404 0
M  V30 2316 O 215.33 -2.26821 -0.27648 0
M  V30 2317 C 215.54 -1.417 3.18939 0
M  V30 2318 C 216.888 -1.87774 3.80823 0
M  V30 2319 O 217.912 -1.51427 3.2241 0
M  V30 2320 O 216.771 -2.54827 4.83452 0
M  V30 2321 H 213.865 -0.416713 0.714338 0
M  V30 2322 H 216.411 -0.125618 1.69234 0
M  V30 2323 H 215.183 -0.619902 3.86359 0
M  V30 2324 H 214.806 -2.23546 3.28805 0
M  V30 2325 N 215.803 -1.52179 -0.40978 0
M  V30 2326 C 217.214 -1.58377 -0.988615 0
M  V30 2327 C 217.565 -0.423879 -1.91566 0
M  V30 2328 O 216.69 0.455844 -2.11544 0
M  V30 2329 C 217.285 -2.87044 -1.79976 0
M  V30 2330 C 215.844 -2.95722 -2.32863 0
M  V30 2331 C 214.991 -2.53309 -1.12828 0
M  V30 2332 H 217.942 -1.57558 -0.190039 0
M  V30 2333 H 217.963 -2.7236 -2.65707 0
M  V30 2334 H 217.475 -3.71444 -1.12478 0
M  V30 2335 H 215.576 -2.15814 -3.03735 0
M  V30 2336 H 215.689 -3.99951 -2.63773 0
M  V30 2337 H 214.053 -2.07142 -1.48204 0
M  V30 2338 H 214.836 -3.40082 -0.46897 0
M  V30 2339 N 217.281 0.66697 -1.42791 0
M  V30 2340 C 218.191 1.80962 -1.49299 0
M  V30 2341 C 219.207 1.69775 -0.381108 0
M  V30 2342 O 220.383 1.91188 -0.633188 0
M  V30 2343 C 217.448 3.17156 -1.40045 0
M  V30 2344 C 216.509 3.40242 -2.6179 0
M  V30 2345 C 215.742 4.69939 -2.52969 0
M  V30 2346 O 215.965 5.48372 -1.56985 0
M  V30 2347 O 214.899 4.94441 -3.43237 0
M  V30 2348 H 218.725 1.78427 -2.45759 0
M  V30 2349 H 216.31 0.823713 -1.24641 0
M  V30 2350 H 218.192 3.98413 -1.37276 0
M  V30 2351 H 216.867 3.20312 -0.467138 0
M  V30 2352 H 215.774 2.58802 -2.70134 0
M  V30 2353 H 217.107 3.41923 -3.54047 0
M  V30 2354 N 218.759 1.29093 0.90403 0
M  V30 2355 C 220.005 1.16986 1.65656 0
M  V30 2356 C 220.338 -0.278925 1.92186 0
M  V30 2357 O 219.613 -1.2019 1.5292 0
M  V30 2358 C 219.896 1.97908 3.0084 0
M  V30 2359 C 219.749 3.50903 2.81403 0
M  V30 2360 C 221.068 1.80208 4.01513 0
M  V30 2361 H 218.187 0.426346 0.601164 0
M  V30 2362 H 220.829 1.58518 1.04747 0
M  V30 2363 H 218.979 1.62616 3.52829 0
M  V30 2364 H 220.651 3.96153 2.36348 0
M  V30 2365 H 218.894 3.76045 2.1627 0
M  V30 2366 H 219.565 4.02791 3.77443 0
M  V30 2367 H 222.041 2.11025 3.58619 0
M  V30 2368 H 220.917 2.39184 4.94047 0
M  V30 2369 H 221.178 0.756119 4.35586 0
M  V30 2370 N 220.237 -1.11381 1.11499 0
M  V30 2371 C 221.185 -2.19522 0.768956 0
M  V30 2372 C 222.179 -1.67693 -0.239857 0
M  V30 2373 O 223.385 -1.79727 -0.0990755 0
M  V30 2374 H 219.76 -0.715711 0.230786 0
M  V30 2375 H 221.731 -2.45954 1.68964 0
M  V30 2376 C 220.48 -3.46945 0.229073 0
M  V30 2377 H 219.803 -3.8718 0.996596 0
M  V30 2378 H 221.243 -4.23993 0.0251441 0
M  V30 2379 C 219.702 -3.2042 -1.04079 0
M  V30 2380 O 220.232 -3.41178 -2.12038 0
M  V30 2381 N 218.438 -2.74151 -0.963823 0
M  V30 2382 H 217.985 -2.57459 -0.0851722 0
M  V30 2383 H 217.943 -2.56781 -1.81414 0
M  V30 2384 N 221.715 -0.905404 -1.28997 0
M  V30 2385 C 222.663 -0.377431 -2.29517 0
M  V30 2386 C 223.657 0.526461 -1.61012 0
M  V30 2387 O 224.863 0.40863 -1.753 0
M  V30 2388 H 221.238 -0.103437 -0.744852 0
M  V30 2389 H 223.209 -1.23848 -2.71485 0
M  V30 2390 C 221.958 0.374833 -3.45674 0
M  V30 2391 H 221.281 -0.311474 -3.98585 0
M  V30 2392 H 222.721 0.70903 -4.1803 0
M  V30 2393 C 221.18 1.57963 -2.97572 0
M  V30 2394 O 221.71 2.67886 -2.99333 0
M  V30 2395 N 219.916 1.42375 -2.53333 0
M  V30 2396 H 219.463 0.529466 -2.521 0
M  V30 2397 H 219.421 2.23117 -2.21509 0
M  V30 2398 N 223.193 1.4272 -0.668489 0
M  V30 2399 C 224.439 2.01923 -0.188419 0
M  V30 2400 C 224.772 1.52704 1.19979 0
M  V30 2401 O 224.047 0.726566 1.8042 0
M  V30 2402 C 224.33 3.59451 -0.216085 0
M  V30 2403 C 224.183 4.18864 -1.6393 0
M  V30 2404 C 225.502 4.37903 0.439179 0
M  V30 2405 H 222.621 0.733674 -0.0699412 0
M  V30 2406 H 225.263 1.69822 -0.852076 0
M  V30 2407 H 223.413 3.86929 0.349012 0
M  V30 2408 H 225.085 4.02362 -2.25616 0
M  V30 2409 H 223.328 3.74933 -2.18193 0
M  V30 2410 H 223.999 5.27987 -1.61039 0
M  V30 2411 H 226.475 4.16079 -0.0417878 0
M  V30 2412 H 225.351 5.47519 0.389157 0
M  V30 2413 H 225.612 4.15303 1.51577 0
M  V30 2414 N 224.671 0.411399 1.52136 0
M  V30 2415 C 225.917 -0.163888 2.02137 0
M  V30 2416 C 226.25 -1.44597 1.29636 0
M  V30 2417 O 225.525 -1.90272 0.403353 0
M  V30 2418 C 225.808 -0.40927 3.57767 0
M  V30 2419 C 225.661 0.889643 4.40914 0
M  V30 2420 C 226.98 -1.19042 4.23694 0
M  V30 2421 H 224.099 -0.0580896 0.734707 0
M  V30 2422 H 226.741 0.54531 1.82007 0
M  V30 2423 H 224.891 -1.0134 3.7505 0
M  V30 2424 H 226.563 1.52575 4.35337 0
M  V30 2425 H 224.806 1.50011 4.07037 0
M  V30 2426 H 225.477 0.672314 5.4789 0
M  V30 2427 H 227.953 -0.678942 4.10524 0
M  V30 2428 H 226.829 -1.33086 5.32522 0
M  V30 2429 H 227.09 -2.21166 3.82803 0
M  V30 2430 N 226.149 -1.5696 0.141893 0
M  V30 2431 C 227.395 -1.9625 -0.511248 0
M  V30 2432 C 227.728 -1.02654 -1.64851 0
M  V30 2433 O 227.003 -0.0679676 -1.94381 0
M  V30 2434 C 227.286 -3.45285 -1.02227 0
M  V30 2435 C 227.139 -4.49658 0.113138 0
M  V30 2436 C 228.458 -3.96698 -1.90574 0
M  V30 2437 H 225.577 -0.713567 -0.184367 0
M  V30 2438 H 228.219 -1.88698 0.222087 0
M  V30 2439 H 226.369 -3.51852 -1.64719 0
M  V30 2440 H 228.041 -4.55174 0.749302 0
M  V30 2441 H 226.284 -4.26857 0.773026 0
M  V30 2442 H 226.955 -5.51258 -0.286053 0
M  V30 2443 H 229.431 -3.92578 -1.37918 0
M  V30 2444 H 228.307 -5.01453 -2.2324 0
M  V30 2445 H 228.568 -3.3875 -2.84079 0
M  V30 2446 N 227.627 0.131896 -1.57047 0
M  V30 2447 C 228.876 0.84044 -1.83356 0
M  V30 2448 C 229.189 1.81646 -0.725535 0
M  V30 2449 O 230.395 2.57025 -0.874659 0
M  V30 2450 C 228.851 1.54528 -3.25037 0
M  V30 2451 C 228.459 0.610902 -4.43815 0
M  V30 2452 C 230.203 2.23972 -3.60606 0
M  V30 2453 C 228.11 1.31823 -5.76521 0
M  V30 2454 H 227.04 0.317599 -0.683847 0
M  V30 2455 H 229.691 0.0931561 -1.83263 0
M  V30 2456 H 228.073 2.33873 -3.19561 0
M  V30 2457 H 229.247 -0.148407 -4.60561 0
M  V30 2458 H 227.562 0.0241016 -4.16393 0
M  V30 2459 H 230.159 2.77558 -4.57018 0
M  V30 2460 H 230.502 3.01173 -2.87403 0
M  V30 2461 H 231.035 1.51529 -3.6781 0
M  V30 2462 H 227.774 0.587771 -6.52859 0
M  V30 2463 H 227.294 2.04987 -5.63685 0
M  V30 2464 H 228.973 1.855 -6.19838 0
M  V30 2465 N 229.106 1.52395 0.401703 0
M  V30 2466 C 230.354 1.66488 1.14569 0
M  V30 2467 C 230.675 0.400897 1.90835 0
M  V30 2468 O 229.945 -0.584415 1.8698 0
M  V30 2469 H 228.525 0.613672 0.425929 0
M  V30 2470 H 231.187 1.89464 0.457093 0
M  V30 2471 H 230.283 2.50942 1.85566 0
M  V30 2472 N 230.584 -0.659388 1.43143 0
M  V30 2473 C 231.809 -1.45221 1.48073 0
M  V30 2474 C 232.234 -1.87845 0.097995 0
M  V30 2475 O 231.592 -1.56985 -0.90694 0
M  V30 2476 C 231.64 -2.66748 2.42647 0
M  V30 2477 O 230.744 -3.65583 1.90848 0
M  V30 2478 H 230.085 -0.435669 0.501088 0
M  V30 2479 H 232.615 -0.807432 1.87994 0
M  V30 2480 H 232.625 -3.14637 2.59745 0
M  V30 2481 H 231.3 -2.35067 3.43098 0
M  V30 2482 H 229.877 -3.24693 1.83381 0
M  V30 2483 N 232.062 -1.29571 -0.897171 0
M  V30 2484 C 233.31 -1.17456 -1.64464 0
M  V30 2485 C 233.631 0.273698 -1.9307 0
M  V30 2486 O 232.901 1.18684 -1.55855 0
M  V30 2487 H 231.481 -0.431706 -0.609622 0
M  V30 2488 H 234.143 -1.62531 -1.07562 0
M  V30 2489 H 233.239 -1.72648 -2.59998 0
M  V30 2490 N 233.54 1.10788 -1.12088 0
M  V30 2491 C 234.77 1.86191 -0.895351 0
M  V30 2492 C 235.178 1.80763 0.558702 0
M  V30 2493 O 234.521 1.19188 1.39785 0
M  V30 2494 C 234.583 3.35659 -1.28737 0
M  V30 2495 C 234.247 3.64849 -2.75198 0
M  V30 2496 C 235.244 3.61757 -3.734 0
M  V30 2497 C 232.929 3.93641 -3.12013 0
M  V30 2498 C 234.923 3.87045 -5.06434 0
M  V30 2499 C 232.61 4.18585 -4.4523 0
M  V30 2500 C 233.608 4.15277 -5.42249 0
M  V30 2501 O 233.296 4.3959 -6.73065 0
M  V30 2502 H 233.028 0.595425 -0.32007 0
M  V30 2503 H 235.582 1.40992 -1.49367 0
M  V30 2504 H 233.812 3.81497 -0.63224 0
M  V30 2505 H 235.501 3.92441 -1.03656 0
M  V30 2506 H 236.267 3.39557 -3.46303 0
M  V30 2507 H 232.146 3.95348 -2.37109 0
M  V30 2508 H 235.69 3.84378 -5.82151 0
M  V30 2509 H 231.587 4.40264 -4.72057 0
M  V30 2510 H 232.355 4.57123 -6.78956 0
M  V30 2511 N 235.018 0.912232 1.28515 0
M  V30 2512 C 236.267 0.540504 1.94323 0
M  V30 2513 C 236.58 -0.920044 1.72611 0
M  V30 2514 O 237.786 -1.39986 2.32629 0
M  V30 2515 C 236.242 0.915803 3.48053 0
M  V30 2516 C 235.85 2.39598 3.78546 0
M  V30 2517 C 237.594 0.614588 4.20027 0
M  V30 2518 C 235.501 2.71148 5.25578 0
M  V30 2519 H 234.431 0.198418 0.727424 0
M  V30 2520 H 237.082 1.11094 1.46049 0
M  V30 2521 H 235.464 0.274168 3.9505 0
M  V30 2522 H 236.638 3.08422 3.42364 0
M  V30 2523 H 234.953 2.66749 3.1974 0
M  V30 2524 H 237.55 0.827002 5.28266 0
M  V30 2525 H 237.893 -0.447531 4.13887 0
M  V30 2526 H 238.426 1.21462 3.78803 0
M  V30 2527 H 235.165 3.76207 5.36794 0
M  V30 2528 H 234.685 2.0696 5.62963 0
M  V30 2529 H 236.364 2.58072 5.93302 0
M  V30 2530 N 236.496 -1.42363 0.676048 0
M  V30 2531 C 237.744 -2.01123 0.198437 0
M  V30 2532 C 238.065 -1.53731 -1.19966 0
M  V30 2533 O 237.335 -0.759518 -1.80577 0
M  V30 2534 H 235.915 -0.743678 0.0703721 0
M  V30 2535 H 238.577 -1.74263 0.872837 0
M  V30 2536 H 237.673 -3.11454 0.200686 0
M  V30 2537 N 237.974 -0.419461 -1.51915 0
M  V30 2538 C 239.223 0.154346 -2.01109 0
M  V30 2539 C 239.536 1.45338 -1.30905 0
M  V30 2540 O 240.742 2.10906 -1.7097 0
M  V30 2541 C 239.198 0.325615 -3.58424 0
M  V30 2542 C 238.806 -0.961934 -4.37551 0
M  V30 2543 C 240.55 0.854155 -4.15818 0
M  V30 2544 C 238.457 -0.757287 -5.86531 0
M  V30 2545 H 237.387 0.0614563 -0.751491 0
M  V30 2546 H 240.038 -0.54649 -1.75173 0
M  V30 2547 H 238.42 1.08903 -3.80731 0
M  V30 2548 H 239.594 -1.7323 -4.26999 0
M  V30 2549 H 237.909 -1.41766 -3.91524 0
M  V30 2550 H 240.506 1.02346 -5.24814 0
M  V30 2551 H 240.849 1.83172 -3.73837 0
M  V30 2552 H 241.382 0.149528 -3.97519 0
M  V30 2553 H 238.121 -1.70671 -6.32892 0
M  V30 2554 H 237.641 -0.0264061 -5.99794 0
M  V30 2555 H 239.32 -0.403482 -6.45741 0
M  V30 2556 N 239.452 1.56882 -0.150215 0
M  V30 2557 C 240.362 2.20494 0.801222 0
M  V30 2558 C 241.378 1.19019 1.26927 0
M  V30 2559 O 242.554 1.51607 1.32579 0
M  V30 2560 C 239.619 2.81659 2.02161 0
M  V30 2561 C 238.68 3.9827 1.60249 0
M  V30 2562 C 237.913 4.56508 2.7647 0
M  V30 2563 O 238.136 4.13627 3.92771 0
M  V30 2564 O 237.07 5.46719 2.51757 0
M  V30 2565 H 240.896 3.02315 0.289717 0
M  V30 2566 H 238.481 1.49202 0.0769684 0
M  V30 2567 H 240.363 3.20522 2.73576 0
M  V30 2568 H 239.038 2.02849 2.52258 0
M  V30 2569 H 237.945 3.64117 0.858477 0
M  V30 2570 H 239.278 4.78609 1.14864 0
M  V30 2571 N 240.93 -0.123565 1.57115 0
M  V30 2572 C 241.893 -1.13583 1.99076 0
M  V30 2573 C 242.893 -1.34564 0.880296 0
M  V30 2574 O 244.083 -1.31158 1.14644 0
M  V30 2575 C 241.215 -2.49128 2.32698 0
M  V30 2576 H 242.408 -0.775287 2.89706 0
M  V30 2577 H 239.961 -0.36771 1.51913 0
M  V30 2578 H 240.696 -2.90111 1.44934 0
M  V30 2579 H 240.481 -2.35255 3.13684 0
M  V30 2580 H 241.971 -3.2199 2.65918 0
M  V30 2581 N 242.408 -1.52605 -0.393616 0
M  V30 2582 C 243.371 -1.76415 -1.46323 0
M  V30 2583 C 244.371 -0.634126 -1.47768 0
M  V30 2584 O 245.561 -0.902142 -1.4902 0
M  V30 2585 C 242.693 -1.8607 -2.85641 0
M  V30 2586 H 243.886 -2.71916 -1.26498 0
M  V30 2587 H 241.439 -1.43257 -0.625073 0
M  V30 2588 H 242.174 -0.925378 -3.10817 0
M  V30 2589 H 241.959 -2.68235 -2.85993 0
M  V30 2590 H 243.449 -2.06179 -3.63153 0
M  V30 2591 N 243.887 0.651787 -1.4349 0
M  V30 2592 C 244.797 1.79368 -1.5121 0
M  V30 2593 C 245.813 1.69361 -0.399093 0
M  V30 2594 O 246.989 1.90505 -0.653431 0
M  V30 2595 C 244.054 3.15653 -1.43401 0
M  V30 2596 C 243.115 3.37446 -2.65384 0
M  V30 2597 C 242.348 4.67229 -2.57939 0
M  V30 2598 O 242.571 5.46676 -1.62792 0
M  V30 2599 O 241.505 4.90773 -3.48462 0
M  V30 2600 H 245.331 1.7581 -2.47638 0
M  V30 2601 H 242.916 0.810447 -1.25507 0
M  V30 2602 H 244.798 3.96935 -1.41494 0
M  V30 2603 H 243.473 3.19798 -0.501085 0
M  V30 2604 H 242.38 2.55923 -2.72863 0
M  V30 2605 H 243.713 3.38148 -3.57654 0
M  V30 2606 N 245.365 1.30045 0.890287 0
M  V30 2607 C 246.328 1.15963 1.977 0
M  V30 2608 C 247.328 0.0923777 1.60534 0
M  V30 2609 O 248.518 0.340071 1.70848 0
M  V30 2610 C 245.65 0.775451 3.31963 0
M  V30 2611 H 246.843 2.12502 2.11619 0
M  V30 2612 H 244.396 1.13366 1.07601 0
M  V30 2613 H 245.131 -0.189671 3.23745 0
M  V30 2614 H 244.916 1.54668 3.60306 0
M  V30 2615 H 246.406 0.700251 4.11687 0
M  V30 2616 N 246.843 -1.10192 1.12674 0
M  V30 2617 C 248.09 -1.82205 0.883606 0
M  V30 2618 C 248.418 -1.8532 -0.590492 0
M  V30 2619 O 247.673 -1.31137 -1.45264 0
M  V30 2620 C 247.972 -3.28552 1.4067 0
M  V30 2621 C 247.638 -3.45582 2.89627 0
M  V30 2622 C 246.3 -3.49937 3.30299 0
M  V30 2623 C 248.652 -3.50768 3.85501 0
M  V30 2624 C 245.98 -3.57049 4.65546 0
M  V30 2625 C 248.332 -3.59414 5.20581 0
M  V30 2626 C 246.996 -3.62034 5.60792 0
M  V30 2627 H 246.266 -0.666735 0.323334 0
M  V30 2628 H 248.913 -1.29868 1.40736 0
M  V30 2629 H 247.218 -3.83473 0.80347 0
M  V30 2630 H 248.915 -3.82788 1.19475 0
M  V30 2631 H 245.505 -3.42871 2.57172 0
M  V30 2632 H 249.689 -3.46651 3.55171 0
M  V30 2633 H 244.945 -3.57361 4.96088 0
M  V30 2634 H 249.119 -3.62371 5.94693 0
M  V30 2635 H 246.746 -3.67298 6.6558 0
M  V30 2636 N 248.321 -0.919034 -1.28029 0
M  V30 2637 C 249.284 -0.416182 -2.2539 0
M  V30 2638 C 250.284 0.460438 -1.54067 0
M  V30 2639 O 251.474 0.262744 -1.72207 0
M  V30 2640 C 248.606 0.402707 -3.38513 0
M  V30 2641 H 249.799 -1.27629 -2.71387 0
M  V30 2642 H 247.352 -0.698919 -1.39803 0
M  V30 2643 H 248.087 1.282 -2.97885 0
M  V30 2644 H 247.872 -0.225698 -3.9145 0
M  V30 2645 H 249.362 0.745191 -4.10897 0
M  V30 2646 N 249.799 1.42003 -0.683588 0
M  V30 2647 C 250.746 2.30798 -0.0107309 0
M  V30 2648 C 251.716 1.4645 0.783688 0
M  V30 2649 O 252.901 1.75263 0.754156 0
M  V30 2650 C 250.041 3.3238 0.928306 0
M  V30 2651 C 249.154 4.31814 0.126776 0
M  V30 2652 C 248.289 5.20468 1.06236 0
M  V30 2653 C 247.328 6.11577 0.253035 0
M  V30 2654 N 246.465 6.92754 1.14179 0
M  V30 2655 H 251.305 2.8778 -0.773727 0
M  V30 2656 H 248.842 1.41745 -0.393283 0
M  V30 2657 H 250.8 3.89813 1.48666 0
M  V30 2658 H 249.43 2.76976 1.65783 0
M  V30 2659 H 248.482 3.76427 -0.54833 0
M  V30 2660 H 249.794 4.96276 -0.501192 0
M  V30 2661 H 248.948 5.82677 1.69035 0
M  V30 2662 H 247.687 4.56204 1.7242 0
M  V30 2663 H 246.692 5.48428 -0.388108 0
M  V30 2664 H 247.917 6.77892 -0.404839 0
M  V30 2665 H 245.863 6.3111 1.78987 0
M  V30 2666 H 245.78 7.53855 0.569111 0
M  V30 2667 H 247.048 7.59441 1.75697 0
M  V30 2668 N 251.277 0.427512 1.51691 0
M  V30 2669 C 252.24 -0.377132 2.26076 0
M  V30 2670 C 253.24 -0.958089 1.29141 0
M  V30 2671 O 254.43 -0.83408 1.52934 0
M  V30 2672 C 251.562 -1.53262 3.04506 0
M  V30 2673 H 252.755 0.27464 2.9864 0
M  V30 2674 H 250.308 0.180445 1.55255 0
M  V30 2675 H 251.043 -2.22072 2.36335 0
M  V30 2676 H 250.828 -1.12232 3.75694 0
M  V30 2677 H 252.318 -2.10135 3.60878 0
M  V30 2678 N 252.755 -1.56801 0.158532 0
M  V30 2679 C 254.003 -1.96102 -0.488712 0
M  V30 2680 C 254.324 -1.04498 -1.64636 0
M  V30 2681 O 253.594 -0.108783 -1.95598 0
M  V30 2682 H 252.174 -0.724102 -0.183535 0
M  V30 2683 H 254.836 -1.93457 0.236728 0
M  V30 2684 H 253.932 -3.00097 -0.857219 0
M  V30 2685 N 254.233 0.115231 -1.57178 0
M  V30 2686 C 255.18 1.14115 -2.00615 0
M  V30 2687 C 256.15 1.40939 -0.878941 0
M  V30 2688 O 257.335 1.52741 -1.14345 0
M  V30 2689 C 254.475 2.46156 -2.4187 0
M  V30 2690 C 253.588 2.26236 -3.68024 0
M  V30 2691 C 252.723 3.51534 -3.98243 0
M  V30 2692 C 251.762 3.26787 -5.17568 0
M  V30 2693 N 250.899 4.44298 -5.43639 0
M  V30 2694 H 255.739 0.763743 -2.88047 0
M  V30 2695 H 253.276 0.365615 -1.42484 0
M  V30 2696 H 255.234 3.23189 -2.63827 0
M  V30 2697 H 253.864 2.81783 -1.57475 0
M  V30 2698 H 252.916 1.40102 -3.5366 0
M  V30 2699 H 254.228 2.03929 -4.55208 0
M  V30 2700 H 253.382 4.36984 -4.20868 0
M  V30 2701 H 252.121 3.76876 -3.09541 0
M  V30 2702 H 251.126 2.39729 -4.94783 0
M  V30 2703 H 252.351 3.02812 -6.0785 0
M  V30 2704 H 250.297 4.69754 -4.57895 0
M  V30 2705 H 250.214 4.25109 -6.25154 0
M  V30 2706 H 251.482 5.3087 -5.70786 0
M  V30 2707 N 255.711 1.52812 0.385517 0
M  V30 2708 C 256.658 1.77838 1.47113 0
M  V30 2709 C 257.628 0.621757 1.54024 0
M  V30 2710 O 258.813 0.861846 1.70226 0
M  V30 2711 C 255.953 1.95618 2.84302 0
M  V30 2712 C 255.066 3.23316 2.86515 0
M  V30 2713 C 254.201 3.31394 4.15152 0
M  V30 2714 C 253.24 4.53201 4.1143 0
M  V30 2715 N 252.377 4.58542 5.3168 0
M  V30 2716 H 257.217 2.70482 1.25073 0
M  V30 2717 H 254.754 1.34006 0.606692 0
M  V30 2718 H 256.712 2.03912 3.63972 0
M  V30 2719 H 255.342 1.06331 3.04784 0
M  V30 2720 H 254.394 3.24076 1.99195 0
M  V30 2721 H 255.706 4.13045 2.79634 0
M  V30 2722 H 254.86 3.3889 5.03228 0
M  V30 2723 H 253.599 2.39645 4.24761 0
M  V30 2724 H 252.604 4.45827 3.21742 0
M  V30 2725 H 253.829 5.46271 4.03442 0
M  V30 2726 H 251.775 3.69686 5.41912 0
M  V30 2727 H 251.692 5.42148 5.26889 0
M  V30 2728 H 252.96 4.70296 6.21644 0
M  V30 2729 N 257.189 -0.644168 1.43834 0
M  V30 2730 C 258.435 -1.40603 1.46146 0
M  V30 2731 C 258.768 -1.93997 0.0887717 0
M  V30 2732 O 258.043 -1.72854 -0.891724 0
M  V30 2733 C 258.326 -2.58086 2.51124 0
M  V30 2734 C 258.179 -2.10126 3.97702 0
M  V30 2735 C 259.498 -3.60291 2.52742 0
M  V30 2736 H 256.617 -0.509905 0.532134 0
M  V30 2737 H 259.259 -0.729502 1.75437 0
M  V30 2738 H 257.409 -3.15801 2.26278 0
M  V30 2739 H 259.081 -1.57342 4.33637 0
M  V30 2740 H 257.324 -1.41419 4.10101 0
M  V30 2741 H 257.995 -2.94649 4.66783 0
M  V30 2742 H 260.471 -3.12352 2.7491 0
M  V30 2743 H 259.347 -4.40032 3.28121 0
M  V30 2744 H 259.608 -4.1349 1.56455 0
M  V30 2745 N 258.668 -1.30515 -0.883378 0
M  V30 2746 C 259.896 -1.22359 -1.66841 0
M  V30 2747 C 260.311 0.213296 -1.87591 0
M  V30 2748 O 259.668 1.14075 -1.42454 0
M  V30 2749 C 259.719 -1.95011 -3.04389 0
M  V30 2750 O 259.44 -3.3309 -2.84575 0
M  V30 2751 C 260.941 -1.93532 -3.98824 0
M  V30 2752 H 258.161 -0.423371 -0.520575 0
M  V30 2753 H 260.705 -1.72167 -1.10357 0
M  V30 2754 H 258.86 -1.48997 -3.57601 0
M  V30 2755 H 259.274 -3.69907 -3.71846 0
M  V30 2756 H 260.748 -2.48902 -4.92699 0
M  V30 2757 H 261.225 -0.914627 -4.29571 0
M  V30 2758 H 261.831 -2.39364 -3.51547 0
M  V30 2759 N 260.146 1.09593 -1.13257 0
M  V30 2760 C 261.392 1.82003 -0.89458 0
M  V30 2761 C 261.725 1.85402 0.577906 0
M  V30 2762 O 261 1.32099 1.42759 0
M  V30 2763 C 261.283 3.28237 -1.48096 0
M  V30 2764 C 261.136 3.3312 -3.02244 0
M  V30 2765 C 262.455 4.24871 -1.14774 0
M  V30 2766 H 259.574 0.66077 -0.326424 0
M  V30 2767 H 262.216 1.28389 -1.40058 0
M  V30 2768 H 260.366 3.74024 -1.05062 0
M  V30 2769 H 262.038 2.95748 -3.54021 0
M  V30 2770 H 260.281 2.72756 -3.37323 0
M  V30 2771 H 260.952 4.3613 -3.38371 0
M  V30 2772 H 263.428 3.87361 -1.51957 0
M  V30 2773 H 262.304 5.25532 -1.58452 0
M  V30 2774 H 262.565 4.42058 -0.0611849 0
M  V30 2775 N 261.624 0.925811 1.2754 0
M  V30 2776 C 262.873 0.561084 1.93739 0
M  V30 2777 C 263.186 -0.901685 1.73577 0
M  V30 2778 O 264.392 -1.37511 2.34101 0
M  V30 2779 C 262.848 0.952668 3.47062 0
M  V30 2780 C 262.456 2.43599 3.75983 0
M  V30 2781 C 264.2 0.659103 4.19352 0
M  V30 2782 C 262.107 2.76707 5.22673 0
M  V30 2783 H 261.037 0.206122 0.725279 0
M  V30 2784 H 263.688 1.12637 1.44863 0
M  V30 2785 H 262.07 0.316053 3.94737 0
M  V30 2786 H 263.244 3.12035 3.39073 0
M  V30 2787 H 261.559 2.70125 3.16893 0
M  V30 2788 H 264.156 0.882985 5.27359 0
M  V30 2789 H 264.499 -0.403607 4.14339 0
M  V30 2790 H 265.032 1.25473 3.77494 0
M  V30 2791 H 261.771 3.8188 5.32774 0
M  V30 2792 H 261.291 2.12919 5.60737 0
M  V30 2793 H 262.97 2.6435 5.90532 0
M  V30 2794 N 263.102 -1.41638 0.69111 0
M  V30 2795 C 264.379 -1.95036 0.148421 0
M  V30 2796 C 264.759 -1.63072 -1.34055 0
M  V30 2797 O 264.107 -0.93538 -2.08478 0
M  V30 2798 C 264.317 -3.46279 0.434951 0
M  V30 2799 C 265.665 -4.23069 0.360275 0
M  V30 2800 O 266.689 -3.54277 0.369613 0
M  V30 2801 O 265.548 -5.45583 0.316534 0
M  V30 2802 H 262.642 -0.826908 0.0123654 0
M  V30 2803 H 265.188 -1.5138 0.766963 0
M  V30 2804 H 263.96 -3.6281 1.46576 0
M  V30 2805 H 263.583 -3.97019 -0.214787 0
M  V30 2806 N 264.58 -0.43555 -1.51462 0
M  V30 2807 C 265.829 0.133007 -2.01261 0
M  V30 2808 C 266.142 1.43942 -1.32439 0
M  V30 2809 O 267.348 2.09081 -1.73198 0
M  V30 2810 C 265.804 0.287581 -3.58749 0
M  V30 2811 C 265.412 -1.00829 -4.36506 0
M  V30 2812 C 267.156 0.810004 -4.167 0
M  V30 2813 C 265.063 -0.819454 -5.85695 0
M  V30 2814 H 263.993 0.0534822 -0.752101 0
M  V30 2815 H 266.644 -0.565038 -1.74584 0
M  V30 2816 H 265.026 1.04859 -3.81865 0
M  V30 2817 H 266.2 -1.77749 -4.25138 0
M  V30 2818 H 264.515 -1.45911 -3.89999 0
M  V30 2819 H 267.112 0.967743 -5.2587 0
M  V30 2820 H 267.455 1.79196 -3.75758 0
M  V30 2821 H 267.988 0.107357 -3.97655 0
M  V30 2822 H 264.727 -1.77374 -6.31046 0
M  V30 2823 H 264.247 -0.0900208 -5.99732 0
M  V30 2824 H 265.926 -0.471949 -6.45276 0
M  V30 2825 N 266.058 1.56714 -0.166846 0
M  V30 2826 C 266.988 2.20754 0.760913 0
M  V30 2827 C 267.969 1.16178 1.24244 0
M  V30 2828 O 269.154 1.44592 1.29641 0
M  V30 2829 C 266.284 2.84478 1.99223 0
M  V30 2830 C 265.238 3.95053 1.64672 0
M  V30 2831 C 264.564 4.45805 2.95232 0
M  V30 2832 C 265.864 5.14865 0.878155 0
M  V30 2833 H 267.558 2.98537 0.22713 0
M  V30 2834 H 265.104 1.43596 0.107805 0
M  V30 2835 H 267.057 3.27951 2.64624 0
M  V30 2836 H 265.781 2.04056 2.55007 0
M  V30 2837 H 264.44 3.52228 1.01641 0
M  V30 2838 H 264.088 3.62181 3.49047 0
M  V30 2839 H 263.788 5.204 2.7287 0
M  V30 2840 H 265.312 4.91962 3.6167 0
M  V30 2841 H 266.726 5.55059 1.43466 0
M  V30 2842 H 265.123 5.95348 0.753738 0
M  V30 2843 H 266.193 4.84735 -0.126377 0
M  V30 2844 N 267.536 -0.106894 1.57237 0
M  V30 2845 C 268.813 -0.843526 1.76477 0
M  V30 2846 C 269.193 -1.97499 0.745464 0
M  V30 2847 O 268.541 -2.27357 -0.228306 0
M  V30 2848 C 268.751 -1.34903 3.21873 0
M  V30 2849 C 270.099 -1.79654 3.8472 0
M  V30 2850 O 271.123 -1.44554 3.2555 0
M  V30 2851 O 269.982 -2.44515 4.88748 0
M  V30 2852 H 267.076 -0.401468 0.723016 0
M  V30 2853 H 269.622 -0.0896927 1.69463 0
M  V30 2854 H 268.394 -0.53781 3.87586 0
M  V30 2855 H 268.017 -2.16522 3.33473 0
M  V30 2856 N 269.014 -1.53014 -0.377408 0
M  V30 2857 C 270.43 -1.42523 -0.718281 0
M  V30 2858 C 270.63 -0.55487 -1.9371 0
M  V30 2859 O 269.686 -0.0327593 -2.52479 0
M  V30 2860 C 270.999 -2.85546 -0.942539 0
M  V30 2861 C 272.547 -2.95101 -1.04329 0
M  V30 2862 C 273.022 -4.3916 -1.3001 0
M  V30 2863 N 274.513 -4.42536 -1.36806 0
M  V30 2864 C 275.248 -5.51097 -1.58364 0
M  V30 2865 N 274.744 -6.69724 -1.77317 0
M  V30 2866 N 276.537 -5.38657 -1.60638 0
M  V30 2867 H 268.688 -2.08116 0.424426 0
M  V30 2868 H 270.951 -0.939352 0.127759 0
M  V30 2869 H 270.657 -3.51499 -0.118929 0
M  V30 2870 H 270.531 -3.28493 -1.85397 0
M  V30 2871 H 272.918 -2.29309 -1.85745 0
M  V30 2872 H 272.999 -2.55566 -0.109505 0
M  V30 2873 H 272.643 -5.05521 -0.490991 0
M  V30 2874 H 272.573 -4.76258 -2.24691 0
M  V30 2875 H 275.064 -3.57039 -1.23821 0
M  V30 2876 H 275.377 -7.48233 -1.93306 0
M  V30 2877 H 273.722 -6.72732 -1.74518 0
M  V30 2878 H 276.913 -4.44948 -1.45391 0
M  V30 2879 H 277.086 -6.2333 -1.77098 0
M  V30 2880 N 270.492 0.636531 -1.44174 0
M  V30 2881 C 271.903 1.21806 -1.41493 0
M  V30 2882 C 272.254 1.95785 -0.1275 0
M  V30 2883 O 271.379 2.02147 0.772376 0
M  V30 2884 C 271.974 2.21551 -2.56321 0
M  V30 2885 C 270.533 2.75143 -2.56853 0
M  V30 2886 C 269.68 1.50052 -2.33195 0
M  V30 2887 H 272.631 0.427531 -1.52833 0
M  V30 2888 H 272.652 3.0405 -2.28765 0
M  V30 2889 H 272.164 1.67679 -3.50008 0
M  V30 2890 H 270.265 3.33033 -1.67093 0
M  V30 2891 H 270.378 3.2155 -3.55165 0
M  V30 2892 H 268.742 1.77993 -1.82183 0
M  V30 2893 H 269.525 0.980903 -3.28988 0
M  V30 2894 N 271.97 1.30982 0.876444 0
M  V30 2895 C 272.9 1.20668 1.99903 0
M  V30 2896 C 273.881 0.095354 1.69833 0
M  V30 2897 O 275.066 0.27885 1.92188 0
M  V30 2898 C 272.196 0.90655 3.3526 0
M  V30 2899 C 271.15 1.97675 3.79617 0
M  V30 2900 C 270.476 1.52943 5.1236 0
M  V30 2901 C 271.776 3.389 3.97422 0
M  V30 2902 H 273.47 2.14586 2.0879 0
M  V30 2903 H 271.016 1.03308 1.00317 0
M  V30 2904 H 272.969 0.821025 4.13324 0
M  V30 2905 H 271.693 -0.0682969 3.26529 0
M  V30 2906 H 270.352 2.05205 3.03787 0
M  V30 2907 H 270 0.54262 5.00065 0
M  V30 2908 H 269.7 2.24532 5.43009 0
M  V30 2909 H 271.224 1.45786 5.92941 0
M  V30 2910 H 272.638 3.34081 4.659 0
M  V30 2911 H 271.035 4.0865 4.3946 0
M  V30 2912 H 272.105 3.80163 3.01006 0
M  V30 2913 N 273.449 -1.08991 1.13837 0
M  V30 2914 C 274.697 -1.80899 0.901098 0
M  V30 2915 C 275.018 -1.86356 -0.574134 0
M  V30 2916 O 274.288 -1.35235 -1.41733 0
M  V30 2917 H 272.868 -0.669966 0.330386 0
M  V30 2918 H 275.53 -1.318 1.43578 0
M  V30 2919 H 274.626 -2.83929 1.29578 0
M  V30 2920 N 274.927 -0.932562 -1.27047 0
M  V30 2921 C 276.173 -0.576412 -1.94436 0
M  V30 2922 C 276.506 0.880891 -1.73072 0
M  V30 2923 O 275.781 1.62905 -1.06264 0
M  V30 2924 C 276.064 -0.909031 -3.48437 0
M  V30 2925 C 275.917 -2.42044 -3.79123 0
M  V30 2926 C 277.236 -0.418341 -4.38107 0
M  V30 2927 H 274.355 -0.210888 -0.706184 0
M  V30 2928 H 276.997 -1.16522 -1.50075 0
M  V30 2929 H 275.147 -0.407947 -3.86352 0
M  V30 2930 H 276.819 -2.99359 -3.50973 0
M  V30 2931 H 275.062 -2.86758 -3.25503 0
M  V30 2932 H 275.733 -2.6037 -4.86736 0
M  V30 2933 H 278.209 -0.847856 -4.0737 0
M  V30 2934 H 277.085 -0.679981 -5.44672 0
M  V30 2935 H 277.346 0.681642 -4.36814 0
M  V30 2936 N 276.405 1.4127 -0.698611 0
M  V30 2937 C 277.635 2.05205 -0.239644 0
M  V30 2938 C 278.043 1.52684 1.11733 0
M  V30 2939 O 277.386 0.671222 1.70998 0
M  V30 2940 C 277.448 3.59289 -0.123126 0
M  V30 2941 C 277.112 4.34619 -1.41263 0
M  V30 2942 C 278.109 4.63701 -2.35111 0
M  V30 2943 C 275.794 4.73837 -1.66684 0
M  V30 2944 C 277.788 5.30966 -3.52639 0
M  V30 2945 C 275.475 5.40837 -2.84498 0
M  V30 2946 C 276.473 5.69329 -3.77298 0
M  V30 2947 O 276.161 6.34949 -4.93047 0
M  V30 2948 H 275.893 0.66723 -0.108537 0
M  V30 2949 H 278.447 1.81974 -0.952602 0
M  V30 2950 H 276.677 3.81272 0.645628 0
M  V30 2951 H 278.366 4.04797 0.299056 0
M  V30 2952 H 279.132 4.33882 -2.16729 0
M  V30 2953 H 275.011 4.51039 -0.953135 0
M  V30 2954 H 278.555 5.53121 -4.25091 0
M  V30 2955 H 274.452 5.70075 -3.02795 0
M  V30 2956 H 275.22 6.53445 -4.92902 0
M  V30 2957 N 277.883 0.443576 1.51229 0
M  V30 2958 C 278.813 -0.355142 2.30783 0
M  V30 2959 C 279.794 -1.0154 1.36468 0
M  V30 2960 O 280.979 -1.01785 1.65389 0
M  V30 2961 C 278.109 -1.45312 3.15439 0
M  V30 2962 C 277.063 -0.916002 4.18083 0
M  V30 2963 C 276.389 -2.1102 4.91299 0
M  V30 2964 C 277.689 0.0538602 5.22272 0
M  V30 2965 H 279.383 0.308767 2.97804 0
M  V30 2966 H 276.929 0.149937 1.43217 0
M  V30 2967 H 278.882 -2.01914 3.69876 0
M  V30 2968 H 277.606 -2.14541 2.46252 0
M  V30 2969 H 276.265 -0.372145 3.64706 0
M  V30 2970 H 275.913 -2.78882 4.18609 0
M  V30 2971 H 275.613 -1.75717 5.60712 0
M  V30 2972 H 277.137 -2.68164 5.48562 0
M  V30 2973 H 278.551 -0.422069 5.71744 0
M  V30 2974 H 276.948 0.319776 5.99247 0
M  V30 2975 H 278.018 0.98858 4.74716 0
M  V30 2976 N 279.361 -1.56624 0.175154 0
M  V30 2977 C 280.638 -1.88688 -0.515373 0
M  V30 2978 C 281.018 -1.08564 -1.81044 0
M  V30 2979 O 280.366 -0.180703 -2.27784 0
M  V30 2980 C 280.576 -3.40768 -0.753552 0
M  V30 2981 C 281.924 -4.10587 -1.08184 0
M  V30 2982 O 282.948 -3.46106 -0.841961 0
M  V30 2983 O 281.807 -5.24512 -1.53459 0
M  V30 2984 H 278.901 -0.78301 -0.26613 0
M  V30 2985 H 281.447 -1.68347 0.213877 0
M  V30 2986 H 280.219 -3.90965 0.161829 0
M  V30 2987 H 279.842 -3.66733 -1.53598 0
M  V30 2988 N 280.839 0.0985539 -1.57292 0
M  V30 2989 C 281.786 1.11981 -2.01814 0
M  V30 2990 C 282.756 1.39999 -0.89384 0
M  V30 2991 O 283.941 1.5152 -1.15958 0
M  V30 2992 C 281.081 2.43577 -2.44467 0
M  V30 2993 C 280.194 2.2232 -3.70402 0
M  V30 2994 C 279.329 3.4729 -4.01949 0
M  V30 2995 C 278.368 3.2128 -5.21005 0
M  V30 2996 N 277.505 4.38507 -5.48321 0
M  V30 2997 H 282.345 0.733149 -2.88841 0
M  V30 2998 H 279.882 0.350482 -1.42864 0
M  V30 2999 H 281.84 3.20373 -2.6724 0
M  V30 3000 H 280.47 2.80097 -1.60455 0
M  V30 3001 H 279.522 1.36343 -3.55126 0
M  V30 3002 H 280.834 1.99089 -4.57345 0
M  V30 3003 H 279.988 4.32495 -4.25479 0
M  V30 3004 H 278.727 3.73572 -3.13521 0
M  V30 3005 H 277.732 2.34468 -4.97298 0
M  V30 3006 H 278.957 2.96348 -6.11028 0
M  V30 3007 H 276.903 4.64871 -4.62851 0
M  V30 3008 H 276.82 4.18455 -6.29628 0
M  V30 3009 H 278.088 5.24787 -5.76385 0
M  V30 3010 N 282.317 1.53212 0.369288 0
M  V30 3011 C 283.227 1.82342 1.47609 0
M  V30 3012 C 284.243 0.711532 1.58787 0
M  V30 3013 O 285.419 1.0012 1.74751 0
M  V30 3014 C 282.484 2.00393 2.8292 0
M  V30 3015 C 281.545 3.24297 2.81301 0
M  V30 3016 C 280.778 3.41478 4.10157 0
M  V30 3017 O 281.001 2.63033 5.06132 0
M  V30 3018 O 279.935 4.34817 4.16194 0
M  V30 3019 H 283.761 2.76366 1.25918 0
M  V30 3020 H 281.346 1.38547 0.559034 0
M  V30 3021 H 283.228 2.13859 3.63101 0
M  V30 3022 H 281.903 1.09559 3.04596 0
M  V30 3023 H 280.81 3.16257 1.99831 0
M  V30 3024 H 282.143 4.15041 2.64578 0
M  V30 3025 N 283.795 -0.628877 1.44509 0
M  V30 3026 C 285.042 -1.38839 1.47411 0
M  V30 3027 C 285.37 -1.94202 0.10757 0
M  V30 3028 O 284.625 -1.74243 -0.890947 0
M  V30 3029 C 284.924 -2.56995 2.48371 0
M  V30 3030 C 284.59 -2.19908 3.93639 0
M  V30 3031 C 283.252 -2.09506 4.33198 0
M  V30 3032 C 285.604 -1.9064 4.85083 0
M  V30 3033 C 282.932 -1.68028 5.62124 0
M  V30 3034 C 285.284 -1.50655 6.14399 0
M  V30 3035 C 283.948 -1.38796 6.5291 0
M  V30 3036 H 283.218 -0.508048 0.539414 0
M  V30 3037 H 285.865 -0.712913 1.77735 0
M  V30 3038 H 284.17 -3.29786 2.11538 0
M  V30 3039 H 285.867 -3.15223 2.47861 0
M  V30 3040 H 282.457 -2.28922 3.62343 0
M  V30 3041 H 286.641 -1.97585 4.55273 0
M  V30 3042 H 281.897 -1.57452 5.90778 0
M  V30 3043 H 286.071 -1.27048 6.84713 0
M  V30 3044 H 283.698 -1.06429 7.52713 0
M  V30 3045 N 285.273 -1.31445 -0.869486 0
M  V30 3046 C 286.501 -1.24122 -1.65534 0
M  V30 3047 C 286.916 0.193387 -1.87807 0
M  V30 3048 O 286.273 1.12557 -1.43656 0
M  V30 3049 C 286.324 -1.98229 -3.02304 0
M  V30 3050 O 286.045 -3.3609 -2.81026 0
M  V30 3051 C 287.546 -1.97751 -3.96749 0
M  V30 3052 H 284.766 -0.428868 -0.516055 0
M  V30 3053 H 287.31 -1.73328 -1.08525 0
M  V30 3054 H 285.465 -1.52782 -3.56001 0
M  V30 3055 H 285.879 -3.7383 -3.67902 0
M  V30 3056 H 287.353 -2.54114 -4.90031 0
M  V30 3057 H 287.83 -0.960137 -4.28577 0
M  V30 3058 H 288.436 -2.43079 -3.48988 0
M  V30 3059 N 286.751 1.08385 -1.14413 0
M  V30 3060 C 288.028 1.77429 -0.823297 0
M  V30 3061 C 288.408 1.9974 0.683163 0
M  V30 3062 O 287.756 1.60739 1.62405 0
M  V30 3063 C 287.966 3.09004 -1.62227 0
M  V30 3064 C 289.314 3.83532 -1.82177 0
M  V30 3065 O 290.338 3.18786 -1.58915 0
M  V30 3066 O 289.197 4.99792 -2.21067 0
M  V30 3067 H 286.291 0.769999 -0.301712 0
M  V30 3068 H 288.837 1.14846 -1.24934 0
M  V30 3069 H 287.609 2.88316 -2.64555 0
M  V30 3070 H 287.232 3.79316 -1.19187 0
M  V30 3071 N 288.23 0.939286 1.26551 0
M  V30 3072 C 289.476 0.586715 1.94128 0
M  V30 3073 C 289.809 -0.8717 1.73537 0
M  V30 3074 O 289.084 -1.62339 1.07127 0
M  V30 3075 C 289.367 0.927497 3.4795 0
M  V30 3076 C 289.22 2.44052 3.77834 0
M  V30 3077 C 290.539 0.441569 4.37879 0
M  V30 3078 H 287.658 0.21463 0.705055 0
M  V30 3079 H 290.3 1.17316 1.49455 0
M  V30 3080 H 288.45 0.428431 3.8613 0
M  V30 3081 H 290.122 3.01216 3.4938 0
M  V30 3082 H 288.365 2.8848 3.23978 0
M  V30 3083 H 289.036 2.62947 4.85348 0
M  V30 3084 H 291.512 0.869448 4.06915 0
M  V30 3085 H 290.388 0.708856 5.44304 0
M  V30 3086 H 290.649 -0.658467 4.37169 0
M  V30 3087 N 289.708 -1.40897 0.706093 0
M  V30 3088 C 290.638 -2.33418 0.0620085 0
M  V30 3089 C 291.619 -1.52385 -0.755827 0
M  V30 3090 O 292.804 -1.80886 -0.706674 0
M  V30 3091 C 289.934 -3.36293 -0.867445 0
M  V30 3092 C 288.888 -4.27716 -0.155932 0
M  V30 3093 C 288.214 -5.2105 -1.20046 0
M  V30 3094 C 289.514 -5.12944 0.984149 0
M  V30 3095 H 291.208 -2.87527 0.83477 0
M  V30 3096 H 288.754 -1.38249 0.402875 0
M  V30 3097 H 290.707 -3.99949 -1.32735 0
M  V30 3098 H 289.431 -2.80556 -1.67199 0
M  V30 3099 H 288.09 -3.65498 0.284047 0
M  V30 3100 H 287.738 -4.61624 -1.99781 0
M  V30 3101 H 287.438 -5.83056 -0.729328 0
M  V30 3102 H 288.962 -5.87584 -1.66066 0
M  V30 3103 H 290.376 -5.70109 0.604048 0
M  V30 3104 H 288.773 -5.83945 1.38304 0
M  V30 3105 H 289.843 -4.49485 1.81911 0
M  V30 3106 N 291.186 -0.45159 -1.50991 0
M  V30 3107 C 292.414 0.108334 -2.06616 0
M  V30 3108 C 292.829 1.35224 -1.31757 0
M  V30 3109 O 292.186 1.78475 -0.381174 0
M  V30 3110 C 292.237 0.41619 -3.59096 0
M  V30 3111 O 291.958 -0.778361 -4.3113 0
M  V30 3112 C 293.459 1.02523 -4.31282 0
M  V30 3113 H 290.679 0.00159995 -0.670998 0
M  V30 3114 H 293.223 -0.634771 -1.94399 0
M  V30 3115 H 291.378 1.10921 -3.71181 0
M  V30 3116 H 291.792 -0.511181 -5.22003 0
M  V30 3117 H 293.266 1.19053 -5.39009 0
M  V30 3118 H 293.743 2.01013 -3.905 0
M  V30 3119 H 294.349 0.371173 -4.23677 0
M  V30 3120 N 292.664 1.56529 -0.183458 0
M  V30 3121 C 293.574 2.22144 0.754272 0
M  V30 3122 C 294.59 1.21684 1.24374 0
M  V30 3123 O 295.766 1.54385 1.29333 0
M  V30 3124 C 292.831 2.85884 1.96141 0
M  V30 3125 C 291.892 4.01579 1.51765 0
M  V30 3126 C 291.125 4.6227 2.66725 0
M  V30 3127 O 291.348 4.21865 3.83909 0
M  V30 3128 O 290.282 5.51936 2.40104 0
M  V30 3129 H 294.108 3.02861 0.225527 0
M  V30 3130 H 291.693 1.49331 0.0453032 0
M  V30 3131 H 293.575 3.26253 2.66715 0
M  V30 3132 H 292.25 2.08154 2.47899 0
M  V30 3133 H 291.157 3.65856 0.781049 0
M  V30 3134 H 292.49 4.80938 1.04686 0
M  V30 3135 N 294.142 -0.090211 1.57342 0
M  V30 3136 C 295.052 -1.12735 2.05738 0
M  V30 3137 C 296.068 -1.43557 0.983231 0
M  V30 3138 O 297.244 -1.54101 1.29672 0
M  V30 3139 C 294.309 -2.42659 2.47624 0
M  V30 3140 C 293.37 -2.18975 3.69254 0
M  V30 3141 C 292.603 -3.42704 4.09133 0
M  V30 3142 O 292.826 -4.51127 3.49057 0
M  V30 3143 O 291.76 -3.32003 5.02053 0
M  V30 3144 H 295.586 -0.746279 2.94388 0
M  V30 3145 H 293.171 -0.303064 1.46294 0
M  V30 3146 H 295.053 -3.19155 2.7517 0
M  V30 3147 H 293.728 -2.80182 1.62109 0
M  V30 3148 H 292.635 -1.40244 3.46818 0
M  V30 3149 H 293.968 -1.86342 4.55563 0
M  V30 3150 N 295.62 -1.53406 -0.361157 0
M  V30 3151 C 296.553 -1.74946 -1.46524 0
M  V30 3152 C 297.531 -0.59795 -1.51206 0
M  V30 3153 O 298.715 -0.831062 -1.69191 0
M  V30 3154 C 295.842 -1.83224 -2.84863 0
M  V30 3155 C 294.888 -3.05233 -2.97885 0
M  V30 3156 S 295.721 -4.6466 -2.66179 0
M  V30 3157 C 296.877 -4.75793 -4.06659 0
M  V30 3158 H 297.11 -2.68319 -1.28033 0
M  V30 3159 H 294.643 -1.44051 -0.555764 0
M  V30 3160 H 296.601 -1.88679 -3.64569 0
M  V30 3161 H 295.262 -0.908948 -3.00661 0
M  V30 3162 H 294.455 -3.07648 -3.9921 0
M  V30 3163 H 294.057 -2.97913 -2.26106 0
M  V30 3164 H 296.349 -4.5612 -5.0096 0
M  V30 3165 H 297.292 -5.7786 -4.09247 0
M  V30 3166 H 297.7 -4.04389 -3.93865 0
M  V30 3167 N 297.098 0.621204 -1.44841 0
M  V30 3168 C 298.008 1.7612 -1.5498 0
M  V30 3169 C 299.024 1.68477 -0.434927 0
M  V30 3170 O 300.2 1.89076 -0.693693 0
M  V30 3171 C 297.265 3.1254 -1.50065 0
M  V30 3172 C 296.326 3.31741 -2.72482 0
M  V30 3173 C 295.559 4.61653 -2.67792 0
M  V30 3174 O 295.782 5.431 -1.74352 0
M  V30 3175 O 294.716 4.83271 -3.58794 0
M  V30 3176 H 298.542 1.70518 -2.51311 0
M  V30 3177 H 296.127 0.783643 -1.27198 0
M  V30 3178 H 298.009 3.93844 -1.49882 0
M  V30 3179 H 296.684 3.18663 -0.568806 0
M  V30 3180 H 295.591 2.50077 -2.7823 0
M  V30 3181 H 296.924 3.30486 -3.64746 0
M  V30 3182 N 298.576 1.31904 0.862503 0
M  V30 3183 C 299.539 1.20131 1.95195 0
M  V30 3184 C 300.539 0.126409 1.60302 0
M  V30 3185 O 301.729 0.376234 1.70089 0
M  V30 3186 C 298.861 0.845691 3.30244 0
M  V30 3187 H 300.054 2.16943 2.07064 0
M  V30 3188 H 297.607 1.15622 1.05172 0
M  V30 3189 H 298.342 -0.120957 3.24074 0
M  V30 3190 H 298.127 1.62276 3.56944 0
M  V30 3191 H 299.617 0.787418 4.10109 0
M  V30 3192 N 300.054 -1.07777 1.14986 0
M  V30 3193 C 301.002 -2.16964 0.838406 0
M  V30 3194 C 301.996 -1.68372 -0.186386 0
M  V30 3195 O 303.202 -1.79951 -0.0418465 0
M  V30 3196 H 299.577 -0.708006 0.253439 0
M  V30 3197 H 301.548 -2.40454 1.76704 0
M  V30 3198 C 300.297 -3.4604 0.339335 0
M  V30 3199 H 299.62 -3.83813 1.11927 0
M  V30 3200 H 301.06 -4.23698 0.160021 0
M  V30 3201 C 299.519 -3.23569 -0.938325 0
M  V30 3202 O 300.049 -3.47752 -2.01077 0
M  V30 3203 N 298.255 -2.77079 -0.876117 0
M  V30 3204 H 297.802 -2.576 -0.00322037 0
M  V30 3205 H 297.76 -2.62422 -1.73153 0
M  V30 3206 N 301.532 -0.945985 -1.26051 0
M  V30 3207 C 302.48 -0.450259 -2.282 0
M  V30 3208 C 303.474 0.47497 -1.62605 0
M  V30 3209 O 304.68 0.352653 -1.76512 0
M  V30 3210 H 301.055 -0.127081 -0.741184 0
M  V30 3211 H 303.026 -1.32422 -2.67408 0
M  V30 3212 C 301.775 0.26467 -3.46691 0
M  V30 3213 H 301.098 -0.438123 -3.97392 0
M  V30 3214 H 302.538 0.575678 -4.20074 0
M  V30 3215 C 300.997 1.48416 -3.02447 0
M  V30 3216 O 301.527 2.58227 -3.07704 0
M  V30 3217 N 299.733 1.34243 -2.57735 0
M  V30 3218 H 299.28 0.448994 -2.53657 0
M  V30 3219 H 299.238 2.15957 -2.28495 0
M  V30 3220 N 303.011 1.40521 -0.713556 0
M  V30 3221 C 304.26 2.00155 -0.249192 0
M  V30 3222 C 304.573 1.57224 1.16362 0
M  V30 3223 O 305.779 2.09542 1.72639 0
M  V30 3224 C 304.235 3.5773 -0.3946 0
M  V30 3225 C 303.843 4.09635 -1.81392 0
M  V30 3226 C 305.587 4.24499 0.00907364 0
M  V30 3227 C 303.494 5.59707 -1.91003 0
M  V30 3228 H 302.424 0.74868 -0.0894114 0
M  V30 3229 H 305.075 1.60784 -0.884352 0
M  V30 3230 H 303.457 3.94792 0.30911 0
M  V30 3231 H 304.631 3.83955 -2.54785 0
M  V30 3232 H 302.946 3.55456 -2.16888 0
M  V30 3233 H 305.543 5.34683 -0.0420404 0
M  V30 3234 H 305.886 4.02824 1.05065 0
M  V30 3235 H 306.419 3.92536 -0.645007 0
M  V30 3236 H 303.158 5.86234 -2.93275 0
M  V30 3237 H 302.678 5.87258 -1.22019 0
M  V30 3238 H 304.357 6.24776 -1.6812 0
M  V30 3239 N 304.489 0.459591 1.5075 0
M  V30 3240 C 305.717 -0.0973749 2.06671 0
M  V30 3241 C 306.132 -1.34524 1.32472 0
M  V30 3242 O 305.489 -1.7827 0.390634 0
M  V30 3243 C 305.54 -0.39714 3.59312 0
M  V30 3244 O 305.261 0.801214 4.30711 0
M  V30 3245 C 306.762 -1.00234 4.31819 0
M  V30 3246 H 303.982 0.00195854 0.670997 0
M  V30 3247 H 306.526 0.645072 1.94059 0
M  V30 3248 H 304.681 -1.08951 3.71764 0
M  V30 3249 H 305.095 0.538857 5.21725 0
M  V30 3250 H 306.569 -1.16193 5.39632 0
M  V30 3251 H 307.046 -1.98939 3.91561 0
M  V30 3252 H 307.652 -0.348699 4.23868 0
M  V30 3253 N 305.967 -1.56429 0.191757 0
M  V30 3254 C 307.216 -1.9666 -0.448088 0
M  V30 3255 C 307.529 -1.08136 -1.62991 0
M  V30 3256 O 308.735 -1.38135 -2.33733 0
M  V30 3257 C 307.191 -3.49753 -0.848585 0
M  V30 3258 C 306.799 -4.46935 0.308764 0
M  V30 3259 C 308.543 -3.9876 -1.4557 0
M  V30 3260 C 306.45 -5.91293 -0.112506 0
M  V30 3261 H 305.38 -0.734312 -0.171179 0
M  V30 3262 H 308.031 -1.81301 0.283242 0
M  V30 3263 H 306.413 -3.60604 -1.63649 0
M  V30 3264 H 307.587 -4.47813 1.08627 0
M  V30 3265 H 305.902 -4.08102 0.827158 0
M  V30 3266 H 308.499 -5.04086 -1.78328 0
M  V30 3267 H 308.842 -3.42875 -2.36099 0
M  V30 3268 H 309.375 -3.9101 -0.731836 0
M  V30 3269 H 306.114 -6.51097 0.758514 0
M  V30 3270 H 305.634 -5.93676 -0.854941 0
M  V30 3271 H 307.313 -6.44663 -0.549448 0
M  V30 3272 N 307.445 0.0818655 -1.57387 0
M  V30 3273 C 308.408 1.08265 -2.02018 0
M  V30 3274 C 309.408 1.32183 -0.915664 0
M  V30 3275 O 310.598 1.28073 -1.18081 0
M  V30 3276 C 307.73 2.42871 -2.39221 0
M  V30 3277 H 308.923 0.698204 -2.91659 0
M  V30 3278 H 306.476 0.327303 -1.52835 0
M  V30 3279 H 307.211 2.86167 -1.52575 0
M  V30 3280 H 306.996 2.26855 -3.19811 0
M  V30 3281 H 308.486 3.14826 -2.74362 0
M  V30 3282 N 308.923 1.53595 0.353017 0
M  V30 3283 C 310.151 1.74311 1.1146 0
M  V30 3284 C 310.566 0.477854 1.82653 0
M  V30 3285 O 309.923 -0.549977 1.74016 0
M  V30 3286 C 309.974 2.91694 2.13534 0
M  V30 3287 O 309.695 4.13325 1.45238 0
M  V30 3288 C 311.196 3.24384 3.02142 0
M  V30 3289 H 308.416 0.582669 0.332773 0
M  V30 3290 H 310.96 2.00386 0.408107 0
M  V30 3291 H 309.115 2.67977 2.79763 0
M  V30 3292 H 309.529 4.79148 2.13349 0
M  V30 3293 H 311.003 4.09893 3.69718 0
M  V30 3294 H 311.48 2.40282 3.67643 0
M  V30 3295 H 312.086 3.50073 2.41514 0
M  V30 3296 N 310.401 -0.613514 1.45168 0
M  V30 3297 C 311.649 -1.36997 1.48581 0
M  V30 3298 C 311.97 -1.94589 0.126545 0
M  V30 3299 O 311.24 -1.76816 -0.843372 0
M  V30 3300 H 309.82 -0.508558 0.547154 0
M  V30 3301 H 312.482 -0.720853 1.81079 0
M  V30 3302 H 311.578 -2.1924 2.22127 0
M  V30 3303 N 311.879 -1.3236 -0.855495 0
M  V30 3304 C 312.789 -1.23221 -1.99634 0
M  V30 3305 C 313.805 -0.145983 -1.73387 0
M  V30 3306 O 314.981 -0.366502 -1.98037 0
M  V30 3307 C 312.046 -0.954782 -3.33294 0
M  V30 3308 C 311.107 -2.12937 -3.72769 0
M  V30 3309 C 310.34 -1.86508 -5.00051 0
M  V30 3310 O 310.563 -0.807231 -5.64659 0
M  V30 3311 O 309.497 -2.72591 -5.36636 0
M  V30 3312 H 313.323 -2.19126 -2.1028 0
M  V30 3313 H 310.908 -1.12241 -0.986018 0
M  V30 3314 H 312.79 -0.816519 -4.13414 0
M  V30 3315 H 311.465 -0.0258854 -3.2369 0
M  V30 3316 H 310.372 -2.3231 -2.93228 0
M  V30 3317 H 311.705 -3.04102 -3.87018 0
M  V30 3318 N 313.357 1.07166 -1.15556 0
M  V30 3319 C 314.585 1.83514 -0.955519 0
M  V30 3320 C 315 1.82163 0.49621 0
M  V30 3321 O 314.357 1.23441 1.34419 0
M  V30 3322 C 314.408 3.30515 -1.46432 0
M  V30 3323 O 314.129 3.31937 -2.85918 0
M  V30 3324 C 315.63 4.23625 -1.30603 0
M  V30 3325 H 312.85 0.578926 -0.339244 0
M  V30 3326 H 315.394 1.35265 -1.53374 0
M  V30 3327 H 313.549 3.76106 -0.928584 0
M  V30 3328 H 313.963 4.23794 -3.09029 0
M  V30 3329 H 315.437 5.24831 -1.71047 0
M  V30 3330 H 315.914 4.38485 -0.250441 0
M  V30 3331 H 316.52 3.83871 -1.83094 0
M  V30 3332 N 314.835 0.952656 1.25548 0
M  V30 3333 C 316.081 0.607272 1.93494 0
M  V30 3334 C 316.414 -0.853245 1.74452 0
M  V30 3335 O 315.689 -1.61194 1.08843 0
M  V30 3336 C 315.972 0.96435 3.46947 0
M  V30 3337 C 315.825 2.48045 3.75225 0
M  V30 3338 C 317.144 0.487987 4.37386 0
M  V30 3339 H 314.263 0.222096 0.702739 0
M  V30 3340 H 316.905 1.18895 1.48203 0
M  V30 3341 H 315.055 0.469361 3.85654 0
M  V30 3342 H 316.727 3.04905 3.46166 0
M  V30 3343 H 314.97 2.919 3.209 0
M  V30 3344 H 315.641 2.6808 4.82532 0
M  V30 3345 H 318.117 0.912558 4.0597 0
M  V30 3346 H 316.993 0.766547 5.43521 0
M  V30 3347 H 317.254 -0.612063 4.37843 0
M  V30 3348 N 316.313 -1.40141 0.720998 0
M  V30 3349 C 317.223 -2.34486 0.0731031 0
M  V30 3350 C 318.239 -1.57587 -0.737723 0
M  V30 3351 O 319.415 -1.89949 -0.669429 0
M  V30 3352 C 316.48 -3.36528 -0.833656 0
M  V30 3353 C 315.541 -4.29298 -0.0121673 0
M  V30 3354 C 314.774 -5.26466 -0.875742 0
M  V30 3355 O 314.997 -5.29745 -2.11485 0
M  V30 3356 O 313.931 -6.01092 -0.31185 0
M  V30 3357 H 317.757 -2.9152 0.851444 0
M  V30 3358 H 315.342 -1.41427 0.481527 0
M  V30 3359 H 317.224 -3.99093 -1.35289 0
M  V30 3360 H 315.899 -2.81899 -1.59105 0
M  V30 3361 H 314.806 -3.70001 0.552262 0
M  V30 3362 H 316.139 -4.87094 0.707129 0
M  V30 3363 N 317.792 -0.46758 -1.50504 0
M  V30 3364 C 319.208 -0.121533 -1.59137 0
M  V30 3365 C 319.408 1.3717 -1.47603 0
M  V30 3366 O 318.464 2.14464 -1.33272 0
M  V30 3367 C 319.777 -0.6686 -2.93173 0
M  V30 3368 C 321.325 -0.631716 -3.06559 0
M  V30 3369 C 321.8 -1.15627 -4.43164 0
M  V30 3370 N 323.291 -1.11553 -4.49567 0
M  V30 3371 C 324.026 -1.49195 -5.5365 0
M  V30 3372 N 323.522 -1.94269 -6.65005 0
M  V30 3373 N 325.315 -1.4082 -5.44175 0
M  V30 3374 H 317.466 -1.4388 -1.56245 0
M  V30 3375 H 319.729 -0.594784 -0.738198 0
M  V30 3376 H 319.435 -1.71453 -3.07078 0
M  V30 3377 H 319.309 -0.11021 -3.77039 0
M  V30 3378 H 321.696 0.405297 -2.92304 0
M  V30 3379 H 321.777 -1.22687 -2.24458 0
M  V30 3380 H 321.421 -2.1919 -4.58168 0
M  V30 3381 H 321.351 -0.537365 -5.23851 0
M  V30 3382 H 323.842 -0.784895 -3.69659 0
M  V30 3383 H 324.155 -2.21148 -7.40482 0
M  V30 3384 H 322.5 -1.98219 -6.66134 0
M  V30 3385 H 325.691 -1.0545 -4.56068 0
M  V30 3386 H 325.864 -1.70481 -6.25172 0
M  V30 3387 N 319.27 1.56325 -0.20005 0
M  V30 3388 C 320.5 2.01811 0.442232 0
M  V30 3389 C 320.908 1.07932 1.55394 0
M  V30 3390 O 320.251 0.0772685 1.83537 0
M  V30 3391 C 320.313 3.43685 1.05457 0
M  V30 3392 C 319.977 4.56928 0.0809833 0
M  V30 3393 C 320.974 5.15009 -0.711471 0
M  V30 3394 C 318.659 5.0229 -0.0315364 0
M  V30 3395 C 320.653 6.16904 -1.60336 0
M  V30 3396 C 318.34 6.04028 -0.926981 0
M  V30 3397 C 319.338 6.6121 -1.71146 0
M  V30 3398 O 319.026 7.60971 -2.59189 0
M  V30 3399 H 318.758 0.666173 0.114848 0
M  V30 3400 H 321.312 2.03085 -0.307511 0
M  V30 3401 H 319.542 3.39413 1.85299 0
M  V30 3402 H 321.231 3.72948 1.60201 0
M  V30 3403 H 321.997 4.80827 -0.634873 0
M  V30 3404 H 317.876 4.57476 0.568902 0
M  V30 3405 H 321.42 6.61464 -2.21611 0
M  V30 3406 H 317.317 6.37634 -1.00468 0
M  V30 3407 H 318.085 7.7841 -2.53023 0
M  V30 3408 N 320.748 -0.0735177 1.57428 0
M  V30 3409 C 321.658 -1.10547 2.06922 0
M  V30 3410 C 322.674 -1.42506 0.998402 0
M  V30 3411 O 323.85 -1.52717 1.31299 0
M  V30 3412 C 320.915 -2.40019 2.50184 0
M  V30 3413 C 319.976 -2.15046 3.71556 0
M  V30 3414 C 319.209 -3.38345 4.12745 0
M  V30 3415 O 319.432 -4.47399 3.53822 0
M  V30 3416 O 318.366 -3.2666 5.05546 0
M  V30 3417 H 322.192 -0.715013 2.95163 0
M  V30 3418 H 319.777 -0.287531 1.46607 0
M  V30 3419 H 321.659 -3.16218 2.78539 0
M  V30 3420 H 320.334 -2.78447 1.65072 0
M  V30 3421 H 319.241 -1.36558 3.48285 0
M  V30 3422 H 320.574 -1.81499 4.57514 0
M  V30 3423 N 322.226 -1.5378 -0.344866 0
M  V30 3424 C 323.474 -1.70625 -1.08311 0
M  V30 3425 C 323.795 -0.471447 -1.89215 0
M  V30 3426 O 323.065 0.514616 -1.8902 0
M  V30 3427 H 321.645 -0.629058 -0.402859 0
M  V30 3428 H 324.307 -1.9103 -0.386459 0
M  V30 3429 H 323.403 -2.57656 -1.76124 0
M  V30 3430 N 323.704 0.605807 -1.45491 0
M  V30 3431 C 324.981 1.36522 -1.40075 0
M  V30 3432 C 325.361 2.10976 -0.0722744 0
M  V30 3433 O 324.709 2.08007 0.945808 0
M  V30 3434 C 324.919 2.31056 -2.61561 0
M  V30 3435 C 326.267 2.93608 -3.06724 0
M  V30 3436 O 327.291 2.41376 -2.61946 0
M  V30 3437 O 326.15 3.88421 -3.84437 0
M  V30 3438 H 323.244 0.612248 -0.555951 0
M  V30 3439 H 325.79 0.628747 -1.57623 0
M  V30 3440 H 324.562 1.75311 -3.49831 0
M  V30 3441 H 324.185 3.12081 -2.46356 0
M  V30 3442 N 325.182 1.32811 0.848464 0
M  V30 3443 C 326.43 1.23479 1.59991 0
M  V30 3444 C 326.751 -0.201853 1.93952 0
M  V30 3445 O 326.021 -1.12818 1.60153 0
M  V30 3446 H 324.601 0.454034 0.593179 0
M  V30 3447 H 327.263 1.66412 1.01455 0
M  V30 3448 H 326.359 1.82178 2.53412 0
M  V30 3449 N 326.66 -1.06551 1.16123 0
M  V30 3450 C 328.076 -1.3142 0.905585 0
M  V30 3451 C 328.276 -1.96571 -0.442964 0
M  V30 3452 O 327.332 -2.23068 -1.18308 0
M  V30 3453 C 328.645 -2.19741 2.05267 0
M  V30 3454 C 330.193 -2.33165 2.08813 0
M  V30 3455 C 330.668 -3.24838 3.22868 0
M  V30 3456 N 332.159 -3.32421 3.22568 0
M  V30 3457 C 332.894 -4.0344 4.0746 0
M  V30 3458 N 332.39 -4.77003 5.02434 0
M  V30 3459 N 334.183 -3.99464 3.95456 0
M  V30 3460 H 326.334 -0.626548 2.02949 0
M  V30 3461 H 328.597 -0.338777 0.8854 0
M  V30 3462 H 328.303 -1.79142 3.02657 0
M  V30 3463 H 328.177 -3.20313 1.99198 0
M  V30 3464 H 330.564 -2.73013 1.12018 0
M  V30 3465 H 330.645 -1.3227 2.18948 0
M  V30 3466 H 330.289 -2.85708 4.19921 0
M  V30 3467 H 330.219 -4.25707 3.0997 0
M  V30 3468 H 332.71 -2.79994 2.53795 0
M  V30 3469 H 333.023 -5.28712 5.63634 0
M  V30 3470 H 331.368 -4.75992 5.06415 0
M  V30 3471 H 334.559 -3.4111 3.20564 0
M  V30 3472 H 334.732 -4.54544 4.61837 0
M  V30 3473 N 328.138 -0.959301 -1.25041 0
M  V30 3474 C 329.384 -0.617525 -1.9317 0
M  V30 3475 C 329.717 0.843981 -1.74902 0
M  V30 3476 O 328.992 1.60615 -1.09696 0
M  V30 3477 C 329.275 -0.982736 -3.46431 0
M  V30 3478 C 329.128 -2.50032 -3.73904 0
M  V30 3479 C 330.447 -0.511176 -4.37121 0
M  V30 3480 H 327.566 -0.22582 -0.701552 0
M  V30 3481 H 330.208 -1.19679 -1.4757 0
M  V30 3482 H 328.358 -0.489806 -3.854 0
M  V30 3483 H 330.03 -3.06737 -3.44544 0
M  V30 3484 H 328.273 -2.93598 -3.19348 0
M  V30 3485 H 328.944 -2.70635 -4.81103 0
M  V30 3486 H 331.42 -0.934075 -4.0548 0
M  V30 3487 H 330.296 -0.795361 -5.43107 0
M  V30 3488 H 330.557 0.588834 -4.38161 0
M  V30 3489 N 329.616 1.39756 -0.72842 0
M  V30 3490 C 330.548 2.29157 -0.0446202 0
M  V30 3491 C 331.561 1.46484 0.710367 0
M  V30 3492 O 332.75 1.69632 0.55562 0
M  V30 3493 C 329.85 3.24987 0.961071 0
M  V30 3494 C 329.023 4.36572 0.268967 0
M  V30 3495 C 328.082 5.12756 1.18184 0
M  V30 3496 O 327.108 5.6534 0.661794 0
M  V30 3497 N 328.31 5.23331 2.51206 0
M  V30 3498 H 331.075 2.88482 -0.812295 0
M  V30 3499 H 328.636 1.51265 -0.577098 0
M  V30 3500 H 330.628 3.72827 1.57423 0
M  V30 3501 H 329.198 2.66739 1.63 0
M  V30 3502 H 328.418 3.90694 -0.524574 0
M  V30 3503 H 329.706 5.08363 -0.210934 0
M  V30 3504 H 329.104 4.82116 2.9594 0
M  V30 3505 H 327.661 5.74634 3.07634 0
M  V30 3506 N 331.094 0.475555 1.50254 0
M  V30 3507 C 332.041 -0.316293 2.28622 0
M  V30 3508 C 333.011 -0.983227 1.33873 0
M  V30 3509 O 334.196 -0.994805 1.62814 0
M  V30 3510 C 331.336 -1.38975 3.1588 0
M  V30 3511 C 330.449 -0.737146 4.25664 0
M  V30 3512 C 329.584 -1.78887 5.00173 0
M  V30 3513 C 328.623 -1.11676 6.01826 0
M  V30 3514 N 327.76 -2.11154 6.69596 0
M  V30 3515 H 332.6 0.358297 2.95838 0
M  V30 3516 H 330.137 0.188541 1.45887 0
M  V30 3517 H 332.095 -2.02383 3.64825 0
M  V30 3518 H 330.725 -2.03344 2.50701 0
M  V30 3519 H 329.777 0.0096065 3.80399 0
M  V30 3520 H 331.089 -0.206816 4.98371 0
M  V30 3521 H 330.243 -2.49865 5.52859 0
M  V30 3522 H 328.982 -2.35302 4.27182 0
M  V30 3523 H 327.987 -0.392633 5.48396 0
M  V30 3524 H 329.212 -0.55945 6.76792 0
M  V30 3525 H 327.158 -2.66577 5.99394 0
M  V30 3526 H 327.075 -1.63118 7.38193 0
M  V30 3527 H 328.343 -2.81497 7.26897 0
M  V30 3528 N 332.573 -1.56217 0.208337 0
M  V30 3529 C 333.822 -1.97124 -0.427204 0
M  V30 3530 C 334.135 -1.09859 -1.61835 0
M  V30 3531 O 335.341 -1.40606 -2.32255 0
M  V30 3532 C 333.797 -3.50633 -0.811442 0
M  V30 3533 C 333.405 -4.46582 0.35615 0
M  V30 3534 C 335.149 -4.00282 -1.41332 0
M  V30 3535 C 333.056 -5.91379 -0.0497852 0
M  V30 3536 H 331.986 -0.736086 -0.163381 0
M  V30 3537 H 334.637 -1.8099 0.302456 0
M  V30 3538 H 333.019 -3.62319 -1.59815 0
M  V30 3539 H 334.193 -4.46636 1.1337 0
M  V30 3540 H 332.508 -4.07202 0.870396 0
M  V30 3541 H 335.105 -5.0595 -1.72972 0
M  V30 3542 H 335.448 -3.45359 -2.32449 0
M  V30 3543 H 335.981 -3.91764 -0.690323 0
M  V30 3544 H 332.72 -6.50255 0.827529 0
M  V30 3545 H 332.24 -5.94549 -0.791926 0
M  V30 3546 H 333.919 -6.45209 -0.481042 0
M  V30 3547 N 334.051 0.0651679 -1.57465 0
M  V30 3548 C 335.297 0.764193 -1.87851 0
M  V30 3549 C 335.63 1.76889 -0.801495 0
M  V30 3550 O 334.905 1.93594 0.187528 0
M  V30 3551 C 335.188 1.46625 -3.28897 0
M  V30 3552 C 335.041 0.477515 -4.47258 0
M  V30 3553 C 336.36 2.4095 -3.68281 0
M  V30 3554 H 333.479 0.276351 -0.683227 0
M  V30 3555 H 336.121 0.0272868 -1.8998 0
M  V30 3556 H 334.271 2.09438 -3.27212 0
M  V30 3557 H 335.943 -0.145922 -4.61069 0
M  V30 3558 H 334.186 -0.206576 -4.33308 0
M  V30 3559 H 334.857 1.0065 -5.42746 0
M  V30 3560 H 337.333 1.88209 -3.71102 0
M  V30 3561 H 336.209 2.87072 -4.67847 0
M  V30 3562 H 336.47 3.26049 -2.98571 0
M  V30 3563 N 335.529 1.53961 0.336706 0
M  V30 3564 C 336.757 1.75483 1.09605 0
M  V30 3565 C 337.172 0.4972 1.82136 0
M  V30 3566 O 336.529 -0.53149 1.74589 0
M  V30 3567 C 336.58 2.93943 2.10428 0
M  V30 3568 O 336.301 4.14842 1.40846 0
M  V30 3569 C 337.802 3.27571 2.98684 0
M  V30 3570 H 335.022 0.586166 0.326574 0
M  V30 3571 H 337.566 2.00808 0.38683 0
M  V30 3572 H 335.721 2.70929 2.76905 0
M  V30 3573 H 336.135 4.81383 2.08255 0
M  V30 3574 H 337.609 4.13791 3.6535 0
M  V30 3575 H 338.086 2.44168 3.65074 0
M  V30 3576 H 338.692 3.52615 2.37787 0
M  V30 3577 N 337.007 -0.598083 1.45811 0
M  V30 3578 C 338.284 -1.35777 1.40797 0
M  V30 3579 C 338.664 -2.10935 0.083462 0
M  V30 3580 O 338.012 -2.08505 -0.934763 0
M  V30 3581 C 338.222 -2.29666 2.62783 0
M  V30 3582 C 339.57 -2.91977 3.08277 0
M  V30 3583 O 340.594 -2.39984 2.63223 0
M  V30 3584 O 339.453 -3.86376 3.86491 0
M  V30 3585 H 336.547 -0.609291 0.55919 0
M  V30 3586 H 339.093 -0.620379 1.57954 0
M  V30 3587 H 337.865 -1.73454 3.50756 0
M  V30 3588 H 337.488 -3.1077 2.48008 0
M  V30 3589 N 338.485 -1.33259 -0.841409 0
M  V30 3590 C 339.432 -1.23302 -1.95103 0
M  V30 3591 C 340.402 -0.112204 -1.65721 0
M  V30 3592 O 341.587 -0.290038 -1.88583 0
M  V30 3593 C 338.727 -0.975583 -3.31023 0
M  V30 3594 C 337.84 -2.18243 -3.72819 0
M  V30 3595 C 336.975 -1.85936 -4.97595 0
M  V30 3596 C 336.014 -3.02866 -5.3192 0
M  V30 3597 N 335.151 -2.70565 -6.47873 0
M  V30 3598 H 339.991 -2.18207 -2.02952 0
M  V30 3599 H 337.528 -1.0851 -0.993173 0
M  V30 3600 H 339.486 -0.80677 -4.09325 0
M  V30 3601 H 338.116 -0.0632755 -3.22738 0
M  V30 3602 H 337.168 -2.46107 -2.90061 0
M  V30 3603 H 338.48 -3.05666 -3.94169 0
M  V30 3604 H 337.634 -1.65684 -5.83638 0
M  V30 3605 H 336.373 -0.957452 -4.78209 0
M  V30 3606 H 335.378 -3.23736 -4.44382 0
M  V30 3607 H 336.603 -3.93809 -5.53255 0
M  V30 3608 H 334.549 -1.8293 -6.29978 0
M  V30 3609 H 334.466 -3.51519 -6.69306 0
M  V30 3610 H 335.734 -2.53774 -7.37034 0
M  V30 3611 N 339.963 1.05934 -1.16686 0
M  V30 3612 C 340.911 2.15603 -0.872817 0
M  V30 3613 C 341.905 1.68647 0.159576 0
M  V30 3614 O 343.111 1.79995 0.0132125 0
M  V30 3615 H 339.486 0.703885 -0.264671 0
M  V30 3616 H 341.457 2.37613 -1.80507 0
M  V30 3617 C 340.206 3.45457 -0.394344 0
M  V30 3618 H 339.529 3.81984 -1.18019 0
M  V30 3619 H 340.969 4.2339 -0.227408 0
M  V30 3620 C 339.428 3.25021 0.88673 0
M  V30 3621 O 339.958 3.50906 1.95519 0
M  V30 3622 N 338.164 2.78437 0.831925 0
M  V30 3623 H 337.711 2.57572 -0.0377619 0
M  V30 3624 H 337.669 2.65144 1.68956 0
M  V30 3625 N 341.441 0.965919 1.2453 0
M  V30 3626 C 342.404 0.499547 2.2369 0
M  V30 3627 C 343.404 -0.40294 1.5567 0
M  V30 3628 O 344.594 -0.19865 1.73064 0
M  V30 3629 C 341.726 -0.276792 3.39774 0
M  V30 3630 H 342.919 1.37613 2.66463 0
M  V30 3631 H 340.472 0.750324 1.37112 0
M  V30 3632 H 341.207 -1.17055 3.02438 0
M  V30 3633 H 340.992 0.370826 3.90343 0
M  V30 3634 H 342.482 -0.592175 4.1338 0
M  V30 3635 N 342.919 -1.39368 0.735821 0
M  V30 3636 C 344.149 -2.04498 0.293967 0
M  V30 3637 C 344.557 -1.55593 -1.07645 0
M  V30 3638 O 343.9 -0.716324 -1.69158 0
M  V30 3639 C 343.962 -3.58836 0.218342 0
M  V30 3640 C 343.626 -4.30721 1.52736 0
M  V30 3641 C 344.623 -4.57305 2.47322 0
M  V30 3642 C 342.308 -4.69251 1.79189 0
M  V30 3643 C 344.302 -5.21429 3.66593 0
M  V30 3644 C 341.989 -5.33104 2.98737 0
M  V30 3645 C 342.987 -5.59125 3.9226 0
M  V30 3646 O 342.675 -6.21653 5.09708 0
M  V30 3647 H 342.407 -0.664118 0.126189 0
M  V30 3648 H 344.961 -1.79385 1.00051 0
M  V30 3649 H 343.191 -3.8285 -0.544314 0
M  V30 3650 H 344.88 -4.05447 -0.191626 0
M  V30 3651 H 345.646 -4.27983 2.28156 0
M  V30 3652 H 341.525 -4.48354 1.07239 0
M  V30 3653 H 345.069 -5.41656 4.39607 0
M  V30 3654 H 340.966 -5.61846 3.17803 0
M  V30 3655 H 341.734 -6.40146 5.10054 0
M  V30 3656 N 344.397 -0.483516 -1.5 0
M  V30 3657 C 345.674 0.129337 -1.95172 0
M  V30 3658 C 346.054 1.55802 -1.4244 0
M  V30 3659 O 345.402 2.19625 -0.630649 0
M  V30 3660 C 345.612 0.0599251 -3.48949 0
M  V30 3661 C 346.96 0.242617 -4.23906 0
M  V30 3662 O 347.984 0.135933 -3.55941 0
M  V30 3663 O 346.843 0.459454 -5.44565 0
M  V30 3664 H 343.937 0.104887 -0.820322 0
M  V30 3665 H 346.483 -0.544807 -1.60717 0
M  V30 3666 H 345.255 -0.937079 -3.79914 0
M  V30 3667 H 344.878 0.774984 -3.89974 0
M  V30 3668 N 345.875 1.56104 -0.216619 0
M  V30 3669 C 346.838 2.18819 0.681962 0
M  V30 3670 C 347.838 1.14866 1.12528 0
M  V30 3671 O 349.028 1.40128 1.03488 0
M  V30 3672 C 346.16 2.80756 1.93362 0
M  V30 3673 H 347.353 2.99595 0.135254 0
M  V30 3674 H 344.906 1.56265 0.0330003 0
M  V30 3675 H 345.641 2.03837 2.52232 0
M  V30 3676 H 345.426 3.56876 1.62426 0
M  V30 3677 H 346.916 3.28844 2.57393 0
M  V30 3678 N 347.353 -0.0568162 1.57498 0
M  V30 3679 C 348.63 -0.786954 1.79071 0
M  V30 3680 C 349.01 -1.95028 0.80792 0
M  V30 3681 O 348.358 -2.27968 -0.155858 0
M  V30 3682 C 348.568 -1.24594 3.26002 0
M  V30 3683 C 349.916 -1.67323 3.90241 0
M  V30 3684 O 350.94 -1.34124 3.29984 0
M  V30 3685 O 349.799 -2.28842 4.9628 0
M  V30 3686 H 346.893 -0.378262 0.735423 0
M  V30 3687 H 349.439 -0.035734 1.69662 0
M  V30 3688 H 348.211 -0.41423 3.89101 0
M  V30 3689 H 347.834 -2.05803 3.40192 0
M  V30 3690 N 348.832 -1.54138 -0.328536 0
M  V30 3691 C 349.762 -1.86167 -1.40939 0
M  V30 3692 C 350.743 -0.718044 -1.54202 0
M  V30 3693 O 351.928 -0.971328 -1.68163 0
M  V30 3694 C 349.058 -2.08461 -2.77779 0
M  V30 3695 C 348.012 -3.24299 -2.7931 0
M  V30 3696 C 347.338 -3.31955 -4.19178 0
M  V30 3697 C 348.638 -4.62065 -2.43502 0
M  V30 3698 H 350.332 -2.76689 -1.14383 0
M  V30 3699 H 347.878 -1.33132 -0.548806 0
M  V30 3700 H 349.831 -2.29453 -3.53454 0
M  V30 3701 H 348.555 -1.14684 -3.05802 0
M  V30 3702 H 347.214 -3.03187 -2.0609 0
M  V30 3703 H 346.862 -2.35745 -4.44335 0
M  V30 3704 H 346.562 -4.09805 -4.2111 0
M  V30 3705 H 348.086 -3.55175 -4.96672 0
M  V30 3706 H 349.5 -4.8297 -3.08889 0
M  V30 3707 H 347.897 -5.42429 -2.56693 0
M  V30 3708 H 348.967 -4.64652 -1.38659 0
M  V30 3709 N 350.31 0.590341 -1.46126 0
M  V30 3710 C 351.556 1.35082 -1.51264 0
M  V30 3711 C 351.889 1.93534 -0.160711 0
M  V30 3712 O 351.164 1.76045 0.826956 0
M  V30 3713 C 351.447 2.48588 -2.6053 0
M  V30 3714 C 351.3 1.95221 -4.05227 0
M  V30 3715 C 352.619 3.50662 -2.6594 0
M  V30 3716 H 349.738 0.489803 -0.550692 0
M  V30 3717 H 352.38 0.663887 -1.78024 0
M  V30 3718 H 350.53 3.07186 -2.37843 0
M  V30 3719 H 352.202 1.41139 -4.39178 0
M  V30 3720 H 350.445 1.26101 -4.15068 0
M  V30 3721 H 351.116 2.77121 -4.77397 0
M  V30 3722 H 353.592 3.01934 -2.86313 0
M  V30 3723 H 352.468 4.27551 -3.44226 0
M  V30 3724 H 352.729 4.07399 -1.71694 0
M  V30 3725 N 351.788 1.33704 0.83433 0
M  V30 3726 C 353.034 1.25603 1.59222 0
M  V30 3727 C 353.367 -0.176659 1.93395 0
M  V30 3728 O 352.642 -1.11915 1.59076 0
M  V30 3729 C 352.925 2.13576 2.89926 0
M  V30 3730 C 352.778 3.65326 2.62406 0
M  V30 3731 C 354.097 2.01238 3.91397 0
M  V30 3732 H 351.216 0.457613 0.577719 0
M  V30 3733 H 353.858 1.63848 0.961972 0
M  V30 3734 H 352.008 1.8109 3.43713 0
M  V30 3735 H 353.68 4.08124 2.15017 0
M  V30 3736 H 351.923 3.8698 1.96033 0
M  V30 3737 H 352.594 4.22232 3.55562 0
M  V30 3738 H 355.07 2.29738 3.46929 0
M  V30 3739 H 353.946 2.65036 4.80673 0
M  V30 3740 H 354.207 0.985951 4.30966 0
M  V30 3741 N 353.266 -1.05314 1.17247 0
M  V30 3742 C 354.512 -1.78557 0.961513 0
M  V30 3743 C 354.845 -1.87419 -0.508697 0
M  V30 3744 O 354.12 -1.37307 -1.37757 0
M  V30 3745 C 354.403 -3.22514 1.60176 0
M  V30 3746 C 354.256 -3.21673 3.14399 0
M  V30 3747 C 355.575 -4.20318 1.30463 0
M  V30 3748 H 352.694 -0.6482 0.350723 0
M  V30 3749 H 355.336 -1.23102 1.44727 0
M  V30 3750 H 353.486 -3.69867 1.18871 0
M  V30 3751 H 355.158 -2.82405 3.64753 0
M  V30 3752 H 353.401 -2.60048 3.47214 0
M  V30 3753 H 354.072 -4.23271 3.54324 0
M  V30 3754 H 356.548 -3.81454 1.66229 0
M  V30 3755 H 355.424 -5.19289 1.77848 0
M  V30 3756 H 355.685 -4.41526 0.22521 0
M  V30 3757 N 354.744 -0.972509 -1.24016 0
M  V30 3758 C 355.707 -0.511403 -2.23422 0
M  V30 3759 C 356.707 0.394679 -1.55881 0
M  V30 3760 O 357.897 0.189469 -1.73167 0
M  V30 3761 C 355.029 0.258769 -3.39916 0
M  V30 3762 H 356.222 -1.39024 -2.6573 0
M  V30 3763 H 353.775 -0.757585 -1.36713 0
M  V30 3764 H 354.51 1.1545 -3.03054 0
M  V30 3765 H 354.295 -0.391522 -3.9014 0
M  V30 3766 H 355.785 0.570244 -4.13688 0
M  V30 3767 N 356.222 1.38976 -0.743202 0
M  V30 3768 C 357.468 2.0064 -0.295189 0
M  V30 3769 C 357.801 1.5885 1.11716 0
M  V30 3770 O 357.076 0.821181 1.76315 0
M  V30 3771 C 357.359 3.578 -0.406318 0
M  V30 3772 C 357.212 4.09586 -1.85903 0
M  V30 3773 C 358.531 4.39616 0.206439 0
M  V30 3774 H 355.65 0.728935 -0.108733 0
M  V30 3775 H 358.292 1.65067 -0.940897 0
M  V30 3776 H 356.442 3.88235 0.143419 0
M  V30 3777 H 358.114 3.89837 -2.46627 0
M  V30 3778 H 356.357 3.6284 -2.3776 0
M  V30 3779 H 357.028 5.18708 -1.888 0
M  V30 3780 H 359.504 4.15273 -0.262283 0
M  V30 3781 H 358.38 5.48812 0.0983819 0
M  V30 3782 H 358.641 4.22754 1.2935 0
M  V30 3783 N 357.7 0.491464 1.49741 0
M  V30 3784 C 358.948 -0.0563141 2.02022 0
M  V30 3785 C 359.269 -1.38363 1.37407 0
M  V30 3786 O 358.539 -1.88702 0.526166 0
M  V30 3787 H 357.119 -0.0238014 0.746621 0
M  V30 3788 H 359.781 0.646533 1.83864 0
M  V30 3789 H 358.877 -0.192967 3.11503 0
M  V30 3790 N 359.178 -1.55987 0.224894 0
M  V30 3791 C 360.424 -1.98684 -0.406502 0
M  V30 3792 C 360.757 -1.11248 -1.59177 0
M  V30 3793 O 360.032 -0.170909 -1.93748 0
M  V30 3794 C 360.315 -3.50218 -0.837808 0
M  V30 3795 C 360.168 -4.48426 0.351332 0
M  V30 3796 C 361.487 -4.06243 -1.69278 0
M  V30 3797 H 358.606 -0.722337 -0.146283 0
M  V30 3798 H 361.248 -1.87255 0.321799 0
M  V30 3799 H 359.398 -3.60089 -1.45837 0
M  V30 3800 H 361.07 -4.50562 0.989526 0
M  V30 3801 H 359.313 -4.22159 0.998207 0
M  V30 3802 H 359.984 -5.52 0.00655905 0
M  V30 3803 H 362.46 -3.99337 -1.16914 0
M  V30 3804 H 361.336 -5.12581 -1.96346 0
M  V30 3805 H 361.597 -3.53332 -2.65723 0
M  V30 3806 N 360.656 0.0484629 -1.57525 0
M  V30 3807 C 362.072 0.40375 -1.54409 0
M  V30 3808 C 362.272 1.77786 -0.948384 0
M  V30 3809 O 361.328 2.46189 -0.560983 0
M  V30 3810 C 362.641 0.323394 -2.98956 0
M  V30 3811 C 364.189 0.401892 -3.10409 0
M  V30 3812 C 364.664 0.351195 -4.56652 0
M  V30 3813 N 366.155 0.410576 -4.61377 0
M  V30 3814 C 366.89 0.393933 -5.72045 0
M  V30 3815 N 366.386 0.330724 -6.9201 0
M  V30 3816 N 368.179 0.442227 -5.60358 0
M  V30 3817 H 360.33 -0.851016 -1.94606 0
M  V30 3818 H 362.593 -0.321721 -0.89174 0
M  V30 3819 H 362.299 -0.62011 -3.4619 0
M  V30 3820 H 362.173 1.12463 -3.60044 0
M  V30 3821 H 364.56 1.33582 -2.63134 0
M  V30 3822 H 364.641 -0.428342 -2.52188 0
M  V30 3823 H 364.285 -0.578987 -5.04589 0
M  V30 3824 H 364.215 1.19928 -5.12762 0
M  V30 3825 H 366.706 0.462729 -3.75056 0
M  V30 3826 H 367.019 0.322592 -7.72126 0
M  V30 3827 H 365.364 0.29706 -6.94365 0
M  V30 3828 H 368.555 0.489464 -4.65534 0
M  V30 3829 H 368.728 0.425788 -6.466 0
M  V30 3830 N 362.134 1.5431 0.320358 0
M  V30 3831 C 363.545 1.63872 0.894594 0
M  V30 3832 C 363.896 0.534847 1.88769 0
M  V30 3833 O 363.021 -0.331732 2.13842 0
M  V30 3834 C 363.616 2.97049 1.62934 0
M  V30 3835 C 362.175 3.08796 2.15226 0
M  V30 3836 C 361.322 2.59456 0.978671 0
M  V30 3837 H 364.273 1.58398 0.0978544 0
M  V30 3838 H 364.294 2.87388 2.49376 0
M  V30 3839 H 363.806 3.7737 0.906302 0
M  V30 3840 H 361.907 2.33156 2.90636 0
M  V30 3841 H 362.02 4.14649 2.40006 0
M  V30 3842 H 360.384 2.1543 1.35875 0
M  V30 3843 H 361.167 3.42237 0.269895 0
M  V30 3844 N 363.613 -0.582584 1.46437 0
M  V30 3845 C 364.561 -1.71272 1.5738 0
M  V30 3846 C 365.555 -1.63524 0.44229 0
M  V30 3847 O 366.761 -1.69016 0.619166 0
M  V30 3848 H 363.136 -0.566273 0.494813 0
M  V30 3849 H 365.107 -1.59174 2.52401 0
M  V30 3850 C 363.856 -3.09658 1.58136 0
M  V30 3851 H 363.179 -3.16291 2.44541 0
M  V30 3852 H 364.619 -3.88494 1.69847 0
M  V30 3853 C 363.078 -3.3547 0.310026 0
M  V30 3854 O 363.608 -3.97199 -0.599683 0
M  V30 3855 N 361.814 -2.89925 0.197901 0
M  V30 3856 H 361.361 -2.39873 0.93909 0
M  V30 3857 H 361.319 -3.07568 -0.65185 0
M  V30 3858 N 365.091 -1.34144 -0.827227 0
M  V30 3859 C 366.319 -1.29325 -1.61501 0
M  V30 3860 C 366.734 0.13354 -1.88327 0
M  V30 3861 O 366.091 1.0793 -1.47164 0
M  V30 3862 C 366.142 -2.07746 -2.95844 0
M  V30 3863 O 365.863 -3.4486 -2.70191 0
M  V30 3864 C 367.364 -2.10273 -3.90256 0
M  V30 3865 H 364.584 -0.445069 -0.50215 0
M  V30 3866 H 367.128 -1.76693 -1.02955 0
M  V30 3867 H 365.283 -1.6403 -3.5096 0
M  V30 3868 H 365.697 -3.85345 -3.55822 0
M  V30 3869 H 367.171 -2.69575 -4.81698 0
M  V30 3870 H 367.648 -1.096 -4.25305 0
M  V30 3871 H 368.254 -2.54059 -3.41078 0
M  V30 3872 N 366.569 1.04691 -1.17803 0
M  V30 3873 C 367.532 2.10724 -0.901545 0
M  V30 3874 C 368.532 1.6042 0.110437 0
M  V30 3875 O 369.722 1.7377 -0.122303 0
M  V30 3876 C 366.854 3.39084 -0.351409 0
M  V30 3877 H 368.047 2.36686 -1.84174 0
M  V30 3878 H 365.6 1.21015 -0.98919 0
M  V30 3879 H 366.335 3.18782 0.59569 0
M  V30 3880 H 366.12 3.76909 -1.08083 0
M  V30 3881 H 367.61 4.17227 -0.176451 0
M  V30 3882 N 368.047 0.979072 1.23499 0
M  V30 3883 C 369.293 0.6578 1.9247 0
M  V30 3884 C 369.648 -0.799746 1.74991 0
M  V30 3885 O 368.941 -1.56922 1.09937 0
M  V30 3886 C 369.135 0.981932 3.43646 0
M  V30 3887 C 368.964 2.46944 3.75831 0
M  V30 3888 C 367.734 3.13119 3.96591 0
M  V30 3889 C 369.932 3.45006 3.81412 0
M  V30 3890 N 367.914 4.51489 4.15969 0
M  V30 3891 C 369.285 4.68778 4.05768 0
M  V30 3892 C 371.34 3.39505 3.64198 0
M  V30 3893 C 370.043 5.87723 4.14697 0
M  V30 3894 C 372.069 4.57814 3.7438 0
M  V30 3895 C 371.431 5.80381 3.99171 0
M  V30 3896 H 367.53 0.291746 0.72554 0
M  V30 3897 H 370.114 1.25626 1.48749 0
M  V30 3898 H 368.285 0.412179 3.86207 0
M  V30 3899 H 370.017 0.618068 3.99953 0
M  V30 3900 H 366.772 2.63619 3.93449 0
M  V30 3901 H 367.196 5.23221 4.29615 0
M  V30 3902 H 371.838 2.45773 3.44029 0
M  V30 3903 H 369.556 6.81874 4.33675 0
M  V30 3904 H 373.142 4.55132 3.62417 0
M  V30 3905 H 372.022 6.70398 4.06861 0
M  V30 3906 N 369.525 -1.3858 0.750561 0
M  V30 3907 C 370.455 -2.33102 0.136237 0
M  V30 3908 C 371.436 -1.54713 -0.706965 0
M  V30 3909 O 372.621 -1.83043 -0.648769 0
M  V30 3910 C 369.751 -3.38882 -0.760017 0
M  V30 3911 C 368.705 -4.27995 -0.0197785 0
M  V30 3912 C 368.031 -5.24605 -1.03408 0
M  V30 3913 C 369.331 -5.09554 1.14684 0
M  V30 3914 H 371.025 -2.84726 0.925822 0
M  V30 3915 H 368.571 -1.36898 0.446654 0
M  V30 3916 H 370.524 -4.0397 -1.19943 0
M  V30 3917 H 369.248 -2.85734 -1.58189 0
M  V30 3918 H 367.907 -3.64409 0.400184 0
M  V30 3919 H 367.555 -4.67746 -1.84994 0
M  V30 3920 H 367.255 -5.85081 -0.543464 0
M  V30 3921 H 368.779 -5.9257 -1.47288 0
M  V30 3922 H 370.193 -5.67899 0.785118 0
M  V30 3923 H 368.59 -5.7925 1.56812 0
M  V30 3924 H 369.66 -4.4347 1.96118 0
M  V30 3925 N 371.003 -0.499398 -1.49478 0
M  V30 3926 C 371.95 0.279881 -2.29097 0
M  V30 3927 C 372.92 0.961805 -1.3542 0
M  V30 3928 O 374.105 0.968777 -1.64376 0
M  V30 3929 C 371.245 1.33932 -3.18051 0
M  V30 3930 C 370.358 0.669333 -4.26783 0
M  V30 3931 C 369.493 1.70907 -5.02955 0
M  V30 3932 C 368.532 1.02087 -6.03527 0
M  V30 3933 N 367.669 2.00474 -6.7287 0
M  V30 3934 H 372.509 -0.405317 -2.95231 0
M  V30 3935 H 370.046 -0.211726 -1.45568 0
M  V30 3936 H 372.004 1.96553 -3.67998 0
M  V30 3937 H 370.634 1.9933 -2.53904 0
M  V30 3938 H 369.686 -0.0701234 -3.80335 0
M  V30 3939 H 370.998 0.127503 -4.98637 0
M  V30 3940 H 370.152 2.41037 -5.56764 0
M  V30 3941 H 368.891 2.28476 -4.30871 0
M  V30 3942 H 367.896 0.305338 -5.48951 0
M  V30 3943 H 369.121 0.451708 -6.77596 0
M  V30 3944 H 367.067 2.57007 -6.03559 0
M  V30 3945 H 366.984 1.51353 -7.40694 0
M  V30 3946 H 368.252 2.69897 -7.31284 0
M  V30 3947 N 372.481 1.55866 -0.233164 0
M  V30 3948 C 373.729 1.9821 0.394593 0
M  V30 3949 C 374.05 1.12234 1.59463 0
M  V30 3950 O 373.32 0.201981 1.94856 0
M  V30 3951 H 371.9 0.732034 0.148778 0
M  V30 3952 H 374.562 1.92107 -0.32876 0
M  V30 3953 H 373.658 3.03845 0.713063 0
M  V30 3954 N 373.959 -0.0401083 1.57549 0
M  V30 3955 C 375.187 -0.745196 1.93014 0
M  V30 3956 C 375.602 -1.6948 0.831984 0
M  V30 3957 O 374.959 -1.81482 -0.192463 0
M  V30 3958 C 375.01 -1.51176 3.28372 0
M  V30 3959 O 374.731 -0.600284 4.33968 0
M  V30 3960 C 376.232 -2.315 3.78051 0
M  V30 3961 H 373.452 -0.210088 0.637263 0
M  V30 3962 H 375.996 -0.000924689 2.045 0
M  V30 3963 H 374.151 -2.20801 3.18317 0
M  V30 3964 H 374.565 -1.13669 5.12035 0
M  V30 3965 H 376.039 -2.80697 4.75303 0
M  V30 3966 H 376.516 -3.12436 3.08675 0
M  V30 3967 H 377.122 -1.66971 3.91153 0
M  V30 3968 N 375.437 -1.54477 -0.31217 0
M  V30 3969 C 376.367 -1.87652 -1.38957 0
M  V30 3970 C 377.348 -0.734358 -1.53431 0
M  V30 3971 O 378.533 -0.98911 -1.67123 0
M  V30 3972 C 375.663 -2.11396 -2.75552 0
M  V30 3973 C 374.617 -3.27243 -2.75855 0
M  V30 3974 C 373.943 -3.36382 -4.15633 0
M  V30 3975 C 375.243 -4.64622 -2.38587 0
M  V30 3976 H 376.937 -2.77887 -1.11442 0
M  V30 3977 H 374.483 -1.33707 -0.534655 0
M  V30 3978 H 376.436 -2.33189 -3.51 0
M  V30 3979 H 375.16 -1.17921 -3.04569 0
M  V30 3980 H 373.819 -3.05356 -2.02863 0
M  V30 3981 H 373.467 -2.40445 -4.41809 0
M  V30 3982 H 373.167 -4.14249 -4.1674 0
M  V30 3983 H 374.691 -3.60422 -4.92877 0
M  V30 3984 H 376.105 -4.86219 -3.03749 0
M  V30 3985 H 374.502 -5.45121 -2.50925 0
M  V30 3986 H 375.572 -4.66097 -1.33723 0
M  V30 3987 N 376.915 0.57481 -1.46744 0
M  V30 3988 C 377.825 1.711 -1.60505 0
M  V30 3989 C 378.841 1.67008 -0.488307 0
M  V30 3990 O 380.017 1.86774 -0.753495 0
M  V30 3991 C 377.082 3.07608 -1.59932 0
M  V30 3992 C 376.143 3.22904 -2.82898 0
M  V30 3993 C 375.376 4.529 -2.82343 0
M  V30 3994 O 375.599 5.37278 -1.91542 0
M  V30 3995 O 374.533 4.71611 -3.73987 0
M  V30 3996 H 378.359 1.62436 -2.56609 0
M  V30 3997 H 375.944 0.742779 -1.29627 0
M  V30 3998 H 377.826 3.88877 -1.62336 0
M  V30 3999 H 376.501 3.16692 -0.669898 0
M  V30 4000 H 375.408 2.41099 -2.86046 0
M  V30 4001 H 376.741 3.18715 -3.75076 0
M  V30 4002 N 378.394 1.34581 0.820102 0
M  V30 4003 C 379.324 1.29038 1.94606 0
M  V30 4004 C 380.305 0.1673 1.69275 0
M  V30 4005 O 381.49 0.360112 1.90832 0
M  V30 4006 C 378.62 1.04793 3.31113 0
M  V30 4007 C 377.574 2.13597 3.70891 0
M  V30 4008 C 376.9 1.74537 5.05412 0
M  V30 4009 C 378.2 3.55451 3.8269 0
M  V30 4010 H 379.894 2.23248 1.99501 0
M  V30 4011 H 377.44 1.0747 0.958449 0
M  V30 4012 H 379.393 0.995592 4.0947 0
M  V30 4013 H 378.117 0.0702565 3.26524 0
M  V30 4014 H 376.776 2.17905 2.9481 0
M  V30 4015 H 376.424 0.754226 4.97313 0
M  V30 4016 H 376.124 2.47361 5.32997 0
M  V30 4017 H 377.648 1.70803 5.86224 0
M  V30 4018 H 379.062 3.5354 4.51312 0
M  V30 4019 H 377.459 4.26922 4.21732 0
M  V30 4020 H 378.529 3.92587 2.84611 0
M  V30 4021 N 379.872 -1.04064 1.18357 0
M  V30 4022 C 380.822 -2.10393 0.878561 0
M  V30 4023 C 381.806 -1.60183 -0.151713 0
M  V30 4024 O 382.998 -1.76923 0.0523303 0
M  V30 4025 C 380.127 -3.4089 0.406096 0
M  V30 4026 C 379.213 -3.97866 1.46844 0
M  V30 4027 N 379.604 -4.28657 2.68489 0
M  V30 4028 C 377.902 -4.2574 1.32896 0
M  V30 4029 C 378.603 -4.74253 3.36836 0
M  V30 4030 N 377.579 -4.75068 2.64219 0
M  V30 4031 H 381.381 -2.32076 1.80327 0
M  V30 4032 H 378.895 -1.21818 1.07397 0
M  V30 4033 H 380.892 -4.16557 0.169088 0
M  V30 4034 H 379.552 -3.20633 -0.512275 0
M  V30 4035 H 380.563 -4.18304 3.05356 0
M  V30 4036 H 377.24 -4.1481 0.473134 0
M  V30 4037 H 378.63 -5.07096 4.40798 0
M  V30 4038 N 381.35 -0.985608 -1.22978 0
M  V30 4039 C 382.761 -0.693593 -1.73338 0
M  V30 4040 C 383.112 0.789935 -1.79595 0
M  V30 4041 O 382.237 1.61771 -1.43733 0
M  V30 4042 C 382.832 -1.25235 -3.14804 0
M  V30 4043 C 381.391 -1.00987 -3.626 0
M  V30 4044 C 380.538 -1.37695 -2.40698 0
M  V30 4045 H 383.489 -1.15884 -1.08428 0
M  V30 4046 H 383.51 -0.627329 -3.75293 0
M  V30 4047 H 383.022 -2.33209 -3.10218 0
M  V30 4048 H 381.123 0.0535565 -3.72562 0
M  V30 4049 H 381.236 -1.66812 -4.49122 0
M  V30 4050 H 379.6 -0.795459 -2.4196 0
M  V30 4051 H 380.383 -2.46657 -2.38779 0
M  V30 4052 N 382.828 1.3818 -0.7579 0
M  V30 4053 C 383.776 2.32277 -0.122482 0
M  V30 4054 C 384.77 1.54238 0.700505 0
M  V30 4055 O 385.976 1.69737 0.599119 0
M  V30 4056 H 382.351 0.751712 -0.0208143 0
M  V30 4057 H 384.322 2.83469 -0.932099 0
M  V30 4058 C 383.071 3.39447 0.753076 0
M  V30 4059 H 382.394 3.99591 0.129184 0
M  V30 4060 H 383.834 4.07684 1.16489 0
M  V30 4061 C 382.293 2.78375 1.8976 0
M  V30 4062 O 382.823 2.68025 2.99208 0
M  V30 4063 N 381.029 2.36121 1.69397 0
M  V30 4064 H 380.576 2.4474 0.803762 0
M  V30 4065 H 380.534 1.95602 2.46145 0
M  V30 4066 N 384.306 0.507319 1.49211 0
M  V30 4067 C 385.554 -0.0348839 2.0207 0
M  V30 4068 C 385.875 -1.36898 1.38866 0
M  V30 4069 O 385.145 -1.88133 0.546151 0
M  V30 4070 H 383.725 -0.0158812 0.746831 0
M  V30 4071 H 386.387 0.665998 1.83168 0
M  V30 4072 H 385.483 -0.159917 3.1169 0
M  V30 4073 N 385.784 -1.5574 0.241426 0
M  V30 4074 C 386.714 -2.24133 -0.654722 0
M  V30 4075 C 387.695 -1.21974 -1.1856 0
M  V30 4076 O 388.88 -1.50612 -1.22595 0
M  V30 4077 C 386.01 -2.93659 -1.85423 0
M  V30 4078 C 384.964 -4.0246 -1.45636 0
M  V30 4079 C 384.29 -4.59383 -2.73626 0
M  V30 4080 C 385.59 -5.18468 -0.631506 0
M  V30 4081 H 387.284 -2.99281 -0.0844353 0
M  V30 4082 H 384.83 -1.43947 -0.0391707 0
M  V30 4083 H 386.783 -3.40203 -2.48676 0
M  V30 4084 H 385.507 -2.15991 -2.44981 0
M  V30 4085 H 384.166 -3.56676 -0.847202 0
M  V30 4086 H 383.814 -3.78422 -3.3137 0
M  V30 4087 H 383.514 -5.32826 -2.4773 0
M  V30 4088 H 385.038 -5.08658 -3.37786 0
M  V30 4089 H 386.452 -5.61272 -1.1682 0
M  V30 4090 H 384.849 -5.98266 -0.468831 0
M  V30 4091 H 385.919 -4.8358 0.357506 0
M  V30 4092 N 387.262 0.0317525 -1.57568 0
M  V30 4093 C 388.511 0.722131 -1.8833 0
M  V30 4094 C 388.824 1.76664 -0.839587 0
M  V30 4095 O 390.03 2.50942 -1.03635 0
M  V30 4096 C 388.486 1.33544 -3.34207 0
M  V30 4097 C 388.094 0.327415 -4.46802 0
M  V30 4098 C 389.838 2.00585 -3.7412 0
M  V30 4099 C 387.745 0.948915 -5.83738 0
M  V30 4100 H 386.675 0.273466 -0.702661 0
M  V30 4101 H 389.326 -0.0235811 -1.83485 0
M  V30 4102 H 387.708 2.13077 -3.33788 0
M  V30 4103 H 388.882 -0.441006 -4.58685 0
M  V30 4104 H 387.197 -0.240758 -4.15703 0
M  V30 4105 H 389.794 2.47932 -4.73744 0
M  V30 4106 H 390.137 2.82285 -3.05975 0
M  V30 4107 H 390.67 1.27831 -3.76702 0
M  V30 4108 H 387.409 0.171387 -6.55276 0
M  V30 4109 H 386.929 1.68724 -5.7558 0
M  V30 4110 H 388.608 1.45705 -6.3038 0
M  V30 4111 N 388.74 1.54641 0.303973 0
M  V30 4112 C 389.687 1.85386 1.37479 0
M  V30 4113 C 390.657 0.702528 1.50512 0
M  V30 4114 O 391.842 0.950867 1.65418 0
M  V30 4115 C 388.982 2.10413 2.73533 0
M  V30 4116 C 388.095 3.38049 2.68974 0
M  V30 4117 C 387.23 3.52934 3.97002 0
M  V30 4118 C 386.269 4.74373 3.86829 0
M  V30 4119 N 385.406 4.8608 5.06627 0
M  V30 4120 H 390.246 2.76732 1.1056 0
M  V30 4121 H 387.783 1.37034 0.534805 0
M  V30 4122 H 389.741 2.22919 3.52652 0
M  V30 4123 H 388.371 1.22338 2.98719 0
M  V30 4124 H 387.423 3.3418 1.81736 0
M  V30 4125 H 388.735 4.27288 2.57346 0
M  V30 4126 H 387.889 3.65088 4.84557 0
M  V30 4127 H 386.628 2.61824 4.1146 0
M  V30 4128 H 385.633 4.62255 2.97658 0
M  V30 4129 H 386.858 5.66888 3.73918 0
M  V30 4130 H 384.804 3.97891 5.21554 0
M  V30 4131 H 384.721 5.69315 4.9741 0
M  V30 4132 H 385.989 5.02587 5.95841 0
M  V30 4133 N 390.218 -0.567019 1.47046 0
M  V30 4134 C 391.446 -1.35027 1.56765 0
M  V30 4135 C 391.861 -1.8758 0.214316 0
M  V30 4136 O 391.218 -1.64471 -0.790919 0
M  V30 4137 C 391.269 -2.52698 2.58507 0
M  V30 4138 O 390.99 -2.0232 3.88585 0
M  V30 4139 C 392.491 -3.45043 2.78316 0
M  V30 4140 H 389.711 -0.41195 0.529658 0
M  V30 4141 H 392.255 -0.687832 1.92585 0
M  V30 4142 H 390.41 -3.149 2.25648 0
M  V30 4143 H 390.824 -2.79068 4.44096 0
M  V30 4144 H 392.298 -4.2405 3.53391 0
M  V30 4145 H 392.775 -3.97971 1.85784 0
M  V30 4146 H 393.381 -2.88665 3.12334 0
M  V30 4147 N 391.696 -1.35014 -0.812953 0
M  V30 4148 C 392.973 -1.18502 -1.55617 0
M  V30 4149 C 393.353 0.238421 -2.09749 0
M  V30 4150 O 392.701 1.2411 -1.91857 0
M  V30 4151 C 392.911 -2.24783 -2.66971 0
M  V30 4152 C 394.259 -2.60268 -3.35478 0
M  V30 4153 O 395.283 -2.23648 -2.77236 0
M  V30 4154 O 394.142 -3.2321 -4.40678 0
M  V30 4155 H 391.236 -0.459984 -0.687272 0
M  V30 4156 H 393.782 -1.46677 -0.853464 0
M  V30 4157 H 392.554 -3.20284 -2.24798 0
M  V30 4158 H 392.177 -1.97841 -3.44884 0
M  V30 4159 N 393.175 1.03435 -1.18907 0
M  V30 4160 C 394.085 2.15075 -0.937015 0
M  V30 4161 C 395.101 1.73706 0.101085 0
M  V30 4162 O 396.277 2.01232 -0.0822948 0
M  V30 4163 C 393.342 3.43458 -0.473057 0
M  V30 4164 C 392.403 3.99172 -1.57989 0
M  V30 4165 C 391.636 5.21427 -1.13797 0
M  V30 4166 O 391.859 5.704 0.000725941 0
M  V30 4167 O 390.793 5.69837 -1.9383 0
M  V30 4168 H 394.619 2.39198 -1.87131 0
M  V30 4169 H 392.204 1.13506 -0.971427 0
M  V30 4170 H 394.086 4.20811 -0.222702 0
M  V30 4171 H 392.761 3.20793 0.432869 0
M  V30 4172 H 391.668 3.23178 -1.88433 0
M  V30 4173 H 393.001 4.2619 -2.46217 0
M  V30 4174 N 394.653 0.992116 1.22453 0
M  V30 4175 C 395.883 0.684949 1.94915 0
M  V30 4176 C 396.291 -0.754292 1.73514 0
M  V30 4177 O 395.634 -1.52056 1.03076 0
M  V30 4178 C 395.696 0.910054 3.47791 0
M  V30 4179 C 395.36 2.33363 3.92926 0
M  V30 4180 C 396.357 3.31308 4.00663 0
M  V30 4181 C 394.042 2.66785 4.25595 0
M  V30 4182 C 396.036 4.6075 4.40441 0
M  V30 4183 C 393.723 3.96446 4.65053 0
M  V30 4184 C 394.721 4.9324 4.72444 0
M  V30 4185 O 394.409 6.20584 5.1101 0
M  V30 4186 H 394.141 0.25258 0.62704 0
M  V30 4187 H 396.695 1.32939 1.56577 0
M  V30 4188 H 394.925 0.208443 3.86138 0
M  V30 4189 H 396.614 0.598257 4.01467 0
M  V30 4190 H 397.38 3.0682 3.75615 0
M  V30 4191 H 393.259 1.92148 4.19047 0
M  V30 4192 H 396.803 5.363 4.46126 0
M  V30 4193 H 392.7 4.20724 4.89552 0
M  V30 4194 H 393.468 6.24509 5.29085 0
M  V30 4195 N 396.131 -1.37776 0.765217 0
M  V30 4196 C 397.064 -2.28008 0.0935025 0
M  V30 4197 C 398.042 -1.45985 -0.716047 0
M  V30 4198 O 399.226 -1.75331 -0.692203 0
M  V30 4199 C 396.353 -3.27228 -0.874052 0
M  V30 4200 C 395.399 -4.26239 -0.149307 0
M  V30 4201 S 396.232 -5.22827 1.15809 0
M  V30 4202 C 397.388 -6.256 0.193906 0
M  V30 4203 H 397.621 -2.84631 0.858637 0
M  V30 4204 H 395.154 -1.43952 0.558313 0
M  V30 4205 H 397.112 -3.84902 -1.42691 0
M  V30 4206 H 395.773 -2.69565 -1.61225 0
M  V30 4207 H 394.966 -4.96213 -0.88254 0
M  V30 4208 H 394.568 -3.7252 0.332366 0
M  V30 4209 H 396.86 -6.74508 -0.636011 0
M  V30 4210 H 397.803 -7.02838 0.861638 0
M  V30 4211 H 398.211 -5.64173 -0.191975 0
M  V30 4212 N 397.609 -0.515225 -1.4894 0
M  V30 4213 C 399.025 -0.172099 -1.58669 0
M  V30 4214 C 399.225 1.32405 -1.51892 0
M  V30 4215 O 398.281 2.10116 -1.40027 0
M  V30 4216 C 399.594 -0.761533 -2.90897 0
M  V30 4217 C 401.142 -0.728926 -3.04394 0
M  V30 4218 C 401.617 -1.29667 -4.39261 0
M  V30 4219 N 403.108 -1.25799 -4.4579 0
M  V30 4220 C 403.843 -1.66733 -5.48623 0
M  V30 4221 N 403.339 -2.15327 -6.58488 0
M  V30 4222 N 405.132 -1.58061 -5.39419 0
M  V30 4223 H 397.283 -1.48778 -1.51588 0
M  V30 4224 H 399.546 -0.617968 -0.718901 0
M  V30 4225 H 399.252 -1.81136 -3.01468 0
M  V30 4226 H 399.126 -0.230106 -3.76497 0
M  V30 4227 H 401.513 0.312098 -2.93445 0
M  V30 4228 H 401.594 -1.29766 -2.20442 0
M  V30 4229 H 401.238 -2.33655 -4.50963 0
M  V30 4230 H 401.168 -0.703752 -5.21876 0
M  V30 4231 H 403.659 -0.902102 -3.66975 0
M  V30 4232 H 403.972 -2.44594 -7.33071 0
M  V30 4233 H 402.317 -2.19311 -6.59491 0
M  V30 4234 H 405.508 -1.19906 -4.52482 0
M  V30 4235 H 405.681 -1.90284 -6.19432 0
M  V30 4236 N 399.087 1.5561 -0.249682 0
M  V30 4237 C 400.315 2.03411 0.378352 0
M  V30 4238 C 400.73 1.12886 1.51335 0
M  V30 4239 O 400.087 0.143833 1.81932 0
M  V30 4240 C 400.138 3.50537 0.88351 0
M  V30 4241 O 399.859 4.37614 -0.20626 0
M  V30 4242 C 401.36 4.14113 1.58195 0
M  V30 4243 H 398.58 0.664994 0.08958 0
M  V30 4244 H 401.124 2.01044 -0.374357 0
M  V30 4245 H 399.279 3.5343 1.58639 0
M  V30 4246 H 399.693 5.24199 0.177782 0
M  V30 4247 H 401.167 5.18741 1.8871 0
M  V30 4248 H 401.644 3.60767 2.50487 0
M  V30 4249 H 402.25 4.15151 0.923573 0
M  V30 4250 N 400.565 -0.0233959 1.57583 0
M  V30 4251 C 401.79 -0.728376 1.94189 0
M  V30 4252 C 402.215 -1.67793 0.850119 0
M  V30 4253 O 401.573 -1.80262 -0.19371 0
M  V30 4254 C 401.621 -1.45669 3.29868 0
M  V30 4255 O 400.725 -2.57013 3.22518 0
M  V30 4256 H 400.066 -0.195493 0.63457 0
M  V30 4257 H 402.596 0.0228214 2.04587 0
M  V30 4258 H 402.606 -1.82535 3.6489 0
M  V30 4259 H 401.281 -0.760314 4.08891 0
M  V30 4260 H 399.858 -2.22648 2.99136 0
M  V30 4261 N 402.043 -1.548 -0.295768 0
M  V30 4262 C 402.953 -1.89177 -1.38742 0
M  V30 4263 C 403.969 -0.786481 -1.55211 0
M  V30 4264 O 405.145 -1.08344 -1.69775 0
M  V30 4265 C 402.21 -2.13663 -2.73036 0
M  V30 4266 C 401.271 -3.37349 -2.65508 0
M  V30 4267 C 400.504 -3.60658 -3.93398 0
M  V30 4268 O 400.727 -2.86882 -4.93006 0
M  V30 4269 O 399.661 -4.54179 -3.94975 0
M  V30 4270 H 403.487 -2.82059 -1.12589 0
M  V30 4271 H 401.072 -1.41056 -0.492295 0
M  V30 4272 H 402.954 -2.3094 -3.52484 0
M  V30 4273 H 401.629 -1.23967 -2.99022 0
M  V30 4274 H 400.536 -3.25431 -1.84514 0
M  V30 4275 H 401.869 -4.27192 -2.44474 0
M  V30 4276 N 403.521 0.559213 -1.47345 0
M  V30 4277 C 404.932 1.14134 -1.47751 0
M  V30 4278 C 405.283 1.94834 -0.231103 0
M  V30 4279 O 404.408 2.05957 0.664137 0
M  V30 4280 C 405.003 2.07653 -2.67705 0
M  V30 4281 C 403.562 2.61141 -2.71076 0
M  V30 4282 C 402.709 1.3748 -2.40821 0
M  V30 4283 H 405.66 0.345917 -1.54884 0
M  V30 4284 H 405.681 2.91497 -2.44561 0
M  V30 4285 H 405.193 1.4889 -3.58404 0
M  V30 4286 H 403.294 3.23707 -1.84511 0
M  V30 4287 H 403.407 3.02272 -3.7171 0
M  V30 4288 H 401.771 1.68086 -1.91362 0
M  V30 4289 H 402.554 0.805135 -3.33725 0
M  V30 4290 N 404.999 1.35443 0.805782 0
M  V30 4291 C 406.276 1.19325 1.54987 0
M  V30 4292 C 406.656 -0.227294 2.09873 0
M  V30 4293 O 406.004 -1.2309 1.92512 0
M  V30 4294 C 406.214 2.26196 2.65775 0
M  V30 4295 C 407.562 2.62043 3.34094 0
M  V30 4296 O 408.586 2.25115 2.76046 0
M  V30 4297 O 407.445 3.25542 4.38958 0
M  V30 4298 H 404.539 0.463623 0.684823 0
M  V30 4299 H 407.085 1.47127 0.845674 0
M  V30 4300 H 405.857 3.21471 2.23096 0
M  V30 4301 H 405.48 1.99667 3.43829 0
M  V30 4302 N 406.477 -1.02803 1.19454 0
M  V30 4303 C 407.723 -1.76478 0.999171 0
M  V30 4304 C 408.056 -1.88456 -0.468828 0
M  V30 4305 O 407.331 -1.40198 -1.34814 0
M  V30 4306 C 407.614 -3.19044 1.66981 0
M  V30 4307 C 407.467 -3.14932 3.21151 0
M  V30 4308 C 408.786 -4.17456 1.39349 0
M  V30 4309 H 405.905 -0.640614 0.364393 0
M  V30 4310 H 408.547 -1.20005 1.47305 0
M  V30 4311 H 406.697 -3.67263 1.2669 0
M  V30 4312 H 408.369 -2.74605 3.70661 0
M  V30 4313 H 406.612 -2.52625 3.52652 0
M  V30 4314 H 407.283 -4.1566 3.63223 0
M  V30 4315 H 409.759 -3.77842 1.74283 0
M  V30 4316 H 408.635 -5.154 1.88823 0
M  V30 4317 H 408.896 -4.40949 0.318813 0
M  V30 4318 N 407.956 -0.998596 -1.21925 0
M  V30 4319 C 409.203 -0.677663 -1.90824 0
M  V30 4320 C 409.531 0.790905 -1.77693 0
M  V30 4321 O 408.786 1.58817 -1.14349 0
M  V30 4322 C 409.085 -1.03648 -3.42041 0
M  V30 4323 C 408.751 -2.49825 -3.75364 0
M  V30 4324 C 407.413 -2.8977 -3.8417 0
M  V30 4325 C 409.765 -3.44545 -3.91073 0
M  V30 4326 C 407.093 -4.23412 -4.06127 0
M  V30 4327 C 409.445 -4.77853 -4.14535 0
M  V30 4328 C 408.109 -5.17531 -4.21566 0
M  V30 4329 H 407.379 -0.247975 -0.698276 0
M  V30 4330 H 410.026 -1.25584 -1.44571 0
M  V30 4331 H 408.331 -0.376457 -3.89987 0
M  V30 4332 H 410.028 -0.766113 -3.93614 0
M  V30 4333 H 406.618 -2.17866 -3.69097 0
M  V30 4334 H 410.802 -3.14853 -3.83642 0
M  V30 4335 H 406.058 -4.53734 -4.09799 0
M  V30 4336 H 410.232 -5.51189 -4.25633 0
M  V30 4337 H 407.859 -6.21102 -4.38333 0
M  V30 4338 N 409.434 1.37368 -0.772513 0
M  V30 4339 C 410.397 2.28601 -0.165541 0
M  V30 4340 C 411.397 1.48062 0.627238 0
M  V30 4341 O 412.587 1.68268 0.450715 0
M  V30 4342 C 409.719 3.32023 0.772897 0
M  V30 4343 H 410.912 2.83787 -0.969787 0
M  V30 4344 H 408.465 1.46647 -0.540775 0
M  V30 4345 H 409.2 2.81962 1.60212 0
M  V30 4346 H 408.985 3.91555 0.206585 0
M  V30 4347 H 410.475 4.00197 1.19298 0
M  V30 4348 N 410.912 0.523116 1.48665 0
M  V30 4349 C 412.158 -0.0134963 2.02796 0
M  V30 4350 C 412.491 -1.34582 1.40004 0
M  V30 4351 O 411.766 -1.86756 0.543381 0
M  V30 4352 C 412.049 -0.14276 3.59817 0
M  V30 4353 C 411.902 1.21425 4.331 0
M  V30 4354 C 413.221 -0.872856 4.31357 0
M  V30 4355 H 410.34 -0.00343074 0.736992 0
M  V30 4356 H 412.982 0.678816 1.7746 0
M  V30 4357 H 411.132 -0.732401 3.81534 0
M  V30 4358 H 412.804 1.84447 4.2282 0
M  V30 4359 H 411.047 1.79791 3.94788 0
M  V30 4360 H 411.718 1.07687 5.41394 0
M  V30 4361 H 414.194 -0.372555 4.14429 0
M  V30 4362 H 413.07 -0.932185 5.40927 0
M  V30 4363 H 413.331 -1.92161 3.98154 0
M  V30 4364 N 412.39 -1.55475 0.257931 0
M  V30 4365 C 413.638 -1.98813 -0.363009 0
M  V30 4366 C 413.959 -1.14757 -1.57657 0
M  V30 4367 O 413.229 -0.232956 -1.9451 0
M  V30 4368 H 411.809 -0.734308 -0.137113 0
M  V30 4369 H 414.471 -1.9156 0.359281 0
M  V30 4370 H 413.567 -3.04941 -0.664634 0
M  V30 4371 N 413.868 0.0150385 -1.57593 0
M  V30 4372 C 415.145 0.7392 -1.81094 0
M  V30 4373 C 415.525 1.92817 -0.859344 0
M  V30 4374 O 414.873 2.28301 0.095362 0
M  V30 4375 C 415.083 1.15907 -3.29191 0
M  V30 4376 C 416.431 1.56918 -3.9454 0
M  V30 4377 O 417.455 1.25328 -3.33424 0
M  V30 4378 O 416.314 2.15604 -5.02173 0
M  V30 4379 H 413.408 0.358631 -0.745193 0
M  V30 4380 H 415.954 -0.00926156 -1.69697 0
M  V30 4381 H 414.726 0.310921 -3.90063 0
M  V30 4382 H 414.349 1.96711 -3.45529 0
M  V30 4383 N 415.346 1.54954 0.287554 0
M  V30 4384 C 416.309 1.86076 1.33823 0
M  V30 4385 C 417.309 0.734414 1.43049 0
M  V30 4386 O 418.499 1.00266 1.42452 0
M  V30 4387 C 415.631 2.05305 2.72144 0
M  V30 4388 H 416.824 2.79984 1.07465 0
M  V30 4389 H 414.377 1.47223 0.524902 0
M  V30 4390 H 415.112 1.1373 3.03704 0
M  V30 4391 H 414.897 2.873 2.66836 0
M  V30 4392 H 416.387 2.30706 3.48087 0
M  V30 4393 N 416.824 -0.551391 1.4764 0
M  V30 4394 C 418.052 -1.33357 1.58189 0
M  V30 4395 C 418.467 -1.87342 0.234199 0
M  V30 4396 O 417.824 -1.65301 -0.77343 0
M  V30 4397 C 417.875 -2.49942 2.61173 0
M  V30 4398 O 417.596 -1.98187 3.90709 0
M  V30 4399 C 419.097 -3.42072 2.8196 0
M  V30 4400 H 416.317 -0.40631 0.533998 0
M  V30 4401 H 418.861 -0.667367 1.93304 0
M  V30 4402 H 417.016 -3.12489 2.28975 0
M  V30 4403 H 417.43 -2.74342 4.47031 0
M  V30 4404 H 418.904 -4.20278 3.57869 0
M  V30 4405 H 419.381 -3.95978 1.89995 0
M  V30 4406 H 419.987 -2.85336 3.15378 0
M  V30 4407 N 418.302 -1.35869 -0.798587 0
M  V30 4408 C 419.232 -1.32118 -1.92528 0
M  V30 4409 C 420.213 -0.194209 -1.68988 0
M  V30 4410 O 421.398 -0.390426 -1.90235 0
M  V30 4411 C 418.528 -1.10047 -3.29404 0
M  V30 4412 C 417.482 -2.19471 -3.67446 0
M  V30 4413 C 416.808 -1.82555 -5.02571 0
M  V30 4414 C 418.108 -3.61495 -3.76987 0
M  V30 4415 H 419.802 -2.26394 -1.95924 0
M  V30 4416 H 417.348 -1.08981 -0.94123 0
M  V30 4417 H 419.301 -1.06061 -4.07835 0
M  V30 4418 H 418.025 -0.122195 -3.26371 0
M  V30 4419 H 416.684 -2.22568 -2.91306 0
M  V30 4420 H 416.332 -0.833249 -4.9605 0
M  V30 4421 H 416.032 -2.5581 -5.28995 0
M  V30 4422 H 417.556 -1.80108 -5.83432 0
M  V30 4423 H 418.97 -3.60676 -4.4563 0
M  V30 4424 H 417.367 -4.33577 -4.14887 0
M  V30 4425 H 418.437 -3.97065 -2.78329 0
M  V30 4426 N 419.78 1.02168 -1.19998 0
M  V30 4427 C 421.029 1.75091 -1.0013 0
M  V30 4428 C 421.342 1.89923 0.467835 0
M  V30 4429 O 422.548 2.59888 0.785515 0
M  V30 4430 C 421.004 3.14892 -1.74273 0
M  V30 4431 C 420.612 3.0809 -3.25245 0
M  V30 4432 C 422.356 3.9206 -1.62755 0
M  V30 4433 C 420.263 4.42867 -3.91948 0
M  V30 4434 H 419.193 0.656394 -0.37103 0
M  V30 4435 H 421.844 1.14284 -1.43567 0
M  V30 4436 H 420.226 3.7621 -1.2362 0
M  V30 4437 H 421.4 2.5611 -3.83072 0
M  V30 4438 H 419.715 2.44416 -3.3712 0
M  V30 4439 H 422.312 4.91764 -2.09934 0
M  V30 4440 H 422.655 4.12199 -0.582894 0
M  V30 4441 H 423.188 3.37359 -2.10793 0
M  V30 4442 H 419.927 4.27931 -4.96543 0
M  V30 4443 H 419.447 4.94874 -3.3891 0
M  V30 4444 H 421.126 5.11728 -3.95909 0
M  V30 4445 N 421.258 1.00505 1.21394 0
M  V30 4446 C 422.205 0.565496 2.23765 0
M  V30 4447 C 423.175 -0.408466 1.60999 0
M  V30 4448 O 424.36 -0.310503 1.88257 0
M  V30 4449 C 421.5 -0.101667 3.4495 0
M  V30 4450 C 420.613 0.915479 4.22188 0
M  V30 4451 C 419.748 0.220574 5.30742 0
M  V30 4452 C 418.787 1.22527 5.99711 0
M  V30 4453 N 417.924 0.557831 6.9988 0
M  V30 4454 H 422.764 1.44314 2.60725 0
M  V30 4455 H 420.301 0.722643 1.28126 0
M  V30 4456 H 422.259 -0.505504 4.14126 0
M  V30 4457 H 420.889 -0.94303 3.08718 0
M  V30 4458 H 419.941 1.43756 3.52191 0
M  V30 4459 H 421.253 1.68005 4.69655 0
M  V30 4460 H 420.407 -0.239368 6.06228 0
M  V30 4461 H 419.146 -0.576401 4.84282 0
M  V30 4462 H 418.151 1.69571 5.22997 0
M  V30 4463 H 419.376 2.02332 6.48258 0
M  V30 4464 H 417.322 -0.219486 6.55633 0
M  V30 4465 H 417.239 1.26065 7.45415 0
M  V30 4466 H 418.507 0.121095 7.79406 0
M  V30 4467 N 422.737 -1.36956 0.779787 0
M  V30 4468 C 423.967 -2.03459 0.358877 0
M  V30 4469 C 424.375 -1.58939 -1.02641 0
M  V30 4470 O 423.718 -0.769777 -1.66794 0
M  V30 4471 C 423.78 -3.5796 0.332393 0
M  V30 4472 C 423.444 -4.25644 1.66362 0
M  V30 4473 C 424.441 -4.49205 2.61746 0
M  V30 4474 C 422.126 -4.63313 1.94027 0
M  V30 4475 C 424.12 -5.09503 3.82996 0
M  V30 4476 C 421.807 -5.2333 3.15546 0
M  V30 4477 C 422.805 -5.46363 4.0985 0
M  V30 4478 O 422.493 -6.05122 5.29228 0
M  V30 4479 H 422.225 -0.659767 0.147254 0
M  V30 4480 H 424.779 -1.76111 1.05708 0
M  V30 4481 H 423.009 -3.84388 -0.422237 0
M  V30 4482 H 424.698 -4.05852 -0.0625389 0
M  V30 4483 H 425.464 -4.20508 2.41657 0
M  V30 4484 H 421.343 -4.44715 1.21448 0
M  V30 4485 H 424.887 -5.27397 4.56617 0
M  V30 4486 H 420.784 -5.51451 3.35517 0
M  V30 4487 H 421.552 -6.23595 5.30161 0
M  V30 4488 N 424.215 -0.530993 -1.48385 0
M  V30 4489 C 425.163 0.244595 -2.3131 0
M  V30 4490 C 426.157 0.93451 -1.41291 0
M  V30 4491 O 427.363 0.85878 -1.58193 0
M  V30 4492 H 423.738 0.0977472 -0.74562 0
M  V30 4493 H 425.709 -0.474369 -2.94605 0
M  V30 4494 C 424.458 1.2779 -3.23365 0
M  V30 4495 H 423.781 0.756439 -3.92579 0
M  V30 4496 H 425.221 1.79198 -3.84271 0
M  V30 4497 C 423.68 2.31205 -2.45042 0
M  V30 4498 O 424.21 3.37661 -2.17596 0
M  V30 4499 N 422.416 2.04446 -2.0652 0
M  V30 4500 H 421.963 1.17891 -2.2904 0
M  V30 4501 H 421.921 2.73861 -1.54427 0
M  V30 4502 N 425.693 1.55336 -0.266172 0
M  V30 4503 C 427.104 1.85236 0.233315 0
M  V30 4504 C 427.455 1.18816 1.56132 0
M  V30 4505 O 426.58 0.473307 2.11161 0
M  V30 4506 C 427.175 3.36059 0.430113 0
M  V30 4507 C 425.734 3.66116 0.873842 0
M  V30 4508 C 424.881 2.77274 -0.0380016 0
M  V30 4509 H 427.832 1.51004 -0.488214 0
M  V30 4510 H 427.853 3.58681 1.26998 0
M  V30 4511 H 427.365 3.84373 -0.536588 0
M  V30 4512 H 425.466 3.23295 1.85233 0
M  V30 4513 H 425.579 4.73699 0.717358 0
M  V30 4514 H 423.943 2.50198 0.476759 0
M  V30 4515 H 424.726 3.284 -1.00042 0
M  V30 4516 N 427.171 -0.0066808 1.57599 0
M  V30 4517 C 428.134 -0.985035 2.06953 0
M  V30 4518 C 429.134 -1.27663 0.977687 0
M  V30 4519 O 430.324 -1.22293 1.24057 0
M  V30 4520 C 427.456 -2.3118 2.50536 0
M  V30 4521 H 428.649 -0.558255 2.94658 0
M  V30 4522 H 426.202 -0.254011 1.54222 0
M  V30 4523 H 426.937 -2.78561 1.66054 0
M  V30 4524 H 426.722 -2.11338 3.3027 0
M  V30 4525 H 428.212 -3.01377 2.8907 0
M  V30 4526 N 428.649 -1.55105 -0.279332 0
M  V30 4527 C 429.926 -1.66119 -1.03267 0
M  V30 4528 C 430.306 -0.523525 -2.04505 0
M  V30 4529 O 429.654 0.477194 -2.23462 0
M  V30 4530 C 429.864 -3.05067 -1.69515 0
M  V30 4531 C 431.212 -3.62606 -2.20912 0
M  V30 4532 O 432.236 -3.07659 -1.79512 0
M  V30 4533 O 431.095 -4.58861 -2.96831 0
M  V30 4534 H 428.189 -0.674429 -0.478618 0
M  V30 4535 H 430.735 -1.67446 -0.275694 0
M  V30 4536 H 429.507 -3.79311 -0.9612 0
M  V30 4537 H 429.13 -3.07611 -2.51915 0
M  V30 4538 N 430.127 0.543554 -1.4793 0
M  V30 4539 C 431.355 1.32516 -1.58894 0
M  V30 4540 C 431.77 1.87215 -0.244131 0
M  V30 4541 O 431.127 1.65709 0.764652 0
M  V30 4542 C 431.178 2.48554 -2.62494 0
M  V30 4543 O 430.899 1.96112 -3.91755 0
M  V30 4544 C 432.4 3.40572 -2.8377 0
M  V30 4545 H 429.62 0.403472 -0.536145 0
M  V30 4546 H 432.164 0.657106 -1.93655 0
M  V30 4547 H 430.319 3.1127 -2.30629 0
M  V30 4548 H 430.733 2.71967 -4.4848 0
M  V30 4549 H 432.207 4.18375 -3.60093 0
M  V30 4550 H 432.684 3.94965 -1.92092 0
M  V30 4551 H 433.29 2.8366 -3.16887 0
M  V30 4552 N 431.605 1.3629 0.791371 0
M  V30 4553 C 432.515 1.32606 1.93527 0
M  V30 4554 C 433.531 0.228541 1.72493 0
M  V30 4555 O 434.707 0.460571 1.96063 0
M  V30 4556 C 431.772 1.11271 3.28359 0
M  V30 4557 C 430.833 2.3048 3.62185 0
M  V30 4558 C 430.066 2.10154 4.90583 0
M  V30 4559 O 430.289 1.07572 5.60165 0
M  V30 4560 O 429.223 2.97884 5.23019 0
M  V30 4561 H 433.049 2.28909 1.99585 0
M  V30 4562 H 430.634 1.16818 0.931344 0
M  V30 4563 H 432.516 1.01283 4.09047 0
M  V30 4564 H 431.191 0.180292 3.23198 0
M  V30 4565 H 430.098 2.46036 2.81811 0
M  V30 4566 H 431.431 3.22221 3.72068 0
M  V30 4567 N 433.083 -1.0153 1.20538 0
M  V30 4568 C 434.329 -1.75408 1.01783 0
M  V30 4569 C 434.662 -1.88943 -0.448814 0
M  V30 4570 O 433.937 -1.4162 -1.33319 0
M  V30 4571 C 434.22 -3.17255 1.70356 0
M  V30 4572 C 434.073 -3.11508 3.24473 0
M  V30 4573 C 435.392 -4.15955 1.43769 0
M  V30 4574 H 432.511 -0.636713 0.371167 0
M  V30 4575 H 435.153 -1.18436 1.4857 0
M  V30 4576 H 433.303 -3.65898 1.30578 0
M  V30 4577 H 434.975 -2.70658 3.73553 0
M  V30 4578 H 433.218 -2.4887 3.55311 0
M  V30 4579 H 433.889 -4.11784 3.67611 0
M  V30 4580 H 436.365 -3.75973 1.7828 0
M  V30 4581 H 435.241 -5.13368 1.94279 0
M  V30 4582 H 435.502 -4.40586 0.365564 0
M  V30 4583 N 434.561 -1.01147 -1.20859 0
M  V30 4584 C 435.509 -0.57059 -2.25493 0
M  V30 4585 C 436.503 0.388109 -1.64894 0
M  V30 4586 O 437.709 0.258592 -1.78133 0
M  V30 4587 H 434.084 -0.166191 -0.733406 0
M  V30 4588 H 436.055 -1.46411 -2.60012 0
M  V30 4589 C 434.804 0.0805241 -3.47607 0
M  V30 4590 H 434.127 -0.648156 -3.94511 0
M  V30 4591 H 435.567 0.352197 -4.22535 0
M  V30 4592 C 434.026 1.32175 -3.09889 0
M  V30 4593 O 434.556 2.41553 -3.20959 0
M  V30 4594 N 432.762 1.20392 -2.64488 0
M  V30 4595 H 432.309 0.313905 -2.5568 0
M  V30 4596 H 432.267 2.03541 -2.39621 0
M  V30 4597 N 436.039 1.36541 -0.78704 0
M  V30 4598 C 437.288 1.98552 -0.35494 0
M  V30 4599 C 437.601 1.63171 1.07864 0
M  V30 4600 O 438.807 2.18399 1.61289 0
M  V30 4601 C 437.263 3.55136 -0.583671 0
M  V30 4602 C 436.871 3.99444 -2.02851 0
M  V30 4603 C 438.615 4.2395 -0.215957 0
M  V30 4604 C 436.522 5.48796 -2.20403 0
M  V30 4605 H 435.452 0.742888 -0.128972 0
M  V30 4606 H 438.103 1.5587 -0.968337 0
M  V30 4607 H 436.485 3.95875 0.0994046 0
M  V30 4608 H 437.659 3.6991 -2.74779 0
M  V30 4609 H 435.974 3.43459 -2.35425 0
M  V30 4610 H 438.571 5.33709 -0.325405 0
M  V30 4611 H 438.914 4.07827 0.835646 0
M  V30 4612 H 439.447 3.88565 -0.852175 0
M  V30 4613 H 436.186 5.69864 -3.23937 0
M  V30 4614 H 435.706 5.79964 -1.52977 0
M  V30 4615 H 437.385 6.14986 -2.01002 0
M  V30 4616 N 437.518 0.538854 1.48102 0
M  V30 4617 C 438.481 -0.208395 2.28251 0
M  V30 4618 C 439.481 -0.859656 1.35892 0
M  V30 4619 O 440.671 -0.71834 1.58699 0
M  V30 4620 C 437.803 -1.30252 3.15035 0
M  V30 4621 H 438.996 0.495407 2.9578 0
M  V30 4622 H 436.549 0.295112 1.53489 0
M  V30 4623 H 437.284 -2.0393 2.52157 0
M  V30 4624 H 437.069 -0.840551 3.82985 0
M  V30 4625 H 438.559 -1.82787 3.75471 0
M  V30 4626 N 438.996 -1.55193 0.274407 0
M  V30 4627 C 439.926 -2.25471 -0.607032 0
M  V30 4628 C 440.907 -1.24461 -1.15946 0
M  V30 4629 O 442.092 -1.53179 -1.19373 0
M  V30 4630 C 439.222 -2.97526 -1.79153 0
M  V30 4631 C 438.176 -4.05459 -1.37067 0
M  V30 4632 C 437.502 -4.65084 -2.6382 0
M  V30 4633 C 438.802 -5.19691 -0.521389 0
M  V30 4634 H 440.496 -2.99393 -0.0209343 0
M  V30 4635 H 438.042 -1.43997 -0.00862866 0
M  V30 4636 H 439.995 -3.45402 -2.41404 0
M  V30 4637 H 438.719 -2.21138 -2.40344 0
M  V30 4638 H 437.378 -3.58393 -0.771355 0
M  V30 4639 H 437.026 -3.85365 -3.23268 0
M  V30 4640 H 436.726 -5.37961 -2.36372 0
M  V30 4641 H 438.25 -5.15708 -3.26921 0
M  V30 4642 H 439.664 -5.63623 -1.04889 0
M  V30 4643 H 438.061 -5.99126 -0.341825 0
M  V30 4644 H 439.131 -4.82713 0.46 0
M  V30 4645 N 440.474 -0.00167713 -1.576 0
M  V30 4646 C 441.437 0.974046 -2.07473 0
M  V30 4647 C 442.437 1.27143 -0.984444 0
M  V30 4648 O 443.627 1.21633 -1.24703 0
M  V30 4649 C 440.759 2.29849 -2.51759 0
M  V30 4650 H 441.952 0.54262 -2.9495 0
M  V30 4651 H 439.505 0.245829 -1.54355 0
M  V30 4652 H 440.24 2.77677 -1.67529 0
M  V30 4653 H 440.025 2.09584 -3.31386 0
M  V30 4654 H 441.515 2.9984 -2.90664 0
M  V30 4655 N 441.952 1.55251 0.271103 0
M  V30 4656 C 443.18 1.79974 1.02064 0
M  V30 4657 C 443.595 0.574003 1.79863 0
M  V30 4658 O 442.952 -0.456962 1.76686 0
M  V30 4659 C 443.003 3.02603 1.97772 0
M  V30 4660 O 442.724 4.20443 1.23124 0
M  V30 4661 C 444.225 3.39944 2.84522 0
M  V30 4662 H 441.445 0.599489 0.301419 0
M  V30 4663 H 443.989 2.02268 0.301313 0
M  V30 4664 H 442.144 2.8243 2.65165 0
M  V30 4665 H 442.558 4.89783 1.87651 0
M  V30 4666 H 444.032 4.28915 3.47471 0
M  V30 4667 H 444.509 2.59432 3.54389 0
M  V30 4668 H 445.115 3.62383 2.22618 0
M  V30 4669 N 443.43 -0.535701 1.48216 0
M  V30 4670 C 444.378 -1.66179 1.62749 0
M  V30 4671 C 445.372 -1.62034 0.49409 0
M  V30 4672 O 446.578 -1.6696 0.672624 0
M  V30 4673 H 442.953 -0.550244 0.512578 0
M  V30 4674 H 444.924 -1.51063 2.57337 0
M  V30 4675 C 443.673 -3.04471 1.67907 0
M  V30 4676 H 442.996 -3.08351 2.54479 0
M  V30 4677 H 444.436 -3.82894 1.82121 0
M  V30 4678 C 442.895 -3.34314 0.416596 0
M  V30 4679 O 443.425 -3.98905 -0.473014 0
M  V30 4680 N 441.631 -2.89149 0.290038 0
M  V30 4681 H 441.178 -2.36764 1.01493 0
M  V30 4682 H 441.136 -3.09486 -0.55367 0
M  V30 4683 N 444.908 -1.36708 -0.784132 0
M  V30 4684 C 445.871 -1.31307 -1.87859 0
M  V30 4685 C 446.871 -0.219654 -1.59293 0
M  V30 4686 O 448.061 -0.47476 -1.67606 0
M  V30 4687 C 445.193 -1.03679 -3.24751 0
M  V30 4688 H 446.386 -2.28647 -1.94064 0
M  V30 4689 H 443.939 -1.21558 -0.98252 0
M  V30 4690 H 444.674 -0.0681936 -3.24228 0
M  V30 4691 H 444.459 -1.82811 -3.46876 0
M  V30 4692 H 445.949 -1.02518 -4.04821 0
M  V30 4693 N 446.386 1.0089 -1.21074 0
M  V30 4694 C 447.802 1.2695 -0.967257 0
M  V30 4695 C 448.002 1.9846 0.348673 0
M  V30 4696 O 447.058 2.28459 1.0753 0
M  V30 4697 C 448.371 2.09697 -2.15517 0
M  V30 4698 C 449.919 2.22937 -2.197 0
M  V30 4699 C 450.394 3.09064 -3.37999 0
M  V30 4700 N 451.885 3.16653 -3.38061 0
M  V30 4701 C 452.62 3.8354 -4.26245 0
M  V30 4702 N 452.116 4.52488 -5.2462 0
M  V30 4703 N 453.909 3.80141 -4.14064 0
M  V30 4704 H 446.06 0.529005 -2.05707 0
M  V30 4705 H 448.323 0.296148 -0.900556 0
M  V30 4706 H 448.029 1.64497 -3.10859 0
M  V30 4707 H 447.903 3.10444 -2.14253 0
M  V30 4708 H 450.29 2.67357 -1.24916 0
M  V30 4709 H 450.371 1.21673 -2.2501 0
M  V30 4710 H 450.015 2.65347 -4.33074 0
M  V30 4711 H 449.945 4.10433 -3.29928 0
M  V30 4712 H 452.436 2.67566 -2.66865 0
M  V30 4713 H 452.749 5.01219 -5.88217 0
M  V30 4714 H 451.094 4.51288 -5.28549 0
M  V30 4715 H 454.285 3.25427 -3.36474 0
M  V30 4716 H 454.458 4.31992 -4.82998 0
M  V30 4717 N 447.864 1.01787 1.20321 0
M  V30 4718 C 448.811 0.589197 2.23153 0
M  V30 4719 C 449.781 -0.391367 1.61423 0
M  V30 4720 O 450.966 -0.290518 1.88575 0
M  V30 4721 C 448.106 -0.0650747 3.45039 0
M  V30 4722 C 447.219 0.960207 4.21194 0
M  V30 4723 C 446.354 0.276854 5.30478 0
M  V30 4724 C 445.393 1.2888 5.98378 0
M  V30 4725 N 444.53 0.632031 6.99249 0
M  V30 4726 H 449.37 1.47071 2.59179 0
M  V30 4727 H 446.907 0.736192 1.27352 0
M  V30 4728 H 448.865 -0.461552 4.14639 0
M  V30 4729 H 447.495 -0.910233 3.09701 0
M  V30 4730 H 446.547 1.47484 3.50646 0
M  V30 4731 H 447.859 1.72977 4.67847 0
M  V30 4732 H 447.013 -0.175056 6.06447 0
M  V30 4733 H 445.752 -0.525004 4.84866 0
M  V30 4734 H 444.757 1.75109 5.21169 0
M  V30 4735 H 445.982 2.09196 6.46076 0
M  V30 4736 H 443.928 -0.149935 6.55829 0
M  V30 4737 H 443.845 1.33964 7.44036 0
M  V30 4738 H 445.113 0.203755 7.79234 0
M  V30 4739 N 449.342 -1.36122 0.79427 0
M  V30 4740 C 450.274 -2.28683 0.153903 0
M  V30 4741 C 451.287 -1.49707 -0.639669 0
M  V30 4742 O 452.476 -1.7209 -0.474054 0
M  V30 4743 C 449.576 -3.29202 -0.804921 0
M  V30 4744 C 448.749 -4.37358 -0.060366 0
M  V30 4745 C 447.808 -5.17811 -0.935849 0
M  V30 4746 O 446.834 -5.67853 -0.391309 0
M  V30 4747 N 448.036 -5.34721 -2.25951 0
M  V30 4748 H 450.801 -2.84278 0.949008 0
M  V30 4749 H 448.362 -1.4834 0.648611 0
M  V30 4750 H 450.354 -3.79914 -1.39455 0
M  V30 4751 H 448.924 -2.74212 -1.50088 0
M  V30 4752 H 448.144 -3.87746 0.710382 0
M  V30 4753 H 449.432 -5.06777 0.45324 0
M  V30 4754 H 448.83 -4.95687 -2.72601 0
M  V30 4755 H 447.387 -5.88657 -2.79867 0
M  V30 4756 N 450.82 -0.546701 -1.47814 0
M  V30 4757 C 452.068 -0.0187037 -2.02091 0
M  V30 4758 C 452.389 1.33168 -1.42447 0
M  V30 4759 O 451.659 1.86619 -0.595839 0
M  V30 4760 H 450.239 -0.00392531 -0.74699 0
M  V30 4761 H 452.901 -0.714327 -1.81338 0
M  V30 4762 H 451.997 0.0772219 -3.12004 0
M  V30 4763 N 452.299 1.55045 -0.282633 0
M  V30 4764 C 453.715 1.59441 0.0712997 0
M  V30 4765 C 453.915 1.2998 1.53972 0
M  V30 4766 O 452.971 1.06431 2.28973 0
M  V30 4767 C 454.284 2.99097 -0.310104 0
M  V30 4768 C 455.832 3.1194 -0.257343 0
M  V30 4769 C 456.307 4.53875 -0.613297 0
M  V30 4770 N 457.798 4.5974 -0.565134 0
M  V30 4771 C 458.533 5.67603 -0.81326 0
M  V30 4772 N 458.029 6.83582 -1.1264 0
M  V30 4773 N 459.822 5.57187 -0.741553 0
M  V30 4774 H 451.973 1.72458 -1.23984 0
M  V30 4775 H 454.236 0.804549 -0.501403 0
M  V30 4776 H 453.942 3.25516 -1.33163 0
M  V30 4777 H 453.816 3.75616 0.345366 0
M  V30 4778 H 456.203 2.85281 0.754905 0
M  V30 4779 H 456.284 2.37618 -0.947178 0
M  V30 4780 H 455.928 4.81261 -1.62327 0
M  V30 4781 H 455.858 5.26508 0.09841 0
M  V30 4782 H 458.349 3.76427 -0.333294 0
M  V30 4783 H 458.662 7.6175 -1.30219 0
M  V30 4784 H 457.007 6.85179 -1.16425 0
M  V30 4785 H 460.198 4.65457 -0.496705 0
M  V30 4786 H 460.371 6.41171 -0.938306 0
M  V30 4787 N 453.777 0.010035 1.57597 0
M  V30 4788 C 455.024 -0.6727 1.91 0
M  V30 4789 C 455.352 -1.73219 0.884614 0
M  V30 4790 O 454.607 -1.95395 -0.109215 0
M  V30 4791 C 454.906 -1.34434 3.31153 0
M  V30 4792 C 454.572 -0.417083 4.48967 0
M  V30 4793 C 453.234 -0.161809 4.80928 0
M  V30 4794 C 455.586 0.220753 5.20732 0
M  V30 4795 C 452.914 0.739426 5.82022 0
M  V30 4796 C 455.266 1.10993 6.22787 0
M  V30 4797 C 453.93 1.37428 6.532 0
M  V30 4798 H 453.2 -0.246158 0.698918 0
M  V30 4799 H 455.847 0.0677145 1.9138 0
M  V30 4800 H 454.152 -2.15905 3.26944 0
M  V30 4801 H 455.849 -1.87883 3.54261 0
M  V30 4802 H 452.439 -0.626217 4.24001 0
M  V30 4803 H 456.623 0.0365643 4.96287 0
M  V30 4804 H 451.879 0.952139 6.03941 0
M  V30 4805 H 456.053 1.61046 6.77523 0
M  V30 4806 H 453.68 2.0743 7.31353 0
M  V30 4807 N 455.255 -1.55392 -0.262866 0
M  V30 4808 C 456.218 -1.88181 -1.30846 0
M  V30 4809 C 457.218 -0.757079 -1.41862 0
M  V30 4810 O 458.408 -1.02519 -1.40838 0
M  V30 4811 C 455.54 -2.09609 -2.68844 0
M  V30 4812 H 456.733 -2.81659 -1.02997 0
M  V30 4813 H 454.286 -1.48039 -0.501414 0
M  V30 4814 H 455.021 -1.18547 -3.01856 0
M  V30 4815 H 454.806 -2.91508 -2.62231 0
M  V30 4816 H 456.296 -2.36215 -3.44372 0
M  V30 4817 N 456.733 0.527833 -1.48498 0
M  V30 4818 C 457.979 1.28545 -1.56857 0
M  V30 4819 C 458.312 1.92678 -0.242651 0
M  V30 4820 O 457.587 1.79394 0.751545 0
M  V30 4821 C 457.87 2.37314 -2.70839 0
M  V30 4822 C 457.723 1.77858 -4.13142 0
M  V30 4823 C 459.042 3.39068 -2.80573 0
M  V30 4824 H 456.161 0.466006 -0.570971 0
M  V30 4825 H 458.803 0.587784 -1.8068 0
M  V30 4826 H 456.953 2.96821 -2.50658 0
M  V30 4827 H 458.625 1.22385 -4.44769 0
M  V30 4828 H 456.868 1.08383 -4.20042 0
M  V30 4829 H 457.539 2.56624 -4.88721 0
M  V30 4830 H 460.015 2.89518 -2.98862 0
M  V30 4831 H 458.891 4.12566 -3.6205 0
M  V30 4832 H 459.152 3.9975 -1.88818 0
M  V30 4833 N 458.211 1.37122 0.776871 0
M  V30 4834 C 459.158 1.3247 1.88998 0
M  V30 4835 C 460.128 0.191143 1.64997 0
M  V30 4836 O 461.313 0.379683 1.86984 0
M  V30 4837 C 458.453 1.13241 3.25992 0
M  V30 4838 C 457.566 2.35782 3.61982 0
M  V30 4839 C 456.701 2.09465 4.88158 0
M  V30 4840 C 455.74 3.279 5.16864 0
M  V30 4841 N 454.877 3.01167 6.34226 0
M  V30 4842 H 459.717 2.27642 1.9231 0
M  V30 4843 H 457.254 1.13125 0.94027 0
M  V30 4844 H 459.212 1.00115 4.0501 0
M  V30 4845 H 457.842 0.217186 3.22069 0
M  V30 4846 H 456.894 2.59666 2.77989 0
M  V30 4847 H 458.206 3.24125 3.79137 0
M  V30 4848 H 457.36 1.93341 5.75069 0
M  V30 4849 H 456.099 1.18452 4.73097 0
M  V30 4850 H 455.104 3.44569 4.2843 0
M  V30 4851 H 456.329 4.19757 5.33836 0
M  V30 4852 H 454.275 2.12779 6.20533 0
M  V30 4853 H 454.192 3.83052 6.51772 0
M  V30 4854 H 455.46 2.88649 7.24087 0
M  V30 4855 N 459.689 -1.00246 1.21608 0
M  V30 4856 C 460.637 -2.11193 0.97469 0
M  V30 4857 C 461.631 -1.69216 -0.0789303 0
M  V30 4858 O 462.837 -1.79853 0.0726806 0
M  V30 4859 H 459.212 -0.690455 0.297953 0
M  V30 4860 H 461.183 -2.2873 1.91638 0
M  V30 4861 C 459.932 -3.43182 0.558717 0
M  V30 4862 H 459.255 -3.75918 1.3611 0
M  V30 4863 H 460.695 -4.21823 0.429154 0
M  V30 4864 C 459.154 -3.28882 -0.730648 0
M  V30 4865 O 459.684 -3.59835 -1.78554 0
M  V30 4866 N 457.89 -2.8209 -0.698131 0
M  V30 4867 H 457.437 -2.57099 0.16061 0
M  V30 4868 H 457.395 -2.72903 -1.56113 0
M  V30 4869 N 461.167 -1.02423 -1.1978 0
M  V30 4870 C 462.097 -0.62157 -2.25075 0
M  V30 4871 C 463.078 0.367148 -1.6609 0
M  V30 4872 O 464.263 0.250892 -1.92573 0
M  V30 4873 C 461.393 0.0331826 -3.47284 0
M  V30 4874 C 460.347 -0.877323 -4.18912 0
M  V30 4875 C 459.673 -0.0879296 -5.34628 0
M  V30 4876 C 460.973 -2.18892 -4.74219 0
M  V30 4877 H 462.667 -1.50179 -2.59011 0
M  V30 4878 H 460.213 -0.723547 -1.24502 0
M  V30 4879 H 462.166 0.326488 -4.20133 0
M  V30 4880 H 460.89 0.948164 -3.12534 0
M  V30 4881 H 459.549 -1.15475 -3.47938 0
M  V30 4882 H 459.197 0.828941 -4.96123 0
M  V30 4883 H 458.897 -0.694359 -5.83483 0
M  V30 4884 H 460.421 0.198743 -6.10276 0
M  V30 4885 H 461.835 -1.95746 -5.38847 0
M  V30 4886 H 460.232 -2.74686 -5.33542 0
M  V30 4887 H 461.302 -2.84674 -3.92541 0
M  V30 4888 N 462.645 1.35699 -0.801477 0
M  V30 4889 C 463.555 2.33661 -0.209691 0
M  V30 4890 C 464.571 1.6162 0.644591 0
M  V30 4891 O 465.747 1.93529 0.557545 0
M  V30 4892 C 462.812 3.40816 0.636033 0
M  V30 4893 C 461.873 4.28639 -0.238147 0
M  V30 4894 C 461.106 5.30676 0.567307 0
M  V30 4895 O 461.329 5.41174 1.8024 0
M  V30 4896 O 460.263 6.01887 -0.0391336 0
M  V30 4897 H 464.089 2.8606 -1.01996 0
M  V30 4898 H 461.674 1.38379 -0.563164 0
M  V30 4899 H 463.556 4.06301 1.11791 0
M  V30 4900 H 462.231 2.90696 1.42399 0
M  V30 4901 H 461.138 3.66152 -0.767044 0
M  V30 4902 H 462.471 4.82143 -0.989915 0
M  V30 4903 N 464.123 0.554532 1.47522 0
M  V30 4904 C 465.033 -0.197865 2.33764 0
M  V30 4905 C 466.049 -0.914576 1.48025 0
M  V30 4906 O 467.225 -0.884067 1.80959 0
M  V30 4907 C 464.29 -1.21628 3.24665 0
M  V30 4908 C 463.351 -0.507283 4.26292 0
M  V30 4909 C 462.584 -1.47718 5.1285 0
M  V30 4910 O 462.807 -2.7118 5.01814 0
M  V30 4911 O 461.741 -1.00313 5.93482 0
M  V30 4912 H 465.567 0.50949 2.99396 0
M  V30 4913 H 463.152 0.315176 1.46038 0
M  V30 4914 H 465.034 -1.80421 3.80823 0
M  V30 4915 H 463.709 -1.9056 2.61665 0
M  V30 4916 H 462.616 0.121778 3.73902 0
M  V30 4917 H 463.949 0.140544 4.91999 0
M  V30 4918 N 465.601 -1.54893 0.290851 0
M  V30 4919 C 467.012 -1.85584 -0.203816 0
M  V30 4920 C 467.363 -1.21285 -1.54222 0
M  V30 4921 O 466.488 -0.506841 -2.10381 0
M  V30 4922 C 467.083 -3.367 -0.376595 0
M  V30 4923 C 465.642 -3.6746 -0.815485 0
M  V30 4924 C 464.789 -2.77178 0.0821087 0
M  V30 4925 H 467.74 -1.50208 0.512175 0
M  V30 4926 H 467.761 -3.60656 -1.21275 0
M  V30 4927 H 467.273 -3.8347 0.59767 0
M  V30 4928 H 465.374 -3.26201 -1.80066 0
M  V30 4929 H 465.487 -4.7478 -0.641905 0
M  V30 4930 H 463.851 -2.50925 -0.436895 0
M  V30 4931 H 464.634 -3.26767 1.05254 0
M  V30 4932 N 467.08 -0.0183926 -1.57589 0
M  V30 4933 C 468.326 0.663543 -1.91638 0
M  V30 4934 C 468.659 1.72392 -0.894134 0
M  V30 4935 O 467.934 1.94316 0.0846449 0
M  V30 4936 C 468.217 1.28984 -3.36207 0
M  V30 4937 C 468.07 0.239761 -4.49161 0
M  V30 4938 C 469.389 2.2109 -3.80536 0
M  V30 4939 H 466.508 0.239746 -0.696915 0
M  V30 4940 H 469.15 -0.073456 -1.89858 0
M  V30 4941 H 467.3 1.91799 -3.37854 0
M  V30 4942 H 468.972 -0.390119 -4.59647 0
M  V30 4943 H 467.215 -0.435972 -4.31604 0
M  V30 4944 H 467.886 0.717383 -5.47319 0
M  V30 4945 H 470.362 1.68273 -3.80557 0
M  V30 4946 H 469.238 2.61869 -4.82406 0
M  V30 4947 H 469.499 3.09764 -3.15434 0
M  V30 4948 N 468.558 1.5553 0.254621 0
M  V30 4949 C 469.505 1.89666 1.31512 0
M  V30 4950 C 470.475 0.750057 1.482 0
M  V30 4951 O 471.66 1.00301 1.62309 0
M  V30 4952 C 468.8 2.19009 2.667 0
M  V30 4953 C 467.913 3.46435 2.58083 0
M  V30 4954 C 467.048 3.65386 3.85573 0
M  V30 4955 C 466.087 4.8644 3.71541 0
M  V30 4956 N 465.224 5.01952 4.90906 0
M  V30 4957 H 470.064 2.80109 1.017 0
M  V30 4958 H 467.601 1.38666 0.490938 0
M  V30 4959 H 469.559 2.34025 3.45381 0
M  V30 4960 H 468.189 1.31779 2.94676 0
M  V30 4961 H 467.241 3.39792 1.71013 0
M  V30 4962 H 468.553 4.35258 2.43622 0
M  V30 4963 H 467.707 3.80319 4.72697 0
M  V30 4964 H 466.446 2.74781 4.02922 0
M  V30 4965 H 465.451 4.71491 2.82801 0
M  V30 4966 H 466.676 5.78497 3.55694 0
M  V30 4967 H 464.622 4.14283 5.08631 0
M  V30 4968 H 464.539 5.84851 4.79046 0
M  V30 4969 H 465.807 5.21289 5.7955 0
M  V30 4970 N 470.036 -0.519951 1.48776 0
M  V30 4971 C 471.447 -1.10177 1.50725 0
M  V30 4972 C 471.798 -1.94153 0.282678 0
M  V30 4973 O 470.923 -2.07645 -0.609298 0
M  V30 4974 C 471.518 -2.00482 2.73116 0
M  V30 4975 C 470.077 -2.53862 2.77905 0
M  V30 4976 C 469.224 -1.31047 2.44381 0
M  V30 4977 H 472.175 -0.30473 1.55747 0
M  V30 4978 H 472.196 -2.8491 2.52203 0
M  V30 4979 H 471.708 -1.39335 3.62225 0
M  V30 4980 H 469.809 -3.18702 1.93029 0
M  V30 4981 H 469.922 -2.9231 3.79594 0
M  V30 4982 H 468.286 -1.62953 1.95751 0
M  V30 4983 H 469.069 -0.71637 3.35743 0
M  V30 4984 N 471.514 -1.37532 -0.769588 0
M  V30 4985 C 472.761 -1.3286 -1.52822 0
M  V30 4986 C 473.089 0.0862597 -1.94309 0
M  V30 4987 O 472.344 1.05995 -1.6451 0
M  V30 4988 C 472.643 -2.21558 -2.8044 0
M  V30 4989 C 472.309 -3.69796 -2.57996 0
M  V30 4990 C 470.971 -4.10194 -2.51583 0
M  V30 4991 C 473.323 -4.63699 -2.37976 0
M  V30 4992 C 470.651 -5.42608 -2.23144 0
M  V30 4993 C 473.003 -5.96353 -2.1106 0
M  V30 4994 C 471.667 -6.35853 -2.03093 0
M  V30 4995 H 470.937 -0.486168 -0.559215 0
M  V30 4996 H 473.584 -1.69757 -0.886277 0
M  V30 4997 H 471.889 -1.77663 -3.49204 0
M  V30 4998 H 473.586 -2.15256 -3.38328 0
M  V30 4999 H 470.176 -3.37759 -2.63851 0
M  V30 5000 H 474.36 -4.33346 -2.41919 0
M  V30 5001 H 469.616 -5.72173 -2.15472 0
M  V30 5002 H 473.79 -6.68667 -1.94568 0
M  V30 5003 H 471.417 -7.38382 -1.8082 0
M  V30 5004 N 472.992 0.995999 -1.22138 0
M  V30 5005 C 474.403 1.54961 -1.04135 0
M  V30 5006 C 474.754 1.92159 0.396147 0
M  V30 5007 O 473.879 1.74435 1.28069 0
M  V30 5008 C 474.474 2.81581 -1.88408 0
M  V30 5009 C 473.033 3.33396 -1.74712 0
M  V30 5010 C 472.18 2.06509 -1.85066 0
M  V30 5011 H 475.131 0.817436 -1.36028 0
M  V30 5012 H 475.152 3.53822 -1.39966 0
M  V30 5013 H 474.664 2.54476 -2.93025 0
M  V30 5014 H 472.765 3.65416 -0.728159 0
M  V30 5015 H 472.878 4.04208 -2.57202 0
M  V30 5016 H 471.242 2.19925 -1.28472 0
M  V30 5017 H 472.025 1.81804 -2.91208 0
M  V30 5018 N 474.47 1.03057 1.19235 0
M  V30 5019 C 475.718 0.726581 1.88587 0
M  V30 5020 C 476.039 -0.747227 1.80115 0
M  V30 5021 O 475.309 -1.53849 1.21274 0
M  V30 5022 H 473.889 0.265768 0.698124 0
M  V30 5023 H 476.551 1.30516 1.44746 0
M  V30 5024 H 475.647 1.0224 2.94879 0
M  V30 5025 N 475.948 -1.35272 0.808662 0
M  V30 5026 C 477.194 -1.99003 0.390581 0
M  V30 5027 C 477.527 -1.63999 -1.0401 0
M  V30 5028 O 476.802 -0.904368 -1.72196 0
M  V30 5029 C 477.085 -3.55454 0.576566 0
M  V30 5030 C 476.938 -4.00249 2.05233 0
M  V30 5031 C 478.257 -4.401 0.00354277 0
M  V30 5032 H 475.376 -0.722917 0.143388 0
M  V30 5033 H 478.018 -1.6039 1.01858 0
M  V30 5034 H 476.168 -3.88477 0.0419766 0
M  V30 5035 H 477.84 -3.77626 2.64946 0
M  V30 5036 H 476.083 -3.51082 2.54801 0
M  V30 5037 H 476.754 -5.0911 2.13333 0
M  V30 5038 H 479.23 -4.13548 0.460117 0
M  V30 5039 H 478.106 -5.48656 0.163575 0
M  V30 5040 H 478.367 -4.28444 -1.09032 0
M  V30 5041 N 477.426 -0.562348 -1.47226 0
M  V30 5042 C 478.358 0.220011 -2.28142 0
M  V30 5043 C 479.371 0.874596 -1.37312 0
M  V30 5044 O 480.56 0.747583 -1.62091 0
M  V30 5045 C 477.66 1.32953 -3.11732 0
M  V30 5046 C 476.833 0.770759 -4.30556 0
M  V30 5047 C 475.892 1.76541 -4.95701 0
M  V30 5048 O 474.918 1.3095 -5.53932 0
M  V30 5049 N 476.12 3.09896 -4.90861 0
M  V30 5050 H 478.885 -0.474107 -2.95926 0
M  V30 5051 H 476.446 -0.398761 -1.56912 0
M  V30 5052 H 478.438 1.99378 -3.5218 0
M  V30 5053 H 477.008 1.92681 -2.46156 0
M  V30 5054 H 476.228 -0.0704056 -3.94137 0
M  V30 5055 H 477.516 0.376872 -5.07402 0
M  V30 5056 H 476.914 3.49577 -4.44761 0
M  V30 5057 H 475.471 3.71865 -5.35313 0
M  V30 5058 N 478.904 1.54736 -0.299062 0
M  V30 5059 C 480.152 1.99706 0.31017 0
M  V30 5060 C 480.473 1.18896 1.54559 0
M  V30 5061 O 479.743 0.284445 1.93824 0
M  V30 5062 H 478.323 0.737686 0.117596 0
M  V30 5063 H 480.985 1.9054 -0.409943 0
M  V30 5064 H 480.081 3.06596 0.58355 0
M  V30 5065 N 480.382 0.0267497 1.57577 0
M  V30 5066 C 481.607 -0.666227 1.96408 0
M  V30 5067 C 482.032 -1.65004 0.903071 0
M  V30 5068 O 481.39 -1.80787 -0.136263 0
M  V30 5069 C 481.438 -1.35101 3.34335 0
M  V30 5070 O 480.542 -2.46623 3.30531 0
M  V30 5071 H 479.883 -0.175206 0.640468 0
M  V30 5072 H 482.413 0.0878977 2.04411 0
M  V30 5073 H 482.423 -1.70834 3.70513 0
M  V30 5074 H 481.098 -0.629844 4.11103 0
M  V30 5075 H 479.675 -2.13019 3.06068 0
M  V30 5076 N 481.861 -1.55662 -0.24637 0
M  V30 5077 C 483.086 -1.81914 -0.996093 0
M  V30 5078 C 483.511 -0.603875 -1.78143 0
M  V30 5079 O 482.869 0.447091 -1.75701 0
M  V30 5080 C 482.917 -3.05908 -1.90925 0
M  V30 5081 O 482.021 -2.82861 -3.00105 0
M  V30 5082 H 481.362 -0.600481 -0.283406 0
M  V30 5083 H 483.892 -2.02848 -0.267199 0
M  V30 5084 H 483.902 -3.35356 -2.3238 0
M  V30 5085 H 482.577 -3.93999 -1.33183 0
M  V30 5086 H 481.154 -2.64583 -2.62775 0
M  V30 5087 N 483.339 0.512053 -1.4905 0
M  V30 5088 C 484.587 1.26436 -1.57665 0
M  V30 5089 C 484.908 1.93255 -0.260293 0
M  V30 5090 O 484.178 1.82206 0.719564 0
M  V30 5091 H 482.758 0.469658 -0.580888 0
M  V30 5092 H 485.42 0.594398 -1.85615 0
M  V30 5093 H 484.516 2.03417 -2.36702 0
M  V30 5094 N 484.817 1.37938 0.762283 0
M  V30 5095 C 485.747 1.37176 1.88958 0
M  V30 5096 C 486.728 0.238945 1.68413 0
M  V30 5097 O 487.913 0.440726 1.89133 0
M  V30 5098 C 485.043 1.18742 3.2637 0
M  V30 5099 C 483.997 2.29136 3.61498 0
M  V30 5100 C 483.323 1.95816 4.97554 0
M  V30 5101 C 484.623 3.71363 3.6727 0
M  V30 5102 H 486.317 2.31509 1.89853 0
M  V30 5103 H 483.863 1.11438 0.912005 0
M  V30 5104 H 485.816 1.16837 4.04879 0
M  V30 5105 H 484.54 0.208683 3.25933 0
M  V30 5106 H 483.199 2.30213 2.85303 0
M  V30 5107 H 482.847 0.964475 4.93667 0
M  V30 5108 H 482.547 2.69745 5.22026 0
M  V30 5109 H 484.071 1.95513 5.78452 0
M  V30 5110 H 485.485 3.72364 4.35911 0
M  V30 5111 H 483.882 4.44425 4.03245 0
M  V30 5112 H 484.952 4.04305 2.67704 0
M  V30 5113 N 486.295 -0.989507 1.22664 0
M  V30 5114 C 487.258 -2.06183 1.00106 0
M  V30 5115 C 488.258 -1.60765 -0.0337726 0
M  V30 5116 O 489.448 -1.72989 0.205072 0
M  V30 5117 C 486.58 -3.37021 0.51279 0
M  V30 5118 H 487.773 -2.27629 1.95256 0
M  V30 5119 H 485.326 -1.16158 1.0458 0
M  V30 5120 H 486.061 -3.21261 -0.442917 0
M  V30 5121 H 485.846 -3.71323 1.25942 0
M  V30 5122 H 487.336 -4.1591 0.375315 0
M  V30 5123 N 487.773 -1.03688 -1.18687 0
M  V30 5124 C 489.019 -0.739123 -1.88851 0
M  V30 5125 C 489.352 0.731042 -1.79915 0
M  V30 5126 O 488.627 1.53313 -1.19688 0
M  V30 5127 C 488.91 -1.20106 -3.3948 0
M  V30 5128 C 488.763 -2.73304 -3.57246 0
M  V30 5129 C 490.082 -0.788134 -4.32986 0
M  V30 5130 H 487.201 -0.269978 -0.68577 0
M  V30 5131 H 489.843 -1.28822 -1.3966 0
M  V30 5132 H 487.993 -0.733915 -3.81505 0
M  V30 5133 H 489.665 -3.28027 -3.24339 0
M  V30 5134 H 487.908 -3.13313 -3.00029 0
M  V30 5135 H 488.579 -3.00684 -4.62918 0
M  V30 5136 H 491.055 -1.19005 -3.98719 0
M  V30 5137 H 489.931 -1.13915 -5.36949 0
M  V30 5138 H 490.192 0.308988 -4.41019 0
M  V30 5139 N 489.251 1.34841 -0.815825 0
M  V30 5140 C 490.498 1.98499 -0.400535 0
M  V30 5141 C 490.826 1.64699 1.03463 0
M  V30 5142 O 490.081 0.907006 1.73412 0
M  V30 5143 C 490.38 3.53273 -0.541541 0
M  V30 5144 C 490.046 4.06966 -1.94138 0
M  V30 5145 C 488.708 4.21341 -2.32433 0
M  V30 5146 C 491.06 4.35933 -2.85677 0
M  V30 5147 C 488.388 4.62007 -3.61617 0
M  V30 5148 C 490.74 4.78042 -4.14317 0
M  V30 5149 C 489.404 4.90622 -4.52599 0
M  V30 5150 H 488.674 0.72636 -0.146566 0
M  V30 5151 H 491.321 1.60902 -1.0384 0
M  V30 5152 H 489.626 3.91387 0.179741 0
M  V30 5153 H 491.323 4.00497 -0.20085 0
M  V30 5154 H 487.913 3.96235 -1.63388 0
M  V30 5155 H 492.097 4.24372 -2.57337 0
M  V30 5156 H 487.353 4.69937 -3.91113 0
M  V30 5157 H 491.527 4.99415 -4.85342 0
M  V30 5158 H 489.154 5.2189 -5.52752 0
M  V30 5159 N 490.729 0.570148 1.46925 0
M  V30 5160 C 492.006 -0.0153259 1.95594 0
M  V30 5161 C 492.386 -1.47232 1.51281 0
M  V30 5162 O 491.734 -2.15574 0.757624 0
M  V30 5163 C 491.944 0.143624 3.48704 0
M  V30 5164 C 493.292 0.00494484 4.246 0
M  V30 5165 O 494.316 0.0718214 3.56128 0
M  V30 5166 O 493.175 -0.141175 5.46318 0
M  V30 5167 H 490.269 -0.0568819 0.825041 0
M  V30 5168 H 492.815 0.637583 1.57267 0
M  V30 5169 H 491.587 1.15699 3.73804 0
M  V30 5170 H 491.21 -0.5463 3.93829 0
M  V30 5171 N 492.207 -1.54576 0.307264 0
M  V30 5172 C 493.437 -2.04378 -0.302158 0
M  V30 5173 C 493.845 -1.18381 -1.47589 0
M  V30 5174 O 493.188 -0.20352 -1.82569 0
M  V30 5175 C 493.25 -3.50133 -0.815305 0
M  V30 5176 C 492.914 -4.56401 0.233977 0
M  V30 5177 C 493.911 -5.08884 1.06456 0
M  V30 5178 C 491.596 -5.0088 0.377478 0
M  V30 5179 C 493.59 -6.04394 2.02452 0
M  V30 5180 C 491.277 -5.96208 1.34088 0
M  V30 5181 C 492.275 -6.47849 2.16288 0
M  V30 5182 O 491.963 -7.41308 3.10994 0
M  V30 5183 H 491.695 -0.672502 -0.0686839 0
M  V30 5184 H 494.249 -2.00484 0.446682 0
M  V30 5185 H 492.479 -3.51371 -1.61478 0
M  V30 5186 H 494.168 -3.83098 -1.34129 0
M  V30 5187 H 494.934 -4.75311 0.964596 0
M  V30 5188 H 490.813 -4.60309 -0.252405 0
M  V30 5189 H 494.357 -6.44626 2.66652 0
M  V30 5190 H 490.254 -6.29198 1.44154 0
M  V30 5191 H 491.022 -7.5913 3.06045 0
M  V30 5192 N 493.685 -0.035106 -1.57561 0
M  V30 5193 C 494.632 0.94474 -2.10578 0
M  V30 5194 C 495.602 1.3192 -1.00927 0
M  V30 5195 O 496.787 1.41147 -1.28382 0
M  V30 5196 C 493.927 2.21982 -2.64231 0
M  V30 5197 C 493.04 1.90128 -3.87911 0
M  V30 5198 C 492.175 3.11975 -4.29936 0
M  V30 5199 C 491.214 2.75968 -5.46359 0
M  V30 5200 N 490.351 3.90459 -5.83512 0
M  V30 5201 H 495.191 0.485717 -2.94015 0
M  V30 5202 H 492.728 0.228143 -1.4532 0
M  V30 5203 H 494.686 2.96572 -2.9343 0
M  V30 5204 H 493.316 2.6549 -1.83616 0
M  V30 5205 H 492.368 1.05755 -3.65404 0
M  V30 5206 H 493.68 1.59613 -4.72573 0
M  V30 5207 H 492.834 3.9488 -4.60603 0
M  V30 5208 H 491.573 3.45657 -3.44053 0
M  V30 5209 H 490.578 1.91478 -5.1538 0
M  V30 5210 H 491.803 2.43497 -6.33945 0
M  V30 5211 H 489.749 4.23971 -5.00584 0
M  V30 5212 H 489.666 3.63588 -6.62827 0
M  V30 5213 H 490.934 4.7405 -6.18787 0
M  V30 5214 N 495.163 1.55791 0.238111 0
M  V30 5215 C 496.41 1.78033 0.964907 0
M  V30 5216 C 496.738 0.600984 1.84982 0
M  V30 5217 O 495.993 -0.41536 1.91241 0
M  V30 5218 C 496.292 3.05869 1.84875 0
M  V30 5219 C 495.958 4.36808 1.11846 0
M  V30 5220 C 494.62 4.72388 0.916662 0
M  V30 5221 C 496.972 5.17717 0.60151 0
M  V30 5222 C 494.3 5.86406 0.185756 0
M  V30 5223 C 496.652 6.32494 -0.115972 0
M  V30 5224 C 495.316 6.66688 -0.329168 0
M  V30 5225 H 494.586 0.651469 0.353085 0
M  V30 5226 H 497.233 1.90061 0.234318 0
M  V30 5227 H 495.538 2.88891 2.64668 0
M  V30 5228 H 497.235 3.20278 2.41294 0
M  V30 5229 H 493.825 4.08862 1.28569 0
M  V30 5230 H 498.009 4.90678 0.744932 0
M  V30 5231 H 493.265 6.11399 0.0101886 0
M  V30 5232 H 497.439 6.94425 -0.524127 0
M  V30 5233 H 495.066 7.54884 -0.897474 0
M  V30 5234 N 496.642 -0.504142 1.49319 0
M  V30 5235 C 497.605 -1.5883 1.65244 0
M  V30 5236 C 498.605 -1.52009 0.524386 0
M  V30 5237 O 499.795 -1.55218 0.79077 0
M  V30 5238 C 496.927 -2.98481 1.64687 0
M  V30 5239 H 498.12 -1.4604 2.61939 0
M  V30 5240 H 495.673 -0.728144 1.38303 0
M  V30 5241 H 496.408 -3.16751 0.695644 0
M  V30 5242 H 496.193 -3.0484 2.46607 0
M  V30 5243 H 497.683 -3.77256 1.79075 0
M  V30 5244 N 498.12 -1.38341 -0.754957 0
M  V30 5245 C 499.345 -1.37882 -1.5493 0
M  V30 5246 C 499.77 0.0296385 -1.88077 0
M  V30 5247 O 499.128 1.01133 -1.50472 0
M  V30 5248 C 499.176 -2.23996 -2.82592 0
M  V30 5249 O 498.28 -1.65612 -3.77686 0
M  V30 5250 H 497.621 -0.470384 -0.468652 0
M  V30 5251 H 500.151 -1.82084 -0.933082 0
M  V30 5252 H 500.161 -2.37806 -3.3153 0
M  V30 5253 H 498.836 -3.26365 -2.57796 0
M  V30 5254 H 497.413 -1.60936 -3.36384 0
M  V30 5255 N 499.598 0.982988 -1.23187 0
M  V30 5256 C 500.826 1.75921 -1.08901 0
M  V30 5257 C 501.241 1.85341 0.359719 0
M  V30 5258 O 500.598 1.33072 1.24892 0
M  V30 5259 C 500.649 3.18742 -1.70545 0
M  V30 5260 O 500.37 3.09814 -3.09753 0
M  V30 5261 C 501.871 4.1277 -1.61667 0
M  V30 5262 H 499.091 0.552166 -0.381252 0
M  V30 5263 H 501.635 1.23516 -1.62985 0
M  V30 5264 H 499.79 3.68182 -1.20501 0
M  V30 5265 H 500.204 3.99703 -3.39614 0
M  V30 5266 H 501.678 5.10697 -2.09506 0
M  V30 5267 H 502.155 4.3542 -0.575009 0
M  V30 5268 H 502.761 3.69232 -2.11064 0
M  V30 5269 N 501.076 1.04316 1.18135 0
M  V30 5270 C 502.324 0.746542 1.87806 0
M  V30 5271 C 502.645 -0.728082 1.80898 0
M  V30 5272 O 501.915 -1.52554 1.22899 0
M  V30 5273 H 500.495 0.273157 0.695265 0
M  V30 5274 H 503.157 1.32044 1.43354 0
M  V30 5275 H 502.253 1.05362 2.93778 0
M  V30 5276 N 502.554 -1.34406 0.822964 0
M  V30 5277 C 503.803 -1.97542 0.407458 0
M  V30 5278 C 504.116 -1.65973 -1.035 0
M  V30 5279 O 505.322 -2.22598 -1.55442 0
M  V30 5280 C 503.778 -3.53463 0.677623 0
M  V30 5281 C 503.386 -3.93925 2.1337 0
M  V30 5282 C 505.13 -4.23229 0.328284 0
M  V30 5283 C 503.037 -5.42759 2.34876 0
M  V30 5284 H 501.967 -0.739207 0.148623 0
M  V30 5285 H 504.618 -1.53248 1.00932 0
M  V30 5286 H 503 -3.96 0.00558965 0
M  V30 5287 H 504.174 -3.62494 2.8449 0
M  V30 5288 H 502.489 -3.37097 2.44448 0
M  V30 5289 H 505.086 -5.32659 0.466794 0
M  V30 5290 H 505.429 -4.09899 -0.727224 0
M  V30 5291 H 505.962 -3.86169 0.954896 0
M  V30 5292 H 502.701 -5.61075 3.38932 0
M  V30 5293 H 502.221 -5.75704 1.68299 0
M  V30 5294 H 503.9 -6.0944 2.17236 0
M  V30 5295 N 504.032 -0.577932 -1.46621 0
M  V30 5296 C 504.98 0.170882 -2.31971 0
M  V30 5297 C 505.974 0.889086 -1.44193 0
M  V30 5298 O 507.18 0.808017 -1.60845 0
M  V30 5299 H 503.555 0.0739763 -0.748353 0
M  V30 5300 H 505.526 -0.567856 -2.92947 0
M  V30 5301 C 504.275 1.17438 -3.27267 0
M  V30 5302 H 503.598 0.63116 -3.94787 0
M  V30 5303 H 505.038 1.66882 -3.89778 0
M  V30 5304 C 503.497 2.23292 -2.52274 0
M  V30 5305 O 504.027 3.30567 -2.28229 0
M  V30 5306 N 502.233 1.97772 -2.12919 0
M  V30 5307 H 501.78 1.10545 -2.32675 0
M  V30 5308 H 501.738 2.68809 -1.63062 0
M  V30 5309 N 505.51 1.54411 -0.315457 0
M  V30 5310 C 506.42 2.27737 0.56329 0
M  V30 5311 C 507.436 1.31787 1.13614 0
M  V30 5312 O 508.612 1.64791 1.15784 0
M  V30 5313 C 505.677 3.01478 1.71207 0
M  V30 5314 C 504.738 4.12997 1.17185 0
M  V30 5315 C 503.971 4.83212 2.26588 0
M  V30 5316 O 504.194 4.52884 3.46775 0
M  V30 5317 O 503.128 5.70299 1.92463 0
M  V30 5318 H 506.954 3.03683 -0.0319614 0
M  V30 5319 H 504.539 1.49178 -0.0814188 0
M  V30 5320 H 506.421 3.47683 2.38106 0
M  V30 5321 H 505.096 2.28414 2.29366 0
M  V30 5322 H 504.003 3.71159 0.468174 0
M  V30 5323 H 505.336 4.8808 0.635501 0
M  V30 5324 N 506.988 0.0434614 1.5754 0
M  V30 5325 C 508.234 -0.632971 1.92669 0
M  V30 5326 C 508.567 -1.70947 0.921446 0
M  V30 5327 O 507.842 -1.94426 -0.0537202 0
M  V30 5328 C 508.125 -1.23619 3.38216 0
M  V30 5329 C 507.978 -0.168274 4.49485 0
M  V30 5330 C 509.297 -2.15008 3.84005 0
M  V30 5331 H 506.416 -0.228629 0.700641 0
M  V30 5332 H 509.058 0.103651 1.89717 0
M  V30 5333 H 507.208 -1.864 3.40863 0
M  V30 5334 H 508.88 0.463196 4.58969 0
M  V30 5335 H 507.123 0.504581 4.30855 0
M  V30 5336 H 507.794 -0.630218 5.48391 0
M  V30 5337 H 510.27 -1.62198 3.83185 0
M  V30 5338 H 509.146 -2.54161 4.86511 0
M  V30 5339 H 509.407 -3.04707 3.20322 0
M  V30 5340 N 508.466 -1.55915 -0.229846 0
M  V30 5341 C 509.399 -1.86734 -1.3117 0
M  V30 5342 C 510.377 -0.723947 -1.45595 0
M  V30 5343 O 511.561 -0.971462 -1.61539 0
M  V30 5344 C 508.688 -2.06707 -2.68309 0
M  V30 5345 C 507.734 -3.2938 -2.70944 0
M  V30 5346 S 508.567 -4.85547 -2.25842 0
M  V30 5347 C 509.723 -5.08546 -3.64873 0
M  V30 5348 H 509.956 -2.78204 -1.04832 0
M  V30 5349 H 507.489 -1.48243 -0.431681 0
M  V30 5350 H 509.447 -2.18898 -3.47267 0
M  V30 5351 H 508.108 -1.16049 -2.91876 0
M  V30 5352 H 507.301 -3.40374 -3.71701 0
M  V30 5353 H 506.903 -3.16004 -2.00044 0
M  V30 5354 H 509.195 -4.96935 -4.60502 0
M  V30 5355 H 510.138 -6.10465 -3.58801 0
M  V30 5356 H 510.546 -4.36314 -3.58176 0
M  V30 5357 N 509.944 0.496216 -1.49584 0
M  V30 5358 C 510.907 1.57952 -1.66084 0
M  V30 5359 C 511.907 1.51729 -0.53244 0
M  V30 5360 O 513.097 1.54796 -0.79899 0
M  V30 5361 C 510.229 2.97604 -1.66268 0
M  V30 5362 H 511.422 1.44649 -2.6271 0
M  V30 5363 H 508.975 0.7208 -1.38687 0
M  V30 5364 H 509.71 3.16378 -0.712432 0
M  V30 5365 H 509.495 3.03528 -2.4822 0
M  V30 5366 H 510.985 3.76301 -1.81073 0
M  V30 5367 N 511.423 1.38739 0.74761 0
M  V30 5368 C 512.355 1.32341 1.87132 0
M  V30 5369 C 513.368 0.234502 1.61102 0
M  V30 5370 O 514.557 0.492516 1.71571 0
M  V30 5371 C 511.657 1.02915 3.22896 0
M  V30 5372 C 510.83 2.22834 3.76383 0
M  V30 5373 C 509.889 1.90059 4.90677 0
M  V30 5374 O 508.915 2.62615 5.04997 0
M  V30 5375 N 510.117 0.859141 5.74107 0
M  V30 5376 H 512.882 2.29175 1.93129 0
M  V30 5377 H 510.443 1.32678 0.927805 0
M  V30 5378 H 512.435 0.79031 3.96908 0
M  V30 5379 H 511.005 0.148572 3.12247 0
M  V30 5380 H 510.225 2.62747 2.93867 0
M  V30 5381 H 511.513 3.02851 4.08851 0
M  V30 5382 H 510.911 0.257564 5.65113 0
M  V30 5383 H 509.468 0.680189 6.48241 0
M  V30 5384 N 512.901 -0.976442 1.23707 0
M  V30 5385 C 513.848 -2.06952 1.02174 0
M  V30 5386 C 514.818 -1.65984 -0.0621034 0
M  V30 5387 O 516.003 -1.90584 0.0907906 0
M  V30 5388 C 513.143 -3.39425 0.62327 0
M  V30 5389 C 512.256 -3.9364 1.77966 0
M  V30 5390 C 511.391 -5.14343 1.3276 0
M  V30 5391 C 510.43 -5.60733 2.45449 0
M  V30 5392 N 509.567 -6.72662 2.01172 0
M  V30 5393 H 514.407 -2.24704 1.95734 0
M  V30 5394 H 511.944 -1.10143 0.975034 0
M  V30 5395 H 513.902 -4.15526 0.37332 0
M  V30 5396 H 512.532 -3.21624 -0.275329 0
M  V30 5397 H 511.584 -3.14258 2.14351 0
M  V30 5398 H 512.896 -4.24035 2.62671 0
M  V30 5399 H 512.05 -5.97789 1.03601 0
M  V30 5400 H 510.789 -4.8561 0.450975 0
M  V30 5401 H 509.794 -4.75865 2.75378 0
M  V30 5402 H 511.019 -5.91483 3.33654 0
M  V30 5403 H 508.965 -6.45681 1.15895 0
M  V30 5404 H 508.882 -7.02462 2.79434 0
M  V30 5405 H 510.15 -7.59572 1.75129 0
M  V30 5406 N 514.379 -1.04941 -1.1758 0
M  V30 5407 C 515.309 -0.669172 -2.23706 0
M  V30 5408 C 516.29 0.331835 -1.66832 0
M  V30 5409 O 517.475 0.209988 -1.93061 0
M  V30 5410 C 514.605 -0.0404889 -3.47276 0
M  V30 5411 C 513.559 -0.965983 -4.16957 0
M  V30 5412 C 512.885 -0.201312 -5.34321 0
M  V30 5413 C 514.185 -2.28902 -4.69469 0
M  V30 5414 H 515.879 -1.55639 -2.55767 0
M  V30 5415 H 513.425 -0.749793 -1.22939 0
M  V30 5416 H 515.378 0.237298 -4.20731 0
M  V30 5417 H 514.102 0.881658 -3.14475 0
M  V30 5418 H 512.761 -1.22829 -3.45411 0
M  V30 5419 H 512.409 0.723519 -4.97769 0
M  V30 5420 H 512.109 -0.817968 -5.81879 0
M  V30 5421 H 513.633 0.0692499 -6.10561 0
M  V30 5422 H 515.047 -2.07132 -5.34574 0
M  V30 5423 H 513.444 -2.85942 -5.27596 0
M  V30 5424 H 514.514 -2.92937 -3.86414 0
M  V30 5425 N 515.857 1.33968 -0.830081 0
M  V30 5426 C 517.105 1.97672 -0.420734 0
M  V30 5427 C 517.426 1.66111 1.02138 0
M  V30 5428 O 516.696 0.955503 1.71017 0
M  V30 5429 H 515.276 0.73125 -0.152587 0
M  V30 5430 H 517.938 1.63483 -1.0611 0
M  V30 5431 H 517.034 3.07294 -0.545588 0
M  V30 5432 N 517.335 0.585699 1.46312 0
M  V30 5433 C 518.282 -0.145835 2.30339 0
M  V30 5434 C 519.252 -0.881215 1.40797 0
M  V30 5435 O 520.437 -0.871293 1.69744 0
M  V30 5436 C 517.577 -1.15161 3.25318 0
M  V30 5437 C 516.69 -0.419367 4.2996 0
M  V30 5438 C 515.825 -1.41293 5.12064 0
M  V30 5439 C 514.864 -0.667261 6.08452 0
M  V30 5440 N 514.001 -1.60903 6.83414 0
M  V30 5441 H 518.841 0.576755 2.92365 0
M  V30 5442 H 516.378 0.296237 1.44086 0
M  V30 5443 H 518.336 -1.74763 3.78832 0
M  V30 5444 H 516.966 -1.84188 2.65094 0
M  V30 5445 H 516.018 0.291751 3.7928 0
M  V30 5446 H 517.33 0.163433 4.98532 0
M  V30 5447 H 516.484 -2.08167 5.6987 0
M  V30 5448 H 515.223 -2.02966 4.43459 0
M  V30 5449 H 514.228 0.0152356 5.49798 0
M  V30 5450 H 515.453 -0.0558817 6.79077 0
M  V30 5451 H 513.399 -2.21381 6.17516 0
M  V30 5452 H 513.316 -1.07911 7.48259 0
M  V30 5453 H 514.584 -2.26802 7.45775 0
M  V30 5454 N 518.813 -1.54241 0.323641 0
M  V30 5455 C 519.723 -2.28033 -0.551205 0
M  V30 5456 C 520.739 -1.32388 -1.12913 0
M  V30 5457 O 521.915 -1.65403 -1.14908 0
M  V30 5458 C 518.98 -3.02382 -1.69606 0
M  V30 5459 C 518.041 -4.13612 -1.14993 0
M  V30 5460 C 517.274 -4.84407 -2.24022 0
M  V30 5461 O 517.497 -4.54716 -3.44368 0
M  V30 5462 O 516.431 -5.71312 -1.89436 0
M  V30 5463 H 520.257 -3.03662 0.048066 0
M  V30 5464 H 517.842 -1.49133 0.0893289 0
M  V30 5465 H 519.724 -3.48941 -2.36259 0
M  V30 5466 H 518.399 -2.29628 -2.28151 0
M  V30 5467 H 517.306 -3.71402 -0.448484 0
M  V30 5468 H 518.639 -4.8841 -0.609608 0
M  V30 5469 N 520.291 -0.0518155 -1.57515 0
M  V30 5470 C 521.519 0.631395 -1.9703 0
M  V30 5471 C 521.934 1.64341 -0.92938 0
M  V30 5472 O 521.291 1.82296 0.0863266 0
M  V30 5473 C 521.342 1.31774 -3.36627 0
M  V30 5474 O 521.063 0.346247 -4.3673 0
M  V30 5475 C 522.564 2.09065 -3.90905 0
M  V30 5476 H 519.784 0.172576 -0.648428 0
M  V30 5477 H 522.328 -0.118306 -2.04158 0
M  V30 5478 H 520.483 2.01867 -3.30649 0
M  V30 5479 H 520.897 0.836226 -5.17791 0
M  V30 5480 H 522.371 2.52508 -4.9086 0
M  V30 5481 H 522.848 2.93908 -3.26366 0
M  V30 5482 H 523.454 1.43882 -4.00223 0
M  V30 5483 N 521.769 1.56035 0.221574 0
M  V30 5484 C 522.716 1.92413 1.27459 0
M  V30 5485 C 523.686 0.781323 1.46576 0
M  V30 5486 O 524.871 1.03721 1.60145 0
M  V30 5487 C 522.011 2.24617 2.61995 0
M  V30 5488 C 521.124 3.51831 2.50677 0
M  V30 5489 C 520.259 3.73482 3.77736 0
M  V30 5490 C 519.298 4.94211 3.6114 0
M  V30 5491 N 518.435 5.12252 4.80148 0
M  V30 5492 H 523.275 2.82203 0.957355 0
M  V30 5493 H 520.812 1.39676 0.461415 0
M  V30 5494 H 522.77 2.41298 3.40339 0
M  V30 5495 H 521.4 1.38 2.91815 0
M  V30 5496 H 520.452 3.43343 1.63767 0
M  V30 5497 H 521.764 4.40328 2.34334 0
M  V30 5498 H 520.918 3.9026 4.64523 0
M  V30 5499 H 519.657 2.83266 3.97003 0
M  V30 5500 H 518.662 4.77384 2.72736 0
M  V30 5501 H 519.887 5.85912 3.43343 0
M  V30 5502 H 517.833 4.24978 4.99729 0
M  V30 5503 H 517.75 5.94881 4.66532 0
M  V30 5504 H 519.018 5.33465 5.68362 0
M  V30 5505 N 523.247 -0.488276 1.49845 0
M  V30 5506 C 524.21 -1.57069 1.66919 0
M  V30 5507 C 525.21 -1.51445 0.540479 0
M  V30 5508 O 526.4 -1.5437 0.807188 0
M  V30 5509 C 523.532 -2.96718 1.67844 0
M  V30 5510 H 524.725 -1.43254 2.63474 0
M  V30 5511 H 522.278 -0.713435 1.39068 0
M  V30 5512 H 523.013 -3.15996 0.7292 0
M  V30 5513 H 522.798 -3.02208 2.49826 0
M  V30 5514 H 524.288 -3.75335 1.83066 0
M  V30 5515 N 524.725 -1.39134 -0.740242 0
M  V30 5516 C 525.971 -1.36273 -1.50192 0
M  V30 5517 C 526.304 0.0430136 -1.94152 0
M  V30 5518 O 525.579 1.00691 -1.66408 0
M  V30 5519 C 525.862 -2.33041 -2.74525 0
M  V30 5520 C 525.715 -3.82535 -2.36617 0
M  V30 5521 C 527.034 -2.27723 -3.76604 0
M  V30 5522 H 524.153 -0.496323 -0.544823 0
M  V30 5523 H 526.795 -1.70085 -0.846815 0
M  V30 5524 H 524.945 -2.04337 -3.30422 0
M  V30 5525 H 526.617 -4.21967 -1.86391 0
M  V30 5526 H 524.86 -3.99565 -1.68909 0
M  V30 5527 H 525.531 -4.45723 -3.2563 0
M  V30 5528 H 528.007 -2.53091 -3.30279 0
M  V30 5529 H 526.883 -2.97519 -4.61274 0
M  V30 5530 H 527.144 -1.28049 -4.2315 0
M  V30 5531 N 526.204 0.969867 -1.24223 0
M  V30 5532 C 527.432 1.74756 -1.10761 0
M  V30 5533 C 527.847 1.85713 0.340041 0
M  V30 5534 O 527.204 1.34389 1.23474 0
M  V30 5535 C 527.255 3.16915 -1.73917 0
M  V30 5536 O 526.976 3.06511 -3.13021 0
M  V30 5537 C 528.477 4.11032 -1.66036 0
M  V30 5538 H 525.697 0.548092 -0.387087 0
M  V30 5539 H 528.241 1.2178 -1.64286 0
M  V30 5540 H 526.396 3.66884 -1.244 0
M  V30 5541 H 526.81 3.96079 -3.43834 0
M  V30 5542 H 528.284 5.08446 -2.14911 0
M  V30 5543 H 528.761 4.34785 -0.621159 0
M  V30 5544 H 529.367 3.66972 -2.14969 0
M  V30 5545 N 527.682 1.05563 1.17022 0
M  V30 5546 C 528.928 0.769074 1.87652 0
M  V30 5547 C 529.261 -0.702326 1.81055 0
M  V30 5548 O 528.536 -1.5139 1.22112 0
M  V30 5549 C 528.819 1.25492 3.37526 0
M  V30 5550 C 528.672 2.78953 3.52853 0
M  V30 5551 C 529.991 0.856919 4.31677 0
M  V30 5552 H 527.11 0.280854 0.681388 0
M  V30 5553 H 529.752 1.31027 1.37593 0
M  V30 5554 H 527.902 0.794516 3.80289 0
M  V30 5555 H 529.574 3.33146 3.19079 0
M  V30 5556 H 527.817 3.18046 2.95007 0
M  V30 5557 H 528.488 3.08011 4.58076 0
M  V30 5558 H 530.964 1.25334 3.96775 0
M  V30 5559 H 529.84 1.22443 5.35069 0
M  V30 5560 H 530.101 -0.238787 4.41455 0
M  V30 5561 N 529.16 -1.33526 0.837174 0
M  V30 5562 C 530.406 -1.9813 0.432704 0
M  V30 5563 C 530.739 -1.66168 -1.00508 0
M  V30 5564 O 530.014 -0.94069 -1.70239 0
M  V30 5565 C 530.297 -3.54151 0.651834 0
M  V30 5566 C 530.15 -3.95806 2.13676 0
M  V30 5567 C 531.469 -4.39993 0.0968937 0
M  V30 5568 H 528.588 -0.719713 0.15869 0
M  V30 5569 H 531.23 -1.58193 1.05237 0
M  V30 5570 H 529.38 -3.88301 0.124369 0
M  V30 5571 H 531.052 -3.71921 2.72896 0
M  V30 5572 H 529.295 -3.45599 2.62191 0
M  V30 5573 H 529.966 -5.0447 2.24084 0
M  V30 5574 H 532.442 -4.12479 0.547733 0
M  V30 5575 H 531.318 -5.48186 0.279917 0
M  V30 5576 H 531.579 -4.3066 -0.9992 0
M  V30 5577 N 530.638 -0.59345 -1.46 0
M  V30 5578 C 531.548 0.135817 -2.34207 0
M  V30 5579 C 532.564 0.875008 -1.50398 0
M  V30 5580 O 533.74 0.835778 -1.83239 0
M  V30 5581 C 530.805 1.12977 -3.27776 0
M  V30 5582 C 529.866 0.394081 -4.27487 0
M  V30 5583 C 529.099 1.34068 -5.16586 0
M  V30 5584 O 529.322 2.5778 -5.08828 0
M  V30 5585 O 528.256 0.845426 -5.95933 0
M  V30 5586 H 532.082 -0.588691 -2.9794 0
M  V30 5587 H 529.667 -0.353784 -1.45151 0
M  V30 5588 H 531.549 1.70261 -3.85473 0
M  V30 5589 H 530.224 1.83556 -2.66625 0
M  V30 5590 H 529.131 -0.220869 -3.73447 0
M  V30 5591 H 530.464 -0.270939 -4.91454 0
M  V30 5592 N 532.116 1.54067 -0.331816 0
M  V30 5593 C 533.393 1.92915 0.322955 0
M  V30 5594 C 533.773 1.26225 1.69205 0
M  V30 5595 O 533.121 0.408919 2.24811 0
M  V30 5596 C 533.331 3.46619 0.406946 0
M  V30 5597 C 534.679 4.19386 0.663339 0
M  V30 5598 O 535.703 3.5282 0.489536 0
M  V30 5599 O 534.562 5.37288 0.999193 0
M  V30 5600 H 531.656 0.805808 0.186016 0
M  V30 5601 H 534.202 1.65342 -0.382135 0
M  V30 5602 H 532.974 3.87354 -0.554287 0
M  V30 5603 H 532.597 3.80324 1.15929 0
M  V30 5604 N 533.594 0.0601682 1.57485 0
M  V30 5605 C 534.824 -0.620037 1.97076 0
M  V30 5606 C 535.232 -1.64381 0.936784 0
M  V30 5607 O 534.575 -1.83497 -0.0863377 0
M  V30 5608 C 534.637 -1.35617 3.32939 0
M  V30 5609 C 534.301 -0.487208 4.54396 0
M  V30 5610 C 535.298 0.250428 5.19297 0
M  V30 5611 C 532.983 -0.415494 5.00579 0
M  V30 5612 C 534.977 1.04812 6.28723 0
M  V30 5613 C 532.664 0.385879 6.0988 0
M  V30 5614 C 533.662 1.11637 6.73815 0
M  V30 5615 O 533.35 1.90454 7.81014 0
M  V30 5616 H 533.082 -0.173664 0.653312 0
M  V30 5617 H 535.636 0.1256 2.05016 0
M  V30 5618 H 533.866 -2.14763 3.2158 0
M  V30 5619 H 535.555 -1.92749 3.57215 0
M  V30 5620 H 536.321 0.204546 4.84568 0
M  V30 5621 H 532.2 -0.973679 4.506 0
M  V30 5622 H 535.744 1.6188 6.78558 0
M  V30 5623 H 531.641 0.433366 6.44044 0
M  V30 5624 H 532.409 1.82762 7.97835 0
M  V30 5625 N 535.072 -1.5615 -0.213296 0
M  V30 5626 C 536.002 -1.96109 -1.26742 0
M  V30 5627 C 536.983 -0.830448 -1.48451 0
M  V30 5628 O 538.168 -1.09339 -1.60495 0
M  V30 5629 C 535.298 -2.28492 -2.61551 0
M  V30 5630 C 534.252 -3.44124 -2.54485 0
M  V30 5631 C 533.578 -3.62134 -3.93399 0
M  V30 5632 C 534.878 -4.78855 -2.08556 0
M  V30 5633 H 536.572 -2.84412 -0.935434 0
M  V30 5634 H 534.118 -1.36836 -0.44854 0
M  V30 5635 H 536.071 -2.55039 -3.3546 0
M  V30 5636 H 534.795 -1.37052 -2.96453 0
M  V30 5637 H 533.454 -3.17639 -1.83033 0
M  V30 5638 H 533.102 -2.68055 -4.25623 0
M  V30 5639 H 532.802 -4.39913 -3.89551 0
M  V30 5640 H 534.326 -3.91038 -4.68958 0
M  V30 5641 H 535.74 -5.04552 -2.72213 0
M  V30 5642 H 534.137 -5.59975 -2.1575 0
M  V30 5643 H 535.207 -4.73657 -1.03811 0
M  V30 5644 N 536.55 0.480323 -1.50102 0
M  V30 5645 C 537.483 1.59789 -1.62919 0
M  V30 5646 C 538.461 1.55429 -0.477557 0
M  V30 5647 O 539.645 1.75186 -0.695851 0
M  V30 5648 C 536.772 2.98351 -1.60325 0
M  V30 5649 C 535.818 3.20899 -2.80938 0
M  V30 5650 S 536.651 3.01791 -4.4236 0
M  V30 5651 C 537.807 4.42712 -4.42444 0
M  V30 5652 H 538.04 1.48676 -2.57454 0
M  V30 5653 H 535.573 0.666996 -1.3925 0
M  V30 5654 H 537.531 3.7824 -1.59514 0
M  V30 5655 H 536.192 3.06862 -0.670419 0
M  V30 5656 H 535.385 4.22102 -2.75401 0
M  V30 5657 H 534.987 2.48768 -2.79268 0
M  V30 5658 H 537.279 5.3518 -4.15438 0
M  V30 5659 H 538.222 4.53294 -5.43995 0
M  V30 5660 H 538.63 4.24359 -3.72263 0
M  V30 5661 N 538.028 1.39524 0.732853 0
M  V30 5662 C 539.305 1.27373 1.48444 0
M  V30 5663 C 539.685 -0.115725 2.10783 0
M  V30 5664 O 539.033 -1.12713 1.98766 0
M  V30 5665 C 539.243 2.39966 2.53412 0
M  V30 5666 C 540.591 2.79384 3.19733 0
M  V30 5667 O 541.615 2.39431 2.63725 0
M  V30 5668 O 540.474 3.48353 4.21085 0
M  V30 5669 H 537.568 0.499272 0.659285 0
M  V30 5670 H 540.114 1.51403 0.766496 0
M  V30 5671 H 538.886 3.32845 2.05742 0
M  V30 5672 H 538.509 2.17612 3.32762 0
M  V30 5673 N 539.506 -0.963266 1.24736 0
M  V30 5674 C 540.753 -1.7068 1.0897 0
M  V30 5675 C 541.081 -1.90934 -0.370751 0
M  V30 5676 O 540.336 -1.47155 -1.29011 0
M  V30 5677 C 540.635 -3.09944 1.7796 0
M  V30 5678 C 540.301 -3.09518 3.27887 0
M  V30 5679 C 538.963 -3.09109 3.68789 0
M  V30 5680 C 541.315 -3.03509 4.23712 0
M  V30 5681 C 538.643 -3.00429 5.03944 0
M  V30 5682 C 540.995 -2.96371 5.5888 0
M  V30 5683 C 539.659 -2.94293 5.99123 0
M  V30 5684 H 538.929 -0.624564 0.398749 0
M  V30 5685 H 541.576 -1.12603 1.54896 0
M  V30 5686 H 539.881 -3.71513 1.2444 0
M  V30 5687 H 541.578 -3.66278 1.63222 0
M  V30 5688 H 538.168 -3.10603 2.95337 0
M  V30 5689 H 542.352 -3.0295 3.93109 0
M  V30 5690 H 537.608 -2.97183 5.34314 0
M  V30 5691 H 541.782 -2.90681 6.32833 0
M  V30 5692 H 539.409 -2.87322 7.03811 0
M  V30 5693 N 540.985 -1.06182 -1.16461 0
M  V30 5694 C 541.933 -0.665716 -2.2287 0
M  V30 5695 C 542.927 0.317822 -1.66392 0
M  V30 5696 O 544.133 0.182807 -1.79069 0
M  V30 5697 H 540.508 -0.197148 -0.725697 0
M  V30 5698 H 542.479 -1.57307 -2.53569 0
M  V30 5699 C 541.228 -0.0669803 -3.47635 0
M  V30 5700 H 540.551 -0.814899 -3.91407 0
M  V30 5701 H 541.991 0.172669 -4.23648 0
M  V30 5702 C 540.45 1.18913 -3.15216 0
M  V30 5703 O 540.98 2.27723 -3.30916 0
M  V30 5704 N 539.186 1.09066 -2.69357 0
M  V30 5705 H 538.733 0.20518 -2.56782 0
M  V30 5706 H 538.691 1.93195 -2.48039 0
M  V30 5707 N 542.463 1.3308 -0.844243 0
M  V30 5708 C 543.874 1.7992 -0.498566 0
M  V30 5709 C 544.225 1.69808 0.982834 0
M  V30 5710 O 543.35 1.25051 1.7661 0
M  V30 5711 C 543.945 3.26677 -0.898204 0
M  V30 5712 C 542.504 3.71513 -0.604583 0
M  V30 5713 C 541.651 2.54393 -1.10362 0
M  V30 5714 H 544.602 1.20526 -1.03244 0
M  V30 5715 H 544.623 3.79918 -0.21039 0
M  V30 5716 H 544.135 3.34004 -1.97643 0
M  V30 5717 H 542.236 3.69708 0.46335 0
M  V30 5718 H 542.349 4.64755 -1.16358 0
M  V30 5719 H 540.713 2.49246 -0.524273 0
M  V30 5720 H 541.496 2.6448 -2.18873 0
M  V30 5721 N 543.941 0.601185 1.45683 0
M  V30 5722 C 545.218 0.0261659 1.95582 0
M  V30 5723 C 545.598 -1.4399 1.5437 0
M  V30 5724 O 544.946 -2.13919 0.80318 0
M  V30 5725 C 545.156 0.217557 3.48321 0
M  V30 5726 C 546.504 0.0950076 4.24494 0
M  V30 5727 O 547.528 0.147345 3.55895 0
M  V30 5728 O 546.387 -0.025261 5.46494 0
M  V30 5729 H 543.481 -0.0393688 0.826062 0
M  V30 5730 H 546.027 0.670798 1.55879 0
M  V30 5731 H 544.799 1.23601 3.71266 0
M  V30 5732 H 544.422 -0.46264 3.94899 0
M  V30 5733 N 545.419 -1.53889 0.339982 0
M  V30 5734 C 546.366 -2.24902 -0.518452 0
M  V30 5735 C 547.336 -1.24593 -1.09844 0
M  V30 5736 O 548.521 -1.53317 -1.13572 0
M  V30 5737 C 545.661 -3.02262 -1.66529 0
M  V30 5738 C 544.774 -4.17418 -1.11295 0
M  V30 5739 C 543.909 -4.82273 -2.2268 0
M  V30 5740 C 542.948 -5.89503 -1.6478 0
M  V30 5741 N 542.085 -6.48153 -2.69893 0
M  V30 5742 H 546.925 -2.97853 0.0936579 0
M  V30 5743 H 544.462 -1.46986 0.0579924 0
M  V30 5744 H 546.42 -3.45371 -2.3404 0
M  V30 5745 H 545.05 -2.31614 -2.24844 0
M  V30 5746 H 544.102 -3.78976 -0.328886 0
M  V30 5747 H 545.414 -4.94554 -0.649414 0
M  V30 5748 H 544.568 -5.28435 -2.98063 0
M  V30 5749 H 543.307 -4.04552 -2.72376 0
M  V30 5750 H 542.312 -5.42728 -0.879004 0
M  V30 5751 H 543.537 -6.6913 -1.1594 0
M  V30 5752 H 541.483 -5.73298 -3.1885 0
M  V30 5753 H 541.4 -7.20752 -2.28151 0
M  V30 5754 H 542.668 -6.98968 -3.45056 0
M  V30 5755 N 546.897 -0.0685191 -1.57451 0
M  V30 5756 C 547.829 0.929372 -2.09512 0
M  V30 5757 C 548.842 1.26354 -1.02657 0
M  V30 5758 O 550.031 1.2213 -1.30179 0
M  V30 5759 C 547.131 2.24612 -2.53777 0
M  V30 5760 C 546.304 2.09128 -3.84167 0
M  V30 5761 C 545.363 3.24079 -4.14559 0
M  V30 5762 O 544.389 2.99215 -4.8421 0
M  V30 5763 N 545.591 4.49077 -3.67845 0
M  V30 5764 H 548.356 0.484901 -2.95751 0
M  V30 5765 H 545.917 0.11729 -1.61475 0
M  V30 5766 H 547.909 3.00412 -2.71172 0
M  V30 5767 H 546.479 2.60569 -1.72692 0
M  V30 5768 H 545.699 1.17815 -3.76182 0
M  V30 5769 H 546.987 1.9603 -4.69521 0
M  V30 5770 H 546.385 4.72165 -3.11571 0
M  V30 5771 H 544.942 5.21915 -3.90446 0
M  V30 5772 N 548.375 1.56261 0.205012 0
M  V30 5773 C 549.322 1.93754 1.25411 0
M  V30 5774 C 550.292 0.796826 1.45739 0
M  V30 5775 O 551.477 1.05414 1.59036 0
M  V30 5776 C 548.617 2.27383 2.59598 0
M  V30 5777 C 547.73 3.5447 2.46931 0
M  V30 5778 C 546.865 3.77468 3.73753 0
M  V30 5779 C 545.904 4.98014 3.55877 0
M  V30 5780 N 545.041 5.17316 4.74688 0
M  V30 5781 H 549.881 2.83203 0.92737 0
M  V30 5782 H 547.418 1.40158 0.446574 0
M  V30 5783 H 549.376 2.44895 3.37761 0
M  V30 5784 H 548.006 1.41088 2.90335 0
M  V30 5785 H 547.058 3.45061 1.60116 0
M  V30 5786 H 548.37 4.42789 2.29651 0
M  V30 5787 H 547.524 3.95165 4.60358 0
M  V30 5788 H 546.263 2.87461 3.93976 0
M  V30 5789 H 545.268 4.80249 2.67657 0
M  V30 5790 H 546.493 5.8952 3.37109 0
M  V30 5791 H 544.439 4.30255 4.95194 0
M  V30 5792 H 544.356 5.99796 4.60197 0
M  V30 5793 H 545.624 5.39463 5.62672 0
M  V30 5794 N 549.853 -0.472356 1.50355 0
M  V30 5795 C 550.816 -1.5529 1.68576 0
M  V30 5796 C 551.816 -1.50863 0.556511 0
M  V30 5797 O 553.006 -1.53505 0.823516 0
M  V30 5798 C 550.138 -2.94921 1.70981 0
M  V30 5799 H 551.331 -1.40451 2.64978 0
M  V30 5800 H 548.884 -0.698645 1.39816 0
M  V30 5801 H 549.619 -3.15204 0.762675 0
M  V30 5802 H 549.404 -2.99541 2.53017 0
M  V30 5803 H 550.894 -3.73372 1.87037 0
M  V30 5804 N 551.331 -1.39911 -0.725443 0
M  V30 5805 C 552.577 -1.38862 -1.48624 0
M  V30 5806 C 552.932 0.0125913 -1.92396 0
M  V30 5807 O 552.225 0.981046 -1.64578 0
M  V30 5808 C 552.419 -2.30368 -2.7325 0
M  V30 5809 C 552.248 -3.79247 -2.41665 0
M  V30 5810 C 551.018 -4.48119 -2.3349 0
M  V30 5811 C 553.216 -4.70988 -2.06579 0
M  V30 5812 N 551.198 -5.82282 -1.94476 0
M  V30 5813 C 552.569 -5.93873 -1.78087 0
M  V30 5814 C 554.624 -4.58917 -1.9313 0
M  V30 5815 C 553.327 -7.06036 -1.37499 0
M  V30 5816 C 555.353 -5.71012 -1.53946 0
M  V30 5817 C 554.715 -6.92976 -1.26345 0
M  V30 5818 H 550.814 -0.563394 -0.54232 0
M  V30 5819 H 553.398 -1.75542 -0.842213 0
M  V30 5820 H 551.569 -1.95831 -3.35417 0
M  V30 5821 H 553.301 -2.20245 -3.39521 0
M  V30 5822 H 550.056 -4.01677 -2.50904 0
M  V30 5823 H 550.48 -6.53307 -1.77535 0
M  V30 5824 H 555.122 -3.65149 -2.13134 0
M  V30 5825 H 552.84 -7.99697 -1.16237 0
M  V30 5826 H 556.426 -5.63664 -1.44132 0
M  V30 5827 H 555.306 -7.78243 -0.964787 0
M  V30 5828 N 552.809 0.956637 -1.25245 0
M  V30 5829 C 554.056 1.701 -1.09874 0
M  V30 5830 C 554.384 1.91128 0.36062 0
M  V30 5831 O 553.639 1.47837 1.28229 0
M  V30 5832 C 553.938 3.08996 -1.79601 0
M  V30 5833 C 553.604 3.07774 -3.29523 0
M  V30 5834 C 552.266 3.07149 -3.70423 0
M  V30 5835 C 554.618 3.01257 -4.25316 0
M  V30 5836 C 551.946 2.97752 -5.0553 0
M  V30 5837 C 554.298 2.93403 -5.60444 0
M  V30 5838 C 552.962 2.91111 -6.00675 0
M  V30 5839 H 552.232 0.62244 -0.402056 0
M  V30 5840 H 554.879 1.1178 -1.55491 0
M  V30 5841 H 553.184 3.70848 -1.26408 0
M  V30 5842 H 554.881 3.65407 -1.65162 0
M  V30 5843 H 551.471 3.09032 -2.9698 0
M  V30 5844 H 555.655 3.00861 -3.9471 0
M  V30 5845 H 550.911 2.94346 -5.35883 0
M  V30 5846 H 555.085 2.87321 -6.34366 0
M  V30 5847 H 552.712 2.83586 -7.05325 0
M  V30 5848 N 554.287 1.06798 1.15896 0
M  V30 5849 C 555.234 0.683314 2.20453 0
M  V30 5850 C 556.204 -0.32255 1.62938 0
M  V30 5851 O 557.389 -0.210276 1.89638 0
M  V30 5852 C 554.529 0.0813266 3.45004 0
M  V30 5853 C 553.642 1.13799 4.16742 0
M  V30 5854 C 552.777 0.501598 5.28826 0
M  V30 5855 C 551.816 1.54144 5.92373 0
M  V30 5856 N 550.953 0.928038 6.9594 0
M  V30 5857 H 555.793 1.57932 2.52708 0
M  V30 5858 H 553.33 0.789544 1.24115 0
M  V30 5859 H 555.288 -0.285274 4.16224 0
M  V30 5860 H 553.918 -0.77806 3.13283 0
M  V30 5861 H 552.97 1.62223 3.44075 0
M  V30 5862 H 554.282 1.92664 4.60089 0
M  V30 5863 H 553.436 0.0823162 6.06644 0
M  V30 5864 H 552.175 -0.318883 4.86656 0
M  V30 5865 H 551.18 1.97056 5.13273 0
M  V30 5866 H 552.405 2.3641 6.36621 0
M  V30 5867 H 550.351 0.12836 6.55874 0
M  V30 5868 H 550.268 1.65401 7.37685 0
M  V30 5869 H 551.536 0.534071 7.77668 0
M  V30 5870 N 555.766 -1.3263 0.851289 0
M  V30 5871 C 556.696 -2.31449 0.308771 0
M  V30 5872 C 557.677 -1.59531 -0.590255 0
M  V30 5873 O 558.862 -1.87351 -0.511205 0
M  V30 5874 C 555.992 -3.43586 -0.506548 0
M  V30 5875 C 554.946 -4.26963 0.297753 0
M  V30 5876 C 554.272 -5.30831 -0.642094 0
M  V30 5877 C 555.572 -4.99643 1.52166 0
M  V30 5878 H 557.266 -2.77074 1.13447 0
M  V30 5879 H 554.812 -1.33207 0.546971 0
M  V30 5880 H 556.765 -4.11754 -0.896474 0
M  V30 5881 H 555.489 -2.96681 -1.36558 0
M  V30 5882 H 554.148 -3.60437 0.669391 0
M  V30 5883 H 553.796 -4.8018 -1.49788 0
M  V30 5884 H 553.496 -5.87501 -0.107968 0
M  V30 5885 H 555.02 -6.01862 -1.02927 0
M  V30 5886 H 556.434 -5.6051 1.20421 0
M  V30 5887 H 554.831 -5.66022 1.99347 0
M  V30 5888 H 555.901 -4.27701 2.28474 0
M  V30 5889 N 557.244 -0.608902 -1.45362 0
M  V30 5890 C 558.49 -0.104762 -2.02529 0
M  V30 5891 C 558.823 1.26191 -1.47613 0
M  V30 5892 O 558.098 1.8327 -0.65134 0
M  V30 5893 C 558.381 -0.0672661 -3.60037 0
M  V30 5894 C 558.234 -1.4647 -4.25284 0
M  V30 5895 C 559.553 0.619877 -4.35713 0
M  V30 5896 H 556.672 -0.0395438 -0.735938 0
M  V30 5897 H 559.314 -0.781126 -1.73201 0
M  V30 5898 H 557.464 0.50871 -3.85155 0
M  V30 5899 H 559.136 -2.08785 -4.11347 0
M  V30 5900 H 557.379 -2.02502 -3.83634 0
M  V30 5901 H 558.05 -1.39069 -5.34195 0
M  V30 5902 H 560.526 0.130297 -4.15896 0
M  V30 5903 H 559.402 0.615224 -5.45441 0
M  V30 5904 H 559.663 1.68621 -4.0868 0
M  V30 5905 N 558.722 1.53707 -0.348139 0
M  V30 5906 C 559.952 2.05108 0.247864 0
M  V30 5907 C 560.36 1.22252 1.44399 0
M  V30 5908 O 559.703 0.251853 1.81965 0
M  V30 5909 C 559.765 3.52171 0.722187 0
M  V30 5910 C 559.429 4.5562 -0.354902 0
M  V30 5911 C 560.426 5.05883 -1.19911 0
M  V30 5912 C 558.111 4.99703 -0.510145 0
M  V30 5913 C 560.105 5.98814 -2.18406 0
M  V30 5914 C 557.792 5.92443 -1.49848 0
M  V30 5915 C 558.79 6.41887 -2.33389 0
M  V30 5916 O 558.478 7.32802 -3.3054 0
M  V30 5917 H 558.21 0.674086 0.0508296 0
M  V30 5918 H 560.764 1.99229 -0.49968 0
M  V30 5919 H 558.994 3.55529 1.52105 0
M  V30 5920 H 560.683 3.8652 1.23925 0
M  V30 5921 H 561.449 4.72586 -1.09028 0
M  V30 5922 H 557.328 4.60816 0.130274 0
M  V30 5923 H 560.872 6.3733 -2.83649 0
M  V30 5924 H 556.769 6.25155 -1.60786 0
M  V30 5925 H 557.537 7.50749 -3.26064 0
M  V30 5926 N 560.2 0.0768682 1.57412 0
M  V30 5927 C 561.477 -0.632359 1.85096 0
M  V30 5928 C 561.857 -1.87479 0.9703 0
M  V30 5929 O 561.205 -2.28469 0.0379062 0
M  V30 5930 C 561.415 -0.965174 3.35388 0
M  V30 5931 C 562.763 -1.33648 4.03018 0
M  V30 5932 O 563.787 -1.05675 3.40164 0
M  V30 5933 O 562.646 -1.85959 5.13889 0
M  V30 5934 H 559.74 -0.314574 0.764835 0
M  V30 5935 H 562.286 0.108184 1.69355 0
M  V30 5936 H 561.058 -0.0829745 3.91212 0
M  V30 5937 H 560.681 -1.76231 3.5641 0
M  V30 5938 N 561.678 -1.56367 -0.196722 0
M  V30 5939 C 563.089 -1.70462 -0.761545 0
M  V30 5940 C 563.44 -0.683161 -1.83922 0
M  V30 5941 O 562.565 0.160753 -2.15802 0
M  V30 5942 C 563.16 -3.09057 -1.38814 0
M  V30 5943 C 561.719 -3.24922 -1.90007 0
M  V30 5944 C 560.866 -2.66412 -0.769399 0
M  V30 5945 H 563.817 -1.58675 0.0283263 0
M  V30 5946 H 563.838 -3.06296 -2.2575 0
M  V30 5947 H 563.35 -3.83378 -0.603559 0
M  V30 5948 H 561.451 -2.55514 -2.71189 0
M  V30 5949 H 561.564 -4.3241 -2.06297 0
M  V30 5950 H 559.928 -2.25546 -1.18326 0
M  V30 5951 H 560.711 -3.433 0.00291773 0
M  V30 5952 N 563.156 0.464375 -1.50603 0
M  V30 5953 C 564.066 1.58723 -1.72754 0
M  V30 5954 C 565.082 1.62925 -0.610844 0
M  V30 5955 O 566.258 1.8067 -0.889963 0
M  V30 5956 C 563.323 2.94897 -1.82309 0
M  V30 5957 C 562.384 3.0103 -3.06071 0
M  V30 5958 C 561.617 4.30708 -3.1516 0
M  V30 5959 O 561.84 5.2159 -2.30868 0
M  V30 5960 O 560.774 4.42571 -4.0794 0
M  V30 5961 H 564.6 1.42954 -2.67951 0
M  V30 5962 H 562.185 0.644579 -1.3478 0
M  V30 5963 H 564.067 3.75764 -1.90735 0
M  V30 5964 H 562.742 3.10851 -0.902967 0
M  V30 5965 H 561.649 2.19217 -3.03142 0
M  V30 5966 H 562.982 2.90014 -3.97684 0
M  V30 5967 N 564.634 1.40294 0.718013 0
M  V30 5968 C 565.862 1.4175 1.50714 0
M  V30 5969 C 566.277 0.0165366 1.88793 0
M  V30 5970 O 565.634 -0.958942 1.55276 0
M  V30 5971 C 565.685 2.30598 2.784 0
M  V30 5972 O 565.406 3.6524 2.41932 0
M  V30 5973 C 566.907 2.4062 3.72313 0
M  V30 5974 H 564.127 0.483565 0.465194 0
M  V30 5975 H 566.671 1.84316 0.885889 0
M  V30 5976 H 564.826 1.91401 3.36815 0
M  V30 5977 H 565.24 4.12402 3.24076 0
M  V30 5978 H 566.714 3.07001 4.58753 0
M  V30 5979 H 567.191 1.4305 4.15251 0
M  V30 5980 H 567.797 2.80359 3.19811 0
M  V30 5981 N 566.112 -0.949982 1.2575 0
M  V30 5982 C 567.34 -1.72972 1.13527 0
M  V30 5983 C 567.755 -1.8623 -0.310453 0
M  V30 5984 O 567.112 -1.36336 -1.2132 0
M  V30 5985 C 567.163 -3.14108 1.78936 0
M  V30 5986 O 566.884 -3.01493 3.17858 0
M  V30 5987 C 568.385 -4.08338 1.72554 0
M  V30 5988 H 565.605 -0.541864 0.395758 0
M  V30 5989 H 568.149 -1.19151 1.66202 0
M  V30 5990 H 566.304 -3.64858 1.30221 0
M  V30 5991 H 566.718 -3.90559 3.50092 0
M  V30 5992 H 568.192 -5.04963 2.22973 0
M  V30 5993 H 568.669 -4.33742 0.690251 0
M  V30 5994 H 569.275 -3.63506 2.2078 0
M  V30 5995 N 567.59 -1.07411 -1.15328 0
M  V30 5996 C 568.522 -0.652924 -2.19703 0
M  V30 5997 C 569.535 0.294869 -1.60107 0
M  V30 5998 O 570.724 0.0840932 -1.78302 0
M  V30 5999 C 567.824 0.061434 -3.38844 0
M  V30 6000 C 566.997 -0.902696 -4.27984 0
M  V30 6001 C 566.056 -0.225521 -5.25717 0
M  V30 6002 O 565.082 -0.86676 -5.62562 0
M  V30 6003 N 566.284 1.02858 -5.71315 0
M  V30 6004 H 569.049 -1.55081 -2.56457 0
M  V30 6005 H 566.61 -0.958883 -1.30449 0
M  V30 6006 H 568.602 0.525145 -4.01278 0
M  V30 6007 H 567.172 0.861269 -3.00501 0
M  V30 6008 H 566.392 -1.54551 -3.6264 0
M  V30 6009 H 567.68 -1.55636 -4.84412 0
M  V30 6010 H 567.078 1.56948 -5.43492 0
M  V30 6011 H 565.635 1.43596 -6.35786 0
M  V30 6012 N 569.068 1.32177 -0.85831 0
M  V30 6013 C 570.317 1.96392 -0.459689 0
M  V30 6014 C 570.63 1.68659 0.990632 0
M  V30 6015 O 571.836 2.26641 1.49485 0
M  V30 6016 C 570.292 3.51542 -0.7711 0
M  V30 6017 C 569.9 3.8813 -2.2374 0
M  V30 6018 C 571.644 4.2221 -0.44038 0
M  V30 6019 C 569.551 5.36341 -2.49183 0
M  V30 6020 H 568.481 0.735007 -0.168169 0
M  V30 6021 H 571.132 1.50518 -1.0496 0
M  V30 6022 H 569.514 3.95846 -0.11058 0
M  V30 6023 H 570.688 3.54824 -2.94001 0
M  V30 6024 H 569.003 3.30497 -2.533 0
M  V30 6025 H 571.6 5.31234 -0.607855 0
M  V30 6026 H 571.943 4.11683 0.618291 0
M  V30 6027 H 572.476 3.83502 -1.05695 0
M  V30 6028 H 569.215 5.51892 -3.53689 0
M  V30 6029 H 568.735 5.7104 -1.83504 0
M  V30 6030 H 570.414 6.03466 -2.33318 0
M  V30 6031 N 570.547 0.616602 1.45037 0
M  V30 6032 C 571.477 -0.0840787 2.33349 0
M  V30 6033 C 572.458 -0.849641 1.4736 0
M  V30 6034 O 573.643 -0.818407 1.76113 0
M  V30 6035 C 570.773 -1.07604 3.3021 0
M  V30 6036 C 569.727 -0.423096 4.25904 0
M  V30 6037 C 569.053 -1.52394 5.12523 0
M  V30 6038 C 570.353 0.661457 5.18095 0
M  V30 6039 H 572.047 0.653333 2.92185 0
M  V30 6040 H 569.593 0.315634 1.40498 0
M  V30 6041 H 571.546 -1.57485 3.90866 0
M  V30 6042 H 570.27 -1.84416 2.69552 0
M  V30 6043 H 568.929 0.05493 3.66559 0
M  V30 6044 H 568.577 -2.28257 4.48227 0
M  V30 6045 H 568.277 -1.09251 5.77354 0
M  V30 6046 H 569.801 -2.02485 5.76049 0
M  V30 6047 H 571.215 0.246353 5.7277 0
M  V30 6048 H 569.612 1.01517 5.91451 0
M  V30 6049 H 570.682 1.53446 4.59981 0
M  V30 6050 N 572.025 -1.5352 0.356285 0
M  V30 6051 C 573.273 -2.00719 -0.235837 0
M  V30 6052 C 573.594 -1.24551 -1.5004 0
M  V30 6053 O 572.864 -0.356185 -1.92635 0
M  V30 6054 H 571.444 -0.741542 -0.0901366 0
M  V30 6055 H 574.106 -1.88887 0.480378 0
M  V30 6056 H 573.202 -3.08551 -0.469357 0
M  V30 6057 N 573.503 -0.0852151 -1.57369 0
M  V30 6058 C 574.466 0.8627 -2.12344 0
M  V30 6059 C 575.466 1.21746 -1.05046 0
M  V30 6060 O 576.656 1.14852 -1.30976 0
M  V30 6061 C 573.788 2.1618 -2.63589 0
M  V30 6062 H 574.981 0.385511 -2.97412 0
M  V30 6063 H 572.534 0.163663 -1.55441 0
M  V30 6064 H 573.269 2.68406 -1.82013 0
M  V30 6065 H 573.054 1.91723 -3.4203 0
M  V30 6066 H 574.544 2.84011 -3.06149 0
M  V30 6067 N 574.981 1.5647 0.188427 0
M  V30 6068 C 575.913 1.91611 1.25769 0
M  V30 6069 C 576.926 0.807436 1.41366 0
M  V30 6070 O 578.115 1.08586 1.41673 0
M  V30 6071 C 575.215 2.13874 2.6289 0
M  V30 6072 C 574.388 3.45047 2.68815 0
M  V30 6073 C 573.447 3.56342 3.87178 0
M  V30 6074 O 572.473 4.29109 3.73971 0
M  V30 6075 N 573.675 2.89924 5.02916 0
M  V30 6076 H 576.44 2.8393 0.959373 0
M  V30 6077 H 574.001 1.57418 0.378306 0
M  V30 6078 H 575.993 2.18713 3.4051 0
M  V30 6079 H 574.563 1.28022 2.85183 0
M  V30 6080 H 573.783 3.52017 1.77419 0
M  V30 6081 H 575.071 4.31395 2.6977 0
M  V30 6082 H 574.469 2.30644 5.16546 0
M  V30 6083 H 573.026 3.0038 5.78459 0
M  V30 6084 N 576.459 -0.456382 1.50847 0
M  V30 6085 C 577.389 -1.56025 1.73719 0
M  V30 6086 C 578.37 -1.5967 0.586473 0
M  V30 6087 O 579.555 -1.75702 0.827185 0
M  V30 6088 C 576.685 -2.94251 1.84483 0
M  V30 6089 C 575.639 -3.05471 2.99786 0
M  V30 6090 C 574.965 -4.45489 2.95709 0
M  V30 6091 C 576.265 -2.81318 4.40065 0
M  V30 6092 H 577.959 -1.37138 2.66146 0
M  V30 6093 H 575.505 -0.658299 1.28072 0
M  V30 6094 H 577.458 -3.71417 1.99067 0
M  V30 6095 H 576.182 -3.14328 0.886891 0
M  V30 6096 H 574.841 -2.30741 2.84876 0
M  V30 6097 H 574.489 -4.62505 1.97732 0
M  V30 6098 H 574.189 -4.53929 3.73125 0
M  V30 6099 H 575.713 -5.24655 3.12362 0
M  V30 6100 H 577.127 -3.48226 4.55425 0
M  V30 6101 H 575.524 -3.01188 5.19043 0
M  V30 6102 H 576.594 -1.7706 4.51418 0
M  V30 6103 N 577.937 -1.40673 -0.710563 0
M  V30 6104 C 578.87 -1.35742 -1.83438 0
M  V30 6105 C 579.848 -0.226997 -1.61008 0
M  V30 6106 O 581.032 -0.411477 -1.83954 0
M  V30 6107 C 578.159 -1.11374 -3.19865 0
M  V30 6108 C 577.205 -2.26935 -3.61113 0
M  V30 6109 S 578.038 -3.89352 -3.67648 0
M  V30 6110 C 579.194 -3.67258 -5.06826 0
M  V30 6111 H 579.427 -2.30848 -1.87341 0
M  V30 6112 H 576.96 -1.27018 -0.877831 0
M  V30 6113 H 578.918 -0.980004 -3.9863 0
M  V30 6114 H 577.579 -0.179135 -3.13589 0
M  V30 6115 H 576.772 -2.0554 -4.60184 0
M  V30 6116 H 576.374 -2.36638 -2.89618 0
M  V30 6117 H 578.666 -3.26036 -5.93891 0
M  V30 6118 H 579.609 -4.65878 -5.33257 0
M  V30 6119 H 580.017 -3.0084 -4.77656 0
M  V30 6120 N 579.415 0.9433 -1.26252 0
M  V30 6121 C 580.64 1.72898 -1.14547 0
M  V30 6122 C 581.065 1.85761 0.295743 0
M  V30 6123 O 580.423 1.3463 1.21427 0
M  V30 6124 C 580.471 3.11471 -1.8171 0
M  V30 6125 O 579.575 3.97336 -1.10445 0
M  V30 6126 H 578.916 0.530555 -0.399259 0
M  V30 6127 H 581.446 1.18159 -1.67032 0
M  V30 6128 H 581.456 3.61872 -1.88449 0
M  V30 6129 H 580.131 3.01425 -2.86558 0
M  V30 6130 H 578.708 3.55788 -1.11666 0
M  V30 6131 N 580.893 1.08022 1.14757 0
M  V30 6132 C 581.84 0.706657 2.19716 0
M  V30 6133 C 582.81 -0.30525 1.63271 0
M  V30 6134 O 583.995 -0.19015 1.8985 0
M  V30 6135 C 581.135 0.117914 3.44898 0
M  V30 6136 C 580.248 1.18212 4.15512 0
M  V30 6137 C 579.383 0.557659 5.28265 0
M  V30 6138 C 578.422 1.60418 5.90705 0
M  V30 6139 N 577.559 1.0018 6.94916 0
M  V30 6140 H 582.399 1.60603 2.51019 0
M  V30 6141 H 579.936 0.802664 1.23271 0
M  V30 6142 H 581.894 -0.241112 4.16503 0
M  V30 6143 H 580.524 -0.744788 3.1409 0
M  V30 6144 H 579.576 1.65863 3.42335 0
M  V30 6145 H 580.888 1.97533 4.5802 0
M  V30 6146 H 580.042 0.146654 6.06523 0
M  V30 6147 H 578.781 -0.267249 4.86967 0
M  V30 6148 H 577.786 2.02489 5.11154 0
M  V30 6149 H 579.011 2.43149 6.34078 0
M  V30 6150 H 576.957 0.197917 6.55701 0
M  V30 6151 H 576.874 1.73216 7.35889 0
M  V30 6152 H 578.142 0.616523 7.77058 0
M  V30 6153 N 582.371 -1.3172 0.865308 0
M  V30 6154 C 583.334 -2.26918 0.322627 0
M  V30 6155 C 584.334 -1.52031 -0.523751 0
M  V30 6156 O 585.524 -1.70973 -0.333727 0
M  V30 6157 C 582.656 -3.36558 -0.542338 0
M  V30 6158 H 583.849 -2.76432 1.16298 0
M  V30 6159 H 581.402 -1.42573 0.640512 0
M  V30 6160 H 582.137 -2.92329 -1.40407 0
M  V30 6161 H 581.922 -3.92048 0.0636395 0
M  V30 6162 H 583.412 -4.07465 -0.91446 0
M  V30 6163 N 583.85 -0.624285 -1.44708 0
M  V30 6164 C 585.127 -0.0572781 -1.95516 0
M  V30 6165 C 585.507 1.41516 -1.56641 0
M  V30 6166 O 584.855 2.12614 -0.837111 0
M  V30 6167 C 585.065 -0.272944 -3.47931 0
M  V30 6168 C 586.413 -0.162529 -4.24289 0
M  V30 6169 O 587.437 -0.203946 -3.55616 0
M  V30 6170 O 586.296 -0.0616847 -5.46465 0
M  V30 6171 H 583.389 0.0262219 -0.826584 0
M  V30 6172 H 585.936 -0.695512 -1.54793 0
M  V30 6173 H 584.707 -1.29492 -3.69253 0
M  V30 6174 H 584.331 0.399756 -3.95585 0
M  V30 6175 N 585.328 1.53329 -0.364422 0
M  V30 6176 C 586.258 2.28627 0.474543 0
M  V30 6177 C 587.239 1.31009 1.08492 0
M  V30 6178 O 588.424 1.59878 1.10239 0
M  V30 6179 C 585.554 3.07465 1.61501 0
M  V30 6180 C 584.508 4.1276 1.13194 0
M  V30 6181 C 583.834 4.79674 2.36255 0
M  V30 6182 C 585.134 5.21847 0.217507 0
M  V30 6183 H 586.828 2.99005 -0.153656 0
M  V30 6184 H 584.374 1.43803 -0.0753406 0
M  V30 6185 H 586.327 3.58889 2.20855 0
M  V30 6186 H 585.051 2.34775 2.27042 0
M  V30 6187 H 583.71 3.62281 0.56109 0
M  V30 6188 H 583.358 4.03557 3.00251 0
M  V30 6189 H 583.058 5.50827 2.04606 0
M  V30 6190 H 584.582 5.33892 2.96297 0
M  V30 6191 H 585.996 5.6878 0.718493 0
M  V30 6192 H 584.393 6.00099 -0.00806408 0
M  V30 6193 H 585.463 4.7921 -0.740653 0
M  V30 6194 N 586.806 0.0935595 1.57322 0
M  V30 6195 C 588.034 -0.578934 1.98635 0
M  V30 6196 C 588.449 -1.61819 0.972626 0
M  V30 6197 O 587.806 -1.82461 -0.0379638 0
M  V30 6198 C 587.857 -1.22802 3.40003 0
M  V30 6199 O 587.578 -0.230334 4.37494 0
M  V30 6200 C 589.079 -1.98627 3.96311 0
M  V30 6201 H 586.299 -0.155324 0.652775 0
M  V30 6202 H 588.843 0.172393 2.03772 0
M  V30 6203 H 586.998 -1.93029 3.35885 0
M  V30 6204 H 587.412 -0.698649 5.19826 0
M  V30 6205 H 588.886 -2.39405 4.97382 0
M  V30 6206 H 589.363 -2.85151 3.34044 0
M  V30 6207 H 589.969 -1.3322 4.03897 0
M  V30 6208 N 588.284 -1.56567 -0.180126 0
M  V30 6209 C 589.247 -1.94852 -1.20686 0
M  V30 6210 C 590.247 -0.831212 -1.3765 0
M  V30 6211 O 591.437 -1.09841 -1.35206 0
M  V30 6212 C 588.569 -2.23565 -2.57355 0
M  V30 6213 H 589.762 -2.86722 -0.879225 0
M  V30 6214 H 587.315 -1.50489 -0.422237 0
M  V30 6215 H 588.05 -1.34381 -2.95148 0
M  V30 6216 H 587.835 -3.04999 -2.46411 0
M  V30 6217 H 589.325 -2.54137 -3.31367 0
M  V30 6218 N 589.762 0.448376 -1.51087 0
M  V30 6219 C 590.71 1.56407 -1.72161 0
M  V30 6220 C 591.704 1.58878 -0.587721 0
M  V30 6221 O 592.91 1.62755 -0.768822 0
M  V30 6222 H 589.285 0.519423 -0.543786 0
M  V30 6223 H 591.256 1.35803 -2.65707 0
M  V30 6224 C 590.005 2.94163 -1.85373 0
M  V30 6225 H 589.328 2.9299 -2.72024 0
M  V30 6226 H 590.768 3.71625 -2.04135 0
M  V30 6227 C 589.227 3.31317 -0.610803 0
M  V30 6228 O 589.757 4.00985 0.239636 0
M  V30 6229 N 587.963 2.86966 -0.458127 0
M  V30 6230 H 587.51 2.30443 -1.15124 0
M  V30 6231 H 587.468 3.12188 0.372289 0
M  V30 6232 N 591.24 1.41047 0.703093 0
M  V30 6233 C 592.489 1.39301 1.4587 0
M  V30 6234 C 592.802 0.00267077 1.956 0
M  V30 6235 O 594.008 -0.137414 2.71152 0
M  V30 6236 C 592.464 2.44891 2.63735 0
M  V30 6237 C 592.072 3.89796 2.20824 0
M  V30 6238 C 593.816 2.5227 3.41409 0
M  V30 6239 C 591.723 4.86955 3.35602 0
M  V30 6240 H 590.653 0.518005 0.547893 0
M  V30 6241 H 593.304 1.66839 0.764009 0
M  V30 6242 H 591.686 2.10472 3.35436 0
M  V30 6243 H 592.86 4.33424 1.56461 0
M  V30 6244 H 591.175 3.86008 1.56163 0
M  V30 6245 H 593.772 3.22044 4.26839 0
M  V30 6246 H 594.115 1.55714 3.86081 0
M  V30 6247 H 594.648 2.85742 2.7676 0
M  V30 6248 H 591.387 5.84888 2.9595 0
M  V30 6249 H 590.907 4.47982 3.98839 0
M  V30 6250 H 592.586 5.07361 4.01489 0
M  V30 6251 N 592.718 -0.936591 1.26751 0
M  V30 6252 C 593.666 -2.0573 1.08527 0
M  V30 6253 C 594.66 -1.69397 0.0108784 0
M  V30 6254 O 595.866 -1.79215 0.167915 0
M  V30 6255 H 592.241 -0.673691 0.334133 0
M  V30 6256 H 594.212 -2.1825 2.03493 0
M  V30 6257 C 592.961 -3.39738 0.739845 0
M  V30 6258 H 592.284 -3.68174 1.55845 0
M  V30 6259 H 593.724 -4.18955 0.652149 0
M  V30 6260 C 592.183 -3.32292 -0.555288 0
M  V30 6261 O 592.713 -3.68794 -1.59229 0
M  V30 6262 N 590.919 -2.85394 -0.54762 0
M  V30 6263 H 590.466 -2.55886 0.296667 0
M  V30 6264 H 590.424 -2.80795 -1.41427 0
M  V30 6265 N 594.196 -1.08629 -1.14182 0
M  V30 6266 C 595.159 -0.722027 -2.1753 0
M  V30 6267 C 596.159 0.244305 -1.58933 0
M  V30 6268 O 597.349 0.0235545 -1.74184 0
M  V30 6269 C 594.481 -0.0663966 -3.40835 0
M  V30 6270 H 595.674 -1.63719 -2.51269 0
M  V30 6271 H 593.227 -0.884442 -1.28869 0
M  V30 6272 H 593.962 0.860389 -3.12678 0
M  V30 6273 H 593.747 -0.761598 -3.84632 0
M  V30 6274 H 595.237 0.173346 -4.1724 0
M  V30 6275 N 595.674 1.31259 -0.872281 0
M  V30 6276 C 596.923 1.95893 -0.480493 0
M  V30 6277 C 597.236 1.697 0.972688 0
M  V30 6278 O 598.442 2.28214 1.47073 0
M  V30 6279 C 596.898 3.50705 -0.808342 0
M  V30 6280 C 596.506 3.85735 -2.27844 0
M  V30 6281 C 598.25 4.21719 -0.485136 0
M  V30 6282 C 596.157 5.33668 -2.54858 0
M  V30 6283 H 595.087 0.733182 -0.175955 0
M  V30 6284 H 597.738 1.49396 -1.0655 0
M  V30 6285 H 596.12 3.95706 -0.152558 0
M  V30 6286 H 597.294 3.51686 -2.97748 0
M  V30 6287 H 595.609 3.27792 -2.56791 0
M  V30 6288 H 598.206 5.30559 -0.664166 0
M  V30 6289 H 598.549 4.12316 0.574592 0
M  V30 6290 H 599.082 3.82359 -1.09756 0
M  V30 6291 H 595.821 5.48109 -3.59523 0
M  V30 6292 H 595.341 5.69061 -1.8955 0
M  V30 6293 H 597.02 6.00958 -2.39706 0
M  V30 6294 N 597.152 0.631951 1.44375 0
M  V30 6295 C 598.377 0.142146 2.06912 0
M  V30 6296 C 598.802 -1.17456 1.4692 0
M  V30 6297 O 598.16 -1.72074 0.570975 0
M  V30 6298 C 598.208 0.0417952 3.60576 0
M  V30 6299 O 597.312 -1.00194 4.00044 0
M  V30 6300 H 596.653 0.0851491 0.658518 0
M  V30 6301 H 599.183 0.868863 1.85235 0
M  V30 6302 H 599.193 -0.148517 4.0773 0
M  V30 6303 H 597.868 1.0031 4.03622 0
M  V30 6304 H 596.445 -0.786131 3.64519 0
M  V30 6305 N 598.631 -1.53133 0.372548 0
M  V30 6306 C 599.561 -2.28876 -0.462412 0
M  V30 6307 C 600.542 -1.31583 -1.07796 0
M  V30 6308 O 601.727 -1.60461 -1.09389 0
M  V30 6309 C 598.857 -3.08317 -1.59868 0
M  V30 6310 C 597.811 -4.13355 -1.11003 0
M  V30 6311 C 597.137 -4.8092 -2.33708 0
M  V30 6312 C 598.437 -5.21955 -0.18983 0
M  V30 6313 H 600.131 -2.9892 0.169511 0
M  V30 6314 H 597.677 -1.43761 0.0829658 0
M  V30 6315 H 599.63 -3.60055 -2.18949 0
M  V30 6316 H 598.354 -2.35976 -2.25794 0
M  V30 6317 H 597.013 -3.62573 -0.541869 0
M  V30 6318 H 596.661 -4.05144 -2.98106 0
M  V30 6319 H 596.361 -5.51904 -2.01682 0
M  V30 6320 H 597.885 -5.35455 -2.93462 0
M  V30 6321 H 599.299 -5.69153 -0.688319 0
M  V30 6322 H 597.696 -6.00087 0.0398887 0
M  V30 6323 H 598.766 -4.78811 0.766057 0
M  V30 6324 N 600.109 -0.101901 -1.5727 0
M  V30 6325 C 601.072 0.840129 -2.13247 0
M  V30 6326 C 602.072 1.20625 -1.06331 0
M  V30 6327 O 603.262 1.13456 -1.32186 0
M  V30 6328 C 600.394 2.13372 -2.65867 0
M  V30 6329 H 601.587 0.353945 -2.97804 0
M  V30 6330 H 599.14 0.147167 -1.55606 0
M  V30 6331 H 599.875 2.66461 -1.84849 0
M  V30 6332 H 599.66 1.88085 -3.44044 0
M  V30 6333 H 601.15 2.80748 -3.09145 0
M  V30 6334 N 601.587 1.56661 0.17182 0
M  V30 6335 C 602.836 1.81158 0.886831 0
M  V30 6336 C 603.149 0.679072 1.83434 0
M  V30 6337 O 604.355 0.808964 2.59168 0
M  V30 6338 C 602.811 3.20999 1.6275 0
M  V30 6339 C 602.419 4.42117 0.723652 0
M  V30 6340 C 604.163 3.5479 2.33076 0
M  V30 6341 C 602.07 5.7298 1.46452 0
M  V30 6342 H 601 0.675543 0.334899 0
M  V30 6343 H 603.651 1.82967 0.139765 0
M  V30 6344 H 602.033 3.13506 2.4193 0
M  V30 6345 H 603.207 4.60789 -0.0311485 0
M  V30 6346 H 601.522 4.16197 0.130063 0
M  V30 6347 H 604.119 4.49806 2.89099 0
M  V30 6348 H 604.462 2.79646 3.08389 0
M  V30 6349 H 604.995 3.63834 1.6084 0
M  V30 6350 H 601.734 6.51152 0.753729 0
M  V30 6351 H 601.254 5.58285 2.19266 0
M  V30 6352 H 602.933 6.14916 2.01214 0
M  V30 6353 N 603.065 -0.440357 1.51323 0
M  V30 6354 C 603.997 -1.55254 1.68609 0
M  V30 6355 C 605.01 -1.52614 0.566812 0
M  V30 6356 O 606.199 -1.57445 0.841032 0
M  V30 6357 C 603.299 -2.94169 1.68279 0
M  V30 6358 C 602.472 -3.21346 2.96742 0
M  V30 6359 C 601.531 -4.3997 2.8864 0
M  V30 6360 O 600.557 -4.38771 3.62586 0
M  V30 6361 N 601.759 -5.43367 2.04285 0
M  V30 6362 H 604.524 -1.40831 2.6455 0
M  V30 6363 H 602.085 -0.629251 1.49171 0
M  V30 6364 H 604.077 -3.71543 1.60431 0
M  V30 6365 H 602.647 -3.02205 0.799441 0
M  V30 6366 H 601.867 -2.32299 3.18482 0
M  V30 6367 H 603.155 -3.3633 3.81785 0
M  V30 6368 H 602.553 -5.47176 1.43578 0
M  V30 6369 H 601.11 -6.19605 2.02318 0
M  V30 6370 N 604.543 -1.41418 -0.695603 0
M  V30 6371 C 605.506 -1.42988 -1.79129 0
M  V30 6372 C 606.506 -0.320514 -1.57573 0
M  V30 6373 O 607.696 -0.58039 -1.64247 0
M  V30 6374 C 604.828 -1.24122 -3.175 0
M  V30 6375 H 606.021 -2.40526 -1.7913 0
M  V30 6376 H 603.574 -1.2756 -0.903225 0
M  V30 6377 H 604.309 -0.274253 -3.23138 0
M  V30 6378 H 604.094 -2.045 -3.34547 0
M  V30 6379 H 605.584 -1.28056 -3.97481 0
M  V30 6380 N 606.021 0.929856 -1.27246 0
M  V30 6381 C 606.968 2.03017 -1.09785 0
M  V30 6382 C 607.938 1.661 0.000456744 0
M  V30 6383 O 609.123 1.90116 -0.161462 0
M  V30 6384 C 606.263 3.36878 -0.748816 0
M  V30 6385 C 605.376 3.86763 -1.92453 0
M  V30 6386 C 604.511 5.09061 -1.51758 0
M  V30 6387 C 603.55 5.51237 -2.66091 0
M  V30 6388 N 602.687 6.64732 -2.25999 0
M  V30 6389 H 607.527 2.17285 -2.03939 0
M  V30 6390 H 605.064 1.06448 -1.01524 0
M  V30 6391 H 607.022 4.13855 -0.527283 0
M  V30 6392 H 605.652 3.22424 0.155771 0
M  V30 6393 H 604.704 3.06086 -2.25867 0
M  V30 6394 H 606.016 4.13994 -2.78227 0
M  V30 6395 H 605.17 5.93532 -1.25716 0
M  V30 6396 H 603.909 4.83602 -0.630896 0
M  V30 6397 H 602.914 4.65316 -2.92849 0
M  V30 6398 H 604.139 5.78692 -3.55377 0
M  V30 6399 H 602.085 6.40935 -1.3978 0
M  V30 6400 H 602.002 6.91607 -3.05313 0
M  V30 6401 H 603.27 7.52549 -2.03199 0
M  V30 6402 N 607.499 1.09233 1.13605 0
M  V30 6403 C 608.432 0.6739 2.18023 0
M  V30 6404 C 609.41 -0.318603 1.59448 0
M  V30 6405 O 610.594 -0.220452 1.87206 0
M  V30 6406 C 607.721 -0.00751458 3.38699 0
M  V30 6407 C 606.767 0.946481 4.15865 0
M  V30 6408 S 607.6 2.45753 4.75779 0
M  V30 6409 C 608.756 1.78846 5.99804 0
M  V30 6410 H 608.989 1.55846 2.53178 0
M  V30 6411 H 606.522 0.908118 1.2487 0
M  V30 6412 H 608.48 -0.394368 4.08601 0
M  V30 6413 H 607.141 -0.868693 3.01849 0
M  V30 6414 H 606.334 0.416742 5.02274 0
M  V30 6415 H 605.936 1.27464 3.51609 0
M  V30 6416 H 608.228 1.11135 6.68323 0
M  V30 6417 H 609.171 2.63163 6.57382 0
M  V30 6418 H 609.579 1.25823 5.50299 0
M  V30 6419 N 608.977 -1.30795 0.87923 0
M  V30 6420 C 610.205 -2.00527 0.509548 0
M  V30 6421 C 610.62 -1.65944 -0.90045 0
M  V30 6422 O 609.977 -0.893525 -1.5913 0
M  V30 6423 C 610.028 -3.55276 0.667943 0
M  V30 6424 O 609.749 -3.88625 2.02242 0
M  V30 6425 C 611.25 -4.4228 0.300494 0
M  V30 6426 H 608.47 -0.641261 0.197549 0
M  V30 6427 H 611.014 -1.66813 1.18295 0
M  V30 6428 H 609.169 -3.87377 0.0419843 0
M  V30 6429 H 609.583 -4.83334 2.03688 0
M  V30 6430 H 611.057 -5.50061 0.462242 0
M  V30 6431 H 611.534 -4.32556 -0.76106 0
M  V30 6432 H 612.14 -4.15613 0.902536 0
M  V30 6433 N 610.455 -0.639598 -1.44038 0
M  V30 6434 C 611.704 -0.144885 -2.01179 0
M  V30 6435 C 612.017 1.24372 -1.50967 0
M  V30 6436 O 613.223 1.83291 -2.00292 0
M  V30 6437 C 611.679 -0.208244 -3.59297 0
M  V30 6438 C 611.287 -1.59869 -4.18504 0
M  V30 6439 C 613.031 0.229568 -4.23879 0
M  V30 6440 C 610.938 -1.61671 -5.68873 0
M  V30 6441 H 609.868 -0.0504005 -0.752314 0
M  V30 6442 H 612.519 -0.799639 -1.65161 0
M  V30 6443 H 610.901 0.513767 -3.92653 0
M  V30 6444 H 612.075 -2.34496 -3.96671 0
M  V30 6445 H 610.39 -1.98131 -3.66242 0
M  V30 6446 H 612.987 0.235758 -5.3418 0
M  V30 6447 H 613.33 1.25848 -3.96822 0
M  V30 6448 H 613.863 -0.440233 -3.95357 0
M  V30 6449 H 610.602 -2.62427 -6.00677 0
M  V30 6450 H 610.122 -0.913489 -5.92803 0
M  V30 6451 H 611.801 -1.35439 -6.32665 0
M  V30 6452 N 611.933 1.52934 -0.380664 0
M  V30 6453 C 612.843 2.29921 0.466192 0
M  V30 6454 C 613.859 1.36488 1.07922 0
M  V30 6455 O 615.035 1.69553 1.0869 0
M  V30 6456 C 612.1 3.08468 1.58266 0
M  V30 6457 C 611.161 4.17595 0.995627 0
M  V30 6458 C 610.394 4.92387 2.05889 0
M  V30 6459 O 610.617 4.67184 3.27254 0
M  V30 6460 O 609.551 5.77949 1.68102 0
M  V30 6461 H 613.377 3.03274 -0.160735 0
M  V30 6462 H 610.962 1.48698 -0.144617 0
M  V30 6463 H 612.844 3.57469 2.23145 0
M  V30 6464 H 611.519 2.37937 2.19471 0
M  V30 6465 H 610.426 3.72811 0.310332 0
M  V30 6466 H 611.759 4.90336 0.427918 0
M  V30 6467 N 613.412 0.11024 1.57214 0
M  V30 6468 C 614.689 -0.592956 1.86396 0
M  V30 6469 C 615.069 -1.85379 1.00985 0
M  V30 6470 O 614.417 -2.28337 0.0863592 0
M  V30 6471 C 614.627 -0.893816 3.3736 0
M  V30 6472 C 615.975 -1.25069 4.05762 0
M  V30 6473 O 616.999 -0.984356 3.42329 0
M  V30 6474 O 615.858 -1.75017 5.17718 0
M  V30 6475 H 612.952 -0.29828 0.771335 0
M  V30 6476 H 615.498 0.144083 1.69087 0
M  V30 6477 H 614.27 2.6031e-05 3.913 0
M  V30 6478 H 613.893 -1.68631 3.60068 0
M  V30 6479 N 614.89 -1.56749 -0.16351 0
M  V30 6480 C 615.82 -2.00042 -1.20438 0
M  V30 6481 C 616.801 -0.877256 -1.45733 0
M  V30 6482 O 617.986 -1.1439 -1.56935 0
M  V30 6483 C 615.116 -2.36697 -2.54149 0
M  V30 6484 C 614.07 -3.52046 -2.43408 0
M  V30 6485 C 613.396 -3.74466 -3.81679 0
M  V30 6486 C 614.696 -4.85247 -1.93216 0
M  V30 6487 H 616.39 -2.87244 -0.844477 0
M  V30 6488 H 613.936 -1.38194 -0.40478 0
M  V30 6489 H 615.889 -2.65582 -3.27176 0
M  V30 6490 H 614.613 -1.46414 -2.91943 0
M  V30 6491 H 613.272 -3.23301 -1.72834 0
M  V30 6492 H 612.92 -2.81461 -4.1688 0
M  V30 6493 H 612.62 -4.52084 -3.75359 0
M  V30 6494 H 614.144 -4.0576 -4.5628 0
M  V30 6495 H 615.558 -5.12957 -2.56023 0
M  V30 6496 H 613.955 -5.66556 -1.97825 0
M  V30 6497 H 615.025 -4.7672 -0.88689 0
M  V30 6498 N 616.368 0.432326 -1.51554 0
M  V30 6499 C 617.331 1.50765 -1.72634 0
M  V30 6500 C 618.331 1.49334 -0.596314 0
M  V30 6501 O 619.521 1.51268 -0.863925 0
M  V30 6502 C 616.653 2.90284 -1.7874 0
M  V30 6503 H 617.846 1.33377 -2.68609 0
M  V30 6504 H 615.399 0.661329 -1.4162 0
M  V30 6505 H 616.134 3.13071 -0.845977 0
M  V30 6506 H 615.919 2.92727 -2.6087 0
M  V30 6507 H 617.409 3.68282 -1.96871 0
M  V30 6508 N 617.846 1.41785 0.688094 0
M  V30 6509 C 619.076 1.44705 1.47459 0
M  V30 6510 C 619.484 0.052916 1.89126 0
M  V30 6511 O 618.827 -0.939781 1.57841 0
M  V30 6512 C 618.889 2.29935 2.76352 0
M  V30 6513 C 618.553 3.77996 2.56843 0
M  V30 6514 C 619.55 4.69976 2.22304 0
M  V30 6515 C 617.235 4.2212 2.7225 0
M  V30 6516 C 619.229 6.04068 2.03421 0
M  V30 6517 C 616.916 5.56275 2.52985 0
M  V30 6518 C 617.914 6.47065 2.18621 0
M  V30 6519 O 617.602 7.78744 1.9953 0
M  V30 6520 H 617.334 0.494703 0.460701 0
M  V30 6521 H 619.888 1.86802 0.854057 0
M  V30 6522 H 618.118 1.82664 3.40839 0
M  V30 6523 H 619.807 2.24467 3.38186 0
M  V30 6524 H 620.573 4.37175 2.10008 0
M  V30 6525 H 616.452 3.51752 2.97979 0
M  V30 6526 H 619.996 6.74897 1.76523 0
M  V30 6527 H 615.893 5.88653 2.64873 0
M  V30 6528 H 616.661 7.89966 2.14234 0
M  V30 6529 N 619.324 -0.923095 1.27737 0
M  V30 6530 C 620.287 -2.00587 1.10894 0
M  V30 6531 C 621.287 -1.60718 0.0514927 0
M  V30 6532 O 622.477 -1.71658 0.296481 0
M  V30 6533 C 619.609 -3.33829 0.690717 0
M  V30 6534 H 620.802 -2.16959 2.07048 0
M  V30 6535 H 618.355 -1.10451 1.1059 0
M  V30 6536 H 619.09 -3.23157 -0.272 0
M  V30 6537 H 618.875 -3.64125 1.45448 0
M  V30 6538 H 620.365 -4.13336 0.595252 0
M  V30 6539 N 620.802 -1.09834 -1.13024 0
M  V30 6540 C 622.079 -0.749225 -1.80682 0
M  V30 6541 C 622.459 0.765171 -1.96744 0
M  V30 6542 O 621.807 1.68912 -1.53886 0
M  V30 6543 C 622.017 -1.49311 -3.15448 0
M  V30 6544 C 623.365 -1.66162 -3.90737 0
M  V30 6545 O 624.389 -1.45597 -3.25085 0
M  V30 6546 O 623.248 -2.00211 -5.08505 0
M  V30 6547 H 620.342 -0.269614 -0.781817 0
M  V30 6548 H 622.888 -1.20078 -1.19914 0
M  V30 6549 H 621.66 -2.52407 -2.99009 0
M  V30 6550 H 621.283 -1.034 -3.8392 0
M  V30 6551 N 622.28 1.30327 -0.886154 0
M  V30 6552 C 623.527 1.96097 -0.505192 0
M  V30 6553 C 623.855 1.69952 0.945868 0
M  V30 6554 O 623.11 0.997653 1.68361 0
M  V30 6555 C 623.409 3.49906 -0.728042 0
M  V30 6556 C 623.075 3.96103 -2.15437 0
M  V30 6557 C 621.737 4.08428 -2.5444 0
M  V30 6558 C 624.089 4.20177 -3.08384 0
M  V30 6559 C 621.417 4.42189 -3.85598 0
M  V30 6560 C 623.769 4.55407 -4.39075 0
M  V30 6561 C 622.433 4.65941 -4.7797 0
M  V30 6562 H 621.703 0.71757 -0.184863 0
M  V30 6563 H 624.35 1.55171 -1.12223 0
M  V30 6564 H 622.655 3.9179 -0.027978 0
M  V30 6565 H 624.352 3.98869 -0.412862 0
M  V30 6566 H 620.942 3.87017 -1.84162 0
M  V30 6567 H 625.126 4.10134 -2.7947 0
M  V30 6568 H 620.382 4.48544 -4.15473 0
M  V30 6569 H 624.556 4.72986 -5.11133 0
M  V30 6570 H 622.183 4.91856 -5.79639 0
M  V30 6571 N 623.758 0.647228 1.43697 0
M  V30 6572 C 625.005 0.158188 2.01881 0
M  V30 6573 C 625.333 -1.22573 1.51017 0
M  V30 6574 O 624.588 -1.83086 0.69122 0
M  V30 6575 C 624.887 0.111481 3.57226 0
M  V30 6576 C 624.553 1.43633 4.27411 0
M  V30 6577 C 623.215 1.79915 4.463 0
M  V30 6578 C 625.567 2.31011 4.67208 0
M  V30 6579 C 622.895 3.03251 5.02251 0
M  V30 6580 C 625.247 3.53633 5.24525 0
M  V30 6581 C 623.911 3.90118 5.41631 0
M  V30 6582 H 623.181 0.0578851 0.738736 0
M  V30 6583 H 625.828 0.836746 1.72252 0
M  V30 6584 H 624.133 -0.650507 3.86362 0
M  V30 6585 H 625.83 -0.283682 3.99995 0
M  V30 6586 H 622.42 1.14403 4.1305 0
M  V30 6587 H 626.604 2.04272 4.52313 0
M  V30 6588 H 621.86 3.31575 5.13681 0
M  V30 6589 H 626.034 4.21561 5.5431 0
M  V30 6590 H 623.661 4.85768 5.84751 0
M  V30 6591 N 625.236 -1.5273 0.388769 0
M  V30 6592 C 626.483 -2.01573 -0.19359 0
M  V30 6593 C 626.811 -1.27525 -1.46859 0
M  V30 6594 O 626.066 -0.363926 -1.92286 0
M  V30 6595 C 626.365 -3.53765 -0.508445 0
M  V30 6596 C 626.031 -4.4582 0.674947 0
M  V30 6597 C 624.693 -4.70703 0.999596 0
M  V30 6598 C 627.045 -5.00138 1.46666 0
M  V30 6599 C 624.373 -5.47155 2.11751 0
M  V30 6600 C 626.725 -5.77812 2.57518 0
M  V30 6601 C 625.389 -6.00975 2.90492 0
M  V30 6602 H 624.659 -0.737606 -0.0708397 0
M  V30 6603 H 627.306 -1.84134 0.526006 0
M  V30 6604 H 625.611 -3.69274 -1.30936 0
M  V30 6605 H 627.308 -3.8905 -0.971664 0
M  V30 6606 H 623.898 -4.26616 0.411906 0
M  V30 6607 H 628.082 -4.8084 1.22909 0
M  V30 6608 H 623.338 -5.63314 2.3767 0
M  V30 6609 H 627.512 -6.18904 3.19267 0
M  V30 6610 H 625.139 -6.59998 3.77236 0
M  V30 6611 N 626.714 -0.118576 -1.57153 0
M  V30 6612 C 627.646 0.862247 -2.12363 0
M  V30 6613 C 628.659 1.23025 -1.06625 0
M  V30 6614 O 629.848 1.17927 -1.33998 0
M  V30 6615 C 626.948 2.16425 -2.60794 0
M  V30 6616 C 626.121 1.96801 -3.90626 0
M  V30 6617 C 625.18 3.10726 -4.2466 0
M  V30 6618 O 624.206 2.83659 -4.93484 0
M  V30 6619 N 625.408 4.37147 -3.81946 0
M  V30 6620 H 628.173 0.390564 -2.97144 0
M  V30 6621 H 625.734 0.0658591 -1.61766 0
M  V30 6622 H 627.726 2.91633 -2.80593 0
M  V30 6623 H 626.296 2.54943 -1.80895 0
M  V30 6624 H 625.516 1.05787 -3.7974 0
M  V30 6625 H 626.804 1.80993 -4.7552 0
M  V30 6626 H 626.202 4.62014 -3.26435 0
M  V30 6627 H 624.759 5.09229 -4.06853 0
M  V30 6628 N 628.193 1.56834 0.155195 0
M  V30 6629 C 629.604 1.72421 0.716082 0
M  V30 6630 C 629.955 0.731685 1.82046 0
M  V30 6631 O 629.08 -0.103481 2.16152 0
M  V30 6632 C 629.675 3.12629 1.30571 0
M  V30 6633 C 628.234 3.29846 1.81325 0
M  V30 6634 C 627.381 2.68359 0.698494 0
M  V30 6635 H 630.332 1.58544 -0.0703861 0
M  V30 6636 H 630.353 3.12174 2.1755 0
M  V30 6637 H 629.865 3.84844 0.501701 0
M  V30 6638 H 627.966 2.62614 2.64319 0
M  V30 6639 H 628.079 4.37727 1.9476 0
M  V30 6640 H 626.443 2.28604 1.12305 0
M  V30 6641 H 627.226 3.43171 -0.0939366 0
M  V30 6642 N 629.671 -0.424282 1.51781 0
M  V30 6643 C 630.634 -1.49848 1.73431 0
M  V30 6644 C 631.634 -1.49016 0.604225 0
M  V30 6645 O 632.824 -1.50808 0.871935 0
M  V30 6646 C 629.956 -2.89332 1.80277 0
M  V30 6647 H 631.149 -1.3195 2.69312 0
M  V30 6648 H 628.702 -0.653809 1.41968 0
M  V30 6649 H 629.437 -3.12618 0.862568 0
M  V30 6650 H 629.222 -2.9134 2.62419 0
M  V30 6651 H 630.712 -3.67233 1.98821 0
M  V30 6652 N 631.149 -1.42148 -0.680565 0
M  V30 6653 C 632.396 -1.4231 -1.44063 0
M  V30 6654 C 632.724 -0.037488 -1.94464 0
M  V30 6655 O 631.979 0.953184 -1.70918 0
M  V30 6656 C 632.278 -2.38945 -2.65782 0
M  V30 6657 C 631.944 -3.85455 -2.33956 0
M  V30 6658 C 630.606 -4.25364 -2.24987 0
M  V30 6659 C 632.958 -4.77895 -2.08004 0
M  V30 6660 C 630.286 -5.55701 -1.88184 0
M  V30 6661 C 632.638 -6.08568 -1.72706 0
M  V30 6662 C 631.302 -6.47482 -1.62244 0
M  V30 6663 H 630.572 -0.520748 -0.527164 0
M  V30 6664 H 633.219 -1.7505 -0.776524 0
M  V30 6665 H 631.524 -1.99511 -3.37198 0
M  V30 6666 H 633.221 -2.36336 -3.23954 0
M  V30 6667 H 629.811 -3.53855 -2.41836 0
M  V30 6668 H 633.995 -4.47854 -2.1387 0
M  V30 6669 H 629.251 -5.84718 -1.78648 0
M  V30 6670 H 633.425 -6.79688 -1.5165 0
M  V30 6671 H 631.052 -7.48387 -1.33496 0
M  V30 6672 N 632.627 0.916307 -1.28225 0
M  V30 6673 C 633.904 1.64429 -1.05936 0
M  V30 6674 C 634.284 2.07234 0.402139 0
M  V30 6675 O 633.632 1.81535 1.3877 0
M  V30 6676 C 633.842 2.83773 -2.03159 0
M  V30 6677 C 635.19 3.54852 -2.33164 0
M  V30 6678 O 636.214 2.93918 -2.01223 0
M  V30 6679 O 635.073 4.64663 -2.87664 0
M  V30 6680 H 632.167 0.721221 -0.404683 0
M  V30 6681 H 634.713 0.965838 -1.39534 0
M  V30 6682 H 633.485 2.49217 -3.01673 0
M  V30 6683 H 633.108 3.59333 -1.70192 0
M  V30 6684 N 634.105 1.10431 1.1244 0
M  V30 6685 C 635.052 0.753103 2.18167 0
M  V30 6686 C 636.022 -0.270549 1.63882 0
M  V30 6687 O 637.207 -0.149837 1.90211 0
M  V30 6688 C 634.347 0.191046 3.44571 0
M  V30 6689 C 633.46 1.26999 4.12911 0
M  V30 6690 C 632.595 0.669586 5.26963 0
M  V30 6691 C 631.634 1.72912 5.87169 0
M  V30 6692 N 630.771 1.14898 6.92635 0
M  V30 6693 H 635.611 1.65892 2.47556 0
M  V30 6694 H 633.148 0.828631 1.21541 0
M  V30 6695 H 635.106 -0.152712 4.1692 0
M  V30 6696 H 633.736 -0.677997 3.15599 0
M  V30 6697 H 632.788 1.73087 3.3874 0
M  V30 6698 H 634.1 2.07204 4.53727 0
M  V30 6699 H 633.254 0.275274 6.06075 0
M  V30 6700 H 631.993 -0.163895 4.87425 0
M  V30 6701 H 630.998 2.13286 5.06744 0
M  V30 6702 H 632.223 2.56544 6.28778 0
M  V30 6703 H 630.169 0.336956 6.55134 0
M  V30 6704 H 630.086 1.88786 7.32049 0
M  V30 6705 H 631.354 0.78121 7.75576 0
M  V30 6706 N 635.583 -1.29855 0.893053 0
M  V30 6707 C 636.994 -1.77946 0.564998 0
M  V30 6708 C 637.345 -1.73339 -0.919134 0
M  V30 6709 O 636.47 -1.3152 -1.71847 0
M  V30 6710 C 637.065 -3.23118 1.01883 0
M  V30 6711 C 635.624 -3.69013 0.742051 0
M  V30 6712 C 634.771 -2.50121 1.19727 0
M  V30 6713 H 637.722 -1.16611 1.07646 0
M  V30 6714 H 637.743 -3.78875 0.351249 0
M  V30 6715 H 637.255 -3.26439 2.09903 0
M  V30 6716 H 635.356 -3.71173 -0.325816 0
M  V30 6717 H 635.469 -4.60117 1.33527 0
M  V30 6718 H 633.833 -2.47128 0.616418 0
M  V30 6719 H 634.616 -2.56174 2.28538 0
M  V30 6720 N 637.061 -0.65484 -1.43351 0
M  V30 6721 C 638.307 -0.177749 -2.02622 0
M  V30 6722 C 638.662 1.19553 -1.50748 0
M  V30 6723 O 637.955 1.78683 -0.691599 0
M  V30 6724 C 638.149 -0.130424 -3.57162 0
M  V30 6725 C 637.978 -1.49757 -4.24032 0
M  V30 6726 C 636.748 -2.09036 -4.60035 0
M  V30 6727 C 638.946 -2.4363 -4.52934 0
M  V30 6728 N 636.928 -3.3874 -5.11985 0
M  V30 6729 C 638.299 -3.57968 -5.0622 0
M  V30 6730 C 640.354 -2.42412 -4.34903 0
M  V30 6731 C 639.057 -4.71314 -5.43374 0
M  V30 6732 C 641.083 -3.5484 -4.7312 0
M  V30 6733 C 640.445 -4.67903 -5.26541 0
M  V30 6734 H 636.544 -0.10951 -0.774294 0
M  V30 6735 H 639.128 -0.863495 -1.74505 0
M  V30 6736 H 637.299 0.524671 -3.8484 0
M  V30 6737 H 639.031 0.35769 -4.03116 0
M  V30 6738 H 635.786 -1.61729 -4.4513 0
M  V30 6739 H 636.21 -4.05116 -5.42412 0
M  V30 6740 H 640.852 -1.56236 -3.92874 0
M  V30 6741 H 638.57 -5.5818 -5.84346 0
M  V30 6742 H 642.156 -3.55101 -4.60863 0
M  V30 6743 H 641.036 -5.5346 -5.55564 0
M  V30 6744 N 638.539 1.52521 -0.396863 0
M  V30 6745 C 639.487 2.28217 0.44943 0
M  V30 6746 C 640.481 1.32416 1.05652 0
M  V30 6747 O 641.687 1.49925 0.996124 0
M  V30 6748 H 638.062 0.733966 0.1637 0
M  V30 6749 H 640.033 2.97658 -0.210367 0
M  V30 6750 C 638.782 3.10713 1.56054 0
M  V30 6751 H 638.105 3.84291 1.10273 0
M  V30 6752 H 639.545 3.66803 2.12677 0
M  V30 6753 C 638.004 2.23499 2.52091 0
M  V30 6754 O 638.534 1.8669 3.55682 0
M  V30 6755 N 636.74 1.8751 2.2201 0
M  V30 6756 H 636.287 2.17643 1.37802 0
M  V30 6757 H 636.245 1.29448 2.86514 0
M  V30 6758 N 640.017 0.126909 1.57088 0
M  V30 6759 C 641.266 -0.529024 1.94639 0
M  V30 6760 C 641.579 -1.67323 1.01304 0
M  V30 6761 O 642.785 -2.39245 1.28352 0
M  V30 6762 C 641.241 -0.992483 3.45945 0
M  V30 6763 C 640.849 0.123691 4.47829 0
M  V30 6764 C 642.593 -1.61934 3.924 0
M  V30 6765 C 640.5 -0.356911 5.90322 0
M  V30 6766 H 639.43 -0.201397 0.726605 0
M  V30 6767 H 642.081 0.208032 1.82317 0
M  V30 6768 H 640.463 -1.7842 3.53528 0
M  V30 6769 H 641.637 0.900168 4.51922 0
M  V30 6770 H 639.952 0.657699 4.11173 0
M  V30 6771 H 642.549 -1.9902 4.96281 0
M  V30 6772 H 642.892 -2.50075 3.32819 0
M  V30 6773 H 643.425 -0.892894 3.8765 0
M  V30 6774 H 640.164 0.488636 6.53676 0
M  V30 6775 H 639.684 -1.0997 5.89633 0
M  V30 6776 H 641.363 -0.815547 6.41839 0
M  V30 6777 N 641.495 -1.56914 -0.146875 0
M  V30 6778 C 642.744 -1.82546 -0.857898 0
M  V30 6779 C 643.057 -0.708169 -1.8233 0
M  V30 6780 O 644.263 -0.850093 -2.57848 0
M  V30 6781 C 642.719 -3.23548 -1.57623 0
M  V30 6782 C 642.327 -4.43212 -0.653224 0
M  V30 6783 C 644.071 -3.58453 -2.27402 0
M  V30 6784 C 641.978 -5.75237 -1.37318 0
M  V30 6785 H 640.908 -0.680786 -0.32411 0
M  V30 6786 H 643.559 -1.83166 -0.110639 0
M  V30 6787 H 641.941 -3.17315 -2.36912 0
M  V30 6788 H 643.115 -4.60682 0.104452 0
M  V30 6789 H 641.43 -4.16351 -0.0638336 0
M  V30 6790 H 644.027 -4.54349 -2.81907 0
M  V30 6791 H 644.37 -2.84516 -3.03901 0
M  V30 6792 H 644.903 -3.66347 -1.55032 0
M  V30 6793 H 641.642 -6.52269 -0.650041 0
M  V30 6794 H 641.162 -5.61703 -2.10357 0
M  V30 6795 H 642.841 -6.18039 -1.91406 0
M  V30 6796 N 642.974 0.416227 -1.52004 0
M  V30 6797 C 643.922 1.5272 -1.7544 0
M  V30 6798 C 644.916 1.57596 -0.621289 0
M  V30 6799 O 646.122 1.61087 -0.803172 0
M  V30 6800 H 642.497 0.507772 -0.554682 0
M  V30 6801 H 644.468 1.30136 -2.68528 0
M  V30 6802 C 643.217 2.90165 -1.91571 0
M  V30 6803 H 642.54 2.87154 -2.78178 0
M  V30 6804 H 643.98 3.67211 -2.11972 0
M  V30 6805 C 642.439 3.29947 -0.680942 0
M  V30 6806 O 642.969 4.01403 0.154527 0
M  V30 6807 N 641.175 2.8593 -0.518894 0
M  V30 6808 H 640.722 2.2795 -1.19986 0
M  V30 6809 H 640.68 3.12907 0.305985 0
M  V30 6810 N 644.452 1.42507 0.673017 0
M  V30 6811 C 645.68 1.46473 1.46128 0
M  V30 6812 C 646.095 0.0765912 1.88645 0
M  V30 6813 O 645.452 -0.909057 1.58248 0
M  V30 6814 C 645.503 2.39339 2.70923 0
M  V30 6815 O 645.224 3.72752 2.3019 0
M  V30 6816 C 646.725 2.52343 3.64469 0
M  V30 6817 H 643.945 0.49812 0.449575 0
M  V30 6818 H 646.489 1.87041 0.826802 0
M  V30 6819 H 644.644 2.02019 3.30556 0
M  V30 6820 H 645.058 4.22503 3.10791 0
M  V30 6821 H 646.532 3.2144 4.48754 0
M  V30 6822 H 647.009 1.56189 4.1049 0
M  V30 6823 H 647.615 2.90392 3.10729 0
M  V30 6824 N 645.93 -0.909495 1.28709 0
M  V30 6825 C 646.893 -1.99399 1.13016 0
M  V30 6826 C 647.893 -1.60654 0.068536 0
M  V30 6827 O 649.083 -1.71334 0.314671 0
M  V30 6828 C 646.215 -3.33078 0.726085 0
M  V30 6829 H 647.408 -2.14751 2.09338 0
M  V30 6830 H 644.961 -1.09272 1.11756 0
M  V30 6831 H 645.696 -3.23428 -0.23771 0
M  V30 6832 H 645.481 -3.62562 1.49302 0
M  V30 6833 H 646.971 -4.12681 0.639058 0
M  V30 6834 N 647.408 -1.11026 -1.11852 0
M  V30 6835 C 648.371 -0.768006 -2.1595 0
M  V30 6836 C 649.371 0.210538 -1.59416 0
M  V30 6837 O 650.561 -0.0133978 -1.74195 0
M  V30 6838 C 647.693 -0.138678 -3.40618 0
M  V30 6839 H 648.886 -1.69012 -2.4774 0
M  V30 6840 H 646.439 -0.911578 -1.26964 0
M  V30 6841 H 647.174 0.793872 -3.14433 0
M  V30 6842 H 646.959 -0.843012 -3.8293 0
M  V30 6843 H 648.449 0.0848039 -4.17514 0
M  V30 6844 N 648.886 1.2938 -0.899927 0
M  V30 6845 C 649.816 2.30144 -0.39446 0
M  V30 6846 C 650.797 1.61611 0.530639 0
M  V30 6847 O 651.982 1.89119 0.441319 0
M  V30 6848 C 649.112 3.45229 0.37868 0
M  V30 6849 C 648.066 4.25564 -0.456012 0
M  V30 6850 C 647.392 5.32848 0.444637 0
M  V30 6851 C 648.692 4.93651 -1.70605 0
M  V30 6852 H 650.386 2.72673 -1.23653 0
M  V30 6853 H 647.932 1.31086 -0.596034 0
M  V30 6854 H 649.885 4.14797 0.743037 0
M  V30 6855 H 648.609 3.01545 1.25453 0
M  V30 6856 H 647.268 3.57704 -0.802704 0
M  V30 6857 H 646.916 4.85408 1.31863 0
M  V30 6858 H 646.616 5.87497 -0.110154 0
M  V30 6859 H 648.14 6.05268 0.805182 0
M  V30 6860 H 649.554 5.55655 -1.41141 0
M  V30 6861 H 647.951 5.58233 -2.20217 0
M  V30 6862 H 649.021 4.18926 -2.4419 0
M  V30 6863 N 650.364 0.662433 1.43002 0
M  V30 6864 C 651.274 -0.0239199 2.34588 0
M  V30 6865 C 652.29 -0.802255 1.54402 0
M  V30 6866 O 653.466 -0.747401 1.87018 0
M  V30 6867 C 650.531 -0.972098 3.32793 0
M  V30 6868 C 649.592 -0.189673 4.28881 0
M  V30 6869 C 648.825 -1.09269 5.22395 0
M  V30 6870 O 649.048 -2.33209 5.20547 0
M  V30 6871 O 647.982 -0.560136 5.99288 0
M  V30 6872 H 651.808 0.730171 2.94792 0
M  V30 6873 H 649.393 0.422635 1.43297 0
M  V30 6874 H 651.275 -1.51676 3.93157 0
M  V30 6875 H 649.95 -1.70626 2.75079 0
M  V30 6876 H 648.857 0.398794 3.71968 0
M  V30 6877 H 650.19 0.50511 4.89601 0
M  V30 6878 N 651.842 -1.52309 0.404946 0
M  V30 6879 C 652.805 -2.25491 -0.410651 0
M  V30 6880 C 653.805 -1.27704 -0.977154 0
M  V30 6881 O 654.995 -1.51679 -0.856691 0
M  V30 6882 C 652.127 -3.02197 -1.57765 0
M  V30 6883 H 653.32 -2.99015 0.230277 0
M  V30 6884 H 650.873 -1.55506 0.157377 0
M  V30 6885 H 651.608 -2.33013 -2.25556 0
M  V30 6886 H 651.393 -3.73987 -1.17797 0
M  V30 6887 H 652.883 -3.57719 -2.15469 0
M  V30 6888 N 653.32 -0.135238 -1.57019 0
M  V30 6889 C 654.566 0.519563 -1.96032 0
M  V30 6890 C 654.899 1.65284 -1.01955 0
M  V30 6891 O 654.174 1.94408 -0.059727 0
M  V30 6892 C 654.457 1.0369 -3.44848 0
M  V30 6893 C 654.31 -0.0940754 -4.49702 0
M  V30 6894 C 655.629 1.92254 -3.95887 0
M  V30 6895 H 652.748 0.18739 -0.712779 0
M  V30 6896 H 655.39 -0.214086 -1.8879 0
M  V30 6897 H 653.54 1.66209 -3.5115 0
M  V30 6898 H 655.212 -0.73 -4.55487 0
M  V30 6899 H 653.455 -0.754924 -4.27181 0
M  V30 6900 H 654.126 0.309419 -5.51132 0
M  V30 6901 H 656.602 1.39581 -3.9199 0
M  V30 6902 H 655.478 2.25364 -5.00502 0
M  V30 6903 H 655.739 2.85513 -3.37543 0
M  V30 6904 N 654.798 1.5699 0.138552 0
M  V30 6905 C 655.745 1.98899 1.17081 0
M  V30 6906 C 656.715 0.857922 1.42228 0
M  V30 6907 O 657.9 1.12065 1.54422 0
M  V30 6908 C 655.04 2.38189 2.4972 0
M  V30 6909 C 654.153 3.64624 2.31674 0
M  V30 6910 C 653.288 3.9298 3.57407 0
M  V30 6911 C 652.327 5.1266 3.34435 0
M  V30 6912 N 651.464 5.36983 4.5232 0
M  V30 6913 H 656.304 2.86881 0.80642 0
M  V30 6914 H 653.841 1.41925 0.386727 0
M  V30 6915 H 655.799 2.59 3.2707 0
M  V30 6916 H 654.429 1.53275 2.84089 0
M  V30 6917 H 653.481 3.51542 1.45337 0
M  V30 6918 H 654.793 4.52131 2.10664 0
M  V30 6919 H 653.947 4.14335 4.43183 0
M  V30 6920 H 652.686 3.03912 3.8143 0
M  V30 6921 H 651.691 4.9117 2.47048 0
M  V30 6922 H 652.916 6.03288 3.11802 0
M  V30 6923 H 650.862 4.50871 4.76499 0
M  V30 6924 H 650.779 6.18775 4.34343 0
M  V30 6925 H 652.047 5.62842 5.39285 0
M  V30 6926 N 656.276 -0.40816 1.52223 0
M  V30 6927 C 657.208 -1.51642 1.71864 0
M  V30 6928 C 658.221 -1.51378 0.599056 0
M  V30 6929 O 659.41 -1.55626 0.874239 0
M  V30 6930 C 656.51 -2.90534 1.74481 0
M  V30 6931 C 655.683 -3.14979 3.03491 0
M  V30 6932 C 654.742 -4.33749 2.97907 0
M  V30 6933 O 653.768 -4.30982 3.71811 0
M  V30 6934 N 654.97 -5.38912 2.15764 0
M  V30 6935 H 657.735 -1.35188 2.67478 0
M  V30 6936 H 655.296 -0.597468 1.50472 0
M  V30 6937 H 657.288 -3.68056 1.68275 0
M  V30 6938 H 655.858 -3.00441 0.863363 0
M  V30 6939 H 655.078 -2.25492 3.23337 0
M  V30 6940 H 656.366 -3.28156 3.88833 0
M  V30 6941 H 655.764 -5.44008 1.55152 0
M  V30 6942 H 654.321 -6.15174 2.15415 0
M  V30 6943 N 657.755 -1.42862 -0.66545 0
M  V30 6944 C 658.665 -1.49491 -1.80803 0
M  V30 6945 C 659.681 -0.382914 -1.69734 0
M  V30 6946 O 660.857 -0.635223 -1.9112 0
M  V30 6947 C 657.922 -1.40383 -3.17007 0
M  V30 6948 C 656.983 -2.62152 -3.39963 0
M  V30 6949 C 656.216 -2.53469 -4.69669 0
M  V30 6950 O 656.439 -1.57568 -5.48205 0
M  V30 6951 O 655.373 -3.43763 -4.94075 0
M  V30 6952 H 659.199 -2.45949 -1.78165 0
M  V30 6953 H 656.784 -1.24728 -0.822387 0
M  V30 6954 H 658.666 -1.377 -3.98267 0
M  V30 6955 H 657.341 -0.470546 -3.20262 0
M  V30 6956 H 656.248 -2.70409 -2.58515 0
M  V30 6957 H 657.581 -3.54411 -3.41546 0
M  V30 6958 N 659.233 0.902656 -1.29189 0
M  V30 6959 C 660.649 1.18296 -1.07137 0
M  V30 6960 C 660.849 2.00701 0.179223 0
M  V30 6961 O 659.905 2.3675 0.877812 0
M  V30 6962 C 661.218 1.90677 -2.32514 0
M  V30 6963 C 662.766 2.03515 -2.37804 0
M  V30 6964 C 663.241 2.79307 -3.62976 0
M  V30 6965 N 664.732 2.86862 -3.63681 0
M  V30 6966 C 665.467 3.46035 -4.57217 0
M  V30 6967 N 664.963 4.06399 -5.61081 0
M  V30 6968 N 666.756 3.43681 -4.44792 0
M  V30 6969 H 658.907 0.352765 -2.0945 0
M  V30 6970 H 661.17 0.21876 -0.922414 0
M  V30 6971 H 660.876 1.3756 -3.23682 0
M  V30 6972 H 660.75 2.91169 -2.39793 0
M  V30 6973 H 663.137 2.55809 -1.47125 0
M  V30 6974 H 663.218 1.02166 -2.34512 0
M  V30 6975 H 662.862 2.2769 -4.54004 0
M  V30 6976 H 662.792 3.80995 -3.63525 0
M  V30 6977 H 665.283 2.43987 -2.88581 0
M  V30 6978 H 665.596 4.49564 -6.2858 0
M  V30 6979 H 663.941 4.0487 -5.64894 0
M  V30 6980 H 667.132 2.9574 -3.62843 0
M  V30 6981 H 667.305 3.89503 -5.17872 0
M  V30 6982 O 660.75 1.23723 1.03802 0
M  V30 6983 H 661.441 1.01035 1.65262 0
M  V30 END ATOM
M  V30 BEGIN BOND
M  V30 END BOND
M  V30 END CTAB
M  END
$$$$
