drugbank_target|P37093 Type II secretion system protein E (DB04395)
 OpenBabel12092120293D

  0  0  0     0  0            999 V3000
M  V30 BEGIN CTAB
M  V30 COUNTS 7977 8032 0 0 0
M  V30 BEGIN ATOM
M  V30 1 H -0.908 1.98254 -0.117106 0
M  V30 2 N 0 1.576 0 0
M  V30 3 C 0.933 2.03868 1.02534 0
M  V30 4 C 1.911 0.928543 1.3348 0
M  V30 5 O 3.095 1.19667 1.45644 0
M  V30 6 C 0.222 2.43627 2.35294 0
M  V30 7 C -0.732 3.65373 2.2001 0
M  V30 8 S 0.101 5.13292 1.52614 0
M  V30 9 C 1.257 5.56322 2.86805 0
M  V30 10 H 1.49 2.90518 0.631377 0
M  V30 11 H -0.977 1.52953 0.210867 0
M  V30 12 H 0.981 2.67203 3.11629 0
M  V30 13 H -0.358 1.57376 2.7183 0
M  V30 14 H -1.165 3.90944 3.18086 0
M  V30 15 H -1.563 3.418 1.51819 0
M  V30 16 H 0.729 5.58782 3.83104 0
M  V30 17 H 1.672 6.56266 2.65933 0
M  V30 18 H 2.08 4.83886 2.90714 0
M  V30 19 N 1.4781 -0.272755 1.55222 0
M  V30 20 C 2.7061 -1.02255 1.79865 0
M  V30 21 C 3.1211 -1.79924 0.572088 0
M  V30 22 O 2.4781 -1.76638 -0.458842 0
M  V30 23 C 2.5291 -1.98094 3.02392 0
M  V30 24 O 2.2501 -1.23572 4.20311 0
M  V30 25 C 3.7511 -2.84884 3.39641 0
M  V30 26 H 0.9711 -0.302057 0.599168 0
M  V30 27 H 3.5151 -0.303465 2.02236 0
M  V30 28 H 1.6701 -2.65465 2.82147 0
M  V30 29 H 2.0841 -1.88172 4.89583 0
M  V30 30 H 3.5581 -3.47927 4.28545 0
M  V30 31 H 4.0351 -3.54665 2.59055 0
M  V30 32 H 4.6411 -2.23003 3.62146 0
M  V30 33 N 2.9562 -1.48159 -0.537278 0
M  V30 34 C 3.8662 -1.64807 -1.6696 0
M  V30 35 C 4.8822 -0.530651 -1.65711 0
M  V30 36 O 6.0582 -0.800784 -1.84796 0
M  V30 37 C 3.1232 -1.67708 -3.03438 0
M  V30 38 C 2.1842 -2.91025 -3.156 0
M  V30 39 C 1.4172 -2.93778 -4.45567 0
M  V30 40 O 1.6402 -2.05153 -5.3223 0
M  V30 41 O 0.5742 -3.85868 -4.61941 0
M  V30 42 H 4.4002 -2.6066 -1.55853 0
M  V30 43 H 1.9852 -1.31475 -0.709549 0
M  V30 44 H 3.8672 -1.7218 -3.84619 0
M  V30 45 H 2.5422 -0.750278 -3.14885 0
M  V30 46 H 1.4492 -2.92089 -2.33741 0
M  V30 47 H 2.7822 -3.83065 -3.09066 0
M  V30 48 N 4.4343 0.785586 -1.36625 0
M  V30 49 C 5.3673 1.90509 -1.25625 0
M  V30 50 C 6.3453 1.62 -0.139607 0
M  V30 51 O 7.5293 1.8591 -0.31141 0
M  V30 52 C 4.6563 3.25419 -0.939158 0
M  V30 53 C 3.7023 3.72856 -2.07077 0
M  V30 54 S 4.5353 3.88162 -3.68904 0
M  V30 55 C 5.6913 5.25942 -3.39317 0
M  V30 56 H 5.9243 1.99549 -2.20381 0
M  V30 57 H 3.4573 0.945226 -1.22085 0
M  V30 58 H 5.4153 4.03346 -0.763029 0
M  V30 59 H 4.0763 3.14099 -0.00931402 0
M  V30 60 H 3.2693 4.70624 -1.80357 0
M  V30 61 H 2.8713 3.01989 -2.20632 0
M  V30 62 H 5.1633 6.10651 -2.93447 0
M  V30 63 H 6.1063 5.57668 -4.36363 0
M  V30 64 H 6.5143 4.93224 -2.74573 0
M  V30 65 N 5.9124 1.20967 1.01018 0
M  V30 66 C 7.1584 1.02526 1.74975 0
M  V30 67 C 7.4914 -0.4408 1.89131 0
M  V30 68 O 6.7664 -1.32718 1.42184 0
M  V30 69 C 7.0494 1.71699 3.1653 0
M  V30 70 C 6.9024 3.25791 3.10129 0
M  V30 71 C 8.2214 1.45531 4.15342 0
M  V30 72 H 5.3404 0.373863 0.635134 0
M  V30 73 H 7.9824 1.49071 1.17805 0
M  V30 74 H 6.1324 1.32128 3.65341 0
M  V30 75 H 7.8044 3.74697 2.69072 0
M  V30 76 H 6.0474 3.56363 2.47362 0
M  V30 77 H 6.7184 3.69353 4.10222 0
M  V30 78 H 9.1944 1.79872 3.75213 0
M  V30 79 H 8.0704 1.96453 5.1254 0
M  V30 80 H 8.3314 0.384237 4.40427 0
M  V30 81 N 7.3905 -1.2043 1.01659 0
M  V30 82 C 8.6395 -1.89118 0.701237 0
M  V30 83 C 8.9525 -1.79705 -0.772358 0
M  V30 84 O 10.1585 -2.43528 -1.20026 0
M  V30 85 C 8.6145 -3.39168 1.20388 0
M  V30 86 C 8.2225 -3.57166 2.70438 0
M  V30 87 C 9.9665 -4.1341 0.963953 0
M  V30 88 C 7.8735 -5.01042 3.14183 0
M  V30 89 H 6.8035 -0.708267 0.2586 0
M  V30 90 H 9.4545 -1.36239 1.22927 0
M  V30 91 H 7.8365 -3.91369 0.603824 0
M  V30 92 H 9.0105 -3.15351 3.35992 0
M  V30 93 H 7.3255 -2.96294 2.92572 0
M  V30 94 H 9.9225 -5.19491 1.26621 0
M  V30 95 H 10.2655 -4.16181 -0.099578 0
M  V30 96 H 10.7985 -3.67309 1.52738 0
M  V30 97 H 7.5375 -5.03426 4.19812 0
M  V30 98 H 7.0575 -5.43668 2.53348 0
M  V30 99 H 8.7365 -5.69623 3.0682 0
M  V30 100 N 8.8686 -0.792821 -1.36206 0
M  V30 101 C 10.0936 -0.377701 -2.03932 0
M  V30 102 C 10.5186 0.998947 -1.59382 0
M  V30 103 O 9.8766 1.64421 -0.763903 0
M  V30 104 C 9.9246 -0.453635 -3.57735 0
M  V30 105 O 9.0286 0.538151 -4.08874 0
M  V30 106 H 8.3696 -0.159855 -0.644471 0
M  V30 107 H 10.8996 -1.07488 -1.7409 0
M  V30 108 H 10.9096 -0.318464 -4.06755 0
M  V30 109 H 9.5846 -1.45784 -3.89512 0
M  V30 110 H 8.1616 0.364359 -3.71116 0
M  V30 111 N 10.3467 1.47872 -0.545128 0
M  V30 112 C 11.7577 1.86384 -0.108581 0
M  V30 113 C 12.1087 1.45309 1.31832 0
M  V30 114 O 11.2337 0.850641 1.9898 0
M  V30 115 C 11.8287 3.38265 -0.190274 0
M  V30 116 C 10.3877 3.75914 0.191164 0
M  V30 117 C 9.5347 2.71926 -0.543273 0
M  V30 118 H 12.4857 1.39561 -0.755537 0
M  V30 119 H 12.5067 3.75831 0.594217 0
M  V30 120 H 12.0187 3.6813 -1.2289 0
M  V30 121 H 10.1197 3.51665 1.23136 0
M  V30 122 H 10.2327 4.78836 -0.158987 0
M  V30 123 H 8.5967 2.54697 0.0122495 0
M  V30 124 H 9.3797 3.04634 -1.58282 0
M  V30 125 N 11.8248 0.280983 1.55075 0
M  V30 126 C 12.7878 -0.590896 2.21452 0
M  V30 127 C 13.7878 -1.07682 1.19421 0
M  V30 128 O 14.9778 -0.97605 1.44288 0
M  V30 129 C 12.1098 -1.81587 2.88511 0
M  V30 130 H 13.3028 -0.0112554 2.99898 0
M  V30 131 H 10.8558 0.0316438 1.56268 0
M  V30 132 H 11.5908 -2.43587 2.14093 0
M  V30 133 H 11.3758 -1.4753 3.63287 0
M  V30 134 H 12.8658 -2.43575 3.39206 0
M  V30 135 N 13.3029 -1.57598 0.00835791 0
M  V30 136 C 14.2129 -2.12385 -0.996487 0
M  V30 137 C 15.2289 -1.07108 -1.37127 0
M  V30 138 O 16.4049 -1.39055 -1.4569 0
M  V30 139 C 13.4699 -2.62314 -2.26699 0
M  V30 140 C 12.5309 -3.82225 -1.95456 0
M  V30 141 C 11.7639 -4.29763 -3.16449 0
M  V30 142 O 11.9869 -3.76584 -4.28416 0
M  V30 143 O 10.9209 -5.21832 -2.99958 0
M  V30 144 H 14.7469 -2.98479 -0.560725 0
M  V30 145 H 12.3319 -1.47903 -0.210987 0
M  V30 146 H 14.2139 -2.94589 -3.01322 0
M  V30 147 H 12.8889 -1.79313 -2.69497 0
M  V30 148 H 11.7959 -3.54909 -1.18282 0
M  V30 149 H 13.1289 -4.66324 -1.57489 0
M  V30 150 N 14.781 0.264519 -1.55364 0
M  V30 151 C 16.197 0.61215 -1.47394 0
M  V30 152 C 16.397 1.89134 -0.695018 0
M  V30 153 O 15.453 2.51563 -0.217275 0
M  V30 154 C 16.766 0.731235 -2.91674 0
M  V30 155 C 18.314 0.82473 -3.01939 0
M  V30 156 C 18.789 0.975522 -4.4749 0
M  V30 157 N 20.28 1.04083 -4.51354 0
M  V30 158 C 21.015 1.17646 -5.61201 0
M  V30 159 N 20.511 1.27874 -6.80896 0
M  V30 160 N 22.304 1.20823 -5.48961 0
M  V30 161 H 14.455 -0.575456 -2.04456 0
M  V30 162 H 16.718 -0.196099 -0.927496 0
M  V30 163 H 16.424 -0.138392 -3.51428 0
M  V30 164 H 16.298 1.60883 -3.41169 0
M  V30 165 H 18.685 1.68482 -2.42276 0
M  V30 166 H 18.766 -0.0776479 -2.55682 0
M  V30 167 H 18.41 0.120058 -5.07758 0
M  V30 168 H 18.34 1.89268 -4.91412 0
M  V30 169 H 20.831 0.973846 -3.65136 0
M  V30 170 H 21.144 1.38081 -7.60364 0
M  V30 171 H 19.489 1.24863 -6.83692 0
M  V30 172 H 22.68 1.12469 -4.54388 0
M  V30 173 H 22.853 1.31049 -6.3461 0
M  V30 174 N 16.2591 1.48442 0.529413 0
M  V30 175 C 17.1911 1.59095 1.64989 0
M  V30 176 C 18.2041 0.475212 1.5571 0
M  V30 177 O 19.3931 0.746081 1.6216 0
M  V30 178 C 16.4931 1.50518 3.0364 0
M  V30 179 C 15.6661 2.77142 3.38395 0
M  V30 180 C 14.7251 2.62012 4.56329 0
M  V30 181 O 13.7511 3.35898 4.59522 0
M  V30 182 N 14.9531 1.71667 5.54536 0
M  V30 183 H 17.7181 2.55723 1.56287 0
M  V30 184 H 15.2791 1.45173 0.716697 0
M  V30 185 H 17.2711 1.38091 3.80412 0
M  V30 186 H 15.8411 0.618627 3.06418 0
M  V30 187 H 15.0611 3.0413 2.50796 0
M  V30 188 H 16.3491 3.61146 3.58401 0
M  V30 189 H 15.7471 1.10841 5.54735 0
M  V30 190 H 14.3041 1.65178 6.30523 0
M  V30 191 N 17.7372 -0.778329 1.37039 0
M  V30 192 C 18.9622 -1.57248 1.35233 0
M  V30 193 C 19.3872 -1.87999 -0.0615568 0
M  V30 194 O 18.7452 -1.48734 -1.03672 0
M  V30 195 C 18.7932 -2.86353 2.19167 0
M  V30 196 O 17.8972 -3.80442 1.59178 0
M  V30 197 H 17.2382 -0.476569 0.462362 0
M  V30 198 H 19.7682 -0.963853 1.80474 0
M  V30 199 H 19.7782 -3.35519 2.32145 0
M  V30 200 H 18.4532 -2.63299 3.21942 0
M  V30 201 H 17.0302 -3.39067 1.55203 0
M  V30 202 N 19.2153 -1.21501 -1.00376 0
M  V30 203 C 20.4643 -1.02718 -1.73586 0
M  V30 204 C 20.7773 0.439589 -1.90596 0
M  V30 205 O 21.9833 0.746848 -2.61026 0
M  V30 206 C 20.4393 -1.78929 -3.1227 0
M  V30 207 C 20.0473 -3.29783 -3.03228 0
M  V30 208 C 21.7913 -1.68557 -3.89601 0
M  V30 209 C 19.6983 -3.98479 -4.36999 0
M  V30 210 H 18.6283 -0.380733 -0.650814 0
M  V30 211 H 21.2793 -1.45248 -1.1214 0
M  V30 212 H 19.6613 -1.29192 -3.74333 0
M  V30 213 H 20.8353 -3.86832 -2.50395 0
M  V30 214 H 19.1503 -3.40711 -2.39385 0
M  V30 215 H 21.7473 -2.17211 -4.88593 0
M  V30 216 H 22.0903 -0.644021 -4.11288 0
M  V30 217 H 22.6233 -2.15778 -3.34193 0
M  V30 218 H 19.3623 -5.02841 -4.20513 0
M  V30 219 H 18.8823 -3.46219 -4.89788 0
M  V30 220 H 20.5613 -4.03462 -5.05794 0
M  V30 221 N 20.6934 1.19889 -1.02296 0
M  V30 222 C 22.1094 1.41462 -0.738954 0
M  V30 223 C 22.3094 1.89721 0.678846 0
M  V30 224 O 21.3654 2.07016 1.4457 0
M  V30 225 C 22.6784 2.43083 -1.77005 0
M  V30 226 C 24.2264 2.5684 -1.78892 0
M  V30 227 C 24.7014 3.61709 -2.80945 0
M  V30 228 N 26.1924 3.69199 -2.79725 0
M  V30 229 C 26.9274 4.50019 -3.55345 0
M  V30 230 N 26.4234 5.34592 -4.40662 0
M  V30 231 N 28.2164 4.44612 -3.43914 0
M  V30 232 H 20.3674 0.868827 -1.93817 0
M  V30 233 H 22.6304 0.44399 -0.837602 0
M  V30 234 H 22.3364 2.14636 -2.78612 0
M  V30 235 H 22.2104 3.4217 -1.58744 0
M  V30 236 H 24.5974 2.84614 -0.779674 0
M  V30 237 H 24.6784 1.57927 -2.01228 0
M  V30 238 H 24.3224 3.34678 -3.82038 0
M  V30 239 H 24.2524 4.60259 -2.5587 0
M  V30 240 H 26.7434 3.08794 -2.17842 0
M  V30 241 H 27.0564 5.93363 -4.95116 0
M  V30 242 H 25.4014 5.34073 -4.44737 0
M  V30 243 H 28.5924 3.7758 -2.76679 0
M  V30 244 H 28.7654 5.0736 -4.031 0
M  V30 245 N 22.1715 0.800033 1.35784 0
M  V30 246 C 23.5875 0.482977 1.52117 0
M  V30 247 C 23.7875 -0.996948 1.75109 0
M  V30 248 O 22.8435 -1.78216 1.78872 0
M  V30 249 C 24.1565 1.32264 2.70049 0
M  V30 250 C 25.7045 1.31742 2.83924 0
M  V30 251 C 26.1795 2.14106 4.04874 0
M  V30 252 N 27.6705 2.11607 4.12039 0
M  V30 253 C 28.4055 2.72099 5.04727 0
M  V30 254 N 27.9015 3.41492 6.02789 0
M  V30 255 N 29.6945 2.61776 4.97423 0
M  V30 256 H 21.8455 1.75856 1.19115 0
M  V30 257 H 24.1085 0.748122 0.582252 0
M  V30 258 H 23.8145 2.37261 2.59616 0
M  V30 259 H 23.6885 0.971303 3.6448 0
M  V30 260 H 26.0755 0.275333 2.93813 0
M  V30 261 H 26.1565 1.70859 1.9037 0
M  V30 262 H 25.8005 3.18351 3.95746 0
M  V30 263 H 25.7305 1.72353 4.97596 0
M  V30 264 H 28.2215 1.61112 3.41835 0
M  V30 265 H 28.5345 3.84953 6.70098 0
M  V30 266 H 26.8795 3.45596 6.02983 0
M  V30 267 H 30.0705 2.07157 4.19766 0
M  V30 268 H 30.2435 3.0921 5.69468 0
M  V30 269 N 23.6496 -1.47581 0.552962 0
M  V30 270 C 24.5796 -2.32762 -0.185451 0
M  V30 271 C 25.5606 -1.43527 -0.912905 0
M  V30 272 O 26.7456 -1.72388 -0.894201 0
M  V30 273 C 23.8756 -3.25219 -1.21859 0
M  V30 274 C 22.8296 -4.23661 -0.607864 0
M  V30 275 C 22.1556 -5.05413 -1.74533 0
M  V30 276 C 23.4556 -5.20481 0.435582 0
M  V30 277 H 25.1496 -2.94749 0.525684 0
M  V30 278 H 22.6956 -1.41738 0.254251 0
M  V30 279 H 24.6486 -3.8365 -1.7433 0
M  V30 280 H 23.3726 -2.61279 -1.95961 0
M  V30 281 H 22.0316 -3.66451 -0.104489 0
M  V30 282 H 21.6796 -4.3788 -2.47529 0
M  V30 283 H 21.3796 -5.72059 -1.34249 0
M  V30 284 H 22.9036 -5.66701 -2.27338 0
M  V30 285 H 24.3176 -5.733 -0.00290157 0
M  V30 286 H 22.7146 -5.95305 0.757067 0
M  V30 287 H 23.7846 -4.66217 1.33303 0
M  V30 288 N 25.1277 -0.289203 -1.54924 0
M  V30 289 C 26.5387 0.205791 -1.85562 0
M  V30 290 C 26.8897 1.54351 -1.2112 0
M  V30 291 O 26.0147 2.10435 -0.504601 0
M  V30 292 C 26.6097 0.380177 -3.3666 0
M  V30 293 C 25.1687 0.819395 -3.67373 0
M  V30 294 C 24.3157 -0.079159 -2.77187 0
M  V30 295 H 27.2667 -0.510577 -1.50262 0
M  V30 296 H 27.2877 1.21659 -3.60526 0
M  V30 297 H 26.7997 -0.593589 -3.83534 0
M  V30 298 H 24.9007 1.80413 -3.26009 0
M  V30 299 H 25.0137 0.646957 -4.74712 0
M  V30 300 H 23.3777 0.439565 -2.50878 0
M  V30 301 H 24.1607 -1.04906 -3.26878 0
M  V30 302 N 26.6058 1.57591 -0.0167156 0
M  V30 303 C 27.8528 1.91283 0.664597 0
M  V30 304 C 28.1808 0.891949 1.72842 0
M  V30 305 O 27.4358 -0.100931 1.9544 0
M  V30 306 C 27.7348 3.3172 1.33029 0
M  V30 307 C 27.4008 4.4914 0.398047 0
M  V30 308 C 26.0628 4.80992 0.141421 0
M  V30 309 C 28.4148 5.20634 -0.242825 0
M  V30 310 C 25.7428 5.81703 -0.764092 0
M  V30 311 C 28.0948 6.22311 -1.13632 0
M  V30 312 C 26.7588 6.52611 -1.40196 0
M  V30 313 H 26.0288 0.699956 0.243193 0
M  V30 314 H 28.6758 1.9135 -0.0758267 0
M  V30 315 H 26.9808 3.27856 2.14517 0
M  V30 316 H 28.6778 3.55055 1.86379 0
M  V30 317 H 25.2678 4.24262 0.608238 0
M  V30 318 H 29.4518 4.96267 -0.0576019 0
M  V30 319 H 24.7078 6.03532 -0.977732 0
M  V30 320 H 28.8818 6.76834 -1.63917 0
M  V30 321 H 26.5088 7.30467 -2.10529 0
M  V30 322 N 28.0839 -0.256276 1.55502 0
M  V30 323 C 29.3089 -1.00766 1.81276 0
M  V30 324 C 29.7339 -1.78524 0.59252 0
M  V30 325 O 29.0919 -1.75413 -0.45827 0
M  V30 326 C 29.1399 -1.92869 3.04687 0
M  V30 327 O 28.2439 -3.019 2.80945 0
M  V30 328 H 27.5849 -0.287224 0.598664 0
M  V30 329 H 30.1149 -0.280109 2.02674 0
M  V30 330 H 30.1249 -2.34511 3.33869 0
M  V30 331 H 28.7999 -1.35689 3.93143 0
M  V30 332 H 27.3769 -2.64454 2.62904 0
M  V30 333 N 29.562 -1.4872 -0.521534 0
M  V30 334 C 30.809 -1.57168 -1.27689 0
M  V30 335 C 31.137 -0.249275 -1.92896 0
M  V30 336 O 30.392 0.761162 -1.80291 0
M  V30 337 C 30.691 -2.66497 -2.38148 0
M  V30 338 C 30.357 -4.08664 -1.90538 0
M  V30 339 C 29.019 -4.47357 -1.77271 0
M  V30 340 C 31.371 -4.97724 -1.54663 0
M  V30 341 C 28.699 -5.72905 -1.26478 0
M  V30 342 C 31.051 -6.2377 -1.05329 0
M  V30 343 C 29.715 -6.61311 -0.906861 0
M  V30 344 H 28.985 -0.575117 -0.467249 0
M  V30 345 H 31.632 -1.82472 -0.581051 0
M  V30 346 H 29.937 -2.35085 -3.13437 0
M  V30 347 H 31.634 -2.70246 -2.96257 0
M  V30 348 H 28.224 -3.78111 -2.01816 0
M  V30 349 H 32.408 -4.68501 -1.63768 0
M  V30 350 H 27.664 -6.00709 -1.13835 0
M  V30 351 H 31.838 -6.9217 -0.76644 0
M  V30 352 H 29.465 -7.5848 -0.511083 0
M  V30 353 N 31.0401 0.771051 -1.3745 0
M  V30 354 C 32.0031 1.86598 -1.33093 0
M  V30 355 C 33.0031 1.59076 -0.234845 0
M  V30 356 O 34.1931 1.67145 -0.490732 0
M  V30 357 C 31.3251 3.23747 -1.06773 0
M  V30 358 H 32.5181 1.91873 -2.30488 0
M  V30 359 H 30.0711 0.970876 -1.2249 0
M  V30 360 H 30.8061 3.24148 -0.099129 0
M  V30 361 H 30.5911 3.45115 -1.86112 0
M  V30 362 H 32.0811 4.03824 -1.06377 0
M  V30 363 N 32.5182 1.22032 0.997298 0
M  V30 364 C 33.4662 0.983634 2.10778 0
M  V30 365 C 34.4602 -0.0717564 1.69248 0
M  V30 366 O 35.6662 0.080304 1.79821 0
M  V30 367 H 32.0412 0.300877 0.689186 0
M  V30 368 H 34.0122 1.92606 2.27916 0
M  V30 369 C 32.7612 0.57326 3.42942 0
M  V30 370 H 32.0842 1.37702 3.75338 0
M  V30 371 H 33.5242 0.447031 4.21637 0
M  V30 372 C 31.9832 -0.7167 3.29188 0
M  V30 373 O 32.5132 -1.77027 3.60589 0
M  V30 374 N 30.7192 -0.686167 2.82383 0
M  V30 375 H 30.2662 0.171507 2.57028 0
M  V30 376 H 30.2242 -1.54955 2.73562 0
M  V30 377 N 33.9963 -1.19345 1.0293 0
M  V30 378 C 35.4123 -1.41069 0.746446 0
M  V30 379 C 35.6123 -1.90078 -0.668776 0
M  V30 380 O 34.6683 -2.0778 -1.4347 0
M  V30 381 C 35.9813 -2.42141 1.78292 0
M  V30 382 C 37.5293 -2.55887 1.80252 0
M  V30 383 C 38.0043 -3.60214 2.8286 0
M  V30 384 N 39.4953 -3.67711 2.81679 0
M  V30 385 C 40.2303 -4.48128 3.57727 0
M  V30 386 N 39.7263 -5.32248 4.43491 0
M  V30 387 N 41.5193 -4.42782 3.46267 0
M  V30 388 H 33.6703 -0.858536 1.94275 0
M  V30 389 H 35.9333 -0.439541 0.839945 0
M  V30 390 H 35.6393 -2.13155 2.79746 0
M  V30 391 H 35.5133 -3.41323 1.60557 0
M  V30 392 H 37.9003 -2.84196 0.794757 0
M  V30 393 H 37.9813 -1.56858 2.02062 0
M  V30 394 H 37.6253 -3.32647 3.83807 0
M  V30 395 H 37.5553 -4.58895 2.58307 0
M  V30 396 H 40.0463 -3.07634 2.19476 0
M  V30 397 H 40.3593 -5.90729 4.98256 0
M  V30 398 H 38.7043 -5.31707 4.47564 0
M  V30 399 H 41.8953 -3.76107 2.78677 0
M  V30 400 H 42.0683 -5.05215 4.05785 0
M  V30 401 N 35.4744 -0.807222 -1.35358 0
M  V30 402 C 36.7214 -0.387888 -1.9875 0
M  V30 403 C 37.0494 1.04509 -1.64037 0
M  V30 404 O 36.3044 1.73986 -0.895946 0
M  V30 405 C 36.6034 -0.519036 -3.53611 0
M  V30 406 C 36.2694 -1.91542 -4.08194 0
M  V30 407 C 34.9314 -2.29745 -4.22813 0
M  V30 408 C 37.2834 -2.82896 -4.37744 0
M  V30 409 C 34.6114 -3.58668 -4.643 0
M  V30 410 C 36.9634 -4.11265 -4.8067 0
M  V30 411 C 35.6274 -4.49466 -4.93494 0
M  V30 412 H 34.8974 -0.141938 -0.727279 0
M  V30 413 H 37.5444 -1.02814 -1.6156 0
M  V30 414 H 35.8494 0.204658 -3.91265 0
M  V30 415 H 37.5464 -0.175345 -4.00616 0
M  V30 416 H 34.1364 -1.60862 -3.97268 0
M  V30 417 H 38.3204 -2.54629 -4.26002 0
M  V30 418 H 33.5764 -3.88113 -4.72418 0
M  V30 419 H 37.7504 -4.82153 -5.02496 0
M  V30 420 H 35.3774 -5.49418 -5.25399 0
M  V30 421 N 36.9525 1.47285 -0.560781 0
M  V30 422 C 37.8995 2.30058 0.18491 0
M  V30 423 C 38.8695 1.39281 0.904986 0
M  V30 424 O 40.0545 1.68241 0.899979 0
M  V30 425 C 37.1945 3.23317 1.20666 0
M  V30 426 C 36.3075 4.29186 0.492285 0
M  V30 427 C 35.4425 5.09592 1.49964 0
M  V30 428 C 34.4815 6.07232 0.770439 0
M  V30 429 N 33.6185 6.80584 1.72479 0
M  V30 430 H 38.4585 2.93302 -0.527048 0
M  V30 431 H 35.9955 1.44568 -0.271738 0
M  V30 432 H 37.9535 3.75811 1.81168 0
M  V30 433 H 36.5835 2.61929 1.88661 0
M  V30 434 H 35.6355 3.7972 -0.227333 0
M  V30 435 H 36.9475 4.98738 -0.0787929 0
M  V30 436 H 36.1015 5.66254 2.17809 0
M  V30 437 H 34.8405 4.3995 2.10464 0
M  V30 438 H 33.8455 5.49745 0.0780846 0
M  V30 439 H 35.0705 6.78884 0.171134 0
M  V30 440 H 33.0165 6.1367 2.3183 0
M  V30 441 H 32.9335 7.46319 1.20596 0
M  V30 442 H 34.2015 7.41818 2.39428 0
M  V30 443 N 38.4306 0.297415 1.54768 0
M  V30 444 C 39.3606 -0.573494 2.26348 0
M  V30 445 C 40.3416 -1.14085 1.26169 0
M  V30 446 O 41.5266 -1.17086 1.54934 0
M  V30 447 C 38.6566 -1.74716 3.00153 0
M  V30 448 C 37.6106 -1.31032 4.07449 0
M  V30 449 C 36.9366 -2.56887 4.68949 0
M  V30 450 C 38.2366 -0.444183 5.20408 0
M  V30 451 H 39.9306 0.0235131 2.99391 0
M  V30 452 H 37.4766 0.0127488 1.43994 0
M  V30 453 H 39.4296 -2.3625 3.48947 0
M  V30 454 H 38.1536 -2.37035 2.24682 0
M  V30 455 H 36.8126 -0.718066 3.59499 0
M  V30 456 H 36.4606 -3.17512 3.90122 0
M  V30 457 H 36.1606 -2.2836 5.41411 0
M  V30 458 H 37.6846 -3.19229 5.20505 0
M  V30 459 H 39.0986 -0.9651 5.65118 0
M  V30 460 H 37.4956 -0.252846 5.99567 0
M  V30 461 H 38.5656 0.531609 4.81977 0
M  V30 462 N 39.9087 -1.5758 0.0250728 0
M  V30 463 C 41.1547 -1.91917 -0.655413 0
M  V30 464 C 41.4877 -0.901433 -1.72011 0
M  V30 465 O 40.7627 0.0764069 -1.9435 0
M  V30 466 C 41.0457 -3.36751 -1.27558 0
M  V30 467 C 40.8987 -4.49258 -0.220719 0
M  V30 468 C 42.2177 -3.81469 -2.19475 0
M  V30 469 H 39.3367 -0.697925 -0.23679 0
M  V30 470 H 41.9787 -1.89825 0.0815036 0
M  V30 471 H 40.1287 -3.38664 -1.90365 0
M  V30 472 H 41.8007 -4.59478 0.409601 0
M  V30 473 H 40.0437 -4.31415 0.454264 0
M  V30 474 H 40.7147 -5.47618 -0.694175 0
M  V30 475 H 43.1907 -3.81266 -1.66659 0
M  V30 476 H 42.0667 -4.83512 -2.59822 0
M  V30 477 H 42.3277 -3.16744 -3.08424 0
M  V30 478 N 41.3868 0.248026 -1.55636 0
M  V30 479 C 42.3168 1.31079 -1.93237 0
M  V30 480 C 43.2978 1.50264 -0.797174 0
M  V30 481 O 44.4828 1.62891 -1.05737 0
M  V30 482 C 41.6128 2.66575 -2.22609 0
M  V30 483 C 40.5668 2.62087 -3.3837 0
M  V30 484 C 39.8928 4.01369 -3.53281 0
M  V30 485 C 41.1928 2.19171 -4.7409 0
M  V30 486 H 42.8868 0.998556 -2.82257 0
M  V30 487 H 40.4328 0.47891 -1.35803 0
M  V30 488 H 42.3858 3.41057 -2.47503 0
M  V30 489 H 41.1098 2.99432 -1.30414 0
M  V30 490 H 39.7688 1.90063 -3.13483 0
M  V30 491 H 39.4168 4.31489 -2.58508 0
M  V30 492 H 39.1168 3.99254 -4.31127 0
M  V30 493 H 40.6408 4.77552 -3.80495 0
M  V30 494 H 42.0548 2.83384 -4.98363 0
M  V30 495 H 40.4518 2.2817 -5.5503 0
M  V30 496 H 41.5218 1.14336 -4.71227 0
M  V30 497 N 42.8649 1.48995 0.513639 0
M  V30 498 C 44.1419 1.48338 1.27495 0
M  V30 499 C 44.5219 0.204065 2.10111 0
M  V30 500 O 43.8699 -0.813881 2.13514 0
M  V30 501 C 44.0799 2.75498 2.14247 0
M  V30 502 C 45.4279 3.24484 2.73852 0
M  V30 503 O 46.4519 2.76528 2.24523 0
M  V30 504 O 45.3109 4.07974 3.6362 0
M  V30 505 H 42.4049 0.593149 0.576284 0
M  V30 506 H 44.9509 1.61246 0.528948 0
M  V30 507 H 43.7229 3.60109 1.53092 0
M  V30 508 H 43.3459 2.6539 2.96064 0
M  V30 509 N 44.343 -0.763751 1.37857 0
M  V30 510 C 45.589 -1.52396 1.3471 0
M  V30 511 C 45.944 -1.92288 -0.0656435 0
M  V30 512 O 45.237 -1.6181 -1.02606 0
M  V30 513 C 45.431 -2.79499 2.22745 0
M  V30 514 C 45.26 -2.52031 3.72438 0
M  V30 515 C 44.03 -2.45759 4.4151 0
M  V30 516 C 46.228 -2.19489 4.65112 0
M  V30 517 N 44.21 -2.1046 5.76697 0
M  V30 518 C 45.581 -1.94396 5.88736 0
M  V30 519 C 47.636 -2.05712 4.53417 0
M  V30 520 C 46.339 -1.56917 7.01975 0
M  V30 521 C 48.365 -1.69634 5.66549 0
M  V30 522 C 47.727 -1.45407 6.89229 0
M  V30 523 H 43.826 -0.55765 0.548225 0
M  V30 524 H 46.41 -0.890302 1.73152 0
M  V30 525 H 44.581 -3.4069 1.86507 0
M  V30 526 H 46.313 -3.45465 2.10798 0
M  V30 527 H 43.068 -2.61885 3.94605 0
M  V30 528 H 43.492 -1.95484 6.48163 0
M  V30 529 H 48.134 -2.23123 3.59133 0
M  V30 530 H 45.852 -1.38246 7.96187 0
M  V30 531 H 49.438 -1.59621 5.59475 0
M  V30 532 H 48.318 -1.17904 7.75286 0
M  V30 533 N 45.8211 -1.22559 -0.990812 0
M  V30 534 C 46.7691 -0.994798 -2.10253 0
M  V30 535 C 47.7631 0.0627798 -1.69284 0
M  V30 536 O 48.9691 -0.0898392 -1.79776 0
M  V30 537 H 45.3441 -0.304527 -0.687581 0
M  V30 538 H 47.3151 -1.93812 -2.26891 0
M  V30 539 C 46.0641 -0.591439 -3.42633 0
M  V30 540 H 45.3871 -1.3969 -3.74602 0
M  V30 541 H 46.8271 -0.469385 -4.21394 0
M  V30 542 C 45.2861 0.699232 -3.29564 0
M  V30 543 O 45.8161 1.75112 -3.61523 0
M  V30 544 N 44.0221 0.671182 -2.82743 0
M  V30 545 H 43.5691 -0.185136 -2.56934 0
M  V30 546 H 43.5271 1.53502 -2.7438 0
M  V30 547 N 47.2992 1.18797 -1.03562 0
M  V30 548 C 48.2092 2.25913 -0.632505 0
M  V30 549 C 49.2252 1.70668 0.338882 0
M  V30 550 O 50.4012 2.00453 0.195076 0
M  V30 551 C 47.4662 3.467 0.00350942 0
M  V30 552 C 46.5272 4.17098 -1.01624 0
M  V30 553 C 45.7602 5.32119 -0.410478 0
M  V30 554 O 45.9832 5.64976 0.784725 0
M  V30 555 O 44.9172 5.9107 -1.13667 0
M  V30 556 H 48.7432 2.62648 -1.52478 0
M  V30 557 H 46.3282 1.25781 -0.806195 0
M  V30 558 H 48.2102 4.19878 0.35781 0
M  V30 559 H 46.8852 3.11798 0.869686 0
M  V30 560 H 45.7922 3.4601 -1.42224 0
M  V30 561 H 47.1252 4.55987 -1.85301 0
M  V30 562 N 48.7773 0.814389 1.34928 0
M  V30 563 C 50.0543 0.321363 1.92942 0
M  V30 564 C 50.4343 -1.19014 1.74353 0
M  V30 565 O 49.7823 -1.99328 1.11716 0
M  V30 566 C 49.9923 0.741323 3.41036 0
M  V30 567 C 51.3403 0.735266 4.18185 0
M  V30 568 O 52.3643 0.68336 3.49584 0
M  V30 569 O 51.2233 0.800703 5.40602 0
M  V30 570 H 48.3173 0.0858893 0.822528 0
M  V30 571 H 50.8633 0.898609 1.43955 0
M  V30 572 H 49.6353 1.78276 3.4833 0
M  V30 573 H 49.2583 0.139307 3.97356 0
M  V30 574 N 50.2554 -1.46986 0.568584 0
M  V30 575 C 51.5024 -2.02441 0.0487986 0
M  V30 576 C 51.8304 -1.44169 -1.30559 0
M  V30 577 O 51.0854 -0.591213 -1.86556 0
M  V30 578 C 51.3844 -3.57306 -0.081836 0
M  V30 579 C 51.0504 -4.34552 1.20313 0
M  V30 580 C 49.7124 -4.55376 1.5552 0
M  V30 581 C 52.0644 -4.79016 2.05411 0
M  V30 582 C 49.3924 -5.17913 2.7565 0
M  V30 583 C 51.7444 -5.42879 3.24754 0
M  V30 584 C 50.4084 -5.61933 3.60261 0
M  V30 585 H 49.6784 -0.740785 0.0178567 0
M  V30 586 H 52.3254 -1.76525 0.742384 0
M  V30 587 H 50.6304 -3.8228 -0.858463 0
M  V30 588 H 52.3274 -3.97876 -0.499546 0
M  V30 589 H 48.9174 -4.18631 0.919014 0
M  V30 590 H 53.1014 -4.62696 1.79516 0
M  V30 591 H 48.3574 -5.30858 3.03315 0
M  V30 592 H 52.5314 -5.76293 3.90973 0
M  V30 593 H 50.1584 -6.10161 4.53439 0
M  V30 594 N 51.7335 -0.305618 -1.54608 0
M  V30 595 C 52.9585 0.307562 -2.05107 0
M  V30 596 C 53.3835 1.46385 -1.18123 0
M  V30 597 O 52.7415 1.8034 -0.186324 0
M  V30 598 C 52.7895 0.73704 -3.52987 0
M  V30 599 O 51.8935 1.84134 -3.6901 0
M  V30 600 H 51.2345 0.0589143 -0.661381 0
M  V30 601 H 53.7645 -0.448807 -1.99617 0
M  V30 602 H 53.7745 1.02459 -3.94925 0
M  V30 603 H 52.4495 -0.108773 -4.15758 0
M  V30 604 H 51.0265 1.55398 -3.38978 0
M  V30 605 N 53.2116 1.57565 -0.0334293 0
M  V30 606 C 54.1436 2.0739 0.975811 0
M  V30 607 C 55.1566 0.998166 1.2861 0
M  V30 608 O 56.3456 1.27426 1.25 0
M  V30 609 C 53.4456 2.4871 2.30209 0
M  V30 610 C 52.6186 3.79413 2.17634 0
M  V30 611 C 51.6776 4.07237 3.33233 0
M  V30 612 O 50.7036 4.77425 3.09927 0
M  V30 613 N 51.9056 3.5775 4.5716 0
M  V30 614 H 54.6706 2.94598 0.55066 0
M  V30 615 H 52.2316 1.61173 0.15323 0
M  V30 616 H 54.2236 2.64413 3.06378 0
M  V30 617 H 52.7936 1.66845 2.64351 0
M  V30 618 H 52.0136 3.73465 1.26165 0
M  V30 619 H 53.3016 4.65038 2.0644 0
M  V30 620 H 52.6996 3.00976 4.78989 0
M  V30 621 H 51.2566 3.78724 5.30482 0
M  V30 622 N 54.6897 -0.239769 1.55765 0
M  V30 623 C 55.6527 -1.28038 1.90103 0
M  V30 624 C 56.6527 -1.40723 0.778055 0
M  V30 625 O 57.8427 -1.39301 1.04599 0
M  V30 626 C 54.9747 -2.65702 2.13577 0
M  V30 627 H 56.1677 -0.988048 2.83157 0
M  V30 628 H 53.7207 -0.479382 1.48767 0
M  V30 629 H 54.4557 -3.00063 1.23015 0
M  V30 630 H 54.2407 -2.57875 2.95369 0
M  V30 631 H 55.7307 -3.40828 2.41301 0
M  V30 632 N 56.1678 -1.49265 -0.50573 0
M  V30 633 C 57.3928 -1.62478 -1.28902 0
M  V30 634 C 57.8178 -0.294332 -1.85783 0
M  V30 635 O 57.1758 0.737412 -1.65626 0
M  V30 636 C 57.2238 -2.69268 -2.39848 0
M  V30 637 O 56.3278 -2.28113 -3.43567 0
M  V30 638 H 55.6688 -0.54399 -0.380751 0
M  V30 639 H 58.1988 -1.95421 -0.605952 0
M  V30 640 H 58.2088 -2.91291 -2.85681 0
M  V30 641 H 56.8838 -3.65846 -1.97812 0
M  V30 642 H 55.4608 -2.16401 -3.03685 0
M  V30 643 N 57.6459 0.756429 -1.3826 0
M  V30 644 C 58.8949 1.51082 -1.3363 0
M  V30 645 C 59.2079 1.95467 0.0720068 0
M  V30 646 O 60.4139 2.7043 0.240834 0
M  V30 647 C 58.8699 2.72893 -2.34644 0
M  V30 648 C 58.4779 2.35544 -3.81081 0
M  V30 649 C 60.2219 3.50791 -2.39052 0
M  V30 650 C 58.1289 3.53948 -4.73787 0
M  V30 651 H 57.0589 0.56727 -0.49671 0
M  V30 652 H 59.7099 0.827147 -1.638 0
M  V30 653 H 58.0919 3.43227 -1.97513 0
M  V30 654 H 59.2659 1.72894 -4.27135 0
M  V30 655 H 57.5809 1.70786 -3.79764 0
M  V30 656 H 60.1779 4.38823 -3.05513 0
M  V30 657 H 60.5209 3.91745 -1.40861 0
M  V30 658 H 61.0539 2.87467 -2.74968 0
M  V30 659 H 57.7929 3.18064 -5.73163 0
M  V30 660 H 57.3129 4.15651 -4.32428 0
M  V30 661 H 58.9919 4.20566 -4.91663 0
M  V30 662 N 59.124 1.23083 0.984299 0
M  V30 663 C 60.354 1.08556 1.75781 0
M  V30 664 C 60.762 -0.366171 1.85623 0
M  V30 665 O 60.105 -1.26524 1.33182 0
M  V30 666 C 60.167 1.63208 3.20318 0
M  V30 667 C 59.831 3.11922 3.33997 0
M  V30 668 C 60.828 4.09259 3.2063 0
M  V30 669 C 58.513 3.51552 3.58771 0
M  V30 670 C 60.507 5.4421 3.31835 0
M  V30 671 C 58.194 4.86649 3.69616 0
M  V30 672 C 59.192 5.82787 3.56157 0
M  V30 673 O 58.88 7.15431 3.66626 0
M  V30 674 H 58.612 0.380713 0.5586 0
M  V30 675 H 61.166 1.63321 1.2456 0
M  V30 676 H 59.396 1.0286 3.72769 0
M  V30 677 H 61.085 1.44216 3.79416 0
M  V30 678 H 61.851 3.79984 3.01392 0
M  V30 679 H 57.73 2.77239 3.6832 0
M  V30 680 H 61.274 6.1923 3.21247 0
M  V30 681 H 57.171 5.15601 3.88363 0
M  V30 682 H 57.939 7.23127 3.83445 0
M  V30 683 N 60.6021 -1.18246 1.0419 0
M  V30 684 C 61.8321 -1.91916 0.764961 0
M  V30 685 C 62.2401 -1.76485 -0.681898 0
M  V30 686 O 61.5831 -1.09275 -1.47664 0
M  V30 687 C 61.6451 -3.4373 1.05309 0
M  V30 688 C 61.3091 -3.8294 2.4941 0
M  V30 689 C 62.3061 -3.86621 3.47592 0
M  V30 690 C 59.9911 -4.142 2.84155 0
M  V30 691 C 61.9851 -4.21013 4.78568 0
M  V30 692 C 59.6721 -4.48262 4.15337 0
M  V30 693 C 60.6701 -4.51645 5.12353 0
M  V30 694 O 60.3581 -4.84911 6.41183 0
M  V30 695 H 60.0901 -0.61606 0.278292 0
M  V30 696 H 62.6441 -1.50947 1.39299 0
M  V30 697 H 60.8741 -3.84946 0.367933 0
M  V30 698 H 62.5631 -3.9865 0.763752 0
M  V30 699 H 63.3291 -3.62607 3.22089 0
M  V30 700 H 59.2081 -4.10743 2.09311 0
M  V30 701 H 62.7521 -4.23568 5.54289 0
M  V30 702 H 58.6491 -4.71737 4.40607 0
M  V30 703 H 59.4171 -5.02809 6.45852 0
M  V30 704 N 62.0802 -0.821533 -1.34494 0
M  V30 705 C 63.0102 -0.257138 -2.3208 0
M  V30 706 C 63.9912 0.625645 -1.58176 0
M  V30 707 O 65.1762 0.552811 -1.86166 0
M  V30 708 C 62.3062 0.582958 -3.42372 0
M  V30 709 C 61.2602 -0.202571 -4.2752 0
M  V30 710 C 60.5862 0.760179 -5.29269 0
M  V30 711 C 61.8862 -1.40998 -5.02908 0
M  V30 712 H 63.5802 -1.07247 -2.79532 0
M  V30 713 H 61.1262 -0.517163 -1.34393 0
M  V30 714 H 63.0792 0.987972 -4.09655 0
M  V30 715 H 61.8032 1.43133 -2.93565 0
M  V30 716 H 60.4622 -0.588936 -3.61838 0
M  V30 717 H 60.1102 1.60447 -4.76724 0
M  V30 718 H 59.8102 0.238809 -5.87115 0
M  V30 719 H 61.3342 1.16308 -5.9942 0
M  V30 720 H 62.7482 -1.07905 -5.63054 0
M  V30 721 H 61.1452 -1.86689 -5.70322 0
M  V30 722 H 62.2152 -2.1889 -4.32684 0
M  V30 723 N 63.5583 1.46682 -0.576371 0
M  V30 724 C 64.5213 2.28707 0.150239 0
M  V30 725 C 65.5213 1.38035 0.824794 0
M  V30 726 O 66.7113 1.60476 0.677719 0
M  V30 727 C 63.8433 3.18248 1.22192 0
M  V30 728 H 65.0363 2.94423 -0.570521 0
M  V30 729 H 62.5893 1.52688 -0.334078 0
M  V30 730 H 63.3243 2.57265 1.97447 0
M  V30 731 H 63.1093 3.85 0.742812 0
M  V30 732 H 64.5993 3.80001 1.73172 0
M  V30 733 N 65.0364 0.313813 1.54444 0
M  V30 734 C 66.4474 -0.176243 1.85866 0
M  V30 735 C 66.7984 -1.52405 1.23561 0
M  V30 736 O 65.9234 -2.09605 0.538016 0
M  V30 737 C 66.5184 -0.32657 3.37222 0
M  V30 738 C 65.0774 -0.760846 3.6863 0
M  V30 739 C 64.2244 0.123247 2.77026 0
M  V30 740 H 67.1754 0.534418 1.49431 0
M  V30 741 H 67.1964 -1.15908 3.62416 0
M  V30 742 H 66.7084 0.654531 3.82541 0
M  V30 743 H 64.8094 -1.75204 3.28838 0
M  V30 744 H 64.9224 -0.571353 4.75681 0
M  V30 745 H 63.2864 -0.399597 2.51546 0
M  V30 746 H 64.0694 1.10094 3.25168 0
M  V30 747 N 66.5145 -1.57545 0.0417849 0
M  V30 748 C 67.4445 -2.14009 -0.933929 0
M  V30 749 C 68.4255 -1.05938 -1.33083 0
M  V30 750 O 69.6105 -1.33833 -1.40721 0
M  V30 751 C 66.7405 -2.67747 -2.21199 0
M  V30 752 C 65.6945 -3.80718 -1.95544 0
M  V30 753 C 65.0205 -4.20935 -3.29724 0
M  V30 754 C 66.3205 -5.06258 -1.28452 0
M  V30 755 H 68.0145 -2.95788 -0.463645 0
M  V30 756 H 65.5605 -1.42285 -0.221573 0
M  V30 757 H 67.5135 -3.05886 -2.89848 0
M  V30 758 H 66.2375 -1.83147 -2.70416 0
M  V30 759 H 64.8965 -3.43037 -1.2931 0
M  V30 760 H 64.5445 -3.33298 -3.76724 0
M  V30 761 H 64.2445 -4.9707 -3.13361 0
M  V30 762 H 65.7685 -4.61666 -3.9962 0
M  V30 763 H 67.1825 -5.41903 -1.8712 0
M  V30 764 H 65.5795 -5.87475 -1.22445 0
M  V30 765 H 66.6495 -4.84207 -0.259219 0
M  V30 766 N 67.9926 0.231505 -1.5589 0
M  V30 767 C 69.2176 0.978689 -1.82856 0
M  V30 768 C 69.6426 1.77559 -0.620846 0
M  V30 769 O 69.0006 1.76119 0.430305 0
M  V30 770 C 69.0486 1.87997 -3.07716 0
M  V30 771 O 68.1526 2.97393 -2.85712 0
M  V30 772 H 67.4936 0.277663 -0.603158 0
M  V30 773 H 70.0236 0.24783 -2.03093 0
M  V30 774 H 70.0336 2.2917 -3.37558 0
M  V30 775 H 68.7086 1.29417 -3.95252 0
M  V30 776 H 67.2856 2.60238 -2.67078 0
M  V30 777 N 69.4707 1.49531 0.497807 0
M  V30 778 C 70.4037 1.61043 1.6168 0
M  V30 779 C 71.3817 0.459386 1.55976 0
M  V30 780 O 72.5657 0.675358 1.75986 0
M  V30 781 C 69.6927 1.56833 3.00202 0
M  V30 782 C 68.7387 2.77173 3.24156 0
M  V30 783 S 69.5717 4.38808 3.06933 0
M  V30 784 C 70.7277 4.37248 4.47845 0
M  V30 785 H 70.9607 2.55702 1.51671 0
M  V30 786 H 68.4937 1.38462 0.683201 0
M  V30 787 H 70.4517 1.55089 3.80076 0
M  V30 788 H 69.1127 0.634561 3.07623 0
M  V30 789 H 68.3057 2.70456 4.25288 0
M  V30 790 H 67.9077 2.76346 2.5201 0
M  V30 791 H 70.1997 4.09164 5.39992 0
M  V30 792 H 71.1427 5.38668 4.59612 0
M  V30 793 H 71.5507 3.67286 4.28674 0
M  V30 794 N 70.9488 -0.749086 1.3866 0
M  V30 795 C 71.8588 -1.89358 1.38494 0
M  V30 796 C 72.8748 -1.71708 0.281476 0
M  V30 797 O 74.0508 -1.94554 0.520643 0
M  V30 798 C 71.1158 -3.24782 1.21316 0
M  V30 799 C 70.1768 -3.54926 2.41508 0
M  V30 800 C 69.4098 -4.83888 2.2514 0
M  V30 801 O 69.6328 -5.56592 1.24746 0
M  V30 802 O 68.5668 -5.13612 3.13826 0
M  V30 803 H 72.3928 -1.92452 2.34938 0
M  V30 804 H 69.9778 -0.894981 1.19626 0
M  V30 805 H 71.8598 -4.05739 1.13814 0
M  V30 806 H 70.5348 -3.2249 0.279592 0
M  V30 807 H 69.4418 -2.74112 2.54585 0
M  V30 808 H 70.7748 -3.61983 3.3351 0
M  V30 809 N 72.4269 -1.23603 -0.977757 0
M  V30 810 C 73.3899 -1.02069 -2.05218 0
M  V30 811 C 74.3899 0.0184305 -1.60789 0
M  V30 812 O 75.5799 -0.221569 -1.72785 0
M  V30 813 C 72.7119 -0.544926 -3.36517 0
M  V30 814 H 73.9049 -1.9742 -2.25755 0
M  V30 815 H 71.4579 -1.05684 -1.15155 0
M  V30 816 H 72.1929 0.412241 -3.21669 0
M  V30 817 H 71.9779 -1.2948 -3.70105 0
M  V30 818 H 73.4679 -0.414985 -4.15533 0
M  V30 819 N 73.905 1.17692 -1.04816 0
M  V30 820 C 74.835 2.23777 -0.666791 0
M  V30 821 C 75.816 1.66796 0.33361 0
M  V30 822 O 77.001 1.93039 0.212042 0
M  V30 823 C 74.131 3.47281 -0.0367933 0
M  V30 824 C 73.085 4.17059 -0.961546 0
M  V30 825 C 72.411 5.34342 -0.195626 0
M  V30 826 C 73.711 4.69713 -2.28402 0
M  V30 827 H 75.405 2.55933 -1.55367 0
M  V30 828 H 72.951 1.23019 -0.748484 0
M  V30 829 H 74.904 4.20706 0.241775 0
M  V30 830 H 73.628 3.14381 0.885004 0
M  V30 831 H 72.287 3.45541 -1.22462 0
M  V30 832 H 71.935 4.97692 0.728816 0
M  V30 833 H 71.635 5.81966 -0.811775 0
M  V30 834 H 73.159 6.10553 0.0757473 0
M  V30 835 H 74.573 5.34794 -2.06563 0
M  V30 836 H 72.97 5.279 -2.8538 0
M  V30 837 H 74.04 3.86726 -2.92525 0
M  V30 838 N 75.3831 0.828654 1.34056 0
M  V30 839 C 76.6291 0.42008 1.98402 0
M  V30 840 C 76.9621 -1.01564 1.65525 0
M  V30 841 O 76.2371 -1.70834 0.929831 0
M  V30 842 C 76.5201 0.62927 3.54559 0
M  V30 843 C 76.3731 2.11152 3.97159 0
M  V30 844 C 77.6921 0.0688756 4.40046 0
M  V30 845 H 74.8111 0.154104 0.720709 0
M  V30 846 H 77.4531 1.04228 1.5886 0
M  V30 847 H 75.6031 0.0996418 3.88372 0
M  V30 848 H 77.2751 2.70522 3.73651 0
M  V30 849 H 75.5181 2.59985 3.47261 0
M  V30 850 H 76.1891 2.20868 5.05887 0
M  V30 851 H 78.6651 0.521458 4.1282 0
M  V30 852 H 77.5411 0.245006 5.48353 0
M  V30 853 H 77.8021 -1.0266 4.30015 0
M  V30 854 N 76.8612 -1.46375 0.584142 0
M  V30 855 C 77.7712 -2.34115 -0.150728 0
M  V30 856 C 78.7872 -1.49838 -0.884567 0
M  V30 857 O 79.9632 -1.82704 -0.847429 0
M  V30 858 C 77.0282 -3.2705 -1.15062 0
M  V30 859 C 76.0892 -4.27228 -0.421293 0
M  V30 860 C 75.3222 -5.15722 -1.37355 0
M  V30 861 O 75.5452 -5.07176 -2.61014 0
M  V30 862 O 74.4792 -5.95383 -0.883355 0
M  V30 863 H 78.3052 -2.98309 0.569708 0
M  V30 864 H 75.8902 -1.45373 0.344535 0
M  V30 865 H 77.7722 -3.84381 -1.72712 0
M  V30 866 H 76.4472 -2.65451 -1.8525 0
M  V30 867 H 75.3542 -3.7358 0.197085 0
M  V30 868 H 76.6872 -4.91616 0.239641 0
M  V30 869 N 78.3393 -0.321999 -1.54275 0
M  V30 870 C 79.5673 0.283052 -2.04955 0
M  V30 871 C 79.9823 1.45904 -1.19823 0
M  V30 872 O 79.3393 1.81063 -0.228545 0
M  V30 873 C 79.3903 0.719028 -3.54277 0
M  V30 874 O 79.1113 -0.410175 -4.36176 0
M  V30 875 C 80.6123 1.38705 -4.21041 0
M  V30 876 H 77.8323 0.0584616 -0.668448 0
M  V30 877 H 80.3763 -0.467734 -1.99079 0
M  V30 878 H 78.5313 1.41979 -3.60445 0
M  V30 879 H 78.9453 -0.0669416 -5.24457 0
M  V30 880 H 80.4193 1.64306 -5.2698 0
M  V30 881 H 80.8963 2.33385 -3.72059 0
M  V30 882 H 81.5023 0.728906 -4.19007 0
M  V30 883 N 79.8174 1.5752 -0.0501392 0
M  V30 884 C 80.7644 2.1147 0.924603 0
M  V30 885 C 81.7344 1.02182 1.30951 0
M  V30 886 O 82.9194 1.29723 1.39916 0
M  V30 887 C 80.0594 2.66337 2.19451 0
M  V30 888 C 79.1724 3.89708 1.86418 0
M  V30 889 C 78.3074 4.32893 3.07859 0
M  V30 890 C 77.3464 5.48967 2.70742 0
M  V30 891 N 76.4834 5.87211 3.84874 0
M  V30 892 H 81.3234 2.94465 0.457639 0
M  V30 893 H 78.8604 1.45531 0.214266 0
M  V30 894 H 80.8184 2.96247 2.93758 0
M  V30 895 H 79.4484 1.86141 2.63726 0
M  V30 896 H 78.5004 3.66396 1.02264 0
M  V30 897 H 79.8124 4.74074 1.55096 0
M  V30 898 H 78.9664 4.6435 3.90466 0
M  V30 899 H 77.7054 3.47336 3.42358 0
M  V30 900 H 76.7104 5.17183 1.86551 0
M  V30 901 H 77.9354 6.3624 2.37436 0
M  V30 902 H 75.8814 5.04607 4.19175 0
M  V30 903 H 75.7984 6.66266 3.57247 0
M  V30 904 H 77.0664 6.23282 4.68123 0
M  V30 905 N 81.2955 -0.223234 1.56011 0
M  V30 906 C 82.7115 -0.572856 1.48965 0
M  V30 907 C 82.9115 -1.87225 0.74492 0
M  V30 908 O 81.9675 -2.50899 0.283896 0
M  V30 909 C 83.2805 -0.653646 2.9351 0
M  V30 910 C 84.8285 -0.744386 3.0402 0
M  V30 911 C 85.3035 -0.856535 4.49919 0
M  V30 912 N 86.7945 -0.9208 4.53955 0
M  V30 913 C 87.5295 -1.02726 5.64123 0
M  V30 914 N 87.0255 -1.09777 6.84047 0
M  V30 915 N 88.8185 -1.06226 5.51971 0
M  V30 916 H 80.9695 0.629462 2.02858 0
M  V30 917 H 83.2325 0.220621 0.921971 0
M  V30 918 H 82.9385 0.231518 3.50937 0
M  V30 919 H 82.8125 -1.51781 3.45315 0
M  V30 920 H 85.1995 -1.61999 2.46658 0
M  V30 921 H 85.2805 0.14541 2.55386 0
M  V30 922 H 84.9245 0.0146069 5.07898 0
M  V30 923 H 84.8545 -1.76172 4.96257 0
M  V30 924 H 87.3455 -0.876694 3.6759 0
M  V30 925 H 87.6585 -1.17872 7.63758 0
M  V30 926 H 86.0035 -1.06693 6.86762 0
M  V30 927 H 89.1945 -1.00382 4.5721 0
M  V30 928 H 89.3675 -1.14177 6.37862 0
M  V30 929 N 82.7736 -1.49793 -0.48987 0
M  V30 930 C 84.0196 -1.60078 -1.24511 0
M  V30 931 C 84.3526 -0.291608 -1.91998 0
M  V30 932 O 83.6276 0.705647 -1.81248 0
M  V30 933 C 83.9106 -2.76791 -2.30345 0
M  V30 934 C 83.7636 -4.17535 -1.67286 0
M  V30 935 C 85.0826 -2.89111 -3.31817 0
M  V30 936 H 82.2016 -0.582645 -0.451324 0
M  V30 937 H 84.8436 -1.82117 -0.541612 0
M  V30 938 H 82.9936 -2.5813 -2.90346 0
M  V30 939 H 84.6656 -4.4774 -1.11026 0
M  V30 940 H 82.9086 -4.22665 -0.976577 0
M  V30 941 H 83.5796 -4.95094 -2.44103 0
M  V30 942 H 86.0556 -3.06133 -2.81819 0
M  V30 943 H 84.9316 -3.72433 -4.03219 0
M  V30 944 H 85.1926 -1.9893 -3.94815 0
M  V30 945 N 84.2517 0.741722 -1.39055 0
M  V30 946 C 85.4977 1.50336 -1.36113 0
M  V30 947 C 85.8307 1.94148 0.0450796 0
M  V30 948 O 85.1057 1.66301 1.00868 0
M  V30 949 C 85.3887 2.74773 -2.32749 0
M  V30 950 C 85.2417 2.37023 -3.82283 0
M  V30 951 C 86.5607 3.76846 -2.27322 0
M  V30 952 H 83.6797 0.545351 -0.495743 0
M  V30 953 H 86.3217 0.848624 -1.69995 0
M  V30 954 H 84.4717 3.30639 -2.03986 0
M  V30 955 H 86.1437 1.8684 -4.21768 0
M  V30 956 H 84.3867 1.69334 -3.99385 0
M  V30 957 H 85.0577 3.26104 -4.45376 0
M  V30 958 H 87.5337 3.30548 -2.5274 0
M  V30 959 H 86.4097 4.6159 -2.97028 0
M  V30 960 H 86.6707 4.23286 -1.27599 0
M  V30 961 N 85.7298 1.2412 0.971189 0
M  V30 962 C 86.6768 1.0305 2.06517 0
M  V30 963 C 87.6468 -0.0550666 1.66009 0
M  V30 964 O 88.8318 0.0988688 1.90544 0
M  V30 965 C 85.9718 0.637653 3.39158 0
M  V30 966 C 85.0848 1.79633 3.92882 0
M  V30 967 C 84.2198 1.34939 5.13775 0
M  V30 968 C 83.2588 2.47823 5.59687 0
M  V30 969 N 82.3958 2.04022 6.71803 0
M  V30 970 H 87.2358 1.96685 2.23873 0
M  V30 971 H 84.7728 0.979694 1.09729 0
M  V30 972 H 86.7308 0.390931 4.15364 0
M  V30 973 H 85.3608 -0.261693 3.21737 0
M  V30 974 H 84.4128 2.15681 3.13346 0
M  V30 975 H 85.7248 2.64466 4.22918 0
M  V30 976 H 84.8788 1.06134 5.97345 0
M  V30 977 H 83.6178 0.471557 4.85415 0
M  V30 978 H 82.6228 2.77392 4.74693 0
M  V30 979 H 83.8478 3.36158 5.90063 0
M  V30 980 H 81.7938 1.18632 6.45184 0
M  V30 981 H 81.7108 2.82409 7.01271 0
M  V30 982 H 82.9788 1.78347 7.58823 0
M  V30 983 N 87.2079 -1.17134 1.05439 0
M  V30 984 C 88.1579 -2.1919 0.627675 0
M  V30 985 C 89.1419 -1.57328 -0.337147 0
M  V30 986 O 90.3339 -1.76329 -0.153976 0
M  V30 987 C 87.4629 -3.43299 0.00651435 0
M  V30 988 C 86.5489 -4.12255 0.995312 0
M  V30 989 N 86.9399 -4.56997 2.16765 0
M  V30 990 C 85.2379 -4.38316 0.824336 0
M  V30 991 C 85.9389 -5.10239 2.7934 0
M  V30 992 N 84.9149 -5.02595 2.07122 0
M  V30 993 H 88.7169 -2.5149 1.52086 0
M  V30 994 H 86.2309 -1.33491 0.924868 0
M  V30 995 H 88.2279 -4.15693 -0.316965 0
M  V30 996 H 86.8879 -3.1249 -0.882033 0
M  V30 997 H 87.8989 -4.51006 2.54587 0
M  V30 998 H 84.5759 -4.17498 -0.0129526 0
M  V30 999 H 85.9659 -5.54961 3.78772 0
M  V30 1000 N 88.686 -0.835752 -1.33615 0
M  V30 1001 C 89.649 -0.272 -2.2758 0
M  V30 1002 C 90.649 0.557487 -1.50827 0
M  V30 1003 O 91.839 0.37173 -1.70188 0
M  V30 1004 C 88.971 0.617173 -3.35267 0
M  V30 1005 H 90.164 -1.10111 -2.78954 0
M  V30 1006 H 87.717 -0.608594 -1.43965 0
M  V30 1007 H 88.452 1.46884 -2.89129 0
M  V30 1008 H 88.237 0.0237066 -3.92093 0
M  V30 1009 H 89.727 1.005 -4.05326 0
M  V30 1010 N 90.1641 1.46063 -0.591896 0
M  V30 1011 C 91.4111 2.02338 -0.0809991 0
M  V30 1012 C 91.7391 1.46228 1.28249 0
M  V30 1013 O 90.9941 0.620818 1.85592 0
M  V30 1014 C 91.2931 3.57391 0.0249813 0
M  V30 1015 C 90.9591 4.32583 -1.27211 0
M  V30 1016 C 89.6211 4.52844 -1.62745 0
M  V30 1017 C 91.9731 4.75687 -2.13005 0
M  V30 1018 C 89.3011 5.13462 -2.83855 0
M  V30 1019 C 91.6531 5.37644 -3.3335 0
M  V30 1020 C 90.3171 5.5613 -3.69155 0
M  V30 1021 H 89.5871 0.740407 -0.0296397 0
M  V30 1022 H 92.2341 1.75321 -0.770374 0
M  V30 1023 H 90.5391 3.83597 0.797537 0
M  V30 1024 H 92.2361 3.98621 0.436184 0
M  V30 1025 H 88.8261 4.17116 -0.985499 0
M  V30 1026 H 93.0101 4.59782 -1.86855 0
M  V30 1027 H 88.2661 5.25965 -3.11722 0
M  V30 1028 H 92.4401 5.7 -4.00092 0
M  V30 1029 H 90.0671 6.0287 -4.63089 0
M  V30 1030 N 91.6422 0.330177 1.54103 0
M  V30 1031 C 92.5742 -0.566902 2.22079 0
M  V30 1032 C 93.5872 -1.07462 1.22294 0
M  V30 1033 O 94.7762 -0.987065 1.48726 0
M  V30 1034 C 91.8762 -1.79138 2.87685 0
M  V30 1035 C 91.0492 -1.42123 4.13666 0
M  V30 1036 C 90.1082 -2.50394 4.62806 0
M  V30 1037 O 89.1342 -2.14261 5.27334 0
M  V30 1038 N 90.3362 -3.81433 4.37595 0
M  V30 1039 H 93.1012 0.0151844 2.99696 0
M  V30 1040 H 90.6622 0.153681 1.61169 0
M  V30 1041 H 92.6542 -2.50975 3.1748 0
M  V30 1042 H 91.2242 -2.28115 2.13734 0
M  V30 1043 H 90.4442 -0.534201 3.90564 0
M  V30 1044 H 91.7322 -1.14971 4.9564 0
M  V30 1045 H 91.1302 -4.13584 3.8596 0
M  V30 1046 H 89.6872 -4.4948 4.72029 0
M  V30 1047 N 93.1203 -1.57491 0.0584922 0
M  V30 1048 C 94.0503 -2.14988 -0.911178 0
M  V30 1049 C 95.0313 -1.07343 -1.31952 0
M  V30 1050 O 96.2163 -1.35318 -1.39294 0
M  V30 1051 C 93.3463 -2.70078 -2.18347 0
M  V30 1052 C 92.3003 -3.82771 -1.91495 0
M  V30 1053 C 91.6263 -4.24408 -3.25241 0
M  V30 1054 C 92.9263 -5.07592 -1.23075 0
M  V30 1055 H 94.6203 -2.96263 -0.432246 0
M  V30 1056 H 92.1663 -1.42512 -0.206469 0
M  V30 1057 H 94.1193 -3.08943 -2.86587 0
M  V30 1058 H 92.8433 -1.86005 -2.68458 0
M  V30 1059 H 91.5023 -3.44389 -1.25664 0
M  V30 1060 H 91.1503 -3.37275 -3.73168 0
M  V30 1061 H 90.8503 -5.00366 -3.08071 0
M  V30 1062 H 92.3743 -4.65879 -3.94701 0
M  V30 1063 H 93.7883 -5.43857 -1.81362 0
M  V30 1064 H 92.1853 -5.88741 -1.16207 0
M  V30 1065 H 93.2553 -4.84454 -0.207847 0
M  V30 1066 N 94.5984 0.214957 -1.56127 0
M  V30 1067 C 95.8474 0.936451 -1.78643 0
M  V30 1068 C 96.1604 1.85237 -0.628229 0
M  V30 1069 O 97.3664 2.613 -0.737186 0
M  V30 1070 C 95.8224 1.7154 -3.16389 0
M  V30 1071 C 95.4304 0.845299 -4.39953 0
M  V30 1072 C 97.1744 2.42772 -3.48227 0
M  V30 1073 C 95.0814 1.62198 -5.68723 0
M  V30 1074 H 94.0114 0.353401 -0.666051 0
M  V30 1075 H 96.6624 0.190169 -1.82512 0
M  V30 1076 H 95.0444 2.50484 -3.06715 0
M  V30 1077 H 96.2184 0.0959353 -4.607 0
M  V30 1078 H 94.5334 0.244789 -4.1568 0
M  V30 1079 H 97.1304 3.01394 -4.41663 0
M  V30 1080 H 97.4734 3.15984 -2.71035 0
M  V30 1081 H 98.0064 1.70813 -3.5926 0
M  V30 1082 H 94.7454 0.933011 -6.48826 0
M  V30 1083 H 94.2654 2.34579 -5.52026 0
M  V30 1084 H 95.9444 2.18095 -6.09133 0
M  V30 1085 N 96.0765 1.50051 0.48192 0
M  V30 1086 C 96.9865 1.7089 1.60728 0
M  V30 1087 C 98.0025 0.591788 1.63627 0
M  V30 1088 O 99.1785 0.868817 1.81696 0
M  V30 1089 C 96.2435 1.78855 2.97005 0
M  V30 1090 C 95.3045 3.02537 3.04581 0
M  V30 1091 C 94.5375 3.10112 4.34357 0
M  V30 1092 O 94.7605 2.24765 5.24249 0
M  V30 1093 O 93.6945 4.02747 4.47301 0
M  V30 1094 H 97.5205 2.66264 1.46072 0
M  V30 1095 H 95.1055 1.34018 0.660264 0
M  V30 1096 H 96.9875 1.86336 3.77964 0
M  V30 1097 H 95.6625 0.866628 3.11883 0
M  V30 1098 H 94.5695 3.00563 2.22739 0
M  V30 1099 H 95.9025 3.94272 2.94636 0
M  V30 1100 N 97.5546 -0.734337 1.39446 0
M  V30 1101 C 98.4846 -1.86155 1.40955 0
M  V30 1102 C 99.4656 -1.67898 0.272827 0
M  V30 1103 O 100.651 -1.88207 0.478743 0
M  V30 1104 C 97.7806 -3.23912 1.25294 0
M  V30 1105 C 96.7346 -3.56808 2.36373 0
M  V30 1106 C 96.0606 -4.93508 2.058 0
M  V30 1107 C 97.3606 -3.59713 3.78687 0
M  V30 1108 H 99.0546 -1.8515 2.35287 0
M  V30 1109 H 96.6006 -0.889367 1.13253 0
M  V30 1110 H 98.5536 -4.02443 1.2497 0
M  V30 1111 H 97.2776 -3.25446 0.274308 0
M  V30 1112 H 95.9366 -2.80606 2.35914 0
M  V30 1113 H 95.5846 -4.91623 1.06374 0
M  V30 1114 H 95.2846 -5.16486 2.80208 0
M  V30 1115 H 96.8086 -5.74396 2.07128 0
M  V30 1116 H 98.2226 -4.2832 3.81071 0
M  V30 1117 H 96.6196 -3.94209 4.52459 0
M  V30 1118 H 97.6896 -2.59504 4.09617 0
M  V30 1119 N 99.0327 -1.24633 -0.964593 0
M  V30 1120 C 100.258 -1.11596 -1.74818 0
M  V30 1121 C 100.683 0.32723 -1.85232 0
M  V30 1122 O 100.041 1.23695 -1.32549 0
M  V30 1123 C 100.089 -1.76397 -3.1451 0
M  V30 1124 O 99.1927 -1.03685 -3.99153 0
M  V30 1125 H 98.5337 -0.390196 -0.537255 0
M  V30 1126 H 101.064 -1.65002 -1.20977 0
M  V30 1127 H 101.074 -1.8228 -3.65018 0
M  V30 1128 H 99.7487 -2.81401 -3.06246 0
M  V30 1129 H 98.3257 -1.05611 -3.57632 0
M  V30 1130 N 100.511 1.16574 -1.06058 0
M  V30 1131 C 101.443 2.2045 -0.627239 0
M  V30 1132 C 102.456 1.59752 0.313534 0
M  V30 1133 O 103.645 1.78192 0.104896 0
M  V30 1134 C 100.745 3.3875 0.100974 0
M  V30 1135 C 99.9178 4.29008 -0.852687 0
M  V30 1136 C 98.9768 5.25944 -0.164152 0
M  V30 1137 O 98.0028 5.63535 -0.801047 0
M  V30 1138 N 99.2048 5.70075 1.09518 0
M  V30 1139 H 101.97 2.58249 -1.52077 0
M  V30 1140 H 99.5308 1.3156 -0.943594 0
M  V30 1141 H 101.523 4.00638 0.57194 0
M  V30 1142 H 100.093 2.99476 0.89628 0
M  V30 1143 H 99.3128 3.64419 -1.50308 0
M  V30 1144 H 100.601 4.86195 -1.49972 0
M  V30 1145 H 99.9988 5.41624 1.6328 0
M  V30 1146 H 98.5558 6.34067 1.51006 0
M  V30 1147 N 101.989 0.842826 1.3317 0
M  V30 1148 C 102.952 0.284065 2.27433 0
M  V30 1149 C 103.952 -0.54948 1.5112 0
M  V30 1150 O 105.142 -0.362699 1.70382 0
M  V30 1151 C 102.274 -0.599384 3.35589 0
M  V30 1152 H 103.467 1.11589 2.78366 0
M  V30 1153 H 101.02 0.616221 1.4364 0
M  V30 1154 H 101.755 -1.45349 2.89904 0
M  V30 1155 H 101.54 -0.00291266 3.921 0
M  V30 1156 H 103.03 -0.983488 4.05854 0
M  V30 1157 N 103.467 -1.45747 0.599634 0
M  V30 1158 C 104.377 -2.34262 -0.125888 0
M  V30 1159 C 105.393 -1.50768 -0.868625 0
M  V30 1160 O 106.569 -1.83592 -0.828003 0
M  V30 1161 C 103.634 -3.28252 -1.11587 0
M  V30 1162 C 102.695 -4.27651 -0.375956 0
M  V30 1163 C 101.928 -5.1715 -1.31877 0
M  V30 1164 O 102.151 -5.09916 -2.55621 0
M  V30 1165 O 101.085 -5.96286 -0.820157 0
M  V30 1166 H 104.911 -2.97688 0.601315 0
M  V30 1167 H 102.496 -1.44999 0.359934 0
M  V30 1168 H 104.378 -3.86191 -1.68626 0
M  V30 1169 H 103.053 -2.67401 -1.82424 0
M  V30 1170 H 101.96 -3.7335 0.236698 0
M  V30 1171 H 103.293 -4.91334 0.29177 0
M  V30 1172 N 104.945 -0.338344 -1.53925 0
M  V30 1173 C 106.192 0.259758 -2.00827 0
M  V30 1174 C 106.52 1.50973 -1.22628 0
M  V30 1175 O 105.775 1.93379 -0.300509 0
M  V30 1176 C 106.074 0.62448 -3.51902 0
M  V30 1177 C 105.74 -0.528006 -4.47798 0
M  V30 1178 C 104.402 -0.844298 -4.73735 0
M  V30 1179 C 106.754 -1.30143 -5.0469 0
M  V30 1180 C 104.082 -1.93648 -5.53821 0
M  V30 1181 C 106.434 -2.38382 -5.85967 0
M  V30 1182 C 105.098 -2.70576 -6.10201 0
M  V30 1183 H 104.368 0.0950523 -0.734878 0
M  V30 1184 H 107.015 -0.465182 -1.85764 0
M  V30 1185 H 105.32 1.43006 -3.64769 0
M  V30 1186 H 107.017 1.09905 -3.85645 0
M  V30 1187 H 103.607 -0.271421 -4.2774 0
M  V30 1188 H 107.791 -1.07033 -4.84621 0
M  V30 1189 H 103.047 -2.19021 -5.70824 0
M  V30 1190 H 107.221 -2.98746 -6.29066 0
M  V30 1191 H 104.848 -3.55333 -6.72044 0
M  V30 1192 N 106.423 1.57458 -0.0668435 0
M  V30 1193 C 107.333 2.15937 0.916975 0
M  V30 1194 C 108.349 1.12123 1.33058 0
M  V30 1195 O 109.525 1.44366 1.40429 0
M  V30 1196 C 106.59 2.70547 2.16807 0
M  V30 1197 C 105.651 3.89215 1.81135 0
M  V30 1198 C 104.884 4.41211 3.0028 0
M  V30 1199 O 105.107 3.92225 4.14144 0
M  V30 1200 O 104.041 5.32605 2.80384 0
M  V30 1201 H 107.867 3.00354 0.449561 0
M  V30 1202 H 105.452 1.48584 0.155949 0
M  V30 1203 H 107.334 3.0557 2.90181 0
M  V30 1204 H 106.009 1.89192 2.62656 0
M  V30 1205 H 104.916 3.59054 1.05028 0
M  V30 1206 H 106.249 4.71848 1.40073 0
M  V30 1207 N 107.901 -0.206675 1.56239 0
M  V30 1208 C 109.126 -0.949474 1.8439 0
M  V30 1209 C 109.551 -1.76549 0.649016 0
M  V30 1210 O 108.909 -1.76782 -0.402231 0
M  V30 1211 C 108.957 -1.83078 3.10668 0
M  V30 1212 O 108.061 -2.9281 2.90407 0
M  V30 1213 H 107.402 -0.268033 0.607499 0
M  V30 1214 H 109.932 -0.215488 2.03462 0
M  V30 1215 H 109.942 -2.2377 3.41161 0
M  V30 1216 H 108.617 -1.23112 3.97261 0
M  V30 1217 H 107.194 -2.55956 2.71184 0
M  V30 1218 N 109.379 -1.50304 -0.473955 0
M  V30 1219 C 110.326 -1.68959 -1.57231 0
M  V30 1220 C 111.296 -0.530899 -1.57387 0
M  V30 1221 O 112.481 -0.761133 -1.74961 0
M  V30 1222 C 109.621 -1.7871 -2.95223 0
M  V30 1223 C 108.734 -3.06061 -3.04878 0
M  V30 1224 C 107.869 -3.06626 -4.33767 0
M  V30 1225 C 106.908 -4.28443 -4.37154 0
M  V30 1226 N 106.045 -4.26763 -5.5751 0
M  V30 1227 H 110.885 -2.6273 -1.40631 0
M  V30 1228 H 108.422 -1.30241 -0.683789 0
M  V30 1229 H 110.38 -1.82344 -3.75242 0
M  V30 1230 H 109.01 -0.883806 -3.10465 0
M  V30 1231 H 108.062 -3.11911 -2.17751 0
M  V30 1232 H 109.374 -3.96039 -3.0324 0
M  V30 1233 H 108.528 -3.08973 -5.22131 0
M  V30 1234 H 107.267 -2.14473 -4.3801 0
M  V30 1235 H 106.272 -4.2631 -3.47188 0
M  V30 1236 H 107.497 -5.2182 -4.34605 0
M  V30 1237 H 105.443 -3.37462 -5.62544 0
M  V30 1238 H 105.36 -5.10507 -5.57601 0
M  V30 1239 H 106.628 -4.33253 -6.48006 0
M  V30 1240 N 110.857 0.726932 -1.39834 0
M  V30 1241 C 111.787 1.85405 -1.41941 0
M  V30 1242 C 112.768 1.67751 -0.281728 0
M  V30 1243 O 113.953 1.8795 -0.488717 0
M  V30 1244 C 111.083 3.23243 -1.2701 0
M  V30 1245 C 110.037 3.55549 -2.38262 0
M  V30 1246 C 109.363 4.9241 -2.08415 0
M  V30 1247 C 110.663 3.577 -3.80589 0
M  V30 1248 H 112.357 1.83899 -2.36266 0
M  V30 1249 H 109.903 0.883349 -1.13723 0
M  V30 1250 H 111.856 4.01775 -1.27103 0
M  V30 1251 H 110.58 3.25296 -0.291564 0
M  V30 1252 H 109.239 2.79351 -2.37399 0
M  V30 1253 H 108.887 4.91052 -1.0898 0
M  V30 1254 H 108.587 5.14992 -2.82943 0
M  V30 1255 H 110.111 5.73289 -2.10171 0
M  V30 1256 H 111.525 4.26293 -3.83337 0
M  V30 1257 H 109.922 3.91804 -4.54543 0
M  V30 1258 H 110.992 2.57328 -4.10987 0
M  V30 1259 N 112.336 1.25143 0.95797 0
M  V30 1260 C 113.564 1.12424 1.73691 0
M  V30 1261 C 113.979 -0.322304 1.86029 0
M  V30 1262 O 113.336 -1.22186 1.35561 0
M  V30 1263 C 113.387 1.76933 3.15241 0
M  V30 1264 O 113.108 3.15932 3.03511 0
M  V30 1265 C 114.609 1.6995 4.09429 0
M  V30 1266 H 111.829 0.3923 0.544373 0
M  V30 1267 H 114.373 1.6544 1.20207 0
M  V30 1268 H 112.528 1.27895 3.6568 0
M  V30 1269 H 112.942 3.47598 3.9278 0
M  V30 1270 H 114.416 2.19753 5.06372 0
M  V30 1271 H 114.893 0.662619 4.34173 0
M  V30 1272 H 115.499 2.18461 3.64904 0
M  V30 1273 N 113.814 -1.1601 1.06675 0
M  V30 1274 C 114.746 -2.20115 0.638921 0
M  V30 1275 C 115.759 -1.59916 -0.305057 0
M  V30 1276 O 116.948 -1.78245 -0.0954446 0
M  V30 1277 C 114.048 -3.38798 -0.0830083 0
M  V30 1278 C 113.221 -4.2855 0.875426 0
M  V30 1279 C 112.28 -5.25849 0.192042 0
M  V30 1280 O 111.306 -5.63102 0.830921 0
M  V30 1281 N 112.508 -5.70648 -1.06493 0
M  V30 1282 H 115.273 -2.57439 1.53444 0
M  V30 1283 H 112.834 -1.31057 0.950557 0
M  V30 1284 H 114.826 -4.00936 -0.550685 0
M  V30 1285 H 113.396 -2.99947 -0.880386 0
M  V30 1286 H 112.616 -3.63617 1.52238 0
M  V30 1287 H 113.904 -4.85393 1.52548 0
M  V30 1288 H 113.302 -5.42482 -1.60405 0
M  V30 1289 H 111.859 -6.34859 -1.47641 0
M  V30 1290 N 115.292 -0.849877 -1.32721 0
M  V30 1291 C 116.538 -0.451591 -1.97708 0
M  V30 1292 C 116.871 0.989175 -1.6712 0
M  V30 1293 O 116.146 1.69334 -0.956891 0
M  V30 1294 C 116.429 -0.685598 -3.53513 0
M  V30 1295 C 116.282 -2.17444 -3.93749 0
M  V30 1296 C 117.601 -0.138874 -4.39881 0
M  V30 1297 H 114.72 -0.16555 -0.718166 0
M  V30 1298 H 117.362 -1.06742 -1.57182 0
M  V30 1299 H 115.512 -0.161416 -3.88165 0
M  V30 1300 H 117.184 -2.76433 -3.693 0
M  V30 1301 H 115.427 -2.65476 -3.43081 0
M  V30 1302 H 116.098 -2.28888 -5.02309 0
M  V30 1303 H 118.574 -0.587068 -4.11938 0
M  V30 1304 H 117.45 -0.332213 -5.47894 0
M  V30 1305 H 117.711 0.95806 -4.31594 0
M  V30 1306 N 116.77 1.45427 -0.607355 0
M  V30 1307 C 118 2.06314 -0.108656 0
M  V30 1308 C 118.408 1.45269 1.21217 0
M  V30 1309 O 117.751 0.561115 1.74921 0
M  V30 1310 C 117.813 3.59345 0.105618 0
M  V30 1311 C 117.477 4.42723 -1.13337 0
M  V30 1312 C 118.474 4.77715 -2.05145 0
M  V30 1313 C 116.159 4.83478 -1.36213 0
M  V30 1314 C 118.153 5.52317 -3.18158 0
M  V30 1315 C 115.84 5.57835 -2.49527 0
M  V30 1316 C 116.838 5.92171 -3.40327 0
M  V30 1317 O 116.526 6.65019 -4.51669 0
M  V30 1318 H 116.258 0.672782 -0.0658842 0
M  V30 1319 H 118.812 1.87664 -0.834945 0
M  V30 1320 H 117.042 3.76394 0.886796 0
M  V30 1321 H 118.731 4.02076 0.555886 0
M  V30 1322 H 119.497 4.46787 -1.88697 0
M  V30 1323 H 115.376 4.56188 -0.664362 0
M  V30 1324 H 118.92 5.79036 -3.89054 0
M  V30 1325 H 114.817 5.88177 -2.65928 0
M  V30 1326 H 115.585 6.83469 -4.50348 0
M  V30 1327 N 118.248 0.346503 1.53744 0
M  V30 1328 C 119.18 -0.543316 2.22667 0
M  V30 1329 C 120.193 -1.06159 1.23427 0
M  V30 1330 O 121.382 -0.971235 1.49764 0
M  V30 1331 C 118.482 -1.76076 2.89569 0
M  V30 1332 C 117.655 -1.37727 4.15151 0
M  V30 1333 C 116.714 -2.45471 4.65436 0
M  V30 1334 O 115.74 -2.08655 5.29577 0
M  V30 1335 N 116.942 -3.7677 4.41616 0
M  V30 1336 H 119.707 0.0469703 2.99663 0
M  V30 1337 H 117.268 0.170766 1.60997 0
M  V30 1338 H 119.26 -2.47593 3.20125 0
M  V30 1339 H 117.83 -2.25835 2.16142 0
M  V30 1340 H 117.05 -0.492746 3.91108 0
M  V30 1341 H 118.338 -1.09708 4.96832 0
M  V30 1342 H 117.736 -4.09467 3.90325 0
M  V30 1343 H 116.293 -4.44448 4.7677 0
M  V30 1344 N 119.726 -1.57421 0.075193 0
M  V30 1345 C 121.142 -1.57099 -0.281444 0
M  V30 1346 C 121.342 -1.08486 -1.69803 0
M  V30 1347 O 120.398 -0.752279 -2.41033 0
M  V30 1348 C 121.711 -3.00571 -0.0880041 0
M  V30 1349 C 123.259 -3.12605 -0.157281 0
M  V30 1350 C 123.734 -4.57999 0.0079207 0
M  V30 1351 N 125.225 -4.63176 -0.0475725 0
M  V30 1352 C 125.96 -5.73373 0.0557876 0
M  V30 1353 N 125.456 -6.92473 0.21286 0
M  V30 1354 N 127.249 -5.621 -0.00152098 0
M  V30 1355 H 119.4 -1.87335 1.00098 0
M  V30 1356 H 121.663 -0.86377 0.390646 0
M  V30 1357 H 121.369 -3.40262 0.889629 0
M  V30 1358 H 121.243 -3.67754 -0.838875 0
M  V30 1359 H 123.63 -2.72798 -1.1254 0
M  V30 1360 H 123.711 -2.48053 0.62475 0
M  V30 1361 H 123.355 -4.98496 0.972824 0
M  V30 1362 H 123.285 -5.20586 -0.793556 0
M  V30 1363 H 125.776 -3.7753 -0.167244 0
M  V30 1364 H 126.089 -7.72279 0.283781 0
M  V30 1365 H 124.434 -6.94556 0.248267 0
M  V30 1366 H 127.625 -4.67938 -0.122958 0
M  V30 1367 H 127.798 -6.47948 0.0824844 0
M  V30 1368 N 121.204 0.198386 -1.56346 0
M  V30 1369 C 122.481 0.944982 -1.71258 0
M  V30 1370 C 122.861 2.0151 -0.629048 0
M  V30 1371 O 122.209 2.25639 0.360473 0
M  V30 1372 C 122.419 1.5344 -3.1346 0
M  V30 1373 C 123.767 2.01778 -3.73591 0
M  V30 1374 O 124.791 1.63288 -3.16568 0
M  V30 1375 O 123.65 2.72594 -4.73661 0
M  V30 1376 H 120.744 0.442939 -0.69838 0
M  V30 1377 H 123.29 0.188342 -1.68652 0
M  V30 1378 H 122.062 0.762869 -3.83792 0
M  V30 1379 H 121.685 2.35596 -3.20282 0
M  V30 1380 N 122.682 1.50554 0.465978 0
M  V30 1381 C 123.907 1.65838 1.24549 0
M  V30 1382 C 124.332 0.343486 1.84937 0
M  V30 1383 O 123.69 -0.69324 1.67523 0
M  V30 1384 C 123.738 2.75533 2.32624 0
M  V30 1385 O 122.842 2.37142 3.37398 0
M  V30 1386 H 122.183 0.553893 0.366194 0
M  V30 1387 H 124.713 1.96959 0.553927 0
M  V30 1388 H 124.723 2.98763 2.77857 0
M  V30 1389 H 123.398 3.70962 1.88043 0
M  V30 1390 H 121.975 2.24377 2.97841 0
M  V30 1391 N 124.16 -0.719506 1.40217 0
M  V30 1392 C 125.385 -1.51371 1.4178 0
M  V30 1393 C 125.81 -1.88091 0.0182355 0
M  V30 1394 O 125.168 -1.52997 -0.972707 0
M  V30 1395 C 125.216 -2.768 2.31115 0
M  V30 1396 O 124.32 -3.73349 1.7517 0
M  V30 1397 H 123.661 -0.456529 0.482159 0
M  V30 1398 H 126.191 -0.88644 1.844 0
M  V30 1399 H 126.201 -3.25371 2.46167 0
M  V30 1400 H 124.876 -2.49407 3.3282 0
M  V30 1401 H 123.453 -3.32179 1.69444 0
M  V30 1402 N 125.638 -1.25649 -0.95132 0
M  V30 1403 C 126.548 -1.08073 -2.08224 0
M  V30 1404 C 127.564 -0.0169666 -1.73992 0
M  V30 1405 O 128.74 -0.218593 -2.0021 0
M  V30 1406 C 125.805 -0.704922 -3.39458 0
M  V30 1407 C 124.866 -1.84699 -3.87537 0
M  V30 1408 C 124.099 -1.48902 -5.12508 0
M  V30 1409 O 124.322 -0.386156 -5.69091 0
M  V30 1410 O 123.256 -2.32033 -5.55378 0
M  V30 1411 H 127.082 -2.02924 -2.25954 0
M  V30 1412 H 124.667 -1.04618 -1.06656 0
M  V30 1413 H 126.549 -0.507609 -4.18332 0
M  V30 1414 H 125.224 0.214291 -3.2299 0
M  V30 1415 H 124.131 -2.09919 -3.09653 0
M  V30 1416 H 125.464 -2.74557 -4.08509 0
M  V30 1417 N 127.117 1.15442 -1.07289 0
M  V30 1418 C 128.08 2.18358 -0.696591 0
M  V30 1419 C 129.08 1.58637 0.262837 0
M  V30 1420 O 130.27 1.74145 0.0438809 0
M  V30 1421 C 127.402 3.4089 -0.0266151 0
M  V30 1422 H 128.595 2.53162 -1.60776 0
M  V30 1423 H 126.148 1.29893 -0.869342 0
M  V30 1424 H 126.883 3.11653 0.896822 0
M  V30 1425 H 126.668 3.85495 -0.716657 0
M  V30 1426 H 128.158 4.17009 0.222028 0
M  V30 1427 N 128.595 0.856903 1.32268 0
M  V30 1428 C 130.011 0.547061 1.49931 0
M  V30 1429 C 130.211 -0.921781 1.7918 0
M  V30 1430 O 129.267 -1.70469 1.8627 0
M  V30 1431 C 130.58 1.43599 2.64196 0
M  V30 1432 C 132.128 1.43665 2.78081 0
M  V30 1433 C 132.603 2.31085 3.95428 0
M  V30 1434 N 134.094 2.28893 4.02694 0
M  V30 1435 C 134.829 2.93262 4.92732 0
M  V30 1436 N 134.325 3.66751 5.87763 0
M  V30 1437 N 136.118 2.82638 4.85873 0
M  V30 1438 H 128.269 1.8075 1.11549 0
M  V30 1439 H 130.532 0.772144 0.549997 0
M  V30 1440 H 130.238 2.48058 2.49319 0
M  V30 1441 H 130.112 1.12502 3.60032 0
M  V30 1442 H 132.499 0.399701 2.92381 0
M  V30 1443 H 132.58 1.7878 1.82952 0
M  V30 1444 H 132.224 3.34849 3.81888 0
M  V30 1445 H 132.154 1.93302 4.89839 0
M  V30 1446 H 134.645 1.75466 3.34694 0
M  V30 1447 H 134.958 4.13027 6.53168 0
M  V30 1448 H 133.303 3.70859 5.87783 0
M  V30 1449 H 136.494 2.24774 4.10602 0
M  V30 1450 H 136.667 3.33084 5.55841 0
M  V30 1451 N 130.073 -1.45103 0.615059 0
M  V30 1452 C 131.005 -2.28786 -0.13762 0
M  V30 1453 C 132.018 -1.40376 -0.824525 0
M  V30 1454 O 133.207 -1.64681 -0.688662 0
M  V30 1455 C 130.307 -3.16322 -1.21628 0
M  V30 1456 C 129.48 -4.33054 -0.615039 0
M  V30 1457 C 128.539 -5.01743 -1.58556 0
M  V30 1458 O 127.565 -5.58293 -1.10895 0
M  V30 1459 N 128.767 -5.01714 -2.91998 0
M  V30 1460 H 131.532 -2.94025 0.580483 0
M  V30 1461 H 129.093 -1.55373 0.45507 0
M  V30 1462 H 131.085 -3.59139 -1.86552 0
M  V30 1463 H 129.655 -2.52943 -1.83681 0
M  V30 1464 H 128.875 -3.93627 0.21245 0
M  V30 1465 H 130.163 -5.08431 -0.193704 0
M  V30 1466 H 129.561 -4.57075 -3.33316 0
M  V30 1467 H 128.118 -5.48371 -3.52325 0
M  V30 1468 N 131.551 -0.354651 -1.53558 0
M  V30 1469 C 132.481 0.489091 -2.2832 0
M  V30 1470 C 133.462 1.09324 -1.30316 0
M  V30 1471 O 134.647 1.11255 -1.59173 0
M  V30 1472 C 131.777 1.63456 -3.0643 0
M  V30 1473 C 130.731 1.1582 -4.12031 0
M  V30 1474 C 130.057 2.39305 -4.7816 0
M  V30 1475 C 131.357 0.250731 -5.21698 0
M  V30 1476 H 133.051 -0.134614 -2.99097 0
M  V30 1477 H 130.597 -0.0661826 -1.43848 0
M  V30 1478 H 132.55 2.23136 -3.57475 0
M  V30 1479 H 131.274 2.28533 -2.33325 0
M  V30 1480 H 129.933 0.584146 -3.61916 0
M  V30 1481 H 129.581 3.02814 -4.01637 0
M  V30 1482 H 129.281 2.08109 -5.49513 0
M  V30 1483 H 130.805 2.99691 -5.31994 0
M  V30 1484 H 132.219 0.754695 -5.68311 0
M  V30 1485 H 130.616 0.0301468 -6.00092 0
M  V30 1486 H 131.686 -0.710125 -4.79672 0
M  V30 1487 N 133.029 1.57378 -0.0835403 0
M  V30 1488 C 133.962 2.09016 0.915833 0
M  V30 1489 C 134.94 0.997993 1.2837 0
M  V30 1490 O 136.124 1.27219 1.39096 0
M  V30 1491 C 133.251 2.55757 2.22049 0
M  V30 1492 C 132.297 3.76522 2.00333 0
M  V30 1493 S 133.13 5.20661 1.25191 0
M  V30 1494 C 134.286 5.70743 2.56912 0
M  V30 1495 H 134.519 2.93457 0.476492 0
M  V30 1496 H 132.052 1.53856 0.129493 0
M  V30 1497 H 134.01 2.83346 2.97027 0
M  V30 1498 H 132.671 1.71564 2.63106 0
M  V30 1499 H 131.864 4.07256 2.96916 0
M  V30 1500 H 131.466 3.49367 1.33488 0
M  V30 1501 H 133.758 5.78304 3.52946 0
M  V30 1502 H 134.701 6.6944 2.30772 0
M  V30 1503 H 135.109 4.98616 2.64655 0
M  V30 1504 N 134.507 -0.190092 1.56449 0
M  V30 1505 C 135.417 -1.25591 1.98152 0
M  V30 1506 C 136.433 -1.49519 0.889944 0
M  V30 1507 O 137.609 -1.62036 1.19609 0
M  V30 1508 C 134.674 -2.57916 2.3169 0
M  V30 1509 C 133.735 -2.42015 3.5458 0
M  V30 1510 C 132.968 -3.6803 3.8651 0
M  V30 1511 O 133.191 -4.72413 3.1966 0
M  V30 1512 O 132.125 -3.6326 4.79923 0
M  V30 1513 H 135.951 -0.931988 2.89046 0
M  V30 1514 H 133.536 -0.395488 1.4407 0
M  V30 1515 H 135.418 -3.36008 2.54316 0
M  V30 1516 H 134.093 -2.89925 1.43963 0
M  V30 1517 H 133 -1.62017 3.37196 0
M  V30 1518 H 134.333 -2.14937 4.4279 0
M  V30 1519 N 135.985 -1.50799 -0.457987 0
M  V30 1520 C 137.262 -1.52968 -1.21902 0
M  V30 1521 C 137.642 -0.281906 -2.09209 0
M  V30 1522 O 136.99 0.734076 -2.16388 0
M  V30 1523 C 137.2 -2.8326 -2.03875 0
M  V30 1524 C 138.548 -3.34425 -2.6162 0
M  V30 1525 O 139.572 -2.8467 -2.14106 0
M  V30 1526 O 138.431 -4.21188 -3.48228 0
M  V30 1527 H 135.525 -0.614129 -0.553873 0
M  V30 1528 H 138.071 -1.63098 -0.468739 0
M  V30 1529 H 136.843 -3.65543 -1.39621 0
M  V30 1530 H 136.466 -2.76195 -2.8601 0
M  V30 1531 N 137.463 0.71206 -1.40597 0
M  V30 1532 C 138.712 1.46754 -1.38369 0
M  V30 1533 C 139.025 1.95598 0.0097839 0
M  V30 1534 O 140.231 2.71059 0.154677 0
M  V30 1535 C 138.687 2.65289 -2.43207 0
M  V30 1536 C 138.295 2.23301 -3.88382 0
M  V30 1537 C 140.039 3.43008 -2.50091 0
M  V30 1538 C 137.946 3.38696 -4.84808 0
M  V30 1539 H 136.876 0.55118 -0.514506 0
M  V30 1540 H 139.527 0.774616 -1.66349 0
M  V30 1541 H 137.909 3.36769 -2.08332 0
M  V30 1542 H 139.083 1.59218 -4.32419 0
M  V30 1543 H 137.398 1.58618 -3.85006 0
M  V30 1544 H 139.995 4.28881 -3.1932 0
M  V30 1545 H 140.338 3.87065 -1.53253 0
M  V30 1546 H 140.871 2.78574 -2.83974 0
M  V30 1547 H 137.61 2.99668 -5.82992 0
M  V30 1548 H 137.13 4.01683 -4.45433 0
M  V30 1549 H 138.809 4.04712 -5.04794 0
M  V30 1550 N 138.941 1.26152 0.944643 0
M  V30 1551 C 140.189 1.11271 1.6871 0
M  V30 1552 C 140.51 -0.345166 1.91921 0
M  V30 1553 O 139.78 -1.24387 1.51343 0
M  V30 1554 H 138.36 0.408783 0.625224 0
M  V30 1555 H 141.022 1.58427 1.1352 0
M  V30 1556 H 140.118 1.62879 2.66227 0
M  V30 1557 N 140.419 -1.14872 1.07899 0
M  V30 1558 C 141.382 -2.17986 0.708161 0
M  V30 1559 C 142.382 -1.58775 -0.25442 0
M  V30 1560 O 143.572 -1.74166 -0.034645 0
M  V30 1561 C 140.704 -3.40871 0.0446929 0
M  V30 1562 H 141.897 -2.52306 1.62116 0
M  V30 1563 H 139.45 -1.2943 0.876218 0
M  V30 1564 H 140.185 -3.12124 -0.880281 0
M  V30 1565 H 139.97 -3.8511 0.737091 0
M  V30 1566 H 141.46 -4.17121 -0.19991 0
M  V30 1567 N 141.898 -0.863906 -1.31812 0
M  V30 1568 C 143.175 -0.39275 -1.91616 0
M  V30 1569 C 143.555 1.12461 -1.7865 0
M  V30 1570 O 142.903 1.95045 -1.19037 0
M  V30 1571 C 143.113 -0.867385 -3.38049 0
M  V30 1572 C 144.461 -0.889966 -4.15168 0
M  V30 1573 O 145.485 -0.812635 -3.46806 0
M  V30 1574 O 144.344 -1.00079 -5.37258 0
M  V30 1575 H 141.438 -0.116358 -0.818773 0
M  V30 1576 H 143.984 -0.951418 -1.40521 0
M  V30 1577 H 142.756 -1.91081 -3.41473 0
M  V30 1578 H 142.379 -0.286687 -3.96565 0
M  V30 1579 N 143.376 1.44774 -0.622745 0
M  V30 1580 C 144.601 2.06999 -0.128968 0
M  V30 1581 C 145.026 1.4617 1.1839 0
M  V30 1582 O 144.384 0.560007 1.72434 0
M  V30 1583 C 144.432 3.60595 -0.0188351 0
M  V30 1584 O 143.536 3.99398 1.02739 0
M  V30 1585 H 142.877 0.659047 -0.0809544 0
M  V30 1586 H 145.407 1.85784 -0.85705 0
M  V30 1587 H 145.417 4.07627 0.174476 0
M  V30 1588 H 144.092 4.04252 -0.977384 0
M  V30 1589 H 142.669 3.64011 0.809326 0
M  V30 1590 N 144.854 0.36279 1.53368 0
M  V30 1591 C 146.131 -0.284021 1.93527 0
M  V30 1592 C 146.511 -1.66628 1.29608 0
M  V30 1593 O 145.859 -2.23942 0.45413 0
M  V30 1594 C 146.069 -0.337028 3.47369 0
M  V30 1595 C 147.417 -0.578708 4.20638 0
M  V30 1596 O 148.441 -0.418352 3.53735 0
M  V30 1597 O 147.3 -0.89074 5.39192 0
M  V30 1598 H 144.394 -0.169743 0.809393 0
M  V30 1599 H 146.94 0.41537 1.64538 0
M  V30 1600 H 145.712 0.632217 3.86159 0
M  V30 1601 H 145.335 -1.08243 3.82582 0
M  V30 1602 N 146.332 -1.57332 0.0918853 0
M  V30 1603 C 147.609 -1.85691 -0.614668 0
M  V30 1604 C 147.989 -0.988146 -1.86545 0
M  V30 1605 O 147.337 -0.0597055 -2.28422 0
M  V30 1606 C 147.547 -3.36294 -0.933126 0
M  V30 1607 C 148.895 -4.04275 -1.29796 0
M  V30 1608 O 149.919 -3.41157 -1.02424 0
M  V30 1609 O 148.778 -5.1564 -1.81047 0
M  V30 1610 H 145.872 -0.767802 -0.307261 0
M  V30 1611 H 148.418 -1.69244 0.12434 0
M  V30 1612 H 147.19 -3.91273 -0.0456404 0
M  V30 1613 H 146.813 -3.58076 -1.72822 0
M  V30 1614 N 147.81 0.181792 -1.56548 0
M  V30 1615 C 149.057 0.900097 -1.81396 0
M  V30 1616 C 149.385 1.82695 -0.667281 0
M  V30 1617 O 148.64 1.92614 0.346146 0
M  V30 1618 C 148.939 1.73728 -3.12335 0
M  V30 1619 C 148.605 0.960255 -4.40556 0
M  V30 1620 C 147.267 0.745766 -4.75386 0
M  V30 1621 C 149.619 0.414477 -5.19549 0
M  V30 1622 C 146.947 -0.0257694 -5.86694 0
M  V30 1623 C 149.299 -0.343916 -6.31664 0
M  V30 1624 C 147.963 -0.569301 -6.65068 0
M  V30 1625 H 147.233 0.329369 -0.663775 0
M  V30 1626 H 149.88 0.165647 -1.90782 0
M  V30 1627 H 148.185 2.54081 -2.98245 0
M  V30 1628 H 149.882 2.29591 -3.28769 0
M  V30 1629 H 146.472 1.13746 -4.13231 0
M  V30 1630 H 150.656 0.567554 -4.93044 0
M  V30 1631 H 145.912 -0.210233 -6.11038 0
M  V30 1632 H 150.086 -0.774133 -6.92084 0
M  V30 1633 H 147.713 -1.16903 -7.51158 0
M  V30 1634 N 149.288 1.51039 0.449983 0
M  V30 1635 C 150.535 1.63081 1.20045 0
M  V30 1636 C 150.863 0.341024 1.91487 0
M  V30 1637 O 150.118 -0.674276 1.83717 0
M  V30 1638 C 150.417 2.77556 2.25161 0
M  V30 1639 C 150.083 4.17289 1.70823 0
M  V30 1640 C 148.745 4.55305 1.55725 0
M  V30 1641 C 151.097 5.04536 1.3074 0
M  V30 1642 C 148.425 5.78287 0.989999 0
M  V30 1643 C 150.777 6.28085 0.754482 0
M  V30 1644 C 149.441 6.64885 0.590308 0
M  V30 1645 H 148.711 0.596755 0.439277 0
M  V30 1646 H 151.358 1.85037 0.49333 0
M  V30 1647 H 149.663 2.49771 3.01863 0
M  V30 1648 H 151.36 2.84073 2.83026 0
M  V30 1649 H 147.95 3.8731 1.83546 0
M  V30 1650 H 152.134 4.75782 1.41229 0
M  V30 1651 H 147.39 6.05456 0.850451 0
M  V30 1652 H 151.564 6.95038 0.435324 0
M  V30 1653 H 149.191 7.60055 0.14862 0
M  V30 1654 N 150.766 -0.704594 1.40972 0
M  V30 1655 C 151.991 -1.49858 1.43378 0
M  V30 1656 C 152.416 -1.88061 0.038184 0
M  V30 1657 O 151.774 -1.5402 -0.956425 0
M  V30 1658 C 151.822 -2.74333 2.34038 0
M  V30 1659 O 150.926 -3.7147 1.7912 0
M  V30 1660 H 150.267 -0.45139 0.486974 0
M  V30 1661 H 152.797 -0.866832 1.8533 0
M  V30 1662 H 152.807 -3.22741 2.49604 0
M  V30 1663 H 151.482 -2.45863 3.35446 0
M  V30 1664 H 150.059 -3.30363 1.72958 0
M  V30 1665 N 152.244 -1.26651 -0.937939 0
M  V30 1666 C 153.174 -1.10993 -2.05433 0
M  V30 1667 C 154.155 -0.0142161 -1.70094 0
M  V30 1668 O 155.34 -0.186837 -1.93299 0
M  V30 1669 C 152.47 -0.745561 -3.39203 0
M  V30 1670 C 151.424 -1.79337 -3.88616 0
M  V30 1671 C 150.75 -1.28324 -5.19073 0
M  V30 1672 C 152.05 -3.19553 -4.13138 0
M  V30 1673 H 153.744 -2.0438 -2.1879 0
M  V30 1674 H 151.29 -0.984041 -1.05131 0
M  V30 1675 H 153.243 -0.622888 -4.16771 0
M  V30 1676 H 151.967 0.22401 -3.25831 0
M  V30 1677 H 150.626 -1.90477 -3.13231 0
M  V30 1678 H 150.274 -0.303414 -5.02084 0
M  V30 1679 H 149.974 -1.98369 -5.53103 0
M  V30 1680 H 151.498 -1.1733 -5.99221 0
M  V30 1681 H 152.912 -3.11471 -4.81309 0
M  V30 1682 H 151.309 -3.87218 -4.58457 0
M  V30 1683 H 152.379 -3.65368 -3.18801 0
M  V30 1684 N 153.722 1.14298 -1.08507 0
M  V30 1685 C 154.685 2.17607 -0.719711 0
M  V30 1686 C 155.685 1.58907 0.245997 0
M  V30 1687 O 156.875 1.74181 0.0254081 0
M  V30 1688 C 154.007 3.40842 -0.0627695 0
M  V30 1689 H 155.2 2.51443 -1.63452 0
M  V30 1690 H 152.753 1.28963 -0.88307 0
M  V30 1691 H 153.488 3.12587 0.863716 0
M  V30 1692 H 153.273 3.84713 -0.757504 0
M  V30 1693 H 154.763 4.17221 0.177786 0
M  V30 1694 N 155.201 0.870884 1.31352 0
M  V30 1695 C 156.111 0.330783 2.32256 0
M  V30 1696 C 157.127 -0.559767 1.6475 0
M  V30 1697 O 158.303 -0.456263 1.96164 0
M  V30 1698 C 155.368 -0.458137 3.4366 0
M  V30 1699 C 154.429 0.460482 4.26823 0
M  V30 1700 C 153.662 -0.290881 5.32907 0
M  V30 1701 O 153.885 -1.51885 5.49806 0
M  V30 1702 O 152.819 0.351732 6.00871 0
M  V30 1703 H 156.645 1.16718 2.80376 0
M  V30 1704 H 154.23 0.634285 1.35267 0
M  V30 1705 H 156.112 -0.905343 4.1156 0
M  V30 1706 H 154.787 -1.27106 2.97701 0
M  V30 1707 H 153.694 0.956207 3.61673 0
M  V30 1708 H 155.027 1.23903 4.7635 0
M  V30 1709 N 156.679 -1.44442 0.630414 0
M  V30 1710 C 157.589 -2.34476 -0.0761693 0
M  V30 1711 C 158.605 -1.52576 -0.836449 0
M  V30 1712 O 159.781 -1.85307 -0.788874 0
M  V30 1713 C 156.846 -3.30545 -1.04599 0
M  V30 1714 C 155.907 -4.28352 -0.28516 0
M  V30 1715 C 155.14 -5.19831 -1.20878 0
M  V30 1716 O 155.363 -5.15223 -2.44747 0
M  V30 1717 O 154.297 -5.97892 -0.693491 0
M  V30 1718 H 158.123 -2.96345 0.664324 0
M  V30 1719 H 155.708 -1.44203 0.39061 0
M  V30 1720 H 157.59 -3.89681 -1.60396 0
M  V30 1721 H 156.265 -2.7121 -1.76711 0
M  V30 1722 H 155.172 -3.72764 0.315837 0
M  V30 1723 H 156.505 -4.90605 0.395924 0
M  V30 1724 N 158.157 -0.370918 -1.53173 0
M  V30 1725 C 159.087 0.464847 -2.28826 0
M  V30 1726 C 160.068 1.07936 -1.31468 0
M  V30 1727 O 161.253 1.0956 -1.60344 0
M  V30 1728 C 158.383 1.60196 -3.08147 0
M  V30 1729 C 157.337 1.11443 -4.13237 0
M  V30 1730 C 156.663 2.3422 -4.80672 0
M  V30 1731 C 157.963 0.195384 -5.21934 0
M  V30 1732 H 159.657 -0.166329 -2.98938 0
M  V30 1733 H 157.203 -0.0814359 -1.4377 0
M  V30 1734 H 159.156 2.19332 -3.59822 0
M  V30 1735 H 157.88 2.26045 -2.35735 0
M  V30 1736 H 156.539 0.545727 -3.62515 0
M  V30 1737 H 156.187 2.98537 -4.04827 0
M  V30 1738 H 155.887 2.02269 -5.51689 0
M  V30 1739 H 157.411 2.94032 -5.35143 0
M  V30 1740 H 158.825 0.694375 -5.69079 0
M  V30 1741 H 157.222 -0.0335027 -6.00091 0
M  V30 1742 H 158.292 -0.760961 -4.78892 0
M  V30 1743 N 159.635 1.57281 -0.100228 0
M  V30 1744 C 161.046 1.81725 0.428107 0
M  V30 1745 C 161.397 1.01619 1.67833 0
M  V30 1746 O 160.522 0.247098 2.14985 0
M  V30 1747 C 161.117 3.29617 0.78347 0
M  V30 1748 C 159.676 3.54808 1.25653 0
M  V30 1749 C 158.823 2.76118 0.255752 0
M  V30 1750 H 161.774 1.55324 -0.325608 0
M  V30 1751 H 161.795 3.4322 1.64256 0
M  V30 1752 H 161.307 3.87893 -0.12665 0
M  V30 1753 H 159.408 3.01868 2.18418 0
M  V30 1754 H 159.521 4.63443 1.21482 0
M  V30 1755 H 157.885 2.43745 0.738956 0
M  V30 1756 H 158.668 3.37145 -0.647136 0
M  V30 1757 N 161.113 -0.173488 1.56642 0
M  V30 1758 C 162.045 -1.23935 1.92802 0
M  V30 1759 C 163.058 -1.40589 0.820889 0
M  V30 1760 O 164.247 -1.40631 1.09933 0
M  V30 1761 C 161.347 -2.60837 2.16373 0
M  V30 1762 C 160.52 -2.6551 3.47596 0
M  V30 1763 C 159.579 -3.8376 3.60021 0
M  V30 1764 O 158.605 -3.69859 4.32658 0
M  V30 1765 N 159.807 -5.00127 2.94709 0
M  V30 1766 H 162.572 -0.932236 2.84832 0
M  V30 1767 H 160.133 -0.363268 1.57772 0
M  V30 1768 H 162.125 -3.38407 2.21952 0
M  V30 1769 H 160.695 -2.83948 1.30738 0
M  V30 1770 H 159.915 -1.74052 3.53694 0
M  V30 1771 H 161.203 -2.65641 4.33949 0
M  V30 1772 H 160.601 -5.14322 2.35563 0
M  V30 1773 H 159.158 -5.75567 3.05886 0
M  V30 1774 N 162.591 -1.51276 -0.441967 0
M  V30 1775 C 163.539 -1.72823 -1.55676 0
M  V30 1776 C 164.533 -0.59445 -1.58627 0
M  V30 1777 O 165.739 -0.775715 -1.62427 0
M  V30 1778 H 162.114 -0.545983 -0.517113 0
M  V30 1779 H 164.085 -2.6628 -1.34675 0
M  V30 1780 C 162.834 -1.86619 -2.93375 0
M  V30 1781 H 162.157 -2.73264 -2.91834 0
M  V30 1782 H 163.597 -2.05709 -3.70756 0
M  V30 1783 C 162.056 -0.624842 -3.31055 0
M  V30 1784 O 162.586 0.222636 -4.01083 0
M  V30 1785 N 160.792 -0.470288 -2.86769 0
M  V30 1786 H 160.339 -1.161 -2.29953 0
M  V30 1787 H 160.297 0.359051 -3.12343 0
M  V30 1788 N 164.069 0.697108 -1.41344 0
M  V30 1789 C 164.979 1.84088 -1.45427 0
M  V30 1790 C 165.995 1.70545 -0.34501 0
M  V30 1791 O 167.171 1.92488 -0.592492 0
M  V30 1792 C 164.236 3.20056 -1.33286 0
M  V30 1793 C 163.297 3.45718 -2.54514 0
M  V30 1794 C 162.53 4.75199 -2.42944 0
M  V30 1795 O 162.753 5.51579 -1.45318 0
M  V30 1796 O 161.687 5.0161 -3.32672 0
M  V30 1797 H 165.513 1.836 -2.41919 0
M  V30 1798 H 163.098 0.849966 -1.22866 0
M  V30 1799 H 164.98 4.01236 -1.28794 0
M  V30 1800 H 163.655 3.2123 -0.39909 0
M  V30 1801 H 162.562 2.64474 -2.64583 0
M  V30 1802 H 163.895 3.49356 -3.46715 0
M  V30 1803 N 165.547 1.27147 0.931209 0
M  V30 1804 C 166.824 1.0401 1.65654 0
M  V30 1805 C 167.204 -0.426297 2.06751 0
M  V30 1806 O 166.552 -1.40879 1.79904 0
M  V30 1807 C 166.762 1.99834 2.86125 0
M  V30 1808 C 168.11 2.29007 3.57549 0
M  V30 1809 O 169.134 1.97779 2.96246 0
M  V30 1810 O 167.993 2.82222 4.67989 0
M  V30 1811 H 165.087 0.396239 0.725895 0
M  V30 1812 H 167.633 1.38397 0.982056 0
M  V30 1813 H 166.405 2.98744 2.52721 0
M  V30 1814 H 166.028 1.65987 3.61295 0
M  V30 1815 N 167.025 -1.13721 1.09112 0
M  V30 1816 C 167.955 -2.21148 0.749385 0
M  V30 1817 C 168.936 -1.6792 -0.271475 0
M  V30 1818 O 170.121 -1.93693 -0.140251 0
M  V30 1819 C 167.251 -3.46905 0.165659 0
M  V30 1820 C 166.205 -4.13203 1.11567 0
M  V30 1821 C 165.531 -5.33248 0.393809 0
M  V30 1822 C 166.831 -4.60912 2.45678 0
M  V30 1823 H 168.525 -2.4999 1.64758 0
M  V30 1824 H 166.071 -1.20156 0.793626 0
M  V30 1825 H 168.024 -4.21313 -0.085466 0
M  V30 1826 H 166.748 -3.17449 -0.767714 0
M  V30 1827 H 165.407 -3.40758 1.35202 0
M  V30 1828 H 165.055 -5.00054 -0.543599 0
M  V30 1829 H 164.755 -5.78552 1.02721 0
M  V30 1830 H 166.279 -6.10413 0.150908 0
M  V30 1831 H 167.693 -5.26759 2.26269 0
M  V30 1832 H 166.09 -5.16944 3.04776 0
M  V30 1833 H 167.16 -3.75603 3.06677 0
M  V30 1834 N 168.503 -0.877838 -1.30888 0
M  V30 1835 C 169.433 -0.35534 -2.3078 0
M  V30 1836 C 170.414 0.557994 -1.60687 0
M  V30 1837 O 171.599 0.473355 -1.88343 0
M  V30 1838 C 168.729 0.437221 -3.44537 0
M  V30 1839 C 167.683 -0.383715 -4.26276 0
M  V30 1840 C 167.009 0.535014 -5.32017 0
M  V30 1841 C 168.309 -1.62201 -4.96476 0
M  V30 1842 H 170.003 -1.19007 -2.74732 0
M  V30 1843 H 167.549 -0.573698 -1.32078 0
M  V30 1844 H 169.502 0.813334 -4.13477 0
M  V30 1845 H 168.226 1.30553 -2.99372 0
M  V30 1846 H 166.885 -0.741874 -3.59015 0
M  V30 1847 H 166.533 1.40083 -4.831 0
M  V30 1848 H 166.233 -0.0104211 -5.87599 0
M  V30 1849 H 167.757 0.907799 -6.03814 0
M  V30 1850 H 169.171 -1.31689 -5.5797 0
M  V30 1851 H 167.568 -2.10711 -5.61891 0
M  V30 1852 H 168.638 -2.37044 -4.23011 0
M  V30 1853 N 169.982 1.44106 -0.638065 0
M  V30 1854 C 170.892 2.34513 0.0637334 0
M  V30 1855 C 171.908 1.53018 0.828346 0
M  V30 1856 O 173.084 1.85723 0.779036 0
M  V30 1857 C 170.149 3.31095 1.02844 0
M  V30 1858 C 169.21 4.28497 0.26244 0
M  V30 1859 C 168.443 5.20465 1.1812 0
M  V30 1860 O 168.666 5.16514 2.42011 0
M  V30 1861 O 167.6 5.98251 0.661774 0
M  V30 1862 H 171.426 2.95989 -0.68003 0
M  V30 1863 H 169.011 1.43994 -0.398252 0
M  V30 1864 H 170.893 3.90526 1.58327 0
M  V30 1865 H 169.568 2.72144 1.7527 0
M  V30 1866 H 168.475 3.72592 -0.335602 0
M  V30 1867 H 169.808 4.90388 -0.421936 0
M  V30 1868 N 171.46 0.379036 1.52974 0
M  V30 1869 C 172.685 -0.209353 2.06341 0
M  V30 1870 C 173.11 -1.40583 1.24972 0
M  V30 1871 O 172.468 -1.79246 0.272155 0
M  V30 1872 C 172.516 -0.567786 3.56102 0
M  V30 1873 O 171.62 -1.66318 3.77375 0
M  V30 1874 H 170.961 -0.0272919 0.663439 0
M  V30 1875 H 173.491 0.543536 1.97248 0
M  V30 1876 H 173.501 -0.835003 3.99364 0
M  V30 1877 H 172.176 0.307013 4.14765 0
M  V30 1878 H 170.753 -1.39048 3.46006 0
M  V30 1879 N 172.938 -1.57226 0.108567 0
M  V30 1880 C 173.848 -2.18292 -0.859401 0
M  V30 1881 C 174.864 -1.15612 -1.30038 0
M  V30 1882 O 176.04 -1.48039 -1.36552 0
M  V30 1883 C 173.105 -2.762 -2.09558 0
M  V30 1884 C 172.166 -3.93881 -1.70752 0
M  V30 1885 C 171.399 -4.49018 -2.88477 0
M  V30 1886 O 171.622 -4.03068 -4.036 0
M  V30 1887 O 170.556 -5.39852 -2.66164 0
M  V30 1888 H 174.382 -3.01441 -0.369769 0
M  V30 1889 H 171.967 -1.48945 -0.1165 0
M  V30 1890 H 173.849 -3.13156 -2.81978 0
M  V30 1891 H 172.524 -1.96089 -2.57548 0
M  V30 1892 H 171.431 -3.61713 -0.954714 0
M  V30 1893 H 172.764 -4.75396 -1.27513 0
M  V30 1894 N 174.416 0.165178 -1.56732 0
M  V30 1895 C 175.693 0.908443 -1.73224 0
M  V30 1896 C 176.073 2.0013 -0.67165 0
M  V30 1897 O 175.421 2.26353 0.31253 0
M  V30 1898 C 175.631 1.46756 -3.16644 0
M  V30 1899 C 176.979 1.93809 -3.77787 0
M  V30 1900 O 178.003 1.56537 -3.1996 0
M  V30 1901 O 176.862 2.62486 -4.79336 0
M  V30 1902 H 173.956 0.428025 -0.707618 0
M  V30 1903 H 176.502 0.152526 -1.69013 0
M  V30 1904 H 175.274 0.68129 -3.85323 0
M  V30 1905 H 174.897 2.28749 -3.25207 0
M  V30 1906 N 175.894 1.51508 0.433938 0
M  V30 1907 C 177.171 1.54888 1.19453 0
M  V30 1908 C 177.551 0.315154 2.08734 0
M  V30 1909 O 176.899 -0.699558 2.17528 0
M  V30 1910 C 177.109 2.86467 1.99342 0
M  V30 1911 C 178.457 3.38545 2.56267 0
M  V30 1912 O 179.481 2.88041 2.0955 0
M  V30 1913 O 178.34 4.26675 3.41483 0
M  V30 1914 H 175.434 0.622863 0.544032 0
M  V30 1915 H 177.98 1.63823 0.442732 0
M  V30 1916 H 176.752 3.67718 1.33788 0
M  V30 1917 H 176.375 2.8071 2.8158 0
M  V30 1918 N 177.372 -0.689602 1.41712 0
M  V30 1919 C 178.335 -1.78521 1.43746 0
M  V30 1920 C 179.335 -1.57436 0.327191 0
M  V30 1921 O 180.525 -1.64 0.587348 0
M  V30 1922 C 177.657 -3.16971 1.25467 0
M  V30 1923 H 178.85 -1.78108 2.41283 0
M  V30 1924 H 176.403 -0.89781 1.27942 0
M  V30 1925 H 177.138 -3.23019 0.287948 0
M  V30 1926 H 176.923 -3.33678 2.05917 0
M  V30 1927 H 178.413 -3.96935 1.2974 0
M  V30 1928 N 178.85 -1.27639 -0.924453 0
M  V30 1929 C 180.261 -1.12834 -1.48746 0
M  V30 1930 C 180.612 0.285505 -1.94112 0
M  V30 1931 O 179.737 1.17874 -1.81479 0
M  V30 1932 C 180.332 -2.04217 -2.70334 0
M  V30 1933 C 178.891 -1.93509 -3.22848 0
M  V30 1934 C 178.038 -1.96583 -1.95577 0
M  V30 1935 H 180.989 -1.40484 -0.738233 0
M  V30 1936 H 181.01 -1.59989 -3.4523 0
M  V30 1937 H 180.522 -3.07111 -2.37285 0
M  V30 1938 H 178.623 -0.936131 -3.60649 0
M  V30 1939 H 178.736 -2.79917 -3.88823 0
M  V30 1940 H 177.1 -1.4085 -2.12211 0
M  V30 1941 H 177.883 -3.01137 -1.64837 0
M  V30 1942 N 180.328 1.1314 -1.09713 0
M  V30 1943 C 181.577 1.83838 -0.829851 0
M  V30 1944 C 181.89 1.84599 0.646728 0
M  V30 1945 O 183.096 2.51218 1.02965 0
M  V30 1946 C 181.552 3.30069 -1.43466 0
M  V30 1947 C 181.16 3.37688 -2.94399 0
M  V30 1948 C 182.904 4.05788 -1.24645 0
M  V30 1949 C 180.811 4.78209 -3.47952 0
M  V30 1950 H 179.741 0.68877 -0.306777 0
M  V30 1951 H 182.392 1.27448 -1.3202 0
M  V30 1952 H 180.774 3.8628 -0.871996 0
M  V30 1953 H 181.948 2.91456 -3.56918 0
M  V30 1954 H 180.263 2.75436 -3.12289 0
M  V30 1955 H 182.86 5.09535 -1.62107 0
M  V30 1956 H 183.203 4.15878 -0.187357 0
M  V30 1957 H 183.736 3.55915 -1.77678 0
M  V30 1958 H 180.475 4.73311 -4.53495 0
M  V30 1959 H 179.995 5.24924 -2.90198 0
M  V30 1960 H 181.674 5.47133 -3.45332 0
M  V30 1961 N 181.806 0.884767 1.30421 0
M  V30 1962 C 183.055 0.499164 1.95426 0
M  V30 1963 C 183.368 -0.95645 1.70621 0
M  V30 1964 O 184.574 -1.44889 2.29607 0
M  V30 1965 C 183.03 0.84177 3.49917 0
M  V30 1966 C 182.638 2.31514 3.83543 0
M  V30 1967 C 184.382 0.525355 4.21237 0
M  V30 1968 C 182.289 2.59939 5.31212 0
M  V30 1969 H 181.219 0.182944 0.73147 0
M  V30 1970 H 183.87 1.07971 1.48373 0
M  V30 1971 H 182.252 0.190311 3.95542 0
M  V30 1972 H 183.426 3.0109 3.48829 0
M  V30 1973 H 181.741 2.59907 3.25326 0
M  V30 1974 H 184.338 0.714762 5.29901 0
M  V30 1975 H 184.681 -0.535222 4.12845 0
M  V30 1976 H 185.214 1.134 3.81294 0
M  V30 1977 H 181.953 3.64736 5.44654 0
M  V30 1978 H 181.473 1.94972 5.67227 0
M  V30 1979 H 183.152 2.45429 5.98643 0
M  V30 1980 N 183.284 -1.43765 0.645699 0
M  V30 1981 C 184.231 -2.30745 -0.0504648 0
M  V30 1982 C 185.201 -1.4432 -0.822241 0
M  V30 1983 O 186.386 -1.73202 -0.800358 0
M  V30 1984 C 183.526 -3.29802 -1.0161 0
M  V30 1985 C 182.639 -4.31326 -0.241219 0
M  V30 1986 C 181.774 -5.17469 -1.19998 0
M  V30 1987 C 180.813 -6.10691 -0.415094 0
M  V30 1988 N 179.95 -6.89483 -1.32506 0
M  V30 1989 H 184.79 -2.8973 0.697155 0
M  V30 1990 H 182.327 -1.42738 0.355563 0
M  V30 1991 H 184.285 -3.85734 -1.58949 0
M  V30 1992 H 182.915 -2.72483 -1.73069 0
M  V30 1993 H 181.967 -3.77749 0.448334 0
M  V30 1994 H 183.279 -4.9743 0.369437 0
M  V30 1995 H 182.433 -5.7799 -1.84424 0
M  V30 1996 H 181.172 -4.51473 -1.84455 0
M  V30 1997 H 180.177 -5.49265 0.242565 0
M  V30 1998 H 181.402 -6.78727 0.224966 0
M  V30 1999 H 179.348 -6.26142 -1.95657 0
M  V30 2000 H 179.265 -7.52081 -0.768783 0
M  V30 2001 H 180.533 -7.54516 -1.9577 0
M  V30 2002 N 184.763 -0.387143 -1.52771 0
M  V30 2003 C 185.693 0.440551 -2.29306 0
M  V30 2004 C 186.674 1.06535 -1.32606 0
M  V30 2005 O 187.859 1.07853 -1.61497 0
M  V30 2006 C 184.989 1.56919 -3.09829 0
M  V30 2007 C 183.943 1.07054 -4.14395 0
M  V30 2008 C 183.269 2.29109 -4.83129 0
M  V30 2009 C 184.569 0.140015 -5.22112 0
M  V30 2010 H 186.263 -0.198026 -2.98744 0
M  V30 2011 H 183.809 -0.09668 -1.43675 0
M  V30 2012 H 185.762 2.15503 -3.62128 0
M  V30 2013 H 184.486 2.23532 -2.3812 0
M  V30 2014 H 183.145 0.507247 -3.63074 0
M  V30 2015 H 182.793 2.94227 -4.0797 0
M  V30 2016 H 182.493 1.96406 -5.53804 0
M  V30 2017 H 184.017 2.88339 -5.38231 0
M  V30 2018 H 185.431 0.633978 -5.69784 0
M  V30 2019 H 183.828 -0.0971485 -6.00021 0
M  V30 2020 H 184.898 -0.811711 -4.78058 0
M  V30 2021 N 186.241 1.57166 -0.116904 0
M  V30 2022 C 187.49 1.94298 0.541407 0
M  V30 2023 C 187.803 1.00236 1.67964 0
M  V30 2024 O 189.009 1.26826 2.40057 0
M  V30 2025 C 187.465 3.45306 1.01449 0
M  V30 2026 C 187.073 4.47899 -0.0951738 0
M  V30 2027 C 188.817 3.91361 1.6443 0
M  V30 2028 C 186.724 5.90083 0.394491 0
M  V30 2029 H 185.654 0.725308 0.206019 0
M  V30 2030 H 188.305 1.82446 -0.196419 0
M  V30 2031 H 186.687 3.52385 1.80667 0
M  V30 2032 H 187.861 4.52486 -0.871374 0
M  V30 2033 H 186.176 4.11583 -0.631505 0
M  V30 2034 H 188.773 4.95004 2.02176 0
M  V30 2035 H 189.116 3.3122 2.52189 0
M  V30 2036 H 189.649 3.87073 0.917559 0
M  V30 2037 H 186.388 6.53974 -0.447004 0
M  V30 2038 H 185.908 5.88921 1.13722 0
M  V30 2039 H 187.587 6.41307 0.856399 0
M  V30 2040 N 187.719 -0.156864 1.56817 0
M  V30 2041 C 188.667 -1.21319 1.98455 0
M  V30 2042 C 189.661 -1.45025 0.875444 0
M  V30 2043 O 190.867 -1.45435 1.0606 0
M  V30 2044 H 187.242 -0.408142 0.631605 0
M  V30 2045 H 189.213 -0.835244 2.86472 0
M  V30 2046 C 187.962 -2.54148 2.37285 0
M  V30 2047 H 187.285 -2.36733 3.22176 0
M  V30 2048 H 188.725 -3.26712 2.70251 0
M  V30 2049 C 187.184 -3.13967 1.22173 0
M  V30 2050 O 187.714 -3.98357 0.517149 0
M  V30 2051 N 185.92 -2.7327 0.988536 0
M  V30 2052 H 185.467 -2.04744 1.56326 0
M  V30 2053 H 185.425 -3.13628 0.220209 0
M  V30 2054 N 189.197 -1.51736 -0.425897 0
M  V30 2055 C 190.16 -1.73271 -1.50032 0
M  V30 2056 C 191.16 -0.602639 -1.4908 0
M  V30 2057 O 192.35 -0.87033 -1.509 0
M  V30 2058 C 189.482 -1.79969 -2.89523 0
M  V30 2059 H 190.675 -2.69172 -1.32237 0
M  V30 2060 H 188.228 -1.41899 -0.65532 0
M  V30 2061 H 188.963 -0.859241 -3.1271 0
M  V30 2062 H 188.748 -2.62109 -2.91619 0
M  V30 2063 H 190.238 -1.9843 -3.67444 0
M  V30 2064 N 190.675 0.682077 -1.42076 0
M  V30 2065 C 191.608 1.80666 -1.3941 0
M  V30 2066 C 192.586 1.60518 -0.25939 0
M  V30 2067 O 193.77 1.83088 -0.448456 0
M  V30 2068 C 190.897 3.17556 -1.17796 0
M  V30 2069 C 189.943 3.56468 -2.34164 0
M  V30 2070 S 190.776 3.59729 -3.96681 0
M  V30 2071 C 191.932 4.99323 -3.77395 0
M  V30 2072 H 192.165 1.82652 -2.34575 0
M  V30 2073 H 189.698 0.852062 -1.2876 0
M  V30 2074 H 191.656 3.96575 -1.06012 0
M  V30 2075 H 190.317 3.13164 -0.242279 0
M  V30 2076 H 189.51 4.5595 -2.1477 0
M  V30 2077 H 189.112 2.84792 -2.42425 0
M  V30 2078 H 191.404 5.87202 -3.37935 0
M  V30 2079 H 192.347 5.23763 -4.76527 0
M  V30 2080 H 192.755 4.71498 -3.10403 0
M  V30 2081 N 192.153 1.28127 0.917671 0
M  V30 2082 C 193.083 1.14248 2.03641 0
M  V30 2083 C 194.064 0.0412748 1.7005 0
M  V30 2084 O 195.249 0.217566 1.92977 0
M  V30 2085 C 192.379 0.799431 3.37974 0
M  V30 2086 C 191.333 1.85497 3.85713 0
M  V30 2087 C 190.659 1.36565 5.16966 0
M  V30 2088 C 191.959 3.26085 4.08002 0
M  V30 2089 H 193.653 2.07835 2.15511 0
M  V30 2090 H 191.199 1.00064 1.03553 0
M  V30 2091 H 193.152 0.689114 4.15727 0
M  V30 2092 H 191.876 -0.172145 3.26146 0
M  V30 2093 H 190.535 1.95437 3.10161 0
M  V30 2094 H 190.183 0.383253 5.01538 0
M  V30 2095 H 189.883 2.07143 5.49878 0
M  V30 2096 H 191.407 1.26848 5.97279 0
M  V30 2097 H 192.821 3.19089 4.76293 0
M  V30 2098 H 191.218 3.94462 4.52238 0
M  V30 2099 H 192.288 3.70394 3.12948 0
M  V30 2100 N 193.631 -1.12557 1.10312 0
M  V30 2101 C 194.879 -1.83675 0.843091 0
M  V30 2102 C 195.2 -1.84435 -0.633131 0
M  V30 2103 O 194.47 -1.30657 -1.45964 0
M  V30 2104 H 193.05 -0.680138 0.308904 0
M  V30 2105 H 195.712 -1.36301 1.39313 0
M  V30 2106 H 194.808 -2.87908 1.2048 0
M  V30 2107 N 195.109 -0.891671 -1.2995 0
M  V30 2108 C 196.019 -0.367691 -2.31701 0
M  V30 2109 C 197.035 0.533486 -1.6562 0
M  V30 2110 O 198.211 0.424997 -1.96865 0
M  V30 2111 C 195.276 0.403406 -3.44345 0
M  V30 2112 C 194.337 -0.528328 -4.26037 0
M  V30 2113 C 193.57 0.206063 -5.33302 0
M  V30 2114 O 193.793 1.43119 -5.52153 0
M  V30 2115 O 192.727 -0.447281 -6.00236 0
M  V30 2116 H 196.553 -1.21163 -2.78484 0
M  V30 2117 H 194.138 -0.655725 -1.34241 0
M  V30 2118 H 196.02 0.839753 -4.12948 0
M  V30 2119 H 194.695 1.22354 -2.99685 0
M  V30 2120 H 193.602 -1.01362 -3.60106 0
M  V30 2121 H 194.935 -1.31465 -4.74318 0
M  V30 2122 N 196.587 1.43421 -0.653314 0
M  V30 2123 C 197.55 2.29182 0.0287951 0
M  V30 2124 C 198.55 1.42213 0.750465 0
M  V30 2125 O 199.74 1.63843 0.591701 0
M  V30 2126 C 196.872 3.24278 1.05151 0
M  V30 2127 H 198.065 2.90985 -0.725786 0
M  V30 2128 H 195.618 1.50702 -0.414545 0
M  V30 2129 H 196.353 2.6737 1.83532 0
M  V30 2130 H 196.138 3.88396 0.537687 0
M  V30 2131 H 197.628 3.88647 1.52786 0
M  V30 2132 N 198.065 0.39524 1.52563 0
M  V30 2133 C 199.314 -0.186321 2.00838 0
M  V30 2134 C 199.627 -1.47402 1.28577 0
M  V30 2135 O 200.833 -2.13599 1.67593 0
M  V30 2136 C 199.289 -0.382595 3.57861 0
M  V30 2137 C 198.897 0.892202 4.39026 0
M  V30 2138 C 200.641 -0.9202 4.14406 0
M  V30 2139 C 198.548 0.66388 5.87662 0
M  V30 2140 H 197.478 -0.0734041 0.750418 0
M  V30 2141 H 200.129 0.518552 1.76021 0
M  V30 2142 H 198.511 -1.14946 3.7895 0
M  V30 2143 H 199.685 1.66414 4.29701 0
M  V30 2144 H 198 1.35519 3.9373 0
M  V30 2145 H 200.597 -1.10683 5.23119 0
M  V30 2146 H 200.94 -1.89096 3.70875 0
M  V30 2147 H 201.473 -0.212751 3.97231 0
M  V30 2148 H 198.212 1.6058 6.35527 0
M  V30 2149 H 197.732 -0.0690193 5.9976 0
M  V30 2150 H 199.411 0.300699 6.46301 0
M  V30 2151 N 199.544 -1.57102 0.125237 0
M  V30 2152 C 200.491 -2.15641 -0.822655 0
M  V30 2153 C 201.461 -1.08313 -1.25927 0
M  V30 2154 O 202.646 -1.36251 -1.33567 0
M  V30 2155 C 199.786 -2.76504 -2.06494 0
M  V30 2156 C 198.899 -3.98158 -1.67612 0
M  V30 2157 C 198.034 -4.47088 -2.86854 0
M  V30 2158 C 197.073 -5.6126 -2.44242 0
M  V30 2159 N 196.21 -6.04905 -3.56419 0
M  V30 2160 H 201.05 -2.96313 -0.316625 0
M  V30 2161 H 198.587 -1.46388 -0.144588 0
M  V30 2162 H 200.545 -3.09925 -2.79289 0
M  V30 2163 H 199.175 -1.98512 -2.54545 0
M  V30 2164 H 198.227 -3.70858 -0.846661 0
M  V30 2165 H 199.539 -4.80934 -1.32301 0
M  V30 2166 H 198.693 -4.82451 -3.67867 0
M  V30 2167 H 197.432 -3.63275 -3.25396 0
M  V30 2168 H 196.437 -5.25495 -1.61663 0
M  V30 2169 H 197.662 -6.46843 -2.0681 0
M  V30 2170 H 195.608 -5.24032 -3.94623 0
M  V30 2171 H 195.525 -6.82552 -3.25051 0
M  V30 2172 H 196.793 -6.44907 -4.37853 0
M  V30 2173 N 201.022 0.148545 -1.56898 0
M  V30 2174 C 201.932 1.20293 -2.01412 0
M  V30 2175 C 202.948 1.47107 -0.929273 0
M  V30 2176 O 204.124 1.58807 -1.23863 0
M  V30 2177 C 201.189 2.51682 -2.38447 0
M  V30 2178 C 200.25 2.32529 -3.60872 0
M  V30 2179 C 199.483 3.57653 -3.96132 0
M  V30 2180 O 199.706 4.63771 -3.32073 0
M  V30 2181 O 198.64 3.50408 -4.89385 0
M  V30 2182 H 202.466 0.855025 -2.91416 0
M  V30 2183 H 200.051 0.357151 -1.45068 0
M  V30 2184 H 201.933 3.29147 -2.63135 0
M  V30 2185 H 200.608 2.86006 -1.51599 0
M  V30 2186 H 199.515 1.53019 -3.41373 0
M  V30 2187 H 200.848 2.03121 -4.48333 0
M  V30 2188 N 202.5 1.5196 0.417844 0
M  V30 2189 C 203.748 1.65263 1.16329 0
M  V30 2190 C 204.069 0.380634 1.91249 0
M  V30 2191 O 203.339 -0.604214 1.86349 0
M  V30 2192 H 201.919 0.60912 0.432414 0
M  V30 2193 H 204.581 1.88969 0.477162 0
M  V30 2194 H 203.677 2.4896 1.88217 0
M  V30 2195 N 203.978 -0.674533 1.42435 0
M  V30 2196 C 204.941 -1.76986 1.45632 0
M  V30 2197 C 205.941 -1.5708 0.343871 0
M  V30 2198 O 207.131 -1.63367 0.604709 0
M  V30 2199 C 204.263 -3.15623 1.28822 0
M  V30 2200 H 205.456 -1.75539 2.43158 0
M  V30 2201 H 203.009 -0.884189 1.28887 0
M  V30 2202 H 203.744 -3.22696 0.322193 0
M  V30 2203 H 203.529 -3.31475 2.09444 0
M  V30 2204 H 205.019 -3.95537 1.33942 0
M  V30 2205 N 205.456 -1.28612 -0.910864 0
M  V30 2206 C 206.681 -1.1891 -1.69927 0
M  V30 2207 C 207.106 0.248372 -1.86453 0
M  V30 2208 O 206.464 1.17961 -1.37676 0
M  V30 2209 C 206.512 -1.89578 -3.06745 0
M  V30 2210 O 205.616 -1.20521 -3.94396 0
M  V30 2211 H 204.957 -0.412632 -0.520222 0
M  V30 2212 H 207.487 -1.69985 -1.1387 0
M  V30 2213 H 207.497 -1.97597 -3.56958 0
M  V30 2214 H 206.172 -2.94136 -2.94035 0
M  V30 2215 H 204.749 -1.20684 -3.52831 0
M  V30 2216 N 206.934 1.1197 -1.10907 0
M  V30 2217 C 208.211 1.79959 -0.766432 0
M  V30 2218 C 208.591 1.97466 0.746363 0
M  V30 2219 O 207.939 1.55491 1.67436 0
M  V30 2220 C 208.149 3.14009 -1.52314 0
M  V30 2221 C 209.497 3.89134 -1.69883 0
M  V30 2222 O 210.521 3.2368 -1.48692 0
M  V30 2223 O 209.38 5.06572 -2.05054 0
M  V30 2224 H 206.474 0.779208 -0.277062 0
M  V30 2225 H 209.02 1.18762 -1.21217 0
M  V30 2226 H 207.792 2.96587 -2.55249 0
M  V30 2227 H 207.415 3.82915 -1.07059 0
M  V30 2228 N 208.412 0.89855 1.29475 0
M  V30 2229 C 209.661 0.519863 1.94885 0
M  V30 2230 C 209.974 -0.9383 1.71625 0
M  V30 2231 O 211.18 -1.42445 2.31131 0
M  V30 2232 C 209.636 0.878836 3.49005 0
M  V30 2233 C 209.244 2.35569 3.81066 0
M  V30 2234 C 210.988 0.570004 4.20656 0
M  V30 2235 C 208.895 2.65558 5.28425 0
M  V30 2236 H 207.825 0.190692 0.729488 0
M  V30 2237 H 210.476 1.09539 1.47219 0
M  V30 2238 H 208.858 0.232253 3.95318 0
M  V30 2239 H 210.032 3.04773 3.45616 0
M  V30 2240 H 208.347 2.63343 3.22552 0
M  V30 2241 H 210.944 0.770925 5.29113 0
M  V30 2242 H 211.287 -0.491404 4.1339 0
M  V30 2243 H 211.82 1.17438 3.8007 0
M  V30 2244 H 208.559 3.70493 5.40754 0
M  V30 2245 H 208.079 2.00977 5.65127 0
M  V30 2246 H 209.758 2.51765 5.96006 0
M  V30 2247 N 209.89 -1.43072 0.660911 0
M  V30 2248 C 210.84 -2.27948 -0.04847 0
M  V30 2249 C 211.824 -1.40325 -0.787246 0
M  V30 2250 O 213.016 -1.63893 -0.668446 0
M  V30 2251 C 210.145 -3.28143 -1.00881 0
M  V30 2252 C 209.231 -4.23252 -0.268108 0
M  V30 2253 N 209.622 -5.00656 0.719528 0
M  V30 2254 C 207.92 -4.43092 -0.508493 0
M  V30 2255 C 208.621 -5.70019 1.15988 0
M  V30 2256 N 207.597 -5.41364 0.492584 0
M  V30 2257 H 211.399 -2.85213 0.709279 0
M  V30 2258 H 208.913 -1.54869 0.488822 0
M  V30 2259 H 210.91 -3.87736 -1.53188 0
M  V30 2260 H 209.57 -2.7244 -1.76654 0
M  V30 2261 H 210.581 -5.06115 1.09855 0
M  V30 2262 H 207.258 -3.98449 -1.24679 0
M  V30 2263 H 208.648 -6.4214 1.97751 0
M  V30 2264 N 211.368 -0.403325 -1.52352 0
M  V30 2265 C 212.617 0.175668 -2.00934 0
M  V30 2266 C 212.93 1.46718 -1.29356 0
M  V30 2267 O 214.136 2.12708 -1.68724 0
M  V30 2268 C 212.592 0.363612 -3.58058 0
M  V30 2269 C 212.2 -0.915472 -4.38547 0
M  V30 2270 C 213.944 0.89821 -4.14888 0
M  V30 2271 C 211.851 -0.695035 -5.87302 0
M  V30 2272 H 210.781 0.0694234 -0.750797 0
M  V30 2273 H 213.432 -0.527879 -1.75743 0
M  V30 2274 H 211.814 1.12935 -3.79555 0
M  V30 2275 H 212.988 -1.68691 -4.28812 0
M  V30 2276 H 211.303 -1.37606 -3.93006 0
M  V30 2277 H 213.9 1.07907 -5.23699 0
M  V30 2278 H 214.243 1.87126 -3.71873 0
M  V30 2279 H 214.776 0.191681 -3.97338 0
M  V30 2280 H 211.515 -1.63948 -6.34666 0
M  V30 2281 H 211.035 0.0372116 -5.99788 0
M  V30 2282 H 212.714 -0.33497 -6.46132 0
M  V30 2283 N 212.846 1.57033 -0.133567 0
M  V30 2284 C 213.756 2.19632 0.824564 0
M  V30 2285 C 214.772 1.17666 1.28182 0
M  V30 2286 O 215.948 1.50193 1.3418 0
M  V30 2287 C 213.013 2.79499 2.05137 0
M  V30 2288 C 212.074 3.96548 1.64464 0
M  V30 2289 C 211.307 4.5355 2.81297 0
M  V30 2290 O 211.53 4.09438 3.97136 0
M  V30 2291 O 210.464 5.44018 2.57542 0
M  V30 2292 H 214.29 3.01991 0.321766 0
M  V30 2293 H 211.875 1.49112 0.0927889 0
M  V30 2294 H 213.757 3.17602 2.7696 0
M  V30 2295 H 212.432 2.00162 2.54395 0
M  V30 2296 H 211.339 3.63186 0.897048 0
M  V30 2297 H 212.672 4.77364 1.19934 0
M  V30 2298 N 214.325 -0.140222 1.56975 0
M  V30 2299 C 215.553 -0.866437 1.87884 0
M  V30 2300 C 215.968 -1.74428 0.722517 0
M  V30 2301 O 215.325 -1.79891 -0.30749 0
M  V30 2302 C 215.376 -1.71753 3.18093 0
M  V30 2303 O 215.097 -0.875056 4.29272 0
M  V30 2304 C 216.598 -2.55074 3.62563 0
M  V30 2305 H 213.818 -0.25019 0.622612 0
M  V30 2306 H 216.362 -0.130977 2.0408 0
M  V30 2307 H 214.517 -2.40598 3.03631 0
M  V30 2308 H 214.931 -1.46002 5.03769 0
M  V30 2309 H 216.405 -3.10356 4.5649 0
M  V30 2310 H 216.882 -3.31434 2.88181 0
M  V30 2311 H 217.488 -1.91509 3.79743 0
M  V30 2312 N 215.803 -1.52179 -0.40978 0
M  V30 2313 C 217.05 -1.66206 -1.15679 0
M  V30 2314 C 217.378 -0.391674 -1.90516 0
M  V30 2315 O 216.633 0.62533 -1.8544 0
M  V30 2316 C 216.932 -2.83428 -2.17723 0
M  V30 2317 C 216.598 -4.21672 -1.59699 0
M  V30 2318 C 215.26 -4.59274 -1.43599 0
M  V30 2319 C 217.612 -5.07825 -1.17317 0
M  V30 2320 C 214.94 -5.80709 -0.836328 0
M  V30 2321 C 217.292 -6.29864 -0.587691 0
M  V30 2322 C 215.956 -6.66216 -0.413818 0
M  V30 2323 H 215.226 -0.608192 -0.423301 0
M  V30 2324 H 217.873 -1.86279 -0.444097 0
M  V30 2325 H 216.178 -2.57687 -2.95135 0
M  V30 2326 H 217.875 -2.91477 -2.75394 0
M  V30 2327 H 214.465 -3.9204 -1.73213 0
M  V30 2328 H 218.649 -4.79359 -1.28565 0
M  V30 2329 H 213.905 -6.07498 -0.689626 0
M  V30 2330 H 218.079 -6.95948 -0.250894 0
M  V30 2331 H 215.706 -7.60182 0.0529471 0
M  V30 2332 N 217.281 0.66697 -1.42791 0
M  V30 2333 C 218.191 1.80962 -1.49299 0
M  V30 2334 C 219.207 1.69775 -0.381108 0
M  V30 2335 O 220.383 1.91188 -0.633188 0
M  V30 2336 C 217.448 3.17156 -1.40045 0
M  V30 2337 C 216.509 3.40242 -2.6179 0
M  V30 2338 C 215.742 4.69939 -2.52969 0
M  V30 2339 O 215.965 5.48372 -1.56985 0
M  V30 2340 O 214.899 4.94441 -3.43237 0
M  V30 2341 H 218.725 1.78427 -2.45759 0
M  V30 2342 H 216.31 0.823713 -1.24641 0
M  V30 2343 H 218.192 3.98413 -1.37276 0
M  V30 2344 H 216.867 3.20312 -0.467138 0
M  V30 2345 H 215.774 2.58802 -2.70134 0
M  V30 2346 H 217.107 3.41923 -3.54047 0
M  V30 2347 N 218.759 1.29093 0.90403 0
M  V30 2348 C 219.706 1.13853 2.00764 0
M  V30 2349 C 220.676 0.0330084 1.66067 0
M  V30 2350 O 221.861 0.199733 1.89752 0
M  V30 2351 C 219.001 0.816537 3.35301 0
M  V30 2352 C 218.114 2.00206 3.82807 0
M  V30 2353 C 217.249 1.61983 5.059 0
M  V30 2354 C 216.288 2.77143 5.45764 0
M  V30 2355 N 215.425 2.39346 6.60044 0
M  V30 2356 H 220.265 2.08276 2.13132 0
M  V30 2357 H 217.802 1.03648 1.04381 0
M  V30 2358 H 219.76 0.610557 4.12708 0
M  V30 2359 H 218.39 -0.090779 3.22672 0
M  V30 2360 H 217.442 2.31988 3.01473 0
M  V30 2361 H 218.754 2.86512 4.08304 0
M  V30 2362 H 217.908 1.37649 5.90879 0
M  V30 2363 H 216.647 0.728202 4.82233 0
M  V30 2364 H 215.652 3.02165 4.59322 0
M  V30 2365 H 216.877 3.66964 5.71414 0
M  V30 2366 H 214.823 1.52665 6.37989 0
M  V30 2367 H 214.74 3.19185 6.85315 0
M  V30 2368 H 216.008 2.1832 7.48303 0
M  V30 2369 N 220.237 -1.11381 1.11499 0
M  V30 2370 C 221.465 -1.86934 0.88675 0
M  V30 2371 C 221.88 -1.80195 -0.563476 0
M  V30 2372 O 221.237 -1.18367 -1.38908 0
M  V30 2373 C 221.288 -3.35722 1.34064 0
M  V30 2374 O 221.009 -3.4232 2.73401 0
M  V30 2375 C 222.51 -4.2818 1.14791 0
M  V30 2376 H 219.73 -0.591117 0.317523 0
M  V30 2377 H 222.274 -1.40865 1.48248 0
M  V30 2378 H 220.429 -3.79294 0.788355 0
M  V30 2379 H 220.843 -4.34971 2.93087 0
M  V30 2380 H 222.317 -5.30817 1.5145 0
M  V30 2381 H 222.794 -4.39113 0.0875279 0
M  V30 2382 H 223.4 -3.90402 1.68721 0
M  V30 2383 N 221.715 -0.905404 -1.28997 0
M  V30 2384 C 222.645 -0.404212 -2.29975 0
M  V30 2385 C 223.626 0.523784 -1.61835 0
M  V30 2386 O 224.811 0.433298 -1.89304 0
M  V30 2387 C 221.941 0.364042 -3.45387 0
M  V30 2388 C 220.895 -0.474048 -4.25367 0
M  V30 2389 C 220.221 0.422045 -5.33032 0
M  V30 2390 C 221.521 -1.72696 -4.92923 0
M  V30 2391 H 223.215 -1.24807 -2.72146 0
M  V30 2392 H 220.761 -0.601585 -1.30832 0
M  V30 2393 H 222.714 0.725447 -4.15109 0
M  V30 2394 H 221.438 1.24174 -3.02074 0
M  V30 2395 H 220.097 -0.81786 -3.57361 0
M  V30 2396 H 219.745 1.29804 -4.85963 0
M  V30 2397 H 219.445 -0.135057 -5.87445 0
M  V30 2398 H 220.969 0.779517 -6.05604 0
M  V30 2399 H 222.383 -1.43495 -5.55051 0
M  V30 2400 H 220.78 -2.22582 -5.57295 0
M  V30 2401 H 221.85 -2.45964 -4.17887 0
M  V30 2402 N 223.193 1.4272 -0.668489 0
M  V30 2403 C 224.418 2.06484 -0.194758 0
M  V30 2404 C 224.843 1.49862 1.13679 0
M  V30 2405 O 224.201 0.614582 1.70565 0
M  V30 2406 C 224.249 3.60353 -0.133546 0
M  V30 2407 O 223.353 4.02464 0.899806 0
M  V30 2408 H 222.694 0.656137 -0.10188 0
M  V30 2409 H 225.224 1.82964 -0.915722 0
M  V30 2410 H 225.234 4.07976 0.0447041 0
M  V30 2411 H 223.909 4.00938 -1.1055 0
M  V30 2412 H 222.486 3.66402 0.693109 0
M  V30 2413 N 224.671 0.411399 1.52136 0
M  V30 2414 C 225.92 -0.165009 2.01024 0
M  V30 2415 C 226.233 -1.4603 1.30133 0
M  V30 2416 O 227.439 -2.1181 1.69849 0
M  V30 2417 C 225.895 -0.344618 3.58246 0
M  V30 2418 C 225.503 0.938716 4.38055 0
M  V30 2419 C 227.247 -0.876195 4.15359 0
M  V30 2420 C 225.154 0.726172 5.86925 0
M  V30 2421 H 224.084 -0.0654407 0.751155 0
M  V30 2422 H 226.735 0.537192 1.75461 0
M  V30 2423 H 225.117 -1.10921 3.80148 0
M  V30 2424 H 226.291 1.70963 4.27912 0
M  V30 2425 H 224.606 1.39688 3.92271 0
M  V30 2426 H 227.203 -1.05128 5.24263 0
M  V30 2427 H 227.546 -1.85152 3.7286 0
M  V30 2428 H 228.079 -0.170607 3.97434 0
M  V30 2429 H 224.818 1.67312 6.33788 0
M  V30 2430 H 224.338 -0.00540283 5.998 0
M  V30 2431 H 226.017 0.369231 6.45946 0
M  V30 2432 N 226.149 -1.5696 0.141893 0
M  V30 2433 C 227.565 -1.58151 -0.21456 0
M  V30 2434 C 227.765 -1.1559 -1.65049 0
M  V30 2435 O 226.821 -0.853832 -2.37626 0
M  V30 2436 C 228.134 -3.00674 0.0395576 0
M  V30 2437 C 229.682 -3.1299 -0.0245529 0
M  V30 2438 C 230.157 -4.57554 0.202167 0
M  V30 2439 N 231.648 -4.62961 0.148919 0
M  V30 2440 C 232.383 -5.7262 0.298924 0
M  V30 2441 N 231.879 -6.90947 0.50637 0
M  V30 2442 N 233.672 -5.61601 0.236886 0
M  V30 2443 H 225.823 -1.8292 1.07953 0
M  V30 2444 H 228.086 -0.846425 0.42693 0
M  V30 2445 H 227.792 -3.36183 1.03315 0
M  V30 2446 H 227.666 -3.70981 -0.682143 0
M  V30 2447 H 230.053 -2.77326 -1.00869 0
M  V30 2448 H 230.134 -2.4518 0.729396 0
M  V30 2449 H 229.778 -4.93922 1.18338 0
M  V30 2450 H 229.708 -5.23484 -0.572044 0
M  V30 2451 H 232.199 -3.77899 -0.00697015 0
M  V30 2452 H 232.512 -7.7038 0.611076 0
M  V30 2453 H 230.857 -6.92878 0.542628 0
M  V30 2454 H 234.048 -4.68039 0.0756209 0
M  V30 2455 H 234.221 -6.47015 0.357227 0
M  V30 2456 N 227.627 0.131896 -1.57047 0
M  V30 2457 C 228.874 0.841932 -1.84168 0
M  V30 2458 C 229.202 1.8048 -0.725066 0
M  V30 2459 O 228.457 1.93618 0.284692 0
M  V30 2460 C 228.756 1.63703 -3.17704 0
M  V30 2461 C 228.422 0.81961 -4.43388 0
M  V30 2462 C 227.084 0.594148 -4.77518 0
M  V30 2463 C 229.436 0.248977 -5.20605 0
M  V30 2464 C 226.764 -0.212409 -5.86315 0
M  V30 2465 C 229.116 -0.544701 -6.30251 0
M  V30 2466 C 227.78 -0.780599 -6.6292 0
M  V30 2467 H 227.05 0.308085 -0.673917 0
M  V30 2468 H 229.697 0.104867 -1.91213 0
M  V30 2469 H 228.002 2.44464 -3.06177 0
M  V30 2470 H 229.699 2.19015 -3.35907 0
M  V30 2471 H 226.289 1.00542 -4.16641 0
M  V30 2472 H 230.473 0.410408 -4.946 0
M  V30 2473 H 225.729 -0.404524 -6.1006 0
M  V30 2474 H 229.903 -0.993922 -6.89271 0
M  V30 2475 H 227.53 -1.40742 -7.47058 0
M  V30 2476 N 229.106 1.52395 0.401703 0
M  V30 2477 C 230.522 1.41363 0.740864 0
M  V30 2478 C 230.722 0.523982 1.94568 0
M  V30 2479 O 229.778 -0.00741204 2.52499 0
M  V30 2480 C 231.091 2.84011 0.987847 0
M  V30 2481 C 232.639 2.93404 1.09011 0
M  V30 2482 C 233.114 4.37036 1.3698 0
M  V30 2483 N 234.605 4.40304 1.43829 0
M  V30 2484 C 235.34 5.48508 1.67112 0
M  V30 2485 N 234.836 6.66819 1.87949 0
M  V30 2486 N 236.629 5.36034 1.69187 0
M  V30 2487 H 228.78 2.08765 -0.391262 0
M  V30 2488 H 231.043 0.941265 -0.112798 0
M  V30 2489 H 230.749 3.51265 0.174835 0
M  V30 2490 H 230.623 3.25502 1.906 0
M  V30 2491 H 233.01 2.26325 1.8937 0
M  V30 2492 H 233.091 2.55359 0.15015 0
M  V30 2493 H 232.735 5.04676 0.571353 0
M  V30 2494 H 232.665 4.72623 2.3224 0
M  V30 2495 H 235.156 3.55024 1.29486 0
M  V30 2496 H 235.469 7.45063 2.05185 0
M  V30 2497 H 233.814 6.6987 1.85199 0
M  V30 2498 H 237.005 4.42579 1.52451 0
M  V30 2499 H 237.178 6.20434 1.86993 0
M  V30 2500 N 230.584 -0.659388 1.43143 0
M  V30 2501 C 231.83 -1.42145 1.44647 0
M  V30 2502 C 232.163 -1.9408 0.0681907 0
M  V30 2503 O 231.438 -1.71899 -0.910007 0
M  V30 2504 C 231.721 -2.60735 2.48373 0
M  V30 2505 C 231.574 -2.14332 3.95451 0
M  V30 2506 C 232.893 -3.62951 2.48906 0
M  V30 2507 H 230.012 -0.51552 0.526696 0
M  V30 2508 H 232.654 -0.748069 1.74654 0
M  V30 2509 H 230.804 -3.18184 2.22916 0
M  V30 2510 H 232.476 -1.61932 4.31944 0
M  V30 2511 H 230.719 -1.4576 4.08578 0
M  V30 2512 H 231.39 -2.99583 4.63631 0
M  V30 2513 H 233.866 -3.1525 2.71582 0
M  V30 2514 H 232.742 -4.43487 3.23435 0
M  V30 2515 H 233.003 -4.15126 1.52061 0
M  V30 2516 N 232.062 -1.29571 -0.897171 0
M  V30 2517 C 233.339 -1.08365 -1.62839 0
M  V30 2518 C 233.719 0.371331 -2.07808 0
M  V30 2519 O 233.067 1.3606 -1.83576 0
M  V30 2520 C 233.277 -2.0735 -2.80726 0
M  V30 2521 C 234.625 -2.38406 -3.51351 0
M  V30 2522 O 235.649 -2.05564 -2.90898 0
M  V30 2523 O 234.508 -2.9453 -4.60341 0
M  V30 2524 H 231.602 -0.415345 -0.715134 0
M  V30 2525 H 234.148 -1.40952 -0.945018 0
M  V30 2526 H 232.92 -3.05339 -2.44711 0
M  V30 2527 H 232.543 -1.75507 -3.56767 0
M  V30 2528 N 233.54 1.10788 -1.12088 0
M  V30 2529 C 234.788 1.8231 -0.872205 0
M  V30 2530 C 235.109 1.85419 0.603709 0
M  V30 2531 O 234.379 1.32963 1.43867 0
M  V30 2532 H 232.959 0.675137 -0.319686 0
M  V30 2533 H 235.621 1.34068 -1.41463 0
M  V30 2534 H 234.717 2.85955 -1.25045 0
M  V30 2535 N 235.018 0.912232 1.28515 0
M  V30 2536 C 236.264 0.545405 1.95328 0
M  V30 2537 C 236.597 -0.908313 1.71649 0
M  V30 2538 O 235.872 -1.64575 1.03659 0
M  V30 2539 C 236.155 0.853483 3.4984 0
M  V30 2540 C 236.008 2.35982 3.82926 0
M  V30 2541 C 237.327 0.348589 4.38717 0
M  V30 2542 H 234.446 0.199626 0.709449 0
M  V30 2543 H 237.088 1.1412 1.5191 0
M  V30 2544 H 235.238 0.34643 3.86952 0
M  V30 2545 H 236.91 2.93738 3.55691 0
M  V30 2546 H 235.153 2.81543 3.30024 0
M  V30 2547 H 235.824 2.52593 4.90816 0
M  V30 2548 H 238.3 0.78294 4.08668 0
M  V30 2549 H 237.176 0.593242 5.45685 0
M  V30 2550 H 237.437 -0.751049 4.35674 0
M  V30 2551 N 236.496 -1.42363 0.676048 0
M  V30 2552 C 237.426 -2.33497 0.0124832 0
M  V30 2553 C 238.407 -1.50748 -0.787981 0
M  V30 2554 O 239.592 -1.79346 -0.744884 0
M  V30 2555 C 236.722 -3.34377 -0.938582 0
M  V30 2556 C 235.676 -4.27289 -0.246622 0
M  V30 2557 C 235.002 -5.18386 -1.31071 0
M  V30 2558 C 236.302 -5.14916 0.875125 0
M  V30 2559 H 237.996 -2.89233 0.773593 0
M  V30 2560 H 235.542 -1.39073 0.37346 0
M  V30 2561 H 237.495 -3.97044 -1.41188 0
M  V30 2562 H 236.219 -2.76947 -1.73113 0
M  V30 2563 H 234.878 -3.66018 0.206456 0
M  V30 2564 H 234.526 -4.57282 -2.09528 0
M  V30 2565 H 234.226 -5.81378 -0.852839 0
M  V30 2566 H 235.75 -5.83929 -1.78492 0
M  V30 2567 H 237.164 -5.71262 0.482983 0
M  V30 2568 H 235.561 -5.86747 1.25887 0
M  V30 2569 H 236.631 -4.53242 1.72335 0
M  V30 2570 N 237.974 -0.419461 -1.51915 0
M  V30 2571 C 239.39 -0.0708431 -1.59443 0
M  V30 2572 C 239.59 1.41796 -1.43164 0
M  V30 2573 O 238.646 2.18596 -1.26381 0
M  V30 2574 C 239.959 -0.574991 -2.95151 0
M  V30 2575 C 241.507 -0.533867 -3.08413 0
M  V30 2576 C 241.982 -1.01469 -4.46618 0
M  V30 2577 N 243.473 -0.971939 -4.52888 0
M  V30 2578 C 244.208 -1.31505 -5.58116 0
M  V30 2579 N 243.704 -1.73014 -6.70849 0
M  V30 2580 N 245.497 -1.23436 -5.48379 0
M  V30 2581 H 237.648 -1.38836 -1.60743 0
M  V30 2582 H 239.911 -0.570998 -0.756747 0
M  V30 2583 H 239.617 -1.61597 -3.12377 0
M  V30 2584 H 239.491 0.00979777 -3.77199 0
M  V30 2585 H 241.878 0.498086 -2.90866 0
M  V30 2586 H 241.959 -1.15484 -2.28248 0
M  V30 2587 H 241.603 -2.04502 -4.6491 0
M  V30 2588 H 241.533 -0.370433 -5.25295 0
M  V30 2589 H 244.024 -0.666893 -3.71969 0
M  V30 2590 H 244.337 -1.97479 -7.47143 0
M  V30 2591 H 242.682 -1.76926 -6.72103 0
M  V30 2592 H 245.873 -0.908869 -4.59192 0
M  V30 2593 H 246.046 -1.50506 -6.30279 0
M  V30 2594 N 239.452 1.56882 -0.150215 0
M  V30 2595 C 240.362 2.20494 0.801222 0
M  V30 2596 C 241.378 1.19019 1.26927 0
M  V30 2597 O 242.554 1.51607 1.32579 0
M  V30 2598 C 239.619 2.81659 2.02161 0
M  V30 2599 C 238.68 3.9827 1.60249 0
M  V30 2600 C 237.913 4.56508 2.7647 0
M  V30 2601 O 238.136 4.13627 3.92771 0
M  V30 2602 O 237.07 5.46719 2.51757 0
M  V30 2603 H 240.896 3.02315 0.289717 0
M  V30 2604 H 238.481 1.49202 0.0769684 0
M  V30 2605 H 240.363 3.20522 2.73576 0
M  V30 2606 H 239.038 2.02849 2.52258 0
M  V30 2607 H 237.945 3.64117 0.858477 0
M  V30 2608 H 239.278 4.78609 1.14864 0
M  V30 2609 N 240.93 -0.123565 1.57115 0
M  V30 2610 C 242.176 -0.833386 1.84885 0
M  V30 2611 C 242.509 -1.79742 0.735292 0
M  V30 2612 O 241.784 -1.92764 -0.25925 0
M  V30 2613 C 242.067 -1.5873 3.23228 0
M  V30 2614 C 241.92 -0.643183 4.45178 0
M  V30 2615 C 243.239 -2.54453 3.59085 0
M  V30 2616 H 240.358 -0.301518 0.6725 0
M  V30 2617 H 243 -0.097778 1.89748 0
M  V30 2618 H 241.15 -2.21438 3.19214 0
M  V30 2619 H 242.822 -0.0253015 4.61293 0
M  V30 2620 H 241.065 0.0456139 4.33776 0
M  V30 2621 H 241.736 -1.20724 5.38637 0
M  V30 2622 H 244.212 -2.01853 3.63861 0
M  V30 2623 H 243.088 -3.04238 4.5687 0
M  V30 2624 H 243.349 -3.36906 2.86264 0
M  V30 2625 N 242.408 -1.52605 -0.393616 0
M  V30 2626 C 243.338 -1.80022 -1.48709 0
M  V30 2627 C 244.319 -0.651995 -1.57108 0
M  V30 2628 O 245.504 -0.89913 -1.72132 0
M  V30 2629 C 242.634 -1.96492 -2.86371 0
M  V30 2630 C 241.588 -3.12161 -2.92813 0
M  V30 2631 C 240.914 -3.13877 -4.3288 0
M  V30 2632 C 242.214 -4.51322 -2.6288 0
M  V30 2633 H 243.908 -2.71589 -1.26015 0
M  V30 2634 H 241.454 -1.30684 -0.604778 0
M  V30 2635 H 243.407 -2.14255 -3.62867 0
M  V30 2636 H 242.131 -1.01611 -3.10391 0
M  V30 2637 H 240.79 -2.94173 -2.18764 0
M  V30 2638 H 240.438 -2.16687 -4.53933 0
M  V30 2639 H 240.138 -3.91576 -4.38112 0
M  V30 2640 H 241.662 -3.33789 -5.1129 0
M  V30 2641 H 243.076 -4.69435 -3.29096 0
M  V30 2642 H 241.473 -5.31053 -2.79468 0
M  V30 2643 H 242.543 -4.58353 -1.58242 0
M  V30 2644 N 243.887 0.651787 -1.4349 0
M  V30 2645 C 244.85 1.74647 -1.48429 0
M  V30 2646 C 245.85 1.56513 -0.368817 0
M  V30 2647 O 247.04 1.62385 -0.630623 0
M  V30 2648 C 244.172 3.13533 -1.33827 0
M  V30 2649 H 245.365 1.71649 -2.4592 0
M  V30 2650 H 242.918 0.863573 -1.30277 0
M  V30 2651 H 243.653 3.22142 -0.37349 0
M  V30 2652 H 243.438 3.28101 -2.14691 0
M  V30 2653 H 244.928 3.93356 -1.40218 0
M  V30 2654 N 245.365 1.30045 0.890287 0
M  V30 2655 C 246.776 1.16738 1.45702 0
M  V30 2656 C 247.127 -0.233939 1.948 0
M  V30 2657 O 246.252 -1.13021 1.84541 0
M  V30 2658 C 246.847 2.11313 2.64825 0
M  V30 2659 C 245.406 2.02001 3.17604 0
M  V30 2660 C 244.553 2.01699 1.90296 0
M  V30 2661 H 247.504 1.42392 0.700726 0
M  V30 2662 H 247.525 1.69086 3.40867 0
M  V30 2663 H 247.037 3.13294 2.2906 0
M  V30 2664 H 245.138 1.03142 3.5804 0
M  V30 2665 H 245.251 2.90128 3.81264 0
M  V30 2666 H 243.615 1.46427 2.08402 0
M  V30 2667 H 244.398 3.05402 1.56795 0
M  V30 2668 N 246.843 -1.10192 1.12674 0
M  V30 2669 C 248.068 -1.86523 0.906853 0
M  V30 2670 C 248.493 -1.80221 -0.538711 0
M  V30 2671 O 247.851 -1.17396 -1.38158 0
M  V30 2672 C 247.899 -3.32758 1.3894 0
M  V30 2673 O 247.003 -4.08449 0.5695 0
M  V30 2674 H 246.344 -0.578678 0.325619 0
M  V30 2675 H 248.874 -1.39203 1.49946 0
M  V30 2676 H 248.884 -3.83608 1.38958 0
M  V30 2677 H 247.559 -3.36661 2.44197 0
M  V30 2678 H 246.136 -3.67427 0.636528 0
M  V30 2679 N 248.321 -0.919034 -1.28029 0
M  V30 2680 C 249.737 -0.617972 -1.4715 0
M  V30 2681 C 249.937 0.835242 -1.83374 0
M  V30 2682 O 248.993 1.61388 -1.94191 0
M  V30 2683 C 250.306 -1.56041 -2.57044 0
M  V30 2684 C 251.854 -1.56769 -2.7091 0
M  V30 2685 C 252.329 -2.49688 -3.83953 0
M  V30 2686 N 253.82 -2.47845 -3.91314 0
M  V30 2687 C 254.555 -3.16437 -4.78179 0
M  V30 2688 N 254.051 -3.94376 -5.69596 0
M  V30 2689 N 255.844 -3.05498 -4.71834 0
M  V30 2690 H 247.995 -1.85866 -1.02798 0
M  V30 2691 H 250.258 -0.797506 -0.512531 0
M  V30 2692 H 249.964 -2.59671 -2.372 0
M  V30 2693 H 249.838 -1.29551 -3.54255 0
M  V30 2694 H 252.225 -0.538745 -2.90141 0
M  V30 2695 H 252.306 -1.87305 -1.74214 0
M  V30 2696 H 251.95 -3.52688 -3.65477 0
M  V30 2697 H 251.88 -2.16453 -4.80058 0
M  V30 2698 H 254.371 -1.91234 -3.25941 0
M  V30 2699 H 254.684 -4.43721 -6.32718 0
M  V30 2700 H 253.029 -3.98481 -5.69419 0
M  V30 2701 H 256.22 -2.44108 -3.99411 0
M  V30 2702 H 256.393 -3.59225 -5.39316 0
M  V30 2703 N 249.799 1.42003 -0.683588 0
M  V30 2704 C 250.746 2.30798 -0.0107309 0
M  V30 2705 C 251.716 1.4645 0.783688 0
M  V30 2706 O 252.901 1.75263 0.754156 0
M  V30 2707 C 250.041 3.3238 0.928306 0
M  V30 2708 C 249.154 4.31814 0.126776 0
M  V30 2709 C 248.289 5.20468 1.06236 0
M  V30 2710 C 247.328 6.11577 0.253035 0
M  V30 2711 N 246.465 6.92754 1.14179 0
M  V30 2712 H 251.305 2.8778 -0.773727 0
M  V30 2713 H 248.842 1.41745 -0.393283 0
M  V30 2714 H 250.8 3.89813 1.48666 0
M  V30 2715 H 249.43 2.76976 1.65783 0
M  V30 2716 H 248.482 3.76427 -0.54833 0
M  V30 2717 H 249.794 4.96276 -0.501192 0
M  V30 2718 H 248.948 5.82677 1.69035 0
M  V30 2719 H 247.687 4.56204 1.7242 0
M  V30 2720 H 246.692 5.48428 -0.388108 0
M  V30 2721 H 247.917 6.77892 -0.404839 0
M  V30 2722 H 245.863 6.3111 1.78987 0
M  V30 2723 H 245.78 7.53855 0.569111 0
M  V30 2724 H 247.048 7.59441 1.75697 0
M  V30 2725 N 251.277 0.427512 1.51691 0
M  V30 2726 C 252.207 -0.3796 2.30394 0
M  V30 2727 C 253.188 -1.02982 1.35384 0
M  V30 2728 O 254.373 -1.03534 1.643 0
M  V30 2729 C 251.503 -1.48649 3.1388 0
M  V30 2730 C 250.457 -0.960294 4.17088 0
M  V30 2731 C 249.783 -2.16219 4.89033 0
M  V30 2732 C 251.083 -0.00153679 5.223 0
M  V30 2733 H 252.777 0.277164 2.98114 0
M  V30 2734 H 250.323 0.134739 1.43368 0
M  V30 2735 H 252.276 -2.05826 3.67714 0
M  V30 2736 H 251 -2.1714 2.43962 0
M  V30 2737 H 249.659 -0.410806 3.64291 0
M  V30 2738 H 249.307 -2.83307 4.15628 0
M  V30 2739 H 249.007 -1.81654 5.58816 0
M  V30 2740 H 250.531 -2.73968 5.45687 0
M  V30 2741 H 251.945 -0.482687 5.71264 0
M  V30 2742 H 250.342 0.256199 5.99553 0
M  V30 2743 H 251.412 0.938174 4.75738 0
M  V30 2744 N 252.755 -1.56801 0.158532 0
M  V30 2745 C 253.98 -2.01295 -0.499516 0
M  V30 2746 C 254.405 -1.03799 -1.56867 0
M  V30 2747 O 253.763 -0.0155162 -1.81293 0
M  V30 2748 C 253.811 -3.44469 -1.06647 0
M  V30 2749 O 252.915 -3.50012 -2.18095 0
M  V30 2750 H 252.256 -0.652884 -0.12099 0
M  V30 2751 H 254.786 -2.02958 0.258661 0
M  V30 2752 H 254.796 -3.8351 -1.39227 0
M  V30 2753 H 253.471 -4.14932 -0.283581 0
M  V30 2754 H 252.048 -3.22822 -1.86656 0
M  V30 2755 N 254.233 0.115231 -1.57178 0
M  V30 2756 C 255.458 0.840354 -1.89612 0
M  V30 2757 C 255.883 1.72464 -0.750845 0
M  V30 2758 O 255.241 1.78826 0.298478 0
M  V30 2759 C 255.289 1.64654 -3.20814 0
M  V30 2760 O 254.393 2.7538 -3.06985 0
M  V30 2761 H 253.734 0.232158 -0.622092 0
M  V30 2762 H 256.264 0.0964977 -2.04372 0
M  V30 2763 H 256.274 2.03499 -3.53627 0
M  V30 2764 H 254.949 0.997416 -4.03763 0
M  V30 2765 H 253.526 2.3971 -2.85646 0
M  V30 2766 N 255.711 1.52812 0.385517 0
M  V30 2767 C 256.641 1.80808 1.47752 0
M  V30 2768 C 257.622 0.660318 1.5676 0
M  V30 2769 O 258.807 0.908246 1.71652 0
M  V30 2770 C 255.937 1.98008 2.85324 0
M  V30 2771 C 254.891 3.13709 2.91154 0
M  V30 2772 C 254.217 3.16169 4.31209 0
M  V30 2773 C 255.517 4.52709 2.60483 0
M  V30 2774 H 257.211 2.72253 1.24573 0
M  V30 2775 H 254.757 1.31003 0.597839 0
M  V30 2776 H 256.71 2.16176 3.61726 0
M  V30 2777 H 255.434 1.03255 3.09848 0
M  V30 2778 H 254.093 2.95329 2.17201 0
M  V30 2779 H 253.741 2.19092 4.52778 0
M  V30 2780 H 253.441 3.93894 4.36029 0
M  V30 2781 H 254.965 3.36496 5.09512 0
M  V30 2782 H 256.379 4.71173 3.26602 0
M  V30 2783 H 254.776 5.32528 2.76648 0
M  V30 2784 H 255.846 4.59186 1.55809 0
M  V30 2785 N 257.189 -0.644168 1.43834 0
M  V30 2786 C 258.119 -1.76814 1.52509 0
M  V30 2787 C 259.1 -1.65823 0.379052 0
M  V30 2788 O 260.285 -1.84781 0.597466 0
M  V30 2789 C 257.415 -3.15288 1.4564 0
M  V30 2790 C 256.369 -3.41053 2.58586 0
M  V30 2791 C 255.695 -4.79421 2.36769 0
M  V30 2792 C 256.995 -3.34902 4.00797 0
M  V30 2793 H 258.689 -1.69812 2.46586 0
M  V30 2794 H 256.235 -0.815542 1.1868 0
M  V30 2795 H 258.188 -3.93681 1.50311 0
M  V30 2796 H 256.912 -3.23043 0.480725 0
M  V30 2797 H 255.571 -2.65035 2.53282 0
M  V30 2798 H 255.219 -4.83863 1.37424 0
M  V30 2799 H 254.919 -4.9762 3.12487 0
M  V30 2800 H 256.443 -5.6006 2.43238 0
M  V30 2801 H 257.857 -4.03218 4.07539 0
M  V30 2802 H 256.254 -3.64637 4.76613 0
M  V30 2803 H 257.324 -2.32928 4.25291 0
M  V30 2804 N 258.668 -1.30515 -0.883378 0
M  V30 2805 C 259.914 -1.19607 -1.63774 0
M  V30 2806 C 260.247 0.248314 -1.92606 0
M  V30 2807 O 259.522 1.17742 -1.54813 0
M  V30 2808 C 259.805 -2.02669 -2.97653 0
M  V30 2809 C 259.658 -3.55335 -2.75784 0
M  V30 2810 C 260.977 -1.86573 -3.98596 0
M  V30 2811 H 258.096 -0.435856 -0.594305 0
M  V30 2812 H 260.738 -1.60165 -1.02212 0
M  V30 2813 H 258.888 -1.68208 -3.50197 0
M  V30 2814 H 260.56 -3.99863 -2.30016 0
M  V30 2815 H 258.803 -3.79438 -2.1026 0
M  V30 2816 H 259.474 -4.08745 -3.70988 0
M  V30 2817 H 261.95 -2.16703 -3.55217 0
M  V30 2818 H 260.826 -2.47014 -4.90179 0
M  V30 2819 H 261.087 -0.825321 -4.34328 0
M  V30 2820 N 260.146 1.09593 -1.13257 0
M  V30 2821 C 261.371 1.8604 -0.916732 0
M  V30 2822 C 261.796 1.80504 0.529146 0
M  V30 2823 O 261.154 1.18127 1.37534 0
M  V30 2824 C 261.202 3.32017 -1.40703 0
M  V30 2825 O 260.306 4.08141 -0.591153 0
M  V30 2826 H 259.647 0.576943 -0.328683 0
M  V30 2827 H 262.177 1.38405 -1.50682 0
M  V30 2828 H 262.187 3.82865 -1.4099 0
M  V30 2829 H 260.862 3.35361 -2.45979 0
M  V30 2830 H 259.439 3.67084 -0.656005 0
M  V30 2831 N 261.624 0.925811 1.2754 0
M  V30 2832 C 263.04 0.625767 1.46821 0
M  V30 2833 C 263.24 -0.825506 1.83814 0
M  V30 2834 O 262.296 -1.60356 1.95044 0
M  V30 2835 C 263.609 1.57402 2.56213 0
M  V30 2836 C 265.157 1.58204 2.70075 0
M  V30 2837 C 265.632 2.51721 3.82623 0
M  V30 2838 N 267.123 2.49917 3.89994 0
M  V30 2839 C 267.858 3.18968 4.76494 0
M  V30 2840 N 267.354 3.97391 5.67496 0
M  V30 2841 N 269.147 3.07996 4.70208 0
M  V30 2842 H 261.298 1.86409 1.01811 0
M  V30 2843 H 263.561 0.800213 0.508295 0
M  V30 2844 H 263.267 2.60925 2.35819 0
M  V30 2845 H 263.141 1.31428 3.53563 0
M  V30 2846 H 265.528 0.554124 2.89851 0
M  V30 2847 H 265.609 1.88226 1.73218 0
M  V30 2848 H 265.253 3.54622 3.63601 0
M  V30 2849 H 265.183 2.18996 4.78903 0
M  V30 2850 H 267.674 1.9296 3.24923 0
M  V30 2851 H 267.987 4.4707 6.30356 0
M  V30 2852 H 266.332 4.01495 5.67298 0
M  V30 2853 H 269.523 2.46223 3.9811 0
M  V30 2854 H 269.696 3.6208 5.37403 0
M  V30 2855 N 263.102 -1.41638 0.69111 0
M  V30 2856 C 264.348 -2.01598 0.220519 0
M  V30 2857 C 264.681 -1.54594 -1.17535 0
M  V30 2858 O 263.956 -0.755177 -1.79241 0
M  V30 2859 C 264.239 -3.59062 0.273243 0
M  V30 2860 C 264.092 -4.16203 1.70573 0
M  V30 2861 C 265.411 -4.38546 -0.369457 0
M  V30 2862 H 262.53 -0.732468 0.0816045 0
M  V30 2863 H 265.172 -1.68445 0.878986 0
M  V30 2864 H 263.322 -3.87435 -0.287411 0
M  V30 2865 H 264.994 -3.98722 2.31989 0
M  V30 2866 H 263.237 -3.71414 2.2413 0
M  V30 2867 H 263.908 -5.25358 1.69419 0
M  V30 2868 H 266.384 -4.1596 0.107977 0
M  V30 2869 H 265.26 -5.48069 -0.302002 0
M  V30 2870 H 265.521 -4.17662 -1.44951 0
M  V30 2871 N 264.58 -0.43555 -1.51462 0
M  V30 2872 C 265.527 0.376797 -2.27703 0
M  V30 2873 C 266.497 1.01838 -1.31219 0
M  V30 2874 O 267.682 1.03762 -1.60119 0
M  V30 2875 C 264.822 1.47301 -3.12084 0
M  V30 2876 C 263.935 0.849744 -4.2356 0
M  V30 2877 C 263.07 1.92086 -4.95254 0
M  V30 2878 C 262.109 1.27593 -5.98654 0
M  V30 2879 N 261.246 2.28833 -6.63762 0
M  V30 2880 H 266.086 -0.279734 -2.96684 0
M  V30 2881 H 263.623 -0.149795 -1.46335 0
M  V30 2882 H 265.581 2.11984 -3.59331 0
M  V30 2883 H 264.211 2.0992 -2.45221 0
M  V30 2884 H 263.263 0.0912529 -3.80291 0
M  V30 2885 H 264.575 0.338878 -4.97648 0
M  V30 2886 H 263.729 2.64435 -5.46039 0
M  V30 2887 H 262.468 2.46545 -4.20793 0
M  V30 2888 H 261.473 0.537893 -5.47162 0
M  V30 2889 H 262.698 0.738693 -6.7507 0
M  V30 2890 H 260.644 2.82375 -5.92115 0
M  V30 2891 H 260.561 1.82632 -7.33608 0
M  V30 2892 H 261.829 3.00671 -7.19178 0
M  V30 2893 N 266.058 1.56714 -0.166846 0
M  V30 2894 C 267.304 1.97039 0.479962 0
M  V30 2895 C 267.637 1.05264 1.63197 0
M  V30 2896 O 266.912 0.0988833 1.94248 0
M  V30 2897 C 267.195 3.46867 0.967212 0
M  V30 2898 C 267.048 4.49421 -0.18466 0
M  V30 2899 C 268.367 3.9968 1.84238 0
M  V30 2900 H 265.486 0.71641 0.172992 0
M  V30 2901 H 268.128 1.8832 -0.252079 0
M  V30 2902 H 266.278 3.54428 1.59101 0
M  V30 2903 H 267.95 4.53924 -0.821621 0
M  V30 2904 H 266.193 4.25573 -0.840837 0
M  V30 2905 H 266.864 5.51644 0.198317 0
M  V30 2906 H 269.34 3.94723 1.31655 0
M  V30 2907 H 268.216 5.04941 2.15234 0
M  V30 2908 H 268.477 3.43226 2.78654 0
M  V30 2909 N 267.536 -0.106894 1.57237 0
M  V30 2910 C 268.469 -1.16125 1.96444 0
M  V30 2911 C 269.447 -1.3947 0.835871 0
M  V30 2912 O 270.631 -1.53425 1.09513 0
M  V30 2913 C 267.758 -2.51277 2.27107 0
M  V30 2914 C 266.804 -2.44285 3.4961 0
M  V30 2915 S 267.637 -1.87077 5.01759 0
M  V30 2916 C 268.793 -3.23877 5.35588 0
M  V30 2917 H 269.026 -0.826971 2.85567 0
M  V30 2918 H 266.559 -0.314124 1.51171 0
M  V30 2919 H 268.517 -3.29035 2.45451 0
M  V30 2920 H 267.178 -2.81879 1.38576 0
M  V30 2921 H 266.371 -3.4387 3.68469 0
M  V30 2922 H 265.973 -1.74652 3.30715 0
M  V30 2923 H 268.265 -4.20122 5.31511 0
M  V30 2924 H 269.208 -3.09833 6.36717 0
M  V30 2925 H 269.616 -3.22864 4.63054 0
M  V30 2926 N 269.014 -1.53014 -0.377408 0
M  V30 2927 C 269.977 -1.77957 -1.44444 0
M  V30 2928 C 270.977 -0.649763 -1.47087 0
M  V30 2929 O 272.167 -0.917897 -1.48055 0
M  V30 2930 C 269.299 -1.89089 -2.83651 0
M  V30 2931 H 270.492 -2.73243 -1.23606 0
M  V30 2932 H 268.045 -1.43912 -0.609844 0
M  V30 2933 H 268.78 -0.958293 -3.09818 0
M  V30 2934 H 268.565 -2.71254 -2.83132 0
M  V30 2935 H 270.055 -2.1002 -3.60945 0
M  V30 2936 N 270.492 0.636531 -1.44174 0
M  V30 2937 C 271.439 1.74875 -1.50624 0
M  V30 2938 C 272.409 1.62275 -0.35442 0
M  V30 2939 O 273.594 1.82276 -0.563908 0
M  V30 2940 C 270.734 3.13102 -1.45125 0
M  V30 2941 C 269.847 3.36717 -2.7064 0
M  V30 2942 C 268.982 4.64885 -2.57013 0
M  V30 2943 C 268.021 4.8166 -3.77717 0
M  V30 2944 N 267.158 6.01101 -3.62798 0
M  V30 2945 H 271.998 1.68697 -2.45653 0
M  V30 2946 H 269.535 0.823004 -1.21922 0
M  V30 2947 H 271.493 3.93034 -1.39929 0
M  V30 2948 H 270.123 3.18308 -0.536671 0
M  V30 2949 H 269.175 2.50763 -2.86046 0
M  V30 2950 H 270.487 3.44993 -3.60252 0
M  V30 2951 H 269.641 5.52969 -2.49619 0
M  V30 2952 H 268.38 4.58957 -1.64953 0
M  V30 2953 H 267.385 3.92007 -3.85501 0
M  V30 2954 H 268.61 4.89406 -4.70807 0
M  V30 2955 H 266.556 5.96273 -2.73486 0
M  V30 2956 H 266.473 6.10409 -4.46023 0
M  V30 2957 H 267.741 6.91761 -3.59286 0
M  V30 2958 N 271.97 1.30982 0.876444 0
M  V30 2959 C 272.9 1.20668 1.99903 0
M  V30 2960 C 273.881 0.095354 1.69833 0
M  V30 2961 O 275.066 0.27885 1.92188 0
M  V30 2962 C 272.196 0.90655 3.3526 0
M  V30 2963 C 271.15 1.97675 3.79617 0
M  V30 2964 C 270.476 1.52943 5.1236 0
M  V30 2965 C 271.776 3.389 3.97422 0
M  V30 2966 H 273.47 2.14586 2.0879 0
M  V30 2967 H 271.016 1.03308 1.00317 0
M  V30 2968 H 272.969 0.821025 4.13324 0
M  V30 2969 H 271.693 -0.0682969 3.26529 0
M  V30 2970 H 270.352 2.05205 3.03787 0
M  V30 2971 H 270 0.54262 5.00065 0
M  V30 2972 H 269.7 2.24532 5.43009 0
M  V30 2973 H 271.224 1.45786 5.92941 0
M  V30 2974 H 272.638 3.34081 4.659 0
M  V30 2975 H 271.035 4.0865 4.3946 0
M  V30 2976 H 272.105 3.80163 3.01006 0
M  V30 2977 N 273.449 -1.08991 1.13837 0
M  V30 2978 C 274.726 -1.77863 0.813876 0
M  V30 2979 C 275.106 -1.99375 -0.693746 0
M  V30 2980 O 274.454 -1.59875 -1.63255 0
M  V30 2981 C 274.664 -3.0986 1.60586 0
M  V30 2982 C 276.012 -3.84493 1.8014 0
M  V30 2983 O 277.036 -3.19624 1.57222 0
M  V30 2984 O 275.895 -5.00957 2.18413 0
M  V30 2985 H 272.989 -0.771589 0.297624 0
M  V30 2986 H 275.535 -1.15507 1.24323 0
M  V30 2987 H 274.307 -2.89715 2.63022 0
M  V30 2988 H 273.93 -3.79942 1.17173 0
M  V30 2989 N 274.927 -0.932562 -1.27047 0
M  V30 2990 C 276.176 -0.571351 -1.93439 0
M  V30 2991 C 276.489 0.892467 -1.74053 0
M  V30 2992 O 277.695 1.36267 -2.34826 0
M  V30 2993 C 276.151 -0.97106 -3.46552 0
M  V30 2994 C 275.759 -2.4559 -3.74686 0
M  V30 2995 C 277.503 -0.681333 -4.18997 0
M  V30 2996 C 275.41 -2.79475 -5.21198 0
M  V30 2997 H 274.34 -0.209966 -0.724176 0
M  V30 2998 H 276.991 -1.13403 -1.44263 0
M  V30 2999 H 275.373 -0.336983 -3.94564 0
M  V30 3000 H 276.547 -3.13829 -3.37414 0
M  V30 3001 H 274.862 -2.71802 -3.15456 0
M  V30 3002 H 277.459 -0.910939 -5.26883 0
M  V30 3003 H 277.802 0.381628 -4.14547 0
M  V30 3004 H 278.335 -1.27473 -3.76823 0
M  V30 3005 H 275.074 -3.847 -5.30741 0
M  V30 3006 H 274.594 -2.1589 -5.596 0
M  V30 3007 H 276.273 -2.67478 -5.89122 0
M  V30 3008 N 276.405 1.4127 -0.698611 0
M  V30 3009 C 277.368 2.29158 -0.044132 0
M  V30 3010 C 278.368 1.44529 0.704841 0
M  V30 3011 O 279.558 1.65643 0.539276 0
M  V30 3012 C 276.69 3.27459 0.947809 0
M  V30 3013 H 277.883 2.88529 -0.817994 0
M  V30 3014 H 275.436 1.49307 -0.46228 0
M  V30 3015 H 276.171 2.73073 1.74933 0
M  V30 3016 H 275.956 3.8991 0.41385 0
M  V30 3017 H 277.446 3.93311 1.40344 0
M  V30 3018 N 277.883 0.443576 1.51229 0
M  V30 3019 C 278.793 -0.370721 2.31652 0
M  V30 3020 C 279.809 -1.02186 1.40833 0
M  V30 3021 O 280.985 -1.01586 1.73903 0
M  V30 3022 C 278.05 -1.45376 3.14749 0
M  V30 3023 C 277.111 -0.822099 4.21355 0
M  V30 3024 C 276.344 -1.85353 5.0048 0
M  V30 3025 O 276.567 -3.07656 4.80316 0
M  V30 3026 O 275.501 -1.4406 5.84406 0
M  V30 3027 H 279.327 0.286002 3.0235 0
M  V30 3028 H 276.912 0.20598 1.47973 0
M  V30 3029 H 278.794 -2.08173 3.66391 0
M  V30 3030 H 277.469 -2.09445 2.46809 0
M  V30 3031 H 276.376 -0.155909 3.73775 0
M  V30 3032 H 277.709 -0.224797 4.91686 0
M  V30 3033 N 279.361 -1.56624 0.175154 0
M  V30 3034 C 280.308 -2.18149 -0.753634 0
M  V30 3035 C 281.278 -1.12265 -1.22417 0
M  V30 3036 O 282.463 -1.40432 -1.29165 0
M  V30 3037 C 279.603 -2.82933 -1.97592 0
M  V30 3038 C 278.716 -4.03289 -1.5486 0
M  V30 3039 C 277.851 -4.55988 -2.72485 0
M  V30 3040 C 276.89 -5.68746 -2.26262 0
M  V30 3041 N 276.027 -6.15938 -3.36994 0
M  V30 3042 H 280.867 -2.9717 -0.222195 0
M  V30 3043 H 278.404 -1.46774 -0.0979422 0
M  V30 3044 H 280.362 -3.18653 -2.69288 0
M  V30 3045 H 278.992 -2.06509 -2.481 0
M  V30 3046 H 278.044 -3.73364 -0.728246 0
M  V30 3047 H 279.356 -4.849 -1.16933 0
M  V30 3048 H 278.51 -4.9391 -3.52332 0
M  V30 3049 H 277.249 -3.73443 -3.13674 0
M  V30 3050 H 276.254 -5.30372 -1.44863 0
M  V30 3051 H 277.479 -6.53095 -1.86127 0
M  V30 3052 H 275.425 -5.36321 -3.77751 0
M  V30 3053 H 275.342 -6.92548 -3.03172 0
M  V30 3054 H 276.61 -6.58511 -4.17114 0
M  V30 3055 N 280.839 0.0985539 -1.57292 0
M  V30 3056 C 282.255 0.45267 -1.53046 0
M  V30 3057 C 282.455 1.80713 -0.891342 0
M  V30 3058 O 281.511 2.4785 -0.482375 0
M  V30 3059 C 282.824 0.418341 -2.97776 0
M  V30 3060 C 284.372 0.500443 -3.08973 0
M  V30 3061 C 284.847 0.496297 -4.55303 0
M  V30 3062 N 286.338 0.557151 -4.59837 0
M  V30 3063 C 287.073 0.575726 -5.70502 0
M  V30 3064 N 286.569 0.550714 -6.90608 0
M  V30 3065 N 288.362 0.620277 -5.58667 0
M  V30 3066 H 280.513 -0.788673 -1.97215 0
M  V30 3067 H 282.776 -0.293188 -0.901524 0
M  V30 3068 H 282.482 -0.509659 -3.47988 0
M  V30 3069 H 282.356 1.2386 -3.56284 0
M  V30 3070 H 284.743 1.41886 -2.58751 0
M  V30 3071 H 284.824 -0.347894 -2.53423 0
M  V30 3072 H 284.468 -0.418162 -5.06176 0
M  V30 3073 H 284.398 1.3618 -5.08687 0
M  V30 3074 H 286.889 0.581816 -3.73394 0
M  V30 3075 H 287.202 0.568075 -7.70709 0
M  V30 3076 H 285.547 0.517816 -6.93068 0
M  V30 3077 H 288.738 0.637322 -4.63741 0
M  V30 3078 H 288.911 0.631283 -6.44918 0
M  V30 3079 N 282.317 1.53212 0.369288 0
M  V30 3080 C 283.563 1.69466 1.11397 0
M  V30 3081 C 283.896 0.443257 1.89074 0
M  V30 3082 O 283.171 -0.559386 1.86282 0
M  V30 3083 C 283.454 2.9422 2.07621 0
M  V30 3084 C 283.307 4.29508 1.33577 0
M  V30 3085 C 284.626 3.14565 3.07794 0
M  V30 3086 H 281.745 0.616667 0.403597 0
M  V30 3087 H 284.387 1.85845 0.395179 0
M  V30 3088 H 282.537 2.80387 2.68916 0
M  V30 3089 H 284.209 4.55147 0.750955 0
M  V30 3090 H 282.452 4.29088 0.637618 0
M  V30 3091 H 283.123 5.12926 2.03989 0
M  V30 3092 H 285.599 3.2756 2.56601 0
M  V30 3093 H 284.475 4.03297 3.72348 0
M  V30 3094 H 284.736 2.29675 3.77759 0
M  V30 3095 N 283.795 -0.628877 1.44509 0
M  V30 3096 C 285.206 -1.21054 1.42137 0
M  V30 3097 C 285.557 -1.95715 0.137881 0
M  V30 3098 O 284.682 -2.02554 -0.761645 0
M  V30 3099 C 285.277 -2.20189 2.57493 0
M  V30 3100 C 283.836 -2.73777 2.58308 0
M  V30 3101 C 282.983 -1.48813 2.33987 0
M  V30 3102 H 285.934 -0.41942 1.53057 0
M  V30 3103 H 285.955 -3.02833 2.30375 0
M  V30 3104 H 285.467 -1.6582 3.50892 0
M  V30 3105 H 283.568 -3.32142 1.68856 0
M  V30 3106 H 283.681 -3.19662 3.56865 0
M  V30 3107 H 282.045 -1.77024 1.83124 0
M  V30 3108 H 282.828 -0.963442 3.29504 0
M  V30 3109 N 285.273 -1.31445 -0.869486 0
M  V30 3110 C 286.205 -1.14955 -1.98287 0
M  V30 3111 C 287.218 -0.0885037 -1.62559 0
M  V30 3112 O 288.407 -0.336044 -1.75308 0
M  V30 3113 C 285.507 -0.734255 -3.3085 0
M  V30 3114 C 284.68 -1.88042 -3.94917 0
M  V30 3115 C 283.739 -1.4511 -5.05796 0
M  V30 3116 O 282.765 -2.16082 -5.2659 0
M  V30 3117 N 283.967 -0.338763 -5.79511 0
M  V30 3118 H 286.732 -2.10856 -2.12979 0
M  V30 3119 H 284.293 -1.23786 -1.04349 0
M  V30 3120 H 286.285 -0.42975 -4.02412 0
M  V30 3121 H 284.855 0.133158 -3.12316 0
M  V30 3122 H 284.075 -2.35222 -3.1633 0
M  V30 3123 H 285.363 -2.6481 -4.34457 0
M  V30 3124 H 284.761 0.252274 -5.65137 0
M  V30 3125 H 283.318 -0.0937925 -6.51733 0
M  V30 3126 N 286.751 1.08385 -1.14413 0
M  V30 3127 C 288.028 1.77429 -0.823297 0
M  V30 3128 C 288.408 1.9974 0.683163 0
M  V30 3129 O 287.756 1.60739 1.62405 0
M  V30 3130 C 287.966 3.09004 -1.62227 0
M  V30 3131 C 289.314 3.83532 -1.82177 0
M  V30 3132 O 290.338 3.18786 -1.58915 0
M  V30 3133 O 289.197 4.99792 -2.21067 0
M  V30 3134 H 286.291 0.769999 -0.301712 0
M  V30 3135 H 288.837 1.14846 -1.24934 0
M  V30 3136 H 287.609 2.88316 -2.64555 0
M  V30 3137 H 287.232 3.79316 -1.19187 0
M  V30 3138 N 288.23 0.939286 1.26551 0
M  V30 3139 C 289.478 0.58469 1.93457 0
M  V30 3140 C 289.799 -0.878774 1.74076 0
M  V30 3141 O 289.069 -1.62421 1.09528 0
M  V30 3142 H 287.649 0.21325 0.715914 0
M  V30 3143 H 290.311 1.1942 1.54029 0
M  V30 3144 H 289.407 0.800849 3.0165 0
M  V30 3145 N 289.708 -1.40897 0.706093 0
M  V30 3146 C 291.124 -1.55042 0.37869 0
M  V30 3147 C 291.324 -1.67944 -1.11342 0
M  V30 3148 O 290.38 -1.66372 -1.89938 0
M  V30 3149 C 291.693 -2.78398 1.13643 0
M  V30 3150 C 293.241 -2.92206 1.12181 0
M  V30 3151 C 293.716 -4.18463 1.86152 0
M  V30 3152 N 295.207 -4.25443 1.83173 0
M  V30 3153 C 295.942 -5.2202 2.37239 0
M  V30 3154 N 295.438 -6.24563 2.99821 0
M  V30 3155 N 297.231 -5.14033 2.27435 0
M  V30 3156 H 289.382 -1.30769 1.67372 0
M  V30 3157 H 291.645 -0.631653 0.706907 0
M  V30 3158 H 291.351 -2.7511 2.19106 0
M  V30 3159 H 291.225 -3.70228 0.721853 0
M  V30 3160 H 293.612 -2.95004 0.0754171 0
M  V30 3161 H 293.693 -2.01521 1.57554 0
M  V30 3162 H 293.337 -4.16427 2.90776 0
M  V30 3163 H 293.267 -5.08141 1.38206 0
M  V30 3164 H 295.758 -3.51976 1.37556 0
M  V30 3165 H 296.071 -6.94665 3.38616 0
M  V30 3166 H 294.416 -6.25035 3.03902 0
M  V30 3167 H 297.607 -4.3285 1.78208 0
M  V30 3168 H 297.78 -5.89129 2.69873 0
M  V30 3169 N 291.186 -0.45159 -1.50991 0
M  V30 3170 C 292.435 0.111653 -2.01391 0
M  V30 3171 C 292.748 1.42529 -1.33959 0
M  V30 3172 O 293.954 2.07232 -1.75405 0
M  V30 3173 C 292.41 0.249514 -3.59034 0
M  V30 3174 C 292.018 -1.05453 -4.35412 0
M  V30 3175 C 293.762 0.765762 -4.17536 0
M  V30 3176 C 291.669 -0.881529 -5.84793 0
M  V30 3177 H 290.599 0.0455022 -0.752626 0
M  V30 3178 H 293.25 -0.583524 -1.73975 0
M  V30 3179 H 291.632 1.00803 -3.82955 0
M  V30 3180 H 292.806 -1.82248 -4.23229 0
M  V30 3181 H 291.121 -1.50039 -3.88429 0
M  V30 3182 H 293.718 0.911913 -5.26866 0
M  V30 3183 H 294.061 1.75201 -3.77638 0
M  V30 3184 H 294.594 0.0651744 -3.97747 0
M  V30 3185 H 291.333 -1.84057 -6.29129 0
M  V30 3186 H 290.853 -0.153625 -5.99603 0
M  V30 3187 H 292.532 -0.540363 -6.4474 0
M  V30 3188 N 292.664 1.56529 -0.183458 0
M  V30 3189 C 293.889 2.02064 0.467428 0
M  V30 3190 C 294.314 1.06282 1.55196 0
M  V30 3191 O 293.672 0.0443565 1.81246 0
M  V30 3192 C 293.72 3.46122 1.01153 0
M  V30 3193 O 292.824 3.53437 2.12499 0
M  V30 3194 H 292.165 0.654726 0.110588 0
M  V30 3195 H 294.695 2.02521 -0.290917 0
M  V30 3196 H 294.705 3.85676 1.33108 0
M  V30 3197 H 293.38 4.15331 0.217533 0
M  V30 3198 H 291.957 3.2575 1.81497 0
M  V30 3199 N 294.142 -0.090211 1.57342 0
M  V30 3200 C 295.072 -1.10976 2.05443 0
M  V30 3201 C 296.053 -1.41482 0.944284 0
M  V30 3202 O 297.238 -1.51428 1.21586 0
M  V30 3203 C 294.368 -2.42831 2.48295 0
M  V30 3204 C 293.322 -2.26721 3.63018 0
M  V30 3205 C 292.648 -3.63796 3.91863 0
M  V30 3206 C 293.948 -1.7037 4.93732 0
M  V30 3207 H 295.642 -0.709564 2.9087 0
M  V30 3208 H 293.188 -0.339874 1.39932 0
M  V30 3209 H 295.141 -3.14431 2.80555 0
M  V30 3210 H 293.865 -2.84795 1.59873 0
M  V30 3211 H 292.524 -1.57565 3.31012 0
M  V30 3212 H 292.172 -4.03297 3.00601 0
M  V30 3213 H 291.872 -3.53861 4.69101 0
M  V30 3214 H 293.396 -4.36855 4.26603 0
M  V30 3215 H 294.81 -2.31816 5.24342 0
M  V30 3216 H 293.207 -1.71181 5.75167 0
M  V30 3217 H 294.277 -0.663542 4.80339 0
M  V30 3218 N 295.62 -1.53406 -0.361157 0
M  V30 3219 C 297.036 -1.43277 -0.703124 0
M  V30 3220 C 297.236 -0.575384 -1.9311 0
M  V30 3221 O 296.292 -0.0595362 -2.5243 0
M  V30 3222 C 297.605 -2.8653 -0.9122 0
M  V30 3223 C 299.153 -2.96191 -1.01193 0
M  V30 3224 C 299.628 -4.40514 -1.25345 0
M  V30 3225 N 301.119 -4.43962 -1.32105 0
M  V30 3226 C 301.854 -5.52746 -1.5251 0
M  V30 3227 N 301.35 -6.71567 -1.70203 0
M  V30 3228 N 303.143 -5.40331 -1.54916 0
M  V30 3229 H 295.294 -2.07654 0.446475 0
M  V30 3230 H 297.557 -0.937944 0.137715 0
M  V30 3231 H 297.263 -3.51605 -0.0816414 0
M  V30 3232 H 297.137 -3.30441 -1.81903 0
M  V30 3233 H 299.524 -2.31266 -1.83303 0
M  V30 3234 H 299.605 -2.55667 -0.0823929 0
M  V30 3235 H 299.249 -5.06014 -0.437346 0
M  V30 3236 H 299.179 -4.78614 -2.19627 0
M  V30 3237 H 301.67 -3.58332 -1.20028 0
M  V30 3238 H 301.983 -7.50241 -1.85359 0
M  V30 3239 H 300.328 -6.74545 -1.67373 0
M  V30 3240 H 303.519 -4.46465 -1.40663 0
M  V30 3241 H 303.692 -6.25173 -1.70477 0
M  V30 3242 N 297.098 0.621204 -1.44841 0
M  V30 3243 C 298.347 1.37658 -1.47422 0
M  V30 3244 C 298.66 1.95264 -0.114629 0
M  V30 3245 O 299.866 2.71494 -0.0180199 0
M  V30 3246 C 298.322 2.49285 -2.59586 0
M  V30 3247 C 297.93 1.98149 -4.01797 0
M  V30 3248 C 299.674 3.26409 -2.71399 0
M  V30 3249 C 297.581 3.07178 -5.05367 0
M  V30 3250 H 296.511 0.517344 -0.548517 0
M  V30 3251 H 299.162 0.667257 -1.70938 0
M  V30 3252 H 297.544 3.22839 -2.29328 0
M  V30 3253 H 298.718 1.31395 -4.41669 0
M  V30 3254 H 297.033 1.33812 -3.94314 0
M  V30 3255 H 299.63 4.07706 -3.45948 0
M  V30 3256 H 299.973 3.76535 -1.77559 0
M  V30 3257 H 300.506 2.5995 -3.01116 0
M  V30 3258 H 297.245 2.61985 -6.00869 0
M  V30 3259 H 296.765 3.72542 -4.70077 0
M  V30 3260 H 298.444 3.71789 -5.29511 0
M  V30 3261 N 298.576 1.31904 0.862503 0
M  V30 3262 C 299.824 1.21776 1.61292 0
M  V30 3263 C 300.145 -0.222413 1.93727 0
M  V30 3264 O 299.415 -1.1451 1.58947 0
M  V30 3265 H 297.995 0.447717 0.597962 0
M  V30 3266 H 300.657 1.65326 1.03215 0
M  V30 3267 H 299.753 1.7948 2.5533 0
M  V30 3268 N 300.054 -1.07777 1.14986 0
M  V30 3269 C 301.302 -1.79934 0.920235 0
M  V30 3270 C 301.623 -1.86955 -0.554336 0
M  V30 3271 O 300.893 -1.36731 -1.40291 0
M  V30 3272 H 299.473 -0.666424 0.337473 0
M  V30 3273 H 302.135 -1.3027 1.44968 0
M  V30 3274 H 301.231 -2.82539 1.32583 0
M  V30 3275 N 301.532 -0.945985 -1.26051 0
M  V30 3276 C 302.948 -0.649045 -1.45807 0
M  V30 3277 C 303.148 0.796158 -1.85104 0
M  V30 3278 O 302.204 1.57233 -1.97571 0
M  V30 3279 C 303.517 -1.61458 -2.53677 0
M  V30 3280 C 305.065 -1.62481 -2.67524 0
M  V30 3281 C 305.54 -2.57776 -3.7857 0
M  V30 3282 N 307.031 -2.5609 -3.85969 0
M  V30 3283 C 307.766 -3.26508 -4.7136 0
M  V30 3284 N 307.262 -4.0637 -5.61102 0
M  V30 3285 N 309.055 -3.15437 -4.65248 0
M  V30 3286 H 301.206 -1.88005 -0.988328 0
M  V30 3287 H 303.469 -0.808198 -0.4955 0
M  V30 3288 H 303.175 -2.64644 -2.31638 0
M  V30 3289 H 303.049 -1.37036 -3.51427 0
M  V30 3290 H 305.436 -0.600167 -2.88933 0
M  V30 3291 H 305.517 -1.90958 -1.70202 0
M  V30 3292 H 305.161 -3.60361 -3.57913 0
M  V30 3293 H 305.091 -2.26587 -4.75359 0
M  V30 3294 H 307.582 -1.98105 -3.21812 0
M  V30 3295 H 307.895 -4.57042 -6.23164 0
M  V30 3296 H 306.24 -4.10469 -5.60839 0
M  V30 3297 H 309.431 -2.52525 -3.94143 0
M  V30 3298 H 309.604 -3.70584 -5.31575 0
M  V30 3299 N 303.011 1.40521 -0.713556 0
M  V30 3300 C 303.974 2.29098 -0.0684347 0
M  V30 3301 C 304.974 1.45268 0.689472 0
M  V30 3302 O 306.164 1.66205 0.521677 0
M  V30 3303 C 303.296 3.28446 0.913024 0
M  V30 3304 H 304.489 2.87645 -0.84855 0
M  V30 3305 H 302.042 1.48809 -0.47809 0
M  V30 3306 H 302.777 2.74913 1.72027 0
M  V30 3307 H 302.562 3.90327 0.372472 0
M  V30 3308 H 304.052 3.94777 1.36165 0
M  V30 3309 N 304.489 0.459591 1.5075 0
M  V30 3310 C 305.735 -0.0994966 2.02556 0
M  V30 3311 C 306.068 -1.40399 1.3417 0
M  V30 3312 O 305.343 -1.88892 0.463683 0
M  V30 3313 C 305.626 -0.295242 3.58888 0
M  V30 3314 C 305.479 1.02947 4.37861 0
M  V30 3315 C 306.798 -1.05502 4.27267 0
M  V30 3316 H 303.917 -0.034686 0.736183 0
M  V30 3317 H 306.559 0.602938 1.8018 0
M  V30 3318 H 304.709 -0.893563 3.78084 0
M  V30 3319 H 306.381 1.66348 4.30263 0
M  V30 3320 H 304.624 1.62885 4.02058 0
M  V30 3321 H 305.295 0.846281 5.45474 0
M  V30 3322 H 307.771 -0.547993 4.12476 0
M  V30 3323 H 306.647 -1.16077 5.36486 0
M  V30 3324 H 306.908 -2.08875 3.89645 0
M  V30 3325 N 305.967 -1.56429 0.191757 0
M  V30 3326 C 307.244 -1.89224 -0.495332 0
M  V30 3327 C 307.624 -1.10478 -1.79883 0
M  V30 3328 O 306.972 -0.204852 -2.2758 0
M  V30 3329 C 307.182 -3.41548 -0.717367 0
M  V30 3330 C 308.53 -4.11711 -1.03823 0
M  V30 3331 O 309.554 -3.4698 -0.805204 0
M  V30 3332 O 308.413 -5.2611 -1.47887 0
M  V30 3333 H 305.507 -0.785788 -0.25781 0
M  V30 3334 H 308.053 -1.68111 0.231721 0
M  V30 3335 H 306.825 -3.90772 0.203287 0
M  V30 3336 H 306.448 -3.68342 -1.497 0
M  V30 3337 N 307.445 0.0818655 -1.57387 0
M  V30 3338 C 308.691 0.784074 -1.8703 0
M  V30 3339 C 309.024 1.77729 -0.782689 0
M  V30 3340 O 308.299 1.93384 0.208051 0
M  V30 3341 C 308.582 1.50105 -3.27323 0
M  V30 3342 C 308.435 0.524925 -4.46727 0
M  V30 3343 C 309.754 2.44843 -3.65705 0
M  V30 3344 H 306.873 0.283582 -0.680257 0
M  V30 3345 H 309.515 0.0474352 -1.89941 0
M  V30 3346 H 307.665 2.12897 -3.24972 0
M  V30 3347 H 309.337 -0.0970111 -4.61198 0
M  V30 3348 H 307.58 -0.160606 -4.33503 0
M  V30 3349 H 308.251 1.064 -5.41648 0
M  V30 3350 H 310.727 1.92135 -3.69085 0
M  V30 3351 H 309.603 2.92018 -4.64776 0
M  V30 3352 H 309.864 3.29197 -2.95096 0
M  V30 3353 N 308.923 1.53595 0.353017 0
M  V30 3354 C 310.339 1.43648 0.695516 0
M  V30 3355 C 310.539 0.585617 1.92802 0
M  V30 3356 O 309.595 0.0729223 2.52395 0
M  V30 3357 C 310.908 2.8701 0.896991 0
M  V30 3358 C 312.456 2.96723 0.996209 0
M  V30 3359 C 312.931 4.41173 1.23007 0
M  V30 3360 N 314.422 4.44657 1.29749 0
M  V30 3361 C 315.157 5.53547 1.49577 0
M  V30 3362 N 314.653 6.72461 1.66639 0
M  V30 3363 N 316.446 5.41145 1.52048 0
M  V30 3364 H 308.597 2.07415 -0.457481 0
M  V30 3365 H 310.86 0.9372 -0.142687 0
M  V30 3366 H 310.566 3.51644 0.0629938 0
M  V30 3367 H 310.44 3.31401 1.80148 0
M  V30 3368 H 312.827 2.32235 1.82074 0
M  V30 3369 H 312.908 2.55707 0.0688331 0
M  V30 3370 H 312.552 5.06238 0.410505 0
M  V30 3371 H 312.482 4.79772 2.17086 0
M  V30 3372 H 314.973 3.58963 1.18126 0
M  V30 3373 H 315.286 7.51214 1.81378 0
M  V30 3374 H 313.631 6.75423 1.63794 0
M  V30 3375 H 316.822 4.47205 1.38294 0
M  V30 3376 H 316.995 6.26068 1.67159 0
M  V30 3377 N 310.401 -0.613514 1.45168 0
M  V30 3378 C 311.647 -1.37471 1.49096 0
M  V30 3379 C 311.98 -1.93765 0.129901 0
M  V30 3380 O 311.255 -1.74707 -0.854858 0
M  V30 3381 C 311.538 -2.52701 2.56542 0
M  V30 3382 C 311.391 -2.01643 4.0207 0
M  V30 3383 C 312.71 -3.54849 2.60327 0
M  V30 3384 H 309.829 -0.498502 0.54283 0
M  V30 3385 H 312.471 -0.692125 1.76945 0
M  V30 3386 H 310.621 -3.10931 2.32926 0
M  V30 3387 H 312.293 -1.48108 4.36877 0
M  V30 3388 H 310.536 -1.32688 4.13009 0
M  V30 3389 H 311.207 -2.84681 4.72928 0
M  V30 3390 H 313.683 -3.0645 2.81474 0
M  V30 3391 H 312.559 -4.32973 3.37381 0
M  V30 3392 H 312.82 -4.10079 1.6519 0
M  V30 3393 N 311.879 -1.3236 -0.855495 0
M  V30 3394 C 313.104 -1.2601 -1.64731 0
M  V30 3395 C 313.529 0.169068 -1.87339 0
M  V30 3396 O 312.887 1.12016 -1.42556 0
M  V30 3397 C 312.935 -2.02417 -2.98429 0
M  V30 3398 O 312.039 -1.3714 -3.8893 0
M  V30 3399 H 311.38 -0.434325 -0.502253 0
M  V30 3400 H 313.91 -1.74661 -1.06558 0
M  V30 3401 H 313.92 -2.12559 -3.48257 0
M  V30 3402 H 312.595 -3.06343 -2.81295 0
M  V30 3403 H 311.172 -1.3554 -3.47395 0
M  V30 3404 N 313.357 1.07166 -1.15556 0
M  V30 3405 C 314.585 1.83514 -0.955519 0
M  V30 3406 C 315 1.82163 0.49621 0
M  V30 3407 O 314.357 1.23441 1.34419 0
M  V30 3408 C 314.408 3.30515 -1.46432 0
M  V30 3409 O 314.129 3.31937 -2.85918 0
M  V30 3410 C 315.63 4.23625 -1.30603 0
M  V30 3411 H 312.85 0.578926 -0.339244 0
M  V30 3412 H 315.394 1.35265 -1.53374 0
M  V30 3413 H 313.549 3.76106 -0.928584 0
M  V30 3414 H 313.963 4.23794 -3.09029 0
M  V30 3415 H 315.437 5.24831 -1.71047 0
M  V30 3416 H 315.914 4.38485 -0.250441 0
M  V30 3417 H 316.52 3.83871 -1.83094 0
M  V30 3418 N 314.835 0.952656 1.25548 0
M  V30 3419 C 315.768 0.415525 2.24385 0
M  V30 3420 C 316.746 -0.502046 1.54655 0
M  V30 3421 O 317.93 -0.436875 1.83368 0
M  V30 3422 C 315.057 -0.401734 3.36309 0
M  V30 3423 C 314.103 0.455949 4.24056 0
M  V30 3424 S 314.936 1.88698 5.01152 0
M  V30 3425 C 316.092 1.07809 6.16545 0
M  V30 3426 H 316.325 1.25315 2.69599 0
M  V30 3427 H 313.858 0.756587 1.34592 0
M  V30 3428 H 315.816 -0.867329 4.01233 0
M  V30 3429 H 314.477 -1.21416 2.89684 0
M  V30 3430 H 313.67 -0.170776 5.03711 0
M  V30 3431 H 313.272 0.856675 3.64056 0
M  V30 3432 H 315.564 0.325816 6.76716 0
M  V30 3433 H 316.507 1.84849 6.83547 0
M  V30 3434 H 316.915 0.60909 5.61204 0
M  V30 3435 N 316.313 -1.40141 0.720998 0
M  V30 3436 C 317.724 -1.83678 0.334553 0
M  V30 3437 C 318.075 -1.6027 -1.13173 0
M  V30 3438 O 317.2 -1.08643 -1.87152 0
M  V30 3439 C 317.795 -3.33437 0.600437 0
M  V30 3440 C 316.354 -3.75447 0.267642 0
M  V30 3441 C 315.501 -2.63296 0.870097 0
M  V30 3442 H 318.452 -1.29331 0.919732 0
M  V30 3443 H 318.473 -3.80269 -0.132517 0
M  V30 3444 H 317.985 -3.50442 1.66768 0
M  V30 3445 H 316.086 -3.64035 -0.794329 0
M  V30 3446 H 316.199 -4.73344 0.74042 0
M  V30 3447 H 314.563 -2.52954 0.297739 0
M  V30 3448 H 315.346 -2.83112 1.94172 0
M  V30 3449 N 317.792 -0.46758 -1.50504 0
M  V30 3450 C 319.017 0.0886943 -2.0721 0
M  V30 3451 C 319.442 1.33057 -1.32956 0
M  V30 3452 O 318.8 1.77354 -0.376197 0
M  V30 3453 C 318.848 0.359202 -3.58806 0
M  V30 3454 O 317.952 1.44034 -3.8643 0
M  V30 3455 H 317.293 -0.0114349 -0.663902 0
M  V30 3456 H 319.823 -0.657613 -1.93744 0
M  V30 3457 H 319.833 0.600742 -4.03553 0
M  V30 3458 H 318.508 -0.548311 -4.1227 0
M  V30 3459 H 317.085 1.18638 -3.53524 0
M  V30 3460 N 319.27 1.56325 -0.20005 0
M  V30 3461 C 320.495 2.02548 0.44597 0
M  V30 3462 C 320.92 1.07922 1.5406 0
M  V30 3463 O 320.278 0.0635775 1.81188 0
M  V30 3464 C 320.326 3.47175 0.974761 0
M  V30 3465 O 319.43 3.55671 2.08739 0
M  V30 3466 H 318.771 0.655862 0.103638 0
M  V30 3467 H 321.301 2.02201 -0.312381 0
M  V30 3468 H 321.311 3.87067 1.2901 0
M  V30 3469 H 319.986 4.15538 0.17347 0
M  V30 3470 H 318.563 3.27657 1.78032 0
M  V30 3471 N 320.748 -0.0735177 1.57428 0
M  V30 3472 C 321.698 -1.09442 2.00016 0
M  V30 3473 C 322.682 -1.34575 0.881947 0
M  V30 3474 O 323.874 -1.34905 1.14585 0
M  V30 3475 C 321.003 -2.40865 2.4462 0
M  V30 3476 C 320.089 -2.19014 3.63172 0
M  V30 3477 N 320.48 -1.67087 4.77405 0
M  V30 3478 C 318.778 -2.49494 3.69688 0
M  V30 3479 C 319.479 -1.6001 5.5926 0
M  V30 3480 N 318.455 -2.05999 5.03056 0
M  V30 3481 H 322.257 -0.686227 2.85776 0
M  V30 3482 H 319.771 -0.280617 1.59957 0
M  V30 3483 H 321.768 -3.14763 2.73368 0
M  V30 3484 H 320.428 -2.82403 1.60246 0
M  V30 3485 H 321.439 -1.35975 4.99731 0
M  V30 3486 H 318.116 -2.94409 2.96023 0
M  V30 3487 H 319.506 -1.2073 6.60964 0
M  V30 3488 N 322.226 -1.5378 -0.344866 0
M  V30 3489 C 323.474 -1.70625 -1.08311 0
M  V30 3490 C 323.795 -0.471447 -1.89215 0
M  V30 3491 O 323.065 0.514616 -1.8902 0
M  V30 3492 H 321.645 -0.629058 -0.402859 0
M  V30 3493 H 324.307 -1.9103 -0.386459 0
M  V30 3494 H 323.403 -2.57656 -1.76124 0
M  V30 3495 N 323.704 0.605807 -1.45491 0
M  V30 3496 C 324.614 1.74466 -1.56839 0
M  V30 3497 C 325.63 1.68006 -0.452772 0
M  V30 3498 O 326.806 1.8833 -0.713708 0
M  V30 3499 C 323.871 3.10931 -1.53371 0
M  V30 3500 C 322.932 3.28832 -2.75986 0
M  V30 3501 C 322.165 4.58787 -2.72673 0
M  V30 3502 O 322.388 5.4122 -1.80102 0
M  V30 3503 O 321.322 4.79438 -3.63899 0
M  V30 3504 H 325.148 1.67843 -2.53106 0
M  V30 3505 H 322.733 0.770108 -1.28022 0
M  V30 3506 H 324.615 3.92233 -1.54051 0
M  V30 3507 H 323.29 3.18042 -0.602572 0
M  V30 3508 H 322.197 2.47112 -2.80867 0
M  V30 3509 H 323.53 3.26599 -3.68231 0
M  V30 3510 N 325.182 1.32811 0.848464 0
M  V30 3511 C 326.598 1.11937 1.13764 0
M  V30 3512 C 326.798 -0.0960789 2.01271 0
M  V30 3513 O 325.854 -0.779165 2.40178 0
M  V30 3514 C 327.167 2.402 1.809 0
M  V30 3515 C 328.715 2.46016 1.93508 0
M  V30 3516 C 329.19 3.74215 2.64059 0
M  V30 3517 N 330.681 3.75232 2.71579 0
M  V30 3518 C 331.416 4.71134 3.26833 0
M  V30 3519 N 330.912 5.77406 3.8285 0
M  V30 3520 N 332.705 4.58623 3.24995 0
M  V30 3521 H 324.856 2.1073 0.265855 0
M  V30 3522 H 327.119 0.930671 0.180431 0
M  V30 3523 H 326.825 3.29093 1.24058 0
M  V30 3524 H 326.699 2.51628 2.81004 0
M  V30 3525 H 329.086 1.57577 2.49506 0
M  V30 3526 H 329.167 2.38536 0.923811 0
M  V30 3527 H 328.811 4.63031 2.08722 0
M  V30 3528 H 328.741 3.78968 3.65637 0
M  V30 3529 H 331.232 2.98423 2.31845 0
M  V30 3530 H 331.545 6.46632 4.23187 0
M  V30 3531 H 329.89 5.81152 3.81165 0
M  V30 3532 H 333.081 3.74762 2.80484 0
M  V30 3533 H 333.254 5.33535 3.67756 0
M  V30 3534 N 326.66 -1.06551 1.16123 0
M  V30 3535 C 327.906 -1.79567 0.94252 0
M  V30 3536 C 328.239 -1.86869 -0.528547 0
M  V30 3537 O 327.514 -1.35838 -1.39206 0
M  V30 3538 C 327.797 -3.24195 1.56747 0
M  V30 3539 C 327.65 -3.24989 3.10969 0
M  V30 3540 C 328.969 -4.21678 1.25998 0
M  V30 3541 H 326.088 -0.651883 0.343828 0
M  V30 3542 H 328.73 -1.2463 1.43413 0
M  V30 3543 H 326.88 -3.71107 1.14942 0
M  V30 3544 H 328.552 -2.86258 3.61737 0
M  V30 3545 H 326.795 -2.63716 3.44436 0
M  V30 3546 H 327.466 -4.27005 3.49815 0
M  V30 3547 H 329.942 -3.83196 1.62174 0
M  V30 3548 H 328.818 -5.21146 1.7233 0
M  V30 3549 H 329.079 -4.4174 0.178367 0
M  V30 3550 N 328.138 -0.959301 -1.25041 0
M  V30 3551 C 329.384 -0.617525 -1.9317 0
M  V30 3552 C 329.717 0.843981 -1.74902 0
M  V30 3553 O 328.992 1.60615 -1.09696 0
M  V30 3554 C 329.275 -0.982736 -3.46431 0
M  V30 3555 C 329.128 -2.50032 -3.73904 0
M  V30 3556 C 330.447 -0.511176 -4.37121 0
M  V30 3557 H 327.566 -0.22582 -0.701552 0
M  V30 3558 H 330.208 -1.19679 -1.4757 0
M  V30 3559 H 328.358 -0.489806 -3.854 0
M  V30 3560 H 330.03 -3.06737 -3.44544 0
M  V30 3561 H 328.273 -2.93598 -3.19348 0
M  V30 3562 H 328.944 -2.70635 -4.81103 0
M  V30 3563 H 331.42 -0.934075 -4.0548 0
M  V30 3564 H 330.296 -0.795361 -5.43107 0
M  V30 3565 H 330.557 0.588834 -4.38161 0
M  V30 3566 N 329.616 1.39756 -0.72842 0
M  V30 3567 C 330.549 2.28176 -0.0330172 0
M  V30 3568 C 331.527 1.44035 0.754501 0
M  V30 3569 O 332.711 1.73434 0.738445 0
M  V30 3570 C 329.838 3.24795 0.960504 0
M  V30 3571 C 328.884 4.25693 0.262264 0
M  V30 3572 S 329.717 5.25714 -1.01906 0
M  V30 3573 C 330.873 6.25894 -0.0279717 0
M  V30 3574 H 331.106 2.86807 -0.78287 0
M  V30 3575 H 328.639 1.45382 -0.519951 0
M  V30 3576 H 330.597 3.80983 1.52846 0
M  V30 3577 H 329.258 2.65196 1.68315 0
M  V30 3578 H 328.451 4.93699 1.01379 0
M  V30 3579 H 328.053 3.7327 -0.233482 0
M  V30 3580 H 330.345 6.72585 0.814621 0
M  V30 3581 H 331.288 7.04876 -0.67499 0
M  V30 3582 H 331.696 5.63466 0.341489 0
M  V30 3583 N 331.094 0.475555 1.50254 0
M  V30 3584 C 332.51 0.12997 1.5907 0
M  V30 3585 C 332.71 -1.36385 1.48328 0
M  V30 3586 O 331.766 -2.13754 1.34407 0
M  V30 3587 C 333.079 0.684139 2.92814 0
M  V30 3588 C 334.627 0.647965 3.0622 0
M  V30 3589 C 335.102 1.17975 4.42545 0
M  V30 3590 N 336.593 1.13936 4.48969 0
M  V30 3591 C 337.328 1.52129 5.52851 0
M  V30 3592 N 336.824 1.97793 6.63965 0
M  V30 3593 N 338.617 1.43704 5.4342 0
M  V30 3594 H 330.768 1.44706 1.55479 0
M  V30 3595 H 333.031 0.598691 0.735033 0
M  V30 3596 H 332.737 1.73079 3.06164 0
M  V30 3597 H 332.611 0.130204 3.76975 0
M  V30 3598 H 334.998 -0.38979 2.92514 0
M  V30 3599 H 335.079 1.23876 2.23805 0
M  V30 3600 H 334.723 2.21616 4.57 0
M  V30 3601 H 334.653 0.565138 5.23559 0
M  V30 3602 H 337.144 0.804488 3.69238 0
M  V30 3603 H 337.457 2.25072 7.39299 0
M  V30 3604 H 335.802 2.01749 6.65073 0
M  V30 3605 H 338.993 1.07867 4.55502 0
M  V30 3606 H 339.166 1.73794 6.24259 0
M  V30 3607 N 332.573 -1.56217 0.208337 0
M  V30 3608 C 333.503 -2.22694 -0.702116 0
M  V30 3609 C 334.484 -1.19432 -1.2112 0
M  V30 3610 O 335.669 -1.47978 -1.25762 0
M  V30 3611 C 332.799 -2.8966 -1.9161 0
M  V30 3612 C 331.753 -3.9928 -1.5414 0
M  V30 3613 C 331.079 -4.53476 -2.83308 0
M  V30 3614 C 332.379 -5.17012 -0.741339 0
M  V30 3615 H 334.073 -2.99034 -0.147898 0
M  V30 3616 H 331.619 -1.43831 -0.0696951 0
M  V30 3617 H 333.572 -3.34852 -2.55836 0
M  V30 3618 H 332.296 -2.10746 -2.49507 0
M  V30 3619 H 330.955 -3.54799 -0.922668 0
M  V30 3620 H 330.603 -3.71308 -3.39322 0
M  V30 3621 H 330.303 -5.27451 -2.58976 0
M  V30 3622 H 331.827 -5.01378 -3.485 0
M  V30 3623 H 333.241 -5.58667 -1.28699 0
M  V30 3624 H 331.638 -5.97137 -0.595627 0
M  V30 3625 H 332.708 -4.8423 0.254851 0
M  V30 3626 N 334.051 0.0651679 -1.57465 0
M  V30 3627 C 334.981 1.07693 -2.07182 0
M  V30 3628 C 335.962 1.39962 -0.966673 0
M  V30 3629 O 337.147 1.49475 -1.2398 0
M  V30 3630 C 334.277 2.3885 -2.52127 0
M  V30 3631 C 333.231 2.20917 -3.66579 0
M  V30 3632 C 332.557 3.57515 -3.97601 0
M  V30 3633 C 333.857 1.62493 -4.9638 0
M  V30 3634 H 335.551 0.663199 -2.91962 0
M  V30 3635 H 333.097 0.317569 -1.40455 0
M  V30 3636 H 335.05 3.09928 -2.85522 0
M  V30 3637 H 333.774 2.82215 -1.64384 0
M  V30 3638 H 332.433 1.52279 -3.33477 0
M  V30 3639 H 332.081 3.98463 -3.06979 0
M  V30 3640 H 331.781 3.46353 -4.74672 0
M  V30 3641 H 333.305 4.30013 -4.33499 0
M  V30 3642 H 334.719 2.23445 -5.27963 0
M  V30 3643 H 333.116 1.62009 -5.77818 0
M  V30 3644 H 334.186 0.587041 -4.81333 0
M  V30 3645 N 335.529 1.53961 0.336706 0
M  V30 3646 C 336.806 1.62171 1.09361 0
M  V30 3647 C 337.186 0.447263 2.06307 0
M  V30 3648 O 336.534 -0.559802 2.21537 0
M  V30 3649 C 336.744 2.98565 1.80721 0
M  V30 3650 C 338.092 3.54157 2.34218 0
M  V30 3651 O 339.116 3.00784 1.90807 0
M  V30 3652 O 337.975 4.47528 3.13657 0
M  V30 3653 H 335.069 0.6562 0.503319 0
M  V30 3654 H 337.615 1.66307 0.33765 0
M  V30 3655 H 336.387 3.75482 1.10132 0
M  V30 3656 H 336.01 2.9805 2.63158 0
M  V30 3657 N 337.007 -0.598083 1.45811 0
M  V30 3658 C 337.954 -1.7082 1.55207 0
M  V30 3659 C 338.924 -1.61278 0.39732 0
M  V30 3660 O 340.109 -1.80717 0.612038 0
M  V30 3661 C 337.249 -3.09144 1.53376 0
M  V30 3662 C 336.362 -3.29423 2.79472 0
M  V30 3663 C 335.497 -4.57907 2.69248 0
M  V30 3664 C 334.536 -4.71476 3.90354 0
M  V30 3665 N 333.673 -5.9127 3.78608 0
M  V30 3666 H 338.513 -1.62125 2.50039 0
M  V30 3667 H 336.05 -0.790389 1.24062 0
M  V30 3668 H 338.008 -3.89186 1.50301 0
M  V30 3669 H 336.638 -3.16773 0.620876 0
M  V30 3670 H 335.69 -2.43091 2.92594 0
M  V30 3671 H 337.002 -3.3532 3.69272 0
M  V30 3672 H 336.156 -5.46157 2.64192 0
M  V30 3673 H 334.895 -4.54423 1.77063 0
M  V30 3674 H 333.9 -3.81648 3.95759 0
M  V30 3675 H 335.125 -4.76751 4.83617 0
M  V30 3676 H 333.071 -5.88813 2.89199 0
M  V30 3677 H 332.988 -5.98369 4.6205 0
M  V30 3678 H 334.256 -6.81992 3.77501 0
M  V30 3679 N 338.485 -1.33259 -0.841409 0
M  V30 3680 C 339.433 -1.23279 -1.97244 0
M  V30 3681 C 340.427 -0.134706 -1.68864 0
M  V30 3682 O 341.633 -0.298501 -1.77508 0
M  V30 3683 H 338.008 -0.382497 -0.647457 0
M  V30 3684 H 339.979 -2.18906 -2.02787 0
M  V30 3685 C 338.728 -0.986268 -3.33419 0
M  V30 3686 H 338.051 -1.82347 -3.55794 0
M  V30 3687 H 339.491 -0.956728 -4.13065 0
M  V30 3688 C 337.95 0.310842 -3.35463 0
M  V30 3689 O 338.48 1.31838 -3.79449 0
M  V30 3690 N 336.686 0.337485 -2.88634 0
M  V30 3691 H 336.233 -0.482967 -2.53032 0
M  V30 3692 H 336.191 1.20518 -2.90384 0
M  V30 3693 N 339.963 1.05934 -1.16686 0
M  V30 3694 C 340.926 2.11669 -0.879144 0
M  V30 3695 C 341.926 1.60294 0.127445 0
M  V30 3696 O 343.116 1.7389 -0.103865 0
M  V30 3697 C 340.248 3.39438 -0.315425 0
M  V30 3698 H 341.441 2.38626 -1.81653 0
M  V30 3699 H 338.994 1.22058 -0.976299 0
M  V30 3700 H 339.729 3.18132 0.629468 0
M  V30 3701 H 339.514 3.78034 -1.04079 0
M  V30 3702 H 341.004 4.17391 -0.132189 0
M  V30 3703 N 341.441 0.965919 1.2453 0
M  V30 3704 C 342.669 0.644385 1.96609 0
M  V30 3705 C 343.084 -0.785823 1.71669 0
M  V30 3706 O 342.441 -1.52703 0.999399 0
M  V30 3707 C 342.492 0.907375 3.49927 0
M  V30 3708 O 342.213 2.28136 3.74013 0
M  V30 3709 C 343.714 0.599784 4.39224 0
M  V30 3710 H 340.934 0.240588 0.626385 0
M  V30 3711 H 343.478 1.29337 1.58405 0
M  V30 3712 H 341.633 0.304631 3.862 0
M  V30 3713 H 342.047 2.36002 4.68405 0
M  V30 3714 H 343.521 0.834263 5.45659 0
M  V30 3715 H 343.998 -0.465921 4.36722 0
M  V30 3716 H 344.604 1.18235 4.08535 0
M  V30 3717 N 342.919 -1.39368 0.735821 0
M  V30 3718 C 344.335 -1.54204 0.411492 0
M  V30 3719 C 344.535 -1.70268 -1.07755 0
M  V30 3720 O 343.591 -1.70364 -1.86366 0
M  V30 3721 C 344.904 -2.75925 1.19523 0
M  V30 3722 C 346.452 -2.89761 1.18354 0
M  V30 3723 C 346.927 -4.14421 1.94986 0
M  V30 3724 N 348.418 -4.21462 1.92156 0
M  V30 3725 C 349.153 -5.16871 2.48258 0
M  V30 3726 N 348.649 -6.18063 3.13001 0
M  V30 3727 N 350.442 -5.09093 2.38287 0
M  V30 3728 H 342.593 -1.27189 1.70108 0
M  V30 3729 H 344.856 -0.616517 0.720147 0
M  V30 3730 H 344.562 -2.70401 2.24892 0
M  V30 3731 H 344.436 -3.68614 0.800222 0
M  V30 3732 H 346.823 -2.94777 0.137975 0
M  V30 3733 H 346.904 -1.98133 1.61793 0
M  V30 3734 H 346.548 -4.10166 2.99543 0
M  V30 3735 H 346.478 -5.05095 1.48953 0
M  V30 3736 H 348.969 -3.48979 1.44991 0
M  V30 3737 H 349.282 -6.87326 3.53275 0
M  V30 3738 H 347.627 -6.18448 3.17091 0
M  V30 3739 H 350.818 -4.28973 1.8735 0
M  V30 3740 H 350.991 -5.83272 2.82308 0
M  V30 3741 N 344.397 -0.483516 -1.5 0
M  V30 3742 C 345.327 0.293829 -2.31644 0
M  V30 3743 C 346.308 0.978864 -1.39112 0
M  V30 3744 O 347.493 0.973644 -1.68029 0
M  V30 3745 C 344.623 1.36897 -3.19181 0
M  V30 3746 C 343.577 0.804833 -4.20365 0
M  V30 3747 C 342.903 1.9792 -4.96721 0
M  V30 3748 C 344.203 -0.192313 -5.21946 0
M  V30 3749 H 345.897 -0.387616 -2.9688 0
M  V30 3750 H 343.443 -0.187856 -1.42769 0
M  V30 3751 H 345.396 1.92037 -3.751 0
M  V30 3752 H 344.12 2.07936 -2.51853 0
M  V30 3753 H 342.779 0.275319 -3.65565 0
M  V30 3754 H 342.427 2.67686 -4.25856 0
M  V30 3755 H 342.127 1.60789 -5.65173 0
M  V30 3756 H 343.651 2.53526 -5.55479 0
M  V30 3757 H 345.065 0.270333 -5.72662 0
M  V30 3758 H 343.462 -0.478543 -5.98189 0
M  V30 3759 H 344.532 -1.11409 -4.71928 0
M  V30 3760 N 345.875 1.56104 -0.216619 0
M  V30 3761 C 347.152 1.89988 0.465165 0
M  V30 3762 C 347.532 1.13326 1.78102 0
M  V30 3763 O 346.88 0.241033 2.27225 0
M  V30 3764 C 347.09 3.42646 0.662939 0
M  V30 3765 C 348.438 4.13311 0.972602 0
M  V30 3766 O 349.462 3.48217 0.749901 0
M  V30 3767 O 348.321 5.28396 1.39499 0
M  V30 3768 H 345.415 0.78979 0.245276 0
M  V30 3769 H 347.961 1.67721 -0.258436 0
M  V30 3770 H 346.733 3.90399 -0.26543 0
M  V30 3771 H 346.356 3.70677 1.43821 0
M  V30 3772 N 347.353 -0.0568162 1.57498 0
M  V30 3773 C 348.283 -1.06593 2.0775 0
M  V30 3774 C 349.264 -1.39448 0.974082 0
M  V30 3775 O 350.449 -1.48815 1.24771 0
M  V30 3776 C 347.579 -2.37509 2.5339 0
M  V30 3777 C 346.533 -2.1897 3.67745 0
M  V30 3778 C 345.859 -3.55402 3.99492 0
M  V30 3779 C 347.159 -1.59859 4.97235 0
M  V30 3780 H 348.853 -0.647706 2.9231 0
M  V30 3781 H 346.399 -0.310116 1.40621 0
M  V30 3782 H 348.352 -3.08409 2.87162 0
M  V30 3783 H 347.076 -2.8134 1.65878 0
M  V30 3784 H 345.735 -1.50508 3.3428 0
M  V30 3785 H 345.383 -3.9683 3.09088 0
M  V30 3786 H 345.083 -3.43831 4.76502 0
M  V30 3787 H 346.607 -4.27708 4.35773 0
M  V30 3788 H 348.021 -2.20642 5.29141 0
M  V30 3789 H 346.418 -1.58942 5.78669 0
M  V30 3790 H 347.488 -0.561506 4.81638 0
M  V30 3791 N 348.832 -1.54138 -0.328536 0
M  V30 3792 C 349.782 -1.79557 -1.4051 0
M  V30 3793 C 350.766 -0.651373 -1.47126 0
M  V30 3794 O 351.958 -0.911226 -1.51742 0
M  V30 3795 C 349.087 -2.02196 -2.77438 0
M  V30 3796 C 348.173 -3.22724 -2.75155 0
M  V30 3797 N 348.564 -4.43881 -2.42494 0
M  V30 3798 C 346.862 -3.24196 -3.06289 0
M  V30 3799 C 347.563 -5.25797 -2.48822 0
M  V30 3800 N 346.539 -4.62862 -2.8506 0
M  V30 3801 H 350.341 -2.70814 -1.1418 0
M  V30 3802 H 347.855 -1.53265 -0.536991 0
M  V30 3803 H 349.852 -2.18546 -3.55026 0
M  V30 3804 H 348.512 -1.12191 -3.04702 0
M  V30 3805 H 349.523 -4.70969 -2.15428 0
M  V30 3806 H 346.2 -2.44208 -3.38627 0
M  V30 3807 H 347.59 -6.32535 -2.26603 0
M  V30 3808 N 350.31 0.590341 -1.46126 0
M  V30 3809 C 351.535 1.37991 -1.54833 0
M  V30 3810 C 351.96 1.87163 -0.187506 0
M  V30 3811 O 351.318 1.61133 0.831008 0
M  V30 3812 C 351.366 2.54867 -2.55098 0
M  V30 3813 O 350.47 3.56061 -2.08073 0
M  V30 3814 H 349.811 0.411265 -0.521303 0
M  V30 3815 H 352.341 0.716819 -1.91632 0
M  V30 3816 H 352.351 3.01886 -2.74461 0
M  V30 3817 H 351.026 2.18429 -3.53923 0
M  V30 3818 H 349.603 3.15574 -1.98664 0
M  V30 3819 N 351.788 1.33704 0.83433 0
M  V30 3820 C 352.718 1.26967 1.95963 0
M  V30 3821 C 353.699 0.149337 1.69443 0
M  V30 3822 O 354.884 0.339852 1.91203 0
M  V30 3823 C 352.014 1.01275 3.32206 0
M  V30 3824 C 350.968 2.09652 3.73136 0
M  V30 3825 C 350.294 1.69166 5.07235 0
M  V30 3826 C 351.594 3.51372 3.86439 0
M  V30 3827 H 353.288 2.2112 2.01857 0
M  V30 3828 H 350.834 1.06447 0.969793 0
M  V30 3829 H 352.787 0.952106 4.10503 0
M  V30 3830 H 351.511 0.0356203 3.26581 0
M  V30 3831 H 350.17 2.14766 2.97104 0
M  V30 3832 H 349.818 0.701437 4.98085 0
M  V30 3833 H 349.518 2.41694 5.35591 0
M  V30 3834 H 351.042 1.64576 5.88003 0
M  V30 3835 H 352.456 3.48734 4.55036 0
M  V30 3836 H 350.853 4.22425 4.26236 0
M  V30 3837 H 351.923 3.89546 2.88759 0
M  V30 3838 N 353.266 -1.05314 1.17247 0
M  V30 3839 C 354.514 -1.77941 0.958194 0
M  V30 3840 C 354.835 -1.88089 -0.514556 0
M  V30 3841 O 354.105 -1.39676 -1.37359 0
M  V30 3842 H 352.685 -0.659116 0.351533 0
M  V30 3843 H 355.347 -1.27166 1.47699 0
M  V30 3844 H 354.443 -2.79663 1.38546 0
M  V30 3845 N 354.744 -0.972509 -1.24016 0
M  V30 3846 C 355.677 -0.45117 -2.23696 0
M  V30 3847 C 356.655 0.477378 -1.55434 0
M  V30 3848 O 357.839 0.407647 -1.84039 0
M  V30 3849 C 354.966 0.34818 -3.36906 0
M  V30 3850 C 354.012 -0.523355 -4.23277 0
M  V30 3851 S 354.845 -1.96647 -4.98087 0
M  V30 3852 C 356.001 -1.17604 -6.14752 0
M  V30 3853 H 356.234 -1.29588 -2.67571 0
M  V30 3854 H 353.767 -0.777903 -1.33372 0
M  V30 3855 H 355.725 0.803387 -4.02562 0
M  V30 3856 H 354.386 1.16792 -2.91579 0
M  V30 3857 H 353.579 0.0906181 -5.03919 0
M  V30 3858 H 353.181 -0.914485 -3.62647 0
M  V30 3859 H 355.473 -0.433434 -6.76112 0
M  V30 3860 H 356.416 -1.95701 -6.8052 0
M  V30 3861 H 356.824 -0.698295 -5.60164 0
M  V30 3862 N 356.222 1.38976 -0.743202 0
M  V30 3863 C 357.45 2.04636 -0.30525 0
M  V30 3864 C 357.865 1.56044 1.06281 0
M  V30 3865 O 357.222 0.728921 1.67311 0
M  V30 3866 C 357.273 3.60193 -0.307177 0
M  V30 3867 O 356.994 4.06998 -1.62124 0
M  V30 3868 C 358.495 4.4306 0.145928 0
M  V30 3869 H 355.715 0.65788 -0.132041 0
M  V30 3870 H 358.259 1.77866 -1.00915 0
M  V30 3871 H 356.414 3.85835 0.347898 0
M  V30 3872 H 356.828 5.01371 -1.54036 0
M  V30 3873 H 358.302 5.51921 0.0934183 0
M  V30 3874 H 358.779 4.22706 1.19231 0
M  V30 3875 H 359.385 4.22584 -0.479886 0
M  V30 3876 N 357.7 0.491464 1.49741 0
M  V30 3877 C 358.663 -0.280906 2.27472 0
M  V30 3878 C 359.663 -0.902454 1.33088 0
M  V30 3879 O 360.853 -0.768465 1.56334 0
M  V30 3880 C 357.985 -1.40209 3.10732 0
M  V30 3881 H 359.178 0.401056 2.97206 0
M  V30 3882 H 356.731 0.246131 1.5435 0
M  V30 3883 H 357.466 -2.11849 2.45541 0
M  V30 3884 H 357.251 -0.961969 3.80117 0
M  V30 3885 H 358.741 -1.9464 3.69466 0
M  V30 3886 N 359.178 -1.55987 0.224894 0
M  V30 3887 C 360.128 -2.17076 -0.697296 0
M  V30 3888 C 361.112 -1.12006 -1.15514 0
M  V30 3889 O 362.304 -1.37985 -1.10857 0
M  V30 3890 C 359.433 -2.85679 -1.90374 0
M  V30 3891 C 358.519 -3.97977 -1.46543 0
M  V30 3892 N 358.91 -5.00359 -0.739909 0
M  V30 3893 C 357.208 -4.10128 -1.75245 0
M  V30 3894 C 357.909 -5.79407 -0.515939 0
M  V30 3895 N 356.885 -5.32892 -1.07364 0
M  V30 3896 H 360.687 -2.93592 -0.134594 0
M  V30 3897 H 358.201 -1.62379 0.0262885 0
M  V30 3898 H 360.198 -3.27857 -2.57518 0
M  V30 3899 H 358.858 -2.1066 -2.47088 0
M  V30 3900 H 359.869 -5.16412 -0.392253 0
M  V30 3901 H 356.546 -3.46263 -2.33255 0
M  V30 3902 H 357.936 -6.71872 0.0617349 0
M  V30 3903 N 360.656 0.0484629 -1.57525 0
M  V30 3904 C 361.604 1.07359 -2.06341 0
M  V30 3905 C 362.598 1.3865 -0.973269 0
M  V30 3906 O 363.804 1.37783 -1.15827 0
M  V30 3907 H 360.179 0.363662 -0.65822 0
M  V30 3908 H 362.15 0.635916 -2.91545 0
M  V30 3909 C 360.899 2.37198 -2.54229 0
M  V30 3910 H 360.222 2.13977 -3.37719 0
M  V30 3911 H 361.662 3.07319 -2.92115 0
M  V30 3912 C 360.121 3.04805 -1.43511 0
M  V30 3913 O 360.651 3.93848 -0.79034 0
M  V30 3914 N 358.857 2.65811 -1.17444 0
M  V30 3915 H 358.404 1.93488 -1.70059 0
M  V30 3916 H 358.362 3.11366 -0.435737 0
M  V30 3917 N 362.134 1.5431 0.320358 0
M  V30 3918 C 363.084 1.803 1.39556 0
M  V30 3919 C 364.068 0.659166 1.46778 0
M  V30 3920 O 365.26 0.91926 1.51257 0
M  V30 3921 C 362.389 2.03665 2.76361 0
M  V30 3922 C 361.475 3.24178 2.73439 0
M  V30 3923 N 361.866 4.4516 2.40137 0
M  V30 3924 C 360.164 3.25816 3.04565 0
M  V30 3925 C 360.865 5.27109 2.4603 0
M  V30 3926 N 359.841 4.64368 2.82601 0
M  V30 3927 H 363.643 2.71416 1.12742 0
M  V30 3928 H 361.157 1.53548 0.528856 0
M  V30 3929 H 363.154 2.20425 3.53862 0
M  V30 3930 H 361.814 1.13805 3.04103 0
M  V30 3931 H 362.825 4.72104 2.12927 0
M  V30 3932 H 359.502 2.46001 3.37328 0
M  V30 3933 H 360.892 6.33728 2.23246 0
M  V30 3934 N 363.613 -0.582584 1.46437 0
M  V30 3935 C 364.89 -1.34276 1.4223 0
M  V30 3936 C 365.27 -2.10835 0.10583 0
M  V30 3937 O 364.618 -2.09485 -0.912596 0
M  V30 3938 C 364.828 -2.26865 2.65204 0
M  V30 3939 C 366.176 -2.88691 3.11356 0
M  V30 3940 O 367.2 -2.37178 2.65753 0
M  V30 3941 O 366.059 -3.82255 3.90568 0
M  V30 3942 H 363.153 -0.603326 0.565621 0
M  V30 3943 H 365.699 -0.603591 1.58603 0
M  V30 3944 H 364.471 -1.69724 3.52576 0
M  V30 3945 H 364.094 -3.08122 2.5129 0
M  V30 3946 N 365.091 -1.34144 -0.827227 0
M  V30 3947 C 366.039 -1.25364 -1.95925 0
M  V30 3948 C 367.033 -0.152608 -1.68711 0
M  V30 3949 O 368.239 -0.317311 -1.77181 0
M  V30 3950 H 364.614 -0.389342 -0.643364 0
M  V30 3951 H 366.585 -2.21045 -2.00454 0
M  V30 3952 C 365.334 -1.02158 -3.32354 0
M  V30 3953 H 364.657 -1.86111 -3.5384 0
M  V30 3954 H 366.097 -1.00048 -4.12027 0
M  V30 3955 C 364.556 0.275244 -3.35774 0
M  V30 3956 O 365.086 1.27806 -3.80826 0
M  V30 3957 N 363.292 0.306853 -2.88975 0
M  V30 3958 H 362.839 -0.509777 -2.52506 0
M  V30 3959 H 362.797 1.17432 -2.91646 0
M  V30 3960 N 366.569 1.04691 -1.17803 0
M  V30 3961 C 367.816 1.77782 -0.969532 0
M  V30 3962 C 368.144 1.87926 0.501401 0
M  V30 3963 O 367.399 1.37918 1.38842 0
M  V30 3964 C 367.698 3.21467 -1.56186 0
M  V30 3965 C 367.364 3.3137 -3.05786 0
M  V30 3966 C 366.026 3.3378 -3.46619 0
M  V30 3967 C 368.378 3.31976 -4.01797 0
M  V30 3968 C 365.706 3.34431 -4.82051 0
M  V30 3969 C 368.058 3.34167 -5.37136 0
M  V30 3970 C 366.722 3.34866 -5.77426 0
M  V30 3971 H 365.992 0.650549 -0.354777 0
M  V30 3972 H 368.639 1.23006 -1.46772 0
M  V30 3973 H 366.944 3.79203 -0.985515 0
M  V30 3974 H 368.641 3.76652 -1.37602 0
M  V30 3975 H 365.231 3.3021 -2.73238 0
M  V30 3976 H 369.415 3.29311 -3.71306 0
M  V30 3977 H 364.671 3.33285 -5.12573 0
M  V30 3978 H 368.845 3.33585 -6.11305 0
M  V30 3979 H 366.472 3.35124 -6.82346 0
M  V30 3980 N 368.047 0.979072 1.23499 0
M  V30 3981 C 369.463 0.687475 1.44034 0
M  V30 3982 C 369.663 -0.746801 1.8715 0
M  V30 3983 O 368.719 -1.51939 2.0167 0
M  V30 3984 C 370.032 1.68127 2.49307 0
M  V30 3985 C 371.58 1.69516 2.63122 0
M  V30 3986 C 372.055 2.67723 3.71603 0
M  V30 3987 N 373.546 2.66233 3.79044 0
M  V30 3988 C 374.281 3.38891 4.62537 0
M  V30 3989 N 373.777 4.21103 5.50131 0
M  V30 3990 N 375.57 3.27661 4.56721 0
M  V30 3991 H 367.721 1.90559 0.938135 0
M  V30 3992 H 369.984 0.821051 0.473897 0
M  V30 3993 H 369.69 2.70693 2.2454 0
M  V30 3994 H 369.564 1.46306 3.4767 0
M  V30 3995 H 371.951 0.676561 2.8724 0
M  V30 3996 H 372.032 1.95404 1.65079 0
M  V30 3997 H 371.676 3.69724 3.48233 0
M  V30 3998 H 371.606 2.39111 4.69184 0
M  V30 3999 H 374.097 2.06568 3.16446 0
M  V30 4000 H 374.41 4.73403 6.10827 0
M  V30 4001 H 372.755 4.25195 5.49759 0
M  V30 4002 H 375.946 2.62887 3.87309 0
M  V30 4003 H 376.119 3.84547 5.21562 0
M  V30 4004 N 369.525 -1.3858 0.750561 0
M  V30 4005 C 370.941 -1.53759 0.427824 0
M  V30 4006 C 371.141 -1.71401 -1.05943 0
M  V30 4007 O 370.197 -1.72331 -1.84549 0
M  V30 4008 C 371.51 -2.74642 1.22443 0
M  V30 4009 C 373.058 -2.88489 1.2142 0
M  V30 4010 C 373.533 -4.12329 1.9937 0
M  V30 4011 N 375.024 -4.194 1.96616 0
M  V30 4012 C 375.759 -5.14209 2.53727 0
M  V30 4013 N 375.255 -6.14709 3.19539 0
M  V30 4014 N 377.048 -5.06537 2.43673 0
M  V30 4015 H 369.199 -1.25377 1.71447 0
M  V30 4016 H 371.462 -0.608844 0.726645 0
M  V30 4017 H 371.168 -2.68 2.27747 0
M  V30 4018 H 371.042 -3.67745 0.839273 0
M  V30 4019 H 373.429 -2.94614 0.169232 0
M  V30 4020 H 373.51 -1.96406 1.63885 0
M  V30 4021 H 373.154 -4.06966 3.03877 0
M  V30 4022 H 373.084 -5.03486 1.54302 0
M  V30 4023 H 375.575 -3.47421 1.48684 0
M  V30 4024 H 375.888 -6.8354 3.60545 0
M  V30 4025 H 374.233 -6.1505 3.23633 0
M  V30 4026 H 377.424 -4.26962 1.91889 0
M  V30 4027 H 377.597 -5.80245 2.88479 0
M  V30 4028 N 371.003 -0.499398 -1.49478 0
M  V30 4029 C 371.933 0.269244 -2.31943 0
M  V30 4030 C 372.914 0.964054 -1.40143 0
M  V30 4031 O 374.099 0.955767 -1.69052 0
M  V30 4032 C 371.229 1.33504 -3.20615 0
M  V30 4033 C 370.183 0.760202 -4.21195 0
M  V30 4034 C 369.509 1.9264 -4.98792 0
M  V30 4035 C 370.809 -0.247661 -5.21712 0
M  V30 4036 H 372.503 -0.419082 -2.96452 0
M  V30 4037 H 370.049 -0.202988 -1.42562 0
M  V30 4038 H 372.002 1.88048 -3.77115 0
M  V30 4039 H 370.726 2.05253 -2.54045 0
M  V30 4040 H 369.385 0.23653 -3.65836 0
M  V30 4041 H 369.033 2.63154 -4.28671 0
M  V30 4042 H 368.733 1.54785 -5.66847 0
M  V30 4043 H 370.257 2.4762 -5.58137 0
M  V30 4044 H 371.671 0.209579 -5.72917 0
M  V30 4045 H 370.068 -0.541962 -5.97648 0
M  V30 4046 H 371.138 -1.16409 -4.7072 0
M  V30 4047 N 372.481 1.55866 -0.233164 0
M  V30 4048 C 373.73 1.97779 0.39579 0
M  V30 4049 C 374.043 1.12419 1.60066 0
M  V30 4050 O 375.249 1.44283 2.29988 0
M  V30 4051 C 373.705 3.5188 0.755556 0
M  V30 4052 C 373.313 4.45959 -0.427152 0
M  V30 4053 C 375.057 4.02479 1.34946 0
M  V30 4054 C 372.964 5.91383 -0.0443043 0
M  V30 4055 H 371.894 0.738592 0.15165 0
M  V30 4056 H 374.545 1.80486 -0.331212 0
M  V30 4057 H 372.927 3.64816 1.5403 0
M  V30 4058 H 374.101 4.44776 -1.20462 0
M  V30 4059 H 372.416 4.05765 -0.935068 0
M  V30 4060 H 375.013 5.08637 1.649 0
M  V30 4061 H 375.356 3.49014 2.26925 0
M  V30 4062 H 375.889 3.92813 0.62791 0
M  V30 4063 H 372.628 6.48857 -0.930874 0
M  V30 4064 H 372.148 5.95734 0.697238 0
M  V30 4065 H 373.827 6.45893 0.378334 0
M  V30 4066 N 373.959 -0.0401083 1.57549 0
M  V30 4067 C 374.906 -1.04413 2.05831 0
M  V30 4068 C 375.876 -1.36585 0.945184 0
M  V30 4069 O 377.061 -1.47112 1.21502 0
M  V30 4070 C 374.201 -2.34336 2.53339 0
M  V30 4071 C 373.314 -2.08419 3.78398 0
M  V30 4072 C 372.449 -3.32133 4.14561 0
M  V30 4073 C 371.488 -3.01721 5.3257 0
M  V30 4074 N 370.625 -4.17855 5.64218 0
M  V30 4075 H 375.465 -0.625442 2.91363 0
M  V30 4076 H 373.002 -0.297218 1.44066 0
M  V30 4077 H 374.96 -3.10234 2.78946 0
M  V30 4078 H 373.59 -2.73948 1.7074 0
M  V30 4079 H 372.642 -1.23069 3.59942 0
M  V30 4080 H 373.954 -1.81978 4.64419 0
M  V30 4081 H 373.108 -4.16406 4.41238 0
M  V30 4082 H 371.847 -3.61678 3.2717 0
M  V30 4083 H 370.852 -2.15849 5.05657 0
M  V30 4084 H 372.077 -2.73466 6.21605 0
M  V30 4085 H 370.023 -4.47372 4.79786 0
M  V30 4086 H 369.94 -3.94798 6.44725 0
M  V30 4087 H 371.208 -5.03033 5.95465 0
M  V30 4088 N 375.437 -1.54477 -0.31217 0
M  V30 4089 C 376.853 -1.45442 -0.657185 0
M  V30 4090 C 377.053 -0.63653 -1.91182 0
M  V30 4091 O 376.109 -0.139815 -2.52113 0
M  V30 4092 C 377.422 -2.89287 -0.82058 0
M  V30 4093 C 378.97 -2.9926 -0.917188 0
M  V30 4094 C 379.445 -4.44279 -1.11267 0
M  V30 4095 N 380.936 -4.4794 -1.17914 0
M  V30 4096 C 381.671 -5.57318 -1.34848 0
M  V30 4097 N 381.167 -6.76642 -1.48752 0
M  V30 4098 N 382.96 -5.44986 -1.37647 0
M  V30 4099 H 375.111 -2.06129 0.512313 0
M  V30 4100 H 377.374 -0.933088 0.167485 0
M  V30 4101 H 377.08 -3.51687 0.0302604 0
M  V30 4102 H 376.954 -3.36061 -1.71298 0
M  V30 4103 H 379.341 -2.36981 -1.75852 0
M  V30 4104 H 379.422 -2.558 -0.00101257 0
M  V30 4105 H 379.066 -5.07149 -0.27614 0
M  V30 4106 H 378.996 -4.85359 -2.04289 0
M  V30 4107 H 381.487 -3.61969 -1.08567 0
M  V30 4108 H 381.8 -7.55758 -1.61397 0
M  V30 4109 H 380.145 -6.79529 -1.45828 0
M  V30 4110 H 383.336 -4.50715 -1.26388 0
M  V30 4111 H 383.509 -6.3028 -1.50501 0
M  V30 4112 N 376.915 0.57481 -1.46744 0
M  V30 4113 C 378.326 1.15695 -1.46532 0
M  V30 4114 C 378.677 1.95068 -0.210425 0
M  V30 4115 O 377.802 2.05241 0.685944 0
M  V30 4116 C 378.397 2.1048 -2.65487 0
M  V30 4117 C 376.956 2.64002 -2.68291 0
M  V30 4118 C 376.103 1.40026 -2.39349 0
M  V30 4119 H 379.054 0.362325 -1.54509 0
M  V30 4120 H 379.075 2.94074 -2.41455 0
M  V30 4121 H 378.587 1.52683 -3.56805 0
M  V30 4122 H 376.688 3.25646 -1.81067 0
M  V30 4123 H 376.801 3.06197 -3.68483 0
M  V30 4124 H 375.165 1.70106 -1.89568 0
M  V30 4125 H 375.948 0.840485 -3.32852 0
M  V30 4126 N 378.394 1.34581 0.820102 0
M  V30 4127 C 379.344 1.22943 1.92013 0
M  V30 4128 C 380.328 0.127802 1.60392 0
M  V30 4129 O 381.52 0.357737 1.73347 0
M  V30 4130 C 378.649 0.989938 3.28717 0
M  V30 4131 C 377.735 2.13486 3.66449 0
M  V30 4132 N 378.126 3.38625 3.75722 0
M  V30 4133 C 376.424 2.04573 3.96315 0
M  V30 4134 C 377.125 4.13832 4.08801 0
M  V30 4135 N 376.101 3.42451 4.22171 0
M  V30 4136 H 379.903 2.17771 1.97365 0
M  V30 4137 H 377.417 1.2686 1.01392 0
M  V30 4138 H 379.414 0.887462 4.07345 0
M  V30 4139 H 378.074 0.0503691 3.24661 0
M  V30 4140 H 379.085 3.73143 3.59144 0
M  V30 4141 H 375.762 1.1839 4.00362 0
M  V30 4142 H 377.152 5.21909 4.23156 0
M  V30 4143 N 379.872 -1.04064 1.18357 0
M  V30 4144 C 381.12 -1.76915 0.977013 0
M  V30 4145 C 381.441 -1.88624 -0.494577 0
M  V30 4146 O 380.711 -1.41125 -1.3587 0
M  V30 4147 H 379.291 -0.65535 0.358504 0
M  V30 4148 H 381.953 -1.25592 1.49039 0
M  V30 4149 H 381.049 -2.78178 1.41504 0
M  V30 4150 N 381.35 -0.985608 -1.22978 0
M  V30 4151 C 382.599 -0.652881 -1.90841 0
M  V30 4152 C 382.912 0.817842 -1.77681 0
M  V30 4153 O 384.118 1.26185 -2.40395 0
M  V30 4154 C 382.574 -1.11717 -3.42122 0
M  V30 4155 C 382.182 -2.6126 -3.63933 0
M  V30 4156 C 383.926 -0.85843 -4.1573 0
M  V30 4157 C 381.833 -3.0133 -5.08876 0
M  V30 4158 H 380.763 -0.240491 -0.714619 0
M  V30 4159 H 383.414 -1.1942 -1.39324 0
M  V30 4160 H 381.796 -0.504027 -3.92779 0
M  V30 4161 H 382.97 -3.27858 -3.23799 0
M  V30 4162 H 381.285 -2.84937 -3.03644 0
M  V30 4163 H 383.882 -1.13359 -5.22546 0
M  V30 4164 H 384.225 0.205461 -4.15793 0
M  V30 4165 H 384.758 -1.43341 -3.71077 0
M  V30 4166 H 381.497 -4.06864 -5.13947 0
M  V30 4167 H 381.017 -2.3943 -5.49939 0
M  V30 4168 H 382.696 -2.92224 -5.77247 0
M  V30 4169 N 382.828 1.3818 -0.7579 0
M  V30 4170 C 384.077 1.99261 -0.312744 0
M  V30 4171 C 384.39 1.60846 1.11301 0
M  V30 4172 O 385.596 2.14929 1.65885 0
M  V30 4173 C 384.052 3.56294 -0.50821 0
M  V30 4174 C 383.66 4.03657 -1.94333 0
M  V30 4175 C 385.404 4.24313 -0.125982 0
M  V30 4176 C 383.311 5.53347 -2.08712 0
M  V30 4177 H 382.241 0.745456 -0.113185 0
M  V30 4178 H 384.892 1.57889 -0.935056 0
M  V30 4179 H 383.274 3.95575 0.183353 0
M  V30 4180 H 384.448 3.75655 -2.66871 0
M  V30 4181 H 382.763 3.48376 -2.28086 0
M  V30 4182 H 385.36 5.34279 -0.212125 0
M  V30 4183 H 385.703 4.05962 0.921964 0
M  V30 4184 H 386.236 3.90285 -0.769563 0
M  V30 4185 H 382.975 5.76607 -3.11777 0
M  V30 4186 H 382.495 5.83078 -1.4064 0
M  V30 4187 H 384.174 6.19111 -1.87912 0
M  V30 4188 N 384.306 0.507319 1.49211 0
M  V30 4189 C 385.236 -0.256939 2.32082 0
M  V30 4190 C 386.217 -0.956609 1.40652 0
M  V30 4191 O 387.402 -0.946788 1.69557 0
M  V30 4192 C 384.532 -1.31802 3.21318 0
M  V30 4193 C 383.486 -0.737855 4.21592 0
M  V30 4194 C 382.812 -1.89992 4.99807 0
M  V30 4195 C 384.112 0.275325 5.21574 0
M  V30 4196 H 385.806 0.434798 2.96226 0
M  V30 4197 H 383.352 0.210546 1.42452 0
M  V30 4198 H 385.305 -1.86045 3.78107 0
M  V30 4199 H 384.029 -2.03903 2.5513 0
M  V30 4200 H 382.688 -0.217126 3.65956 0
M  V30 4201 H 382.336 -2.60877 4.30061 0
M  V30 4202 H 382.036 -1.51777 5.6766 0
M  V30 4203 H 383.56 -2.44657 5.59442 0
M  V30 4204 H 384.974 -0.179193 5.7302 0
M  V30 4205 H 383.371 0.573649 5.97352 0
M  V30 4206 H 384.441 1.18903 4.70096 0
M  V30 4207 N 385.784 -1.5574 0.241426 0
M  V30 4208 C 387.03 -1.99104 -0.385406 0
M  V30 4209 C 387.363 -1.1293 -1.57988 0
M  V30 4210 O 386.638 -0.191449 -1.93555 0
M  V30 4211 C 386.921 -3.51087 -0.800616 0
M  V30 4212 C 386.774 -4.48028 0.398874 0
M  V30 4213 C 388.093 -4.08015 -1.64959 0
M  V30 4214 H 385.212 -0.723848 -0.138614 0
M  V30 4215 H 387.854 -1.86903 0.341642 0
M  V30 4216 H 386.004 -3.61615 -1.4201 0
M  V30 4217 H 387.676 -4.49487 1.03726 0
M  V30 4218 H 385.919 -4.21077 1.04293 0
M  V30 4219 H 386.59 -5.51962 0.0651056 0
M  V30 4220 H 389.066 -4.00555 -1.12672 0
M  V30 4221 H 387.942 -5.14635 -1.90898 0
M  V30 4222 H 388.203 -3.56131 -2.61961 0
M  V30 4223 N 387.262 0.0317525 -1.57568 0
M  V30 4224 C 388.49 0.734949 -1.93407 0
M  V30 4225 C 388.905 1.69036 -0.84096 0
M  V30 4226 O 388.262 1.81582 0.182836 0
M  V30 4227 C 388.313 1.49432 -3.29169 0
M  V30 4228 O 388.034 0.577261 -4.3428 0
M  V30 4229 C 389.535 2.29492 -3.79273 0
M  V30 4230 H 386.755 0.206706 -0.638368 0
M  V30 4231 H 389.299 -0.00992046 -2.04498 0
M  V30 4232 H 387.454 2.1911 -3.19483 0
M  V30 4233 H 387.868 1.10952 -5.1263 0
M  V30 4234 H 389.342 2.78172 -4.76785 0
M  V30 4235 H 389.819 3.10794 -3.10328 0
M  V30 4236 H 390.425 1.64894 -3.92033 0
M  V30 4237 N 388.74 1.54641 0.303973 0
M  V30 4238 C 389.988 1.73437 1.0375 0
M  V30 4239 C 390.309 0.521449 1.87899 0
M  V30 4240 O 389.579 -0.46432 1.90318 0
M  V30 4241 H 388.159 0.639518 0.386039 0
M  V30 4242 H 390.821 1.91988 0.335675 0
M  V30 4243 H 389.917 2.62235 1.69231 0
M  V30 4244 N 390.218 -0.567019 1.47046 0
M  V30 4245 C 391.629 -1.14916 1.47143 0
M  V30 4246 C 391.98 -1.94954 0.220767 0
M  V30 4247 O 391.105 -2.05602 -0.67505 0
M  V30 4248 C 391.7 -2.09069 2.666 0
M  V30 4249 C 390.259 -2.62575 2.69687 0
M  V30 4250 C 389.406 -1.38755 2.40088 0
M  V30 4251 H 392.357 -0.354126 1.54699 0
M  V30 4252 H 392.378 -2.92789 2.43011 0
M  V30 4253 H 391.89 -1.50789 3.57609 0
M  V30 4254 H 389.991 -3.24681 1.82792 0
M  V30 4255 H 390.104 -3.04239 3.70102 0
M  V30 4256 H 388.468 -1.69098 1.90468 0
M  V30 4257 H 389.251 -0.822822 3.33293 0
M  V30 4258 N 391.696 -1.35014 -0.812953 0
M  V30 4259 C 392.924 -1.31031 -1.6012 0
M  V30 4260 C 393.339 0.113558 -1.88458 0
M  V30 4261 O 392.696 1.06363 -1.48301 0
M  V30 4262 C 392.747 -2.10872 -2.93624 0
M  V30 4263 O 392.468 -3.47706 -2.66518 0
M  V30 4264 C 393.969 -2.14401 -3.88004 0
M  V30 4265 H 391.189 -0.45037 -0.497401 0
M  V30 4266 H 393.733 -1.77775 -1.01076 0
M  V30 4267 H 391.888 -1.67744 -3.492 0
M  V30 4268 H 392.302 -3.89097 -3.51715 0
M  V30 4269 H 393.776 -2.74669 -4.78812 0
M  V30 4270 H 394.253 -1.14105 -4.24119 0
M  V30 4271 H 394.859 -2.57662 -3.38364 0
M  V30 4272 N 393.175 1.03435 -1.18907 0
M  V30 4273 C 394.423 1.76394 -0.986382 0
M  V30 4274 C 394.744 1.88883 0.484567 0
M  V30 4275 O 394.014 1.41843 1.3512 0
M  V30 4276 H 392.594 0.65344 -0.361975 0
M  V30 4277 H 395.256 1.248 -1.49703 0
M  V30 4278 H 394.352 2.77424 -1.42978 0
M  V30 4279 N 394.653 0.992116 1.22453 0
M  V30 4280 C 395.878 0.685644 1.95739 0
M  V30 4281 C 396.303 -0.743 1.72804 0
M  V30 4282 O 395.661 -1.50778 1.00676 0
M  V30 4283 C 395.709 0.996293 3.46564 0
M  V30 4284 O 394.813 0.0945512 4.12292 0
M  V30 4285 H 394.154 0.256694 0.612376 0
M  V30 4286 H 396.684 1.32888 1.5557 0
M  V30 4287 H 396.694 0.93781 3.97076 0
M  V30 4288 H 395.369 2.03733 3.62582 0
M  V30 4289 H 393.946 0.208451 3.72317 0
M  V30 4290 N 396.131 -1.37776 0.765217 0
M  V30 4291 C 397.379 -1.99454 0.325943 0
M  V30 4292 C 397.7 -1.61049 -1.09947 0
M  V30 4293 O 396.97 -0.872821 -1.75381 0
M  V30 4294 H 395.55 -0.737697 0.117525 0
M  V30 4295 H 398.212 -1.68359 0.981895 0
M  V30 4296 H 397.308 -3.09547 0.398353 0
M  V30 4297 N 397.609 -0.515225 -1.4894 0
M  V30 4298 C 398.556 0.255567 -2.29381 0
M  V30 4299 C 399.526 0.947387 -1.36432 0
M  V30 4300 O 400.711 0.951288 -1.65394 0
M  V30 4301 C 397.851 1.30551 -3.19453 0
M  V30 4302 C 396.964 0.624029 -4.27469 0
M  V30 4303 C 396.099 1.65563 -5.0474 0
M  V30 4304 C 395.138 0.956802 -6.04576 0
M  V30 4305 N 394.275 1.93326 -6.74959 0
M  V30 4306 H 399.115 -0.436607 -2.94784 0
M  V30 4307 H 396.652 -0.227154 -1.45336 0
M  V30 4308 H 398.61 1.92639 -3.70062 0
M  V30 4309 H 397.24 1.96626 -2.56004 0
M  V30 4310 H 396.292 -0.110459 -3.8024 0
M  V30 4311 H 397.604 0.0746092 -4.98744 0
M  V30 4312 H 396.758 2.35119 -5.59289 0
M  V30 4313 H 395.497 2.23893 -4.3327 0
M  V30 4314 H 394.502 0.247097 -5.49244 0
M  V30 4315 H 395.727 0.379814 -6.78037 0
M  V30 4316 H 393.673 2.50591 -6.06251 0
M  V30 4317 H 393.59 1.43489 -7.42258 0
M  V30 4318 H 394.858 2.62126 -7.34105 0
M  V30 4319 N 399.087 1.5561 -0.249682 0
M  V30 4320 C 400.312 2.03865 0.381305 0
M  V30 4321 C 400.737 1.12769 1.50548 0
M  V30 4322 O 400.095 0.121189 1.80895 0
M  V30 4323 C 400.143 3.50101 0.863816 0
M  V30 4324 O 399.247 3.62132 1.97318 0
M  V30 4325 H 398.588 0.658827 0.0827194 0
M  V30 4326 H 401.118 2.01105 -0.376552 0
M  V30 4327 H 401.128 3.90975 1.1663 0
M  V30 4328 H 399.803 4.1588 0.0411816 0
M  V30 4329 H 398.38 3.33155 1.67517 0
M  V30 4330 N 400.565 -0.0233959 1.57583 0
M  V30 4331 C 401.793 -0.724682 1.93794 0
M  V30 4332 C 402.208 -1.68588 0.849912 0
M  V30 4333 O 401.565 -1.81676 -0.173204 0
M  V30 4334 C 401.616 -1.47684 3.29957 0
M  V30 4335 O 401.337 -0.554222 4.3458 0
M  V30 4336 C 402.838 -2.27477 3.80485 0
M  V30 4337 H 400.058 -0.203317 0.639455 0
M  V30 4338 H 402.602 0.0207653 2.04489 0
M  V30 4339 H 400.757 -2.17412 3.20641 0
M  V30 4340 H 401.171 -1.08232 5.13212 0
M  V30 4341 H 402.645 -2.7564 4.78254 0
M  V30 4342 H 403.122 -3.09144 3.11972 0
M  V30 4343 H 403.728 -1.62813 3.92902 0
M  V30 4344 N 402.043 -1.548 -0.295768 0
M  V30 4345 C 403.271 -1.78327 -1.04914 0
M  V30 4346 C 403.686 -0.545316 -1.80753 0
M  V30 4347 O 403.043 0.485013 -1.75937 0
M  V30 4348 C 403.094 -2.99418 -2.02561 0
M  V30 4349 O 402.815 -4.18431 -1.29798 0
M  V30 4350 C 404.316 -3.35375 -2.89895 0
M  V30 4351 H 401.536 -0.594618 -0.310918 0
M  V30 4352 H 404.08 -2.01763 -0.333454 0
M  V30 4353 H 402.235 -2.78175 -2.69624 0
M  V30 4354 H 402.649 -4.86736 -1.95419 0
M  V30 4355 H 404.123 -4.23332 -3.54251 0
M  V30 4356 H 404.6 -2.53761 -3.58472 0
M  V30 4357 H 405.206 -3.58796 -2.28355 0
M  V30 4358 N 403.521 0.559213 -1.47345 0
M  V30 4359 C 404.451 1.67622 -1.62558 0
M  V30 4360 C 405.432 1.63331 -0.475087 0
M  V30 4361 O 406.617 1.80983 -0.704182 0
M  V30 4362 C 403.747 3.0626 -1.63774 0
M  V30 4363 C 402.701 3.25397 -2.7803 0
M  V30 4364 C 402.027 4.64801 -2.64318 0
M  V30 4365 C 403.327 3.10965 -4.19641 0
M  V30 4366 H 405.021 1.55146 -2.56067 0
M  V30 4367 H 402.567 0.744961 -1.23233 0
M  V30 4368 H 404.52 3.84247 -1.73008 0
M  V30 4369 H 403.244 3.1969 -0.66825 0
M  V30 4370 H 401.903 2.49817 -2.68304 0
M  V30 4371 H 401.551 4.75028 -1.65401 0
M  V30 4372 H 401.251 4.78555 -3.40968 0
M  V30 4373 H 402.775 5.44926 -2.75478 0
M  V30 4374 H 404.189 3.78772 -4.30354 0
M  V30 4375 H 402.586 3.36229 -4.97062 0
M  V30 4376 H 403.656 2.07736 -4.38148 0
M  V30 4377 N 404.999 1.35443 0.805782 0
M  V30 4378 C 406.229 1.31687 1.59192 0
M  V30 4379 C 406.637 -0.10756 1.88894 0
M  V30 4380 O 405.98 -1.07017 1.49309 0
M  V30 4381 C 406.042 2.05686 2.94845 0
M  V30 4382 C 405.706 3.54868 2.87954 0
M  V30 4383 C 406.703 4.49444 2.61335 0
M  V30 4384 C 404.388 3.97528 3.07046 0
M  V30 4385 C 406.382 5.84655 2.53885 0
M  V30 4386 C 404.069 5.32833 2.99219 0
M  V30 4387 C 405.067 6.26209 2.72674 0
M  V30 4388 O 404.755 7.59032 2.64811 0
M  V30 4389 H 404.487 0.453878 0.50097 0
M  V30 4390 H 407.041 1.78892 1.0093 0
M  V30 4391 H 405.271 1.5312 3.55093 0
M  V30 4392 H 406.96 1.94998 3.55993 0
M  V30 4393 H 407.726 4.17804 2.46303 0
M  V30 4394 H 403.605 3.25233 3.26718 0
M  V30 4395 H 407.149 6.57508 2.33086 0
M  V30 4396 H 403.046 5.64087 3.13809 0
M  V30 4397 H 403.814 7.68967 2.80413 0
M  V30 4398 N 406.477 -1.02803 1.19454 0
M  V30 4399 C 407.44 -2.09264 0.934955 0
M  V30 4400 C 408.44 -1.60576 -0.0849015 0
M  V30 4401 O 409.63 -1.73554 0.149933 0
M  V30 4402 C 406.762 -3.38482 0.40531 0
M  V30 4403 H 407.955 -2.33726 1.87916 0
M  V30 4404 H 405.508 -1.19426 1.00832 0
M  V30 4405 H 406.243 -3.19689 -0.544899 0
M  V30 4406 H 406.028 -3.75142 1.14065 0
M  V30 4407 H 407.518 -4.16894 0.242806 0
M  V30 4408 N 407.956 -0.998596 -1.21925 0
M  V30 4409 C 409.204 -0.676325 -1.90448 0
M  V30 4410 C 409.525 0.794719 -1.78071 0
M  V30 4411 O 408.795 1.5701 -1.17152 0
M  V30 4412 H 407.375 -0.247165 -0.704925 0
M  V30 4413 H 410.037 -1.26633 -1.48156 0
M  V30 4414 H 409.133 -0.943858 -2.97486 0
M  V30 4415 N 409.434 1.37368 -0.772513 0
M  V30 4416 C 410.364 2.32856 -0.173304 0
M  V30 4417 C 411.345 1.55818 0.682262 0
M  V30 4418 O 412.53 1.84052 0.619566 0
M  V30 4419 C 409.66 3.40048 0.706007 0
M  V30 4420 C 408.614 4.27973 -0.0483144 0
M  V30 4421 C 407.94 5.26184 0.950491 0
M  V30 4422 C 409.24 5.07665 -1.22776 0
M  V30 4423 H 410.934 2.83217 -0.971002 0
M  V30 4424 H 408.48 1.3617 -0.468377 0
M  V30 4425 H 410.433 4.05827 1.13501 0
M  V30 4426 H 409.157 2.88214 1.53623 0
M  V30 4427 H 407.816 3.63726 -0.458107 0
M  V30 4428 H 407.464 4.7063 1.77529 0
M  V30 4429 H 407.164 5.85872 0.450314 0
M  V30 4430 H 408.688 5.94838 1.37842 0
M  V30 4431 H 410.102 5.66578 -0.875366 0
M  V30 4432 H 408.499 5.76681 -1.66007 0
M  V30 4433 H 409.569 4.40294 -2.03149 0
M  V30 4434 N 410.912 0.523116 1.48665 0
M  V30 4435 C 411.844 -0.280421 2.27478 0
M  V30 4436 C 412.857 -0.910694 1.34945 0
M  V30 4437 O 414.046 -0.790295 1.60052 0
M  V30 4438 C 411.146 -1.41171 3.08097 0
M  V30 4439 C 410.319 -0.884642 4.28361 0
M  V30 4440 C 409.378 -1.89622 4.90846 0
M  V30 4441 O 408.404 -1.4559 5.50265 0
M  V30 4442 N 409.606 -3.22801 4.82472 0
M  V30 4443 H 412.371 0.395481 2.97079 0
M  V30 4444 H 409.932 0.357018 1.57915 0
M  V30 4445 H 411.924 -2.08645 3.4677 0
M  V30 4446 H 410.494 -1.99139 2.40961 0
M  V30 4447 H 409.714 -0.0341177 3.94185 0
M  V30 4448 H 411.002 -0.511268 5.06225 0
M  V30 4449 H 410.4 -3.61246 4.35336 0
M  V30 4450 H 408.957 -3.85927 5.25265 0
M  V30 4451 N 412.39 -1.55475 0.257931 0
M  V30 4452 C 413.3 -2.2549 -0.647425 0
M  V30 4453 C 414.316 -1.2748 -1.18427 0
M  V30 4454 O 415.492 -1.6038 -1.2182 0
M  V30 4455 C 412.557 -2.94916 -1.82278 0
M  V30 4456 C 411.618 -4.08363 -1.32432 0
M  V30 4457 C 410.851 -4.74469 -2.44366 0
M  V30 4458 O 411.074 -4.39701 -3.63344 0
M  V30 4459 O 410.008 -5.62763 -2.13497 0
M  V30 4460 H 413.834 -3.03593 -0.0807707 0
M  V30 4461 H 411.419 -1.49377 0.0259962 0
M  V30 4462 H 413.301 -3.38606 -2.50846 0
M  V30 4463 H 411.976 -2.19744 -2.37685 0
M  V30 4464 H 410.883 -3.69166 -0.605605 0
M  V30 4465 H 412.216 -4.85385 -0.816211 0
M  V30 4466 N 413.868 0.0150385 -1.57593 0
M  V30 4467 C 414.798 1.01047 -2.10503 0
M  V30 4468 C 415.779 1.36816 -1.01071 0
M  V30 4469 O 416.964 1.45455 -1.28672 0
M  V30 4470 C 414.094 2.30708 -2.59598 0
M  V30 4471 C 413.048 2.09142 -3.73421 0
M  V30 4472 C 412.374 3.44685 -4.08774 0
M  V30 4473 C 413.674 1.46619 -5.01298 0
M  V30 4474 H 415.368 0.569978 -2.93925 0
M  V30 4475 H 412.914 0.272724 -1.41394 0
M  V30 4476 H 414.867 3.00687 -2.95238 0
M  V30 4477 H 413.591 2.76843 -1.73279 0
M  V30 4478 H 412.25 1.41592 -3.38153 0
M  V30 4479 H 411.898 3.88495 -3.195 0
M  V30 4480 H 411.598 3.31077 -4.8545 0
M  V30 4481 H 413.122 4.16004 -4.4696 0
M  V30 4482 H 414.536 2.06535 -5.34805 0
M  V30 4483 H 412.933 1.43544 -5.82679 0
M  V30 4484 H 414.003 0.433611 -4.82957 0
M  V30 4485 N 415.346 1.54954 0.287554 0
M  V30 4486 C 416.294 1.87606 1.37502 0
M  V30 4487 C 417.288 0.751001 1.51843 0
M  V30 4488 O 418.494 0.935169 1.53801 0
M  V30 4489 H 414.869 0.595231 0.459569 0
M  V30 4490 H 416.84 2.78477 1.07206 0
M  V30 4491 C 415.589 2.15183 2.73115 0
M  V30 4492 H 414.912 3.01234 2.62866 0
M  V30 4493 H 416.352 2.4196 3.48183 0
M  V30 4494 C 414.811 0.954686 3.2309 0
M  V30 4495 O 415.341 0.181949 4.01288 0
M  V30 4496 N 413.547 0.756368 2.80584 0
M  V30 4497 H 413.094 1.38643 2.17108 0
M  V30 4498 H 413.052 -0.0430391 3.14371 0
M  V30 4499 N 416.824 -0.551391 1.4764 0
M  V30 4500 C 418.049 -1.33837 1.58437 0
M  V30 4501 C 418.474 -1.866 0.237063 0
M  V30 4502 O 417.832 -1.6328 -0.787994 0
M  V30 4503 C 417.88 -2.48014 2.61766 0
M  V30 4504 O 416.984 -3.50419 2.1744 0
M  V30 4505 H 416.325 -0.397299 0.532024 0
M  V30 4506 H 418.855 -0.665759 1.93465 0
M  V30 4507 H 418.865 -2.94503 2.82369 0
M  V30 4508 H 417.54 -2.08969 3.5959 0
M  V30 4509 H 416.117 -3.10196 2.06961 0
M  V30 4510 N 418.302 -1.35869 -0.798587 0
M  V30 4511 C 419.527 -1.32883 -1.59238 0
M  V30 4512 C 419.952 0.0894587 -1.87887 0
M  V30 4513 O 419.31 1.05869 -1.47178 0
M  V30 4514 C 419.358 -2.14892 -2.89575 0
M  V30 4515 O 418.462 -1.53512 -3.82763 0
M  V30 4516 H 417.803 -0.455236 -0.48338 0
M  V30 4517 H 420.333 -1.79024 -0.990539 0
M  V30 4518 H 420.343 -2.27139 -3.38928 0
M  V30 4519 H 419.018 -3.17998 -2.68049 0
M  V30 4520 H 417.595 -1.50153 -3.41334 0
M  V30 4521 N 419.78 1.02168 -1.19998 0
M  V30 4522 C 420.69 2.14069 -0.959774 0
M  V30 4523 C 421.706 1.73804 0.082655 0
M  V30 4524 O 422.882 2.01133 -0.103633 0
M  V30 4525 C 419.947 3.42936 -0.509459 0
M  V30 4526 C 419.008 3.97474 -1.62213 0
M  V30 4527 C 418.241 5.2019 -1.19321 0
M  V30 4528 O 418.464 5.70369 -0.0597726 0
M  V30 4529 O 417.398 5.67749 -1.99863 0
M  V30 4530 H 421.224 2.37199 -1.89658 0
M  V30 4531 H 418.809 1.12469 -0.983411 0
M  V30 4532 H 420.691 4.20551 -0.267322 0
M  V30 4533 H 419.366 3.21234 0.398821 0
M  V30 4534 H 418.273 3.21161 -1.9185 0
M  V30 4535 H 419.606 4.23555 -2.50723 0
M  V30 4536 N 421.258 1.00505 1.21394 0
M  V30 4537 C 422.674 0.717873 1.42544 0
M  V30 4538 C 422.874 -0.706936 1.88692 0
M  V30 4539 O 421.93 -1.47627 2.04847 0
M  V30 4540 C 423.243 1.73377 2.45684 0
M  V30 4541 C 424.791 1.75059 2.59467 0
M  V30 4542 C 425.266 2.75545 3.6584 0
M  V30 4543 N 426.757 2.74213 3.73311 0
M  V30 4544 C 427.492 3.48626 4.55245 0
M  V30 4545 N 426.988 4.32678 5.41075 0
M  V30 4546 N 428.781 3.37276 4.49668 0
M  V30 4547 H 420.932 1.92506 0.897503 0
M  V30 4548 H 423.195 0.830919 0.456375 0
M  V30 4549 H 422.901 2.75395 2.18748 0
M  V30 4550 H 422.775 1.53647 3.44489 0
M  V30 4551 H 425.162 0.737337 2.8574 0
M  V30 4552 H 425.243 1.98861 1.60897 0
M  V30 4553 H 424.887 3.77028 3.40313 0
M  V30 4554 H 424.817 2.49009 4.64007 0
M  V30 4555 H 427.308 2.13234 3.11993 0
M  V30 4556 H 427.621 4.86253 6.00648 0
M  V30 4557 H 425.966 4.3676 5.40616 0
M  V30 4558 H 429.157 2.71043 3.81646 0
M  V30 4559 H 429.33 3.95524 5.13288 0
M  V30 4560 N 422.737 -1.36956 0.779787 0
M  V30 4561 C 423.685 -2.32053 0.15942 0
M  V30 4562 C 424.679 -1.55333 -0.675878 0
M  V30 4563 O 425.885 -1.70668 -0.57204 0
M  V30 4564 H 422.26 -0.751286 0.0327707 0
M  V30 4565 H 424.231 -2.8195 0.977078 0
M  V30 4566 C 422.98 -3.40602 -0.698977 0
M  V30 4567 H 422.303 -3.99746 -0.0655966 0
M  V30 4568 H 423.743 -4.09486 -1.09989 0
M  V30 4569 C 422.202 -2.81359 -1.85307 0
M  V30 4570 O 422.732 -2.72751 -2.94906 0
M  V30 4571 N 420.938 -2.38786 -1.65619 0
M  V30 4572 H 420.485 -2.45987 -0.764725 0
M  V30 4573 H 420.443 -1.99493 -2.43002 0
M  V30 4574 N 424.215 -0.530993 -1.48385 0
M  V30 4575 C 425.464 0.00474348 -2.01699 0
M  V30 4576 C 425.777 1.35227 -1.41325 0
M  V30 4577 O 426.983 1.97643 -1.86144 0
M  V30 4578 C 425.439 0.0588473 -3.59852 0
M  V30 4579 C 425.047 -1.28385 -4.2921 0
M  V30 4580 C 426.791 0.543358 -4.21008 0
M  V30 4581 C 424.698 -1.19028 -5.79298 0
M  V30 4582 H 423.628 0.00554317 -0.75398 0
M  V30 4583 H 426.279 -0.674924 -1.70637 0
M  V30 4584 H 424.661 0.803612 -3.8776 0
M  V30 4585 H 425.835 -2.04426 -4.12973 0
M  V30 4586 H 424.15 -1.70418 -3.7993 0
M  V30 4587 H 426.747 0.631351 -5.3096 0
M  V30 4588 H 427.09 1.54937 -3.86394 0
M  V30 4589 H 427.623 -0.145754 -3.97533 0
M  V30 4590 H 424.362 -2.17147 -6.18488 0
M  V30 4591 H 423.882 -0.471246 -5.97946 0
M  V30 4592 H 425.561 -0.881365 -6.40969 0
M  V30 4593 N 425.693 1.55336 -0.266172 0
M  V30 4594 C 426.623 2.25146 0.618981 0
M  V30 4595 C 427.604 1.23845 1.16604 0
M  V30 4596 O 428.789 1.52544 1.20183 0
M  V30 4597 C 425.919 2.96572 1.80728 0
M  V30 4598 C 424.873 4.04726 1.39215 0
M  V30 4599 C 424.199 4.63678 2.66283 0
M  V30 4600 C 425.499 5.19407 0.548942 0
M  V30 4601 H 427.193 2.99377 0.0368116 0
M  V30 4602 H 424.739 1.43991 0.0162651 0
M  V30 4603 H 426.692 3.44116 2.43232 0
M  V30 4604 H 425.416 2.19861 2.41514 0
M  V30 4605 H 424.075 3.57979 0.790351 0
M  V30 4606 H 423.723 3.83646 3.25308 0
M  V30 4607 H 423.423 5.367 2.39222 0
M  V30 4608 H 424.947 5.13967 3.29651 0
M  V30 4609 H 426.361 5.63059 1.07876 0
M  V30 4610 H 424.758 5.98936 0.373593 0
M  V30 4611 H 425.828 4.8295 -0.434394 0
M  V30 4612 N 427.171 -0.0066808 1.57599 0
M  V30 4613 C 428.399 -0.704087 1.94551 0
M  V30 4614 C 428.814 -1.67677 0.867746 0
M  V30 4615 O 428.171 -1.8185 -0.153925 0
M  V30 4616 C 428.222 -1.44177 3.31505 0
M  V30 4617 O 427.943 -0.508097 4.35144 0
M  V30 4618 C 429.444 -2.23429 3.82876 0
M  V30 4619 H 426.664 -0.196523 0.641576 0
M  V30 4620 H 429.208 0.042453 2.04456 0
M  V30 4621 H 427.363 -2.13999 3.22929 0
M  V30 4622 H 427.777 -1.02782 5.14331 0
M  V30 4623 H 429.251 -2.70552 4.8115 0
M  V30 4624 H 429.728 -3.05818 3.15233 0
M  V30 4625 H 430.334 -1.58636 3.94607 0
M  V30 4626 N 428.649 -1.55105 -0.279332 0
M  V30 4627 C 429.895 -1.75672 -1.01327 0
M  V30 4628 C 430.228 -0.552739 -1.86168 0
M  V30 4629 O 429.503 0.449827 -1.89227 0
M  V30 4630 C 429.786 -3.05825 -1.90114 0
M  V30 4631 C 429.639 -4.36565 -1.08309 0
M  V30 4632 C 430.958 -3.31975 -2.8893 0
M  V30 4633 H 428.077 -0.639149 -0.366957 0
M  V30 4634 H 430.719 -1.87833 -0.286154 0
M  V30 4635 H 428.869 -2.95588 -2.52111 0
M  V30 4636 H 430.541 -4.58751 -0.484314 0
M  V30 4637 H 428.784 -4.32076 -0.386362 0
M  V30 4638 H 429.455 -5.23946 -1.73737 0
M  V30 4639 H 431.931 -3.41963 -2.37067 0
M  V30 4640 H 430.807 -4.2432 -3.48201 0
M  V30 4641 H 431.068 -2.51309 -3.63725 0
M  V30 4642 N 430.127 0.543554 -1.4793 0
M  V30 4643 C 431.037 1.67657 -1.64098 0
M  V30 4644 C 432.053 1.65934 -0.523622 0
M  V30 4645 O 433.229 1.85133 -0.792943 0
M  V30 4646 C 430.294 3.04146 -1.66421 0
M  V30 4647 C 429.355 3.16831 -2.89684 0
M  V30 4648 C 428.588 4.46809 -2.91886 0
M  V30 4649 O 428.811 5.33095 -2.02895 0
M  V30 4650 O 427.745 4.63573 -3.83906 0
M  V30 4651 H 431.571 1.56957 -2.59997 0
M  V30 4652 H 429.156 0.715116 -1.31173 0
M  V30 4653 H 431.038 3.85346 -1.70548 0
M  V30 4654 H 429.713 3.152 -0.736923 0
M  V30 4655 H 428.62 2.34977 -2.91095 0
M  V30 4656 H 429.953 3.10687 -3.81752 0
M  V30 4657 N 431.605 1.3629 0.791371 0
M  V30 4658 C 432.882 1.20962 1.53712 0
M  V30 4659 C 433.262 -0.205021 2.10102 0
M  V30 4660 O 432.61 -1.21042 1.93807 0
M  V30 4661 C 432.82 2.29002 2.63361 0
M  V30 4662 C 434.168 2.65572 3.31295 0
M  V30 4663 O 435.192 2.2803 2.73643 0
M  V30 4664 O 434.051 3.3018 4.35481 0
M  V30 4665 H 431.145 0.47086 0.679867 0
M  V30 4666 H 433.691 1.48016 0.830021 0
M  V30 4667 H 432.463 3.2382 2.19674 0
M  V30 4668 H 432.086 2.03303 3.41692 0
M  V30 4669 N 433.083 -1.0153 1.20538 0
M  V30 4670 C 434.494 -1.56598 1.01657 0
M  V30 4671 C 434.845 -1.91505 -0.426668 0
M  V30 4672 O 433.97 -1.72375 -1.30827 0
M  V30 4673 C 434.565 -2.84542 1.83905 0
M  V30 4674 C 433.124 -3.36133 1.69386 0
M  V30 4675 C 432.271 -2.09427 1.81757 0
M  V30 4676 H 435.222 -0.838974 1.34711 0
M  V30 4677 H 435.243 -3.56004 1.34319 0
M  V30 4678 H 434.755 -2.59105 2.8894 0
M  V30 4679 H 432.856 -3.66528 0.669933 0
M  V30 4680 H 432.969 -4.08248 2.50739 0
M  V30 4681 H 431.333 -2.21941 1.24957 0
M  V30 4682 H 432.116 -1.86414 2.88279 0
M  V30 4683 N 434.561 -1.01147 -1.20859 0
M  V30 4684 C 435.81 -0.693214 -1.89413 0
M  V30 4685 C 436.123 0.779969 -1.79376 0
M  V30 4686 O 437.329 1.21057 -2.43017 0
M  V30 4687 C 435.785 -1.18949 -3.39675 0
M  V30 4688 C 435.393 -2.68921 -3.58309 0
M  V30 4689 C 437.137 -0.94642 -4.13815 0
M  V30 4690 C 435.044 -3.12056 -5.0237 0
M  V30 4691 H 433.974 -0.255595 -0.709357 0
M  V30 4692 H 436.625 -1.22349 -1.36759 0
M  V30 4693 H 435.007 -0.587228 -3.91622 0
M  V30 4694 H 436.181 -3.34652 -3.16772 0
M  V30 4695 H 434.496 -2.91314 -2.97532 0
M  V30 4696 H 437.093 -1.24417 -5.20023 0
M  V30 4697 H 437.436 0.117219 -4.16135 0
M  V30 4698 H 437.969 -1.5118 -3.67953 0
M  V30 4699 H 434.708 -4.17674 -5.05202 0
M  V30 4700 H 434.228 -2.51041 -5.44737 0
M  V30 4701 H 435.907 -3.04403 -5.70918 0
M  V30 4702 N 436.039 1.36541 -0.78704 0
M  V30 4703 C 436.949 2.3387 -0.184896 0
M  V30 4704 C 437.965 1.60927 0.661697 0
M  V30 4705 O 439.141 1.92927 0.57804 0
M  V30 4706 C 436.206 3.40122 0.672145 0
M  V30 4707 C 435.267 4.28867 -0.19267 0
M  V30 4708 C 434.5 5.30045 0.623561 0
M  V30 4709 O 434.723 5.39232 1.8597 0
M  V30 4710 O 433.657 6.01895 0.0247068 0
M  V30 4711 H 437.483 2.87126 -0.989562 0
M  V30 4712 H 435.068 1.38969 -0.548455 0
M  V30 4713 H 436.95 4.05093 1.16094 0
M  V30 4714 H 435.625 2.89169 1.45474 0
M  V30 4715 H 434.532 3.66945 -0.728166 0
M  V30 4716 H 435.865 4.83165 -0.938722 0
M  V30 4717 N 437.518 0.538854 1.48102 0
M  V30 4718 C 438.765 0.0080018 2.02498 0
M  V30 4719 C 439.093 -1.33437 1.41509 0
M  V30 4720 O 438.348 -1.87709 0.553507 0
M  V30 4721 C 438.647 -0.153808 3.57069 0
M  V30 4722 C 438.313 1.11533 4.36888 0
M  V30 4723 C 436.975 1.46314 4.58417 0
M  V30 4724 C 439.327 1.95718 4.83057 0
M  V30 4725 C 436.655 2.6516 5.23361 0
M  V30 4726 C 439.007 3.13751 5.49312 0
M  V30 4727 C 437.671 3.48866 5.69077 0
M  V30 4728 H 436.941 0.00292807 0.740994 0
M  V30 4729 H 439.588 0.706668 1.77984 0
M  V30 4730 H 437.893 -0.935309 3.80472 0
M  V30 4731 H 439.59 -0.579607 3.96789 0
M  V30 4732 H 436.18 0.834484 4.20398 0
M  V30 4733 H 440.364 1.70158 4.66219 0
M  V30 4734 H 435.62 2.92558 5.36861 0
M  V30 4735 H 439.794 3.79282 5.84053 0
M  V30 4736 H 437.421 4.41054 6.19173 0
M  V30 4737 N 438.996 -1.55193 0.274407 0
M  V30 4738 C 440.273 -1.91584 -0.394331 0
M  V30 4739 C 440.653 -1.19858 -1.73774 0
M  V30 4740 O 440.001 -0.3252 -2.26174 0
M  V30 4741 C 440.211 -3.4487 -0.535311 0
M  V30 4742 C 441.559 -4.16636 -0.818534 0
M  V30 4743 O 442.583 -3.5076 -0.620146 0
M  V30 4744 O 441.442 -5.33209 -1.19792 0
M  V30 4745 H 438.536 -0.798349 -0.215794 0
M  V30 4746 H 441.082 -1.66646 0.320507 0
M  V30 4747 H 439.854 -3.89145 0.410141 0
M  V30 4748 H 439.477 -3.75759 -1.29964 0
M  V30 4749 N 440.474 -0.00167713 -1.576 0
M  V30 4750 C 441.723 0.682021 -1.89819 0
M  V30 4751 C 442.036 1.74844 -0.876871 0
M  V30 4752 O 443.242 2.48688 -1.08934 0
M  V30 4753 C 441.698 1.26425 -3.36964 0
M  V30 4754 C 441.306 0.232568 -4.47396 0
M  V30 4755 C 443.05 1.92604 -3.78291 0
M  V30 4756 C 440.957 0.824882 -5.85619 0
M  V30 4757 H 439.887 0.258499 -0.708304 0
M  V30 4758 H 442.538 -0.0624957 -1.83394 0
M  V30 4759 H 440.92 2.05949 -3.38232 0
M  V30 4760 H 442.094 -0.5382 -4.57646 0
M  V30 4761 H 440.409 -0.32888 -4.15099 0
M  V30 4762 H 443.006 2.37827 -4.78897 0
M  V30 4763 H 443.349 2.75732 -3.11894 0
M  V30 4764 H 443.882 1.19812 -3.79328 0
M  V30 4765 H 440.621 0.0323542 -6.55492 0
M  V30 4766 H 440.141 1.56477 -5.79029 0
M  V30 4767 H 441.82 1.32301 -6.33329 0
M  V30 4768 N 441.952 1.55251 0.271103 0
M  V30 4769 C 443.229 1.66664 1.02384 0
M  V30 4770 C 443.609 0.534363 2.04225 0
M  V30 4771 O 442.957 -0.465337 2.23712 0
M  V30 4772 C 443.167 3.05961 1.67895 0
M  V30 4773 C 444.515 3.63772 2.18986 0
M  V30 4774 O 445.539 3.08606 1.77878 0
M  V30 4775 O 444.398 4.60429 2.94393 0
M  V30 4776 H 441.492 0.676957 0.475035 0
M  V30 4777 H 444.038 1.67589 0.26681 0
M  V30 4778 H 442.81 3.79815 0.941071 0
M  V30 4779 H 442.433 3.08943 2.5028 0
M  V30 4780 N 443.43 -0.535701 1.48216 0
M  V30 4781 C 444.678 -1.28928 1.55634 0
M  V30 4782 C 444.999 -1.93645 0.229514 0
M  V30 4783 O 444.269 -1.81038 -0.74846 0
M  V30 4784 H 442.849 -0.47884 0.573342 0
M  V30 4785 H 445.511 -0.623853 1.84646 0
M  V30 4786 H 444.607 -2.07157 2.33436 0
M  V30 4787 N 444.908 -1.36708 -0.784132 0
M  V30 4788 C 446.157 -1.30559 -1.53744 0
M  V30 4789 C 446.47 0.111374 -1.95283 0
M  V30 4790 O 447.676 0.29527 -2.6989 0
M  V30 4791 C 446.132 -2.29098 -2.77565 0
M  V30 4792 C 445.74 -3.76258 -2.43174 0
M  V30 4793 C 447.484 -2.31936 -3.55536 0
M  V30 4794 C 445.391 -4.6656 -3.63422 0
M  V30 4795 H 444.321 -0.48518 -0.577162 0
M  V30 4796 H 446.972 -1.62101 -0.859981 0
M  V30 4797 H 445.354 -1.90557 -3.47137 0
M  V30 4798 H 446.528 -4.23565 -1.81465 0
M  V30 4799 H 444.843 -3.76246 -1.78403 0
M  V30 4800 H 447.44 -2.9661 -4.44889 0
M  V30 4801 H 447.783 -1.3294 -3.94503 0
M  V30 4802 H 448.316 -2.6912 -2.92949 0
M  V30 4803 H 445.055 -5.66638 -3.29547 0
M  V30 4804 H 444.575 -4.23966 -4.24279 0
M  V30 4805 H 446.254 -4.8309 -4.30387 0
M  V30 4806 N 446.386 1.0089 -1.21074 0
M  V30 4807 C 447.634 1.74262 -1.02358 0
M  V30 4808 C 447.955 1.89869 0.444393 0
M  V30 4809 O 447.225 1.44677 1.32081 0
M  V30 4810 H 445.805 0.645615 -0.375754 0
M  V30 4811 H 448.467 1.21596 -1.52317 0
M  V30 4812 H 447.563 2.74328 -1.4883 0
M  V30 4813 N 447.864 1.01787 1.20321 0
M  V30 4814 C 448.796 0.547357 2.22568 0
M  V30 4815 C 449.809 -0.370922 1.58518 0
M  V30 4816 O 450.998 -0.169067 1.77698 0
M  V30 4817 C 448.098 -0.223031 3.38165 0
M  V30 4818 C 447.271 0.697472 4.31803 0
M  V30 4819 C 446.33 -0.025562 5.26194 0
M  V30 4820 O 445.356 0.597367 5.66057 0
M  V30 4821 N 446.558 -1.29999 5.65757 0
M  V30 4822 H 449.323 1.42668 2.63564 0
M  V30 4823 H 446.884 0.895552 1.34876 0
M  V30 4824 H 448.876 -0.716002 3.98316 0
M  V30 4825 H 447.446 -1.00366 2.9605 0
M  V30 4826 H 446.666 1.37073 3.69601 0
M  V30 4827 H 447.954 1.32347 4.91286 0
M  V30 4828 H 447.352 -1.827 5.35385 0
M  V30 4829 H 445.909 -1.73766 6.28211 0
M  V30 4830 N 449.342 -1.36122 0.79427 0
M  V30 4831 C 450.57 -2.03362 0.380989 0
M  V30 4832 C 450.985 -1.59881 -1.00416 0
M  V30 4833 O 450.342 -0.790515 -1.6449 0
M  V30 4834 C 450.393 -3.58804 0.440649 0
M  V30 4835 O 450.114 -4.007 1.77118 0
M  V30 4836 C 451.615 -4.43296 0.0186117 0
M  V30 4837 H 448.835 -0.652526 0.156367 0
M  V30 4838 H 451.379 -1.73998 1.07447 0
M  V30 4839 H 449.534 -3.8686 -0.204458 0
M  V30 4840 H 449.948 -4.95309 1.72538 0
M  V30 4841 H 451.422 -5.51887 0.111488 0
M  V30 4842 H 451.899 -4.2684 -1.03461 0
M  V30 4843 H 452.505 -4.20512 0.636395 0
M  V30 4844 N 450.82 -0.546701 -1.47814 0
M  V30 4845 C 451.752 0.244196 -2.27895 0
M  V30 4846 C 452.765 0.88911 -1.36377 0
M  V30 4847 O 453.954 0.764733 -1.61289 0
M  V30 4848 C 451.054 1.36252 -3.10304 0
M  V30 4849 C 450.227 0.816382 -4.29714 0
M  V30 4850 C 449.286 1.81789 -4.93801 0
M  V30 4851 O 448.312 1.36818 -5.52512 0
M  V30 4852 N 449.514 3.15085 -4.87547 0
M  V30 4853 H 452.279 -0.442694 -2.96412 0
M  V30 4854 H 449.84 -0.382095 -1.57327 0
M  V30 4855 H 451.832 2.03102 -3.50045 0
M  V30 4856 H 450.402 1.95281 -2.44099 0
M  V30 4857 H 449.622 -0.0285981 -3.9419 0
M  V30 4858 H 450.91 0.430668 -5.06974 0
M  V30 4859 H 450.308 3.54275 -4.41028 0
M  V30 4860 H 448.865 3.77522 -5.31339 0
M  V30 4861 N 452.299 1.55045 -0.282633 0
M  V30 4862 C 453.545 2.00056 0.332481 0
M  V30 4863 C 453.878 1.1708 1.54939 0
M  V30 4864 O 453.153 0.2427 1.9298 0
M  V30 4865 C 453.436 3.53086 0.70725 0
M  V30 4866 C 453.289 4.46813 -0.517521 0
M  V30 4867 C 454.608 4.12245 1.54084 0
M  V30 4868 H 451.727 0.727268 0.119373 0
M  V30 4869 H 454.369 1.85932 -0.391076 0
M  V30 4870 H 452.519 3.65253 1.32372 0
M  V30 4871 H 454.191 4.46579 -1.15607 0
M  V30 4872 H 452.434 4.18163 -1.1542 0
M  V30 4873 H 453.105 5.51595 -0.211426 0
M  V30 4874 H 455.581 4.03401 1.02013 0
M  V30 4875 H 454.457 5.19515 1.77186 0
M  V30 4876 H 454.718 3.62951 2.52427 0
M  V30 4877 N 453.777 0.010035 1.57597 0
M  V30 4878 C 454.725 -0.996272 2.10184 0
M  V30 4879 C 455.719 -1.34942 1.02406 0
M  V30 4880 O 456.925 -1.33389 1.20861 0
M  V30 4881 H 453.3 -0.338982 0.671264 0
M  V30 4882 H 455.271 -0.527272 2.93705 0
M  V30 4883 C 454.02 -2.27599 2.62857 0
M  V30 4884 H 453.343 -2.01295 3.45428 0
M  V30 4885 H 454.783 -2.96265 3.0332 0
M  V30 4886 C 453.242 -2.99269 1.54725 0
M  V30 4887 O 453.772 -3.90644 0.93597 0
M  V30 4888 N 451.978 -2.61269 1.27228 0
M  V30 4889 H 451.525 -1.87043 1.77123 0
M  V30 4890 H 451.483 -3.09534 0.550999 0
M  V30 4891 N 455.255 -1.55392 -0.262866 0
M  V30 4892 C 456.666 -1.67079 -0.833158 0
M  V30 4893 C 457.017 -0.604539 -1.86654 0
M  V30 4894 O 456.142 0.252138 -2.14926 0
M  V30 4895 C 456.737 -3.02891 -1.51797 0
M  V30 4896 C 455.296 -3.16571 -2.03617 0
M  V30 4897 C 454.443 -2.62909 -0.881701 0
M  V30 4898 H 457.394 -1.58652 -0.0389986 0
M  V30 4899 H 457.415 -2.96445 -2.38538 0
M  V30 4900 H 456.927 -3.80473 -0.765619 0
M  V30 4901 H 455.028 -2.43782 -2.81782 0
M  V30 4902 H 455.141 -4.23271 -2.24452 0
M  V30 4903 H 453.505 -2.20324 -1.27786 0
M  V30 4904 H 454.288 -3.43003 -0.14269 0
M  V30 4905 N 456.733 0.527833 -1.48498 0
M  V30 4906 C 458.149 0.856571 -1.34666 0
M  V30 4907 C 458.349 1.98271 -0.35931 0
M  V30 4908 O 457.405 2.51551 0.218703 0
M  V30 4909 C 458.718 1.22207 -2.74747 0
M  V30 4910 C 460.266 1.33183 -2.83251 0
M  V30 4911 C 460.741 1.73075 -4.24039 0
M  V30 4912 N 462.232 1.80174 -4.26722 0
M  V30 4913 C 462.967 2.1243 -5.32598 0
M  V30 4914 N 462.463 2.43096 -6.4875 0
M  V30 4915 N 464.256 2.13454 -5.19994 0
M  V30 4916 H 456.407 -0.215174 -2.11307 0
M  V30 4917 H 458.67 -0.0336281 -0.947403 0
M  V30 4918 H 458.376 0.468195 -3.4857 0
M  V30 4919 H 458.25 2.17173 -3.08409 0
M  V30 4920 H 460.637 2.07647 -2.09683 0
M  V30 4921 H 460.718 0.363333 -2.53206 0
M  V30 4922 H 460.362 0.991712 -4.98124 0
M  V30 4923 H 460.292 2.70979 -4.51529 0
M  V30 4924 H 462.783 1.58744 -3.42942 0
M  V30 4925 H 463.096 2.6682 -7.25277 0
M  V30 4926 H 461.441 2.40611 -6.52021 0
M  V30 4927 H 464.632 1.88956 -4.28268 0
M  V30 4928 H 464.805 2.38261 -6.02608 0
M  V30 4929 N 458.211 1.37122 0.776871 0
M  V30 4930 C 459.457 1.32243 1.53752 0
M  V30 4931 C 459.79 -0.0944745 1.9397 0
M  V30 4932 O 459.065 -1.05068 1.6368 0
M  V30 4933 C 459.348 2.25681 2.80607 0
M  V30 4934 C 459.201 3.76127 2.46676 0
M  V30 4935 C 460.52 2.17657 3.82509 0
M  V30 4936 H 457.639 0.481704 0.557791 0
M  V30 4937 H 460.281 1.6778 0.891612 0
M  V30 4938 H 458.431 1.95505 3.35723 0
M  V30 4939 H 460.103 4.16877 1.97513 0
M  V30 4940 H 458.346 3.94946 1.79443 0
M  V30 4941 H 459.017 4.36933 3.37333 0
M  V30 4942 H 461.493 2.44245 3.36873 0
M  V30 4943 H 460.369 2.85185 4.69 0
M  V30 4944 H 460.63 1.16785 4.26396 0
M  V30 4945 N 459.689 -1.00246 1.21608 0
M  V30 4946 C 460.966 -1.71336 0.943568 0
M  V30 4947 C 461.346 -2.03972 -0.543943 0
M  V30 4948 O 460.694 -1.71545 -1.50946 0
M  V30 4949 C 460.904 -2.97094 1.83128 0
M  V30 4950 C 462.252 -3.70071 2.08165 0
M  V30 4951 O 463.276 -3.07081 1.80498 0
M  V30 4952 O 462.135 -4.83376 2.54971 0
M  V30 4953 H 459.229 -0.747386 0.354039 0
M  V30 4954 H 461.775 -1.05967 1.32549 0
M  V30 4955 H 460.547 -2.69407 2.83788 0
M  V30 4956 H 460.17 -3.70204 1.45034 0
M  V30 4957 N 461.167 -1.02423 -1.1978 0
M  V30 4958 C 462.1 -0.545641 -2.21581 0
M  V30 4959 C 463.078 0.411024 -1.57319 0
M  V30 4960 O 464.262 0.329223 -1.85603 0
M  V30 4961 C 461.389 0.204973 -3.38079 0
M  V30 4962 C 460.435 -0.70241 -4.20676 0
M  V30 4963 S 461.268 -2.17595 -4.89298 0
M  V30 4964 C 462.424 -1.43572 -6.09211 0
M  V30 4965 H 462.657 -1.4082 -2.61834 0
M  V30 4966 H 460.19 -0.833771 -1.29952 0
M  V30 4967 H 462.148 0.631924 -4.05607 0
M  V30 4968 H 460.809 1.0432 -2.9627 0
M  V30 4969 H 460.002 -0.123193 -5.03849 0
M  V30 4970 H 459.604 -1.06747 -3.58442 0
M  V30 4971 H 461.896 -0.719806 -6.73665 0
M  V30 4972 H 462.839 -2.24388 -6.71607 0
M  V30 4973 H 463.247 -0.935252 -5.56699 0
M  V30 4974 N 462.645 1.35699 -0.801477 0
M  V30 4975 C 463.873 2.03157 -0.391768 0
M  V30 4976 C 464.288 1.60412 0.995668 0
M  V30 4977 O 463.645 0.799228 1.64069 0
M  V30 4978 C 463.696 3.58566 -0.459671 0
M  V30 4979 O 463.417 3.99756 -1.7924 0
M  V30 4980 C 464.918 4.4328 -0.0421205 0
M  V30 4981 H 462.138 0.651688 -0.159825 0
M  V30 4982 H 464.682 1.73426 -1.08368 0
M  V30 4983 H 462.837 3.86963 0.183939 0
M  V30 4984 H 463.251 4.94387 -1.75162 0
M  V30 4985 H 464.725 5.51821 -0.140754 0
M  V30 4986 H 465.202 4.27383 1.01196 0
M  V30 4987 H 465.808 4.20168 -0.658687 0
M  V30 4988 N 464.123 0.554532 1.47522 0
M  V30 4989 C 465.37 0.029479 2.02479 0
M  V30 4990 C 465.698 -1.31929 1.42916 0
M  V30 4991 O 464.953 -1.87112 0.573385 0
M  V30 4992 C 465.252 -0.115927 3.57212 0
M  V30 4993 C 464.918 1.16161 4.3568 0
M  V30 4994 C 463.58 1.51168 4.56839 0
M  V30 4995 C 465.932 2.0083 4.80954 0
M  V30 4996 C 463.26 2.70696 5.2052 0
M  V30 4997 C 465.612 3.19559 5.45953 0
M  V30 4998 C 464.276 3.54882 5.65345 0
M  V30 4999 H 463.546 0.0107871 0.740921 0
M  V30 5000 H 466.193 0.725506 1.77225 0
M  V30 5001 H 464.498 -0.894902 3.81443 0
M  V30 5002 H 466.195 -0.53749 3.97381 0
M  V30 5003 H 462.785 0.879026 4.19489 0
M  V30 5004 H 466.969 1.75093 4.64388 0
M  V30 5005 H 462.225 2.98236 5.33728 0
M  V30 5006 H 466.399 3.85456 5.79997 0
M  V30 5007 H 464.026 4.47596 6.1446 0
M  V30 5008 N 465.601 -1.54893 0.290851 0
M  V30 5009 C 466.564 -2.21824 -0.576784 0
M  V30 5010 C 467.564 -1.20104 -1.06919 0
M  V30 5011 O 468.754 -1.44906 -0.966843 0
M  V30 5012 C 465.886 -2.89662 -1.79747 0
M  V30 5013 H 467.079 -2.99899 0.00784051 0
M  V30 5014 H 464.632 -1.56245 0.0415934 0
M  V30 5015 H 465.367 -2.15639 -2.42219 0
M  V30 5016 H 465.152 -3.64219 -1.45214 0
M  V30 5017 H 466.642 -3.4075 -2.4141 0
M  V30 5018 N 467.08 -0.0183926 -1.57589 0
M  V30 5019 C 468.496 0.337897 -1.55982 0
M  V30 5020 C 468.696 1.73604 -1.02294 0
M  V30 5021 O 467.752 2.43589 -0.664895 0
M  V30 5022 C 469.065 0.196305 -3.00059 0
M  V30 5023 C 470.613 0.269875 -3.11834 0
M  V30 5024 C 471.088 0.157197 -4.5773 0
M  V30 5025 N 472.579 0.214521 -4.62703 0
M  V30 5026 C 473.314 0.150955 -5.73201 0
M  V30 5027 N 472.81 0.0369212 -6.9279 0
M  V30 5028 N 474.603 0.204162 -5.61729 0
M  V30 5029 H 466.754 -0.93279 -1.90821 0
M  V30 5030 H 469.017 -0.359253 -0.877292 0
M  V30 5031 H 468.723 -0.766383 -3.43248 0
M  V30 5032 H 468.597 0.970908 -3.6449 0
M  V30 5033 H 470.984 1.22302 -2.68563 0
M  V30 5034 H 471.065 -0.534918 -2.50144 0
M  V30 5035 H 470.709 -0.792479 -5.01679 0
M  V30 5036 H 470.639 0.980717 -5.17387 0
M  V30 5037 H 473.13 0.303238 -3.76681 0
M  V30 5038 H 473.443 -0.00518321 -7.728 0
M  V30 5039 H 471.788 0.0022886 -6.95 0
M  V30 5040 H 474.979 0.291575 -4.67191 0
M  V30 5041 H 475.152 0.15116 -6.47824 0
M  V30 5042 N 468.558 1.5553 0.254621 0
M  V30 5043 C 469.806 1.7665 0.981793 0
M  V30 5044 C 470.127 0.580963 1.86145 0
M  V30 5045 O 469.397 -0.403537 1.91699 0
M  V30 5046 H 467.977 0.651475 0.365498 0
M  V30 5047 H 470.639 1.92958 0.274426 0
M  V30 5048 H 469.735 2.67486 1.60802 0
M  V30 5049 N 470.036 -0.519951 1.48776 0
M  V30 5050 C 470.966 -1.63253 1.66945 0
M  V30 5051 C 471.947 -1.62014 0.518224 0
M  V30 5052 O 473.132 -1.79053 0.751919 0
M  V30 5053 C 470.262 -3.0181 1.71836 0
M  V30 5054 C 469.216 -3.17911 2.8656 0
M  V30 5055 C 468.542 -4.5763 2.76548 0
M  V30 5056 C 469.842 -2.99729 4.27738 0
M  V30 5057 H 471.536 -1.48302 2.6009 0
M  V30 5058 H 469.082 -0.712026 1.25165 0
M  V30 5059 H 471.035 -3.79525 1.83135 0
M  V30 5060 H 469.759 -3.17806 0.752775 0
M  V30 5061 H 468.418 -2.42616 2.74833 0
M  V30 5062 H 468.066 -4.70476 1.77937 0
M  V30 5063 H 467.766 -4.69346 3.53536 0
M  V30 5064 H 469.29 -5.37431 2.89828 0
M  V30 5065 H 470.704 -3.67228 4.40246 0
M  V30 5066 H 469.101 -3.22932 5.05801 0
M  V30 5067 H 470.171 -1.96047 4.43502 0
M  V30 5068 N 471.514 -1.37532 -0.769588 0
M  V30 5069 C 472.93 -1.18379 -1.07045 0
M  V30 5070 C 473.13 -0.0214312 -2.01489 0
M  V30 5071 O 472.186 0.637809 -2.44312 0
M  V30 5072 C 473.499 -2.50338 -1.66588 0
M  V30 5073 C 475.047 -2.56879 -1.78835 0
M  V30 5074 C 475.522 -3.88974 -2.41792 0
M  V30 5075 N 477.013 -3.90428 -2.4924 0
M  V30 5076 C 477.748 -4.89388 -2.98809 0
M  V30 5077 N 477.244 -5.98745 -3.48535 0
M  V30 5078 N 479.037 -4.76791 -2.97703 0
M  V30 5079 H 471.188 -2.11921 -0.142541 0
M  V30 5080 H 473.451 -0.939608 -0.125863 0
M  V30 5081 H 473.157 -3.35767 -1.0466 0
M  V30 5082 H 473.031 -2.67583 -2.65856 0
M  V30 5083 H 475.418 -1.71856 -2.39895 0
M  V30 5084 H 475.499 -2.43516 -0.783166 0
M  V30 5085 H 475.143 -4.74412 -1.81371 0
M  V30 5086 H 475.073 -3.99641 -3.4292 0
M  V30 5087 H 477.564 -3.11433 -2.14052 0
M  V30 5088 H 477.877 -6.70205 -3.84767 0
M  V30 5089 H 476.222 -6.02387 -3.46634 0
M  V30 5090 H 479.413 -3.90478 -2.58157 0
M  V30 5091 H 479.586 -5.54069 -3.36024 0
M  V30 5092 N 472.992 0.995999 -1.22138 0
M  V30 5093 C 473.955 2.06711 -0.990109 0
M  V30 5094 C 474.955 1.60744 0.0422978 0
M  V30 5095 O 476.145 1.73095 -0.195895 0
M  V30 5096 C 473.277 3.37288 -0.49491 0
M  V30 5097 H 474.47 2.28661 -1.94047 0
M  V30 5098 H 472.023 1.16711 -1.03963 0
M  V30 5099 H 472.758 3.21022 0.459948 0
M  V30 5100 H 472.543 3.71986 -1.23971 0
M  V30 5101 H 474.033 4.16103 -0.353253 0
M  V30 5102 N 474.47 1.03057 1.19235 0
M  V30 5103 C 475.719 0.72326 1.88287 0
M  V30 5104 C 476.032 -0.751333 1.80594 0
M  V30 5105 O 477.238 -1.17176 2.44912 0
M  V30 5106 C 475.694 1.24338 3.3774 0
M  V30 5107 C 475.302 2.74587 3.53986 0
M  V30 5108 C 477.046 1.01213 4.12257 0
M  V30 5109 C 474.953 3.20009 4.97341 0
M  V30 5110 H 473.883 0.266848 0.705201 0
M  V30 5111 H 476.534 1.24509 1.34795 0
M  V30 5112 H 474.916 0.649457 3.90638 0
M  V30 5113 H 476.09 3.39649 3.11408 0
M  V30 5114 H 474.405 2.9601 2.9286 0
M  V30 5115 H 477.002 1.32675 5.17978 0
M  V30 5116 H 477.345 -0.051001 4.16269 0
M  V30 5117 H 477.878 1.57014 3.65501 0
M  V30 5118 H 474.617 4.25659 4.98493 0
M  V30 5119 H 474.137 2.59676 5.40674 0
M  V30 5120 H 475.816 3.13447 5.66003 0
M  V30 5121 N 475.948 -1.35272 0.808662 0
M  V30 5122 C 476.878 -2.32315 0.234981 0
M  V30 5123 C 477.859 -1.57572 -0.64071 0
M  V30 5124 O 479.044 -1.8563 -0.570551 0
M  V30 5125 C 476.174 -3.41801 -0.615601 0
M  V30 5126 C 475.128 -4.27694 0.161767 0
M  V30 5127 C 474.454 -5.28519 -0.810649 0
M  V30 5128 C 475.754 -5.04231 1.36193 0
M  V30 5129 H 477.448 -2.80543 1.04575 0
M  V30 5130 H 474.994 -1.3488 0.504315 0
M  V30 5131 H 476.947 -4.08693 -1.02702 0
M  V30 5132 H 475.671 -2.92186 -1.45928 0
M  V30 5133 H 474.33 -3.62384 0.554382 0
M  V30 5134 H 473.978 -4.75171 -1.64988 0
M  V30 5135 H 473.678 -5.8686 -0.294822 0
M  V30 5136 H 475.202 -5.98283 -1.22023 0
M  V30 5137 H 476.616 -5.64058 1.02528 0
M  V30 5138 H 475.013 -5.72077 1.81239 0
M  V30 5139 H 476.083 -4.34753 2.14751 0
M  V30 5140 N 477.426 -0.562348 -1.47226 0
M  V30 5141 C 478.842 -0.222492 -1.58042 0
M  V30 5142 C 479.042 1.27505 -1.56028 0
M  V30 5143 O 478.098 2.05555 -1.46641 0
M  V30 5144 C 479.411 -0.853694 -2.88327 0
M  V30 5145 C 480.959 -0.825397 -3.01921 0
M  V30 5146 C 481.434 -1.43576 -4.34914 0
M  V30 5147 N 482.925 -1.39918 -4.41562 0
M  V30 5148 C 483.66 -1.84103 -5.43041 0
M  V30 5149 N 483.156 -2.36167 -6.51304 0
M  V30 5150 N 484.949 -1.75142 -5.34118 0
M  V30 5151 H 477.1 -1.53525 -1.46778 0
M  V30 5152 H 479.363 -0.640527 -0.698877 0
M  V30 5153 H 479.069 -1.90635 -2.95552 0
M  V30 5154 H 478.943 -0.34977 -3.75575 0
M  V30 5155 H 481.33 0.218583 -2.94289 0
M  V30 5156 H 481.411 -1.36713 -2.16202 0
M  V30 5157 H 481.055 -2.47884 -4.43301 0
M  V30 5158 H 480.985 -0.869427 -5.19373 0
M  V30 5159 H 483.476 -1.0184 -3.63919 0
M  V30 5160 H 483.789 -2.67793 -7.24919 0
M  V30 5161 H 482.134 -2.40181 -6.52179 0
M  V30 5162 H 485.325 -1.34241 -4.48439 0
M  V30 5163 H 485.498 -2.09895 -6.13065 0
M  V30 5164 N 478.904 1.54736 -0.299062 0
M  V30 5165 C 479.836 2.20891 0.61153 0
M  V30 5166 C 480.849 1.20104 1.09904 0
M  V30 5167 O 482.038 1.46707 1.01683 0
M  V30 5168 C 479.138 2.84018 1.84897 0
M  V30 5169 C 478.311 4.10719 1.50428 0
M  V30 5170 C 477.37 4.57667 2.59667 0
M  V30 5171 O 476.396 5.2291 2.24842 0
M  V30 5172 N 477.598 4.29821 3.90172 0
M  V30 5173 H 480.363 2.99666 0.0452001 0
M  V30 5174 H 477.924 1.61446 -0.121178 0
M  V30 5175 H 479.916 3.1236 2.5732 0
M  V30 5176 H 478.486 2.09095 2.32375 0
M  V30 5177 H 477.706 3.89408 0.612781 0
M  V30 5178 H 478.994 4.93223 1.24934 0
M  V30 5179 H 478.392 3.77549 4.21276 0
M  V30 5180 H 476.949 4.62877 4.58899 0
M  V30 5181 N 480.382 0.0267497 1.57577 0
M  V30 5182 C 481.659 -0.690926 1.82991 0
M  V30 5183 C 482.039 -1.90471 0.910164 0
M  V30 5184 O 481.387 -2.28474 -0.0347985 0
M  V30 5185 C 481.597 -1.07139 3.32148 0
M  V30 5186 C 482.945 -1.46402 3.98562 0
M  V30 5187 O 483.969 -1.16443 3.36629 0
M  V30 5188 O 482.828 -2.02214 5.07712 0
M  V30 5189 H 479.922 -0.338747 0.75444 0
M  V30 5190 H 482.468 0.0542506 1.69613 0
M  V30 5191 H 481.24 -0.207394 3.9075 0
M  V30 5192 H 480.863 -1.87481 3.50623 0
M  V30 5193 N 481.861 -1.55662 -0.24637 0
M  V30 5194 C 483.272 -1.67953 -0.81539 0
M  V30 5195 C 483.623 -0.624302 -1.86002 0
M  V30 5196 O 482.748 0.229328 -2.15181 0
M  V30 5197 C 483.343 -3.04484 -1.48576 0
M  V30 5198 C 481.902 -3.18713 -2.00248 0
M  V30 5199 C 481.049 -2.6383 -0.853766 0
M  V30 5200 H 484 -1.58685 -0.0221692 0
M  V30 5201 H 484.021 -2.98959 -2.3538 0
M  V30 5202 H 483.533 -3.81264 -0.725222 0
M  V30 5203 H 481.634 -2.46757 -2.79181 0
M  V30 5204 H 481.747 -4.25628 -2.1995 0
M  V30 5205 H 480.111 -2.21667 -1.25442 0
M  V30 5206 H 480.894 -3.43135 -0.106302 0
M  V30 5207 N 483.339 0.512053 -1.4905 0
M  V30 5208 C 484.616 1.27337 -1.48474 0
M  V30 5209 C 484.996 2.1009 -0.206301 0
M  V30 5210 O 484.344 2.136 0.811609 0
M  V30 5211 C 484.554 2.13954 -2.75726 0
M  V30 5212 C 485.902 2.73507 -3.24776 0
M  V30 5213 O 486.926 2.24229 -2.76767 0
M  V30 5214 O 485.785 3.63186 -4.08361 0
M  V30 5215 H 482.879 0.575652 -0.593762 0
M  V30 5216 H 485.425 0.527232 -1.61302 0
M  V30 5217 H 484.197 1.52709 -3.60272 0
M  V30 5218 H 483.82 2.95782 -2.65705 0
M  V30 5219 N 484.817 1.37938 0.762283 0
M  V30 5220 C 486.063 1.33866 1.52341 0
M  V30 5221 C 486.396 -0.0738961 1.94059 0
M  V30 5222 O 485.671 -1.03326 1.64785 0
M  V30 5223 C 485.954 2.28644 2.78197 0
M  V30 5224 C 485.807 3.78722 2.42672 0
M  V30 5225 C 487.126 2.21702 3.80179 0
M  V30 5226 H 484.245 0.487593 0.55265 0
M  V30 5227 H 486.887 1.68717 0.873767 0
M  V30 5228 H 485.037 1.99055 3.33631 0
M  V30 5229 H 486.709 4.18948 1.93081 0
M  V30 5230 H 484.952 3.96827 1.75244 0
M  V30 5231 H 485.623 4.40486 3.3268 0
M  V30 5232 H 488.099 2.47805 3.34263 0
M  V30 5233 H 486.975 2.90143 4.65949 0
M  V30 5234 H 487.236 1.21301 4.25133 0
M  V30 5235 N 486.295 -0.989507 1.22664 0
M  V30 5236 C 487.541 -1.7321 1.05481 0
M  V30 5237 C 487.874 -1.89852 -0.408635 0
M  V30 5238 O 487.149 -1.44416 -1.30285 0
M  V30 5239 C 487.432 -3.1357 1.77047 0
M  V30 5240 C 487.285 -3.04555 3.31008 0
M  V30 5241 C 488.604 -4.12812 1.5256 0
M  V30 5242 H 485.723 -0.628697 0.384589 0
M  V30 5243 H 488.365 -1.15258 1.51049 0
M  V30 5244 H 486.515 -3.63046 1.3831 0
M  V30 5245 H 488.187 -2.62674 3.7921 0
M  V30 5246 H 486.43 -2.41278 3.6051 0
M  V30 5247 H 487.101 -4.03894 3.76263 0
M  V30 5248 H 489.577 -3.72106 1.86215 0
M  V30 5249 H 488.453 -5.09132 2.05124 0
M  V30 5250 H 488.714 -4.39711 0.458936 0
M  V30 5251 N 487.773 -1.03688 -1.18687 0
M  V30 5252 C 488.706 -0.569112 -2.2099 0
M  V30 5253 C 489.684 0.394315 -1.57746 0
M  V30 5254 O 490.868 0.309519 -1.85941 0
M  V30 5255 C 487.995 0.169104 -3.38278 0
M  V30 5256 C 487.041 -0.746989 -4.19908 0
M  V30 5257 S 487.874 -2.22773 -4.86963 0
M  V30 5258 C 489.03 -1.50025 -6.07654 0
M  V30 5259 H 489.263 -1.43589 -2.60326 0
M  V30 5260 H 486.796 -0.847507 -1.29061 0
M  V30 5261 H 488.754 0.588868 -4.06254 0
M  V30 5262 H 487.415 1.01172 -2.9736 0
M  V30 5263 H 486.608 -0.176626 -5.0369 0
M  V30 5264 H 486.21 -1.10543 -3.5729 0
M  V30 5265 H 488.502 -0.791217 -6.72864 0
M  V30 5266 H 489.445 -2.31498 -6.69189 0
M  V30 5267 H 489.853 -0.994245 -5.55675 0
M  V30 5268 N 489.251 1.34841 -0.815825 0
M  V30 5269 C 490.497 1.98793 -0.401129 0
M  V30 5270 C 490.83 1.64548 1.03139 0
M  V30 5271 O 490.105 0.913487 1.71714 0
M  V30 5272 C 490.388 3.55143 -0.595409 0
M  V30 5273 C 490.241 3.99155 -2.07352 0
M  V30 5274 C 491.56 4.40092 -0.0268823 0
M  V30 5275 H 488.679 0.722146 -0.14722 0
M  V30 5276 H 491.321 1.59847 -1.02707 0
M  V30 5277 H 489.471 3.8845 -0.0625779 0
M  V30 5278 H 491.143 3.76216 -2.66945 0
M  V30 5279 H 489.386 3.49726 -2.56659 0
M  V30 5280 H 490.057 5.07971 -2.1603 0
M  V30 5281 H 492.533 4.13298 -0.482042 0
M  V30 5282 H 491.409 5.48562 -0.19267 0
M  V30 5283 H 491.67 4.29016 1.06759 0
M  V30 5284 N 490.729 0.570148 1.46925 0
M  V30 5285 C 491.977 0.0508523 2.02036 0
M  V30 5286 C 492.298 -1.30885 1.44548 0
M  V30 5287 O 491.568 -1.85647 0.625453 0
M  V30 5288 H 490.148 0.0158088 0.746833 0
M  V30 5289 H 492.81 0.743086 1.80178 0
M  V30 5290 H 491.906 -0.027575 3.12088 0
M  V30 5291 N 492.207 -1.54576 0.307264 0
M  V30 5292 C 493.117 -2.27435 -0.57536 0
M  V30 5293 C 494.133 -1.31183 -1.14311 0
M  V30 5294 O 495.309 -1.64175 -1.16656 0
M  V30 5295 C 492.374 -3.00566 -1.72803 0
M  V30 5296 C 491.435 -4.12369 -1.19373 0
M  V30 5297 C 490.668 -4.82003 -2.29147 0
M  V30 5298 O 490.891 -4.51038 -3.49171 0
M  V30 5299 O 489.825 -5.69271 -1.95485 0
M  V30 5300 H 493.651 -3.03696 0.0158558 0
M  V30 5301 H 491.236 -1.49219 0.0735064 0
M  V30 5302 H 493.118 -3.46416 -2.39946 0
M  V30 5303 H 491.793 -2.27195 -2.30574 0
M  V30 5304 H 490.7 -3.70905 -0.487851 0
M  V30 5305 H 492.033 -4.87736 -0.661376 0
M  V30 5306 N 493.685 -0.035106 -1.57561 0
M  V30 5307 C 494.934 0.641604 -1.91223 0
M  V30 5308 C 495.247 1.72944 -0.913761 0
M  V30 5309 O 496.453 2.46321 -1.14185 0
M  V30 5310 C 494.909 1.19249 -3.3957 0
M  V30 5311 C 494.517 0.137616 -4.47789 0
M  V30 5312 C 496.261 1.84537 -3.82291 0
M  V30 5313 C 494.168 0.700478 -5.87237 0
M  V30 5314 H 493.098 0.243417 -0.713627 0
M  V30 5315 H 495.749 -0.101382 -1.8322 0
M  V30 5316 H 494.131 1.98728 -3.42525 0
M  V30 5317 H 495.305 -0.635153 -4.56402 0
M  V30 5318 H 493.62 -0.416855 -4.14308 0
M  V30 5319 H 496.217 2.27616 -4.83834 0
M  V30 5320 H 496.56 2.69054 -3.17672 0
M  V30 5321 H 497.093 1.11739 -3.81784 0
M  V30 5322 H 493.832 -0.106693 -6.55413 0
M  V30 5323 H 493.352 1.4416 -5.82218 0
M  V30 5324 H 495.031 1.18837 -6.35993 0
M  V30 5325 N 495.163 1.55791 0.238111 0
M  V30 5326 C 496.579 1.48411 0.587045 0
M  V30 5327 C 496.779 0.72702 1.87927 0
M  V30 5328 O 495.835 0.259942 2.51158 0
M  V30 5329 C 497.148 2.92873 0.681623 0
M  V30 5330 C 498.696 3.03295 0.773363 0
M  V30 5331 C 499.171 4.49082 0.899428 0
M  V30 5332 N 500.662 4.53056 0.964075 0
M  V30 5333 C 501.397 5.63117 1.08104 0
M  V30 5334 N 500.893 6.82969 1.16299 0
M  V30 5335 N 502.686 5.50933 1.11488 0
M  V30 5336 H 494.837 2.0345 -0.610076 0
M  V30 5337 H 497.1 0.924034 -0.211813 0
M  V30 5338 H 496.806 3.51142 -0.19802 0
M  V30 5339 H 496.68 3.43851 1.55069 0
M  V30 5340 H 499.067 2.45101 1.64346 0
M  V30 5341 H 499.148 2.55513 -0.121034 0
M  V30 5342 H 498.792 5.07889 0.0338586 0
M  V30 5343 H 498.722 4.94553 1.809 0
M  V30 5344 H 501.213 3.66737 0.91173 0
M  V30 5345 H 501.526 7.62598 1.25155 0
M  V30 5346 H 499.871 6.85712 1.13241 0
M  V30 5347 H 503.062 4.56231 1.0474 0
M  V30 5348 H 503.235 6.36743 1.20259 0
M  V30 5349 N 496.642 -0.504142 1.49319 0
M  V30 5350 C 497.919 -1.26548 1.49147 0
M  V30 5351 C 498.299 -2.09977 0.21744 0
M  V30 5352 O 497.647 -2.14028 -0.800269 0
M  V30 5353 C 497.857 -2.12489 2.76857 0
M  V30 5354 C 499.205 -2.7178 3.26222 0
M  V30 5355 O 500.229 -2.22758 2.77952 0
M  V30 5356 O 499.088 -3.61015 4.10281 0
M  V30 5357 H 496.182 -0.572495 0.596806 0
M  V30 5358 H 498.728 -0.51867 1.61579 0
M  V30 5359 H 497.5 -1.50796 3.61077 0
M  V30 5360 H 497.123 -2.94368 2.6727 0
M  V30 5361 N 498.12 -1.38341 -0.754957 0
M  V30 5362 C 499.05 -1.38176 -1.88227 0
M  V30 5363 C 500.031 -0.247873 -1.68284 0
M  V30 5364 O 501.216 -0.45075 -1.88896 0
M  V30 5365 C 498.346 -1.20471 -3.25736 0
M  V30 5366 C 497.3 -2.3105 -3.60278 0
M  V30 5367 C 496.626 -1.98452 -4.96509 0
M  V30 5368 C 497.926 -3.73305 -3.65295 0
M  V30 5369 H 499.62 -2.32512 -1.88622 0
M  V30 5370 H 497.166 -1.1192 -0.906082 0
M  V30 5371 H 499.119 -1.18982 -4.04254 0
M  V30 5372 H 497.843 -0.225965 -3.25817 0
M  V30 5373 H 496.502 -2.31723 -2.84078 0
M  V30 5374 H 496.15 -0.990641 -4.93148 0
M  V30 5375 H 495.85 -2.7251 -5.20588 0
M  V30 5376 H 497.374 -1.98578 -5.77407 0
M  V30 5377 H 498.788 -3.7467 -4.3393 0
M  V30 5378 H 497.185 -4.46557 -4.00883 0
M  V30 5379 H 498.255 -4.05719 -2.65556 0
M  V30 5380 N 499.598 0.982988 -1.23187 0
M  V30 5381 C 500.508 2.10907 -1.02739 0
M  V30 5382 C 501.524 1.73979 0.0273188 0
M  V30 5383 O 502.7 2.00702 -0.16757 0
M  V30 5384 C 499.765 3.41142 -0.618304 0
M  V30 5385 C 498.826 3.92112 -1.74777 0
M  V30 5386 C 498.059 5.16131 -1.3581 0
M  V30 5387 O 498.282 5.6989 -0.241201 0
M  V30 5388 O 497.216 5.61103 -2.17824 0
M  V30 5389 H 501.042 2.31046 -1.97108 0
M  V30 5390 H 498.627 1.09284 -1.01869 0
M  V30 5391 H 500.509 4.19488 -0.400982 0
M  V30 5392 H 499.184 3.2234 0.296421 0
M  V30 5393 H 498.091 3.14895 -2.0197 0
M  V30 5394 H 499.424 4.15364 -2.64071 0
M  V30 5395 N 501.076 1.04316 1.18135 0
M  V30 5396 C 502.304 0.768117 1.92113 0
M  V30 5397 C 502.719 -0.675057 1.76319 0
M  V30 5398 O 502.076 -1.46038 1.09449 0
M  V30 5399 C 502.127 1.12808 3.43448 0
M  V30 5400 O 501.848 2.5146 3.58747 0
M  V30 5401 C 503.349 0.8779 4.3452 0
M  V30 5402 H 500.569 0.279937 0.609817 0
M  V30 5403 H 503.113 1.39149 1.49859 0
M  V30 5404 H 501.268 0.549623 3.83481 0
M  V30 5405 H 501.682 2.65313 4.52448 0
M  V30 5406 H 503.156 1.17959 5.39249 0
M  V30 5407 H 503.633 -0.187239 4.38801 0
M  V30 5408 H 504.239 1.43977 4.00188 0
M  V30 5409 N 502.554 -1.34406 0.822964 0
M  V30 5410 C 503.517 -2.2783 0.250271 0
M  V30 5411 C 504.517 -1.50288 -0.571854 0
M  V30 5412 O 505.707 -1.69825 -0.387952 0
M  V30 5413 C 502.839 -3.34663 -0.649137 0
M  V30 5414 H 504.032 -2.79992 1.07444 0
M  V30 5415 H 501.585 -1.44539 0.594829 0
M  V30 5416 H 502.32 -2.87714 -1.49637 0
M  V30 5417 H 502.105 -3.92052 -0.0611199 0
M  V30 5418 H 503.595 -4.04349 -1.04363 0
M  V30 5419 N 504.032 -0.577932 -1.46621 0
M  V30 5420 C 504.964 0.195801 -2.28362 0
M  V30 5421 C 505.977 0.859983 -1.38232 0
M  V30 5422 O 507.166 0.730349 -1.62875 0
M  V30 5423 C 504.266 1.29639 -3.13124 0
M  V30 5424 C 503.439 0.725049 -4.31349 0
M  V30 5425 C 502.498 1.71274 -4.97546 0
M  V30 5426 O 501.524 1.25067 -5.5529 0
M  V30 5427 N 502.726 3.04672 -4.94121 0
M  V30 5428 H 505.491 -0.505468 -2.95407 0
M  V30 5429 H 503.052 -0.415381 -1.56481 0
M  V30 5430 H 505.044 1.95631 -3.54275 0
M  V30 5431 H 503.614 1.90059 -2.48186 0
M  V30 5432 H 502.834 -0.112205 -3.9404 0
M  V30 5433 H 504.122 0.323034 -5.07774 0
M  V30 5434 H 503.52 3.4484 -4.48444 0
M  V30 5435 H 502.077 3.66166 -5.39227 0
M  V30 5436 N 505.51 1.54411 -0.315457 0
M  V30 5437 C 506.759 1.99599 0.290395 0
M  V30 5438 C 507.072 1.20746 1.53882 0
M  V30 5439 O 508.278 1.56272 2.22017 0
M  V30 5440 C 506.734 3.5539 0.56797 0
M  V30 5441 C 506.342 4.43068 -0.662945 0
M  V30 5442 C 508.086 4.09067 1.13422 0
M  V30 5443 C 505.993 5.90317 -0.357722 0
M  V30 5444 H 504.923 0.745592 0.112286 0
M  V30 5445 H 507.574 1.78477 -0.426418 0
M  V30 5446 H 505.956 3.72468 1.34476 0
M  V30 5447 H 507.13 4.37765 -1.43869 0
M  V30 5448 H 505.445 4.00238 -1.14884 0
M  V30 5449 H 508.042 5.16663 1.37707 0
M  V30 5450 H 508.385 3.60552 2.08106 0
M  V30 5451 H 508.918 3.95589 0.418805 0
M  V30 5452 H 505.657 6.4301 -1.27351 0
M  V30 5453 H 505.177 5.98592 0.380472 0
M  V30 5454 H 506.856 6.4699 0.0354284 0
M  V30 5455 N 506.988 0.0434614 1.5754 0
M  V30 5456 C 507.951 -0.918696 2.09982 0
M  V30 5457 C 508.951 -1.24488 1.01781 0
M  V30 5458 O 510.141 -1.18284 1.27885 0
M  V30 5459 C 507.273 -2.23093 2.57764 0
M  V30 5460 H 508.466 -0.464229 2.96285 0
M  V30 5461 H 506.019 -0.204818 1.54952 0
M  V30 5462 H 506.754 -2.73137 1.74832 0
M  V30 5463 H 506.539 -2.00724 3.36827 0
M  V30 5464 H 508.029 -2.92028 2.98512 0
M  V30 5465 N 508.466 -1.55915 -0.229846 0
M  V30 5466 C 509.712 -1.78807 -0.956868 0
M  V30 5467 C 510.045 -0.611687 -1.84315 0
M  V30 5468 O 509.32 0.389398 -1.90562 0
M  V30 5469 C 509.603 -3.11718 -1.80288 0
M  V30 5470 C 509.456 -4.3979 -0.943649 0
M  V30 5471 C 510.775 -3.40999 -2.78222 0
M  V30 5472 H 507.894 -0.6505 -0.346437 0
M  V30 5473 H 510.536 -1.88648 -0.226252 0
M  V30 5474 H 508.686 -3.03459 -2.42579 0
M  V30 5475 H 510.358 -4.60059 -0.338121 0
M  V30 5476 H 508.601 -4.33086 -0.248705 0
M  V30 5477 H 509.272 -5.29208 -1.5698 0
M  V30 5478 H 511.748 -3.49332 -2.26067 0
M  V30 5479 H 510.624 -4.35183 -3.34526 0
M  V30 5480 H 510.885 -2.62754 -3.55546 0
M  V30 5481 N 509.944 0.496216 -1.49584 0
M  V30 5482 C 510.876 1.61404 -1.62731 0
M  V30 5483 C 511.889 1.54613 -0.50978 0
M  V30 5484 O 513.078 1.60458 -0.782017 0
M  V30 5485 C 510.178 3.00212 -1.57245 0
M  V30 5486 C 509.351 3.32138 -2.84611 0
M  V30 5487 C 508.41 4.5038 -2.72112 0
M  V30 5488 O 507.436 4.51926 -3.46051 0
M  V30 5489 N 508.638 5.50575 -1.83977 0
M  V30 5490 H 511.403 1.50552 -2.59141 0
M  V30 5491 H 508.964 0.684182 -1.46733 0
M  V30 5492 H 510.956 3.77241 -1.4653 0
M  V30 5493 H 509.526 3.04964 -0.686729 0
M  V30 5494 H 508.746 2.4396 -3.09641 0
M  V30 5495 H 510.034 3.50268 -3.69039 0
M  V30 5496 H 509.432 5.52128 -1.23171 0
M  V30 5497 H 507.989 6.26687 -1.79182 0
M  V30 5498 N 511.423 1.38739 0.74761 0
M  V30 5499 C 512.386 1.36241 1.84312 0
M  V30 5500 C 513.386 0.261811 1.58654 0
M  V30 5501 O 514.576 0.519031 1.66288 0
M  V30 5502 C 511.708 1.12253 3.21888 0
M  V30 5503 H 512.901 2.33712 1.87933 0
M  V30 5504 H 510.454 1.2412 0.949946 0
M  V30 5505 H 511.189 0.154133 3.23934 0
M  V30 5506 H 510.974 1.91943 3.41907 0
M  V30 5507 H 512.464 1.13215 4.0196 0
M  V30 5508 N 512.901 -0.976442 1.23707 0
M  V30 5509 C 514.126 -1.75875 1.09922 0
M  V30 5510 C 514.551 -1.84911 -0.34489 0
M  V30 5511 O 513.909 -1.31363 -1.24954 0
M  V30 5512 C 513.957 -3.16179 1.73388 0
M  V30 5513 O 513.061 -4.00124 0.99871 0
M  V30 5514 H 512.402 -0.540954 0.385052 0
M  V30 5515 H 514.932 -1.22546 1.6384 0
M  V30 5516 H 514.942 -3.66741 1.78788 0
M  V30 5517 H 513.617 -3.08917 2.78466 0
M  V30 5518 H 512.194 -3.58624 1.02193 0
M  V30 5519 N 514.379 -1.04941 -1.1758 0
M  V30 5520 C 515.309 -0.669172 -2.23706 0
M  V30 5521 C 516.29 0.331835 -1.66832 0
M  V30 5522 O 517.475 0.209988 -1.93061 0
M  V30 5523 C 514.605 -0.0404889 -3.47276 0
M  V30 5524 C 513.559 -0.965983 -4.16957 0
M  V30 5525 C 512.885 -0.201312 -5.34321 0
M  V30 5526 C 514.185 -2.28902 -4.69469 0
M  V30 5527 H 515.879 -1.55639 -2.55767 0
M  V30 5528 H 513.425 -0.749793 -1.22939 0
M  V30 5529 H 515.378 0.237298 -4.20731 0
M  V30 5530 H 514.102 0.881658 -3.14475 0
M  V30 5531 H 512.761 -1.22829 -3.45411 0
M  V30 5532 H 512.409 0.723519 -4.97769 0
M  V30 5533 H 512.109 -0.817968 -5.81879 0
M  V30 5534 H 513.633 0.0692499 -6.10561 0
M  V30 5535 H 515.047 -2.07132 -5.34574 0
M  V30 5536 H 513.444 -2.85942 -5.27596 0
M  V30 5537 H 514.514 -2.92937 -3.86414 0
M  V30 5538 N 515.857 1.33968 -0.830081 0
M  V30 5539 C 517.085 2.0228 -0.434773 0
M  V30 5540 C 517.5 1.62487 0.961419 0
M  V30 5541 O 516.857 0.833849 1.62337 0
M  V30 5542 C 516.908 3.5751 -0.535625 0
M  V30 5543 O 516.629 3.95864 -1.87679 0
M  V30 5544 C 518.13 4.43091 -0.136137 0
M  V30 5545 H 515.35 0.648151 -0.173613 0
M  V30 5546 H 517.894 1.71089 -1.12022 0
M  V30 5547 H 516.049 3.87266 0.101817 0
M  V30 5548 H 516.463 4.9056 -1.85609 0
M  V30 5549 H 517.937 5.51398 -0.257772 0
M  V30 5550 H 518.414 4.29433 0.921076 0
M  V30 5551 H 519.02 4.18677 -0.747662 0
M  V30 5552 N 517.335 0.585699 1.46312 0
M  V30 5553 C 518.583 0.072278 2.01971 0
M  V30 5554 C 518.904 -1.29345 1.45928 0
M  V30 5555 O 518.174 -1.84973 0.645109 0
M  V30 5556 H 516.754 0.023729 0.746623 0
M  V30 5557 H 519.416 0.762155 1.7938 0
M  V30 5558 H 518.512 0.00552767 3.121 0
M  V30 5559 N 518.813 -1.54241 0.323641 0
M  V30 5560 C 519.763 -2.21071 -0.557833 0
M  V30 5561 C 520.747 -1.19126 -1.08157 0
M  V30 5562 O 521.939 -1.44755 -1.01857 0
M  V30 5563 C 519.068 -2.97208 -1.71821 0
M  V30 5564 C 518.154 -4.06491 -1.20936 0
M  V30 5565 N 518.545 -5.04052 -0.420202 0
M  V30 5566 C 516.843 -4.20443 -1.48808 0
M  V30 5567 C 517.544 -5.81516 -0.146413 0
M  V30 5568 N 516.52 -5.38641 -0.732562 0
M  V30 5569 H 520.322 -2.93853 0.0523921 0
M  V30 5570 H 517.836 -1.61883 0.129502 0
M  V30 5571 H 519.833 -3.4357 -2.36146 0
M  V30 5572 H 518.493 -2.25947 -2.33191 0
M  V30 5573 H 519.504 -5.17862 -0.0630401 0
M  V30 5574 H 516.181 -3.60396 -2.10762 0
M  V30 5575 H 517.571 -6.70119 0.488895 0
M  V30 5576 N 520.291 -0.0518155 -1.57515 0
M  V30 5577 C 521.221 0.920283 -2.146 0
M  V30 5578 C 522.202 1.32406 -1.06783 0
M  V30 5579 O 523.387 1.39866 -1.34726 0
M  V30 5580 C 520.517 2.1949 -2.6915 0
M  V30 5581 C 519.471 1.93116 -3.81956 0
M  V30 5582 C 518.797 3.27037 -4.23026 0
M  V30 5583 C 520.097 1.25225 -5.07066 0
M  V30 5584 H 521.791 0.444801 -2.96077 0
M  V30 5585 H 519.337 0.212508 -1.42423 0
M  V30 5586 H 521.29 2.87894 -3.07725 0
M  V30 5587 H 520.014 2.69244 -1.84865 0
M  V30 5588 H 518.673 1.27123 -3.43854 0
M  V30 5589 H 518.321 3.74595 -3.3569 0
M  V30 5590 H 518.021 3.10189 -4.99056 0
M  V30 5591 H 519.545 3.96673 -4.64202 0
M  V30 5592 H 520.959 1.83666 -5.43083 0
M  V30 5593 H 519.356 1.18702 -5.88243 0
M  V30 5594 H 520.426 0.228382 -4.84362 0
M  V30 5595 N 521.769 1.56035 0.221574 0
M  V30 5596 C 523.015 1.79312 0.947372 0
M  V30 5597 C 523.348 0.621453 1.83988 0
M  V30 5598 O 522.623 -0.379287 1.90766 0
M  V30 5599 C 522.906 3.1267 1.78633 0
M  V30 5600 C 522.759 4.40284 0.920312 0
M  V30 5601 C 524.078 3.4247 2.7641 0
M  V30 5602 H 521.197 0.652328 0.342982 0
M  V30 5603 H 523.839 1.88765 0.216244 0
M  V30 5604 H 521.989 3.04741 2.40967 0
M  V30 5605 H 523.661 4.60232 0.313718 0
M  V30 5606 H 521.904 4.33212 0.225734 0
M  V30 5607 H 522.575 5.30033 1.54171 0
M  V30 5608 H 525.051 3.50526 2.24211 0
M  V30 5609 H 523.927 4.3695 3.32213 0
M  V30 5610 H 524.188 2.64635 3.54148 0
M  V30 5611 N 523.247 -0.488276 1.49845 0
M  V30 5612 C 524.18 -1.60651 1.62069 0
M  V30 5613 C 525.158 -1.5568 0.469308 0
M  V30 5614 O 526.342 -1.75553 0.686551 0
M  V30 5615 C 523.469 -2.99197 1.58741 0
M  V30 5616 C 522.515 -3.22385 2.79232 0
M  V30 5617 S 523.348 -3.04133 4.40753 0
M  V30 5618 C 524.504 -4.45052 4.4009 0
M  V30 5619 H 524.737 -1.50039 2.56662 0
M  V30 5620 H 522.27 -0.674371 1.38894 0
M  V30 5621 H 524.228 -3.79081 1.57506 0
M  V30 5622 H 522.889 -3.07213 0.654136 0
M  V30 5623 H 522.082 -4.23557 2.73159 0
M  V30 5624 H 521.684 -2.50245 2.77945 0
M  V30 5625 H 523.976 -5.37375 4.12594 0
M  V30 5626 H 524.919 -4.56172 5.41583 0
M  V30 5627 H 525.327 -4.26327 3.70008 0
M  V30 5628 N 524.725 -1.39134 -0.740242 0
M  V30 5629 C 525.95 -1.39518 -1.53459 0
M  V30 5630 C 526.375 0.00968883 -1.88098 0
M  V30 5631 O 525.733 0.995312 -1.51536 0
M  V30 5632 C 525.781 -2.26981 -2.802 0
M  V30 5633 O 524.885 -1.69609 -3.75908 0
M  V30 5634 H 524.226 -0.475328 -0.463637 0
M  V30 5635 H 526.756 -1.83064 -0.913717 0
M  V30 5636 H 526.766 -2.41309 -3.28989 0
M  V30 5637 H 525.441 -3.29081 -2.5432 0
M  V30 5638 H 524.018 -1.64495 -3.34658 0
M  V30 5639 N 526.204 0.969867 -1.24223 0
M  V30 5640 C 527.432 1.74756 -1.10761 0
M  V30 5641 C 527.847 1.85713 0.340041 0
M  V30 5642 O 527.204 1.34389 1.23474 0
M  V30 5643 C 527.255 3.16915 -1.73917 0
M  V30 5644 O 526.976 3.06511 -3.13021 0
M  V30 5645 C 528.477 4.11032 -1.66036 0
M  V30 5646 H 525.697 0.548092 -0.387087 0
M  V30 5647 H 528.241 1.2178 -1.64286 0
M  V30 5648 H 526.396 3.66884 -1.244 0
M  V30 5649 H 526.81 3.96079 -3.43834 0
M  V30 5650 H 528.284 5.08446 -2.14911 0
M  V30 5651 H 528.761 4.34785 -0.621159 0
M  V30 5652 H 529.367 3.66972 -2.14969 0
M  V30 5653 N 527.682 1.05563 1.17022 0
M  V30 5654 C 528.612 0.681026 2.23348 0
M  V30 5655 C 529.593 -0.322983 1.67005 0
M  V30 5656 O 530.778 -0.199746 1.9317 0
M  V30 5657 C 527.908 0.0589053 3.4725 0
M  V30 5658 C 526.862 0.988082 4.16438 0
M  V30 5659 C 526.188 0.229646 5.34207 0
M  V30 5660 C 527.488 2.31388 4.68249 0
M  V30 5661 H 529.182 1.56993 2.54938 0
M  V30 5662 H 526.728 0.756302 1.2254 0
M  V30 5663 H 528.681 -0.214982 4.20851 0
M  V30 5664 H 527.405 -0.864968 3.14938 0
M  V30 5665 H 526.064 1.24659 3.44754 0
M  V30 5666 H 525.712 -0.697111 4.98146 0
M  V30 5667 H 525.412 0.848815 5.81437 0
M  V30 5668 H 526.936 -0.0368694 6.10589 0
M  V30 5669 H 528.35 2.09964 5.33468 0
M  V30 5670 H 526.747 2.88736 5.26072 0
M  V30 5671 H 527.817 2.94982 3.84855 0
M  V30 5672 N 529.16 -1.33526 0.837174 0
M  V30 5673 C 530.11 -2.2672 0.241269 0
M  V30 5674 C 531.094 -1.49183 -0.602756 0
M  V30 5675 O 532.286 -1.71052 -0.455002 0
M  V30 5676 C 529.415 -3.38294 -0.584125 0
M  V30 5677 C 528.501 -4.23231 0.271315 0
M  V30 5678 N 528.892 -4.87473 1.34922 0
M  V30 5679 C 527.19 -4.45962 0.0580589 0
M  V30 5680 C 527.891 -5.50685 1.87405 0
M  V30 5681 N 526.867 -5.30732 1.17578 0
M  V30 5682 H 530.669 -2.73903 1.06558 0
M  V30 5683 H 528.183 -1.47411 0.68145 0
M  V30 5684 H 530.18 -4.04044 -1.02731 0
M  V30 5685 H 528.84 -2.9266 -1.40643 0
M  V30 5686 H 529.851 -4.88077 1.7321 0
M  V30 5687 H 526.528 -4.11052 -0.730938 0
M  V30 5688 H 527.918 -6.11845 2.77661 0
M  V30 5689 N 530.638 -0.59345 -1.46 0
M  V30 5690 C 531.866 -0.0890934 -2.06708 0
M  V30 5691 C 532.281 1.2205 -1.44046 0
M  V30 5692 O 531.638 1.74029 -0.549551 0
M  V30 5693 C 531.689 0.0720263 -3.61428 0
M  V30 5694 O 531.41 -1.18574 -4.21748 0
M  V30 5695 C 532.911 0.609487 -4.3909 0
M  V30 5696 H 530.131 -0.0623628 -0.668096 0
M  V30 5697 H 532.675 -0.817171 -1.87464 0
M  V30 5698 H 530.83 0.750369 -3.80063 0
M  V30 5699 H 531.244 -1.0064 -5.14754 0
M  V30 5700 H 532.718 0.671363 -5.47902 0
M  V30 5701 H 533.195 1.62878 -4.07882 0
M  V30 5702 H 533.801 -0.03434 -4.25286 0
M  V30 5703 N 532.116 1.54067 -0.331816 0
M  V30 5704 C 533.064 2.26105 0.54582 0
M  V30 5705 C 534.058 1.27816 1.11173 0
M  V30 5706 O 535.264 1.45565 1.05882 0
M  V30 5707 H 531.639 0.726363 0.194683 0
M  V30 5708 H 533.61 2.98282 -0.083931 0
M  V30 5709 C 532.359 3.03814 1.69092 0
M  V30 5710 H 531.682 3.79269 1.26473 0
M  V30 5711 H 533.122 3.57453 2.28043 0
M  V30 5712 C 531.581 2.12606 2.61343 0
M  V30 5713 O 532.111 1.71437 3.6328 0
M  V30 5714 N 530.317 1.77925 2.29763 0
M  V30 5715 H 529.864 2.11602 1.46909 0
M  V30 5716 H 529.822 1.1718 2.91747 0
M  V30 5717 N 533.594 0.0601682 1.57485 0
M  V30 5718 C 534.822 -0.620937 1.97363 0
M  V30 5719 C 535.237 -1.63846 0.938082 0
M  V30 5720 O 534.594 -1.82339 -0.0766578 0
M  V30 5721 C 534.645 -1.29987 3.37321 0
M  V30 5722 O 534.366 -0.323081 4.36907 0
M  V30 5723 C 535.867 -2.06989 3.92008 0
M  V30 5724 H 533.087 -0.169135 0.649334 0
M  V30 5725 H 535.631 0.129132 2.04092 0
M  V30 5726 H 533.786 -2.0011 3.31715 0
M  V30 5727 H 534.2 -0.808754 5.18227 0
M  V30 5728 H 535.674 -2.49901 4.92192 0
M  V30 5729 H 536.151 -2.92173 3.2792 0
M  V30 5730 H 536.757 -1.41757 4.0098 0
M  V30 5731 N 535.072 -1.5615 -0.213296 0
M  V30 5732 C 536.035 -1.92249 -1.24792 0
M  V30 5733 C 537.035 -0.801828 -1.39382 0
M  V30 5734 O 538.225 -1.06948 -1.37506 0
M  V30 5735 C 535.357 -2.18056 -2.62039 0
M  V30 5736 H 536.55 -2.84793 -0.939845 0
M  V30 5737 H 534.103 -1.49559 -0.454062 0
M  V30 5738 H 534.838 -1.2809 -2.97932 0
M  V30 5739 H 534.623 -2.99703 -2.52825 0
M  V30 5740 H 536.113 -2.47051 -3.36683 0
M  V30 5741 N 536.55 0.480323 -1.50102 0
M  V30 5742 C 537.796 1.23489 -1.60867 0
M  V30 5743 C 538.129 1.91809 -0.303827 0
M  V30 5744 O 537.404 1.81694 0.694092 0
M  V30 5745 C 537.687 2.28578 -2.78252 0
M  V30 5746 C 537.54 1.64624 -4.18592 0
M  V30 5747 C 538.859 3.2997 -2.91218 0
M  V30 5748 H 535.978 0.447605 -0.585507 0
M  V30 5749 H 538.62 0.530005 -1.82458 0
M  V30 5750 H 536.77 2.88697 -2.59974 0
M  V30 5751 H 538.442 1.08173 -4.48438 0
M  V30 5752 H 536.685 0.949645 -4.23278 0
M  V30 5753 H 537.356 2.40946 -4.96638 0
M  V30 5754 H 539.832 2.79864 -3.07921 0
M  V30 5755 H 538.708 4.00839 -3.74993 0
M  V30 5756 H 538.969 3.93541 -2.0144 0
M  V30 5757 N 538.028 1.39524 0.732853 0
M  V30 5758 C 539.276 1.36594 1.48951 0
M  V30 5759 C 539.597 -0.0367507 1.94965 0
M  V30 5760 O 538.867 -0.988391 1.69138 0
M  V30 5761 H 537.447 0.502673 0.552566 0
M  V30 5762 H 540.109 1.74411 0.869869 0
M  V30 5763 H 539.205 2.03 2.3706 0
M  V30 5764 N 539.506 -0.963266 1.24736 0
M  V30 5765 C 540.469 -2.04013 1.04457 0
M  V30 5766 C 541.469 -1.608 0.000335555 0
M  V30 5767 O 542.659 -1.72515 0.241719 0
M  V30 5768 C 539.791 -3.35858 0.584162 0
M  V30 5769 H 540.984 -2.23436 2.00041 0
M  V30 5770 H 538.537 -1.13914 1.07021 0
M  V30 5771 H 539.272 -3.22128 -0.374673 0
M  V30 5772 H 539.057 -3.68568 1.3379 0
M  V30 5773 H 540.547 -4.1502 0.463451 0
M  V30 5774 N 540.985 -1.06182 -1.16461 0
M  V30 5775 C 542.231 -0.779015 -1.87241 0
M  V30 5776 C 542.564 0.692715 -1.81425 0
M  V30 5777 O 541.839 1.5074 -1.22913 0
M  V30 5778 C 542.122 -1.2728 -3.36856 0
M  V30 5779 C 541.975 -2.80821 -3.51368 0
M  V30 5780 C 543.294 -0.879799 -4.31216 0
M  V30 5781 H 540.413 -0.284464 -0.679889 0
M  V30 5782 H 543.055 -1.31755 -1.36896 0
M  V30 5783 H 541.205 -0.814673 -3.79862 0
M  V30 5784 H 542.877 -3.34833 -3.17308 0
M  V30 5785 H 541.12 -3.19606 -2.93316 0
M  V30 5786 H 541.791 -3.10435 -4.56436 0
M  V30 5787 H 544.267 -1.27436 -3.96105 0
M  V30 5788 H 543.143 -1.25278 -5.34412 0
M  V30 5789 H 543.404 0.215372 -4.41575 0
M  V30 5790 N 542.463 1.3308 -0.844243 0
M  V30 5791 C 543.691 2.01808 -0.456203 0
M  V30 5792 C 544.106 1.63498 0.944131 0
M  V30 5793 O 543.463 0.85102 1.61443 0
M  V30 5794 C 543.514 3.56922 -0.573513 0
M  V30 5795 O 543.235 3.93851 -1.91868 0
M  V30 5796 C 544.736 4.42922 -0.183125 0
M  V30 5797 H 541.956 0.646273 -0.180477 0
M  V30 5798 H 544.5 1.69891 -1.1383 0
M  V30 5799 H 542.655 3.87352 0.0607367 0
M  V30 5800 H 543.069 4.88564 -1.90802 0
M  V30 5801 H 544.543 5.51093 -0.316241 0
M  V30 5802 H 545.02 4.30386 0.875477 0
M  V30 5803 H 545.626 4.1786 -0.792027 0
M  V30 5804 N 543.941 0.601185 1.45683 0
M  V30 5805 C 545.357 0.264315 1.57396 0
M  V30 5806 C 545.557 -1.23324 1.59353 0
M  V30 5807 O 544.613 -2.01594 1.52039 0
M  V30 5808 C 545.926 0.929839 2.85962 0
M  V30 5809 C 547.474 0.905156 2.99626 0
M  V30 5810 C 547.949 1.55057 4.30954 0
M  V30 5811 N 549.44 1.51576 4.37697 0
M  V30 5812 C 550.175 1.98436 5.37969 0
M  V30 5813 N 549.671 2.53352 6.44813 0
M  V30 5814 N 551.464 1.89242 5.29286 0
M  V30 5815 H 543.615 1.57363 1.42656 0
M  V30 5816 H 545.878 0.658831 0.681649 0
M  V30 5817 H 545.584 1.98404 2.90394 0
M  V30 5818 H 545.458 0.449224 3.74515 0
M  V30 5819 H 547.845 -0.14048 2.94765 0
M  V30 5820 H 547.926 1.42397 2.12501 0
M  V30 5821 H 547.57 2.5955 4.36573 0
M  V30 5822 H 547.5 1.00682 5.16886 0
M  V30 5823 H 549.991 1.11452 3.61091 0
M  V30 5824 H 550.304 2.86918 7.17564 0
M  V30 5825 H 548.649 2.57388 6.45582 0
M  V30 5826 H 551.84 1.46083 4.44722 0
M  V30 5827 H 552.013 2.26075 6.07284 0
M  V30 5828 N 545.419 -1.53889 0.339982 0
M  V30 5829 C 546.349 -2.27843 -0.510856 0
M  V30 5830 C 547.33 -1.29267 -1.10563 0
M  V30 5831 O 548.515 -1.58104 -1.12768 0
M  V30 5832 C 545.645 -3.04857 -1.66372 0
M  V30 5833 C 544.599 -4.10907 -1.19746 0
M  V30 5834 C 543.925 -4.75855 -2.43857 0
M  V30 5835 C 545.225 -5.21435 -0.300501 0
M  V30 5836 H 546.919 -2.99212 0.106067 0
M  V30 5837 H 544.465 -1.43904 0.0524533 0
M  V30 5838 H 546.418 -3.5533 -2.26537 0
M  V30 5839 H 545.142 -2.31133 -2.30749 0
M  V30 5840 H 543.801 -3.61342 -0.618654 0
M  V30 5841 H 543.449 -3.9873 -3.06633 0
M  V30 5842 H 543.149 -5.47502 -2.13343 0
M  V30 5843 H 544.673 -5.2911 -3.04754 0
M  V30 5844 H 546.087 -5.67565 -0.80889 0
M  V30 5845 H 544.484 -6.00036 -0.0874076 0
M  V30 5846 H 545.554 -4.80328 0.664321 0
M  V30 5847 N 546.897 -0.0685191 -1.57451 0
M  V30 5848 C 548.313 0.288101 -1.56978 0
M  V30 5849 C 548.513 1.70262 -1.07765 0
M  V30 5850 O 547.569 2.4135 -0.742054 0
M  V30 5851 C 548.882 0.100745 -3.00531 0
M  V30 5852 C 550.43 0.170531 -3.12535 0
M  V30 5853 C 550.905 0.0114944 -4.57999 0
M  V30 5854 N 552.396 0.0672065 -4.63151 0
M  V30 5855 C 553.131 -0.0314813 -5.73391 0
M  V30 5856 N 552.627 -0.183503 -6.92557 0
M  V30 5857 N 554.42 0.0253489 -5.62094 0
M  V30 5858 H 546.571 -0.993026 -1.87757 0
M  V30 5859 H 548.834 -0.386981 -0.865419 0
M  V30 5860 H 548.54 -0.875197 -3.40636 0
M  V30 5861 H 548.414 0.854457 -3.67395 0
M  V30 5862 H 550.801 1.13696 -2.72318 0
M  V30 5863 H 550.882 -0.614229 -2.48316 0
M  V30 5864 H 550.526 -0.951684 -4.98904 0
M  V30 5865 H 550.456 0.815617 -5.20245 0
M  V30 5866 H 552.947 0.183246 -3.77455 0
M  V30 5867 H 553.26 -0.251041 -7.72392 0
M  V30 5868 H 551.605 -0.218822 -6.94655 0
M  V30 5869 H 554.796 0.142794 -4.67882 0
M  V30 5870 H 554.969 -0.0550166 -6.47977 0
M  V30 5871 N 548.375 1.56261 0.205012 0
M  V30 5872 C 549.652 1.70856 0.952233 0
M  V30 5873 C 550.032 0.620501 2.01775 0
M  V30 5874 O 549.38 -0.370035 2.25484 0
M  V30 5875 C 549.59 3.12807 1.54767 0
M  V30 5876 C 550.938 3.72733 2.0336 0
M  V30 5877 O 551.962 3.15873 1.64629 0
M  V30 5878 O 550.821 4.72501 2.746 0
M  V30 5879 H 547.915 0.696496 0.445895 0
M  V30 5880 H 550.461 1.6857 0.195489 0
M  V30 5881 H 549.233 3.83465 0.779132 0
M  V30 5882 H 548.856 3.1928 2.36951 0
M  V30 5883 N 549.853 -0.472356 1.50355 0
M  V30 5884 C 550.786 -1.58923 1.63764 0
M  V30 5885 C 551.764 -1.55173 0.485793 0
M  V30 5886 O 552.948 -1.74815 0.705132 0
M  V30 5887 C 550.075 -2.97497 1.61905 0
M  V30 5888 C 549.121 -3.19405 2.82635 0
M  V30 5889 S 549.954 -2.99441 4.43954 0
M  V30 5890 C 551.11 -4.40359 4.44786 0
M  V30 5891 H 551.343 -1.47309 2.58239 0
M  V30 5892 H 548.876 -0.659601 1.39602 0
M  V30 5893 H 550.834 -3.77389 1.61518 0
M  V30 5894 H 549.495 -3.06502 0.686683 0
M  V30 5895 H 548.688 -4.20636 2.77636 0
M  V30 5896 H 548.29 -2.47283 2.80583 0
M  V30 5897 H 550.582 -5.32969 4.1827 0
M  V30 5898 H 551.525 -4.50403 5.46391 0
M  V30 5899 H 551.933 -4.22378 3.74509 0
M  V30 5900 N 551.331 -1.39911 -0.725443 0
M  V30 5901 C 552.579 -1.37382 -1.48224 0
M  V30 5902 C 552.9 0.0264107 -1.94982 0
M  V30 5903 O 552.17 0.979408 -1.6966 0
M  V30 5904 H 550.75 -0.505596 -0.549892 0
M  V30 5905 H 553.412 -1.7487 -0.860608 0
M  V30 5906 H 552.508 -2.04254 -2.3598 0
M  V30 5907 N 552.809 0.956637 -1.25245 0
M  V30 5908 C 554.058 1.69537 -1.0927 0
M  V30 5909 C 554.371 1.92136 0.366503 0
M  V30 5910 O 555.577 2.63687 0.64665 0
M  V30 5911 C 554.033 3.05211 -1.9072 0
M  V30 5912 C 553.641 2.90416 -3.41119 0
M  V30 5913 C 555.385 3.82882 -1.83308 0
M  V30 5914 C 553.292 4.21468 -4.14872 0
M  V30 5915 H 552.222 0.635804 -0.405302 0
M  V30 5916 H 554.873 1.06513 -1.49423 0
M  V30 5917 H 553.255 3.69128 -1.43389 0
M  V30 5918 H 554.429 2.35444 -3.9611 0
M  V30 5919 H 552.744 2.26203 -3.49602 0
M  V30 5920 H 555.341 4.79944 -2.35706 0
M  V30 5921 H 555.684 4.0853 -0.800572 0
M  V30 5922 H 556.217 3.25711 -2.28379 0
M  V30 5923 H 552.956 4.01009 -5.18529 0
M  V30 5924 H 552.476 4.76213 -3.64665 0
M  V30 5925 H 554.155 4.90022 -4.22478 0
M  V30 5926 N 554.287 1.06798 1.15896 0
M  V30 5927 C 555.197 0.694564 2.24083 0
M  V30 5928 C 556.213 -0.291687 1.71538 0
M  V30 5929 O 557.389 -0.139723 2.00915 0
M  V30 5930 C 554.454 0.0921014 3.46578 0
M  V30 5931 C 553.515 1.13087 4.14137 0
M  V30 5932 C 552.748 0.557064 5.30785 0
M  V30 5933 O 552.971 -0.628623 5.66925 0
M  V30 5934 O 551.905 1.29924 5.8771 0
M  V30 5935 H 555.731 1.59663 2.58344 0
M  V30 5936 H 553.316 0.840575 1.2351 0
M  V30 5937 H 555.198 -0.241884 4.20705 0
M  V30 5938 H 553.873 -0.78337 3.14078 0
M  V30 5939 H 552.78 1.51712 3.41957 0
M  V30 5940 H 554.113 1.97805 4.50704 0
M  V30 5941 N 555.766 -1.3263 0.851289 0
M  V30 5942 C 557.177 -1.79653 0.5081 0
M  V30 5943 C 557.528 -1.70327 -0.973815 0
M  V30 5944 O 556.653 -1.25986 -1.75944 0
M  V30 5945 C 557.248 -3.26196 0.915515 0
M  V30 5946 C 555.807 -3.71187 0.624277 0
M  V30 5947 C 554.954 -2.53804 1.11709 0
M  V30 5948 H 557.905 -1.19976 1.03882 0
M  V30 5949 H 557.926 -3.79801 0.230535 0
M  V30 5950 H 557.438 -3.32952 1.99411 0
M  V30 5951 H 555.539 -3.69948 -0.443737 0
M  V30 5952 H 555.652 -4.64132 1.18821 0
M  V30 5953 H 554.016 -2.48964 0.537484 0
M  V30 5954 H 554.799 -2.63315 2.20272 0
M  V30 5955 N 557.244 -0.608902 -1.45362 0
M  V30 5956 C 558.491 -0.104607 -2.0223 0
M  V30 5957 C 558.819 1.26534 -1.47714 0
M  V30 5958 O 558.074 1.84855 -0.642435 0
M  V30 5959 C 558.373 -0.0167296 -3.57396 0
M  V30 5960 C 558.039 -1.32251 -4.31069 0
M  V30 5961 C 556.701 -1.68019 -4.50914 0
M  V30 5962 C 559.053 -2.18542 -4.73169 0
M  V30 5963 C 556.381 -2.89828 -5.10114 0
M  V30 5964 C 558.733 -3.39602 -5.33717 0
M  V30 5965 C 557.397 -3.7562 -5.51784 0
M  V30 5966 H 556.667 -0.0382785 -0.740011 0
M  V30 5967 H 559.314 -0.790782 -1.7441 0
M  V30 5968 H 557.619 0.752715 -3.84502 0
M  V30 5969 H 559.316 0.389634 -3.99103 0
M  V30 5970 H 555.906 -1.03411 -4.15938 0
M  V30 5971 H 560.09 -1.92208 -4.5757 0
M  V30 5972 H 555.346 -3.17839 -5.22291 0
M  V30 5973 H 559.52 -4.06716 -5.65292 0
M  V30 5974 H 557.147 -4.70093 -5.97425 0
M  V30 5975 N 558.722 1.53707 -0.348139 0
M  V30 5976 C 559.652 2.28111 0.498766 0
M  V30 5977 C 560.633 1.29851 1.09876 0
M  V30 5978 O 561.818 1.587 1.11928 0
M  V30 5979 C 558.948 3.05735 1.64753 0
M  V30 5980 C 557.902 4.11537 1.17565 0
M  V30 5981 C 557.228 4.77142 2.4133 0
M  V30 5982 C 558.528 5.21587 0.272844 0
M  V30 5983 H 560.222 2.99152 -0.121934 0
M  V30 5984 H 557.768 1.43875 -0.0600842 0
M  V30 5985 H 559.721 3.56526 2.24649 0
M  V30 5986 H 558.445 2.32354 2.2952 0
M  V30 5987 H 557.104 3.61665 0.599483 0
M  V30 5988 H 556.752 4.0035 3.04514 0
M  V30 5989 H 556.452 5.48626 2.10436 0
M  V30 5990 H 557.976 5.30719 3.01943 0
M  V30 5991 H 559.39 5.67986 0.778779 0
M  V30 5992 H 557.787 6.00074 0.0555849 0
M  V30 5993 H 558.857 4.79969 -0.689785 0
M  V30 5994 N 560.2 0.0768682 1.57412 0
M  V30 5995 C 561.449 -0.590679 1.92857 0
M  V30 5996 C 561.762 -1.70461 0.959293 0
M  V30 5997 O 562.968 -2.43207 1.20675 0
M  V30 5998 C 561.424 -1.10204 3.42612 0
M  V30 5999 C 561.032 -0.0188447 4.47996 0
M  V30 6000 C 562.776 -1.74336 3.87049 0
M  V30 6001 C 560.683 -0.544536 5.88888 0
M  V30 6002 H 559.613 -0.224411 0.71983 0
M  V30 6003 H 562.264 0.149924 1.82887 0
M  V30 6004 H 560.646 -1.89577 3.47673 0
M  V30 6005 H 561.82 0.755936 4.54557 0
M  V30 6006 H 560.135 0.526555 4.13057 0
M  V30 6007 H 562.732 -2.14708 4.89699 0
M  V30 6008 H 563.075 -2.60537 3.24694 0
M  V30 6009 H 563.608 -1.01577 3.84613 0
M  V30 6010 H 560.347 0.280426 6.549 0
M  V30 6011 H 559.867 -1.28673 5.85836 0
M  V30 6012 H 561.546 -1.01933 6.3892 0
M  V30 6013 N 561.678 -1.56367 -0.196722 0
M  V30 6014 C 562.903 -1.84991 -0.937714 0
M  V30 6015 C 563.328 -0.660244 -1.76132 0
M  V30 6016 O 562.686 0.390967 -1.77034 0
M  V30 6017 C 562.734 -3.11828 -1.81096 0
M  V30 6018 O 561.838 -2.92266 -2.90955 0
M  V30 6019 H 561.179 -0.609193 -0.264159 0
M  V30 6020 H 563.709 -2.03595 -0.202529 0
M  V30 6021 H 563.719 -3.42579 -2.21594 0
M  V30 6022 H 562.394 -3.98037 -1.2058 0
M  V30 6023 H 560.971 -2.72809 -2.54224 0
M  V30 6024 N 563.156 0.464375 -1.50603 0
M  V30 6025 C 564.381 1.24372 -1.65971 0
M  V30 6026 C 564.806 1.84901 -0.345453 0
M  V30 6027 O 564.164 1.67596 0.691457 0
M  V30 6028 C 564.212 2.32331 -2.7578 0
M  V30 6029 O 563.316 3.37146 -2.375 0
M  V30 6030 H 562.657 0.365604 -0.554283 0
M  V30 6031 H 565.187 0.55183 -1.97018 0
M  V30 6032 H 565.197 2.77539 -2.99059 0
M  V30 6033 H 563.872 1.87648 -3.71162 0
M  V30 6034 H 562.449 2.97602 -2.24694 0
M  V30 6035 N 564.634 1.40294 0.718013 0
M  V30 6036 C 565.859 1.41941 1.5122 0
M  V30 6037 C 566.284 0.0202371 1.88089 0
M  V30 6038 O 565.642 -0.971078 1.53101 0
M  V30 6039 C 565.69 2.3141 2.76554 0
M  V30 6040 O 564.794 1.75567 3.73162 0
M  V30 6041 H 564.135 0.482644 0.456016 0
M  V30 6042 H 566.665 1.84494 0.884478 0
M  V30 6043 H 566.675 2.46513 3.25108 0
M  V30 6044 H 565.35 3.33085 2.49053 0
M  V30 6045 H 563.927 1.69798 3.31999 0
M  V30 6046 N 566.112 -0.949982 1.2575 0
M  V30 6047 C 567.042 -2.06483 1.09028 0
M  V30 6048 C 568.023 -1.701 -0.00201532 0
M  V30 6049 O 569.208 -1.93469 0.168383 0
M  V30 6050 C 566.338 -3.39899 0.71316 0
M  V30 6051 C 565.292 -3.90309 1.75621 0
M  V30 6052 C 564.618 -5.20274 1.23365 0
M  V30 6053 C 565.918 -4.16169 3.15596 0
M  V30 6054 H 567.612 -2.20731 2.02283 0
M  V30 6055 H 565.158 -1.06066 0.973964 0
M  V30 6056 H 567.111 -4.17346 0.58309 0
M  V30 6057 H 565.835 -3.25602 -0.255091 0
M  V30 6058 H 564.494 -3.15035 1.8748 0
M  V30 6059 H 564.142 -5.02351 0.255491 0
M  V30 6060 H 563.842 -5.54971 1.93082 0
M  V30 6061 H 565.366 -6.00314 1.11607 0
M  V30 6062 H 566.78 -4.84259 3.06864 0
M  V30 6063 H 565.177 -4.62131 3.82825 0
M  V30 6064 H 566.247 -3.22273 3.6231 0
M  V30 6065 N 567.59 -1.07411 -1.15328 0
M  V30 6066 C 568.52 -0.716472 -2.22236 0
M  V30 6067 C 569.501 0.296373 -1.67498 0
M  V30 6068 O 570.686 0.168989 -1.93463 0
M  V30 6069 C 567.816 -0.114142 -3.47112 0
M  V30 6070 C 566.77 -1.05421 -4.14814 0
M  V30 6071 C 566.096 -0.314604 -5.33774 0
M  V30 6072 C 567.396 -2.38808 -4.64508 0
M  V30 6073 H 569.09 -1.61029 -2.52408 0
M  V30 6074 H 566.636 -0.775702 -1.21321 0
M  V30 6075 H 568.589 0.148001 -4.2114 0
M  V30 6076 H 567.313 0.814755 -3.16274 0
M  V30 6077 H 565.972 -1.30128 -3.42728 0
M  V30 6078 H 565.62 0.617772 -4.99192 0
M  V30 6079 H 565.32 -0.941209 -5.80013 0
M  V30 6080 H 566.844 -0.0602747 -6.1057 0
M  V30 6081 H 568.258 -2.18424 -5.3006 0
M  V30 6082 H 566.655 -2.97069 -5.21412 0
M  V30 6083 H 567.725 -3.01067 -3.80114 0
M  V30 6084 N 569.068 1.32177 -0.85831 0
M  V30 6085 C 570.316 1.96735 -0.462568 0
M  V30 6086 C 570.637 1.6824 0.985911 0
M  V30 6087 O 569.907 0.991564 1.68952 0
M  V30 6088 H 568.487 0.727849 -0.168064 0
M  V30 6089 H 571.149 1.61195 -1.09554 0
M  V30 6090 H 570.245 3.06068 -0.610647 0
M  V30 6091 N 570.547 0.616602 1.45037 0
M  V30 6092 C 571.793 0.115501 2.02471 0
M  V30 6093 C 572.126 -1.25406 1.4828 0
M  V30 6094 O 571.401 -1.82922 0.661051 0
M  V30 6095 C 571.684 0.0863588 3.59996 0
M  V30 6096 C 571.537 1.48723 4.24501 0
M  V30 6097 C 572.856 -0.596762 4.36035 0
M  V30 6098 H 569.975 0.0434461 0.735718 0
M  V30 6099 H 572.617 0.7903 1.72784 0
M  V30 6100 H 570.767 -0.488277 3.85419 0
M  V30 6101 H 572.439 2.10964 4.10234 0
M  V30 6102 H 570.682 2.04534 3.82555 0
M  V30 6103 H 571.353 1.419 5.3345 0
M  V30 6104 H 573.829 -0.10824 4.15959 0
M  V30 6105 H 572.705 -0.586289 5.4576 0
M  V30 6106 H 572.966 -1.66451 4.09569 0
M  V30 6107 N 572.025 -1.5352 0.356285 0
M  V30 6108 C 572.955 -2.28372 -0.486661 0
M  V30 6109 C 573.936 -1.30432 -1.09185 0
M  V30 6110 O 575.121 -1.59291 -1.11085 0
M  V30 6111 C 572.251 -3.06604 -1.63129 0
M  V30 6112 C 571.205 -4.12154 -1.15381 0
M  V30 6113 C 570.531 -4.78415 -2.38796 0
M  V30 6114 C 571.831 -5.21724 -0.245179 0
M  V30 6115 H 573.525 -2.99083 0.137797 0
M  V30 6116 H 571.071 -1.43841 0.0677134 0
M  V30 6117 H 573.024 -3.57712 -2.22755 0
M  V30 6118 H 571.748 -2.33568 -2.28284 0
M  V30 6119 H 570.407 -3.61978 -0.580294 0
M  V30 6120 H 570.055 -4.01959 -3.02387 0
M  V30 6121 H 569.755 -5.49734 -2.07524 0
M  V30 6122 H 571.279 -5.32313 -2.99125 0
M  V30 6123 H 572.693 -5.68391 -0.748646 0
M  V30 6124 H 571.09 -6.00095 -0.0237608 0
M  V30 6125 H 572.16 -4.79596 0.715229 0
M  V30 6126 N 573.503 -0.0852151 -1.57369 0
M  V30 6127 C 574.466 0.8627 -2.12344 0
M  V30 6128 C 575.466 1.21746 -1.05046 0
M  V30 6129 O 576.656 1.14852 -1.30976 0
M  V30 6130 C 573.788 2.1618 -2.63589 0
M  V30 6131 H 574.981 0.385511 -2.97412 0
M  V30 6132 H 572.534 0.163663 -1.55441 0
M  V30 6133 H 573.269 2.68406 -1.82013 0
M  V30 6134 H 573.054 1.91723 -3.4203 0
M  V30 6135 H 574.544 2.84011 -3.06149 0
M  V30 6136 N 574.981 1.5647 0.188427 0
M  V30 6137 C 575.913 1.91611 1.25769 0
M  V30 6138 C 576.926 0.807436 1.41366 0
M  V30 6139 O 578.115 1.08586 1.41673 0
M  V30 6140 C 575.215 2.13874 2.6289 0
M  V30 6141 C 574.388 3.45047 2.68815 0
M  V30 6142 C 573.447 3.56342 3.87178 0
M  V30 6143 O 572.473 4.29109 3.73971 0
M  V30 6144 N 573.675 2.89924 5.02916 0
M  V30 6145 H 576.44 2.8393 0.959373 0
M  V30 6146 H 574.001 1.57418 0.378306 0
M  V30 6147 H 575.993 2.18713 3.4051 0
M  V30 6148 H 574.563 1.28022 2.85183 0
M  V30 6149 H 573.783 3.52017 1.77419 0
M  V30 6150 H 575.071 4.31395 2.6977 0
M  V30 6151 H 574.469 2.30644 5.16546 0
M  V30 6152 H 573.026 3.0038 5.78459 0
M  V30 6153 N 576.459 -0.456382 1.50847 0
M  V30 6154 C 577.875 -0.791345 1.386 0
M  V30 6155 C 578.075 -1.9633 0.453498 0
M  V30 6156 O 577.131 -2.52308 -0.0984353 0
M  V30 6157 C 578.444 -1.08959 2.80265 0
M  V30 6158 C 579.992 -1.19517 2.89283 0
M  V30 6159 C 580.467 -1.52647 4.31814 0
M  V30 6160 N 581.958 -1.59609 4.34832 0
M  V30 6161 C 582.693 -1.86777 5.42127 0
M  V30 6162 N 582.189 -2.11866 6.59609 0
M  V30 6163 N 583.982 -1.88402 5.29586 0
M  V30 6164 H 576.133 0.315746 2.1004 0
M  V30 6165 H 578.396 0.0787916 0.94472 0
M  V30 6166 H 578.102 -0.301355 3.50407 0
M  V30 6167 H 577.976 -2.02211 3.18419 0
M  V30 6168 H 580.363 -1.97406 2.19351 0
M  V30 6169 H 580.444 -0.242111 2.54652 0
M  V30 6170 H 580.088 -0.752922 5.02288 0
M  V30 6171 H 580.018 -2.49127 4.63943 0
M  V30 6172 H 582.509 -1.42201 3.50125 0
M  V30 6173 H 582.822 -2.31912 7.37182 0
M  V30 6174 H 581.167 -2.09228 6.62758 0
M  V30 6175 H 584.358 -1.68307 4.36795 0
M  V30 6176 H 584.531 -2.09238 6.13289 0
M  V30 6177 N 577.937 -1.40673 -0.710563 0
M  V30 6178 C 578.867 -1.44095 -1.83736 0
M  V30 6179 C 579.848 -0.301286 -1.67411 0
M  V30 6180 O 581.033 -0.510618 -1.87367 0
M  V30 6181 C 578.163 -1.30773 -3.21738 0
M  V30 6182 C 577.117 -2.42395 -3.52745 0
M  V30 6183 C 576.443 -2.14147 -4.89944 0
M  V30 6184 C 577.743 -3.84738 -3.53234 0
M  V30 6185 H 579.437 -2.38396 -1.81129 0
M  V30 6186 H 576.983 -1.14746 -0.870017 0
M  V30 6187 H 578.936 -1.31783 -4.00264 0
M  V30 6188 H 577.66 -0.329507 -3.24934 0
M  V30 6189 H 576.319 -2.40643 -2.76562 0
M  V30 6190 H 575.967 -1.14703 -4.89747 0
M  V30 6191 H 575.667 -2.88934 -5.11655 0
M  V30 6192 H 577.191 -2.16848 -5.70797 0
M  V30 6193 H 578.605 -3.88286 -4.2179 0
M  V30 6194 H 577.002 -4.59085 -3.86473 0
M  V30 6195 H 578.072 -4.13962 -2.52514 0
M  V30 6196 N 579.415 0.9433 -1.26252 0
M  V30 6197 C 580.661 1.69175 -1.11837 0
M  V30 6198 C 580.994 1.91238 0.337891 0
M  V30 6199 O 580.269 1.49152 1.24836 0
M  V30 6200 C 580.552 3.06783 -1.88563 0
M  V30 6201 C 580.405 2.9206 -3.42083 0
M  V30 6202 C 581.724 4.06865 -1.67776 0
M  V30 6203 H 578.843 0.61399 -0.407658 0
M  V30 6204 H 581.485 1.09572 -1.55222 0
M  V30 6205 H 579.635 3.57663 -1.51689 0
M  V30 6206 H 581.307 2.48419 -3.88698 0
M  V30 6207 H 579.55 2.27731 -3.69217 0
M  V30 6208 H 580.221 3.89651 -3.90994 0
M  V30 6209 H 582.697 3.64939 -1.99897 0
M  V30 6210 H 581.573 5.01168 -2.23879 0
M  V30 6211 H 581.834 4.37705 -0.621816 0
M  V30 6212 N 580.893 1.08022 1.14757 0
M  V30 6213 C 582.309 0.807072 1.3769 0
M  V30 6214 C 582.509 -0.585504 1.92806 0
M  V30 6215 O 581.565 -1.34301 2.13821 0
M  V30 6216 C 582.878 1.88651 2.34161 0
M  V30 6217 C 584.426 1.91206 2.47809 0
M  V30 6218 C 584.901 2.98253 3.47576 0
M  V30 6219 N 586.392 2.974 3.55117 0
M  V30 6220 C 587.127 3.76872 4.32152 0
M  V30 6221 N 586.623 4.66212 5.12463 0
M  V30 6222 N 588.416 3.6519 4.27309 0
M  V30 6223 H 580.567 1.97824 0.77326 0
M  V30 6224 H 582.83 0.85826 0.402608 0
M  V30 6225 H 582.536 2.88749 2.00791 0
M  V30 6226 H 582.41 1.75244 3.3402 0
M  V30 6227 H 584.797 0.917564 2.80472 0
M  V30 6228 H 584.878 2.08691 1.47925 0
M  V30 6229 H 584.522 3.97907 3.15646 0
M  V30 6230 H 584.452 2.78014 4.47231 0
M  V30 6231 H 586.943 2.32643 2.97801 0
M  V30 6232 H 587.256 5.23468 5.68508 0
M  V30 6233 H 585.601 4.70257 5.11745 0
M  V30 6234 H 588.792 2.94765 3.63636 0
M  V30 6235 H 588.965 4.27366 4.87095 0
M  V30 6236 N 582.371 -1.3172 0.865308 0
M  V30 6237 C 583.599 -2.01057 0.488251 0
M  V30 6238 C 584.014 -1.64979 -0.918 0
M  V30 6239 O 583.371 -0.876597 -1.60069 0
M  V30 6240 C 583.422 -3.55964 0.630224 0
M  V30 6241 O 583.143 -3.90749 1.98109 0
M  V30 6242 C 584.644 -4.42574 0.253567 0
M  V30 6243 H 581.864 -0.64332 0.190736 0
M  V30 6244 H 584.408 -1.68058 1.16519 0
M  V30 6245 H 582.563 -3.874 0.000895422 0
M  V30 6246 H 582.977 -4.85467 1.9855 0
M  V30 6247 H 584.451 -5.50521 0.403875 0
M  V30 6248 H 584.928 -4.31724 -0.806895 0
M  V30 6249 H 585.534 -4.16547 0.858404 0
M  V30 6250 N 583.85 -0.624285 -1.44708 0
M  V30 6251 C 584.779 0.0717025 -2.3339 0
M  V30 6252 C 585.76 0.841814 -1.47809 0
M  V30 6253 O 586.946 0.809056 -1.76544 0
M  V30 6254 C 584.076 1.05852 -3.30776 0
M  V30 6255 C 583.029 0.400503 -4.26122 0
M  V30 6256 C 582.356 1.49674 -5.13324 0
M  V30 6257 C 583.656 -0.688924 -5.17737 0
M  V30 6258 H 585.35 -0.668819 -2.91834 0
M  V30 6259 H 582.896 -0.32308 -1.40329 0
M  V30 6260 H 584.849 1.5541 -3.91696 0
M  V30 6261 H 583.572 1.82984 -2.70526 0
M  V30 6262 H 582.231 -0.0743687 -3.66525 0
M  V30 6263 H 581.88 2.25877 -4.49431 0
M  V30 6264 H 581.58 1.06188 -5.77926 0
M  V30 6265 H 583.104 1.99427 -5.77115 0
M  V30 6266 H 584.518 -0.276724 -5.72632 0
M  V30 6267 H 582.915 -1.04652 -5.90904 0
M  V30 6268 H 583.985 -1.55884 -4.5916 0
M  V30 6269 N 585.328 1.53329 -0.364422 0
M  V30 6270 C 586.568 2.0315 0.22572 0
M  V30 6271 C 586.932 1.24589 1.46087 0
M  V30 6272 O 588.133 1.64411 2.12656 0
M  V30 6273 C 586.404 3.53718 0.511663 0
M  V30 6274 S 587.963 4.25412 1.07564 0
M  V30 6275 H 584.781 0.70795 0.0657843 0
M  V30 6276 H 587.383 1.88811 -0.507019 0
M  V30 6277 H 586.087 4.08497 -0.394784 0
M  V30 6278 H 585.618 3.72217 1.27351 0
M  V30 6279 H 587.633 4.36486 2.35997 0
M  V30 6280 N 586.806 0.0935595 1.57322 0
M  V30 6281 C 588.217 -0.435807 1.81542 0
M  V30 6282 C 588.568 -1.68263 1.00907 0
M  V30 6283 O 587.693 -2.15087 0.237983 0
M  V30 6284 C 588.288 -0.797436 3.29282 0
M  V30 6285 C 586.847 -1.27155 3.54272 0
M  V30 6286 C 585.994 -0.267455 2.76007 0
M  V30 6287 H 588.945 0.31902 1.5546 0
M  V30 6288 H 588.966 -1.6571 3.42521 0
M  V30 6289 H 588.478 0.110206 3.87943 0
M  V30 6290 H 586.579 -2.19696 3.00939 0
M  V30 6291 H 586.692 -1.23445 4.62923 0
M  V30 6292 H 585.056 -0.749282 2.43429 0
M  V30 6293 H 585.839 0.632839 3.37417 0
M  V30 6294 N 588.284 -1.56567 -0.180126 0
M  V30 6295 C 589.561 -1.7235 -0.924931 0
M  V30 6296 C 589.941 -0.652523 -2.00762 0
M  V30 6297 O 589.289 0.334115 -2.26044 0
M  V30 6298 C 589.499 -3.1523 -1.49771 0
M  V30 6299 C 590.847 -3.75921 -1.97405 0
M  V30 6300 O 591.871 -3.18452 -1.59583 0
M  V30 6301 O 590.73 -4.7681 -2.67048 0
M  V30 6302 H 587.824 -0.703502 -0.434758 0
M  V30 6303 H 590.37 -1.6886 -0.168647 0
M  V30 6304 H 589.142 -3.84656 -0.718027 0
M  V30 6305 H 588.765 -3.23009 -2.31842 0
M  V30 6306 N 589.762 0.448376 -1.51087 0
M  V30 6307 C 591.002 1.20832 -1.64861 0
M  V30 6308 C 591.366 1.88748 -0.351873 0
M  V30 6309 O 592.567 2.66307 -0.365265 0
M  V30 6310 C 590.838 2.20674 -2.81137 0
M  V30 6311 S 592.397 3.05303 -3.15176 0
M  V30 6312 H 589.215 0.40992 -0.580936 0
M  V30 6313 H 591.817 0.501624 -1.88955 0
M  V30 6314 H 590.521 1.69399 -3.73808 0
M  V30 6315 H 590.052 2.9594 -2.59198 0
M  V30 6316 H 592.067 4.22162 -2.60756 0
M  V30 6317 N 591.24 1.41047 0.703093 0
M  V30 6318 C 592.187 1.42302 1.81711 0
M  V30 6319 C 593.157 0.278336 1.63751 0
M  V30 6320 O 594.342 0.478266 1.84709 0
M  V30 6321 C 591.482 1.30362 3.19531 0
M  V30 6322 C 590.595 2.54638 3.48975 0
M  V30 6323 C 589.73 2.35047 4.76368 0
M  V30 6324 C 588.769 3.54837 4.98756 0
M  V30 6325 N 587.906 3.34363 6.1737 0
M  V30 6326 H 592.746 2.37516 1.79973 0
M  V30 6327 H 590.283 1.1795 0.878983 0
M  V30 6328 H 592.241 1.21443 3.99134 0
M  V30 6329 H 590.871 0.387602 3.20464 0
M  V30 6330 H 589.923 2.74037 2.63833 0
M  V30 6331 H 591.235 3.43766 3.61423 0
M  V30 6332 H 590.389 2.23552 5.64012 0
M  V30 6333 H 589.128 1.43363 4.66153 0
M  V30 6334 H 588.133 3.66795 4.09563 0
M  V30 6335 H 589.358 4.47464 5.10835 0
M  V30 6336 H 587.304 2.45373 6.08382 0
M  V30 6337 H 587.221 4.17063 6.30551 0
M  V30 6338 H 588.489 3.26626 7.07768 0
M  V30 6339 N 592.718 -0.936591 1.26751 0
M  V30 6340 C 593.628 -2.06949 1.10496 0
M  V30 6341 C 594.644 -1.7396 0.037271 0
M  V30 6342 O 595.82 -1.99941 0.241944 0
M  V30 6343 C 592.885 -3.38612 0.744491 0
M  V30 6344 C 591.946 -3.85355 1.89209 0
M  V30 6345 C 591.179 -5.10735 1.54873 0
M  V30 6346 O 591.402 -5.68602 0.452546 0
M  V30 6347 O 590.336 -5.52632 2.38499 0
M  V30 6348 H 594.162 -2.23571 2.05547 0
M  V30 6349 H 591.747 -1.05428 1.05855 0
M  V30 6350 H 593.629 -4.17711 0.556396 0
M  V30 6351 H 592.304 -3.23218 -0.176582 0
M  V30 6352 H 591.211 -3.07182 2.13518 0
M  V30 6353 H 592.544 -4.05277 2.79305 0
M  V30 6354 N 594.196 -1.08629 -1.14182 0
M  V30 6355 C 595.607 -0.838003 -1.66836 0
M  V30 6356 C 595.958 0.634885 -1.85644 0
M  V30 6357 O 595.083 1.49008 -1.56926 0
M  V30 6358 C 595.678 -1.51465 -3.03058 0
M  V30 6359 C 594.237 -1.31355 -3.52736 0
M  V30 6360 C 593.384 -1.57599 -2.28162 0
M  V30 6361 H 596.335 -1.24656 -0.982165 0
M  V30 6362 H 596.356 -0.943134 -3.68626 0
M  V30 6363 H 595.868 -2.58661 -2.89337 0
M  V30 6364 H 593.969 -0.262384 -3.71675 0
M  V30 6365 H 594.082 -2.04275 -4.33369 0
M  V30 6366 H 592.446 -0.997659 -2.34348 0
M  V30 6367 H 593.229 -2.66006 -2.17015 0
M  V30 6368 N 595.674 1.31259 -0.872281 0
M  V30 6369 C 596.904 2.00504 -0.498183 0
M  V30 6370 C 597.312 1.65632 0.914479 0
M  V30 6371 O 596.655 0.882849 1.61095 0
M  V30 6372 C 596.717 3.5482 -0.578194 0
M  V30 6373 C 596.381 4.13172 -1.95289 0
M  V30 6374 C 597.378 4.30107 -2.92069 0
M  V30 6375 C 595.063 4.48846 -2.25483 0
M  V30 6376 C 597.057 4.81908 -4.17185 0
M  V30 6377 C 594.744 5.00349 -3.50847 0
M  V30 6378 C 595.742 5.16831 -4.46514 0
M  V30 6379 O 595.43 5.67228 -5.69656 0
M  V30 6380 H 595.162 0.648055 -0.192354 0
M  V30 6381 H 597.716 1.6841 -1.17589 0
M  V30 6382 H 595.946 3.86383 0.156438 0
M  V30 6383 H 597.635 4.05318 -0.217192 0
M  V30 6384 H 598.401 4.02862 -2.7005 0
M  V30 6385 H 594.28 4.35292 -1.51795 0
M  V30 6386 H 597.824 4.94688 -4.91863 0
M  V30 6387 H 593.721 5.27028 -3.72708 0
M  V30 6388 H 594.489 5.85592 -5.7186 0
M  V30 6389 N 597.152 0.631951 1.44375 0
M  V30 6390 C 598.062 -0.073674 2.34484 0
M  V30 6391 C 599.078 -0.834825 1.52665 0
M  V30 6392 O 600.254 -0.786902 1.85391 0
M  V30 6393 C 597.319 -1.04247 3.30656 0
M  V30 6394 C 596.38 -0.280602 4.28382 0
M  V30 6395 C 595.613 -1.20325 5.19959 0
M  V30 6396 O 595.836 -2.44199 5.15484 0
M  V30 6397 O 594.77 -0.687128 5.97965 0
M  V30 6398 H 598.596 0.667477 2.96274 0
M  V30 6399 H 596.181 0.392144 1.44162 0
M  V30 6400 H 598.063 -1.59981 3.89851 0
M  V30 6401 H 596.738 -1.76422 2.71398 0
M  V30 6402 H 595.645 0.319804 3.72731 0
M  V30 6403 H 596.978 0.401144 4.90563 0
M  V30 6404 N 598.631 -1.53133 0.372548 0
M  V30 6405 C 599.594 -2.24569 -0.458389 0
M  V30 6406 C 600.594 -1.25603 -1.00402 0
M  V30 6407 O 601.784 -1.49827 -0.888672 0
M  V30 6408 C 598.916 -2.98783 -1.6414 0
M  V30 6409 H 600.109 -2.99436 0.166799 0
M  V30 6410 H 597.662 -1.55805 0.124357 0
M  V30 6411 H 598.397 -2.28176 -2.30448 0
M  V30 6412 H 598.182 -3.71404 -1.25704 0
M  V30 6413 H 599.672 -3.53068 -2.23008 0
M  V30 6414 N 600.109 -0.101901 -1.5727 0
M  V30 6415 C 601.386 0.602832 -1.86079 0
M  V30 6416 C 601.766 1.85912 -1 0
M  V30 6417 O 601.114 2.28379 -0.0742488 0
M  V30 6418 C 601.324 0.911694 -3.36881 0
M  V30 6419 C 602.672 1.2722 -4.05093 0
M  V30 6420 O 603.696 1.0025 -3.41802 0
M  V30 6421 O 602.555 1.7776 -5.16782 0
M  V30 6422 H 599.649 0.302366 -0.769743 0
M  V30 6423 H 602.195 -0.135113 -1.69161 0
M  V30 6424 H 600.967 0.0207256 -3.91295 0
M  V30 6425 H 600.59 1.70538 -3.59169 0
M  V30 6426 N 601.587 1.56661 0.17182 0
M  V30 6427 C 602.534 1.96371 1.21273 0
M  V30 6428 C 603.504 0.82756 1.44016 0
M  V30 6429 O 604.689 1.08764 1.56764 0
M  V30 6430 C 601.829 2.32838 2.54716 0
M  V30 6431 C 600.942 3.59628 2.39356 0
M  V30 6432 C 600.077 3.85311 3.65662 0
M  V30 6433 C 599.116 5.0545 3.45234 0
M  V30 6434 N 598.253 5.27268 4.63608 0
M  V30 6435 H 603.093 2.85106 0.86709 0
M  V30 6436 H 600.63 1.41073 0.416744 0
M  V30 6437 H 602.588 2.52004 3.3249 0
M  V30 6438 H 601.218 1.47214 2.87277 0
M  V30 6439 H 600.27 3.4838 1.52761 0
M  V30 6440 H 601.582 4.4756 2.20207 0
M  V30 6441 H 600.736 4.04841 4.51872 0
M  V30 6442 H 599.475 2.95753 3.8779 0
M  V30 6443 H 598.48 4.85819 2.5741 0
M  V30 6444 H 599.705 5.96538 3.24529 0
M  V30 6445 H 597.651 4.40662 4.85956 0
M  V30 6446 H 597.568 6.09422 4.4737 0
M  V30 6447 H 598.836 5.51277 5.51103 0
M  V30 6448 N 603.065 -0.440357 1.51323 0
M  V30 6449 C 603.975 -1.55955 1.75258 0
M  V30 6450 C 604.991 -1.61933 0.636687 0
M  V30 6451 O 606.167 -1.79231 0.918593 0
M  V30 6452 C 603.232 -2.9196 1.86977 0
M  V30 6453 C 602.293 -2.96122 3.10822 0
M  V30 6454 C 601.526 -4.2564 3.21973 0
M  V30 6455 O 601.749 -5.17851 2.39137 0
M  V30 6456 O 600.683 -4.36025 4.14929 0
M  V30 6457 H 604.509 -1.38673 2.70191 0
M  V30 6458 H 602.094 -0.623055 1.35788 0
M  V30 6459 H 603.976 -3.72682 1.96688 0
M  V30 6460 H 602.651 -3.09375 0.952307 0
M  V30 6461 H 601.558 -2.14366 3.06591 0
M  V30 6462 H 602.891 -2.83651 4.02247 0
M  V30 6463 N 604.543 -1.41418 -0.695603 0
M  V30 6464 C 605.475 -1.39195 -1.82092 0
M  V30 6465 C 606.488 -0.294132 -1.60121 0
M  V30 6466 O 607.677 -0.555854 -1.69625 0
M  V30 6467 C 604.777 -1.14828 -3.18854 0
M  V30 6468 C 603.95 -2.36649 -3.67853 0
M  V30 6469 C 603.009 -2.08139 -4.83285 0
M  V30 6470 O 602.035 -2.81177 -4.94902 0
M  V30 6471 N 603.237 -1.07162 -5.70523 0
M  V30 6472 H 606.002 -2.36185 -1.84491 0
M  V30 6473 H 603.563 -1.3603 -0.877923 0
M  V30 6474 H 605.555 -0.937075 -3.93702 0
M  V30 6475 H 604.125 -0.264358 -3.1148 0
M  V30 6476 H 603.345 -2.73472 -2.83913 0
M  V30 6477 H 604.633 -3.17816 -3.97329 0
M  V30 6478 H 604.031 -0.467124 -5.63768 0
M  V30 6479 H 602.588 -0.920311 -6.4527 0
M  V30 6480 N 606.021 0.929856 -1.27246 0
M  V30 6481 C 607.437 1.20542 -1.04603 0
M  V30 6482 C 607.637 2.00276 0.221754 0
M  V30 6483 O 606.693 2.34835 0.927833 0
M  V30 6484 C 608.006 1.95566 -2.28417 0
M  V30 6485 C 609.554 2.08513 -2.33433 0
M  V30 6486 C 610.029 2.86943 -3.5697 0
M  V30 6487 N 611.52 2.94512 -3.57515 0
M  V30 6488 C 612.255 3.55656 -4.49774 0
M  V30 6489 N 611.751 4.18209 -5.52334 0
M  V30 6490 N 613.544 3.53038 -4.37402 0
M  V30 6491 H 605.695 0.397113 -2.08655 0
M  V30 6492 H 607.958 0.238277 -0.917566 0
M  V30 6493 H 607.664 1.44395 -3.20691 0
M  V30 6494 H 607.538 2.9619 -2.33563 0
M  V30 6495 H 609.925 2.58872 -1.41666 0
M  V30 6496 H 610.006 1.07117 -2.32292 0
M  V30 6497 H 609.65 2.37268 -4.49072 0
M  V30 6498 H 609.58 3.8862 -3.55362 0
M  V30 6499 H 612.071 2.50053 -2.83341 0
M  V30 6500 H 612.384 4.62796 -6.18902 0
M  V30 6501 H 610.729 4.16761 -5.56179 0
M  V30 6502 H 613.92 3.0337 -3.56489 0
M  V30 6503 H 614.093 4.004 -5.09493 0
M  V30 6504 N 607.499 1.09233 1.13605 0
M  V30 6505 C 608.446 0.729921 2.18954 0
M  V30 6506 C 609.416 -0.287916 1.63586 0
M  V30 6507 O 610.601 -0.170003 1.90041 0
M  V30 6508 C 607.741 0.154489 3.44754 0
M  V30 6509 C 606.854 1.22613 4.14234 0
M  V30 6510 C 605.989 0.613657 5.27644 0
M  V30 6511 C 605.028 1.66674 5.8897 0
M  V30 6512 N 604.165 1.07545 6.93814 0
M  V30 6513 H 609.005 1.63257 2.49302 0
M  V30 6514 H 606.542 0.815693 1.22413 0
M  V30 6515 H 608.5 -0.196923 4.16735 0
M  V30 6516 H 607.13 -0.711433 3.14863 0
M  V30 6517 H 606.182 1.69485 3.40557 0
M  V30 6518 H 607.494 2.0238 4.55899 0
M  V30 6519 H 606.648 0.210976 6.06333 0
M  V30 6520 H 605.387 -0.215584 4.87223 0
M  V30 6521 H 604.392 2.07899 5.08978 0
M  V30 6522 H 605.617 2.49861 6.31464 0
M  V30 6523 H 603.563 0.267451 6.55455 0
M  V30 6524 H 603.48 1.81011 7.3401 0
M  V30 6525 H 604.748 0.698906 7.7636 0
M  V30 6526 N 608.977 -1.30795 0.87923 0
M  V30 6527 C 609.907 -2.30742 0.357796 0
M  V30 6528 C 610.888 -1.60747 -0.556283 0
M  V30 6529 O 612.073 -1.88393 -0.47135 0
M  V30 6530 C 609.203 -3.44583 -0.433555 0
M  V30 6531 C 608.157 -4.26235 0.388251 0
M  V30 6532 C 607.483 -5.32073 -0.529352 0
M  V30 6533 C 608.783 -4.96303 1.62729 0
M  V30 6534 H 610.477 -2.74605 1.19299 0
M  V30 6535 H 608.023 -1.32017 0.575104 0
M  V30 6536 H 609.976 -4.13563 -0.808934 0
M  V30 6537 H 608.7 -2.99511 -1.30234 0
M  V30 6538 H 607.359 -3.58936 0.745695 0
M  V30 6539 H 607.007 -4.83249 -1.39569 0
M  V30 6540 H 606.707 -5.87598 0.0166741 0
M  V30 6541 H 608.231 -6.0391 -0.901373 0
M  V30 6542 H 609.645 -5.5783 1.32283 0
M  V30 6543 H 608.042 -5.61666 2.11309 0
M  V30 6544 H 609.112 -4.22758 2.37494 0
M  V30 6545 N 610.455 -0.639598 -1.44038 0
M  V30 6546 C 611.702 -0.14748 -2.01962 0
M  V30 6547 C 612.03 1.23372 -1.50365 0
M  V30 6548 O 611.285 1.8345 -0.681501 0
M  V30 6549 C 611.584 -0.0925348 -3.5728 0
M  V30 6550 C 611.25 -1.41365 -4.28167 0
M  V30 6551 C 609.912 -1.77545 -4.47248 0
M  V30 6552 C 612.264 -2.2853 -4.68427 0
M  V30 6553 C 609.592 -3.00583 -5.03852 0
M  V30 6554 C 611.944 -3.50846 -5.26393 0
M  V30 6555 C 610.608 -3.8724 -5.43692 0
M  V30 6556 H 609.878 -0.0539666 -0.739032 0
M  V30 6557 H 612.525 -0.827599 -1.72694 0
M  V30 6558 H 610.83 0.670987 -3.86012 0
M  V30 6559 H 612.527 0.304891 -3.99839 0
M  V30 6560 H 609.117 -1.1221 -4.13651 0
M  V30 6561 H 613.301 -2.0187 -4.5339 0
M  V30 6562 H 608.557 -3.28846 -5.15432 0
M  V30 6563 H 612.731 -4.18616 -5.56537 0
M  V30 6564 H 610.358 -4.8266 -5.87319 0
M  V30 6565 N 611.933 1.52934 -0.380664 0
M  V30 6566 C 613.21 1.93845 0.261417 0
M  V30 6567 C 613.59 1.31544 1.65104 0
M  V30 6568 O 612.938 0.480234 2.23397 0
M  V30 6569 C 613.148 3.47739 0.296466 0
M  V30 6570 C 614.496 4.21284 0.529578 0
M  V30 6571 O 615.52 3.54199 0.377041 0
M  V30 6572 O 614.379 5.40195 0.827753 0
M  V30 6573 H 611.473 0.811318 0.160285 0
M  V30 6574 H 614.019 1.64042 -0.434544 0
M  V30 6575 H 612.791 3.85395 -0.67724 0
M  V30 6576 H 612.414 3.8382 1.0377 0
M  V30 6577 N 613.412 0.11024 1.57214 0
M  V30 6578 C 614.637 -0.561179 1.99664 0
M  V30 6579 C 615.062 -1.59985 0.989266 0
M  V30 6580 O 614.42 -1.81255 -0.0402399 0
M  V30 6581 C 614.468 -1.17189 3.41027 0
M  V30 6582 O 613.572 -2.28755 3.4314 0
M  V30 6583 H 612.913 -0.14101 0.648855 0
M  V30 6584 H 615.443 0.196128 2.03658 0
M  V30 6585 H 615.453 -1.50954 3.79047 0
M  V30 6586 H 614.128 -0.411041 4.13864 0
M  V30 6587 H 612.705 -1.96495 3.16929 0
M  V30 6588 N 614.89 -1.56749 -0.16351 0
M  V30 6589 C 615.837 -1.97011 -1.2023 0
M  V30 6590 C 616.807 -0.835186 -1.43575 0
M  V30 6591 O 617.992 -1.09594 -1.56185 0
M  V30 6592 C 615.132 -2.34186 -2.53478 0
M  V30 6593 C 614.245 -3.60893 -2.37446 0
M  V30 6594 C 613.38 -3.87245 -3.63614 0
M  V30 6595 C 612.419 -5.07274 -3.42548 0
M  V30 6596 N 611.556 -5.29719 -4.60806 0
M  V30 6597 H 616.396 -2.85562 -0.851958 0
M  V30 6598 H 613.933 -1.41292 -0.409257 0
M  V30 6599 H 615.891 -2.53764 -3.31149 0
M  V30 6600 H 614.521 -1.48736 -2.86492 0
M  V30 6601 H 613.573 -3.49185 -1.50911 0
M  V30 6602 H 614.885 -4.48722 -2.1783 0
M  V30 6603 H 614.039 -4.07232 -4.49719 0
M  V30 6604 H 612.778 -2.97806 -3.86216 0
M  V30 6605 H 611.783 -4.87177 -2.5483 0
M  V30 6606 H 613.008 -5.98251 -3.2136 0
M  V30 6607 H 610.954 -4.43233 -4.83612 0
M  V30 6608 H 610.871 -6.11786 -4.44132 0
M  V30 6609 H 612.139 -5.54192 -5.48171 0
M  V30 6610 N 616.368 0.432326 -1.51554 0
M  V30 6611 C 617.315 1.52512 -1.7323 0
M  V30 6612 C 618.285 1.55863 -0.5741 0
M  V30 6613 O 619.47 1.72796 -0.809093 0
M  V30 6614 C 616.61 2.90183 -1.86783 0
M  V30 6615 C 615.723 2.96322 -3.14352 0
M  V30 6616 C 614.858 4.25147 -3.18471 0
M  V30 6617 C 613.897 4.25172 -4.40335 0
M  V30 6618 N 613.034 5.45529 -4.41975 0
M  V30 6619 H 617.874 1.33332 -2.66508 0
M  V30 6620 H 615.411 0.647613 -1.32077 0
M  V30 6621 H 617.369 3.70071 -1.92623 0
M  V30 6622 H 615.999 3.0791 -0.969087 0
M  V30 6623 H 615.051 2.09066 -3.17798 0
M  V30 6624 H 616.363 2.92203 -4.04251 0
M  V30 6625 H 615.517 5.13411 -3.23255 0
M  V30 6626 H 614.256 4.31929 -2.2647 0
M  V30 6627 H 613.261 3.353 -4.35723 0
M  V30 6628 H 614.486 4.20049 -5.33606 0
M  V30 6629 H 612.432 5.53024 -3.52847 0
M  V30 6630 H 612.349 5.43311 -5.25689 0
M  V30 6631 H 613.617 6.35812 -4.50958 0
M  V30 6632 N 617.846 1.41785 0.688094 0
M  V30 6633 C 618.793 1.44221 1.80191 0
M  V30 6634 C 619.763 0.295688 1.63447 0
M  V30 6635 O 620.948 0.49783 1.84191 0
M  V30 6636 C 618.088 1.33743 3.1813 0
M  V30 6637 C 617.201 2.58325 3.46254 0
M  V30 6638 C 616.336 2.40086 4.73848 0
M  V30 6639 C 615.375 3.60107 4.94964 0
M  V30 6640 N 614.512 3.40892 6.13789 0
M  V30 6641 H 619.352 2.39411 1.77444 0
M  V30 6642 H 616.889 1.18876 0.866423 0
M  V30 6643 H 618.847 1.25669 3.97823 0
M  V30 6644 H 617.477 0.42157 3.20035 0
M  V30 6645 H 616.529 2.7682 2.60912 0
M  V30 6646 H 617.841 3.4758 3.57756 0
M  V30 6647 H 616.995 2.29522 5.61609 0
M  V30 6648 H 615.734 1.483 4.64606 0
M  V30 6649 H 614.739 3.71118 4.05649 0
M  V30 6650 H 615.964 4.52857 5.06061 0
M  V30 6651 H 613.91 2.51812 6.05745 0
M  V30 6652 H 613.827 4.23727 6.26092 0
M  V30 6653 H 615.095 3.34114 7.04264 0
M  V30 6654 N 619.324 -0.923095 1.27737 0
M  V30 6655 C 620.234 -2.05765 1.12685 0
M  V30 6656 C 621.25 -1.73911 0.0557197 0
M  V30 6657 O 622.426 -1.99674 0.263137 0
M  V30 6658 C 619.491 -3.37804 0.780363 0
M  V30 6659 C 618.552 -3.83326 1.93286 0
M  V30 6660 C 617.785 -5.09064 1.60281 0
M  V30 6661 O 618.008 -5.6809 0.512828 0
M  V30 6662 O 616.942 -5.50071 2.44347 0
M  V30 6663 H 620.768 -2.21378 2.07907 0
M  V30 6664 H 618.353 -1.04299 1.06968 0
M  V30 6665 H 620.235 -4.17097 0.600668 0
M  V30 6666 H 618.91 -3.23387 -0.142291 0
M  V30 6667 H 617.817 -3.049 2.16764 0
M  V30 6668 H 619.15 -4.02292 2.83588 0
M  V30 6669 N 620.802 -1.09834 -1.13024 0
M  V30 6670 C 622.213 -0.855651 -1.65938 0
M  V30 6671 C 622.564 0.615159 -1.86307 0
M  V30 6672 O 621.689 1.47335 -1.58497 0
M  V30 6673 C 622.284 -1.5467 -3.01434 0
M  V30 6674 C 620.843 -1.35088 -3.51323 0
M  V30 6675 C 619.99 -1.6001 -2.26478 0
M  V30 6676 H 622.941 -1.25691 -0.968889 0
M  V30 6677 H 622.962 -0.982179 -3.67605 0
M  V30 6678 H 622.474 -2.61715 -2.86578 0
M  V30 6679 H 620.575 -0.30179 -3.71376 0
M  V30 6680 H 620.688 -2.0886 -4.31178 0
M  V30 6681 H 619.052 -1.02246 -2.33276 0
M  V30 6682 H 619.835 -2.68293 -2.14182 0
M  V30 6683 N 622.28 1.30327 -0.886154 0
M  V30 6684 C 623.21 2.30549 -0.370028 0
M  V30 6685 C 624.191 1.61039 0.547751 0
M  V30 6686 O 625.376 1.8864 0.461353 0
M  V30 6687 C 622.506 3.44808 0.415275 0
M  V30 6688 C 621.46 4.26024 -0.41085 0
M  V30 6689 C 620.786 5.32347 0.501128 0
M  V30 6690 C 622.086 4.95433 -1.65359 0
M  V30 6691 H 623.78 2.73969 -1.20754 0
M  V30 6692 H 621.326 1.3171 -0.582097 0
M  V30 6693 H 623.279 4.13986 0.78699 0
M  V30 6694 H 622.003 3.00197 1.28644 0
M  V30 6695 H 620.662 3.58535 -0.764719 0
M  V30 6696 H 620.31 4.83982 1.37004 0
M  V30 6697 H 620.01 5.87581 -0.0478356 0
M  V30 6698 H 621.534 6.0438 0.869333 0
M  V30 6699 H 622.948 5.5712 -1.35239 0
M  V30 6700 H 621.345 5.60537 -2.14284 0
M  V30 6701 H 622.415 4.21493 -2.39733 0
M  V30 6702 N 623.758 0.647228 1.43697 0
M  V30 6703 C 625.007 0.155552 2.01099 0
M  V30 6704 C 625.32 -1.23569 1.51624 0
M  V30 6705 O 626.526 -1.82226 2.01261 0
M  V30 6706 C 624.982 0.227296 3.59182 0
M  V30 6707 C 624.59 1.62086 4.17651 0
M  V30 6708 C 626.334 -0.207085 4.23995 0
M  V30 6709 C 624.241 1.64685 5.68008 0
M  V30 6710 H 623.171 0.0543895 0.752036 0
M  V30 6711 H 625.822 0.808386 1.64734 0
M  V30 6712 H 624.204 -0.492937 3.9292 0
M  V30 6713 H 625.378 2.36597 3.95422 0
M  V30 6714 H 623.693 2.0007 3.65186 0
M  V30 6715 H 626.29 -0.207426 5.34298 0
M  V30 6716 H 626.633 -1.23742 3.97484 0
M  V30 6717 H 627.166 0.461193 3.95118 0
M  V30 6718 H 623.905 2.65608 5.99277 0
M  V30 6719 H 623.425 0.944914 5.9231 0
M  V30 6720 H 625.104 1.38792 6.31938 0
M  V30 6721 N 625.236 -1.5273 0.388769 0
M  V30 6722 C 626.166 -2.29353 -0.438111 0
M  V30 6723 C 627.147 -1.32719 -1.06394 0
M  V30 6724 O 628.332 -1.61612 -1.07681 0
M  V30 6725 C 625.462 -3.09995 -1.56589 0
M  V30 6726 C 624.416 -4.14509 -1.06613 0
M  V30 6727 C 623.742 -4.83372 -2.28594 0
M  V30 6728 C 625.042 -5.22127 -0.134459 0
M  V30 6729 H 626.736 -2.98723 0.201206 0
M  V30 6730 H 624.282 -1.43665 0.0982089 0
M  V30 6731 H 626.235 -3.62357 -2.15118 0
M  V30 6732 H 624.959 -2.38357 -2.23279 0
M  V30 6733 H 623.618 -3.63128 -0.503383 0
M  V30 6734 H 623.266 -4.08283 -2.93792 0
M  V30 6735 H 622.966 -5.54012 -1.95817 0
M  V30 6736 H 624.49 -5.38538 -2.87766 0
M  V30 6737 H 625.904 -5.69851 -0.627914 0
M  V30 6738 H 624.301 -6.00011 0.103534 0
M  V30 6739 H 625.371 -4.77971 0.816798 0
M  V30 6740 N 626.714 -0.118576 -1.57153 0
M  V30 6741 C 627.944 0.546466 -1.99242 0
M  V30 6742 C 628.352 1.60791 -0.997148 0
M  V30 6743 O 627.695 1.83691 0.0181745 0
M  V30 6744 C 627.757 1.23167 -3.37743 0
M  V30 6745 C 627.421 0.318226 -4.55891 0
M  V30 6746 C 628.418 -0.442988 -5.18009 0
M  V30 6747 C 626.103 0.229421 -5.01776 0
M  V30 6748 C 628.097 -1.28074 -6.244 0
M  V30 6749 C 625.784 -0.611966 -6.08028 0
M  V30 6750 C 626.782 -1.36568 -6.69207 0
M  V30 6751 O 626.47 -2.1931 -7.73407 0
M  V30 6752 H 626.202 0.149297 -0.659307 0
M  V30 6753 H 628.756 -0.201603 -2.04408 0
M  V30 6754 H 626.986 2.0268 -3.29329 0
M  V30 6755 H 628.675 1.79358 -3.64123 0
M  V30 6756 H 629.441 -0.38425 -4.83475 0
M  V30 6757 H 625.32 0.805771 -4.53903 0
M  V30 6758 H 628.864 -1.86952 -6.72082 0
M  V30 6759 H 624.761 -0.6721 -6.41991 0
M  V30 6760 H 625.529 -2.12247 -7.90502 0
M  V30 6761 N 628.193 1.56834 0.155195 0
M  V30 6762 C 629.609 1.51315 0.50755 0
M  V30 6763 C 629.809 0.825614 1.83809 0
M  V30 6764 O 628.865 0.39271 2.49427 0
M  V30 6765 C 630.178 2.96074 0.52542 0
M  V30 6766 C 631.726 3.06968 0.611505 0
M  V30 6767 C 632.201 4.53218 0.660115 0
M  V30 6768 N 633.692 4.5753 0.722564 0
M  V30 6769 C 634.427 5.68056 0.781023 0
M  V30 6770 N 633.923 6.88173 0.799327 0
M  V30 6771 N 635.716 5.56068 0.821278 0
M  V30 6772 H 627.867 1.9993 -0.717063 0
M  V30 6773 H 630.13 0.911507 -0.260496 0
M  V30 6774 H 629.836 3.49599 -0.383875 0
M  V30 6775 H 629.71 3.51587 1.36624 0
M  V30 6776 H 632.097 2.53468 1.51122 0
M  V30 6777 H 632.178 2.54513 -0.256306 0
M  V30 6778 H 631.822 5.07354 -0.23541 0
M  V30 6779 H 631.752 5.03447 1.5443 0
M  V30 6780 H 634.243 3.71054 0.716049 0
M  V30 6781 H 634.556 7.6816 0.845553 0
M  V30 6782 H 632.901 6.90751 0.767337 0
M  V30 6783 H 636.092 4.61142 0.804091 0
M  V30 6784 H 636.265 6.42223 0.863372 0
M  V30 6785 N 629.671 -0.424282 1.51781 0
M  V30 6786 C 630.634 -1.49848 1.73431 0
M  V30 6787 C 631.634 -1.49016 0.604225 0
M  V30 6788 O 632.824 -1.50808 0.871935 0
M  V30 6789 C 629.956 -2.89332 1.80277 0
M  V30 6790 H 631.149 -1.3195 2.69312 0
M  V30 6791 H 628.702 -0.653809 1.41968 0
M  V30 6792 H 629.437 -3.12618 0.862568 0
M  V30 6793 H 629.222 -2.9134 2.62419 0
M  V30 6794 H 630.712 -3.67233 1.98821 0
M  V30 6795 N 631.149 -1.42148 -0.680565 0
M  V30 6796 C 632.377 -1.45696 -1.46902 0
M  V30 6797 C 632.792 -0.0665858 -1.88683 0
M  V30 6798 O 632.149 0.917436 -1.57764 0
M  V30 6799 C 632.2 -2.37898 -2.72188 0
M  V30 6800 O 631.921 -3.71526 -2.32163 0
M  V30 6801 C 633.422 -2.50407 -3.65802 0
M  V30 6802 H 630.642 -0.495729 -0.45221 0
M  V30 6803 H 633.186 -1.866 -0.836709 0
M  V30 6804 H 631.341 -2.00263 -3.31622 0
M  V30 6805 H 631.755 -4.20849 -3.13027 0
M  V30 6806 H 633.229 -3.19056 -4.50452 0
M  V30 6807 H 633.706 -1.5401 -4.11312 0
M  V30 6808 H 634.312 -2.8874 -3.12265 0
M  V30 6809 N 632.627 0.916307 -1.28225 0
M  V30 6810 C 633.875 1.6619 -1.15002 0
M  V30 6811 C 634.196 1.92642 0.302329 0
M  V30 6812 O 633.466 1.54076 1.20985 0
M  V30 6813 H 632.046 0.615964 -0.422608 0
M  V30 6814 H 634.708 1.09963 -1.60917 0
M  V30 6815 H 633.804 2.62533 -1.68769 0
M  V30 6816 N 634.105 1.10431 1.1244 0
M  V30 6817 C 635.345 0.856518 1.85589 0
M  V30 6818 C 635.709 -0.606905 1.82156 0
M  V30 6819 O 636.91 -0.97105 2.50647 0
M  V30 6820 C 635.181 1.38977 3.29272 0
M  V30 6821 S 636.74 1.27739 4.19795 0
M  V30 6822 H 633.558 0.309509 0.640098 0
M  V30 6823 H 636.16 1.40975 1.35449 0
M  V30 6824 H 634.864 2.44887 3.2933 0
M  V30 6825 H 634.395 0.833112 3.84477 0
M  V30 6826 H 636.41 0.235051 4.95643 0
M  V30 6827 N 635.583 -1.29855 0.893053 0
M  V30 6828 C 636.994 -1.77946 0.564998 0
M  V30 6829 C 637.345 -1.73339 -0.919134 0
M  V30 6830 O 636.47 -1.3152 -1.71847 0
M  V30 6831 C 637.065 -3.23118 1.01883 0
M  V30 6832 C 635.624 -3.69013 0.742051 0
M  V30 6833 C 634.771 -2.50121 1.19727 0
M  V30 6834 H 637.722 -1.16611 1.07646 0
M  V30 6835 H 637.743 -3.78875 0.351249 0
M  V30 6836 H 637.255 -3.26439 2.09903 0
M  V30 6837 H 635.356 -3.71173 -0.325816 0
M  V30 6838 H 635.469 -4.60117 1.33527 0
M  V30 6839 H 633.833 -2.47128 0.616418 0
M  V30 6840 H 634.616 -2.56174 2.28538 0
M  V30 6841 N 637.061 -0.65484 -1.43351 0
M  V30 6842 C 638.008 0.0357713 -2.30772 0
M  V30 6843 C 638.978 0.813035 -1.44841 0
M  V30 6844 O 640.163 0.789314 -1.73708 0
M  V30 6845 C 637.303 0.995084 -3.30442 0
M  V30 6846 C 636.416 0.21375 -4.31471 0
M  V30 6847 C 635.551 1.16701 -5.18222 0
M  V30 6848 C 634.59 0.376201 -6.10943 0
M  V30 6849 N 633.727 1.28113 -6.90313 0
M  V30 6850 H 638.567 -0.71559 -2.89281 0
M  V30 6851 H 636.104 -0.364645 -1.42509 0
M  V30 6852 H 638.062 1.5649 -3.86739 0
M  V30 6853 H 636.692 1.7133 -2.7358 0
M  V30 6854 H 635.744 -0.472377 -3.77456 0
M  V30 6855 H 637.056 -0.401103 -4.97185 0
M  V30 6856 H 636.21 1.8074 -5.79153 0
M  V30 6857 H 634.949 1.81577 -4.52638 0
M  V30 6858 H 633.954 -0.277534 -5.49099 0
M  V30 6859 H 635.179 -0.268178 -6.7857 0
M  V30 6860 H 633.125 1.91666 -6.27376 0
M  V30 6861 H 633.042 0.720879 -7.52555 0
M  V30 6862 H 634.31 1.90962 -7.55747 0
M  V30 6863 N 638.539 1.52521 -0.396863 0
M  V30 6864 C 639.779 2.03583 0.182578 0
M  V30 6865 C 640.143 1.2766 1.43412 0
M  V30 6866 O 641.344 1.68884 2.09121 0
M  V30 6867 C 639.615 3.54724 0.436519 0
M  V30 6868 S 641.174 4.27598 0.985163 0
M  V30 6869 H 637.992 0.709186 0.0507529 0
M  V30 6870 H 640.594 1.87693 -0.546955 0
M  V30 6871 H 639.298 4.07567 -0.481343 0
M  V30 6872 H 638.829 3.74834 1.19427 0
M  V30 6873 H 640.844 4.41393 2.26686 0
M  V30 6874 N 640.017 0.126909 1.57088 0
M  V30 6875 C 640.965 -0.837618 2.16995 0
M  V30 6876 C 641.959 -1.26974 1.12133 0
M  V30 6877 O 643.165 -1.24056 1.30423 0
M  V30 6878 H 639.54 -0.288256 0.694559 0
M  V30 6879 H 641.511 -0.307957 2.96807 0
M  V30 6880 C 640.26 -2.07474 2.79016 0
M  V30 6881 H 639.583 -1.75117 3.59408 0
M  V30 6882 H 641.023 -2.72949 3.24461 0
M  V30 6883 C 639.482 -2.86967 1.76498 0
M  V30 6884 O 640.012 -3.82625 1.22316 0
M  V30 6885 N 638.218 -2.51111 1.46258 0
M  V30 6886 H 637.765 -1.73389 1.90509 0
M  V30 6887 H 637.723 -3.04594 0.779085 0
M  V30 6888 N 641.495 -1.56914 -0.146875 0
M  V30 6889 C 642.445 -1.94693 -1.18653 0
M  V30 6890 C 643.429 -0.81821 -1.38543 0
M  V30 6891 O 644.621 -1.08167 -1.40103 0
M  V30 6892 C 641.75 -2.33117 -2.52014 0
M  V30 6893 C 640.836 -3.5256 -2.35717 0
M  V30 6894 N 641.227 -4.69091 -1.89175 0
M  V30 6895 C 639.525 -3.57647 -2.66467 0
M  V30 6896 C 640.226 -5.51187 -1.85924 0
M  V30 6897 N 639.202 -4.92899 -2.29242 0
M  V30 6898 H 643.004 -2.82264 -0.81879 0
M  V30 6899 H 640.518 -1.58474 -0.354929 0
M  V30 6900 H 642.515 -2.58387 -3.27172 0
M  V30 6901 H 641.175 -1.46898 -2.89571 0
M  V30 6902 H 642.186 -4.92844 -1.59139 0
M  V30 6903 H 638.863 -2.81967 -3.07898 0
M  V30 6904 H 640.253 -6.54613 -1.51431 0
M  V30 6905 N 642.974 0.416227 -1.52004 0
M  V30 6906 C 643.921 1.50666 -1.74838 0
M  V30 6907 C 644.891 1.55245 -0.590599 0
M  V30 6908 O 646.076 1.71928 -0.827374 0
M  V30 6909 C 643.216 2.88185 -1.89851 0
M  V30 6910 C 642.329 2.92971 -3.17478 0
M  V30 6911 C 641.464 4.21745 -3.22962 0
M  V30 6912 C 640.503 4.20478 -4.4482 0
M  V30 6913 N 639.64 5.40811 -4.47736 0
M  V30 6914 H 644.48 1.30498 -2.67907 0
M  V30 6915 H 642.017 0.633568 -1.32757 0
M  V30 6916 H 643.975 3.68007 -1.96537 0
M  V30 6917 H 642.605 3.06865 -1.00169 0
M  V30 6918 H 641.657 2.05684 -3.19997 0
M  V30 6919 H 642.969 2.87899 -4.07328 0
M  V30 6920 H 642.123 5.09954 -3.28682 0
M  V30 6921 H 640.862 4.29503 -2.31038 0
M  V30 6922 H 639.867 3.30659 -4.39254 0
M  V30 6923 H 641.092 4.14366 -5.38031 0
M  V30 6924 H 639.038 5.4925 -3.58692 0
M  V30 6925 H 638.955 5.37705 -5.31422 0
M  V30 6926 H 640.223 6.30993 -4.57676 0
M  V30 6927 N 644.452 1.42507 0.673017 0
M  V30 6928 C 645.7 1.42789 1.43023 0
M  V30 6929 C 646.021 0.0459738 1.94946 0
M  V30 6930 O 645.291 -0.915765 1.73178 0
M  V30 6931 H 643.871 0.525657 0.530748 0
M  V30 6932 H 646.533 1.77944 0.795113 0
M  V30 6933 H 645.629 2.12872 2.28237 0
M  V30 6934 N 645.93 -0.909495 1.28709 0
M  V30 6935 C 647.16 -1.69027 1.188 0
M  V30 6936 C 647.568 -1.87469 -0.255329 0
M  V30 6937 O 646.911 -1.40458 -1.18394 0
M  V30 6938 C 646.973 -3.10064 1.81936 0
M  V30 6939 C 646.637 -3.14891 3.31199 0
M  V30 6940 C 647.634 -2.95768 4.27571 0
M  V30 6941 C 645.319 -3.37269 3.7223 0
M  V30 6942 C 647.313 -2.98942 5.6295 0
M  V30 6943 C 645 -3.40074 5.07733 0
M  V30 6944 C 645.998 -3.20932 6.02903 0
M  V30 6945 O 645.686 -3.23507 7.35934 0
M  V30 6946 H 645.418 -0.535014 0.413203 0
M  V30 6947 H 647.972 -1.14645 1.70428 0
M  V30 6948 H 646.202 -3.66005 1.24808 0
M  V30 6949 H 647.891 -3.70185 1.66486 0
M  V30 6950 H 648.657 -2.78302 3.97206 0
M  V30 6951 H 644.536 -3.51212 2.98615 0
M  V30 6952 H 648.08 -2.83919 6.37209 0
M  V30 6953 H 643.977 -3.5707 5.37747 0
M  V30 6954 H 644.745 -3.3984 7.44615 0
M  V30 6955 N 647.408 -1.11026 -1.11852 0
M  V30 6956 C 648.824 -0.843294 -1.35502 0
M  V30 6957 C 649.024 0.534179 -1.9429 0
M  V30 6958 O 648.08 1.28585 -2.17307 0
M  V30 6959 C 649.393 -1.94793 -2.29077 0
M  V30 6960 C 650.941 -1.97709 -2.42652 0
M  V30 6961 C 651.416 -3.07364 -3.39546 0
M  V30 6962 N 652.907 -3.0671 -3.47107 0
M  V30 6963 C 653.642 -3.88197 -4.22008 0
M  V30 6964 N 653.138 -4.79635 -4.99922 0
M  V30 6965 N 654.931 -3.76391 -4.17476 0
M  V30 6966 H 647.082 -1.99805 -0.720538 0
M  V30 6967 H 649.345 -0.868633 -0.379711 0
M  V30 6968 H 649.051 -2.93971 -1.93065 0
M  V30 6969 H 648.925 -1.84039 -3.29256 0
M  V30 6970 H 651.312 -0.991604 -2.77941 0
M  V30 6971 H 651.393 -2.1254 -1.4234 0
M  V30 6972 H 651.037 -4.06136 -3.04985 0
M  V30 6973 H 650.967 -2.89774 -4.39703 0
M  V30 6974 H 653.458 -2.40457 -2.91528 0
M  V30 6975 H 653.771 -5.38357 -5.54429 0
M  V30 6976 H 652.116 -4.8366 -4.99097 0
M  V30 6977 H 655.307 -3.04303 -3.55693 0
M  V30 6978 H 655.48 -4.40131 -4.75593 0
M  V30 6979 N 648.886 1.2938 -0.899927 0
M  V30 6980 C 650.134 1.95164 -0.524924 0
M  V30 6981 C 650.455 1.71292 0.931888 0
M  V30 6982 O 649.725 1.04481 1.65712 0
M  V30 6983 H 648.305 0.722133 -0.191135 0
M  V30 6984 H 650.967 1.57628 -1.14627 0
M  V30 6985 H 650.063 3.0397 -0.707711 0
M  V30 6986 N 650.364 0.662433 1.43002 0
M  V30 6987 C 651.78 0.330835 1.56133 0
M  V30 6988 C 651.98 -1.16454 1.64441 0
M  V30 6989 O 651.036 -1.94964 1.60453 0
M  V30 6990 C 652.349 1.05029 2.81761 0
M  V30 6991 C 653.897 1.03142 2.95518 0
M  V30 6992 C 654.372 1.73196 4.2399 0
M  V30 6993 N 655.863 1.70004 4.30875 0
M  V30 6994 C 656.598 2.21074 5.29069 0
M  V30 6995 N 656.094 2.80473 6.33488 0
M  V30 6996 N 657.887 2.1152 5.20784 0
M  V30 6997 H 650.038 1.63272 1.35853 0
M  V30 6998 H 652.301 0.687149 0.653092 0
M  V30 6999 H 652.007 2.10542 2.81718 0
M  V30 7000 H 651.881 0.607664 3.72273 0
M  V30 7001 H 654.268 -0.0153339 2.95096 0
M  V30 7002 H 654.349 1.51282 2.0627 0
M  V30 7003 H 653.993 2.77833 4.25172 0
M  V30 7004 H 653.923 1.22515 5.1215 0
M  V30 7005 H 656.414 1.26667 3.56039 0
M  V30 7006 H 656.727 3.17094 7.04749 0
M  V30 7007 H 655.072 2.84538 6.34085 0
M  V30 7008 H 658.263 1.64814 4.38126 0
M  V30 7009 H 658.436 2.51629 5.97149 0
M  V30 7010 N 651.842 -1.52309 0.404946 0
M  V30 7011 C 653.07 -2.06185 -0.171818 0
M  V30 7012 C 653.485 -1.27536 -1.39212 0
M  V30 7013 O 652.842 -0.326112 -1.79563 0
M  V30 7014 C 652.893 -3.57647 -0.526417 0
M  V30 7015 O 652.614 -4.3332 0.645417 0
M  V30 7016 C 654.115 -4.27925 -1.15736 0
M  V30 7017 H 651.335 -0.670632 -0.0222328 0
M  V30 7018 H 653.879 -1.96259 0.574692 0
M  V30 7019 H 652.034 -3.67595 -1.22282 0
M  V30 7020 H 652.448 -5.23328 0.35042 0
M  V30 7021 H 653.922 -5.35093 -1.35572 0
M  V30 7022 H 654.399 -3.84134 -2.12926 0
M  V30 7023 H 655.005 -4.22335 -0.501281 0
M  V30 7024 N 653.32 -0.135238 -1.57019 0
M  V30 7025 C 654.568 0.51777 -1.95355 0
M  V30 7026 C 654.889 1.6617 -1.02042 0
M  V30 7027 O 654.159 1.95738 -0.0797343 0
M  V30 7028 H 652.739 0.194264 -0.721298 0
M  V30 7029 H 655.401 -0.207983 -1.93787 0
M  V30 7030 H 654.497 0.901675 -2.98791 0
M  V30 7031 N 654.798 1.5699 0.138552 0
M  V30 7032 C 656.047 1.82998 0.848205 0
M  V30 7033 C 656.36 0.717829 1.81952 0
M  V30 7034 O 657.566 0.863756 2.57394 0
M  V30 7035 C 656.022 3.24379 1.55904 0
M  V30 7036 C 655.63 4.43552 0.62971 0
M  V30 7037 C 657.374 3.59654 2.25498 0
M  V30 7038 C 655.281 5.75957 1.34266 0
M  V30 7039 H 654.211 0.682495 0.320495 0
M  V30 7040 H 656.862 1.83222 0.100924 0
M  V30 7041 H 655.244 3.18567 2.35226 0
M  V30 7042 H 656.418 4.6062 -0.128882 0
M  V30 7043 H 654.733 4.16379 0.0417526 0
M  V30 7044 H 657.33 4.55837 2.79493 0
M  V30 7045 H 657.673 2.86124 3.02388 0
M  V30 7046 H 658.206 3.67164 1.53087 0
M  V30 7047 H 654.945 6.52604 0.615441 0
M  V30 7048 H 654.465 5.62811 2.07375 0
M  V30 7049 H 656.144 6.19046 1.88126 0
M  V30 7050 N 656.276 -0.40816 1.52223 0
M  V30 7051 C 657.226 -1.49648 1.72016 0
M  V30 7052 C 658.21 -1.50311 0.574069 0
M  V30 7053 O 659.402 -1.56271 0.831173 0
M  V30 7054 C 656.531 -2.87566 1.87512 0
M  V30 7055 C 655.617 -2.91547 3.07995 0
M  V30 7056 N 656.008 -2.65225 4.30685 0
M  V30 7057 C 654.306 -3.22715 3.07849 0
M  V30 7058 C 655.007 -2.75799 5.12162 0
M  V30 7059 N 653.983 -3.08719 4.4743 0
M  V30 7060 H 657.785 -1.28093 2.64517 0
M  V30 7061 H 655.299 -0.61588 1.50269 0
M  V30 7062 H 657.296 -3.65899 1.99809 0
M  V30 7063 H 655.956 -3.10118 0.962114 0
M  V30 7064 H 656.967 -2.39601 4.59142 0
M  V30 7065 H 653.644 -3.50856 2.26289 0
M  V30 7066 H 655.034 -2.59155 6.1991 0
M  V30 7067 N 657.755 -1.42862 -0.66545 0
M  V30 7068 C 658.665 -1.49491 -1.80803 0
M  V30 7069 C 659.681 -0.382914 -1.69734 0
M  V30 7070 O 660.857 -0.635223 -1.9112 0
M  V30 7071 C 657.922 -1.40383 -3.17007 0
M  V30 7072 C 656.983 -2.62152 -3.39963 0
M  V30 7073 C 656.216 -2.53469 -4.69669 0
M  V30 7074 O 656.439 -1.57568 -5.48205 0
M  V30 7075 O 655.373 -3.43763 -4.94075 0
M  V30 7076 H 659.199 -2.45949 -1.78165 0
M  V30 7077 H 656.784 -1.24728 -0.822387 0
M  V30 7078 H 658.666 -1.377 -3.98267 0
M  V30 7079 H 657.341 -0.470546 -3.20262 0
M  V30 7080 H 656.248 -2.70409 -2.58515 0
M  V30 7081 H 657.581 -3.54411 -3.41546 0
M  V30 7082 N 659.233 0.902656 -1.29189 0
M  V30 7083 C 660.163 2.02294 -1.16616 0
M  V30 7084 C 661.144 1.6999 -0.0611175 0
M  V30 7085 O 662.329 1.9271 -0.240072 0
M  V30 7086 C 659.459 3.37018 -0.83882 0
M  V30 7087 C 658.413 3.83522 -1.89986 0
M  V30 7088 C 657.739 5.15337 -1.42589 0
M  V30 7089 C 659.039 4.04169 -3.30824 0
M  V30 7090 H 660.733 2.13071 -2.10336 0
M  V30 7091 H 658.279 1.02378 -1.01266 0
M  V30 7092 H 660.232 4.14895 -0.737584 0
M  V30 7093 H 658.956 3.26325 0.134071 0
M  V30 7094 H 657.615 3.07859 -1.99043 0
M  V30 7095 H 657.263 5.01056 -0.441759 0
M  V30 7096 H 656.963 5.47423 -2.13547 0
M  V30 7097 H 658.487 5.95758 -1.3381 0
M  V30 7098 H 659.901 4.72537 -3.24626 0
M  V30 7099 H 658.298 4.47604 -3.99713 0
M  V30 7100 H 659.368 3.08604 -3.74021 0
M  V30 7101 N 660.711 1.11618 1.11262 0
M  V30 7102 C 661.641 0.79846 2.19424 0
M  V30 7103 C 662.622 -0.234003 1.68483 0
M  V30 7104 O 663.807 -0.0970704 1.93957 0
M  V30 7105 C 660.937 0.242892 3.4645 0
M  V30 7106 C 659.891 1.20744 4.10615 0
M  V30 7107 C 659.217 0.512494 5.32238 0
M  V30 7108 C 660.517 2.55884 4.55325 0
M  V30 7109 H 662.211 1.70286 2.46258 0
M  V30 7110 H 659.757 0.820195 1.18359 0
M  V30 7111 H 661.71 0.00840447 4.21399 0
M  V30 7112 H 660.434 -0.696811 3.1908 0
M  V30 7113 H 659.093 1.42759 3.37662 0
M  V30 7114 H 658.741 -0.432075 5.01141 0
M  V30 7115 H 658.441 1.15583 5.7612 0
M  V30 7116 H 659.965 0.286842 6.09926 0
M  V30 7117 H 661.379 2.37946 5.21588 0
M  V30 7118 H 659.776 3.16216 5.10027 0
M  V30 7119 H 660.846 3.14968 3.68678 0
M  V30 7120 N 662.189 -1.289 0.906776 0
M  V30 7121 C 663.119 -2.29932 0.406659 0
M  V30 7122 C 664.1 -1.6189 -0.522061 0
M  V30 7123 O 665.285 -1.8935 -0.431283 0
M  V30 7124 C 662.415 -3.45425 -0.360366 0
M  V30 7125 C 661.369 -4.25316 0.478574 0
M  V30 7126 C 660.695 -5.33076 -0.416373 0
M  V30 7127 C 661.995 -4.92739 1.7322 0
M  V30 7128 H 663.689 -2.72013 1.25097 0
M  V30 7129 H 661.235 -1.30768 0.602977 0
M  V30 7130 H 663.188 -4.15186 -0.721029 0
M  V30 7131 H 661.912 -3.02206 -1.23852 0
M  V30 7132 H 660.571 -3.57273 0.821662 0
M  V30 7133 H 660.219 -4.86101 -1.29287 0
M  V30 7134 H 659.919 -5.8743 0.141309 0
M  V30 7135 H 661.443 -6.05686 -0.773072 0
M  V30 7136 H 662.857 -5.54898 1.44086 0
M  V30 7137 H 661.254 -5.57057 2.23175 0
M  V30 7138 H 662.324 -4.17625 2.46408 0
M  V30 7139 N 663.667 -0.670007 -1.42649 0
M  V30 7140 C 664.913 -0.190568 -2.01903 0
M  V30 7141 C 665.246 1.19817 -1.52832 0
M  V30 7142 O 664.521 1.80342 -0.728485 0
M  V30 7143 C 664.804 -0.21991 -3.59428 0
M  V30 7144 C 664.657 -1.64376 -4.18689 0
M  V30 7145 C 665.976 0.434519 -4.3795 0
M  V30 7146 H 663.095 -0.0707219 -0.733599 0
M  V30 7147 H 665.737 -0.853883 -1.69732 0
M  V30 7148 H 663.887 0.344894 -3.86966 0
M  V30 7149 H 665.559 -2.26044 -4.02122 0
M  V30 7150 H 663.802 -2.18591 -3.747 0
M  V30 7151 H 664.473 -1.61601 -5.27815 0
M  V30 7152 H 666.949 -0.0462156 -4.16074 0
M  V30 7153 H 665.825 0.38333 -5.4756 0
M  V30 7154 H 666.086 1.51135 -4.15464 0
M  V30 7155 N 665.145 1.52092 -0.413018 0
M  V30 7156 C 666.422 1.94356 0.22024 0
M  V30 7157 C 666.802 1.35017 1.62277 0
M  V30 7158 O 666.15 0.527511 2.22328 0
M  V30 7159 C 666.36 3.48289 0.222638 0
M  V30 7160 C 667.708 4.22313 0.440098 0
M  V30 7161 O 668.732 3.54919 0.301826 0
M  V30 7162 O 667.591 5.41829 0.712984 0
M  V30 7163 H 664.685 0.814536 0.14304 0
M  V30 7164 H 667.231 1.63083 -0.469242 0
M  V30 7165 H 666.003 3.83872 -0.758836 0
M  V30 7166 H 665.626 3.85934 0.956057 0
M  V30 7167 N 666.623 0.143563 1.56945 0
M  V30 7168 C 667.9 -0.553285 1.87612 0
M  V30 7169 C 668.28 -1.83195 1.04894 0
M  V30 7170 O 667.628 -2.28102 0.134773 0
M  V30 7171 C 667.838 -0.822055 3.3918 0
M  V30 7172 C 669.186 -1.16435 4.08324 0
M  V30 7173 O 670.21 -0.911522 3.4434 0
M  V30 7174 O 669.069 -1.63996 5.21313 0
M  V30 7175 H 666.163 -0.281851 0.777489 0
M  V30 7176 H 668.709 0.179916 1.68744 0
M  V30 7177 H 667.481 0.0830265 3.91212 0
M  V30 7178 H 667.104 -1.60956 3.63564 0
M  V30 7179 N 668.101 -1.57061 -0.130224 0
M  V30 7180 C 669.064 -1.98593 -1.14426 0
M  V30 7181 C 670.064 -0.874584 -1.34936 0
M  V30 7182 O 671.254 -1.14086 -1.31643 0
M  V30 7183 C 668.386 -2.31639 -2.50112 0
M  V30 7184 H 669.579 -2.89374 -0.787561 0
M  V30 7185 H 667.132 -1.51756 -0.374146 0
M  V30 7186 H 667.867 -1.43703 -2.90723 0
M  V30 7187 H 667.652 -3.12684 -2.36583 0
M  V30 7188 H 669.142 -2.64551 -3.23114 0
M  V30 7189 N 669.579 0.400081 -1.52437 0
M  V30 7190 C 670.509 1.4947 -1.7939 0
M  V30 7191 C 671.49 1.57383 -0.645329 0
M  V30 7192 O 672.675 1.72511 -0.891826 0
M  V30 7193 C 669.805 2.87201 -1.95276 0
M  V30 7194 C 668.759 2.94134 -3.10917 0
M  V30 7195 C 668.085 4.34207 -3.1204 0
M  V30 7196 C 669.385 2.64791 -4.50203 0
M  V30 7197 H 671.079 1.27165 -2.71052 0
M  V30 7198 H 668.625 0.610312 -1.30427 0
M  V30 7199 H 670.578 3.63772 -2.12715 0
M  V30 7200 H 669.302 3.10819 -1.00294 0
M  V30 7201 H 667.961 2.20009 -2.93243 0
M  V30 7202 H 667.609 4.54848 -2.14761 0
M  V30 7203 H 667.309 4.39768 -3.89715 0
M  V30 7204 H 668.833 5.127 -3.31619 0
M  V30 7205 H 670.247 3.31083 -4.68035 0
M  V30 7206 H 668.644 2.81717 -5.29864 0
M  V30 7207 H 669.714 1.60184 -4.57678 0
M  V30 7208 N 671.057 1.43213 0.657864 0
M  V30 7209 C 671.989 1.43974 1.78337 0
M  V30 7210 C 673.002 0.336482 1.59285 0
M  V30 7211 O 674.191 0.600631 1.68091 0
M  V30 7212 C 671.291 1.23242 3.15697 0
M  V30 7213 C 670.464 2.46319 3.61449 0
M  V30 7214 C 669.523 2.2088 4.77597 0
M  V30 7215 O 668.549 2.942 4.87273 0
M  V30 7216 N 669.751 1.22251 5.67481 0
M  V30 7217 H 672.516 2.40993 1.78164 0
M  V30 7218 H 670.077 1.3831 0.841549 0
M  V30 7219 H 672.069 1.04113 3.91079 0
M  V30 7220 H 670.639 0.346849 3.1067 0
M  V30 7221 H 669.859 2.80904 2.76563 0
M  V30 7222 H 671.147 3.28239 3.88763 0
M  V30 7223 H 670.545 0.616433 5.62331 0
M  V30 7224 H 669.102 1.09107 6.42603 0
M  V30 7225 N 672.536 -0.895792 1.29666 0
M  V30 7226 C 673.446 -2.03329 1.17024 0
M  V30 7227 C 674.462 -1.73753 0.0925962 0
M  V30 7228 O 675.638 -1.99071 0.305431 0
M  V30 7229 C 672.703 -3.36072 0.851841 0
M  V30 7230 C 671.764 -3.7914 2.01373 0
M  V30 7231 C 670.997 -5.05549 1.71043 0
M  V30 7232 O 671.22 -5.66874 0.633213 0
M  V30 7233 O 670.154 -5.44764 2.5596 0
M  V30 7234 H 673.98 -2.16918 2.12556 0
M  V30 7235 H 671.565 -1.02007 1.09156 0
M  V30 7236 H 673.447 -4.15729 0.689006 0
M  V30 7237 H 672.122 -3.23616 -0.0736634 0
M  V30 7238 H 671.029 -3.00233 2.23183 0
M  V30 7239 H 672.362 -3.96186 2.92058 0
M  V30 7240 N 674.014 -1.12206 -1.10668 0
M  V30 7241 C 674.944 -0.810086 -2.18997 0
M  V30 7242 C 675.925 0.225065 -1.68604 0
M  V30 7243 O 677.11 0.086783 -1.94006 0
M  V30 7244 C 674.24 -0.261262 -3.46316 0
M  V30 7245 C 673.194 -1.2292 -4.09969 0
M  V30 7246 C 672.52 -0.540713 -5.31959 0
M  V30 7247 C 673.82 -2.58295 -4.53962 0
M  V30 7248 H 675.514 -1.7159 -2.45352 0
M  V30 7249 H 673.06 -0.82646 -1.17922 0
M  V30 7250 H 675.013 -0.0307522 -4.21389 0
M  V30 7251 H 673.737 0.679879 -3.19445 0
M  V30 7252 H 672.396 -1.44548 -3.369 0
M  V30 7253 H 672.044 0.405492 -5.01363 0
M  V30 7254 H 671.744 -1.18637 -5.75499 0
M  V30 7255 H 673.268 -0.319184 -6.09765 0
M  V30 7256 H 674.682 -2.40709 -5.20319 0
M  V30 7257 H 673.079 -3.18916 -5.08343 0
M  V30 7258 H 674.149 -3.16918 -3.67002 0
M  V30 7259 N 675.492 1.28418 -0.913599 0
M  V30 7260 C 676.741 1.94265 -0.542572 0
M  V30 7261 C 677.054 1.72709 0.918207 0
M  V30 7262 O 678.26 2.32778 1.39738 0
M  V30 7263 C 676.716 3.47956 -0.919507 0
M  V30 7264 C 676.324 3.78291 -2.4 0
M  V30 7265 C 678.068 4.19962 -0.619057 0
M  V30 7266 C 675.975 5.2529 -2.71707 0
M  V30 7267 H 674.905 0.727213 -0.199192 0
M  V30 7268 H 677.556 1.45931 -1.11249 0
M  V30 7269 H 675.938 3.9502 -0.278372 0
M  V30 7270 H 677.112 3.42035 -3.08786 0
M  V30 7271 H 675.427 3.19456 -2.67089 0
M  V30 7272 H 678.024 5.28178 -0.832623 0
M  V30 7273 H 678.367 4.13935 0.443126 0
M  V30 7274 H 678.9 3.78674 -1.21865 0
M  V30 7275 H 675.639 5.36394 -3.76778 0
M  V30 7276 H 675.159 5.62743 -2.07559 0
M  V30 7277 H 676.838 5.93027 -2.58703 0
M  V30 7278 N 676.97 0.677563 1.42291 0
M  V30 7279 C 677.92 -0.0218641 2.2799 0
M  V30 7280 C 678.904 -0.770816 1.41235 0
M  V30 7281 O 680.096 -0.649273 1.64662 0
M  V30 7282 C 677.225 -0.970449 3.29298 0
M  V30 7283 C 676.311 -0.218695 4.23536 0
M  V30 7284 N 676.702 0.777908 4.99782 0
M  V30 7285 C 675 -0.456748 4.43655 0
M  V30 7286 C 675.701 1.22632 5.68627 0
M  V30 7287 N 674.677 0.55573 5.40752 0
M  V30 7288 H 678.479 0.742516 2.84366 0
M  V30 7289 H 675.993 0.506862 1.54288 0
M  V30 7290 H 677.99 -1.48652 3.89497 0
M  V30 7291 H 676.65 -1.73463 2.74483 0
M  V30 7292 H 677.661 1.15754 5.04798 0
M  V30 7293 H 674.338 -1.20021 3.99877 0
M  V30 7294 H 675.728 2.05231 6.39789 0
M  V30 7295 N 678.448 -1.51871 0.421078 0
M  V30 7296 C 679.673 -2.0684 -0.152371 0
M  V30 7297 C 680.098 -1.28802 -1.37083 0
M  V30 7298 O 679.456 -0.321482 -1.78427 0
M  V30 7299 C 679.504 -3.57532 -0.469368 0
M  V30 7300 O 678.608 -3.81818 -1.55848 0
M  V30 7301 H 677.949 -0.663939 -0.00898586 0
M  V30 7302 H 680.479 -1.95674 0.597724 0
M  V30 7303 H 680.489 -4.01515 -0.724553 0
M  V30 7304 H 679.164 -4.13761 0.421276 0
M  V30 7305 H 677.741 -3.49709 -1.29453 0
M  V30 7306 N 679.926 -0.151884 -1.56866 0
M  V30 7307 C 680.836 0.798876 -2.20579 0
M  V30 7308 C 681.852 1.268 -1.19154 0
M  V30 7309 O 683.028 1.32418 -1.51748 0
M  V30 7310 C 680.093 2.01861 -2.81874 0
M  V30 7311 C 679.154 1.59825 -3.9844 0
M  V30 7312 C 678.387 2.75984 -4.56802 0
M  V30 7313 O 678.61 3.92331 -4.14044 0
M  V30 7314 O 677.544 2.51175 -5.46987 0
M  V30 7315 H 681.37 0.2865 -3.02346 0
M  V30 7316 H 678.955 0.0753806 -1.4921 0
M  V30 7317 H 680.837 2.73235 -3.20813 0
M  V30 7318 H 679.512 2.52042 -2.03117 0
M  V30 7319 H 678.419 0.854601 -3.64208 0
M  V30 7320 H 679.752 1.14355 -4.78731 0
M  V30 7321 N 681.404 1.57128 0.121893 0
M  V30 7322 C 682.367 1.99197 1.13372 0
M  V30 7323 C 683.367 0.881728 1.3447 0
M  V30 7324 O 684.557 1.14783 1.31036 0
M  V30 7325 C 681.689 2.32963 2.4888 0
M  V30 7326 H 682.882 2.89788 0.772204 0
M  V30 7327 H 680.435 1.51952 0.366093 0
M  V30 7328 H 681.17 1.45243 2.89957 0
M  V30 7329 H 680.955 3.13934 2.34921 0
M  V30 7330 H 682.445 2.66261 3.21706 0
M  V30 7331 N 682.882 -0.391992 1.52647 0
M  V30 7332 C 684.13 -1.13507 1.67214 0
M  V30 7333 C 684.451 -1.90575 0.41304 0
M  V30 7334 O 683.721 -1.87348 -0.572498 0
M  V30 7335 H 682.301 -0.422013 0.616372 0
M  V30 7336 H 684.963 -0.44502 1.89751 0
M  V30 7337 H 684.059 -1.83964 2.52118 0
M  V30 7338 N 684.36 -1.4356 -0.65026 0
M  V30 7339 C 685.27 -1.514 -1.79207 0
M  V30 7340 C 686.286 -0.400895 -1.69319 0
M  V30 7341 O 687.462 -0.655458 -1.90436 0
M  V30 7342 C 684.527 -1.43737 -3.155 0
M  V30 7343 C 683.588 -2.65743 -3.37163 0
M  V30 7344 C 682.821 -2.58436 -4.66954 0
M  V30 7345 O 683.044 -1.63374 -5.46503 0
M  V30 7346 O 681.978 -3.48984 -4.90402 0
M  V30 7347 H 685.804 -2.47825 -1.75547 0
M  V30 7348 H 683.389 -1.25594 -0.809111 0
M  V30 7349 H 685.271 -1.41916 -3.96784 0
M  V30 7350 H 683.946 -0.504488 -3.19745 0
M  V30 7351 H 682.853 -2.73136 -2.55632 0
M  V30 7352 H 684.186 -3.58014 -3.37768 0
M  V30 7353 N 685.838 0.888903 -1.30139 0
M  V30 7354 C 686.77 1.99972 -1.11999 0
M  V30 7355 C 687.783 1.62673 -0.0643619 0
M  V30 7356 O 688.972 1.75788 -0.309983 0
M  V30 7357 C 686.072 3.31904 -0.685059 0
M  V30 7358 C 685.245 3.97665 -1.82158 0
M  V30 7359 C 684.304 5.07894 -1.37585 0
M  V30 7360 O 683.33 5.2974 -2.08241 0
M  V30 7361 N 684.532 5.7995 -0.252697 0
M  V30 7362 H 687.297 2.16085 -2.07671 0
M  V30 7363 H 684.858 1.06175 -1.22223 0
M  V30 7364 H 686.85 4.03005 -0.369964 0
M  V30 7365 H 685.42 3.12084 0.179507 0
M  V30 7366 H 684.64 3.19787 -2.305 0
M  V30 7367 H 685.928 4.3834 -2.58332 0
M  V30 7368 H 685.326 5.647 0.336141 0
M  V30 7369 H 683.883 6.518 0.00296813 0
M  V30 7370 N 687.317 1.12792 1.10072 0
M  V30 7371 C 688.28 0.802264 2.14701 0
M  V30 7372 C 689.28 -0.18515 1.59731 0
M  V30 7373 O 690.47 0.041109 1.74151 0
M  V30 7374 C 687.602 0.19285 3.40354 0
M  V30 7375 H 688.795 1.72932 2.45019 0
M  V30 7376 H 686.348 0.931662 1.25498 0
M  V30 7377 H 687.083 -0.743748 3.15656 0
M  V30 7378 H 686.868 0.903827 3.81541 0
M  V30 7379 H 688.358 -0.0183704 4.17596 0
M  V30 7380 N 688.795 -1.27931 0.920396 0
M  V30 7381 C 689.728 -2.2537 0.358285 0
M  V30 7382 C 690.706 -1.53328 -0.541242 0
M  V30 7383 O 691.89 -1.82196 -0.483399 0
M  V30 7384 C 689.017 -3.35178 -0.487193 0
M  V30 7385 C 688.063 -4.25079 0.347881 0
M  V30 7386 S 688.896 -5.05792 1.75883 0
M  V30 7387 C 690.052 -6.19089 0.920832 0
M  V30 7388 H 690.285 -2.72701 1.18413 0
M  V30 7389 H 687.818 -1.36474 0.722088 0
M  V30 7390 H 689.776 -3.98895 -0.96916 0
M  V30 7391 H 688.437 -2.865 -1.28749 0
M  V30 7392 H 687.63 -5.03113 -0.298912 0
M  V30 7393 H 687.232 -3.66119 0.763748 0
M  V30 7394 H 689.524 -6.77326 0.15349 0
M  V30 7395 H 690.467 -6.8803 1.67394 0
M  V30 7396 H 690.875 -5.62573 0.466069 0
M  V30 7397 N 690.273 -0.685099 -1.4193 0
M  V30 7398 C 691.183 -0.013404 -2.34596 0
M  V30 7399 C 692.199 0.777589 -1.55658 0
M  V30 7400 O 693.375 0.717553 -1.88184 0
M  V30 7401 C 690.44 0.919031 -3.34297 0
M  V30 7402 C 689.501 0.121417 -4.29128 0
M  V30 7403 C 688.734 1.00944 -5.24067 0
M  V30 7404 O 688.957 2.24898 -5.24192 0
M  V30 7405 O 687.891 0.464724 -6.00103 0
M  V30 7406 H 691.717 -0.776978 -2.93593 0
M  V30 7407 H 689.302 -0.445379 -1.42607 0
M  V30 7408 H 691.184 1.45402 -3.9552 0
M  V30 7409 H 689.859 1.66228 -2.77759 0
M  V30 7410 H 688.766 -0.45792 -3.71287 0
M  V30 7411 H 690.099 -0.582937 -4.88736 0
M  V30 7412 N 691.751 1.51645 -0.429126 0
M  V30 7413 C 692.698 2.27542 0.386446 0
M  V30 7414 C 693.668 1.30786 1.02393 0
M  V30 7415 O 694.853 1.59678 1.0444 0
M  V30 7416 C 691.993 3.11457 1.48623 0
M  V30 7417 C 691.106 4.23196 0.867691 0
M  V30 7418 C 690.241 4.94435 1.94183 0
M  V30 7419 C 689.28 5.98108 1.30129 0
M  V30 7420 N 688.417 6.62786 2.31644 0
M  V30 7421 H 693.257 2.968 -0.267155 0
M  V30 7422 H 690.794 1.46397 -0.143591 0
M  V30 7423 H 692.752 3.58429 2.13506 0
M  V30 7424 H 691.382 2.44329 2.10957 0
M  V30 7425 H 690.434 3.80248 0.107373 0
M  V30 7426 H 691.746 4.97499 0.35997 0
M  V30 7427 H 690.9 5.44914 2.66747 0
M  V30 7428 H 689.639 4.19744 2.48326 0
M  V30 7429 H 688.644 5.4693 0.561082 0
M  V30 7430 H 689.869 6.74751 0.767303 0
M  V30 7431 H 687.815 5.90913 2.84883 0
M  V30 7432 H 687.732 7.32828 1.85741 0
M  V30 7433 H 689 7.17897 3.03717 0
M  V30 7434 N 693.229 0.160201 1.56784 0
M  V30 7435 C 694.179 -0.786461 2.14007 0
M  V30 7436 C 695.163 -1.20046 1.07134 0
M  V30 7437 O 696.355 -1.16468 1.33283 0
M  V30 7438 C 693.484 -2.02024 2.77563 0
M  V30 7439 C 692.57 -1.62874 3.91578 0
M  V30 7440 N 692.961 -0.946176 4.96871 0
M  V30 7441 C 691.259 -1.92054 4.02531 0
M  V30 7442 C 691.96 -0.755084 5.76778 0
M  V30 7443 N 690.936 -1.29307 5.27997 0
M  V30 7444 H 694.738 -0.255879 2.92784 0
M  V30 7445 H 692.252 -0.0408778 1.62349 0
M  V30 7446 H 694.249 -2.70855 3.16928 0
M  V30 7447 H 692.909 -2.55587 2.00263 0
M  V30 7448 H 693.92 -0.605455 5.14349 0
M  V30 7449 H 690.597 -2.47374 3.36322 0
M  V30 7450 H 691.987 -0.216138 6.71552 0
M  V30 7451 N 694.707 -1.5719 -0.113559 0
M  V30 7452 C 695.956 -1.84325 -0.818984 0
M  V30 7453 C 696.269 -0.746685 -1.80787 0
M  V30 7454 O 697.475 -0.904596 -2.55987 0
M  V30 7455 C 695.931 -3.26818 -1.50724 0
M  V30 7456 C 695.539 -4.44498 -0.559065 0
M  V30 7457 C 697.283 -3.63196 -2.19748 0
M  V30 7458 C 695.19 -5.7802 -1.25086 0
M  V30 7459 H 694.12 -0.687507 -0.309596 0
M  V30 7460 H 696.771 -1.8336 -0.0717621 0
M  V30 7461 H 695.153 -3.22269 -2.30128 0
M  V30 7462 H 696.327 -4.60356 0.202146 0
M  V30 7463 H 694.642 -4.16393 0.024495 0
M  V30 7464 H 697.239 -4.60226 -2.72206 0
M  V30 7465 H 697.582 -2.90899 -2.97798 0
M  V30 7466 H 698.115 -3.69553 -1.47226 0
M  V30 7467 H 694.854 -6.53501 -0.511539 0
M  V30 7468 H 694.374 -5.66038 -1.98395 0
M  V30 7469 H 696.053 -6.2196 -1.78253 0
M  V30 7470 N 696.185 0.383891 -1.52853 0
M  V30 7471 C 697.601 0.724316 -1.42218 0
M  V30 7472 C 697.801 1.93943 -0.546654 0
M  V30 7473 O 696.857 2.5249 -0.0220562 0
M  V30 7474 C 698.17 0.954635 -2.85144 0
M  V30 7475 C 699.718 1.05579 -2.94656 0
M  V30 7476 C 700.193 1.3187 -4.38605 0
M  V30 7477 N 701.684 1.38681 -4.41952 0
M  V30 7478 C 702.419 1.60699 -5.50421 0
M  V30 7479 N 701.915 1.80154 -6.68967 0
M  V30 7480 N 703.708 1.6292 -5.37972 0
M  V30 7481 H 695.859 -0.4156 -2.08294 0
M  V30 7482 H 698.122 -0.123776 -0.939885 0
M  V30 7483 H 697.828 0.133829 -3.51445 0
M  V30 7484 H 697.702 1.86788 -3.27704 0
M  V30 7485 H 700.089 1.86716 -2.2852 0
M  V30 7486 H 700.17 0.120338 -2.55517 0
M  V30 7487 H 699.814 0.512416 -5.05309 0
M  V30 7488 H 699.744 2.26708 -4.75301 0
M  V30 7489 H 702.235 1.25334 -3.56511 0
M  V30 7490 H 702.548 1.96476 -7.47407 0
M  V30 7491 H 700.893 1.77368 -6.71986 0
M  V30 7492 H 704.084 1.47276 -4.44328 0
M  V30 7493 H 704.257 1.79739 -6.22574 0
M  V30 7494 N 697.663 1.43903 0.642637 0
M  V30 7495 C 698.626 1.49538 1.73698 0
M  V30 7496 C 699.626 0.378776 1.56275 0
M  V30 7497 O 700.816 0.64095 1.6198 0
M  V30 7498 C 697.948 1.35821 3.12675 0
M  V30 7499 H 699.141 2.47008 1.70079 0
M  V30 7500 H 696.694 1.30824 0.85526 0
M  V30 7501 H 697.429 0.393994 3.21898 0
M  V30 7502 H 697.214 2.16776 3.26727 0
M  V30 7503 H 698.704 1.4272 3.92455 0
M  V30 7504 N 699.141 -0.881989 1.30609 0
M  V30 7505 C 700.369 -1.66711 1.22536 0
M  V30 7506 C 700.784 -1.87614 -0.2113 0
M  V30 7507 O 700.141 -1.42576 -1.13923 0
M  V30 7508 C 700.192 -3.04182 1.95335 0
M  V30 7509 O 699.913 -2.8422 3.33393 0
M  V30 7510 C 701.414 -3.98617 1.93956 0
M  V30 7511 H 698.634 -0.520124 0.423925 0
M  V30 7512 H 701.178 -1.10174 1.72285 0
M  V30 7513 H 699.333 -3.57442 1.49378 0
M  V30 7514 H 699.747 -3.71452 3.70302 0
M  V30 7515 H 701.221 -4.92433 2.49426 0
M  V30 7516 H 701.698 -4.29473 0.919198 0
M  V30 7517 H 702.304 -3.51292 2.39738 0
M  V30 7518 N 700.619 -1.13374 -1.09472 0
M  V30 7519 C 701.847 -0.918351 -1.85402 0
M  V30 7520 C 702.262 0.53281 -1.81126 0
M  V30 7521 O 701.619 1.36879 -1.20708 0
M  V30 7522 C 701.67 -1.39743 -3.33398 0
M  V30 7523 O 701.391 -2.79172 -3.37631 0
M  V30 7524 C 702.892 -1.22042 -4.2617 0
M  V30 7525 H 700.112 -0.327511 -0.585643 0
M  V30 7526 H 702.656 -1.50617 -1.38328 0
M  V30 7527 H 700.811 -0.852619 -3.77901 0
M  V30 7528 H 701.225 -3.00428 -4.29934 0
M  V30 7529 H 702.699 -1.60438 -5.2817 0
M  V30 7530 H 703.176 -0.162047 -4.38901 0
M  V30 7531 H 703.782 -1.75323 -3.87482 0
M  V30 7532 N 702.098 1.27442 -0.927168 0
M  V30 7533 C 703.509 1.76385 -0.611979 0
M  V30 7534 C 703.86 1.75715 0.872853 0
M  V30 7535 O 702.985 1.3603 1.683 0
M  V30 7536 C 703.58 3.20303 -1.10414 0
M  V30 7537 C 702.139 3.66916 -0.839628 0
M  V30 7538 C 701.286 2.46859 -1.26317 0
M  V30 7539 H 704.237 1.13716 -1.107 0
M  V30 7540 H 704.258 3.77811 -0.451578 0
M  V30 7541 H 703.77 3.20759 -2.18484 0
M  V30 7542 H 701.871 3.71906 0.227292 0
M  V30 7543 H 701.984 4.56415 -1.45679 0
M  V30 7544 H 700.348 2.45407 -0.681723 0
M  V30 7545 H 701.131 2.50025 -2.3525 0
M  V30 7546 N 703.576 0.692616 1.41565 0
M  V30 7547 C 704.801 0.229776 2.06123 0
M  V30 7548 C 705.226 -1.11119 1.5177 0
M  V30 7549 O 704.584 -1.69498 0.643444 0
M  V30 7550 C 704.632 0.19469 3.60074 0
M  V30 7551 O 703.736 -0.831366 4.03933 0
M  V30 7552 H 703.077 0.113002 0.654314 0
M  V30 7553 H 705.607 0.946645 1.81383 0
M  V30 7554 H 705.617 0.0245487 4.07993 0
M  V30 7555 H 704.292 1.17339 3.99004 0
M  V30 7556 H 702.869 -0.630819 3.67526 0
M  V30 7557 N 705.054 -1.51416 0.437162 0
M  V30 7558 C 706.303 -2.01275 -0.130865 0
M  V30 7559 C 706.616 -1.32593 -1.438 0
M  V30 7560 O 707.822 -1.7342 -2.08897 0
M  V30 7561 C 706.278 -3.5878 -0.283763 0
M  V30 7562 C 705.886 -4.36399 1.01293 0
M  V30 7563 C 707.63 -4.16786 -0.805569 0
M  V30 7564 C 705.537 -5.85608 0.825687 0
M  V30 7565 H 704.467 -0.752157 -0.0526818 0
M  V30 7566 H 707.118 -1.74524 0.566896 0
M  V30 7567 H 705.5 -3.81976 -1.04452 0
M  V30 7568 H 706.674 -4.24948 1.78201 0
M  V30 7569 H 704.989 -3.89843 1.46326 0
M  V30 7570 H 707.586 -5.25972 -0.962146 0
M  V30 7571 H 707.929 -3.75949 -1.78796 0
M  V30 7572 H 708.462 -3.97666 -0.103125 0
M  V30 7573 H 705.201 -6.30857 1.78045 0
M  V30 7574 H 704.721 -5.99723 0.0964029 0
M  V30 7575 H 706.4 -6.45226 0.478815 0
M  V30 7576 N 706.532 -0.168513 -1.56696 0
M  V30 7577 C 707.948 0.187686 -1.58493 0
M  V30 7578 C 708.148 1.63063 -1.18375 0
M  V30 7579 O 707.204 2.36142 -0.894042 0
M  V30 7580 C 708.517 -0.0905858 -3.00564 0
M  V30 7581 C 710.065 -0.028575 -3.12987 0
M  V30 7582 C 710.54 -0.279799 -4.57145 0
M  V30 7583 N 712.031 -0.227476 -4.62641 0
M  V30 7584 C 712.766 -0.396073 -5.7203 0
M  V30 7585 N 712.262 -0.623572 -6.89988 0
M  V30 7586 N 714.055 -0.332173 -5.61118 0
M  V30 7587 H 706.206 -1.11042 -1.81062 0
M  V30 7588 H 708.469 -0.441235 -0.839056 0
M  V30 7589 H 708.175 -1.09006 -3.34381 0
M  V30 7590 H 708.049 0.619078 -3.72085 0
M  V30 7591 H 710.436 0.961471 -2.78998 0
M  V30 7592 H 710.517 -0.770905 -2.43907 0
M  V30 7593 H 710.161 -1.26704 -4.91842 0
M  V30 7594 H 710.091 0.48311 -5.24379 0
M  V30 7595 H 712.582 -0.0571723 -3.77857 0
M  V30 7596 H 712.895 -0.741745 -7.69232 0
M  V30 7597 H 711.24 -0.660153 -6.91858 0
M  V30 7598 H 714.431 -0.155051 -4.67843 0
M  V30 7599 H 714.604 -0.466994 -6.46315 0
M  V30 7600 N 708.01 1.57248 0.105221 0
M  V30 7601 C 709.287 1.76566 0.841647 0
M  V30 7602 C 709.667 0.747566 1.9742 0
M  V30 7603 O 709.015 -0.225886 2.27381 0
M  V30 7604 C 709.225 3.22016 1.3456 0
M  V30 7605 C 710.573 3.84911 1.79244 0
M  V30 7606 O 711.597 3.25703 1.44207 0
M  V30 7607 O 710.456 4.89008 2.43995 0
M  V30 7608 H 707.55 0.723443 0.400698 0
M  V30 7609 H 710.096 1.69472 0.0878893 0
M  V30 7610 H 708.868 3.87644 0.533685 0
M  V30 7611 H 708.491 3.33703 2.16167 0
M  V30 7612 N 709.488 -0.375779 1.53054 0
M  V30 7613 C 710.765 -1.13453 1.59336 0
M  V30 7614 C 711.145 -2.07379 0.394614 0
M  V30 7615 O 710.493 -2.2004 -0.616 0
M  V30 7616 C 710.703 -1.8826 2.93869 0
M  V30 7617 C 712.051 -2.43155 3.48081 0
M  V30 7618 O 713.075 -1.984 2.95831 0
M  V30 7619 O 711.934 -3.24944 4.39401 0
M  V30 7620 H 709.028 -0.519856 0.643179 0
M  V30 7621 H 711.574 -0.379865 1.65394 0
M  V30 7622 H 710.346 -1.19652 3.72558 0
M  V30 7623 H 709.969 -2.70658 2.91256 0
M  V30 7624 N 710.966 -1.44241 -0.634997 0
M  V30 7625 C 712.214 -1.46531 -1.39187 0
M  V30 7626 C 712.535 -0.0976441 -1.94755 0
M  V30 7627 O 711.805 0.869528 -1.75545 0
M  V30 7628 H 710.385 -0.539544 -0.516625 0
M  V30 7629 H 713.047 -1.79989 -0.747655 0
M  V30 7630 H 712.143 -2.18848 -2.22513 0
M  V30 7631 N 712.444 0.87505 -1.31075 0
M  V30 7632 C 713.374 1.99775 -1.20881 0
M  V30 7633 C 714.355 1.69822 -0.0971612 0
M  V30 7634 O 715.54 1.92158 -0.280895 0
M  V30 7635 C 712.67 3.35163 -0.910118 0
M  V30 7636 C 711.624 3.79406 -1.98078 0
M  V30 7637 C 710.95 5.12197 -1.53488 0
M  V30 7638 C 712.25 3.97061 -3.39323 0
M  V30 7639 H 713.944 2.08562 -2.14808 0
M  V30 7640 H 711.49 1.00207 -1.03415 0
M  V30 7641 H 713.443 4.13237 -0.825423 0
M  V30 7642 H 712.167 3.26536 0.064822 0
M  V30 7643 H 710.826 3.03568 -2.05528 0
M  V30 7644 H 710.474 5.00007 -0.547941 0
M  V30 7645 H 710.174 5.4277 -2.2511 0
M  V30 7646 H 711.698 5.92785 -1.46417 0
M  V30 7647 H 713.112 4.65545 -3.34576 0
M  V30 7648 H 711.509 4.39025 -4.09118 0
M  V30 7649 H 712.579 3.00601 -3.80483 0
M  V30 7650 N 713.922 1.13953 1.08869 0
M  V30 7651 C 715.199 0.815768 1.77777 0
M  V30 7652 C 715.579 -0.691624 1.99449 0
M  V30 7653 O 714.927 -1.63085 1.60049 0
M  V30 7654 C 715.137 1.60916 3.09689 0
M  V30 7655 C 716.485 1.80549 3.84301 0
M  V30 7656 O 717.509 1.57562 3.19457 0
M  V30 7657 O 716.368 2.18946 5.00724 0
M  V30 7658 H 713.462 0.298445 0.771271 0
M  V30 7659 H 716.008 1.24446 1.15374 0
M  V30 7660 H 714.78 2.6333 2.89435 0
M  V30 7661 H 714.403 1.17578 3.79817 0
M  V30 7662 N 715.4 -1.26948 0.933913 0
M  V30 7663 C 716.347 -2.26635 0.436484 0
M  V30 7664 C 717.317 -1.58397 -0.499953 0
M  V30 7665 O 718.502 -1.86171 -0.417753 0
M  V30 7666 C 715.642 -3.43803 -0.298951 0
M  V30 7667 C 714.755 -4.26736 0.672316 0
M  V30 7668 C 713.89 -5.31134 -0.0835872 0
M  V30 7669 C 712.929 -6.05742 0.879979 0
M  V30 7670 N 712.066 -7.01926 0.156301 0
M  V30 7671 H 716.906 -2.68558 1.29154 0
M  V30 7672 H 714.443 -1.32052 0.648118 0
M  V30 7673 H 716.401 -4.10554 -0.741723 0
M  V30 7674 H 715.031 -3.02814 -1.1182 0
M  V30 7675 H 714.083 -3.59842 1.23361 0
M  V30 7676 H 715.395 -4.78502 1.40846 0
M  V30 7677 H 714.549 -6.03863 -0.585984 0
M  V30 7678 H 713.288 -4.80188 -0.852661 0
M  V30 7679 H 712.293 -5.31846 1.39357 0
M  V30 7680 H 713.518 -6.58777 1.64894 0
M  V30 7681 H 711.464 -6.53301 -0.594413 0
M  V30 7682 H 711.381 -7.51409 0.831906 0
M  V30 7683 H 712.649 -7.78821 -0.325239 0
M  V30 7684 N 716.879 -0.700114 -1.41195 0
M  V30 7685 C 718.125 -0.233351 -2.01453 0
M  V30 7686 C 718.458 1.16548 -1.55339 0
M  V30 7687 O 717.733 1.78756 -0.766575 0
M  V30 7688 C 718.016 -0.2961 -3.58881 0
M  V30 7689 C 717.869 -1.7322 -4.15108 0
M  V30 7690 C 719.188 0.341525 -4.38773 0
M  V30 7691 H 716.307 -0.0862667 -0.731934 0
M  V30 7692 H 718.949 -0.889693 -1.67882 0
M  V30 7693 H 717.099 0.262736 -3.87611 0
M  V30 7694 H 718.771 -2.34523 -3.97236 0
M  V30 7695 H 717.014 -2.2649 -3.69979 0
M  V30 7696 H 717.685 -1.7276 -5.24269 0
M  V30 7697 H 720.161 -0.134461 -4.15883 0
M  V30 7698 H 719.037 0.267098 -5.4825 0
M  V30 7699 H 719.298 1.42289 -4.18577 0
M  V30 7700 N 718.357 1.51182 -0.445186 0
M  V30 7701 C 719.773 1.59299 -0.0978954 0
M  V30 7702 C 719.973 1.4555 1.39346 0
M  V30 7703 O 719.029 1.30073 2.16419 0
M  V30 7704 C 720.342 2.94133 -0.625005 0
M  V30 7705 C 721.89 3.07463 -0.586137 0
M  V30 7706 C 722.365 4.44832 -1.09035 0
M  V30 7707 N 723.856 4.51173 -1.04867 0
M  V30 7708 C 724.591 5.55804 -1.40959 0
M  V30 7709 N 724.087 6.67816 -1.84375 0
M  V30 7710 N 725.88 5.46205 -1.32726 0
M  V30 7711 H 718.031 1.58363 -1.41544 0
M  V30 7712 H 720.294 0.746946 -0.58376 0
M  V30 7713 H 720 3.09589 -1.66876 0
M  V30 7714 H 719.874 3.77161 -0.0542262 0
M  V30 7715 H 722.261 2.9167 0.448646 0
M  V30 7716 H 722.342 2.26255 -1.19341 0
M  V30 7717 H 721.986 4.61372 -2.12364 0
M  V30 7718 H 721.916 5.24591 -0.459539 0
M  V30 7719 H 724.407 3.70783 -0.729932 0
M  V30 7720 H 724.72 7.43683 -2.10131 0
M  V30 7721 H 723.065 6.69003 -1.88308 0
M  V30 7722 H 726.256 4.57583 -0.986678 0
M  V30 7723 H 726.429 6.27634 -1.61182 0
M  V30 7724 N 719.835 0.176821 1.56605 0
M  V30 7725 C 720.767 -0.782836 2.15417 0
M  V30 7726 C 721.78 -1.18982 1.11117 0
M  V30 7727 O 722.969 -1.12872 1.38283 0
M  V30 7728 C 720.069 -2.06596 2.68647 0
M  V30 7729 C 719.242 -1.82167 3.9766 0
M  V30 7730 C 718.301 -2.94751 4.35899 0
M  V30 7731 O 717.327 -2.65148 5.03672 0
M  V30 7732 N 718.529 -4.2267 3.97907 0
M  V30 7733 H 721.294 -0.280012 2.98389 0
M  V30 7734 H 718.855 -0.00577529 1.61899 0
M  V30 7735 H 720.847 -2.81018 2.91223 0
M  V30 7736 H 719.417 -2.48054 1.90232 0
M  V30 7737 H 718.637 -0.916208 3.83405 0
M  V30 7738 H 719.925 -1.6322 4.81909 0
M  V30 7739 H 719.323 -4.4958 3.43357 0
M  V30 7740 H 717.88 -4.93778 4.25472 0
M  V30 7741 N 721.313 -1.57302 -0.09688 0
M  V30 7742 C 722.561 -1.8563 -0.799117 0
M  V30 7743 C 722.882 -0.765263 -1.79356 0
M  V30 7744 O 722.152 0.208657 -1.94786 0
M  V30 7745 H 720.732 -0.684937 -0.298111 0
M  V30 7746 H 723.394 -1.9474 -0.0789341 0
M  V30 7747 H 722.49 -2.82305 -1.3308 0
M  V30 7748 N 722.791 0.367657 -1.53252 0
M  V30 7749 C 724.04 1.10782 -1.68554 0
M  V30 7750 C 724.353 1.90523 -0.442765 0
M  V30 7751 O 725.559 2.6729 -0.47629 0
M  V30 7752 C 724.015 2.01863 -2.97959 0
M  V30 7753 C 723.623 1.27443 -4.29491 0
M  V30 7754 C 725.367 2.75883 -3.22628 0
M  V30 7755 C 723.274 2.17414 -5.49987 0
M  V30 7756 H 722.204 0.417272 -0.628013 0
M  V30 7757 H 724.855 0.368971 -1.79752 0
M  V30 7758 H 723.237 2.7947 -2.80558 0
M  V30 7759 H 724.411 0.549138 -4.57516 0
M  V30 7760 H 722.726 0.652935 -4.11249 0
M  V30 7761 H 725.323 3.43421 -4.09837 0
M  V30 7762 H 725.666 3.41138 -2.38601 0
M  V30 7763 H 726.199 2.0536 -3.40693 0
M  V30 7764 H 722.938 1.5674 -6.36485 0
M  V30 7765 H 722.458 2.87799 -5.26243 0
M  V30 7766 H 724.137 2.77019 -5.84696 0
M  V30 7767 N 724.269 1.44576 0.627338 0
M  V30 7768 C 725.497 1.51048 1.41394 0
M  V30 7769 C 725.912 0.136568 1.88305 0
M  V30 7770 O 725.269 -0.858251 1.6106 0
M  V30 7771 C 725.32 2.47837 2.63172 0
M  V30 7772 O 725.041 3.79887 2.18215 0
M  V30 7773 C 726.542 2.63811 3.56257 0
M  V30 7774 H 723.762 0.512171 0.4335 0
M  V30 7775 H 726.306 1.89576 0.766878 0
M  V30 7776 H 724.461 2.12433 3.23961 0
M  V30 7777 H 724.875 4.32177 2.97192 0
M  V30 7778 H 726.349 3.35554 4.38301 0
M  V30 7779 H 726.826 1.69169 4.05313 0
M  V30 7780 H 727.432 3.0013 3.01333 0
M  V30 7781 N 725.747 -0.868086 1.31537 0
M  V30 7782 C 726.972 -1.65926 1.24432 0
M  V30 7783 C 727.397 -1.87169 -0.186936 0
M  V30 7784 O 726.755 -1.4148 -1.13371 0
M  V30 7785 C 726.803 -3.00347 1.9956 0
M  V30 7786 O 725.907 -3.90221 1.33422 0
M  V30 7787 H 725.248 -0.506375 0.429512 0
M  V30 7788 H 727.778 -1.0822 1.73637 0
M  V30 7789 H 727.788 -3.50269 2.09226 0
M  V30 7790 H 726.463 -2.84205 3.03645 0
M  V30 7791 H 725.04 -3.48672 1.32219 0
M  V30 7792 N 727.225 -1.14528 -1.08264 0
M  V30 7793 C 728.155 -0.856356 -2.1723 0
M  V30 7794 C 729.136 0.189251 -1.69044 0
M  V30 7795 O 730.321 0.0456119 -1.94146 0
M  V30 7796 C 727.451 -0.334662 -3.45684 0
M  V30 7797 C 726.405 -1.31588 -4.0727 0
M  V30 7798 C 725.731 -0.653428 -5.30692 0
M  V30 7799 C 727.031 -2.67866 -4.48381 0
M  V30 7800 H 728.725 -1.76755 -2.41657 0
M  V30 7801 H 726.271 -0.851287 -1.16143 0
M  V30 7802 H 728.224 -0.120128 -4.21229 0
M  V30 7803 H 726.948 0.611967 -3.20815 0
M  V30 7804 H 725.607 -1.51661 -3.33758 0
M  V30 7805 H 725.255 0.299054 -5.0211 0
M  V30 7806 H 724.955 -1.30817 -5.72853 0
M  V30 7807 H 726.479 -0.448453 -6.08951 0
M  V30 7808 H 727.893 -2.51692 -5.15096 0
M  V30 7809 H 726.29 -3.29627 -5.01464 0
M  V30 7810 H 727.36 -3.24632 -3.60198 0
M  V30 7811 N 728.703 1.26451 -0.940633 0
M  V30 7812 C 729.613 2.30128 -0.455881 0
M  V30 7813 C 730.629 1.67536 0.469867 0
M  V30 7814 O 731.805 1.98344 0.349529 0
M  V30 7815 C 728.87 3.45634 0.271648 0
M  V30 7816 C 727.931 4.23709 -0.690594 0
M  V30 7817 C 727.164 5.337 0.00231047 0
M  V30 7818 O 727.387 5.57215 1.21935 0
M  V30 7819 O 726.321 5.98091 -0.676111 0
M  V30 7820 H 730.147 2.73655 -1.31707 0
M  V30 7821 H 727.732 1.3164 -0.706497 0
M  V30 7822 H 729.614 4.15853 0.681486 0
M  V30 7823 H 728.289 3.04138 1.10824 0
M  V30 7824 H 727.196 3.55974 -1.15037 0
M  V30 7825 H 728.529 4.68953 -1.49478 0
M  V30 7826 N 730.181 0.707592 1.40822 0
M  V30 7827 C 731.091 0.0507246 2.34545 0
M  V30 7828 C 732.107 -0.752727 1.56876 0
M  V30 7829 O 733.283 -0.687524 1.89302 0
M  V30 7830 C 730.348 -0.865731 3.35717 0
M  V30 7831 C 729.409 -0.0531313 4.29267 0
M  V30 7832 C 728.642 -0.925939 5.25606 0
M  V30 7833 O 728.865 -2.16531 5.27703 0
M  V30 7834 O 727.799 -0.369194 6.00767 0
M  V30 7835 H 731.625 0.823587 2.9232 0
M  V30 7836 H 729.21 0.46801 1.4188 0
M  V30 7837 H 731.092 -1.39091 3.97783 0
M  V30 7838 H 729.767 -1.61788 2.80368 0
M  V30 7839 H 728.674 0.516931 3.70511 0
M  V30 7840 H 730.007 0.660617 4.87747 0
M  V30 7841 N 731.66 -1.50943 0.453197 0
M  V30 7842 C 732.906 -2.02512 -0.108082 0
M  V30 7843 C 733.239 -1.33574 -1.40967 0
M  V30 7844 O 732.514 -0.455671 -1.89087 0
M  V30 7845 C 732.797 -3.58759 -0.310453 0
M  V30 7846 C 732.65 -4.38293 1.0109 0
M  V30 7847 C 733.969 -4.26816 -1.07313 0
M  V30 7848 H 731.088 -0.73603 -0.0378064 0
M  V30 7849 H 733.73 -1.80433 0.595295 0
M  V30 7850 H 731.88 -3.77702 -0.909582 0
M  V30 7851 H 733.552 -4.30964 1.64523 0
M  V30 7852 H 731.795 -4.02745 1.61179 0
M  V30 7853 H 732.466 -5.45828 0.82315 0
M  V30 7854 H 734.942 -4.1224 -0.565473 0
M  V30 7855 H 733.818 -5.35989 -1.1835 0
M  V30 7856 H 734.079 -3.88757 -2.10525 0
M  V30 7857 N 733.138 -0.185124 -1.56509 0
M  V30 7858 C 734.071 0.77877 -2.145 0
M  V30 7859 C 735.049 1.21649 -1.07891 0
M  V30 7860 O 736.233 1.30579 -1.35946 0
M  V30 7861 C 733.36 2.05048 -2.69579 0
M  V30 7862 C 732.406 1.75569 -3.88687 0
M  V30 7863 S 733.239 0.912642 -5.27666 0
M  V30 7864 C 734.395 2.19471 -5.8616 0
M  V30 7865 H 734.628 0.285751 -2.95924 0
M  V30 7866 H 732.161 0.0297417 -1.54371 0
M  V30 7867 H 734.119 2.78085 -3.01958 0
M  V30 7868 H 732.78 2.51462 -1.88216 0
M  V30 7869 H 731.973 2.69962 -4.25601 0
M  V30 7870 H 731.575 1.10619 -3.57267 0
M  V30 7871 H 733.867 3.14815 -5.99915 0
M  V30 7872 H 734.81 1.87005 -6.8296 0
M  V30 7873 H 735.218 2.31862 -5.14685 0
M  V30 7874 N 734.616 1.57351 0.0885366 0
M  V30 7875 C 736.032 1.53331 0.442916 0
M  V30 7876 C 736.232 0.902831 1.80142 0
M  V30 7877 O 735.288 0.498147 2.47537 0
M  V30 7878 C 736.601 2.98036 0.399372 0
M  V30 7879 C 738.149 3.09286 0.480759 0
M  V30 7880 C 738.624 4.5561 0.467296 0
M  V30 7881 N 740.115 4.60182 0.52786 0
M  V30 7882 C 740.85 5.70857 0.539388 0
M  V30 7883 N 740.346 6.90944 0.506729 0
M  V30 7884 N 742.139 5.59051 0.584691 0
M  V30 7885 H 734.29 1.96709 -0.801215 0
M  V30 7886 H 736.553 0.899639 -0.298922 0
M  V30 7887 H 736.259 3.47656 -0.531806 0
M  V30 7888 H 736.133 3.57066 1.21589 0
M  V30 7889 H 738.52 2.5965 1.40236 0
M  V30 7890 H 738.601 2.53197 -0.364023 0
M  V30 7891 H 738.245 5.05899 -0.450384 0
M  V30 7892 H 738.175 5.09544 1.32938 0
M  V30 7893 H 740.666 3.73757 0.558028 0
M  V30 7894 H 740.979 7.71055 0.518989 0
M  V30 7895 H 739.324 6.93384 0.473675 0
M  V30 7896 H 742.515 4.64138 0.607781 0
M  V30 7897 H 742.688 6.45307 0.590206 0
M  V30 7898 N 736.094 -0.359525 1.53444 0
M  V30 7899 C 737.34 -1.10315 1.70172 0
M  V30 7900 C 737.673 -1.88788 0.455287 0
M  V30 7901 O 736.948 -1.86635 -0.547514 0
M  V30 7902 C 737.231 -2.05744 2.95536 0
M  V30 7903 C 737.084 -1.3084 4.3035 0
M  V30 7904 C 738.403 -3.05784 3.16518 0
M  V30 7905 H 735.522 -0.399662 0.619225 0
M  V30 7906 H 738.164 -0.383338 1.86093 0
M  V30 7907 H 736.314 -2.67125 2.82093 0
M  V30 7908 H 737.986 -0.721959 4.55615 0
M  V30 7909 H 736.229 -0.610283 4.29486 0
M  V30 7910 H 736.9 -2.00718 5.14214 0
M  V30 7911 H 739.376 -2.5451 3.29187 0
M  V30 7912 H 738.252 -3.69772 4.05659 0
M  V30 7913 H 738.513 -3.76289 2.32076 0
M  V30 7914 N 737.572 -1.44907 -0.619662 0
M  V30 7915 C 738.8 -1.51795 -1.40591 0
M  V30 7916 C 739.215 -0.146553 -1.8823 0
M  V30 7917 O 738.572 0.849698 -1.61513 0
M  V30 7918 C 738.623 -2.49229 -2.61853 0
M  V30 7919 O 738.344 -3.81039 -2.16197 0
M  V30 7920 C 739.845 -2.65696 -3.54853 0
M  V30 7921 H 737.065 -0.514463 -0.430777 0
M  V30 7922 H 739.609 -1.8998 -0.756813 0
M  V30 7923 H 737.764 -2.14149 -3.2283 0
M  V30 7924 H 738.178 -4.33747 -2.94896 0
M  V30 7925 H 739.652 -3.37874 -4.36515 0
M  V30 7926 H 740.129 -1.71316 -4.0441 0
M  V30 7927 H 740.735 -3.01724 -2.99737 0
M  V30 7928 N 739.05 0.861098 -1.31996 0
M  V30 7929 C 739.997 1.96912 -1.20392 0
M  V30 7930 C 740.967 1.65869 -0.0875899 0
M  V30 7931 O 742.152 1.88992 -0.262011 0
M  V30 7932 C 739.292 3.32435 -0.926335 0
M  V30 7933 C 738.405 3.76018 -2.12684 0
M  V30 7934 C 737.54 5.00301 -1.78529 0
M  V30 7935 C 736.579 5.36357 -2.94937 0
M  V30 7936 N 735.716 6.51818 -2.60917 0
M  V30 7937 H 740.556 2.06169 -2.1517 0
M  V30 7938 H 738.093 1.00917 -1.07024 0
M  V30 7939 H 740.051 4.10478 -0.745917 0
M  V30 7940 H 738.681 3.22796 -0.0153578 0
M  V30 7941 H 737.733 2.93683 -2.41774 0
M  V30 7942 H 739.045 3.98664 -2.99781 0
M  V30 7943 H 738.199 5.86034 -1.57001 0
M  V30 7944 H 736.938 4.79578 -0.886356 0
M  V30 7945 H 735.943 4.49139 -3.17103 0
M  V30 7946 H 737.168 5.59041 -3.85552 0
M  V30 7947 H 735.114 6.32624 -1.73558 0
M  V30 7948 H 735.031 6.7445 -3.41544 0
M  V30 7949 H 736.299 7.4072 -2.42804 0
M  V30 7950 N 740.528 1.15101 1.07655 0
M  V30 7951 C 741.438 0.858869 2.18313 0
M  V30 7952 C 742.454 -0.163641 1.73229 0
M  V30 7953 O 743.63 0.00969541 2.01398 0
M  V30 7954 C 740.695 0.34893 3.4494 0
M  V30 7955 C 739.756 1.43495 4.04608 0
M  V30 7956 C 738.989 0.949253 5.2519 0
M  V30 7957 O 739.212 -0.20636 5.70027 0
M  V30 7958 O 738.146 1.73161 5.76454 0
M  V30 7959 H 741.972 1.78386 2.45788 0
M  V30 7960 H 739.557 0.929876 1.16934 0
M  V30 7961 H 741.439 0.070851 4.2134 0
M  V30 7962 H 740.114 -0.548237 3.19024 0
M  V30 7963 H 739.021 1.7666 3.29761 0
M  V30 7964 H 740.354 2.30692 4.3479 0
M  V30 7965 N 742.006 -1.2595 0.947325 0
M  V30 7966 C 743.231 -1.98083 0.614633 0
M  V30 7967 C 743.656 -1.70013 -0.804815 0
M  V30 7968 O 743.014 -0.95175 -1.54309 0
M  V30 7969 C 743.062 -3.4993 0.870706 0
M  V30 7970 O 742.166 -4.12364 -0.0541451 0
M  V30 7971 H 741.507 -0.621232 0.234451 0
M  V30 7972 H 744.037 -1.60259 1.27193 0
M  V30 7973 H 744.047 -4.00198 0.794051 0
M  V30 7974 H 742.722 -3.69691 1.90529 0
M  V30 7975 H 741.299 -3.72826 0.0740917 0
M  V30 7976 O 743.523 -0.8533 -1.37117 0
M  V30 7977 H 744.214 -0.44662 -1.88481 0
M  V30 END ATOM
M  V30 BEGIN BOND
M  V30 END BOND
M  V30 END CTAB
M  END
$$$$
