drugbank_target|P37268 Squalene synthase (DB05317)
 OpenBabel12092120213D

  0  0  0     0  0            999 V3000
M  V30 BEGIN CTAB
M  V30 COUNTS 6735 6808 0 0 0
M  V30 BEGIN ATOM
M  V30 1 H -0.908 1.98254 -0.117106 0
M  V30 2 N 0 1.576 0 0
M  V30 3 C 0.933 2.03868 1.02534 0
M  V30 4 C 1.911 0.928543 1.3348 0
M  V30 5 O 3.095 1.19667 1.45644 0
M  V30 6 C 0.222 2.43627 2.35294 0
M  V30 7 C -0.732 3.65373 2.2001 0
M  V30 8 S 0.101 5.13292 1.52614 0
M  V30 9 C 1.257 5.56322 2.86805 0
M  V30 10 H 1.49 2.90518 0.631377 0
M  V30 11 H -0.977 1.52953 0.210867 0
M  V30 12 H 0.981 2.67203 3.11629 0
M  V30 13 H -0.358 1.57376 2.7183 0
M  V30 14 H -1.165 3.90944 3.18086 0
M  V30 15 H -1.563 3.418 1.51819 0
M  V30 16 H 0.729 5.58782 3.83104 0
M  V30 17 H 1.672 6.56266 2.65933 0
M  V30 18 H 2.08 4.83886 2.90714 0
M  V30 19 N 1.4781 -0.272755 1.55222 0
M  V30 20 C 2.3881 -1.35918 1.91216 0
M  V30 21 C 3.4041 -1.54026 0.809436 0
M  V30 22 O 4.5801 -1.68148 1.10852 0
M  V30 23 C 1.6451 -2.69834 2.17693 0
M  V30 24 C 0.7061 -2.6047 3.41253 0
M  V30 25 C -0.0609 -3.88 3.66458 0
M  V30 26 O 0.1621 -4.88693 2.94169 0
M  V30 27 O -0.9039 -3.88189 4.59992 0
M  V30 28 H 2.9221 -1.0839 2.83699 0
M  V30 29 H 0.5071 -0.471301 1.41771 0
M  V30 30 H 2.3891 -3.49017 2.36147 0
M  V30 31 H 1.0641 -2.97148 1.28392 0
M  V30 32 H -0.0289 -1.79663 3.28134 0
M  V30 33 H 1.3041 -2.38106 4.30774 0
M  V30 34 N 2.9562 -1.48159 -0.537278 0
M  V30 35 C 4.2032 -1.55804 -1.29349 0
M  V30 36 C 4.5312 -0.228802 -1.9315 0
M  V30 37 O 3.7862 0.780242 -1.79473 0
M  V30 38 C 4.0852 -2.63956 -2.40961 0
M  V30 39 C 3.7512 -4.0662 -1.94861 0
M  V30 40 C 2.4132 -4.45452 -1.82006 0
M  V30 41 C 4.7652 -4.96055 -1.59933 0
M  V30 42 C 2.0932 -5.71531 -1.32547 0
M  V30 43 C 4.4452 -6.22617 -1.11939 0
M  V30 44 C 3.1092 -6.60312 -0.976951 0
M  V30 45 H 2.3792 -0.570129 -0.473322 0
M  V30 46 H 5.0262 -1.81845 -0.600372 0
M  V30 47 H 3.3312 -2.31747 -3.15912 0
M  V30 48 H 5.0282 -2.67089 -2.99107 0
M  V30 49 H 1.6182 -3.75949 -2.05815 0
M  V30 50 H 5.8022 -4.66738 -1.68728 0
M  V30 51 H 1.0582 -5.99468 -1.202 0
M  V30 52 H 5.2322 -6.91318 -0.839811 0
M  V30 53 H 2.8592 -7.57895 -0.591501 0
M  V30 54 N 4.4343 0.785586 -1.36625 0
M  V30 55 C 5.6803 1.54591 -1.31261 0
M  V30 56 C 6.0133 1.93906 0.106823 0
M  V30 57 O 5.2883 1.63007 1.06108 0
M  V30 58 C 5.5713 2.82038 -2.23889 0
M  V30 59 C 5.4243 2.49066 -3.74548 0
M  V30 60 C 6.7433 3.83887 -2.15217 0
M  V30 61 H 3.8623 0.560846 -0.478143 0
M  V30 62 H 6.5043 0.902278 -1.67209 0
M  V30 63 H 4.6543 3.36961 -1.93363 0
M  V30 64 H 6.3263 2.00164 -4.15611 0
M  V30 65 H 4.5693 1.81954 -3.93796 0
M  V30 66 H 5.2403 3.40109 -4.34776 0
M  V30 67 H 7.7163 3.38421 -2.42096 0
M  V30 68 H 6.5923 4.70806 -2.82193 0
M  V30 69 H 6.8533 4.27131 -1.14068 0
M  V30 70 N 5.9124 1.20967 1.01018 0
M  V30 71 C 6.8594 0.964281 2.09691 0
M  V30 72 C 7.8294 -0.107853 1.65749 0
M  V30 73 O 9.0144 0.0381987 1.90762 0
M  V30 74 C 6.1544 0.52943 3.41015 0
M  V30 75 C 5.2674 1.67043 3.98398 0
M  V30 76 C 4.4024 1.18525 5.17808 0
M  V30 77 C 3.4414 2.29892 5.67288 0
M  V30 78 N 2.5784 1.82546 6.77954 0
M  V30 79 H 7.4184 1.89463 2.30017 0
M  V30 80 H 4.9554 0.944289 1.1279 0
M  V30 81 H 6.9134 0.258588 4.16398 0
M  V30 82 H 5.5434 -0.363919 3.20742 0
M  V30 83 H 4.5954 2.05603 3.20049 0
M  V30 84 H 5.9074 2.50877 4.31117 0
M  V30 85 H 5.0614 0.870762 6.00419 0
M  V30 86 H 3.8004 0.316887 4.86669 0
M  V30 87 H 2.8054 2.6215 4.83278 0
M  V30 88 H 4.0304 3.17216 6.00459 0
M  V30 89 H 1.9764 0.980454 6.48632 0
M  V30 90 H 1.8934 2.59956 7.09901 0
M  V30 91 H 3.1614 1.54115 7.64113 0
M  V30 92 N 7.3905 -1.2043 1.01659 0
M  V30 93 C 8.6305 -1.91507 0.714456 0
M  V30 94 C 8.9945 -1.77073 -0.742237 0
M  V30 95 O 10.1955 -2.42631 -1.15688 0
M  V30 96 C 8.4665 -3.38795 1.13809 0
M  V30 97 S 10.0255 -4.28216 0.957925 0
M  V30 98 H 6.8435 -0.661571 0.260471 0
M  V30 99 H 9.4455 -1.45671 1.30384 0
M  V30 100 H 8.1495 -3.46822 2.19415 0
M  V30 101 H 7.6805 -3.89656 0.541474 0
M  V30 102 H 9.6955 -4.96007 -0.138531 0
M  V30 103 N 8.8686 -0.792821 -1.36206 0
M  V30 104 C 9.7986 -0.207853 -2.32573 0
M  V30 105 C 10.7796 0.659055 -1.56813 0
M  V30 106 O 11.9646 0.592176 -1.84951 0
M  V30 107 C 9.0946 0.655449 -3.41059 0
M  V30 108 C 8.0486 -0.111842 -4.27854 0
M  V30 109 C 7.3746 0.872274 -5.27537 0
M  V30 110 C 8.6746 -1.30299 -5.05786 0
M  V30 111 H 10.3686 -1.01294 -2.81744 0
M  V30 112 H 7.9146 -0.48854 -1.3546 0
M  V30 113 H 9.8676 1.07464 -4.07467 0
M  V30 114 H 8.5916 1.49328 -2.90463 0
M  V30 115 H 7.2506 -0.512053 -3.63006 0
M  V30 116 H 6.8986 1.70523 -4.73214 0
M  V30 117 H 6.5986 0.363291 -5.86476 0
M  V30 118 H 8.1226 1.28996 -5.96818 0
M  V30 119 H 9.5366 -0.959379 -5.65216 0
M  V30 120 H 7.9336 -1.7455 -5.74154 0
M  V30 121 H 9.0036 -2.09663 -4.37229 0
M  V30 122 N 10.3467 1.47872 -0.545128 0
M  V30 123 C 11.5947 2.02093 -0.016553 0
M  V30 124 C 11.9157 1.42305 1.3332 0
M  V30 125 O 11.1857 0.593853 1.86682 0
M  V30 126 H 9.7657 0.746993 -0.00313038 0
M  V30 127 H 12.4277 1.81414 -0.712397 0
M  V30 128 H 11.5237 3.11996 0.0805422 0
M  V30 129 N 11.8248 0.280983 1.55075 0
M  V30 130 C 12.7748 -0.618585 2.19448 0
M  V30 131 C 13.7588 -1.11401 1.16098 0
M  V30 132 O 14.9508 -1.0581 1.41891 0
M  V30 133 C 12.0798 -1.79951 2.92357 0
M  V30 134 C 11.1658 -1.321 4.03002 0
M  V30 135 N 11.5568 -0.559044 5.02701 0
M  V30 136 C 9.8548 -1.60346 4.16179 0
M  V30 137 C 10.5558 -0.306722 5.80891 0
M  V30 138 N 9.5318 -0.880825 5.36416 0
M  V30 139 H 13.3338 -0.0286638 2.93886 0
M  V30 140 H 10.8478 0.0848104 1.62178 0
M  V30 141 H 12.8448 -2.45531 3.36927 0
M  V30 142 H 11.5048 -2.39333 2.19431 0
M  V30 143 H 12.5158 -0.205827 5.17491 0
M  V30 144 H 9.1928 -2.20621 3.54447 0
M  V30 145 H 10.5828 0.30391 6.71212 0
M  V30 146 N 13.3029 -1.57598 0.00835791 0
M  V30 147 C 14.7139 -1.7892 -0.53333 0
M  V30 148 C 15.0649 -0.916609 -1.73473 0
M  V30 149 O 14.1899 -0.121336 -2.1606 0
M  V30 150 C 14.7849 -3.24488 -0.974313 0
M  V30 151 C 13.3439 -3.46878 -1.46125 0
M  V30 152 C 12.4909 -2.74157 -0.416302 0
M  V30 153 H 15.4419 -1.56958 0.234495 0
M  V30 154 H 15.4629 -3.3306 -1.83988 0
M  V30 155 H 14.9749 -3.87972 -0.099718 0
M  V30 156 H 13.0759 -2.8862 -2.35646 0
M  V30 157 H 13.1889 -4.55572 -1.48295 0
M  V30 158 H 11.5529 -2.39022 -0.87981 0
M  V30 159 H 12.3359 -3.40345 0.44947 0
M  V30 160 N 14.781 0.264519 -1.55364 0
M  V30 161 C 15.691 1.34902 -1.91934 0
M  V30 162 C 16.707 1.53595 -0.817593 0
M  V30 163 O 17.883 1.67558 -1.11742 0
M  V30 164 C 14.948 2.68676 -2.19121 0
M  V30 165 C 14.009 2.58657 -3.4263 0
M  V30 166 C 13.242 3.86051 -3.68511 0
M  V30 167 O 13.465 4.87126 -2.96757 0
M  V30 168 O 12.399 3.85744 -4.62045 0
M  V30 169 H 16.225 1.06883 -2.8427 0
M  V30 170 H 13.81 0.463775 -1.42019 0
M  V30 171 H 15.692 3.47759 -2.37995 0
M  V30 172 H 14.367 2.96463 -1.29966 0
M  V30 173 H 13.274 1.7792 -3.29082 0
M  V30 174 H 14.607 2.35818 -4.32031 0
M  V30 175 N 16.2591 1.48442 0.529413 0
M  V30 176 C 17.1691 1.6569 1.66084 0
M  V30 177 C 18.1851 0.539432 1.65427 0
M  V30 178 O 19.3611 0.810572 1.84368 0
M  V30 179 C 16.4261 1.69315 3.02545 0
M  V30 180 C 15.4871 2.92694 3.14052 0
M  V30 181 C 14.7201 2.96137 4.44003 0
M  V30 182 O 14.9431 2.07973 5.31134 0
M  V30 183 O 13.8771 3.88312 4.59888 0
M  V30 184 H 17.7031 2.61483 1.54469 0
M  V30 185 H 15.2881 1.3185 0.702567 0
M  V30 186 H 17.1701 1.74217 3.83701 0
M  V30 187 H 15.8451 0.766966 3.14483 0
M  V30 188 H 14.7521 2.93324 2.32189 0
M  V30 189 H 16.0851 3.84699 3.0703 0
M  V30 190 N 17.7372 -0.778329 1.37039 0
M  V30 191 C 18.9842 -1.53665 1.31884 0
M  V30 192 C 19.3122 -1.9425 -0.0986303 0
M  V30 193 O 18.5672 -1.63832 -1.07041 0
M  V30 194 C 18.8662 -2.81845 2.19768 0
M  V30 195 C 18.5322 -2.60345 3.68146 0
M  V30 196 C 17.1942 -2.5419 4.08584 0
M  V30 197 C 19.5462 -2.40923 4.62175 0
M  V30 198 C 16.8742 -2.26594 5.41177 0
M  V30 199 C 19.2262 -2.14852 5.94997 0
M  V30 200 C 17.8902 -2.07137 6.34547 0
M  V30 201 H 17.1602 -0.562299 0.482598 0
M  V30 202 H 19.8072 -0.897069 1.69189 0
M  V30 203 H 18.1122 -3.50328 1.75436 0
M  V30 204 H 19.8092 -3.39692 2.13097 0
M  V30 205 H 16.3992 -2.65996 3.36072 0
M  V30 206 H 20.5832 -2.44673 4.31797 0
M  V30 207 H 15.8392 -2.19111 5.70789 0
M  V30 208 H 20.0132 -1.98822 6.67415 0
M  V30 209 H 17.6402 -1.85518 7.37216 0
M  V30 210 N 19.2153 -1.21501 -1.00376 0
M  V30 211 C 20.4453 -1.05746 -1.77486 0
M  V30 212 C 20.8533 0.395655 -1.85017 0
M  V30 213 O 20.1963 1.28626 -1.31152 0
M  V30 214 C 20.2583 -1.58092 -3.22873 0
M  V30 215 C 19.9223 -3.06568 -3.38917 0
M  V30 216 C 20.9193 -4.04106 -3.271 0
M  V30 217 C 18.6043 -3.45799 -3.64319 0
M  V30 218 C 20.5983 -5.38862 -3.40451 0
M  V30 219 C 18.2853 -4.80707 -3.77311 0
M  V30 220 C 19.2833 -5.77047 -3.65384 0
M  V30 221 O 18.9713 -7.09507 -3.77961 0
M  V30 222 H 18.7033 -0.371778 -0.564586 0
M  V30 223 H 21.2573 -1.61319 -1.27143 0
M  V30 224 H 19.4873 -0.969163 -3.74358 0
M  V30 225 H 21.1763 -1.38162 -3.81662 0
M  V30 226 H 21.9423 -3.75141 -3.07399 0
M  V30 227 H 17.8213 -2.71344 -3.72684 0
M  V30 228 H 21.3653 -6.14041 -3.31058 0
M  V30 229 H 17.2623 -5.09357 -3.96517 0
M  V30 230 H 18.0303 -7.16935 -3.94901 0
M  V30 231 N 20.6934 1.19889 -1.02296 0
M  V30 232 C 21.6414 2.24938 -0.592081 0
M  V30 233 C 22.6354 1.65257 0.372357 0
M  V30 234 O 23.8414 1.78371 0.241583 0
M  V30 235 H 20.2164 0.731787 -0.173182 0
M  V30 236 H 22.1874 2.58603 -1.48885 0
M  V30 237 C 20.9364 3.47668 0.047351 0
M  V30 238 H 20.2594 3.93875 -0.685772 0
M  V30 239 H 21.6994 4.22852 0.311862 0
M  V30 240 C 20.1584 3.11136 1.29212 0
M  V30 241 O 20.6884 3.2325 2.38479 0
M  V30 242 N 18.8944 2.65625 1.17863 0
M  V30 243 H 18.4414 2.55968 0.289493 0
M  V30 244 H 18.3994 2.41553 2.01245 0
M  V30 245 N 22.1715 0.800033 1.35784 0
M  V30 246 C 23.1015 0.220184 2.3246 0
M  V30 247 C 24.0825 -0.65073 1.57161 0
M  V30 248 O 25.2675 -0.582359 1.85263 0
M  V30 249 C 22.3975 -0.637353 3.41402 0
M  V30 250 C 21.3515 0.134531 4.27789 0
M  V30 251 C 20.6775 -0.844285 5.27992 0
M  V30 252 C 21.9775 1.32979 5.05088 0
M  V30 253 H 23.6715 1.02787 2.81203 0
M  V30 254 H 21.2175 0.495717 1.35199 0
M  V30 255 H 23.1705 -1.05302 4.08031 0
M  V30 256 H 21.8945 -1.47785 2.91251 0
M  V30 257 H 20.5535 0.531296 3.6273 0
M  V30 258 H 20.2015 -1.68011 4.74111 0
M  V30 259 H 19.9015 -0.332184 5.8666 0
M  V30 260 H 21.4255 -1.2583 5.97494 0
M  V30 261 H 22.8395 0.98934 5.64699 0
M  V30 262 H 21.2365 1.77593 5.7322 0
M  V30 263 H 22.3065 2.11978 4.36111 0
M  V30 264 N 23.6496 -1.47581 0.552962 0
M  V30 265 C 24.8956 -2.02782 0.0273648 0
M  V30 266 C 25.2286 -1.42687 -1.31734 0
M  V30 267 O 24.5036 -0.580897 -1.85623 0
M  V30 268 C 24.7866 -3.60031 -0.0702371 0
M  V30 269 C 24.6396 -4.30566 1.30126 0
M  V30 270 C 25.9586 -4.33028 -0.785771 0
M  V30 271 H 23.0776 -0.736912 0.0114185 0
M  V30 272 H 25.7196 -1.76056 0.714432 0
M  V30 273 H 23.8696 -3.82932 -0.655382 0
M  V30 274 H 25.5416 -4.19018 1.92929 0
M  V30 275 H 23.7846 -3.91086 1.87709 0
M  V30 276 H 24.4556 -5.39114 1.18573 0
M  V30 277 H 26.9316 -4.15095 -0.288982 0
M  V30 278 H 25.8076 -5.42695 -0.823013 0
M  V30 279 H 26.0686 -4.01945 -1.841 0
M  V30 280 N 25.1277 -0.289203 -1.54924 0
M  V30 281 C 26.5437 0.0645403 -1.59469 0
M  V30 282 C 26.7437 1.53419 -1.30632 0
M  V30 283 O 25.7997 2.2852 -1.074 0
M  V30 284 C 27.1127 -0.32278 -2.98963 0
M  V30 285 C 28.6607 -0.270564 -3.11828 0
M  V30 286 C 29.1357 -0.632532 -4.53611 0
M  V30 287 N 30.6267 -0.584617 -4.59496 0
M  V30 288 C 31.3617 -0.837314 -5.67254 0
M  V30 289 N 30.8577 -1.15536 -6.83098 0
M  V30 290 N 32.6507 -0.765166 -5.56868 0
M  V30 291 H 24.8017 -1.24714 -1.71931 0
M  V30 292 H 27.0647 -0.504809 -0.802416 0
M  V30 293 H 26.7707 -1.34541 -3.24948 0
M  V30 294 H 26.6447 0.32944 -3.75759 0
M  V30 295 H 29.0317 0.742805 -2.85598 0
M  V30 296 H 29.1127 -0.957242 -2.37214 0
M  V30 297 H 28.7567 -1.64365 -4.80569 0
M  V30 298 H 28.6867 0.07609 -5.26545 0
M  V30 299 H 31.1777 -0.349248 -3.76283 0
M  V30 300 H 31.4907 -1.33447 -7.61191 0
M  V30 301 H 29.8357 -1.19328 -6.84679 0
M  V30 302 H 33.0267 -0.516432 -4.65243 0
M  V30 303 H 33.1997 -0.965477 -6.40767 0
M  V30 304 N 26.6058 1.57591 -0.0167156 0
M  V30 305 C 27.8528 1.91283 0.664597 0
M  V30 306 C 28.1808 0.891949 1.72842 0
M  V30 307 O 27.4358 -0.100931 1.9544 0
M  V30 308 C 27.7348 3.3172 1.33029 0
M  V30 309 C 27.4008 4.4914 0.398047 0
M  V30 310 C 26.0628 4.80992 0.141421 0
M  V30 311 C 28.4148 5.20634 -0.242825 0
M  V30 312 C 25.7428 5.81703 -0.764092 0
M  V30 313 C 28.0948 6.22311 -1.13632 0
M  V30 314 C 26.7588 6.52611 -1.40196 0
M  V30 315 H 26.0288 0.699956 0.243193 0
M  V30 316 H 28.6758 1.9135 -0.0758267 0
M  V30 317 H 26.9808 3.27856 2.14517 0
M  V30 318 H 28.6778 3.55055 1.86379 0
M  V30 319 H 25.2678 4.24262 0.608238 0
M  V30 320 H 29.4518 4.96267 -0.0576019 0
M  V30 321 H 24.7078 6.03532 -0.977732 0
M  V30 322 H 28.8818 6.76834 -1.63917 0
M  V30 323 H 26.5088 7.30467 -2.10529 0
M  V30 324 N 28.0839 -0.256276 1.55502 0
M  V30 325 C 29.4999 -0.604325 1.47716 0
M  V30 326 C 29.6999 -1.88763 0.705039 0
M  V30 327 O 28.7559 -2.51445 0.230613 0
M  V30 328 C 30.0689 -0.715756 2.92057 0
M  V30 329 C 31.6169 -0.808706 3.02372 0
M  V30 330 C 32.0919 -0.951777 4.48001 0
M  V30 331 N 33.5829 -1.01688 4.519 0
M  V30 332 C 34.3179 -1.14668 5.61817 0
M  V30 333 N 33.8139 -1.24261 6.81565 0
M  V30 334 N 35.6069 -1.1791 5.49594 0
M  V30 335 H 27.7579 0.586291 2.04148 0
M  V30 336 H 30.0209 0.201015 0.926443 0
M  V30 337 H 29.7269 0.157027 3.51349 0
M  V30 338 H 29.6009 -1.59071 3.42018 0
M  V30 339 H 31.9879 -1.67195 2.43166 0
M  V30 340 H 32.0689 0.0912063 2.55637 0
M  V30 341 H 31.7129 -0.0931291 5.07815 0
M  V30 342 H 31.6429 -1.86659 4.92408 0
M  V30 343 H 34.1339 -0.954468 3.65648 0
M  V30 344 H 34.4469 -1.34046 7.61086 0
M  V30 345 H 32.7919 -1.21236 6.84344 0
M  V30 346 H 35.9829 -1.10057 4.54978 0
M  V30 347 H 36.1559 -1.27681 6.35296 0
M  V30 348 N 29.562 -1.4872 -0.521534 0
M  V30 349 C 30.811 -1.56419 -1.27341 0
M  V30 350 C 31.124 -0.246805 -1.94037 0
M  V30 351 O 32.33 -0.202122 -2.70747 0
M  V30 352 C 30.786 -2.75896 -2.31105 0
M  V30 353 C 30.394 -4.14311 -1.70441 0
M  V30 354 C 32.138 -2.92913 -3.07249 0
M  V30 355 C 30.045 -5.25038 -2.72194 0
M  V30 356 H 28.975 -0.582344 -0.478949 0
M  V30 357 H 31.626 -1.75071 -0.549779 0
M  V30 358 H 30.008 -2.50697 -3.06541 0
M  V30 359 H 31.182 -4.49564 -1.01136 0
M  V30 360 H 29.497 -4.02482 -1.06759 0
M  V30 361 H 32.094 -3.72805 -3.83302 0
M  V30 362 H 32.437 -2.02689 -3.63625 0
M  V30 363 H 32.97 -3.18054 -2.38928 0
M  V30 364 H 29.709 -6.17255 -2.20627 0
M  V30 365 H 29.229 -4.94263 -3.39801 0
M  V30 366 H 30.908 -5.53508 -3.35019 0
M  V30 367 N 31.0401 0.771051 -1.3745 0
M  V30 368 C 32.2881 1.52661 -1.32435 0
M  V30 369 C 32.6091 1.9479 0.0905024 0
M  V30 370 O 31.8791 1.66348 1.03466 0
M  V30 371 H 30.4591 0.566218 -0.487244 0
M  V30 372 H 33.1211 0.917636 -1.71946 0
M  V30 373 H 32.2171 2.42568 -1.96385 0
M  V30 374 N 32.5182 1.22032 0.997298 0
M  V30 375 C 33.7662 1.04016 1.73278 0
M  V30 376 C 34.0872 -0.426255 1.90284 0
M  V30 377 O 33.3572 -1.30694 1.45931 0
M  V30 378 H 31.9372 0.381897 0.642 0
M  V30 379 H 34.5992 1.5347 1.20137 0
M  V30 380 H 33.6952 1.51441 2.72896 0
M  V30 381 N 33.9963 -1.19345 1.0293 0
M  V30 382 C 34.9433 -2.2258 0.610464 0
M  V30 383 C 35.9133 -1.6179 -0.375946 0
M  V30 384 O 37.0983 -1.88844 -0.272511 0
M  V30 385 C 34.2383 -3.45085 -0.0321473 0
M  V30 386 C 33.3513 -4.20258 1.00035 0
M  V30 387 C 32.4863 -5.3019 0.32746 0
M  V30 388 C 31.5253 -5.97121 1.34584 0
M  V30 389 N 30.6623 -6.98615 0.698726 0
M  V30 390 H 35.5023 -2.57764 1.49538 0
M  V30 391 H 33.0393 -1.26644 0.748311 0
M  V30 392 H 34.9973 -4.15061 -0.421966 0
M  V30 393 H 33.6273 -3.10555 -0.88064 0
M  V30 394 H 32.6793 -3.49223 1.50823 0
M  V30 395 H 33.9913 -4.66175 1.77433 0
M  V30 396 H 33.1453 -6.06587 -0.11718 0
M  V30 397 H 31.8843 -4.85345 -0.478713 0
M  V30 398 H 30.8893 -5.19474 1.80074 0
M  V30 399 H 32.1143 -6.4405 2.15352 0
M  V30 400 H 30.0603 -6.55942 -0.0873471 0
M  V30 401 H 29.9773 -7.42724 1.41058 0
M  V30 402 H 31.2453 -7.79004 0.278102 0
M  V30 403 N 35.4744 -0.807222 -1.35358 0
M  V30 404 C 36.8904 -0.491038 -1.51858 0
M  V30 405 C 37.0904 0.987648 -1.75635 0
M  V30 406 O 36.1464 1.77265 -1.79815 0
M  V30 407 C 37.4594 -1.33695 -2.69344 0
M  V30 408 C 39.0074 -1.33246 -2.83222 0
M  V30 409 C 39.4824 -2.1625 -4.03733 0
M  V30 410 N 40.9734 -2.1379 -4.10911 0
M  V30 411 C 41.7084 -2.74772 -5.03277 0
M  V30 412 N 41.2044 -3.44684 -6.0097 0
M  V30 413 N 42.9974 -2.6441 -4.96028 0
M  V30 414 H 35.1484 -1.76485 -1.18181 0
M  V30 415 H 37.4114 -0.751199 -0.578276 0
M  V30 416 H 37.1174 -2.38634 -2.58354 0
M  V30 417 H 36.9914 -0.990618 -3.6396 0
M  V30 418 H 39.3784 -0.290911 -2.93663 0
M  V30 419 H 39.4594 -1.71866 -1.89461 0
M  V30 420 H 39.1034 -3.20445 -3.94052 0
M  V30 421 H 39.0334 -1.74989 -4.96675 0
M  V30 422 H 41.5244 -1.62923 -3.40976 0
M  V30 423 H 41.8374 -3.88501 -6.68047 0
M  V30 424 H 40.1824 -3.48788 -6.01142 0
M  V30 425 H 43.3734 -2.0938 -4.18662 0
M  V30 426 H 43.5464 -3.12225 -5.6782 0
M  V30 427 N 36.9525 1.47285 -0.560781 0
M  V30 428 C 37.8995 2.30058 0.18491 0
M  V30 429 C 38.8695 1.39281 0.904986 0
M  V30 430 O 40.0545 1.68241 0.899979 0
M  V30 431 C 37.1945 3.23317 1.20666 0
M  V30 432 C 36.3075 4.29186 0.492285 0
M  V30 433 C 35.4425 5.09592 1.49964 0
M  V30 434 C 34.4815 6.07232 0.770439 0
M  V30 435 N 33.6185 6.80584 1.72479 0
M  V30 436 H 38.4585 2.93302 -0.527048 0
M  V30 437 H 35.9955 1.44568 -0.271738 0
M  V30 438 H 37.9535 3.75811 1.81168 0
M  V30 439 H 36.5835 2.61929 1.88661 0
M  V30 440 H 35.6355 3.7972 -0.227333 0
M  V30 441 H 36.9475 4.98738 -0.0787929 0
M  V30 442 H 36.1015 5.66254 2.17809 0
M  V30 443 H 34.8405 4.3995 2.10464 0
M  V30 444 H 33.8455 5.49745 0.0780846 0
M  V30 445 H 35.0705 6.78884 0.171134 0
M  V30 446 H 33.0165 6.1367 2.3183 0
M  V30 447 H 32.9335 7.46319 1.20596 0
M  V30 448 H 34.2015 7.41818 2.39428 0
M  V30 449 N 38.4306 0.297415 1.54768 0
M  V30 450 C 39.6766 -0.313376 2.00364 0
M  V30 451 C 40.0096 -1.53815 1.18553 0
M  V30 452 O 39.2846 -1.92739 0.261103 0
M  V30 453 C 39.5676 -0.673525 3.53745 0
M  V30 454 C 39.4206 0.560133 4.46299 0
M  V30 455 C 40.7396 -1.50143 4.13697 0
M  V30 456 H 37.8586 -0.112428 0.728374 0
M  V30 457 H 40.5006 0.4088 1.8555 0
M  V30 458 H 38.6506 -1.28881 3.665 0
M  V30 459 H 40.3226 1.19863 4.45455 0
M  V30 460 H 38.5656 1.19405 4.17043 0
M  V30 461 H 39.2366 0.26405 5.51368 0
M  V30 462 H 41.7126 -0.981588 4.04356 0
M  V30 463 H 40.5886 -1.72221 5.21182 0
M  V30 464 H 40.8496 -2.48952 3.65343 0
M  V30 465 N 39.9087 -1.5758 0.0250728 0
M  V30 466 C 40.8417 -2.05473 -0.992777 0
M  V30 467 C 41.8197 -0.949661 -1.31986 0
M  V30 468 O 43.0037 -1.21969 -1.43722 0
M  V30 469 C 40.1307 -2.4734 -2.31389 0
M  V30 470 C 39.1767 -3.68827 -2.1417 0
M  V30 471 S 40.0097 -5.15655 -1.44429 0
M  V30 472 C 41.1657 -5.60814 -2.77918 0
M  V30 473 H 41.3987 -2.91486 -0.585078 0
M  V30 474 H 38.9317 -1.53269 -0.186507 0
M  V30 475 H 40.8897 -2.72127 -3.07339 0
M  V30 476 H 39.5507 -1.6168 -2.69292 0
M  V30 477 H 38.7437 -3.95955 -3.11826 0
M  V30 478 H 38.3457 -3.44172 -1.46362 0
M  V30 479 H 40.6377 -5.64806 -3.74166 0
M  V30 480 H 41.5807 -6.60414 -2.55459 0
M  V30 481 H 41.9887 -4.8845 -2.82979 0
M  V30 482 N 41.3868 0.248026 -1.55636 0
M  V30 483 C 42.7978 0.817177 -1.67866 0
M  V30 484 C 43.1488 1.86069 -0.622322 0
M  V30 485 O 42.2738 2.15157 0.231618 0
M  V30 486 C 42.8688 1.489 -3.04326 0
M  V30 487 C 41.4278 2.00587 -3.185 0
M  V30 488 C 40.5748 0.856573 -2.63739 0
M  V30 489 H 43.5258 0.0238579 -1.58682 0
M  V30 490 H 43.5468 2.35698 -2.98708 0
M  V30 491 H 43.0588 0.729279 -3.81186 0
M  V30 492 H 41.1598 2.79443 -2.4646 0
M  V30 493 H 41.2728 2.20402 -4.25393 0
M  V30 494 H 39.6368 1.25678 -2.21534 0
M  V30 495 H 40.4198 0.109953 -3.43124 0
M  V30 496 N 42.8649 1.48995 0.513639 0
M  V30 497 C 43.8119 1.6473 1.61656 0
M  V30 498 C 44.7819 0.488984 1.58739 0
M  V30 499 O 45.9669 0.714478 1.76918 0
M  V30 500 C 43.1069 1.7082 2.99858 0
M  V30 501 C 42.2199 2.9787 3.12885 0
M  V30 502 C 41.3549 2.95017 4.41744 0
M  V30 503 C 40.3939 4.16702 4.48359 0
M  V30 504 N 39.5309 4.11832 5.68629 0
M  V30 505 H 44.3709 2.58909 1.47547 0
M  V30 506 H 41.9079 1.28382 0.71808 0
M  V30 507 H 43.8659 1.72331 3.79944 0
M  V30 508 H 42.4959 0.801181 3.12699 0
M  V30 509 H 41.5479 3.06029 2.25944 0
M  V30 510 H 42.8599 3.8786 3.13633 0
M  V30 511 H 42.0139 2.95021 5.30139 0
M  V30 512 H 40.7529 2.02784 4.43542 0
M  V30 513 H 39.7579 4.16955 3.58369 0
M  V30 514 H 40.9829 5.10113 4.48287 0
M  V30 515 H 38.9289 3.22428 5.71293 0
M  V30 516 H 38.8459 4.95543 5.7094 0
M  V30 517 H 40.1139 4.1592 6.59266 0
M  V30 518 N 44.343 -0.763751 1.37857 0
M  V30 519 C 45.276 -1.88486 1.28639 0
M  V30 520 C 46.254 -1.61757 0.165363 0
M  V30 521 O 47.438 -1.85391 0.340948 0
M  V30 522 C 44.565 -3.23884 0.990811 0
M  V30 523 C 43.611 -3.69514 2.12983 0
M  V30 524 S 44.444 -3.82244 3.75033 0
M  V30 525 C 45.6 -5.20477 3.47641 0
M  V30 526 H 45.833 -1.96017 2.23527 0
M  V30 527 H 43.366 -0.925684 1.23574 0
M  V30 528 H 45.324 -4.02081 0.827101 0
M  V30 529 H 43.985 -3.14044 0.0592832 0
M  V30 530 H 43.178 -4.67696 1.87821 0
M  V30 531 H 42.78 -2.98441 2.25408 0
M  V30 532 H 45.072 -6.05905 3.03125 0
M  V30 533 H 46.015 -5.50655 4.4518 0
M  V30 534 H 46.423 -4.88793 2.82385 0
M  V30 535 N 45.8211 -1.22559 -0.990812 0
M  V30 536 C 47.0981 -0.959875 -1.70428 0
M  V30 537 C 47.4781 0.524455 -2.04481 0
M  V30 538 O 46.8261 1.49302 -1.72977 0
M  V30 539 C 47.0361 -1.85955 -2.95333 0
M  V30 540 C 48.3841 -2.11687 -3.68068 0
M  V30 541 O 49.4081 -1.8342 -3.05345 0
M  V30 542 O 48.2671 -2.59572 -4.80921 0
M  V30 543 H 45.3611 -0.361154 -0.743974 0
M  V30 544 H 47.9071 -1.33554 -1.04697 0
M  V30 545 H 46.6791 -2.86346 -2.66687 0
M  V30 546 H 46.3021 -1.4856 -3.68803 0
M  V30 547 N 47.2992 1.18797 -1.03562 0
M  V30 548 C 48.2312 2.21731 -0.580337 0
M  V30 549 C 49.2442 1.59051 0.347349 0
M  V30 550 O 50.4332 1.77929 0.142669 0
M  V30 551 C 47.5332 3.38459 0.172805 0
M  V30 552 C 46.7062 4.3072 -0.761496 0
M  V30 553 C 45.7652 5.26174 -0.0525547 0
M  V30 554 O 44.7912 5.65108 -0.681333 0
M  V30 555 N 45.9932 5.67624 1.21586 0
M  V30 556 H 48.7582 2.61417 -1.46565 0
M  V30 557 H 46.3192 1.33531 -0.915476 0
M  V30 558 H 48.3112 3.99335 0.656793 0
M  V30 559 H 46.8812 2.97507 0.959602 0
M  V30 560 H 46.1012 3.67525 -1.42544 0
M  V30 561 H 47.3892 4.89267 -1.39626 0
M  V30 562 H 46.7872 5.38038 1.74732 0
M  V30 563 H 45.3442 6.30721 1.64421 0
M  V30 564 N 48.7773 0.814389 1.34928 0
M  V30 565 C 50.0543 0.321363 1.92942 0
M  V30 566 C 50.4343 -1.19014 1.74353 0
M  V30 567 O 49.7823 -1.99328 1.11716 0
M  V30 568 C 49.9923 0.741323 3.41036 0
M  V30 569 C 51.3403 0.735266 4.18185 0
M  V30 570 O 52.3643 0.68336 3.49584 0
M  V30 571 O 51.2233 0.800703 5.40602 0
M  V30 572 H 48.3173 0.0858893 0.822528 0
M  V30 573 H 50.8633 0.898609 1.43955 0
M  V30 574 H 49.6353 1.78276 3.4833 0
M  V30 575 H 49.2583 0.139307 3.97356 0
M  V30 576 N 50.2554 -1.46986 0.568584 0
M  V30 577 C 51.4804 -2.07335 0.0520528 0
M  V30 578 C 51.9054 -1.41675 -1.23733 0
M  V30 579 O 51.2634 -0.495623 -1.74394 0
M  V30 580 C 51.3114 -3.60417 -0.11501 0
M  V30 581 O 50.4154 -3.95309 -1.17492 0
M  V30 582 H 49.7564 -0.661597 0.0564385 0
M  V30 583 H 52.2864 -1.88837 0.787507 0
M  V30 584 H 52.2964 -4.06698 -0.325644 0
M  V30 585 H 50.9714 -4.07601 0.826675 0
M  V30 586 H 49.5484 -3.60757 -0.943869 0
M  V30 587 N 51.7335 -0.305618 -1.54608 0
M  V30 588 C 52.6635 0.561482 -2.26649 0
M  V30 589 C 53.6445 1.13415 -1.26772 0
M  V30 590 O 54.8295 1.16262 -1.55553 0
M  V30 591 C 51.9595 1.73122 -3.01075 0
M  V30 592 C 50.9135 1.2887 -4.08138 0
M  V30 593 C 50.2395 2.54396 -4.70305 0
M  V30 594 C 51.5395 0.416578 -5.20636 0
M  V30 595 H 53.2335 -0.0393902 -2.99374 0
M  V30 596 H 50.7795 -0.020385 -1.43986 0
M  V30 597 H 52.7325 2.34396 -3.50195 0
M  V30 598 H 51.4565 2.3584 -2.25936 0
M  V30 599 H 50.1155 0.698991 -3.59875 0
M  V30 600 H 49.7635 3.15439 -3.918 0
M  V30 601 H 49.4635 2.25486 -5.42614 0
M  V30 602 H 50.9875 3.16464 -5.2219 0
M  V30 603 H 52.4015 0.935116 -5.65622 0
M  V30 604 H 50.7985 0.221046 -5.99693 0
M  V30 605 H 51.8685 -0.557162 -4.81688 0
M  V30 606 N 53.2116 1.57565 -0.0334293 0
M  V30 607 C 54.4366 1.96689 0.657895 0
M  V30 608 C 54.8616 0.910057 1.64619 0
M  V30 609 O 54.2196 -0.128598 1.80843 0
M  V30 610 C 54.2676 3.34905 1.33683 0
M  V30 611 O 53.3716 3.31574 2.45219 0
M  V30 612 H 52.7126 0.641205 0.172489 0
M  V30 613 H 55.2426 2.04372 -0.0965621 0
M  V30 614 H 55.2526 3.71234 1.69262 0
M  V30 615 H 53.9276 4.11366 0.612411 0
M  V30 616 H 52.5046 3.06968 2.11719 0
M  V30 617 N 54.6897 -0.239769 1.55765 0
M  V30 618 C 55.9147 -0.988373 1.82335 0
M  V30 619 C 56.3397 -1.77886 0.611421 0
M  V30 620 O 55.6977 -1.75889 -0.439639 0
M  V30 621 C 55.7457 -1.89627 3.06715 0
M  V30 622 O 54.8497 -2.98904 2.84131 0
M  V30 623 H 54.1907 -0.280858 0.601677 0
M  V30 624 H 56.7207 -0.258597 2.02959 0
M  V30 625 H 56.7307 -2.30957 3.36338 0
M  V30 626 H 55.4057 -1.31511 3.9456 0
M  V30 627 H 53.9827 -2.61651 2.65694 0
M  V30 628 N 56.1678 -1.49265 -0.50573 0
M  V30 629 C 57.3928 -1.62478 -1.28902 0
M  V30 630 C 57.8178 -0.294332 -1.85783 0
M  V30 631 O 57.1758 0.737412 -1.65626 0
M  V30 632 C 57.2238 -2.69268 -2.39848 0
M  V30 633 O 56.3278 -2.28113 -3.43567 0
M  V30 634 H 55.6688 -0.54399 -0.380751 0
M  V30 635 H 58.1988 -1.95421 -0.605952 0
M  V30 636 H 58.2088 -2.91291 -2.85681 0
M  V30 637 H 56.8838 -3.65846 -1.97812 0
M  V30 638 H 55.4608 -2.16401 -3.03685 0
M  V30 639 N 57.6459 0.756429 -1.3826 0
M  V30 640 C 58.5759 1.88374 -1.37976 0
M  V30 641 C 59.5569 1.68311 -0.246082 0
M  V30 642 O 60.7419 1.88944 -0.44874 0
M  V30 643 C 57.8719 3.25864 -1.20125 0
M  V30 644 C 56.8259 3.60523 -2.30666 0
M  V30 645 C 56.1519 4.9672 -1.97923 0
M  V30 646 C 57.4519 3.65692 -3.72916 0
M  V30 647 H 59.1459 1.88869 -2.32312 0
M  V30 648 H 56.6919 0.907272 -1.11824 0
M  V30 649 H 58.6449 4.0438 -1.18552 0
M  V30 650 H 57.3689 3.25841 -0.222498 0
M  V30 651 H 56.0279 2.84324 -2.3142 0
M  V30 652 H 55.6759 4.93253 -0.985393 0
M  V30 653 H 55.3759 5.20878 -2.71955 0
M  V30 654 H 56.8999 5.77618 -1.97964 0
M  V30 655 H 58.3139 4.34328 -3.74208 0
M  V30 656 H 56.7109 4.01358 -4.4613 0
M  V30 657 H 57.7809 2.65987 -4.05436 0
M  V30 658 N 59.124 1.23083 0.984299 0
M  V30 659 C 60.071 1.00854 2.07598 0
M  V30 660 C 61.041 -0.0726709 1.65941 0
M  V30 661 O 62.226 0.0786535 1.90638 0
M  V30 662 C 59.366 0.601645 3.39815 0
M  V30 663 C 58.479 1.75456 3.94765 0
M  V30 664 C 57.614 1.29482 5.15177 0
M  V30 665 C 56.653 2.41873 5.62284 0
M  V30 666 N 55.79 1.96885 6.73929 0
M  V30 667 H 60.63 1.943 2.25946 0
M  V30 668 H 58.167 0.968001 1.10762 0
M  V30 669 H 60.125 0.346854 4.15756 0
M  V30 670 H 58.755 -0.295803 3.21442 0
M  V30 671 H 57.807 2.12346 3.15616 0
M  V30 672 H 59.119 2.59965 4.25699 0
M  V30 673 H 58.273 0.997923 5.98437 0
M  V30 674 H 57.012 0.420046 4.85888 0
M  V30 675 H 56.017 2.72342 4.77608 0
M  V30 676 H 57.242 3.29881 5.93595 0
M  V30 677 H 55.188 1.11782 6.46406 0
M  V30 678 H 55.105 2.74956 7.04227 0
M  V30 679 H 56.373 1.70289 7.60672 0
M  V30 680 N 60.6021 -1.18246 1.0419 0
M  V30 681 C 61.8301 -1.92195 0.766072 0
M  V30 682 C 62.2451 -1.76247 -0.676933 0
M  V30 683 O 61.6021 -1.09293 -1.46155 0
M  V30 684 C 61.6531 -3.43568 1.12442 0
M  V30 685 O 61.3741 -3.59015 2.51078 0
M  V30 686 C 62.8751 -4.34613 0.873275 0
M  V30 687 H 60.0951 -0.610114 0.279288 0
M  V30 688 H 62.6391 -1.50007 1.38989 0
M  V30 689 H 60.7941 -3.8354 0.545542 0
M  V30 690 H 61.2081 -4.5273 2.64831 0
M  V30 691 H 62.6821 -5.39374 1.17385 0
M  V30 692 H 63.1591 -4.38781 -0.191909 0
M  V30 693 H 63.7651 -4.00341 1.43551 0
M  V30 694 N 62.0802 -0.821533 -1.34494 0
M  V30 695 C 63.3202 -0.414785 -2.00147 0
M  V30 696 C 63.6842 1.00299 -1.6372 0
M  V30 697 O 64.8852 1.51255 -2.22206 0
M  V30 698 C 63.1562 -0.609403 -3.52166 0
M  V30 699 S 64.7152 -0.295297 -4.37805 0
M  V30 700 H 61.5332 -0.15679 -0.693497 0
M  V30 701 H 64.1352 -1.06705 -1.63812 0
M  V30 702 H 62.8392 -1.64096 -3.76166 0
M  V30 703 H 62.3702 0.0576414 -3.93358 0
M  V30 704 H 64.3852 0.891531 -4.88125 0
M  V30 705 N 63.5583 1.46682 -0.576371 0
M  V30 706 C 64.7883 2.06498 -0.0648694 0
M  V30 707 C 65.1963 1.42665 1.24271 0
M  V30 708 O 64.5393 0.523886 1.76071 0
M  V30 709 C 64.6013 3.5904 0.181816 0
M  V30 710 C 64.2653 4.45028 -1.0392 0
M  V30 711 C 65.2623 4.81959 -1.94966 0
M  V30 712 C 62.9473 4.86259 -1.25927 0
M  V30 713 C 64.9413 5.58942 -3.06371 0
M  V30 714 C 62.6283 5.63002 -2.37638 0
M  V30 715 C 63.6263 5.99257 -3.2769 0
M  V30 716 O 63.3143 6.7445 -4.37461 0
M  V30 717 H 63.0463 0.674028 -0.0515987 0
M  V30 718 H 65.6003 1.89393 -0.794951 0
M  V30 719 H 63.8303 3.74429 0.966436 0
M  V30 720 H 65.5193 4.00806 0.641047 0
M  V30 721 H 66.2853 4.50689 -1.79177 0
M  V30 722 H 62.1643 4.57494 -0.567448 0
M  V30 723 H 65.7083 5.87158 -3.76684 0
M  V30 724 H 61.6053 5.93686 -2.53392 0
M  V30 725 H 62.3733 6.92867 -4.35749 0
M  V30 726 N 65.0364 0.313813 1.54444 0
M  V30 727 C 65.9834 -0.55655 2.23989 0
M  V30 728 C 66.9534 -1.11943 1.22711 0
M  V30 729 O 68.1384 -1.16158 1.51367 0
M  V30 730 C 65.2784 -1.71635 2.99392 0
M  V30 731 C 64.3914 -1.18364 4.15468 0
M  V30 732 C 63.5264 -2.30834 4.78424 0
M  V30 733 C 62.5654 -1.74762 5.86622 0
M  V30 734 N 61.7024 -2.80855 6.43479 0
M  V30 735 H 66.5424 0.0430893 2.97969 0
M  V30 736 H 64.0794 0.0330359 1.47063 0
M  V30 737 H 66.0374 -2.39868 3.41349 0
M  V30 738 H 64.6674 -2.28742 2.27765 0
M  V30 739 H 63.7194 -0.393163 3.78363 0
M  V30 740 H 65.0314 -0.733262 4.93381 0
M  V30 741 H 64.1854 -3.0699 5.23299 0
M  V30 742 H 62.9244 -2.79204 3.99871 0
M  V30 743 H 61.9294 -0.970995 5.41158 0
M  V30 744 H 63.1544 -1.2728 6.67066 0
M  V30 745 H 61.1004 -3.28535 5.67804 0
M  V30 746 H 61.0174 -2.40351 7.16776 0
M  V30 747 H 62.2854 -3.5687 6.93011 0
M  V30 748 N 66.5145 -1.57545 0.0417849 0
M  V30 749 C 67.7445 -1.96339 -0.642995 0
M  V30 750 C 68.1525 -0.917536 -1.65463 0
M  V30 751 O 67.4955 0.107747 -1.83384 0
M  V30 752 C 67.5575 -3.31333 -1.39494 0
M  V30 753 C 67.2215 -4.53796 -0.540204 0
M  V30 754 C 68.2185 -5.19553 0.189806 0
M  V30 755 C 65.9035 -5.0006 -0.473886 0
M  V30 756 C 67.8975 -6.29904 0.974674 0
M  V30 757 C 65.5845 -6.10289 0.314677 0
M  V30 758 C 66.5825 -6.75072 1.03765 0
M  V30 759 O 66.2705 -7.83183 1.81327 0
M  V30 760 H 66.0025 -0.651241 -0.181277 0
M  V30 761 H 68.5565 -2.05148 0.101665 0
M  V30 762 H 66.7865 -3.19052 -2.18502 0
M  V30 763 H 68.4755 -3.54942 -1.96904 0
M  V30 764 H 69.2415 -4.84774 0.147981 0
M  V30 765 H 65.1205 -4.49433 -1.0262 0
M  V30 766 H 68.6645 -6.80401 1.5395 0
M  V30 767 H 64.5615 -6.44506 0.358174 0
M  V30 768 H 65.3295 -7.99913 1.73438 0
M  V30 769 N 67.9926 0.231505 -1.5589 0
M  V30 770 C 68.9226 1.29022 -1.94617 0
M  V30 771 C 69.9036 1.4941 -0.813067 0
M  V30 772 O 71.0886 1.6176 -1.07459 0
M  V30 773 C 68.2186 2.64199 -2.25424 0
M  V30 774 C 67.1726 2.58484 -3.41131 0
M  V30 775 C 66.4986 3.97599 -3.57518 0
M  V30 776 C 67.7986 2.1413 -4.76388 0
M  V30 777 H 69.4926 0.968563 -2.83301 0
M  V30 778 H 67.0386 0.464479 -1.36303 0
M  V30 779 H 68.9916 3.38413 -2.51107 0
M  V30 780 H 67.7156 2.98032 -1.33583 0
M  V30 781 H 66.3746 1.86727 -3.15481 0
M  V30 782 H 66.0226 4.28723 -2.6307 0
M  V30 783 H 65.7226 3.94659 -4.35337 0
M  V30 784 H 67.2466 4.7349 -3.85538 0
M  V30 785 H 68.6606 2.78083 -5.01341 0
M  V30 786 H 67.0576 2.2227 -5.57419 0
M  V30 787 H 68.1276 1.09331 -4.72414 0
M  V30 788 N 69.4707 1.49531 0.497807 0
M  V30 789 C 70.4187 1.66926 1.61983 0
M  V30 790 C 71.4127 0.535167 1.60724 0
M  V30 791 O 72.6187 0.714896 1.65195 0
M  V30 792 H 68.9937 0.526415 0.537021 0
M  V30 793 H 70.9647 2.61098 1.44465 0
M  V30 794 C 69.7137 1.75602 3.00099 0
M  V30 795 H 69.0367 2.62244 3.01775 0
M  V30 796 H 70.4767 1.91807 3.78135 0
M  V30 797 C 68.9357 0.501543 3.33146 0
M  V30 798 O 69.4657 -0.371342 3.9998 0
M  V30 799 N 67.6717 0.363531 2.88317 0
M  V30 800 H 67.2187 1.07485 2.34104 0
M  V30 801 H 67.1767 -0.474728 3.10795 0
M  V30 802 N 70.9488 -0.749086 1.3866 0
M  V30 803 C 71.8808 -1.87273 1.32142 0
M  V30 804 C 72.8938 -1.61127 0.232787 0
M  V30 805 O 74.0828 -1.71623 0.49069 0
M  V30 806 C 71.1828 -3.23005 1.02571 0
M  V30 807 C 70.3558 -3.7662 2.22433 0
M  V30 808 C 69.4148 -4.90879 1.89537 0
M  V30 809 O 68.4408 -5.05276 2.62078 0
M  V30 810 N 69.6428 -5.74198 0.853031 0
M  V30 811 H 72.4078 -1.93373 2.28969 0
M  V30 812 H 69.9688 -0.929216 1.32579 0
M  V30 813 H 71.9608 -3.96992 0.786085 0
M  V30 814 H 70.5308 -3.12262 0.145249 0
M  V30 815 H 69.7508 -2.94147 2.62434 0
M  V30 816 H 71.0388 -4.09173 3.02415 0
M  V30 817 H 70.4368 -5.6514 0.25155 0
M  V30 818 H 68.9938 -6.48313 0.67329 0
M  V30 819 N 72.4269 -1.23603 -0.977757 0
M  V30 820 C 73.6549 -1.09646 -1.75458 0
M  V30 821 C 74.0699 0.351859 -1.85492 0
M  V30 822 O 73.4269 1.24327 -1.336 0
M  V30 823 C 73.4779 -1.71895 -3.18016 0
M  V30 824 O 73.1989 -3.11063 -3.08498 0
M  V30 825 C 74.6999 -1.63415 -4.12081 0
M  V30 826 H 71.9199 -0.38359 -0.550545 0
M  V30 827 H 74.4639 -1.63507 -1.22824 0
M  V30 828 H 72.6189 -1.22061 -3.67668 0
M  V30 829 H 73.0329 -3.41305 -3.9826 0
M  V30 830 H 74.5069 -2.11669 -5.09804 0
M  V30 831 H 74.9839 -0.593462 -4.35172 0
M  V30 832 H 75.5899 -2.12628 -3.68334 0
M  V30 833 N 73.905 1.17692 -1.04816 0
M  V30 834 C 75.13 1.92327 -0.776207 0
M  V30 835 C 75.555 1.76082 0.661581 0
M  V30 836 O 74.913 1.076 1.45917 0
M  V30 837 C 74.961 3.41539 -1.15687 0
M  V30 838 O 74.065 4.11402 -0.286775 0
M  V30 839 H 73.406 0.599735 -0.284981 0
M  V30 840 H 75.936 1.49201 -1.4 0
M  V30 841 H 75.946 3.92269 -1.12202 0
M  V30 842 H 74.621 3.52684 -2.20425 0
M  V30 843 H 73.198 3.70939 -0.381903 0
M  V30 844 N 75.3831 0.828654 1.34056 0
M  V30 845 C 76.7991 0.515135 1.51058 0
M  V30 846 C 76.9991 -0.959581 1.77184 0
M  V30 847 O 76.0551 -1.74382 1.82612 0
M  V30 848 C 77.3681 1.37963 2.67183 0
M  V30 849 C 78.9161 1.37735 2.81066 0
M  V30 850 C 79.3911 2.22645 4.00241 0
M  V30 851 N 80.8821 2.203 4.07458 0
M  V30 852 C 81.6171 2.82744 4.98842 0
M  V30 853 N 81.1131 3.54201 5.9541 0
M  V30 854 N 82.9061 2.72268 4.91759 0
M  V30 855 H 75.0571 1.78343 1.15358 0
M  V30 856 H 77.3201 0.760304 0.566252 0
M  V30 857 H 77.0261 2.42714 2.54525 0
M  V30 858 H 76.9001 1.0484 3.62338 0
M  V30 859 H 79.2871 0.337593 2.93163 0
M  V30 860 H 79.3681 1.74859 1.86703 0
M  V30 861 H 79.0121 3.26674 3.88905 0
M  V30 862 H 78.9421 1.82869 4.93829 0
M  V30 863 H 81.4331 1.68327 3.38341 0
M  V30 864 H 81.7461 3.9908 6.61782 0
M  V30 865 H 80.0911 3.58308 5.95517 0
M  V30 866 H 83.2821 2.16014 4.15278 0
M  V30 867 H 83.4551 3.21219 5.62781 0
M  V30 868 N 76.8612 -1.46375 0.584142 0
M  V30 869 C 78.0862 -2.07268 0.0740405 0
M  V30 870 C 78.5112 -1.42979 -1.22223 0
M  V30 871 O 77.8692 -0.514092 -1.73859 0
M  V30 872 C 77.9172 -3.60518 -0.0767769 0
M  V30 873 O 77.0212 -3.96533 -1.13292 0
M  V30 874 H 76.3622 -0.660961 0.0634524 0
M  V30 875 H 78.8922 -1.87991 0.807492 0
M  V30 876 H 78.9022 -4.07021 -0.282489 0
M  V30 877 H 77.5772 -4.06702 0.86986 0
M  V30 878 H 76.1542 -3.61738 -0.905553 0
M  V30 879 N 78.3393 -0.321999 -1.54275 0
M  V30 880 C 79.5863 0.281044 -2.0054 0
M  V30 881 C 79.9143 1.52265 -1.21019 0
M  V30 882 O 79.1693 1.93687 -0.279982 0
M  V30 883 C 79.4683 0.661769 -3.5122 0
M  V30 884 C 79.1343 -0.480482 -4.48333 0
M  V30 885 C 77.7963 -0.794005 -4.74604 0
M  V30 886 C 80.1483 -1.24783 -5.06042 0
M  V30 887 C 77.4763 -1.87763 -5.55844 0
M  V30 888 C 79.8283 -2.32153 -5.88462 0
M  V30 889 C 78.4923 -2.64089 -6.13036 0
M  V30 890 H 77.7623 0.102841 -0.733829 0
M  V30 891 H 80.4093 -0.445453 -1.86247 0
M  V30 892 H 78.7143 1.46867 -3.63232 0
M  V30 893 H 80.4113 1.13989 -3.84457 0
M  V30 894 H 77.0013 -0.226039 -4.28004 0
M  V30 895 H 81.1853 -1.01887 -4.85729 0
M  V30 896 H 76.4413 -2.12954 -5.73115 0
M  V30 897 H 80.6153 -2.92057 -6.32199 0
M  V30 898 H 78.2423 -3.48185 -6.75775 0
M  V30 899 N 79.8174 1.5752 -0.0501392 0
M  V30 900 C 80.7804 2.1037 0.909786 0
M  V30 901 C 81.7804 1.02308 1.24056 0
M  V30 902 O 82.9704 1.28385 1.17741 0
M  V30 903 C 80.1024 2.58708 2.21998 0
M  V30 904 H 81.2954 2.96479 0.451665 0
M  V30 905 H 78.8484 1.55038 0.198248 0
M  V30 906 H 79.5834 1.75989 2.72394 0
M  V30 907 H 79.3684 3.37675 1.99295 0
M  V30 908 H 80.8584 2.99747 2.9076 0
M  V30 909 N 81.2955 -0.223234 1.56011 0
M  V30 910 C 82.2585 -1.26014 1.9145 0
M  V30 911 C 83.2585 -1.3989 0.792937 0
M  V30 912 O 84.4485 -1.38184 1.0607 0
M  V30 913 C 81.5805 -2.63422 2.16383 0
M  V30 914 H 82.7735 -0.95796 2.84189 0
M  V30 915 H 80.3265 -0.463576 1.49267 0
M  V30 916 H 81.0615 -2.98741 1.2619 0
M  V30 917 H 80.8465 -2.54728 2.98088 0
M  V30 918 H 82.3365 -3.38249 2.44903 0
M  V30 919 N 82.7736 -1.49793 -0.48987 0
M  V30 920 C 84.0196 -1.60078 -1.24511 0
M  V30 921 C 84.3526 -0.291608 -1.91998 0
M  V30 922 O 83.6276 0.705647 -1.81248 0
M  V30 923 C 83.9106 -2.76791 -2.30345 0
M  V30 924 C 83.7636 -4.17535 -1.67286 0
M  V30 925 C 85.0826 -2.89111 -3.31817 0
M  V30 926 H 82.2016 -0.582645 -0.451324 0
M  V30 927 H 84.8436 -1.82117 -0.541612 0
M  V30 928 H 82.9936 -2.5813 -2.90346 0
M  V30 929 H 84.6656 -4.4774 -1.11026 0
M  V30 930 H 82.9086 -4.22665 -0.976577 0
M  V30 931 H 83.5796 -4.95094 -2.44103 0
M  V30 932 H 86.0556 -3.06133 -2.81819 0
M  V30 933 H 84.9316 -3.72433 -4.03219 0
M  V30 934 H 85.1926 -1.9893 -3.94815 0
M  V30 935 N 84.2517 0.741722 -1.39055 0
M  V30 936 C 85.5007 1.49656 -1.35225 0
M  V30 937 C 85.8137 1.95533 0.0512708 0
M  V30 938 O 87.0197 2.7067 0.212138 0
M  V30 939 C 85.4757 2.70389 -2.37525 0
M  V30 940 C 85.0837 2.31489 -3.83558 0
M  V30 941 C 86.8277 3.48236 -2.42759 0
M  V30 942 C 84.7347 3.48903 -4.77515 0
M  V30 943 H 83.6647 0.56197 -0.502699 0
M  V30 944 H 86.3157 0.809727 -1.64668 0
M  V30 945 H 84.6977 3.41113 -2.01142 0
M  V30 946 H 85.8717 1.68354 -4.28945 0
M  V30 947 H 84.1867 1.66749 -3.81554 0
M  V30 948 H 86.7837 4.35558 -3.1015 0
M  V30 949 H 87.1267 3.90229 -1.45008 0
M  V30 950 H 87.6597 2.84535 -2.78002 0
M  V30 951 H 84.3987 3.11966 -5.76504 0
M  V30 952 H 83.9187 4.11041 -4.36813 0
M  V30 953 H 85.5977 4.15328 -4.96096 0
M  V30 954 N 85.7298 1.2412 0.971189 0
M  V30 955 C 86.6618 0.988349 2.06795 0
M  V30 956 C 87.6748 -0.0409541 1.62748 0
M  V30 957 O 88.8638 0.195673 1.77424 0
M  V30 958 C 85.9638 0.469023 3.35639 0
M  V30 959 C 85.1368 1.56065 4.08611 0
M  V30 960 C 84.1958 1.04458 5.15728 0
M  V30 961 O 83.2218 1.73553 5.42096 0
M  V30 962 N 84.4238 -0.122817 5.8037 0
M  V30 963 H 87.1888 1.93265 2.29061 0
M  V30 964 H 84.7498 1.15102 1.13856 0
M  V30 965 H 86.7418 0.108613 4.04554 0
M  V30 966 H 85.3118 -0.380919 3.1027 0
M  V30 967 H 84.5318 2.09341 3.34021 0
M  V30 968 H 85.8198 2.29449 4.54126 0
M  V30 969 H 85.2178 -0.700563 5.61345 0
M  V30 970 H 83.7748 -0.424404 6.50417 0
M  V30 971 N 87.2079 -1.17134 1.05439 0
M  V30 972 C 88.1709 -2.19439 0.661764 0
M  V30 973 C 89.1709 -1.58199 -0.288042 0
M  V30 974 O 90.3609 -1.74053 -0.0715803 0
M  V30 975 C 87.4929 -3.40889 -0.0276209 0
M  V30 976 H 88.6859 -2.55688 1.56728 0
M  V30 977 H 86.2389 -1.31259 0.848567 0
M  V30 978 H 86.9739 -3.10187 -0.94629 0
M  V30 979 H 86.7589 -3.86586 0.655238 0
M  V30 980 H 88.2489 -4.16603 -0.288342 0
M  V30 981 N 88.686 -0.835752 -1.33615 0
M  V30 982 C 89.616 -0.281739 -2.31794 0
M  V30 983 C 90.597 0.608833 -1.58831 0
M  V30 984 O 91.782 0.533035 -1.86741 0
M  V30 985 C 88.912 0.546612 -3.42971 0
M  V30 986 C 87.866 -0.247904 -4.27281 0
M  V30 987 C 87.192 0.704001 -5.30045 0
M  V30 988 C 88.492 -1.46324 -5.01385 0
M  V30 989 H 90.186 -1.10206 -2.78379 0
M  V30 990 H 87.732 -0.531388 -1.33837 0
M  V30 991 H 89.685 0.944467 -4.1068 0
M  V30 992 H 88.409 1.40011 -2.95067 0
M  V30 993 H 87.068 -0.627281 -3.61194 0
M  V30 994 H 86.716 1.55381 -4.78399 0
M  V30 995 H 86.416 0.176524 -5.87335 0
M  V30 996 H 87.94 1.09944 -6.0062 0
M  V30 997 H 89.354 -1.13871 -5.61877 0
M  V30 998 H 87.751 -1.92728 -5.6831 0
M  V30 999 H 88.821 -2.23467 -4.30338 0
M  V30 1000 N 90.1641 1.46063 -0.591896 0
M  V30 1001 C 91.4411 1.95595 -0.0137119 0
M  V30 1002 C 91.8211 1.5345 1.4497 0
M  V30 1003 O 91.1691 0.789543 2.14426 0
M  V30 1004 C 91.3791 3.48453 -0.195373 0
M  V30 1005 C 92.7271 4.24546 -0.0679765 0
M  V30 1006 O 93.7511 3.55982 -0.124681 0
M  V30 1007 O 92.6101 5.46467 0.0600579 0
M  V30 1008 H 89.7041 0.825795 0.0446279 0
M  V30 1009 H 92.2501 1.56303 -0.660859 0
M  V30 1010 H 91.0221 3.72045 -1.21235 0
M  V30 1011 H 90.6451 3.94597 0.487775 0
M  V30 1012 N 91.6422 0.330177 1.54103 0
M  V30 1013 C 92.8902 -0.269871 2.0029 0
M  V30 1014 C 93.2112 -1.52133 1.21986 0
M  V30 1015 O 92.4812 -1.93212 0.323438 0
M  V30 1016 H 91.0612 -0.10271 0.739905 0
M  V30 1017 H 93.7232 0.448249 1.89675 0
M  V30 1018 H 92.8192 -0.52166 3.07709 0
M  V30 1019 N 93.1203 -1.57491 0.0584922 0
M  V30 1020 C 94.0303 -2.15448 -0.928414 0
M  V30 1021 C 95.0463 -1.11416 -1.3365 0
M  V30 1022 O 96.2223 -1.4362 -1.41193 0
M  V30 1023 C 93.2873 -2.69393 -2.18239 0
M  V30 1024 C 92.3483 -3.88249 -1.83196 0
M  V30 1025 C 91.5813 -4.39613 -3.02616 0
M  V30 1026 O 91.8043 -3.90023 -4.16219 0
M  V30 1027 O 90.7383 -5.31111 -2.83204 0
M  V30 1028 H 94.5643 -3.00112 -0.465483 0
M  V30 1029 H 92.1493 -1.48499 -0.163826 0
M  V30 1030 H 94.0313 -3.04026 -2.91798 0
M  V30 1031 H 92.7063 -1.87796 -2.63656 0
M  V30 1032 H 91.6133 -3.58492 -1.06931 0
M  V30 1033 H 92.9463 -4.71098 -1.42573 0
M  V30 1034 N 94.5984 0.214957 -1.56127 0
M  V30 1035 C 95.5314 1.29382 -1.87977 0
M  V30 1036 C 96.5094 1.44897 -0.737807 0
M  V30 1037 O 97.6934 1.60605 -0.986833 0
M  V30 1038 C 94.8204 2.66325 -2.09258 0
M  V30 1039 C 93.8664 2.67789 -3.31951 0
M  V30 1040 S 94.6994 2.21198 -4.8768 0
M  V30 1041 C 95.8554 3.60003 -5.12004 0
M  V30 1042 H 96.0884 1.02173 -2.79192 0
M  V30 1043 H 93.6214 0.417516 -1.48648 0
M  V30 1044 H 95.5794 3.45162 -2.22201 0
M  V30 1045 H 94.2404 2.90755 -1.18829 0
M  V30 1046 H 93.4334 3.68436 -3.43906 0
M  V30 1047 H 93.0354 1.9702 -3.17898 0
M  V30 1048 H 95.3274 4.55739 -5.01307 0
M  V30 1049 H 96.2704 3.52959 -6.13861 0
M  V30 1050 H 96.6784 3.53996 -4.39712 0
M  V30 1051 N 96.0765 1.50051 0.48192 0
M  V30 1052 C 97.4925 1.37237 0.814756 0
M  V30 1053 C 97.6925 0.420109 1.97072 0
M  V30 1054 O 96.7485 -0.141246 2.52105 0
M  V30 1055 C 98.0615 2.78375 1.13701 0
M  V30 1056 C 99.6095 2.87213 1.2441 0
M  V30 1057 C 100.084 4.29161 1.59954 0
M  V30 1058 N 101.575 4.32061 1.66967 0
M  V30 1059 C 102.31 5.38879 1.95952 0
M  V30 1060 N 101.806 6.55918 2.23031 0
M  V30 1061 N 103.599 5.26312 1.97363 0
M  V30 1062 H 95.7505 2.10546 -0.28005 0
M  V30 1063 H 98.0135 0.945921 -0.0627454 0
M  V30 1064 H 97.7195 3.49845 0.360787 0
M  V30 1065 H 97.5935 3.14941 2.07586 0
M  V30 1066 H 99.9805 2.15969 2.01101 0
M  V30 1067 H 100.061 2.54204 0.285299 0
M  V30 1068 H 99.7055 5.00938 0.838067 0
M  V30 1069 H 99.6355 4.59648 2.56966 0
M  V30 1070 H 102.126 3.47661 1.48123 0
M  V30 1071 H 102.439 7.33139 2.44391 0
M  V30 1072 H 100.784 6.59112 2.20447 0
M  V30 1073 H 103.975 4.33876 1.75697 0
M  V30 1074 H 104.148 6.09649 2.19618 0
M  V30 1075 N 97.5546 -0.734337 1.39446 0
M  V30 1076 C 98.5026 -1.86971 1.38364 0
M  V30 1077 C 99.4966 -1.67288 0.266687 0
M  V30 1078 O 100.703 -1.74621 0.436755 0
M  V30 1079 H 97.0776 -0.615474 0.432082 0
M  V30 1080 H 99.0486 -1.85 2.34132 0
M  V30 1081 C 97.7976 -3.2466 1.24465 0
M  V30 1082 H 97.1206 -3.40402 2.09682 0
M  V30 1083 H 98.5606 -4.04292 1.27764 0
M  V30 1084 C 97.0196 -3.36867 -0.0468674 0
M  V30 1085 O 97.5496 -3.88618 -1.01681 0
M  V30 1086 N 95.7556 -2.90391 -0.110145 0
M  V30 1087 H 95.3026 -2.48466 0.679868 0
M  V30 1088 H 95.2606 -2.98939 -0.973799 0
M  V30 1089 N 99.0327 -1.24633 -0.964593 0
M  V30 1090 C 99.9957 -1.0424 -2.04124 0
M  V30 1091 C 100.996 0.00137563 -1.608 0
M  V30 1092 O 102.186 -0.239883 -1.7254 0
M  V30 1093 C 99.3177 -0.580588 -3.3592 0
M  V30 1094 H 100.511 -1.99803 -2.23649 0
M  V30 1095 H 98.0637 -1.06899 -1.14027 0
M  V30 1096 H 98.7987 0.3781 -3.22088 0
M  V30 1097 H 98.5837 -1.33398 -3.6871 0
M  V30 1098 H 100.074 -0.459034 -4.15069 0
M  V30 1099 N 100.511 1.16574 -1.06058 0
M  V30 1100 C 101.757 1.87324 -0.777022 0
M  V30 1101 C 102.09 1.81351 0.694645 0
M  V30 1102 O 101.365 1.22753 1.50871 0
M  V30 1103 C 101.648 3.36991 -1.26922 0
M  V30 1104 C 101.501 3.51667 -2.80447 0
M  V30 1105 C 102.82 4.3131 -0.87521 0
M  V30 1106 H 99.9388 0.680191 -0.28374 0
M  V30 1107 H 102.581 1.37036 -1.3161 0
M  V30 1108 H 100.731 3.79949 -0.81063 0
M  V30 1109 H 102.403 3.17664 -3.34495 0
M  V30 1110 H 100.646 2.93656 -3.19294 0
M  V30 1111 H 101.317 4.56766 -3.0995 0
M  V30 1112 H 103.793 3.9624 -1.27014 0
M  V30 1113 H 102.669 5.34545 -1.2471 0
M  V30 1114 H 102.93 4.41552 0.220071 0
M  V30 1115 N 101.989 0.842826 1.3317 0
M  V30 1116 C 103.229 0.446574 1.99462 0
M  V30 1117 C 103.593 -0.976818 1.65295 0
M  V30 1118 O 104.794 -1.477 2.24584 0
M  V30 1119 C 103.065 0.665353 3.51152 0
M  V30 1120 S 104.624 0.364911 4.3728 0
M  V30 1121 H 101.442 0.167803 0.690915 0
M  V30 1122 H 104.044 1.09297 1.62094 0
M  V30 1123 H 102.748 1.7006 3.73507 0
M  V30 1124 H 102.279 0.00494568 3.934 0
M  V30 1125 H 104.294 -0.813761 4.89482 0
M  V30 1126 N 103.467 -1.45747 0.599634 0
M  V30 1127 C 104.716 -2.01502 0.0893511 0
M  V30 1128 C 105.029 -1.4748 -1.28488 0
M  V30 1129 O 106.235 -1.95161 -1.88745 0
M  V30 1130 C 104.691 -3.59735 0.109082 0
M  V30 1131 C 104.299 -4.22754 1.48267 0
M  V30 1132 C 106.043 -4.23085 -0.346374 0
M  V30 1133 C 103.95 -5.73115 1.45921 0
M  V30 1134 H 102.88 -0.753417 0.0296347 0
M  V30 1135 H 105.531 -1.67303 0.753788 0
M  V30 1136 H 103.913 -3.91087 -0.621854 0
M  V30 1137 H 105.087 -4.02987 2.23468 0
M  V30 1138 H 103.402 -3.71567 1.87955 0
M  V30 1139 H 105.999 -5.33327 -0.38298 0
M  V30 1140 H 106.342 -3.93201 -1.36743 0
M  V30 1141 H 106.875 -3.9642 0.331038 0
M  V30 1142 H 103.614 -6.07685 2.45762 0
M  V30 1143 H 103.134 -5.95097 0.749665 0
M  V30 1144 H 104.813 -6.3616 1.17941 0
M  V30 1145 N 104.945 -0.338344 -1.53925 0
M  V30 1146 C 106.192 0.259758 -2.00827 0
M  V30 1147 C 106.52 1.50973 -1.22628 0
M  V30 1148 O 105.775 1.93379 -0.300509 0
M  V30 1149 C 106.074 0.62448 -3.51902 0
M  V30 1150 C 105.74 -0.528006 -4.47798 0
M  V30 1151 C 104.402 -0.844298 -4.73735 0
M  V30 1152 C 106.754 -1.30143 -5.0469 0
M  V30 1153 C 104.082 -1.93648 -5.53821 0
M  V30 1154 C 106.434 -2.38382 -5.85967 0
M  V30 1155 C 105.098 -2.70576 -6.10201 0
M  V30 1156 H 104.368 0.0950523 -0.734878 0
M  V30 1157 H 107.015 -0.465182 -1.85764 0
M  V30 1158 H 105.32 1.43006 -3.64769 0
M  V30 1159 H 107.017 1.09905 -3.85645 0
M  V30 1160 H 103.607 -0.271421 -4.2774 0
M  V30 1161 H 107.791 -1.07033 -4.84621 0
M  V30 1162 H 103.047 -2.19021 -5.70824 0
M  V30 1163 H 107.221 -2.98746 -6.29066 0
M  V30 1164 H 104.848 -3.55333 -6.72044 0
M  V30 1165 N 106.423 1.57458 -0.0668435 0
M  V30 1166 C 107.653 1.97337 0.611677 0
M  V30 1167 C 108.061 0.943744 1.63982 0
M  V30 1168 O 107.404 -0.0785584 1.83532 0
M  V30 1169 C 107.466 3.33511 1.34205 0
M  V30 1170 C 107.13 4.54598 0.467941 0
M  V30 1171 C 108.127 5.19186 -0.272439 0
M  V30 1172 C 105.812 5.0075 0.39427 0
M  V30 1173 C 107.806 6.28274 -1.07476 0
M  V30 1174 C 105.493 6.09711 -0.411729 0
M  V30 1175 C 106.491 6.73335 -1.14492 0
M  V30 1176 O 106.179 7.80199 -1.93763 0
M  V30 1177 H 105.911 0.654042 0.170893 0
M  V30 1178 H 108.465 2.04961 -0.134289 0
M  V30 1179 H 106.695 3.22487 2.13398 0
M  V30 1180 H 108.384 3.58029 1.91233 0
M  V30 1181 H 109.15 4.84477 -0.225086 0
M  V30 1182 H 105.029 4.51009 0.954569 0
M  V30 1183 H 108.573 6.77866 -1.64755 0
M  V30 1184 H 104.47 6.43854 -0.460664 0
M  V30 1185 H 105.238 7.97053 -1.86142 0
M  V30 1186 N 107.901 -0.206675 1.56239 0
M  V30 1187 C 108.831 -1.25909 1.96645 0
M  V30 1188 C 109.812 -1.48097 0.836734 0
M  V30 1189 O 110.997 -1.6003 1.10019 0
M  V30 1190 C 108.127 -2.6058 2.29599 0
M  V30 1191 C 107.081 -2.53024 3.452 0
M  V30 1192 C 106.407 -3.91861 3.63798 0
M  V30 1193 C 107.707 -2.06524 4.79734 0
M  V30 1194 H 109.401 -0.923369 2.84806 0
M  V30 1195 H 106.947 -0.442735 1.37025 0
M  V30 1196 H 108.9 -3.34375 2.56459 0
M  V30 1197 H 107.624 -2.95869 1.38307 0
M  V30 1198 H 106.283 -1.81684 3.18412 0
M  V30 1199 H 105.931 -4.24483 2.69857 0
M  V30 1200 H 105.631 -3.87683 4.4156 0
M  V30 1201 H 107.155 -4.67296 3.93022 0
M  V30 1202 H 108.569 -2.70072 5.05702 0
M  V30 1203 H 106.966 -2.13374 5.60885 0
M  V30 1204 H 108.036 -1.01802 4.74093 0
M  V30 1205 N 109.379 -1.50304 -0.473955 0
M  V30 1206 C 110.625 -1.61389 -1.22806 0
M  V30 1207 C 110.958 -0.311955 -1.91678 0
M  V30 1208 O 110.233 0.686384 -1.81986 0
M  V30 1209 C 110.516 -2.79219 -2.27396 0
M  V30 1210 C 110.369 -4.19286 -1.62848 0
M  V30 1211 C 111.688 -2.92614 -3.28732 0
M  V30 1212 H 108.807 -0.587399 -0.445119 0
M  V30 1213 H 111.449 -1.82681 -0.522265 0
M  V30 1214 H 109.599 -2.61195 -2.87592 0
M  V30 1215 H 111.271 -4.48892 -1.06271 0
M  V30 1216 H 109.514 -4.23677 -0.931693 0
M  V30 1217 H 110.185 -4.97655 -2.38838 0
M  V30 1218 H 112.661 -3.09105 -2.78556 0
M  V30 1219 H 111.537 -3.76688 -3.99246 0
M  V30 1220 H 111.798 -2.03107 -3.92683 0
M  V30 1221 N 110.857 0.726932 -1.39834 0
M  V30 1222 C 111.787 1.85405 -1.41941 0
M  V30 1223 C 112.768 1.67751 -0.281728 0
M  V30 1224 O 113.953 1.8795 -0.488717 0
M  V30 1225 C 111.083 3.23243 -1.2701 0
M  V30 1226 C 110.037 3.55549 -2.38262 0
M  V30 1227 C 109.363 4.9241 -2.08415 0
M  V30 1228 C 110.663 3.577 -3.80589 0
M  V30 1229 H 112.357 1.83899 -2.36266 0
M  V30 1230 H 109.903 0.883349 -1.13723 0
M  V30 1231 H 111.856 4.01775 -1.27103 0
M  V30 1232 H 110.58 3.25296 -0.291564 0
M  V30 1233 H 109.239 2.79351 -2.37399 0
M  V30 1234 H 108.887 4.91052 -1.0898 0
M  V30 1235 H 108.587 5.14992 -2.82943 0
M  V30 1236 H 110.111 5.73289 -2.10171 0
M  V30 1237 H 111.525 4.26293 -3.83337 0
M  V30 1238 H 109.922 3.91804 -4.54543 0
M  V30 1239 H 110.992 2.57328 -4.10987 0
M  V30 1240 N 112.336 1.25143 0.95797 0
M  V30 1241 C 113.752 1.01892 1.22842 0
M  V30 1242 C 113.952 -0.266311 1.99732 0
M  V30 1243 O 113.008 -0.979913 2.3271 0
M  V30 1244 C 114.321 2.24004 2.00606 0
M  V30 1245 C 115.869 2.28731 2.13662 0
M  V30 1246 C 116.344 3.5049 2.94823 0
M  V30 1247 N 117.835 3.50866 3.02403 0
M  V30 1248 C 118.57 4.4174 3.65586 0
M  V30 1249 N 118.066 5.42882 4.30408 0
M  V30 1250 N 119.859 4.29429 3.62694 0
M  V30 1251 H 112.01 2.07718 0.443493 0
M  V30 1252 H 114.273 0.912031 0.258657 0
M  V30 1253 H 113.979 3.17395 1.51503 0
M  V30 1254 H 113.853 2.26907 3.01319 0
M  V30 1255 H 116.24 1.35865 2.61963 0
M  V30 1256 H 116.321 2.29848 1.12265 0
M  V30 1257 H 115.965 4.43676 2.47213 0
M  V30 1258 H 115.895 3.46617 3.96439 0
M  V30 1259 H 118.386 2.777 2.56302 0
M  V30 1260 H 118.699 6.0844 4.76467 0
M  V30 1261 H 117.044 5.46758 4.29047 0
M  V30 1262 H 120.235 3.49643 3.11236 0
M  V30 1263 H 120.408 5.00448 4.1165 0
M  V30 1264 N 113.814 -1.1601 1.06675 0
M  V30 1265 C 114.777 -2.18724 0.685001 0
M  V30 1266 C 115.777 -1.58496 -0.271246 0
M  V30 1267 O 116.967 -1.74119 -0.0531156 0
M  V30 1268 C 114.099 -3.40899 0.00853648 0
M  V30 1269 H 115.292 -2.54011 1.59431 0
M  V30 1270 H 112.845 -1.30352 0.862441 0
M  V30 1271 H 113.58 -3.11173 -0.913337 0
M  V30 1272 H 113.365 -3.8587 0.696204 0
M  V30 1273 H 114.855 -4.16886 -0.24414 0
M  V30 1274 N 115.292 -0.849877 -1.32721 0
M  V30 1275 C 116.222 -0.306308 -2.31482 0
M  V30 1276 C 117.203 0.591952 -1.59468 0
M  V30 1277 O 118.388 0.513199 -1.87296 0
M  V30 1278 C 115.518 0.510204 -3.43532 0
M  V30 1279 C 114.472 -0.293209 -4.26994 0
M  V30 1280 C 113.798 0.647743 -5.30762 0
M  V30 1281 C 115.098 -1.51634 -4.99804 0
M  V30 1282 H 116.792 -1.13153 -2.77195 0
M  V30 1283 H 114.338 -0.545553 -1.33266 0
M  V30 1284 H 116.291 0.900856 -4.11658 0
M  V30 1285 H 115.015 1.36874 -2.96535 0
M  V30 1286 H 113.674 -0.665555 -3.60508 0
M  V30 1287 H 113.322 1.50299 -4.8002 0
M  V30 1288 H 113.022 0.11422 -5.87489 0
M  V30 1289 H 114.546 1.03567 -6.01753 0
M  V30 1290 H 115.96 -1.19824 -5.60638 0
M  V30 1291 H 114.357 -1.98745 -5.66234 0
M  V30 1292 H 115.427 -2.28018 -4.27943 0
M  V30 1293 N 116.77 1.45427 -0.607355 0
M  V30 1294 C 118.047 1.9557 -0.0344566 0
M  V30 1295 C 118.427 1.54979 1.43334 0
M  V30 1296 O 117.775 0.812241 2.13576 0
M  V30 1297 C 117.985 3.48226 -0.232321 0
M  V30 1298 C 119.333 4.2445 -0.113001 0
M  V30 1299 O 120.357 3.55829 -0.162431 0
M  V30 1300 O 119.216 5.465 0.00209442 0
M  V30 1301 H 116.31 0.826222 0.0358667 0
M  V30 1302 H 118.856 1.55594 -0.6774 0
M  V30 1303 H 117.628 3.70739 -1.25174 0
M  V30 1304 H 117.251 3.95092 0.445896 0
M  V30 1305 N 118.248 0.346503 1.53744 0
M  V30 1306 C 119.476 -0.25041 2.05379 0
M  V30 1307 C 119.891 -1.43979 1.22129 0
M  V30 1308 O 119.248 -1.80677 0.257321 0
M  V30 1309 C 119.299 -0.662575 3.55376 0
M  V30 1310 O 119.02 0.479515 4.35468 0
M  V30 1311 C 120.521 -1.31989 4.23195 0
M  V30 1312 H 117.741 -0.0478198 0.669294 0
M  V30 1313 H 120.285 0.499346 1.9831 0
M  V30 1314 H 118.44 -1.36227 3.62658 0
M  V30 1315 H 118.854 0.15037 5.24284 0
M  V30 1316 H 120.328 -1.55902 5.29527 0
M  V30 1317 H 120.805 -2.27436 3.75725 0
M  V30 1318 H 121.411 -0.662154 4.20114 0
M  V30 1319 N 119.726 -1.57421 0.075193 0
M  V30 1320 C 120.656 -2.15942 -0.888324 0
M  V30 1321 C 121.637 -1.08737 -1.30806 0
M  V30 1322 O 122.822 -1.36787 -1.37851 0
M  V30 1323 C 119.952 -2.72379 -2.1547 0
M  V30 1324 C 118.906 -3.8478 -1.87425 0
M  V30 1325 C 118.232 -4.27834 -3.20721 0
M  V30 1326 C 119.532 -5.08869 -1.17684 0
M  V30 1327 H 121.226 -2.96705 -0.400799 0
M  V30 1328 H 118.772 -1.42723 -0.191342 0
M  V30 1329 H 120.725 -3.11965 -2.83295 0
M  V30 1330 H 119.449 -1.88841 -2.6647 0
M  V30 1331 H 118.108 -3.45703 -1.22004 0
M  V30 1332 H 117.756 -3.41214 -3.6957 0
M  V30 1333 H 117.456 -5.03605 -3.02746 0
M  V30 1334 H 118.98 -4.70039 -3.89738 0
M  V30 1335 H 120.394 -5.4575 -1.75584 0
M  V30 1336 H 118.791 -5.8994 -1.09956 0
M  V30 1337 H 119.861 -4.84648 -0.156453 0
M  V30 1338 N 121.204 0.198386 -1.56346 0
M  V30 1339 C 122.114 1.2664 -1.97483 0
M  V30 1340 C 123.13 1.49989 -0.882002 0
M  V30 1341 O 124.306 1.62668 -1.18748 0
M  V30 1342 C 121.371 2.59141 -2.30319 0
M  V30 1343 C 120.432 2.43892 -3.53292 0
M  V30 1344 C 119.665 3.70074 -3.84553 0
M  V30 1345 O 119.888 4.74101 -3.1715 0
M  V30 1346 O 118.822 3.658 -4.7799 0
M  V30 1347 H 122.648 0.947304 -2.88548 0
M  V30 1348 H 120.233 0.403123 -1.43859 0
M  V30 1349 H 122.115 3.37352 -2.5253 0
M  V30 1350 H 120.79 2.90684 -1.42423 0
M  V30 1351 H 119.697 1.63803 -3.36332 0
M  V30 1352 H 121.03 2.17282 -4.41644 0
M  V30 1353 N 122.682 1.50554 0.465978 0
M  V30 1354 C 123.959 1.5232 1.22712 0
M  V30 1355 C 124.339 0.270807 2.09356 0
M  V30 1356 O 123.687 -0.745541 2.15995 0
M  V30 1357 C 123.897 2.82175 2.05374 0
M  V30 1358 C 125.245 3.33033 2.6339 0
M  V30 1359 O 126.269 2.83531 2.15612 0
M  V30 1360 O 125.128 4.19336 3.50456 0
M  V30 1361 H 122.222 0.611183 0.557122 0
M  V30 1362 H 124.768 1.62847 0.477381 0
M  V30 1363 H 123.54 3.64797 1.41558 0
M  V30 1364 H 123.163 2.74675 2.87471 0
M  V30 1365 N 124.16 -0.719506 1.40217 0
M  V30 1366 C 125.437 -1.47221 1.28784 0
M  V30 1367 C 125.817 -2.10883 -0.0956067 0
M  V30 1368 O 125.165 -1.99833 -1.10811 0
M  V30 1369 C 125.375 -2.5111 2.42373 0
M  V30 1370 C 126.723 -3.17053 2.82423 0
M  V30 1371 O 127.747 -2.61429 2.41937 0
M  V30 1372 O 126.606 -4.17742 3.52355 0
M  V30 1373 H 123.7 -0.654491 0.50554 0
M  V30 1374 H 126.246 -0.752014 1.52128 0
M  V30 1375 H 125.018 -2.02556 3.34793 0
M  V30 1376 H 124.641 -3.3067 2.20778 0
M  V30 1377 N 125.638 -1.25649 -0.95132 0
M  V30 1378 C 126.571 -1.00644 -2.04807 0
M  V30 1379 C 127.549 0.0654271 -1.62468 0
M  V30 1380 O 128.733 -0.074911 -1.88351 0
M  V30 1381 C 125.86 -0.522052 -3.34653 0
M  V30 1382 C 124.906 -1.58495 -3.95957 0
M  V30 1383 S 125.739 -3.17108 -4.31512 0
M  V30 1384 C 126.895 -2.70412 -5.64471 0
M  V30 1385 H 127.128 -1.93508 -2.25703 0
M  V30 1386 H 124.661 -1.09216 -1.09139 0
M  V30 1387 H 126.619 -0.24923 -4.09743 0
M  V30 1388 H 125.28 0.386146 -3.11717 0
M  V30 1389 H 124.473 -1.1968 -4.89584 0
M  V30 1390 H 124.075 -1.80862 -3.2736 0
M  V30 1391 H 126.367 -2.14245 -6.42733 0
M  V30 1392 H 127.31 -3.62693 -6.08161 0
M  V30 1393 H 127.718 -2.10302 -5.23864 0
M  V30 1394 N 127.117 1.15442 -1.07289 0
M  V30 1395 C 128.345 1.90096 -0.81676 0
M  V30 1396 C 128.76 1.7798 0.629966 0
M  V30 1397 O 128.117 1.1313 1.43206 0
M  V30 1398 C 128.168 3.40466 -1.21512 0
M  V30 1399 O 127.889 3.52232 -2.60508 0
M  V30 1400 C 129.39 4.32145 -0.988198 0
M  V30 1401 H 126.61 0.602495 -0.295366 0
M  V30 1402 H 129.154 1.4627 -1.42918 0
M  V30 1403 H 127.309 3.81958 -0.647039 0
M  V30 1404 H 127.723 4.45549 -2.76742 0
M  V30 1405 H 129.197 5.36072 -1.31645 0
M  V30 1406 H 129.674 4.39135 0.0755063 0
M  V30 1407 H 130.28 3.96395 -1.54115 0
M  V30 1408 N 128.595 0.856903 1.32268 0
M  V30 1409 C 129.844 0.457599 1.96441 0
M  V30 1410 C 130.157 -0.992426 1.68553 0
M  V30 1411 O 131.363 -1.49727 2.26482 0
M  V30 1412 C 129.819 0.767358 3.51624 0
M  V30 1413 C 129.427 2.23326 3.88367 0
M  V30 1414 C 131.171 0.435887 4.22256 0
M  V30 1415 C 129.078 2.48613 5.36606 0
M  V30 1416 H 128.008 0.167387 0.735185 0
M  V30 1417 H 130.659 1.048 1.5063 0
M  V30 1418 H 129.041 0.106367 3.95857 0
M  V30 1419 H 130.215 2.93623 3.55137 0
M  V30 1420 H 128.53 2.52948 3.30766 0
M  V30 1421 H 131.127 0.602202 5.31298 0
M  V30 1422 H 131.47 -0.622672 4.11617 0
M  V30 1423 H 132.003 1.05286 3.83614 0
M  V30 1424 H 128.742 3.53101 5.52268 0
M  V30 1425 H 128.262 1.82896 5.71235 0
M  V30 1426 H 129.941 2.32676 6.03714 0
M  V30 1427 N 130.073 -1.45103 0.615059 0
M  V30 1428 C 131.298 -2.07064 0.117988 0
M  V30 1429 C 131.723 -1.4554 -1.19163 0
M  V30 1430 O 131.081 -0.550855 -1.72729 0
M  V30 1431 C 131.129 -3.606 -0.000288387 0
M  V30 1432 O 130.233 -3.98847 -1.04856 0
M  V30 1433 H 129.574 -0.659467 0.0774581 0
M  V30 1434 H 132.104 -1.86236 0.847186 0
M  V30 1435 H 132.114 -4.07529 -0.196091 0
M  V30 1436 H 130.789 -4.04765 0.955932 0
M  V30 1437 H 129.366 -3.63577 -0.828619 0
M  V30 1438 N 131.551 -0.354651 -1.53558 0
M  V30 1439 C 132.797 0.238797 -2.01389 0
M  V30 1440 C 133.13 1.49309 -1.2418 0
M  V30 1441 O 132.405 1.91638 -0.332457 0
M  V30 1442 C 132.688 0.541771 -3.56001 0
M  V30 1443 C 132.541 -0.725388 -4.43912 0
M  V30 1444 C 133.86 1.34685 -4.18984 0
M  V30 1445 H 130.979 0.0853177 -0.732045 0
M  V30 1446 H 133.621 -0.477384 -1.83905 0
M  V30 1447 H 131.771 1.15189 -3.71031 0
M  V30 1448 H 133.443 -1.36313 -4.407 0
M  V30 1449 H 131.686 -1.34801 -4.12324 0
M  V30 1450 H 132.357 -0.468505 -5.50008 0
M  V30 1451 H 134.833 0.830837 -4.07721 0
M  V30 1452 H 133.709 1.52759 -5.27215 0
M  V30 1453 H 133.97 2.35221 -3.74331 0
M  V30 1454 N 133.029 1.57378 -0.0835403 0
M  V30 1455 C 133.939 2.16897 0.894021 0
M  V30 1456 C 134.955 1.13528 1.31861 0
M  V30 1457 O 136.131 1.45848 1.3889 0
M  V30 1458 C 133.196 2.72831 2.13925 0
M  V30 1459 C 132.257 3.91115 1.76997 0
M  V30 1460 C 131.49 4.44371 2.95584 0
M  V30 1461 O 131.713 3.96596 4.09961 0
M  V30 1462 O 130.647 5.35549 2.74719 0
M  V30 1463 H 134.473 3.00814 0.417679 0
M  V30 1464 H 132.058 1.48741 0.140181 0
M  V30 1465 H 133.94 3.0863 2.86924 0
M  V30 1466 H 132.615 1.91967 2.60635 0
M  V30 1467 H 131.522 3.60148 1.01214 0
M  V30 1468 H 132.855 4.73307 1.3506 0
M  V30 1469 N 134.507 -0.190092 1.56449 0
M  V30 1470 C 135.454 -1.23557 1.94942 0
M  V30 1471 C 136.424 -1.44972 0.810696 0
M  V30 1472 O 137.609 -1.58023 1.06927 0
M  V30 1473 C 134.749 -2.57416 2.2985 0
M  V30 1474 C 133.862 -2.43537 3.5681 0
M  V30 1475 C 132.997 -3.70134 3.81017 0
M  V30 1476 C 132.036 -3.51109 5.01387 0
M  V30 1477 N 131.173 -4.6973 5.21822 0
M  V30 1478 H 136.013 -0.900304 2.84075 0
M  V30 1479 H 133.55 -0.43318 1.40577 0
M  V30 1480 H 135.508 -3.35409 2.48106 0
M  V30 1481 H 134.138 -2.88975 1.43852 0
M  V30 1482 H 133.19 -1.56816 3.46573 0
M  V30 1483 H 134.502 -2.25415 4.4496 0
M  V30 1484 H 133.656 -4.56566 3.9954 0
M  V30 1485 H 132.395 -3.91215 2.91207 0
M  V30 1486 H 131.4 -2.63063 4.82782 0
M  V30 1487 H 132.625 -3.31468 5.9271 0
M  V30 1488 H 130.571 -4.91065 4.34961 0
M  V30 1489 H 130.488 -4.54452 6.0416 0
M  V30 1490 H 131.756 -5.57499 5.44808 0
M  V30 1491 N 135.985 -1.50799 -0.457987 0
M  V30 1492 C 136.932 -1.70617 -1.5543 0
M  V30 1493 C 137.902 -0.547562 -1.56815 0
M  V30 1494 O 139.087 -0.779647 -1.74144 0
M  V30 1495 C 136.227 -1.81831 -2.93311 0
M  V30 1496 C 135.34 -3.09278 -3.01615 0
M  V30 1497 C 134.475 -3.11209 -4.30491 0
M  V30 1498 C 133.514 -4.33055 -4.32585 0
M  V30 1499 N 132.651 -4.32652 -5.52952 0
M  V30 1500 H 137.491 -2.64207 -1.37836 0
M  V30 1501 H 135.028 -1.30959 -0.669937 0
M  V30 1502 H 136.986 -1.86314 -3.73287 0
M  V30 1503 H 135.616 -0.916685 -3.0951 0
M  V30 1504 H 134.668 -3.14203 -2.1443 0
M  V30 1505 H 135.98 -3.99233 -2.99022 0
M  V30 1506 H 135.134 -3.14494 -5.18824 0
M  V30 1507 H 133.873 -2.19106 -4.35711 0
M  V30 1508 H 132.878 -4.29969 -3.42647 0
M  V30 1509 H 134.103 -5.264 -4.29046 0
M  V30 1510 H 132.049 -3.43409 -5.58933 0
M  V30 1511 H 131.966 -5.16392 -5.52155 0
M  V30 1512 H 133.234 -4.40101 -6.43375 0
M  V30 1513 N 137.463 0.71206 -1.40597 0
M  V30 1514 C 138.709 1.47416 -1.39271 0
M  V30 1515 C 139.042 1.942 0.00388791 0
M  V30 1516 O 138.317 1.68403 0.973179 0
M  V30 1517 C 138.6 2.69774 -2.38525 0
M  V30 1518 C 138.453 2.28861 -3.87224 0
M  V30 1519 C 139.772 3.71939 -2.35264 0
M  V30 1520 H 136.891 0.534713 -0.5072 0
M  V30 1521 H 139.533 0.812375 -1.71757 0
M  V30 1522 H 137.683 3.26238 -2.10953 0
M  V30 1523 H 139.355 1.77852 -4.25636 0
M  V30 1524 H 137.598 1.60824 -4.02887 0
M  V30 1525 H 138.269 3.16584 -4.52193 0
M  V30 1526 H 140.745 3.25113 -2.59694 0
M  V30 1527 H 139.621 4.55186 -3.06753 0
M  V30 1528 H 139.882 4.20484 -1.36549 0
M  V30 1529 N 138.941 1.26152 0.944643 0
M  V30 1530 C 140.352 1.10454 1.50522 0
M  V30 1531 C 140.703 -0.31635 1.93633 0
M  V30 1532 O 139.828 -1.20746 1.79581 0
M  V30 1533 C 140.423 1.99891 2.73549 0
M  V30 1534 C 138.982 1.88348 3.25886 0
M  V30 1535 C 138.129 1.93447 1.9868 0
M  V30 1536 H 141.08 1.39292 0.760489 0
M  V30 1537 H 141.101 1.54477 3.47732 0
M  V30 1538 H 140.613 3.03297 2.42141 0
M  V30 1539 H 138.714 0.878636 3.62092 0
M  V30 1540 H 138.827 2.73696 3.93227 0
M  V30 1541 H 137.191 1.37456 2.14425 0
M  V30 1542 H 137.974 2.98476 1.69607 0
M  V30 1543 N 140.419 -1.14872 1.07899 0
M  V30 1544 C 141.349 -2.2193 0.725887 0
M  V30 1545 C 142.33 -1.67622 -0.28927 0
M  V30 1546 O 143.515 -1.93533 -0.160787 0
M  V30 1547 C 140.645 -3.47061 0.128856 0
M  V30 1548 C 139.599 -4.14363 1.07178 0
M  V30 1549 C 138.925 -5.33636 0.337229 0
M  V30 1550 C 140.225 -4.63492 2.40775 0
M  V30 1551 H 141.919 -2.51724 1.62097 0
M  V30 1552 H 139.465 -1.20991 0.780838 0
M  V30 1553 H 141.418 -4.21199 -0.130147 0
M  V30 1554 H 140.142 -3.16617 -0.80134 0
M  V30 1555 H 138.801 -3.42173 1.3158 0
M  V30 1556 H 138.449 -4.99449 -0.596606 0
M  V30 1557 H 138.149 -5.79609 0.965788 0
M  V30 1558 H 139.673 -6.10539 0.0861567 0
M  V30 1559 H 141.087 -5.2913 2.20669 0
M  V30 1560 H 139.484 -5.20148 2.99276 0
M  V30 1561 H 140.554 -3.78834 3.02676 0
M  V30 1562 N 141.898 -0.863906 -1.31812 0
M  V30 1563 C 142.828 -0.330843 -2.31144 0
M  V30 1564 C 143.809 0.575005 -1.60087 0
M  V30 1565 O 144.994 0.493304 -1.8783 0
M  V30 1566 C 142.124 0.47374 -3.44054 0
M  V30 1567 C 141.078 -0.338481 -4.26659 0
M  V30 1568 C 140.404 0.591412 -5.31419 0
M  V30 1569 C 141.704 -1.56926 -4.98168 0
M  V30 1570 H 143.398 -1.16086 -2.75979 0
M  V30 1571 H 140.944 -0.559657 -1.32679 0
M  V30 1572 H 142.897 0.857143 -4.12591 0
M  V30 1573 H 141.621 1.33721 -2.9797 0
M  V30 1574 H 140.28 -0.703754 -3.59782 0
M  V30 1575 H 139.928 1.45199 -4.81587 0
M  V30 1576 H 139.628 0.0519022 -5.87577 0
M  V30 1577 H 141.152 0.97179 -6.02817 0
M  V30 1578 H 142.566 -1.25764 -5.59336 0
M  V30 1579 H 140.963 -2.04739 -5.64094 0
M  V30 1580 H 142.033 -2.32544 -4.25501 0
M  V30 1581 N 143.376 1.44774 -0.622745 0
M  V30 1582 C 144.326 2.2774 0.108889 0
M  V30 1583 C 145.31 1.38189 0.824175 0
M  V30 1584 O 146.502 1.62063 0.711664 0
M  V30 1585 C 143.631 3.25353 1.09546 0
M  V30 1586 C 142.717 4.22392 0.380232 0
M  V30 1587 N 143.108 5.02388 -0.586535 0
M  V30 1588 C 141.406 4.41588 0.625792 0
M  V30 1589 C 142.107 5.72894 -1.00834 0
M  V30 1590 N 141.083 5.42479 -0.348878 0
M  V30 1591 H 144.885 2.86993 -0.63341 0
M  V30 1592 H 142.399 1.5611 -0.447589 0
M  V30 1593 H 144.396 3.83538 1.63414 0
M  V30 1594 H 143.056 2.6766 1.83815 0
M  V30 1595 H 144.067 5.0885 -0.963975 0
M  V30 1596 H 140.744 3.95003 1.352 0
M  V30 1597 H 142.134 6.47158 -1.80656 0
M  V30 1598 N 144.854 0.36279 1.53368 0
M  V30 1599 C 145.802 -0.500155 2.27159 0
M  V30 1600 C 146.796 -1.08575 1.3003 0
M  V30 1601 O 148.002 -1.02927 1.47668 0
M  V30 1602 H 144.377 -0.180009 0.730138 0
M  V30 1603 H 146.348 0.14401 2.98052 0
M  V30 1604 C 145.097 -1.62937 3.07159 0
M  V30 1605 H 144.42 -1.18806 3.8174 0
M  V30 1606 H 145.86 -2.20795 3.61975 0
M  V30 1607 C 144.319 -2.57007 2.17829 0
M  V30 1608 O 144.849 -3.59752 1.78721 0
M  V30 1609 N 143.055 -2.26131 1.82518 0
M  V30 1610 H 142.602 -1.42616 2.14519 0
M  V30 1611 H 142.56 -2.89327 1.23034 0
M  V30 1612 N 146.332 -1.57332 0.0918853 0
M  V30 1613 C 147.579 -1.94236 -0.572577 0
M  V30 1614 C 147.907 -0.973398 -1.6839 0
M  V30 1615 O 147.162 0.00756912 -1.95699 0
M  V30 1616 C 147.461 -3.37689 -1.17051 0
M  V30 1617 C 147.127 -4.50527 -0.183304 0
M  V30 1618 C 145.789 -4.81119 0.0882276 0
M  V30 1619 C 148.141 -5.18883 0.49095 0
M  V30 1620 C 145.469 -5.77395 1.04076 0
M  V30 1621 C 147.821 -6.1618 1.43193 0
M  V30 1622 C 146.485 -6.45179 1.71173 0
M  V30 1623 H 145.755 -0.710762 -0.209521 0
M  V30 1624 H 148.402 -1.9077 0.167036 0
M  V30 1625 H 146.707 -3.37718 -1.9863 0
M  V30 1626 H 148.404 -3.63543 -1.69227 0
M  V30 1627 H 144.994 -4.26681 -0.405124 0
M  V30 1628 H 149.178 -4.95427 0.294312 0
M  V30 1629 H 144.434 -5.98179 1.26457 0
M  V30 1630 H 148.608 -6.68243 1.96023 0
M  V30 1631 H 146.235 -7.1959 2.4514 0
M  V30 1632 N 147.81 0.181792 -1.56548 0
M  V30 1633 C 148.76 1.22961 -1.92002 0
M  V30 1634 C 149.744 1.40331 -0.787146 0
M  V30 1635 O 150.936 1.42478 -1.05019 0
M  V30 1636 C 148.065 2.57144 -2.27446 0
M  V30 1637 C 147.151 2.43512 -3.47222 0
M  V30 1638 N 147.542 1.99577 -4.64761 0
M  V30 1639 C 145.84 2.74368 -3.51622 0
M  V30 1640 C 146.541 1.98156 -5.46909 0
M  V30 1641 N 145.517 2.40164 -4.8767 0
M  V30 1642 H 149.319 0.881462 -2.8037 0
M  V30 1643 H 146.833 0.390141 -1.57644 0
M  V30 1644 H 148.83 3.32847 -2.51035 0
M  V30 1645 H 147.49 2.92771 -1.40411 0
M  V30 1646 H 148.501 1.70078 -4.89177 0
M  V30 1647 H 145.178 3.14102 -2.75038 0
M  V30 1648 H 146.568 1.65975 -6.51077 0
M  V30 1649 N 149.288 1.51039 0.449983 0
M  V30 1650 C 150.513 1.6715 1.22783 0
M  V30 1651 C 150.938 0.363081 1.84563 0
M  V30 1652 O 150.296 -0.675433 1.68249 0
M  V30 1653 C 150.344 2.77985 2.29689 0
M  V30 1654 O 149.448 2.40707 3.34864 0
M  V30 1655 H 148.789 0.557746 0.360299 0
M  V30 1656 H 151.319 1.97535 0.533005 0
M  V30 1657 H 151.329 3.01693 2.74673 0
M  V30 1658 H 150.004 3.72935 1.84098 0
M  V30 1659 H 148.581 2.27523 2.95445 0
M  V30 1660 N 150.766 -0.704594 1.40972 0
M  V30 1661 C 152.013 -1.46458 1.39844 0
M  V30 1662 C 152.341 -1.94499 0.00447594 0
M  V30 1663 O 151.596 -1.69275 -0.982057 0
M  V30 1664 C 151.895 -2.698 2.34399 0
M  V30 1665 C 151.561 -2.40464 3.81429 0
M  V30 1666 C 150.223 -2.32174 4.21484 0
M  V30 1667 C 152.575 -2.16086 4.74296 0
M  V30 1668 C 149.903 -1.97589 5.52427 0
M  V30 1669 C 152.255 -1.83011 6.05549 0
M  V30 1670 C 150.919 -1.7321 6.44635 0
M  V30 1671 H 150.189 -0.535927 0.511725 0
M  V30 1672 H 152.836 -0.806124 1.73706 0
M  V30 1673 H 151.141 -3.40536 1.93759 0
M  V30 1674 H 152.838 -3.27919 2.30804 0
M  V30 1675 H 149.428 -2.47808 3.49699 0
M  V30 1676 H 153.612 -2.2144 4.4416 0
M  V30 1677 H 148.868 -1.88547 5.81601 0
M  V30 1678 H 153.042 -1.63164 6.77016 0
M  V30 1679 H 150.669 -1.46179 7.46013 0
M  V30 1680 N 152.244 -1.26651 -0.937939 0
M  V30 1681 C 153.174 -1.10993 -2.05433 0
M  V30 1682 C 154.155 -0.0142161 -1.70094 0
M  V30 1683 O 155.34 -0.186837 -1.93299 0
M  V30 1684 C 152.47 -0.745561 -3.39203 0
M  V30 1685 C 151.424 -1.79337 -3.88616 0
M  V30 1686 C 150.75 -1.28324 -5.19073 0
M  V30 1687 C 152.05 -3.19553 -4.13138 0
M  V30 1688 H 153.744 -2.0438 -2.1879 0
M  V30 1689 H 151.29 -0.984041 -1.05131 0
M  V30 1690 H 153.243 -0.622888 -4.16771 0
M  V30 1691 H 151.967 0.22401 -3.25831 0
M  V30 1692 H 150.626 -1.90477 -3.13231 0
M  V30 1693 H 150.274 -0.303414 -5.02084 0
M  V30 1694 H 149.974 -1.98369 -5.53103 0
M  V30 1695 H 151.498 -1.1733 -5.99221 0
M  V30 1696 H 152.912 -3.11471 -4.81309 0
M  V30 1697 H 151.309 -3.87218 -4.58457 0
M  V30 1698 H 152.379 -3.65368 -3.18801 0
M  V30 1699 N 153.722 1.14298 -1.08507 0
M  V30 1700 C 154.952 1.88945 -0.835663 0
M  V30 1701 C 155.36 1.78894 0.615928 0
M  V30 1702 O 154.703 1.1468 1.43506 0
M  V30 1703 C 154.765 3.39585 -1.17994 0
M  V30 1704 C 154.429 3.7342 -2.63451 0
M  V30 1705 C 155.426 3.73454 -3.61702 0
M  V30 1706 C 153.111 4.03368 -2.99332 0
M  V30 1707 C 155.105 4.02961 -4.93864 0
M  V30 1708 C 152.792 4.32538 -4.31687 0
M  V30 1709 C 153.79 4.32318 -5.28763 0
M  V30 1710 O 153.478 4.6078 -6.58739 0
M  V30 1711 H 153.21 0.605307 -0.300965 0
M  V30 1712 H 155.764 1.45673 -1.44806 0
M  V30 1713 H 153.994 3.83315 -0.51055 0
M  V30 1714 H 155.683 3.9554 -0.911182 0
M  V30 1715 H 156.449 3.50403 -3.35325 0
M  V30 1716 H 152.328 4.02692 -2.24411 0
M  V30 1717 H 155.872 4.02704 -5.69627 0
M  V30 1718 H 151.769 4.55059 -4.57812 0
M  V30 1719 H 152.537 4.78492 -6.64069 0
M  V30 1720 N 155.201 0.870884 1.31352 0
M  V30 1721 C 156.133 0.28455 2.27427 0
M  V30 1722 C 157.146 -0.552927 1.53123 0
M  V30 1723 O 158.335 -0.374771 1.74521 0
M  V30 1724 C 155.435 -0.615164 3.3327 0
M  V30 1725 C 154.608 0.190079 4.36987 0
M  V30 1726 C 153.667 -0.637917 5.22319 0
M  V30 1727 O 152.693 -0.065626 5.69162 0
M  V30 1728 N 153.895 -1.94973 5.46778 0
M  V30 1729 H 156.66 1.11017 2.7838 0
M  V30 1730 H 154.221 0.732458 1.44384 0
M  V30 1731 H 156.213 -1.1748 3.87273 0
M  V30 1732 H 154.783 -1.34146 2.82354 0
M  V30 1733 H 154.003 0.931165 3.83044 0
M  V30 1734 H 155.291 0.742579 5.03352 0
M  V30 1735 H 154.689 -2.4378 5.10478 0
M  V30 1736 H 153.246 -2.45713 6.03712 0
M  V30 1737 N 156.679 -1.44442 0.630414 0
M  V30 1738 C 158.09 -1.85434 0.217063 0
M  V30 1739 C 158.441 -1.52748 -1.23136 0
M  V30 1740 O 157.566 -0.965205 -1.93682 0
M  V30 1741 C 158.161 -3.36581 0.387168 0
M  V30 1742 C 156.72 -3.76389 0.0283297 0
M  V30 1743 C 155.867 -2.68296 0.700889 0
M  V30 1744 H 158.818 -1.34919 0.83562 0
M  V30 1745 H 158.839 -3.78657 -0.374086 0
M  V30 1746 H 158.351 -3.60339 1.44144 0
M  V30 1747 H 156.452 -3.58246 -1.02423 0
M  V30 1748 H 156.565 -4.77095 0.437892 0
M  V30 1749 H 154.929 -2.54335 0.136267 0
M  V30 1750 H 155.712 -2.94887 1.75774 0
M  V30 1751 N 158.157 -0.370918 -1.53173 0
M  V30 1752 C 159.434 0.273754 -1.93675 0
M  V30 1753 C 159.814 1.65938 -1.3049 0
M  V30 1754 O 159.162 2.23698 -0.465999 0
M  V30 1755 C 159.372 0.318602 -3.47543 0
M  V30 1756 C 160.72 0.556392 -4.20939 0
M  V30 1757 O 161.744 0.399587 -3.53952 0
M  V30 1758 O 160.603 0.862133 -5.39657 0
M  V30 1759 H 157.697 0.165448 -0.810281 0
M  V30 1760 H 160.243 -0.42409 -1.64315 0
M  V30 1761 H 159.015 -0.652687 -3.85818 0
M  V30 1762 H 158.638 1.06212 -3.83151 0
M  V30 1763 N 159.635 1.57281 -0.100228 0
M  V30 1764 C 160.881 1.95626 0.556946 0
M  V30 1765 C 161.236 0.981655 1.65473 0
M  V30 1766 O 160.529 0.00849847 1.91598 0
M  V30 1767 C 160.723 3.38305 1.15259 0
M  V30 1768 C 160.552 4.49555 0.114035 0
M  V30 1769 C 159.322 5.0434 -0.311266 0
M  V30 1770 C 161.52 5.10051 -0.659768 0
M  V30 1771 N 159.502 5.99152 -1.33755 0
M  V30 1772 C 160.873 6.00628 -1.53774 0
M  V30 1773 C 162.928 4.92772 -0.712723 0
M  V30 1774 C 161.631 6.7578 -2.46403 0
M  V30 1775 C 163.657 5.6859 -1.62663 0
M  V30 1776 C 163.019 6.58838 -2.49222 0
M  V30 1777 H 159.118 0.7624 0.173982 0
M  V30 1778 H 161.702 1.93829 -0.183988 0
M  V30 1779 H 159.873 3.40786 1.86332 0
M  V30 1780 H 161.605 3.63817 1.77254 0
M  V30 1781 H 158.36 4.73537 0.0774812 0
M  V30 1782 H 158.784 6.5126 -1.84905 0
M  V30 1783 H 163.426 4.22761 -0.0576648 0
M  V30 1784 H 161.144 7.4505 -3.12931 0
M  V30 1785 H 164.73 5.57233 -1.67281 0
M  V30 1786 H 163.61 7.16479 -3.18791 0
M  V30 1787 N 161.113 -0.173488 1.56642 0
M  V30 1788 C 162.529 -0.525174 1.50712 0
M  V30 1789 C 162.729 -1.8476 0.804107 0
M  V30 1790 O 161.785 -2.49869 0.363574 0
M  V30 1791 C 163.098 -0.559937 2.95441 0
M  V30 1792 C 164.646 -0.647288 3.06234 0
M  V30 1793 C 165.121 -0.712963 4.52417 0
M  V30 1794 N 166.612 -0.775911 4.56655 0
M  V30 1795 C 167.347 -0.847264 5.67106 0
M  V30 1796 N 166.843 -0.879585 6.87194 0
M  V30 1797 N 168.636 -0.886117 5.55071 0
M  V30 1798 H 160.787 0.693681 2.00753 0
M  V30 1799 H 163.05 0.249841 0.914485 0
M  V30 1800 H 162.756 0.343049 3.50023 0
M  V30 1801 H 162.63 -1.40718 3.49969 0
M  V30 1802 H 165.017 -1.5407 2.51687 0
M  V30 1803 H 165.098 0.226586 2.54794 0
M  V30 1804 H 164.742 0.176183 5.07594 0
M  V30 1805 H 164.672 -1.60295 5.0161 0
M  V30 1806 H 167.163 -0.759304 3.70193 0
M  V30 1807 H 167.476 -0.935144 7.67121 0
M  V30 1808 H 165.821 -0.847898 6.89808 0
M  V30 1809 H 169.012 -0.857853 4.60172 0
M  V30 1810 H 169.185 -0.938263 6.41171 0
M  V30 1811 N 162.591 -1.51276 -0.441967 0
M  V30 1812 C 163.838 -1.63715 -1.19179 0
M  V30 1813 C 164.166 -0.351175 -1.91303 0
M  V30 1814 O 163.421 0.664524 -1.84072 0
M  V30 1815 C 163.72 -2.78746 -2.23686 0
M  V30 1816 C 163.386 -4.18189 -1.68607 0
M  V30 1817 C 162.048 -4.56125 -1.53308 0
M  V30 1818 C 164.4 -5.05222 -1.28062 0
M  V30 1819 C 161.728 -5.78804 -0.959317 0
M  V30 1820 C 164.08 -6.28476 -0.721162 0
M  V30 1821 C 162.744 -6.65188 -0.55504 0
M  V30 1822 H 162.014 -0.599076 -0.436106 0
M  V30 1823 H 164.661 -1.85296 -0.48351 0
M  V30 1824 H 162.966 -2.51369 -3.00535 0
M  V30 1825 H 164.663 -2.8557 -2.81515 0
M  V30 1826 H 161.253 -3.88277 -1.8149 0
M  V30 1827 H 165.437 -4.76524 -1.38704 0
M  V30 1828 H 160.693 -6.05899 -0.81833 0
M  V30 1829 H 164.867 -6.95259 -0.398458 0
M  V30 1830 H 162.494 -7.60123 -0.108311 0
M  V30 1831 N 164.069 0.697108 -1.41344 0
M  V30 1832 C 165.002 1.82134 -1.37486 0
M  V30 1833 C 165.98 1.60784 -0.242351 0
M  V30 1834 O 167.164 1.83553 -0.429012 0
M  V30 1835 C 164.291 3.18788 -1.14421 0
M  V30 1836 C 163.337 3.58932 -2.3037 0
M  V30 1837 S 164.17 3.63916 -3.92843 0
M  V30 1838 C 165.326 5.03298 -3.72078 0
M  V30 1839 H 165.559 1.85129 -2.32625 0
M  V30 1840 H 163.092 0.865671 -1.2785 0
M  V30 1841 H 165.05 3.97677 -1.018 0
M  V30 1842 H 163.711 3.13404 -0.20905 0
M  V30 1843 H 162.904 4.58202 -2.09922 0
M  V30 1844 H 162.506 2.87347 -2.39391 0
M  V30 1845 H 164.798 5.90753 -3.31688 0
M  V30 1846 H 165.741 5.28788 -4.70945 0
M  V30 1847 H 166.149 4.74764 -3.05384 0
M  V30 1848 N 165.547 1.27147 0.931209 0
M  V30 1849 C 166.457 1.11372 2.06478 0
M  V30 1850 C 167.473 0.044645 1.73943 0
M  V30 1851 O 168.649 0.250417 1.99837 0
M  V30 1852 C 165.714 0.758838 3.38294 0
M  V30 1853 C 164.775 1.90841 3.84549 0
M  V30 1854 C 164.008 1.57036 5.10074 0
M  V30 1855 O 164.231 0.476645 5.68405 0
M  V30 1856 O 163.165 2.40839 5.51616 0
M  V30 1857 H 166.991 2.06493 2.22698 0
M  V30 1858 H 164.576 1.06301 1.04978 0
M  V30 1859 H 166.458 0.574098 4.17471 0
M  V30 1860 H 165.133 -0.162879 3.2329 0
M  V30 1861 H 164.04 2.14819 3.06274 0
M  V30 1862 H 165.373 2.81021 4.04089 0
M  V30 1863 N 167.025 -1.13721 1.09112 0
M  V30 1864 C 168.25 -1.89314 0.847053 0
M  V30 1865 C 168.675 -1.78416 -0.595774 0
M  V30 1866 O 168.033 -1.12942 -1.41823 0
M  V30 1867 C 168.081 -3.3701 1.28284 0
M  V30 1868 O 167.185 -4.10054 0.439267 0
M  V30 1869 H 166.526 -0.588745 0.307044 0
M  V30 1870 H 169.056 -1.43902 1.45442 0
M  V30 1871 H 169.066 -3.87834 1.26683 0
M  V30 1872 H 167.741 -3.4426 2.33363 0
M  V30 1873 H 166.318 -3.69266 0.519312 0
M  V30 1874 N 168.503 -0.877838 -1.30888 0
M  V30 1875 C 169.45 -0.337538 -2.28318 0
M  V30 1876 C 170.42 0.568346 -1.56074 0
M  V30 1877 O 171.605 0.498298 -1.84178 0
M  V30 1878 C 168.745 0.448142 -3.42178 0
M  V30 1879 C 167.858 -0.48615 -4.29256 0
M  V30 1880 C 166.993 0.314427 -5.30269 0
M  V30 1881 C 166.032 -0.615791 -6.08995 0
M  V30 1882 N 165.169 0.14902 -7.01942 0
M  V30 1883 H 170.009 -1.17356 -2.73919 0
M  V30 1884 H 167.546 -0.590094 -1.34745 0
M  V30 1885 H 169.504 0.919517 -4.06941 0
M  V30 1886 H 168.134 1.24879 -2.97666 0
M  V30 1887 H 167.186 -1.076 -3.64865 0
M  V30 1888 H 168.498 -1.19909 -4.84173 0
M  V30 1889 H 167.652 0.847969 -6.00745 0
M  V30 1890 H 166.391 1.06062 -4.76027 0
M  V30 1891 H 165.396 -1.16102 -5.37401 0
M  V30 1892 H 166.621 -1.36097 -6.65323 0
M  V30 1893 H 164.567 0.877884 -6.50099 0
M  V30 1894 H 164.484 -0.504433 -7.54315 0
M  V30 1895 H 165.752 0.663537 -7.76671 0
M  V30 1896 N 169.982 1.44106 -0.638065 0
M  V30 1897 C 170.892 2.34513 0.0637334 0
M  V30 1898 C 171.908 1.53018 0.828346 0
M  V30 1899 O 173.084 1.85723 0.779036 0
M  V30 1900 C 170.149 3.31095 1.02844 0
M  V30 1901 C 169.21 4.28497 0.26244 0
M  V30 1902 C 168.443 5.20465 1.1812 0
M  V30 1903 O 168.666 5.16514 2.42011 0
M  V30 1904 O 167.6 5.98251 0.661774 0
M  V30 1905 H 171.426 2.95989 -0.68003 0
M  V30 1906 H 169.011 1.43994 -0.398252 0
M  V30 1907 H 170.893 3.90526 1.58327 0
M  V30 1908 H 169.568 2.72144 1.7527 0
M  V30 1909 H 168.475 3.72592 -0.335602 0
M  V30 1910 H 169.808 4.90388 -0.421936 0
M  V30 1911 N 171.46 0.379036 1.52974 0
M  V30 1912 C 172.407 -0.461048 2.26148 0
M  V30 1913 C 173.377 -1.06637 1.27349 0
M  V30 1914 O 174.562 -1.09633 1.56157 0
M  V30 1915 C 171.702 -1.58782 3.06402 0
M  V30 1916 C 170.815 -1.00636 4.20115 0
M  V30 1917 C 169.95 -2.10334 4.87784 0
M  V30 1918 C 168.989 -1.49724 5.93506 0
M  V30 1919 N 168.126 -2.5331 6.54812 0
M  V30 1920 H 172.966 0.169429 2.97518 0
M  V30 1921 H 170.503 0.0953806 1.4679 0
M  V30 1922 H 172.461 -2.25174 3.51215 0
M  V30 1923 H 171.091 -2.18876 2.37261 0
M  V30 1924 H 170.143 -0.232332 3.7969 0
M  V30 1925 H 171.455 -0.523343 4.96047 0
M  V30 1926 H 170.609 -2.84519 5.35849 0
M  V30 1927 H 169.348 -2.61992 4.11353 0
M  V30 1928 H 168.353 -0.740598 5.44789 0
M  V30 1929 H 169.578 -0.988732 6.71864 0
M  V30 1930 H 167.524 -3.04156 5.81227 0
M  V30 1931 H 167.441 -2.09734 7.26325 0
M  V30 1932 H 168.709 -3.27155 7.07524 0
M  V30 1933 N 172.938 -1.57226 0.108567 0
M  V30 1934 C 174.215 -1.86333 -0.594939 0
M  V30 1935 C 174.595 -1.00788 -1.85486 0
M  V30 1936 O 173.943 -0.0839293 -2.28346 0
M  V30 1937 C 174.153 -3.37265 -0.897405 0
M  V30 1938 C 175.501 -4.05629 -1.25501 0
M  V30 1939 O 176.525 -3.42224 -0.987998 0
M  V30 1940 O 175.384 -5.17531 -1.75567 0
M  V30 1941 H 172.478 -0.771018 -0.2991 0
M  V30 1942 H 175.024 -1.69102 0.142283 0
M  V30 1943 H 173.796 -3.913 -0.00413806 0
M  V30 1944 H 173.419 -3.59889 -1.69014 0
M  V30 1945 N 174.416 0.165178 -1.56732 0
M  V30 1946 C 175.832 0.517174 -1.50988 0
M  V30 1947 C 176.032 1.84331 -0.813894 0
M  V30 1948 O 175.088 2.49672 -0.37682 0
M  V30 1949 C 176.401 0.544261 -2.95733 0
M  V30 1950 C 177.949 0.631039 -3.06573 0
M  V30 1951 C 178.424 0.68896 -4.52788 0
M  V30 1952 N 179.915 0.751683 -4.5706 0
M  V30 1953 C 180.65 0.817177 -5.67547 0
M  V30 1954 N 180.146 0.843129 -6.8765 0
M  V30 1955 N 181.939 0.856668 -5.55534 0
M  V30 1956 H 174.09 -0.704318 -2.00382 0
M  V30 1957 H 176.353 -0.254687 -0.913148 0
M  V30 1958 H 176.059 -0.361607 -3.49836 0
M  V30 1959 H 175.933 1.3886 -3.5071 0
M  V30 1960 H 178.32 1.52733 -2.52501 0
M  V30 1961 H 178.401 -0.240095 -2.54671 0
M  V30 1962 H 178.045 -0.2031 -5.07494 0
M  V30 1963 H 177.975 1.57633 -5.02454 0
M  V30 1964 H 180.466 0.739661 -3.70591 0
M  V30 1965 H 180.779 0.894448 -7.67606 0
M  V30 1966 H 179.124 0.811304 -6.90248 0
M  V30 1967 H 182.315 0.833437 -4.60621 0
M  V30 1968 H 182.488 0.904247 -6.4166 0
M  V30 1969 N 175.894 1.51508 0.433938 0
M  V30 1970 C 176.826 1.69266 1.54537 0
M  V30 1971 C 177.839 0.573276 1.52373 0
M  V30 1972 O 179.028 0.847698 1.57087 0
M  V30 1973 C 176.128 1.69524 2.93453 0
M  V30 1974 C 175.301 2.98101 3.20085 0
M  V30 1975 C 174.36 2.90502 4.38742 0
M  V30 1976 O 173.386 3.64442 4.3723 0
M  V30 1977 N 174.588 2.06586 5.42496 0
M  V30 1978 H 177.353 2.65145 1.39708 0
M  V30 1979 H 174.914 1.49437 0.622922 0
M  V30 1980 H 176.906 1.62004 3.70859 0
M  V30 1981 H 175.476 0.812245 3.01863 0
M  V30 1982 H 174.696 3.19464 2.30947 0
M  V30 1983 H 175.984 3.83207 3.34708 0
M  V30 1984 H 175.382 1.45896 5.46563 0
M  V30 1985 H 173.939 2.04943 6.18742 0
M  V30 1986 N 177.372 -0.689602 1.41712 0
M  V30 1987 C 178.618 -1.45181 1.41599 0
M  V30 1988 C 178.951 -1.94181 0.0270081 0
M  V30 1989 O 178.226 -1.6993 -0.946265 0
M  V30 1990 C 178.509 -2.65945 2.42787 0
M  V30 1991 C 178.362 -2.22672 3.90816 0
M  V30 1992 C 179.681 -3.68149 2.41151 0
M  V30 1993 H 176.8 -0.526576 0.515642 0
M  V30 1994 H 179.442 -0.784947 1.73028 0
M  V30 1995 H 177.592 -3.2284 2.16116 0
M  V30 1996 H 179.264 -1.71058 4.28412 0
M  V30 1997 H 177.507 -1.54394 4.05395 0
M  V30 1998 H 178.178 -3.0935 4.57172 0
M  V30 1999 H 180.654 -3.2094 2.64834 0
M  V30 2000 H 179.53 -4.50248 3.13955 0
M  V30 2001 H 179.791 -4.18259 1.43221 0
M  V30 2002 N 178.85 -1.27639 -0.924453 0
M  V30 2003 C 179.78 -1.13166 -2.04244 0
M  V30 2004 C 180.761 -0.032256 -1.70069 0
M  V30 2005 O 181.946 -0.207328 -1.9309 0
M  V30 2006 C 179.076 -0.781496 -3.38393 0
M  V30 2007 C 178.03 -1.83449 -3.86692 0
M  V30 2008 C 177.356 -1.33822 -5.17683 0
M  V30 2009 C 178.656 -3.23917 -4.09726 0
M  V30 2010 H 180.35 -2.06689 -2.1661 0
M  V30 2011 H 177.896 -0.995136 -1.04082 0
M  V30 2012 H 179.849 -0.667057 -4.16087 0
M  V30 2013 H 178.573 0.189439 -3.2605 0
M  V30 2014 H 177.232 -1.93789 -3.11193 0
M  V30 2015 H 176.88 -0.35665 -5.01734 0
M  V30 2016 H 176.58 -2.04224 -5.50968 0
M  V30 2017 H 178.104 -1.23679 -5.97943 0
M  V30 2018 H 179.518 -3.16559 -4.77978 0
M  V30 2019 H 177.915 -3.92059 -4.54324 0
M  V30 2020 H 178.985 -3.68729 -3.14908 0
M  V30 2021 N 180.328 1.1314 -1.09713 0
M  V30 2022 C 181.238 2.22242 -0.751367 0
M  V30 2023 C 182.254 1.72224 0.247938 0
M  V30 2024 O 183.43 2.01205 0.0885463 0
M  V30 2025 C 180.495 3.46231 -0.180274 0
M  V30 2026 C 179.556 4.11125 -1.2359 0
M  V30 2027 C 178.789 5.29195 -0.691966 0
M  V30 2028 O 179.012 5.68342 0.48414 0
M  V30 2029 O 177.946 5.84214 -1.44838 0
M  V30 2030 H 181.772 2.54197 -1.66186 0
M  V30 2031 H 179.357 1.21331 -0.871735 0
M  V30 2032 H 181.239 4.21185 0.134739 0
M  V30 2033 H 179.914 3.1597 0.703185 0
M  V30 2034 H 178.821 3.37985 -1.60366 0
M  V30 2035 H 180.154 4.45524 -2.09211 0
M  V30 2036 N 181.806 0.884767 1.30421 0
M  V30 2037 C 183.083 0.423185 1.90967 0
M  V30 2038 C 183.463 -1.09605 1.80416 0
M  V30 2039 O 182.811 -1.93126 1.22125 0
M  V30 2040 C 183.021 0.921056 3.36627 0
M  V30 2041 C 184.369 0.955903 4.137 0
M  V30 2042 O 185.393 0.867706 3.4547 0
M  V30 2043 O 184.252 1.08614 5.35598 0
M  V30 2044 H 181.346 0.129369 0.816819 0
M  V30 2045 H 183.892 0.973653 1.3899 0
M  V30 2046 H 182.664 1.96489 3.3839 0
M  V30 2047 H 182.287 0.349741 3.96059 0
M  V30 2048 N 183.284 -1.43765 0.645699 0
M  V30 2049 C 184.531 -2.01898 0.15604 0
M  V30 2050 C 184.859 -1.50887 -1.22733 0
M  V30 2051 O 184.114 -0.689271 -1.8316 0
M  V30 2052 C 184.413 -3.57238 0.107679 0
M  V30 2053 C 184.079 -4.27564 1.43178 0
M  V30 2054 C 182.741 -4.46492 1.7944 0
M  V30 2055 C 185.093 -4.67454 2.30513 0
M  V30 2056 C 182.421 -5.02573 3.02716 0
M  V30 2057 C 184.773 -5.24901 3.53074 0
M  V30 2058 C 183.437 -5.42046 3.89541 0
M  V30 2059 H 182.707 -0.738797 0.057099 0
M  V30 2060 H 185.354 -1.72341 0.834912 0
M  V30 2061 H 183.659 -3.86293 -0.654618 0
M  V30 2062 H 185.356 -3.99965 -0.287938 0
M  V30 2063 H 181.946 -4.13171 1.13963 0
M  V30 2064 H 186.13 -4.5253 2.0379 0
M  V30 2065 H 181.386 -5.14033 3.31028 0
M  V30 2066 H 185.56 -5.54758 4.20971 0
M  V30 2067 H 183.187 -5.85268 4.85145 0
M  V30 2068 N 184.763 -0.387143 -1.52771 0
M  V30 2069 C 186.174 0.0873634 -1.86495 0
M  V30 2070 C 186.525 1.46336 -1.30691 0
M  V30 2071 O 185.65 2.068 -0.637409 0
M  V30 2072 C 186.245 0.165305 -3.38396 0
M  V30 2073 C 184.804 0.584101 -3.7184 0
M  V30 2074 C 183.951 -0.255279 -2.76122 0
M  V30 2075 H 186.902 -0.605104 -1.46711 0
M  V30 2076 H 186.923 0.984848 -3.67534 0
M  V30 2077 H 186.435 -0.836301 -3.78982 0
M  V30 2078 H 184.536 1.59315 -3.36823 0
M  V30 2079 H 184.649 0.343749 -4.77865 0
M  V30 2080 H 183.013 0.279126 -2.53166 0
M  V30 2081 H 183.796 -1.25482 -3.19545 0
M  V30 2082 N 186.241 1.57166 -0.116904 0
M  V30 2083 C 187.469 1.99473 0.549383 0
M  V30 2084 C 187.884 0.996541 1.60357 0
M  V30 2085 O 187.241 -0.0108731 1.82497 0
M  V30 2086 C 187.292 3.41788 1.17741 0
M  V30 2087 O 187.013 4.37788 0.165362 0
M  V30 2088 C 188.514 3.99216 1.92722 0
M  V30 2089 H 185.734 0.655009 0.145616 0
M  V30 2090 H 188.278 2.03494 -0.202625 0
M  V30 2091 H 186.433 3.38713 1.88021 0
M  V30 2092 H 186.847 5.20806 0.621403 0
M  V30 2093 H 188.321 5.00882 2.31995 0
M  V30 2094 H 188.798 3.3824 2.80161 0
M  V30 2095 H 189.404 4.0583 1.27209 0
M  V30 2096 N 187.719 -0.156864 1.56817 0
M  V30 2097 C 188.968 -0.869504 1.81996 0
M  V30 2098 C 189.281 -1.82777 0.696545 0
M  V30 2099 O 190.487 -2.58384 0.833658 0
M  V30 2100 C 188.943 -1.59679 3.22538 0
M  V30 2101 C 188.551 -0.681431 4.42787 0
M  V30 2102 C 190.295 -2.2968 3.56997 0
M  V30 2103 C 188.202 -1.40978 5.74351 0
M  V30 2104 H 187.132 -0.328438 0.678708 0
M  V30 2105 H 189.783 -0.1223 1.83092 0
M  V30 2106 H 188.165 -2.38927 3.158 0
M  V30 2107 H 189.339 0.0751166 4.60739 0
M  V30 2108 H 187.654 -0.0903431 4.16302 0
M  V30 2109 H 190.251 -2.84794 4.52544 0
M  V30 2110 H 190.594 -3.05707 2.82576 0
M  V30 2111 H 191.127 -1.57361 3.65352 0
M  V30 2112 H 187.866 -0.691561 6.51842 0
M  V30 2113 H 187.386 -2.13929 5.60352 0
M  V30 2114 H 189.065 -1.95337 6.16808 0
M  V30 2115 N 189.197 -1.51736 -0.425897 0
M  V30 2116 C 190.422 -1.69082 -1.20108 0
M  V30 2117 C 190.847 -0.392398 -1.83962 0
M  V30 2118 O 190.205 0.64858 -1.69302 0
M  V30 2119 C 190.253 -2.81604 -2.25237 0
M  V30 2120 O 189.357 -2.46004 -3.30992 0
M  V30 2121 H 188.698 -0.563408 -0.35138 0
M  V30 2122 H 191.228 -1.98358 -0.501512 0
M  V30 2123 H 191.238 -3.06025 -2.69838 0
M  V30 2124 H 189.913 -3.75817 -1.78142 0
M  V30 2125 H 188.49 -2.32195 -2.91787 0
M  V30 2126 N 190.675 0.682077 -1.42076 0
M  V30 2127 C 191.605 1.80796 -1.47767 0
M  V30 2128 C 192.586 1.6677 -0.334954 0
M  V30 2129 O 193.771 1.863 -0.548264 0
M  V30 2130 C 190.901 3.19038 -1.37229 0
M  V30 2131 C 189.855 3.47789 -2.49453 0
M  V30 2132 C 189.181 4.8553 -2.23975 0
M  V30 2133 C 190.481 3.45411 -3.91776 0
M  V30 2134 H 192.175 1.7629 -2.41997 0
M  V30 2135 H 189.721 0.846721 -1.16476 0
M  V30 2136 H 191.674 3.97528 -1.39821 0
M  V30 2137 H 190.398 3.24204 -0.394907 0
M  V30 2138 H 189.057 2.71657 -2.46166 0
M  V30 2139 H 188.705 4.87337 -1.24547 0
M  V30 2140 H 188.405 5.0573 -2.99184 0
M  V30 2141 H 189.929 5.66312 -2.28304 0
M  V30 2142 H 191.343 4.13882 -3.96705 0
M  V30 2143 H 189.74 3.77145 -4.66778 0
M  V30 2144 H 190.81 2.44122 -4.18966 0
M  V30 2145 N 192.153 1.28127 0.917671 0
M  V30 2146 C 193.063 1.13556 2.05286 0
M  V30 2147 C 194.079 0.0630914 1.73886 0
M  V30 2148 O 195.255 0.271598 1.9956 0
M  V30 2149 C 192.32 0.794676 3.3747 0
M  V30 2150 C 191.381 1.94909 3.82504 0
M  V30 2151 C 190.614 1.62437 5.0838 0
M  V30 2152 O 190.837 0.536905 5.67867 0
M  V30 2153 O 189.771 2.46677 5.4903 0
M  V30 2154 H 193.597 2.08844 2.20495 0
M  V30 2155 H 191.182 1.07409 1.03845 0
M  V30 2156 H 193.064 0.618344 4.16839 0
M  V30 2157 H 191.739 -0.128581 3.23445 0
M  V30 2158 H 190.646 2.18055 3.03978 0
M  V30 2159 H 191.979 2.85291 4.01086 0
M  V30 2160 N 193.631 -1.12557 1.10312 0
M  V30 2161 C 194.878 -1.84038 0.844759 0
M  V30 2162 C 195.206 -1.84026 -0.629668 0
M  V30 2163 O 194.461 -1.28026 -1.48013 0
M  V30 2164 C 194.76 -3.31462 1.33669 0
M  V30 2165 C 194.426 -3.51647 2.82232 0
M  V30 2166 C 193.088 -3.56864 3.22802 0
M  V30 2167 C 195.44 -3.58867 3.77974 0
M  V30 2168 C 192.768 -3.66844 4.57867 0
M  V30 2169 C 195.12 -3.70375 5.1284 0
M  V30 2170 C 193.784 -3.73848 5.52986 0
M  V30 2171 H 193.054 -0.673444 0.309119 0
M  V30 2172 H 195.701 -1.32824 1.37949 0
M  V30 2173 H 194.006 -3.85091 0.721949 0
M  V30 2174 H 195.703 -3.85236 1.11329 0
M  V30 2175 H 192.293 -3.48249 2.49842 0
M  V30 2176 H 196.477 -3.54107 3.47738 0
M  V30 2177 H 191.733 -3.67804 4.88396 0
M  V30 2178 H 195.907 -3.74904 5.86873 0
M  V30 2179 H 193.534 -3.81333 6.57639 0
M  V30 2180 N 195.109 -0.891671 -1.2995 0
M  V30 2181 C 196.525 -0.58662 -1.48428 0
M  V30 2182 C 196.725 0.873951 -1.81561 0
M  V30 2183 O 195.781 1.65471 -1.90724 0
M  V30 2184 C 197.094 -1.50553 -2.60296 0
M  V30 2185 C 198.642 -1.50988 -2.74175 0
M  V30 2186 C 199.117 -2.41488 -3.89163 0
M  V30 2187 N 200.608 -2.39489 -3.96483 0
M  V30 2188 C 201.343 -3.06223 -4.84784 0
M  V30 2189 N 200.839 -3.82206 -5.77833 0
M  V30 2190 N 202.632 -2.95421 -4.78208 0
M  V30 2191 H 194.783 -1.83644 -1.06718 0
M  V30 2192 H 197.046 -0.786455 -0.529332 0
M  V30 2193 H 196.752 -2.54581 -2.42654 0
M  V30 2194 H 196.626 -1.22008 -3.56923 0
M  V30 2195 H 199.013 -0.47708 -2.91218 0
M  V30 2196 H 199.094 -1.83567 -1.78148 0
M  V30 2197 H 198.738 -3.44857 -3.72876 0
M  V30 2198 H 198.668 -2.06222 -4.84541 0
M  V30 2199 H 201.159 -1.84278 -3.29924 0
M  V30 2200 H 201.472 -4.302 -6.41988 0
M  V30 2201 H 199.817 -3.86313 -5.77743 0
M  V30 2202 H 203.008 -2.35581 -4.04499 0
M  V30 2203 H 203.181 -3.47704 -5.46814 0
M  V30 2204 N 196.587 1.43421 -0.653314 0
M  V30 2205 C 197.535 2.32546 0.0501531 0
M  V30 2206 C 198.529 1.48617 0.812985 0
M  V30 2207 O 199.735 1.64825 0.723375 0
M  V30 2208 H 196.11 0.751185 0.0350032 0
M  V30 2209 H 198.081 2.89602 -0.719261 0
M  V30 2210 C 196.83 3.32925 1.00279 0
M  V30 2211 H 196.153 3.97532 0.425236 0
M  V30 2212 H 197.593 3.9792 1.46409 0
M  V30 2213 C 196.052 2.63532 2.09886 0
M  V30 2214 O 196.582 2.45092 3.18265 0
M  V30 2215 N 194.788 2.22905 1.86445 0
M  V30 2216 H 194.335 2.38103 0.98309 0
M  V30 2217 H 194.293 1.76805 2.59976 0
M  V30 2218 N 198.065 0.39524 1.52563 0
M  V30 2219 C 198.995 -0.428384 2.29537 0
M  V30 2220 C 199.976 -1.05831 1.33169 0
M  V30 2221 O 201.161 -1.06995 1.62067 0
M  V30 2222 C 198.291 -1.55274 3.10656 0
M  V30 2223 C 197.245 -1.04855 4.14957 0
M  V30 2224 C 196.571 -2.26543 4.84337 0
M  V30 2225 C 197.871 -0.112324 5.22179 0
M  V30 2226 H 199.565 0.213867 2.98635 0
M  V30 2227 H 197.111 0.104298 1.43622 0
M  V30 2228 H 199.064 -2.1358 3.63265 0
M  V30 2229 H 197.788 -2.22266 2.39302 0
M  V30 2230 H 196.447 -0.487985 3.63338 0
M  V30 2231 H 196.095 -2.92059 4.09525 0
M  V30 2232 H 195.795 -1.93466 5.54837 0
M  V30 2233 H 197.319 -2.85481 5.39753 0
M  V30 2234 H 198.733 -0.603752 5.70112 0
M  V30 2235 H 197.13 0.128968 5.99961 0
M  V30 2236 H 198.2 0.837052 4.77621 0
M  V30 2237 N 199.544 -1.57102 0.125237 0
M  V30 2238 C 200.507 -2.14471 -0.80838 0
M  V30 2239 C 201.507 -1.0811 -1.19033 0
M  V30 2240 O 202.697 -1.33856 -1.11482 0
M  V30 2241 C 199.829 -2.69005 -2.09402 0
M  V30 2242 H 201.022 -2.98297 -0.309696 0
M  V30 2243 H 198.575 -1.55807 -0.124051 0
M  V30 2244 H 199.31 -1.88785 -2.63687 0
M  V30 2245 H 199.095 -3.46799 -1.82957 0
M  V30 2246 H 200.585 -3.13278 -2.76128 0
M  V30 2247 N 201.022 0.148545 -1.56898 0
M  V30 2248 C 201.932 1.20293 -2.01412 0
M  V30 2249 C 202.948 1.47107 -0.929273 0
M  V30 2250 O 204.124 1.58807 -1.23863 0
M  V30 2251 C 201.189 2.51682 -2.38447 0
M  V30 2252 C 200.25 2.32529 -3.60872 0
M  V30 2253 C 199.483 3.57653 -3.96132 0
M  V30 2254 O 199.706 4.63771 -3.32073 0
M  V30 2255 O 198.64 3.50408 -4.89385 0
M  V30 2256 H 202.466 0.855025 -2.91416 0
M  V30 2257 H 200.051 0.357151 -1.45068 0
M  V30 2258 H 201.933 3.29147 -2.63135 0
M  V30 2259 H 200.608 2.86006 -1.51599 0
M  V30 2260 H 199.515 1.53019 -3.41373 0
M  V30 2261 H 200.848 2.03121 -4.48333 0
M  V30 2262 N 202.5 1.5196 0.417844 0
M  V30 2263 C 203.447 1.74678 1.50852 0
M  V30 2264 C 204.417 0.588947 1.55308 0
M  V30 2265 O 205.602 0.825544 1.72016 0
M  V30 2266 C 202.742 1.89544 2.88387 0
M  V30 2267 C 201.855 3.17166 2.93309 0
M  V30 2268 C 200.99 3.22513 4.22088 0
M  V30 2269 C 200.029 4.44372 4.20951 0
M  V30 2270 N 199.166 4.47161 5.41287 0
M  V30 2271 H 204.006 2.67768 1.30783 0
M  V30 2272 H 201.543 1.32689 0.63498 0
M  V30 2273 H 203.501 1.96146 3.68216 0
M  V30 2274 H 202.131 0.998424 3.06971 0
M  V30 2275 H 201.183 3.19778 2.06024 0
M  V30 2276 H 202.495 4.07021 2.88332 0
M  V30 2277 H 201.649 3.28139 5.10303 0
M  V30 2278 H 200.388 2.30581 4.29748 0
M  V30 2279 H 199.393 4.38902 3.31127 0
M  V30 2280 H 200.618 5.3759 4.14938 0
M  V30 2281 H 198.564 3.58108 5.49632 0
M  V30 2282 H 198.481 5.3085 5.3827 0
M  V30 2283 H 199.749 4.57005 6.3148 0
M  V30 2284 N 203.978 -0.674533 1.42435 0
M  V30 2285 C 205.208 -1.46071 1.46105 0
M  V30 2286 C 205.616 -1.89067 0.0709605 0
M  V30 2287 O 204.959 -1.58731 -0.924677 0
M  V30 2288 C 205.021 -2.74145 2.32561 0
M  V30 2289 C 204.685 -2.53224 3.8043 0
M  V30 2290 C 205.682 -2.17809 4.72075 0
M  V30 2291 C 203.367 -2.6821 4.24698 0
M  V30 2292 C 205.361 -1.97648 6.05982 0
M  V30 2293 C 203.048 -2.47665 5.58664 0
M  V30 2294 C 204.046 -2.12437 6.49122 0
M  V30 2295 O 203.734 -1.9209 7.80613 0
M  V30 2296 H 203.466 -0.455959 0.499076 0
M  V30 2297 H 206.02 -0.836193 1.87609 0
M  V30 2298 H 204.25 -3.3908 1.85908 0
M  V30 2299 H 205.939 -3.36028 2.27683 0
M  V30 2300 H 206.705 -2.05826 4.39159 0
M  V30 2301 H 202.584 -2.94609 3.54579 0
M  V30 2302 H 206.128 -1.70075 6.7655 0
M  V30 2303 H 202.025 -2.59244 5.91154 0
M  V30 2304 H 202.793 -2.06686 7.91974 0
M  V30 2305 N 205.456 -1.28612 -0.910864 0
M  V30 2306 C 206.388 -1.08589 -2.01844 0
M  V30 2307 C 207.401 -0.0367419 -1.62759 0
M  V30 2308 O 208.59 -0.280101 -1.76289 0
M  V30 2309 C 205.69 -0.628626 -3.33019 0
M  V30 2310 C 204.863 -1.75382 -4.00699 0
M  V30 2311 C 203.922 -1.28945 -5.10156 0
M  V30 2312 O 202.948 -1.9922 -5.33198 0
M  V30 2313 N 204.15 -0.154224 -5.80295 0
M  V30 2314 H 206.915 -2.03973 -2.19579 0
M  V30 2315 H 204.476 -1.20403 -1.08234 0
M  V30 2316 H 206.468 -0.301508 -4.03575 0
M  V30 2317 H 205.038 0.232451 -3.11735 0
M  V30 2318 H 204.258 -2.25039 -3.23653 0
M  V30 2319 H 205.546 -2.50854 -4.42662 0
M  V30 2320 H 204.944 0.43194 -5.64049 0
M  V30 2321 H 203.501 0.113599 -6.51701 0
M  V30 2322 N 206.934 1.1197 -1.10907 0
M  V30 2323 C 208.162 1.87402 -0.876824 0
M  V30 2324 C 208.577 1.79894 0.573025 0
M  V30 2325 O 207.934 1.17629 1.39534 0
M  V30 2326 C 207.985 3.36428 -1.32282 0
M  V30 2327 O 207.706 3.43765 -2.71582 0
M  V30 2328 C 209.207 4.28783 -1.12518 0
M  V30 2329 H 206.427 0.592793 -0.314384 0
M  V30 2330 H 208.971 1.41649 -1.47499 0
M  V30 2331 H 207.126 3.79706 -0.768229 0
M  V30 2332 H 207.54 4.3652 -2.90776 0
M  V30 2333 H 209.014 5.31613 -1.48633 0
M  V30 2334 H 209.491 4.39153 -0.0642394 0
M  V30 2335 H 210.097 3.91291 -1.66648 0
M  V30 2336 N 208.412 0.89855 1.29475 0
M  V30 2337 C 209.658 0.524658 1.95896 0
M  V30 2338 C 209.991 -0.926468 1.70676 0
M  V30 2339 O 209.266 -1.65665 1.01908 0
M  V30 2340 C 209.549 0.81633 3.50725 0
M  V30 2341 C 209.402 2.31907 3.85408 0
M  V30 2342 C 210.721 0.302038 4.39062 0
M  V30 2343 H 207.84 0.19209 0.711527 0
M  V30 2344 H 210.482 1.12502 1.53112 0
M  V30 2345 H 208.632 0.305369 3.87298 0
M  V30 2346 H 210.304 2.89949 3.58786 0
M  V30 2347 H 208.547 2.78027 3.32992 0
M  V30 2348 H 209.218 2.47373 4.93468 0
M  V30 2349 H 211.694 0.739551 4.09475 0
M  V30 2350 H 210.57 0.535331 5.46283 0
M  V30 2351 H 210.831 -0.797216 4.34853 0
M  V30 2352 N 209.89 -1.43072 0.660911 0
M  V30 2353 C 211.139 -2.00942 0.174735 0
M  V30 2354 C 211.452 -1.52797 -1.22117 0
M  V30 2355 O 212.658 -2.02991 -1.80297 0
M  V30 2356 C 211.114 -3.58948 0.261559 0
M  V30 2357 C 210.722 -4.16085 1.66064 0
M  V30 2358 C 212.466 -4.24173 -0.166617 0
M  V30 2359 C 210.373 -5.6641 1.70098 0
M  V30 2360 H 209.303 -0.751483 0.0615631 0
M  V30 2361 H 211.954 -1.63955 0.824069 0
M  V30 2362 H 210.336 -3.93372 -0.455421 0
M  V30 2363 H 211.51 -3.93147 2.40359 0
M  V30 2364 H 209.825 -3.6326 2.03546 0
M  V30 2365 H 212.422 -5.34471 -0.156433 0
M  V30 2366 H 212.765 -3.98647 -1.19943 0
M  V30 2367 H 213.298 -3.94659 0.498875 0
M  V30 2368 H 210.037 -5.96715 2.71315 0
M  V30 2369 H 209.557 -5.91382 1.00139 0
M  V30 2370 H 211.236 -6.30585 1.44816 0
M  V30 2371 N 211.368 -0.403325 -1.52352 0
M  V30 2372 C 212.331 0.413051 -2.25447 0
M  V30 2373 C 213.331 0.978513 -1.276 0
M  V30 2374 O 214.521 0.858305 -1.51587 0
M  V30 2375 C 211.653 1.58087 -3.02029 0
M  V30 2376 H 212.846 -0.227094 -2.99039 0
M  V30 2377 H 210.399 -0.155722 -1.55522 0
M  V30 2378 H 211.134 2.25804 -2.32772 0
M  V30 2379 H 210.919 1.18195 -3.73861 0
M  V30 2380 H 212.409 2.1585 -3.57489 0
M  V30 2381 N 212.846 1.57033 -0.133567 0
M  V30 2382 C 214.123 1.87256 0.56522 0
M  V30 2383 C 214.503 1.03726 1.83859 0
M  V30 2384 O 213.851 0.120247 2.28183 0
M  V30 2385 C 214.061 3.3865 0.843636 0
M  V30 2386 C 215.409 4.07574 1.19032 0
M  V30 2387 O 216.433 3.43752 0.933429 0
M  V30 2388 O 215.292 5.20259 1.67312 0
M  V30 2389 H 212.386 0.775678 0.286796 0
M  V30 2390 H 214.932 1.68855 -0.169168 0
M  V30 2391 H 213.704 3.91257 -0.0581149 0
M  V30 2392 H 213.327 3.62532 1.63268 0
M  V30 2393 N 214.325 -0.140222 1.56975 0
M  V30 2394 C 215.574 -0.850152 1.82908 0
M  V30 2395 C 215.887 -1.82028 0.715892 0
M  V30 2396 O 217.093 -2.57485 0.861016 0
M  V30 2397 C 215.549 -1.5625 3.24213 0
M  V30 2398 C 215.157 -0.63443 4.43485 0
M  V30 2399 C 216.901 -2.25881 3.59413 0
M  V30 2400 C 214.808 -1.34879 5.75814 0
M  V30 2401 H 213.738 -0.321221 0.682153 0
M  V30 2402 H 216.389 -0.102874 1.83211 0
M  V30 2403 H 214.771 -2.35565 3.18316 0
M  V30 2404 H 215.945 0.12398 4.60633 0
M  V30 2405 H 214.26 -0.0461836 4.16374 0
M  V30 2406 H 216.857 -2.79978 4.5554 0
M  V30 2407 H 217.2 -3.02693 2.85802 0
M  V30 2408 H 217.733 -1.53477 3.67001 0
M  V30 2409 H 214.472 -0.622385 6.52539 0
M  V30 2410 H 213.992 -2.07974 5.6259 0
M  V30 2411 H 215.671 -1.88784 6.18845 0
M  V30 2412 N 215.803 -1.52179 -0.40978 0
M  V30 2413 C 217.043 -1.67882 -1.16597 0
M  V30 2414 C 217.407 -0.399795 -1.87791 0
M  V30 2415 O 218.608 -0.43292 -2.65291 0
M  V30 2416 C 216.879 -2.86662 -2.13448 0
M  V30 2417 S 218.438 -3.22843 -2.97183 0
M  V30 2418 H 215.256 -0.59118 -0.395002 0
M  V30 2419 H 217.858 -1.9017 -0.453373 0
M  V30 2420 H 216.562 -3.77998 -1.59831 0
M  V30 2421 H 216.093 -2.66645 -2.89247 0
M  V30 2422 H 218.108 -2.71415 -4.15389 0
M  V30 2423 N 217.281 0.66697 -1.42791 0
M  V30 2424 C 218.697 0.981027 -1.25889 0
M  V30 2425 C 218.897 2.00793 -0.168695 0
M  V30 2426 O 217.953 2.48321 0.45747 0
M  V30 2427 C 219.266 1.47838 -2.61848 0
M  V30 2428 C 220.814 1.59575 -2.69267 0
M  V30 2429 C 221.289 2.12704 -4.05612 0
M  V30 2430 N 222.78 2.20026 -4.07606 0
M  V30 2431 C 223.515 2.62227 -5.09926 0
M  V30 2432 N 223.011 3.03824 -6.22626 0
M  V30 2433 N 224.804 2.62045 -4.97281 0
M  V30 2434 H 216.955 -0.0127891 -2.12396 0
M  V30 2435 H 219.218 0.0568258 -0.946295 0
M  V30 2436 H 218.924 0.798299 -3.4252 0
M  V30 2437 H 218.798 2.45579 -2.86305 0
M  V30 2438 H 221.185 2.26687 -1.88936 0
M  V30 2439 H 221.266 0.60302 -2.48591 0
M  V30 2440 H 220.91 1.46198 -4.86404 0
M  V30 2441 H 220.84 3.12782 -4.23645 0
M  V30 2442 H 223.331 1.90708 -3.2625 0
M  V30 2443 H 223.644 3.34734 -6.96544 0
M  V30 2444 H 221.989 3.01662 -6.26119 0
M  V30 2445 H 225.18 2.28916 -4.08308 0
M  V30 2446 H 225.353 2.94613 -5.77154 0
M  V30 2447 N 218.759 1.29093 0.90403 0
M  V30 2448 C 220.175 1.07011 1.1841 0
M  V30 2449 C 220.375 -0.181358 2.00682 0
M  V30 2450 O 219.431 -0.880331 2.36657 0
M  V30 2451 C 220.744 2.32311 1.90924 0
M  V30 2452 C 222.292 2.37587 2.03768 0
M  V30 2453 C 222.767 3.62679 2.79693 0
M  V30 2454 N 224.258 3.63376 2.87249 0
M  V30 2455 C 224.993 4.56848 3.46522 0
M  V30 2456 N 224.489 5.60648 4.06996 0
M  V30 2457 N 226.282 4.44426 3.44154 0
M  V30 2458 H 218.433 2.09412 0.354993 0
M  V30 2459 H 220.696 0.922181 0.219742 0
M  V30 2460 H 220.402 3.23536 1.37905 0
M  V30 2461 H 220.276 2.39483 2.91424 0
M  V30 2462 H 222.663 1.46853 2.55965 0
M  V30 2463 H 222.744 2.34403 1.02415 0
M  V30 2464 H 222.388 4.53762 2.28173 0
M  V30 2465 H 222.318 3.63119 3.81381 0
M  V30 2466 H 224.809 2.88321 2.44293 0
M  V30 2467 H 225.122 6.28101 4.50232 0
M  V30 2468 H 223.467 5.64463 4.05471 0
M  V30 2469 H 226.658 3.62529 2.96126 0
M  V30 2470 H 226.831 5.17457 3.90054 0
M  V30 2471 N 220.237 -1.11381 1.11499 0
M  V30 2472 C 221.17 -2.16621 0.71769 0
M  V30 2473 C 222.148 -1.60058 -0.286413 0
M  V30 2474 O 223.332 -1.87613 -0.182689 0
M  V30 2475 C 220.459 -3.38646 0.0607265 0
M  V30 2476 C 219.505 -4.13874 1.03008 0
M  V30 2477 S 220.338 -4.70731 2.55289 0
M  V30 2478 C 221.494 -5.96079 1.90895 0
M  V30 2479 H 221.727 -2.49987 1.60915 0
M  V30 2480 H 219.26 -1.23015 0.933092 0
M  V30 2481 H 221.218 -4.09313 -0.311965 0
M  V30 2482 H 219.879 -3.03537 -0.807702 0
M  V30 2483 H 219.072 -5.01333 0.517853 0
M  V30 2484 H 218.674 -3.4897 1.34522 0
M  V30 2485 H 220.966 -6.65948 1.24577 0
M  V30 2486 H 221.909 -6.51946 2.76354 0
M  V30 2487 H 222.317 -5.47652 1.36885 0
M  V30 2488 N 221.715 -0.905404 -1.28997 0
M  V30 2489 C 222.963 -0.533192 -1.9494 0
M  V30 2490 C 223.284 0.924618 -1.71685 0
M  V30 2491 O 222.554 1.65268 -1.05183 0
M  V30 2492 H 221.134 -0.194194 -0.721317 0
M  V30 2493 H 223.796 -1.15294 -1.57141 0
M  V30 2494 H 222.892 -0.72059 -3.03667 0
M  V30 2495 N 223.193 1.4272 -0.668489 0
M  V30 2496 C 224.442 2.00846 -0.185389 0
M  V30 2497 C 224.755 1.53442 1.21305 0
M  V30 2498 O 225.961 2.03944 1.79218 0
M  V30 2499 C 224.417 3.58805 -0.280591 0
M  V30 2500 C 224.025 4.15198 -1.68268 0
M  V30 2501 C 225.769 4.24255 0.14412 0
M  V30 2502 C 223.676 5.655 -1.73099 0
M  V30 2503 H 222.606 0.751145 -0.0655475 0
M  V30 2504 H 225.257 1.63516 -0.832752 0
M  V30 2505 H 223.639 3.93608 0.434553 0
M  V30 2506 H 224.813 3.91866 -2.42441 0
M  V30 2507 H 223.128 3.62176 -2.05469 0
M  V30 2508 H 225.725 5.34547 0.128086 0
M  V30 2509 H 226.068 3.99277 1.17827 0
M  V30 2510 H 226.601 3.94389 -0.519798 0
M  V30 2511 H 223.34 5.95268 -2.74475 0
M  V30 2512 H 222.86 5.90842 -1.03274 0
M  V30 2513 H 224.539 6.29808 -1.48158 0
M  V30 2514 N 224.671 0.411399 1.52136 0
M  V30 2515 C 225.919 -0.163322 2.01439 0
M  V30 2516 C 226.24 -1.45453 1.29879 0
M  V30 2517 O 225.51 -1.91225 0.4254 0
M  V30 2518 H 224.09 -0.0633447 0.744309 0
M  V30 2519 H 226.752 0.548161 1.87033 0
M  V30 2520 H 225.848 -0.357817 3.10042 0
M  V30 2521 N 226.149 -1.5696 0.141893 0
M  V30 2522 C 227.082 -2.12271 -0.837627 0
M  V30 2523 C 228.06 -1.04495 -1.24578 0
M  V30 2524 O 229.244 -1.32293 -1.34278 0
M  V30 2525 C 226.371 -2.63822 -2.12404 0
M  V30 2526 C 225.417 -3.83698 -1.86221 0
M  V30 2527 S 226.25 -5.24948 -1.05781 0
M  V30 2528 C 227.406 -5.79884 -2.35552 0
M  V30 2529 H 227.639 -2.95023 -0.367249 0
M  V30 2530 H 225.172 -1.54231 -0.0723014 0
M  V30 2531 H 227.13 -2.94175 -2.86307 0
M  V30 2532 H 225.791 -1.8121 -2.56557 0
M  V30 2533 H 224.984 -4.17995 -2.81596 0
M  V30 2534 H 224.586 -3.5408 -1.20429 0
M  V30 2535 H 226.878 -5.91005 -3.31239 0
M  V30 2536 H 227.821 -6.77544 -2.05767 0
M  V30 2537 H 228.229 -5.08095 -2.45967 0
M  V30 2538 N 227.627 0.131896 -1.57047 0
M  V30 2539 C 228.59 1.14638 -1.98471 0
M  V30 2540 C 229.59 1.35029 -0.873148 0
M  V30 2541 O 230.78 1.31764 -1.13946 0
M  V30 2542 C 227.912 2.50358 -2.31373 0
M  V30 2543 H 229.105 0.79064 -2.8929 0
M  V30 2544 H 226.658 0.375761 -1.51716 0
M  V30 2545 H 227.393 2.90876 -1.43393 0
M  V30 2546 H 227.178 2.36915 -3.12432 0
M  V30 2547 H 228.668 3.23395 -2.64207 0
M  V30 2548 N 229.106 1.52395 0.401703 0
M  V30 2549 C 230.016 1.7917 1.51444 0
M  V30 2550 C 231.032 0.677691 1.6026 0
M  V30 2551 O 232.208 0.963909 1.76835 0
M  V30 2552 C 229.273 1.94347 2.87107 0
M  V30 2553 C 228.334 3.18257 2.88116 0
M  V30 2554 C 227.567 3.32701 4.17308 0
M  V30 2555 O 227.79 2.52238 5.11598 0
M  V30 2556 O 226.724 4.25891 4.25324 0
M  V30 2557 H 230.55 2.73633 1.31752 0
M  V30 2558 H 228.135 1.3733 0.588296 0
M  V30 2559 H 230.017 2.06109 3.67555 0
M  V30 2560 H 228.692 1.03073 3.06851 0
M  V30 2561 H 227.599 3.11947 2.06494 0
M  V30 2562 H 228.932 4.09336 2.73322 0
M  V30 2563 N 230.584 -0.659388 1.43143 0
M  V30 2564 C 231.831 -1.41935 1.44433 0
M  V30 2565 C 232.159 -1.94387 0.0663522 0
M  V30 2566 O 231.414 -1.72314 -0.927706 0
M  V30 2567 C 231.713 -2.62206 2.42864 0
M  V30 2568 C 231.379 -2.28208 3.88886 0
M  V30 2569 C 230.041 -2.18647 4.28657 0
M  V30 2570 C 232.393 -2.00887 4.8093 0
M  V30 2571 C 229.721 -1.79914 5.58433 0
M  V30 2572 C 232.073 -1.63653 6.11065 0
M  V30 2573 C 230.737 -1.52614 6.49819 0
M  V30 2574 H 230.007 -0.519376 0.528517 0
M  V30 2575 H 232.654 -0.750453 1.76183 0
M  V30 2576 H 230.959 -3.34199 2.04495 0
M  V30 2577 H 232.656 -3.2041 2.41119 0
M  V30 2578 H 229.246 -2.36557 3.57406 0
M  V30 2579 H 233.43 -2.07198 4.5098 0
M  V30 2580 H 228.686 -1.69948 5.87305 0
M  V30 2581 H 232.86 -1.41543 6.81864 0
M  V30 2582 H 230.487 -1.22371 7.50286 0
M  V30 2583 N 232.062 -1.29571 -0.897171 0
M  V30 2584 C 232.992 -1.17473 -2.01798 0
M  V30 2585 C 233.973 -0.068323 -1.69963 0
M  V30 2586 O 235.158 -0.248239 -1.92607 0
M  V30 2587 C 232.288 -0.853099 -3.36659 0
M  V30 2588 C 231.242 -1.9161 -3.82713 0
M  V30 2589 C 230.568 -1.44773 -5.14728 0
M  V30 2590 C 231.868 -3.32535 -4.02763 0
M  V30 2591 H 233.562 -2.11237 -2.12177 0
M  V30 2592 H 231.108 -1.01699 -1.01948 0
M  V30 2593 H 233.061 -0.755165 -4.14578 0
M  V30 2594 H 231.785 0.120236 -3.26379 0
M  V30 2595 H 230.444 -2.00346 -3.07013 0
M  V30 2596 H 230.092 -0.462995 -5.00865 0
M  V30 2597 H 229.792 -2.15865 -5.46513 0
M  V30 2598 H 231.316 -1.36334 -5.95185 0
M  V30 2599 H 232.73 -3.26626 -4.71156 0
M  V30 2600 H 231.127 -4.01607 -4.45905 0
M  V30 2601 H 232.197 -3.75326 -3.07016 0
M  V30 2602 N 233.54 1.10788 -1.12088 0
M  V30 2603 C 234.817 1.79136 -0.785476 0
M  V30 2604 C 235.197 1.98246 0.725377 0
M  V30 2605 O 234.545 1.57258 1.65778 0
M  V30 2606 C 234.755 3.12375 -1.55636 0
M  V30 2607 C 236.103 3.8731 -1.74001 0
M  V30 2608 O 237.127 3.22085 -1.52117 0
M  V30 2609 O 235.986 5.04369 -2.10415 0
M  V30 2610 H 233.08 0.776226 -0.285311 0
M  V30 2611 H 235.626 1.1747 -1.2247 0
M  V30 2612 H 234.398 2.93863 -2.5838 0
M  V30 2613 H 234.021 3.81758 -1.11114 0
M  V30 2614 N 235.018 0.912232 1.28515 0
M  V30 2615 C 235.965 0.397954 2.27343 0
M  V30 2616 C 236.935 -0.526766 1.57526 0
M  V30 2617 O 238.12 -0.449292 1.85435 0
M  V30 2618 C 235.26 -0.357263 3.43246 0
M  V30 2619 C 234.373 0.599788 4.27816 0
M  V30 2620 C 233.508 -0.173725 5.30916 0
M  V30 2621 C 232.547 0.777039 6.07148 0
M  V30 2622 N 231.684 0.0371398 7.0209 0
M  V30 2623 H 236.524 1.24577 2.70711 0
M  V30 2624 H 234.061 0.625612 1.33133 0
M  V30 2625 H 236.019 -0.8113 4.09236 0
M  V30 2626 H 234.649 -1.16943 3.00872 0
M  V30 2627 H 233.701 1.17235 3.61884 0
M  V30 2628 H 235.013 1.32704 4.80823 0
M  V30 2629 H 234.167 -0.688394 6.02782 0
M  V30 2630 H 232.906 -0.934041 4.78672 0
M  V30 2631 H 231.911 1.3031 5.34134 0
M  V30 2632 H 233.136 1.53689 6.61481 0
M  V30 2633 H 231.082 -0.705213 6.52198 0
M  V30 2634 H 230.999 0.704249 7.52713 0
M  V30 2635 H 232.267 -0.457383 7.78157 0
M  V30 2636 N 236.496 -1.42363 0.676048 0
M  V30 2637 C 237.446 -2.27987 -0.0242903 0
M  V30 2638 C 238.43 -1.41153 -0.772319 0
M  V30 2639 O 239.622 -1.64592 -0.651025 0
M  V30 2640 C 236.751 -3.29195 -0.973953 0
M  V30 2641 C 235.837 -4.23512 -0.223202 0
M  V30 2642 N 236.228 -4.99865 0.772589 0
M  V30 2643 C 234.526 -4.43606 -0.461469 0
M  V30 2644 C 235.227 -5.68757 1.22027 0
M  V30 2645 N 234.203 -5.40811 0.549975 0
M  V30 2646 H 238.005 -2.84445 0.73949 0
M  V30 2647 H 235.519 -1.54341 0.50522 0
M  V30 2648 H 237.516 -3.89339 -1.49067 0
M  V30 2649 H 236.176 -2.74298 -1.73755 0
M  V30 2650 H 237.187 -5.04921 1.15217 0
M  V30 2651 H 233.864 -3.99749 -1.20446 0
M  V30 2652 H 235.254 -6.40007 2.0455 0
M  V30 2653 N 237.974 -0.419461 -1.51915 0
M  V30 2654 C 239.22 0.153166 -2.02221 0
M  V30 2655 C 239.553 1.43907 -1.30401 0
M  V30 2656 O 238.828 1.90055 -0.413438 0
M  V30 2657 C 239.111 0.390291 -3.57979 0
M  V30 2658 C 238.964 -0.913014 -4.40436 0
M  V30 2659 C 240.283 1.16794 -4.2432 0
M  V30 2660 H 237.402 0.0541924 -0.735005 0
M  V30 2661 H 240.044 -0.554955 -1.81715 0
M  V30 2662 H 238.194 0.993491 -3.75582 0
M  V30 2663 H 239.866 -1.54882 -4.34522 0
M  V30 2664 H 238.109 -1.52168 -4.06236 0
M  V30 2665 H 238.78 -0.701361 -5.47526 0
M  V30 2666 H 241.256 0.657161 -4.10878 0
M  V30 2667 H 240.132 1.3026 -5.3322 0
M  V30 2668 H 240.393 2.19132 -3.83971 0
M  V30 2669 N 239.452 1.56882 -0.150215 0
M  V30 2670 C 240.68 2.00593 0.506948 0
M  V30 2671 C 241.095 1.03033 1.58208 0
M  V30 2672 O 240.452 0.0278396 1.82479 0
M  V30 2673 C 240.503 3.44209 1.10465 0
M  V30 2674 O 240.224 4.3804 0.0724636 0
M  V30 2675 C 241.725 4.03214 1.84211 0
M  V30 2676 H 238.945 0.65795 0.13169 0
M  V30 2677 H 241.489 2.03018 -0.245743 0
M  V30 2678 H 239.644 3.42625 1.80795 0
M  V30 2679 H 240.058 5.22007 0.510793 0
M  V30 2680 H 241.532 5.0569 2.21318 0
M  V30 2681 H 242.009 3.44107 2.72923 0
M  V30 2682 H 242.615 4.08437 1.18572 0
M  V30 2683 N 240.93 -0.123565 1.57115 0
M  V30 2684 C 242.155 -0.850398 1.89164 0
M  V30 2685 C 242.58 -1.7286 0.741688 0
M  V30 2686 O 241.938 -1.78665 -0.307958 0
M  V30 2687 C 241.986 -1.66353 3.19936 0
M  V30 2688 O 241.09 -2.77004 3.0552 0
M  V30 2689 H 240.431 -0.235454 0.620852 0
M  V30 2690 H 242.961 -0.107335 2.04318 0
M  V30 2691 H 242.971 -2.05372 3.52543 0
M  V30 2692 H 241.646 -1.01881 4.03228 0
M  V30 2693 H 240.223 -2.41221 2.84371 0
M  V30 2694 N 242.408 -1.52605 -0.393616 0
M  V30 2695 C 243.318 -1.79971 -1.50492 0
M  V30 2696 C 244.334 -0.686181 -1.59899 0
M  V30 2697 O 245.51 -0.973274 -1.76322 0
M  V30 2698 C 242.575 -1.95867 -2.86072 0
M  V30 2699 C 241.636 -3.19781 -2.86424 0
M  V30 2700 C 240.869 -3.34909 -4.15538 0
M  V30 2701 O 241.092 -2.54948 -5.10253 0
M  V30 2702 O 240.026 -4.28141 -4.23059 0
M  V30 2703 H 243.852 -2.74328 -1.30299 0
M  V30 2704 H 241.437 -1.3764 -0.581005 0
M  V30 2705 H 243.319 -2.08056 -3.66457 0
M  V30 2706 H 241.994 -1.04699 -3.063 0
M  V30 2707 H 240.901 -3.13038 -2.04837 0
M  V30 2708 H 242.234 -4.1078 -2.71147 0
M  V30 2709 N 243.887 0.651787 -1.4349 0
M  V30 2710 C 244.819 1.77725 -1.44729 0
M  V30 2711 C 245.832 1.59141 -0.343231 0
M  V30 2712 O 247.021 1.67835 -0.607751 0
M  V30 2713 C 244.121 3.15172 -1.24579 0
M  V30 2714 C 243.294 3.60402 -2.47849 0
M  V30 2715 C 242.353 4.76656 -2.22902 0
M  V30 2716 O 241.379 4.86022 -2.96263 0
M  V30 2717 N 242.581 5.66958 -1.24656 0
M  V30 2718 H 245.346 1.77141 -2.41746 0
M  V30 2719 H 242.907 0.835678 -1.38665 0
M  V30 2720 H 244.899 3.90634 -1.0577 0
M  V30 2721 H 243.469 3.1052 -0.360015 0
M  V30 2722 H 242.689 2.75369 -2.82073 0
M  V30 2723 H 243.977 3.87368 -3.29884 0
M  V30 2724 H 243.375 5.62065 -0.640265 0
M  V30 2725 H 241.932 6.42135 -1.1183 0
M  V30 2726 N 245.365 1.30045 0.890287 0
M  V30 2727 C 246.275 1.17885 2.02831 0
M  V30 2728 C 247.291 0.0999609 1.73713 0
M  V30 2729 O 248.467 0.313867 1.98939 0
M  V30 2730 C 245.532 0.866079 3.35708 0
M  V30 2731 C 244.593 2.02979 3.78283 0
M  V30 2732 C 243.826 1.73184 5.0482 0
M  V30 2733 O 244.049 0.657237 5.66601 0
M  V30 2734 O 242.983 2.58267 5.43674 0
M  V30 2735 H 246.809 2.13474 2.16015 0
M  V30 2736 H 244.394 1.09587 1.01543 0
M  V30 2737 H 246.276 0.706623 4.15433 0
M  V30 2738 H 244.951 -0.0599443 3.23644 0
M  V30 2739 H 243.858 2.24454 2.99285 0
M  V30 2740 H 245.191 2.93734 3.94944 0
M  V30 2741 N 246.843 -1.10192 1.12674 0
M  V30 2742 C 248.089 -1.82658 0.894847 0
M  V30 2743 C 248.444 -1.83666 -0.573107 0
M  V30 2744 O 247.737 -1.28816 -1.41835 0
M  V30 2745 C 247.931 -3.28552 1.4067 0
M  V30 2746 C 247.76 -3.41756 2.92289 0
M  V30 2747 C 246.53 -3.54021 3.60551 0
M  V30 2748 C 248.728 -3.34949 3.90274 0
M  V30 2749 N 246.71 -3.55827 5.0026 0
M  V30 2750 C 248.081 -3.43531 5.16127 0
M  V30 2751 C 250.136 -3.18565 3.8265 0
M  V30 2752 C 248.839 -3.37416 6.3525 0
M  V30 2753 C 250.865 -3.13772 5.01299 0
M  V30 2754 C 250.227 -3.22938 6.26012 0
M  V30 2755 H 246.326 -0.683044 0.380756 0
M  V30 2756 H 248.91 -1.31752 1.43351 0
M  V30 2757 H 247.081 -3.77946 0.895055 0
M  V30 2758 H 248.813 -3.88991 1.11661 0
M  V30 2759 H 245.568 -3.57135 3.1105 0
M  V30 2760 H 245.992 -3.60335 5.73138 0
M  V30 2761 H 250.634 -3.10354 2.87124 0
M  V30 2762 H 248.352 -3.44391 7.3104 0
M  V30 2763 H 251.938 -3.02242 4.97133 0
M  V30 2764 H 250.818 -3.19235 7.16281 0
M  V30 2765 N 248.321 -0.919034 -1.28029 0
M  V30 2766 C 249.598 -0.473668 -1.89778 0
M  V30 2767 C 249.978 1.04783 -1.83259 0
M  V30 2768 O 249.326 1.8982 -1.27202 0
M  V30 2769 C 249.536 -1.00998 -3.34066 0
M  V30 2770 C 250.884 -1.06525 -4.1102 0
M  V30 2771 O 251.908 -0.958996 -3.43048 0
M  V30 2772 O 250.767 -1.22776 -5.3253 0
M  V30 2773 H 247.861 -0.15098 -0.813101 0
M  V30 2774 H 250.407 -1.01016 -1.36359 0
M  V30 2775 H 249.179 -2.05392 -3.33061 0
M  V30 2776 H 248.802 -0.454626 -3.94992 0
M  V30 2777 N 249.799 1.42003 -0.683588 0
M  V30 2778 C 250.746 2.30798 -0.0107309 0
M  V30 2779 C 251.716 1.4645 0.783688 0
M  V30 2780 O 252.901 1.75263 0.754156 0
M  V30 2781 C 250.041 3.3238 0.928306 0
M  V30 2782 C 249.154 4.31814 0.126776 0
M  V30 2783 C 248.289 5.20468 1.06236 0
M  V30 2784 C 247.328 6.11577 0.253035 0
M  V30 2785 N 246.465 6.92754 1.14179 0
M  V30 2786 H 251.305 2.8778 -0.773727 0
M  V30 2787 H 248.842 1.41745 -0.393283 0
M  V30 2788 H 250.8 3.89813 1.48666 0
M  V30 2789 H 249.43 2.76976 1.65783 0
M  V30 2790 H 248.482 3.76427 -0.54833 0
M  V30 2791 H 249.794 4.96276 -0.501192 0
M  V30 2792 H 248.948 5.82677 1.69035 0
M  V30 2793 H 247.687 4.56204 1.7242 0
M  V30 2794 H 246.692 5.48428 -0.388108 0
M  V30 2795 H 247.917 6.77892 -0.404839 0
M  V30 2796 H 245.863 6.3111 1.78987 0
M  V30 2797 H 245.78 7.53855 0.569111 0
M  V30 2798 H 247.048 7.59441 1.75697 0
M  V30 2799 N 251.277 0.427512 1.51691 0
M  V30 2800 C 252.507 -0.140986 2.06118 0
M  V30 2801 C 252.915 -1.37854 1.29588 0
M  V30 2802 O 252.258 -1.80411 0.346036 0
M  V30 2803 C 252.32 -0.538276 3.55447 0
M  V30 2804 C 251.984 0.591095 4.53161 0
M  V30 2805 C 252.981 1.46027 4.98971 0
M  V30 2806 C 250.666 0.769028 4.96378 0
M  V30 2807 C 252.66 2.49216 5.8666 0
M  V30 2808 C 250.347 1.80421 5.83859 0
M  V30 2809 C 251.345 2.66417 6.28897 0
M  V30 2810 O 251.033 3.68159 7.14643 0
M  V30 2811 H 250.765 -0.0157455 0.675817 0
M  V30 2812 H 253.319 0.602495 1.96365 0
M  V30 2813 H 251.549 -1.33432 3.6295 0
M  V30 2814 H 253.238 -1.0368 3.92435 0
M  V30 2815 H 254.004 1.33429 4.66285 0
M  V30 2816 H 249.883 0.109273 4.6087 0
M  V30 2817 H 253.427 3.16372 6.21735 0
M  V30 2818 H 249.324 1.93042 6.15959 0
M  V30 2819 H 250.092 3.64622 7.32798 0
M  V30 2820 N 252.755 -1.56801 0.158532 0
M  V30 2821 C 253.995 -1.98383 -0.49229 0
M  V30 2822 C 254.359 -1.04184 -1.61275 0
M  V30 2823 O 255.56 -1.34856 -2.32524 0
M  V30 2824 C 253.831 -3.4385 -0.974766 0
M  V30 2825 S 255.39 -4.07459 -1.62857 0
M  V30 2826 H 252.208 -0.693041 -0.158794 0
M  V30 2827 H 254.81 -1.93856 0.252974 0
M  V30 2828 H 253.514 -4.10131 -0.148688 0
M  V30 2829 H 253.045 -3.52115 -1.75438 0
M  V30 2830 H 255.06 -4.01458 -2.91627 0
M  V30 2831 N 254.233 0.115231 -1.57178 0
M  V30 2832 C 255.183 1.14707 -1.97044 0
M  V30 2833 C 256.167 1.36866 -0.845957 0
M  V30 2834 O 257.359 1.37895 -1.10968 0
M  V30 2835 C 254.488 2.47266 -2.38148 0
M  V30 2836 C 253.574 2.28566 -3.57237 0
M  V30 2837 N 253.965 1.79685 -4.72807 0
M  V30 2838 C 252.263 2.59208 -3.62943 0
M  V30 2839 C 252.964 1.74781 -5.54821 0
M  V30 2840 N 251.94 2.19264 -4.97417 0
M  V30 2841 H 255.742 0.761754 -2.83857 0
M  V30 2842 H 253.256 0.322928 -1.59157 0
M  V30 2843 H 255.253 3.219 -2.64927 0
M  V30 2844 H 253.913 2.86552 -1.52702 0
M  V30 2845 H 254.924 1.49177 -4.9595 0
M  V30 2846 H 251.601 3.02154 -2.88113 0
M  V30 2847 H 252.991 1.38212 -6.57531 0
M  V30 2848 N 255.711 1.52812 0.385517 0
M  V30 2849 C 256.941 1.71658 1.14966 0
M  V30 2850 C 257.349 0.436253 1.84102 0
M  V30 2851 O 256.692 -0.599313 1.73649 0
M  V30 2852 C 256.754 2.81309 2.23843 0
M  V30 2853 C 256.418 4.22313 1.74644 0
M  V30 2854 C 257.415 5.05352 1.22129 0
M  V30 2855 C 255.1 4.68648 1.80761 0
M  V30 2856 C 257.094 6.32807 0.763838 0
M  V30 2857 C 254.781 5.96086 1.34627 0
M  V30 2858 C 255.779 6.77996 0.825264 0
M  V30 2859 O 255.467 8.03045 0.370669 0
M  V30 2860 H 255.199 0.578022 0.350523 0
M  V30 2861 H 257.753 2.00263 0.456509 0
M  V30 2862 H 255.983 2.48133 2.96592 0
M  V30 2863 H 257.672 2.88524 2.85497 0
M  V30 2864 H 258.438 4.70736 1.16758 0
M  V30 2865 H 254.317 4.04979 2.20256 0
M  V30 2866 H 257.861 6.96689 0.356494 0
M  V30 2867 H 253.758 6.30205 1.39686 0
M  V30 2868 H 254.526 8.17021 0.491829 0
M  V30 2869 N 257.189 -0.644168 1.43834 0
M  V30 2870 C 258.435 -1.40603 1.46146 0
M  V30 2871 C 258.768 -1.93997 0.0887717 0
M  V30 2872 O 258.043 -1.72854 -0.891724 0
M  V30 2873 C 258.326 -2.58086 2.51124 0
M  V30 2874 C 258.179 -2.10126 3.97702 0
M  V30 2875 C 259.498 -3.60291 2.52742 0
M  V30 2876 H 256.617 -0.509905 0.532134 0
M  V30 2877 H 259.259 -0.729502 1.75437 0
M  V30 2878 H 257.409 -3.15801 2.26278 0
M  V30 2879 H 259.081 -1.57342 4.33637 0
M  V30 2880 H 257.324 -1.41419 4.10101 0
M  V30 2881 H 257.995 -2.94649 4.66783 0
M  V30 2882 H 260.471 -3.12352 2.7491 0
M  V30 2883 H 259.347 -4.40032 3.28121 0
M  V30 2884 H 259.608 -4.1349 1.56455 0
M  V30 2885 N 258.668 -1.30515 -0.883378 0
M  V30 2886 C 259.631 -1.1701 -1.97082 0
M  V30 2887 C 260.631 -0.10089 -1.60483 0
M  V30 2888 O 261.821 -0.349127 -1.70666 0
M  V30 2889 C 258.953 -0.793045 -3.31547 0
M  V30 2890 H 260.146 -2.13622 -2.10489 0
M  V30 2891 H 257.699 -1.13935 -1.06998 0
M  V30 2892 H 258.434 0.172499 -3.23841 0
M  V30 2893 H 258.219 -1.56576 -3.5948 0
M  V30 2894 H 259.709 -0.722073 -4.1131 0
M  V30 2895 N 260.146 1.09593 -1.13257 0
M  V30 2896 C 261.394 1.81375 -0.891492 0
M  V30 2897 C 261.715 1.86049 0.584009 0
M  V30 2898 O 260.985 1.34481 1.42449 0
M  V30 2899 H 259.565 0.671708 -0.326828 0
M  V30 2900 H 262.227 1.3256 -1.42877 0
M  V30 2901 H 261.323 2.84612 -1.28071 0
M  V30 2902 N 261.624 0.925811 1.2754 0
M  V30 2903 C 262.554 0.440748 2.29303 0
M  V30 2904 C 263.535 -0.497971 1.62648 0
M  V30 2905 O 264.72 -0.403126 1.8997 0
M  V30 2906 C 261.85 -0.309048 3.45922 0
M  V30 2907 C 260.804 0.54166 4.24559 0
M  V30 2908 C 260.13 -0.337191 5.33636 0
M  V30 2909 C 261.43 1.80516 4.90114 0
M  V30 2910 H 263.124 1.29121 2.70126 0
M  V30 2911 H 260.67 0.622323 1.29858 0
M  V30 2912 H 262.623 -0.659315 4.1621 0
M  V30 2913 H 261.347 -1.19352 3.04011 0
M  V30 2914 H 260.006 0.874609 3.56014 0
M  V30 2915 H 259.654 -1.22056 4.87966 0
M  V30 2916 H 259.354 0.228497 5.87156 0
M  V30 2917 H 260.878 -0.683072 6.06767 0
M  V30 2918 H 262.292 1.52307 5.52698 0
M  V30 2919 H 260.689 2.3142 5.53683 0
M  V30 2920 H 261.759 2.52581 4.13921 0
M  V30 2921 N 263.102 -1.41638 0.69111 0
M  V30 2922 C 264.348 -2.01598 0.220519 0
M  V30 2923 C 264.681 -1.54594 -1.17535 0
M  V30 2924 O 263.956 -0.755177 -1.79241 0
M  V30 2925 C 264.239 -3.59062 0.273243 0
M  V30 2926 C 264.092 -4.16203 1.70573 0
M  V30 2927 C 265.411 -4.38546 -0.369457 0
M  V30 2928 H 262.53 -0.732468 0.0816045 0
M  V30 2929 H 265.172 -1.68445 0.878986 0
M  V30 2930 H 263.322 -3.87435 -0.287411 0
M  V30 2931 H 264.994 -3.98722 2.31989 0
M  V30 2932 H 263.237 -3.71414 2.2413 0
M  V30 2933 H 263.908 -5.25358 1.69419 0
M  V30 2934 H 266.384 -4.1596 0.107977 0
M  V30 2935 H 265.26 -5.48069 -0.302002 0
M  V30 2936 H 265.521 -4.17662 -1.44951 0
M  V30 2937 N 264.58 -0.43555 -1.51462 0
M  V30 2938 C 265.828 0.131254 -2.01673 0
M  V30 2939 C 266.149 1.43368 -1.32177 0
M  V30 2940 O 265.419 1.90524 -0.455769 0
M  V30 2941 H 263.999 0.0514954 -0.745223 0
M  V30 2942 H 266.661 -0.577847 -1.86137 0
M  V30 2943 H 265.757 0.308446 -3.10572 0
M  V30 2944 N 266.058 1.56714 -0.166846 0
M  V30 2945 C 267.307 1.95922 0.479318 0
M  V30 2946 C 267.62 1.05529 1.6469 0
M  V30 2947 O 268.826 1.34399 2.35901 0
M  V30 2948 C 267.282 3.48359 0.90412 0
M  V30 2949 C 266.89 4.47369 -0.237621 0
M  V30 2950 C 268.634 3.96394 1.51896 0
M  V30 2951 C 266.541 5.91039 0.206561 0
M  V30 2952 H 265.471 0.731495 0.18284 0
M  V30 2953 H 268.122 1.81728 -0.254363 0
M  V30 2954 H 266.504 3.57955 1.69365 0
M  V30 2955 H 267.678 4.49485 -1.01489 0
M  V30 2956 H 265.993 4.09366 -0.762128 0
M  V30 2957 H 268.59 5.01186 1.86325 0
M  V30 2958 H 268.933 3.39075 2.41524 0
M  V30 2959 H 269.466 3.89796 0.79395 0
M  V30 2960 H 266.205 6.52221 -0.654834 0
M  V30 2961 H 265.725 5.9224 0.949282 0
M  V30 2962 H 267.404 6.43707 0.651939 0
M  V30 2963 N 267.536 -0.106894 1.57237 0
M  V30 2964 C 268.784 -0.810921 1.85117 0
M  V30 2965 C 269.105 -1.7984 0.753827 0
M  V30 2966 O 268.375 -1.94649 -0.221056 0
M  V30 2967 H 266.955 -0.302466 0.683025 0
M  V30 2968 H 269.617 -0.0913324 1.94686 0
M  V30 2969 H 268.713 -1.34875 2.81452 0
M  V30 2970 N 269.014 -1.53014 -0.377408 0
M  V30 2971 C 269.944 -1.81589 -1.46791 0
M  V30 2972 C 270.925 -0.668622 -1.56408 0
M  V30 2973 O 272.11 -0.917337 -1.71168 0
M  V30 2974 C 269.24 -1.99519 -2.8427 0
M  V30 2975 C 268.194 -3.15249 -2.89486 0
M  V30 2976 C 267.52 -3.18451 -4.29527 0
M  V30 2977 C 268.82 -4.54084 -2.58079 0
M  V30 2978 H 270.514 -2.7291 -1.23127 0
M  V30 2979 H 268.06 -1.31319 -0.590883 0
M  V30 2980 H 270.013 -2.18092 -3.60575 0
M  V30 2981 H 268.737 -1.04897 -3.09296 0
M  V30 2982 H 267.396 -2.96477 -2.15631 0
M  V30 2983 H 267.044 -2.2149 -4.5161 0
M  V30 2984 H 266.744 -3.962 -4.33934 0
M  V30 2985 H 268.268 -3.39193 -5.07721 0
M  V30 2986 H 269.682 -4.72899 -3.24098 0
M  V30 2987 H 268.079 -5.33987 -2.7382 0
M  V30 2988 H 269.149 -4.60006 -1.53372 0
M  V30 2989 N 270.492 0.636531 -1.44174 0
M  V30 2990 C 271.717 1.42847 -1.50364 0
M  V30 2991 C 272.142 1.87665 -0.127867 0
M  V30 2992 O 271.5 1.58408 0.88185 0
M  V30 2993 C 271.548 2.62854 -2.4686 0
M  V30 2994 O 270.652 3.62501 -1.9664 0
M  V30 2995 H 269.993 0.427642 -0.507955 0
M  V30 2996 H 272.523 0.777422 -1.89255 0
M  V30 2997 H 272.533 3.10465 -2.64718 0
M  V30 2998 H 271.208 2.29578 -3.46795 0
M  V30 2999 H 269.785 3.21735 -1.88523 0
M  V30 3000 N 271.97 1.30982 0.876444 0
M  V30 3001 C 273.386 1.09498 1.16113 0
M  V30 3002 C 273.586 -0.13875 2.01022 0
M  V30 3003 O 272.642 -0.829935 2.38471 0
M  V30 3004 C 273.955 2.36308 1.85954 0
M  V30 3005 C 275.503 2.41856 1.98683 0
M  V30 3006 C 275.978 3.6853 2.71937 0
M  V30 3007 N 277.469 3.69387 2.79477 0
M  V30 3008 C 278.204 4.64096 3.36753 0
M  V30 3009 N 277.7 5.69155 3.95012 0
M  V30 3010 N 279.493 4.51626 3.3465 0
M  V30 3011 H 271.644 2.10118 0.310494 0
M  V30 3012 H 273.907 0.926634 0.200131 0
M  V30 3013 H 273.613 3.26388 1.31011 0
M  V30 3014 H 273.487 2.4561 2.86278 0
M  V30 3015 H 275.874 1.52249 2.52793 0
M  V30 3016 H 275.955 2.36523 0.9742 0
M  V30 3017 H 275.599 4.58499 2.18496 0
M  V30 3018 H 275.529 3.71127 3.73593 0
M  V30 3019 H 278.02 2.93438 2.38123 0
M  V30 3020 H 278.333 6.3751 4.36808 0
M  V30 3021 H 276.678 5.72937 3.93406 0
M  V30 3022 H 279.869 3.68728 2.8837 0
M  V30 3023 H 280.042 5.25614 3.7899 0
M  V30 3024 N 273.449 -1.08991 1.13837 0
M  V30 3025 C 274.379 -2.17771 0.842507 0
M  V30 3026 C 275.36 -1.6892 -0.20001 0
M  V30 3027 O 276.545 -1.94113 -0.0579731 0
M  V30 3028 C 273.675 -3.4589 0.312644 0
M  V30 3029 C 272.629 -4.08099 1.28992 0
M  V30 3030 C 271.955 -5.31098 0.619623 0
M  V30 3031 C 273.255 -4.50077 2.65005 0
M  V30 3032 H 274.949 -2.42777 1.75213 0
M  V30 3033 H 272.495 -1.16682 0.843875 0
M  V30 3034 H 274.448 -4.21297 0.0933043 0
M  V30 3035 H 273.172 -3.20419 -0.632382 0
M  V30 3036 H 271.831 -3.34717 1.49533 0
M  V30 3037 H 271.479 -5.0191 -0.33102 0
M  V30 3038 H 271.179 -5.73674 1.27167 0
M  V30 3039 H 272.703 -6.09224 0.409669 0
M  V30 3040 H 274.117 -5.16688 2.48407 0
M  V30 3041 H 272.514 -5.03553 3.26427 0
M  V30 3042 H 273.584 -3.62257 3.22332 0
M  V30 3043 N 274.927 -0.932562 -1.27047 0
M  V30 3044 C 276.174 -0.575559 -1.94148 0
M  V30 3045 C 276.502 0.883984 -1.73251 0
M  V30 3046 O 275.757 1.64655 -1.0577 0
M  V30 3047 C 276.056 -0.853713 -3.47054 0
M  V30 3048 C 275.722 -2.29577 -3.88079 0
M  V30 3049 C 274.384 -2.68999 -3.9899 0
M  V30 3050 C 276.736 -3.23331 -4.08787 0
M  V30 3051 C 274.064 -4.01289 -4.28 0
M  V30 3052 C 276.416 -4.55207 -4.39282 0
M  V30 3053 C 275.08 -4.94457 -4.48407 0
M  V30 3054 H 274.35 -0.210612 -0.710439 0
M  V30 3055 H 276.997 -1.17744 -1.51025 0
M  V30 3056 H 275.302 -0.169204 -3.91434 0
M  V30 3057 H 276.999 -0.55639 -3.97121 0
M  V30 3058 H 273.589 -1.97994 -3.80127 0
M  V30 3059 H 277.773 -2.94074 -3.99793 0
M  V30 3060 H 273.029 -4.31374 -4.33275 0
M  V30 3061 H 277.203 -5.27852 -4.54252 0
M  V30 3062 H 274.83 -5.96994 -4.7064 0
M  V30 3063 N 276.405 1.4127 -0.698611 0
M  V30 3064 C 277.63 2.06024 -0.238512 0
M  V30 3065 C 278.055 1.5224 1.10475 0
M  V30 3066 O 277.413 0.650623 1.69223 0
M  V30 3067 C 277.461 3.59988 -0.209952 0
M  V30 3068 O 276.565 4.04282 0.814235 0
M  V30 3069 H 275.906 0.653829 -0.115775 0
M  V30 3070 H 278.436 1.8098 -0.954326 0
M  V30 3071 H 278.446 4.07979 -0.0418436 0
M  V30 3072 H 277.121 3.98503 -1.1903 0
M  V30 3073 H 275.698 3.6779 0.615234 0
M  V30 3074 N 277.883 0.443576 1.51229 0
M  V30 3075 C 278.846 -0.353132 2.26463 0
M  V30 3076 C 279.846 -0.944338 1.3015 0
M  V30 3077 O 281.036 -0.817813 1.5381 0
M  V30 3078 C 278.168 -1.50023 3.06114 0
M  V30 3079 H 279.361 0.3063 2.98332 0
M  V30 3080 H 276.914 0.196902 1.55055 0
M  V30 3081 H 277.649 -2.19553 2.38677 0
M  V30 3082 H 277.434 -1.08241 3.76864 0
M  V30 3083 H 278.924 -2.06296 3.63087 0
M  V30 3084 N 279.361 -1.56624 0.175154 0
M  V30 3085 C 280.586 -2.01813 -0.478137 0
M  V30 3086 C 281.011 -1.05457 -1.55757 0
M  V30 3087 O 280.369 -0.0347439 -1.81267 0
M  V30 3088 C 280.417 -3.45581 -1.02987 0
M  V30 3089 O 279.521 -3.52305 -2.14371 0
M  V30 3090 H 278.862 -0.65413 -0.114059 0
M  V30 3091 H 281.392 -2.02673 0.280173 0
M  V30 3092 H 281.402 -3.84965 -1.35151 0
M  V30 3093 H 280.077 -4.1521 -0.239556 0
M  V30 3094 H 278.654 -3.24783 -1.83222 0
M  V30 3095 N 280.839 0.0985539 -1.57292 0
M  V30 3096 C 281.749 1.13824 -2.05137 0
M  V30 3097 C 282.765 1.44076 -0.975604 0
M  V30 3098 O 283.941 1.54786 -1.28853 0
M  V30 3099 C 281.006 2.43969 -2.46333 0
M  V30 3100 C 280.067 2.2093 -3.68087 0
M  V30 3101 C 279.3 3.44869 -4.0731 0
M  V30 3102 O 279.523 4.52972 -3.46659 0
M  V30 3103 O 278.457 3.34661 -5.00285 0
M  V30 3104 H 282.283 0.761881 -2.93988 0
M  V30 3105 H 279.868 0.310818 -1.46131 0
M  V30 3106 H 281.75 3.20609 -2.73473 0
M  V30 3107 H 280.425 2.81038 -1.60621 0
M  V30 3108 H 279.332 1.42081 -3.46069 0
M  V30 3109 H 280.665 1.88755 -4.54568 0
M  V30 3110 N 282.317 1.53212 0.369288 0
M  V30 3111 C 283.564 1.69215 1.11232 0
M  V30 3112 C 283.892 0.442048 1.8941 0
M  V30 3113 O 283.147 -0.575944 1.87033 0
M  V30 3114 C 283.446 2.89101 2.10132 0
M  V30 3115 C 283.112 4.25758 1.48463 0
M  V30 3116 C 281.774 4.6292 1.31372 0
M  V30 3117 C 284.126 5.10757 1.03811 0
M  V30 3118 C 281.454 5.82722 0.68207 0
M  V30 3119 C 283.806 6.31201 0.420487 0
M  V30 3120 C 282.47 6.67079 0.237038 0
M  V30 3121 H 281.74 0.619201 0.407027 0
M  V30 3122 H 284.387 1.87391 0.394552 0
M  V30 3123 H 282.692 2.65421 2.88199 0
M  V30 3124 H 284.389 2.98676 2.6757 0
M  V30 3125 H 280.979 3.96494 1.62758 0
M  V30 3126 H 285.163 4.82599 1.1581 0
M  V30 3127 H 280.419 6.09113 0.528316 0
M  V30 3128 H 284.593 6.96368 0.0662874 0
M  V30 3129 H 282.22 7.59774 -0.254477 0
M  V30 3130 N 283.795 -0.628877 1.44509 0
M  V30 3131 C 284.705 -1.7694 1.54044 0
M  V30 3132 C 285.721 -1.68705 0.425987 0
M  V30 3133 O 286.897 -1.89442 0.683656 0
M  V30 3134 C 283.962 -3.13332 1.48405 0
M  V30 3135 C 283.023 -3.33181 2.70719 0
M  V30 3136 C 282.256 -4.63067 2.6534 0
M  V30 3137 O 282.479 -5.44017 1.71469 0
M  V30 3138 O 281.413 -4.85167 3.56226 0
M  V30 3139 H 285.239 -1.71848 2.50403 0
M  V30 3140 H 282.824 -0.790378 1.26781 0
M  V30 3141 H 284.706 -3.94634 1.47791 0
M  V30 3142 H 283.381 -3.1896 0.551898 0
M  V30 3143 H 282.288 -2.51549 2.769 0
M  V30 3144 H 283.621 -3.32416 3.62988 0
M  V30 3145 N 285.273 -1.31445 -0.869486 0
M  V30 3146 C 286.55 -1.11795 -1.60503 0
M  V30 3147 C 286.93 0.327168 -2.08549 0
M  V30 3148 O 286.278 1.32135 -1.8642 0
M  V30 3149 C 286.488 -2.13258 -2.76265 0
M  V30 3150 C 287.836 -2.45805 -3.46215 0
M  V30 3151 O 288.86 -2.11688 -2.86473 0
M  V30 3152 O 287.719 -3.04228 -4.5399 0
M  V30 3153 H 284.813 -0.430421 -0.706163 0
M  V30 3154 H 287.359 -1.42925 -0.914907 0
M  V30 3155 H 286.131 -3.10461 -2.3818 0
M  V30 3156 H 285.754 -1.83035 -3.52964 0
M  V30 3157 N 286.751 1.08385 -1.14413 0
M  V30 3158 C 288.162 1.62258 -0.923535 0
M  V30 3159 C 288.513 1.88691 0.537595 0
M  V30 3160 O 287.638 1.64454 1.40655 0
M  V30 3161 C 288.233 2.94781 -1.67002 0
M  V30 3162 C 286.792 3.45437 -1.495 0
M  V30 3163 C 285.939 2.19668 -1.69238 0
M  V30 3164 H 288.89 0.916086 -1.2959 0
M  V30 3165 H 288.911 3.63229 -1.13334 0
M  V30 3166 H 288.423 2.7551 -2.73342 0
M  V30 3167 H 286.524 3.6981 -0.455097 0
M  V30 3168 H 286.637 4.22173 -2.2651 0
M  V30 3169 H 285.001 2.28849 -1.11804 0
M  V30 3170 H 285.784 2.02905 -2.7692 0
M  V30 3171 N 288.23 0.939286 1.26551 0
M  V30 3172 C 289.16 0.465044 2.28822 0
M  V30 3173 C 290.141 -0.480692 1.63167 0
M  V30 3174 O 291.326 -0.382955 1.90387 0
M  V30 3175 C 288.456 -0.27234 3.46231 0
M  V30 3176 C 287.41 0.58666 4.2396 0
M  V30 3177 C 286.736 -0.280573 5.33963 0
M  V30 3178 C 288.036 1.85704 4.88171 0
M  V30 3179 H 289.73 1.31979 2.68741 0
M  V30 3180 H 287.276 0.636061 1.29191 0
M  V30 3181 H 289.229 -0.615133 4.16886 0
M  V30 3182 H 287.953 -1.16121 3.0526 0
M  V30 3183 H 286.612 0.91232 3.55067 0
M  V30 3184 H 286.26 -1.16874 4.89234 0
M  V30 3185 H 285.96 0.29076 5.8688 0
M  V30 3186 H 287.484 -0.618678 6.07458 0
M  V30 3187 H 288.898 1.58161 5.51052 0
M  V30 3188 H 287.295 2.37279 5.51197 0
M  V30 3189 H 288.365 2.56957 4.11219 0
M  V30 3190 N 289.708 -1.40897 0.706093 0
M  V30 3191 C 290.954 -2.01352 0.241889 0
M  V30 3192 C 291.287 -1.55832 -1.15888 0
M  V30 3193 O 290.562 -0.774145 -1.7843 0
M  V30 3194 C 290.845 -3.58752 0.311311 0
M  V30 3195 C 290.698 -4.1437 1.74978 0
M  V30 3196 C 292.017 -4.38914 -0.322922 0
M  V30 3197 H 289.136 -0.731562 0.0893687 0
M  V30 3198 H 291.778 -1.67504 0.896802 0
M  V30 3199 H 289.928 -3.87718 -0.246302 0
M  V30 3200 H 291.6 -3.96239 2.36205 0
M  V30 3201 H 289.843 -3.69016 2.28057 0
M  V30 3202 H 290.514 -5.23532 1.74981 0
M  V30 3203 H 292.99 -4.15822 0.152089 0
M  V30 3204 H 291.866 -5.48358 -0.243855 0
M  V30 3205 H 292.127 -4.19176 -1.40513 0
M  V30 3206 N 291.186 -0.45159 -1.50991 0
M  V30 3207 C 292.434 0.109857 -2.01801 0
M  V30 3208 C 292.755 1.41958 -1.3369 0
M  V30 3209 O 292.025 1.9003 -0.475951 0
M  V30 3210 H 290.605 0.0435884 -0.745727 0
M  V30 3211 H 293.267 -0.597557 -1.85514 0
M  V30 3212 H 292.363 0.275489 -3.10882 0
M  V30 3213 N 292.664 1.56529 -0.183458 0
M  V30 3214 C 293.574 2.22144 0.754272 0
M  V30 3215 C 294.59 1.21684 1.24374 0
M  V30 3216 O 295.766 1.54385 1.29333 0
M  V30 3217 C 292.831 2.85884 1.96141 0
M  V30 3218 C 291.892 4.01579 1.51765 0
M  V30 3219 C 291.125 4.6227 2.66725 0
M  V30 3220 O 291.348 4.21865 3.83909 0
M  V30 3221 O 290.282 5.51936 2.40104 0
M  V30 3222 H 294.108 3.02861 0.225527 0
M  V30 3223 H 291.693 1.49331 0.0453032 0
M  V30 3224 H 293.575 3.26253 2.66715 0
M  V30 3225 H 292.25 2.08154 2.47899 0
M  V30 3226 H 291.157 3.65856 0.781049 0
M  V30 3227 H 292.49 4.80938 1.04686 0
M  V30 3228 N 294.142 -0.090211 1.57342 0
M  V30 3229 C 295.419 -0.824761 1.77361 0
M  V30 3230 C 295.799 -1.96698 0.76637 0
M  V30 3231 O 295.147 -2.27586 -0.204179 0
M  V30 3232 C 295.357 -1.31481 3.23286 0
M  V30 3233 C 296.705 -1.75563 3.86604 0
M  V30 3234 O 297.729 -1.41093 3.27065 0
M  V30 3235 O 296.588 -2.39317 4.91314 0
M  V30 3236 H 293.682 -0.393776 0.727234 0
M  V30 3237 H 296.228 -0.0717138 1.69548 0
M  V30 3238 H 295 -0.496671 3.88135 0
M  V30 3239 H 294.623 -2.12973 3.35751 0
M  V30 3240 N 295.62 -1.53406 -0.361157 0
M  V30 3241 C 296.848 -1.73717 -1.12383 0
M  V30 3242 C 297.263 -0.468161 -1.82904 0
M  V30 3243 O 296.62 0.559198 -1.73722 0
M  V30 3244 C 296.671 -2.90558 -2.15078 0
M  V30 3245 O 296.392 -4.12549 -1.47428 0
M  V30 3246 C 297.893 -3.22777 -3.03858 0
M  V30 3247 H 295.113 -0.580896 -0.335858 0
M  V30 3248 H 297.657 -2.00167 -0.418728 0
M  V30 3249 H 295.812 -2.66489 -2.8118 0
M  V30 3250 H 296.226 -4.78009 -2.15887 0
M  V30 3251 H 297.7 -4.07927 -3.71887 0
M  V30 3252 H 298.177 -2.38329 -3.68912 0
M  V30 3253 H 298.783 -3.48787 -2.43367 0
M  V30 3254 N 297.098 0.621204 -1.44841 0
M  V30 3255 C 298.008 1.7612 -1.5498 0
M  V30 3256 C 299.024 1.68477 -0.434927 0
M  V30 3257 O 300.2 1.89076 -0.693693 0
M  V30 3258 C 297.265 3.1254 -1.50065 0
M  V30 3259 C 296.326 3.31741 -2.72482 0
M  V30 3260 C 295.559 4.61653 -2.67792 0
M  V30 3261 O 295.782 5.431 -1.74352 0
M  V30 3262 O 294.716 4.83271 -3.58794 0
M  V30 3263 H 298.542 1.70518 -2.51311 0
M  V30 3264 H 296.127 0.783643 -1.27198 0
M  V30 3265 H 298.009 3.93844 -1.49882 0
M  V30 3266 H 296.684 3.18663 -0.568806 0
M  V30 3267 H 295.591 2.50077 -2.7823 0
M  V30 3268 H 296.924 3.30486 -3.64746 0
M  V30 3269 N 298.576 1.31904 0.862503 0
M  V30 3270 C 299.992 1.10724 1.14945 0
M  V30 3271 C 300.192 -0.117421 2.01158 0
M  V30 3272 O 299.248 -0.804595 2.39338 0
M  V30 3273 C 300.561 2.38267 1.83437 0
M  V30 3274 C 302.109 2.43949 1.96106 0
M  V30 3275 C 302.584 3.71394 2.68013 0
M  V30 3276 N 304.075 3.72331 2.75543 0
M  V30 3277 C 304.81 4.67641 3.31812 0
M  V30 3278 N 304.306 5.73313 3.88953 0
M  V30 3279 N 306.099 4.5515 3.29841 0
M  V30 3280 H 298.25 2.10436 0.288191 0
M  V30 3281 H 300.513 0.928705 0.190292 0
M  V30 3282 H 300.219 3.27759 1.27542 0
M  V30 3283 H 300.093 2.48633 2.83657 0
M  V30 3284 H 302.48 1.54922 2.51164 0
M  V30 3285 H 302.561 2.37543 0.949059 0
M  V30 3286 H 302.205 4.60791 2.13621 0
M  V30 3287 H 302.135 3.75069 3.69636 0
M  V30 3288 H 304.626 2.95947 2.34997 0
M  V30 3289 H 304.939 6.42107 4.30022 0
M  V30 3290 H 303.284 5.77077 3.87308 0
M  V30 3291 H 306.475 3.71766 2.84443 0
M  V30 3292 H 306.648 5.29604 3.73394 0
M  V30 3293 N 300.054 -1.07777 1.14986 0
M  V30 3294 C 301.017 -2.13041 0.845358 0
M  V30 3295 C 302.017 -1.60071 -0.152931 0
M  V30 3296 O 303.207 -1.74033 0.0761879 0
M  V30 3297 C 300.339 -3.39896 0.261383 0
M  V30 3298 H 301.532 -2.41485 1.77834 0
M  V30 3299 H 299.085 -1.23595 0.956757 0
M  V30 3300 H 299.82 -3.17091 -0.68 0
M  V30 3301 H 299.605 -3.79642 0.980514 0
M  V30 3302 H 301.095 -4.17548 0.0657687 0
M  V30 3303 N 301.532 -0.945985 -1.26051 0
M  V30 3304 C 302.48 -0.450259 -2.282 0
M  V30 3305 C 303.474 0.47497 -1.62605 0
M  V30 3306 O 304.68 0.352653 -1.76512 0
M  V30 3307 H 301.055 -0.127081 -0.741184 0
M  V30 3308 H 303.026 -1.32422 -2.67408 0
M  V30 3309 C 301.775 0.26467 -3.46691 0
M  V30 3310 H 301.098 -0.438123 -3.97392 0
M  V30 3311 H 302.538 0.575678 -4.20074 0
M  V30 3312 C 300.997 1.48416 -3.02447 0
M  V30 3313 O 301.527 2.58227 -3.07704 0
M  V30 3314 N 299.733 1.34243 -2.57735 0
M  V30 3315 H 299.28 0.448994 -2.53657 0
M  V30 3316 H 299.238 2.15957 -2.28495 0
M  V30 3317 N 303.011 1.40521 -0.713556 0
M  V30 3318 C 304.236 2.05759 -0.26035 0
M  V30 3319 C 304.661 1.53403 1.08854 0
M  V30 3320 O 304.019 0.668535 1.68524 0
M  V30 3321 C 304.067 3.59745 -0.248122 0
M  V30 3322 O 303.171 4.05123 0.77131 0
M  V30 3323 H 302.512 0.652564 -0.122703 0
M  V30 3324 H 305.042 1.79958 -0.973467 0
M  V30 3325 H 305.052 4.07911 -0.0851129 0
M  V30 3326 H 303.727 3.97218 -1.2325 0
M  V30 3327 H 302.304 3.68422 0.57619 0
M  V30 3328 N 304.489 0.459591 1.5075 0
M  V30 3329 C 305.422 -0.386257 2.24907 0
M  V30 3330 C 306.4 -1.006 1.27744 0
M  V30 3331 O 307.584 -1.04416 1.56938 0
M  V30 3332 C 304.711 -1.54021 3.01654 0
M  V30 3333 C 303.757 -1.03898 4.13651 0
M  V30 3334 S 304.59 0.0370501 5.35487 0
M  V30 3335 C 305.746 -1.12105 6.15779 0
M  V30 3336 H 305.979 0.243272 2.96303 0
M  V30 3337 H 303.512 0.244339 1.52454 0
M  V30 3338 H 305.47 -2.20163 3.46466 0
M  V30 3339 H 304.131 -2.14121 2.29806 0
M  V30 3340 H 303.324 -1.90254 4.66711 0
M  V30 3341 H 302.926 -0.45545 3.71216 0
M  V30 3342 H 305.218 -2.03501 6.46215 0
M  V30 3343 H 306.161 -0.62995 7.05292 0
M  V30 3344 H 306.569 -1.36967 5.47631 0
M  V30 3345 N 305.967 -1.56429 0.191757 0
M  V30 3346 C 307.215 -1.97095 -0.447006 0
M  V30 3347 C 307.536 -1.07967 -1.62383 0
M  V30 3348 O 306.806 -0.150248 -1.95323 0
M  V30 3349 H 305.386 -0.727832 -0.168135 0
M  V30 3350 H 308.048 -1.92911 0.27771 0
M  V30 3351 H 307.144 -3.01848 -0.793371 0
M  V30 3352 N 307.445 0.0818655 -1.57387 0
M  V30 3353 C 308.375 1.09885 -2.06028 0
M  V30 3354 C 309.356 1.4098 -0.951774 0
M  V30 3355 O 310.541 1.50781 -1.22387 0
M  V30 3356 C 307.671 2.4151 -2.4958 0
M  V30 3357 C 306.625 2.24792 -3.64215 0
M  V30 3358 C 305.951 3.61712 -3.93787 0
M  V30 3359 C 307.251 1.67749 -4.94629 0
M  V30 3360 H 308.945 0.694128 -2.91243 0
M  V30 3361 H 306.491 0.332448 -1.4011 0
M  V30 3362 H 308.444 3.12939 -2.82219 0
M  V30 3363 H 307.168 2.83943 -1.61381 0
M  V30 3364 H 305.827 1.55807 -3.31843 0
M  V30 3365 H 305.475 4.01697 -3.02735 0
M  V30 3366 H 305.175 3.51368 -4.70971 0
M  V30 3367 H 306.699 4.34587 -4.28913 0
M  V30 3368 H 308.113 2.29032 -5.25564 0
M  V30 3369 H 306.51 1.68128 -5.76067 0
M  V30 3370 H 307.58 0.638059 -4.80684 0
M  V30 3371 N 308.923 1.53595 0.353017 0
M  V30 3372 C 310.17 1.70385 1.09431 0
M  V30 3373 C 310.498 0.462113 1.88931 0
M  V30 3374 O 309.753 -0.556074 1.87633 0
M  V30 3375 C 310.052 2.91313 2.07054 0
M  V30 3376 C 309.718 4.27308 1.43939 0
M  V30 3377 C 308.38 4.64287 1.26454 0
M  V30 3378 C 310.732 5.11829 0.983883 0
M  V30 3379 C 308.06 5.83412 0.620226 0
M  V30 3380 C 310.412 6.31611 0.353516 0
M  V30 3381 C 309.076 6.67293 0.166272 0
M  V30 3382 H 308.346 0.623484 0.400436 0
M  V30 3383 H 310.993 1.87799 0.374655 0
M  V30 3384 H 309.298 2.68463 2.85368 0
M  V30 3385 H 310.995 3.01497 2.64387 0
M  V30 3386 H 307.585 3.98198 1.58543 0
M  V30 3387 H 311.769 4.838 1.10685 0
M  V30 3388 H 307.025 6.09639 0.463681 0
M  V30 3389 H 311.199 6.964 -0.00757555 0
M  V30 3390 H 308.826 7.59461 -0.335047 0
M  V30 3391 N 310.401 -0.613514 1.45168 0
M  V30 3392 C 311.331 -1.7354 1.56225 0
M  V30 3393 C 312.312 -1.64981 0.41414 0
M  V30 3394 O 313.497 -1.83472 0.636526 0
M  V30 3395 C 310.627 -3.12128 1.52295 0
M  V30 3396 C 309.581 -3.35491 2.65762 0
M  V30 3397 C 308.907 -4.74291 2.46885 0
M  V30 3398 C 310.207 -3.26325 4.0781 0
M  V30 3399 H 311.901 -1.64543 2.50132 0
M  V30 3400 H 309.447 -0.790185 1.20383 0
M  V30 3401 H 311.4 -3.90404 1.58628 0
M  V30 3402 H 310.124 -3.2195 0.549139 0
M  V30 3403 H 308.783 -2.59603 2.58847 0
M  V30 3404 H 308.431 -4.80839 1.47657 0
M  V30 3405 H 308.131 -4.9088 3.22972 0
M  V30 3406 H 309.655 -5.54775 2.55063 0
M  V30 3407 H 311.069 -3.94483 4.16 0
M  V30 3408 H 309.466 -3.54445 4.8424 0
M  V30 3409 H 310.536 -2.23855 4.30136 0
M  V30 3410 N 311.879 -1.3236 -0.855495 0
M  V30 3411 C 312.811 -1.17052 -1.97057 0
M  V30 3412 C 313.824 -0.10574 -1.62456 0
M  V30 3413 O 315.013 -0.354619 -1.74942 0
M  V30 3414 C 312.113 -0.769305 -3.30053 0
M  V30 3415 C 311.286 -1.9222 -3.929 0
M  V30 3416 C 310.345 -1.50466 -5.04228 0
M  V30 3417 O 309.371 -2.21655 -5.24269 0
M  V30 3418 N 310.573 -0.400209 -5.79119 0
M  V30 3419 H 313.338 -2.13103 -2.1073 0
M  V30 3420 H 310.899 -1.24885 -1.0303 0
M  V30 3421 H 312.891 -0.472407 -4.01933 0
M  V30 3422 H 311.461 0.100025 -3.1244 0
M  V30 3423 H 310.681 -2.38563 -3.13817 0
M  V30 3424 H 311.969 -2.69403 -4.31624 0
M  V30 3425 H 311.367 0.192319 -5.65373 0
M  V30 3426 H 309.924 -0.162912 -6.51596 0
M  V30 3427 N 313.357 1.07166 -1.15556 0
M  V30 3428 C 314.304 2.14417 -0.854055 0
M  V30 3429 C 315.274 1.64965 0.193806 0
M  V30 3430 O 316.459 1.90703 0.0609443 0
M  V30 3431 C 313.599 3.43304 -0.351574 0
M  V30 3432 C 312.712 4.06537 -1.46123 0
M  V30 3433 C 311.847 5.23266 -0.914677 0
M  V30 3434 C 310.886 5.78464 -2.00114 0
M  V30 3435 N 310.023 6.86521 -1.47083 0
M  V30 3436 H 314.863 2.39548 -1.77259 0
M  V30 3437 H 312.4 1.17543 -0.884425 0
M  V30 3438 H 314.358 4.17179 -0.0419409 0
M  V30 3439 H 312.988 3.18419 0.530037 0
M  V30 3440 H 312.04 3.30297 -1.88701 0
M  V30 3441 H 313.352 4.43567 -2.28144 0
M  V30 3442 H 312.506 6.04131 -0.557698 0
M  V30 3443 H 311.245 4.87658 -0.0636583 0
M  V30 3444 H 310.25 4.96243 -2.36692 0
M  V30 3445 H 311.475 6.16126 -2.85597 0
M  V30 3446 H 309.421 6.52849 -0.642198 0
M  V30 3447 H 309.338 7.22446 -2.22729 0
M  V30 3448 H 310.606 7.71087 -1.14215 0
M  V30 3449 N 314.835 0.952656 1.25548 0
M  V30 3450 C 316.063 0.623496 1.97282 0
M  V30 3451 C 316.478 -0.803987 1.70826 0
M  V30 3452 O 315.835 -1.53755 0.983147 0
M  V30 3453 C 315.886 0.870209 3.5087 0
M  V30 3454 O 315.607 2.24156 3.76412 0
M  V30 3455 C 317.108 0.553164 4.39835 0
M  V30 3456 H 314.328 0.233931 0.628902 0
M  V30 3457 H 316.872 1.27649 1.59768 0
M  V30 3458 H 315.027 0.263652 3.86502 0
M  V30 3459 H 315.441 2.31021 4.70882 0
M  V30 3460 H 316.915 0.776342 5.46513 0
M  V30 3461 H 317.392 -0.512215 4.36203 0
M  V30 3462 H 317.998 1.13896 4.09766 0
M  V30 3463 N 316.313 -1.40141 0.720998 0
M  V30 3464 C 317.261 -2.3252 0.0608547 0
M  V30 3465 C 318.255 -1.52326 -0.741152 0
M  V30 3466 O 319.461 -1.68089 -0.643911 0
M  V30 3467 H 315.836 -0.751999 0.000876664 0
M  V30 3468 H 317.807 -2.8584 0.856614 0
M  V30 3469 C 316.556 -3.37331 -0.842809 0
M  V30 3470 H 315.879 -3.99108 -0.235084 0
M  V30 3471 H 317.319 -4.04452 -1.27257 0
M  V30 3472 C 315.778 -2.73246 -1.97074 0
M  V30 3473 O 316.308 -2.59998 -3.06209 0
M  V30 3474 N 314.514 -2.31547 -1.75597 0
M  V30 3475 H 314.061 -2.42522 -0.868368 0
M  V30 3476 H 314.019 -1.89007 -2.51244 0
M  V30 3477 N 317.792 -0.46758 -1.50504 0
M  V30 3478 C 319.041 0.0902868 -2.01498 0
M  V30 3479 C 319.354 1.411 -1.35463 0
M  V30 3480 O 320.56 2.0536 -1.77594 0
M  V30 3481 C 319.016 0.21142 -3.59278 0
M  V30 3482 C 318.624 -1.10065 -4.34269 0
M  V30 3483 C 320.368 0.721433 -4.18325 0
M  V30 3484 C 318.275 -0.943505 -5.83825 0
M  V30 3485 H 317.205 0.037517 -0.753066 0
M  V30 3486 H 319.856 -0.601943 -1.73346 0
M  V30 3487 H 318.238 0.967352 -3.84003 0
M  V30 3488 H 319.412 -1.86726 -4.21272 0
M  V30 3489 H 317.727 -1.5415 -3.86816 0
M  V30 3490 H 320.324 0.85598 -5.27804 0
M  V30 3491 H 320.667 1.71186 -3.79475 0
M  V30 3492 H 321.2 0.0229843 -3.97793 0
M  V30 3493 H 317.939 -1.90719 -6.27141 0
M  V30 3494 H 317.459 -0.217213 -5.99407 0
M  V30 3495 H 319.138 -0.608715 -6.4413 0
M  V30 3496 N 319.27 1.56325 -0.20005 0
M  V30 3497 C 320.519 1.96895 0.437652 0
M  V30 3498 C 320.832 1.08999 1.62415 0
M  V30 3499 O 322.038 1.39372 2.32997 0
M  V30 3500 C 320.494 3.50198 0.830025 0
M  V30 3501 C 320.102 4.46765 -0.332461 0
M  V30 3502 C 321.846 3.99526 1.43453 0
M  V30 3503 C 319.753 5.91344 0.0811468 0
M  V30 3504 H 318.683 0.735209 0.167282 0
M  V30 3505 H 321.334 1.81148 -0.292853 0
M  V30 3506 H 319.716 3.61467 1.61734 0
M  V30 3507 H 320.89 4.47231 -1.11 0
M  V30 3508 H 319.205 4.07657 -0.848789 0
M  V30 3509 H 321.802 5.05025 1.75652 0
M  V30 3510 H 322.145 3.44122 2.34277 0
M  V30 3511 H 322.678 3.91393 0.71109 0
M  V30 3512 H 319.417 6.50685 -0.793033 0
M  V30 3513 H 318.937 5.94121 0.823445 0
M  V30 3514 H 320.616 6.44945 0.515252 0
M  V30 3515 N 320.748 -0.0735177 1.57428 0
M  V30 3516 C 322.164 -0.428264 1.53747 0
M  V30 3517 C 322.364 -1.79272 0.91998 0
M  V30 3518 O 321.42 -2.47051 0.521745 0
M  V30 3519 C 322.733 -0.370914 2.98404 0
M  V30 3520 C 324.281 -0.451224 3.0973 0
M  V30 3521 C 324.756 -0.4238 4.56035 0
M  V30 3522 N 326.247 -0.483925 4.60665 0
M  V30 3523 C 326.982 -0.484891 5.71346 0
M  V30 3524 N 326.478 -0.440775 6.91396 0
M  V30 3525 N 328.271 -0.531319 5.59583 0
M  V30 3526 H 320.422 0.819949 1.95935 0
M  V30 3527 H 322.685 0.307493 0.896745 0
M  V30 3528 H 322.391 0.564956 3.47133 0
M  V30 3529 H 322.265 -1.18176 3.5821 0
M  V30 3530 H 324.652 -1.37752 2.60976 0
M  V30 3531 H 324.733 0.388167 2.52838 0
M  V30 3532 H 324.377 0.498638 5.05446 0
M  V30 3533 H 324.307 -1.2807 5.10789 0
M  V30 3534 H 326.798 -0.522338 3.74273 0
M  V30 3535 H 327.111 -0.44539 7.71515 0
M  V30 3536 H 325.456 -0.40749 6.93804 0
M  V30 3537 H 328.647 -0.563464 4.64696 0
M  V30 3538 H 328.82 -0.528603 6.4584 0
M  V30 3539 N 322.226 -1.5378 -0.344866 0
M  V30 3540 C 323.503 -1.61589 -1.10219 0
M  V30 3541 C 323.883 -0.436316 -2.06542 0
M  V30 3542 O 323.231 0.571543 -2.21237 0
M  V30 3543 C 323.441 -2.97602 -1.82301 0
M  V30 3544 C 324.789 -3.5291 -2.36093 0
M  V30 3545 O 325.813 -2.99768 -1.924 0
M  V30 3546 O 324.672 -4.45859 -3.16026 0
M  V30 3547 H 321.766 -0.653522 -0.506792 0
M  V30 3548 H 324.312 -1.66126 -0.346465 0
M  V30 3549 H 323.084 -3.74893 -1.12121 0
M  V30 3550 H 322.707 -2.9665 -2.64735 0
M  V30 3551 N 323.704 0.605807 -1.45491 0
M  V30 3552 C 324.934 1.38934 -1.52908 0
M  V30 3553 C 325.342 1.88513 -0.161086 0
M  V30 3554 O 324.685 1.62962 0.847891 0
M  V30 3555 C 324.747 2.62737 -2.45376 0
M  V30 3556 C 324.411 2.34785 -3.92078 0
M  V30 3557 C 325.408 1.95038 -4.8193 0
M  V30 3558 C 323.093 2.47642 -4.37011 0
M  V30 3559 C 325.087 1.68511 -6.14722 0
M  V30 3560 C 322.774 2.20728 -5.69844 0
M  V30 3561 C 323.772 1.81225 -6.58519 0
M  V30 3562 O 323.46 1.54627 -7.88889 0
M  V30 3563 H 323.192 0.431629 -0.520262 0
M  V30 3564 H 325.746 0.74573 -1.91384 0
M  V30 3565 H 323.976 3.29824 -2.01874 0
M  V30 3566 H 325.665 3.24783 -2.43456 0
M  V30 3567 H 326.431 1.84639 -4.48479 0
M  V30 3568 H 322.31 2.77356 -3.68232 0
M  V30 3569 H 325.854 1.37602 -6.83894 0
M  V30 3570 H 321.751 2.30744 -6.02849 0
M  V30 3571 H 322.519 1.68665 -8.00933 0
M  V30 3572 N 325.182 1.32811 0.848464 0
M  V30 3573 C 326.112 1.24882 1.97299 0
M  V30 3574 C 327.093 0.131357 1.69592 0
M  V30 3575 O 328.278 0.319553 1.91553 0
M  V30 3576 C 325.408 0.97746 3.33261 0
M  V30 3577 C 324.362 2.05682 3.75338 0
M  V30 3578 C 323.688 1.63777 5.09 0
M  V30 3579 C 324.988 3.47254 3.90144 0
M  V30 3580 H 326.682 2.18966 2.04191 0
M  V30 3581 H 324.228 1.05413 0.981029 0
M  V30 3582 H 326.181 0.908513 4.1149 0
M  V30 3583 H 324.905 0.000980011 3.266 0
M  V30 3584 H 323.564 2.11603 2.99366 0
M  V30 3585 H 323.212 0.648569 4.98801 0
M  V30 3586 H 322.912 2.36 5.38124 0
M  V30 3587 H 324.436 1.5833 5.89715 0
M  V30 3588 H 325.85 3.43888 4.58709 0
M  V30 3589 H 324.247 4.1788 4.30693 0
M  V30 3590 H 325.317 3.86462 2.92874 0
M  V30 3591 N 326.66 -1.06551 1.16123 0
M  V30 3592 C 327.57 -2.17484 0.879662 0
M  V30 3593 C 328.586 -1.73377 -0.147104 0
M  V30 3594 O 329.762 -2.01379 0.0289128 0
M  V30 3595 C 326.827 -3.44591 0.381829 0
M  V30 3596 C 325.888 -4.0322 1.4735 0
M  V30 3597 C 325.121 -5.24261 0.999324 0
M  V30 3598 O 325.344 -5.70198 -0.151957 0
M  V30 3599 O 324.278 -5.74775 1.78653 0
M  V30 3600 H 328.104 -2.44075 1.80724 0
M  V30 3601 H 325.689 -1.16042 0.940992 0
M  V30 3602 H 327.571 -4.21254 0.111053 0
M  V30 3603 H 326.246 -3.19532 -0.51777 0
M  V30 3604 H 325.153 -3.2806 1.79798 0
M  V30 3605 H 326.486 -4.32568 2.34831 0
M  V30 3606 N 328.138 -0.959301 -1.25041 0
M  V30 3607 C 329.415 -0.533805 -1.88175 0
M  V30 3608 C 329.795 0.988994 -1.865 0
M  V30 3609 O 329.143 1.85677 -1.33177 0
M  V30 3610 C 329.353 -1.11575 -3.30684 0
M  V30 3611 C 330.701 -1.19548 -4.07423 0
M  V30 3612 O 331.725 -1.06765 -3.39823 0
M  V30 3613 O 330.584 -1.39656 -5.28354 0
M  V30 3614 H 327.678 -0.176772 -0.807887 0
M  V30 3615 H 330.224 -1.05303 -1.33076 0
M  V30 3616 H 328.996 -2.15884 -3.26358 0
M  V30 3617 H 328.619 -0.580059 -3.93346 0
M  V30 3618 N 329.616 1.39756 -0.72842 0
M  V30 3619 C 330.548 2.29157 -0.0446202 0
M  V30 3620 C 331.561 1.46484 0.710367 0
M  V30 3621 O 332.75 1.69632 0.55562 0
M  V30 3622 C 329.85 3.24987 0.961071 0
M  V30 3623 C 329.023 4.36572 0.268967 0
M  V30 3624 C 328.082 5.12756 1.18184 0
M  V30 3625 O 327.108 5.6534 0.661794 0
M  V30 3626 N 328.31 5.23331 2.51206 0
M  V30 3627 H 331.075 2.88482 -0.812295 0
M  V30 3628 H 328.636 1.51265 -0.577098 0
M  V30 3629 H 330.628 3.72827 1.57423 0
M  V30 3630 H 329.198 2.66739 1.63 0
M  V30 3631 H 328.418 3.90694 -0.524574 0
M  V30 3632 H 329.706 5.08363 -0.210934 0
M  V30 3633 H 329.104 4.82116 2.9594 0
M  V30 3634 H 327.661 5.74634 3.07634 0
M  V30 3635 N 331.094 0.475555 1.50254 0
M  V30 3636 C 332.026 -0.352649 2.26471 0
M  V30 3637 C 333.039 -0.953165 1.3198 0
M  V30 3638 O 334.228 -0.840815 1.57457 0
M  V30 3639 C 331.328 -1.50902 3.0345 0
M  V30 3640 C 330.501 -1.02047 4.25329 0
M  V30 3641 C 329.56 -2.05142 4.84565 0
M  V30 3642 O 328.586 -1.63023 5.45355 0
M  V30 3643 N 329.788 -3.37987 4.71959 0
M  V30 3644 H 332.553 0.300767 2.98187 0
M  V30 3645 H 330.114 0.306598 1.5897 0
M  V30 3646 H 332.106 -2.19572 3.39956 0
M  V30 3647 H 330.676 -2.06705 2.34504 0
M  V30 3648 H 329.896 -0.159507 3.93877 0
M  V30 3649 H 331.184 -0.672061 5.04342 0
M  V30 3650 H 330.582 -3.74913 4.23623 0
M  V30 3651 H 329.139 -4.02443 5.12721 0
M  V30 3652 N 332.573 -1.56217 0.208337 0
M  V30 3653 C 333.821 -1.97558 -0.426076 0
M  V30 3654 C 334.142 -1.09683 -1.61229 0
M  V30 3655 O 333.412 -0.170956 -1.95153 0
M  V30 3656 H 331.992 -0.729575 -0.160405 0
M  V30 3657 H 334.654 -1.92606 0.298155 0
M  V30 3658 H 333.75 -3.02672 -0.761312 0
M  V30 3659 N 334.051 0.0651679 -1.57465 0
M  V30 3660 C 335.299 0.761555 -1.87202 0
M  V30 3661 C 335.62 1.77778 -0.801243 0
M  V30 3662 O 334.89 1.95166 0.16937 0
M  V30 3663 H 333.47 0.284251 -0.690804 0
M  V30 3664 H 336.132 0.0396827 -1.9486 0
M  V30 3665 H 335.228 1.27365 -2.84929 0
M  V30 3666 N 335.529 1.53961 0.336706 0
M  V30 3667 C 336.945 1.44378 0.680241 0
M  V30 3668 C 337.145 0.606034 1.9217 0
M  V30 3669 O 336.201 0.099688 2.52303 0
M  V30 3670 C 337.514 2.87945 0.8665 0
M  V30 3671 C 339.062 2.97763 0.964682 0
M  V30 3672 C 339.537 4.42453 1.18321 0
M  V30 3673 N 341.028 4.46008 1.25025 0
M  V30 3674 C 341.763 5.55102 1.43697 0
M  V30 3675 N 341.259 6.7419 1.59498 0
M  V30 3676 N 343.052 5.42727 1.463 0
M  V30 3677 H 335.203 2.06918 -0.479455 0
M  V30 3678 H 337.466 0.935634 -0.152619 0
M  V30 3679 H 337.172 3.51691 0.0256937 0
M  V30 3680 H 337.046 3.33293 1.76623 0
M  V30 3681 H 339.433 2.34153 1.796 0
M  V30 3682 H 339.514 2.55766 0.041708 0
M  V30 3683 H 339.158 5.06645 0.356788 0
M  V30 3684 H 339.088 4.82048 2.11985 0
M  V30 3685 H 341.579 3.60196 1.14312 0
M  V30 3686 H 341.892 7.53095 1.734 0
M  V30 3687 H 340.237 6.77123 1.56621 0
M  V30 3688 H 343.428 4.48647 1.33543 0
M  V30 3689 H 343.601 6.27806 1.6051 0
M  V30 3690 N 337.007 -0.598083 1.45811 0
M  V30 3691 C 337.917 -1.73632 1.57763 0
M  V30 3692 C 338.933 -1.67763 0.461676 0
M  V30 3693 O 340.109 -1.87949 0.723685 0
M  V30 3694 C 337.174 -3.10114 1.55018 0
M  V30 3695 C 336.235 -3.27364 2.77726 0
M  V30 3696 C 335.468 -4.57334 2.75102 0
M  V30 3697 O 335.691 -5.40258 1.8297 0
M  V30 3698 O 334.625 -4.77502 3.66437 0
M  V30 3699 H 338.451 -1.66498 2.53992 0
M  V30 3700 H 336.036 -0.763308 1.28429 0
M  V30 3701 H 337.918 -3.9141 1.56129 0
M  V30 3702 H 336.593 -3.17718 0.619431 0
M  V30 3703 H 335.5 -2.45619 2.82174 0
M  V30 3704 H 336.833 -3.24641 3.69958 0
M  V30 3705 N 338.485 -1.33259 -0.841409 0
M  V30 3706 C 339.732 -1.24572 -1.5965 0
M  V30 3707 C 340.06 0.189137 -1.93578 0
M  V30 3708 O 339.315 1.14566 -1.5866 0
M  V30 3709 C 339.614 -2.06381 -2.9179 0
M  V30 3710 C 339.28 -3.556 -2.77235 0
M  V30 3711 C 337.942 -3.96282 -2.72973 0
M  V30 3712 C 340.294 -4.50433 -2.62221 0
M  V30 3713 C 337.622 -5.30017 -2.51592 0
M  V30 3714 C 339.974 -5.84327 -2.42374 0
M  V30 3715 C 338.638 -6.24194 -2.36512 0
M  V30 3716 H 337.908 -0.455842 -0.5842 0
M  V30 3717 H 340.555 -1.6482 -0.975016 0
M  V30 3718 H 338.86 -1.58903 -3.5813 0
M  V30 3719 H 340.557 -1.97019 -3.49263 0
M  V30 3720 H 337.147 -3.23298 -2.81384 0
M  V30 3721 H 341.331 -4.19914 -2.64549 0
M  V30 3722 H 336.587 -5.59947 -2.45499 0
M  V30 3723 H 340.761 -6.57414 -2.29739 0
M  V30 3724 H 338.388 -7.27759 -2.19706 0
M  V30 3725 N 339.963 1.05934 -1.16686 0
M  V30 3726 C 341.209 1.79211 -0.962023 0
M  V30 3727 C 341.564 1.85667 0.504545 0
M  V30 3728 O 340.857 1.33991 1.36956 0
M  V30 3729 C 341.051 3.23105 -1.52767 0
M  V30 3730 C 340.88 3.30673 -3.04771 0
M  V30 3731 C 339.65 3.40395 -3.73442 0
M  V30 3732 C 341.848 3.20234 -4.02436 0
M  V30 3733 N 339.83 3.37015 -5.13122 0
M  V30 3734 C 341.201 3.24138 -5.28521 0
M  V30 3735 C 343.256 3.04143 -3.9421 0
M  V30 3736 C 341.959 3.13607 -6.47336 0
M  V30 3737 C 343.985 2.94951 -5.12599 0
M  V30 3738 C 343.347 2.99481 -6.37566 0
M  V30 3739 H 339.446 0.668442 -0.405844 0
M  V30 3740 H 342.03 1.26341 -1.48142 0
M  V30 3741 H 340.201 3.74364 -1.03471 0
M  V30 3742 H 341.933 3.84579 -1.26021 0
M  V30 3743 H 338.688 3.45344 -3.2409 0
M  V30 3744 H 339.112 3.38815 -5.86117 0
M  V30 3745 H 343.754 2.99484 -2.98445 0
M  V30 3746 H 341.472 3.17022 -7.43319 0
M  V30 3747 H 345.058 2.83583 -5.08008 0
M  V30 3748 H 343.938 2.92431 -7.27636 0
M  V30 3749 N 341.441 0.965919 1.2453 0
M  V30 3750 C 342.852 0.665929 1.7442 0
M  V30 3751 C 343.203 -0.818407 1.78316 0
M  V30 3752 O 342.328 -1.64037 1.41141 0
M  V30 3753 C 342.923 1.20211 3.16757 0
M  V30 3754 C 341.482 0.952059 3.6416 0
M  V30 3755 C 340.629 1.33848 2.42858 0
M  V30 3756 H 343.58 1.14144 1.10258 0
M  V30 3757 H 343.601 0.567544 3.76244 0
M  V30 3758 H 343.113 2.28244 3.13889 0
M  V30 3759 H 341.214 -0.112821 3.72429 0
M  V30 3760 H 341.327 1.59645 4.51719 0
M  V30 3761 H 339.691 0.756864 2.43195 0
M  V30 3762 H 340.474 2.42827 2.42673 0
M  V30 3763 N 342.919 -1.39368 0.735821 0
M  V30 3764 C 343.851 -2.2913 0.0567723 0
M  V30 3765 C 344.864 -1.46859 -0.702589 0
M  V30 3766 O 346.053 -1.69925 -0.546616 0
M  V30 3767 C 343.153 -3.25492 -0.943823 0
M  V30 3768 C 342.326 -4.36709 -0.24581 0
M  V30 3769 C 341.385 -5.13376 -1.15463 0
M  V30 3770 O 340.411 -5.65683 -0.631803 0
M  V30 3771 N 341.613 -5.24656 -2.48427 0
M  V30 3772 H 344.378 -2.88047 0.827582 0
M  V30 3773 H 341.939 -1.50957 0.585112 0
M  V30 3774 H 343.931 -3.73657 -1.55443 0
M  V30 3775 H 342.501 -2.676 -1.61583 0
M  V30 3776 H 341.721 -3.9041 0.545286 0
M  V30 3777 H 343.009 -5.08244 0.237891 0
M  V30 3778 H 342.407 -4.83679 -2.93379 0
M  V30 3779 H 340.964 -5.76258 -3.04582 0
M  V30 3780 N 344.397 -0.483516 -1.5 0
M  V30 3781 C 345.307 0.309172 -2.32554 0
M  V30 3782 C 346.323 0.984159 -1.43493 0
M  V30 3783 O 347.499 0.969399 -1.76535 0
M  V30 3784 C 344.564 1.36979 -3.18493 0
M  V30 3785 C 343.625 0.710095 -4.23387 0
M  V30 3786 C 342.858 1.72018 -5.05218 0
M  V30 3787 O 343.081 2.94813 -4.88305 0
M  V30 3788 O 342.015 1.28515 -5.8802 0
M  V30 3789 H 345.841 -0.366064 -3.01486 0
M  V30 3790 H 343.426 -0.24514 -1.47375 0
M  V30 3791 H 345.308 1.98385 -3.71781 0
M  V30 3792 H 343.983 2.02828 -2.52275 0
M  V30 3793 H 342.89 0.0567539 -3.74057 0
M  V30 3794 H 344.223 0.0943557 -4.9211 0
M  V30 3795 N 345.875 1.56104 -0.216619 0
M  V30 3796 C 347.121 1.98466 0.417033 0
M  V30 3797 C 347.454 1.10403 1.59765 0
M  V30 3798 O 346.729 0.160632 1.93836 0
M  V30 3799 C 347.012 3.49769 0.85637 0
M  V30 3800 C 346.865 4.48606 -0.327546 0
M  V30 3801 C 348.184 4.05339 1.7143 0
M  V30 3802 H 345.303 0.721551 0.150112 0
M  V30 3803 H 347.945 1.87423 -0.311864 0
M  V30 3804 H 346.095 3.5931 1.47745 0
M  V30 3805 H 347.767 4.5108 -0.965618 0
M  V30 3806 H 346.01 4.22682 -0.975805 0
M  V30 3807 H 346.681 5.51995 0.0227149 0
M  V30 3808 H 349.157 3.98712 1.19031 0
M  V30 3809 H 348.033 5.11533 1.99061 0
M  V30 3810 H 348.294 3.51918 2.67593 0
M  V30 3811 N 347.353 -0.0568162 1.57498 0
M  V30 3812 C 348.599 -0.748893 1.89111 0
M  V30 3813 C 348.954 -1.74422 0.81208 0
M  V30 3814 O 348.247 -1.90731 -0.182247 0
M  V30 3815 C 348.441 -1.48359 3.25153 0
M  V30 3816 C 348.27 -0.560924 4.46188 0
M  V30 3817 C 347.04 -0.192264 5.04934 0
M  V30 3818 C 349.238 0.148824 5.14085 0
M  V30 3819 N 347.22 0.734555 6.0949 0
M  V30 3820 C 348.591 0.932286 6.12951 0
M  V30 3821 C 350.646 0.218713 4.97419 0
M  V30 3822 C 349.349 1.77917 6.96949 0
M  V30 3823 C 351.375 1.05262 5.81957 0
M  V30 3824 C 350.737 1.82409 6.80372 0
M  V30 3825 H 346.836 -0.249002 0.741298 0
M  V30 3826 H 349.42 -0.00984926 1.94698 0
M  V30 3827 H 347.591 -2.19326 3.20547 0
M  V30 3828 H 349.323 -2.12586 3.44368 0
M  V30 3829 H 346.078 -0.548421 4.70414 0
M  V30 3830 H 346.502 1.19165 6.6643 0
M  V30 3831 H 351.144 -0.363407 4.21235 0
M  V30 3832 H 348.862 2.3722 7.72497 0
M  V30 3833 H 352.448 1.10987 5.71116 0
M  V30 3834 H 351.328 2.45895 7.44651 0
M  V30 3835 N 348.832 -1.54138 -0.328536 0
M  V30 3836 C 350.057 -1.76378 -1.09112 0
M  V30 3837 C 350.482 -0.508596 -1.81094 0
M  V30 3838 O 349.84 0.539598 -1.73084 0
M  V30 3839 C 349.888 -2.95358 -2.06872 0
M  V30 3840 O 348.992 -2.66556 -3.14677 0
M  V30 3841 H 348.333 -0.584614 -0.314838 0
M  V30 3842 H 350.863 -2.01146 -0.374348 0
M  V30 3843 H 350.873 -3.22566 -2.4983 0
M  V30 3844 H 349.548 -3.86385 -1.5388 0
M  V30 3845 H 348.125 -2.50282 -2.7643 0
M  V30 3846 N 350.31 0.590341 -1.46126 0
M  V30 3847 C 351.726 0.912917 -1.30912 0
M  V30 3848 C 351.926 1.99616 -0.274893 0
M  V30 3849 O 350.982 2.50397 0.325197 0
M  V30 3850 C 352.295 1.3375 -2.69317 0
M  V30 3851 C 353.843 1.45077 -2.77348 0
M  V30 3852 C 354.318 1.90904 -4.16317 0
M  V30 3853 N 355.809 1.9811 -4.18696 0
M  V30 3854 C 356.544 2.34828 -5.23109 0
M  V30 3855 N 356.04 2.70393 -6.37856 0
M  V30 3856 N 357.833 2.35317 -5.10473 0
M  V30 3857 H 349.984 -0.125358 -2.1203 0
M  V30 3858 H 352.247 0.00658481 -0.947977 0
M  V30 3859 H 351.953 0.615614 -3.4627 0
M  V30 3860 H 351.827 2.30058 -2.9892 0
M  V30 3861 H 354.214 2.16353 -2.00687 0
M  V30 3862 H 354.295 0.4704 -2.51438 0
M  V30 3863 H 353.939 1.20209 -4.9347 0
M  V30 3864 H 353.869 2.89886 -4.39629 0
M  V30 3865 H 356.36 1.73146 -3.359 0
M  V30 3866 H 356.673 2.97341 -7.13308 0
M  V30 3867 H 355.018 2.68048 -6.41229 0
M  V30 3868 H 358.209 2.0695 -4.19868 0
M  V30 3869 H 358.382 2.63605 -5.9196 0
M  V30 3870 N 351.788 1.33704 0.83433 0
M  V30 3871 C 353.018 1.28281 1.6195 0
M  V30 3872 C 353.426 -0.147603 1.88623 0
M  V30 3873 O 352.769 -1.1016 1.47005 0
M  V30 3874 C 352.831 1.99386 2.99141 0
M  V30 3875 C 352.495 3.48681 2.95416 0
M  V30 3876 C 353.492 4.438 2.70809 0
M  V30 3877 C 351.177 3.90925 3.15409 0
M  V30 3878 C 353.171 5.79138 2.66229 0
M  V30 3879 C 350.858 5.26366 3.10454 0
M  V30 3880 C 351.856 6.20284 2.85895 0
M  V30 3881 O 351.544 7.53245 2.80852 0
M  V30 3882 H 351.276 0.44315 0.510484 0
M  V30 3883 H 353.83 1.76711 1.04702 0
M  V30 3884 H 352.06 1.45554 3.58261 0
M  V30 3885 H 353.749 1.87403 3.60049 0
M  V30 3886 H 354.515 4.12485 2.5511 0
M  V30 3887 H 350.394 3.18229 3.33543 0
M  V30 3888 H 353.938 6.52416 2.4698 0
M  V30 3889 H 349.835 5.57304 3.25703 0
M  V30 3890 H 350.603 7.62846 2.96661 0
M  V30 3891 N 353.266 -1.05314 1.17247 0
M  V30 3892 C 354.512 -1.78557 0.961513 0
M  V30 3893 C 354.845 -1.87419 -0.508697 0
M  V30 3894 O 354.12 -1.37307 -1.37757 0
M  V30 3895 C 354.403 -3.22514 1.60176 0
M  V30 3896 C 354.256 -3.21673 3.14399 0
M  V30 3897 C 355.575 -4.20318 1.30463 0
M  V30 3898 H 352.694 -0.6482 0.350723 0
M  V30 3899 H 355.336 -1.23102 1.44727 0
M  V30 3900 H 353.486 -3.69867 1.18871 0
M  V30 3901 H 355.158 -2.82405 3.64753 0
M  V30 3902 H 353.401 -2.60048 3.47214 0
M  V30 3903 H 354.072 -4.23271 3.54324 0
M  V30 3904 H 356.548 -3.81454 1.66229 0
M  V30 3905 H 355.424 -5.19289 1.77848 0
M  V30 3906 H 355.685 -4.41526 0.22521 0
M  V30 3907 N 354.744 -0.972509 -1.24016 0
M  V30 3908 C 355.691 -0.505969 -2.25186 0
M  V30 3909 C 356.661 0.451009 -1.5986 0
M  V30 3910 O 357.846 0.360307 -1.87367 0
M  V30 3911 C 354.986 0.193089 -3.44559 0
M  V30 3912 C 354.099 -0.803222 -4.24467 0
M  V30 3913 C 353.234 -0.0797793 -5.3114 0
M  V30 3914 C 352.273 -1.06583 -6.02749 0
M  V30 3915 N 351.41 -0.372074 -7.01113 0
M  V30 3916 H 356.25 -1.37351 -2.64459 0
M  V30 3917 H 353.787 -0.688419 -1.29997 0
M  V30 3918 H 355.745 0.615125 -4.1264 0
M  V30 3919 H 354.375 1.02455 -3.06109 0
M  V30 3920 H 353.427 -1.34368 -3.55878 0
M  V30 3921 H 354.739 -1.55494 -4.73944 0
M  V30 3922 H 353.893 0.400015 -6.0538 0
M  V30 3923 H 352.632 0.704597 -4.82583 0
M  V30 3924 H 351.637 -1.55645 -5.27309 0
M  V30 3925 H 352.862 -1.85074 -6.53395 0
M  V30 3926 H 350.808 0.393238 -6.5482 0
M  V30 3927 H 350.725 -1.06258 -7.48495 0
M  V30 3928 H 351.993 0.0855932 -7.79453 0
M  V30 3929 N 356.222 1.38976 -0.743202 0
M  V30 3930 C 357.169 2.30544 -0.10861 0
M  V30 3931 C 358.139 1.49642 0.720869 0
M  V30 3932 O 359.324 1.78304 0.679142 0
M  V30 3933 C 356.464 3.36018 0.786496 0
M  V30 3934 C 355.577 4.31963 -0.0564849 0
M  V30 3935 C 354.712 5.24506 0.840657 0
M  V30 3936 C 353.751 6.121 -0.00658363 0
M  V30 3937 N 352.888 6.96973 0.846943 0
M  V30 3938 H 357.728 2.8424 -0.895088 0
M  V30 3939 H 355.265 1.3995 -0.453048 0
M  V30 3940 H 357.223 3.95768 1.31999 0
M  V30 3941 H 355.853 2.83758 1.53887 0
M  V30 3942 H 354.905 3.73763 -0.707492 0
M  V30 3943 H 356.217 4.93703 -0.711229 0
M  V30 3944 H 355.371 5.89322 1.4417 0
M  V30 3945 H 354.11 4.63107 1.52916 0
M  V30 3946 H 353.115 5.46289 -0.620366 0
M  V30 3947 H 354.34 6.75565 -0.691992 0
M  V30 3948 H 352.286 6.38133 1.52059 0
M  V30 3949 H 352.203 7.5559 0.248864 0
M  V30 3950 H 353.471 7.6621 1.43328 0
M  V30 3951 N 357.7 0.491464 1.49741 0
M  V30 3952 C 358.63 -0.28154 2.31796 0
M  V30 3953 C 359.611 -0.971473 1.3963 0
M  V30 3954 O 360.796 -0.964719 1.68543 0
M  V30 3955 C 357.926 -1.35203 3.19902 0
M  V30 3956 C 356.88 -0.782529 4.20786 0
M  V30 3957 C 356.206 -1.95283 4.97764 0
M  V30 3958 C 357.506 0.21999 5.21837 0
M  V30 3959 H 359.2 0.403355 2.96671 0
M  V30 3960 H 356.746 0.195425 1.42668 0
M  V30 3961 H 358.699 -1.90045 3.76113 0
M  V30 3962 H 357.423 -2.06598 2.52953 0
M  V30 3963 H 356.082 -0.255928 3.65706 0
M  V30 3964 H 355.73 -2.65423 4.2727 0
M  V30 3965 H 355.43 -1.57789 5.66018 0
M  V30 3966 H 356.954 -2.50577 5.56816 0
M  V30 3967 H 358.368 -0.23996 5.72798 0
M  V30 3968 H 356.765 0.51026 5.97927 0
M  V30 3969 H 357.835 1.13911 4.7133 0
M  V30 3970 N 359.178 -1.55987 0.224894 0
M  V30 3971 C 360.426 -1.97998 -0.405099 0
M  V30 3972 C 360.747 -1.11387 -1.60056 0
M  V30 3973 O 360.017 -0.191645 -1.9496 0
M  V30 3974 H 358.597 -0.731235 -0.152658 0
M  V30 3975 H 361.259 -1.92279 0.318567 0
M  V30 3976 H 360.355 -3.03463 -0.729167 0
M  V30 3977 N 360.656 0.0484629 -1.57525 0
M  V30 3978 C 361.933 0.777447 -1.79486 0
M  V30 3979 C 362.313 1.94597 -0.818251 0
M  V30 3980 O 361.661 2.28047 0.143767 0
M  V30 3981 C 361.871 1.22864 -3.26658 0
M  V30 3982 C 363.219 1.65251 -3.91123 0
M  V30 3983 O 364.243 1.32372 -3.3069 0
M  V30 3984 O 363.102 2.26207 -4.97486 0
M  V30 3985 H 360.196 0.374357 -0.737419 0
M  V30 3986 H 362.742 0.0267359 -1.69679 0
M  V30 3987 H 361.514 0.393589 -3.89316 0
M  V30 3988 H 361.137 2.03996 -3.41279 0
M  V30 3989 N 362.134 1.5431 0.320358 0
M  V30 3990 C 363.381 1.72668 1.05792 0
M  V30 3991 C 363.709 0.502084 1.87908 0
M  V30 3992 O 362.964 -0.516149 1.88771 0
M  V30 3993 C 363.263 2.95639 2.00828 0
M  V30 3994 C 362.929 4.30265 1.34843 0
M  V30 3995 C 361.591 4.66865 1.16578 0
M  V30 3996 C 363.943 5.13801 0.875095 0
M  V30 3997 C 361.271 5.84597 0.496336 0
M  V30 3998 C 363.623 6.32219 0.219463 0
M  V30 3999 C 362.287 6.67495 0.0246915 0
M  V30 4000 H 361.557 0.631837 0.387121 0
M  V30 4001 H 364.204 1.88552 0.334735 0
M  V30 4002 H 362.509 2.74456 2.79609 0
M  V30 4003 H 364.206 3.07038 2.57932 0
M  V30 4004 H 360.796 4.01472 1.50061 0
M  V30 4005 H 364.98 4.86039 1.00398 0
M  V30 4006 H 360.236 6.10486 0.334264 0
M  V30 4007 H 364.41 6.96227 -0.155291 0
M  V30 4008 H 362.037 7.5858 -0.496065 0
M  V30 4009 N 363.613 -0.582584 1.46437 0
M  V30 4010 C 364.576 -1.67366 1.56592 0
M  V30 4011 C 365.576 -1.54575 0.443072 0
M  V30 4012 O 366.766 -1.59191 0.707381 0
M  V30 4013 C 363.898 -3.06791 1.48634 0
M  V30 4014 H 365.091 -1.5972 2.5383 0
M  V30 4015 H 362.644 -0.800432 1.34249 0
M  V30 4016 H 363.379 -3.19993 0.526763 0
M  V30 4017 H 363.164 -3.17484 2.30101 0
M  V30 4018 H 364.654 -3.86218 1.58826 0
M  V30 4019 N 365.091 -1.34144 -0.827227 0
M  V30 4020 C 366.038 -1.25364 -1.93785 0
M  V30 4021 C 367.008 -0.129774 -1.65592 0
M  V30 4022 O 368.193 -0.310024 -1.88264 0
M  V30 4023 C 365.333 -1.01064 -3.2997 0
M  V30 4024 C 364.446 -2.22185 -3.70484 0
M  V30 4025 C 363.581 -1.91203 -4.95595 0
M  V30 4026 C 362.62 -3.08491 -5.28677 0
M  V30 4027 N 361.757 -2.77421 -6.44967 0
M  V30 4028 H 366.597 -2.20347 -2.00627 0
M  V30 4029 H 364.134 -1.09558 -0.981608 0
M  V30 4030 H 366.092 -0.850139 -4.08446 0
M  V30 4031 H 364.722 -0.0975026 -3.22653 0
M  V30 4032 H 363.774 -2.4917 -2.87434 0
M  V30 4033 H 365.086 -3.0983 -3.90905 0
M  V30 4034 H 364.24 -1.71864 -5.81848 0
M  V30 4035 H 362.979 -1.00812 -4.77167 0
M  V30 4036 H 361.984 -3.28431 -4.40923 0
M  V30 4037 H 363.209 -3.99655 -5.49047 0
M  V30 4038 H 361.155 -1.89601 -6.28003 0
M  V30 4039 H 361.072 -3.58598 -6.6554 0
M  V30 4040 H 362.34 -2.61577 -7.34301 0
M  V30 4041 N 366.569 1.04691 -1.17803 0
M  V30 4042 C 367.98 1.59238 -0.974689 0
M  V30 4043 C 368.331 1.90306 0.477292 0
M  V30 4044 O 367.456 1.68846 1.35352 0
M  V30 4045 C 368.051 2.89318 -1.76296 0
M  V30 4046 C 366.61 3.40506 -1.60414 0
M  V30 4047 C 365.757 2.14172 -1.76141 0
M  V30 4048 H 368.708 0.874395 -1.32439 0
M  V30 4049 H 368.729 3.5944 -1.24833 0
M  V30 4050 H 368.241 2.66675 -2.81968 0
M  V30 4051 H 366.342 3.68175 -0.572519 0
M  V30 4052 H 366.455 4.14753 -2.39827 0
M  V30 4053 H 364.819 2.25176 -1.19028 0
M  V30 4054 H 365.602 1.93992 -2.83235 0
M  V30 4055 N 368.047 0.979072 1.23499 0
M  V30 4056 C 368.957 0.526431 2.28617 0
M  V30 4057 C 369.973 -0.418126 1.68901 0
M  V30 4058 O 371.149 -0.288372 1.99325 0
M  V30 4059 C 368.214 -0.165235 3.46306 0
M  V30 4060 C 367.275 0.82056 4.21385 0
M  V30 4061 C 366.508 0.161807 5.33455 0
M  V30 4062 O 366.731 -1.04742 5.60701 0
M  V30 4063 O 365.665 0.859708 5.95729 0
M  V30 4064 H 369.491 1.4006 2.69475 0
M  V30 4065 H 367.076 0.746643 1.29405 0
M  V30 4066 H 368.958 -0.553287 4.17752 0
M  V30 4067 H 367.633 -1.01419 3.07402 0
M  V30 4068 H 366.54 1.25929 3.52268 0
M  V30 4069 H 367.873 1.63828 4.64135 0
M  V30 4070 N 369.525 -1.3858 0.750561 0
M  V30 4071 C 370.473 -2.32339 0.110162 0
M  V30 4072 C 371.467 -1.53864 -0.708674 0
M  V30 4073 O 372.673 -1.69417 -0.608112 0
M  V30 4074 H 369.048 -0.751812 0.0168275 0
M  V30 4075 H 371.019 -2.83959 0.917053 0
M  V30 4076 C 369.768 -3.39043 -0.771067 0
M  V30 4077 H 369.091 -3.99517 -0.150374 0
M  V30 4078 H 370.531 -4.07061 -1.1865 0
M  V30 4079 C 368.99 -2.77365 -1.91234 0
M  V30 4080 O 369.52 -2.66434 -3.00626 0
M  V30 4081 N 367.726 -2.35219 -1.70646 0
M  V30 4082 H 367.273 -2.4431 -0.81673 0
M  V30 4083 H 367.231 -1.94294 -2.47178 0
M  V30 4084 N 371.003 -0.499398 -1.49478 0
M  V30 4085 C 372.252 0.0475259 -2.01644 0
M  V30 4086 C 372.565 1.38195 -1.38425 0
M  V30 4087 O 373.771 2.01547 -1.8191 0
M  V30 4088 C 372.227 0.135164 -3.59646 0
M  V30 4089 C 371.835 -1.19252 -4.31837 0
M  V30 4090 C 373.579 0.632538 -4.19761 0
M  V30 4091 C 371.486 -1.06713 -5.81693 0
M  V30 4092 H 370.416 0.0215349 -0.753692 0
M  V30 4093 H 373.067 -0.638577 -1.7203 0
M  V30 4094 H 371.449 0.885681 -3.85969 0
M  V30 4095 H 372.623 -1.9562 -4.17216 0
M  V30 4096 H 370.938 -1.62321 -3.83459 0
M  V30 4097 H 373.535 0.743833 -5.29501 0
M  V30 4098 H 373.878 1.63098 -3.83021 0
M  V30 4099 H 374.411 -0.0613987 -3.97753 0
M  V30 4100 H 371.15 -2.03979 -6.22955 0
M  V30 4101 H 370.67 -0.344307 -5.98811 0
M  V30 4102 H 372.349 -0.745208 -6.42694 0
M  V30 4103 N 372.481 1.55866 -0.233164 0
M  V30 4104 C 373.758 1.90471 0.444988 0
M  V30 4105 C 374.138 1.15209 1.7689 0
M  V30 4106 O 373.486 0.265119 2.26957 0
M  V30 4107 C 373.696 3.4333 0.626559 0
M  V30 4108 C 375.044 4.14319 0.92871 0
M  V30 4109 O 376.068 3.48993 0.712926 0
M  V30 4110 O 374.927 5.29846 1.33887 0
M  V30 4111 H 372.021 0.792347 0.236885 0
M  V30 4112 H 374.567 1.67437 -0.276211 0
M  V30 4113 H 373.339 3.90095 -0.306822 0
M  V30 4114 H 372.962 3.72181 1.39881 0
M  V30 4115 N 373.959 -0.0401083 1.57549 0
M  V30 4116 C 374.889 -1.04384 2.08869 0
M  V30 4117 C 375.87 -1.38407 0.988817 0
M  V30 4118 O 377.055 -1.47483 1.26342 0
M  V30 4119 C 374.185 -2.34808 2.55895 0
M  V30 4120 C 373.139 -2.15057 3.70047 0
M  V30 4121 C 372.465 -3.51145 4.03239 0
M  V30 4122 C 373.765 -1.54576 4.98902 0
M  V30 4123 H 375.459 -0.616666 2.92981 0
M  V30 4124 H 373.005 -0.295184 1.40942 0
M  V30 4125 H 374.958 -3.05346 2.90417 0
M  V30 4126 H 373.682 -2.79565 1.68853 0
M  V30 4127 H 372.341 -1.46954 3.35857 0
M  V30 4128 H 371.989 -3.93529 3.13279 0
M  V30 4129 H 371.689 -3.38758 4.80122 0
M  V30 4130 H 373.213 -4.23062 4.40285 0
M  V30 4131 H 374.627 -2.15017 5.31451 0
M  V30 4132 H 373.024 -1.52796 5.80322 0
M  V30 4133 H 374.094 -0.51039 4.82206 0
M  V30 4134 N 375.437 -1.54477 -0.31217 0
M  V30 4135 C 376.4 -1.83923 -1.36766 0
M  V30 4136 C 377.4 -0.711563 -1.44199 0
M  V30 4137 O 378.59 -0.979866 -1.44029 0
M  V30 4138 C 375.722 -2.0095 -2.75376 0
M  V30 4139 H 376.915 -2.78239 -1.11906 0
M  V30 4140 H 374.468 -1.46369 -0.548257 0
M  V30 4141 H 375.203 -1.08883 -3.05475 0
M  V30 4142 H 374.988 -2.83018 -2.71373 0
M  V30 4143 H 376.478 -2.2514 -3.51713 0
M  V30 4144 N 376.915 0.57481 -1.46744 0
M  V30 4145 C 378.161 1.3347 -1.52688 0
M  V30 4146 C 378.494 1.93353 -0.181229 0
M  V30 4147 O 377.769 1.76912 0.808237 0
M  V30 4148 C 378.052 2.45811 -2.63152 0
M  V30 4149 C 377.905 1.90912 -4.07275 0
M  V30 4150 C 379.224 3.47822 -2.69644 0
M  V30 4151 H 376.343 0.483935 -0.555856 0
M  V30 4152 H 378.985 0.644968 -1.78718 0
M  V30 4153 H 377.135 3.04646 -2.41088 0
M  V30 4154 H 378.807 1.36473 -4.4065 0
M  V30 4155 H 377.05 1.21691 -4.16382 0
M  V30 4156 H 377.721 2.72042 -4.80309 0
M  V30 4157 H 380.197 2.9888 -2.895 0
M  V30 4158 H 379.073 4.23876 -3.48742 0
M  V30 4159 H 379.334 4.05555 -1.76005 0
M  V30 4160 N 378.394 1.34581 0.820102 0
M  V30 4161 C 379.326 1.22236 1.93884 0
M  V30 4162 C 380.339 0.148776 1.62119 0
M  V30 4163 O 381.528 0.400877 1.7394 0
M  V30 4164 C 378.628 0.856542 3.27897 0
M  V30 4165 C 377.801 2.02569 3.87666 0
M  V30 4166 C 376.86 1.63782 5.00062 0
M  V30 4167 O 375.886 2.35477 5.18208 0
M  V30 4168 N 377.088 0.553611 5.77854 0
M  V30 4169 H 379.853 2.18615 2.05006 0
M  V30 4170 H 377.414 1.27573 0.99683 0
M  V30 4171 H 379.406 0.578806 4.0054 0
M  V30 4172 H 377.976 -0.0171518 3.12595 0
M  V30 4173 H 377.196 2.468 3.07382 0
M  V30 4174 H 378.484 2.80752 4.24329 0
M  V30 4175 H 377.882 -0.0423528 5.65684 0
M  V30 4176 H 376.439 0.335614 6.50935 0
M  V30 4177 N 379.872 -1.04064 1.18357 0
M  V30 4178 C 381.112 -1.78829 0.989921 0
M  V30 4179 C 381.476 -1.86106 -0.472095 0
M  V30 4180 O 382.677 -2.57076 -0.785187 0
M  V30 4181 C 380.948 -3.1823 1.6268 0
M  V30 4182 S 382.507 -4.09332 1.58091 0
M  V30 4183 H 379.325 -0.615754 0.355482 0
M  V30 4184 H 381.927 -1.24778 1.50501 0
M  V30 4185 H 380.631 -3.10543 2.68311 0
M  V30 4186 H 380.162 -3.77357 1.112 0
M  V30 4187 H 382.177 -4.92598 0.596817 0
M  V30 4188 N 381.35 -0.985608 -1.22978 0
M  V30 4189 C 382.28 -0.549649 -2.26939 0
M  V30 4190 C 383.261 0.419803 -1.64838 0
M  V30 4191 O 384.446 0.31203 -1.91677 0
M  V30 4192 C 381.576 0.143652 -3.47003 0
M  V30 4193 C 380.53 -0.743606 -4.21491 0
M  V30 4194 C 379.856 0.0822027 -5.34637 0
M  V30 4195 C 381.156 -2.03694 -4.80943 0
M  V30 4196 H 382.85 -1.41862 -2.63658 0
M  V30 4197 H 380.396 -0.683571 -1.26741 0
M  V30 4198 H 382.349 0.459985 -4.18882 0
M  V30 4199 H 381.073 1.04711 -3.09359 0
M  V30 4200 H 379.732 -1.04347 -3.51436 0
M  V30 4201 H 379.38 0.986359 -4.93234 0
M  V30 4202 H 379.08 -0.508377 -5.85397 0
M  V30 4203 H 380.604 0.392797 -6.09335 0
M  V30 4204 H 382.018 -1.78504 -5.44802 0
M  V30 4205 H 380.415 -2.57573 -5.42011 0
M  V30 4206 H 381.485 -2.72042 -4.01399 0
M  V30 4207 N 382.828 1.3818 -0.7579 0
M  V30 4208 C 383.776 2.32277 -0.122482 0
M  V30 4209 C 384.77 1.54238 0.700505 0
M  V30 4210 O 385.976 1.69737 0.599119 0
M  V30 4211 H 382.351 0.751712 -0.0208143 0
M  V30 4212 H 384.322 2.83469 -0.932099 0
M  V30 4213 C 383.071 3.39447 0.753076 0
M  V30 4214 H 382.394 3.99591 0.129184 0
M  V30 4215 H 383.834 4.07684 1.16489 0
M  V30 4216 C 382.293 2.78375 1.8976 0
M  V30 4217 O 382.823 2.68025 2.99208 0
M  V30 4218 N 381.029 2.36121 1.69397 0
M  V30 4219 H 380.576 2.4474 0.803762 0
M  V30 4220 H 380.534 1.95602 2.46145 0
M  V30 4221 N 384.306 0.507319 1.49211 0
M  V30 4222 C 385.216 -0.272136 2.33016 0
M  V30 4223 C 386.232 -0.961206 1.45041 0
M  V30 4224 O 387.408 -0.941191 1.78055 0
M  V30 4225 C 384.473 -1.31895 3.20631 0
M  V30 4226 C 383.534 -0.642648 4.24463 0
M  V30 4227 C 382.767 -1.63959 5.07891 0
M  V30 4228 O 382.99 -2.87007 4.92933 0
M  V30 4229 O 381.924 -1.19143 5.8999 0
M  V30 4230 H 385.75 0.413982 3.00865 0
M  V30 4231 H 383.335 0.268556 1.46966 0
M  V30 4232 H 385.217 -1.92446 3.7489 0
M  V30 4233 H 383.892 -1.98788 2.5547 0
M  V30 4234 H 382.799 0.00276252 3.741 0
M  V30 4235 H 384.132 -0.0160534 4.92197 0
M  V30 4236 N 385.784 -1.5574 0.241426 0
M  V30 4237 C 386.714 -2.24133 -0.654722 0
M  V30 4238 C 387.695 -1.21974 -1.1856 0
M  V30 4239 O 388.88 -1.50612 -1.22595 0
M  V30 4240 C 386.01 -2.93659 -1.85423 0
M  V30 4241 C 384.964 -4.0246 -1.45636 0
M  V30 4242 C 384.29 -4.59383 -2.73626 0
M  V30 4243 C 385.59 -5.18468 -0.631506 0
M  V30 4244 H 387.284 -2.99281 -0.0844353 0
M  V30 4245 H 384.83 -1.43947 -0.0391707 0
M  V30 4246 H 386.783 -3.40203 -2.48676 0
M  V30 4247 H 385.507 -2.15991 -2.44981 0
M  V30 4248 H 384.166 -3.56676 -0.847202 0
M  V30 4249 H 383.814 -3.78422 -3.3137 0
M  V30 4250 H 383.514 -5.32826 -2.4773 0
M  V30 4251 H 385.038 -5.08658 -3.37786 0
M  V30 4252 H 386.452 -5.61272 -1.1682 0
M  V30 4253 H 384.849 -5.98266 -0.468831 0
M  V30 4254 H 385.919 -4.8358 0.357506 0
M  V30 4255 N 387.262 0.0317525 -1.57568 0
M  V30 4256 C 388.511 0.722131 -1.8833 0
M  V30 4257 C 388.824 1.76664 -0.839587 0
M  V30 4258 O 390.03 2.50942 -1.03635 0
M  V30 4259 C 388.486 1.33544 -3.34207 0
M  V30 4260 C 388.094 0.327415 -4.46802 0
M  V30 4261 C 389.838 2.00585 -3.7412 0
M  V30 4262 C 387.745 0.948915 -5.83738 0
M  V30 4263 H 386.675 0.273466 -0.702661 0
M  V30 4264 H 389.326 -0.0235811 -1.83485 0
M  V30 4265 H 387.708 2.13077 -3.33788 0
M  V30 4266 H 388.882 -0.441006 -4.58685 0
M  V30 4267 H 387.197 -0.240758 -4.15703 0
M  V30 4268 H 389.794 2.47932 -4.73744 0
M  V30 4269 H 390.137 2.82285 -3.05975 0
M  V30 4270 H 390.67 1.27831 -3.76702 0
M  V30 4271 H 387.409 0.171387 -6.55276 0
M  V30 4272 H 386.929 1.68724 -5.7558 0
M  V30 4273 H 388.608 1.45705 -6.3038 0
M  V30 4274 N 388.74 1.54641 0.303973 0
M  V30 4275 C 389.968 1.77768 1.05858 0
M  V30 4276 C 390.383 0.535722 1.8104 0
M  V30 4277 O 389.74 -0.494337 1.75677 0
M  V30 4278 C 389.791 2.9834 2.04146 0
M  V30 4279 O 389.512 4.17736 1.32015 0
M  V30 4280 C 391.013 3.33832 2.91669 0
M  V30 4281 H 388.233 0.592961 0.314067 0
M  V30 4282 H 390.777 2.01583 0.344149 0
M  V30 4283 H 388.932 2.76742 2.71096 0
M  V30 4284 H 389.346 4.85693 1.97998 0
M  V30 4285 H 390.82 4.21448 3.56491 0
M  V30 4286 H 391.297 2.51857 3.59812 0
M  V30 4287 H 391.903 3.57579 2.30254 0
M  V30 4288 N 390.218 -0.567019 1.47046 0
M  V30 4289 C 391.166 -1.69593 1.59188 0
M  V30 4290 C 392.16 -1.63046 0.459609 0
M  V30 4291 O 393.366 -1.6835 0.637058 0
M  V30 4292 H 389.741 -0.560993 0.500791 0
M  V30 4293 H 391.712 -1.56488 2.54075 0
M  V30 4294 C 390.461 -3.07964 1.61411 0
M  V30 4295 H 389.784 -3.13679 2.47881 0
M  V30 4296 H 391.224 -3.86671 1.73958 0
M  V30 4297 C 389.683 -3.35123 0.34559 0
M  V30 4298 O 390.213 -3.97812 -0.557521 0
M  V30 4299 N 388.419 -2.89699 0.22864 0
M  V30 4300 H 387.966 -2.38863 0.964479 0
M  V30 4301 H 387.924 -3.08242 -0.619192 0
M  V30 4302 N 391.696 -1.35014 -0.812953 0
M  V30 4303 C 392.659 -1.27292 -1.90602 0
M  V30 4304 C 393.659 -0.185817 -1.59723 0
M  V30 4305 O 394.849 -0.439102 -1.68575 0
M  V30 4306 C 391.981 -0.967676 -3.26877 0
M  V30 4307 H 393.174 -2.24479 -1.9887 0
M  V30 4308 H 390.727 -1.19446 -1.00808 0
M  V30 4309 H 391.462 0.0005954 -3.243 0
M  V30 4310 H 391.247 -1.75412 -3.50675 0
M  V30 4311 H 392.737 -0.939085 -4.06904 0
M  V30 4312 N 393.175 1.03435 -1.18907 0
M  V30 4313 C 394.105 2.13503 -0.945448 0
M  V30 4314 C 395.086 1.69682 0.119189 0
M  V30 4315 O 396.271 1.94169 -0.034707 0
M  V30 4316 C 393.401 3.44004 -0.477316 0
M  V30 4317 C 392.355 4.0148 -1.48316 0
M  V30 4318 C 391.681 5.27537 -0.872311 0
M  V30 4319 C 392.981 4.36921 -2.86177 0
M  V30 4320 H 394.675 2.34141 -1.86597 0
M  V30 4321 H 392.221 1.12523 -0.898584 0
M  V30 4322 H 394.174 4.20372 -0.294204 0
M  V30 4323 H 392.898 3.23072 0.478786 0
M  V30 4324 H 391.557 3.27201 -1.65332 0
M  V30 4325 H 391.205 5.02917 0.0911752 0
M  V30 4326 H 390.905 5.66954 -1.54393 0
M  V30 4327 H 392.429 6.06576 -0.699871 0
M  V30 4328 H 393.843 5.04248 -2.72776 0
M  V30 4329 H 392.24 4.87405 -3.50081 0
M  V30 4330 H 393.31 3.46466 -3.39248 0
M  V30 4331 N 394.653 0.992116 1.22453 0
M  V30 4332 C 395.603 0.512969 2.22155 0
M  V30 4333 C 396.587 -0.418416 1.55364 0
M  V30 4334 O 397.779 -0.245363 1.75291 0
M  V30 4335 C 394.908 -0.171822 3.4287 0
M  V30 4336 C 393.994 0.779822 4.16869 0
M  V30 4337 N 394.385 1.92734 4.6764 0
M  V30 4338 C 392.683 0.59554 4.42006 0
M  V30 4339 C 393.384 2.52458 5.24061 0
M  V30 4340 N 392.36 1.80735 5.12675 0
M  V30 4341 H 396.162 1.38817 2.5905 0
M  V30 4342 H 393.676 0.854277 1.38115 0
M  V30 4343 H 395.673 -0.532469 4.13486 0
M  V30 4344 H 394.333 -1.04317 3.07487 0
M  V30 4345 H 395.344 2.30816 4.63621 0
M  V30 4346 H 392.021 -0.229805 4.16867 0
M  V30 4347 H 393.411 3.49433 5.73887 0
M  V30 4348 N 396.131 -1.37776 0.765217 0
M  V30 4349 C 397.081 -2.2768 0.12075 0
M  V30 4350 C 398.065 -1.45778 -0.680988 0
M  V30 4351 O 399.257 -1.684 -0.545033 0
M  V30 4352 C 396.386 -3.34722 -0.762626 0
M  V30 4353 C 395.472 -4.24074 0.0465881 0
M  V30 4354 N 395.863 -4.93939 1.08892 0
M  V30 4355 C 394.161 -4.45643 -0.178418 0
M  V30 4356 C 394.862 -5.59845 1.57951 0
M  V30 4357 N 393.838 -5.36218 0.892797 0
M  V30 4358 H 397.64 -2.79166 0.918889 0
M  V30 4359 H 395.154 -1.50816 0.602353 0
M  V30 4360 H 397.151 -3.98031 -1.24005 0
M  V30 4361 H 395.811 -2.84793 -1.55959 0
M  V30 4362 H 396.822 -4.96572 1.47095 0
M  V30 4363 H 393.499 -4.06599 -0.9478 0
M  V30 4364 H 394.889 -6.25703 2.44838 0
M  V30 4365 N 397.609 -0.515225 -1.4894 0
M  V30 4366 C 398.858 0.0261361 -2.01683 0
M  V30 4367 C 399.171 1.36719 -1.39883 0
M  V30 4368 O 400.377 1.99606 -1.84037 0
M  V30 4369 C 398.833 0.0970111 -3.59769 0
M  V30 4370 C 398.441 -1.23825 -4.30548 0
M  V30 4371 C 400.185 0.587981 -4.20408 0
M  V30 4372 C 398.092 -1.12877 -5.80528 0
M  V30 4373 H 397.022 0.0135398 -0.753878 0
M  V30 4374 H 399.673 -0.656787 -1.71343 0
M  V30 4375 H 398.055 0.844694 -3.86886 0
M  V30 4376 H 399.229 -2.00034 -4.15118 0
M  V30 4377 H 397.544 -1.66379 -3.81716 0
M  V30 4378 H 400.141 0.68763 -5.3026 0
M  V30 4379 H 400.484 1.59026 -3.84729 0
M  V30 4380 H 401.017 -0.103582 -3.97665 0
M  V30 4381 H 397.756 -2.10575 -6.20756 0
M  V30 4382 H 397.276 -0.407799 -5.98412 0
M  V30 4383 H 398.955 -0.813332 -6.41868 0
M  V30 4384 N 399.087 1.5561 -0.249682 0
M  V30 4385 C 400.498 1.84979 0.252949 0
M  V30 4386 C 400.849 1.17153 1.57384 0
M  V30 4387 O 399.974 0.450884 2.11651 0
M  V30 4388 C 400.569 3.35584 0.465732 0
M  V30 4389 C 399.128 3.65169 0.912624 0
M  V30 4390 C 398.275 2.77299 -0.00859085 0
M  V30 4391 H 401.226 1.51513 -0.47217 0
M  V30 4392 H 401.247 3.57313 1.30795 0
M  V30 4393 H 400.759 3.8492 -0.49579 0
M  V30 4394 H 398.86 3.21312 1.88652 0
M  V30 4395 H 398.973 4.72912 0.767559 0
M  V30 4396 H 397.337 2.49678 0.50327 0
M  V30 4397 H 398.12 3.29442 -0.965537 0
M  V30 4398 N 400.565 -0.0233959 1.57583 0
M  V30 4399 C 401.842 -0.748794 1.807 0
M  V30 4400 C 402.222 -1.9327 0.849106 0
M  V30 4401 O 401.57 -2.28247 -0.107468 0
M  V30 4402 C 401.78 -1.17651 3.28571 0
M  V30 4403 C 403.128 -1.59008 3.93702 0
M  V30 4404 O 404.152 -1.27094 3.32755 0
M  V30 4405 O 403.011 -2.18264 5.01022 0
M  V30 4406 H 400.105 -0.362578 0.743281 0
M  V30 4407 H 402.651 0.000261958 1.697 0
M  V30 4408 H 401.423 -0.331603 3.89892 0
M  V30 4409 H 401.046 -1.98541 3.44481 0
M  V30 4410 N 402.043 -1.548 -0.295768 0
M  V30 4411 C 403.289 -1.74588 -1.03184 0
M  V30 4412 C 403.622 -0.532962 -1.86744 0
M  V30 4413 O 402.897 0.469872 -1.88739 0
M  V30 4414 C 403.18 -3.03791 -1.93347 0
M  V30 4415 C 403.033 -4.35392 -1.12933 0
M  V30 4416 C 404.352 -3.28892 -2.92435 0
M  V30 4417 H 401.471 -0.635221 -0.373715 0
M  V30 4418 H 404.113 -1.87519 -0.30606 0
M  V30 4419 H 402.263 -2.92898 -2.55232 0
M  V30 4420 H 403.935 -4.58211 -0.532943 0
M  V30 4421 H 402.178 -4.31642 -0.432168 0
M  V30 4422 H 402.849 -5.22074 -1.79284 0
M  V30 4423 H 405.325 -3.39429 -2.4068 0
M  V30 4424 H 404.201 -4.20603 -3.52682 0
M  V30 4425 H 404.462 -2.47437 -3.6637 0
M  V30 4426 N 403.521 0.559213 -1.47345 0
M  V30 4427 C 404.77 1.31281 -1.53128 0
M  V30 4428 C 405.083 1.94602 -0.197344 0
M  V30 4429 O 406.289 2.71173 -0.133154 0
M  V30 4430 C 404.745 2.38051 -2.69925 0
M  V30 4431 C 404.353 1.8093 -4.0984 0
M  V30 4432 C 406.097 3.14604 -2.84999 0
M  V30 4433 C 404.004 2.85468 -5.1794 0
M  V30 4434 H 402.934 0.493614 -0.569966 0
M  V30 4435 H 405.585 0.594155 -1.73615 0
M  V30 4436 H 403.967 3.12822 -2.42814 0
M  V30 4437 H 405.141 1.12544 -4.46845 0
M  V30 4438 H 403.456 1.16967 -3.99634 0
M  V30 4439 H 406.053 3.92666 -3.62929 0
M  V30 4440 H 406.396 3.68665 -1.93369 0
M  V30 4441 H 406.929 2.46945 -3.1187 0
M  V30 4442 H 403.668 2.36264 -6.1144 0
M  V30 4443 H 403.188 3.52269 -4.85455 0
M  V30 4444 H 404.867 3.48996 -5.44803 0
M  V30 4445 N 404.999 1.35443 0.805782 0
M  V30 4446 C 406.227 1.31878 1.59423 0
M  V30 4447 C 406.642 -0.103562 1.88516 0
M  V30 4448 O 405.999 -1.05575 1.48863 0
M  V30 4449 C 406.05 2.12426 2.92502 0
M  V30 4450 O 405.771 3.49115 2.6467 0
M  V30 4451 C 407.272 2.16455 3.86862 0
M  V30 4452 H 404.492 0.453002 0.495005 0
M  V30 4453 H 407.036 1.78309 1.00131 0
M  V30 4454 H 405.191 1.69593 3.48306 0
M  V30 4455 H 405.605 3.90957 3.49647 0
M  V30 4456 H 407.079 2.77204 4.77349 0
M  V30 4457 H 407.556 1.16352 4.23508 0
M  V30 4458 H 408.162 2.59453 3.36993 0
M  V30 4459 N 406.477 -1.02803 1.19454 0
M  V30 4460 C 407.707 -1.79581 1.02149 0
M  V30 4461 C 408.115 -1.84182 -0.432851 0
M  V30 4462 O 407.458 -1.28534 -1.31243 0
M  V30 4463 C 407.52 -3.25993 1.51554 0
M  V30 4464 C 407.184 -3.45025 2.99678 0
M  V30 4465 C 408.181 -3.35175 3.97434 0
M  V30 4466 C 405.866 -3.71212 3.38389 0
M  V30 4467 C 407.86 -3.51238 5.31893 0
M  V30 4468 C 405.547 -3.8692 4.73008 0
M  V30 4469 C 406.545 -3.76936 5.69569 0
M  V30 4470 O 406.233 -3.92179 7.01748 0
M  V30 4471 H 405.965 -0.571962 0.360327 0
M  V30 4472 H 408.519 -1.30367 1.58725 0
M  V30 4473 H 406.749 -3.76235 0.893543 0
M  V30 4474 H 408.438 -3.84368 1.30444 0
M  V30 4475 H 409.204 -3.14895 3.68872 0
M  V30 4476 H 405.083 -3.78075 2.6378 0
M  V30 4477 H 408.627 -3.43362 6.07247 0
M  V30 4478 H 404.524 -4.06699 5.01265 0
M  V30 4479 H 405.292 -4.09265 7.08833 0
M  V30 4480 N 407.956 -0.998596 -1.21925 0
M  V30 4481 C 408.886 -0.573688 -2.26343 0
M  V30 4482 C 409.867 0.402296 -1.65274 0
M  V30 4483 O 411.052 0.291683 -1.91997 0
M  V30 4484 C 408.182 0.106839 -3.47136 0
M  V30 4485 C 407.136 -0.788269 -4.20678 0
M  V30 4486 C 406.462 0.0254927 -5.34694 0
M  V30 4487 C 407.762 -2.08784 -4.78755 0
M  V30 4488 H 409.456 -1.44651 -2.62138 0
M  V30 4489 H 407.002 -0.696975 -1.26009 0
M  V30 4490 H 408.955 0.415531 -4.19346 0
M  V30 4491 H 407.679 1.01424 -3.10452 0
M  V30 4492 H 406.338 -1.08069 -3.50309 0
M  V30 4493 H 405.986 0.933989 -4.94253 0
M  V30 4494 H 405.686 -0.570437 -5.84825 0
M  V30 4495 H 407.21 0.328147 -6.09718 0
M  V30 4496 H 408.624 -1.84272 -5.42878 0
M  V30 4497 H 407.021 -2.63307 -5.39249 0
M  V30 4498 H 408.091 -2.76284 -3.98491 0
M  V30 4499 N 409.434 1.37368 -0.772513 0
M  V30 4500 C 410.659 2.0447 -0.347386 0
M  V30 4501 C 411.084 1.57882 1.0225 0
M  V30 4502 O 410.442 0.73941 1.65537 0
M  V30 4503 C 410.49 3.58369 -0.400479 0
M  V30 4504 O 409.594 4.0803 0.598789 0
M  V30 4505 H 408.935 0.646773 -0.15027 0
M  V30 4506 H 411.465 1.75667 -1.04892 0
M  V30 4507 H 411.475 4.07183 -0.258045 0
M  V30 4508 H 410.15 3.91633 -1.39986 0
M  V30 4509 H 408.727 3.70534 0.419411 0
M  V30 4510 N 410.912 0.523116 1.48665 0
M  V30 4511 C 412.328 0.180511 1.58576 0
M  V30 4512 C 412.528 -1.31597 1.52592 0
M  V30 4513 O 411.584 -2.0937 1.4114 0
M  V30 4514 C 412.897 0.776949 2.90489 0
M  V30 4515 C 414.445 0.745058 3.04003 0
M  V30 4516 C 414.92 1.31995 4.38567 0
M  V30 4517 N 416.411 1.28162 4.45117 0
M  V30 4518 C 417.146 1.6964 5.47731 0
M  V30 4519 N 416.642 2.18816 6.57337 0
M  V30 4520 N 418.435 1.6092 5.38573 0
M  V30 4521 H 410.586 1.4958 1.50797 0
M  V30 4522 H 412.849 0.621772 0.715614 0
M  V30 4523 H 412.555 1.82732 3.00503 0
M  V30 4524 H 412.429 0.25007 3.7637 0
M  V30 4525 H 414.816 -0.296532 2.93606 0
M  V30 4526 H 414.897 1.30933 2.1975 0
M  V30 4527 H 414.541 2.36043 4.49718 0
M  V30 4528 H 414.471 0.731418 5.21496 0
M  V30 4529 H 416.962 0.92155 3.66491 0
M  V30 4530 H 417.275 2.48478 7.31764 0
M  V30 4531 H 415.62 2.22805 6.58318 0
M  V30 4532 H 418.811 1.22304 4.5184 0
M  V30 4533 H 418.984 1.93567 6.18414 0
M  V30 4534 N 412.39 -1.55475 0.257931 0
M  V30 4535 C 413.32 -2.24815 -0.630912 0
M  V30 4536 C 414.301 -1.23224 -1.17259 0
M  V30 4537 O 415.486 -1.51904 -1.20991 0
M  V30 4538 C 412.616 -2.95609 -1.82298 0
M  V30 4539 C 411.57 -4.03982 -1.41359 0
M  V30 4540 C 410.896 -4.6226 -2.68738 0
M  V30 4541 C 412.196 -5.19109 -0.57648 0
M  V30 4542 H 413.89 -2.99354 -0.0526878 0
M  V30 4543 H 411.436 -1.4398 -0.023901 0
M  V30 4544 H 413.389 -3.42822 -2.45054 0
M  V30 4545 H 412.113 -2.18577 -2.42676 0
M  V30 4546 H 410.772 -3.57555 -0.809324 0
M  V30 4547 H 410.42 -3.81915 -3.27338 0
M  V30 4548 H 410.12 -5.35424 -2.42065 0
M  V30 4549 H 411.644 -5.12212 -3.32372 0
M  V30 4550 H 413.058 -5.62479 -1.10861 0
M  V30 4551 H 411.455 -5.98729 -0.405351 0
M  V30 4552 H 412.525 -4.83174 0.408776 0
M  V30 4553 N 413.868 0.0150385 -1.57593 0
M  V30 4554 C 415.284 0.370907 -1.5523 0
M  V30 4555 C 415.484 1.75735 -0.985882 0
M  V30 4556 O 414.54 2.44944 -0.613077 0
M  V30 4557 C 415.853 0.259908 -2.99575 0
M  V30 4558 C 417.401 0.335959 -3.11192 0
M  V30 4559 C 417.876 0.254253 -4.57294 0
M  V30 4560 N 419.367 0.312618 -4.62144 0
M  V30 4561 C 420.102 0.272505 -5.72752 0
M  V30 4562 N 419.598 0.183864 -6.92556 0
M  V30 4563 N 421.391 0.323267 -5.6117 0
M  V30 4564 H 413.542 -0.892104 -1.92757 0
M  V30 4565 H 415.805 -0.340563 -0.884715 0
M  V30 4566 H 415.511 -0.693403 -3.44797 0
M  V30 4567 H 415.385 1.048 -3.62349 0
M  V30 4568 H 417.772 1.27971 -2.65909 0
M  V30 4569 H 417.853 -0.481739 -2.51223 0
M  V30 4570 H 417.497 -0.685887 -5.03247 0
M  V30 4571 H 417.427 1.09024 -5.15191 0
M  V30 4572 H 419.918 0.38307 -3.75953 0
M  V30 4573 H 420.231 0.15874 -7.72637 0
M  V30 4574 H 418.576 0.149708 -6.94839 0
M  V30 4575 H 421.767 0.390607 -4.66467 0
M  V30 4576 H 421.94 0.288539 -6.47357 0
M  V30 4577 N 415.346 1.54954 0.287554 0
M  V30 4578 C 416.294 1.87606 1.37502 0
M  V30 4579 C 417.288 0.751001 1.51843 0
M  V30 4580 O 418.494 0.935169 1.53801 0
M  V30 4581 H 414.869 0.595231 0.459569 0
M  V30 4582 H 416.84 2.78477 1.07206 0
M  V30 4583 C 415.589 2.15183 2.73115 0
M  V30 4584 H 414.912 3.01234 2.62866 0
M  V30 4585 H 416.352 2.4196 3.48183 0
M  V30 4586 C 414.811 0.954686 3.2309 0
M  V30 4587 O 415.341 0.181949 4.01288 0
M  V30 4588 N 413.547 0.756368 2.80584 0
M  V30 4589 H 413.094 1.38643 2.17108 0
M  V30 4590 H 413.052 -0.0430391 3.14371 0
M  V30 4591 N 416.824 -0.551391 1.4764 0
M  V30 4592 C 417.756 -1.67333 1.56628 0
M  V30 4593 C 418.769 -1.56398 0.452045 0
M  V30 4594 O 419.958 -1.6325 0.721926 0
M  V30 4595 C 417.058 -3.05841 1.45994 0
M  V30 4596 C 416.231 -3.42472 2.72088 0
M  V30 4597 C 415.29 -4.60168 2.55209 0
M  V30 4598 O 414.316 -4.64458 3.2904 0
M  V30 4599 N 415.518 -5.57024 1.63416 0
M  V30 4600 H 418.283 -1.60066 2.53375 0
M  V30 4601 H 415.844 -0.738169 1.44093 0
M  V30 4602 H 417.836 -3.8242 1.32428 0
M  V30 4603 H 416.406 -3.07302 0.573071 0
M  V30 4604 H 415.626 -2.55284 3.00373 0
M  V30 4605 H 416.914 -3.63723 3.55785 0
M  V30 4606 H 416.312 -5.56319 1.02594 0
M  V30 4607 H 414.869 -6.32906 1.558 0
M  V30 4608 N 418.302 -1.35869 -0.798587 0
M  V30 4609 C 419.527 -1.32883 -1.59238 0
M  V30 4610 C 419.952 0.0894587 -1.87887 0
M  V30 4611 O 419.31 1.05869 -1.47178 0
M  V30 4612 C 419.358 -2.14892 -2.89575 0
M  V30 4613 O 418.462 -1.53512 -3.82763 0
M  V30 4614 H 417.803 -0.455236 -0.48338 0
M  V30 4615 H 420.333 -1.79024 -0.990539 0
M  V30 4616 H 420.343 -2.27139 -3.38928 0
M  V30 4617 H 419.018 -3.17998 -2.68049 0
M  V30 4618 H 417.595 -1.50153 -3.41334 0
M  V30 4619 N 419.78 1.02168 -1.19998 0
M  V30 4620 C 421.026 1.75945 -1.00852 0
M  V30 4621 C 421.359 1.88702 0.458828 0
M  V30 4622 O 420.634 1.40911 1.34069 0
M  V30 4623 C 420.917 3.18154 -1.68671 0
M  V30 4624 C 420.77 3.13224 -3.22817 0
M  V30 4625 C 422.089 4.16711 -1.41561 0
M  V30 4626 H 419.208 0.638673 -0.367785 0
M  V30 4627 H 421.85 1.19222 -1.4794 0
M  V30 4628 H 420 3.66586 -1.28636 0
M  V30 4629 H 421.672 2.72635 -3.72112 0
M  V30 4630 H 419.915 2.50751 -3.53986 0
M  V30 4631 H 420.586 4.13728 -3.65422 0
M  V30 4632 H 423.062 3.76913 -1.76284 0
M  V30 4633 H 421.938 5.14391 -1.91553 0
M  V30 4634 H 422.199 4.40774 -0.342193 0
M  V30 4635 N 421.258 1.00505 1.21394 0
M  V30 4636 C 422.505 0.687774 1.90462 0
M  V30 4637 C 422.833 -0.78147 1.7811 0
M  V30 4638 O 422.088 -1.58208 1.1519 0
M  V30 4639 C 422.387 1.0546 3.41486 0
M  V30 4640 C 422.053 2.51812 3.74034 0
M  V30 4641 C 420.715 2.91804 3.82628 0
M  V30 4642 C 423.067 3.46614 3.8924 0
M  V30 4643 C 420.395 4.2556 4.03876 0
M  V30 4644 C 422.747 4.80044 4.11995 0
M  V30 4645 C 421.411 5.19759 4.18816 0
M  V30 4646 H 420.681 0.251674 0.696951 0
M  V30 4647 H 423.328 1.26349 1.43903 0
M  V30 4648 H 421.633 0.397133 3.89782 0
M  V30 4649 H 423.33 0.786976 3.93202 0
M  V30 4650 H 419.92 2.1982 3.67936 0
M  V30 4651 H 424.104 3.16883 3.81967 0
M  V30 4652 H 419.36 4.55901 4.07387 0
M  V30 4653 H 423.534 5.53439 4.22704 0
M  V30 4654 H 421.161 6.23418 4.35033 0
M  V30 4655 N 422.737 -1.36956 0.779787 0
M  V30 4656 C 423.685 -2.32053 0.15942 0
M  V30 4657 C 424.679 -1.55333 -0.675878 0
M  V30 4658 O 425.885 -1.70668 -0.57204 0
M  V30 4659 H 422.26 -0.751286 0.0327707 0
M  V30 4660 H 424.231 -2.8195 0.977078 0
M  V30 4661 C 422.98 -3.40602 -0.698977 0
M  V30 4662 H 422.303 -3.99746 -0.0655966 0
M  V30 4663 H 423.743 -4.09486 -1.09989 0
M  V30 4664 C 422.202 -2.81359 -1.85307 0
M  V30 4665 O 422.732 -2.72751 -2.94906 0
M  V30 4666 N 420.938 -2.38786 -1.65619 0
M  V30 4667 H 420.485 -2.45987 -0.764725 0
M  V30 4668 H 420.443 -1.99493 -2.43002 0
M  V30 4669 N 424.215 -0.530993 -1.48385 0
M  V30 4670 C 425.462 0.0027373 -2.025 0
M  V30 4671 C 425.79 1.34186 -1.40799 0
M  V30 4672 O 425.045 1.88 -0.543544 0
M  V30 4673 C 425.344 0.172742 -3.56982 0
M  V30 4674 C 425.01 -1.09215 -4.37473 0
M  V30 4675 C 423.672 -1.43881 -4.59186 0
M  V30 4676 C 426.024 -1.93153 -4.84088 0
M  V30 4677 C 423.352 -2.62381 -5.2476 0
M  V30 4678 C 425.704 -3.10833 -5.50968 0
M  V30 4679 C 424.368 -3.45843 -5.70919 0
M  V30 4680 H 423.638 0.00100165 -0.740999 0
M  V30 4681 H 426.285 -0.697219 -1.78357 0
M  V30 4682 H 424.59 0.955473 -3.79971 0
M  V30 4683 H 426.287 0.600642 -3.96476 0
M  V30 4684 H 422.877 -0.812177 -4.20834 0
M  V30 4685 H 427.061 -1.67683 -4.67115 0
M  V30 4686 H 422.317 -2.89707 -5.38405 0
M  V30 4687 H 426.491 -3.7618 -5.86056 0
M  V30 4688 H 424.118 -4.37764 -6.21503 0
M  V30 4689 N 425.693 1.55336 -0.266172 0
M  V30 4690 C 426.933 2.01303 0.354459 0
M  V30 4691 C 427.297 1.15046 1.53715 0
M  V30 4692 O 428.498 1.50554 2.22681 0
M  V30 4693 C 426.769 3.49748 0.735579 0
M  V30 4694 S 428.328 4.1771 1.34401 0
M  V30 4695 H 425.146 0.702333 0.110674 0
M  V30 4696 H 427.748 1.91653 -0.385916 0
M  V30 4697 H 426.452 4.10181 -0.134196 0
M  V30 4698 H 425.983 3.63364 1.50764 0
M  V30 4699 H 427.998 4.20594 2.63278 0
M  V30 4700 N 427.171 -0.0066808 1.57599 0
M  V30 4701 C 428.134 -0.985035 2.06953 0
M  V30 4702 C 429.134 -1.27663 0.977687 0
M  V30 4703 O 430.324 -1.22293 1.24057 0
M  V30 4704 C 427.456 -2.3118 2.50536 0
M  V30 4705 H 428.649 -0.558255 2.94658 0
M  V30 4706 H 426.202 -0.254011 1.54222 0
M  V30 4707 H 426.937 -2.78561 1.66054 0
M  V30 4708 H 426.722 -2.11338 3.3027 0
M  V30 4709 H 428.212 -3.01377 2.8907 0
M  V30 4710 N 428.649 -1.55105 -0.279332 0
M  V30 4711 C 429.898 -1.74618 -1.00952 0
M  V30 4712 C 430.211 -0.551096 -1.87676 0
M  V30 4713 O 431.417 -0.628507 -2.64125 0
M  V30 4714 C 429.873 -3.09025 -1.84476 0
M  V30 4715 C 429.481 -4.36081 -1.0265 0
M  V30 4716 C 431.225 -3.37891 -2.56963 0
M  V30 4717 C 429.132 -5.6153 -1.85576 0
M  V30 4718 H 428.062 -0.650868 -0.38064 0
M  V30 4719 H 430.713 -1.81569 -0.265475 0
M  V30 4720 H 429.095 -2.96095 -2.62952 0
M  V30 4721 H 430.269 -4.59909 -0.286354 0
M  V30 4722 H 428.584 -4.14312 -0.416464 0
M  V30 4723 H 431.181 -4.28822 -3.19399 0
M  V30 4724 H 431.524 -2.57737 -3.26921 0
M  V30 4725 H 432.057 -3.5189 -1.85522 0
M  V30 4726 H 428.796 -6.44413 -1.2005 0
M  V30 4727 H 428.316 -5.41854 -2.57204 0
M  V30 4728 H 429.995 -5.99594 -2.43096 0
M  V30 4729 N 430.127 0.543554 -1.4793 0
M  V30 4730 C 431.538 1.12561 -1.48953 0
M  V30 4731 C 431.889 1.94578 -0.251754 0
M  V30 4732 O 431.014 2.0665 0.642255 0
M  V30 4733 C 431.609 2.04801 -2.69892 0
M  V30 4734 C 430.168 2.58251 -2.73831 0
M  V30 4735 C 429.315 1.34918 -2.42265 0
M  V30 4736 H 432.266 0.32947 -1.55242 0
M  V30 4737 H 432.287 2.88886 -2.47639 0
M  V30 4738 H 431.799 1.4508 -3.59963 0
M  V30 4739 H 429.9 3.21732 -1.87934 0
M  V30 4740 H 430.013 2.98312 -3.74895 0
M  V30 4741 H 428.377 1.66046 -1.93134 0
M  V30 4742 H 429.16 0.769693 -3.3456 0
M  V30 4743 N 431.605 1.3629 0.791371 0
M  V30 4744 C 432.537 1.26321 1.91248 0
M  V30 4745 C 433.55 0.18313 1.61767 0
M  V30 4746 O 434.739 0.437682 1.73051 0
M  V30 4747 C 431.839 0.925901 3.26007 0
M  V30 4748 C 431.012 2.10746 3.83281 0
M  V30 4749 C 430.071 1.74352 4.96475 0
M  V30 4750 O 429.097 2.46416 5.13096 0
M  V30 4751 N 430.299 0.676058 5.7655 0
M  V30 4752 H 433.064 2.22915 2.00323 0
M  V30 4753 H 430.625 1.29659 0.969546 0
M  V30 4754 H 432.617 0.663636 3.99222 0
M  V30 4755 H 431.187 0.0491581 3.12561 0
M  V30 4756 H 430.407 2.53264 3.02077 0
M  V30 4757 H 431.695 2.8969 4.18279 0
M  V30 4758 H 431.093 0.0776467 5.65647 0
M  V30 4759 H 429.65 0.473612 6.50077 0
M  V30 4760 N 433.083 -1.0153 1.20538 0
M  V30 4761 C 434.329 -1.75408 1.01783 0
M  V30 4762 C 434.662 -1.88943 -0.448814 0
M  V30 4763 O 433.937 -1.4162 -1.33319 0
M  V30 4764 C 434.22 -3.17255 1.70356 0
M  V30 4765 C 434.073 -3.11508 3.24473 0
M  V30 4766 C 435.392 -4.15955 1.43769 0
M  V30 4767 H 432.511 -0.636713 0.371167 0
M  V30 4768 H 435.153 -1.18436 1.4857 0
M  V30 4769 H 433.303 -3.65898 1.30578 0
M  V30 4770 H 434.975 -2.70658 3.73553 0
M  V30 4771 H 433.218 -2.4887 3.55311 0
M  V30 4772 H 433.889 -4.11784 3.67611 0
M  V30 4773 H 436.365 -3.75973 1.7828 0
M  V30 4774 H 435.241 -5.13368 1.94279 0
M  V30 4775 H 435.502 -4.40586 0.365564 0
M  V30 4776 N 434.561 -1.01147 -1.20859 0
M  V30 4777 C 435.494 -0.522108 -2.22147 0
M  V30 4778 C 436.472 0.427686 -1.56874 0
M  V30 4779 O 437.656 0.34889 -1.85243 0
M  V30 4780 C 434.783 0.240819 -3.37843 0
M  V30 4781 C 433.829 -0.657752 -4.21398 0
M  V30 4782 S 434.662 -2.12393 -4.91578 0
M  V30 4783 C 435.818 -1.37102 -6.10699 0
M  V30 4784 H 436.051 -1.38035 -2.63313 0
M  V30 4785 H 433.584 -0.819941 -1.30829 0
M  V30 4786 H 435.542 0.674908 -4.04914 0
M  V30 4787 H 434.203 1.07457 -2.95147 0
M  V30 4788 H 433.396 -0.0697456 -5.03952 0
M  V30 4789 H 432.998 -1.0294 -3.59555 0
M  V30 4790 H 435.29 -0.648315 -6.74391 0
M  V30 4791 H 436.233 -2.17252 -6.73949 0
M  V30 4792 H 436.641 -0.876154 -5.57659 0
M  V30 4793 N 436.039 1.36541 -0.78704 0
M  V30 4794 C 437.002 2.28413 -0.189778 0
M  V30 4795 C 438.002 1.48719 0.611499 0
M  V30 4796 O 439.192 1.68737 0.432842 0
M  V30 4797 C 436.324 3.32824 0.737638 0
M  V30 4798 H 437.517 2.82743 -0.999831 0
M  V30 4799 H 435.07 1.46065 -0.556298 0
M  V30 4800 H 435.805 2.83646 1.57212 0
M  V30 4801 H 435.59 3.91752 0.165044 0
M  V30 4802 H 437.08 4.0144 1.15047 0
M  V30 4803 N 437.518 0.538854 1.48102 0
M  V30 4804 C 438.767 0.0059532 2.01699 0
M  V30 4805 C 439.08 -1.34476 1.42041 0
M  V30 4806 O 440.286 -1.96653 1.87189 0
M  V30 4807 C 438.742 -0.0397627 3.59878 0
M  V30 4808 C 438.35 1.30659 4.28523 0
M  V30 4809 C 440.094 -0.521024 4.2129 0
M  V30 4810 C 438.001 1.22098 5.78659 0
M  V30 4811 H 436.931 -0.00154456 0.753998 0
M  V30 4812 H 439.582 0.683963 1.70277 0
M  V30 4813 H 437.964 -0.783037 3.88181 0
M  V30 4814 H 439.138 2.06613 4.11883 0
M  V30 4815 H 437.453 1.7243 3.79021 0
M  V30 4816 H 440.05 -0.603184 5.31287 0
M  V30 4817 H 440.393 -1.52885 3.8721 0
M  V30 4818 H 440.926 0.166834 3.9745 0
M  V30 4819 H 437.665 2.20424 6.17328 0
M  V30 4820 H 437.185 0.50295 5.97688 0
M  V30 4821 H 438.864 0.915345 6.40492 0
M  V30 4822 N 438.996 -1.55193 0.274407 0
M  V30 4823 C 439.959 -2.212 -0.600279 0
M  V30 4824 C 440.959 -1.18963 -1.08187 0
M  V30 4825 O 442.149 -1.43873 -0.982158 0
M  V30 4826 C 439.281 -2.87739 -1.82809 0
M  V30 4827 H 440.474 -2.9989 -0.0239682 0
M  V30 4828 H 438.027 -1.5628 0.0250192 0
M  V30 4829 H 438.762 -2.13058 -2.44493 0
M  V30 4830 H 438.547 -3.62658 -1.49069 0
M  V30 4831 H 440.037 -3.38171 -2.45011 0
M  V30 4832 N 440.474 -0.00167713 -1.576 0
M  V30 4833 C 441.702 0.693759 -1.94922 0
M  V30 4834 C 442.117 1.67215 -0.876626 0
M  V30 4835 O 441.474 1.81929 0.144279 0
M  V30 4836 C 441.525 1.42416 -3.32265 0
M  V30 4837 O 441.246 0.485014 -4.35407 0
M  V30 4838 C 442.747 2.21395 -3.84056 0
M  V30 4839 H 439.967 0.193118 -0.642609 0
M  V30 4840 H 442.511 -0.0532952 -2.04431 0
M  V30 4841 H 440.666 2.12284 -3.24059 0
M  V30 4842 H 441.08 1.00053 -5.14868 0
M  V30 4843 H 442.554 2.67996 -4.82578 0
M  V30 4844 H 443.031 3.04142 -3.16851 0
M  V30 4845 H 443.637 1.56542 -3.95443 0
M  V30 4846 N 441.952 1.55251 0.271103 0
M  V30 4847 C 442.882 1.9127 1.33933 0
M  V30 4848 C 443.863 0.77478 1.5143 0
M  V30 4849 O 445.048 1.03307 1.64442 0
M  V30 4850 C 442.178 2.18627 2.69851 0
M  V30 4851 C 441.132 3.34442 2.67081 0
M  V30 4852 C 440.458 3.47284 4.06569 0
M  V30 4853 C 441.758 4.70784 2.26185 0
M  V30 4854 H 443.452 2.80744 1.04035 0
M  V30 4855 H 440.998 1.35077 0.499017 0
M  V30 4856 H 442.951 2.42413 3.44694 0
M  V30 4857 H 441.675 1.25955 3.01335 0
M  V30 4858 H 440.334 3.10627 1.94695 0
M  V30 4859 H 439.982 2.52074 4.35279 0
M  V30 4860 H 439.682 4.25152 4.0561 0
M  V30 4861 H 441.206 3.73363 4.83148 0
M  V30 4862 H 442.62 4.94102 2.90751 0
M  V30 4863 H 441.017 5.51582 2.36384 0
M  V30 4864 H 442.087 4.69478 1.21319 0
M  V30 4865 N 443.43 -0.535701 1.48216 0
M  V30 4866 C 444.393 -1.623 1.61838 0
M  V30 4867 C 445.393 -1.53087 0.492024 0
M  V30 4868 O 446.583 -1.5686 0.757668 0
M  V30 4869 C 443.715 -3.01907 1.58319 0
M  V30 4870 H 444.908 -1.51564 2.58783 0
M  V30 4871 H 442.461 -0.757317 1.36727 0
M  V30 4872 H 443.196 -3.18155 0.628299 0
M  V30 4873 H 442.981 -3.10003 2.40085 0
M  V30 4874 H 444.471 -3.80969 1.71033 0
M  V30 4875 N 444.908 -1.36708 -0.784132 0
M  V30 4876 C 445.871 -1.31307 -1.87859 0
M  V30 4877 C 446.871 -0.219654 -1.59293 0
M  V30 4878 O 448.061 -0.47476 -1.67606 0
M  V30 4879 C 445.193 -1.03679 -3.24751 0
M  V30 4880 H 446.386 -2.28647 -1.94064 0
M  V30 4881 H 443.939 -1.21558 -0.98252 0
M  V30 4882 H 444.674 -0.0681936 -3.24228 0
M  V30 4883 H 444.459 -1.82811 -3.46876 0
M  V30 4884 H 445.949 -1.02518 -4.04821 0
M  V30 4885 N 446.386 1.0089 -1.21074 0
M  V30 4886 C 447.626 1.76142 -1.03699 0
M  V30 4887 C 447.99 1.87292 0.422587 0
M  V30 4888 O 449.191 2.59068 0.716752 0
M  V30 4889 C 447.462 3.13805 -1.7106 0
M  V30 4890 S 449.021 4.04996 -1.68889 0
M  V30 4891 H 445.839 0.606113 -0.371683 0
M  V30 4892 H 448.441 1.20744 -1.53756 0
M  V30 4893 H 447.145 3.0332 -2.76451 0
M  V30 4894 H 446.676 3.74276 -1.21166 0
M  V30 4895 H 448.691 4.90842 -0.727211 0
M  V30 4896 N 447.864 1.01787 1.20321 0
M  V30 4897 C 449.094 0.72614 1.93419 0
M  V30 4898 C 449.502 -0.717317 1.75075 0
M  V30 4899 O 448.845 -1.49836 1.06278 0
M  V30 4900 C 448.907 0.983621 3.45782 0
M  V30 4901 C 448.571 2.41645 3.87888 0
M  V30 4902 C 449.568 3.39732 3.93545 0
M  V30 4903 C 447.253 2.75752 4.19841 0
M  V30 4904 C 449.247 4.69988 4.30569 0
M  V30 4905 C 446.934 4.06221 4.56539 0
M  V30 4906 C 447.932 5.0315 4.61876 0
M  V30 4907 O 447.62 6.31284 4.97731 0
M  V30 4908 H 447.352 0.265824 0.621541 0
M  V30 4909 H 449.906 1.3623 1.53722 0
M  V30 4910 H 448.136 0.290301 3.85609 0
M  V30 4911 H 449.825 0.683279 4.00108 0
M  V30 4912 H 450.591 3.14718 3.69022 0
M  V30 4913 H 446.47 2.00993 4.14877 0
M  V30 4914 H 450.014 5.45642 4.3465 0
M  V30 4915 H 445.911 4.31013 4.80518 0
M  V30 4916 H 446.679 6.35591 5.15719 0
M  V30 4917 N 449.342 -1.36122 0.79427 0
M  V30 4918 C 450.29 -2.31871 0.184023 0
M  V30 4919 C 451.284 -1.56041 -0.659365 0
M  V30 4920 O 452.49 -1.71266 -0.553906 0
M  V30 4921 H 448.865 -0.750896 0.0407373 0
M  V30 4922 H 450.836 -2.80898 1.00693 0
M  V30 4923 C 449.585 -3.41324 -0.662813 0
M  V30 4924 H 448.908 -3.99793 -0.0231944 0
M  V30 4925 H 450.348 -4.10629 -1.05639 0
M  V30 4926 C 448.807 -2.83308 -1.82313 0
M  V30 4927 O 449.337 -2.75863 -2.91997 0
M  V30 4928 N 447.543 -2.40529 -1.63077 0
M  V30 4929 H 447.09 -2.46785 -0.738591 0
M  V30 4930 H 447.048 -2.02059 -2.40872 0
M  V30 4931 N 450.82 -0.546701 -1.47814 0
M  V30 4932 C 451.768 0.220048 -2.31557 0
M  V30 4933 C 452.762 0.919472 -1.42275 0
M  V30 4934 O 453.968 0.841953 -1.59095 0
M  V30 4935 H 450.343 0.0898334 -0.746615 0
M  V30 4936 H 452.314 -0.505589 -2.94086 0
M  V30 4937 C 451.063 1.24353 -3.24702 0
M  V30 4938 H 450.386 0.714758 -3.93359 0
M  V30 4939 H 451.826 1.75112 -3.8615 0
M  V30 4940 C 450.285 2.28593 -2.47481 0
M  V30 4941 O 450.815 3.35334 -2.21165 0
M  V30 4942 N 449.021 2.02244 -2.08676 0
M  V30 4943 H 448.568 1.15455 -2.30278 0
M  V30 4944 H 448.526 2.72207 -1.57323 0
M  V30 4945 N 452.299 1.55045 -0.282633 0
M  V30 4946 C 453.231 2.2023 0.634924 0
M  V30 4947 C 454.244 1.18931 1.11172 0
M  V30 4948 O 455.433 1.4562 1.03233 0
M  V30 4949 C 452.533 2.82041 1.87899 0
M  V30 4950 C 451.706 4.091 1.54776 0
M  V30 4951 C 450.765 4.54887 2.64507 0
M  V30 4952 O 449.791 5.20496 2.30375 0
M  V30 4953 N 450.993 4.25659 3.94709 0
M  V30 4954 H 453.758 2.99601 0.0769811 0
M  V30 4955 H 451.319 1.61565 -0.104048 0
M  V30 4956 H 453.311 3.09613 2.60619 0
M  V30 4957 H 451.881 2.06618 2.3458 0
M  V30 4958 H 451.101 3.88736 0.654049 0
M  V30 4959 H 452.389 4.9187 1.30158 0
M  V30 4960 H 451.787 3.7306 4.25256 0
M  V30 4961 H 450.344 4.57984 4.63782 0
M  V30 4962 N 453.777 0.010035 1.57597 0
M  V30 4963 C 454.709 -1.00649 2.05918 0
M  V30 4964 C 455.722 -1.30077 0.978964 0
M  V30 4965 O 456.911 -1.26878 1.25556 0
M  V30 4966 C 454.011 -2.33876 2.45265 0
M  V30 4967 C 453.184 -2.23242 3.7614 0
M  V30 4968 C 452.243 -3.39242 4.02245 0
M  V30 4969 O 451.269 -3.1698 4.72771 0
M  V30 4970 N 452.471 -4.6242 3.50924 0
M  V30 4971 H 455.236 -0.594333 2.93748 0
M  V30 4972 H 452.797 -0.17714 1.60928 0
M  V30 4973 H 454.789 -3.1027 2.59836 0
M  V30 4974 H 453.359 -2.66799 1.62902 0
M  V30 4975 H 452.579 -1.31696 3.71551 0
M  V30 4976 H 453.867 -2.13321 4.61922 0
M  V30 4977 H 453.265 -4.83404 2.93832 0
M  V30 4978 H 451.822 -5.36046 3.70807 0
M  V30 4979 N 455.255 -1.55392 -0.262866 0
M  V30 4980 C 456.501 -1.76737 -0.99458 0
M  V30 4981 C 456.834 -0.572453 -1.85571 0
M  V30 4982 O 456.109 0.429732 -1.89693 0
M  V30 4983 C 456.392 -3.07824 -1.8686 0
M  V30 4984 C 456.245 -4.3769 -1.03672 0
M  V30 4985 C 457.564 -3.35021 -2.85393 0
M  V30 4986 H 454.683 -0.643005 -0.360157 0
M  V30 4987 H 457.325 -1.88126 -0.266216 0
M  V30 4988 H 455.475 -2.98245 -2.48962 0
M  V30 4989 H 457.147 -4.59238 -0.43563 0
M  V30 4990 H 455.39 -4.32461 -0.340513 0
M  V30 4991 H 456.061 -5.25759 -1.6817 0
M  V30 4992 H 458.537 -3.44458 -2.33426 0
M  V30 4993 H 457.413 -4.27989 -3.43681 0
M  V30 4994 H 457.674 -2.55153 -3.61039 0
M  V30 4995 N 456.733 0.527833 -1.48498 0
M  V30 4996 C 457.98 1.28354 -1.56625 0
M  V30 4997 C 458.308 1.93 -0.241096 0
M  V30 4998 O 457.563 1.79967 0.768798 0
M  V30 4999 C 457.862 2.39275 -2.65485 0
M  V30 5000 C 457.528 1.92268 -4.07853 0
M  V30 5001 C 456.19 1.79166 -4.46602 0
M  V30 5002 C 458.542 1.56771 -4.97064 0
M  V30 5003 C 455.87 1.28905 -5.72364 0
M  V30 5004 C 458.222 1.07972 -6.23318 0
M  V30 5005 C 456.886 0.934887 -6.60921 0
M  V30 5006 H 456.156 0.469682 -0.573131 0
M  V30 5007 H 458.803 0.588781 -1.82224 0
M  V30 5008 H 457.108 3.1443 -2.33754 0
M  V30 5009 H 458.805 2.974 -2.68988 0
M  V30 5010 H 455.395 2.03417 -3.77252 0
M  V30 5011 H 459.579 1.65753 -4.67803 0
M  V30 5012 H 454.835 1.16381 -6.00221 0
M  V30 5013 H 459.009 0.795775 -6.91838 0
M  V30 5014 H 456.636 0.543231 -7.58257 0
M  V30 5015 N 458.211 1.37122 0.776871 0
M  V30 5016 C 459.158 1.3247 1.88998 0
M  V30 5017 C 460.128 0.191143 1.64997 0
M  V30 5018 O 461.313 0.379683 1.86984 0
M  V30 5019 C 458.453 1.13241 3.25992 0
M  V30 5020 C 457.566 2.35782 3.61982 0
M  V30 5021 C 456.701 2.09465 4.88158 0
M  V30 5022 C 455.74 3.279 5.16864 0
M  V30 5023 N 454.877 3.01167 6.34226 0
M  V30 5024 H 459.717 2.27642 1.9231 0
M  V30 5025 H 457.254 1.13125 0.94027 0
M  V30 5026 H 459.212 1.00115 4.0501 0
M  V30 5027 H 457.842 0.217186 3.22069 0
M  V30 5028 H 456.894 2.59666 2.77989 0
M  V30 5029 H 458.206 3.24125 3.79137 0
M  V30 5030 H 457.36 1.93341 5.75069 0
M  V30 5031 H 456.099 1.18452 4.73097 0
M  V30 5032 H 455.104 3.44569 4.2843 0
M  V30 5033 H 456.329 4.19757 5.33836 0
M  V30 5034 H 454.275 2.12779 6.20533 0
M  V30 5035 H 454.192 3.83052 6.51772 0
M  V30 5036 H 455.46 2.88649 7.24087 0
M  V30 5037 N 459.689 -1.00246 1.21608 0
M  V30 5038 C 460.937 -1.73717 1.0328 0
M  V30 5039 C 461.258 -1.90102 -0.434318 0
M  V30 5040 O 460.528 -1.45376 -1.31311 0
M  V30 5041 H 459.108 -0.643613 0.379172 0
M  V30 5042 H 461.77 -1.20787 1.52959 0
M  V30 5043 H 460.866 -2.73535 1.50283 0
M  V30 5044 N 461.167 -1.02423 -1.1978 0
M  V30 5045 C 462.13 -0.605703 -2.21052 0
M  V30 5046 C 463.13 0.328209 -1.57415 0
M  V30 5047 O 464.32 0.115853 -1.73814 0
M  V30 5048 C 461.452 0.114366 -3.40708 0
M  V30 5049 H 462.645 -1.5017 -2.59594 0
M  V30 5050 H 460.198 -0.814888 -1.33376 0
M  V30 5051 H 460.933 1.02492 -3.07678 0
M  V30 5052 H 460.718 -0.556641 -3.88129 0
M  V30 5053 H 462.208 0.394272 -4.15735 0
M  V30 5054 N 462.645 1.35699 -0.801477 0
M  V30 5055 C 463.891 1.99208 -0.380022 0
M  V30 5056 C 464.224 1.63445 1.04878 0
M  V30 5057 O 463.499 0.895223 1.72673 0
M  V30 5058 C 463.782 3.55755 -0.557708 0
M  V30 5059 C 463.635 4.01332 -2.03107 0
M  V30 5060 C 464.954 4.40096 0.0197968 0
M  V30 5061 H 462.073 0.723667 -0.139552 0
M  V30 5062 H 464.715 1.60928 -1.01006 0
M  V30 5063 H 462.865 3.88494 -0.0213741 0
M  V30 5064 H 464.537 3.79026 -2.62939 0
M  V30 5065 H 462.78 3.52429 -2.52936 0
M  V30 5066 H 463.451 5.10234 -2.1063 0
M  V30 5067 H 465.927 4.13786 -0.438179 0
M  V30 5068 H 464.803 5.48735 -0.134477 0
M  V30 5069 H 465.064 4.2786 1.11303 0
M  V30 5070 N 464.123 0.554532 1.47522 0
M  V30 5071 C 465.07 -0.19466 2.29978 0
M  V30 5072 C 466.04 -0.910882 1.38896 0
M  V30 5073 O 467.225 -0.907102 1.67858 0
M  V30 5074 C 464.365 -1.22035 3.22802 0
M  V30 5075 C 463.478 -0.510474 4.28973 0
M  V30 5076 C 462.613 -1.52123 5.08952 0
M  V30 5077 C 461.652 -0.796173 6.069 0
M  V30 5078 N 460.789 -1.75363 6.79847 0
M  V30 5079 H 465.629 0.51461 2.93523 0
M  V30 5080 H 463.166 0.265607 1.44682 0
M  V30 5081 H 465.124 -1.8276 3.7504 0
M  V30 5082 H 463.754 -1.89769 2.61127 0
M  V30 5083 H 462.806 0.211234 3.79813 0
M  V30 5084 H 464.118 0.0576503 4.98767 0
M  V30 5085 H 463.272 -2.20207 5.65326 0
M  V30 5086 H 462.011 -2.12327 4.39054 0
M  V30 5087 H 461.016 -0.101388 5.49707 0
M  V30 5088 H 462.241 -0.199911 6.78806 0
M  V30 5089 H 460.187 -2.3443 6.12682 0
M  V30 5090 H 460.104 -1.23759 7.45801 0
M  V30 5091 H 461.372 -2.4257 7.40797 0
M  V30 5092 N 465.601 -1.54893 0.290851 0
M  V30 5093 C 466.85 -1.99111 -0.322113 0
M  V30 5094 C 467.163 -1.18283 -1.55784 0
M  V30 5095 O 468.369 -1.5272 -2.24475 0
M  V30 5096 C 466.825 -3.54442 -0.624438 0
M  V30 5097 C 466.433 -4.44066 0.592373 0
M  V30 5098 C 468.177 -4.07211 -1.19916 0
M  V30 5099 C 466.084 -5.90812 0.263762 0
M  V30 5100 H 465.014 -0.743712 -0.124133 0
M  V30 5101 H 467.665 -1.79132 0.39797 0
M  V30 5102 H 466.047 -3.70281 -1.40384 0
M  V30 5103 H 467.221 -4.39999 1.36886 0
M  V30 5104 H 465.536 -4.02015 1.08502 0
M  V30 5105 H 468.133 -5.14407 -1.45909 0
M  V30 5106 H 468.476 -3.57196 -2.13815 0
M  V30 5107 H 469.009 -3.94873 -0.481687 0
M  V30 5108 H 465.748 -6.44955 1.17105 0
M  V30 5109 H 465.268 -5.97911 -0.475655 0
M  V30 5110 H 466.947 -6.46852 -0.138354 0
M  V30 5111 N 467.08 -0.0183926 -1.57589 0
M  V30 5112 C 468.496 0.337897 -1.55982 0
M  V30 5113 C 468.696 1.73604 -1.02294 0
M  V30 5114 O 467.752 2.43589 -0.664895 0
M  V30 5115 C 469.065 0.196305 -3.00059 0
M  V30 5116 C 470.613 0.269875 -3.11834 0
M  V30 5117 C 471.088 0.157197 -4.5773 0
M  V30 5118 N 472.579 0.214521 -4.62703 0
M  V30 5119 C 473.314 0.150955 -5.73201 0
M  V30 5120 N 472.81 0.0369212 -6.9279 0
M  V30 5121 N 474.603 0.204162 -5.61729 0
M  V30 5122 H 466.754 -0.93279 -1.90821 0
M  V30 5123 H 469.017 -0.359253 -0.877292 0
M  V30 5124 H 468.723 -0.766383 -3.43248 0
M  V30 5125 H 468.597 0.970908 -3.6449 0
M  V30 5126 H 470.984 1.22302 -2.68563 0
M  V30 5127 H 471.065 -0.534918 -2.50144 0
M  V30 5128 H 470.709 -0.792479 -5.01679 0
M  V30 5129 H 470.639 0.980717 -5.17387 0
M  V30 5130 H 473.13 0.303238 -3.76681 0
M  V30 5131 H 473.443 -0.00518321 -7.728 0
M  V30 5132 H 471.788 0.0022886 -6.95 0
M  V30 5133 H 474.979 0.291575 -4.67191 0
M  V30 5134 H 475.152 0.15116 -6.47824 0
M  V30 5135 N 468.558 1.5553 0.254621 0
M  V30 5136 C 469.505 1.89666 1.31512 0
M  V30 5137 C 470.475 0.750057 1.482 0
M  V30 5138 O 471.66 1.00301 1.62309 0
M  V30 5139 C 468.8 2.19009 2.667 0
M  V30 5140 C 467.913 3.46435 2.58083 0
M  V30 5141 C 467.048 3.65386 3.85573 0
M  V30 5142 C 466.087 4.8644 3.71541 0
M  V30 5143 N 465.224 5.01952 4.90906 0
M  V30 5144 H 470.064 2.80109 1.017 0
M  V30 5145 H 467.601 1.38666 0.490938 0
M  V30 5146 H 469.559 2.34025 3.45381 0
M  V30 5147 H 468.189 1.31779 2.94676 0
M  V30 5148 H 467.241 3.39792 1.71013 0
M  V30 5149 H 468.553 4.35258 2.43622 0
M  V30 5150 H 467.707 3.80319 4.72697 0
M  V30 5151 H 466.446 2.74781 4.02922 0
M  V30 5152 H 465.451 4.71491 2.82801 0
M  V30 5153 H 466.676 5.78497 3.55694 0
M  V30 5154 H 464.622 4.14283 5.08631 0
M  V30 5155 H 464.539 5.84851 4.79046 0
M  V30 5156 H 465.807 5.21289 5.7955 0
M  V30 5157 N 470.036 -0.519951 1.48776 0
M  V30 5158 C 471.284 -1.2727 1.56993 0
M  V30 5159 C 471.605 -1.9339 0.25004 0
M  V30 5160 O 470.875 -1.81822 -0.729216 0
M  V30 5161 H 469.455 -0.472732 0.578389 0
M  V30 5162 H 472.117 -0.604234 1.85297 0
M  V30 5163 H 471.213 -2.04669 2.3562 0
M  V30 5164 N 471.514 -1.37532 -0.769588 0
M  V30 5165 C 472.446 -1.29347 -1.89214 0
M  V30 5166 C 473.459 -0.208842 -1.61455 0
M  V30 5167 O 474.648 -0.465158 -1.72333 0
M  V30 5168 C 471.748 -0.977649 -3.24492 0
M  V30 5169 C 470.921 -2.16817 -3.7988 0
M  V30 5170 C 469.98 -1.82229 -4.93639 0
M  V30 5171 O 469.006 -2.54548 -5.09111 0
M  V30 5172 N 470.208 -0.767696 -5.75401 0
M  V30 5173 H 472.973 -2.26073 -1.96751 0
M  V30 5174 H 470.534 -1.31185 -0.948795 0
M  V30 5175 H 472.526 -0.727065 -3.98115 0
M  V30 5176 H 471.096 -0.0988777 -3.12444 0
M  V30 5177 H 470.316 -2.58038 -2.9801 0
M  V30 5178 H 471.604 -2.96308 -4.13617 0
M  V30 5179 H 471.002 -0.167626 -5.65452 0
M  V30 5180 H 469.559 -0.576973 -6.49241 0
M  V30 5181 N 472.992 0.995999 -1.22138 0
M  V30 5182 C 473.955 2.06711 -0.990109 0
M  V30 5183 C 474.955 1.60744 0.0422978 0
M  V30 5184 O 476.145 1.73095 -0.195895 0
M  V30 5185 C 473.277 3.37288 -0.49491 0
M  V30 5186 H 474.47 2.28661 -1.94047 0
M  V30 5187 H 472.023 1.16711 -1.03963 0
M  V30 5188 H 472.758 3.21022 0.459948 0
M  V30 5189 H 472.543 3.71986 -1.23971 0
M  V30 5190 H 474.033 4.16103 -0.353253 0
M  V30 5191 N 474.47 1.03057 1.19235 0
M  V30 5192 C 475.716 0.729098 1.89241 0
M  V30 5193 C 476.049 -0.740573 1.79525 0
M  V30 5194 O 475.324 -1.53946 1.18874 0
M  V30 5195 C 475.607 1.18304 3.40112 0
M  V30 5196 C 475.46 2.71406 3.5869 0
M  V30 5197 C 476.779 0.765161 4.33397 0
M  V30 5198 H 473.898 0.266338 0.687192 0
M  V30 5199 H 476.54 1.28079 1.40341 0
M  V30 5200 H 474.69 0.713672 3.81889 0
M  V30 5201 H 476.362 3.26303 3.26074 0
M  V30 5202 H 474.605 3.11717 3.01687 0
M  V30 5203 H 475.276 2.98225 4.64506 0
M  V30 5204 H 477.752 1.16889 3.99345 0
M  V30 5205 H 476.628 1.11065 5.37546 0
M  V30 5206 H 476.889 -0.332372 4.40849 0
M  V30 5207 N 475.948 -1.35272 0.808662 0
M  V30 5208 C 477.176 -2.02946 0.402537 0
M  V30 5209 C 477.591 -1.60937 -0.987147 0
M  V30 5210 O 476.948 -0.807917 -1.63643 0
M  V30 5211 C 476.999 -3.58317 0.47868 0
M  V30 5212 O 476.72 -3.98799 1.81358 0
M  V30 5213 C 478.221 -4.43251 0.0656281 0
M  V30 5214 H 475.441 -0.650831 0.163279 0
M  V30 5215 H 477.985 -1.72849 1.09286 0
M  V30 5216 H 476.14 -3.87055 -0.163415 0
M  V30 5217 H 476.554 -4.93451 1.77781 0
M  V30 5218 H 478.028 -5.51738 0.170017 0
M  V30 5219 H 478.505 -4.27913 -0.989278 0
M  V30 5220 H 479.111 -4.19813 0.68096 0
M  V30 5221 N 477.426 -0.562348 -1.47226 0
M  V30 5222 C 478.356 0.170627 -2.32876 0
M  V30 5223 C 479.337 0.903748 -1.44106 0
M  V30 5224 O 480.522 0.883206 -1.72954 0
M  V30 5225 C 477.652 1.19786 -3.25989 0
M  V30 5226 C 476.606 0.580875 -4.2404 0
M  V30 5227 C 475.932 1.71311 -5.06514 0
M  V30 5228 C 477.232 -0.468714 -5.20193 0
M  V30 5229 H 478.926 -0.544441 -2.94408 0
M  V30 5230 H 476.472 -0.263271 -1.41573 0
M  V30 5231 H 478.425 1.71884 -3.84752 0
M  V30 5232 H 477.149 1.94294 -2.62521 0
M  V30 5233 H 475.808 0.0811538 -3.6651 0
M  V30 5234 H 475.456 2.44736 -4.39447 0
M  V30 5235 H 475.156 1.30604 -5.72902 0
M  V30 5236 H 476.68 2.23725 -5.68137 0
M  V30 5237 H 478.094 -0.0336028 -5.7329 0
M  V30 5238 H 476.491 -0.794957 -5.94811 0
M  V30 5239 H 477.561 -1.36269 -4.65359 0
M  V30 5240 N 478.904 1.54736 -0.299062 0
M  V30 5241 C 479.837 2.1962 0.619851 0
M  V30 5242 C 480.815 1.16496 1.13434 0
M  V30 5243 O 481.999 1.4513 1.2029 0
M  V30 5244 C 479.126 2.8385 1.84788 0
M  V30 5245 C 478.172 4.00484 1.46679 0
M  V30 5246 S 479.005 5.32926 0.524389 0
M  V30 5247 C 480.161 6.00638 1.76026 0
M  V30 5248 H 480.394 2.97221 0.0686177 0
M  V30 5249 H 477.927 1.54176 -0.0832085 0
M  V30 5250 H 479.885 3.21483 2.55263 0
M  V30 5251 H 478.546 2.06099 2.37028 0
M  V30 5252 H 477.739 4.44201 2.38121 0
M  V30 5253 H 477.341 3.64398 0.842008 0
M  V30 5254 H 479.633 6.21327 2.70109 0
M  V30 5255 H 480.576 6.94805 1.36569 0
M  V30 5256 H 480.984 5.3026 1.93609 0
M  V30 5257 N 480.382 0.0267497 1.57577 0
M  V30 5258 C 481.315 -0.99059 2.05579 0
M  V30 5259 C 482.293 -1.31884 0.951065 0
M  V30 5260 O 483.477 -1.43592 1.22121 0
M  V30 5261 C 480.604 -2.31125 2.47586 0
M  V30 5262 C 479.65 -2.13777 3.69055 0
M  V30 5263 S 480.483 -1.4388 5.15809 0
M  V30 5264 C 481.639 -2.77321 5.6111 0
M  V30 5265 H 481.872 -0.581976 2.91548 0
M  V30 5266 H 479.405 -0.184876 1.53289 0
M  V30 5267 H 481.363 -3.07049 2.72454 0
M  V30 5268 H 480.024 -2.6912 1.61967 0
M  V30 5269 H 479.217 -3.11405 3.96287 0
M  V30 5270 H 478.819 -1.45996 3.44327 0
M  V30 5271 H 481.111 -3.73565 5.65204 0
M  V30 5272 H 482.054 -2.54756 6.60685 0
M  V30 5273 H 482.462 -2.82459 4.88751 0
M  V30 5274 N 481.861 -1.55662 -0.24637 0
M  V30 5275 C 483.138 -1.68272 -0.997198 0
M  V30 5276 C 483.518 -0.566785 -2.03349 0
M  V30 5277 O 482.866 0.429688 -2.24424 0
M  V30 5278 C 483.076 -3.08594 -1.63006 0
M  V30 5279 C 484.424 -3.6721 -2.13171 0
M  V30 5280 O 485.448 -3.11397 -1.72946 0
M  V30 5281 O 484.307 -4.65054 -2.87031 0
M  V30 5282 H 481.401 -0.684429 -0.464205 0
M  V30 5283 H 483.947 -1.67993 -0.240114 0
M  V30 5284 H 482.719 -3.81264 -0.880527 0
M  V30 5285 H 482.342 -3.12886 -2.45333 0
M  V30 5286 N 483.339 0.512053 -1.4905 0
M  V30 5287 C 484.302 1.59704 -1.64399 0
M  V30 5288 C 485.302 1.52285 -0.516317 0
M  V30 5289 O 486.492 1.55635 -0.782527 0
M  V30 5290 C 483.624 2.9935 -1.63102 0
M  V30 5291 H 484.817 1.47428 -2.61161 0
M  V30 5292 H 482.37 0.735469 -1.37915 0
M  V30 5293 H 483.105 3.17116 -0.678836 0
M  V30 5294 H 482.89 3.06144 -2.44986 0
M  V30 5295 H 484.38 3.782 -1.77072 0
M  V30 5296 N 484.817 1.37938 0.762283 0
M  V30 5297 C 486.045 1.36883 1.55147 0
M  V30 5298 C 486.46 -0.0435348 1.8875 0
M  V30 5299 O 485.817 -1.00786 1.52146 0
M  V30 5300 C 485.868 2.21624 2.85596 0
M  V30 5301 O 485.589 3.57358 2.5343 0
M  V30 5302 C 487.09 2.28653 3.7978 0
M  V30 5303 H 484.31 0.468521 0.480343 0
M  V30 5304 H 486.854 1.81404 0.944079 0
M  V30 5305 H 485.009 1.80588 3.42734 0
M  V30 5306 H 485.423 4.01883 3.37032 0
M  V30 5307 H 486.897 2.9225 4.68288 0
M  V30 5308 H 487.374 1.29767 4.19592 0
M  V30 5309 H 487.98 2.70043 3.28568 0
M  V30 5310 N 486.295 -0.989507 1.22664 0
M  V30 5311 C 487.243 -2.10148 0.997035 0
M  V30 5312 C 488.237 -1.6929 -0.0609783 0
M  V30 5313 O 489.443 -1.79766 0.0917523 0
M  V30 5314 H 485.818 -0.687256 0.305259 0
M  V30 5315 H 487.789 -2.26685 1.94053 0
M  V30 5316 C 486.538 -3.4257 0.595085 0
M  V30 5317 H 485.861 -3.74453 1.40089 0
M  V30 5318 H 487.301 -4.21344 0.473869 0
M  V30 5319 C 485.76 -3.29638 -0.695725 0
M  V30 5320 O 486.29 -3.61709 -1.74727 0
M  V30 5321 N 484.496 -2.82814 -0.668173 0
M  V30 5322 H 484.043 -2.56914 0.18787 0
M  V30 5323 H 484.001 -2.74544 -1.5321 0
M  V30 5324 N 487.773 -1.03688 -1.18687 0
M  V30 5325 C 488.706 -0.569112 -2.2099 0
M  V30 5326 C 489.684 0.394315 -1.57746 0
M  V30 5327 O 490.868 0.309519 -1.85941 0
M  V30 5328 C 487.995 0.169104 -3.38278 0
M  V30 5329 C 487.041 -0.746989 -4.19908 0
M  V30 5330 S 487.874 -2.22773 -4.86963 0
M  V30 5331 C 489.03 -1.50025 -6.07654 0
M  V30 5332 H 489.263 -1.43589 -2.60326 0
M  V30 5333 H 486.796 -0.847507 -1.29061 0
M  V30 5334 H 488.754 0.588868 -4.06254 0
M  V30 5335 H 487.415 1.01172 -2.9736 0
M  V30 5336 H 486.608 -0.176626 -5.0369 0
M  V30 5337 H 486.21 -1.10543 -3.5729 0
M  V30 5338 H 488.502 -0.791217 -6.72864 0
M  V30 5339 H 489.445 -2.31498 -6.69189 0
M  V30 5340 H 489.853 -0.994245 -5.55675 0
M  V30 5341 N 489.251 1.34841 -0.815825 0
M  V30 5342 C 490.662 1.80937 -0.46029 0
M  V30 5343 C 491.013 1.67685 1.01863 0
M  V30 5344 O 490.138 1.21277 1.79223 0
M  V30 5345 C 490.733 3.28509 -0.828708 0
M  V30 5346 C 489.292 3.72712 -0.525644 0
M  V30 5347 C 488.439 2.56676 -1.04941 0
M  V30 5348 H 491.39 1.22688 -1.00664 0
M  V30 5349 H 491.411 3.80279 -0.129757 0
M  V30 5350 H 490.923 3.38122 -1.90513 0
M  V30 5351 H 489.024 3.68642 0.541666 0
M  V30 5352 H 489.137 4.67119 -1.06474 0
M  V30 5353 H 487.501 2.50302 -0.471286 0
M  V30 5354 H 488.284 2.69063 -2.13214 0
M  V30 5355 N 490.729 0.570148 1.46925 0
M  V30 5356 C 491.692 -0.159933 2.28641 0
M  V30 5357 C 492.692 -0.830638 1.37685 0
M  V30 5358 O 493.882 -0.684516 1.60187 0
M  V30 5359 C 491.014 -1.2354 3.17727 0
M  V30 5360 H 492.207 0.558035 2.94662 0
M  V30 5361 H 489.76 0.327603 1.52828 0
M  V30 5362 H 490.495 -1.98535 2.56426 0
M  V30 5363 H 490.28 -0.759125 3.84681 0
M  V30 5364 H 491.77 -1.74782 3.79264 0
M  V30 5365 N 492.207 -1.54576 0.307264 0
M  V30 5366 C 493.453 -2.0056 -0.300612 0
M  V30 5367 C 493.786 -1.1953 -1.53057 0
M  V30 5368 O 493.061 -0.27337 -1.92569 0
M  V30 5369 C 493.344 -3.54167 -0.650987 0
M  V30 5370 C 493.197 -4.45933 0.588539 0
M  V30 5371 C 494.516 -4.14645 -1.47506 0
M  V30 5372 H 491.635 -0.729075 -0.107788 0
M  V30 5373 H 494.277 -1.85286 0.420606 0
M  V30 5374 H 492.427 -3.67313 -1.26544 0
M  V30 5375 H 494.099 -4.44683 1.22697 0
M  V30 5376 H 492.342 -4.16274 1.22058 0
M  V30 5377 H 493.013 -5.51189 0.299153 0
M  V30 5378 H 495.489 -4.04973 -0.955821 0
M  V30 5379 H 494.365 -5.22269 -1.68899 0
M  V30 5380 H 494.626 -3.66921 -2.4662 0
M  V30 5381 N 493.685 -0.035106 -1.57561 0
M  V30 5382 C 494.632 0.94474 -2.10578 0
M  V30 5383 C 495.602 1.3192 -1.00927 0
M  V30 5384 O 496.787 1.41147 -1.28382 0
M  V30 5385 C 493.927 2.21982 -2.64231 0
M  V30 5386 C 493.04 1.90128 -3.87911 0
M  V30 5387 C 492.175 3.11975 -4.29936 0
M  V30 5388 C 491.214 2.75968 -5.46359 0
M  V30 5389 N 490.351 3.90459 -5.83512 0
M  V30 5390 H 495.191 0.485717 -2.94015 0
M  V30 5391 H 492.728 0.228143 -1.4532 0
M  V30 5392 H 494.686 2.96572 -2.9343 0
M  V30 5393 H 493.316 2.6549 -1.83616 0
M  V30 5394 H 492.368 1.05755 -3.65404 0
M  V30 5395 H 493.68 1.59613 -4.72573 0
M  V30 5396 H 492.834 3.9488 -4.60603 0
M  V30 5397 H 491.573 3.45657 -3.44053 0
M  V30 5398 H 490.578 1.91478 -5.1538 0
M  V30 5399 H 491.803 2.43497 -6.33945 0
M  V30 5400 H 489.749 4.23971 -5.00584 0
M  V30 5401 H 489.666 3.63588 -6.62827 0
M  V30 5402 H 490.934 4.7405 -6.18787 0
M  V30 5403 N 495.163 1.55791 0.238111 0
M  V30 5404 C 496.126 1.90239 1.27835 0
M  V30 5405 C 497.126 0.779552 1.4064 0
M  V30 5406 O 498.316 1.04747 1.3919 0
M  V30 5407 C 495.448 2.13859 2.65475 0
M  V30 5408 H 496.641 2.83262 0.985034 0
M  V30 5409 H 494.194 1.48818 0.477799 0
M  V30 5410 H 494.929 1.23334 2.99932 0
M  V30 5411 H 494.714 2.95643 2.57561 0
M  V30 5412 H 496.204 2.41664 3.40571 0
M  V30 5413 N 496.642 -0.504142 1.49319 0
M  V30 5414 C 497.891 -1.25507 1.57895 0
M  V30 5415 C 498.204 -1.93735 0.269433 0
M  V30 5416 O 499.41 -2.70492 0.233706 0
M  V30 5417 C 497.866 -2.27869 2.78574 0
M  V30 5418 C 497.474 -1.65594 4.16272 0
M  V30 5419 C 499.218 -3.0381 2.96479 0
M  V30 5420 C 497.125 -2.66048 5.28178 0
M  V30 5421 H 496.055 -0.47212 0.587894 0
M  V30 5422 H 498.706 -0.52931 1.757 0
M  V30 5423 H 497.088 -3.03594 2.54257 0
M  V30 5424 H 498.262 -0.958826 4.50714 0
M  V30 5425 H 496.577 -1.02055 4.037 0
M  V30 5426 H 499.174 -3.78925 3.77253 0
M  V30 5427 H 499.517 -3.61235 2.06918 0
M  V30 5428 H 500.05 -2.352 3.20821 0
M  V30 5429 H 496.789 -2.13408 6.19788 0
M  V30 5430 H 496.309 -3.34009 4.98195 0
M  V30 5431 H 497.988 -3.28536 5.57381 0
M  V30 5432 N 498.12 -1.38341 -0.754957 0
M  V30 5433 C 499.369 -1.33791 -1.5094 0
M  V30 5434 C 499.682 0.0699267 -1.95475 0
M  V30 5435 O 500.888 0.237956 -2.70455 0
M  V30 5436 C 499.344 -2.34934 -2.72643 0
M  V30 5437 C 498.952 -3.81332 -2.35138 0
M  V30 5438 C 500.696 -2.39425 -3.50536 0
M  V30 5439 C 498.603 -4.74164 -3.53444 0
M  V30 5440 H 497.533 -0.497314 -0.566741 0
M  V30 5441 H 500.184 -1.63888 -0.825403 0
M  V30 5442 H 498.566 -1.97878 -3.43017 0
M  V30 5443 H 499.74 -4.27319 -1.7244 0
M  V30 5444 H 498.055 -3.79946 -1.70382 0
M  V30 5445 H 500.652 -3.0598 -4.38498 0
M  V30 5446 H 500.995 -1.41278 -3.91594 0
M  V30 5447 H 501.528 -2.75274 -2.87174 0
M  V30 5448 H 498.267 -5.73501 -3.17453 0
M  V30 5449 H 497.787 -4.3287 -4.15191 0
M  V30 5450 H 499.466 -4.92111 -4.20043 0
M  V30 5451 N 499.598 0.982988 -1.23187 0
M  V30 5452 C 500.828 1.75666 -1.08743 0
M  V30 5453 C 501.236 1.85662 0.364195 0
M  V30 5454 O 500.579 1.33317 1.26382 0
M  V30 5455 C 500.641 3.20144 -1.63549 0
M  V30 5456 C 500.305 3.33665 -3.12277 0
M  V30 5457 C 501.302 3.20194 -4.096 0
M  V30 5458 C 498.987 3.58397 -3.51933 0
M  V30 5459 C 500.981 3.31256 -5.44563 0
M  V30 5460 C 498.668 3.69098 -4.87042 0
M  V30 5461 C 499.666 3.55537 -5.83166 0
M  V30 5462 O 499.354 3.65864 -7.1582 0
M  V30 5463 H 499.086 0.558194 -0.381307 0
M  V30 5464 H 501.64 1.24387 -1.63454 0
M  V30 5465 H 499.87 3.72659 -1.03256 0
M  V30 5466 H 501.559 3.79262 -1.4462 0
M  V30 5467 H 502.325 3.00987 -3.80305 0
M  V30 5468 H 498.204 3.68025 -2.77631 0
M  V30 5469 H 501.748 3.20588 -6.19572 0
M  V30 5470 H 497.645 3.87814 -5.16014 0
M  V30 5471 H 498.413 3.82675 -7.23534 0
M  V30 5472 N 501.076 1.04316 1.18135 0
M  V30 5473 C 502.008 0.594444 2.21357 0
M  V30 5474 C 503.021 -0.337215 1.59269 0
M  V30 5475 O 504.21 -0.131337 1.78016 0
M  V30 5476 C 501.31 -0.151251 3.38562 0
M  V30 5477 C 500.483 0.788907 4.30227 0
M  V30 5478 C 499.542 0.0860572 5.2613 0
M  V30 5479 O 498.568 0.717302 5.64662 0
M  V30 5480 N 499.77 -1.17969 5.68387 0
M  V30 5481 H 502.535 1.48227 2.60478 0
M  V30 5482 H 500.096 0.92396 1.32946 0
M  V30 5483 H 502.088 -0.631352 3.99745 0
M  V30 5484 H 500.658 -0.940639 2.98112 0
M  V30 5485 H 499.878 1.44882 3.6661 0
M  V30 5486 H 501.166 1.42738 4.88368 0
M  V30 5487 H 500.564 -1.71302 5.3914 0
M  V30 5488 H 499.121 -1.60402 6.31755 0
M  V30 5489 N 502.554 -1.34406 0.822964 0
M  V30 5490 C 503.784 -2.02214 0.423424 0
M  V30 5491 C 504.192 -1.62124 -0.975322 0
M  V30 5492 O 503.535 -0.822452 -1.6426 0
M  V30 5493 C 503.597 -3.56721 0.446107 0
M  V30 5494 C 503.261 -4.20136 1.79819 0
M  V30 5495 C 504.258 -4.4065 2.75904 0
M  V30 5496 C 501.943 -4.56906 2.08669 0
M  V30 5497 C 503.937 -4.9706 3.99012 0
M  V30 5498 C 501.624 -5.13026 3.32036 0
M  V30 5499 C 502.622 -5.33047 4.27024 0
M  V30 5500 O 502.31 -5.87979 5.48211 0
M  V30 5501 H 502.042 -0.654748 0.168169 0
M  V30 5502 H 504.596 -1.72659 1.11257 0
M  V30 5503 H 502.826 -3.85537 -0.299734 0
M  V30 5504 H 504.515 -4.05845 0.0666114 0
M  V30 5505 H 505.281 -4.12607 2.54912 0
M  V30 5506 H 501.16 -4.40626 1.35535 0
M  V30 5507 H 504.704 -5.12603 4.73164 0
M  V30 5508 H 500.601 -5.40498 3.52891 0
M  V30 5509 H 501.369 -6.06413 5.49732 0
M  V30 5510 N 504.032 -0.577932 -1.46621 0
M  V30 5511 C 504.965 0.206312 -2.27265 0
M  V30 5512 C 505.943 0.901306 -1.35334 0
M  V30 5513 O 507.127 0.916151 -1.64739 0
M  V30 5514 C 504.254 1.29563 -3.1294 0
M  V30 5515 C 503.3 0.706981 -4.206 0
M  V30 5516 S 504.133 -0.462459 -5.33499 0
M  V30 5517 C 505.289 0.628171 -6.2274 0
M  V30 5518 H 505.522 -0.477961 -2.93433 0
M  V30 5519 H 503.055 -0.364715 -1.50031 0
M  V30 5520 H 505.013 1.91935 -3.62865 0
M  V30 5521 H 503.674 1.95183 -2.46095 0
M  V30 5522 H 502.867 1.52565 -4.80354 0
M  V30 5523 H 502.469 0.159022 -3.73662 0
M  V30 5524 H 504.761 1.51506 -6.60342 0
M  V30 5525 H 505.704 0.0674961 -7.08068 0
M  V30 5526 H 506.112 0.930167 -5.56784 0
M  V30 5527 N 505.51 1.54411 -0.315457 0
M  V30 5528 C 506.42 2.27737 0.56329 0
M  V30 5529 C 507.436 1.31787 1.13614 0
M  V30 5530 O 508.612 1.64791 1.15784 0
M  V30 5531 C 505.677 3.01478 1.71207 0
M  V30 5532 C 504.738 4.12997 1.17185 0
M  V30 5533 C 503.971 4.83212 2.26588 0
M  V30 5534 O 504.194 4.52884 3.46775 0
M  V30 5535 O 503.128 5.70299 1.92463 0
M  V30 5536 H 506.954 3.03683 -0.0319614 0
M  V30 5537 H 504.539 1.49178 -0.0814188 0
M  V30 5538 H 506.421 3.47683 2.38106 0
M  V30 5539 H 505.096 2.28414 2.29366 0
M  V30 5540 H 504.003 3.71159 0.468174 0
M  V30 5541 H 505.336 4.8808 0.635501 0
M  V30 5542 N 506.988 0.0434614 1.5754 0
M  V30 5543 C 507.898 -0.94893 2.14552 0
M  V30 5544 C 508.914 -1.34707 1.10136 0
M  V30 5545 O 510.09 -1.42557 1.42266 0
M  V30 5546 C 507.155 -2.208 2.67298 0
M  V30 5547 C 506.216 -1.86893 3.86484 0
M  V30 5548 C 505.449 -3.06797 4.36705 0
M  V30 5549 O 505.672 -4.19921 3.86034 0
M  V30 5550 O 504.606 -2.8826 5.28384 0
M  V30 5551 H 508.432 -0.494099 2.99654 0
M  V30 5552 H 506.017 -0.177989 1.48336 0
M  V30 5553 H 507.899 -2.94686 3.01228 0
M  V30 5554 H 506.574 -2.65436 1.85272 0
M  V30 5555 H 505.481 -1.10347 3.57455 0
M  V30 5556 H 506.814 -1.47062 4.69716 0
M  V30 5557 N 508.466 -1.55915 -0.229846 0
M  V30 5558 C 509.715 -1.77742 -0.953455 0
M  V30 5559 C 510.028 -0.610524 -1.85828 0
M  V30 5560 O 511.234 -0.712219 -2.61992 0
M  V30 5561 C 509.69 -3.14738 -1.74551 0
M  V30 5562 C 509.298 -4.39126 -0.887242 0
M  V30 5563 C 511.042 -3.45895 -2.46084 0
M  V30 5564 C 508.949 -5.67149 -1.67617 0
M  V30 5565 H 507.879 -0.662648 -0.359741 0
M  V30 5566 H 510.53 -1.82322 -0.207576 0
M  V30 5567 H 508.912 -3.04311 -2.53399 0
M  V30 5568 H 510.086 -4.60588 -0.139892 0
M  V30 5569 H 508.401 -4.15427 -0.284443 0
M  V30 5570 H 510.998 -4.38767 -3.05594 0
M  V30 5571 H 511.341 -2.68007 -3.18556 0
M  V30 5572 H 511.874 -3.57614 -1.74233 0
M  V30 5573 H 508.613 -6.47906 -0.994881 0
M  V30 5574 H 508.133 -5.49763 -2.39836 0
M  V30 5575 H 509.812 -6.07025 -2.23898 0
M  V30 5576 N 509.944 0.496216 -1.49584 0
M  V30 5577 C 511.174 1.27209 -1.62793 0
M  V30 5578 C 511.582 1.86799 -0.300476 0
M  V30 5579 O 510.925 1.68802 0.724674 0
M  V30 5580 C 510.987 2.43812 -2.64189 0
M  V30 5581 C 510.651 2.05055 -4.08414 0
M  V30 5582 C 511.648 1.58752 -4.9507 0
M  V30 5583 C 509.333 2.14543 -4.54177 0
M  V30 5584 C 511.327 1.22448 -6.25528 0
M  V30 5585 C 509.014 1.77851 -5.84647 0
M  V30 5586 C 510.012 1.31878 -6.70147 0
M  V30 5587 O 509.7 0.956834 -7.98185 0
M  V30 5588 H 509.432 0.391848 -0.550846 0
M  V30 5589 H 511.986 0.601712 -1.96389 0
M  V30 5590 H 510.216 3.13941 -2.25783 0
M  V30 5591 H 511.905 3.05829 -2.66877 0
M  V30 5592 H 512.671 1.50863 -4.60939 0
M  V30 5593 H 508.55 2.49277 -3.87791 0
M  V30 5594 H 512.094 0.864933 -6.92217 0
M  V30 5595 H 507.991 1.8539 -6.18305 0
M  V30 5596 H 508.759 1.08789 -8.11238 0
M  V30 5597 N 511.423 1.38739 0.74761 0
M  V30 5598 C 512.373 1.32948 1.85226 0
M  V30 5599 C 513.357 0.212642 1.59489 0
M  V30 5600 O 514.549 0.449121 1.71207 0
M  V30 5601 C 511.678 1.16279 3.23008 0
M  V30 5602 C 510.764 2.32611 3.54617 0
M  V30 5603 N 511.155 3.58065 3.57244 0
M  V30 5604 C 509.453 2.25293 3.84914 0
M  V30 5605 C 510.154 4.34919 3.8629 0
M  V30 5606 N 509.13 3.64348 4.03425 0
M  V30 5607 H 512.932 2.27927 1.85544 0
M  V30 5608 H 510.446 1.32056 0.945253 0
M  V30 5609 H 512.443 1.10214 4.02068 0
M  V30 5610 H 511.103 0.222394 3.23937 0
M  V30 5611 H 512.114 3.91656 3.3886 0
M  V30 5612 H 508.791 1.39446 3.93524 0
M  V30 5613 H 510.181 5.43605 3.94896 0
M  V30 5614 N 512.901 -0.976442 1.23707 0
M  V30 5615 C 514.317 -1.24341 1.00058 0
M  V30 5616 C 514.517 -1.99315 -0.295932 0
M  V30 5617 O 513.573 -2.3123 -1.01435 0
M  V30 5618 C 514.886 -2.03909 2.21001 0
M  V30 5619 C 516.434 -2.17034 2.25534 0
M  V30 5620 C 516.909 -2.99994 3.46075 0
M  V30 5621 N 518.4 -3.07578 3.46338 0
M  V30 5622 C 519.135 -3.72104 4.36264 0
M  V30 5623 N 518.631 -4.3842 5.36432 0
M  V30 5624 N 520.424 -3.69029 4.23998 0
M  V30 5625 H 512.575 -0.47428 2.07037 0
M  V30 5626 H 514.838 -0.272167 0.908091 0
M  V30 5627 H 514.544 -1.56198 3.15111 0
M  V30 5628 H 514.418 -3.04654 2.22409 0
M  V30 5629 H 516.805 -2.63951 1.31961 0
M  V30 5630 H 516.886 -1.15664 2.28156 0
M  V30 5631 H 516.53 -2.53772 4.39957 0
M  V30 5632 H 516.46 -4.01541 3.40694 0
M  V30 5633 H 518.951 -2.60397 2.73865 0
M  V30 5634 H 519.264 -4.85447 6.013 0
M  V30 5635 H 517.609 -4.37116 5.40328 0
M  V30 5636 H 520.8 -3.16392 3.44984 0
M  V30 5637 H 520.973 -4.19034 4.94282 0
M  V30 5638 N 514.379 -1.04941 -1.1758 0
M  V30 5639 C 515.628 -0.753124 -1.87112 0
M  V30 5640 C 515.941 0.722507 -1.81767 0
M  V30 5641 O 517.147 1.13265 -2.46746 0
M  V30 5642 C 515.603 -1.29695 -3.35719 0
M  V30 5643 C 515.211 -2.80184 -3.49572 0
M  V30 5644 C 516.955 -1.07759 -4.10595 0
M  V30 5645 C 514.862 -3.2788 -4.92187 0
M  V30 5646 H 513.792 -0.278034 -0.700866 0
M  V30 5647 H 516.443 -1.26637 -1.32798 0
M  V30 5648 H 514.825 -0.711522 -3.89555 0
M  V30 5649 H 515.999 -3.44561 -3.05965 0
M  V30 5650 H 514.314 -3.00632 -2.88113 0
M  V30 5651 H 516.911 -1.40899 -5.15802 0
M  V30 5652 H 517.254 -0.0152302 -4.16297 0
M  V30 5653 H 517.787 -1.62809 -3.62957 0
M  V30 5654 H 514.526 -4.33535 -4.91658 0
M  V30 5655 H 514.046 -2.68245 -5.36475 0
M  V30 5656 H 515.725 -3.22412 -5.60945 0
M  V30 5657 N 515.857 1.33968 -0.830081 0
M  V30 5658 C 517.268 1.80439 -0.479455 0
M  V30 5659 C 517.619 1.68756 1.00079 0
M  V30 5660 O 516.744 1.23171 1.77927 0
M  V30 5661 C 517.339 3.27611 -0.863505 0
M  V30 5662 C 515.898 3.72133 -0.565145 0
M  V30 5663 C 515.045 2.55549 -1.07657 0
M  V30 5664 H 517.996 1.21614 -1.0196 0
M  V30 5665 H 518.017 3.8012 -0.170083 0
M  V30 5666 H 517.529 3.36082 -1.94089 0
M  V30 5667 H 515.63 3.69196 0.502536 0
M  V30 5668 H 515.743 4.65963 -1.11422 0
M  V30 5669 H 514.107 2.49788 -0.497807 0
M  V30 5670 H 514.89 2.66786 -2.16055 0
M  V30 5671 N 517.335 0.585699 1.46312 0
M  V30 5672 C 518.612 0.00542031 1.95599 0
M  V30 5673 C 518.992 -1.45619 1.52834 0
M  V30 5674 O 518.34 -2.14759 0.780446 0
M  V30 5675 C 518.55 0.180601 3.48532 0
M  V30 5676 C 519.898 0.049979 4.24571 0
M  V30 5677 O 520.922 0.109589 3.56031 0
M  V30 5678 O 519.781 -0.0832226 5.46437 0
M  V30 5679 H 516.875 -0.0481281 0.825598 0
M  V30 5680 H 519.421 0.654227 1.56582 0
M  V30 5681 H 518.193 1.19657 3.72556 0
M  V30 5682 H 517.816 -0.504498 3.94386 0
M  V30 5683 N 518.813 -1.54241 0.323641 0
M  V30 5684 C 520.038 -2.05452 -0.283605 0
M  V30 5685 C 520.463 -1.19823 -1.44997 0
M  V30 5686 O 519.821 -0.207358 -1.8011 0
M  V30 5687 C 519.869 -3.53823 -0.695795 0
M  V30 5688 O 518.973 -3.71134 -1.79815 0
M  V30 5689 H 518.314 -0.662024 -0.0511917 0
M  V30 5690 H 520.844 -1.99079 0.472073 0
M  V30 5691 H 520.854 -3.96094 -0.978434 0
M  V30 5692 H 519.529 -4.15602 0.157287 0
M  V30 5693 H 518.106 -3.40768 -1.51431 0
M  V30 5694 N 520.291 -0.0518155 -1.57515 0
M  V30 5695 C 521.568 0.661727 -1.84067 0
M  V30 5696 C 521.948 1.88999 -0.940351 0
M  V30 5697 O 521.296 2.285 -0.00155404 0
M  V30 5698 C 521.506 1.01841 -3.3381 0
M  V30 5699 C 522.854 1.40043 -4.00841 0
M  V30 5700 O 523.878 1.11073 -3.38439 0
M  V30 5701 O 522.737 1.94111 -5.10865 0
M  V30 5702 H 519.831 0.326702 -0.759733 0
M  V30 5703 H 522.377 -0.0812277 -1.69505 0
M  V30 5704 H 521.149 0.145202 -3.91031 0
M  V30 5705 H 520.772 1.81879 -3.53562 0
M  V30 5706 N 521.769 1.56035 0.221574 0
M  V30 5707 C 523.18 1.69229 0.788567 0
M  V30 5708 C 523.531 0.653814 1.84986 0
M  V30 5709 O 522.656 -0.195065 2.15519 0
M  V30 5710 C 523.251 3.06809 1.43713 0
M  V30 5711 C 521.81 3.21858 1.95152 0
M  V30 5712 C 520.957 2.65155 0.811685 0
M  V30 5713 H 523.908 1.587 -0.00307894 0
M  V30 5714 H 523.929 3.02666 2.30594 0
M  V30 5715 H 523.441 3.82369 0.664475 0
M  V30 5716 H 521.542 2.51167 2.7522 0
M  V30 5717 H 521.655 4.29073 2.1315 0
M  V30 5718 H 520.019 2.23635 1.21899 0
M  V30 5719 H 520.802 3.43261 0.0516987 0
M  V30 5720 N 523.247 -0.488276 1.49845 0
M  V30 5721 C 524.472 -1.26997 1.63971 0
M  V30 5722 C 524.897 -1.85427 0.315994 0
M  V30 5723 O 524.255 -1.66475 -0.718032 0
M  V30 5724 C 524.303 -2.36689 2.72049 0
M  V30 5725 O 523.407 -3.40882 2.32107 0
M  V30 5726 H 522.748 -0.374376 0.548396 0
M  V30 5727 H 525.278 -0.583104 1.96115 0
M  V30 5728 H 525.288 -2.82262 2.94605 0
M  V30 5729 H 523.963 -1.93529 3.68129 0
M  V30 5730 H 522.54 -3.01139 2.19931 0
M  V30 5731 N 524.725 -1.39134 -0.740242 0
M  V30 5732 C 525.95 -1.39518 -1.53459 0
M  V30 5733 C 526.375 0.00968883 -1.88098 0
M  V30 5734 O 525.733 0.995312 -1.51536 0
M  V30 5735 C 525.781 -2.26981 -2.802 0
M  V30 5736 O 524.885 -1.69609 -3.75908 0
M  V30 5737 H 524.226 -0.475328 -0.463637 0
M  V30 5738 H 526.756 -1.83064 -0.913717 0
M  V30 5739 H 526.766 -2.41309 -3.28989 0
M  V30 5740 H 525.441 -3.29081 -2.5432 0
M  V30 5741 H 524.018 -1.64495 -3.34658 0
M  V30 5742 N 526.204 0.969867 -1.24223 0
M  V30 5743 C 527.429 1.75289 -1.10853 0
M  V30 5744 C 527.854 1.85091 0.335079 0
M  V30 5745 O 527.212 1.32024 1.24255 0
M  V30 5746 C 527.26 3.15255 -1.75062 0
M  V30 5747 O 526.364 3.99589 -1.01992 0
M  V30 5748 H 525.705 0.538904 -0.387915 0
M  V30 5749 H 528.235 1.21675 -1.64488 0
M  V30 5750 H 528.245 3.65787 -1.80731 0
M  V30 5751 H 526.92 3.07436 -2.801 0
M  V30 5752 H 525.497 3.58077 -1.04094 0
M  V30 5753 N 527.682 1.05563 1.17022 0
M  V30 5754 C 528.629 0.659893 2.21165 0
M  V30 5755 C 529.599 -0.339813 1.62587 0
M  V30 5756 O 530.784 -0.230378 1.89404 0
M  V30 5757 C 527.924 0.0447297 3.45071 0
M  V30 5758 C 527.037 1.09372 4.17926 0
M  V30 5759 C 526.172 0.445481 5.29329 0
M  V30 5760 C 525.211 1.47852 5.93975 0
M  V30 5761 N 524.348 0.854172 6.96885 0
M  V30 5762 H 529.188 1.55243 2.54369 0
M  V30 5763 H 526.725 0.776336 1.24946 0
M  V30 5764 H 528.683 -0.329404 4.15898 0
M  V30 5765 H 527.313 -0.811244 3.1244 0
M  V30 5766 H 526.365 1.58564 3.45777 0
M  V30 5767 H 527.677 1.87773 4.62107 0
M  V30 5768 H 526.831 0.0179688 6.06697 0
M  V30 5769 H 525.57 -0.370481 4.86291 0
M  V30 5770 H 524.575 1.91601 5.15334 0
M  V30 5771 H 525.8 2.29645 6.39093 0
M  V30 5772 H 523.746 0.0587882 6.55974 0
M  V30 5773 H 523.663 1.57567 7.39397 0
M  V30 5774 H 524.931 0.451559 7.78191 0
M  V30 5775 N 529.16 -1.33526 0.837174 0
M  V30 5776 C 530.388 -2.02047 0.445494 0
M  V30 5777 C 530.803 -1.62995 -0.952788 0
M  V30 5778 O 530.16 -0.842447 -1.61892 0
M  V30 5779 C 530.211 -3.57221 0.554577 0
M  V30 5780 O 529.932 -3.94863 1.89776 0
M  V30 5781 C 531.433 -4.43012 0.159634 0
M  V30 5782 H 528.653 -0.647221 0.177048 0
M  V30 5783 H 531.197 -1.70492 1.12928 0
M  V30 5784 H 529.352 -3.87315 -0.0812781 0
M  V30 5785 H 529.766 -4.89569 1.88208 0
M  V30 5786 H 531.24 -5.51253 0.28701 0
M  V30 5787 H 531.717 -4.29916 -0.898289 0
M  V30 5788 H 532.323 -4.18274 0.769855 0
M  V30 5789 N 530.638 -0.59345 -1.46 0
M  V30 5790 C 532.054 -0.255965 -1.57534 0
M  V30 5791 C 532.254 1.24167 -1.58697 0
M  V30 5792 O 531.31 2.02398 -1.50968 0
M  V30 5793 C 532.623 -0.91466 -2.86451 0
M  V30 5794 C 534.171 -0.889253 -3.00102 0
M  V30 5795 C 534.646 -1.52769 -4.3177 0
M  V30 5796 N 536.137 -1.49253 -4.38495 0
M  V30 5797 C 536.872 -1.9558 -5.39014 0
M  V30 5798 N 536.368 -2.49929 -6.46148 0
M  V30 5799 N 538.161 -1.86432 -5.30282 0
M  V30 5800 H 530.312 -1.56604 -1.43489 0
M  V30 5801 H 532.575 -0.655207 -0.685133 0
M  V30 5802 H 532.281 -1.96861 -2.91442 0
M  V30 5803 H 532.155 -0.429356 -3.74748 0
M  V30 5804 H 534.542 0.156111 -2.94687 0
M  V30 5805 H 534.623 -1.41268 -2.13253 0
M  V30 5806 H 534.267 -2.57231 -4.37944 0
M  V30 5807 H 534.197 -0.979398 -5.17412 0
M  V30 5808 H 536.688 -1.09536 -3.61677 0
M  V30 5809 H 537.001 -2.83109 -7.19075 0
M  V30 5810 H 535.346 -2.53961 -6.46938 0
M  V30 5811 H 538.537 -1.43722 -4.4549 0
M  V30 5812 H 538.71 -2.22852 -6.08474 0
M  V30 5813 N 532.116 1.54067 -0.331816 0
M  V30 5814 C 533.048 2.22139 0.564538 0
M  V30 5815 C 534.061 1.22408 1.07332 0
M  V30 5816 O 535.25 1.4883 0.985481 0
M  V30 5817 C 532.35 2.87876 1.78831 0
M  V30 5818 C 531.523 4.13817 1.41682 0
M  V30 5819 C 530.582 4.63072 2.49901 0
M  V30 5820 O 529.608 5.27562 2.13699 0
M  V30 5821 N 530.81 4.38001 3.80967 0
M  V30 5822 H 533.575 2.99694 -0.0183736 0
M  V30 5823 H 531.136 1.61153 -0.155396 0
M  V30 5824 H 533.128 3.17747 2.50637 0
M  V30 5825 H 531.698 2.13977 2.27887 0
M  V30 5826 H 530.918 3.9062 0.530044 0
M  V30 5827 H 532.206 4.95762 1.14443 0
M  V30 5828 H 531.604 3.864 4.13173 0
M  V30 5829 H 530.161 4.72507 4.48977 0
M  V30 5830 N 533.594 0.0601682 1.57485 0
M  V30 5831 C 534.843 -0.611101 1.9222 0
M  V30 5832 C 535.156 -1.71469 0.941159 0
M  V30 5833 O 536.362 -2.44473 1.18089 0
M  V30 5834 C 534.818 -1.13832 3.41424 0
M  V30 5835 C 534.426 -0.0663596 4.47951 0
M  V30 5836 C 536.17 -1.78432 3.85178 0
M  V30 5837 C 534.077 -0.606965 5.88277 0
M  V30 5838 H 533.007 -0.232033 0.71741 0
M  V30 5839 H 535.658 0.130518 1.83035 0
M  V30 5840 H 534.04 -1.93254 3.45643 0
M  V30 5841 H 535.214 0.707682 4.55333 0
M  V30 5842 H 533.529 0.482715 4.13593 0
M  V30 5843 H 536.126 -2.1989 4.87394 0
M  V30 5844 H 536.469 -2.63966 3.21913 0
M  V30 5845 H 537.002 -1.05651 3.83514 0
M  V30 5846 H 533.741 0.21095 6.5516 0
M  V30 5847 H 533.261 -1.34879 5.84438 0
M  V30 5848 H 534.94 -1.08704 6.37803 0
M  V30 5849 N 535.072 -1.5615 -0.213296 0
M  V30 5850 C 536.321 -1.78743 -0.93455 0
M  V30 5851 C 536.634 -0.630199 -1.8517 0
M  V30 5852 O 537.84 -0.739966 -2.61222 0
M  V30 5853 C 536.296 -3.16571 -1.71203 0
M  V30 5854 C 535.904 -4.40043 -0.840617 0
M  V30 5855 C 537.648 -3.48485 -2.42401 0
M  V30 5856 C 535.555 -5.68895 -1.61592 0
M  V30 5857 H 534.485 -0.666426 -0.352692 0
M  V30 5858 H 537.136 -1.82532 -0.188227 0
M  V30 5859 H 535.518 -3.06981 -2.50157 0
M  V30 5860 H 536.692 -4.6071 -0.0910326 0
M  V30 5861 H 535.007 -4.15706 -0.240365 0
M  V30 5862 H 537.604 -4.41983 -3.00924 0
M  V30 5863 H 537.947 -2.71371 -3.15695 0
M  V30 5864 H 538.48 -3.59442 -1.7043 0
M  V30 5865 H 535.219 -6.48925 -0.926106 0
M  V30 5866 H 534.739 -5.52275 -2.33991 0
M  V30 5867 H 536.418 -6.09365 -2.17447 0
M  V30 5868 N 536.55 0.480323 -1.50102 0
M  V30 5869 C 537.775 1.26126 -1.64642 0
M  V30 5870 C 538.2 1.85257 -0.325823 0
M  V30 5871 O 537.558 1.66854 0.709194 0
M  V30 5872 C 537.606 2.35243 -2.73301 0
M  V30 5873 O 536.71 3.39646 -2.33911 0
M  V30 5874 H 536.051 0.371463 -0.550374 0
M  V30 5875 H 538.581 0.572696 -1.96421 0
M  V30 5876 H 538.591 2.80695 -2.96098 0
M  V30 5877 H 537.266 1.91574 -3.6915 0
M  V30 5878 H 535.843 2.99969 -2.21525 0
M  V30 5879 N 538.028 1.39524 0.732853 0
M  V30 5880 C 539.256 1.40143 1.52209 0
M  V30 5881 C 539.671 -0.00348836 1.888 0
M  V30 5882 O 539.028 -0.975357 1.5425 0
M  V30 5883 C 539.079 2.27632 2.8083 0
M  V30 5884 O 538.8 3.62654 2.45792 0
M  V30 5885 C 540.301 2.36658 3.74844 0
M  V30 5886 H 537.521 0.478604 0.470297 0
M  V30 5887 H 540.065 1.83366 0.905388 0
M  V30 5888 H 538.22 1.87818 3.38826 0
M  V30 5889 H 538.634 4.08941 3.28431 0
M  V30 5890 H 540.108 3.02118 4.61984 0
M  V30 5891 H 540.585 1.38638 4.16745 0
M  V30 5892 H 541.191 2.76951 3.22766 0
M  V30 5893 N 539.506 -0.963266 1.24736 0
M  V30 5894 C 540.755 -1.70115 1.08369 0
M  V30 5895 C 541.068 -1.91939 -0.376688 0
M  V30 5896 O 542.274 -2.6334 -0.660624 0
M  V30 5897 C 540.73 -3.06218 1.89099 0
M  V30 5898 C 540.338 -2.92221 3.39574 0
M  V30 5899 C 542.082 -3.83848 1.81275 0
M  V30 5900 C 539.989 -4.23662 4.12631 0
M  V30 5901 H 538.919 -0.637944 0.401924 0
M  V30 5902 H 541.57 -1.07304 1.48856 0
M  V30 5903 H 539.952 -3.69884 1.41429 0
M  V30 5904 H 541.126 -2.37541 3.94856 0
M  V30 5905 H 539.441 -2.28054 3.48397 0
M  V30 5906 H 542.038 -4.81188 2.33158 0
M  V30 5907 H 542.381 -4.08949 0.778895 0
M  V30 5908 H 542.914 -3.26918 2.26649 0
M  V30 5909 H 539.653 -4.03753 5.16395 0
M  V30 5910 H 539.173 -4.78141 3.62135 0
M  V30 5911 H 540.852 -4.92256 4.19873 0
M  V30 5912 N 540.985 -1.06182 -1.16461 0
M  V30 5913 C 542.401 -0.785065 -1.38956 0
M  V30 5914 C 542.601 0.616103 -1.9185 0
M  V30 5915 O 541.657 1.37686 -2.11657 0
M  V30 5916 C 542.97 -1.84902 -2.37132 0
M  V30 5917 C 544.518 -1.8724 -2.50819 0
M  V30 5918 C 544.993 -2.92686 -3.52277 0
M  V30 5919 N 546.484 -2.91712 -3.59803 0
M  V30 5920 C 547.219 -3.69949 -4.38093 0
M  V30 5921 N 546.715 -4.58 -5.19815 0
M  V30 5922 N 548.508 -3.58346 -4.33064 0
M  V30 5923 H 540.659 -1.96569 -0.804634 0
M  V30 5924 H 542.922 -0.851747 -0.416211 0
M  V30 5925 H 542.628 -2.85518 -2.0536 0
M  V30 5926 H 542.502 -1.69908 -3.36766 0
M  V30 5927 H 544.889 -0.872827 -2.81897 0
M  V30 5928 H 544.97 -2.06311 -1.51226 0
M  V30 5929 H 544.614 -3.92835 -3.21937 0
M  V30 5930 H 544.544 -2.70864 -4.51598 0
M  V30 5931 H 547.035 -2.27876 -3.01464 0
M  V30 5932 H 547.348 -5.14357 -5.76764 0
M  V30 5933 H 545.693 -4.62056 -5.19162 0
M  V30 5934 H 548.884 -2.88943 -3.68279 0
M  V30 5935 H 549.057 -4.19563 -4.93833 0
M  V30 5936 N 542.463 1.3308 -0.844243 0
M  V30 5937 C 543.691 2.01808 -0.456203 0
M  V30 5938 C 544.106 1.63498 0.944131 0
M  V30 5939 O 543.463 0.85102 1.61443 0
M  V30 5940 C 543.514 3.56922 -0.573513 0
M  V30 5941 O 543.235 3.93851 -1.91868 0
M  V30 5942 C 544.736 4.42922 -0.183125 0
M  V30 5943 H 541.956 0.646273 -0.180477 0
M  V30 5944 H 544.5 1.69891 -1.1383 0
M  V30 5945 H 542.655 3.87352 0.0607367 0
M  V30 5946 H 543.069 4.88564 -1.90802 0
M  V30 5947 H 544.543 5.51093 -0.316241 0
M  V30 5948 H 545.02 4.30386 0.875477 0
M  V30 5949 H 545.626 4.1786 -0.792027 0
M  V30 5950 N 543.941 0.601185 1.45683 0
M  V30 5951 C 544.873 -0.159446 2.28645 0
M  V30 5952 C 545.886 -0.837882 1.39583 0
M  V30 5953 O 547.075 -0.704344 1.64016 0
M  V30 5954 C 544.175 -1.24641 3.15147 0
M  V30 5955 C 543.348 -0.656334 4.32448 0
M  V30 5956 C 542.407 -1.63337 5.00208 0
M  V30 5957 O 541.433 -1.16217 5.57209 0
M  V30 5958 N 542.635 -2.96773 4.98905 0
M  V30 5959 H 545.4 0.5524 2.94565 0
M  V30 5960 H 542.961 0.440223 1.558 0
M  V30 5961 H 544.953 -1.8997 3.57342 0
M  V30 5962 H 543.523 -1.86087 2.51178 0
M  V30 5963 H 542.743 0.174879 3.93812 0
M  V30 5964 H 544.031 -0.242211 5.08223 0
M  V30 5965 H 543.429 -3.37662 4.53873 0
M  V30 5966 H 541.986 -3.57541 5.44984 0
M  V30 5967 N 545.419 -1.53889 0.339982 0
M  V30 5968 C 546.367 -2.26391 -0.533822 0
M  V30 5969 C 547.361 -1.28404 -1.10493 0
M  V30 5970 O 548.567 -1.46124 -1.05108 0
M  V30 5971 H 544.942 -0.727385 -0.190828 0
M  V30 5972 H 546.913 -2.98233 0.0997484 0
M  V30 5973 C 545.662 -3.04707 -1.67479 0
M  V30 5974 H 544.985 -3.79934 -1.2446 0
M  V30 5975 H 546.425 -3.58657 -2.26144 0
M  V30 5976 C 544.884 -2.13989 -2.60212 0
M  V30 5977 O 545.414 -1.73361 -3.62366 0
M  V30 5978 N 543.62 -1.79141 -2.28816 0
M  V30 5979 H 543.167 -2.12378 -1.45785 0
M  V30 5980 H 543.125 -1.18725 -2.91121 0
M  V30 5981 N 546.897 -0.0685191 -1.57451 0
M  V30 5982 C 547.827 0.89747 -2.15564 0
M  V30 5983 C 548.808 1.31266 -1.08181 0
M  V30 5984 O 549.993 1.38429 -1.36202 0
M  V30 5985 C 547.123 2.16623 -2.71463 0
M  V30 5986 C 546.077 1.89054 -3.83982 0
M  V30 5987 C 545.403 3.22532 -4.26471 0
M  V30 5988 C 546.703 1.1984 -5.08366 0
M  V30 5989 H 548.397 0.413373 -2.96533 0
M  V30 5990 H 545.943 0.197391 -1.42641 0
M  V30 5991 H 547.896 2.84614 -3.10761 0
M  V30 5992 H 546.62 2.67269 -1.8771 0
M  V30 5993 H 545.279 1.23469 -3.45183 0
M  V30 5994 H 544.927 3.71013 -3.39644 0
M  V30 5995 H 544.627 3.04879 -5.02317 0
M  V30 5996 H 546.151 3.91727 -4.68383 0
M  V30 5997 H 547.565 1.77896 -5.45001 0
M  V30 5998 H 545.962 1.12456 -5.89469 0
M  V30 5999 H 547.032 0.176996 -4.84577 0
M  V30 6000 N 548.375 1.56261 0.205012 0
M  V30 6001 C 549.786 1.70056 0.770574 0
M  V30 6002 C 550.137 0.673398 1.84282 0
M  V30 6003 O 549.262 -0.172196 2.15714 0
M  V30 6004 C 549.857 3.08316 1.40451 0
M  V30 6005 C 548.416 3.2391 1.91727 0
M  V30 6006 C 547.563 2.66001 0.783516 0
M  V30 6007 H 550.514 1.58688 -0.019911 0
M  V30 6008 H 550.535 3.05094 2.27371 0
M  V30 6009 H 550.047 3.83053 0.623882 0
M  V30 6010 H 548.148 2.54072 2.7254 0
M  V30 6011 H 548.261 4.3131 2.08588 0
M  V30 6012 H 546.625 2.24915 1.19521 0
M  V30 6013 H 547.408 3.43297 0.0152883 0
M  V30 6014 N 549.853 -0.472356 1.50355 0
M  V30 6015 C 550.801 -1.59126 1.69651 0
M  V30 6016 C 551.795 -1.59793 0.56237 0
M  V30 6017 O 553.001 -1.63957 0.742832 0
M  V30 6018 H 549.376 -0.528008 0.535454 0
M  V30 6019 H 551.347 -1.40013 2.63513 0
M  V30 6020 C 550.096 -2.97075 1.8067 0
M  V30 6021 H 549.419 -2.9728 2.67329 0
M  V30 6022 H 550.859 -3.74825 1.98197 0
M  V30 6023 C 549.318 -3.32247 0.558016 0
M  V30 6024 O 549.848 -4.00553 -0.303399 0
M  V30 6025 N 548.054 -2.87659 0.412415 0
M  V30 6026 H 547.601 -2.32246 1.11443 0
M  V30 6027 H 547.559 -3.11556 -0.421908 0
M  V30 6028 N 551.331 -1.39911 -0.725443 0
M  V30 6029 C 552.571 -1.39096 -1.49772 0
M  V30 6030 C 552.935 0.0106452 -1.91997 0
M  V30 6031 O 554.136 0.143859 -2.68415 0
M  V30 6032 C 552.407 -2.34441 -2.69764 0
M  V30 6033 S 553.966 -2.51898 -3.59295 0
M  V30 6034 H 550.784 -0.49314 -0.512186 0
M  V30 6035 H 553.386 -1.76093 -0.849197 0
M  V30 6036 H 552.09 -3.35123 -2.36898 0
M  V30 6037 H 551.621 -1.98692 -3.39537 0
M  V30 6038 H 553.636 -1.76402 -4.63785 0
M  V30 6039 N 552.809 0.956637 -1.25245 0
M  V30 6040 C 553.741 2.05628 -1.01242 0
M  V30 6041 C 554.754 1.62785 0.0219579 0
M  V30 6042 O 555.943 1.77184 -0.216365 0
M  V30 6043 C 553.043 3.35069 -0.508161 0
M  V30 6044 C 552.216 4.06761 -1.60823 0
M  V30 6045 C 551.275 5.14473 -1.1047 0
M  V30 6046 O 550.301 5.40033 -1.79868 0
M  V30 6047 N 551.503 5.80474 0.0550773 0
M  V30 6048 H 554.268 2.2679 -1.95925 0
M  V30 6049 H 551.829 1.12505 -1.16423 0
M  V30 6050 H 553.821 4.044 -0.155819 0
M  V30 6051 H 552.391 3.10694 0.344683 0
M  V30 6052 H 551.611 3.31555 -2.13224 0
M  V30 6053 H 552.899 4.51418 -2.34733 0
M  V30 6054 H 552.297 5.62125 0.635004 0
M  V30 6055 H 550.854 6.50868 0.348469 0
M  V30 6056 N 554.287 1.06798 1.15896 0
M  V30 6057 C 555.217 0.704677 2.22613 0
M  V30 6058 C 556.198 -0.305252 1.67339 0
M  V30 6059 O 557.383 -0.179247 1.93371 0
M  V30 6060 C 554.513 0.0957325 3.47168 0
M  V30 6061 C 553.467 1.0322 4.15367 0
M  V30 6062 C 552.793 0.286293 5.33933 0
M  V30 6063 C 554.093 2.36341 4.65768 0
M  V30 6064 H 555.787 1.59688 2.53259 0
M  V30 6065 H 553.333 0.769257 1.21731 0
M  V30 6066 H 555.286 -0.170333 4.21056 0
M  V30 6067 H 554.01 -0.831516 3.15838 0
M  V30 6068 H 552.669 1.28309 3.43413 0
M  V30 6069 H 552.317 -0.644237 4.98857 0
M  V30 6070 H 552.017 0.910436 5.80504 0
M  V30 6071 H 553.541 0.0278938 6.10594 0
M  V30 6072 H 554.955 2.1561 5.31211 0
M  V30 6073 H 553.352 2.94299 5.2298 0
M  V30 6074 H 554.422 2.99047 3.81705 0
M  V30 6075 N 555.766 -1.3263 0.851289 0
M  V30 6076 C 557.015 -1.96633 0.449267 0
M  V30 6077 C 557.328 -1.68131 -0.999562 0
M  V30 6078 O 558.534 -2.25845 -1.50685 0
M  V30 6079 C 556.99 -3.51946 0.752446 0
M  V30 6080 C 556.598 -3.89311 2.21678 0
M  V30 6081 C 558.342 -4.22437 0.417983 0
M  V30 6082 C 556.249 -5.37655 2.46336 0
M  V30 6083 H 555.179 -0.735888 0.164269 0
M  V30 6084 H 557.83 -1.51073 1.0416 0
M  V30 6085 H 556.212 -3.95899 0.0895858 0
M  V30 6086 H 557.386 -3.56378 2.92115 0
M  V30 6087 H 555.701 -3.31836 2.51543 0
M  V30 6088 H 558.298 -5.31549 0.579674 0
M  V30 6089 H 558.641 -4.11349 -0.640115 0
M  V30 6090 H 559.174 -3.84057 1.03659 0
M  V30 6091 H 555.913 -5.5376 3.50757 0
M  V30 6092 H 555.433 -5.72005 1.80473 0
M  V30 6093 H 557.112 -6.04695 2.30115 0
M  V30 6094 N 557.244 -0.608902 -1.45362 0
M  V30 6095 C 558.469 -0.10921 -2.07112 0
M  V30 6096 C 558.894 1.19779 -1.45033 0
M  V30 6097 O 558.252 1.72961 -0.543527 0
M  V30 6098 C 558.3 0.0155745 -3.60597 0
M  V30 6099 O 557.404 1.06546 -3.98399 0
M  V30 6100 H 556.745 -0.0746619 -0.659789 0
M  V30 6101 H 559.275 -0.839283 -1.86594 0
M  V30 6102 H 559.285 0.213364 -4.07442 0
M  V30 6103 H 557.96 -0.938765 -4.05167 0
M  V30 6104 H 556.537 0.844024 -3.63223 0
M  V30 6105 N 558.722 1.53707 -0.348139 0
M  V30 6106 C 560.138 1.596 0.00361134 0
M  V30 6107 C 560.338 1.36394 1.4832 0
M  V30 6108 O 559.394 1.16046 2.24253 0
M  V30 6109 C 560.707 2.97512 -0.436682 0
M  V30 6110 C 562.255 3.10568 -0.389416 0
M  V30 6111 C 562.73 4.50866 -0.805249 0
M  V30 6112 N 564.221 4.56929 -0.759616 0
M  V30 6113 C 564.956 5.63643 -1.05327 0
M  V30 6114 N 564.452 6.78189 -1.41531 0
M  V30 6115 N 566.245 5.5354 -0.977207 0
M  V30 6116 H 558.396 1.67044 -1.31187 0
M  V30 6117 H 560.659 0.782559 -0.535075 0
M  V30 6118 H 560.365 3.19575 -1.46849 0
M  V30 6119 H 560.239 3.76742 0.185744 0
M  V30 6120 H 562.626 2.88226 0.633228 0
M  V30 6121 H 562.707 2.33387 -1.04711 0
M  V30 6122 H 562.351 4.73943 -1.82593 0
M  V30 6123 H 562.281 5.26452 -0.124989 0
M  V30 6124 H 564.772 3.74675 -0.49265 0
M  V30 6125 H 565.085 7.55541 -1.62411 0
M  V30 6126 H 563.43 6.79624 -1.45381 0
M  V30 6127 H 566.621 4.62932 -0.693675 0
M  V30 6128 H 566.794 6.36614 -1.2094 0
M  V30 6129 N 560.2 0.0768682 1.57412 0
M  V30 6130 C 561.425 -0.603404 1.98428 0
M  V30 6131 C 561.85 -1.62047 0.955108 0
M  V30 6132 O 561.208 -1.81129 -0.0786778 0
M  V30 6133 C 561.256 -1.24396 3.38464 0
M  V30 6134 O 560.36 -2.35982 3.3821 0
M  V30 6135 H 559.701 -0.154741 0.645718 0
M  V30 6136 H 562.231 0.152885 2.04028 0
M  V30 6137 H 562.241 -1.5896 3.7576 0
M  V30 6138 H 560.916 -0.498735 4.12899 0
M  V30 6139 H 559.493 -2.03173 3.1269 0
M  V30 6140 N 561.678 -1.56367 -0.196722 0
M  V30 6141 C 562.628 -1.9082 -1.24787 0
M  V30 6142 C 563.612 -0.773719 -1.41076 0
M  V30 6143 O 564.804 -1.03655 -1.43474 0
M  V30 6144 C 561.933 -2.24982 -2.59303 0
M  V30 6145 C 561.019 -3.44882 -2.46814 0
M  V30 6146 N 561.41 -4.62835 -2.04003 0
M  V30 6147 C 559.708 -3.48988 -2.77711 0
M  V30 6148 C 560.409 -5.44993 -2.03366 0
M  V30 6149 N 559.385 -4.85356 -2.44807 0
M  V30 6150 H 563.187 -2.79516 -0.908175 0
M  V30 6151 H 560.701 -1.57265 -0.405166 0
M  V30 6152 H 562.698 -2.47848 -3.35227 0
M  V30 6153 H 561.358 -1.37611 -2.94098 0
M  V30 6154 H 562.369 -4.87532 -1.74738 0
M  V30 6155 H 559.046 -2.72029 -3.16712 0
M  V30 6156 H 560.436 -6.49464 -1.72181 0
M  V30 6157 N 563.156 0.464375 -1.50603 0
M  V30 6158 C 564.386 1.23727 -1.65454 0
M  V30 6159 C 564.794 1.86119 -0.340032 0
M  V30 6160 O 564.137 1.70301 0.688706 0
M  V30 6161 C 564.199 2.38153 -2.69301 0
M  V30 6162 C 563.863 1.96345 -4.12671 0
M  V30 6163 C 564.86 1.48215 -4.98326 0
M  V30 6164 C 562.545 2.04861 -4.58625 0
M  V30 6165 C 564.539 1.09152 -6.27985 0
M  V30 6166 C 562.226 1.65409 -5.88288 0
M  V30 6167 C 563.224 1.17634 -6.72794 0
M  V30 6168 O 562.912 0.787312 -8.00035 0
M  V30 6169 H 562.644 0.380075 -0.559034 0
M  V30 6170 H 565.198 0.559919 -1.97621 0
M  V30 6171 H 563.428 3.09081 -2.32392 0
M  V30 6172 H 565.117 3.00099 -2.73304 0
M  V30 6173 H 565.883 1.41052 -4.64036 0
M  V30 6174 H 561.762 2.40996 -3.92991 0
M  V30 6175 H 565.306 0.717909 -6.93896 0
M  V30 6176 H 561.203 1.72233 -6.22098 0
M  V30 6177 H 561.971 0.915567 -8.13363 0
M  V30 6178 N 564.634 1.40294 0.718013 0
M  V30 6179 C 565.859 1.41941 1.5122 0
M  V30 6180 C 566.284 0.0202371 1.88089 0
M  V30 6181 O 565.642 -0.971078 1.53101 0
M  V30 6182 C 565.69 2.3141 2.76554 0
M  V30 6183 O 564.794 1.75567 3.73162 0
M  V30 6184 H 564.135 0.482644 0.456016 0
M  V30 6185 H 566.665 1.84494 0.884478 0
M  V30 6186 H 566.675 2.46513 3.25108 0
M  V30 6187 H 565.35 3.33085 2.49053 0
M  V30 6188 H 563.927 1.69798 3.31999 0
M  V30 6189 N 566.112 -0.949982 1.2575 0
M  V30 6190 C 567.523 -1.50989 1.09815 0
M  V30 6191 C 567.874 -1.93497 -0.324556 0
M  V30 6192 O 566.999 -1.79068 -1.21506 0
M  V30 6193 C 567.594 -2.74394 1.98729 0
M  V30 6194 C 566.153 -3.26682 1.86965 0
M  V30 6195 C 565.3 -1.99498 1.92603 0
M  V30 6196 H 568.251 -0.766387 1.38968 0
M  V30 6197 H 568.272 -3.48383 1.53001 0
M  V30 6198 H 567.784 -2.43425 3.02268 0
M  V30 6199 H 565.885 -3.62461 0.863279 0
M  V30 6200 H 565.998 -3.94383 2.72027 0
M  V30 6201 H 564.362 -2.15005 1.36546 0
M  V30 6202 H 565.145 -1.70871 2.97755 0
M  V30 6203 N 567.59 -1.07411 -1.15328 0
M  V30 6204 C 568.839 -0.792643 -1.85473 0
M  V30 6205 C 569.152 0.683789 -1.83259 0
M  V30 6206 O 570.358 1.08005 -2.49093 0
M  V30 6207 C 568.814 -1.36787 -3.32892 0
M  V30 6208 C 568.422 -2.87536 -3.43551 0
M  V30 6209 C 570.166 -1.16444 -4.08217 0
M  V30 6210 C 568.073 -3.38247 -4.85122 0
M  V30 6211 H 567.003 -0.292838 -0.694811 0
M  V30 6212 H 569.654 -1.29426 -1.30082 0
M  V30 6213 H 568.036 -0.793993 -3.87958 0
M  V30 6214 H 569.21 -3.50973 -2.98588 0
M  V30 6215 H 567.525 -3.06676 -2.81672 0
M  V30 6216 H 570.122 -1.51808 -5.12697 0
M  V30 6217 H 570.465 -0.10353 -4.16171 0
M  V30 6218 H 570.998 -1.70472 -3.59422 0
M  V30 6219 H 567.737 -4.43866 -4.82351 0
M  V30 6220 H 567.257 -2.79564 -5.30664 0
M  V30 6221 H 568.936 -3.34238 -5.5398 0
M  V30 6222 N 569.068 1.32177 -0.85831 0
M  V30 6223 C 570.298 2.01021 -0.476889 0
M  V30 6224 C 570.706 1.64653 0.931995 0
M  V30 6225 O 570.049 0.865713 1.62022 0
M  V30 6226 C 570.111 3.55413 -0.540528 0
M  V30 6227 C 569.775 4.1522 -1.90895 0
M  V30 6228 C 570.772 4.3318 -2.87491 0
M  V30 6229 C 568.457 4.51212 -2.20709 0
M  V30 6230 C 570.451 4.86306 -4.1205 0
M  V30 6231 C 568.138 5.04042 -3.45521 0
M  V30 6232 C 569.136 5.21538 -4.41007 0
M  V30 6233 O 568.824 5.73238 -5.63608 0
M  V30 6234 H 568.556 0.650059 -0.18547 0
M  V30 6235 H 571.11 1.69648 -1.15796 0
M  V30 6236 H 569.34 3.86196 0.19741 0
M  V30 6237 H 571.029 4.05526 -0.174191 0
M  V30 6238 H 571.795 4.05704 -2.65762 0
M  V30 6239 H 567.674 4.36878 -1.4717 0
M  V30 6240 H 571.218 4.99877 -4.86589 0
M  V30 6241 H 567.115 5.30952 -3.67098 0
M  V30 6242 H 567.883 5.91625 -5.65617 0
M  V30 6243 N 570.547 0.616602 1.45037 0
M  V30 6244 C 571.477 -0.0840787 2.33349 0
M  V30 6245 C 572.458 -0.849641 1.4736 0
M  V30 6246 O 573.643 -0.818407 1.76113 0
M  V30 6247 C 570.773 -1.07604 3.3021 0
M  V30 6248 C 569.727 -0.423096 4.25904 0
M  V30 6249 C 569.053 -1.52394 5.12523 0
M  V30 6250 C 570.353 0.661457 5.18095 0
M  V30 6251 H 572.047 0.653333 2.92185 0
M  V30 6252 H 569.593 0.315634 1.40498 0
M  V30 6253 H 571.546 -1.57485 3.90866 0
M  V30 6254 H 570.27 -1.84416 2.69552 0
M  V30 6255 H 568.929 0.05493 3.66559 0
M  V30 6256 H 568.577 -2.28257 4.48227 0
M  V30 6257 H 568.277 -1.09251 5.77354 0
M  V30 6258 H 569.801 -2.02485 5.76049 0
M  V30 6259 H 571.215 0.246353 5.7277 0
M  V30 6260 H 569.612 1.01517 5.91451 0
M  V30 6261 H 570.682 1.53446 4.59981 0
M  V30 6262 N 572.025 -1.5352 0.356285 0
M  V30 6263 C 573.25 -2.06007 -0.239961 0
M  V30 6264 C 573.675 -1.22872 -1.42422 0
M  V30 6265 O 573.033 -0.245516 -1.7963 0
M  V30 6266 C 573.081 -3.5522 -0.620587 0
M  V30 6267 O 572.185 -3.74864 -1.71902 0
M  V30 6268 H 571.526 -0.662961 -0.0371377 0
M  V30 6269 H 574.056 -1.98033 0.514194 0
M  V30 6270 H 574.066 -3.98081 -0.894197 0
M  V30 6271 H 572.741 -4.15175 0.245407 0
M  V30 6272 H 571.318 -3.43904 -1.44169 0
M  V30 6273 N 573.503 -0.0852151 -1.57369 0
M  V30 6274 C 574.75 0.580806 -1.93992 0
M  V30 6275 C 575.078 1.68801 -0.966252 0
M  V30 6276 O 574.333 1.95694 0.0158649 0
M  V30 6277 C 574.632 1.18482 -3.3719 0
M  V30 6278 C 574.298 0.2024 -4.50446 0
M  V30 6279 C 572.96 -0.0678318 -4.81152 0
M  V30 6280 C 575.312 -0.46895 -5.19086 0
M  V30 6281 C 572.64 -1.01627 -5.77831 0
M  V30 6282 C 574.992 -1.4058 -6.16782 0
M  V30 6283 C 573.656 -1.68436 -6.45899 0
M  V30 6284 H 572.926 0.212532 -0.709867 0
M  V30 6285 H 575.573 -0.158947 -1.90839 0
M  V30 6286 H 573.878 2.0006 -3.36873 0
M  V30 6287 H 575.575 1.70767 -3.62822 0
M  V30 6288 H 572.165 0.423208 -4.26505 0
M  V30 6289 H 576.349 -0.273307 -4.95547 0
M  V30 6290 H 571.605 -1.2392 -5.9871 0
M  V30 6291 H 575.779 -1.93188 -6.69068 0
M  V30 6292 H 573.406 -2.42088 -7.20623 0
M  V30 6293 N 574.981 1.5647 0.188427 0
M  V30 6294 C 576.227 1.81281 0.909124 0
M  V30 6295 C 576.56 0.66034 1.82628 0
M  V30 6296 O 575.835 -0.338737 1.91528 0
M  V30 6297 C 576.118 3.16388 1.7196 0
M  V30 6298 C 575.971 4.42137 0.826714 0
M  V30 6299 C 577.29 3.48256 2.69083 0
M  V30 6300 H 574.409 0.659457 0.329068 0
M  V30 6301 H 577.051 1.89182 0.176156 0
M  V30 6302 H 575.201 3.09784 2.34448 0
M  V30 6303 H 576.873 4.60794 0.216025 0
M  V30 6304 H 575.116 4.33594 0.133792 0
M  V30 6305 H 575.787 5.33184 1.42893 0
M  V30 6306 H 578.263 3.55203 2.16726 0
M  V30 6307 H 577.139 4.43899 3.2287 0
M  V30 6308 H 577.4 2.72088 3.48455 0
M  V30 6309 N 576.459 -0.456382 1.50847 0
M  V30 6310 C 577.392 -1.57177 1.65441 0
M  V30 6311 C 578.37 -1.54649 0.502224 0
M  V30 6312 O 579.554 -1.74057 0.723633 0
M  V30 6313 C 576.681 -2.95763 1.65052 0
M  V30 6314 C 575.727 -3.16389 2.86007 0
M  V30 6315 S 576.56 -2.94716 4.47105 0
M  V30 6316 C 577.716 -4.35617 4.49432 0
M  V30 6317 H 577.949 -1.44561 2.59787 0
M  V30 6318 H 575.482 -0.644758 1.40293 0
M  V30 6319 H 577.44 -3.75654 1.65512 0
M  V30 6320 H 576.101 -3.05756 0.719153 0
M  V30 6321 H 575.294 -4.17667 2.82081 0
M  V30 6322 H 574.896 -2.44293 2.8319 0
M  V30 6323 H 577.188 -5.28503 4.239 0
M  V30 6324 H 578.131 -4.44582 5.51137 0
M  V30 6325 H 578.539 -4.18382 3.78967 0
M  V30 6326 N 577.937 -1.40673 -0.710563 0
M  V30 6327 C 578.867 -1.44095 -1.83736 0
M  V30 6328 C 579.848 -0.301286 -1.67411 0
M  V30 6329 O 581.033 -0.510618 -1.87367 0
M  V30 6330 C 578.163 -1.30773 -3.21738 0
M  V30 6331 C 577.117 -2.42395 -3.52745 0
M  V30 6332 C 576.443 -2.14147 -4.89944 0
M  V30 6333 C 577.743 -3.84738 -3.53234 0
M  V30 6334 H 579.437 -2.38396 -1.81129 0
M  V30 6335 H 576.983 -1.14746 -0.870017 0
M  V30 6336 H 578.936 -1.31783 -4.00264 0
M  V30 6337 H 577.66 -0.329507 -3.24934 0
M  V30 6338 H 576.319 -2.40643 -2.76562 0
M  V30 6339 H 575.967 -1.14703 -4.89747 0
M  V30 6340 H 575.667 -2.88934 -5.11655 0
M  V30 6341 H 577.191 -2.16848 -5.70797 0
M  V30 6342 H 578.605 -3.88286 -4.2179 0
M  V30 6343 H 577.002 -4.59085 -3.86473 0
M  V30 6344 H 578.072 -4.13962 -2.52514 0
M  V30 6345 N 579.415 0.9433 -1.26252 0
M  V30 6346 C 580.345 2.05902 -1.10122 0
M  V30 6347 C 581.326 1.70099 -0.00700552 0
M  V30 6348 O 582.511 1.93377 -0.178641 0
M  V30 6349 C 579.641 3.39516 -0.731175 0
M  V30 6350 C 578.595 3.89372 -1.77688 0
M  V30 6351 C 577.921 5.19613 -1.26122 0
M  V30 6352 C 579.221 4.14489 -3.17799 0
M  V30 6353 H 580.915 2.19655 -2.03451 0
M  V30 6354 H 578.461 1.05548 -0.979576 0
M  V30 6355 H 580.414 4.17031 -0.605215 0
M  V30 6356 H 579.138 3.25733 0.23782 0
M  V30 6357 H 577.797 3.14036 -1.89148 0
M  V30 6358 H 577.445 5.02208 -0.282128 0
M  V30 6359 H 577.145 5.53939 -1.96023 0
M  V30 6360 H 578.669 5.99713 -1.14789 0
M  V30 6361 H 580.083 4.82625 -3.09428 0
M  V30 6362 H 578.48 4.60094 -3.85271 0
M  V30 6363 H 579.55 3.20347 -3.64014 0
M  V30 6364 N 580.893 1.08022 1.14757 0
M  V30 6365 C 581.856 0.71048 2.1791 0
M  V30 6366 C 582.856 -0.252731 1.58801 0
M  V30 6367 O 584.046 -0.0327915 1.74169 0
M  V30 6368 C 581.178 0.0483203 3.40866 0
M  V30 6369 H 582.371 1.62384 2.52134 0
M  V30 6370 H 579.924 0.877595 1.29337 0
M  V30 6371 H 580.659 -0.876959 3.12218 0
M  V30 6372 H 580.444 0.741189 3.85031 0
M  V30 6373 H 581.934 -0.195471 4.17142 0
M  V30 6374 N 582.371 -1.3172 0.865308 0
M  V30 6375 C 583.334 -2.26918 0.322627 0
M  V30 6376 C 584.334 -1.52031 -0.523751 0
M  V30 6377 O 585.524 -1.70973 -0.333727 0
M  V30 6378 C 582.656 -3.36558 -0.542338 0
M  V30 6379 H 583.849 -2.76432 1.16298 0
M  V30 6380 H 581.402 -1.42573 0.640512 0
M  V30 6381 H 582.137 -2.92329 -1.40407 0
M  V30 6382 H 581.922 -3.92048 0.0636395 0
M  V30 6383 H 583.412 -4.07465 -0.91446 0
M  V30 6384 N 583.85 -0.624285 -1.44708 0
M  V30 6385 C 584.779 0.0717025 -2.3339 0
M  V30 6386 C 585.76 0.841814 -1.47809 0
M  V30 6387 O 586.946 0.809056 -1.76544 0
M  V30 6388 C 584.076 1.05852 -3.30776 0
M  V30 6389 C 583.029 0.400503 -4.26122 0
M  V30 6390 C 582.356 1.49674 -5.13324 0
M  V30 6391 C 583.656 -0.688924 -5.17737 0
M  V30 6392 H 585.35 -0.668819 -2.91834 0
M  V30 6393 H 582.896 -0.32308 -1.40329 0
M  V30 6394 H 584.849 1.5541 -3.91696 0
M  V30 6395 H 583.572 1.82984 -2.70526 0
M  V30 6396 H 582.231 -0.0743687 -3.66525 0
M  V30 6397 H 581.88 2.25877 -4.49431 0
M  V30 6398 H 581.58 1.06188 -5.77926 0
M  V30 6399 H 583.104 1.99427 -5.77115 0
M  V30 6400 H 584.518 -0.276724 -5.72632 0
M  V30 6401 H 582.915 -1.04652 -5.90904 0
M  V30 6402 H 583.985 -1.55884 -4.5916 0
M  V30 6403 N 585.328 1.53329 -0.364422 0
M  V30 6404 C 586.553 2.06132 0.229033 0
M  V30 6405 C 586.978 1.23625 1.41769 0
M  V30 6406 O 586.336 0.255038 1.79497 0
M  V30 6407 C 586.384 3.55544 0.60174 0
M  V30 6408 O 585.488 3.75771 1.69912 0
M  V30 6409 H 584.829 0.663148 0.0336213 0
M  V30 6410 H 587.359 1.97758 -0.524689 0
M  V30 6411 H 587.369 3.98549 0.873073 0
M  V30 6412 H 586.044 4.15039 -0.267421 0
M  V30 6413 H 584.621 3.44663 1.42343 0
M  V30 6414 N 586.806 0.0935595 1.57322 0
M  V30 6415 C 588.052 -0.565234 1.95388 0
M  V30 6416 C 588.407 -1.65888 0.974632 0
M  V30 6417 O 587.7 -1.916 0.000376385 0
M  V30 6418 C 587.894 -1.16692 3.37813 0
M  V30 6419 C 587.723 -0.133091 4.49503 0
M  V30 6420 C 586.493 0.289884 5.04468 0
M  V30 6421 C 588.691 0.638141 5.10326 0
M  V30 6422 N 586.673 1.31214 5.99713 0
M  V30 6423 C 588.044 1.51227 6.01274 0
M  V30 6424 C 590.099 0.691827 4.9307 0
M  V30 6425 C 588.802 2.43536 6.76818 0
M  V30 6426 C 590.828 1.60251 5.69274 0
M  V30 6427 C 590.19 2.46427 6.59889 0
M  V30 6428 H 586.289 -0.177212 0.761656 0
M  V30 6429 H 588.873 0.175769 1.93905 0
M  V30 6430 H 587.044 -1.87775 3.39993 0
M  V30 6431 H 588.776 -1.78795 3.63063 0
M  V30 6432 H 585.531 -0.0975541 4.735 0
M  V30 6433 H 585.955 1.82143 6.52038 0
M  V30 6434 H 590.597 0.0397431 4.22781 0
M  V30 6435 H 588.315 3.0977 7.4637 0
M  V30 6436 H 591.901 1.64917 5.57937 0
M  V30 6437 H 590.781 3.15751 7.17824 0
M  V30 6438 N 588.284 -1.56567 -0.180126 0
M  V30 6439 C 589.216 -1.92275 -1.24751 0
M  V30 6440 C 590.229 -0.814922 -1.40936 0
M  V30 6441 O 591.418 -1.09336 -1.41095 0
M  V30 6442 C 588.518 -2.15265 -2.61752 0
M  V30 6443 C 587.691 -3.46467 -2.66981 0
M  V30 6444 C 586.75 -3.58391 -3.85283 0
M  V30 6445 O 585.776 -4.31086 -3.7169 0
M  V30 6446 N 586.978 -2.92587 -5.01371 0
M  V30 6447 H 589.743 -2.84435 -0.944302 0
M  V30 6448 H 587.304 -1.57617 -0.369952 0
M  V30 6449 H 589.296 -2.20515 -3.39345 0
M  V30 6450 H 587.866 -1.29533 -2.845 0
M  V30 6451 H 587.086 -3.52953 -1.75549 0
M  V30 6452 H 588.374 -4.32819 -2.67479 0
M  V30 6453 H 587.772 -2.3338 -5.15316 0
M  V30 6454 H 586.329 -3.03444 -5.76858 0
M  V30 6455 N 589.762 0.448376 -1.51087 0
M  V30 6456 C 590.992 1.21965 -1.66757 0
M  V30 6457 C 591.4 1.85748 -0.359753 0
M  V30 6458 O 590.743 1.71022 0.670604 0
M  V30 6459 C 590.805 2.35284 -2.71812 0
M  V30 6460 C 590.469 1.91957 -4.1473 0
M  V30 6461 C 591.466 1.42921 -4.9987 0
M  V30 6462 C 589.151 1.99985 -4.60772 0
M  V30 6463 C 591.145 1.02485 -6.29107 0
M  V30 6464 C 588.832 1.5916 -5.90009 0
M  V30 6465 C 589.83 1.10491 -6.74004 0
M  V30 6466 O 589.518 0.702413 -8.00825 0
M  V30 6467 H 589.25 0.374125 -0.563034 0
M  V30 6468 H 591.804 0.538927 -1.98204 0
M  V30 6469 H 590.034 3.06599 -2.35657 0
M  V30 6470 H 591.723 2.97184 -2.76472 0
M  V30 6471 H 592.489 1.36123 -4.65506 0
M  V30 6472 H 588.368 2.36814 -3.95525 0
M  V30 6473 H 591.912 0.644271 -6.94619 0
M  V30 6474 H 587.809 1.65626 -6.2389 0
M  V30 6475 H 588.577 0.829248 -8.14288 0
M  V30 6476 N 591.24 1.41047 0.703093 0
M  V30 6477 C 592.17 1.45067 1.82969 0
M  V30 6478 C 593.151 0.31016 1.67248 0
M  V30 6479 O 594.336 0.520548 1.87093 0
M  V30 6480 C 591.466 1.32478 3.2104 0
M  V30 6481 C 590.42 2.44262 3.51454 0
M  V30 6482 C 589.746 2.16742 4.88801 0
M  V30 6483 C 591.046 3.86606 3.51189 0
M  V30 6484 H 592.74 2.39353 1.79863 0
M  V30 6485 H 590.286 1.15206 0.863919 0
M  V30 6486 H 592.239 1.33904 3.99559 0
M  V30 6487 H 590.963 0.346735 3.24754 0
M  V30 6488 H 589.622 2.42107 2.75282 0
M  V30 6489 H 589.27 1.17299 4.89132 0
M  V30 6490 H 588.97 2.91643 5.10116 0
M  V30 6491 H 590.494 2.19872 5.69639 0
M  V30 6492 H 591.908 3.90517 4.19725 0
M  V30 6493 H 590.305 4.61128 3.84033 0
M  V30 6494 H 591.375 4.15296 2.50315 0
M  V30 6495 N 592.718 -0.936591 1.26751 0
M  V30 6496 C 593.946 -1.71758 1.15355 0
M  V30 6497 C 594.361 -1.86549 -0.290683 0
M  V30 6498 O 593.718 -1.37616 -1.19868 0
M  V30 6499 C 593.769 -3.12193 1.82258 0
M  V30 6500 O 593.49 -2.98105 3.21038 0
M  V30 6501 C 594.991 -4.06485 1.76875 0
M  V30 6502 H 592.211 -0.537636 0.401483 0
M  V30 6503 H 594.755 -1.17382 1.67457 0
M  V30 6504 H 592.91 -3.63456 1.34083 0
M  V30 6505 H 593.324 -3.86824 3.54214 0
M  V30 6506 H 594.798 -5.02569 2.28316 0
M  V30 6507 H 595.275 -4.32986 0.736216 0
M  V30 6508 H 595.881 -3.61144 2.24623 0
M  V30 6509 N 594.196 -1.08629 -1.14182 0
M  V30 6510 C 595.424 -0.838889 -1.8913 0
M  V30 6511 C 595.839 0.609153 -1.78703 0
M  V30 6512 O 595.196 1.41876 -1.14794 0
M  V30 6513 C 595.247 -1.25477 -3.39025 0
M  V30 6514 O 594.968 -2.64601 -3.49167 0
M  V30 6515 C 596.469 -1.03856 -4.30963 0
M  V30 6516 H 593.689 -0.302377 -0.599007 0
M  V30 6517 H 596.233 -1.44615 -1.44592 0
M  V30 6518 H 594.388 -0.691571 -3.81177 0
M  V30 6519 H 594.802 -2.81922 -4.42289 0
M  V30 6520 H 596.276 -1.37892 -5.345 0
M  V30 6521 H 596.753 0.0242522 -4.39193 0
M  V30 6522 H 597.359 -1.58731 -3.94569 0
M  V30 6523 N 595.674 1.31259 -0.872281 0
M  V30 6524 C 596.604 2.30929 -0.345554 0
M  V30 6525 C 597.585 1.60449 0.5648 0
M  V30 6526 O 598.77 1.8814 0.481335 0
M  V30 6527 C 595.9 3.44348 0.451823 0
M  V30 6528 C 594.854 4.26435 -0.365641 0
M  V30 6529 C 594.18 5.31785 0.557562 0
M  V30 6530 C 595.48 4.97159 -1.60095 0
M  V30 6531 H 597.174 2.75234 -1.17841 0
M  V30 6532 H 594.72 1.3232 -0.568094 0
M  V30 6533 H 596.673 4.13128 0.830854 0
M  V30 6534 H 595.397 2.98816 1.31821 0
M  V30 6535 H 594.056 3.59326 -0.726649 0
M  V30 6536 H 593.704 4.82502 1.4213 0
M  V30 6537 H 593.404 5.87598 0.0144878 0
M  V30 6538 H 594.928 6.03424 0.933387 0
M  V30 6539 H 596.342 5.58523 -1.29323 0
M  V30 6540 H 594.739 5.62779 -2.08327 0
M  V30 6541 H 595.809 4.24012 -2.35249 0
M  V30 6542 N 597.152 0.631951 1.44375 0
M  V30 6543 C 598.377 0.142146 2.06912 0
M  V30 6544 C 598.802 -1.17456 1.4692 0
M  V30 6545 O 598.16 -1.72074 0.570975 0
M  V30 6546 C 598.208 0.0417952 3.60576 0
M  V30 6547 O 597.312 -1.00194 4.00044 0
M  V30 6548 H 596.653 0.0851491 0.658518 0
M  V30 6549 H 599.183 0.868863 1.85235 0
M  V30 6550 H 599.193 -0.148517 4.0773 0
M  V30 6551 H 597.868 1.0031 4.03622 0
M  V30 6552 H 596.445 -0.786131 3.64519 0
M  V30 6553 N 598.631 -1.53133 0.372548 0
M  V30 6554 C 599.563 -2.23557 -0.505444 0
M  V30 6555 C 600.576 -1.25211 -1.04049 0
M  V30 6556 O 601.765 -1.51391 -0.945675 0
M  V30 6557 C 598.865 -2.92516 -1.71136 0
M  V30 6558 C 598.038 -4.17428 -1.30661 0
M  V30 6559 C 597.097 -4.69535 -2.37536 0
M  V30 6560 O 596.123 -5.33042 -1.99637 0
M  V30 6561 N 597.325 -4.47947 -3.6922 0
M  V30 6562 H 600.09 -2.9954 0.0978259 0
M  V30 6563 H 597.651 -1.60684 0.198068 0
M  V30 6564 H 599.643 -3.24281 -2.42124 0
M  V30 6565 H 598.213 -2.19944 -2.22134 0
M  V30 6566 H 597.433 -3.91888 -0.426292 0
M  V30 6567 H 598.721 -4.98622 -1.01259 0
M  V30 6568 H 598.119 -3.97219 -4.02783 0
M  V30 6569 H 596.676 -4.84245 -4.36292 0
M  V30 6570 N 600.109 -0.101901 -1.5727 0
M  V30 6571 C 601.355 0.561027 -1.94885 0
M  V30 6572 C 601.688 1.6741 -0.984258 0
M  V30 6573 O 600.963 1.94491 -0.0184767 0
M  V30 6574 C 601.246 1.10982 -3.42571 0
M  V30 6575 C 601.099 0.00133418 -4.498 0
M  V30 6576 C 602.418 2.00608 -3.9172 0
M  V30 6577 H 599.537 0.202467 -0.708644 0
M  V30 6578 H 602.179 -0.173992 -1.89202 0
M  V30 6579 H 600.329 1.73621 -3.47546 0
M  V30 6580 H 602.001 -0.63322 -4.56933 0
M  V30 6581 H 600.244 -0.664143 -4.28686 0
M  V30 6582 H 600.915 0.426253 -5.50352 0
M  V30 6583 H 603.391 1.47864 -3.88941 0
M  V30 6584 H 602.267 2.3593 -4.95609 0
M  V30 6585 H 602.528 2.92608 -3.3141 0
M  V30 6586 N 601.587 1.56661 0.17182 0
M  V30 6587 C 602.815 1.861 0.904115 0
M  V30 6588 C 603.23 0.687227 1.75848 0
M  V30 6589 O 602.587 -0.343671 1.79235 0
M  V30 6590 C 602.638 3.14568 1.78127 0
M  V30 6591 O 602.359 4.27422 0.961366 0
M  V30 6592 C 603.86 3.5735 2.62327 0
M  V30 6593 H 601.08 0.617445 0.262684 0
M  V30 6594 H 603.624 2.03775 0.172068 0
M  V30 6595 H 601.779 2.98721 2.46666 0
M  V30 6596 H 602.193 5.00725 1.56123 0
M  V30 6597 H 603.667 4.50144 3.1949 0
M  V30 6598 H 604.144 2.81445 3.37173 0
M  V30 6599 H 604.75 3.75807 1.99121 0
M  V30 6600 N 603.065 -0.440357 1.51323 0
M  V30 6601 C 603.975 -1.55955 1.75258 0
M  V30 6602 C 604.991 -1.61933 0.636687 0
M  V30 6603 O 606.167 -1.79231 0.918593 0
M  V30 6604 C 603.232 -2.9196 1.86977 0
M  V30 6605 C 602.293 -2.96122 3.10822 0
M  V30 6606 C 601.526 -4.2564 3.21973 0
M  V30 6607 O 601.749 -5.17851 2.39137 0
M  V30 6608 O 600.683 -4.36025 4.14929 0
M  V30 6609 H 604.509 -1.38673 2.70191 0
M  V30 6610 H 602.094 -0.623055 1.35788 0
M  V30 6611 H 603.976 -3.72682 1.96688 0
M  V30 6612 H 602.651 -3.09375 0.952307 0
M  V30 6613 H 601.558 -2.14366 3.06591 0
M  V30 6614 H 602.891 -2.83651 4.02247 0
M  V30 6615 N 604.543 -1.41418 -0.695603 0
M  V30 6616 C 605.82 -1.31264 -1.45014 0
M  V30 6617 C 606.2 0.0597994 -2.11015 0
M  V30 6618 O 605.548 1.07403 -2.01685 0
M  V30 6619 C 605.758 -2.466 -2.4696 0
M  V30 6620 C 607.106 -2.87763 -3.12214 0
M  V30 6621 O 608.13 -2.46339 -2.57285 0
M  V30 6622 O 606.989 -3.59395 -4.11701 0
M  V30 6623 H 604.083 -0.516576 -0.645816 0
M  V30 6624 H 606.629 -1.53382 -0.726084 0
M  V30 6625 H 605.401 -3.38183 -1.96845 0
M  V30 6626 H 605.024 -2.26358 -3.26876 0
M  V30 6627 N 606.021 0.929856 -1.27246 0
M  V30 6628 C 607.251 1.70895 -1.16096 0
M  V30 6629 C 607.659 1.87039 0.285122 0
M  V30 6630 O 607.002 1.38557 1.20614 0
M  V30 6631 C 607.064 3.12919 -1.7698 0
M  V30 6632 C 606.728 3.2012 -3.26148 0
M  V30 6633 C 607.725 3.02533 -4.22812 0
M  V30 6634 C 605.41 3.43148 -3.66817 0
M  V30 6635 C 607.404 3.07861 -5.58122 0
M  V30 6636 C 605.091 3.48109 -5.02258 0
M  V30 6637 C 606.089 3.30483 -5.97721 0
M  V30 6638 O 605.777 3.35175 -7.30694 0
M  V30 6639 H 605.509 0.54152 -0.404639 0
M  V30 6640 H 608.063 1.17342 -1.68582 0
M  V30 6641 H 606.293 3.67945 -1.18969 0
M  V30 6642 H 607.982 3.72787 -1.60576 0
M  V30 6643 H 608.748 2.84586 -3.92728 0
M  V30 6644 H 604.627 3.55918 -2.9299 0
M  V30 6645 H 608.171 2.94021 -6.32612 0
M  V30 6646 H 604.068 3.65579 -5.31998 0
M  V30 6647 H 604.836 3.51644 -7.39114 0
M  V30 6648 N 607.499 1.09233 1.13605 0
M  V30 6649 C 608.745 0.828385 1.8511 0
M  V30 6650 C 609.078 -0.64437 1.83198 0
M  V30 6651 O 608.353 -1.47428 1.26867 0
M  V30 6652 C 608.636 1.36167 3.33363 0
M  V30 6653 C 608.489 2.90038 3.438 0
M  V30 6654 C 609.808 0.993819 4.28732 0
M  V30 6655 H 606.927 0.30239 0.672108 0
M  V30 6656 H 609.569 1.35339 1.33355 0
M  V30 6657 H 607.719 0.9151 3.77569 0
M  V30 6658 H 609.391 3.43128 3.08319 0
M  V30 6659 H 607.634 3.27271 2.84739 0
M  V30 6660 H 608.305 3.22428 4.48045 0
M  V30 6661 H 610.781 1.37893 3.92587 0
M  V30 6662 H 609.657 1.39403 5.30903 0
M  V30 6663 H 609.918 -0.0982206 4.41991 0
M  V30 6664 N 608.977 -1.30795 0.87923 0
M  V30 6665 C 609.909 -2.27241 0.299025 0
M  V30 6666 C 610.922 -1.53472 -0.543166 0
M  V30 6667 O 612.111 -1.74756 -0.363651 0
M  V30 6668 C 609.211 -3.33655 -0.593931 0
M  V30 6669 C 608.384 -4.36857 0.2179 0
M  V30 6670 C 607.443 -5.22715 -0.604646 0
M  V30 6671 O 606.469 -5.69192 -0.0293838 0
M  V30 6672 N 607.671 -5.48008 -1.91488 0
M  V30 6673 H 610.436 -2.77667 1.12788 0
M  V30 6674 H 607.997 -1.43914 0.741637 0
M  V30 6675 H 609.989 -3.88013 -1.15012 0
M  V30 6676 H 608.559 -2.83202 -1.32346 0
M  V30 6677 H 607.779 -3.82444 0.955536 0
M  V30 6678 H 609.067 -5.02869 0.774614 0
M  V30 6679 H 608.465 -5.1202 -2.40525 0
M  V30 6680 H 607.022 -6.05264 -2.41864 0
M  V30 6681 N 610.455 -0.639598 -1.44038 0
M  V30 6682 C 611.683 -0.154811 -2.0632 0
M  V30 6683 C 612.098 1.17406 -1.47856 0
M  V30 6684 O 611.455 1.72193 -0.604638 0
M  V30 6685 C 611.506 -0.0429958 -3.61474 0
M  V30 6686 O 611.227 -1.31932 -4.17763 0
M  V30 6687 C 612.728 0.469486 -4.40807 0
M  V30 6688 H 609.948 -0.0835862 -0.665773 0
M  V30 6689 H 612.492 -0.876397 -1.84769 0
M  V30 6690 H 610.647 0.629075 -3.82258 0
M  V30 6691 H 611.061 -1.16965 -5.11292 0
M  V30 6692 H 612.535 0.496712 -5.49761 0
M  V30 6693 H 613.012 1.49819 -4.12857 0
M  V30 6694 H 613.618 -0.169624 -4.24962 0
M  V30 6695 N 611.933 1.52934 -0.380664 0
M  V30 6696 C 613.181 2.01069 0.203874 0
M  V30 6697 C 613.502 1.26922 1.4804 0
M  V30 6698 O 612.772 0.386787 1.92044 0
M  V30 6699 H 611.352 0.742882 0.0783279 0
M  V30 6700 H 614.014 1.88099 -0.510368 0
M  V30 6701 H 613.11 3.09258 0.42021 0
M  V30 6702 N 613.412 0.11024 1.57214 0
M  V30 6703 C 614.322 -0.857077 2.18383 0
M  V30 6704 C 615.338 -1.29915 1.1575 0
M  V30 6705 O 616.514 -1.36394 1.48184 0
M  V30 6706 C 613.579 -2.09264 2.76423 0
M  V30 6707 C 612.64 -1.70333 3.94063 0
M  V30 6708 C 611.873 -2.87999 4.49324 0
M  V30 6709 O 612.096 -4.0317 4.03497 0
M  V30 6710 O 611.03 -2.6559 5.40135 0
M  V30 6711 H 614.856 -0.366561 3.0148 0
M  V30 6712 H 612.441 -0.114914 1.48957 0
M  V30 6713 H 614.323 -2.81644 3.13456 0
M  V30 6714 H 612.998 -2.57339 1.96363 0
M  V30 6715 H 611.905 -0.950864 3.61814 0
M  V30 6716 H 613.238 -1.27007 4.75531 0
M  V30 6717 N 614.89 -1.56749 -0.16351 0
M  V30 6718 C 615.84 -1.93424 -1.20712 0
M  V30 6719 C 616.824 -0.803469 -1.39403 0
M  V30 6720 O 618.016 -1.06675 -1.41243 0
M  V30 6721 C 615.145 -2.30431 -2.54473 0
M  V30 6722 C 614.231 -3.5004 -2.39443 0
M  V30 6723 N 614.622 -4.67058 -1.9414 0
M  V30 6724 C 612.92 -3.548 -2.70246 0
M  V30 6725 C 613.621 -5.49184 -1.9176 0
M  V30 6726 N 612.597 -4.9044 -2.34457 0
M  V30 6727 H 616.399 -2.8138 -0.848681 0
M  V30 6728 H 613.913 -1.58089 -0.371717 0
M  V30 6729 H 615.91 -2.54903 -3.29894 0
M  V30 6730 H 614.57 -1.43818 -2.91112 0
M  V30 6731 H 615.581 -4.91128 -1.64357 0
M  V30 6732 H 612.258 -2.78685 -3.10871 0
M  V30 6733 H 613.648 -6.5297 -1.58366 0
M  V30 6734 O 616.407 0.308401 -1.58528 0
M  V30 6735 H 617.098 0.955962 -1.68467 0
M  V30 END ATOM
M  V30 BEGIN BOND
M  V30 END BOND
M  V30 END CTAB
M  END
$$$$
