drugbank_target|P37551 Pur operon repressor (DB03942)
 OpenBabel12092119573D

  0  0  0     0  0            999 V3000
M  V30 BEGIN CTAB
M  V30 COUNTS 4447 4478 0 0 0
M  V30 BEGIN ATOM
M  V30 1 H -0.908 1.98254 -0.117106 0
M  V30 2 N 0 1.576 0 0
M  V30 3 C 0.933 2.03868 1.02534 0
M  V30 4 C 1.911 0.928543 1.3348 0
M  V30 5 O 3.095 1.19667 1.45644 0
M  V30 6 C 0.222 2.43627 2.35294 0
M  V30 7 C -0.732 3.65373 2.2001 0
M  V30 8 S 0.101 5.13292 1.52614 0
M  V30 9 C 1.257 5.56322 2.86805 0
M  V30 10 H 1.49 2.90518 0.631377 0
M  V30 11 H -0.977 1.52953 0.210867 0
M  V30 12 H 0.981 2.67203 3.11629 0
M  V30 13 H -0.358 1.57376 2.7183 0
M  V30 14 H -1.165 3.90944 3.18086 0
M  V30 15 H -1.563 3.418 1.51819 0
M  V30 16 H 0.729 5.58782 3.83104 0
M  V30 17 H 1.672 6.56266 2.65933 0
M  V30 18 H 2.08 4.83886 2.90714 0
M  V30 19 N 1.4781 -0.272755 1.55222 0
M  V30 20 C 2.4251 -1.33716 1.88119 0
M  V30 21 C 3.3951 -1.49066 0.73271 0
M  V30 22 O 4.5801 -1.63469 0.984002 0
M  V30 23 C 1.7201 -2.69238 2.15882 0
M  V30 24 C 0.8331 -2.62108 3.43399 0
M  V30 25 C -0.0319 -3.89811 3.60861 0
M  V30 26 C -0.9929 -3.77193 4.8207 0
M  V30 27 N -1.8559 -4.9673 4.96189 0
M  V30 28 H 2.9841 -1.04962 2.78903 0
M  V30 29 H 0.5211 -0.507088 1.38083 0
M  V30 30 H 2.4791 -3.48089 2.29978 0
M  V30 31 H 1.1091 -2.96194 1.28331 0
M  V30 32 H 0.1611 -1.74967 3.37773 0
M  V30 33 H 1.4731 -2.48685 4.32386 0
M  V30 34 H 0.6271 -4.77103 3.74777 0
M  V30 35 H -0.6339 -4.06102 2.7006 0
M  V30 36 H -1.6289 -2.88284 4.68159 0
M  V30 37 H -0.4039 -3.62421 5.74307 0
M  V30 38 H -2.4579 -5.13431 4.08319 0
M  V30 39 H -2.5409 -4.85839 5.79221 0
M  V30 40 H -1.2729 -5.85594 5.1449 0
M  V30 41 N 2.9562 -1.48159 -0.537278 0
M  V30 42 C 4.2032 -1.55804 -1.29349 0
M  V30 43 C 4.5312 -0.228802 -1.9315 0
M  V30 44 O 3.7862 0.780242 -1.79473 0
M  V30 45 C 4.0852 -2.63956 -2.40961 0
M  V30 46 C 3.7512 -4.0662 -1.94861 0
M  V30 47 C 2.4132 -4.45452 -1.82006 0
M  V30 48 C 4.7652 -4.96055 -1.59933 0
M  V30 49 C 2.0932 -5.71531 -1.32547 0
M  V30 50 C 4.4452 -6.22617 -1.11939 0
M  V30 51 C 3.1092 -6.60312 -0.976951 0
M  V30 52 H 2.3792 -0.570129 -0.473322 0
M  V30 53 H 5.0262 -1.81845 -0.600372 0
M  V30 54 H 3.3312 -2.31747 -3.15912 0
M  V30 55 H 5.0282 -2.67089 -2.99107 0
M  V30 56 H 1.6182 -3.75949 -2.05815 0
M  V30 57 H 5.8022 -4.66738 -1.68728 0
M  V30 58 H 1.0582 -5.99468 -1.202 0
M  V30 59 H 5.2322 -6.91318 -0.839811 0
M  V30 60 H 2.8592 -7.57895 -0.591501 0
M  V30 61 N 4.4343 0.785586 -1.36625 0
M  V30 62 C 5.8503 1.08419 -1.17122 0
M  V30 63 C 6.0503 2.015 0.00208491 0
M  V30 64 O 5.1063 2.43551 0.666278 0
M  V30 65 C 6.4193 1.69498 -2.48377 0
M  V30 66 C 7.9673 1.81821 -2.54775 0
M  V30 67 C 8.4423 2.46315 -3.86126 0
M  V30 68 N 9.9333 2.53779 -3.87492 0
M  V30 69 C 10.6683 3.045 -4.85868 0
M  V30 70 N 10.1643 3.55499 -5.94637 0
M  V30 71 N 11.9573 3.03247 -4.73284 0
M  V30 72 H 4.1083 0.167264 -2.1174 0
M  V30 73 H 6.3713 0.13682 -0.938075 0
M  V30 74 H 6.0773 1.08571 -3.34522 0
M  V30 75 H 5.9513 2.6896 -2.64462 0
M  V30 76 H 8.3383 2.41884 -1.69045 0
M  V30 77 H 8.4193 0.811532 -2.42586 0
M  V30 78 H 8.0633 1.86895 -4.72263 0
M  V30 79 H 7.9933 3.47561 -3.95612 0
M  V30 80 H 10.4843 2.17672 -3.08913 0
M  V30 81 H 10.7973 3.92562 -6.65669 0
M  V30 82 H 9.1423 3.5364 -5.98301 0
M  V30 83 H 12.3333 2.62696 -3.87438 0
M  V30 84 H 12.5063 3.42467 -5.50109 0
M  V30 85 N 5.9124 1.20967 1.01018 0
M  V30 86 C 7.3284 0.965905 1.27053 0
M  V30 87 C 7.5284 -0.350785 1.98423 0
M  V30 88 O 6.5844 -1.07773 2.28344 0
M  V30 89 C 7.8974 2.15294 2.09926 0
M  V30 90 C 9.4454 2.19463 2.23171 0
M  V30 91 C 9.9204 3.3767 3.09424 0
M  V30 92 N 11.4114 3.37724 3.17012 0
M  V30 93 C 12.1464 4.25837 3.83993 0
M  V30 94 N 11.6424 5.24138 4.53047 0
M  V30 95 N 13.4354 4.1366 3.80581 0
M  V30 96 H 5.5864 2.0565 0.531194 0
M  V30 97 H 7.8494 0.90024 0.297106 0
M  V30 98 H 7.5554 3.10684 1.64828 0
M  V30 99 H 7.4294 2.13923 3.10672 0
M  V30 100 H 9.8164 1.24632 2.6749 0
M  V30 101 H 9.8974 2.2488 1.21912 0
M  V30 102 H 9.5414 4.32791 2.65808 0
M  V30 103 H 9.4714 3.29491 4.10784 0
M  V30 104 H 11.9624 2.6658 2.6785 0
M  V30 105 H 12.2754 5.87684 5.01844 0
M  V30 106 H 10.6204 5.28068 4.5185 0
M  V30 107 H 13.8114 3.36127 3.25785 0
M  V30 108 H 13.9844 4.82538 4.32505 0
M  V30 109 N 7.3905 -1.2043 1.01659 0
M  V30 110 C 8.6155 -1.94318 0.724942 0
M  V30 111 C 9.0405 -1.74266 -0.708034 0
M  V30 112 O 8.3985 -1.03694 -1.48719 0
M  V30 113 C 8.4465 -3.44486 1.06591 0
M  V30 114 O 7.5505 -4.12017 0.177599 0
M  V30 115 H 6.8915 -0.60708 0.26898 0
M  V30 116 H 9.4215 -1.52861 1.35995 0
M  V30 117 H 9.4315 -3.95106 1.01762 0
M  V30 118 H 8.1065 -3.58404 2.10997 0
M  V30 119 H 6.6835 -3.71821 0.283421 0
M  V30 120 N 8.8686 -0.792821 -1.36206 0
M  V30 121 C 10.1166 -0.366062 -1.98757 0
M  V30 122 C 10.4376 1.0668 -1.63231 0
M  V30 123 O 9.7076 1.73587 -0.907978 0
M  V30 124 H 8.2876 -0.132364 -0.735179 0
M  V30 125 H 10.9496 -1.01562 -1.66347 0
M  V30 126 H 10.0456 -0.460638 -3.08682 0
M  V30 127 N 10.3467 1.47872 -0.545128 0
M  V30 128 C 11.7627 1.5829 -0.204032 0
M  V30 129 C 11.9627 1.54529 1.29317 0
M  V30 130 O 11.0187 1.44232 2.07252 0
M  V30 131 C 12.3317 2.89304 -0.819987 0
M  V30 132 C 13.8797 3.02864 -0.790105 0
M  V30 133 C 14.3547 4.3656 -1.38491 0
M  V30 134 N 15.8457 4.43165 -1.34755 0
M  V30 135 C 16.5807 5.45153 -1.77753 0
M  V30 136 N 16.0767 6.54016 -2.2855 0
M  V30 137 N 17.8697 5.36125 -1.68897 0
M  V30 138 H 10.0207 1.4856 -1.51802 0
M  V30 139 H 12.2837 0.706305 -0.632327 0
M  V30 140 H 11.9897 2.97757 -1.87173 0
M  V30 141 H 11.8637 3.75957 -0.305915 0
M  V30 142 H 14.2507 2.94014 0.252913 0
M  V30 143 H 14.3317 2.17782 -1.34181 0
M  V30 144 H 13.9757 4.46164 -2.42693 0
M  V30 145 H 13.9057 5.20353 -0.808754 0
M  V30 146 H 16.3967 3.65083 -0.975855 0
M  V30 147 H 16.7097 7.27994 -2.59314 0
M  V30 148 H 15.0547 6.54938 -2.32553 0
M  V30 149 H 18.2457 4.49975 -1.28998 0
M  V30 150 H 18.4187 6.15472 -2.02726 0
M  V30 151 N 11.8248 0.280983 1.55075 0
M  V30 152 C 12.7548 -0.597469 2.25727 0
M  V30 153 C 13.7358 -1.15417 1.24952 0
M  V30 154 O 14.9208 -1.18722 1.53684 0
M  V30 155 C 12.0508 -1.7789 2.98283 0
M  V30 156 C 11.0048 -1.35347 4.06036 0
M  V30 157 C 10.3308 -2.61846 4.66198 0
M  V30 158 C 11.6308 -0.499354 5.19907 0
M  V30 159 H 13.3248 -0.00824265 2.99399 0
M  V30 160 H 10.8708 -0.0025244 1.44 0
M  V30 161 H 12.8238 -2.39937 3.46422 0
M  V30 162 H 11.5478 -2.39405 2.22155 0
M  V30 163 H 10.2068 -0.756156 3.58717 0
M  V30 164 H 9.8548 -3.21632 3.86732 0
M  V30 165 H 9.5548 -2.3409 5.38958 0
M  V30 166 H 11.0788 -3.24732 5.1709 0
M  V30 167 H 12.4928 -1.02498 5.64063 0
M  V30 168 H 10.8898 -0.316424 5.99265 0
M  V30 169 H 11.9598 0.480459 4.82514 0
M  V30 170 N 13.3029 -1.57598 0.00835791 0
M  V30 171 C 14.5489 -1.91211 -0.675732 0
M  V30 172 C 14.8819 -0.883139 -1.72958 0
M  V30 173 O 14.1569 0.097016 -1.94258 0
M  V30 174 C 14.4399 -3.35379 -1.31123 0
M  V30 175 C 14.2929 -4.48999 -0.268356 0
M  V30 176 C 15.6119 -3.7912 -2.23508 0
M  V30 177 H 12.7309 -0.695374 -0.244179 0
M  V30 178 H 15.3729 -1.89901 0.0613655 0
M  V30 179 H 13.5229 -3.36626 -1.93946 0
M  V30 180 H 15.1949 -4.59887 0.360844 0
M  V30 181 H 13.4379 -4.31873 0.408482 0
M  V30 182 H 14.1089 -5.46851 -0.752218 0
M  V30 183 H 16.5849 -3.79477 -1.70693 0
M  V30 184 H 15.4609 -4.80729 -2.64936 0
M  V30 185 H 15.7219 -3.13455 -3.11766 0
M  V30 186 N 14.781 0.264519 -1.55364 0
M  V30 187 C 16.058 1.01677 -1.67096 0
M  V30 188 C 16.438 2.03996 -0.543015 0
M  V30 189 O 15.786 2.23907 0.45585 0
M  V30 190 C 15.996 1.66596 -3.0667 0
M  V30 191 C 17.344 2.17442 -3.64697 0
M  V30 192 O 18.368 1.76568 -3.09358 0
M  V30 193 O 17.227 2.92439 -4.61673 0
M  V30 194 H 14.321 0.472161 -0.678965 0
M  V30 195 H 16.867 0.259703 -1.67701 0
M  V30 196 H 15.639 0.924962 -3.80211 0
M  V30 197 H 15.262 2.48968 -3.10001 0
M  V30 198 N 16.2591 1.48442 0.529413 0
M  V30 199 C 17.1891 1.65902 1.64313 0
M  V30 200 C 18.1701 0.507897 1.6234 0
M  V30 201 O 19.3551 0.740503 1.79528 0
M  V30 202 C 16.4851 1.69911 3.02898 0
M  V30 203 C 15.4391 2.8453 3.19729 0
M  V30 204 C 14.7651 2.73629 4.59381 0
M  V30 205 C 16.0651 4.25821 3.02447 0
M  V30 206 H 17.7591 2.5914 1.49955 0
M  V30 207 H 15.3051 1.24709 0.719982 0
M  V30 208 H 17.2581 1.80715 3.80684 0
M  V30 209 H 15.9821 0.732524 3.18279 0
M  V30 210 H 14.6411 2.73283 2.44361 0
M  V30 211 H 14.2891 1.74938 4.71599 0
M  V30 212 H 13.9891 3.50541 4.71588 0
M  V30 213 H 15.5131 2.86401 5.39265 0
M  V30 214 H 16.9271 4.37898 3.70024 0
M  V30 215 H 15.3241 5.03735 3.26146 0
M  V30 216 H 16.3941 4.42244 1.98867 0
M  V30 217 N 17.7372 -0.778329 1.37039 0
M  V30 218 C 18.9652 -1.56734 1.35063 0
M  V30 219 C 19.3802 -1.88686 -0.0655597 0
M  V30 220 O 18.7372 -1.5096 -1.02554 0
M  V30 221 C 18.7882 -2.88163 2.18276 0
M  V30 222 O 18.5092 -2.57583 3.54376 0
M  V30 223 C 20.0102 -3.82422 2.24206 0
M  V30 224 H 17.2302 -0.485778 0.462883 0
M  V30 225 H 19.7742 -0.965185 1.8029 0
M  V30 226 H 17.9292 -3.44818 1.76576 0
M  V30 227 H 18.3432 -3.41699 3.97922 0
M  V30 228 H 19.8172 -4.71667 2.86765 0
M  V30 229 H 20.2942 -4.21078 1.24861 0
M  V30 230 H 20.9002 -3.31697 2.6619 0
M  V30 231 N 19.2153 -1.21501 -1.00376 0
M  V30 232 C 20.1633 -0.972442 -2.11297 0
M  V30 233 C 21.1573 0.080731 -1.69208 0
M  V30 234 O 22.3633 -0.0707666 -1.79861 0
M  V30 235 H 18.7383 -0.297218 -0.690772 0
M  V30 236 H 20.7093 -1.91394 -2.28934 0
M  V30 237 C 19.4583 -0.555065 -3.43241 0
M  V30 238 H 18.7813 -1.35709 -3.76062 0
M  V30 239 H 20.2213 -0.424664 -4.21868 0
M  V30 240 C 18.6803 0.734147 -3.28804 0
M  V30 241 O 19.2103 1.78937 -3.59645 0
M  V30 242 N 17.4163 0.701133 -2.82015 0
M  V30 243 H 16.9633 -0.157874 -2.57116 0
M  V30 244 H 16.9213 1.56403 -2.72737 0
M  V30 245 N 20.6934 1.19889 -1.02296 0
M  V30 246 C 21.9234 1.93109 -0.734332 0
M  V30 247 C 22.3314 1.75377 0.709889 0
M  V30 248 O 21.6744 1.06912 1.49384 0
M  V30 249 C 21.7364 3.45362 -0.99827 0
M  V30 250 C 21.4004 3.8686 -2.43287 0
M  V30 251 C 22.3974 3.92102 -3.41397 0
M  V30 252 C 20.0824 4.18668 -2.77529 0
M  V30 253 C 22.0764 4.28573 -4.71809 0
M  V30 254 C 19.7634 4.54813 -4.08153 0
M  V30 255 C 20.7614 4.59739 -5.05103 0
M  V30 256 O 20.4494 4.95051 -6.33388 0
M  V30 257 H 20.1814 0.620409 -0.268456 0
M  V30 258 H 22.7354 1.53144 -1.3688 0
M  V30 259 H 20.9654 3.85482 -0.306645 0
M  V30 260 H 22.6544 3.99814 -0.700234 0
M  V30 261 H 23.4204 3.67685 -3.1628 0
M  V30 262 H 19.2994 4.14021 -2.0275 0
M  V30 263 H 22.8434 4.32333 -5.4748 0
M  V30 264 H 18.7404 4.78687 -4.33047 0
M  V30 265 H 19.5084 5.1302 -6.37772 0
M  V30 266 N 22.1715 0.800033 1.35784 0
M  V30 267 C 23.1015 0.220184 2.3246 0
M  V30 268 C 24.0825 -0.65073 1.57161 0
M  V30 269 O 25.2675 -0.582359 1.85263 0
M  V30 270 C 22.3975 -0.637353 3.41402 0
M  V30 271 C 21.3515 0.134531 4.27789 0
M  V30 272 C 20.6775 -0.844285 5.27992 0
M  V30 273 C 21.9775 1.32979 5.05088 0
M  V30 274 H 23.6715 1.02787 2.81203 0
M  V30 275 H 21.2175 0.495717 1.35199 0
M  V30 276 H 23.1705 -1.05302 4.08031 0
M  V30 277 H 21.8945 -1.47785 2.91251 0
M  V30 278 H 20.5535 0.531296 3.6273 0
M  V30 279 H 20.2015 -1.68011 4.74111 0
M  V30 280 H 19.9015 -0.332184 5.8666 0
M  V30 281 H 21.4255 -1.2583 5.97494 0
M  V30 282 H 22.8395 0.98934 5.64699 0
M  V30 283 H 21.2365 1.77593 5.7322 0
M  V30 284 H 22.3065 2.11978 4.36111 0
M  V30 285 N 23.6496 -1.47581 0.552962 0
M  V30 286 C 24.5796 -2.32762 -0.185451 0
M  V30 287 C 25.5606 -1.43527 -0.912905 0
M  V30 288 O 26.7456 -1.72388 -0.894201 0
M  V30 289 C 23.8756 -3.25219 -1.21859 0
M  V30 290 C 22.8296 -4.23661 -0.607864 0
M  V30 291 C 22.1556 -5.05413 -1.74533 0
M  V30 292 C 23.4556 -5.20481 0.435582 0
M  V30 293 H 25.1496 -2.94749 0.525684 0
M  V30 294 H 22.6956 -1.41738 0.254251 0
M  V30 295 H 24.6486 -3.8365 -1.7433 0
M  V30 296 H 23.3726 -2.61279 -1.95961 0
M  V30 297 H 22.0316 -3.66451 -0.104489 0
M  V30 298 H 21.6796 -4.3788 -2.47529 0
M  V30 299 H 21.3796 -5.72059 -1.34249 0
M  V30 300 H 22.9036 -5.66701 -2.27338 0
M  V30 301 H 24.3176 -5.733 -0.00290157 0
M  V30 302 H 22.7146 -5.95305 0.757067 0
M  V30 303 H 23.7846 -4.66217 1.33303 0
M  V30 304 N 25.1277 -0.289203 -1.54924 0
M  V30 305 C 26.3557 0.326463 -2.04308 0
M  V30 306 C 26.7707 1.48413 -1.16701 0
M  V30 307 O 26.1277 1.81507 -0.190087 0
M  V30 308 C 26.1787 0.794014 -3.52672 0
M  V30 309 O 25.8997 -0.317564 -4.36948 0
M  V30 310 C 27.4007 1.47605 -4.18004 0
M  V30 311 H 24.6207 0.0726272 -0.667058 0
M  V30 312 H 27.1647 -0.425401 -2.00026 0
M  V30 313 H 25.3197 1.49593 -3.57352 0
M  V30 314 H 25.7337 0.0443186 -5.24481 0
M  V30 315 H 27.2077 1.75447 -5.23376 0
M  V30 316 H 27.6847 2.41224 -3.67025 0
M  V30 317 H 28.2907 0.81762 -4.17367 0
M  V30 318 N 26.6058 1.57591 -0.0167156 0
M  V30 319 C 27.5558 2.05953 0.978137 0
M  V30 320 C 28.5398 0.957532 1.29306 0
M  V30 321 O 29.7318 1.22119 1.28125 0
M  V30 322 C 26.8608 2.58006 2.26468 0
M  V30 323 C 25.9468 3.75113 1.97867 0
M  V30 324 N 26.3378 4.86187 1.39486 0
M  V30 325 C 24.6358 3.83363 2.27924 0
M  V30 326 C 25.3368 5.67502 1.27735 0
M  V30 327 N 24.3128 5.14023 1.76866 0
M  V30 328 H 28.1148 2.89236 0.521522 0
M  V30 329 H 25.6288 1.61301 0.188596 0
M  V30 330 H 27.6258 2.90937 2.98599 0
M  V30 331 H 26.2858 1.76148 2.72767 0
M  V30 332 H 27.2968 5.06695 1.07147 0
M  V30 333 H 23.9738 3.1239 2.76982 0
M  V30 334 H 25.3638 6.66791 0.826978 0
M  V30 335 N 28.0839 -0.256276 1.55502 0
M  V30 336 C 29.4949 -0.826068 1.67431 0
M  V30 337 C 29.8459 -1.86396 0.612446 0
M  V30 338 O 28.9709 -2.15031 -0.243025 0
M  V30 339 C 29.5659 -1.50512 3.03532 0
M  V30 340 C 28.1249 -2.02273 3.17431 0
M  V30 341 C 27.2719 -0.870548 2.63281 0
M  V30 342 H 30.2229 -0.0322728 1.58667 0
M  V30 343 H 30.2439 -2.37279 2.97454 0
M  V30 344 H 29.7559 -0.749484 3.80794 0
M  V30 345 H 27.8569 -2.80746 2.44974 0
M  V30 346 H 27.9699 -2.22655 4.24219 0
M  V30 347 H 26.3339 -1.26851 2.20864 0
M  V30 348 H 27.1169 -0.128149 3.43061 0
M  V30 349 N 29.562 -1.4872 -0.521534 0
M  V30 350 C 30.512 -1.60269 -1.62166 0
M  V30 351 C 31.496 -0.45935 -1.54204 0
M  V30 352 O 32.688 -0.711241 -1.62081 0
M  V30 353 C 29.817 -1.65344 -3.00859 0
M  V30 354 C 28.903 -2.85187 -3.13894 0
M  V30 355 N 29.294 -4.09509 -2.96877 0
M  V30 356 C 27.592 -2.82695 -3.44963 0
M  V30 357 C 28.293 -4.89959 -3.13552 0
M  V30 358 N 27.269 -4.22934 -3.41508 0
M  V30 359 H 31.071 -2.5413 -1.47632 0
M  V30 360 H 28.585 -1.45209 -0.727194 0
M  V30 361 H 30.582 -1.71713 -3.79895 0
M  V30 362 H 29.242 -0.726058 -3.16478 0
M  V30 363 H 30.253 -4.39814 -2.73467 0
M  V30 364 H 26.93 -1.99249 -3.66887 0
M  V30 365 H 28.32 -5.98654 -3.05061 0
M  V30 366 N 31.0401 0.771051 -1.3745 0
M  V30 367 C 31.9501 1.91538 -1.35464 0
M  V30 368 C 32.9661 1.72134 -0.254123 0
M  V30 369 O 34.1421 1.95358 -0.489626 0
M  V30 370 C 31.2071 3.26671 -1.16134 0
M  V30 371 C 30.2681 3.58723 -2.35831 0
M  V30 372 C 29.5011 4.87409 -2.17413 0
M  V30 373 O 29.7241 5.58506 -1.15876 0
M  V30 374 O 28.6581 5.18539 -3.05615 0
M  V30 375 H 32.4841 1.96165 -2.31847 0
M  V30 376 H 30.0691 0.9139 -1.18187 0
M  V30 377 H 31.9511 4.07499 -1.07345 0
M  V30 378 H 30.6261 3.22894 -0.228251 0
M  V30 379 H 29.5331 2.78127 -2.50192 0
M  V30 380 H 30.8661 3.67243 -3.27709 0
M  V30 381 N 32.5182 1.22032 0.997298 0
M  V30 382 C 33.4482 1.01065 2.10495 0
M  V30 383 C 34.4292 -0.0669542 1.69968 0
M  V30 384 O 35.6142 0.0943987 1.9397 0
M  V30 385 C 32.7442 0.582874 3.42374 0
M  V30 386 C 31.6982 1.60592 3.96729 0
M  V30 387 C 31.0242 1.03412 5.24605 0
M  V30 388 C 32.3242 2.99478 4.27914 0
M  V30 389 H 34.0182 1.93708 2.28292 0
M  V30 390 H 31.5642 0.932761 1.09707 0
M  V30 391 H 33.5172 0.423332 4.19268 0
M  V30 392 H 32.2412 -0.379213 3.24391 0
M  V30 393 H 30.9002 1.75316 3.21963 0
M  V30 394 H 30.5482 0.063518 5.0296 0
M  V30 395 H 30.2482 1.71754 5.61938 0
M  V30 396 H 31.7722 0.886066 6.04137 0
M  V30 397 H 33.1862 2.88153 4.95622 0
M  V30 398 H 31.5832 3.64903 4.76409 0
M  V30 399 H 32.6532 3.49742 3.3587 0
M  V30 400 N 33.9963 -1.19345 1.0293 0
M  V30 401 C 35.2453 -1.88363 0.721256 0
M  V30 402 C 35.5583 -1.80514 -0.753254 0
M  V30 403 O 36.7643 -2.44788 -1.17436 0
M  V30 404 C 35.2203 -3.37872 1.23978 0
M  V30 405 C 34.8283 -3.54278 2.74211 0
M  V30 406 C 36.5723 -4.12365 1.00775 0
M  V30 407 C 34.4793 -4.97682 3.19479 0
M  V30 408 H 33.4093 -0.705484 0.266098 0
M  V30 409 H 36.0603 -1.34928 1.24365 0
M  V30 410 H 34.4423 -3.90707 0.6453 0
M  V30 411 H 35.6163 -3.11769 3.39318 0
M  V30 412 H 33.9313 -2.93174 2.95699 0
M  V30 413 H 36.5283 -5.18119 1.32123 0
M  V30 414 H 36.8713 -4.16263 -0.0554308 0
M  V30 415 H 37.4043 -3.65668 1.56625 0
M  V30 416 H 34.1433 -4.98945 4.25128 0
M  V30 417 H 33.6633 -5.4095 2.591 0
M  V30 418 H 35.3423 -5.66337 3.12845 0
M  V30 419 N 35.4744 -0.807222 -1.35358 0
M  V30 420 C 36.8854 -0.44876 -1.81226 0
M  V30 421 C 37.2364 1.02929 -1.67033 0
M  V30 422 O 36.3614 1.79991 -1.20133 0
M  V30 423 C 36.9564 -0.807774 -3.2903 0
M  V30 424 C 35.5154 -0.501901 -3.73039 0
M  V30 425 C 34.6624 -1.03304 -2.57339 0
M  V30 426 H 37.6134 -0.998808 -1.23327 0
M  V30 427 H 37.6344 -0.10554 -3.80354 0
M  V30 428 H 37.1464 -1.88357 -3.39328 0
M  V30 429 H 35.2474 0.565128 -3.68289 0
M  V30 430 H 35.3604 -1.03497 -4.67787 0
M  V30 431 H 33.7244 -0.455339 -2.50597 0
M  V30 432 H 34.5074 -2.11496 -2.70415 0
M  V30 433 N 36.9525 1.47285 -0.560781 0
M  V30 434 C 37.8825 2.32857 0.173105 0
M  V30 435 C 38.8635 1.44009 0.905281 0
M  V30 436 O 40.0485 1.7286 0.885046 0
M  V30 437 C 37.1785 3.25861 1.20133 0
M  V30 438 C 36.1325 4.23978 0.585388 0
M  V30 439 C 35.4585 5.06332 1.7185 0
M  V30 440 C 36.7585 5.20242 -0.463178 0
M  V30 441 H 38.4525 2.94466 -0.541307 0
M  V30 442 H 35.9985 1.41601 -0.261764 0
M  V30 443 H 37.9515 3.84569 1.72293 0
M  V30 444 H 36.6755 2.62315 1.94573 0
M  V30 445 H 35.3345 3.66501 0.085054 0
M  V30 446 H 34.9825 4.39186 2.45203 0
M  V30 447 H 34.6825 5.72762 1.31213 0
M  V30 448 H 36.2065 5.67899 2.24329 0
M  V30 449 H 37.6205 5.73293 -0.027502 0
M  V30 450 H 36.0175 5.94896 -0.788627 0
M  V30 451 H 37.0875 4.65504 -1.35773 0
M  V30 452 N 38.4306 0.297415 1.54768 0
M  V30 453 C 39.6586 -0.315623 2.04478 0
M  V30 454 C 40.0736 -1.47792 1.17486 0
M  V30 455 O 39.4306 -1.81404 0.19971 0
M  V30 456 C 39.4816 -0.7753 3.53088 0
M  V30 457 O 39.2026 0.340732 4.36773 0
M  V30 458 C 40.7036 -1.45386 4.18781 0
M  V30 459 H 37.9236 -0.0690887 0.667434 0
M  V30 460 H 40.4676 0.436003 1.99798 0
M  V30 461 H 38.6226 -1.47696 3.58141 0
M  V30 462 H 39.0366 -0.0165035 5.24497 0
M  V30 463 H 40.5106 -1.72669 5.24299 0
M  V30 464 H 40.9876 -2.39275 3.68299 0
M  V30 465 H 41.5936 -0.795475 4.17795 0
M  V30 466 N 39.9087 -1.5758 0.0250728 0
M  V30 467 C 41.1557 -1.91633 -0.654444 0
M  V30 468 C 41.4837 -0.901103 -1.72367 0
M  V30 469 O 40.7387 0.0905647 -1.9549 0
M  V30 470 C 41.0377 -3.32421 -1.31268 0
M  V30 471 C 40.7037 -4.49344 -0.374223 0
M  V30 472 C 39.3657 -4.8106 -0.115911 0
M  V30 473 C 41.7177 -5.20498 0.270432 0
M  V30 474 C 39.0457 -5.8129 0.79493 0
M  V30 475 C 41.3977 -6.21699 1.1693 0
M  V30 476 C 40.0617 -6.51859 1.43655 0
M  V30 477 H 39.3317 -0.701236 -0.239478 0
M  V30 478 H 41.9787 -1.91307 0.0859734 0
M  V30 479 H 40.2837 -3.28989 -2.12775 0
M  V30 480 H 41.9807 -3.56038 -1.84494 0
M  V30 481 H 38.5707 -4.24579 -0.58573 0
M  V30 482 H 42.7547 -4.96229 0.0839194 0
M  V30 483 H 38.0107 -6.03005 1.00973 0
M  V30 484 H 42.1847 -6.75955 1.67504 0
M  V30 485 H 39.8117 -7.2934 2.144 0
M  V30 486 N 41.3868 0.248026 -1.55636 0
M  V30 487 C 42.6338 0.976224 -1.77415 0
M  V30 488 C 42.9618 1.85361 -0.589193 0
M  V30 489 O 42.2168 1.90973 0.427529 0
M  V30 490 C 42.5158 1.86819 -3.04686 0
M  V30 491 C 42.1818 1.14625 -4.36087 0
M  V30 492 C 40.8438 0.946723 -4.71795 0
M  V30 493 C 43.1958 0.634463 -5.17324 0
M  V30 494 C 40.5238 0.223091 -5.86276 0
M  V30 495 C 42.8758 -0.0756959 -6.32555 0
M  V30 496 C 41.5398 -0.286711 -6.66884 0
M  V30 497 H 40.8098 0.357226 -0.649208 0
M  V30 498 H 43.4568 0.246415 -1.89908 0
M  V30 499 H 41.7618 2.66502 -2.872 0
M  V30 500 H 43.4588 2.43329 -3.18735 0
M  V30 501 H 40.0488 1.3117 -4.08035 0
M  V30 502 H 44.2328 0.77616 -4.90193 0
M  V30 503 H 39.4888 0.0491185 -6.1138 0
M  V30 504 H 43.6628 -0.479899 -6.94745 0
M  V30 505 H 41.2898 -0.849389 -7.5544 0
M  V30 506 N 42.8649 1.48995 0.513639 0
M  V30 507 C 44.0899 1.61792 1.29762 0
M  V30 508 C 44.5149 0.284475 1.85936 0
M  V30 509 O 43.8729 -0.746185 1.65232 0
M  V30 510 C 43.9209 2.67993 2.41272 0
M  V30 511 O 43.0249 2.26287 3.44772 0
M  V30 512 H 42.3659 0.541963 0.38363 0
M  V30 513 H 44.8959 1.95097 0.616307 0
M  V30 514 H 44.9059 2.89772 2.87221 0
M  V30 515 H 43.5809 3.64791 1.9975 0
M  V30 516 H 42.1579 2.14788 3.04829 0
M  V30 517 N 44.343 -0.763751 1.37857 0
M  V30 518 C 45.253 -1.90817 1.36478 0
M  V30 519 C 46.269 -1.71997 0.263248 0
M  V30 520 O 47.445 -1.95095 0.499979 0
M  V30 521 C 44.51 -3.2605 1.17864 0
M  V30 522 C 43.571 -3.57467 2.3773 0
M  V30 523 C 42.804 -4.86249 2.19995 0
M  V30 524 O 43.027 -5.57884 1.18836 0
M  V30 525 O 41.961 -5.16911 3.08361 0
M  V30 526 H 45.787 -1.94933 2.32884 0
M  V30 527 H 43.372 -0.907619 1.1867 0
M  V30 528 H 45.254 -4.06924 1.09504 0
M  V30 529 H 43.929 -3.22769 0.245372 0
M  V30 530 H 42.836 -2.76796 2.51664 0
M  V30 531 H 44.169 -3.655 3.29652 0
M  V30 532 N 45.8211 -1.22559 -0.990812 0
M  V30 533 C 47.2371 -0.985996 -1.255 0
M  V30 534 C 47.4371 0.319173 -1.98956 0
M  V30 535 O 46.4931 1.04127 -2.3003 0
M  V30 536 C 47.8061 -2.18607 -2.06474 0
M  V30 537 C 49.3541 -2.22985 -2.19651 0
M  V30 538 C 49.8291 -3.4255 -3.04012 0
M  V30 539 N 51.3201 -3.42725 -3.11599 0
M  V30 540 C 52.0551 -4.31892 -3.7717 0
M  V30 541 N 51.5511 -5.31279 -4.44651 0
M  V30 542 N 53.3441 -4.19662 -3.73952 0
M  V30 543 H 45.4951 -2.06469 -0.49841 0
M  V30 544 H 47.7581 -0.904853 -0.282747 0
M  V30 545 H 47.4641 -3.13267 -1.59865 0
M  V30 546 H 47.3381 -2.18838 -3.07229 0
M  V30 547 H 49.7251 -1.28871 -2.65474 0
M  V30 548 H 49.8061 -2.26791 -1.18319 0
M  V30 549 H 49.4501 -4.36965 -2.58889 0
M  V30 550 H 49.3801 -3.35984 -4.0549 0
M  V30 551 H 51.8711 -2.70807 -2.63575 0
M  V30 552 H 52.1841 -5.95593 -4.92431 0
M  V30 553 H 50.5291 -5.3519 -4.43392 0
M  V30 554 H 53.7201 -3.41268 -3.20396 0
M  V30 555 H 53.8931 -4.89358 -4.24774 0
M  V30 556 N 47.2992 1.18797 -1.03562 0
M  V30 557 C 48.5292 1.92319 -0.754773 0
M  V30 558 C 48.9372 1.7612 0.691248 0
M  V30 559 O 48.2802 1.08491 1.48241 0
M  V30 560 C 48.3422 3.44284 -1.03484 0
M  V30 561 C 48.0062 3.84258 -2.47376 0
M  V30 562 C 49.0032 3.88459 -3.45537 0
M  V30 563 C 46.6882 4.15701 -2.81954 0
M  V30 564 C 48.6822 4.23545 -4.76328 0
M  V30 565 C 46.3692 4.50458 -4.12954 0
M  V30 566 C 47.3672 4.54356 -5.09951 0
M  V30 567 O 47.0552 4.88305 -6.38603 0
M  V30 568 H 46.7872 0.617527 -0.275021 0
M  V30 569 H 49.3412 1.51683 -1.38497 0
M  V30 570 H 47.5712 3.85135 -0.347513 0
M  V30 571 H 49.2602 3.99049 -0.7426 0
M  V30 572 H 50.0262 3.6431 -3.20162 0
M  V30 573 H 45.9052 4.11847 -2.0713 0
M  V30 574 H 49.4492 4.26502 -5.52035 0
M  V30 575 H 45.3462 4.74067 -4.38099 0
M  V30 576 H 46.1142 5.06227 -6.43177 0
M  V30 577 N 48.7773 0.814389 1.34928 0
M  V30 578 C 49.6873 0.231978 2.3345 0
M  V30 579 C 50.7033 -0.629139 1.62228 0
M  V30 580 O 51.8793 -0.539052 1.94052 0
M  V30 581 C 48.9443 -0.603482 3.41407 0
M  V30 582 C 48.0053 0.279037 4.28392 0
M  V30 583 C 47.2383 -0.516643 5.31193 0
M  V30 584 O 47.4613 -1.75068 5.4287 0
M  V30 585 O 46.3953 0.0965652 6.01823 0
M  V30 586 H 50.2213 1.04721 2.85074 0
M  V30 587 H 47.8063 0.576343 1.37836 0
M  V30 588 H 49.6883 -1.07908 4.0735 0
M  V30 589 H 48.3633 -1.39618 2.92042 0
M  V30 590 H 47.2703 0.801948 3.65403 0
M  V30 591 H 48.6033 1.03588 4.81176 0
M  V30 592 N 50.2554 -1.46986 0.568584 0
M  V30 593 C 51.4804 -2.07335 0.0520528 0
M  V30 594 C 51.9054 -1.41675 -1.23733 0
M  V30 595 O 51.2634 -0.495623 -1.74394 0
M  V30 596 C 51.3114 -3.60417 -0.11501 0
M  V30 597 O 50.4154 -3.95309 -1.17492 0
M  V30 598 H 49.7564 -0.661597 0.0564385 0
M  V30 599 H 52.2864 -1.88837 0.787507 0
M  V30 600 H 52.2964 -4.06698 -0.325644 0
M  V30 601 H 50.9714 -4.07601 0.826675 0
M  V30 602 H 49.5484 -3.60757 -0.943869 0
M  V30 603 N 51.7335 -0.305618 -1.54608 0
M  V30 604 C 52.6965 0.555591 -2.22364 0
M  V30 605 C 53.6965 1.05768 -1.21119 0
M  V30 606 O 54.8865 0.952972 -1.45822 0
M  V30 607 C 52.0185 1.76974 -2.91364 0
M  V30 608 H 53.2115 -0.0364572 -2.99878 0
M  V30 609 H 50.7645 -0.0565007 -1.56198 0
M  V30 610 H 51.4995 2.40151 -2.17941 0
M  V30 611 H 51.2845 1.41732 -3.65588 0
M  V30 612 H 52.7745 2.38148 -3.43038 0
M  V30 613 N 53.2116 1.57565 -0.0334293 0
M  V30 614 C 54.1586 2.10478 0.946981 0
M  V30 615 C 55.1286 1.00787 1.32027 0
M  V30 616 O 56.3136 1.28232 1.41284 0
M  V30 617 C 53.4536 2.63994 2.22263 0
M  V30 618 C 52.5666 3.87709 1.90541 0
M  V30 619 C 51.7016 4.29604 3.12433 0
M  V30 620 C 50.7406 5.46065 2.76549 0
M  V30 621 N 49.8776 5.83096 3.9108 0
M  V30 622 H 54.7176 2.93963 0.488846 0
M  V30 623 H 52.2546 1.45296 0.22969 0
M  V30 624 H 54.2126 2.93114 2.96884 0
M  V30 625 H 52.8426 1.83333 2.65685 0
M  V30 626 H 51.8946 3.65291 1.06144 0
M  V30 627 H 53.2066 4.72403 1.60116 0
M  V30 628 H 52.3606 4.60182 3.9537 0
M  V30 629 H 51.0996 3.43685 3.46023 0
M  V30 630 H 50.1046 5.15176 1.92026 0
M  V30 631 H 51.3296 6.33685 2.44171 0
M  V30 632 H 49.2756 5.00132 4.24504 0
M  V30 633 H 49.1926 6.6244 3.64293 0
M  V30 634 H 50.4606 6.18282 4.74708 0
M  V30 635 N 54.6897 -0.239769 1.55765 0
M  V30 636 C 55.9147 -0.988373 1.82335 0
M  V30 637 C 56.3397 -1.77886 0.611421 0
M  V30 638 O 55.6977 -1.75889 -0.439639 0
M  V30 639 C 55.7457 -1.89627 3.06715 0
M  V30 640 O 54.8497 -2.98904 2.84131 0
M  V30 641 H 54.1907 -0.280858 0.601677 0
M  V30 642 H 56.7207 -0.258597 2.02959 0
M  V30 643 H 56.7307 -2.30957 3.36338 0
M  V30 644 H 55.4057 -1.31511 3.9456 0
M  V30 645 H 53.9827 -2.61651 2.65694 0
M  V30 646 N 56.1678 -1.49265 -0.50573 0
M  V30 647 C 57.3928 -1.62478 -1.28902 0
M  V30 648 C 57.8178 -0.294332 -1.85783 0
M  V30 649 O 57.1758 0.737412 -1.65626 0
M  V30 650 C 57.2238 -2.69268 -2.39848 0
M  V30 651 O 56.3278 -2.28113 -3.43567 0
M  V30 652 H 55.6688 -0.54399 -0.380751 0
M  V30 653 H 58.1988 -1.95421 -0.605952 0
M  V30 654 H 58.2088 -2.91291 -2.85681 0
M  V30 655 H 56.8838 -3.65846 -1.97812 0
M  V30 656 H 55.4608 -2.16401 -3.03685 0
M  V30 657 N 57.6459 0.756429 -1.3826 0
M  V30 658 C 58.8949 1.51082 -1.3363 0
M  V30 659 C 59.2079 1.95467 0.0720068 0
M  V30 660 O 60.4139 2.7043 0.240834 0
M  V30 661 C 58.8699 2.72893 -2.34644 0
M  V30 662 C 58.4779 2.35544 -3.81081 0
M  V30 663 C 60.2219 3.50791 -2.39052 0
M  V30 664 C 58.1289 3.53948 -4.73787 0
M  V30 665 H 57.0589 0.56727 -0.49671 0
M  V30 666 H 59.7099 0.827147 -1.638 0
M  V30 667 H 58.0919 3.43227 -1.97513 0
M  V30 668 H 59.2659 1.72894 -4.27135 0
M  V30 669 H 57.5809 1.70786 -3.79764 0
M  V30 670 H 60.1779 4.38823 -3.05513 0
M  V30 671 H 60.5209 3.91745 -1.40861 0
M  V30 672 H 61.0539 2.87467 -2.74968 0
M  V30 673 H 57.7929 3.18064 -5.73163 0
M  V30 674 H 57.3129 4.15651 -4.32428 0
M  V30 675 H 58.9919 4.20566 -4.91663 0
M  V30 676 N 59.124 1.23083 0.984299 0
M  V30 677 C 60.349 1.088 1.76571 0
M  V30 678 C 60.774 -0.356657 1.84688 0
M  V30 679 O 60.132 -1.25788 1.30565 0
M  V30 680 C 60.18 1.71371 3.17277 0
M  V30 681 O 59.284 0.973213 4.00752 0
M  V30 682 H 58.625 0.381599 0.543395 0
M  V30 683 H 61.155 1.63057 1.23587 0
M  V30 684 H 61.165 1.76449 3.67872 0
M  V30 685 H 59.84 2.76493 3.10684 0
M  V30 686 H 58.417 0.999078 3.59267 0
M  V30 687 N 60.6021 -1.18246 1.0419 0
M  V30 688 C 61.5121 -2.25574 0.644476 0
M  V30 689 C 62.5281 -1.70845 -0.329826 0
M  V30 690 O 63.7041 -2.00554 -0.184443 0
M  V30 691 C 60.7691 -3.46697 0.014877 0
M  V30 692 C 59.8301 -4.16554 1.03834 0
M  V30 693 C 59.0631 -5.31894 0.438692 0
M  V30 694 O 59.2861 -5.65385 -0.754752 0
M  V30 695 O 58.2201 -5.90459 1.168 0
M  V30 696 H 62.0461 -2.61836 1.53869 0
M  V30 697 H 59.6311 -1.25352 0.812854 0
M  V30 698 H 61.5131 -4.20062 -0.335538 0
M  V30 699 H 60.1881 -3.12255 -0.853138 0
M  V30 700 H 59.0951 -3.45251 1.44057 0
M  V30 701 H 60.4281 -4.54998 1.87716 0
M  V30 702 N 62.0802 -0.821533 -1.34494 0
M  V30 703 C 63.3572 -0.33159 -1.92769 0
M  V30 704 C 63.7372 1.18088 -1.74981 0
M  V30 705 O 63.0852 1.98733 -1.12772 0
M  V30 706 C 63.2952 -0.759398 -3.40638 0
M  V30 707 C 64.6432 -0.757433 -4.1779 0
M  V30 708 O 65.6672 -0.70189 -3.49216 0
M  V30 709 O 64.5262 -0.829361 -5.4017 0
M  V30 710 H 61.6202 -0.0902502 -0.822061 0
M  V30 711 H 64.1662 -0.906231 -1.43477 0
M  V30 712 H 62.9382 -1.8012 -3.47379 0
M  V30 713 H 62.5612 -0.160378 -3.97276 0
M  V30 714 N 63.5583 1.46682 -0.576371 0
M  V30 715 C 64.4883 2.33028 0.148397 0
M  V30 716 C 65.4693 1.44961 0.889956 0
M  V30 717 O 66.6543 1.73789 0.866662 0
M  V30 718 C 63.7843 3.27117 1.1667 0
M  V30 719 C 62.7383 4.24575 0.540386 0
M  V30 720 C 62.0643 5.08126 1.6647 0
M  V30 721 C 63.3643 5.19722 -0.518331 0
M  V30 722 H 65.0583 2.93875 -0.572509 0
M  V30 723 H 62.6043 1.41315 -0.276768 0
M  V30 724 H 64.5573 3.86374 1.68204 0
M  V30 725 H 63.2813 2.64364 1.9178 0
M  V30 726 H 61.9403 3.66571 0.0461769 0
M  V30 727 H 61.5883 4.41762 2.40531 0
M  V30 728 H 61.2883 5.74122 1.25131 0
M  V30 729 H 62.8123 5.70246 2.18293 0
M  V30 730 H 64.2263 5.73232 -0.0883058 0
M  V30 731 H 62.6233 5.94026 -0.851679 0
M  V30 732 H 63.6933 4.64037 -1.40703 0
M  V30 733 N 65.0364 0.313813 1.54444 0
M  V30 734 C 66.2644 -0.293918 2.04802 0
M  V30 735 C 66.6794 -1.46537 1.19047 0
M  V30 736 O 66.0364 -1.81182 0.218939 0
M  V30 737 C 66.0874 -0.737806 3.53891 0
M  V30 738 O 65.8084 0.387038 4.36387 0
M  V30 739 C 67.3094 -1.40936 4.203 0
M  V30 740 H 64.5294 -0.0620057 0.668129 0
M  V30 741 H 67.0734 0.457169 1.99324 0
M  V30 742 H 65.2284 -1.43889 3.59687 0
M  V30 743 H 65.6424 0.0391274 5.24485 0
M  V30 744 H 67.1164 -1.67099 5.26101 0
M  V30 745 H 67.5934 -2.35355 3.70816 0
M  V30 746 H 68.1994 -0.751117 4.18615 0
M  V30 747 N 66.5145 -1.57545 0.0417849 0
M  V30 748 C 67.7635 -1.91494 -0.633492 0
M  V30 749 C 68.0765 -0.921084 -1.72556 0
M  V30 750 O 69.2825 -1.15228 -2.45835 0
M  V30 751 C 67.7385 -3.40072 -1.17808 0
M  V30 752 C 67.3465 -4.47843 -0.118633 0
M  V30 753 C 69.0905 -3.8307 -1.82915 0
M  V30 754 C 66.9975 -5.87529 -0.675578 0
M  V30 755 H 65.9275 -0.714653 -0.24039 0
M  V30 756 H 68.5785 -1.83175 0.109148 0
M  V30 757 H 66.9605 -3.43364 -1.97274 0
M  V30 758 H 68.1345 -4.56128 0.654494 0
M  V30 759 H 66.4495 -4.14128 0.434414 0
M  V30 760 H 69.0465 -4.84794 -2.25563 0
M  V30 761 H 69.3895 -3.1881 -2.67705 0
M  V30 762 H 69.9225 -3.82255 -1.10119 0
M  V30 763 H 66.6615 -6.55362 0.134475 0
M  V30 764 H 66.1815 -5.82824 -1.4169 0
M  V30 765 H 67.8605 -6.36491 -1.1614 0
M  V30 766 N 67.9926 0.231505 -1.5589 0
M  V30 767 C 69.2416 0.955346 -1.7764 0
M  V30 768 C 69.5546 1.85893 -0.608546 0
M  V30 769 O 70.7606 2.62067 -0.70943 0
M  V30 770 C 69.2166 1.74886 -3.14552 0
M  V30 771 C 68.8246 0.891915 -4.39032 0
M  V30 772 C 70.5686 2.46452 -3.45633 0
M  V30 773 C 68.4756 1.68221 -5.66971 0
M  V30 774 H 67.4056 0.360446 -0.662265 0
M  V30 775 H 70.0566 0.209516 -1.823 0
M  V30 776 H 68.4386 2.53723 -3.04041 0
M  V30 777 H 69.6126 0.144793 -4.60572 0
M  V30 778 H 67.9276 0.288863 -4.15397 0
M  V30 779 H 70.5246 3.06061 -4.38441 0
M  V30 780 H 70.8676 3.18841 -2.67668 0
M  V30 781 H 71.4006 1.74613 -3.57428 0
M  V30 782 H 68.1396 1.00178 -6.478 0
M  V30 783 H 67.6596 2.4042 -5.49507 0
M  V30 784 H 69.3386 2.24544 -6.06786 0
M  V30 785 N 69.4707 1.49531 0.497807 0
M  V30 786 C 70.4177 1.66436 1.59899 0
M  V30 787 C 71.3877 0.505793 1.58212 0
M  V30 788 O 72.5727 0.733202 1.7615 0
M  V30 789 C 69.7127 1.7399 2.98029 0
M  V30 790 C 68.8257 3.01172 3.09708 0
M  V30 791 C 67.9607 2.99686 4.38591 0
M  V30 792 C 66.9997 4.21434 4.43914 0
M  V30 793 N 66.1367 4.1784 5.64229 0
M  V30 794 H 70.9767 2.60459 1.44793 0
M  V30 795 H 68.5137 1.29137 0.704423 0
M  V30 796 H 70.4717 1.76352 3.78095 0
M  V30 797 H 69.1017 0.834301 3.11832 0
M  V30 798 H 68.1537 3.08408 2.22685 0
M  V30 799 H 69.4657 3.91165 3.09502 0
M  V30 800 H 68.6197 3.00628 5.2698 0
M  V30 801 H 67.3587 2.07477 4.41367 0
M  V30 802 H 66.3637 4.20733 3.53926 0
M  V30 803 H 67.5887 5.14839 4.42851 0
M  V30 804 H 65.5347 3.28469 5.67841 0
M  V30 805 H 65.4517 5.01571 5.65652 0
M  V30 806 H 66.7197 4.22889 6.54817 0
M  V30 807 N 70.9488 -0.749086 1.3866 0
M  V30 808 C 71.8808 -1.87273 1.32142 0
M  V30 809 C 72.8938 -1.61127 0.232787 0
M  V30 810 O 74.0828 -1.71623 0.49069 0
M  V30 811 C 71.1828 -3.23005 1.02571 0
M  V30 812 C 70.3558 -3.7662 2.22433 0
M  V30 813 C 69.4148 -4.90879 1.89537 0
M  V30 814 O 68.4408 -5.05276 2.62078 0
M  V30 815 N 69.6428 -5.74198 0.853031 0
M  V30 816 H 72.4078 -1.93373 2.28969 0
M  V30 817 H 69.9688 -0.929216 1.32579 0
M  V30 818 H 71.9608 -3.96992 0.786085 0
M  V30 819 H 70.5308 -3.12262 0.145249 0
M  V30 820 H 69.7508 -2.94147 2.62434 0
M  V30 821 H 71.0388 -4.09173 3.02415 0
M  V30 822 H 70.4368 -5.6514 0.25155 0
M  V30 823 H 68.9938 -6.48313 0.67329 0
M  V30 824 N 72.4269 -1.23603 -0.977757 0
M  V30 825 C 73.6549 -1.09646 -1.75458 0
M  V30 826 C 74.0699 0.351859 -1.85492 0
M  V30 827 O 73.4269 1.24327 -1.336 0
M  V30 828 C 73.4779 -1.71895 -3.18016 0
M  V30 829 O 73.1989 -3.11063 -3.08498 0
M  V30 830 C 74.6999 -1.63415 -4.12081 0
M  V30 831 H 71.9199 -0.38359 -0.550545 0
M  V30 832 H 74.4639 -1.63507 -1.22824 0
M  V30 833 H 72.6189 -1.22061 -3.67668 0
M  V30 834 H 73.0329 -3.41305 -3.9826 0
M  V30 835 H 74.5069 -2.11669 -5.09804 0
M  V30 836 H 74.9839 -0.593462 -4.35172 0
M  V30 837 H 75.5899 -2.12628 -3.68334 0
M  V30 838 N 73.905 1.17692 -1.04816 0
M  V30 839 C 75.152 1.87859 -0.75599 0
M  V30 840 C 75.48 1.80812 0.716752 0
M  V30 841 O 74.735 1.20819 1.53952 0
M  V30 842 C 75.034 3.37462 -1.17703 0
M  V30 843 C 74.7 3.64713 -2.65133 0
M  V30 844 C 73.362 3.71859 -3.05408 0
M  V30 845 C 75.714 3.76492 -3.60421 0
M  V30 846 C 73.042 3.88271 -4.39843 0
M  V30 847 C 75.394 3.94421 -4.94585 0
M  V30 848 C 74.058 3.99806 -5.3452 0
M  V30 849 H 73.328 0.687425 -0.276636 0
M  V30 850 H 75.975 1.39255 -1.31455 0
M  V30 851 H 74.28 3.88097 -0.537395 0
M  V30 852 H 75.977 3.90109 -0.928218 0
M  V30 853 H 72.567 3.59772 -2.32942 0
M  V30 854 H 76.751 3.70295 -3.30447 0
M  V30 855 H 72.007 3.90687 -4.70291 0
M  V30 856 H 76.181 4.02477 -5.68318 0
M  V30 857 H 73.808 4.12276 -6.38696 0
M  V30 858 N 75.3831 0.828654 1.34056 0
M  V30 859 C 76.2931 0.256725 2.33191 0
M  V30 860 C 77.3091 -0.611898 1.62886 0
M  V30 861 O 78.4851 -0.51844 1.94613 0
M  V30 862 C 75.5501 -0.567238 3.42028 0
M  V30 863 C 74.6111 0.324458 4.28072 0
M  V30 864 C 73.8441 -0.460274 5.31712 0
M  V30 865 O 74.0671 -1.693 5.44696 0
M  V30 866 O 73.0011 0.160391 6.01686 0
M  V30 867 H 76.8271 1.07739 2.83947 0
M  V30 868 H 74.4121 0.59093 1.37217 0
M  V30 869 H 76.2941 -1.03582 4.08471 0
M  V30 870 H 74.9691 -1.36513 2.93506 0
M  V30 871 H 73.8761 0.840659 3.64532 0
M  V30 872 H 75.2091 1.08685 4.8005 0
M  V30 873 N 76.8612 -1.46375 0.584142 0
M  V30 874 C 77.7932 -2.28443 -0.186119 0
M  V30 875 C 78.8062 -1.38596 -0.854115 0
M  V30 876 O 79.9952 -1.63183 -0.723438 0
M  V30 877 C 77.0952 -3.13671 -1.28311 0
M  V30 878 C 76.2682 -4.31652 -0.706758 0
M  V30 879 C 75.3272 -4.98267 -1.69163 0
M  V30 880 O 74.3532 -5.55815 -1.22712 0
M  V30 881 N 75.5552 -4.95408 -3.02575 0
M  V30 882 H 78.3202 -2.9519 0.517986 0
M  V30 883 H 75.8812 -1.56303 0.42201 0
M  V30 884 H 77.8732 -3.55101 -1.94128 0
M  V30 885 H 76.4432 -2.48989 -1.89005 0
M  V30 886 H 75.6632 -3.93989 0.128908 0
M  V30 887 H 76.9512 -5.07906 -0.301506 0
M  V30 888 H 76.3492 -4.49902 -3.42936 0
M  V30 889 H 74.9062 -5.40774 -3.63877 0
M  V30 890 N 78.3393 -0.321999 -1.54275 0
M  V30 891 C 79.2713 0.578671 -2.21775 0
M  V30 892 C 80.2843 1.08109 -1.21722 0
M  V30 893 O 81.4733 0.994938 -1.482 0
M  V30 894 C 78.5733 1.80661 -2.86731 0
M  V30 895 C 77.7463 1.44314 -4.12907 0
M  V30 896 C 76.8053 2.52845 -4.61472 0
M  V30 897 O 75.8313 2.17054 -5.2619 0
M  V30 898 N 77.0333 3.83748 -4.35566 0
M  V30 899 H 79.7983 0.000709447 -2.997 0
M  V30 900 H 77.3593 -0.145132 -1.61248 0
M  V30 901 H 79.3513 2.52655 -3.16145 0
M  V30 902 H 77.9213 2.29245 -2.12521 0
M  V30 903 H 77.1413 0.554906 -3.90275 0
M  V30 904 H 78.4293 1.17598 -4.95023 0
M  V30 905 H 77.8273 4.15625 -3.83761 0
M  V30 906 H 76.3843 4.51977 -4.69638 0
M  V30 907 N 79.8174 1.5752 -0.0501392 0
M  V30 908 C 81.0654 1.9227 0.622642 0
M  V30 909 C 81.3864 0.929083 1.71444 0
M  V30 910 O 80.6564 -0.0262186 1.95882 0
M  V30 911 H 79.2364 0.709739 0.232981 0
M  V30 912 H 81.8984 1.94628 -0.102898 0
M  V30 913 H 80.9944 2.93479 1.06191 0
M  V30 914 N 81.2955 -0.223234 1.56011 0
M  V30 915 C 82.5445 -0.945912 1.78144 0
M  V30 916 C 82.8575 -1.85567 0.618396 0
M  V30 917 O 84.0635 -2.61688 0.723318 0
M  V30 918 C 82.5195 -1.73216 3.15475 0
M  V30 919 C 82.1275 -0.868619 4.39499 0
M  V30 920 C 83.8715 -2.44615 3.46935 0
M  V30 921 C 81.7785 -1.65212 5.67855 0
M  V30 922 H 80.7085 -0.356929 0.664167 0
M  V30 923 H 83.3595 -0.199845 1.82409 0
M  V30 924 H 81.7415 -2.52107 3.05382 0
M  V30 925 H 82.9155 -0.120366 4.60643 0
M  V30 926 H 81.2305 -0.26683 4.15544 0
M  V30 927 H 83.8275 -3.03732 4.40058 0
M  V30 928 H 84.1705 -3.17417 2.69355 0
M  V30 929 H 84.7035 -1.72715 3.58349 0
M  V30 930 H 81.4425 -0.967407 6.48322 0
M  V30 931 H 80.9625 -2.37503 5.50774 0
M  V30 932 H 82.6415 -2.21322 6.07968 0
M  V30 933 N 82.7736 -1.49793 -0.48987 0
M  V30 934 C 84.0216 -1.59525 -1.24081 0
M  V30 935 C 84.3426 -0.288953 -1.92847 0
M  V30 936 O 83.6126 0.692436 -1.83254 0
M  V30 937 H 82.1926 -0.587796 -0.460983 0
M  V30 938 H 84.8546 -1.86477 -0.566778 0
M  V30 939 H 83.9506 -2.39696 -1.99881 0
M  V30 940 N 84.2517 0.741722 -1.39055 0
M  V30 941 C 85.4797 1.53098 -1.39171 0
M  V30 942 C 85.8947 1.88794 0.0155099 0
M  V30 943 O 85.2517 1.53626 0.985159 0
M  V30 944 C 85.3027 2.82274 -2.2584 0
M  V30 945 O 85.0237 2.48097 -3.61081 0
M  V30 946 C 86.5247 3.76343 -2.34266 0
M  V30 947 H 83.7447 0.473335 -0.4756 0
M  V30 948 H 86.2887 0.917045 -1.82785 0
M  V30 949 H 84.4437 3.40015 -1.85656 0
M  V30 950 H 84.8577 3.31029 -4.06842 0
M  V30 951 H 86.3317 4.63898 -2.9917 0
M  V30 952 H 86.8087 4.17619 -1.35982 0
M  V30 953 H 87.4147 3.24523 -2.74891 0
M  V30 954 N 85.7298 1.2412 0.971189 0
M  V30 955 C 86.6598 1.05508 2.08304 0
M  V30 956 C 87.6408 -0.0308864 1.70072 0
M  V30 957 O 88.8258 0.135521 1.93727 0
M  V30 958 C 85.9558 0.655365 3.4106 0
M  V30 959 C 84.9098 1.68971 3.93234 0
M  V30 960 C 84.2358 1.14516 5.22293 0
M  V30 961 C 85.5358 3.08487 4.21465 0
M  V30 962 H 87.2298 1.98507 2.24132 0
M  V30 963 H 84.7758 0.955821 1.07704 0
M  V30 964 H 86.7288 0.51217 4.18276 0
M  V30 965 H 85.4528 -0.31032 3.25122 0
M  V30 966 H 84.1118 1.82106 3.18171 0
M  V30 967 H 83.7598 0.170189 5.02712 0
M  V30 968 H 83.4598 1.83635 5.58168 0
M  V30 969 H 84.9838 1.01401 6.02121 0
M  V30 970 H 86.3978 2.98601 4.89398 0
M  V30 971 H 84.7948 3.74926 4.68562 0
M  V30 972 H 85.8648 3.56787 3.28376 0
M  V30 973 N 87.2079 -1.17134 1.05439 0
M  V30 974 C 88.1379 -2.2342 0.678649 0
M  V30 975 C 89.1189 -1.66971 -0.32476 0
M  V30 976 O 90.3039 -1.93149 -0.201802 0
M  V30 977 C 87.4339 -3.47256 0.0552099 0
M  V30 978 C 86.3879 -4.16543 0.98365 0
M  V30 979 C 85.7139 -5.34231 0.223961 0
M  V30 980 C 87.0139 -4.68495 2.3089 0
M  V30 981 H 88.7079 -2.55105 1.56722 0
M  V30 982 H 86.2539 -1.2262 0.754998 0
M  V30 983 H 88.2069 -4.20828 -0.21946 0
M  V30 984 H 86.9309 -3.14846 -0.868319 0
M  V30 985 H 85.5899 -3.44887 1.24293 0
M  V30 986 H 85.2379 -4.98071 -0.702412 0
M  V30 987 H 84.9379 -5.81527 0.842627 0
M  V30 988 H 86.4619 -6.10585 -0.0433671 0
M  V30 989 H 87.8759 -5.33691 2.09396 0
M  V30 990 H 86.2729 -5.26379 2.88176 0
M  V30 991 H 87.3429 -3.85169 2.94572 0
M  V30 992 N 88.686 -0.835752 -1.33615 0
M  V30 993 C 89.914 -0.443344 -2.02094 0
M  V30 994 C 90.329 0.954522 -1.62894 0
M  V30 995 O 89.686 1.61982 -0.840723 0
M  V30 996 C 89.737 -0.550775 -3.5728 0
M  V30 997 O 89.458 -1.89356 -3.95065 0
M  V30 998 C 90.959 -0.154919 -4.43029 0
M  V30 999 H 88.179 -0.176359 -0.647409 0
M  V30 1000 H 90.723 -1.12746 -1.70612 0
M  V30 1001 H 88.878 0.0853997 -3.87306 0
M  V30 1002 H 89.292 -1.87687 -4.89769 0
M  V30 1003 H 90.766 -0.281144 -5.51284 0
M  V30 1004 H 91.243 0.902863 -4.2982 0
M  V30 1005 H 91.849 -0.765404 -4.18356 0
M  V30 1006 N 90.1641 1.46063 -0.591896 0
M  V30 1007 C 91.4101 2.02638 -0.0811191 0
M  V30 1008 C 91.7431 1.4613 1.27905 0
M  V30 1009 O 91.0181 0.629908 1.84017 0
M  V30 1010 C 91.3011 3.60091 -0.0252436 0
M  V30 1011 C 91.1541 4.26965 -1.41496 0
M  V30 1012 C 92.4731 4.3496 0.670685 0
M  V30 1013 H 89.5921 0.73635 -0.0309524 0
M  V30 1014 H 92.2341 1.741 -0.760859 0
M  V30 1015 H 90.3841 3.84535 0.553624 0
M  V30 1016 H 92.0561 4.13756 -2.0397 0
M  V30 1017 H 90.2991 3.85971 -1.98011 0
M  V30 1018 H 90.9701 5.35781 -1.32825 0
M  V30 1019 H 93.4461 4.15716 0.178825 0
M  V30 1020 H 92.3221 5.44686 0.678837 0
M  V30 1021 H 92.5831 4.06685 1.73379 0
M  V30 1022 N 91.6422 0.330177 1.54103 0
M  V30 1023 C 93.0532 -0.15652 1.86043 0
M  V30 1024 C 93.4042 -1.51086 1.2517 0
M  V30 1025 O 92.5292 -2.09023 0.560217 0
M  V30 1026 C 93.1242 -0.290784 3.3755 0
M  V30 1027 C 91.6832 -0.721705 3.69416 0
M  V30 1028 C 90.8302 0.152622 2.7688 0
M  V30 1029 H 93.7812 0.550237 1.48856 0
M  V30 1030 H 93.8022 -1.12058 3.63625 0
M  V30 1031 H 93.3142 0.695068 3.81825 0
M  V30 1032 H 91.4152 -1.71706 3.30678 0
M  V30 1033 H 91.5282 -0.520869 4.7626 0
M  V30 1034 H 89.8922 -0.372894 2.51956 0
M  V30 1035 H 90.6752 1.13536 3.23982 0
M  V30 1036 N 93.1203 -1.57491 0.0584922 0
M  V30 1037 C 94.3683 -1.92597 -0.612436 0
M  V30 1038 C 94.6893 -0.938162 -1.70949 0
M  V30 1039 O 93.9593 0.0158301 -1.95894 0
M  V30 1040 H 92.5393 -0.710964 -0.229214 0
M  V30 1041 H 95.2013 -1.94571 0.113218 0
M  V30 1042 H 94.2973 -2.94038 -1.04633 0
M  V30 1043 N 94.5984 0.214957 -1.56127 0
M  V30 1044 C 95.5614 1.24997 -1.92116 0
M  V30 1045 C 96.5614 1.39467 -0.800344 0
M  V30 1046 O 97.7514 1.37619 -1.06802 0
M  V30 1047 C 94.8834 2.62271 -2.17777 0
M  V30 1048 H 96.0764 0.942875 -2.84693 0
M  V30 1049 H 93.6294 0.455654 -1.49511 0
M  V30 1050 H 94.3644 2.98068 -1.27773 0
M  V30 1051 H 94.1494 2.53143 -2.99434 0
M  V30 1052 H 95.6394 3.36946 -2.46693 0
M  V30 1053 N 96.0765 1.50051 0.48192 0
M  V30 1054 C 97.0395 1.67584 1.5636 0
M  V30 1055 C 98.0395 0.546894 1.51214 0
M  V30 1056 O 99.2295 0.813725 1.54026 0
M  V30 1057 C 96.3615 1.691 2.96003 0
M  V30 1058 H 97.5545 2.64078 1.42136 0
M  V30 1059 H 95.1075 1.39369 0.707533 0
M  V30 1060 H 95.8425 0.742589 3.15684 0
M  V30 1061 H 95.6275 2.51105 3.01146 0
M  V30 1062 H 97.1175 1.84656 3.74556 0
M  V30 1063 N 97.5546 -0.734337 1.39446 0
M  V30 1064 C 98.8026 -1.49096 1.36436 0
M  V30 1065 C 99.1236 -1.94961 -0.0388255 0
M  V30 1066 O 98.3936 -1.69033 -0.990191 0
M  V30 1067 H 96.9736 -0.5531 0.502085 0
M  V30 1068 H 99.6356 -0.871725 1.74319 0
M  V30 1069 H 98.7316 -2.37276 2.02747 0
M  V30 1070 N 99.0327 -1.24633 -0.964593 0
M  V30 1071 C 100.281 -1.08573 -1.70459 0
M  V30 1072 C 100.602 0.375655 -1.91347 0
M  V30 1073 O 99.8717 1.26779 -1.49345 0
M  V30 1074 H 98.4517 -0.398784 -0.631649 0
M  V30 1075 H 101.114 -1.56601 -1.16026 0
M  V30 1076 H 100.21 -1.58623 -2.68785 0
M  V30 1077 N 100.511 1.16574 -1.06058 0
M  V30 1078 C 101.757 1.87324 -0.777022 0
M  V30 1079 C 102.09 1.81351 0.694645 0
M  V30 1080 O 101.365 1.22753 1.50871 0
M  V30 1081 C 101.648 3.36991 -1.26922 0
M  V30 1082 C 101.501 3.51667 -2.80447 0
M  V30 1083 C 102.82 4.3131 -0.87521 0
M  V30 1084 H 99.9388 0.680191 -0.28374 0
M  V30 1085 H 102.581 1.37036 -1.3161 0
M  V30 1086 H 100.731 3.79949 -0.81063 0
M  V30 1087 H 102.403 3.17664 -3.34495 0
M  V30 1088 H 100.646 2.93656 -3.19294 0
M  V30 1089 H 101.317 4.56766 -3.0995 0
M  V30 1090 H 103.793 3.9624 -1.27014 0
M  V30 1091 H 102.669 5.34545 -1.2471 0
M  V30 1092 H 102.93 4.41552 0.220071 0
M  V30 1093 N 101.989 0.842826 1.3317 0
M  V30 1094 C 102.936 0.276885 2.29133 0
M  V30 1095 C 103.906 -0.609527 1.54512 0
M  V30 1096 O 105.091 -0.546955 1.82792 0
M  V30 1097 C 102.231 -0.538707 3.40869 0
M  V30 1098 C 101.344 0.372169 4.30394 0
M  V30 1099 C 100.479 -0.454908 5.29249 0
M  V30 1100 C 99.5179 0.45411 6.10413 0
M  V30 1101 N 98.6549 -0.335075 7.013 0
M  V30 1102 H 103.495 1.10052 2.76934 0
M  V30 1103 H 101.032 0.554161 1.36262 0
M  V30 1104 H 102.99 -1.02709 4.0436 0
M  V30 1105 H 101.62 -1.32727 2.9425 0
M  V30 1106 H 100.672 0.97888 3.6759 0
M  V30 1107 H 101.984 1.0703 4.87182 0
M  V30 1108 H 101.138 -1.00695 5.98285 0
M  V30 1109 H 99.8769 -1.18646 4.73048 0
M  V30 1110 H 98.8819 1.01813 5.40291 0
M  V30 1111 H 100.107 1.18409 6.68697 0
M  V30 1112 H 98.0529 -1.04994 6.47543 0
M  V30 1113 H 97.9699 0.304262 7.55387 0
M  V30 1114 H 99.2379 -0.869224 7.74638 0
M  V30 1115 N 103.467 -1.45747 0.599634 0
M  V30 1116 C 104.697 -2.06369 0.0977132 0
M  V30 1117 C 105.105 -1.44624 -1.21985 0
M  V30 1118 O 104.448 -0.551831 -1.75216 0
M  V30 1119 C 104.51 -3.59284 -0.124673 0
M  V30 1120 C 104.174 -4.43318 1.10987 0
M  V30 1121 C 105.171 -4.78796 2.02609 0
M  V30 1122 C 102.856 -4.84194 1.33647 0
M  V30 1123 C 104.85 -5.53997 3.15224 0
M  V30 1124 C 102.537 -5.5915 2.46565 0
M  V30 1125 C 103.535 -5.93968 3.37182 0
M  V30 1126 O 103.223 -6.67405 4.48136 0
M  V30 1127 H 102.955 -0.673122 0.0623153 0
M  V30 1128 H 105.509 -1.88104 0.824981 0
M  V30 1129 H 103.739 -3.75919 -0.906745 0
M  V30 1130 H 105.428 -4.01775 -0.577201 0
M  V30 1131 H 106.194 -4.47781 1.86325 0
M  V30 1132 H 102.073 -4.56534 0.64016 0
M  V30 1133 H 105.617 -5.81091 3.85978 0
M  V30 1134 H 101.514 -5.89579 2.62805 0
M  V30 1135 H 102.282 -6.85847 4.46717 0
M  V30 1136 N 104.945 -0.338344 -1.53925 0
M  V30 1137 C 106.194 0.260732 -2.00008 0
M  V30 1138 C 106.507 1.52073 -1.23017 0
M  V30 1139 O 107.713 2.19672 -1.5955 0
M  V30 1140 C 106.169 0.51515 -3.56194 0
M  V30 1141 C 105.777 -0.728645 -4.42035 0
M  V30 1142 C 107.521 1.07337 -4.10706 0
M  V30 1143 C 105.428 -0.445315 -5.89721 0
M  V30 1144 H 104.358 0.101205 -0.747177 0
M  V30 1145 H 107.009 -0.452866 -1.77824 0
M  V30 1146 H 105.391 1.28932 -3.74423 0
M  V30 1147 H 106.565 -1.50352 -4.35581 0
M  V30 1148 H 104.88 -1.20813 -3.98489 0
M  V30 1149 H 107.477 1.30022 -5.18651 0
M  V30 1150 H 107.82 2.0273 -3.63602 0
M  V30 1151 H 108.353 0.360034 -3.96167 0
M  V30 1152 H 105.092 -1.36883 -6.41049 0
M  V30 1153 H 104.612 0.291569 -5.99091 0
M  V30 1154 H 106.291 -0.0606218 -6.46972 0
M  V30 1155 N 106.423 1.57458 -0.0668435 0
M  V30 1156 C 107.834 1.80776 0.466558 0
M  V30 1157 C 108.185 0.980361 1.69951 0
M  V30 1158 O 107.31 0.201441 2.1546 0
M  V30 1159 C 107.905 3.27881 0.85321 0
M  V30 1160 C 106.464 3.52062 1.3315 0
M  V30 1161 C 105.611 2.75513 0.314264 0
M  V30 1162 H 108.562 1.5598 -0.292588 0
M  V30 1163 H 108.583 3.39659 1.715 0
M  V30 1164 H 108.095 3.88075 -0.0443439 0
M  V30 1165 H 106.196 2.97167 2.24772 0
M  V30 1166 H 106.309 4.60762 1.31285 0
M  V30 1167 H 104.673 2.42123 0.790492 0
M  V30 1168 H 105.456 3.38442 -0.575477 0
M  V30 1169 N 107.901 -0.206675 1.56239 0
M  V30 1170 C 108.848 -1.25617 1.93621 0
M  V30 1171 C 109.818 -1.45824 0.795274 0
M  V30 1172 O 111.003 -1.59148 1.05245 0
M  V30 1173 C 108.143 -2.59839 2.27107 0
M  V30 1174 C 107.256 -2.47308 3.54207 0
M  V30 1175 C 106.391 -3.74155 3.7707 0
M  V30 1176 C 105.43 -3.56407 4.97635 0
M  V30 1177 N 104.567 -4.75238 5.1681 0
M  V30 1178 H 109.407 -0.930383 2.83104 0
M  V30 1179 H 106.944 -0.448065 1.4011 0
M  V30 1180 H 108.902 -3.38021 2.44535 0
M  V30 1181 H 107.532 -2.90485 1.40778 0
M  V30 1182 H 106.584 -1.60483 3.4489 0
M  V30 1183 H 107.896 -2.30122 4.42544 0
M  V30 1184 H 107.05 -4.60778 3.94675 0
M  V30 1185 H 105.789 -3.94282 2.87042 0
M  V30 1186 H 104.794 -2.68168 4.79964 0
M  V30 1187 H 106.019 -3.37736 5.89161 0
M  V30 1188 H 103.965 -4.95651 4.29728 0
M  V30 1189 H 103.882 -4.60835 5.99306 0
M  V30 1190 H 105.15 -5.63246 5.38864 0
M  V30 1191 N 109.379 -1.50304 -0.473955 0
M  V30 1192 C 110.312 -1.63595 -1.59097 0
M  V30 1193 C 111.29 -0.484142 -1.55225 0
M  V30 1194 O 112.474 -0.703271 -1.7489 0
M  V30 1195 C 109.601 -1.61589 -2.97669 0
M  V30 1196 C 108.647 -2.82295 -3.19705 0
M  V30 1197 S 109.48 -4.43635 -2.99913 0
M  V30 1198 C 110.636 -4.44317 -4.40832 0
M  V30 1199 H 110.869 -2.58082 -1.47583 0
M  V30 1200 H 108.402 -1.39531 -0.661087 0
M  V30 1201 H 110.36 -1.61116 -3.7756 0
M  V30 1202 H 109.021 -0.683421 -3.06575 0
M  V30 1203 H 108.214 -2.77188 -4.20931 0
M  V30 1204 H 107.816 -2.8032 -2.47582 0
M  V30 1205 H 110.108 -4.17703 -5.33414 0
M  V30 1206 H 111.051 -5.45911 -4.50984 0
M  V30 1207 H 111.459 -3.74059 -4.22777 0
M  V30 1208 N 110.857 0.726932 -1.39834 0
M  V30 1209 C 111.804 1.841 -1.39197 0
M  V30 1210 C 112.774 1.642 -0.250502 0
M  V30 1211 O 113.959 1.85494 -0.446846 0
M  V30 1212 C 111.099 3.21697 -1.24919 0
M  V30 1213 C 110.212 3.53247 -2.48678 0
M  V30 1214 C 109.347 4.80289 -2.26928 0
M  V30 1215 C 108.386 5.04707 -3.4632 0
M  V30 1216 N 107.523 6.22956 -3.23836 0
M  V30 1217 H 112.363 1.83979 -2.34427 0
M  V30 1218 H 109.9 0.898876 -1.16442 0
M  V30 1219 H 111.858 4.01137 -1.1465 0
M  V30 1220 H 110.488 3.21076 -0.333153 0
M  V30 1221 H 109.54 2.68447 -2.69519 0
M  V30 1222 H 110.852 3.67205 -3.37582 0
M  V30 1223 H 110.006 5.67725 -2.13947 0
M  V30 1224 H 108.745 4.68519 -1.35431 0
M  V30 1225 H 107.75 4.1573 -3.5979 0
M  V30 1226 H 108.975 5.18357 -4.38729 0
M  V30 1227 H 106.921 6.12459 -2.35011 0
M  V30 1228 H 106.838 6.37539 -4.063 0
M  V30 1229 H 108.106 7.1321 -3.14566 0
M  V30 1230 N 112.336 1.25143 0.95797 0
M  V30 1231 C 113.268 1.01023 2.05735 0
M  V30 1232 C 114.281 -0.0236902 1.62783 0
M  V30 1233 O 115.47 0.21448 1.77207 0
M  V30 1234 C 112.57 0.504595 3.35122 0
M  V30 1235 C 111.743 1.6039 4.06932 0
M  V30 1236 C 110.802 1.09922 5.14591 0
M  V30 1237 O 109.828 1.79293 5.40225 0
M  V30 1238 N 111.03 -0.0612545 5.80468 0
M  V30 1239 H 113.795 1.95683 2.26998 0
M  V30 1240 H 111.356 1.16303 1.12629 0
M  V30 1241 H 113.348 0.151516 4.04416 0
M  V30 1242 H 111.918 -0.347989 3.10657 0
M  V30 1243 H 111.138 2.12872 3.31782 0
M  V30 1244 H 112.426 2.34252 4.51667 0
M  V30 1245 H 111.824 -0.640985 5.62057 0
M  V30 1246 H 110.381 -0.355395 6.5083 0
M  V30 1247 N 113.814 -1.1601 1.06675 0
M  V30 1248 C 114.777 -2.18724 0.685001 0
M  V30 1249 C 115.777 -1.58496 -0.271246 0
M  V30 1250 O 116.967 -1.74119 -0.0531156 0
M  V30 1251 C 114.099 -3.40899 0.00853648 0
M  V30 1252 H 115.292 -2.54011 1.59431 0
M  V30 1253 H 112.845 -1.30352 0.862441 0
M  V30 1254 H 113.58 -3.11173 -0.913337 0
M  V30 1255 H 113.365 -3.8587 0.696204 0
M  V30 1256 H 114.855 -4.16886 -0.24414 0
M  V30 1257 N 115.292 -0.849877 -1.32721 0
M  V30 1258 C 116.202 -0.293791 -2.32753 0
M  V30 1259 C 117.218 0.585906 -1.63839 0
M  V30 1260 O 118.394 0.487413 -1.95413 0
M  V30 1261 C 115.459 0.512752 -3.42887 0
M  V30 1262 C 114.52 -0.39252 -4.27502 0
M  V30 1263 C 113.753 0.375625 -5.32377 0
M  V30 1264 O 113.976 1.60613 -5.4732 0
M  V30 1265 O 112.91 -0.256094 -6.01355 0
M  V30 1266 H 116.736 -1.12242 -2.82197 0
M  V30 1267 H 114.321 -0.612685 -1.36259 0
M  V30 1268 H 116.203 0.970704 -4.10067 0
M  V30 1269 H 114.878 1.31826 -2.95641 0
M  V30 1270 H 113.785 -0.898547 -3.63149 0
M  V30 1271 H 115.118 -1.16309 -4.7826 0
M  V30 1272 N 116.77 1.45427 -0.607355 0
M  V30 1273 C 117.733 2.28974 0.101693 0
M  V30 1274 C 118.733 1.39754 0.795329 0
M  V30 1275 O 119.923 1.61878 0.643527 0
M  V30 1276 C 117.055 3.20768 1.15414 0
M  V30 1277 H 118.248 2.93147 -0.632844 0
M  V30 1278 H 115.801 1.51945 -0.366391 0
M  V30 1279 H 116.536 2.61395 1.91945 0
M  V30 1280 H 116.321 3.86489 0.66098 0
M  V30 1281 H 117.811 3.83589 1.65073 0
M  V30 1282 N 118.248 0.346503 1.53744 0
M  V30 1283 C 119.158 -0.517293 2.28826 0
M  V30 1284 C 120.174 -1.10935 1.3405 0
M  V30 1285 O 121.35 -1.1244 1.6709 0
M  V30 1286 C 118.415 -1.65098 3.04866 0
M  V30 1287 C 117.476 -1.0884 4.15274 0
M  V30 1288 C 116.709 -2.16806 4.87679 0
M  V30 1289 O 116.932 -3.3758 4.59778 0
M  V30 1290 O 115.866 -1.80934 5.74061 0
M  V30 1291 H 119.692 0.0931396 3.03557 0
M  V30 1292 H 117.277 0.111458 1.48984 0
M  V30 1293 H 119.159 -2.31053 3.5241 0
M  V30 1294 H 117.834 -2.24717 2.32989 0
M  V30 1295 H 116.741 -0.3933 3.72027 0
M  V30 1296 H 118.074 -0.537036 4.89261 0
M  V30 1297 N 119.726 -1.57421 0.075193 0
M  V30 1298 C 120.636 -2.1642 -0.905511 0
M  V30 1299 C 121.652 -1.12828 -1.32461 0
M  V30 1300 O 122.828 -1.45109 -1.39661 0
M  V30 1301 C 119.893 -2.71693 -2.15369 0
M  V30 1302 C 118.954 -3.90171 -1.79068 0
M  V30 1303 C 118.187 -4.42798 -2.97936 0
M  V30 1304 O 118.41 -3.94416 -4.12058 0
M  V30 1305 O 117.344 -5.34085 -2.77555 0
M  V30 1306 H 121.17 -3.00588 -0.433626 0
M  V30 1307 H 118.755 -1.48664 -0.148067 0
M  V30 1308 H 120.637 -3.07104 -2.88557 0
M  V30 1309 H 119.312 -1.90582 -2.61649 0
M  V30 1310 H 118.219 -3.59606 -1.03122 0
M  V30 1311 H 119.552 -4.72584 -1.37569 0
M  V30 1312 N 121.204 0.198386 -1.56346 0
M  V30 1313 C 122.451 0.919286 -1.80431 0
M  V30 1314 C 122.779 1.83393 -0.647866 0
M  V30 1315 O 122.034 1.92236 0.366556 0
M  V30 1316 C 122.333 1.77031 -3.10475 0
M  V30 1317 C 121.999 1.00693 -4.39513 0
M  V30 1318 C 120.661 0.796145 -4.74568 0
M  V30 1319 C 123.013 0.469559 -5.19081 0
M  V30 1320 C 120.341 0.0364588 -5.86689 0
M  V30 1321 C 122.693 -0.2769 -6.31994 0
M  V30 1322 C 121.357 -0.49873 -6.65634 0
M  V30 1323 H 120.627 0.336391 -0.660244 0
M  V30 1324 H 123.274 0.185872 -1.90596 0
M  V30 1325 H 121.579 2.5723 -2.95533 0
M  V30 1326 H 123.276 2.33065 -3.26315 0
M  V30 1327 H 119.866 1.18122 -4.12001 0
M  V30 1328 H 124.05 0.619816 -4.92414 0
M  V30 1329 H 119.306 -0.145412 -6.11227 0
M  V30 1330 H 123.48 -0.700684 -6.92866 0
M  V30 1331 H 121.107 -1.0893 -7.52355 0
M  V30 1332 N 122.682 1.50554 0.465978 0
M  V30 1333 C 123.928 1.62038 1.21949 0
M  V30 1334 C 124.261 0.322116 1.9151 0
M  V30 1335 O 123.536 -0.676723 1.82348 0
M  V30 1336 C 123.819 2.80421 2.25912 0
M  V30 1337 C 123.672 4.20144 1.60622 0
M  V30 1338 C 124.991 2.94354 3.27176 0
M  V30 1339 H 122.11 0.589752 0.441998 0
M  V30 1340 H 124.752 1.82956 0.51257 0
M  V30 1341 H 122.902 2.62717 2.86203 0
M  V30 1342 H 124.574 4.49449 1.03889 0
M  V30 1343 H 122.817 4.24165 0.909211 0
M  V30 1344 H 123.488 4.98914 2.36196 0
M  V30 1345 H 125.964 3.10578 2.76913 0
M  V30 1346 H 124.84 3.788 3.97242 0
M  V30 1347 H 125.101 2.05186 3.916 0
M  V30 1348 N 124.16 -0.719506 1.40217 0
M  V30 1349 C 125.092 -1.84428 1.36084 0
M  V30 1350 C 126.105 -1.60597 0.266913 0
M  V30 1351 O 127.294 -1.70544 0.526983 0
M  V30 1352 C 124.394 -3.20757 1.094 0
M  V30 1353 C 123.567 -3.71817 2.30372 0
M  V30 1354 C 122.626 -4.86748 1.99907 0
M  V30 1355 O 121.652 -4.99603 2.72737 0
M  V30 1356 N 122.854 -5.7226 0.974635 0
M  V30 1357 H 125.619 -1.88473 2.33019 0
M  V30 1358 H 123.18 -0.900885 1.3452 0
M  V30 1359 H 125.172 -3.95235 0.870116 0
M  V30 1360 H 123.742 -3.11884 0.211452 0
M  V30 1361 H 122.962 -2.88514 2.68614 0
M  V30 1362 H 124.25 -4.02666 3.11026 0
M  V30 1363 H 123.648 -5.6448 0.371368 0
M  V30 1364 H 122.205 -6.46739 0.810656 0
M  V30 1365 N 125.638 -1.25649 -0.95132 0
M  V30 1366 C 126.866 -1.13343 -1.73092 0
M  V30 1367 C 127.281 0.312434 -1.86197 0
M  V30 1368 O 126.638 1.21465 -1.36207 0
M  V30 1369 C 126.689 -1.78602 -3.14299 0
M  V30 1370 O 126.41 -3.17537 -3.01831 0
M  V30 1371 C 127.911 -1.72119 -4.08522 0
M  V30 1372 H 125.131 -0.395181 -0.542285 0
M  V30 1373 H 127.675 -1.66076 -1.19328 0
M  V30 1374 H 125.83 -1.29832 -3.64996 0
M  V30 1375 H 126.244 -3.49676 -3.90931 0
M  V30 1376 H 127.718 -2.22435 -5.052 0
M  V30 1377 H 128.195 -0.685635 -4.33815 0
M  V30 1378 H 128.801 -2.20393 -3.63741 0
M  V30 1379 N 127.117 1.15442 -1.07289 0
M  V30 1380 C 128.047 2.22312 -0.714107 0
M  V30 1381 C 129.028 1.67467 0.298155 0
M  V30 1382 O 130.213 1.93445 0.171048 0
M  V30 1383 C 127.343 3.47124 -0.110448 0
M  V30 1384 C 126.297 4.14926 -1.04979 0
M  V30 1385 C 125.623 5.33807 -0.308924 0
M  V30 1386 C 126.923 4.64762 -2.38314 0
M  V30 1387 H 128.617 2.5258 -1.6076 0
M  V30 1388 H 126.163 1.21404 -0.77441 0
M  V30 1389 H 128.116 4.21124 0.152482 0
M  V30 1390 H 126.84 3.16187 0.81812 0
M  V30 1391 H 125.499 3.42866 -1.29764 0
M  V30 1392 H 125.147 4.99126 0.623084 0
M  V30 1393 H 124.847 5.80113 -0.935036 0
M  V30 1394 H 126.371 6.10576 -0.0537771 0
M  V30 1395 H 127.785 5.30292 -2.1786 0
M  V30 1396 H 126.182 5.21728 -2.96514 0
M  V30 1397 H 127.252 3.80434 -3.00663 0
M  V30 1398 N 128.595 0.856903 1.32268 0
M  V30 1399 C 129.843 0.460474 1.96784 0
M  V30 1400 C 130.164 -0.987701 1.68135 0
M  V30 1401 O 129.434 -1.69058 0.989765 0
M  V30 1402 H 128.014 0.167289 0.728027 0
M  V30 1403 H 130.676 1.09383 1.61312 0
M  V30 1404 H 129.772 0.60739 3.06133 0
M  V30 1405 N 130.073 -1.45103 0.615059 0
M  V30 1406 C 131.005 -2.28786 -0.13762 0
M  V30 1407 C 132.018 -1.40376 -0.824525 0
M  V30 1408 O 133.207 -1.64681 -0.688662 0
M  V30 1409 C 130.307 -3.16322 -1.21628 0
M  V30 1410 C 129.48 -4.33054 -0.615039 0
M  V30 1411 C 128.539 -5.01743 -1.58556 0
M  V30 1412 O 127.565 -5.58293 -1.10895 0
M  V30 1413 N 128.767 -5.01714 -2.91998 0
M  V30 1414 H 131.532 -2.94025 0.580483 0
M  V30 1415 H 129.093 -1.55373 0.45507 0
M  V30 1416 H 131.085 -3.59139 -1.86552 0
M  V30 1417 H 129.655 -2.52943 -1.83681 0
M  V30 1418 H 128.875 -3.93627 0.21245 0
M  V30 1419 H 130.163 -5.08431 -0.193704 0
M  V30 1420 H 129.561 -4.57075 -3.33316 0
M  V30 1421 H 128.118 -5.48371 -3.52325 0
M  V30 1422 N 131.551 -0.354651 -1.53558 0
M  V30 1423 C 132.776 0.242153 -2.05981 0
M  V30 1424 C 133.201 1.42553 -1.2272 0
M  V30 1425 O 132.559 1.79656 -0.243604 0
M  V30 1426 C 132.607 0.624367 -3.55154 0
M  V30 1427 O 131.711 1.72301 -3.74681 0
M  V30 1428 H 131.052 0.0378432 -0.662921 0
M  V30 1429 H 133.582 -0.512087 -1.98088 0
M  V30 1430 H 133.592 0.898433 -3.97985 0
M  V30 1431 H 132.267 -0.240989 -4.15201 0
M  V30 1432 H 130.844 1.44535 -3.4375 0
M  V30 1433 N 133.029 1.57378 -0.0835403 0
M  V30 1434 C 133.959 2.1641 0.87686 0
M  V30 1435 C 134.94 1.09429 1.30228 0
M  V30 1436 O 136.125 1.37516 1.37124 0
M  V30 1437 C 133.255 2.73517 2.14022 0
M  V30 1438 C 132.209 3.85769 1.85381 0
M  V30 1439 C 131.535 4.29529 3.18448 0
M  V30 1440 C 132.835 5.09486 1.14984 0
M  V30 1441 H 134.529 2.96914 0.385059 0
M  V30 1442 H 132.075 1.42823 0.18377 0
M  V30 1443 H 134.028 3.13463 2.81636 0
M  V30 1444 H 132.752 1.90252 2.65465 0
M  V30 1445 H 131.411 3.46345 1.20169 0
M  V30 1446 H 131.059 3.43169 3.67755 0
M  V30 1447 H 130.759 5.05204 3.00071 0
M  V30 1448 H 132.283 4.72099 3.8724 0
M  V30 1449 H 133.697 5.46674 1.72687 0
M  V30 1450 H 132.094 5.90515 1.06826 0
M  V30 1451 H 133.164 4.84724 0.130749 0
M  V30 1452 N 134.507 -0.190092 1.56449 0
M  V30 1453 C 135.47 -1.21925 1.9408 0
M  V30 1454 C 136.47 -1.38176 0.822431 0
M  V30 1455 O 137.66 -1.35903 1.08977 0
M  V30 1456 C 134.792 -2.58773 2.21922 0
M  V30 1457 H 135.985 -0.897464 2.86157 0
M  V30 1458 H 133.538 -0.43181 1.50217 0
M  V30 1459 H 134.273 -2.95998 1.32499 0
M  V30 1460 H 134.058 -2.48348 3.03424 0
M  V30 1461 H 135.548 -3.32978 2.52022 0
M  V30 1462 N 135.985 -1.50799 -0.457987 0
M  V30 1463 C 136.933 -1.71162 -1.575 0
M  V30 1464 C 137.927 -0.577592 -1.59249 0
M  V30 1465 O 139.133 -0.758443 -1.63241 0
M  V30 1466 H 135.508 -0.540468 -0.522875 0
M  V30 1467 H 137.479 -2.64837 -1.37492 0
M  V30 1468 C 136.228 -1.83496 -2.95338 0
M  V30 1469 H 135.551 -2.70153 -2.94716 0
M  V30 1470 H 136.991 -2.01765 -3.72917 0
M  V30 1471 C 135.45 -0.589694 -3.31699 0
M  V30 1472 O 135.98 0.265163 -4.00824 0
M  V30 1473 N 134.186 -0.439845 -2.87252 0
M  V30 1474 H 133.733 -1.13655 -2.31172 0
M  V30 1475 H 133.691 0.392159 -3.11945 0
M  V30 1476 N 137.463 0.71206 -1.40597 0
M  V30 1477 C 138.874 1.29135 -1.34837 0
M  V30 1478 C 139.225 1.96186 -0.0235395 0
M  V30 1479 O 138.35 1.97768 0.878444 0
M  V30 1480 C 138.945 2.34827 -2.44217 0
M  V30 1481 C 137.504 2.88371 -2.41907 0
M  V30 1482 C 136.651 1.62202 -2.24913 0
M  V30 1483 H 139.602 0.507944 -1.50352 0
M  V30 1484 H 139.623 3.15749 -2.12327 0
M  V30 1485 H 139.135 1.85996 -3.40627 0
M  V30 1486 H 137.236 3.41422 -1.49204 0
M  V30 1487 H 137.349 3.39925 -3.37621 0
M  V30 1488 H 135.713 1.874 -1.72492 0
M  V30 1489 H 136.496 1.15391 -3.23326 0
M  V30 1490 N 138.941 1.26152 0.944643 0
M  V30 1491 C 139.851 1.09176 2.07648 0
M  V30 1492 C 140.867 0.0261935 1.7398 0
M  V30 1493 O 142.043 0.229208 2.00091 0
M  V30 1494 C 139.108 0.722915 3.39079 0
M  V30 1495 C 138.169 1.86752 3.86552 0
M  V30 1496 C 137.402 1.51617 5.11711 0
M  V30 1497 O 137.625 0.416331 5.68879 0
M  V30 1498 O 136.559 2.34975 5.54139 0
M  V30 1499 H 140.385 2.0412 2.24875 0
M  V30 1500 H 137.97 1.05182 1.061 0
M  V30 1501 H 139.852 0.529787 4.18056 0
M  V30 1502 H 138.527 -0.197159 3.23099 0
M  V30 1503 H 137.434 2.11558 3.08535 0
M  V30 1504 H 138.767 2.76719 4.07047 0
M  V30 1505 N 140.419 -1.14872 1.07899 0
M  V30 1506 C 141.835 -1.37776 0.805606 0
M  V30 1507 C 142.035 -1.92743 -0.587555 0
M  V30 1508 O 141.091 -2.13678 -1.34528 0
M  V30 1509 C 142.404 -2.34361 1.88402 0
M  V30 1510 C 143.952 -2.48012 1.90942 0
M  V30 1511 C 144.427 -3.47893 2.97883 0
M  V30 1512 N 145.918 -3.55433 2.97021 0
M  V30 1513 C 146.653 -4.32553 3.76412 0
M  V30 1514 N 146.149 -5.12959 4.65666 0
M  V30 1515 N 147.942 -4.27697 3.64735 0
M  V30 1516 H 140.093 -0.775365 1.97742 0
M  V30 1517 H 142.356 -0.403521 0.857831 0
M  V30 1518 H 142.062 -2.01098 2.88535 0
M  V30 1519 H 141.936 -3.34206 1.74889 0
M  V30 1520 H 144.323 -2.8057 0.914579 0
M  V30 1521 H 144.404 -1.48147 2.08534 0
M  V30 1522 H 144.048 -3.16069 3.97571 0
M  V30 1523 H 143.978 -4.47527 2.77538 0
M  V30 1524 H 146.469 -2.98048 2.32326 0
M  V30 1525 H 146.782 -5.69065 5.22862 0
M  V30 1526 H 145.127 -5.12245 4.69712 0
M  V30 1527 H 148.318 -3.63949 2.94378 0
M  V30 1528 H 148.491 -4.8755 4.26848 0
M  V30 1529 N 141.898 -0.863906 -1.31812 0
M  V30 1530 C 143.147 -0.46801 -1.96195 0
M  V30 1531 C 143.46 0.983474 -1.69077 0
M  V30 1532 O 144.666 1.48523 -2.27273 0
M  V30 1533 C 143.122 -0.785995 -3.51212 0
M  V30 1534 C 142.73 -2.25383 -3.87178 0
M  V30 1535 C 144.474 -0.458274 -4.22019 0
M  V30 1536 C 142.381 -2.51455 -5.3528 0
M  V30 1537 H 141.311 -0.171283 -0.734287 0
M  V30 1538 H 143.962 -1.05597 -1.50072 0
M  V30 1539 H 142.344 -0.127359 -3.95795 0
M  V30 1540 H 143.518 -2.95502 -3.53575 0
M  V30 1541 H 141.833 -2.54698 -3.2942 0
M  V30 1542 H 144.43 -0.630369 -5.30971 0
M  V30 1543 H 144.773 0.600834 -4.11941 0
M  V30 1544 H 145.306 -1.07319 -3.8305 0
M  V30 1545 H 142.045 -3.56025 -5.50387 0
M  V30 1546 H 141.565 -1.85923 -5.70257 0
M  V30 1547 H 143.244 -2.35874 -6.02472 0
M  V30 1548 N 143.376 1.44774 -0.622745 0
M  V30 1549 C 144.306 2.33382 0.0741861 0
M  V30 1550 C 145.287 1.47719 0.843387 0
M  V30 1551 O 146.472 1.76458 0.810934 0
M  V30 1552 C 143.602 3.30663 1.06204 0
M  V30 1553 C 142.556 4.26079 0.405037 0
M  V30 1554 C 141.882 5.13165 1.5022 0
M  V30 1555 C 143.182 5.1781 -0.683414 0
M  V30 1556 H 144.876 2.91905 -0.665713 0
M  V30 1557 H 142.422 1.40363 -0.321587 0
M  V30 1558 H 144.375 3.9153 1.55827 0
M  V30 1559 H 143.099 2.70331 1.83272 0
M  V30 1560 H 141.758 3.66532 -0.0704683 0
M  V30 1561 H 141.406 4.49191 2.26355 0
M  V30 1562 H 141.106 5.77812 1.06803 0
M  V30 1563 H 142.63 5.76902 2.00041 0
M  V30 1564 H 144.044 5.72661 -0.270631 0
M  V30 1565 H 142.441 5.91015 -1.04023 0
M  V30 1566 H 143.511 4.59326 -1.55395 0
M  V30 1567 N 144.854 0.36279 1.53368 0
M  V30 1568 C 146.265 -0.117022 1.86333 0
M  V30 1569 C 146.616 -1.48397 1.28347 0
M  V30 1570 O 145.741 -2.07787 0.604428 0
M  V30 1571 C 146.336 -0.21912 3.38091 0
M  V30 1572 C 144.895 -0.643184 3.70864 0
M  V30 1573 C 144.042 0.211318 2.76494 0
M  V30 1574 H 146.993 0.581687 1.47655 0
M  V30 1575 H 147.014 -1.04319 3.6592 0
M  V30 1576 H 146.526 0.775902 3.80265 0
M  V30 1577 H 144.627 -1.64654 3.34245 0
M  V30 1578 H 144.74 -0.41973 4.77258 0
M  V30 1579 H 143.104 -0.319367 2.5269 0
M  V30 1580 H 143.887 1.20383 3.21501 0
M  V30 1581 N 146.332 -1.57332 0.0918853 0
M  V30 1582 C 147.58 -1.93853 -0.571446 0
M  V30 1583 C 147.901 -0.974212 -1.6892 0
M  V30 1584 O 147.171 -0.0257254 -1.95883 0
M  V30 1585 H 145.751 -0.715666 -0.214082 0
M  V30 1586 H 148.413 -1.94287 0.154464 0
M  V30 1587 H 147.509 -2.96191 -0.983729 0
M  V30 1588 N 147.81 0.181792 -1.56548 0
M  V30 1589 C 149.058 0.89832 -1.81038 0
M  V30 1590 C 149.379 1.83232 -0.667164 0
M  V30 1591 O 148.649 1.93372 0.313673 0
M  V30 1592 H 147.229 0.33471 -0.667816 0
M  V30 1593 H 149.891 0.184116 -1.94028 0
M  V30 1594 H 148.987 1.4815 -2.74696 0
M  V30 1595 N 149.288 1.51039 0.449983 0
M  V30 1596 C 150.518 1.66627 1.22143 0
M  V30 1597 C 150.926 0.357776 1.85786 0
M  V30 1598 O 150.269 -0.672424 1.70951 0
M  V30 1599 C 150.331 2.71562 2.35573 0
M  V30 1600 C 149.995 4.14526 1.92399 0
M  V30 1601 C 150.992 4.99717 1.43453 0
M  V30 1602 C 148.677 4.60559 2.00475 0
M  V30 1603 C 150.671 6.28998 1.03155 0
M  V30 1604 C 148.358 5.8984 1.59788 0
M  V30 1605 C 149.356 6.73886 1.11208 0
M  V30 1606 O 149.044 8.0075 0.710935 0
M  V30 1607 H 148.776 0.562635 0.374724 0
M  V30 1608 H 151.33 1.98146 0.541036 0
M  V30 1609 H 149.56 2.3533 3.06849 0
M  V30 1610 H 151.249 2.76156 2.97478 0
M  V30 1611 H 152.015 4.65361 1.36618 0
M  V30 1612 H 147.894 3.95273 2.37235 0
M  V30 1613 H 151.438 6.9455 0.651663 0
M  V30 1614 H 147.335 6.23713 1.66289 0
M  V30 1615 H 148.103 8.142 0.837913 0
M  V30 1616 N 150.766 -0.704594 1.40972 0
M  V30 1617 C 152.012 -1.46675 1.40051 0
M  V30 1618 C 152.345 -1.94199 0.00641102 0
M  V30 1619 O 151.62 -1.68916 -0.964235 0
M  V30 1620 C 151.903 -2.68505 2.39952 0
M  V30 1621 C 151.756 -2.26805 3.88432 0
M  V30 1622 C 153.075 -3.70686 2.37233 0
M  V30 1623 H 150.194 -0.532015 0.510028 0
M  V30 1624 H 152.836 -0.803255 1.72185 0
M  V30 1625 H 150.986 -3.25114 2.1268 0
M  V30 1626 H 152.658 -1.75592 4.26574 0
M  V30 1627 H 150.901 -1.58685 4.03734 0
M  V30 1628 H 151.572 -3.14181 4.53866 0
M  V30 1629 H 154.048 -3.23731 2.61415 0
M  V30 1630 H 152.924 -4.53553 3.09162 0
M  V30 1631 H 153.185 -4.19754 1.38777 0
M  V30 1632 N 152.244 -1.26651 -0.937939 0
M  V30 1633 C 153.474 -1.15006 -1.71631 0
M  V30 1634 C 153.882 0.297026 -1.86854 0
M  V30 1635 O 153.225 1.21493 -1.37786 0
M  V30 1636 C 153.287 -1.74984 -3.14039 0
M  V30 1637 C 152.951 -3.24103 -3.2219 0
M  V30 1638 C 153.948 -4.20877 -3.05219 0
M  V30 1639 C 151.633 -3.64625 -3.45476 0
M  V30 1640 C 153.627 -5.56151 -3.11408 0
M  V30 1641 C 151.314 -5.00032 -3.513 0
M  V30 1642 C 152.312 -5.95604 -3.34282 0
M  V30 1643 O 152 -7.28545 -3.3982 0
M  V30 1644 H 151.732 -0.401183 -0.544085 0
M  V30 1645 H 154.286 -1.67832 -1.18413 0
M  V30 1646 H 152.516 -1.16624 -3.68695 0
M  V30 1647 H 154.205 -1.58199 -3.73802 0
M  V30 1648 H 154.971 -3.90908 -2.87081 0
M  V30 1649 H 150.85 -2.90718 -3.57777 0
M  V30 1650 H 154.394 -6.30727 -2.98043 0
M  V30 1651 H 150.291 -5.29659 -3.68959 0
M  V30 1652 H 151.059 -7.3686 -3.56343 0
M  V30 1653 N 153.722 1.14298 -1.08507 0
M  V30 1654 C 154.652 2.21542 -0.737646 0
M  V30 1655 C 155.633 1.67773 0.280377 0
M  V30 1656 O 156.818 1.93616 0.150521 0
M  V30 1657 C 153.948 3.46988 -0.147259 0
M  V30 1658 C 152.902 4.13789 -1.09374 0
M  V30 1659 C 152.228 5.33449 -0.365524 0
M  V30 1660 C 153.528 4.62208 -2.4323 0
M  V30 1661 H 155.222 2.5086 -1.6343 0
M  V30 1662 H 152.768 1.20576 -0.787243 0
M  V30 1663 H 154.721 4.21262 0.107808 0
M  V30 1664 H 153.445 3.17037 0.784538 0
M  V30 1665 H 152.104 3.4147 -1.33393 0
M  V30 1666 H 151.752 4.99759 0.57011 0
M  V30 1667 H 151.452 5.79088 -0.996512 0
M  V30 1668 H 152.976 6.10485 -0.118534 0
M  V30 1669 H 154.39 5.27952 -2.23472 0
M  V30 1670 H 152.787 5.18553 -3.02031 0
M  V30 1671 H 153.857 3.77224 -3.04681 0
M  V30 1672 N 155.201 0.870884 1.31352 0
M  V30 1673 C 156.429 0.49677 2.00848 0
M  V30 1674 C 156.844 -0.910998 1.65367 0
M  V30 1675 O 156.201 -1.59696 0.883374 0
M  V30 1676 C 156.252 0.645308 3.55694 0
M  V30 1677 O 155.973 1.99764 3.89905 0
M  V30 1678 C 157.474 0.272326 4.42463 0
M  V30 1679 H 154.694 0.193462 0.642506 0
M  V30 1680 H 157.238 1.1723 1.67563 0
M  V30 1681 H 155.393 0.0173176 3.87396 0
M  V30 1682 H 155.807 2.00607 4.84621 0
M  V30 1683 H 157.281 0.427208 5.50344 0
M  V30 1684 H 157.758 -0.788587 4.32062 0
M  V30 1685 H 158.364 0.876054 4.1618 0
M  V30 1686 N 156.679 -1.44442 0.630414 0
M  V30 1687 C 157.956 -1.9549 0.0655657 0
M  V30 1688 C 158.336 -1.5724 -1.40851 0
M  V30 1689 O 157.684 -0.846116 -2.12257 0
M  V30 1690 C 157.894 -3.47812 0.287691 0
M  V30 1691 C 159.242 -4.24216 0.180513 0
M  V30 1692 O 160.266 -3.55526 0.219019 0
M  V30 1693 O 159.125 -5.46434 0.0848493 0
M  V30 1694 H 156.219 -0.826688 -0.0227177 0
M  V30 1695 H 158.765 -1.54496 0.702068 0
M  V30 1696 H 157.537 -3.687 1.31056 0
M  V30 1697 H 157.16 -3.95751 -0.382984 0
M  V30 1698 N 158.157 -0.370918 -1.53173 0
M  V30 1699 C 159.406 0.218249 -2.00516 0
M  V30 1700 C 159.719 1.49429 -1.26215 0
M  V30 1701 O 160.925 2.16239 -1.64174 0
M  V30 1702 C 159.381 0.43948 -3.57207 0
M  V30 1703 C 158.989 -0.822244 -4.4039 0
M  V30 1704 C 160.733 0.986012 -4.1289 0
M  V30 1705 C 158.64 -0.570304 -5.88644 0
M  V30 1706 H 157.57 0.0853333 -0.749156 0
M  V30 1707 H 160.221 -0.490483 -1.76823 0
M  V30 1708 H 158.603 1.20961 -3.77074 0
M  V30 1709 H 159.777 -1.59557 -4.32294 0
M  V30 1710 H 158.092 -1.29238 -3.95836 0
M  V30 1711 H 160.689 1.18991 -5.21292 0
M  V30 1712 H 161.032 1.94972 -3.6782 0
M  V30 1713 H 161.565 0.27592 -3.96842 0
M  V30 1714 H 158.304 -1.50449 -6.38001 0
M  V30 1715 H 157.824 0.164427 -5.99575 0
M  V30 1716 H 159.503 -0.19784 -6.46697 0
M  V30 1717 N 159.635 1.57281 -0.100228 0
M  V30 1718 C 160.565 2.17328 0.853857 0
M  V30 1719 C 161.546 1.10804 1.2906 0
M  V30 1720 O 162.731 1.38963 1.35657 0
M  V30 1721 C 159.861 2.75772 2.11109 0
M  V30 1722 C 158.815 3.87713 1.81279 0
M  V30 1723 C 158.141 4.32882 3.13874 0
M  V30 1724 C 159.441 5.10677 1.09574 0
M  V30 1725 H 161.135 2.97305 0.353545 0
M  V30 1726 H 158.681 1.43009 0.168612 0
M  V30 1727 H 160.634 3.16433 2.78296 0
M  V30 1728 H 159.358 1.93057 2.63432 0
M  V30 1729 H 158.017 3.476 1.16489 0
M  V30 1730 H 157.665 3.47051 3.64095 0
M  V30 1731 H 157.365 5.08358 2.94696 0
M  V30 1732 H 158.889 4.7618 3.82211 0
M  V30 1733 H 160.303 5.48474 1.66879 0
M  V30 1734 H 158.7 5.91615 1.00557 0
M  V30 1735 H 159.77 4.84835 0.0793299 0
M  V30 1736 N 161.113 -0.173488 1.56642 0
M  V30 1737 C 162.361 -0.888706 1.81512 0
M  V30 1738 C 162.682 -1.82875 0.676872 0
M  V30 1739 O 161.952 -1.93536 -0.303414 0
M  V30 1740 H 160.532 -0.331164 0.669582 0
M  V30 1741 H 163.194 -0.173823 1.94123 0
M  V30 1742 H 162.29 -1.46691 2.75478 0
M  V30 1743 N 162.591 -1.51276 -0.441967 0
M  V30 1744 C 163.538 -1.72256 -1.53612 0
M  V30 1745 C 164.508 -0.564164 -1.56225 0
M  V30 1746 O 165.693 -0.798074 -1.73307 0
M  V30 1747 C 162.833 -1.84932 -2.91366 0
M  V30 1748 C 161.946 -3.12459 -2.98317 0
M  V30 1749 C 161.081 -3.15758 -4.27166 0
M  V30 1750 C 160.12 -4.37619 -4.27967 0
M  V30 1751 N 159.257 -4.38493 -5.48333 0
M  V30 1752 H 164.097 -2.65654 -1.35026 0
M  V30 1753 H 161.634 -1.31662 -0.656009 0
M  V30 1754 H 163.592 -1.90263 -3.7129 0
M  V30 1755 H 162.222 -0.949461 -3.08521 0
M  V30 1756 H 161.274 -3.1646 -2.11086 0
M  V30 1757 H 162.586 -4.02382 -2.94771 0
M  V30 1758 H 161.74 -3.19979 -5.15459 0
M  V30 1759 H 160.479 -2.23715 -4.33362 0
M  V30 1760 H 159.484 -4.33579 -3.38067 0
M  V30 1761 H 160.709 -5.30921 -4.23438 0
M  V30 1762 H 158.655 -3.49318 -5.55259 0
M  V30 1763 H 158.572 -5.22219 -5.46647 0
M  V30 1764 H 159.84 -4.469 -6.38671 0
M  V30 1765 N 164.069 0.697108 -1.41344 0
M  V30 1766 C 165.48 1.27697 -1.36199 0
M  V30 1767 C 165.831 1.9615 -0.0443463 0
M  V30 1768 O 164.956 1.98689 0.857419 0
M  V30 1769 C 165.551 2.32223 -2.46694 0
M  V30 1770 C 164.11 2.8579 -2.44952 0
M  V30 1771 C 163.257 1.59807 -2.26621 0
M  V30 1772 H 166.208 0.491968 -1.50882 0
M  V30 1773 H 166.229 3.1348 -2.15664 0
M  V30 1774 H 165.741 1.82373 -3.42581 0
M  V30 1775 H 163.842 3.3982 -1.52817 0
M  V30 1776 H 163.955 3.36325 -3.41207 0
M  V30 1777 H 162.319 1.8556 -1.7447 0
M  V30 1778 H 163.102 1.11956 -3.24532 0
M  V30 1779 N 165.547 1.27147 0.931209 0
M  V30 1780 C 166.772 1.16191 1.71797 0
M  V30 1781 C 167.197 -0.278004 1.86034 0
M  V30 1782 O 166.555 -1.20137 1.35782 0
M  V30 1783 C 166.603 1.84673 3.09723 0
M  V30 1784 O 165.707 1.14231 3.96264 0
M  V30 1785 H 165.048 0.404303 0.526721 0
M  V30 1786 H 167.578 1.68152 1.1656 0
M  V30 1787 H 167.588 1.91893 3.60057 0
M  V30 1788 H 166.263 2.89421 2.98677 0
M  V30 1789 H 164.84 1.15056 3.54706 0
M  V30 1790 N 167.025 -1.13721 1.09112 0
M  V30 1791 C 168.271 -1.85198 0.826414 0
M  V30 1792 C 168.604 -1.83129 -0.646319 0
M  V30 1793 O 167.879 -1.2671 -1.47563 0
M  V30 1794 C 168.162 -3.33507 1.35812 0
M  V30 1795 C 168.015 -3.44108 2.89672 0
M  V30 1796 C 169.334 -4.28838 0.989256 0
M  V30 1797 H 166.453 -0.67243 0.301675 0
M  V30 1798 H 169.095 -1.33499 1.35197 0
M  V30 1799 H 167.245 -3.77666 0.911082 0
M  V30 1800 H 168.917 -3.08684 3.428 0
M  V30 1801 H 167.16 -2.85087 3.26967 0
M  V30 1802 H 167.831 -4.48388 3.21951 0
M  V30 1803 H 170.307 -3.92734 1.37475 0
M  V30 1804 H 169.183 -5.31051 1.38838 0
M  V30 1805 H 169.444 -4.4198 -0.102924 0
M  V30 1806 N 168.503 -0.877838 -1.30888 0
M  V30 1807 C 169.433 -0.35534 -2.3078 0
M  V30 1808 C 170.414 0.557994 -1.60687 0
M  V30 1809 O 171.599 0.473355 -1.88343 0
M  V30 1810 C 168.729 0.437221 -3.44537 0
M  V30 1811 C 167.683 -0.383715 -4.26276 0
M  V30 1812 C 167.009 0.535014 -5.32017 0
M  V30 1813 C 168.309 -1.62201 -4.96476 0
M  V30 1814 H 170.003 -1.19007 -2.74732 0
M  V30 1815 H 167.549 -0.573698 -1.32078 0
M  V30 1816 H 169.502 0.813334 -4.13477 0
M  V30 1817 H 168.226 1.30553 -2.99372 0
M  V30 1818 H 166.885 -0.741874 -3.59015 0
M  V30 1819 H 166.533 1.40083 -4.831 0
M  V30 1820 H 166.233 -0.0104211 -5.87599 0
M  V30 1821 H 167.757 0.907799 -6.03814 0
M  V30 1822 H 169.171 -1.31689 -5.5797 0
M  V30 1823 H 167.568 -2.10711 -5.61891 0
M  V30 1824 H 168.638 -2.37044 -4.23011 0
M  V30 1825 N 169.982 1.44106 -0.638065 0
M  V30 1826 C 171.207 2.0685 -0.150916 0
M  V30 1827 C 171.632 1.47417 1.16833 0
M  V30 1828 O 170.99 0.578264 1.71831 0
M  V30 1829 C 171.038 3.60555 -0.05708 0
M  V30 1830 O 170.142 4.00465 0.984972 0
M  V30 1831 H 169.483 0.658151 -0.0879399 0
M  V30 1832 H 172.013 1.84865 -0.876707 0
M  V30 1833 H 172.023 4.07789 0.131232 0
M  V30 1834 H 170.698 4.03193 -1.02021 0
M  V30 1835 H 169.275 3.64849 0.770672 0
M  V30 1836 N 171.46 0.379036 1.52974 0
M  V30 1837 C 172.407 -0.461048 2.26148 0
M  V30 1838 C 173.377 -1.06637 1.27349 0
M  V30 1839 O 174.562 -1.09633 1.56157 0
M  V30 1840 C 171.702 -1.58782 3.06402 0
M  V30 1841 C 170.815 -1.00636 4.20115 0
M  V30 1842 C 169.95 -2.10334 4.87784 0
M  V30 1843 C 168.989 -1.49724 5.93506 0
M  V30 1844 N 168.126 -2.5331 6.54812 0
M  V30 1845 H 172.966 0.169429 2.97518 0
M  V30 1846 H 170.503 0.0953806 1.4679 0
M  V30 1847 H 172.461 -2.25174 3.51215 0
M  V30 1848 H 171.091 -2.18876 2.37261 0
M  V30 1849 H 170.143 -0.232332 3.7969 0
M  V30 1850 H 171.455 -0.523343 4.96047 0
M  V30 1851 H 170.609 -2.84519 5.35849 0
M  V30 1852 H 169.348 -2.61992 4.11353 0
M  V30 1853 H 168.353 -0.740598 5.44789 0
M  V30 1854 H 169.578 -0.988732 6.71864 0
M  V30 1855 H 167.524 -3.04156 5.81227 0
M  V30 1856 H 167.441 -2.09734 7.26325 0
M  V30 1857 H 168.709 -3.27155 7.07524 0
M  V30 1858 N 172.938 -1.57226 0.108567 0
M  V30 1859 C 174.184 -1.95121 -0.552761 0
M  V30 1860 C 174.517 -0.991345 -1.66991 0
M  V30 1861 O 173.792 -0.0267211 -1.94482 0
M  V30 1862 C 174.075 -3.43039 -1.09528 0
M  V30 1863 C 173.928 -4.49797 0.0177332 0
M  V30 1864 C 175.247 -3.92567 -1.98945 0
M  V30 1865 H 172.366 -0.709496 -0.199461 0
M  V30 1866 H 175.008 -1.89126 0.182011 0
M  V30 1867 H 173.158 -3.48279 -1.72146 0
M  V30 1868 H 174.83 -4.56661 0.652584 0
M  V30 1869 H 173.073 -4.284 0.682309 0
M  V30 1870 H 173.744 -5.50528 -0.402919 0
M  V30 1871 H 176.22 -3.89565 -1.46214 0
M  V30 1872 H 175.096 -4.96605 -2.33827 0
M  V30 1873 H 175.357 -3.32648 -2.91201 0
M  V30 1874 N 174.416 0.165178 -1.56732 0
M  V30 1875 C 175.664 0.879068 -1.8198 0
M  V30 1876 C 175.985 1.82514 -0.686561 0
M  V30 1877 O 175.255 1.93694 0.293146 0
M  V30 1878 H 173.835 0.327608 -0.671329 0
M  V30 1879 H 176.497 0.163526 -1.94213 0
M  V30 1880 H 175.593 1.45228 -2.76252 0
M  V30 1881 N 175.894 1.51508 0.433938 0
M  V30 1882 C 176.841 1.73068 1.52696 0
M  V30 1883 C 177.811 0.572441 1.55924 0
M  V30 1884 O 178.996 0.807253 1.72882 0
M  V30 1885 C 176.136 1.86474 2.90381 0
M  V30 1886 C 175.249 3.14037 2.96656 0
M  V30 1887 C 174.384 3.18019 4.25485 0
M  V30 1888 C 173.423 4.39882 4.2564 0
M  V30 1889 N 172.56 4.41394 5.45999 0
M  V30 1890 H 177.4 2.66366 1.33615 0
M  V30 1891 H 174.937 1.32008 0.649018 0
M  V30 1892 H 176.895 1.92229 3.70275 0
M  V30 1893 H 175.525 0.965809 3.08013 0
M  V30 1894 H 174.577 3.17575 2.09404 0
M  V30 1895 H 175.889 4.0394 2.92633 0
M  V30 1896 H 175.043 3.22708 5.13755 0
M  V30 1897 H 173.782 2.2601 4.3217 0
M  V30 1898 H 172.787 4.35366 3.35763 0
M  V30 1899 H 174.012 5.33159 4.20617 0
M  V30 1900 H 171.958 3.52258 5.53399 0
M  V30 1901 H 171.875 5.25111 5.4387 0
M  V30 1902 H 173.143 4.50281 6.36292 0
M  V30 1903 N 177.372 -0.689602 1.41712 0
M  V30 1904 C 178.302 -1.81577 1.46806 0
M  V30 1905 C 179.283 -1.66945 0.326105 0
M  V30 1906 O 180.468 -1.86588 0.538377 0
M  V30 1907 C 177.598 -3.19762 1.35535 0
M  V30 1908 C 176.552 -3.49107 2.47605 0
M  V30 1909 C 175.878 -4.86711 2.21397 0
M  V30 1910 C 177.178 -3.47483 3.89939 0
M  V30 1911 H 178.872 -1.7757 2.41058 0
M  V30 1912 H 176.418 -0.852887 1.16025 0
M  V30 1913 H 178.371 -3.98263 1.3771 0
M  V30 1914 H 177.095 -3.24409 0.377708 0
M  V30 1915 H 175.754 -2.72959 2.44722 0
M  V30 1916 H 175.402 -4.8799 1.21961 0
M  V30 1917 H 175.102 -5.0731 2.96497 0
M  V30 1918 H 176.626 -5.67515 2.25297 0
M  V30 1919 H 178.04 -4.1598 3.94505 0
M  V30 1920 H 176.437 -3.79615 4.64771 0
M  V30 1921 H 177.507 -2.46341 4.17665 0
M  V30 1922 N 178.85 -1.27639 -0.924453 0
M  V30 1923 C 180.097 -1.14167 -1.67249 0
M  V30 1924 C 180.425 0.311863 -1.91984 0
M  V30 1925 O 179.68 1.24425 -1.51053 0
M  V30 1926 C 179.979 -1.87407 -3.04325 0
M  V30 1927 C 179.645 -3.37249 -2.99289 0
M  V30 1928 C 178.307 -3.7812 -2.97622 0
M  V30 1929 C 180.659 -4.32845 -2.90336 0
M  V30 1930 C 177.987 -5.12944 -2.8479 0
M  V30 1931 C 180.339 -5.6773 -2.79045 0
M  V30 1932 C 179.003 -6.07889 -2.7573 0
M  V30 1933 H 178.273 -0.417766 -0.612007 0
M  V30 1934 H 180.92 -1.58286 -1.07786 0
M  V30 1935 H 179.225 -1.35805 -3.67511 0
M  V30 1936 H 180.922 -1.74408 -3.61086 0
M  V30 1937 H 177.512 -3.04748 -3.01374 0
M  V30 1938 H 181.696 -4.02239 -2.90719 0
M  V30 1939 H 176.952 -5.432 -2.80612 0
M  V30 1940 H 181.126 -6.41472 -2.71083 0
M  V30 1941 H 178.753 -7.12314 -2.65544 0
M  V30 1942 N 180.328 1.1314 -1.09713 0
M  V30 1943 C 181.291 2.16831 -0.742751 0
M  V30 1944 C 182.291 1.59159 0.229129 0
M  V30 1945 O 183.481 1.74199 0.00693237 0
M  V30 1946 C 180.613 3.40756 -0.0989168 0
M  V30 1947 H 181.806 2.49695 -1.66109 0
M  V30 1948 H 179.359 1.2802 -0.896699 0
M  V30 1949 H 180.094 3.13485 0.830514 0
M  V30 1950 H 179.879 3.83888 -0.798265 0
M  V30 1951 H 181.369 4.17386 0.133524 0
M  V30 1952 N 181.806 0.884767 1.30421 0
M  V30 1953 C 183.031 0.517288 2.00845 0
M  V30 1954 C 183.456 -0.886779 1.65885 0
M  V30 1955 O 182.814 -1.58768 0.875354 0
M  V30 1956 C 182.862 0.698994 3.5376 0
M  V30 1957 O 181.966 -0.255208 4.1161 0
M  V30 1958 H 181.307 0.203872 0.631927 0
M  V30 1959 H 183.837 1.19225 1.66272 0
M  V30 1960 H 183.847 0.597912 4.03595 0
M  V30 1961 H 182.522 1.72271 3.78544 0
M  V30 1962 H 181.099 -0.10784 3.72744 0
M  V30 1963 N 183.284 -1.43765 0.645699 0
M  V30 1964 C 184.53 -2.02197 0.156271 0
M  V30 1965 C 184.863 -1.50776 -1.22393 0
M  V30 1966 O 184.138 -0.697771 -1.81553 0
M  V30 1967 C 184.421 -3.59749 0.158872 0
M  V30 1968 C 184.274 -4.21419 1.57245 0
M  V30 1969 C 185.593 -4.37149 -0.50879 0
M  V30 1970 H 182.712 -0.734694 0.0582602 0
M  V30 1971 H 185.354 -1.71157 0.824951 0
M  V30 1972 H 183.504 -3.86325 -0.410525 0
M  V30 1973 H 185.176 -4.059 2.19186 0
M  V30 1974 H 183.419 -3.78356 2.122 0
M  V30 1975 H 184.09 -5.30482 1.52619 0
M  V30 1976 H 186.566 -4.16093 -0.024412 0
M  V30 1977 H 185.442 -5.4683 -0.476213 0
M  V30 1978 H 185.703 -4.12839 -1.58165 0
M  V30 1979 N 184.763 -0.387143 -1.52771 0
M  V30 1980 C 186.01 0.195735 -2.01552 0
M  V30 1981 C 186.338 1.46995 -1.27369 0
M  V30 1982 O 185.593 1.92325 -0.361879 0
M  V30 1983 C 185.892 0.512209 -3.53711 0
M  V30 1984 C 185.558 -0.670202 -4.45891 0
M  V30 1985 C 184.22 -0.994586 -4.70809 0
M  V30 1986 C 186.572 -1.46134 -5.00294 0
M  V30 1987 C 183.9 -2.11169 -5.4738 0
M  V30 1988 C 186.252 -2.56903 -5.78086 0
M  V30 1989 C 184.916 -2.89852 -6.01284 0
M  V30 1990 H 184.186 0.0716246 -0.73753 0
M  V30 1991 H 186.833 -0.524046 -1.8419 0
M  V30 1992 H 185.138 1.31329 -3.69134 0
M  V30 1993 H 186.835 0.975804 -3.88946 0
M  V30 1994 H 183.425 -0.407366 -4.2666 0
M  V30 1995 H 187.609 -1.22397 -4.80971 0
M  V30 1996 H 182.865 -2.3707 -5.63567 0
M  V30 1997 H 187.039 -3.18608 -6.19243 0
M  V30 1998 H 184.666 -3.76533 -6.60399 0
M  V30 1999 N 186.241 1.57166 -0.116904 0
M  V30 2000 C 187.204 2.14039 0.819742 0
M  V30 2001 C 188.204 1.07477 1.19605 0
M  V30 2002 O 189.394 1.33263 1.1219 0
M  V30 2003 C 186.526 2.67891 2.10826 0
M  V30 2004 H 187.719 2.98128 0.325511 0
M  V30 2005 H 185.272 1.55739 0.132312 0
M  V30 2006 H 186.007 1.87384 2.64685 0
M  V30 2007 H 185.792 3.45823 1.84793 0
M  V30 2008 H 187.282 3.11809 2.77785 0
M  V30 2009 N 187.719 -0.156864 1.56817 0
M  V30 2010 C 188.629 -1.2136 2.00771 0
M  V30 2011 C 189.645 -1.47598 0.921459 0
M  V30 2012 O 190.821 -1.59462 1.2302 0
M  V30 2013 C 187.886 -2.52943 2.37109 0
M  V30 2014 C 186.947 -2.34439 3.59634 0
M  V30 2015 C 186.18 -3.59748 3.94229 0
M  V30 2016 O 186.403 -4.65526 3.29609 0
M  V30 2017 O 185.337 -3.52998 4.8752 0
M  V30 2018 H 189.163 -0.870468 2.90958 0
M  V30 2019 H 186.748 -0.36484 1.44877 0
M  V30 2020 H 188.63 -3.30538 2.61386 0
M  V30 2021 H 187.305 -2.86806 1.5008 0
M  V30 2022 H 186.212 -1.54828 3.40557 0
M  V30 2023 H 187.545 -2.05496 4.4725 0
M  V30 2024 N 189.197 -1.51736 -0.425897 0
M  V30 2025 C 190.613 -1.40166 -0.76326 0
M  V30 2026 C 190.813 -0.492962 -1.95377 0
M  V30 2027 O 189.869 0.0475815 -2.52455 0
M  V30 2028 C 191.182 -2.82403 -1.03291 0
M  V30 2029 C 192.73 -2.91632 -1.13665 0
M  V30 2030 C 193.205 -4.34801 -1.43916 0
M  V30 2031 N 194.696 -4.3796 -1.50816 0
M  V30 2032 C 195.431 -5.4578 -1.75817 0
M  V30 2033 N 194.927 -6.63744 -1.98534 0
M  V30 2034 N 196.72 -5.33274 -1.77694 0
M  V30 2035 H 188.871 -2.09361 0.358 0
M  V30 2036 H 191.134 -0.942941 0.0978094 0
M  V30 2037 H 190.84 -3.50943 -0.230696 0
M  V30 2038 H 190.714 -3.22428 -1.95754 0
M  V30 2039 H 193.101 -2.23284 -1.92947 0
M  V30 2040 H 193.182 -2.55088 -0.190756 0
M  V30 2041 H 192.826 -5.03703 -0.65157 0
M  V30 2042 H 192.756 -4.68868 -2.39729 0
M  V30 2043 H 195.247 -3.52919 -1.35118 0
M  V30 2044 H 195.56 -7.41704 -2.17013 0
M  V30 2045 H 193.905 -6.66839 -1.95832 0
M  V30 2046 H 197.096 -4.40098 -1.59473 0
M  V30 2047 H 197.269 -6.1738 -1.9684 0
M  V30 2048 N 190.675 0.682077 -1.42076 0
M  V30 2049 C 191.585 1.82535 -1.47371 0
M  V30 2050 C 192.601 1.7017 -0.363079 0
M  V30 2051 O 193.777 1.91848 -0.612875 0
M  V30 2052 C 190.842 3.18624 -1.36674 0
M  V30 2053 C 189.903 3.42999 -2.58167 0
M  V30 2054 C 189.136 4.72595 -2.4797 0
M  V30 2055 O 189.359 5.50006 -1.5116 0
M  V30 2056 O 188.293 4.98054 -3.37974 0
M  V30 2057 H 192.119 1.81023 -2.43853 0
M  V30 2058 H 189.704 0.836887 -1.2376 0
M  V30 2059 H 191.586 3.99847 -1.33043 0
M  V30 2060 H 190.261 3.20789 -0.433138 0
M  V30 2061 H 189.168 2.61653 -2.67373 0
M  V30 2062 H 190.501 3.45659 -3.50401 0
M  V30 2063 N 192.153 1.28127 0.917671 0
M  V30 2064 C 193.402 1.14432 1.66097 0
M  V30 2065 C 193.715 -0.307247 1.93172 0
M  V30 2066 O 194.921 -0.565259 2.65551 0
M  V30 2067 C 193.377 2.00015 2.99202 0
M  V30 2068 C 192.985 3.49889 2.79789 0
M  V30 2069 C 194.729 1.94996 3.77064 0
M  V30 2070 C 192.636 4.27636 4.08511 0
M  V30 2071 H 191.566 0.424662 0.62304 0
M  V30 2072 H 194.217 1.52628 1.01868 0
M  V30 2073 H 192.599 1.54672 3.64544 0
M  V30 2074 H 193.773 4.03162 2.23152 0
M  V30 2075 H 192.088 3.56392 2.15345 0
M  V30 2076 H 194.685 2.50354 4.72469 0
M  V30 2077 H 195.028 0.925819 4.05875 0
M  V30 2078 H 195.561 2.38287 3.18534 0
M  V30 2079 H 192.3 5.30615 3.84874 0
M  V30 2080 H 191.82 3.79137 4.64774 0
M  V30 2081 H 193.499 4.37346 4.76799 0
M  V30 2082 N 193.631 -1.12557 1.10312 0
M  V30 2083 C 194.908 -1.80363 0.756878 0
M  V30 2084 C 195.288 -1.97067 -0.756824 0
M  V30 2085 O 194.636 -1.54601 -1.68259 0
M  V30 2086 C 194.846 -3.14812 1.50647 0
M  V30 2087 C 196.194 -3.90029 1.67817 0
M  V30 2088 O 197.218 -3.24464 1.46974 0
M  V30 2089 O 196.077 -5.07652 2.02365 0
M  V30 2090 H 193.171 -0.780667 0.272926 0
M  V30 2091 H 195.717 -1.19404 1.20586 0
M  V30 2092 H 194.489 -2.97936 2.53672 0
M  V30 2093 H 194.112 -3.83478 1.05026 0
M  V30 2094 N 195.109 -0.891671 -1.2995 0
M  V30 2095 C 196.355 -0.514261 -1.96171 0
M  V30 2096 C 196.688 0.935506 -1.70182 0
M  V30 2097 O 195.963 1.66204 -1.01028 0
M  V30 2098 C 196.246 -0.797719 -3.51153 0
M  V30 2099 C 196.099 -2.2986 -3.86632 0
M  V30 2100 C 197.418 -0.278749 -4.39216 0
M  V30 2101 H 194.537 -0.188314 -0.712535 0
M  V30 2102 H 197.179 -1.11689 -1.53706 0
M  V30 2103 H 195.329 -0.284826 -3.87455 0
M  V30 2104 H 197.001 -2.88042 -3.60319 0
M  V30 2105 H 195.244 -2.76257 -3.34462 0
M  V30 2106 H 195.915 -2.44753 -4.94773 0
M  V30 2107 H 198.391 -0.717825 -4.09862 0
M  V30 2108 H 197.267 -0.506353 -5.46559 0
M  V30 2109 H 197.528 0.820266 -4.34424 0
M  V30 2110 N 196.587 1.43421 -0.653314 0
M  V30 2111 C 197.833 2.02111 -0.166992 0
M  V30 2112 C 198.166 1.51423 1.21592 0
M  V30 2113 O 197.441 0.707389 1.8118 0
M  V30 2114 C 197.724 3.5966 -0.177948 0
M  V30 2115 C 197.577 4.20579 -1.59478 0
M  V30 2116 C 198.896 4.37413 0.4856 0
M  V30 2117 H 196.015 0.734374 -0.0621557 0
M  V30 2118 H 198.657 1.70717 -0.834016 0
M  V30 2119 H 196.807 3.86537 0.390032 0
M  V30 2120 H 198.479 4.04732 -2.21336 0
M  V30 2121 H 196.722 3.77226 -2.14204 0
M  V30 2122 H 197.393 5.29665 -1.5543 0
M  V30 2123 H 199.869 4.161 0.00234528 0
M  V30 2124 H 198.745 5.47075 0.447207 0
M  V30 2125 H 199.006 4.13672 1.55974 0
M  V30 2126 N 198.065 0.39524 1.52563 0
M  V30 2127 C 198.998 -0.4813 2.23067 0
M  V30 2128 C 199.976 -1.05927 1.23362 0
M  V30 2129 O 201.16 -1.10979 1.52368 0
M  V30 2130 C 198.287 -1.66676 2.9485 0
M  V30 2131 C 197.333 -1.21348 4.08873 0
M  V30 2132 S 198.166 -0.190102 5.35162 0
M  V30 2133 C 199.322 -1.38121 6.1047 0
M  V30 2134 H 199.555 0.117381 2.97068 0
M  V30 2135 H 197.088 0.179458 1.53354 0
M  V30 2136 H 199.046 -2.3466 3.36816 0
M  V30 2137 H 197.707 -2.23676 2.20518 0
M  V30 2138 H 196.9 -2.09877 4.58222 0
M  V30 2139 H 196.502 -0.612486 3.68951 0
M  V30 2140 H 198.794 -2.30726 6.37002 0
M  V30 2141 H 199.737 -0.928521 7.01986 0
M  V30 2142 H 200.145 -1.60071 5.41329 0
M  V30 2143 N 199.544 -1.57102 0.125237 0
M  V30 2144 C 200.772 -1.99761 -0.538797 0
M  V30 2145 C 201.187 -1.00503 -1.59827 0
M  V30 2146 O 200.544 0.00119474 -1.825 0
M  V30 2147 C 200.595 -3.42408 -1.15927 0
M  V30 2148 O 200.316 -4.37869 -0.142143 0
M  V30 2149 C 201.817 -4.00232 -1.90602 0
M  V30 2150 H 199.037 -0.655772 -0.14214 0
M  V30 2151 H 201.581 -2.03383 0.213413 0
M  V30 2152 H 199.736 -3.39706 -1.86223 0
M  V30 2153 H 200.15 -5.21128 -0.593775 0
M  V30 2154 H 201.624 -5.02105 -2.29335 0
M  V30 2155 H 202.101 -3.39721 -2.78363 0
M  V30 2156 H 202.707 -4.06499 -1.25055 0
M  V30 2157 N 201.022 0.148545 -1.56898 0
M  V30 2158 C 202.268 0.862694 -1.83536 0
M  V30 2159 C 202.601 1.80889 -0.706604 0
M  V30 2160 O 201.876 1.92328 0.289885 0
M  V30 2161 C 202.159 1.63853 -3.20662 0
M  V30 2162 C 202.012 0.713925 -4.44098 0
M  V30 2163 C 203.331 2.60133 -3.54991 0
M  V30 2164 H 200.45 0.312179 -0.667618 0
M  V30 2165 H 203.092 0.127953 -1.89569 0
M  V30 2166 H 201.242 2.26489 -3.1565 0
M  V30 2167 H 202.914 0.098686 -4.61194 0
M  V30 2168 H 201.157 0.0234019 -4.33794 0
M  V30 2169 H 201.828 1.29278 -5.36648 0
M  V30 2170 H 204.304 2.07616 -3.60603 0
M  V30 2171 H 203.18 3.11468 -4.51972 0
M  V30 2172 H 203.441 3.41417 -2.80868 0
M  V30 2173 N 202.5 1.5196 0.417844 0
M  V30 2174 C 203.463 1.74065 1.49111 0
M  V30 2175 C 204.463 0.610537 1.48758 0
M  V30 2176 O 205.653 0.87832 1.50437 0
M  V30 2177 C 202.785 1.81502 2.88565 0
M  V30 2178 H 203.978 2.69869 1.30807 0
M  V30 2179 H 201.531 1.42244 0.647785 0
M  V30 2180 H 202.266 0.875813 3.1225 0
M  V30 2181 H 202.051 2.63651 2.90225 0
M  V30 2182 H 203.541 2.00376 3.66387 0
M  V30 2183 N 203.978 -0.674533 1.42435 0
M  V30 2184 C 205.206 -1.46283 1.46317 0
M  V30 2185 C 205.621 -1.88653 0.0745836 0
M  V30 2186 O 204.978 -1.58151 -0.91074 0
M  V30 2187 C 205.029 -2.71178 2.3905 0
M  V30 2188 O 204.75 -2.30586 3.72507 0
M  V30 2189 C 206.251 -3.64738 2.51955 0
M  V30 2190 H 203.471 -0.450104 0.497642 0
M  V30 2191 H 206.015 -0.828792 1.86953 0
M  V30 2192 H 204.17 -3.3077 2.01667 0
M  V30 2193 H 204.584 -3.11241 4.22172 0
M  V30 2194 H 206.058 -4.49096 3.20962 0
M  V30 2195 H 206.535 -4.10656 1.55752 0
M  V30 2196 H 207.141 -3.11038 2.90061 0
M  V30 2197 N 205.456 -1.28612 -0.910864 0
M  V30 2198 C 206.403 -1.12786 -2.01365 0
M  V30 2199 C 207.373 -0.024201 -1.66082 0
M  V30 2200 O 208.558 -0.189667 -1.89855 0
M  V30 2201 C 205.698 -0.798743 -3.35729 0
M  V30 2202 C 204.811 -1.98173 -3.83864 0
M  V30 2203 C 203.946 -1.59298 -5.06752 0
M  V30 2204 C 202.985 -2.74245 -5.47226 0
M  V30 2205 N 202.122 -2.35842 -6.61304 0
M  V30 2206 H 206.962 -2.07142 -2.14234 0
M  V30 2207 H 204.499 -1.03093 -1.0493 0
M  V30 2208 H 206.457 -0.588662 -4.13026 0
M  V30 2209 H 205.087 0.10789 -3.2262 0
M  V30 2210 H 204.139 -2.30386 -3.02699 0
M  V30 2211 H 205.451 -2.84343 -4.09818 0
M  V30 2212 H 204.605 -1.34513 -5.916 0
M  V30 2213 H 203.344 -0.702618 -4.82612 0
M  V30 2214 H 202.349 -2.99725 -4.60918 0
M  V30 2215 H 203.574 -3.63928 -5.73353 0
M  V30 2216 H 201.52 -1.49279 -6.38789 0
M  V30 2217 H 201.437 -3.15546 -6.86998 0
M  V30 2218 H 202.705 -2.14348 -7.4945 0
M  V30 2219 N 206.934 1.1197 -1.10907 0
M  V30 2220 C 208.182 1.83225 -0.852819 0
M  V30 2221 C 208.503 1.84769 0.623341 0
M  V30 2222 O 207.773 1.3143 1.45269 0
M  V30 2223 H 206.353 0.67849 -0.312507 0
M  V30 2224 H 209.015 1.3556 -1.40033 0
M  V30 2225 H 208.111 2.87265 -1.22005 0
M  V30 2226 N 208.412 0.89855 1.29475 0
M  V30 2227 C 209.661 0.519863 1.94885 0
M  V30 2228 C 209.974 -0.9383 1.71625 0
M  V30 2229 O 211.18 -1.42445 2.31131 0
M  V30 2230 C 209.636 0.878836 3.49005 0
M  V30 2231 C 209.244 2.35569 3.81066 0
M  V30 2232 C 210.988 0.570004 4.20656 0
M  V30 2233 C 208.895 2.65558 5.28425 0
M  V30 2234 H 207.825 0.190692 0.729488 0
M  V30 2235 H 210.476 1.09539 1.47219 0
M  V30 2236 H 208.858 0.232253 3.95318 0
M  V30 2237 H 210.032 3.04773 3.45616 0
M  V30 2238 H 208.347 2.63343 3.22552 0
M  V30 2239 H 210.944 0.770925 5.29113 0
M  V30 2240 H 211.287 -0.491404 4.1339 0
M  V30 2241 H 211.82 1.17438 3.8007 0
M  V30 2242 H 208.559 3.70493 5.40754 0
M  V30 2243 H 208.079 2.00977 5.65127 0
M  V30 2244 H 209.758 2.51765 5.96006 0
M  V30 2245 N 209.89 -1.43072 0.660911 0
M  V30 2246 C 211.301 -1.84932 0.256348 0
M  V30 2247 C 211.652 -1.55325 -1.19868 0
M  V30 2248 O 210.777 -1.00607 -1.91591 0
M  V30 2249 C 211.372 -3.35684 0.458475 0
M  V30 2250 C 209.931 -3.76245 0.108161 0
M  V30 2251 C 209.078 -2.66749 0.757641 0
M  V30 2252 H 212.029 -1.33116 0.864051 0
M  V30 2253 H 212.05 -3.79365 -0.293683 0
M  V30 2254 H 211.562 -3.572 1.51755 0
M  V30 2255 H 209.663 -3.60338 -0.948014 0
M  V30 2256 H 209.776 -4.76058 0.538992 0
M  V30 2257 H 208.14 -2.53989 0.190185 0
M  V30 2258 H 208.923 -2.91092 1.81989 0
M  V30 2259 N 211.368 -0.403325 -1.52352 0
M  V30 2260 C 212.298 0.416205 -2.29761 0
M  V30 2261 C 213.279 1.05123 -1.33728 0
M  V30 2262 O 214.464 1.06134 -1.62632 0
M  V30 2263 C 211.594 1.53624 -3.11475 0
M  V30 2264 C 210.548 1.02653 -4.15507 0
M  V30 2265 C 209.874 2.23971 -4.85532 0
M  V30 2266 C 211.174 0.08463 -5.22231 0
M  V30 2267 H 212.868 -0.229701 -2.98518 0
M  V30 2268 H 210.414 -0.111913 -1.43564 0
M  V30 2269 H 212.367 2.1165 -3.64393 0
M  V30 2270 H 211.091 2.20994 -2.40477 0
M  V30 2271 H 209.75 0.46871 -3.63591 0
M  V30 2272 H 209.398 2.89883 -4.11068 0
M  V30 2273 H 209.098 1.90521 -5.55856 0
M  V30 2274 H 210.622 2.82614 -5.41259 0
M  V30 2275 H 212.036 0.573509 -5.70424 0
M  V30 2276 H 210.433 -0.160783 -5.99885 0
M  V30 2277 H 211.503 -0.86237 -4.7717 0
M  V30 2278 N 212.846 1.57033 -0.133567 0
M  V30 2279 C 213.809 2.14897 0.796995 0
M  V30 2280 C 214.809 1.0874 1.18458 0
M  V30 2281 O 215.999 1.34446 1.1077 0
M  V30 2282 C 213.131 2.70112 2.07973 0
M  V30 2283 H 214.324 2.98457 0.293873 0
M  V30 2284 H 211.877 1.55871 0.115787 0
M  V30 2285 H 212.612 1.9018 2.62682 0
M  V30 2286 H 212.397 3.47764 1.81115 0
M  V30 2287 H 213.887 3.14738 2.74462 0
M  V30 2288 N 214.325 -0.140222 1.56975 0
M  V30 2289 C 215.555 -0.865181 1.87612 0
M  V30 2290 C 215.963 -1.74942 0.72055 0
M  V30 2291 O 215.306 -1.80917 -0.318561 0
M  V30 2292 C 215.368 -1.76782 3.13031 0
M  V30 2293 C 215.032 -1.06005 4.44536 0
M  V30 2294 C 216.029 -0.410768 5.18275 0
M  V30 2295 C 213.714 -1.04754 4.91255 0
M  V30 2296 C 215.708 0.241572 6.36942 0
M  V30 2297 C 213.395 -0.391394 6.09845 0
M  V30 2298 C 214.393 0.252029 6.82535 0
M  V30 2299 O 214.081 0.897757 7.98871 0
M  V30 2300 H 213.813 -0.255188 0.625983 0
M  V30 2301 H 216.367 -0.135653 2.04952 0
M  V30 2302 H 214.597 -2.53846 2.91718 0
M  V30 2303 H 216.286 -2.36533 3.29859 0
M  V30 2304 H 217.052 -0.412195 4.83245 0
M  V30 2305 H 212.931 -1.53777 4.34596 0
M  V30 2306 H 216.475 0.744375 6.93617 0
M  V30 2307 H 212.372 -0.387656 6.44335 0
M  V30 2308 H 213.14 0.800102 8.1458 0
M  V30 2309 N 215.803 -1.52179 -0.40978 0
M  V30 2310 C 216.766 -1.74853 -1.48186 0
M  V30 2311 C 217.766 -0.618417 -1.48433 0
M  V30 2312 O 218.956 -0.886286 -1.49969 0
M  V30 2313 C 216.088 -1.8303 -2.87598 0
M  V30 2314 H 217.281 -2.70559 -1.29374 0
M  V30 2315 H 214.834 -1.42586 -0.640233 0
M  V30 2316 H 215.569 -0.89236 -3.11781 0
M  V30 2317 H 215.354 -2.65187 -2.88822 0
M  V30 2318 H 216.844 -2.02316 -3.65319 0
M  V30 2319 N 217.281 0.66697 -1.42791 0
M  V30 2320 C 218.244 1.76211 -1.46568 0
M  V30 2321 C 219.244 1.56896 -0.352196 0
M  V30 2322 O 220.434 1.63044 -0.613364 0
M  V30 2323 C 217.566 3.14935 -1.30494 0
M  V30 2324 H 218.759 1.74247 -2.44086 0
M  V30 2325 H 216.312 0.877342 -1.29354 0
M  V30 2326 H 217.047 3.2252 -0.339301 0
M  V30 2327 H 216.832 3.30359 -2.11199 0
M  V30 2328 H 218.322 3.94821 -1.36038 0
M  V30 2329 N 218.759 1.29093 0.90403 0
M  V30 2330 C 219.722 1.1386 1.98919 0
M  V30 2331 C 220.722 0.0753457 1.60623 0
M  V30 2332 O 221.912 0.321931 1.71199 0
M  V30 2333 C 219.044 0.740198 3.32767 0
M  V30 2334 H 220.237 2.10246 2.13861 0
M  V30 2335 H 217.79 1.12218 1.08797 0
M  V30 2336 H 218.525 -0.223997 3.23525 0
M  V30 2337 H 218.31 1.50838 3.61926 0
M  V30 2338 H 219.8 0.656546 4.12407 0
M  V30 2339 N 220.237 -1.11381 1.11499 0
M  V30 2340 C 221.462 -1.87475 0.887019 0
M  V30 2341 C 221.887 -1.79639 -0.557796 0
M  V30 2342 O 221.245 -1.15924 -1.39396 0
M  V30 2343 C 221.293 -3.34213 1.35403 0
M  V30 2344 O 220.397 -4.0903 0.526146 0
M  V30 2345 H 219.738 -0.582099 0.319463 0
M  V30 2346 H 222.268 -1.40785 1.48461 0
M  V30 2347 H 222.278 -3.8506 1.34881 0
M  V30 2348 H 220.953 -3.39232 2.40612 0
M  V30 2349 H 219.53 -3.68082 0.597522 0
M  V30 2350 N 221.715 -0.905404 -1.28997 0
M  V30 2351 C 222.945 -0.549049 -1.99171 0
M  V30 2352 C 223.353 0.87203 -1.67906 0
M  V30 2353 O 222.696 1.58796 -0.923561 0
M  V30 2354 C 222.758 -0.668306 -3.53234 0
M  V30 2355 C 222.422 -2.0574 -4.08069 0
M  V30 2356 C 223.419 -3.0292 -4.22534 0
M  V30 2357 C 221.104 -2.36833 -4.42962 0
M  V30 2358 C 223.098 -4.29314 -4.71135 0
M  V30 2359 C 220.785 -3.63467 -4.91258 0
M  V30 2360 C 221.783 -4.59522 -5.053 0
M  V30 2361 O 221.471 -5.83907 -5.52546 0
M  V30 2362 H 221.203 -0.208784 -0.64295 0
M  V30 2363 H 223.757 -1.21836 -1.65363 0
M  V30 2364 H 221.987 0.0580547 -3.86656 0
M  V30 2365 H 223.676 -0.320273 -4.04634 0
M  V30 2366 H 224.442 -2.80216 -3.95859 0
M  V30 2367 H 220.321 -1.62824 -4.31288 0
M  V30 2368 H 223.865 -5.04293 -4.8201 0
M  V30 2369 H 219.762 -3.86 -5.17372 0
M  V30 2370 H 220.53 -5.86578 -5.70849 0
M  V30 2371 N 223.193 1.4272 -0.668489 0
M  V30 2372 C 224.123 2.335 -0.000100175 0
M  V30 2373 C 225.104 1.50328 0.795964 0
M  V30 2374 O 226.289 1.78949 0.754385 0
M  V30 2375 C 223.419 3.33874 0.956302 0
M  V30 2376 C 222.373 4.27152 0.269278 0
M  V30 2377 C 221.699 5.17684 1.33818 0
M  V30 2378 C 222.999 5.15373 -0.847805 0
M  V30 2379 H 224.693 2.89639 -0.758244 0
M  V30 2380 H 222.239 1.39269 -0.366079 0
M  V30 2381 H 224.192 3.9629 1.43292 0
M  V30 2382 H 222.916 2.76025 1.74579 0
M  V30 2383 H 221.575 3.66123 -0.187042 0
M  V30 2384 H 221.223 4.56165 2.1195 0
M  V30 2385 H 220.923 5.80918 0.883659 0
M  V30 2386 H 222.447 5.82974 1.81586 0
M  V30 2387 H 223.861 5.7151 -0.452681 0
M  V30 2388 H 222.258 5.87407 -1.22773 0
M  V30 2389 H 223.328 4.5415 -1.69929 0
M  V30 2390 N 224.671 0.411399 1.52136 0
M  V30 2391 C 225.619 -0.427633 2.28635 0
M  V30 2392 C 226.613 -1.04383 1.33419 0
M  V30 2393 O 227.819 -0.981772 1.50868 0
M  V30 2394 H 224.194 -0.156689 0.735495 0
M  V30 2395 H 226.165 0.238761 2.97443 0
M  V30 2396 C 224.914 -1.53082 3.12188 0
M  V30 2397 H 224.237 -1.06601 3.85326 0
M  V30 2398 H 225.677 -2.09167 3.68816 0
M  V30 2399 C 224.136 -2.49946 2.25895 0
M  V30 2400 O 224.666 -3.53884 1.90076 0
M  V30 2401 N 222.872 -2.2021 1.8962 0
M  V30 2402 H 222.419 -1.35719 2.18948 0
M  V30 2403 H 222.377 -2.85266 1.32176 0
M  V30 2404 N 226.149 -1.5696 0.141893 0
M  V30 2405 C 227.395 -1.9625 -0.511248 0
M  V30 2406 C 227.728 -1.02654 -1.64851 0
M  V30 2407 O 227.003 -0.0679676 -1.94381 0
M  V30 2408 C 227.286 -3.45285 -1.02227 0
M  V30 2409 C 227.139 -4.49658 0.113138 0
M  V30 2410 C 228.458 -3.96698 -1.90574 0
M  V30 2411 H 225.577 -0.713567 -0.184367 0
M  V30 2412 H 228.219 -1.88698 0.222087 0
M  V30 2413 H 226.369 -3.51852 -1.64719 0
M  V30 2414 H 228.041 -4.55174 0.749302 0
M  V30 2415 H 226.284 -4.26857 0.773026 0
M  V30 2416 H 226.955 -5.51258 -0.286053 0
M  V30 2417 H 229.431 -3.92578 -1.37918 0
M  V30 2418 H 228.307 -5.01453 -2.2324 0
M  V30 2419 H 228.568 -3.3875 -2.84079 0
M  V30 2420 N 227.627 0.131896 -1.57047 0
M  V30 2421 C 229.038 0.690407 -1.73465 0
M  V30 2422 C 229.389 1.8094 -0.758629 0
M  V30 2423 O 228.514 2.16282 0.0713813 0
M  V30 2424 C 229.109 1.25916 -3.14532 0
M  V30 2425 C 227.668 1.76409 -3.32501 0
M  V30 2426 C 226.815 0.658579 -2.69366 0
M  V30 2427 H 229.766 -0.0939144 -1.58422 0
M  V30 2428 H 229.787 2.12892 -3.15369 0
M  V30 2429 H 229.299 0.444515 -3.85546 0
M  V30 2430 H 227.4 2.60391 -2.66509 0
M  V30 2431 H 227.513 1.88241 -4.4057 0
M  V30 2432 H 225.877 1.08899 -2.30246 0
M  V30 2433 H 226.66 -0.14487 -3.42994 0
M  V30 2434 N 229.106 1.52395 0.401703 0
M  V30 2435 C 230.352 1.67065 1.14966 0
M  V30 2436 C 230.685 0.403052 1.89971 0
M  V30 2437 O 229.96 -0.598774 1.85054 0
M  V30 2438 C 230.243 2.8975 2.13815 0
M  V30 2439 C 230.096 4.26578 1.42658 0
M  V30 2440 C 231.415 3.07965 3.14397 0
M  V30 2441 H 228.534 0.607968 0.416587 0
M  V30 2442 H 231.176 1.84965 0.434511 0
M  V30 2443 H 229.326 2.74619 2.74803 0
M  V30 2444 H 230.998 4.53451 0.847329 0
M  V30 2445 H 229.241 4.27639 0.72849 0
M  V30 2446 H 229.912 5.08483 2.14823 0
M  V30 2447 H 232.388 3.22043 2.63491 0
M  V30 2448 H 231.264 3.95308 3.80819 0
M  V30 2449 H 231.525 2.21611 3.82545 0
M  V30 2450 N 230.584 -0.659388 1.43143 0
M  V30 2451 C 231.83 -1.42145 1.44647 0
M  V30 2452 C 232.163 -1.9408 0.0681907 0
M  V30 2453 O 231.438 -1.71899 -0.910007 0
M  V30 2454 C 231.721 -2.60735 2.48373 0
M  V30 2455 C 231.574 -2.14332 3.95451 0
M  V30 2456 C 232.893 -3.62951 2.48906 0
M  V30 2457 H 230.012 -0.51552 0.526696 0
M  V30 2458 H 232.654 -0.748069 1.74654 0
M  V30 2459 H 230.804 -3.18184 2.22916 0
M  V30 2460 H 232.476 -1.61932 4.31944 0
M  V30 2461 H 230.719 -1.4576 4.08578 0
M  V30 2462 H 231.39 -2.99583 4.63631 0
M  V30 2463 H 233.866 -3.1525 2.71582 0
M  V30 2464 H 232.742 -4.43487 3.23435 0
M  V30 2465 H 233.003 -4.15126 1.52061 0
M  V30 2466 N 232.062 -1.29571 -0.897171 0
M  V30 2467 C 233.311 -1.1706 -1.64256 0
M  V30 2468 C 233.624 0.276476 -1.93636 0
M  V30 2469 O 234.83 0.52294 -2.66416 0
M  V30 2470 C 233.286 -2.0475 -2.95982 0
M  V30 2471 C 232.894 -3.54295 -2.74187 0
M  V30 2472 C 234.638 -2.0097 -3.73914 0
M  V30 2473 C 232.545 -4.34081 -4.01656 0
M  V30 2474 H 231.475 -0.43452 -0.616205 0
M  V30 2475 H 234.126 -1.54229 -0.994268 0
M  V30 2476 H 232.508 -1.60452 -3.62038 0
M  V30 2477 H 233.682 -4.06662 -2.1671 0
M  V30 2478 H 231.997 -3.59773 -2.09648 0
M  V30 2479 H 234.594 -2.57838 -4.68427 0
M  V30 2480 H 234.937 -0.990273 -4.0435 0
M  V30 2481 H 235.47 -2.43325 -3.14703 0
M  V30 2482 H 232.209 -5.36671 -3.76384 0
M  V30 2483 H 231.729 -3.86483 -4.58684 0
M  V30 2484 H 233.408 -4.44877 -4.69781 0
M  V30 2485 N 233.54 1.10788 -1.12088 0
M  V30 2486 C 234.786 1.82942 -0.875226 0
M  V30 2487 C 235.119 1.84779 0.597538 0
M  V30 2488 O 234.394 1.30578 1.44152 0
M  V30 2489 C 234.677 3.29789 -1.44606 0
M  V30 2490 C 234.53 3.36307 -2.98693 0
M  V30 2491 C 235.849 4.26064 -1.10261 0
M  V30 2492 H 232.968 0.664195 -0.319397 0
M  V30 2493 H 235.61 1.29867 -1.38689 0
M  V30 2494 H 233.76 3.75118 -1.01089 0
M  V30 2495 H 235.432 2.99487 -3.50864 0
M  V30 2496 H 233.675 2.76318 -3.34411 0
M  V30 2497 H 234.346 4.39694 -3.33726 0
M  V30 2498 H 236.822 3.88951 -1.4784 0
M  V30 2499 H 235.698 5.27183 -1.52869 0
M  V30 2500 H 235.959 4.42098 -0.0142953 0
M  V30 2501 N 235.018 0.912232 1.28515 0
M  V30 2502 C 236.434 0.610159 1.47476 0
M  V30 2503 C 236.634 -0.844955 1.82928 0
M  V30 2504 O 235.69 -1.62416 1.93332 0
M  V30 2505 C 237.003 1.54675 2.57868 0
M  V30 2506 C 238.551 1.55331 2.71738 0
M  V30 2507 C 239.026 2.47649 3.85272 0
M  V30 2508 N 240.517 2.45767 3.92623 0
M  V30 2509 C 241.252 3.13896 4.79851 0
M  V30 2510 N 240.748 3.9135 5.71679 0
M  V30 2511 N 242.541 3.02991 4.73448 0
M  V30 2512 H 234.692 1.85318 1.03783 0
M  V30 2513 H 236.955 0.794777 0.516753 0
M  V30 2514 H 236.661 2.5841 2.38574 0
M  V30 2515 H 236.535 1.27671 3.54937 0
M  V30 2516 H 238.922 0.52335 2.90422 0
M  V30 2517 H 239.003 1.86378 1.75205 0
M  V30 2518 H 238.647 3.50745 3.67342 0
M  V30 2519 H 238.577 2.13904 4.81199 0
M  V30 2520 H 241.068 1.89503 3.26951 0
M  V30 2521 H 241.381 4.40359 6.35062 0
M  V30 2522 H 239.726 3.95455 5.71524 0
M  V30 2523 H 242.917 2.41987 4.007 0
M  V30 2524 H 243.09 3.5636 5.41213 0
M  V30 2525 N 236.496 -1.42363 0.676048 0
M  V30 2526 C 237.443 -2.308 -0.00150904 0
M  V30 2527 C 238.413 -1.46032 -0.791444 0
M  V30 2528 O 239.598 -1.74861 -0.76344 0
M  V30 2529 C 236.738 -3.31883 -0.945919 0
M  V30 2530 C 235.851 -4.31741 -0.149675 0
M  V30 2531 C 234.986 -5.19898 -1.08995 0
M  V30 2532 C 234.025 -6.11434 -0.285465 0
M  V30 2533 N 233.162 -6.92138 -1.17851 0
M  V30 2534 H 238.002 -2.88187 0.758455 0
M  V30 2535 H 235.539 -1.41952 0.38576 0
M  V30 2536 H 237.497 -3.89019 -1.50731 0
M  V30 2537 H 236.127 -2.76093 -1.6725 0
M  V30 2538 H 235.179 -3.76713 0.528359 0
M  V30 2539 H 236.491 -4.96534 0.474866 0
M  V30 2540 H 235.645 -5.81772 -1.72123 0
M  V30 2541 H 234.384 -4.55284 -1.74837 0
M  V30 2542 H 233.389 -5.48627 0.359018 0
M  V30 2543 H 234.614 -6.78097 0.368883 0
M  V30 2544 H 232.56 -6.30152 -1.82332 0
M  V30 2545 H 232.477 -7.53542 -0.609082 0
M  V30 2546 H 233.745 -7.58499 -1.79722 0
M  V30 2547 N 237.974 -0.419461 -1.51915 0
M  V30 2548 C 239.251 0.211999 -1.94448 0
M  V30 2549 C 239.631 1.61703 -1.35703 0
M  V30 2550 O 238.979 2.22102 -0.536931 0
M  V30 2551 C 239.189 0.207872 -3.4838 0
M  V30 2552 C 240.537 0.422192 -4.22496 0
M  V30 2553 O 241.561 0.286778 -3.55044 0
M  V30 2554 O 240.42 0.690009 -5.42126 0
M  V30 2555 H 237.514 0.139586 -0.815135 0
M  V30 2556 H 240.06 -0.476151 -1.62883 0
M  V30 2557 H 238.832 -0.775102 -3.83546 0
M  V30 2558 H 238.455 0.939688 -3.86336 0
M  V30 2559 N 239.452 1.56882 -0.150215 0
M  V30 2560 C 240.4 2.18214 0.805313 0
M  V30 2561 C 241.394 1.14006 1.25296 0
M  V30 2562 O 242.6 1.3225 1.22107 0
M  V30 2563 H 238.975 0.698762 0.277913 0
M  V30 2564 H 240.946 2.97231 0.263862 0
M  V30 2565 C 239.695 2.82065 2.03309 0
M  V30 2566 H 239.018 3.61968 1.69763 0
M  V30 2567 H 240.458 3.28477 2.68103 0
M  V30 2568 C 238.917 1.80739 2.84315 0
M  V30 2569 O 239.447 1.27983 3.80767 0
M  V30 2570 N 237.653 1.4997 2.48913 0
M  V30 2571 H 237.2 1.93062 1.70542 0
M  V30 2572 H 237.158 0.824217 3.03404 0
M  V30 2573 N 240.93 -0.123565 1.57115 0
M  V30 2574 C 241.877 -1.15177 2.00007 0
M  V30 2575 C 242.847 -1.41403 0.871454 0
M  V30 2576 O 244.032 -1.53346 1.13533 0
M  V30 2577 C 241.172 -2.47436 2.40561 0
M  V30 2578 C 240.285 -2.28184 3.66819 0
M  V30 2579 C 239.42 -3.53641 3.96373 0
M  V30 2580 C 238.459 -3.29528 5.15827 0
M  V30 2581 N 237.596 -4.47175 5.41275 0
M  V30 2582 H 242.436 -0.779008 2.87638 0
M  V30 2583 H 239.973 -0.373166 1.42288 0
M  V30 2584 H 241.931 -3.24584 2.62109 0
M  V30 2585 H 240.561 -2.82614 1.55978 0
M  V30 2586 H 239.613 -1.41976 3.52912 0
M  V30 2587 H 240.925 -2.0634 4.5412 0
M  V30 2588 H 240.079 -4.39209 4.18545 0
M  V30 2589 H 238.818 -3.78512 3.07538 0
M  V30 2590 H 237.823 -2.42349 4.93505 0
M  V30 2591 H 239.048 -3.06031 6.06236 0
M  V30 2592 H 236.994 -4.72175 4.55397 0
M  V30 2593 H 236.911 -4.28419 6.22891 0
M  V30 2594 H 238.179 -5.3389 5.67963 0
M  V30 2595 N 242.408 -1.52605 -0.393616 0
M  V30 2596 C 243.654 -1.67672 -1.14079 0
M  V30 2597 C 243.987 -0.413121 -1.89755 0
M  V30 2598 O 243.262 0.588952 -1.85369 0
M  V30 2599 C 243.545 -2.9088 -2.12276 0
M  V30 2600 C 243.398 -4.27329 -1.40394 0
M  V30 2601 C 244.717 -3.09628 -3.12759 0
M  V30 2602 H 241.836 -0.610168 -0.413356 0
M  V30 2603 H 244.478 -1.85193 -0.424696 0
M  V30 2604 H 242.628 -2.76073 -2.73342 0
M  V30 2605 H 244.3 -4.53894 -0.82327 0
M  V30 2606 H 242.543 -4.2802 -0.705801 0
M  V30 2607 H 243.214 -5.09615 -2.12123 0
M  V30 2608 H 245.69 -3.23436 -2.61779 0
M  V30 2609 H 244.566 -3.97322 -3.78717 0
M  V30 2610 H 244.827 -2.23637 -3.81365 0
M  V30 2611 N 243.887 0.651787 -1.4349 0
M  V30 2612 C 245.115 1.43937 -1.48626 0
M  V30 2613 C 245.53 1.8851 -0.104587 0
M  V30 2614 O 244.887 1.5958 0.885464 0
M  V30 2615 C 244.938 2.6734 -2.43334 0
M  V30 2616 O 244.659 2.24631 -3.76128 0
M  V30 2617 C 246.16 3.60683 -2.57726 0
M  V30 2618 H 243.38 0.44213 -0.504739 0
M  V30 2619 H 245.924 0.798944 -1.88248 0
M  V30 2620 H 244.079 3.2752 -2.06904 0
M  V30 2621 H 244.493 3.04485 -4.2707 0
M  V30 2622 H 245.967 4.43933 -3.28067 0
M  V30 2623 H 246.444 4.08126 -1.62265 0
M  V30 2624 H 247.05 3.06384 -2.94973 0
M  V30 2625 N 245.365 1.30045 0.890287 0
M  V30 2626 C 246.275 1.17885 2.02831 0
M  V30 2627 C 247.291 0.0999609 1.73713 0
M  V30 2628 O 248.467 0.313867 1.98939 0
M  V30 2629 C 245.532 0.866079 3.35708 0
M  V30 2630 C 244.593 2.02979 3.78283 0
M  V30 2631 C 243.826 1.73184 5.0482 0
M  V30 2632 O 244.049 0.657237 5.66601 0
M  V30 2633 O 242.983 2.58267 5.43674 0
M  V30 2634 H 246.809 2.13474 2.16015 0
M  V30 2635 H 244.394 1.09587 1.01543 0
M  V30 2636 H 246.276 0.706623 4.15433 0
M  V30 2637 H 244.951 -0.0599443 3.23644 0
M  V30 2638 H 243.858 2.24454 2.99285 0
M  V30 2639 H 245.191 2.93734 3.94944 0
M  V30 2640 N 246.843 -1.10192 1.12674 0
M  V30 2641 C 248.091 -1.81845 0.881861 0
M  V30 2642 C 248.412 -1.85737 -0.593867 0
M  V30 2643 O 247.682 -1.33724 -1.4316 0
M  V30 2644 H 246.262 -0.673432 0.323261 0
M  V30 2645 H 248.924 -1.33316 1.42172 0
M  V30 2646 H 248.02 -2.85288 1.2656 0
M  V30 2647 N 248.321 -0.919034 -1.28029 0
M  V30 2648 C 249.546 -0.570357 -1.99403 0
M  V30 2649 C 249.971 0.842486 -1.68178 0
M  V30 2650 O 249.329 1.56391 -0.917141 0
M  V30 2651 C 249.377 -0.792541 -3.51783 0
M  V30 2652 O 248.481 0.145988 -4.12142 0
M  V30 2653 H 247.822 -0.220555 -0.6263 0
M  V30 2654 H 250.352 -1.23592 -1.63053 0
M  V30 2655 H 250.362 -0.704708 -4.01868 0
M  V30 2656 H 249.037 -1.82247 -3.73844 0
M  V30 2657 H 247.614 0.00897528 -3.72899 0
M  V30 2658 N 249.799 1.42003 -0.683588 0
M  V30 2659 C 251.027 2.05746 -0.218182 0
M  V30 2660 C 251.442 1.51396 1.12804 0
M  V30 2661 O 250.799 0.657303 1.70252 0
M  V30 2662 C 250.85 3.61171 -0.154131 0
M  V30 2663 O 250.571 4.13508 -1.44716 0
M  V30 2664 C 252.072 4.42042 0.333713 0
M  V30 2665 H 249.292 0.662888 -0.10402 0
M  V30 2666 H 251.836 1.81987 -0.9328 0
M  V30 2667 H 249.991 3.84012 0.511231 0
M  V30 2668 H 250.405 5.07453 -1.32632 0
M  V30 2669 H 251.879 5.51028 0.327423 0
M  V30 2670 H 252.356 4.17269 1.37053 0
M  V30 2671 H 252.962 4.24239 -0.300222 0
M  V30 2672 N 251.277 0.427512 1.51691 0
M  V30 2673 C 252.523 -0.142439 2.02299 0
M  V30 2674 C 252.856 -1.43214 1.31162 0
M  V30 2675 O 252.131 -1.89833 0.423511 0
M  V30 2676 C 252.414 -0.371301 3.58181 0
M  V30 2677 C 252.267 0.936358 4.39946 0
M  V30 2678 C 253.586 -1.14542 4.24933 0
M  V30 2679 H 250.705 -0.0502937 0.735282 0
M  V30 2680 H 253.347 0.564584 1.81418 0
M  V30 2681 H 251.497 -0.973559 3.76104 0
M  V30 2682 H 253.169 1.57184 4.33694 0
M  V30 2683 H 251.412 1.5432 4.05423 0
M  V30 2684 H 252.083 0.730388 5.47147 0
M  V30 2685 H 254.559 -0.635362 4.11221 0
M  V30 2686 H 253.435 -1.27431 5.33903 0
M  V30 2687 H 253.696 -2.17093 3.85127 0
M  V30 2688 N 252.755 -1.56801 0.158532 0
M  V30 2689 C 253.98 -2.01295 -0.499516 0
M  V30 2690 C 254.405 -1.03799 -1.56867 0
M  V30 2691 O 253.763 -0.0155162 -1.81293 0
M  V30 2692 C 253.811 -3.44469 -1.06647 0
M  V30 2693 O 252.915 -3.50012 -2.18095 0
M  V30 2694 H 252.256 -0.652884 -0.12099 0
M  V30 2695 H 254.786 -2.02958 0.258661 0
M  V30 2696 H 254.796 -3.8351 -1.39227 0
M  V30 2697 H 253.471 -4.14932 -0.283581 0
M  V30 2698 H 252.048 -3.22822 -1.86656 0
M  V30 2699 N 254.233 0.115231 -1.57178 0
M  V30 2700 C 255.482 0.820945 -1.84237 0
M  V30 2701 C 255.795 1.80866 -0.744761 0
M  V30 2702 O 257.001 2.56083 -0.901871 0
M  V30 2703 C 255.457 1.51072 -3.26658 0
M  V30 2704 C 255.065 0.563795 -4.44438 0
M  V30 2705 C 256.809 2.20134 -3.62962 0
M  V30 2706 C 254.716 1.25701 -5.77887 0
M  V30 2707 H 253.646 0.310328 -0.687177 0
M  V30 2708 H 256.297 0.0737134 -1.83352 0
M  V30 2709 H 254.679 2.30471 -3.22024 0
M  V30 2710 H 255.853 -0.197247 -4.60378 0
M  V30 2711 H 254.168 -0.0200638 -4.16395 0
M  V30 2712 H 256.765 2.72696 -4.59936 0
M  V30 2713 H 257.108 2.98107 -2.90582 0
M  V30 2714 H 257.641 1.47619 -3.69396 0
M  V30 2715 H 254.38 0.518493 -6.53446 0
M  V30 2716 H 253.9 1.98997 -5.65827 0
M  V30 2717 H 255.579 1.78915 -6.2177 0
M  V30 2718 N 255.711 1.52812 0.385517 0
M  V30 2719 C 256.659 1.78482 1.49155 0
M  V30 2720 C 257.653 0.652914 1.56312 0
M  V30 2721 O 258.859 0.835464 1.59436 0
M  V30 2722 H 255.234 0.5648 0.496493 0
M  V30 2723 H 257.205 2.71095 1.24699 0
M  V30 2724 C 255.954 1.97378 2.86247 0
M  V30 2725 H 255.277 2.83907 2.81491 0
M  V30 2726 H 256.717 2.19327 3.62866 0
M  V30 2727 C 255.176 0.74728 3.28508 0
M  V30 2728 O 255.706 -0.0736232 4.01633 0
M  V30 2729 N 253.912 0.576396 2.84826 0
M  V30 2730 H 253.459 1.24555 2.25486 0
M  V30 2731 H 253.417 -0.24288 3.1346 0
M  V30 2732 N 257.189 -0.644168 1.43834 0
M  V30 2733 C 258.419 -1.42939 1.49171 0
M  V30 2734 C 258.827 -1.88874 0.111048 0
M  V30 2735 O 258.17 -1.60656 -0.8908 0
M  V30 2736 C 258.232 -2.69151 2.38324 0
M  V30 2737 C 257.896 -2.45097 3.85715 0
M  V30 2738 C 258.893 -2.07747 4.76589 0
M  V30 2739 C 256.578 -2.59141 4.30292 0
M  V30 2740 C 258.572 -1.8475 6.10038 0
M  V30 2741 C 256.259 -2.35759 5.63792 0
M  V30 2742 C 257.257 -1.9862 6.53482 0
M  V30 2743 O 256.945 -1.75489 7.84512 0
M  V30 2744 H 256.677 -0.445271 0.508635 0
M  V30 2745 H 259.231 -0.79621 1.8934 0
M  V30 2746 H 257.461 -3.3506 1.93058 0
M  V30 2747 H 259.15 -3.31123 2.3476 0
M  V30 2748 H 259.916 -1.96465 4.43426 0
M  V30 2749 H 255.795 -2.87022 3.60749 0
M  V30 2750 H 259.339 -1.55686 6.80006 0
M  V30 2751 H 255.236 -2.46646 5.9652 0
M  V30 2752 H 256.004 -1.89841 7.9618 0
M  V30 2753 N 258.668 -1.30515 -0.883378 0
M  V30 2754 C 259.914 -1.19607 -1.63774 0
M  V30 2755 C 260.247 0.248314 -1.92606 0
M  V30 2756 O 259.522 1.17742 -1.54813 0
M  V30 2757 C 259.805 -2.02669 -2.97653 0
M  V30 2758 C 259.658 -3.55335 -2.75784 0
M  V30 2759 C 260.977 -1.86573 -3.98596 0
M  V30 2760 H 258.096 -0.435856 -0.594305 0
M  V30 2761 H 260.738 -1.60165 -1.02212 0
M  V30 2762 H 258.888 -1.68208 -3.50197 0
M  V30 2763 H 260.56 -3.99863 -2.30016 0
M  V30 2764 H 258.803 -3.79438 -2.1026 0
M  V30 2765 H 259.474 -4.08745 -3.70988 0
M  V30 2766 H 261.95 -2.16703 -3.55217 0
M  V30 2767 H 260.826 -2.47014 -4.90179 0
M  V30 2768 H 261.087 -0.825321 -4.34328 0
M  V30 2769 N 260.146 1.09593 -1.13257 0
M  V30 2770 C 261.371 1.8604 -0.916732 0
M  V30 2771 C 261.796 1.80504 0.529146 0
M  V30 2772 O 261.154 1.18127 1.37534 0
M  V30 2773 C 261.202 3.32017 -1.40703 0
M  V30 2774 O 260.306 4.08141 -0.591153 0
M  V30 2775 H 259.647 0.576943 -0.328683 0
M  V30 2776 H 262.177 1.38405 -1.50682 0
M  V30 2777 H 262.187 3.82865 -1.4099 0
M  V30 2778 H 260.862 3.35361 -2.45979 0
M  V30 2779 H 259.439 3.67084 -0.656005 0
M  V30 2780 N 261.624 0.925811 1.2754 0
M  V30 2781 C 262.872 0.564138 1.94067 0
M  V30 2782 C 263.193 -0.897188 1.73134 0
M  V30 2783 O 262.463 -1.63573 1.07799 0
M  V30 2784 H 261.043 0.205645 0.718136 0
M  V30 2785 H 263.705 1.1778 1.55287 0
M  V30 2786 H 262.801 0.76881 3.02483 0
M  V30 2787 N 263.102 -1.41638 0.69111 0
M  V30 2788 C 264.327 -2.06148 0.227583 0
M  V30 2789 C 264.752 -1.51652 -1.11281 0
M  V30 2790 O 264.11 -0.64164 -1.69566 0
M  V30 2791 C 264.158 -3.60095 0.190858 0
M  V30 2792 O 263.262 -4.03845 -0.835664 0
M  V30 2793 H 262.603 -0.654434 0.112306 0
M  V30 2794 H 265.133 -1.81484 0.944714 0
M  V30 2795 H 265.143 -4.07995 0.020207 0
M  V30 2796 H 263.818 -3.99129 1.16915 0
M  V30 2797 H 262.395 -3.67458 -0.63473 0
M  V30 2798 N 264.58 -0.43555 -1.51462 0
M  V30 2799 C 265.805 0.132627 -2.06976 0
M  V30 2800 C 266.23 1.35848 -1.30104 0
M  V30 2801 O 265.588 1.78112 -0.338493 0
M  V30 2802 C 265.636 0.43523 -3.57964 0
M  V30 2803 O 264.74 1.52198 -3.83288 0
M  V30 2804 H 264.081 0.00265 -0.663995 0
M  V30 2805 H 266.611 -0.616369 -1.95095 0
M  V30 2806 H 266.621 0.686206 -4.02188 0
M  V30 2807 H 265.296 -0.460739 -4.1334 0
M  V30 2808 H 263.873 1.2611 -3.50928 0
M  V30 2809 N 266.058 1.56714 -0.166846 0
M  V30 2810 C 267.006 2.19056 0.782123 0
M  V30 2811 C 268 1.15328 1.24079 0
M  V30 2812 O 269.206 1.33537 1.20697 0
M  V30 2813 H 265.581 0.70167 0.270486 0
M  V30 2814 H 267.552 2.97494 0.232322 0
M  V30 2815 C 266.301 2.84206 2.00306 0
M  V30 2816 H 265.624 3.63748 1.65914 0
M  V30 2817 H 267.064 3.31302 2.64604 0
M  V30 2818 C 265.523 1.83744 2.82382 0
M  V30 2819 O 266.053 1.32014 3.79388 0
M  V30 2820 N 264.259 1.52601 2.47308 0
M  V30 2821 H 263.806 1.9486 1.68485 0
M  V30 2822 H 263.764 0.856351 3.02513 0
M  V30 2823 N 267.536 -0.106894 1.57237 0
M  V30 2824 C 268.952 -0.46078 1.52804 0
M  V30 2825 C 269.152 -1.81184 0.881746 0
M  V30 2826 O 268.208 -2.48102 0.469224 0
M  V30 2827 C 269.521 -0.434127 2.9755 0
M  V30 2828 C 271.069 -0.516821 3.08704 0
M  V30 2829 C 271.544 -0.520436 4.55033 0
M  V30 2830 N 273.035 -0.58153 4.59535 0
M  V30 2831 C 273.77 -0.605973 5.70189 0
M  V30 2832 N 273.266 -0.587331 6.90306 0
M  V30 2833 N 275.059 -0.649895 5.5833 0
M  V30 2834 H 267.21 0.778203 1.9763 0
M  V30 2835 H 269.473 0.288403 0.903066 0
M  V30 2836 H 269.179 0.491197 3.48253 0
M  V30 2837 H 269.053 -1.25748 3.55622 0
M  V30 2838 H 271.44 -1.43256 2.57995 0
M  V30 2839 H 271.521 0.334449 2.53604 0
M  V30 2840 H 271.165 0.391313 5.0639 0
M  V30 2841 H 271.095 -1.38876 5.07958 0
M  V30 2842 H 273.586 -0.60161 3.73081 0
M  V30 2843 H 273.899 -0.60894 7.70397 0
M  V30 2844 H 272.244 -0.554564 6.92784 0
M  V30 2845 H 275.435 -0.661907 4.63397 0
M  V30 2846 H 275.608 -0.665476 6.44574 0
M  V30 2847 N 269.014 -1.53014 -0.377408 0
M  V30 2848 C 270.263 -1.67845 -1.11853 0
M  V30 2849 C 270.576 -0.430625 -1.90801 0
M  V30 2850 O 271.782 -0.459261 -2.67587 0
M  V30 2851 C 270.238 -2.96668 -2.03756 0
M  V30 2852 C 269.846 -4.28671 -1.30175 0
M  V30 2853 C 271.59 -3.20865 -2.77932 0
M  V30 2854 C 269.497 -5.48591 -2.20911 0
M  V30 2855 H 268.427 -0.625343 -0.421263 0
M  V30 2856 H 271.078 -1.79514 -0.380409 0
M  V30 2857 H 269.46 -2.78773 -2.8125 0
M  V30 2858 H 270.634 -4.57157 -0.578259 0
M  V30 2859 H 268.949 -4.10825 -0.679108 0
M  V30 2860 H 271.546 -4.07642 -3.46024 0
M  V30 2861 H 271.889 -2.36424 -3.4265 0
M  V30 2862 H 272.422 -3.39379 -2.07525 0
M  V30 2863 H 269.161 -6.35474 -1.6079 0
M  V30 2864 H 268.681 -5.244 -2.91144 0
M  V30 2865 H 270.36 -5.8292 -2.80736 0
M  V30 2866 N 270.492 0.636531 -1.44174 0
M  V30 2867 C 271.424 1.7618 -1.46606 0
M  V30 2868 C 272.437 1.58768 -0.360091 0
M  V30 2869 O 273.626 1.67181 -0.625518 0
M  V30 2870 C 270.726 3.13833 -1.27915 0
M  V30 2871 C 269.899 3.57753 -2.51658 0
M  V30 2872 C 268.958 4.74265 -2.27945 0
M  V30 2873 O 267.984 4.82852 -3.01401 0
M  V30 2874 N 269.186 5.65604 -1.30662 0
M  V30 2875 H 271.951 1.74567 -2.43612 0
M  V30 2876 H 269.512 0.820924 -1.39544 0
M  V30 2877 H 271.504 3.8949 -1.09907 0
M  V30 2878 H 270.074 3.10121 -0.39293 0
M  V30 2879 H 269.294 2.72362 -2.84978 0
M  V30 2880 H 270.582 3.83847 -3.33974 0
M  V30 2881 H 269.98 5.61354 -0.699844 0
M  V30 2882 H 268.537 6.40913 -1.18634 0
M  V30 2883 N 271.97 1.30982 0.876444 0
M  V30 2884 C 273.198 1.23242 1.6619 0
M  V30 2885 C 273.613 -0.203345 1.87702 0
M  V30 2886 O 272.97 -1.13317 1.43057 0
M  V30 2887 C 273.021 1.96623 3.03351 0
M  V30 2888 O 272.742 3.34594 2.82804 0
M  V30 2889 C 274.243 1.95644 3.97792 0
M  V30 2890 H 271.463 0.426126 0.518322 0
M  V30 2891 H 274.007 1.7275 1.09442 0
M  V30 2892 H 272.162 1.50892 3.56806 0
M  V30 2893 H 272.576 3.71873 3.69879 0
M  V30 2894 H 274.05 2.51511 4.91372 0
M  V30 2895 H 274.527 0.937395 4.2908 0
M  V30 2896 H 275.133 2.41225 3.50272 0
M  V30 2897 N 273.449 -1.08991 1.13837 0
M  V30 2898 C 274.382 -2.15049 0.763477 0
M  V30 2899 C 275.36 -1.60629 -0.252398 0
M  V30 2900 O 276.544 -1.87958 -0.142853 0
M  V30 2901 C 273.671 -3.38441 0.132545 0
M  V30 2902 C 272.717 -4.11596 1.11763 0
M  V30 2903 S 273.55 -4.6521 2.65216 0
M  V30 2904 C 274.706 -5.91896 2.03495 0
M  V30 2905 H 274.939 -2.46518 1.66182 0
M  V30 2906 H 272.472 -1.21008 0.958976 0
M  V30 2907 H 274.43 -4.09883 -0.225074 0
M  V30 2908 H 273.091 -3.05182 -0.743135 0
M  V30 2909 H 272.284 -5.00121 0.624076 0
M  V30 2910 H 271.886 -3.46038 1.41894 0
M  V30 2911 H 274.178 -6.63156 1.38675 0
M  V30 2912 H 275.121 -6.45938 2.9012 0
M  V30 2913 H 275.529 -5.44625 1.48471 0
M  V30 2914 N 274.927 -0.932562 -1.27047 0
M  V30 2915 C 276.152 -0.591474 -1.98787 0
M  V30 2916 C 276.577 0.824601 -1.69062 0
M  V30 2917 O 275.935 1.5541 -0.933677 0
M  V30 2918 C 275.983 -0.829808 -3.50922 0
M  V30 2919 O 275.087 0.102266 -4.12273 0
M  V30 2920 H 274.428 -0.227185 -0.623926 0
M  V30 2921 H 276.958 -1.25314 -1.61733 0
M  V30 2922 H 276.968 -0.747292 -4.01098 0
M  V30 2923 H 275.643 -1.86201 -3.7189 0
M  V30 2924 H 274.22 -0.0305761 -3.72887 0
M  V30 2925 N 276.405 1.4127 -0.698611 0
M  V30 2926 C 277.335 2.33447 -0.049629 0
M  V30 2927 C 278.316 1.51982 0.763898 0
M  V30 2928 O 279.501 1.80509 0.716257 0
M  V30 2929 C 276.631 3.35828 0.885267 0
M  V30 2930 C 275.585 4.27627 0.178613 0
M  V30 2931 C 274.911 5.20406 1.22807 0
M  V30 2932 C 276.211 5.13459 -0.956933 0
M  V30 2933 H 277.905 2.87966 -0.81951 0
M  V30 2934 H 275.451 1.38461 -0.395538 0
M  V30 2935 H 277.404 3.9924 1.34854 0
M  V30 2936 H 276.128 2.79666 1.68685 0
M  V30 2937 H 274.787 3.65643 -0.26466 0
M  V30 2938 H 274.435 4.60558 2.02226 0
M  V30 2939 H 274.135 5.82661 0.760239 0
M  V30 2940 H 275.659 5.86695 1.69179 0
M  V30 2941 H 277.073 5.70421 -0.573805 0
M  V30 2942 H 275.47 5.8467 -1.35205 0
M  V30 2943 H 276.54 4.50443 -1.79524 0
M  V30 2944 N 277.883 0.443576 1.51229 0
M  V30 2945 C 278.846 -0.353132 2.26463 0
M  V30 2946 C 279.846 -0.944338 1.3015 0
M  V30 2947 O 281.036 -0.817813 1.5381 0
M  V30 2948 C 278.168 -1.50023 3.06114 0
M  V30 2949 H 279.361 0.3063 2.98332 0
M  V30 2950 H 276.914 0.196902 1.55055 0
M  V30 2951 H 277.649 -2.19553 2.38677 0
M  V30 2952 H 277.434 -1.08241 3.76864 0
M  V30 2953 H 278.924 -2.06296 3.63087 0
M  V30 2954 N 279.361 -1.56624 0.175154 0
M  V30 2955 C 280.308 -2.18149 -0.753634 0
M  V30 2956 C 281.278 -1.12265 -1.22417 0
M  V30 2957 O 282.463 -1.40432 -1.29165 0
M  V30 2958 C 279.603 -2.82933 -1.97592 0
M  V30 2959 C 278.716 -4.03289 -1.5486 0
M  V30 2960 C 277.851 -4.55988 -2.72485 0
M  V30 2961 C 276.89 -5.68746 -2.26262 0
M  V30 2962 N 276.027 -6.15938 -3.36994 0
M  V30 2963 H 280.867 -2.9717 -0.222195 0
M  V30 2964 H 278.404 -1.46774 -0.0979422 0
M  V30 2965 H 280.362 -3.18653 -2.69288 0
M  V30 2966 H 278.992 -2.06509 -2.481 0
M  V30 2967 H 278.044 -3.73364 -0.728246 0
M  V30 2968 H 279.356 -4.849 -1.16933 0
M  V30 2969 H 278.51 -4.9391 -3.52332 0
M  V30 2970 H 277.249 -3.73443 -3.13674 0
M  V30 2971 H 276.254 -5.30372 -1.44863 0
M  V30 2972 H 277.479 -6.53095 -1.86127 0
M  V30 2973 H 275.425 -5.36321 -3.77751 0
M  V30 2974 H 275.342 -6.92548 -3.03172 0
M  V30 2975 H 276.61 -6.58511 -4.17114 0
M  V30 2976 N 280.839 0.0985539 -1.57292 0
M  V30 2977 C 282.255 0.45267 -1.53046 0
M  V30 2978 C 282.455 1.80713 -0.891342 0
M  V30 2979 O 281.511 2.4785 -0.482375 0
M  V30 2980 C 282.824 0.418341 -2.97776 0
M  V30 2981 C 284.372 0.500443 -3.08973 0
M  V30 2982 C 284.847 0.496297 -4.55303 0
M  V30 2983 N 286.338 0.557151 -4.59837 0
M  V30 2984 C 287.073 0.575726 -5.70502 0
M  V30 2985 N 286.569 0.550714 -6.90608 0
M  V30 2986 N 288.362 0.620277 -5.58667 0
M  V30 2987 H 280.513 -0.788673 -1.97215 0
M  V30 2988 H 282.776 -0.293188 -0.901524 0
M  V30 2989 H 282.482 -0.509659 -3.47988 0
M  V30 2990 H 282.356 1.2386 -3.56284 0
M  V30 2991 H 284.743 1.41886 -2.58751 0
M  V30 2992 H 284.824 -0.347894 -2.53423 0
M  V30 2993 H 284.468 -0.418162 -5.06176 0
M  V30 2994 H 284.398 1.3618 -5.08687 0
M  V30 2995 H 286.889 0.581816 -3.73394 0
M  V30 2996 H 287.202 0.568075 -7.70709 0
M  V30 2997 H 285.547 0.517816 -6.93068 0
M  V30 2998 H 288.738 0.637322 -4.63741 0
M  V30 2999 H 288.911 0.631283 -6.44918 0
M  V30 3000 N 282.317 1.53212 0.369288 0
M  V30 3001 C 283.542 1.73423 1.1375 0
M  V30 3002 C 283.967 0.460404 1.82378 0
M  V30 3003 O 283.325 -0.585298 1.71592 0
M  V30 3004 C 283.373 2.89769 2.1463 0
M  V30 3005 O 282.477 2.58119 3.21634 0
M  V30 3006 H 281.818 0.576061 0.330227 0
M  V30 3007 H 284.348 2.00083 0.427547 0
M  V30 3008 H 284.358 3.15829 2.58294 0
M  V30 3009 H 283.033 3.8217 1.64071 0
M  V30 3010 H 281.61 2.42864 2.82969 0
M  V30 3011 N 283.795 -0.628877 1.44509 0
M  V30 3012 C 284.728 -1.75367 1.46019 0
M  V30 3013 C 285.706 -1.59444 0.318787 0
M  V30 3014 O 286.89 -1.81297 0.516099 0
M  V30 3015 C 284.017 -3.12965 1.29501 0
M  V30 3016 C 283.063 -3.47532 2.47233 0
M  V30 3017 S 283.896 -3.44758 4.09758 0
M  V30 3018 C 285.052 -4.84973 3.95667 0
M  V30 3019 H 285.285 -1.7382 2.41193 0
M  V30 3020 H 282.818 -0.803686 1.31834 0
M  V30 3021 H 284.776 -3.92367 1.20658 0
M  V30 3022 H 283.437 -3.12049 0.358341 0
M  V30 3023 H 282.63 -4.47664 2.31544 0
M  V30 3024 H 282.232 -2.75598 2.52828 0
M  V30 3025 H 284.524 -5.74255 3.59496 0
M  V30 3026 H 285.467 -5.05716 4.95638 0
M  V30 3027 H 285.875 -4.59653 3.27688 0
M  V30 3028 N 285.273 -1.31445 -0.869486 0
M  V30 3029 C 286.22 -1.19135 -1.97675 0
M  V30 3030 C 287.19 -0.0770266 -1.65921 0
M  V30 3031 O 288.375 -0.249972 -1.89155 0
M  V30 3032 C 285.515 -0.905149 -3.33018 0
M  V30 3033 C 284.628 -2.10285 -3.77365 0
M  V30 3034 C 283.763 -1.75339 -5.01427 0
M  V30 3035 C 282.802 -2.91515 -5.38224 0
M  V30 3036 N 281.939 -2.56762 -6.53466 0
M  V30 3037 H 286.779 -2.13853 -2.07535 0
M  V30 3038 H 284.316 -1.06379 -1.01597 0
M  V30 3039 H 286.274 -0.719765 -4.10944 0
M  V30 3040 H 284.904 0.00519624 -3.228 0
M  V30 3041 H 283.956 -2.39899 -2.95216 0
M  V30 3042 H 285.268 -2.97237 -4.00564 0
M  V30 3043 H 284.422 -1.53266 -5.87022 0
M  V30 3044 H 283.161 -0.855801 -4.80133 0
M  V30 3045 H 282.166 -3.14237 -4.51149 0
M  V30 3046 H 283.391 -3.81985 -5.61484 0
M  V30 3047 H 281.337 -1.69526 -6.33717 0
M  V30 3048 H 281.254 -3.37243 -6.76612 0
M  V30 3049 H 282.522 -2.38083 -7.42251 0
M  V30 3050 N 286.751 1.08385 -1.14413 0
M  V30 3051 C 287.979 1.84517 -0.936001 0
M  V30 3052 C 288.394 1.81626 0.515503 0
M  V30 3053 O 287.751 1.22008 1.35721 0
M  V30 3054 C 287.802 3.32049 -1.42918 0
M  V30 3055 O 287.523 3.34951 -2.82381 0
M  V30 3056 C 289.024 4.24986 -1.26103 0
M  V30 3057 H 286.244 0.582491 -0.333084 0
M  V30 3058 H 288.788 1.36885 -1.5193 0
M  V30 3059 H 286.943 3.7707 -0.888641 0
M  V30 3060 H 287.357 4.27048 -3.04517 0
M  V30 3061 H 288.831 5.26615 -1.6547 0
M  V30 3062 H 289.308 4.38726 -0.20392 0
M  V30 3063 H 289.914 3.85791 -1.79012 0
M  V30 3064 N 288.23 0.939286 1.26551 0
M  V30 3065 C 289.478 0.58469 1.93457 0
M  V30 3066 C 289.799 -0.878774 1.74076 0
M  V30 3067 O 289.069 -1.62421 1.09528 0
M  V30 3068 H 287.649 0.21325 0.715914 0
M  V30 3069 H 290.311 1.1942 1.54029 0
M  V30 3070 H 289.407 0.800849 3.0165 0
M  V30 3071 N 289.708 -1.40897 0.706093 0
M  V30 3072 C 290.933 -2.05895 0.249435 0
M  V30 3073 C 291.358 -1.52823 -1.09666 0
M  V30 3074 O 290.716 -0.659589 -1.68876 0
M  V30 3075 C 290.764 -3.59872 0.22904 0
M  V30 3076 O 289.868 -4.04708 -0.792784 0
M  V30 3077 H 289.209 -0.653206 0.119241 0
M  V30 3078 H 291.739 -1.80471 0.96391 0
M  V30 3079 H 291.749 -4.07951 0.0634791 0
M  V30 3080 H 290.424 -3.97866 1.21141 0
M  V30 3081 H 289.001 -3.68111 -0.59572 0
M  V30 3082 N 291.186 -0.45159 -1.50991 0
M  V30 3083 C 292.134 0.366864 -2.29689 0
M  V30 3084 C 293.128 1.00809 -1.36139 0
M  V30 3085 O 294.334 0.941427 -1.53418 0
M  V30 3086 H 290.709 0.137133 -0.739391 0
M  V30 3087 H 292.68 -0.317538 -2.96706 0
M  V30 3088 C 291.429 1.44751 -3.16137 0
M  V30 3089 H 290.752 0.963473 -3.88017 0
M  V30 3090 H 292.192 1.99315 -3.74232 0
M  V30 3091 C 290.651 2.43869 -2.32442 0
M  V30 3092 O 291.181 3.4872 -1.99392 0
M  V30 3093 N 289.387 2.15105 -1.95392 0
M  V30 3094 H 288.934 1.29866 -2.22469 0
M  V30 3095 H 288.892 2.81661 -1.39693 0
M  V30 3096 N 292.664 1.56529 -0.183458 0
M  V30 3097 C 293.91 1.97537 0.459036 0
M  V30 3098 C 294.243 1.06989 1.62071 0
M  V30 3099 O 293.518 0.11948 1.94133 0
M  V30 3100 C 293.801 3.47874 0.930368 0
M  V30 3101 C 293.654 4.492 -0.232317 0
M  V30 3102 C 294.973 4.01612 1.79989 0
M  V30 3103 H 292.092 0.718204 0.165383 0
M  V30 3104 H 294.734 1.88042 -0.272038 0
M  V30 3105 H 292.884 3.56095 1.55333 0
M  V30 3106 H 294.556 4.53027 -0.86972 0
M  V30 3107 H 292.799 4.24657 -0.885928 0
M  V30 3108 H 293.47 5.51823 0.139796 0
M  V30 3109 H 295.946 3.96097 1.27461 0
M  V30 3110 H 294.822 5.07195 2.09867 0
M  V30 3111 H 295.083 3.46163 2.74998 0
M  V30 3112 N 294.142 -0.090211 1.57342 0
M  V30 3113 C 295.072 -1.10976 2.05443 0
M  V30 3114 C 296.053 -1.41482 0.944284 0
M  V30 3115 O 297.238 -1.51428 1.21586 0
M  V30 3116 C 294.368 -2.42831 2.48295 0
M  V30 3117 C 293.322 -2.26721 3.63018 0
M  V30 3118 C 292.648 -3.63796 3.91863 0
M  V30 3119 C 293.948 -1.7037 4.93732 0
M  V30 3120 H 295.642 -0.709564 2.9087 0
M  V30 3121 H 293.188 -0.339874 1.39932 0
M  V30 3122 H 295.141 -3.14431 2.80555 0
M  V30 3123 H 293.865 -2.84795 1.59873 0
M  V30 3124 H 292.524 -1.57565 3.31012 0
M  V30 3125 H 292.172 -4.03297 3.00601 0
M  V30 3126 H 291.872 -3.53861 4.69101 0
M  V30 3127 H 293.396 -4.36855 4.26603 0
M  V30 3128 H 294.81 -2.31816 5.24342 0
M  V30 3129 H 293.207 -1.71181 5.75167 0
M  V30 3130 H 294.277 -0.663542 4.80339 0
M  V30 3131 N 295.62 -1.53406 -0.361157 0
M  V30 3132 C 296.869 -1.69022 -1.10066 0
M  V30 3133 C 297.182 -0.450838 -1.90333 0
M  V30 3134 O 298.388 -0.487617 -2.67085 0
M  V30 3135 C 296.844 -2.98812 -2.00598 0
M  V30 3136 C 296.452 -4.30027 -1.25621 0
M  V30 3137 C 298.196 -3.23795 -2.74513 0
M  V30 3138 C 296.103 -5.50903 -2.1508 0
M  V30 3139 H 295.033 -0.629776 -0.414606 0
M  V30 3140 H 297.684 -1.79907 -0.361348 0
M  V30 3141 H 296.066 -2.8174 -2.78278 0
M  V30 3142 H 297.24 -4.57745 -0.529739 0
M  V30 3143 H 295.555 -4.11522 -0.635496 0
M  V30 3144 H 298.152 -4.11289 -3.41681 0
M  V30 3145 H 298.495 -2.40045 -3.40123 0
M  V30 3146 H 299.028 -3.41561 -2.03914 0
M  V30 3147 H 295.767 -6.37143 -1.54041 0
M  V30 3148 H 295.287 -5.27459 -2.85565 0
M  V30 3149 H 296.966 -5.85865 -2.74538 0
M  V30 3150 N 297.098 0.621204 -1.44841 0
M  V30 3151 C 298.347 1.37658 -1.47422 0
M  V30 3152 C 298.66 1.95264 -0.114629 0
M  V30 3153 O 299.866 2.71494 -0.0180199 0
M  V30 3154 C 298.322 2.49285 -2.59586 0
M  V30 3155 C 297.93 1.98149 -4.01797 0
M  V30 3156 C 299.674 3.26409 -2.71399 0
M  V30 3157 C 297.581 3.07178 -5.05367 0
M  V30 3158 H 296.511 0.517344 -0.548517 0
M  V30 3159 H 299.162 0.667257 -1.70938 0
M  V30 3160 H 297.544 3.22839 -2.29328 0
M  V30 3161 H 298.718 1.31395 -4.41669 0
M  V30 3162 H 297.033 1.33812 -3.94314 0
M  V30 3163 H 299.63 4.07706 -3.45948 0
M  V30 3164 H 299.973 3.76535 -1.77559 0
M  V30 3165 H 300.506 2.5995 -3.01116 0
M  V30 3166 H 297.245 2.61985 -6.00869 0
M  V30 3167 H 296.765 3.72542 -4.70077 0
M  V30 3168 H 298.444 3.71789 -5.29511 0
M  V30 3169 N 298.576 1.31904 0.862503 0
M  V30 3170 C 299.853 1.12644 1.59908 0
M  V30 3171 C 300.233 -0.316104 2.0872 0
M  V30 3172 O 299.581 -1.31145 1.87118 0
M  V30 3173 C 299.791 2.1472 2.7513 0
M  V30 3174 C 301.139 2.47637 3.44907 0
M  V30 3175 O 302.163 2.13205 2.85346 0
M  V30 3176 O 301.022 3.06632 4.52371 0
M  V30 3177 H 298.116 0.43416 0.703871 0
M  V30 3178 H 300.662 1.43408 0.907314 0
M  V30 3179 H 299.434 3.1172 2.3653 0
M  V30 3180 H 299.057 1.84905 3.51989 0
M  V30 3181 N 300.054 -1.07777 1.14986 0
M  V30 3182 C 301.331 -1.7699 0.832695 0
M  V30 3183 C 301.711 -2.001 -0.672561 0
M  V30 3184 O 301.059 -1.61598 -1.6155 0
M  V30 3185 C 301.269 -3.08139 1.63863 0
M  V30 3186 C 302.617 -3.8256 1.84208 0
M  V30 3187 O 303.641 -3.17939 1.60603 0
M  V30 3188 O 302.5 -4.98612 2.23714 0
M  V30 3189 H 299.594 -0.768389 0.305791 0
M  V30 3190 H 302.14 -1.14182 1.25541 0
M  V30 3191 H 300.912 -2.86909 2.6608 0
M  V30 3192 H 300.535 -3.78678 1.21197 0
M  V30 3193 N 301.532 -0.945985 -1.26051 0
M  V30 3194 C 302.779 -0.596118 -1.93527 0
M  V30 3195 C 303.107 0.865559 -1.74179 0
M  V30 3196 O 302.362 1.63524 -1.0751 0
M  V30 3197 C 302.661 -0.890475 -3.46129 0
M  V30 3198 C 302.327 -2.3368 -3.85622 0
M  V30 3199 C 300.989 -2.73216 -3.96114 0
M  V30 3200 C 303.341 -3.27648 -4.05334 0
M  V30 3201 C 300.669 -4.05806 -4.2372 0
M  V30 3202 C 303.021 -4.59841 -4.3443 0
M  V30 3203 C 301.685 -4.99185 -4.43137 0
M  V30 3204 H 300.955 -0.218135 -0.708165 0
M  V30 3205 H 303.602 -1.1934 -1.49768 0
M  V30 3206 H 301.907 -0.210711 -3.91233 0
M  V30 3207 H 303.604 -0.598478 -3.96509 0
M  V30 3208 H 300.194 -2.02015 -3.78005 0
M  V30 3209 H 304.378 -2.98298 -3.96651 0
M  V30 3210 H 299.634 -4.35945 -4.28675 0
M  V30 3211 H 303.808 -5.32641 -4.48628 0
M  V30 3212 H 301.435 -6.01952 -4.64282 0
M  V30 3213 N 303.011 1.40521 -0.713556 0
M  V30 3214 C 303.944 2.28198 -0.00881422 0
M  V30 3215 C 304.922 1.43227 0.769735 0
M  V30 3216 O 306.106 1.72641 0.756799 0
M  V30 3217 C 303.233 3.23758 0.994899 0
M  V30 3218 C 302.279 4.25391 0.3074 0
M  V30 3219 S 303.112 5.26765 -0.963247 0
M  V30 3220 C 304.268 6.25888 0.0384143 0
M  V30 3221 H 304.501 2.87622 -0.752407 0
M  V30 3222 H 302.034 1.45925 -0.504502 0
M  V30 3223 H 303.992 3.79341 1.56879 0
M  V30 3224 H 302.653 2.63396 1.71118 0
M  V30 3225 H 301.846 4.92596 1.0661 0
M  V30 3226 H 301.448 3.73497 -0.193879 0
M  V30 3227 H 303.74 6.71683 0.885912 0
M  V30 3228 H 304.683 7.05552 -0.60019 0
M  V30 3229 H 305.091 5.63072 0.401233 0
M  V30 3230 N 304.489 0.459591 1.5075 0
M  V30 3231 C 305.436 -0.340524 2.28274 0
M  V30 3232 C 306.406 -0.997371 1.32822 0
M  V30 3233 O 307.591 -1.01202 1.61749 0
M  V30 3234 C 304.731 -1.42317 3.14388 0
M  V30 3235 C 303.844 -0.782251 4.24859 0
M  V30 3236 C 302.979 -1.84182 4.98247 0
M  V30 3237 C 302.018 -1.18053 6.00608 0
M  V30 3238 N 301.155 -2.18244 6.67319 0
M  V30 3239 H 305.995 0.326899 2.96202 0
M  V30 3240 H 303.532 0.173057 1.46078 0
M  V30 3241 H 305.49 -2.06241 3.62658 0
M  V30 3242 H 304.12 -2.05992 2.4853 0
M  V30 3243 H 303.172 -0.0307404 3.80388 0
M  V30 3244 H 304.484 -0.259663 4.98124 0
M  V30 3245 H 303.638 -2.55714 5.50177 0
M  V30 3246 H 302.377 -2.39819 4.24662 0
M  V30 3247 H 301.382 -0.450776 5.47949 0
M  V30 3248 H 302.607 -0.631202 6.7616 0
M  V30 3249 H 300.553 -2.72919 5.96533 0
M  V30 3250 H 300.47 -1.70938 7.36421 0
M  V30 3251 H 301.738 -2.89191 7.23871 0
M  V30 3252 N 305.967 -1.56429 0.191757 0
M  V30 3253 C 306.93 -2.17707 -0.716688 0
M  V30 3254 C 307.93 -1.13061 -1.14341 0
M  V30 3255 O 309.12 -1.38464 -1.05704 0
M  V30 3256 C 306.252 -2.77644 -1.97804 0
M  V30 3257 H 307.445 -2.99342 -0.1829 0
M  V30 3258 H 304.998 -1.56193 -0.0578566 0
M  V30 3259 H 305.733 -1.99799 -2.55443 0
M  V30 3260 H 305.518 -3.54246 -1.68083 0
M  V30 3261 H 307.008 -3.24708 -2.62592 0
M  V30 3262 N 307.445 0.0818655 -1.57387 0
M  V30 3263 C 308.693 0.781368 -1.86384 0
M  V30 3264 C 309.014 1.78618 -0.782342 0
M  V30 3265 O 308.284 1.94976 0.190061 0
M  V30 3266 H 306.864 0.291562 -0.687751 0
M  V30 3267 H 309.526 0.060348 -1.94807 0
M  V30 3268 H 308.622 1.3038 -2.83562 0
M  V30 3269 N 308.923 1.53595 0.353017 0
M  V30 3270 C 310.171 1.70049 1.09215 0
M  V30 3271 C 310.492 0.461406 1.89463 0
M  V30 3272 O 309.762 -0.524633 1.88744 0
M  V30 3273 H 308.342 0.626912 0.40619 0
M  V30 3274 H 311.004 1.90822 0.396585 0
M  V30 3275 H 310.1 2.56718 1.77488 0
M  V30 3276 N 310.401 -0.613514 1.45168 0
M  V30 3277 C 311.629 -1.39946 1.5239 0
M  V30 3278 C 312.044 -1.88167 0.154531 0
M  V30 3279 O 311.401 -1.61872 -0.842843 0
M  V30 3280 C 311.452 -2.60795 2.50337 0
M  V30 3281 O 311.173 -2.1458 3.81952 0
M  V30 3282 C 312.674 -3.53723 2.67198 0
M  V30 3283 H 309.894 -0.428593 0.516284 0
M  V30 3284 H 312.438 -0.748753 1.903 0
M  V30 3285 H 310.593 -3.21919 2.15515 0
M  V30 3286 H 311.007 -2.93055 4.34993 0
M  V30 3287 H 312.481 -4.35079 3.39721 0
M  V30 3288 H 312.958 -4.0368 1.73029 0
M  V30 3289 H 313.564 -2.98456 3.02992 0
M  V30 3290 N 311.879 -1.3236 -0.855495 0
M  V30 3291 C 313.128 -1.22226 -1.60448 0
M  V30 3292 C 313.441 0.214733 -1.94418 0
M  V30 3293 O 314.647 0.437917 -2.67945 0
M  V30 3294 C 313.103 -2.14063 -2.89318 0
M  V30 3295 C 312.711 -3.62839 -2.62777 0
M  V30 3296 C 314.455 -2.12764 -3.67331 0
M  V30 3297 C 312.362 -4.4664 -3.87643 0
M  V30 3298 H 311.292 -0.453904 -0.602069 0
M  V30 3299 H 313.943 -1.57314 -0.944698 0
M  V30 3300 H 312.325 -1.71889 -3.5675 0
M  V30 3301 H 313.499 -4.1335 -2.03662 0
M  V30 3302 H 311.814 -3.66261 -1.98096 0
M  V30 3303 H 314.411 -2.72611 -4.59987 0
M  V30 3304 H 314.754 -1.11841 -4.00995 0
M  V30 3305 H 315.287 -2.53214 -3.06802 0
M  V30 3306 H 312.026 -5.48373 -3.5912 0
M  V30 3307 H 311.546 -4.0088 -4.46156 0
M  V30 3308 H 313.225 -4.59597 -4.55389 0
M  V30 3309 N 313.357 1.07166 -1.15556 0
M  V30 3310 C 314.305 2.16517 -0.8499 0
M  V30 3311 C 315.299 1.68468 0.177454 0
M  V30 3312 O 316.505 1.79971 0.0323026 0
M  V30 3313 H 312.88 0.706652 -0.25719 0
M  V30 3314 H 314.851 2.39514 -1.77976 0
M  V30 3315 C 313.6 3.45855 -0.357682 0
M  V30 3316 H 312.923 3.83214 -1.13961 0
M  V30 3317 H 314.363 4.23607 -0.182489 0
M  V30 3318 C 312.822 3.24062 0.921152 0
M  V30 3319 O 313.352 3.48813 1.9923 0
M  V30 3320 N 311.558 2.77539 0.86141 0
M  V30 3321 H 311.105 2.57598 -0.0104408 0
M  V30 3322 H 311.063 2.63337 1.71758 0
M  V30 3323 N 314.835 0.952656 1.25548 0
M  V30 3324 C 316.083 0.605176 1.92826 0
M  V30 3325 C 316.404 -0.860261 1.74999 0
M  V30 3326 O 315.674 -1.6125 1.11244 0
M  V30 3327 H 314.254 0.220832 0.713612 0
M  V30 3328 H 316.916 1.21047 1.52754 0
M  V30 3329 H 316.012 0.832798 3.00784 0
M  V30 3330 N 316.313 -1.40141 0.720998 0
M  V30 3331 C 317.246 -2.2819 0.020916 0
M  V30 3332 C 318.224 -1.43633 -0.762129 0
M  V30 3333 O 319.408 -1.7304 -0.747633 0
M  V30 3334 C 316.535 -3.24281 -0.977715 0
M  V30 3335 C 315.581 -4.25548 -0.284836 0
M  V30 3336 S 316.414 -5.26247 0.991169 0
M  V30 3337 C 317.57 -6.259 -0.0052214 0
M  V30 3338 H 317.803 -2.87218 0.767649 0
M  V30 3339 H 315.336 -1.45656 0.512233 0
M  V30 3340 H 317.294 -3.80167 -1.54865 0
M  V30 3341 H 315.955 -2.643 -1.69719 0
M  V30 3342 H 315.148 -4.93154 -1.03996 0
M  V30 3343 H 314.75 -3.73389 0.213684 0
M  V30 3344 H 317.042 -6.72143 -0.850279 0
M  V30 3345 H 317.985 -7.05224 0.637599 0
M  V30 3346 H 318.393 -5.63277 -0.371366 0
M  V30 3347 N 317.792 -0.46758 -1.50504 0
M  V30 3348 C 319.041 0.0902868 -2.01498 0
M  V30 3349 C 319.354 1.411 -1.35463 0
M  V30 3350 O 320.56 2.0536 -1.77594 0
M  V30 3351 C 319.016 0.21142 -3.59278 0
M  V30 3352 C 318.624 -1.10065 -4.34269 0
M  V30 3353 C 320.368 0.721433 -4.18325 0
M  V30 3354 C 318.275 -0.943505 -5.83825 0
M  V30 3355 H 317.205 0.037517 -0.753066 0
M  V30 3356 H 319.856 -0.601943 -1.73346 0
M  V30 3357 H 318.238 0.967352 -3.84003 0
M  V30 3358 H 319.412 -1.86726 -4.21272 0
M  V30 3359 H 317.727 -1.5415 -3.86816 0
M  V30 3360 H 320.324 0.85598 -5.27804 0
M  V30 3361 H 320.667 1.71186 -3.79475 0
M  V30 3362 H 321.2 0.0229843 -3.97793 0
M  V30 3363 H 317.939 -1.90719 -6.27141 0
M  V30 3364 H 317.459 -0.217213 -5.99407 0
M  V30 3365 H 319.138 -0.608715 -6.4413 0
M  V30 3366 N 319.27 1.56325 -0.20005 0
M  V30 3367 C 320.218 2.20666 0.735482 0
M  V30 3368 C 321.212 1.17934 1.21605 0
M  V30 3369 O 322.418 1.36068 1.17837 0
M  V30 3370 H 318.793 0.70725 0.255542 0
M  V30 3371 H 320.764 2.9792 0.169166 0
M  V30 3372 C 319.513 2.88391 1.94232 0
M  V30 3373 H 318.836 3.67185 1.58161 0
M  V30 3374 H 320.276 3.3684 2.57517 0
M  V30 3375 C 318.735 1.89692 2.78421 0
M  V30 3376 O 319.265 1.40032 3.76502 0
M  V30 3377 N 317.471 1.57813 2.44015 0
M  V30 3378 H 317.018 1.9839 1.64314 0
M  V30 3379 H 316.976 0.920325 3.00628 0
M  V30 3380 N 320.748 -0.0735177 1.57428 0
M  V30 3381 C 321.678 -1.0879 2.06608 0
M  V30 3382 C 322.659 -1.40473 0.959237 0
M  V30 3383 O 323.844 -1.5013 1.23185 0
M  V30 3384 C 320.974 -2.40183 2.50857 0
M  V30 3385 C 319.928 -2.22858 3.65402 0
M  V30 3386 C 319.254 -3.59619 3.957 0
M  V30 3387 C 320.554 -1.65123 4.95511 0
M  V30 3388 H 322.248 -0.678673 2.91607 0
M  V30 3389 H 319.794 -0.325013 1.40284 0
M  V30 3390 H 321.747 -3.11437 2.83874 0
M  V30 3391 H 320.471 -2.83083 1.62885 0
M  V30 3392 H 319.13 -1.54045 3.32664 0
M  V30 3393 H 318.778 -4.00086 3.04861 0
M  V30 3394 H 318.478 -3.48866 4.72828 0
M  V30 3395 H 320.002 -4.32306 4.31212 0
M  V30 3396 H 321.416 -2.26241 5.26771 0
M  V30 3397 H 319.813 -1.65071 5.7695 0
M  V30 3398 H 320.883 -0.612559 4.81015 0
M  V30 3399 N 322.226 -1.5378 -0.344866 0
M  V30 3400 C 323.156 -1.84662 -1.42906 0
M  V30 3401 C 324.137 -0.701648 -1.54955 0
M  V30 3402 O 325.322 -0.953438 -1.69184 0
M  V30 3403 C 322.452 -2.05503 -2.79974 0
M  V30 3404 C 321.406 -3.21318 -2.82734 0
M  V30 3405 C 320.732 -3.2749 -4.22675 0
M  V30 3406 C 322.032 -4.59456 -2.48389 0
M  V30 3407 H 323.726 -2.75461 -1.17311 0
M  V30 3408 H 321.272 -1.32542 -0.562896 0
M  V30 3409 H 323.225 -2.25691 -3.55867 0
M  V30 3410 H 321.949 -1.11434 -3.07002 0
M  V30 3411 H 320.608 -3.00984 -2.09294 0
M  V30 3412 H 320.256 -2.31019 -4.4681 0
M  V30 3413 H 319.956 -4.05316 -4.25433 0
M  V30 3414 H 321.48 -3.49887 -5.00412 0
M  V30 3415 H 322.894 -4.79667 -3.13995 0
M  V30 3416 H 321.291 -5.39675 -2.62432 0
M  V30 3417 H 322.361 -4.63155 -1.4358 0
M  V30 3418 N 323.704 0.605807 -1.45491 0
M  V30 3419 C 324.981 1.36522 -1.40075 0
M  V30 3420 C 325.361 2.10976 -0.0722744 0
M  V30 3421 O 324.709 2.08007 0.945808 0
M  V30 3422 C 324.919 2.31056 -2.61561 0
M  V30 3423 C 326.267 2.93608 -3.06724 0
M  V30 3424 O 327.291 2.41376 -2.61946 0
M  V30 3425 O 326.15 3.88421 -3.84437 0
M  V30 3426 H 323.244 0.612248 -0.555951 0
M  V30 3427 H 325.79 0.628747 -1.57623 0
M  V30 3428 H 324.562 1.75311 -3.49831 0
M  V30 3429 H 324.185 3.12081 -2.46356 0
M  V30 3430 N 325.182 1.32811 0.848464 0
M  V30 3431 C 326.092 1.24278 1.98978 0
M  V30 3432 C 327.108 0.155176 1.73307 0
M  V30 3433 O 328.284 0.376999 1.9784 0
M  V30 3434 C 325.349 0.972444 3.32783 0
M  V30 3435 C 324.41 2.14911 3.71634 0
M  V30 3436 C 323.643 1.89157 4.99054 0
M  V30 3437 O 323.866 0.837165 5.64223 0
M  V30 3438 O 322.8 2.75433 5.35183 0
M  V30 3439 H 326.626 2.20238 2.09115 0
M  V30 3440 H 324.211 1.12762 0.980052 0
M  V30 3441 H 326.093 0.838432 4.12975 0
M  V30 3442 H 324.768 0.043051 3.23671 0
M  V30 3443 H 323.675 2.33862 2.91992 0
M  V30 3444 H 325.008 3.06151 3.85399 0
M  V30 3445 N 326.66 -1.06551 1.16123 0
M  V30 3446 C 327.907 -1.79302 0.941126 0
M  V30 3447 C 328.235 -1.87105 -0.531235 0
M  V30 3448 O 327.49 -1.35692 -1.41018 0
M  V30 3449 C 327.789 -3.23911 1.51052 0
M  V30 3450 C 327.455 -3.36193 3.00475 0
M  V30 3451 C 326.117 -3.39252 3.41265 0
M  V30 3452 C 328.469 -3.38326 3.96465 0
M  V30 3453 C 325.797 -3.42057 4.76669 0
M  V30 3454 C 328.149 -3.4267 5.31752 0
M  V30 3455 C 326.813 -3.4401 5.72026 0
M  V30 3456 H 326.083 -0.656111 0.344382 0
M  V30 3457 H 328.73 -1.25325 1.44796 0
M  V30 3458 H 327.035 -3.80723 0.925063 0
M  V30 3459 H 328.732 -3.78793 1.31593 0
M  V30 3460 H 325.322 -3.34516 2.6795 0
M  V30 3461 H 329.506 -3.35176 3.6602 0
M  V30 3462 H 324.762 -3.41398 5.07206 0
M  V30 3463 H 328.936 -3.43268 6.05921 0
M  V30 3464 H 326.563 -3.45937 6.76928 0
M  V30 3465 N 328.138 -0.959301 -1.25041 0
M  V30 3466 C 329.086 -0.474437 -2.2771 0
M  V30 3467 C 330.08 0.457697 -1.631 0
M  V30 3468 O 331.286 0.333912 -1.76876 0
M  V30 3469 H 327.661 -0.134936 -0.739795 0
M  V30 3470 H 329.632 -1.35251 -2.65988 0
M  V30 3471 C 328.381 0.227884 -3.46952 0
M  V30 3472 H 327.704 -0.480248 -3.96905 0
M  V30 3473 H 329.144 0.531091 -4.20661 0
M  V30 3474 C 327.603 1.452 -3.04004 0
M  V30 3475 O 328.133 2.54949 -3.10426 0
M  V30 3476 N 326.339 1.31502 -2.59144 0
M  V30 3477 H 325.886 0.422065 -2.54119 0
M  V30 3478 H 325.844 2.13521 -2.30773 0
M  V30 3479 N 329.616 1.39756 -0.72842 0
M  V30 3480 C 330.579 2.29012 -0.0927297 0
M  V30 3481 C 331.579 1.45992 0.674025 0
M  V30 3482 O 332.769 1.66749 0.50402 0
M  V30 3483 C 329.901 3.29396 0.878137 0
M  V30 3484 H 331.094 2.86729 -0.879011 0
M  V30 3485 H 328.647 1.48293 -0.493847 0
M  V30 3486 H 329.382 2.76722 1.69101 0
M  V30 3487 H 329.167 3.907 0.331051 0
M  V30 3488 H 330.657 3.96199 1.3197 0
M  V30 3489 N 331.094 0.475555 1.50254 0
M  V30 3490 C 332.042 -0.330276 2.30243 0
M  V30 3491 C 333.036 -0.986306 1.37726 0
M  V30 3492 O 334.242 -0.9169 1.54897 0
M  V30 3493 H 330.617 -0.125353 0.741479 0
M  V30 3494 H 332.588 0.364702 2.96163 0
M  V30 3495 C 331.337 -1.39704 3.18399 0
M  V30 3496 H 330.66 -0.901621 3.89501 0
M  V30 3497 H 332.1 -1.93336 3.77355 0
M  V30 3498 C 330.559 -2.4014 2.36293 0
M  V30 3499 O 331.089 -3.45504 2.04914 0
M  V30 3500 N 329.295 -2.1197 1.98789 0
M  V30 3501 H 328.842 -1.2631 2.24507 0
M  V30 3502 H 328.8 -2.79403 1.44157 0
M  V30 3503 N 332.573 -1.56217 0.208337 0
M  V30 3504 C 333.819 -1.98242 -0.427552 0
M  V30 3505 C 334.152 -1.09554 -1.60348 0
M  V30 3506 O 333.427 -0.15035 -1.93918 0
M  V30 3507 C 333.71 -3.4931 -0.874907 0
M  V30 3508 C 333.563 -4.48773 0.303751 0
M  V30 3509 C 334.882 -4.04424 -1.73577 0
M  V30 3510 H 332.001 -0.720744 -0.153936 0
M  V30 3511 H 334.643 -1.87586 0.30192 0
M  V30 3512 H 332.793 -3.58522 -1.49648 0
M  V30 3513 H 334.465 -4.51586 0.941682 0
M  V30 3514 H 332.708 -4.23194 0.953375 0
M  V30 3515 H 333.379 -5.51976 -0.0519883 0
M  V30 3516 H 335.855 -3.98075 -1.21143 0
M  V30 3517 H 334.731 -5.1047 -2.01771 0
M  V30 3518 H 334.992 -3.50494 -2.69456 0
M  V30 3519 N 334.051 0.0651679 -1.57465 0
M  V30 3520 C 335.014 1.06117 -2.03155 0
M  V30 3521 C 336.014 1.31204 -0.929632 0
M  V30 3522 O 337.204 1.26813 -1.19432 0
M  V30 3523 C 334.336 2.4032 -2.41783 0
M  V30 3524 H 335.529 0.667231 -2.92383 0
M  V30 3525 H 333.082 0.311075 -1.53173 0
M  V30 3526 H 333.817 2.84532 -1.55601 0
M  V30 3527 H 333.602 2.23451 -3.22199 0
M  V30 3528 H 335.092 3.11898 -2.77685 0
M  V30 3529 N 335.529 1.53961 0.336706 0
M  V30 3530 C 336.777 1.71197 1.07405 0
M  V30 3531 C 337.098 0.481475 1.88962 0
M  V30 3532 O 336.368 -0.504585 1.8929 0
M  V30 3533 H 334.948 0.631185 0.399517 0
M  V30 3534 H 337.61 1.91232 0.376323 0
M  V30 3535 H 336.706 2.58587 1.74755 0
M  V30 3536 N 337.007 -0.598083 1.45811 0
M  V30 3537 C 338.256 -1.35295 1.49594 0
M  V30 3538 C 338.569 -1.95057 0.145679 0
M  V30 3539 O 339.775 -2.71431 0.0612099 0
M  V30 3540 C 338.231 -2.45124 2.63519 0
M  V30 3541 C 337.839 -1.91732 4.04899 0
M  V30 3542 C 339.583 -3.2205 2.76558 0
M  V30 3543 C 337.49 -2.991 5.1019 0
M  V30 3544 H 336.42 -0.508552 0.556679 0
M  V30 3545 H 339.071 -0.639977 1.71978 0
M  V30 3546 H 337.453 -3.19149 2.34435 0
M  V30 3547 H 338.627 -1.24352 4.43704 0
M  V30 3548 H 336.942 -1.27522 3.96393 0
M  V30 3549 H 339.539 -4.0215 3.52391 0
M  V30 3550 H 339.882 -3.73663 1.83526 0
M  V30 3551 H 340.415 -2.55127 3.05213 0
M  V30 3552 H 337.154 -2.52393 6.04961 0
M  V30 3553 H 336.674 -3.65017 4.75944 0
M  V30 3554 H 338.353 -3.63318 5.35359 0
M  V30 3555 N 338.485 -1.33259 -0.841409 0
M  V30 3556 C 339.733 -1.24326 -1.59334 0
M  V30 3557 C 340.054 0.191564 -1.94057 0
M  V30 3558 O 339.324 1.11967 -1.60749 0
M  V30 3559 H 337.904 -0.457174 -0.590763 0
M  V30 3560 H 340.566 -1.66947 -1.00571 0
M  V30 3561 H 339.662 -1.8352 -2.52442 0
M  V30 3562 N 339.963 1.05934 -1.16686 0
M  V30 3563 C 341.209 1.79065 -0.95203 0
M  V30 3564 C 341.542 1.87147 0.518629 0
M  V30 3565 O 340.817 1.36574 1.38484 0
M  V30 3566 C 341.1 3.23359 -1.58464 0
M  V30 3567 C 340.953 3.23336 -3.12689 0
M  V30 3568 C 342.272 4.21004 -1.28232 0
M  V30 3569 H 339.391 0.65005 -0.34728 0
M  V30 3570 H 342.033 1.23868 -1.44072 0
M  V30 3571 H 340.183 3.70493 -1.16908 0
M  V30 3572 H 341.855 2.84336 -3.6325 0
M  V30 3573 H 340.098 2.61886 -3.4583 0
M  V30 3574 H 340.769 4.25144 -3.52075 0
M  V30 3575 H 343.245 3.8233 -1.64203 0
M  V30 3576 H 342.121 5.20225 -1.75092 0
M  V30 3577 H 342.382 4.41639 -0.201791 0
M  V30 3578 N 341.441 0.965919 1.2453 0
M  V30 3579 C 342.371 0.513476 2.27784 0
M  V30 3580 C 343.352 -0.445974 1.6415 0
M  V30 3581 O 344.537 -0.342485 1.91156 0
M  V30 3582 C 341.667 -0.198839 3.4673 0
M  V30 3583 C 340.621 0.676456 4.2262 0
M  V30 3584 C 339.947 -0.167248 5.34438 0
M  V30 3585 C 341.247 1.96017 4.84123 0
M  V30 3586 H 342.941 1.3765 2.65881 0
M  V30 3587 H 340.487 0.663321 1.27813 0
M  V30 3588 H 342.44 -0.526567 4.18097 0
M  V30 3589 H 341.164 -1.0962 3.07654 0
M  V30 3590 H 339.823 0.98743 3.53052 0
M  V30 3591 H 339.471 -1.0647 4.91603 0
M  V30 3592 H 339.171 0.415181 5.86131 0
M  V30 3593 H 340.695 -0.489688 6.08633 0
M  V30 3594 H 342.109 1.69814 5.47573 0
M  V30 3595 H 340.506 2.48918 5.4604 0
M  V30 3596 H 341.576 2.65622 4.05676 0
M  V30 3597 N 342.919 -1.39368 0.735821 0
M  V30 3598 C 344.165 -2.00794 0.284544 0
M  V30 3599 C 344.498 -1.58255 -1.12557 0
M  V30 3600 O 343.773 -0.811819 -1.76748 0
M  V30 3601 C 344.056 -3.58011 0.387337 0
M  V30 3602 C 343.909 -4.10566 1.83728 0
M  V30 3603 C 345.228 -4.395 -0.22975 0
M  V30 3604 H 342.347 -0.729501 0.104866 0
M  V30 3605 H 344.989 -1.65564 0.93213 0
M  V30 3606 H 343.139 -3.88154 -0.164006 0
M  V30 3607 H 344.811 -3.91139 2.44556 0
M  V30 3608 H 343.054 -3.64095 2.35833 0
M  V30 3609 H 343.725 -5.19702 1.86047 0
M  V30 3610 H 346.201 -4.15406 0.240257 0
M  V30 3611 H 345.077 -5.48752 -0.127485 0
M  V30 3612 H 345.338 -4.22062 -1.3159 0
M  V30 3613 N 344.397 -0.483516 -1.5 0
M  V30 3614 C 345.307 0.309172 -2.32554 0
M  V30 3615 C 346.323 0.984159 -1.43493 0
M  V30 3616 O 347.499 0.969399 -1.76535 0
M  V30 3617 C 344.564 1.36979 -3.18493 0
M  V30 3618 C 343.625 0.710095 -4.23387 0
M  V30 3619 C 342.858 1.72018 -5.05218 0
M  V30 3620 O 343.081 2.94813 -4.88305 0
M  V30 3621 O 342.015 1.28515 -5.8802 0
M  V30 3622 H 345.841 -0.366064 -3.01486 0
M  V30 3623 H 343.426 -0.24514 -1.47375 0
M  V30 3624 H 345.308 1.98385 -3.71781 0
M  V30 3625 H 343.983 2.02828 -2.52275 0
M  V30 3626 H 342.89 0.0567539 -3.74057 0
M  V30 3627 H 344.223 0.0943557 -4.9211 0
M  V30 3628 N 345.875 1.56104 -0.216619 0
M  V30 3629 C 346.838 2.18819 0.681962 0
M  V30 3630 C 347.838 1.14866 1.12528 0
M  V30 3631 O 349.028 1.40128 1.03488 0
M  V30 3632 C 346.16 2.80756 1.93362 0
M  V30 3633 H 347.353 2.99595 0.135254 0
M  V30 3634 H 344.906 1.56265 0.0330003 0
M  V30 3635 H 345.641 2.03837 2.52232 0
M  V30 3636 H 345.426 3.56876 1.62426 0
M  V30 3637 H 346.916 3.28844 2.57393 0
M  V30 3638 N 347.353 -0.0568162 1.57498 0
M  V30 3639 C 348.263 -1.08346 2.08083 0
M  V30 3640 C 349.279 -1.41439 1.01346 0
M  V30 3641 O 350.455 -1.51316 1.32912 0
M  V30 3642 C 347.52 -2.37352 2.52715 0
M  V30 3643 C 346.581 -2.11093 3.73816 0
M  V30 3644 C 345.814 -3.33949 4.1631 0
M  V30 3645 O 346.037 -4.43622 3.58547 0
M  V30 3646 O 344.971 -3.21279 5.08983 0
M  V30 3647 H 348.797 -0.683667 2.95905 0
M  V30 3648 H 346.382 -0.271965 1.46904 0
M  V30 3649 H 348.264 -3.13246 2.81877 0
M  V30 3650 H 346.939 -2.76681 1.68016 0
M  V30 3651 H 345.846 -1.32856 3.49714 0
M  V30 3652 H 347.179 -1.76637 4.59413 0
M  V30 3653 N 348.832 -1.54138 -0.328536 0
M  V30 3654 C 350.08 -1.71765 -1.06496 0
M  V30 3655 C 350.401 -0.49149 -1.88704 0
M  V30 3656 O 349.671 0.494539 -1.89555 0
M  V30 3657 H 348.251 -0.633295 -0.396164 0
M  V30 3658 H 350.913 -1.91429 -0.366176 0
M  V30 3659 H 350.009 -2.5951 -1.73381 0
M  V30 3660 N 350.31 0.590341 -1.46126 0
M  V30 3661 C 351.556 1.35082 -1.51264 0
M  V30 3662 C 351.889 1.93534 -0.160711 0
M  V30 3663 O 351.164 1.76045 0.826956 0
M  V30 3664 C 351.447 2.48588 -2.6053 0
M  V30 3665 C 351.3 1.95221 -4.05227 0
M  V30 3666 C 352.619 3.50662 -2.6594 0
M  V30 3667 H 349.738 0.489803 -0.550692 0
M  V30 3668 H 352.38 0.663887 -1.78024 0
M  V30 3669 H 350.53 3.07186 -2.37843 0
M  V30 3670 H 352.202 1.41139 -4.39178 0
M  V30 3671 H 350.445 1.26101 -4.15068 0
M  V30 3672 H 351.116 2.77121 -4.77397 0
M  V30 3673 H 353.592 3.01934 -2.86313 0
M  V30 3674 H 352.468 4.27551 -3.44226 0
M  V30 3675 H 352.729 4.07399 -1.71694 0
M  V30 3676 N 351.788 1.33704 0.83433 0
M  V30 3677 C 353.065 1.16011 1.57483 0
M  V30 3678 C 353.445 -0.27176 2.09343 0
M  V30 3679 O 352.793 -1.27146 1.89858 0
M  V30 3680 C 353.003 2.20507 2.70514 0
M  V30 3681 C 354.351 2.54898 3.39577 0
M  V30 3682 O 355.375 2.19209 2.80759 0
M  V30 3683 O 354.234 3.16158 4.45765 0
M  V30 3684 H 351.328 0.448992 0.694503 0
M  V30 3685 H 353.874 1.453 0.876691 0
M  V30 3686 H 352.646 3.16667 2.29865 0
M  V30 3687 H 352.269 1.92329 3.47987 0
M  V30 3688 N 353.266 -1.05314 1.17247 0
M  V30 3689 C 354.176 -2.16538 0.90268 0
M  V30 3690 C 355.192 -1.73523 -0.128707 0
M  V30 3691 O 356.368 -2.01337 0.0502701 0
M  V30 3692 C 353.433 -3.44167 0.418356 0
M  V30 3693 C 352.494 -4.01635 1.51618 0
M  V30 3694 C 351.727 -5.23171 1.05487 0
M  V30 3695 O 351.95 -5.70327 -0.0914715 0
M  V30 3696 O 350.884 -5.72848 1.8474 0
M  V30 3697 H 354.71 -2.42145 1.83302 0
M  V30 3698 H 352.295 -1.15037 0.953246 0
M  V30 3699 H 354.177 -4.21112 0.155726 0
M  V30 3700 H 352.852 -3.20063 -0.48385 0
M  V30 3701 H 351.759 -3.26135 1.83268 0
M  V30 3702 H 353.092 -4.30053 2.39405 0
M  V30 3703 N 354.744 -0.972509 -1.24016 0
M  V30 3704 C 356.16 -0.679827 -1.44397 0
M  V30 3705 C 356.36 0.756716 -1.86751 0
M  V30 3706 O 355.416 1.53007 -2.00861 0
M  V30 3707 C 356.729 -1.66803 -2.50195 0
M  V30 3708 C 358.277 -1.68119 -2.64017 0
M  V30 3709 C 358.752 -2.65748 -3.73017 0
M  V30 3710 N 360.243 -2.64219 -3.8045 0
M  V30 3711 C 360.978 -3.36433 -4.64328 0
M  V30 3712 N 360.474 -4.1818 -5.52356 0
M  V30 3713 N 362.267 -3.25235 -4.58453 0
M  V30 3714 H 354.418 -1.90059 -0.948228 0
M  V30 3715 H 356.681 -0.818527 -0.478245 0
M  V30 3716 H 356.387 -2.69498 -2.25973 0
M  V30 3717 H 356.261 -1.4446 -3.48441 0
M  V30 3718 H 358.648 -0.661319 -2.87594 0
M  V30 3719 H 358.729 -1.94525 -1.66113 0
M  V30 3720 H 358.373 -3.67872 -3.50189 0
M  V30 3721 H 358.303 -2.36619 -4.70446 0
M  V30 3722 H 360.794 -2.04887 -3.17537 0
M  V30 3723 H 361.107 -4.70157 -6.13329 0
M  V30 3724 H 359.452 -4.22273 -5.52006 0
M  V30 3725 H 362.643 -2.60829 -3.88698 0
M  V30 3726 H 362.816 -3.81776 -5.23594 0
M  V30 3727 N 356.222 1.38976 -0.743202 0
M  V30 3728 C 357.152 2.33171 -0.123873 0
M  V30 3729 C 358.133 1.54336 0.71516 0
M  V30 3730 O 359.318 1.82696 0.658467 0
M  V30 3731 C 356.448 3.38474 0.777978 0
M  V30 3732 C 355.402 4.27979 0.0424758 0
M  V30 3733 C 354.728 5.2405 1.06189 0
M  V30 3734 C 356.028 5.10155 -1.1198 0
M  V30 3735 H 357.722 2.85213 -0.910709 0
M  V30 3736 H 355.268 1.37133 -0.439388 0
M  V30 3737 H 357.221 4.03328 1.22084 0
M  V30 3738 H 355.945 2.84891 1.59702 0
M  V30 3739 H 354.604 3.64616 -0.380853 0
M  V30 3740 H 354.252 4.66758 1.87472 0
M  V30 3741 H 353.952 5.84785 0.574485 0
M  V30 3742 H 355.476 5.9178 1.50428 0
M  V30 3743 H 356.89 5.68307 -0.75499 0
M  V30 3744 H 355.287 5.80073 -1.53738 0
M  V30 3745 H 356.357 4.44504 -1.93764 0
M  V30 3746 N 357.7 0.491464 1.49741 0
M  V30 3747 C 358.946 -0.0565092 2.02721 0
M  V30 3748 C 359.279 -1.37522 1.37118 0
M  V30 3749 O 358.554 -1.87866 0.503645 0
M  V30 3750 C 358.837 -0.219051 3.59433 0
M  V30 3751 C 358.69 1.12211 4.35579 0
M  V30 3752 C 360.009 -0.964157 4.29409 0
M  V30 3753 H 357.128 -0.0190627 0.736753 0
M  V30 3754 H 359.77 0.641021 1.7886 0
M  V30 3755 H 357.92 -0.813165 3.79895 0
M  V30 3756 H 359.592 1.75437 4.26637 0
M  V30 3757 H 357.835 1.71377 3.98513 0
M  V30 3758 H 358.506 0.961794 5.43556 0
M  V30 3759 H 360.982 -0.460378 4.13545 0
M  V30 3760 H 359.858 -1.04671 5.38828 0
M  V30 3761 H 360.119 -2.00563 3.93988 0
M  V30 3762 N 359.178 -1.55987 0.224894 0
M  V30 3763 C 360.455 -1.90232 -0.455083 0
M  V30 3764 C 360.835 -1.14269 -1.77499 0
M  V30 3765 O 360.183 -0.253079 -2.27094 0
M  V30 3766 C 360.393 -3.42993 -0.644758 0
M  V30 3767 C 361.741 -4.13821 -0.950669 0
M  V30 3768 O 362.765 -3.4861 -0.731423 0
M  V30 3769 O 361.624 -5.29128 -1.36695 0
M  V30 3770 H 358.718 -0.79108 -0.241084 0
M  V30 3771 H 361.264 -1.67581 0.267327 0
M  V30 3772 H 360.036 -3.90252 0.28613 0
M  V30 3773 H 359.659 -3.71434 -1.41853 0
M  V30 3774 N 360.656 0.0484629 -1.57525 0
M  V30 3775 C 361.566 1.07241 -2.08654 0
M  V30 3776 C 362.582 1.409 -1.02095 0
M  V30 3777 O 363.758 1.50609 -1.33712 0
M  V30 3778 C 360.823 2.36008 -2.5397 0
M  V30 3779 C 359.884 2.09108 -3.7493 0
M  V30 3780 C 359.117 3.31736 -4.18075 0
M  V30 3781 O 359.34 4.41714 -3.60895 0
M  V30 3782 O 358.274 3.18576 -5.10679 0
M  V30 3783 H 362.1 0.667965 -2.96263 0
M  V30 3784 H 359.685 0.26417 -1.47046 0
M  V30 3785 H 361.567 3.11747 -2.83535 0
M  V30 3786 H 360.242 2.75786 -1.69481 0
M  V30 3787 H 359.149 1.31 -3.50414 0
M  V30 3788 H 360.482 1.74198 -4.60343 0
M  V30 3789 N 362.134 1.5431 0.320358 0
M  V30 3790 C 363.364 1.7638 1.07582 0
M  V30 3791 C 363.772 0.513944 1.82086 0
M  V30 3792 O 363.115 -0.525123 1.76035 0
M  V30 3793 C 363.177 2.9055 2.1171 0
M  V30 3794 C 362.841 4.2934 1.56575 0
M  V30 3795 C 363.838 5.10077 1.00586 0
M  V30 3796 C 361.523 4.75893 1.60722 0
M  V30 3797 C 363.517 6.35477 0.494756 0
M  V30 3798 C 361.204 6.0126 1.09224 0
M  V30 3799 C 362.202 6.80886 0.53696 0
M  V30 3800 O 361.89 8.03894 0.0297371 0
M  V30 3801 H 361.622 0.592369 0.325692 0
M  V30 3802 H 364.176 2.02019 0.37116 0
M  V30 3803 H 362.406 2.60489 2.85801 0
M  V30 3804 H 364.095 3.00373 2.73003 0
M  V30 3805 H 364.861 4.75265 0.966869 0
M  V30 3806 H 360.74 4.13957 2.02882 0
M  V30 3807 H 364.284 6.97574 0.0606842 0
M  V30 3808 H 360.181 6.35562 1.12831 0
M  V30 3809 H 360.949 8.18372 0.14486 0
M  V30 3810 N 363.613 -0.582584 1.46437 0
M  V30 3811 C 364.546 -1.70633 1.51524 0
M  V30 3812 C 365.524 -1.58349 0.369351 0
M  V30 3813 O 366.708 -1.79563 0.573516 0
M  V30 3814 C 363.835 -3.08687 1.39392 0
M  V30 3815 C 362.881 -3.3949 2.58164 0
M  V30 3816 S 363.714 -3.31548 4.20519 0
M  V30 3817 C 364.87 -4.72139 4.10896 0
M  V30 3818 H 365.103 -1.66058 2.46601 0
M  V30 3819 H 362.636 -0.761337 1.34324 0
M  V30 3820 H 364.594 -3.8833 1.33079 0
M  V30 3821 H 363.255 -3.10751 0.457436 0
M  V30 3822 H 362.448 -4.40071 2.45669 0
M  V30 3823 H 362.05 -2.67415 2.61468 0
M  V30 3824 H 364.342 -5.62527 3.77584 0
M  V30 3825 H 365.285 -4.89692 5.11476 0
M  V30 3826 H 365.693 -4.48995 3.42146 0
M  V30 3827 N 365.091 -1.34144 -0.827227 0
M  V30 3828 C 366.316 -1.29476 -1.62021 0
M  V30 3829 C 366.741 0.129292 -1.87655 0
M  V30 3830 O 366.099 1.08967 -1.449 0
M  V30 3831 C 366.147 -2.08702 -2.94068 0
M  V30 3832 O 365.251 -1.45359 -3.85933 0
M  V30 3833 H 364.592 -0.444881 -0.492927 0
M  V30 3834 H 367.122 -1.76882 -1.02829 0
M  V30 3835 H 367.132 -2.19898 -3.43669 0
M  V30 3836 H 365.807 -3.12241 -2.74734 0
M  V30 3837 H 364.384 -1.42879 -3.44442 0
M  V30 3838 N 366.569 1.04691 -1.17803 0
M  V30 3839 C 367.499 2.14494 -0.92275 0
M  V30 3840 C 368.48 1.69546 0.137179 0
M  V30 3841 O 369.665 1.94195 -0.0141108 0
M  V30 3842 C 366.795 3.44491 -0.440803 0
M  V30 3843 C 365.749 4.03031 -1.4405 0
M  V30 3844 C 365.075 5.28432 -0.81631 0
M  V30 3845 C 366.375 4.39932 -2.81527 0
M  V30 3846 H 368.069 2.36107 -1.84103 0
M  V30 3847 H 365.615 1.1347 -0.886599 0
M  V30 3848 H 367.568 4.2066 -0.249602 0
M  V30 3849 H 366.292 3.22546 0.513025 0
M  V30 3850 H 364.951 3.28937 -1.61853 0
M  V30 3851 H 364.599 5.02792 0.144511 0
M  V30 3852 H 364.299 5.68559 -1.48371 0
M  V30 3853 H 365.823 6.07284 -0.635496 0
M  V30 3854 H 367.237 5.07113 -2.67412 0
M  V30 3855 H 365.634 4.9109 -3.44892 0
M  V30 3856 H 366.704 3.50045 -3.35554 0
M  V30 3857 N 368.047 0.979072 1.23499 0
M  V30 3858 C 368.977 0.537606 2.27227 0
M  V30 3859 C 369.958 -0.428539 1.64613 0
M  V30 3860 O 371.143 -0.322191 1.91509 0
M  V30 3861 C 368.273 -0.162052 3.46922 0
M  V30 3862 C 367.227 0.721242 4.21879 0
M  V30 3863 C 366.553 -0.110555 5.34586 0
M  V30 3864 C 367.853 2.01141 4.82016 0
M  V30 3865 H 369.547 1.40462 2.64406 0
M  V30 3866 H 367.093 0.67684 1.27102 0
M  V30 3867 H 369.046 -0.482192 4.18632 0
M  V30 3868 H 367.77 -1.06351 3.08799 0
M  V30 3869 H 366.429 1.02482 3.51984 0
M  V30 3870 H 366.077 -1.0125 4.92704 0
M  V30 3871 H 365.777 0.477325 5.85658 0
M  V30 3872 H 367.301 -0.425107 6.09118 0
M  V30 3873 H 368.715 1.75612 5.45741 0
M  V30 3874 H 367.112 2.54695 5.43369 0
M  V30 3875 H 368.182 2.69909 4.02836 0
M  V30 3876 N 369.525 -1.3858 0.750561 0
M  V30 3877 C 370.753 -2.04471 0.316098 0
M  V30 3878 C 371.168 -1.56606 -1.05452 0
M  V30 3879 O 370.525 -0.737784 -1.66922 0
M  V30 3880 C 370.576 -3.60025 0.326275 0
M  V30 3881 O 370.297 -4.06133 1.6428 0
M  V30 3882 C 371.798 -4.43131 -0.122429 0
M  V30 3883 H 369.018 -0.65717 0.135528 0
M  V30 3884 H 371.562 -1.77329 1.01857 0
M  V30 3885 H 369.717 -3.86014 -0.327431 0
M  V30 3886 H 370.131 -5.00547 1.56693 0
M  V30 3887 H 371.605 -5.51963 -0.0641473 0
M  V30 3888 H 372.082 -4.23333 -1.16988 0
M  V30 3889 H 372.688 -4.22323 0.50229 0
M  V30 3890 N 371.003 -0.499398 -1.49478 0
M  V30 3891 C 371.933 0.269244 -2.31943 0
M  V30 3892 C 372.914 0.964054 -1.40143 0
M  V30 3893 O 374.099 0.955767 -1.69052 0
M  V30 3894 C 371.229 1.33504 -3.20615 0
M  V30 3895 C 370.183 0.760202 -4.21195 0
M  V30 3896 C 369.509 1.9264 -4.98792 0
M  V30 3897 C 370.809 -0.247661 -5.21712 0
M  V30 3898 H 372.503 -0.419082 -2.96452 0
M  V30 3899 H 370.049 -0.202988 -1.42562 0
M  V30 3900 H 372.002 1.88048 -3.77115 0
M  V30 3901 H 370.726 2.05253 -2.54045 0
M  V30 3902 H 369.385 0.23653 -3.65836 0
M  V30 3903 H 369.033 2.63154 -4.28671 0
M  V30 3904 H 368.733 1.54785 -5.66847 0
M  V30 3905 H 370.257 2.4762 -5.58137 0
M  V30 3906 H 371.671 0.209579 -5.72917 0
M  V30 3907 H 370.068 -0.541962 -5.97648 0
M  V30 3908 H 371.138 -1.16409 -4.7072 0
M  V30 3909 N 372.481 1.55866 -0.233164 0
M  V30 3910 C 373.706 2.03449 0.402906 0
M  V30 3911 C 374.131 1.11166 1.51736 0
M  V30 3912 O 373.489 0.101996 1.81013 0
M  V30 3913 C 373.537 3.49165 0.9009 0
M  V30 3914 O 372.641 3.60019 2.01147 0
M  V30 3915 H 371.982 0.657913 0.0897025 0
M  V30 3916 H 374.512 2.01493 -0.355201 0
M  V30 3917 H 374.522 3.89716 1.2077 0
M  V30 3918 H 373.197 4.15813 0.0852889 0
M  V30 3919 H 371.774 3.3136 1.71042 0
M  V30 3920 N 373.959 -0.0401083 1.57549 0
M  V30 3921 C 375.187 -0.745196 1.93014 0
M  V30 3922 C 375.602 -1.6948 0.831984 0
M  V30 3923 O 374.959 -1.81482 -0.192463 0
M  V30 3924 C 375.01 -1.51176 3.28372 0
M  V30 3925 O 374.731 -0.600284 4.33968 0
M  V30 3926 C 376.232 -2.315 3.78051 0
M  V30 3927 H 373.452 -0.210088 0.637263 0
M  V30 3928 H 375.996 -0.000924689 2.045 0
M  V30 3929 H 374.151 -2.20801 3.18317 0
M  V30 3930 H 374.565 -1.13669 5.12035 0
M  V30 3931 H 376.039 -2.80697 4.75303 0
M  V30 3932 H 376.516 -3.12436 3.08675 0
M  V30 3933 H 377.122 -1.66971 3.91153 0
M  V30 3934 N 375.437 -1.54477 -0.31217 0
M  V30 3935 C 376.686 -1.72438 -1.04633 0
M  V30 3936 C 376.999 -0.511163 -1.88803 0
M  V30 3937 O 378.205 -0.572341 -2.65399 0
M  V30 3938 C 376.661 -3.05043 -1.9099 0
M  V30 3939 C 376.269 -4.33806 -1.11877 0
M  V30 3940 C 378.013 -3.32364 -2.64073 0
M  V30 3941 C 375.92 -5.57467 -1.97445 0
M  V30 3942 H 374.85 -0.642647 -0.394361 0
M  V30 3943 H 377.501 -1.80966 -0.303929 0
M  V30 3944 H 375.883 -2.90451 -2.69173 0
M  V30 3945 H 377.057 -4.59199 -0.383843 0
M  V30 3946 H 375.372 -4.13336 -0.504252 0
M  V30 3947 H 377.969 -4.21951 -3.28423 0
M  V30 3948 H 378.312 -2.50745 -3.32314 0
M  V30 3949 H 378.845 -3.47875 -1.92944 0
M  V30 3950 H 375.584 -6.41722 -1.33692 0
M  V30 3951 H 375.104 -5.36277 -2.6864 0
M  V30 3952 H 376.783 -5.94303 -2.5576 0
M  V30 3953 N 376.915 0.57481 -1.46744 0
M  V30 3954 C 377.863 1.70435 -1.58286 0
M  V30 3955 C 378.857 1.63287 -0.450956 0
M  V30 3956 O 380.063 1.68685 -0.628121 0
M  V30 3957 H 376.438 0.56364 -0.497809 0
M  V30 3958 H 378.409 1.57833 -2.53242 0
M  V30 3959 C 377.158 3.08815 -1.59776 0
M  V30 3960 H 376.481 3.1499 -2.46214 0
M  V30 3961 H 377.921 3.87588 -1.71905 0
M  V30 3962 C 376.38 3.35301 -0.327812 0
M  V30 3963 O 376.91 3.97511 0.57861 0
M  V30 3964 N 375.116 2.89816 -0.213274 0
M  V30 3965 H 374.663 2.39371 -0.951798 0
M  V30 3966 H 374.621 3.0791 0.63553 0
M  V30 3967 N 378.394 1.34581 0.820102 0
M  V30 3968 C 379.327 1.20735 1.93644 0
M  V30 3969 C 380.305 0.0983343 1.62302 0
M  V30 3970 O 381.489 0.263997 1.86642 0
M  V30 3971 C 378.616 0.856037 3.27704 0
M  V30 3972 C 377.662 1.97521 3.78005 0
M  V30 3973 S 378.495 3.58906 3.97425 0
M  V30 3974 C 379.651 3.25822 5.34407 0
M  V30 3975 H 379.884 2.15231 2.05093 0
M  V30 3976 H 377.417 1.1964 0.97599 0
M  V30 3977 H 379.375 0.660133 4.05157 0
M  V30 3978 H 378.036 -0.0706253 3.14021 0
M  V30 3979 H 377.229 1.68321 4.75062 0
M  V30 3980 H 376.831 2.12875 3.07507 0
M  V30 3981 H 379.123 2.77812 6.17922 0
M  V30 3982 H 380.066 4.22029 5.68592 0
M  V30 3983 H 380.474 2.61932 5.00052 0
M  V30 3984 N 379.872 -1.04064 1.18357 0
M  V30 3985 C 380.819 -2.12077 0.910603 0
M  V30 3986 C 381.789 -1.65421 -0.15 0
M  V30 3987 O 382.974 -1.90797 -0.0103614 0
M  V30 3988 C 380.114 -3.42252 0.442472 0
M  V30 3989 C 379.227 -4.0252 1.5685 0
M  V30 3990 C 378.362 -5.20657 1.05309 0
M  V30 3991 C 377.401 -5.72955 2.1538 0
M  V30 3992 N 376.538 -6.8238 1.65233 0
M  V30 3993 H 381.378 -2.34764 1.83548 0
M  V30 3994 H 378.915 -1.15157 0.915279 0
M  V30 3995 H 380.873 -4.16921 0.152534 0
M  V30 3996 H 379.503 -3.19712 -0.445428 0
M  V30 3997 H 378.555 -3.25178 1.97391 0
M  V30 3998 H 379.867 -4.37362 2.39824 0
M  V30 3999 H 379.021 -6.0244 0.717677 0
M  V30 4000 H 377.76 -4.87318 0.19293 0
M  V30 4001 H 376.765 -4.89793 2.49766 0
M  V30 4002 H 377.99 -6.08337 3.01832 0
M  V30 4003 H 375.936 -6.50917 0.815064 0
M  V30 4004 H 375.853 -7.16286 2.41805 0
M  V30 4005 H 377.121 -7.67788 1.34619 0
M  V30 4006 N 381.35 -0.985608 -1.22978 0
M  V30 4007 C 382.26 -0.538548 -2.28335 0
M  V30 4008 C 383.276 0.409163 -1.69121 0
M  V30 4009 O 384.452 0.277797 -1.99475 0
M  V30 4010 C 381.517 0.146867 -3.46389 0
M  V30 4011 C 380.578 -0.842896 -4.20944 0
M  V30 4012 C 379.811 -0.190095 -5.33361 0
M  V30 4013 O 380.034 1.01767 -5.61248 0
M  V30 4014 O 378.968 -0.891289 -5.95264 0
M  V30 4015 H 382.794 -1.41487 -2.68729 0
M  V30 4016 H 380.379 -0.753495 -1.29007 0
M  V30 4017 H 382.261 0.531125 -4.1804 0
M  V30 4018 H 380.936 0.997871 -3.07935 0
M  V30 4019 H 379.843 -1.27795 -3.51595 0
M  V30 4020 H 381.176 -1.66287 -4.6326 0
M  V30 4021 N 382.828 1.3818 -0.7579 0
M  V30 4022 C 383.775 2.30416 -0.133057 0
M  V30 4023 C 384.745 1.50398 0.704957 0
M  V30 4024 O 385.93 1.79014 0.660192 0
M  V30 4025 C 383.07 3.36834 0.750813 0
M  V30 4026 C 382.183 4.31879 -0.102297 0
M  V30 4027 C 381.318 5.25368 0.784979 0
M  V30 4028 C 380.357 6.12058 -0.0715046 0
M  V30 4029 N 379.494 6.97832 0.772972 0
M  V30 4030 H 384.334 2.83274 -0.925186 0
M  V30 4031 H 381.871 1.39461 -0.467866 0
M  V30 4032 H 383.829 3.97145 1.27794 0
M  V30 4033 H 382.459 2.85374 1.50868 0
M  V30 4034 H 381.511 3.72991 -0.747095 0
M  V30 4035 H 382.823 4.92921 -0.763552 0
M  V30 4036 H 381.977 5.90818 1.37911 0
M  V30 4037 H 380.716 4.64703 1.47996 0
M  V30 4038 H 379.721 5.456 -0.678272 0
M  V30 4039 H 380.946 6.74793 -0.763606 0
M  V30 4040 H 378.892 6.3971 1.45282 0
M  V30 4041 H 378.809 7.55812 0.168709 0
M  V30 4042 H 380.077 7.67687 1.35194 0
M  V30 4043 N 384.306 0.507319 1.49211 0
M  V30 4044 C 385.531 -0.033725 2.07373 0
M  V30 4045 C 385.956 -1.29485 1.36437 0
M  V30 4046 O 385.314 -1.76294 0.423087 0
M  V30 4047 C 385.362 -0.263945 3.59633 0
M  V30 4048 O 384.466 -1.33737 3.90113 0
M  V30 4049 H 383.807 0.0290331 0.663365 0
M  V30 4050 H 386.337 0.708749 1.91932 0
M  V30 4051 H 386.347 -0.493536 4.05004 0
M  V30 4052 H 385.022 0.657424 4.10671 0
M  V30 4053 H 383.599 -1.09224 3.56545 0
M  V30 4054 N 385.784 -1.5574 0.241426 0
M  V30 4055 C 387.033 -1.97986 -0.385295 0
M  V30 4056 C 387.346 -1.13267 -1.59468 0
M  V30 4057 O 388.552 -1.45501 -2.2922 0
M  V30 4058 C 387.008 -3.52275 -0.736884 0
M  V30 4059 C 386.616 -4.45726 0.450796 0
M  V30 4060 C 388.36 -4.03189 -1.3281 0
M  V30 4061 C 386.267 -5.91352 0.0756662 0
M  V30 4062 H 385.197 -0.739386 -0.147731 0
M  V30 4063 H 387.848 -1.80308 0.340779 0
M  V30 4064 H 386.23 -3.65628 -1.52094 0
M  V30 4065 H 387.404 -4.44131 1.22819 0
M  V30 4066 H 385.719 -4.05264 0.956573 0
M  V30 4067 H 388.316 -5.09505 -1.62201 0
M  V30 4068 H 388.659 -3.50212 -2.25071 0
M  V30 4069 H 389.192 -3.93141 -0.607069 0
M  V30 4070 H 385.931 -6.48354 0.965272 0
M  V30 4071 H 385.451 -5.96095 -0.665635 0
M  V30 4072 H 387.13 -6.46084 -0.344075 0
M  V30 4073 N 387.262 0.0317525 -1.57568 0
M  V30 4074 C 388.172 1.05021 -2.0978 0
M  V30 4075 C 389.188 1.39809 -1.03583 0
M  V30 4076 O 390.364 1.49182 -1.35302 0
M  V30 4077 C 387.429 2.33301 -2.56459 0
M  V30 4078 C 386.49 2.0512 -3.77127 0
M  V30 4079 C 385.723 3.27283 -4.2157 0
M  V30 4080 O 385.946 4.37861 -3.65559 0
M  V30 4081 O 384.88 3.13141 -5.14029 0
M  V30 4082 H 388.706 0.636505 -2.96955 0
M  V30 4083 H 386.291 0.248559 -1.47318 0
M  V30 4084 H 388.173 3.08722 -2.86825 0
M  V30 4085 H 386.848 2.73973 -1.72397 0
M  V30 4086 H 385.755 1.27276 -3.51784 0
M  V30 4087 H 387.088 1.69305 -4.62165 0
M  V30 4088 N 388.74 1.54641 0.303973 0
M  V30 4089 C 389.989 1.7299 1.03717 0
M  V30 4090 C 390.302 0.521168 1.88529 0
M  V30 4091 O 391.508 0.586408 2.65092 0
M  V30 4092 C 389.964 3.06051 1.89369 0
M  V30 4093 C 389.572 4.34393 1.09574 0
M  V30 4094 C 391.316 3.3376 2.62306 0
M  V30 4095 C 389.223 5.58506 1.94486 0
M  V30 4096 H 388.153 0.64473 0.390947 0
M  V30 4097 H 390.804 1.81124 0.294328 0
M  V30 4098 H 389.186 2.91874 2.67629 0
M  V30 4099 H 390.36 4.59396 0.359485 0
M  V30 4100 H 388.675 4.13597 0.482324 0
M  V30 4101 H 391.272 4.23687 3.26181 0
M  V30 4102 H 391.615 2.52503 3.3098 0
M  V30 4103 H 392.148 3.48894 1.91097 0
M  V30 4104 H 388.887 6.42422 1.30287 0
M  V30 4105 H 388.407 5.37694 2.65792 0
M  V30 4106 H 390.086 5.95651 2.52605 0
M  V30 4107 N 390.218 -0.567019 1.47046 0
M  V30 4108 C 391.15 -1.68985 1.54844 0
M  V30 4109 C 392.163 -1.56869 0.435431 0
M  V30 4110 O 393.352 -1.64006 0.70457 0
M  V30 4111 C 390.452 -3.07373 1.42742 0
M  V30 4112 C 389.625 -3.45339 2.6844 0
M  V30 4113 C 388.684 -4.62849 2.50314 0
M  V30 4114 O 387.71 -4.67922 3.24095 0
M  V30 4115 N 388.912 -5.58726 1.57499 0
M  V30 4116 H 391.677 -1.62745 2.51663 0
M  V30 4117 H 389.238 -0.753411 1.43302 0
M  V30 4118 H 391.23 -3.83803 1.28365 0
M  V30 4119 H 389.8 -3.07893 0.540445 0
M  V30 4120 H 389.02 -2.58455 2.97648 0
M  V30 4121 H 390.308 -3.67476 3.51907 0
M  V30 4122 H 389.706 -5.57376 0.966876 0
M  V30 4123 H 388.263 -6.34523 1.49078 0
M  V30 4124 N 391.696 -1.35014 -0.812953 0
M  V30 4125 C 392.644 -1.27435 -1.94585 0
M  V30 4126 C 393.638 -0.170494 -1.6854 0
M  V30 4127 O 394.844 -0.336085 -1.76835 0
M  V30 4128 H 391.219 -0.396144 -0.639198 0
M  V30 4129 H 393.19 -2.23158 -1.98098 0
M  V30 4130 C 391.939 -1.05677 -3.31252 0
M  V30 4131 H 391.262 -1.89853 -3.51846 0
M  V30 4132 H 392.702 -1.04413 -4.10943 0
M  V30 4133 C 391.161 0.239615 -3.36047 0
M  V30 4134 O 391.691 1.23759 -3.8216 0
M  V30 4135 N 389.897 0.276186 -2.89285 0
M  V30 4136 H 389.444 -0.53653 -2.51951 0
M  V30 4137 H 389.402 1.14332 -2.92875 0
M  V30 4138 N 393.175 1.03435 -1.18907 0
M  V30 4139 C 394.423 1.76394 -0.986382 0
M  V30 4140 C 394.744 1.88883 0.484567 0
M  V30 4141 O 394.014 1.41843 1.3512 0
M  V30 4142 H 392.594 0.65344 -0.361975 0
M  V30 4143 H 395.256 1.248 -1.49703 0
M  V30 4144 H 394.352 2.77424 -1.42978 0
M  V30 4145 N 394.653 0.992116 1.22453 0
M  V30 4146 C 395.601 0.534644 2.26372 0
M  V30 4147 C 396.595 -0.414293 1.64256 0
M  V30 4148 O 397.801 -0.286899 1.77699 0
M  V30 4149 H 394.176 0.154502 0.735957 0
M  V30 4150 H 396.147 1.42256 2.62309 0
M  V30 4151 C 394.896 -0.135815 3.47435 0
M  V30 4152 H 394.219 0.585311 3.95492 0
M  V30 4153 H 395.659 -0.419374 4.21921 0
M  V30 4154 C 394.118 -1.37089 3.07747 0
M  V30 4155 O 394.648 -2.46629 3.17076 0
M  V30 4156 N 392.854 -1.24585 2.62539 0
M  V30 4157 H 392.401 -0.354542 2.55149 0
M  V30 4158 H 392.359 -2.07327 2.36353 0
M  V30 4159 N 396.131 -1.37776 0.765217 0
M  V30 4160 C 397.378 -1.99849 0.326588 0
M  V30 4161 C 397.706 -1.60746 -1.09504 0
M  V30 4162 O 396.961 -0.84202 -1.76659 0
M  V30 4163 C 397.26 -3.5504 0.410053 0
M  V30 4164 C 396.926 -4.13891 1.78899 0
M  V30 4165 C 395.588 -4.29678 2.16635 0
M  V30 4166 C 397.94 -4.46236 2.69301 0
M  V30 4167 C 395.268 -4.7511 3.44221 0
M  V30 4168 C 397.62 -4.93089 3.9629 0
M  V30 4169 C 396.284 -5.07082 4.34078 0
M  V30 4170 H 395.554 -0.7313 0.119507 0
M  V30 4171 H 398.201 -1.64645 0.977968 0
M  V30 4172 H 396.506 -3.90451 -0.324878 0
M  V30 4173 H 398.203 -4.00966 0.0520699 0
M  V30 4174 H 394.793 -4.02026 1.48569 0
M  V30 4175 H 398.977 -4.3363 2.41409 0
M  V30 4176 H 394.233 -4.84129 3.73402 0
M  V30 4177 H 398.407 -5.17084 4.66472 0
M  V30 4178 H 396.034 -5.42046 5.33001 0
M  V30 4179 N 397.609 -0.515225 -1.4894 0
M  V30 4180 C 398.539 0.244628 -2.32215 0
M  V30 4181 C 399.52 0.949136 -1.41157 0
M  V30 4182 O 400.705 0.937783 -1.70057 0
M  V30 4183 C 397.835 1.30096 -3.22013 0
M  V30 4184 C 396.789 0.715486 -4.21977 0
M  V30 4185 C 396.115 1.87339 -5.00808 0
M  V30 4186 C 397.415 -0.302982 -5.2142 0
M  V30 4187 H 399.109 -0.450501 -2.95991 0
M  V30 4188 H 396.655 -0.218098 -1.42339 0
M  V30 4189 H 398.608 1.84037 -3.79089 0
M  V30 4190 H 397.332 2.02547 -2.56207 0
M  V30 4191 H 395.991 0.197715 -3.66066 0
M  V30 4192 H 395.639 2.58592 -4.31438 0
M  V30 4193 H 395.339 1.48764 -5.68457 0
M  V30 4194 H 396.863 2.41686 -5.60732 0
M  V30 4195 H 398.277 0.148802 -5.73107 0
M  V30 4196 H 396.674 -0.60532 -5.97039 0
M  V30 4197 H 397.744 -1.21395 -4.69459 0
M  V30 4198 N 399.087 1.5561 -0.249682 0
M  V30 4199 C 400.503 1.59254 0.105103 0
M  V30 4200 C 400.703 1.26685 1.56694 0
M  V30 4201 O 399.759 1.0155 2.31179 0
M  V30 4202 C 401.072 2.99687 -0.246592 0
M  V30 4203 C 402.62 3.12416 -0.191118 0
M  V30 4204 C 403.095 4.55074 -0.516885 0
M  V30 4205 N 404.586 4.60835 -0.467489 0
M  V30 4206 C 405.321 5.69201 -0.69268 0
M  V30 4207 N 404.817 6.85817 -0.981146 0
M  V30 4208 N 406.61 5.58635 -0.623198 0
M  V30 4209 H 398.761 1.75049 -1.20298 0
M  V30 4210 H 401.024 0.815003 -0.484225 0
M  V30 4211 H 400.73 3.28267 -1.26228 0
M  V30 4212 H 400.604 3.74798 0.424962 0
M  V30 4213 H 402.991 2.83615 0.815247 0
M  V30 4214 H 403.072 2.39573 -0.896563 0
M  V30 4215 H 402.716 4.84596 -1.52082 0
M  V30 4216 H 402.646 5.26181 0.210068 0
M  V30 4217 H 405.137 3.7705 -0.253373 0
M  V30 4218 H 405.45 7.64341 -1.14032 0
M  V30 4219 H 403.795 6.87494 -1.01865 0
M  V30 4220 H 406.986 4.66406 -0.397863 0
M  V30 4221 H 407.159 6.43017 -0.802093 0
M  V30 4222 N 400.565 -0.0233959 1.57583 0
M  V30 4223 C 401.812 -0.713063 1.8953 0
M  V30 4224 C 402.14 -1.75056 0.847673 0
M  V30 4225 O 401.395 -1.95119 -0.150636 0
M  V30 4226 C 401.694 -1.41428 3.28227 0
M  V30 4227 C 401.36 -0.512222 4.47981 0
M  V30 4228 C 400.022 -0.263785 4.80476 0
M  V30 4229 C 402.374 0.110248 5.21083 0
M  V30 4230 C 399.702 0.615804 5.83459 0
M  V30 4231 C 402.054 0.977573 6.25001 0
M  V30 4232 C 400.718 1.23542 6.55968 0
M  V30 4233 H 399.988 -0.260928 0.69354 0
M  V30 4234 H 402.635 0.0271047 1.91481 0
M  V30 4235 H 400.94 -2.22791 3.22291 0
M  V30 4236 H 402.637 -1.95355 3.50196 0
M  V30 4237 H 399.227 -0.716013 4.22577 0
M  V30 4238 H 403.411 -0.0687137 4.96252 0
M  V30 4239 H 398.667 0.82382 6.05824 0
M  V30 4240 H 402.841 1.46638 6.80786 0
M  V30 4241 H 400.468 1.91871 7.35588 0
M  V30 4242 N 402.043 -1.548 -0.295768 0
M  V30 4243 C 403.29 -1.74329 -1.03032 0
M  V30 4244 C 403.618 -0.531915 -1.87085 0
M  V30 4245 O 402.873 0.486052 -1.89568 0
M  V30 4246 C 403.172 -2.98797 -1.961 0
M  V30 4247 C 402.838 -4.32356 -1.2798 0
M  V30 4248 C 401.5 -4.68661 -1.09135 0
M  V30 4249 C 403.852 -5.15128 -0.793243 0
M  V30 4250 C 401.18 -5.85312 -0.403269 0
M  V30 4251 C 403.532 -6.32488 -0.118854 0
M  V30 4252 C 402.196 -6.6745 0.0815043 0
M  V30 4253 H 401.466 -0.637916 -0.37702 0
M  V30 4254 H 404.113 -1.8906 -0.304696 0
M  V30 4255 H 402.418 -2.78869 -2.75207 0
M  V30 4256 H 404.115 -3.11102 -2.53015 0
M  V30 4257 H 400.705 -4.03808 -1.43655 0
M  V30 4258 H 404.889 -4.87575 -0.92653 0
M  V30 4259 H 400.145 -6.1094 -0.237098 0
M  V30 4260 H 404.319 -6.95892 0.266035 0
M  V30 4261 H 401.946 -7.57695 0.616685 0
M  V30 4262 N 403.521 0.559213 -1.47345 0
M  V30 4263 C 404.468 1.66645 -1.59682 0
M  V30 4264 C 405.438 1.60168 -0.43994 0
M  V30 4265 O 406.623 1.79031 -0.659736 0
M  V30 4266 C 403.763 3.04969 -1.61518 0
M  V30 4267 C 402.876 3.21897 -2.88108 0
M  V30 4268 C 402.011 4.50608 -2.81294 0
M  V30 4269 C 401.05 4.60961 -4.02717 0
M  V30 4270 N 400.187 5.81024 -3.94151 0
M  V30 4271 H 405.027 1.55439 -2.54249 0
M  V30 4272 H 402.564 0.757219 -1.26113 0
M  V30 4273 H 404.522 3.85064 -1.60566 0
M  V30 4274 H 403.152 3.15015 -0.704645 0
M  V30 4275 H 402.204 2.35248 -2.98936 0
M  V30 4276 H 403.516 3.25412 -3.78032 0
M  V30 4277 H 402.67 5.3896 -2.7858 0
M  V30 4278 H 401.409 4.49568 -1.89049 0
M  V30 4279 H 400.414 3.71021 -4.05738 0
M  V30 4280 H 401.639 4.63761 -4.96087 0
M  V30 4281 H 399.585 5.80938 -3.04708 0
M  V30 4282 H 399.502 5.85909 -4.77752 0
M  V30 4283 H 400.77 6.71744 -3.9545 0
M  V30 4284 N 404.999 1.35443 0.805782 0
M  V30 4285 C 406.276 1.19325 1.54987 0
M  V30 4286 C 406.656 -0.227294 2.09873 0
M  V30 4287 O 406.004 -1.2309 1.92512 0
M  V30 4288 C 406.214 2.26196 2.65775 0
M  V30 4289 C 407.562 2.62043 3.34094 0
M  V30 4290 O 408.586 2.25115 2.76046 0
M  V30 4291 O 407.445 3.25542 4.38958 0
M  V30 4292 H 404.539 0.463623 0.684823 0
M  V30 4293 H 407.085 1.47127 0.845674 0
M  V30 4294 H 405.857 3.21471 2.23096 0
M  V30 4295 H 405.48 1.99667 3.43829 0
M  V30 4296 N 406.477 -1.02803 1.19454 0
M  V30 4297 C 407.425 -2.13213 0.929673 0
M  V30 4298 C 408.419 -1.69011 -0.114806 0
M  V30 4299 O 409.625 -1.79967 0.0345147 0
M  V30 4300 H 406 -0.69662 0.28324 0
M  V30 4301 H 407.971 -2.32744 1.86743 0
M  V30 4302 C 406.72 -3.4429 0.485797 0
M  V30 4303 H 406.043 -3.7872 1.28105 0
M  V30 4304 H 407.483 -4.22638 0.339582 0
M  V30 4305 C 405.942 -3.27258 -0.800244 0
M  V30 4306 O 406.472 -3.55967 -1.86146 0
M  V30 4307 N 404.678 -2.80545 -0.75781 0
M  V30 4308 H 404.225 -2.57382 0.106039 0
M  V30 4309 H 404.183 -2.6953 -1.61867 0
M  V30 4310 N 407.956 -0.998596 -1.21925 0
M  V30 4311 C 408.886 -0.573688 -2.26343 0
M  V30 4312 C 409.867 0.402296 -1.65274 0
M  V30 4313 O 411.052 0.291683 -1.91997 0
M  V30 4314 C 408.182 0.106839 -3.47136 0
M  V30 4315 C 407.136 -0.788269 -4.20678 0
M  V30 4316 C 406.462 0.0254927 -5.34694 0
M  V30 4317 C 407.762 -2.08784 -4.78755 0
M  V30 4318 H 409.456 -1.44651 -2.62138 0
M  V30 4319 H 407.002 -0.696975 -1.26009 0
M  V30 4320 H 408.955 0.415531 -4.19346 0
M  V30 4321 H 407.679 1.01424 -3.10452 0
M  V30 4322 H 406.338 -1.08069 -3.50309 0
M  V30 4323 H 405.986 0.933989 -4.94253 0
M  V30 4324 H 405.686 -0.570437 -5.84825 0
M  V30 4325 H 407.21 0.328147 -6.09718 0
M  V30 4326 H 408.624 -1.84272 -5.42878 0
M  V30 4327 H 407.021 -2.63307 -5.39249 0
M  V30 4328 H 408.091 -2.76284 -3.98491 0
M  V30 4329 N 409.434 1.37368 -0.772513 0
M  V30 4330 C 410.364 2.32856 -0.173304 0
M  V30 4331 C 411.345 1.55818 0.682262 0
M  V30 4332 O 412.53 1.84052 0.619566 0
M  V30 4333 C 409.66 3.40048 0.706007 0
M  V30 4334 C 408.614 4.27973 -0.0483144 0
M  V30 4335 C 407.94 5.26184 0.950491 0
M  V30 4336 C 409.24 5.07665 -1.22776 0
M  V30 4337 H 410.934 2.83217 -0.971002 0
M  V30 4338 H 408.48 1.3617 -0.468377 0
M  V30 4339 H 410.433 4.05827 1.13501 0
M  V30 4340 H 409.157 2.88214 1.53623 0
M  V30 4341 H 407.816 3.63726 -0.458107 0
M  V30 4342 H 407.464 4.7063 1.77529 0
M  V30 4343 H 407.164 5.85872 0.450314 0
M  V30 4344 H 408.688 5.94838 1.37842 0
M  V30 4345 H 410.102 5.66578 -0.875366 0
M  V30 4346 H 408.499 5.76681 -1.66007 0
M  V30 4347 H 409.569 4.40294 -2.03149 0
M  V30 4348 N 410.912 0.523116 1.48665 0
M  V30 4349 C 411.859 -0.243398 2.29513 0
M  V30 4350 C 412.829 -0.940139 1.36933 0
M  V30 4351 O 414.014 -0.942503 1.65896 0
M  V30 4352 C 411.154 -1.28855 3.20141 0
M  V30 4353 C 410.267 -0.60135 4.27794 0
M  V30 4354 C 409.402 -1.62884 5.05611 0
M  V30 4355 C 408.441 -0.924726 6.05075 0
M  V30 4356 N 407.578 -1.89744 6.75975 0
M  V30 4357 H 412.418 0.452234 2.94549 0
M  V30 4358 H 409.955 0.234858 1.45213 0
M  V30 4359 H 411.913 -1.90674 3.71079 0
M  V30 4360 H 410.543 -1.95266 2.57043 0
M  V30 4361 H 409.595 0.130623 3.80176 0
M  V30 4362 H 410.907 -0.0481585 4.98777 0
M  V30 4363 H 410.061 -2.32149 5.60528 0
M  V30 4364 H 408.8 -2.21592 4.34452 0
M  V30 4365 H 407.805 -0.217966 5.49368 0
M  V30 4366 H 409.03 -0.343851 6.78229 0
M  V30 4367 H 406.976 -2.47373 6.07571 0
M  V30 4368 H 406.893 -1.3955 7.43009 0
M  V30 4369 H 408.161 -2.58229 7.35485 0
M  V30 4370 N 412.39 -1.55475 0.257931 0
M  V30 4371 C 413.338 -2.23244 -0.653076 0
M  V30 4372 C 414.332 -1.22366 -1.17144 0
M  V30 4373 O 415.538 -1.40347 -1.12706 0
M  V30 4374 H 411.913 -0.716247 -0.229117 0
M  V30 4375 H 413.884 -2.98343 -0.0584788 0
M  V30 4376 C 412.633 -2.95401 -1.83395 0
M  V30 4377 H 411.956 -3.72802 -1.44424 0
M  V30 4378 H 413.396 -3.46165 -2.44838 0
M  V30 4379 C 411.855 -1.99895 -2.71189 0
M  V30 4380 O 412.385 -1.53909 -3.71046 0
M  V30 4381 N 410.591 -1.6676 -2.3799 0
M  V30 4382 H 410.138 -2.04352 -1.56837 0
M  V30 4383 H 410.096 -1.03127 -2.97005 0
M  V30 4384 N 413.868 0.0150385 -1.57593 0
M  V30 4385 C 415.116 0.701613 -1.8953 0
M  V30 4386 C 415.437 1.75139 -0.857396 0
M  V30 4387 O 414.707 1.95607 0.107194 0
M  V30 4388 H 413.287 0.26213 -0.699498 0
M  V30 4389 H 415.949 -0.0223304 -1.94887 0
M  V30 4390 H 415.045 1.18236 -2.88837 0
M  V30 4391 N 415.346 1.54954 0.287554 0
M  V30 4392 C 416.256 1.8991 1.37736 0
M  V30 4393 C 417.272 0.794701 1.54792 0
M  V30 4394 O 418.448 1.09243 1.69198 0
M  V30 4395 C 415.513 2.15108 2.71899 0
M  V30 4396 C 414.574 3.38752 2.63715 0
M  V30 4397 C 413.807 3.62739 3.91479 0
M  V30 4398 O 414.03 2.89492 4.91478 0
M  V30 4399 O 412.964 4.56267 3.92561 0
M  V30 4400 H 416.79 2.82652 1.11092 0
M  V30 4401 H 414.375 1.41315 0.484807 0
M  V30 4402 H 416.257 2.32806 3.51254 0
M  V30 4403 H 414.932 1.25551 2.9836 0
M  V30 4404 H 413.839 3.26405 1.82786 0
M  V30 4405 H 415.172 4.28483 2.42205 0
M  V30 4406 N 416.824 -0.551391 1.4764 0
M  V30 4407 C 418.052 -1.33357 1.58189 0
M  V30 4408 C 418.467 -1.87342 0.234199 0
M  V30 4409 O 417.824 -1.65301 -0.77343 0
M  V30 4410 C 417.875 -2.49942 2.61173 0
M  V30 4411 O 417.596 -1.98187 3.90709 0
M  V30 4412 C 419.097 -3.42072 2.8196 0
M  V30 4413 H 416.317 -0.40631 0.533998 0
M  V30 4414 H 418.861 -0.667367 1.93304 0
M  V30 4415 H 417.016 -3.12489 2.28975 0
M  V30 4416 H 417.43 -2.74342 4.47031 0
M  V30 4417 H 418.904 -4.20278 3.57869 0
M  V30 4418 H 419.381 -3.95978 1.89995 0
M  V30 4419 H 419.987 -2.85336 3.15378 0
M  V30 4420 N 418.302 -1.35869 -0.798587 0
M  V30 4421 C 419.212 -1.31578 -1.94228 0
M  V30 4422 C 420.228 -0.21939 -1.72611 0
M  V30 4423 O 421.404 -0.450167 -1.96305 0
M  V30 4424 C 418.469 -1.09528 -3.28944 0
M  V30 4425 C 417.53 -2.28556 -3.63402 0
M  V30 4426 C 416.763 -2.07549 -4.9169 0
M  V30 4427 O 416.986 -1.046 -5.60727 0
M  V30 4428 O 415.92 -2.95106 -5.24591 0
M  V30 4429 H 419.746 -2.27847 -2.00796 0
M  V30 4430 H 417.331 -1.16322 -0.937526 0
M  V30 4431 H 419.213 -0.991127 -4.09579 0
M  V30 4432 H 417.888 -0.16315 -3.23289 0
M  V30 4433 H 416.795 -2.44538 -2.83112 0
M  V30 4434 H 418.128 -3.20244 -3.73771 0
M  V30 4435 N 419.78 1.02168 -1.19998 0
M  V30 4436 C 421.005 1.79833 -1.03319 0
M  V30 4437 C 421.43 1.83504 0.413281 0
M  V30 4438 O 420.788 1.26635 1.29743 0
M  V30 4439 C 420.836 3.22396 -1.61533 0
M  V30 4440 O 419.94 4.03555 -0.849519 0
M  V30 4441 H 419.281 0.554872 -0.364709 0
M  V30 4442 H 421.811 1.28542 -1.59179 0
M  V30 4443 H 421.821 3.73124 -1.65054 0
M  V30 4444 H 420.496 3.19039 -2.66809 0
M  V30 4445 H 419.073 3.62169 -0.888129 0
M  V30 4446 O 421.297 1.13266 1.15122 0
M  V30 4447 H 421.988 0.848237 1.7414 0
M  V30 END ATOM
M  V30 BEGIN BOND
M  V30 END BOND
M  V30 END CTAB
M  END
$$$$
