drugbank_target|P37672 2,3-diketo-L-gulonate reductase (DB01694)
 OpenBabel12092119513D

  0  0  0     0  0            999 V3000
M  V30 BEGIN CTAB
M  V30 COUNTS 5108 5154 0 0 0
M  V30 BEGIN ATOM
M  V30 1 H -0.908 1.98254 -0.117106 0
M  V30 2 N 0 1.576 0 0
M  V30 3 C 0.933 2.03868 1.02534 0
M  V30 4 C 1.911 0.928543 1.3348 0
M  V30 5 O 3.095 1.19667 1.45644 0
M  V30 6 C 0.222 2.43627 2.35294 0
M  V30 7 C -0.732 3.65373 2.2001 0
M  V30 8 S 0.101 5.13292 1.52614 0
M  V30 9 C 1.257 5.56322 2.86805 0
M  V30 10 H 1.49 2.90518 0.631377 0
M  V30 11 H -0.977 1.52953 0.210867 0
M  V30 12 H 0.981 2.67203 3.11629 0
M  V30 13 H -0.358 1.57376 2.7183 0
M  V30 14 H -1.165 3.90944 3.18086 0
M  V30 15 H -1.563 3.418 1.51819 0
M  V30 16 H 0.729 5.58782 3.83104 0
M  V30 17 H 1.672 6.56266 2.65933 0
M  V30 18 H 2.08 4.83886 2.90714 0
M  V30 19 N 1.4781 -0.272755 1.55222 0
M  V30 20 C 2.4251 -1.33716 1.88119 0
M  V30 21 C 3.3951 -1.49066 0.73271 0
M  V30 22 O 4.5801 -1.63469 0.984002 0
M  V30 23 C 1.7201 -2.69238 2.15882 0
M  V30 24 C 0.8331 -2.62108 3.43399 0
M  V30 25 C -0.0319 -3.89811 3.60861 0
M  V30 26 C -0.9929 -3.77193 4.8207 0
M  V30 27 N -1.8559 -4.9673 4.96189 0
M  V30 28 H 2.9841 -1.04962 2.78903 0
M  V30 29 H 0.5211 -0.507088 1.38083 0
M  V30 30 H 2.4791 -3.48089 2.29978 0
M  V30 31 H 1.1091 -2.96194 1.28331 0
M  V30 32 H 0.1611 -1.74967 3.37773 0
M  V30 33 H 1.4731 -2.48685 4.32386 0
M  V30 34 H 0.6271 -4.77103 3.74777 0
M  V30 35 H -0.6339 -4.06102 2.7006 0
M  V30 36 H -1.6289 -2.88284 4.68159 0
M  V30 37 H -0.4039 -3.62421 5.74307 0
M  V30 38 H -2.4579 -5.13431 4.08319 0
M  V30 39 H -2.5409 -4.85839 5.79221 0
M  V30 40 H -1.2729 -5.85594 5.1449 0
M  V30 41 N 2.9562 -1.48159 -0.537278 0
M  V30 42 C 4.2022 -1.56035 -1.29541 0
M  V30 43 C 4.5352 -0.230377 -1.92829 0
M  V30 44 O 3.8102 0.762952 -1.78911 0
M  V30 45 C 4.0932 -2.69323 -2.39034 0
M  V30 46 C 3.9462 -4.12002 -1.80485 0
M  V30 47 C 5.2652 -2.78408 -3.40847 0
M  V30 48 H 2.3842 -0.567992 -0.469632 0
M  V30 49 H 5.0262 -1.80302 -0.599277 0
M  V30 50 H 3.1762 -2.48763 -2.98412 0
M  V30 51 H 4.8482 -4.43981 -1.25215 0
M  V30 52 H 3.0912 -4.19344 -1.11055 0
M  V30 53 H 3.7622 -4.87077 -2.59731 0
M  V30 54 H 6.2382 -2.97012 -2.91416 0
M  V30 55 H 5.1142 -3.59416 -4.14863 0
M  V30 56 H 5.3752 -1.86269 -4.00944 0
M  V30 57 N 4.4343 0.785586 -1.36625 0
M  V30 58 C 5.6623 1.57448 -1.3423 0
M  V30 59 C 6.0773 1.88649 0.0755653 0
M  V30 60 O 5.4343 1.50414 1.03354 0
M  V30 61 C 5.4853 2.89316 -2.16745 0
M  V30 62 O 5.2063 2.59459 -3.53005 0
M  V30 63 C 6.7073 3.83606 -2.22174 0
M  V30 64 H 3.9273 0.488226 -0.4603 0
M  V30 65 H 6.4713 0.974733 -1.79775 0
M  V30 66 H 4.6263 3.4575 -1.74745 0
M  V30 67 H 5.0403 3.43804 -3.96105 0
M  V30 68 H 6.5143 4.73181 -2.8426 0
M  V30 69 H 6.9913 4.21734 -1.22627 0
M  V30 70 H 7.5973 3.33104 -2.64427 0
M  V30 71 N 5.9124 1.20967 1.01018 0
M  V30 72 C 7.1594 1.02374 1.74716 0
M  V30 73 C 7.4874 -0.443375 1.89379 0
M  V30 74 O 6.7424 -1.34535 1.42123 0
M  V30 75 C 7.0414 1.65997 3.16512 0
M  V30 76 C 6.7074 3.15831 3.2181 0
M  V30 77 C 5.3694 3.56719 3.22963 0
M  V30 78 C 7.7214 4.11816 3.19464 0
M  V30 79 C 5.0494 4.92107 3.19449 0
M  V30 80 C 7.4014 5.47158 3.17491 0
M  V30 81 C 6.0654 5.87451 3.16951 0
M  V30 82 H 5.3354 0.374614 0.639332 0
M  V30 83 H 7.9824 1.50485 1.18434 0
M  V30 84 H 6.2874 1.10166 3.75993 0
M  V30 85 H 7.9844 1.49119 3.72242 0
M  V30 86 H 4.5744 2.83263 3.21652 0
M  V30 87 H 8.7584 3.81257 3.17737 0
M  V30 88 H 4.0144 5.22579 3.17366 0
M  V30 89 H 8.1884 6.21274 3.14629 0
M  V30 90 H 5.8154 6.92329 3.13983 0
M  V30 91 N 7.3905 -1.2043 1.01659 0
M  V30 92 C 8.3005 -2.2689 0.596484 0
M  V30 93 C 9.3165 -1.70107 -0.36599 0
M  V30 94 O 10.4925 -2.00117 -0.226942 0
M  V30 95 C 7.5575 -3.4665 -0.0586659 0
M  V30 96 C 6.6185 -4.18662 0.949751 0
M  V30 97 C 5.8515 -5.32705 0.32577 0
M  V30 98 O 6.0745 -5.63656 -0.874509 0
M  V30 99 O 5.0085 -5.92803 1.04249 0
M  V30 100 H 8.8345 -2.65041 1.4828 0
M  V30 101 H 6.4195 -1.27048 0.786082 0
M  V30 102 H 8.3015 -4.19256 -0.424564 0
M  V30 103 H 6.9765 -3.10375 -0.91918 0
M  V30 104 H 5.8835 -3.48229 1.36702 0
M  V30 105 H 7.2165 -4.58878 1.78023 0
M  V30 106 N 8.8686 -0.792821 -1.36206 0
M  V30 107 C 9.8006 -0.151469 -2.28699 0
M  V30 108 C 10.8136 0.641262 -1.49638 0
M  V30 109 O 12.0026 0.475885 -1.72039 0
M  V30 110 C 9.1026 0.808424 -3.29117 0
M  V30 111 C 8.2756 0.0650202 -4.37352 0
M  V30 112 C 7.3346 0.941358 -5.17711 0
M  V30 113 O 6.3606 0.397352 -5.67811 0
M  V30 114 N 7.5626 2.2652 -5.3448 0
M  V30 115 H 10.3276 -0.945982 -2.84379 0
M  V30 116 H 7.8886 -0.647032 -1.48409 0
M  V30 117 H 9.8806 1.3986 -3.79765 0
M  V30 118 H 8.4506 1.5038 -2.74052 0
M  V30 119 H 7.6706 -0.706255 -3.87822 0
M  V30 120 H 8.9586 -0.447847 -5.06825 0
M  V30 121 H 8.3566 2.73128 -4.95396 0
M  V30 122 H 6.9136 2.80493 -5.88359 0
M  V30 123 N 10.3467 1.47872 -0.545128 0
M  V30 124 C 11.2767 2.32661 0.197793 0
M  V30 125 C 12.2577 1.43041 0.920504 0
M  V30 126 O 13.4427 1.71912 0.90333 0
M  V30 127 C 10.5727 3.24569 1.23582 0
M  V30 128 C 9.5267 4.23333 0.630323 0
M  V30 129 C 8.8527 5.0448 1.77211 0
M  V30 130 C 10.1527 5.20704 -0.407974 0
M  V30 131 H 11.8467 2.95024 -0.510045 0
M  V30 132 H 9.3927 1.4187 -0.246731 0
M  V30 133 H 11.3457 3.8272 1.76362 0
M  V30 134 H 10.0697 2.60236 1.97344 0
M  V30 135 H 8.7287 3.6639 0.123922 0
M  V30 136 H 8.3767 4.36561 2.49847 0
M  V30 137 H 8.0767 5.71339 1.37281 0
M  V30 138 H 9.6007 5.65487 2.3034 0
M  V30 139 H 11.0147 5.7329 0.033305 0
M  V30 140 H 9.4117 5.95699 -0.725486 0
M  V30 141 H 10.4817 4.66917 -1.30828 0
M  V30 142 N 11.8248 0.280983 1.55075 0
M  V30 143 C 12.7718 -0.603937 2.22758 0
M  V30 144 C 13.7418 -1.1452 1.20309 0
M  V30 145 O 14.9268 -1.19343 1.48869 0
M  V30 146 C 12.0668 -1.77947 2.95684 0
M  V30 147 C 11.1798 -1.2715 4.12864 0
M  V30 148 C 10.3148 -2.4093 4.7342 0
M  V30 149 C 9.3538 -1.87165 5.82783 0
M  V30 150 N 8.4908 -2.94441 6.37377 0
M  V30 151 H 13.3308 -0.020124 2.97993 0
M  V30 152 H 10.8678 0.00183425 1.471 0
M  V30 153 H 12.8258 -2.47055 3.36184 0
M  V30 154 H 11.4558 -2.33522 2.22861 0
M  V30 155 H 10.5078 -0.473331 3.77444 0
M  V30 156 H 11.8198 -0.837751 4.91715 0
M  V30 157 H 10.9738 -3.18021 5.1667 0
M  V30 158 H 9.7128 -2.87623 3.93859 0
M  V30 159 H 8.7178 -1.08556 5.38976 0
M  V30 160 H 9.9428 -1.41401 6.64216 0
M  V30 161 H 7.8888 -3.40505 5.60707 0
M  V30 162 H 7.8058 -2.55501 7.11516 0
M  V30 163 H 9.0738 -3.71489 6.85285 0
M  V30 164 N 13.3029 -1.57598 0.00835791 0
M  V30 165 C 14.2659 -2.07884 -0.965242 0
M  V30 166 C 15.2659 -0.989825 -1.26725 0
M  V30 167 O 16.4559 -1.25218 -1.21104 0
M  V30 168 C 13.5879 -2.52731 -2.28779 0
M  V30 169 H 14.7809 -2.95178 -0.530112 0
M  V30 170 H 12.3339 -1.54458 -0.239283 0
M  V30 171 H 13.0689 -1.68705 -2.76964 0
M  V30 172 H 12.8539 -3.32272 -2.08177 0
M  V30 173 H 14.3439 -2.91933 -2.98605 0
M  V30 174 N 14.781 0.264519 -1.55364 0
M  V30 175 C 15.744 1.31046 -1.88042 0
M  V30 176 C 16.744 1.41943 -0.755569 0
M  V30 177 O 17.934 1.40947 -1.02369 0
M  V30 178 C 15.066 2.69067 -2.09323 0
M  V30 179 H 16.259 1.03297 -2.81549 0
M  V30 180 H 13.812 0.502989 -1.47986 0
M  V30 181 H 14.547 3.01982 -1.18226 0
M  V30 182 H 14.332 2.62542 -2.91229 0
M  V30 183 H 15.822 3.44623 -2.35848 0
M  V30 184 N 16.2591 1.48442 0.529413 0
M  V30 185 C 17.5061 1.56488 1.28521 0
M  V30 186 C 17.8341 0.239042 1.93025 0
M  V30 187 O 17.0891 -0.770713 1.79885 0
M  V30 188 C 17.3881 2.6523 2.39558 0
M  V30 189 C 17.0541 4.07648 1.92702 0
M  V30 190 C 15.7161 4.46411 1.79641 0
M  V30 191 C 18.0681 4.96896 1.573 0
M  V30 192 C 15.3961 5.72226 1.29514 0
M  V30 193 C 17.7481 6.23202 1.08636 0
M  V30 194 C 16.4121 6.60821 0.941919 0
M  V30 195 H 15.6821 0.572631 0.470292 0
M  V30 196 H 18.3291 1.82161 0.59072 0
M  V30 197 H 16.6341 2.33419 3.14679 0
M  V30 198 H 18.3311 2.68671 2.97686 0
M  V30 199 H 14.9211 3.77036 2.03819 0
M  V30 200 H 19.1051 4.67626 1.66251 0
M  V30 201 H 14.3611 6.00097 1.17019 0
M  V30 202 H 18.5351 6.91753 0.803136 0
M  V30 203 H 16.1621 7.58198 0.5513 0
M  V30 204 N 17.7372 -0.778329 1.37039 0
M  V30 205 C 18.6852 -1.91278 1.32345 0
M  V30 206 C 19.6792 -1.68051 0.213331 0
M  V30 207 O 20.8852 -1.75922 0.38098 0
M  V30 208 H 17.2602 -0.628909 0.412283 0
M  V30 209 H 19.2312 -1.92355 2.28127 0
M  V30 210 C 17.9802 -3.28455 1.14073 0
M  V30 211 H 17.3032 -3.46901 1.98746 0
M  V30 212 H 18.7432 -4.08152 1.14837 0
M  V30 213 C 17.2022 -3.36548 -0.154015 0
M  V30 214 O 17.7322 -3.85186 -1.13993 0
M  V30 215 N 15.9382 -2.89894 -0.202475 0
M  V30 216 H 15.4852 -2.50504 0.600476 0
M  V30 217 H 15.4432 -2.9569 -1.06841 0
M  V30 218 N 19.2153 -1.21501 -1.00376 0
M  V30 219 C 20.6313 -0.972629 -1.26539 0
M  V30 220 C 20.8313 0.340257 -1.98606 0
M  V30 221 O 19.8873 1.06561 -2.28913 0
M  V30 222 C 21.2003 -2.16404 -2.08781 0
M  V30 223 C 22.7483 -2.20643 -2.22004 0
M  V30 224 C 23.2233 -3.39306 -3.07629 0
M  V30 225 N 24.7143 -3.39401 -3.15217 0
M  V30 226 C 25.4493 -4.27867 -3.81729 0
M  V30 227 N 24.9453 -5.26533 -4.5026 0
M  V30 228 N 26.7383 -4.15672 -3.78382 0
M  V30 229 H 18.8893 -2.05929 -0.520281 0
M  V30 230 H 21.1523 -0.901803 -0.292328 0
M  V30 231 H 20.8583 -3.11554 -1.63178 0
M  V30 232 H 20.7323 -2.15567 -3.09533 0
M  V30 233 H 23.1193 -1.26048 -2.66825 0
M  V30 234 H 23.2003 -2.25523 -1.20718 0
M  V30 235 H 22.8443 -4.34195 -2.63509 0
M  V30 236 H 22.7743 -3.31665 -4.09031 0
M  V30 237 H 25.2653 -2.67997 -2.66432 0
M  V30 238 H 25.5783 -5.90337 -4.98721 0
M  V30 239 H 23.9233 -5.30457 -4.49044 0
M  V30 240 H 27.1143 -3.3785 -3.23998 0
M  V30 241 H 27.2873 -4.84825 -4.2994 0
M  V30 242 N 20.6934 1.19889 -1.02296 0
M  V30 243 C 21.9394 1.89701 -0.717033 0
M  V30 244 C 22.2724 1.7905 0.751989 0
M  V30 245 O 21.5474 1.17891 1.547 0
M  V30 246 C 21.8304 3.40858 -1.16136 0
M  V30 247 C 21.6834 3.60411 -2.69117 0
M  V30 248 C 23.0024 4.33876 -0.737549 0
M  V30 249 H 20.1214 0.688874 -0.261957 0
M  V30 250 H 22.7634 1.41154 -1.27183 0
M  V30 251 H 20.9134 3.82335 -0.689342 0
M  V30 252 H 22.5854 3.28145 -3.2422 0
M  V30 253 H 20.8284 3.03665 -3.0979 0
M  V30 254 H 21.4994 4.66396 -2.95261 0
M  V30 255 H 23.9754 4.00081 -1.14344 0
M  V30 256 H 22.8514 5.38242 -1.0764 0
M  V30 257 H 23.1124 4.40628 0.360436 0
M  V30 258 N 22.1715 0.800033 1.35784 0
M  V30 259 C 23.1015 0.220184 2.3246 0
M  V30 260 C 24.0825 -0.65073 1.57161 0
M  V30 261 O 25.2675 -0.582359 1.85263 0
M  V30 262 C 22.3975 -0.637353 3.41402 0
M  V30 263 C 21.3515 0.134531 4.27789 0
M  V30 264 C 20.6775 -0.844285 5.27992 0
M  V30 265 C 21.9775 1.32979 5.05088 0
M  V30 266 H 23.6715 1.02787 2.81203 0
M  V30 267 H 21.2175 0.495717 1.35199 0
M  V30 268 H 23.1705 -1.05302 4.08031 0
M  V30 269 H 21.8945 -1.47785 2.91251 0
M  V30 270 H 20.5535 0.531296 3.6273 0
M  V30 271 H 20.2015 -1.68011 4.74111 0
M  V30 272 H 19.9015 -0.332184 5.8666 0
M  V30 273 H 21.4255 -1.2583 5.97494 0
M  V30 274 H 22.8395 0.98934 5.64699 0
M  V30 275 H 21.2365 1.77593 5.7322 0
M  V30 276 H 22.3065 2.11978 4.36111 0
M  V30 277 N 23.6496 -1.47581 0.552962 0
M  V30 278 C 24.8986 -2.01684 0.0251995 0
M  V30 279 C 25.2116 -1.43317 -1.33115 0
M  V30 280 O 26.4176 -1.89057 -1.94858 0
M  V30 281 C 24.8736 -3.599 -0.00542052 0
M  V30 282 C 24.4816 -4.27257 1.34742 0
M  V30 283 C 26.2256 -4.21768 -0.4808 0
M  V30 284 C 24.1326 -5.77467 1.27614 0
M  V30 285 H 23.0626 -0.753979 0.00565033 0
M  V30 286 H 25.7136 -1.69616 0.70018 0
M  V30 287 H 24.0956 -3.88911 -0.745961 0
M  V30 288 H 25.2696 -4.09893 2.10534 0
M  V30 289 H 23.5846 -3.77358 1.76039 0
M  V30 290 H 26.1816 -5.31838 -0.55246 0
M  V30 291 H 26.5246 -3.88651 -1.49184 0
M  V30 292 H 27.0576 -3.97273 0.204752 0
M  V30 293 H 23.7966 -6.15196 2.26304 0
M  V30 294 H 23.3166 -5.9718 0.55996 0
M  V30 295 H 24.9956 -6.3959 0.976421 0
M  V30 296 N 25.1277 -0.289203 -1.54924 0
M  V30 297 C 26.3527 0.329299 -2.04769 0
M  V30 298 C 26.7777 1.4763 -1.16564 0
M  V30 299 O 26.1357 1.80527 -0.167186 0
M  V30 300 C 26.1837 0.774438 -3.52186 0
M  V30 301 O 25.2877 1.88038 -3.67036 0
M  V30 302 H 24.6287 0.0659259 -0.660719 0
M  V30 303 H 27.1587 -0.42761 -2.00082 0
M  V30 304 H 27.1687 1.06642 -3.93816 0
M  V30 305 H 25.8437 -0.0646707 -4.1585 0
M  V30 306 H 24.4207 1.58985 -3.3731 0
M  V30 307 N 26.6058 1.57591 -0.0167156 0
M  V30 308 C 28.0218 1.55946 0.339557 0
M  V30 309 C 28.2218 1.02109 1.73713 0
M  V30 310 O 27.2778 0.662303 2.43659 0
M  V30 311 C 28.5908 3.00037 0.199499 0
M  V30 312 C 30.1388 3.11805 0.273193 0
M  V30 313 C 30.6138 4.57713 0.162068 0
M  V30 314 N 32.1048 4.6268 0.219444 0
M  V30 315 C 32.8398 5.73185 0.157054 0
M  V30 316 N 32.3358 6.92786 0.0442936 0
M  V30 317 N 34.1288 5.61707 0.21014 0
M  V30 318 H 26.2798 1.90921 -0.930758 0
M  V30 319 H 28.5428 0.877674 -0.358319 0
M  V30 320 H 28.2488 3.4333 -0.76273 0
M  V30 321 H 28.1228 3.64387 0.974786 0
M  V30 322 H 30.5098 2.68433 1.22587 0
M  V30 323 H 30.5908 2.50201 -0.532256 0
M  V30 324 H 30.2348 5.01763 -0.78714 0
M  V30 325 H 30.1648 5.17283 0.986222 0
M  V30 326 H 32.6558 3.76649 0.307246 0
M  V30 327 H 32.9688 7.728 0.00304069 0
M  V30 328 H 31.3138 6.94999 0.00968457 0
M  V30 329 H 34.5048 4.6716 0.296546 0
M  V30 330 H 34.6778 6.47807 0.158054 0
M  V30 331 N 28.0839 -0.256276 1.55502 0
M  V30 332 C 29.3319 -0.983672 1.76545 0
M  V30 333 C 29.6529 -1.86206 0.578982 0
M  V30 334 O 28.9229 -1.91656 -0.405577 0
M  V30 335 H 27.5029 -0.366191 0.651086 0
M  V30 336 H 30.1649 -0.276479 1.92929 0
M  V30 337 H 29.2609 -1.61087 2.67315 0
M  V30 338 N 29.562 -1.4872 -0.521534 0
M  V30 339 C 30.808 -1.574 -1.27879 0
M  V30 340 C 31.141 -0.250817 -1.92573 0
M  V30 341 O 30.416 0.743934 -1.79711 0
M  V30 342 C 30.699 -2.71843 -2.36164 0
M  V30 343 C 30.552 -4.13893 -1.76105 0
M  V30 344 C 31.871 -2.82008 -3.37875 0
M  V30 345 H 28.99 -0.572941 -0.463581 0
M  V30 346 H 31.632 -1.80927 -0.580119 0
M  V30 347 H 29.782 -2.51914 -2.95756 0
M  V30 348 H 31.454 -4.45284 -1.20499 0
M  V30 349 H 29.697 -4.20498 -1.06601 0
M  V30 350 H 30.368 -4.89804 -2.5455 0
M  V30 351 H 32.844 -3.00086 -2.88249 0
M  V30 352 H 31.72 -3.63796 -4.11028 0
M  V30 353 H 31.981 -1.90511 -3.98946 0
M  V30 354 N 31.0401 0.771051 -1.3745 0
M  V30 355 C 32.3171 1.519 -1.23231 0
M  V30 356 C 32.6971 2.10383 0.173809 0
M  V30 357 O 32.0451 1.95583 1.18151 0
M  V30 358 C 32.2551 2.59933 -2.32886 0
M  V30 359 C 33.6031 3.27316 -2.70461 0
M  V30 360 O 34.6271 2.70228 -2.32068 0
M  V30 361 O 33.4861 4.30531 -3.36608 0
M  V30 362 H 30.5801 0.672803 -0.480901 0
M  V30 363 H 33.1261 0.807957 -1.49232 0
M  V30 364 H 31.8981 2.14842 -3.27045 0
M  V30 365 H 31.5211 3.38637 -2.08353 0
M  V30 366 N 32.5182 1.22032 0.997298 0
M  V30 367 C 33.7432 1.06921 1.77715 0
M  V30 368 C 34.1682 -0.376226 1.84299 0
M  V30 369 O 33.5262 -1.27165 1.29223 0
M  V30 370 C 33.5742 1.67996 3.19076 0
M  V30 371 O 32.6782 0.930653 4.01762 0
M  V30 372 H 32.0192 0.375814 0.547412 0
M  V30 373 H 34.5492 1.61737 1.25309 0
M  V30 374 H 34.5592 1.72538 3.69723 0
M  V30 375 H 33.2342 2.73182 3.13599 0
M  V30 376 H 31.8112 0.960917 3.60307 0
M  V30 377 N 33.9963 -1.19345 1.0293 0
M  V30 378 C 34.9063 -2.26245 0.620515 0
M  V30 379 C 35.9223 -1.70486 -0.347928 0
M  V30 380 O 37.0983 -2.00347 -0.205704 0
M  V30 381 C 34.1633 -3.46693 -0.0218957 0
M  V30 382 C 33.2243 -4.17632 0.994102 0
M  V30 383 C 32.4573 -5.32329 0.382253 0
M  V30 384 O 32.6803 -5.64552 -0.814676 0
M  V30 385 O 31.6143 -5.91664 1.10531 0
M  V30 386 H 35.4403 -2.63453 1.51083 0
M  V30 387 H 33.0253 -1.26207 0.799513 0
M  V30 388 H 34.9073 -4.19683 -0.380072 0
M  V30 389 H 33.5823 -3.11333 -0.886209 0
M  V30 390 H 32.4893 -3.4676 1.40387 0
M  V30 391 H 33.8223 -4.56964 1.8288 0
M  V30 392 N 35.4744 -0.807222 -1.35358 0
M  V30 393 C 36.7024 -0.400377 -2.02989 0
M  V30 394 C 37.1174 0.988859 -1.60832 0
M  V30 395 O 36.4744 1.63729 -0.806175 0
M  V30 396 C 36.5254 -0.474867 -3.58368 0
M  V30 397 O 36.2464 -1.80933 -3.98992 0
M  V30 398 C 37.7474 -0.0609112 -4.43258 0
M  V30 399 H 34.9674 -0.162587 -0.651004 0
M  V30 400 H 37.5114 -1.09102 -1.72965 0
M  V30 401 H 35.6664 0.167534 -3.87038 0
M  V30 402 H 36.0804 -1.77256 -4.9364 0
M  V30 403 H 37.5544 -0.164145 -5.51756 0
M  V30 404 H 38.0314 0.993831 -4.27808 0
M  V30 405 H 38.6374 -0.676492 -4.19885 0
M  V30 406 N 36.9525 1.47285 -0.560781 0
M  V30 407 C 37.9155 2.28535 0.174488 0
M  V30 408 C 38.9155 1.37153 0.839388 0
M  V30 409 O 40.1055 1.59748 0.694702 0
M  V30 410 C 37.2375 3.16934 1.25561 0
M  V30 411 H 38.4305 2.95012 -0.539262 0
M  V30 412 H 35.9835 1.53034 -0.317865 0
M  V30 413 H 36.7185 2.55157 2.00164 0
M  V30 414 H 36.5035 3.8419 0.783604 0
M  V30 415 H 37.9935 3.78143 1.77193 0
M  V30 416 N 38.4306 0.297415 1.54768 0
M  V30 417 C 39.7076 -0.365847 1.92148 0
M  V30 418 C 40.0876 -1.71975 1.22424 0
M  V30 419 O 39.4356 -2.25666 0.358739 0
M  V30 420 C 39.6456 -0.484056 3.45627 0
M  V30 421 C 40.9936 -0.756594 4.17805 0
M  V30 422 O 42.0176 -0.568007 3.51642 0
M  V30 423 O 40.8766 -1.11863 5.34929 0
M  V30 424 H 37.9706 -0.203919 0.801465 0
M  V30 425 H 40.5166 0.34521 1.66152 0
M  V30 426 H 39.2886 0.467865 3.88493 0
M  V30 427 H 38.9116 -1.24372 3.77647 0
M  V30 428 N 39.9087 -1.5758 0.0250728 0
M  V30 429 C 40.8717 -2.08896 -0.943139 0
M  V30 430 C 41.8717 -1.00321 -1.25668 0
M  V30 431 O 43.0617 -1.26495 -1.19769 0
M  V30 432 C 40.1937 -2.55143 -2.26086 0
M  V30 433 H 41.3867 -2.95723 -0.498775 0
M  V30 434 H 38.9397 -1.54703 -0.222888 0
M  V30 435 H 39.6747 -1.71633 -2.75159 0
M  V30 436 H 39.4597 -3.34461 -2.04641 0
M  V30 437 H 40.9497 -2.95083 -2.95492 0
M  V30 438 N 41.3868 0.248026 -1.55636 0
M  V30 439 C 42.6268 0.983592 -1.79178 0
M  V30 440 C 42.9908 1.82567 -0.594414 0
M  V30 441 O 44.1918 2.59292 -0.708583 0
M  V30 442 C 42.4628 1.82228 -3.07454 0
M  V30 443 S 44.0218 2.61709 -3.52213 0
M  V30 444 H 40.8398 0.330866 -0.629324 0
M  V30 445 H 43.4418 0.251562 -1.93875 0
M  V30 446 H 42.1458 1.19333 -3.92668 0
M  V30 447 H 41.6768 2.59708 -2.95492 0
M  V30 448 H 43.6918 3.84655 -3.13457 0
M  V30 449 N 42.8649 1.48995 0.513639 0
M  V30 450 C 43.8279 1.64229 1.59879 0
M  V30 451 C 44.8279 0.514696 1.5234 0
M  V30 452 O 46.0179 0.78087 1.55718 0
M  V30 453 C 43.1499 1.62783 2.99524 0
M  V30 454 H 44.3429 2.61004 1.47705 0
M  V30 455 H 41.8959 1.37837 0.736936 0
M  V30 456 H 42.6309 0.675461 3.17188 0
M  V30 457 H 42.4159 2.4466 3.06404 0
M  V30 458 H 43.9059 1.76669 3.78388 0
M  V30 459 N 44.343 -0.763751 1.37857 0
M  V30 460 C 45.253 -1.90817 1.36478 0
M  V30 461 C 46.269 -1.71997 0.263248 0
M  V30 462 O 47.445 -1.95095 0.499979 0
M  V30 463 C 44.51 -3.2605 1.17864 0
M  V30 464 C 43.571 -3.57467 2.3773 0
M  V30 465 C 42.804 -4.86249 2.19995 0
M  V30 466 O 43.027 -5.57884 1.18836 0
M  V30 467 O 41.961 -5.16911 3.08361 0
M  V30 468 H 45.787 -1.94933 2.32884 0
M  V30 469 H 43.372 -0.907619 1.1867 0
M  V30 470 H 45.254 -4.06924 1.09504 0
M  V30 471 H 43.929 -3.22769 0.245372 0
M  V30 472 H 42.836 -2.76796 2.51664 0
M  V30 473 H 44.169 -3.655 3.29652 0
M  V30 474 N 45.8211 -1.22559 -0.990812 0
M  V30 475 C 46.7541 -0.940773 -2.07905 0
M  V30 476 C 47.7321 0.117082 -1.62178 0
M  V30 477 O 48.9161 -0.0149506 -1.88494 0
M  V30 478 C 46.0431 -0.415321 -3.36144 0
M  V30 479 C 45.0891 -1.45818 -4.00799 0
M  V30 480 S 45.9221 -3.03219 -4.41382 0
M  V30 481 C 47.0781 -2.52317 -5.72789 0
M  V30 482 H 47.3111 -1.8623 -2.31745 0
M  V30 483 H 44.8441 -1.05688 -1.12558 0
M  V30 484 H 46.8021 -0.118747 -4.10328 0
M  V30 485 H 45.4631 0.485121 -3.10331 0
M  V30 486 H 44.6561 -1.04044 -4.93144 0
M  V30 487 H 44.2581 -1.70356 -3.32949 0
M  V30 488 H 46.5501 -1.93688 -6.49224 0
M  V30 489 H 47.4931 -3.43161 -6.19392 0
M  V30 490 H 47.9011 -1.93529 -5.30289 0
M  V30 491 N 47.2992 1.18797 -1.03562 0
M  V30 492 C 48.5462 1.8865 -0.736023 0
M  V30 493 C 48.8742 1.80041 0.735889 0
M  V30 494 O 48.1292 1.19179 1.55225 0
M  V30 495 C 48.4282 3.38692 -1.14117 0
M  V30 496 C 48.0942 3.67504 -2.6125 0
M  V30 497 C 46.7562 3.75078 -3.01447 0
M  V30 498 C 49.1082 3.80293 -3.56408 0
M  V30 499 C 46.4362 3.92915 -4.35701 0
M  V30 500 C 48.7882 3.99645 -4.90374 0
M  V30 501 C 47.4522 4.05453 -5.30249 0
M  V30 502 H 46.7222 0.690321 -0.26933 0
M  V30 503 H 49.3692 1.40641 -1.29971 0
M  V30 504 H 47.6742 3.88645 -0.496202 0
M  V30 505 H 49.3712 3.91072 -0.886789 0
M  V30 506 H 45.9612 3.62223 -2.29113 0
M  V30 507 H 50.1452 3.73779 -3.26501 0
M  V30 508 H 45.4012 3.95653 -4.66121 0
M  V30 509 H 49.5752 4.08482 -5.64017 0
M  V30 510 H 47.2022 4.19027 -6.34288 0
M  V30 511 N 48.7773 0.814389 1.34928 0
M  V30 512 C 49.7403 0.235759 2.27984 0
M  V30 513 C 50.7403 -0.581412 1.49921 0
M  V30 514 O 51.9303 -0.398758 1.69575 0
M  V30 515 C 49.0623 -0.670433 3.34242 0
M  V30 516 H 50.2553 1.05659 2.80671 0
M  V30 517 H 47.8083 0.585614 1.44915 0
M  V30 518 H 48.5433 -1.51466 2.86755 0
M  V30 519 H 48.3283 -0.0860822 3.92005 0
M  V30 520 H 49.8183 -1.06935 4.03676 0
M  V30 521 N 50.2554 -1.46986 0.568584 0
M  V30 522 C 51.6714 -1.57946 0.229189 0
M  V30 523 C 51.8714 -1.56567 -1.26843 0
M  V30 524 O 50.9274 -1.47511 -2.04931 0
M  V30 525 C 52.2404 -2.87963 0.865909 0
M  V30 526 C 53.7884 -3.01568 0.838188 0
M  V30 527 C 54.2634 -4.34301 1.45419 0
M  V30 528 N 55.7544 -4.40965 1.41788 0
M  V30 529 C 56.4894 -5.42256 1.86403 0
M  V30 530 N 55.9854 -6.50297 2.38926 0
M  V30 531 N 57.7784 -5.3337 1.77405 0
M  V30 532 H 49.9294 -1.46126 1.54146 0
M  V30 533 H 52.1924 -0.696156 0.643484 0
M  V30 534 H 51.8984 -2.94742 1.91886 0
M  V30 535 H 51.7724 -3.75423 0.365687 0
M  V30 536 H 54.1594 -2.94379 -0.206106 0
M  V30 537 H 54.2404 -2.1562 1.37629 0
M  V30 538 H 53.8844 -4.42247 2.49761 0
M  V30 539 H 53.8144 -5.19 0.891435 0
M  V30 540 H 56.3054 -3.63484 1.03381 0
M  V30 541 H 56.6184 -7.23777 2.70863 0
M  V30 542 H 54.9634 -6.51155 2.42944 0
M  V30 543 H 58.1544 -4.47865 1.3614 0
M  V30 544 H 58.3274 -6.12169 2.12492 0
M  V30 545 N 51.7335 -0.305618 -1.54608 0
M  V30 546 C 52.9615 0.304775 -2.04643 0
M  V30 547 C 53.3765 1.47167 -1.18268 0
M  V30 548 O 52.7335 1.81296 -0.209328 0
M  V30 549 C 52.7845 0.756564 -3.53495 0
M  V30 550 O 52.5055 -0.36389 -4.36586 0
M  V30 551 C 54.0065 1.43163 -4.19546 0
M  V30 552 H 51.2265 0.0655481 -0.667791 0
M  V30 553 H 53.7705 -0.446592 -1.99564 0
M  V30 554 H 51.9255 1.45794 -3.58919 0
M  V30 555 H 52.3395 -0.0113121 -5.24499 0
M  V30 556 H 53.8135 1.69886 -5.25207 0
M  V30 557 H 54.2905 2.37318 -3.69563 0
M  V30 558 H 54.8965 0.773307 -4.18211 0
M  V30 559 N 53.2116 1.57565 -0.0334293 0
M  V30 560 C 54.4396 1.9628 0.654347 0
M  V30 561 C 54.8546 0.910138 1.65414 0
M  V30 562 O 54.2116 -0.107595 1.82183 0
M  V30 563 C 54.2626 3.35067 1.35693 0
M  V30 564 O 53.9836 4.36296 0.397191 0
M  V30 565 C 55.4846 3.88439 2.13613 0
M  V30 566 H 52.7046 0.646369 0.180132 0
M  V30 567 H 55.2486 2.04282 -0.0944721 0
M  V30 568 H 53.4036 3.2827 2.05712 0
M  V30 569 H 53.8176 5.1678 0.896597 0
M  V30 570 H 55.2916 4.8788 2.58219 0
M  V30 571 H 55.7686 3.22914 2.97696 0
M  V30 572 H 56.3746 3.98516 1.48543 0
M  V30 573 N 54.6897 -0.239769 1.55765 0
M  V30 574 C 55.5997 -1.31831 1.94056 0
M  V30 575 C 56.6157 -1.52275 0.841925 0
M  V30 576 O 57.7917 -1.65759 1.14394 0
M  V30 577 C 54.8567 -2.65156 2.23368 0
M  V30 578 C 53.9177 -2.53173 3.46701 0
M  V30 579 C 53.1507 -3.8014 3.74606 0
M  V30 580 O 53.3737 -4.82343 3.04469 0
M  V30 581 O 52.3077 -3.78344 4.68123 0
M  V30 582 H 56.1337 -1.02347 2.85935 0
M  V30 583 H 53.7187 -0.441123 1.42739 0
M  V30 584 H 55.6007 -3.43929 2.43497 0
M  V30 585 H 54.2757 -2.94358 1.34666 0
M  V30 586 H 53.1827 -1.72662 3.31871 0
M  V30 587 H 54.5157 -2.28915 4.35728 0
M  V30 588 N 56.1678 -1.49265 -0.50573 0
M  V30 589 C 57.3928 -1.62478 -1.28902 0
M  V30 590 C 57.8178 -0.294332 -1.85783 0
M  V30 591 O 57.1758 0.737412 -1.65626 0
M  V30 592 C 57.2238 -2.69268 -2.39848 0
M  V30 593 O 56.3278 -2.28113 -3.43567 0
M  V30 594 H 55.6688 -0.54399 -0.380751 0
M  V30 595 H 58.1988 -1.95421 -0.605952 0
M  V30 596 H 58.2088 -2.91291 -2.85681 0
M  V30 597 H 56.8838 -3.65846 -1.97812 0
M  V30 598 H 55.4608 -2.16401 -3.03685 0
M  V30 599 N 57.6459 0.756429 -1.3826 0
M  V30 600 C 58.8939 1.51248 -1.34047 0
M  V30 601 C 59.2149 1.94875 0.0698372 0
M  V30 602 O 58.4849 1.67436 1.01696 0
M  V30 603 H 57.0649 0.561018 -0.493222 0
M  V30 604 H 59.7269 0.899347 -1.7291 0
M  V30 605 H 58.8229 2.40472 -1.98947 0
M  V30 606 N 59.124 1.23083 0.984299 0
M  V30 607 C 60.37 1.06214 1.72761 0
M  V30 608 C 60.703 -0.400584 1.90024 0
M  V30 609 O 59.978 -1.29672 1.44967 0
M  V30 610 C 60.261 1.78375 3.12817 0
M  V30 611 C 60.114 3.32296 3.03149 0
M  V30 612 C 61.433 1.54309 4.12161 0
M  V30 613 H 58.552 0.387251 0.627061 0
M  V30 614 H 61.194 1.51536 1.14616 0
M  V30 615 H 59.344 1.39848 3.62457 0
M  V30 616 H 61.016 3.8032 2.61064 0
M  V30 617 H 59.259 3.6153 2.39747 0
M  V30 618 H 59.93 3.77972 4.02295 0
M  V30 619 H 62.406 1.87791 3.71314 0
M  V30 620 H 61.282 2.07281 5.08258 0
M  V30 621 H 61.543 0.477572 4.39513 0
M  V30 622 N 60.6021 -1.18246 1.0419 0
M  V30 623 C 61.8321 -1.91916 0.764961 0
M  V30 624 C 62.2401 -1.76485 -0.681898 0
M  V30 625 O 61.5831 -1.09275 -1.47664 0
M  V30 626 C 61.6451 -3.4373 1.05309 0
M  V30 627 C 61.3091 -3.8294 2.4941 0
M  V30 628 C 62.3061 -3.86621 3.47592 0
M  V30 629 C 59.9911 -4.142 2.84155 0
M  V30 630 C 61.9851 -4.21013 4.78568 0
M  V30 631 C 59.6721 -4.48262 4.15337 0
M  V30 632 C 60.6701 -4.51645 5.12353 0
M  V30 633 O 60.3581 -4.84911 6.41183 0
M  V30 634 H 60.0901 -0.61606 0.278292 0
M  V30 635 H 62.6441 -1.50947 1.39299 0
M  V30 636 H 60.8741 -3.84946 0.367933 0
M  V30 637 H 62.5631 -3.9865 0.763752 0
M  V30 638 H 63.3291 -3.62607 3.22089 0
M  V30 639 H 59.2081 -4.10743 2.09311 0
M  V30 640 H 62.7521 -4.23568 5.54289 0
M  V30 641 H 58.6491 -4.71737 4.40607 0
M  V30 642 H 59.4171 -5.02809 6.45852 0
M  V30 643 N 62.0802 -0.821533 -1.34494 0
M  V30 644 C 63.3052 -0.420873 -2.03085 0
M  V30 645 C 63.7302 0.964915 -1.61465 0
M  V30 646 O 63.0882 1.62763 -0.798607 0
M  V30 647 C 63.1362 -0.529414 -3.56693 0
M  V30 648 O 62.2402 0.451302 -4.09923 0
M  V30 649 H 61.5812 -0.173489 -0.640935 0
M  V30 650 H 64.1112 -1.11157 -1.71771 0
M  V30 651 H 64.1212 -0.404671 -4.05988 0
M  V30 652 H 62.7962 -1.54014 -3.86332 0
M  V30 653 H 61.3732 0.285558 -3.71805 0
M  V30 654 N 63.5583 1.46682 -0.576371 0
M  V30 655 C 64.5083 2.27278 0.181288 0
M  V30 656 C 65.4923 1.35497 0.867721 0
M  V30 657 O 66.6843 1.59717 0.762863 0
M  V30 658 C 63.8133 3.21703 1.19841 0
M  V30 659 C 62.8993 4.20969 0.51442 0
M  V30 660 N 63.2903 5.03999 -0.426407 0
M  V30 661 C 61.5883 4.39373 0.765963 0
M  V30 662 C 62.2893 5.75812 -0.825565 0
M  V30 663 N 61.2653 5.43315 -0.176116 0
M  V30 664 H 65.0673 2.88863 -0.541785 0
M  V30 665 H 62.5813 1.57455 -0.397697 0
M  V30 666 H 64.5783 3.78145 1.75533 0
M  V30 667 H 63.2383 2.61677 1.92238 0
M  V30 668 H 64.2493 5.11659 -0.8016 0
M  V30 669 H 60.9263 3.90502 1.47698 0
M  V30 670 H 62.3163 6.52577 -1.59976 0
M  V30 671 N 65.0364 0.313813 1.54444 0
M  V30 672 C 66.2844 -0.291099 1.99993 0
M  V30 673 C 66.6054 -1.53418 1.20366 0
M  V30 674 O 65.8754 -1.93544 0.302927 0
M  V30 675 H 64.4554 -0.110552 0.738774 0
M  V30 676 H 67.1174 0.428106 1.9014 0
M  V30 677 H 66.2134 -0.554268 3.07139 0
M  V30 678 N 66.5145 -1.57545 0.0417849 0
M  V30 679 C 67.7605 -1.92601 -0.635021 0
M  V30 680 C 68.0935 -0.919627 -1.71045 0
M  V30 681 O 67.3685 0.0557892 -1.9442 0
M  V30 682 C 67.6515 -3.38085 -1.23979 0
M  V30 683 C 67.5045 -4.49467 -0.173057 0
M  V30 684 C 68.8235 -3.83776 -2.15416 0
M  V30 685 H 65.9425 -0.700397 -0.229374 0
M  V30 686 H 68.5845 -1.89728 0.101633 0
M  V30 687 H 66.7345 -3.40664 -1.86762 0
M  V30 688 H 68.4065 -4.59018 0.458312 0
M  V30 689 H 66.6495 -4.30909 0.499996 0
M  V30 690 H 67.3205 -5.48323 -0.636054 0
M  V30 691 H 69.7965 -3.83013 -1.62605 0
M  V30 692 H 68.6725 -4.8624 -2.54679 0
M  V30 693 H 68.9335 -3.19998 -3.05047 0
M  V30 694 N 67.9926 0.231505 -1.5589 0
M  V30 695 C 68.9406 1.30649 -1.92441 0
M  V30 696 C 69.9346 1.49037 -0.805254 0
M  V30 697 O 71.1406 1.50329 -0.990007 0
M  V30 698 H 67.5156 0.437812 -0.611412 0
M  V30 699 H 69.4866 0.970973 -2.82161 0
M  V30 700 C 68.2356 2.65179 -2.24889 0
M  V30 701 H 67.5586 2.51835 -3.10514 0
M  V30 702 H 68.9986 3.39234 -2.54355 0
M  V30 703 C 67.4576 3.19439 -1.07054 0
M  V30 704 O 67.9876 4.00371 -0.326499 0
M  V30 705 N 66.1936 2.77675 -0.85703 0
M  V30 706 H 65.7406 2.11969 -1.46379 0
M  V30 707 H 65.6986 3.14321 -0.0703223 0
M  V30 708 N 69.4707 1.49531 0.497807 0
M  V30 709 C 70.8867 1.36365 0.829266 0
M  V30 710 C 71.0867 0.399184 1.97506 0
M  V30 711 O 70.1427 -0.167977 2.51941 0
M  V30 712 C 71.4557 2.77153 1.16647 0
M  V30 713 C 73.0037 2.85877 1.27449 0
M  V30 714 C 73.4787 4.2744 1.64497 0
M  V30 715 N 74.9697 4.30265 1.7154 0
M  V30 716 C 75.7047 5.3677 2.01656 0
M  V30 717 N 75.2007 6.53516 2.29976 0
M  V30 718 N 76.9937 5.24189 2.02934 0
M  V30 719 H 69.1447 2.10831 -0.257703 0
M  V30 720 H 71.4077 0.946534 -0.0527091 0
M  V30 721 H 71.1137 3.49442 0.397872 0
M  V30 722 H 70.9877 3.12722 2.10915 0
M  V30 723 H 73.3747 2.13824 2.0338 0
M  V30 724 H 73.4557 2.53887 0.312244 0
M  V30 725 H 73.0997 5.00021 0.891151 0
M  V30 726 H 73.0297 4.56896 2.61827 0
M  V30 727 H 75.5207 3.4607 1.51802 0
M  V30 728 H 75.8337 7.30506 2.52153 0
M  V30 729 H 74.1787 6.56737 2.27425 0
M  V30 730 H 77.3697 4.31988 1.80289 0
M  V30 731 H 77.5427 6.07286 2.26071 0
M  V30 732 N 70.9488 -0.749086 1.3866 0
M  V30 733 C 72.1958 -1.50833 1.35114 0
M  V30 734 C 72.5238 -1.94415 -0.0574049 0
M  V30 735 O 71.7788 -1.66065 -1.03541 0
M  V30 736 C 72.0778 -2.7712 2.25697 0
M  V30 737 C 71.7438 -2.52477 3.73585 0
M  V30 738 C 70.4058 -2.45466 4.13884 0
M  V30 739 C 72.7578 -2.31066 4.67181 0
M  V30 740 C 70.0858 -2.15064 5.45861 0
M  V30 741 C 72.4378 -2.02183 5.9942 0
M  V30 742 C 71.1018 -1.93631 6.38798 0
M  V30 743 H 70.3718 -0.551936 0.494416 0
M  V30 744 H 73.0188 -0.860979 1.71054 0
M  V30 745 H 71.3238 -3.46528 1.82827 0
M  V30 746 H 73.0208 -3.35096 2.20254 0
M  V30 747 H 69.6108 -2.58807 3.41638 0
M  V30 748 H 73.7948 -2.35459 4.3689 0
M  V30 749 H 69.0508 -2.06954 5.75308 0
M  V30 750 H 73.2248 -1.8462 6.71482 0
M  V30 751 H 70.8518 -1.69839 7.40985 0
M  V30 752 N 72.4269 -1.23603 -0.977757 0
M  V30 753 C 73.8379 -1.06424 -1.53398 0
M  V30 754 C 74.1889 0.367578 -1.92726 0
M  V30 755 O 73.3139 1.25465 -1.76316 0
M  V30 756 C 73.9089 -1.92568 -2.78753 0
M  V30 757 C 72.4679 -1.79642 -3.30765 0
M  V30 758 C 71.6149 -1.88111 -2.03739 0
M  V30 759 H 74.5659 -1.37227 -0.797152 0
M  V30 760 H 74.5869 -1.45203 -3.51705 0
M  V30 761 H 74.0989 -2.96771 -2.50098 0
M  V30 762 H 72.1999 -0.782325 -3.64294 0
M  V30 763 H 72.3129 -2.63174 -4.00345 0
M  V30 764 H 70.6769 -1.31723 -2.17994 0
M  V30 765 H 71.4599 -2.93875 -1.77461 0
M  V30 766 N 73.905 1.17692 -1.04816 0
M  V30 767 C 75.321 1.39863 -0.768794 0
M  V30 768 C 75.521 1.91118 0.638451 0
M  V30 769 O 74.577 2.10036 1.40146 0
M  V30 770 C 75.89 2.39274 -1.82122 0
M  V30 771 C 77.438 2.52987 -1.843 0
M  V30 772 C 77.913 3.55669 -2.88555 0
M  V30 773 N 79.404 3.63183 -2.87493 0
M  V30 774 C 80.139 4.42381 -3.64811 0
M  V30 775 N 79.635 5.25125 -4.51903 0
M  V30 776 N 81.428 4.37217 -3.53267 0
M  V30 777 H 73.579 0.82752 -1.95617 0
M  V30 778 H 75.842 0.426123 -0.846831 0
M  V30 779 H 75.548 2.08678 -2.83102 0
M  V30 780 H 75.422 3.38725 -1.65967 0
M  V30 781 H 77.809 2.82896 -0.839869 0
M  V30 782 H 77.89 1.53623 -2.04532 0
M  V30 783 H 77.534 3.26499 -3.89051 0
M  V30 784 H 77.464 4.54728 -2.65575 0
M  V30 785 H 79.955 3.04103 -2.24343 0
M  V30 786 H 80.268 5.82728 -5.07591 0
M  V30 787 H 78.613 5.24519 -4.55966 0
M  V30 788 H 81.804 3.71626 -2.84625 0
M  V30 789 H 81.977 4.98696 -4.13771 0
M  V30 790 N 75.3831 0.828654 1.34056 0
M  V30 791 C 76.6301 0.419458 1.98108 0
M  V30 792 C 76.9581 -1.01886 1.65679 0
M  V30 793 O 76.2131 -1.72539 0.923512 0
M  V30 794 C 76.5121 0.575226 3.52741 0
M  V30 795 C 76.1781 1.98012 4.05095 0
M  V30 796 C 74.8401 2.36442 4.19104 0
M  V30 797 C 77.1921 2.89824 4.33188 0
M  V30 798 C 74.5201 3.66009 4.58535 0
M  V30 799 C 76.8721 4.1886 4.74066 0
M  V30 800 C 75.5361 4.5726 4.86281 0
M  V30 801 H 74.8061 0.153491 0.724929 0
M  V30 802 H 77.4531 1.05371 1.59904 0
M  V30 803 H 75.7581 -0.142385 3.91541 0
M  V30 804 H 77.4551 0.239057 4.00287 0
M  V30 805 H 74.0451 1.67162 3.94658 0
M  V30 806 H 78.2291 2.61375 4.21897 0
M  V30 807 H 73.4851 3.95579 4.66184 0
M  V30 808 H 77.6591 4.90086 4.94761 0
M  V30 809 H 75.2861 5.57707 5.16592 0
M  V30 810 N 76.8612 -1.46375 0.584142 0
M  V30 811 C 78.1102 -2.01585 0.0679741 0
M  V30 812 C 78.4232 -1.46109 -1.30045 0
M  V30 813 O 79.6292 -1.93148 -1.90804 0
M  V30 814 C 78.0852 -3.5983 0.0709207 0
M  V30 815 C 77.6932 -4.24303 1.43775 0
M  V30 816 C 79.4372 -4.22693 -0.391228 0
M  V30 817 C 77.3442 -5.74631 1.39834 0
M  V30 818 H 76.2742 -0.753689 0.0216421 0
M  V30 819 H 78.9252 -1.68093 0.736001 0
M  V30 820 H 77.3072 -3.90405 -0.663299 0
M  V30 821 H 78.4812 -4.05335 2.19181 0
M  V30 822 H 76.7962 -3.73539 1.84004 0
M  V30 823 H 79.3932 -5.3289 -0.439524 0
M  V30 824 H 79.7362 -3.91728 -1.40906 0
M  V30 825 H 80.2692 -3.96749 0.288974 0
M  V30 826 H 77.0082 -6.10258 2.39303 0
M  V30 827 H 76.5282 -5.95858 0.686505 0
M  V30 828 H 78.2072 -6.37375 1.11187 0
M  V30 829 N 78.3393 -0.321999 -1.54275 0
M  V30 830 C 79.2713 0.578671 -2.21775 0
M  V30 831 C 80.2843 1.08109 -1.21722 0
M  V30 832 O 81.4733 0.994938 -1.482 0
M  V30 833 C 78.5733 1.80661 -2.86731 0
M  V30 834 C 77.7463 1.44314 -4.12907 0
M  V30 835 C 76.8053 2.52845 -4.61472 0
M  V30 836 O 75.8313 2.17054 -5.2619 0
M  V30 837 N 77.0333 3.83748 -4.35566 0
M  V30 838 H 79.7983 0.000709447 -2.997 0
M  V30 839 H 77.3593 -0.145132 -1.61248 0
M  V30 840 H 79.3513 2.52655 -3.16145 0
M  V30 841 H 77.9213 2.29245 -2.12521 0
M  V30 842 H 77.1413 0.554906 -3.90275 0
M  V30 843 H 78.4293 1.17598 -4.95023 0
M  V30 844 H 77.8273 4.15625 -3.83761 0
M  V30 845 H 76.3843 4.51977 -4.69638 0
M  V30 846 N 79.8174 1.5752 -0.0501392 0
M  V30 847 C 80.7494 2.08413 0.95376 0
M  V30 848 C 81.7624 1.01175 1.27544 0
M  V30 849 O 82.9514 1.28744 1.23641 0
M  V30 850 C 80.0514 2.51138 2.27559 0
M  V30 851 C 79.2244 3.817 2.13598 0
M  V30 852 C 78.2834 4.10749 3.28895 0
M  V30 853 O 77.3094 4.80685 3.04845 0
M  V30 854 N 78.5114 3.62579 4.5334 0
M  V30 855 H 81.2764 2.95165 0.519383 0
M  V30 856 H 78.8374 1.61327 0.136127 0
M  V30 857 H 80.8294 2.67648 3.03557 0
M  V30 858 H 79.3994 1.6964 2.62567 0
M  V30 859 H 78.6194 3.74782 1.22197 0
M  V30 860 H 79.9074 4.67201 2.01496 0
M  V30 861 H 79.3054 3.06039 4.75769 0
M  V30 862 H 77.8624 3.84329 5.26436 0
M  V30 863 N 81.2955 -0.223234 1.56011 0
M  V30 864 C 82.2255 -1.27988 1.95298 0
M  V30 865 C 83.2065 -1.48976 0.820979 0
M  V30 866 O 84.3915 -1.61188 1.08315 0
M  V30 867 C 81.5215 -2.63 2.26822 0
M  V30 868 C 80.4755 -2.56671 3.42497 0
M  V30 869 C 79.8015 -3.95697 3.59622 0
M  V30 870 C 81.1015 -2.11601 4.77517 0
M  V30 871 H 82.7955 -0.953525 2.8381 0
M  V30 872 H 80.3415 -0.457244 1.36548 0
M  V30 873 H 82.2945 -3.37077 2.52898 0
M  V30 874 H 81.0185 -2.9732 1.35161 0
M  V30 875 H 79.6775 -1.85051 3.16467 0
M  V30 876 H 79.3255 -4.27322 2.6534 0
M  V30 877 H 79.0255 -3.92345 4.37424 0
M  V30 878 H 80.5495 -4.71438 3.88044 0
M  V30 879 H 81.9635 -2.7542 5.02809 0
M  V30 880 H 80.3605 -2.19311 5.5859 0
M  V30 881 H 81.4305 -1.06824 4.72987 0
M  V30 882 N 82.7736 -1.49793 -0.48987 0
M  V30 883 C 83.6836 -1.70036 -1.61632 0
M  V30 884 C 84.6996 -0.583102 -1.63939 0
M  V30 885 O 85.8756 -0.859169 -1.82154 0
M  V30 886 C 82.9406 -1.77277 -2.97949 0
M  V30 887 C 82.0016 -3.00918 -3.06181 0
M  V30 888 C 81.2346 -3.07804 -4.35996 0
M  V30 889 O 81.4576 -2.21982 -5.25433 0
M  V30 890 O 80.3916 -4.00369 -4.49431 0
M  V30 891 H 84.2176 -2.65486 -1.47482 0
M  V30 892 H 81.8026 -1.33666 -0.667362 0
M  V30 893 H 83.6846 -1.84329 -3.78947 0
M  V30 894 H 82.3596 -0.850076 -3.12339 0
M  V30 895 H 81.2666 -2.99377 -2.2433 0
M  V30 896 H 82.5996 -3.92704 -2.96723 0
M  V30 897 N 84.2517 0.741722 -1.39055 0
M  V30 898 C 85.1997 1.87702 -1.3737 0
M  V30 899 C 86.1937 1.67427 -0.257812 0
M  V30 900 O 87.3997 1.7485 -0.427489 0
M  V30 901 H 83.7747 0.617757 -0.428812 0
M  V30 902 H 85.7457 1.86239 -2.33147 0
M  V30 903 C 84.4947 3.25315 -1.22741 0
M  V30 904 H 83.8177 3.41509 -2.07873 0
M  V30 905 H 85.2577 4.04964 -1.25618 0
M  V30 906 C 83.7167 3.36838 0.0647316 0
M  V30 907 O 84.2467 3.88073 1.03741 0
M  V30 908 N 82.4527 2.90329 0.125544 0
M  V30 909 H 81.9997 2.48823 -0.666682 0
M  V30 910 H 81.9577 2.98418 0.989639 0
M  V30 911 N 85.7298 1.2412 0.971189 0
M  V30 912 C 86.9778 1.07668 1.71032 0
M  V30 913 C 87.2988 -0.385797 1.91146 0
M  V30 914 O 86.5688 -1.27569 1.4867 0
M  V30 915 H 85.1488 0.395429 0.633755 0
M  V30 916 H 87.8108 1.55984 1.16855 0
M  V30 917 H 86.9068 1.57195 2.69622 0
M  V30 918 N 87.2079 -1.17134 1.05439 0
M  V30 919 C 88.4849 -1.83411 0.679699 0
M  V30 920 C 88.8649 -1.9368 -0.839726 0
M  V30 921 O 88.2129 -1.47325 -1.74664 0
M  V30 922 C 88.4229 -3.20918 1.37159 0
M  V30 923 C 89.7709 -3.96796 1.51123 0
M  V30 924 O 90.7949 -3.30406 1.3308 0
M  V30 925 O 89.6539 -5.15778 1.80651 0
M  V30 926 H 86.7479 -0.79154 0.239569 0
M  V30 927 H 89.2939 -1.24411 1.15413 0
M  V30 928 H 88.0659 -3.08428 2.40807 0
M  V30 929 H 87.6889 -3.87587 0.886674 0
M  V30 930 N 88.686 -0.835752 -1.33615 0
M  V30 931 C 89.935 -0.426289 -1.97144 0
M  V30 932 C 90.248 1.01912 -1.66953 0
M  V30 933 O 91.454 1.53311 -2.24072 0
M  V30 934 C 89.91 -0.711321 -3.52801 0
M  V30 935 C 89.518 -2.1712 -3.91871 0
M  V30 936 C 91.262 -0.368654 -4.22896 0
M  V30 937 C 89.169 -2.40044 -5.40493 0
M  V30 938 H 88.099 -0.15567 -0.737755 0
M  V30 939 H 90.75 -1.0239 -1.52278 0
M  V30 940 H 89.132 -0.0433766 -3.95976 0
M  V30 941 H 90.306 -2.87936 -3.59763 0
M  V30 942 H 88.621 -2.47654 -3.34749 0
M  V30 943 H 91.218 -0.517601 -5.32189 0
M  V30 944 H 91.561 0.688078 -4.10574 0
M  V30 945 H 92.094 -0.991702 -3.8524 0
M  V30 946 H 88.833 -3.44271 -5.57815 0
M  V30 947 H 88.353 -1.73785 -5.74072 0
M  V30 948 H 90.032 -2.23042 -6.0734 0
M  V30 949 N 90.1641 1.46063 -0.591896 0
M  V30 950 C 91.4131 2.01547 -0.0786637 0
M  V30 951 C 91.7261 1.46796 1.29268 0
M  V30 952 O 92.9321 1.94157 1.89777 0
M  V30 953 C 91.3881 3.59787 -0.0900024 0
M  V30 954 C 90.9961 4.23534 -1.46023 0
M  V30 955 C 92.7401 4.22895 0.368806 0
M  V30 956 C 90.6471 5.73881 -1.4288 0
M  V30 957 H 89.5771 0.753564 -0.0256388 0
M  V30 958 H 92.2281 1.677 -0.744905 0
M  V30 959 H 90.6101 3.90752 0.642586 0
M  V30 960 H 91.7841 4.04167 -2.21328 0
M  V30 961 H 90.0991 3.72558 -1.85982 0
M  V30 962 H 92.6961 5.33116 0.411258 0
M  V30 963 H 93.0391 3.9247 1.38827 0
M  V30 964 H 93.5721 3.9659 -0.31001 0
M  V30 965 H 90.3111 6.0898 -2.42536 0
M  V30 966 H 89.8311 5.95486 -0.718095 0
M  V30 967 H 91.5101 6.36776 -1.14565 0
M  V30 968 N 91.6422 0.330177 1.54103 0
M  V30 969 C 93.0532 -0.15652 1.86043 0
M  V30 970 C 93.4042 -1.51086 1.2517 0
M  V30 971 O 92.5292 -2.09023 0.560217 0
M  V30 972 C 93.1242 -0.290784 3.3755 0
M  V30 973 C 91.6832 -0.721705 3.69416 0
M  V30 974 C 90.8302 0.152622 2.7688 0
M  V30 975 H 93.7812 0.550237 1.48856 0
M  V30 976 H 93.8022 -1.12058 3.63625 0
M  V30 977 H 93.3142 0.695068 3.81825 0
M  V30 978 H 91.4152 -1.71706 3.30678 0
M  V30 979 H 91.5282 -0.520869 4.7626 0
M  V30 980 H 89.8922 -0.372894 2.51956 0
M  V30 981 H 90.6752 1.13536 3.23982 0
M  V30 982 N 93.1203 -1.57491 0.0584922 0
M  V30 983 C 94.3973 -1.84346 -0.653918 0
M  V30 984 C 94.7773 -0.948355 -1.88599 0
M  V30 985 O 94.1253 -0.0112403 -2.28497 0
M  V30 986 C 94.3353 -3.34239 -1.00425 0
M  V30 987 C 95.6833 -4.01431 -1.38342 0
M  V30 988 O 96.7073 -3.38907 -1.09637 0
M  V30 989 O 95.5663 -5.11683 -1.91943 0
M  V30 990 H 92.6603 -0.761112 -0.323478 0
M  V30 991 H 95.2063 -1.6947 0.0884125 0
M  V30 992 H 93.9783 -3.91089 -0.128625 0
M  V30 993 H 93.6013 -3.54329 -1.80378 0
M  V30 994 N 94.5984 0.214957 -1.56127 0
M  V30 995 C 95.5614 1.24997 -1.92116 0
M  V30 996 C 96.5614 1.39467 -0.800344 0
M  V30 997 O 97.7514 1.37619 -1.06802 0
M  V30 998 C 94.8834 2.62271 -2.17777 0
M  V30 999 H 96.0764 0.942875 -2.84693 0
M  V30 1000 H 93.6294 0.455654 -1.49511 0
M  V30 1001 H 94.3644 2.98068 -1.27773 0
M  V30 1002 H 94.1494 2.53143 -2.99434 0
M  V30 1003 H 95.6394 3.36946 -2.46693 0
M  V30 1004 N 96.0765 1.50051 0.48192 0
M  V30 1005 C 97.0085 1.64263 1.59844 0
M  V30 1006 C 98.0215 0.52451 1.54119 0
M  V30 1007 O 99.2105 0.797293 1.59704 0
M  V30 1008 C 96.3105 1.60102 2.98698 0
M  V30 1009 C 95.4835 2.87767 3.29407 0
M  V30 1010 C 94.5425 2.76397 4.47762 0
M  V30 1011 O 93.5685 3.50348 4.48603 0
M  V30 1012 N 94.7705 1.89222 5.48794 0
M  V30 1013 H 97.5355 2.60566 1.48073 0
M  V30 1014 H 95.0965 1.47379 0.670149 0
M  V30 1015 H 97.0885 1.50123 3.75826 0
M  V30 1016 H 95.6585 0.715798 3.04294 0
M  V30 1017 H 94.8785 3.11954 2.40994 0
M  V30 1018 H 96.1665 3.72365 3.4673 0
M  V30 1019 H 95.5645 1.28434 5.50928 0
M  V30 1020 H 94.1215 1.85154 6.24949 0
M  V30 1021 N 97.5546 -0.734337 1.39446 0
M  V30 1022 C 98.9656 -1.31264 1.32766 0
M  V30 1023 C 99.3166 -1.96198 -0.00767497 0
M  V30 1024 O 98.4416 -1.96346 -0.909796 0
M  V30 1025 C 99.0366 -2.38682 2.4045 0
M  V30 1026 C 97.5956 -2.92184 2.37288 0
M  V30 1027 C 96.7426 -1.6576 2.22304 0
M  V30 1028 H 99.6936 -0.531799 1.49525 0
M  V30 1029 H 99.7146 -3.19087 2.07276 0
M  V30 1030 H 99.2266 -1.91392 3.37625 0
M  V30 1031 H 97.3276 -3.43752 1.43754 0
M  V30 1032 H 97.4406 -3.45253 3.3217 0
M  V30 1033 H 95.8046 -1.9012 1.69489 0
M  V30 1034 H 96.5876 -1.20521 3.21449 0
M  V30 1035 N 99.0327 -1.24633 -0.964593 0
M  V30 1036 C 99.9797 -1.04144 -2.05968 0
M  V30 1037 C 100.95 0.046262 -1.66036 0
M  V30 1038 O 102.135 -0.108972 -1.90489 0
M  V30 1039 C 99.2747 -0.65563 -3.38815 0
M  V30 1040 C 98.3877 -1.81714 -3.91923 0
M  V30 1041 C 97.5227 -1.37662 -5.13052 0
M  V30 1042 C 96.5617 -2.50788 -5.58365 0
M  V30 1043 N 95.6987 -2.07582 -6.70712 0
M  V30 1044 H 100.539 -1.9787 -2.22827 0
M  V30 1045 H 98.0757 -0.9855 -1.09208 0
M  V30 1046 H 100.034 -0.412954 -4.15151 0
M  V30 1047 H 98.6637 0.244627 -3.21872 0
M  V30 1048 H 97.7157 -2.1734 -3.12198 0
M  V30 1049 H 99.0277 -2.66705 -4.21509 0
M  V30 1050 H 98.1817 -1.093 -5.96773 0
M  V30 1051 H 96.9207 -0.497293 -4.85158 0
M  V30 1052 H 95.9257 -2.79906 -4.73215 0
M  V30 1053 H 97.1507 -3.39283 -5.88272 0
M  V30 1054 H 95.0967 -1.22051 -6.44546 0
M  V30 1055 H 95.0137 -2.86125 -6.99763 0
M  V30 1056 H 96.2817 -1.82369 -7.57867 0
M  V30 1057 N 100.511 1.16574 -1.06058 0
M  V30 1058 C 101.927 1.3904 -0.783585 0
M  V30 1059 C 102.127 1.91784 0.618145 0
M  V30 1060 O 101.183 2.11511 1.37911 0
M  V30 1061 C 102.496 2.37329 -1.84649 0
M  V30 1062 C 104.044 2.51018 -1.86973 0
M  V30 1063 C 104.519 3.52588 -2.92311 0
M  V30 1064 N 106.01 3.60113 -2.91329 0
M  V30 1065 C 106.745 4.38486 -3.69482 0
M  V30 1066 N 106.241 5.20302 -4.57447 0
M  V30 1067 N 108.034 4.33446 -3.57885 0
M  V30 1068 H 100.185 0.806725 -1.96483 0
M  V30 1069 H 102.448 0.417117 -0.851303 0
M  V30 1070 H 102.154 2.05663 -2.85299 0
M  V30 1071 H 102.028 3.36946 -1.6955 0
M  V30 1072 H 104.415 2.81989 -0.869827 0
M  V30 1073 H 104.496 1.51445 -2.0615 0
M  V30 1074 H 104.14 3.22354 -3.92492 0
M  V30 1075 H 104.07 4.51886 -2.70383 0
M  V30 1076 H 106.561 3.01707 -2.27555 0
M  V30 1077 H 106.874 5.77311 -5.13743 0
M  V30 1078 H 105.219 5.19653 -4.61503 0
M  V30 1079 H 108.41 3.68586 -2.88551 0
M  V30 1080 H 108.583 4.94279 -4.19037 0
M  V30 1081 N 101.989 0.842826 1.3317 0
M  V30 1082 C 103.238 0.436738 1.96915 0
M  V30 1083 C 103.551 -1.01025 1.67491 0
M  V30 1084 O 104.757 -1.5212 2.24881 0
M  V30 1085 C 103.213 0.730021 3.52418 0
M  V30 1086 C 102.821 2.19195 3.90714 0
M  V30 1087 C 104.565 0.391076 4.22695 0
M  V30 1088 C 102.472 2.42907 5.39212 0
M  V30 1089 H 101.402 0.15958 0.736919 0
M  V30 1090 H 104.053 1.03196 1.51733 0
M  V30 1091 H 102.435 0.0643755 3.95948 0
M  V30 1092 H 103.609 2.8984 3.58231 0
M  V30 1093 H 101.924 2.49425 3.33431 0
M  V30 1094 H 104.521 0.545817 5.31907 0
M  V30 1095 H 104.864 -0.666294 4.10933 0
M  V30 1096 H 105.397 1.01212 3.84709 0
M  V30 1097 H 102.136 3.47224 5.55982 0
M  V30 1098 H 101.656 1.76827 5.73142 0
M  V30 1099 H 103.335 2.2626 6.06148 0
M  V30 1100 N 103.467 -1.45747 0.599634 0
M  V30 1101 C 104.695 -2.06668 0.0978551 0
M  V30 1102 C 105.11 -1.44562 -1.21439 0
M  V30 1103 O 104.467 -0.556923 -1.73795 0
M  V30 1104 C 104.518 -3.61456 -0.0567044 0
M  V30 1105 O 104.239 -4.21242 1.20361 0
M  V30 1106 C 105.74 -4.39345 -0.590869 0
M  V30 1107 H 102.96 -0.667825 0.0651943 0
M  V30 1108 H 105.504 -1.87115 0.82511 0
M  V30 1109 H 103.659 -3.80378 -0.734251 0
M  V30 1110 H 104.073 -5.14323 1.02821 0
M  V30 1111 H 105.547 -5.48182 -0.648131 0
M  V30 1112 H 106.024 -4.08568 -1.61147 0
M  V30 1113 H 106.63 -4.25268 0.0523679 0
M  V30 1114 N 104.945 -0.338344 -1.53925 0
M  V30 1115 C 106.17 0.263987 -2.05713 0
M  V30 1116 C 106.595 1.43847 -1.21201 0
M  V30 1117 O 105.953 1.79904 -0.224535 0
M  V30 1118 C 106.001 0.662 -3.54471 0
M  V30 1119 O 105.105 1.76265 -3.72833 0
M  V30 1120 H 104.446 0.0448722 -0.662482 0
M  V30 1121 H 106.976 -0.491048 -1.9862 0
M  V30 1122 H 106.986 0.940594 -3.9701 0
M  V30 1123 H 105.661 -0.196937 -4.15433 0
M  V30 1124 H 104.238 1.48173 -3.42198 0
M  V30 1125 N 106.423 1.57458 -0.0668435 0
M  V30 1126 C 107.353 2.15468 0.899764 0
M  V30 1127 C 108.334 1.08042 1.31381 0
M  V30 1128 O 109.519 1.36054 1.38574 0
M  V30 1129 C 106.649 2.71232 2.16911 0
M  V30 1130 C 105.603 3.83781 1.89463 0
M  V30 1131 C 104.929 4.26127 3.22986 0
M  V30 1132 C 106.229 5.08238 1.20381 0
M  V30 1133 H 107.923 2.96488 0.416529 0
M  V30 1134 H 105.469 1.4262 0.198908 0
M  V30 1135 H 107.422 3.10458 2.84945 0
M  V30 1136 H 106.146 1.87426 2.67468 0
M  V30 1137 H 104.805 3.45051 1.23836 0
M  V30 1138 H 104.453 3.39249 3.71374 0
M  V30 1139 H 104.153 5.01993 3.05413 0
M  V30 1140 H 105.677 4.67966 3.92225 0
M  V30 1141 H 107.091 5.44811 1.78475 0
M  V30 1142 H 105.488 5.89349 1.13083 0
M  V30 1143 H 106.558 4.84558 0.182153 0
M  V30 1144 N 107.901 -0.206675 1.56239 0
M  V30 1145 C 109.149 -0.927007 1.79586 0
M  V30 1146 C 109.47 -1.8427 0.637929 0
M  V30 1147 O 108.74 -1.92849 -0.344398 0
M  V30 1148 H 107.32 -0.345292 0.662407 0
M  V30 1149 H 109.982 -0.21496 1.93711 0
M  V30 1150 H 109.078 -1.52501 2.72305 0
M  V30 1151 N 109.379 -1.50304 -0.473955 0
M  V30 1152 C 110.342 -1.6841 -1.55469 0
M  V30 1153 C 111.342 -0.554905 -1.50922 0
M  V30 1154 O 112.532 -0.821882 -1.53593 0
M  V30 1155 C 109.664 -1.70667 -2.95102 0
M  V30 1156 H 110.857 -2.64828 -1.40733 0
M  V30 1157 H 108.41 -1.39742 -0.700132 0
M  V30 1158 H 109.145 -0.75932 -3.15285 0
M  V30 1159 H 108.93 -2.52698 -2.9981 0
M  V30 1160 H 110.42 -1.8664 -3.73571 0
M  V30 1161 N 110.857 0.726932 -1.39834 0
M  V30 1162 C 112.106 1.48214 -1.36805 0
M  V30 1163 C 112.419 1.95576 0.0305291 0
M  V30 1164 O 113.625 2.7088 0.183417 0
M  V30 1165 C 112.081 2.67854 -2.40379 0
M  V30 1166 C 111.689 2.27408 -3.85992 0
M  V30 1167 C 113.433 3.45641 -2.46439 0
M  V30 1168 C 111.34 3.43819 -4.81189 0
M  V30 1169 H 110.27 0.556606 -0.508631 0
M  V30 1170 H 112.921 0.792216 -1.65518 0
M  V30 1171 H 111.303 3.3896 -2.04749 0
M  V30 1172 H 112.477 1.63795 -4.30706 0
M  V30 1173 H 110.792 1.62692 -3.83302 0
M  V30 1174 H 113.389 4.32244 -3.14753 0
M  V30 1175 H 113.732 3.88669 -1.49139 0
M  V30 1176 H 114.265 2.8157 -2.81004 0
M  V30 1177 H 111.004 3.05834 -5.79781 0
M  V30 1178 H 110.524 4.06385 -4.41148 0
M  V30 1179 H 112.203 4.10043 -5.00474 0
M  V30 1180 N 112.336 1.25143 0.95797 0
M  V30 1181 C 113.246 1.06968 2.08794 0
M  V30 1182 C 114.262 0.00773911 1.73998 0
M  V30 1183 O 115.438 0.207972 2.00323 0
M  V30 1184 C 112.503 0.68691 3.39827 0
M  V30 1185 C 111.564 1.82641 3.88511 0
M  V30 1186 C 110.797 1.46181 5.1329 0
M  V30 1187 O 111.02 0.355971 5.69288 0
M  V30 1188 O 109.954 2.29085 5.566 0
M  V30 1189 H 113.78 2.01723 2.27027 0
M  V30 1190 H 111.365 1.04051 1.07209 0
M  V30 1191 H 113.247 0.485417 4.18595 0
M  V30 1192 H 111.922 -0.231417 3.22872 0
M  V30 1193 H 110.829 2.08274 3.10762 0
M  V30 1194 H 112.162 2.72386 4.09959 0
M  V30 1195 N 113.814 -1.1601 1.06675 0
M  V30 1196 C 114.746 -2.20115 0.638921 0
M  V30 1197 C 115.759 -1.59916 -0.305057 0
M  V30 1198 O 116.948 -1.78245 -0.0954446 0
M  V30 1199 C 114.048 -3.38798 -0.0830083 0
M  V30 1200 C 113.221 -4.2855 0.875426 0
M  V30 1201 C 112.28 -5.25849 0.192042 0
M  V30 1202 O 111.306 -5.63102 0.830921 0
M  V30 1203 N 112.508 -5.70648 -1.06493 0
M  V30 1204 H 115.273 -2.57439 1.53444 0
M  V30 1205 H 112.834 -1.31057 0.950557 0
M  V30 1206 H 114.826 -4.00936 -0.550685 0
M  V30 1207 H 113.396 -2.99947 -0.880386 0
M  V30 1208 H 112.616 -3.63617 1.52238 0
M  V30 1209 H 113.904 -4.85393 1.52548 0
M  V30 1210 H 113.302 -5.42482 -1.60405 0
M  V30 1211 H 111.859 -6.34859 -1.47641 0
M  V30 1212 N 115.292 -0.849877 -1.32721 0
M  V30 1213 C 116.538 -0.460855 -1.9811 0
M  V30 1214 C 116.893 0.971716 -1.66059 0
M  V30 1215 O 116.186 1.67184 -0.935944 0
M  V30 1216 C 116.38 -0.631272 -3.51781 0
M  V30 1217 C 116.209 -2.07886 -3.98765 0
M  V30 1218 C 114.979 -2.71637 -4.26077 0
M  V30 1219 C 117.177 -3.04889 -4.14182 0
M  V30 1220 N 115.159 -4.07356 -4.59276 0
M  V30 1221 C 116.53 -4.25583 -4.50865 0
M  V30 1222 C 118.585 -3.01148 -3.96503 0
M  V30 1223 C 117.288 -5.43027 -4.71714 0
M  V30 1224 C 119.314 -4.17832 -4.18533 0
M  V30 1225 C 118.676 -5.37284 -4.55528 0
M  V30 1226 H 114.775 -0.217283 -0.751207 0
M  V30 1227 H 117.359 -1.10026 -1.60631 0
M  V30 1228 H 115.53 -0.0215966 -3.88394 0
M  V30 1229 H 117.262 -0.212614 -4.04141 0
M  V30 1230 H 114.017 -2.22705 -4.17971 0
M  V30 1231 H 114.441 -4.77351 -4.80068 0
M  V30 1232 H 119.083 -2.0992 -3.67006 0
M  V30 1233 H 116.801 -6.34791 -5.00066 0
M  V30 1234 H 120.387 -4.16368 -4.06361 0
M  V30 1235 H 119.267 -6.26071 -4.72234 0
M  V30 1236 N 116.77 1.45427 -0.607355 0
M  V30 1237 C 118.047 1.9557 -0.0344566 0
M  V30 1238 C 118.427 1.54979 1.43334 0
M  V30 1239 O 117.775 0.812241 2.13576 0
M  V30 1240 C 117.985 3.48226 -0.232321 0
M  V30 1241 C 119.333 4.2445 -0.113001 0
M  V30 1242 O 120.357 3.55829 -0.162431 0
M  V30 1243 O 119.216 5.465 0.00209442 0
M  V30 1244 H 116.31 0.826222 0.0358667 0
M  V30 1245 H 118.856 1.55594 -0.6774 0
M  V30 1246 H 117.628 3.70739 -1.25174 0
M  V30 1247 H 117.251 3.95092 0.445896 0
M  V30 1248 N 118.248 0.346503 1.53744 0
M  V30 1249 C 119.211 -0.496439 2.23759 0
M  V30 1250 C 120.211 -1.0252 1.2388 0
M  V30 1251 O 121.401 -0.913974 1.48297 0
M  V30 1252 C 118.533 -1.69187 2.95954 0
M  V30 1253 H 119.726 0.115952 2.99676 0
M  V30 1254 H 117.279 0.0978939 1.55993 0
M  V30 1255 H 118.014 -2.34288 2.24231 0
M  V30 1256 H 117.799 -1.31989 3.69217 0
M  V30 1257 H 119.289 -2.28969 3.49232 0
M  V30 1258 N 119.726 -1.57421 0.075193 0
M  V30 1259 C 120.658 -2.09904 -0.920483 0
M  V30 1260 C 121.671 -1.03191 -1.25918 0
M  V30 1261 O 122.86 -1.30695 -1.21577 0
M  V30 1262 C 119.96 -2.54726 -2.23534 0
M  V30 1263 C 119.133 -3.8505 -2.07498 0
M  V30 1264 C 118.192 -4.15929 -3.22319 0
M  V30 1265 O 117.218 -4.85474 -2.9716 0
M  V30 1266 N 118.42 -3.69745 -4.47514 0
M  V30 1267 H 121.185 -2.95954 -0.472359 0
M  V30 1268 H 118.746 -1.61523 -0.110444 0
M  V30 1269 H 120.738 -2.72443 -2.9926 0
M  V30 1270 H 119.308 -1.73795 -2.59835 0
M  V30 1271 H 118.528 -3.76679 -1.16219 0
M  V30 1272 H 119.816 -4.70348 -1.94038 0
M  V30 1273 H 119.214 -3.13569 -4.7084 0
M  V30 1274 H 117.771 -3.92655 -5.20255 0
M  V30 1275 N 121.204 0.198386 -1.56346 0
M  V30 1276 C 122.62 0.549085 -1.49857 0
M  V30 1277 C 122.82 1.86016 -0.774611 0
M  V30 1278 O 121.876 2.50416 -0.323776 0
M  V30 1279 C 123.189 0.606868 -2.94512 0
M  V30 1280 C 124.737 0.695925 -3.05165 0
M  V30 1281 C 125.212 0.784848 -4.51225 0
M  V30 1282 N 126.703 0.848463 -4.55363 0
M  V30 1283 C 127.438 0.937378 -5.65686 0
M  V30 1284 N 126.934 0.9888 -6.85707 0
M  V30 1285 N 128.727 0.974312 -5.53592 0
M  V30 1286 H 120.878 -0.661655 -2.01831 0
M  V30 1287 H 123.141 -0.235261 -0.918344 0
M  V30 1288 H 122.847 -0.28732 -3.50524 0
M  V30 1289 H 122.721 1.46268 -3.47686 0
M  V30 1290 H 125.108 1.58055 -2.49204 0
M  V30 1291 H 125.189 -0.186022 -2.55123 0
M  V30 1292 H 124.833 -0.0954072 -5.0781 0
M  V30 1293 H 124.763 1.68255 -4.98997 0
M  V30 1294 H 127.254 0.818103 -3.68938 0
M  V30 1295 H 127.567 1.05707 -7.65536 0
M  V30 1296 H 125.912 0.957534 -6.88372 0
M  V30 1297 H 129.103 0.930954 -4.58749 0
M  V30 1298 H 129.276 1.04015 -6.39597 0
M  V30 1299 N 122.682 1.50554 0.465978 0
M  V30 1300 C 123.907 1.65838 1.24549 0
M  V30 1301 C 124.332 0.343486 1.84937 0
M  V30 1302 O 123.69 -0.69324 1.67523 0
M  V30 1303 C 123.738 2.75533 2.32624 0
M  V30 1304 O 122.842 2.37142 3.37398 0
M  V30 1305 H 122.183 0.553893 0.366194 0
M  V30 1306 H 124.713 1.96959 0.553927 0
M  V30 1307 H 124.723 2.98763 2.77857 0
M  V30 1308 H 123.398 3.70962 1.88043 0
M  V30 1309 H 121.975 2.24377 2.97841 0
M  V30 1310 N 124.16 -0.719506 1.40217 0
M  V30 1311 C 125.409 -1.47486 1.37589 0
M  V30 1312 C 125.722 -1.9559 -0.0201568 0
M  V30 1313 O 126.928 -2.70973 -0.169049 0
M  V30 1314 C 125.384 -2.66575 2.41796 0
M  V30 1315 C 124.992 -2.25358 3.87192 0
M  V30 1316 C 126.736 -3.4433 2.48269 0
M  V30 1317 C 124.643 -3.41262 4.83005 0
M  V30 1318 H 123.573 -0.553901 0.511576 0
M  V30 1319 H 126.224 -0.783427 1.65936 0
M  V30 1320 H 124.606 -3.3787 2.06543 0
M  V30 1321 H 125.78 -1.61509 4.31569 0
M  V30 1322 H 124.095 -1.60657 3.84159 0
M  V30 1323 H 126.692 -4.30569 3.17041 0
M  V30 1324 H 127.035 -3.87872 1.51198 0
M  V30 1325 H 127.568 -2.80076 2.82493 0
M  V30 1326 H 124.307 -3.02755 5.81394 0
M  V30 1327 H 123.827 -4.0404 4.43297 0
M  V30 1328 H 125.506 -4.07383 5.02641 0
M  V30 1329 N 125.638 -1.25649 -0.95132 0
M  V30 1330 C 126.886 -1.10375 -1.69298 0
M  V30 1331 C 127.207 0.355339 -1.91735 0
M  V30 1332 O 126.477 1.25188 -1.50681 0
M  V30 1333 H 125.057 -0.405461 -0.627384 0
M  V30 1334 H 127.719 -1.57823 -1.14358 0
M  V30 1335 H 126.815 -1.61465 -2.67087 0
M  V30 1336 N 127.117 1.15442 -1.07289 0
M  V30 1337 C 128.065 2.22225 -0.686952 0
M  V30 1338 C 129.059 1.66688 0.30193 0
M  V30 1339 O 130.265 1.79236 0.165712 0
M  V30 1340 H 126.64 0.723783 -0.204064 0
M  V30 1341 H 128.611 2.52056 -1.5972 0
M  V30 1342 C 127.36 3.47556 -0.100149 0
M  V30 1343 H 126.683 3.90612 -0.852211 0
M  V30 1344 H 128.123 4.23794 0.132235 0
M  V30 1345 C 126.582 3.16337 1.159 0
M  V30 1346 O 127.112 3.33074 2.24555 0
M  V30 1347 N 125.318 2.70385 1.06491 0
M  V30 1348 H 124.865 2.56966 0.180668 0
M  V30 1349 H 124.823 2.49871 1.90819 0
M  V30 1350 N 128.595 0.856903 1.32268 0
M  V30 1351 C 129.525 0.31858 2.31316 0
M  V30 1352 C 130.506 -0.583487 1.59779 0
M  V30 1353 O 131.691 -0.503259 1.87566 0
M  V30 1354 C 128.821 -0.491979 3.43798 0
M  V30 1355 C 127.775 0.315849 4.26833 0
M  V30 1356 C 127.101 -0.619586 5.31098 0
M  V30 1357 C 128.401 1.54282 4.98993 0
M  V30 1358 H 130.095 1.14621 2.76591 0
M  V30 1359 H 127.641 0.552613 1.32974 0
M  V30 1360 H 129.594 -0.879012 4.1213 0
M  V30 1361 H 128.318 -1.35299 2.97257 0
M  V30 1362 H 126.977 0.684664 3.6015 0
M  V30 1363 H 126.625 -1.47751 4.8081 0
M  V30 1364 H 126.325 -0.0830621 5.87541 0
M  V30 1365 H 127.849 -1.00375 6.02293 0
M  V30 1366 H 129.263 1.22796 5.59995 0
M  V30 1367 H 127.66 2.01745 5.65172 0
M  V30 1368 H 128.73 2.30285 4.26728 0
M  V30 1369 N 130.073 -1.45103 0.615059 0
M  V30 1370 C 131.301 -2.06553 0.11977 0
M  V30 1371 C 131.716 -1.45842 -1.19898 0
M  V30 1372 O 131.073 -0.575325 -1.73194 0
M  V30 1373 C 131.124 -3.61495 -0.018364 0
M  V30 1374 O 130.845 -4.19942 1.24822 0
M  V30 1375 C 132.346 -4.39947 -0.544237 0
M  V30 1376 H 129.566 -0.667096 0.0722739 0
M  V30 1377 H 132.11 -1.8623 0.84491 0
M  V30 1378 H 130.265 -3.81135 -0.693865 0
M  V30 1379 H 130.679 -5.13204 1.0827 0
M  V30 1380 H 132.153 -5.48838 -0.589953 0
M  V30 1381 H 132.63 -4.10255 -1.56805 0
M  V30 1382 H 133.236 -4.25188 0.0974703 0
M  V30 1383 N 131.551 -0.354651 -1.53558 0
M  V30 1384 C 132.514 0.484566 -2.24019 0
M  V30 1385 C 133.514 1.01861 -1.24422 0
M  V30 1386 O 134.704 0.906097 -1.4878 0
M  V30 1387 C 131.836 1.67615 -2.96847 0
M  V30 1388 H 133.029 -0.131843 -2.9961 0
M  V30 1389 H 130.582 -0.106165 -1.55939 0
M  V30 1390 H 131.317 2.33095 -2.25471 0
M  V30 1391 H 131.102 1.30029 -3.69912 0
M  V30 1392 H 132.592 2.27114 -3.50441 0
M  V30 1393 N 133.029 1.57378 -0.0835403 0
M  V30 1394 C 133.976 2.13384 0.879539 0
M  V30 1395 C 134.946 1.04936 1.28754 0
M  V30 1396 O 136.131 1.32662 1.37133 0
M  V30 1397 C 133.271 2.70932 2.13752 0
M  V30 1398 C 132.384 3.93575 1.7811 0
M  V30 1399 C 131.519 4.39326 2.98607 0
M  V30 1400 C 130.558 5.54587 2.59037 0
M  V30 1401 N 129.695 5.95243 3.72331 0
M  V30 1402 H 134.535 2.9537 0.395076 0
M  V30 1403 H 132.072 1.45953 0.183349 0
M  V30 1404 H 134.03 3.02411 2.87408 0
M  V30 1405 H 132.66 1.91693 2.59718 0
M  V30 1406 H 131.712 3.68483 0.94469 0
M  V30 1407 H 133.024 4.77258 1.45005 0
M  V30 1408 H 132.178 4.72528 3.80529 0
M  V30 1409 H 130.917 3.5452 3.34913 0
M  V30 1410 H 129.922 5.21024 1.75539 0
M  V30 1411 H 131.147 6.41133 2.23887 0
M  V30 1412 H 129.093 5.13385 4.08378 0
M  V30 1413 H 129.01 6.73694 3.43034 0
M  V30 1414 H 130.278 6.33072 4.54797 0
M  V30 1415 N 134.507 -0.190092 1.56449 0
M  V30 1416 C 135.454 -1.23557 1.94942 0
M  V30 1417 C 136.424 -1.44972 0.810696 0
M  V30 1418 O 137.609 -1.58023 1.06927 0
M  V30 1419 C 134.749 -2.57416 2.2985 0
M  V30 1420 C 133.862 -2.43537 3.5681 0
M  V30 1421 C 132.997 -3.70134 3.81017 0
M  V30 1422 C 132.036 -3.51109 5.01387 0
M  V30 1423 N 131.173 -4.6973 5.21822 0
M  V30 1424 H 136.013 -0.900304 2.84075 0
M  V30 1425 H 133.55 -0.43318 1.40577 0
M  V30 1426 H 135.508 -3.35409 2.48106 0
M  V30 1427 H 134.138 -2.88975 1.43852 0
M  V30 1428 H 133.19 -1.56816 3.46573 0
M  V30 1429 H 134.502 -2.25415 4.4496 0
M  V30 1430 H 133.656 -4.56566 3.9954 0
M  V30 1431 H 132.395 -3.91215 2.91207 0
M  V30 1432 H 131.4 -2.63063 4.82782 0
M  V30 1433 H 132.625 -3.31468 5.9271 0
M  V30 1434 H 130.571 -4.91065 4.34961 0
M  V30 1435 H 130.488 -4.54452 6.0416 0
M  V30 1436 H 131.756 -5.57499 5.44808 0
M  V30 1437 N 135.985 -1.50799 -0.457987 0
M  V30 1438 C 136.918 -1.65273 -1.57353 0
M  V30 1439 C 137.896 -0.500578 -1.54703 0
M  V30 1440 O 139.08 -0.721781 -1.74134 0
M  V30 1441 C 136.207 -1.64737 -2.95938 0
M  V30 1442 C 135.253 -2.8567 -3.16693 0
M  V30 1443 S 136.086 -4.46791 -2.95191 0
M  V30 1444 C 137.242 -4.48968 -4.36095 0
M  V30 1445 H 137.475 -2.59633 -1.44838 0
M  V30 1446 H 135.008 -1.40225 -0.64625 0
M  V30 1447 H 136.966 -1.65112 -3.7583 0
M  V30 1448 H 135.627 -0.715899 -3.05833 0
M  V30 1449 H 134.82 -2.81637 -4.17967 0
M  V30 1450 H 134.422 -2.8293 -2.44594 0
M  V30 1451 H 136.714 -4.23337 -5.28954 0
M  V30 1452 H 137.657 -5.50664 -4.45168 0
M  V30 1453 H 138.065 -3.78522 -4.18786 0
M  V30 1454 N 137.463 0.71206 -1.40597 0
M  V30 1455 C 138.396 1.83582 -1.35546 0
M  V30 1456 C 139.374 1.61032 -0.225284 0
M  V30 1457 O 140.558 1.83998 -0.409519 0
M  V30 1458 C 137.685 3.19983 -1.11034 0
M  V30 1459 C 136.731 3.61355 -2.2655 0
M  V30 1460 S 137.564 3.68062 -3.88961 0
M  V30 1461 C 138.72 5.07216 -3.66719 0
M  V30 1462 H 138.953 1.87586 -2.30648 0
M  V30 1463 H 136.486 0.879182 -1.26924 0
M  V30 1464 H 138.444 3.98734 -0.975761 0
M  V30 1465 H 137.105 3.13608 -0.175798 0
M  V30 1466 H 136.298 4.60403 -2.0505 0
M  V30 1467 H 135.9 2.8987 -2.36329 0
M  V30 1468 H 138.192 5.94238 -3.25404 0
M  V30 1469 H 139.135 5.33753 -4.6531 0
M  V30 1470 H 139.543 4.77976 -3.00332 0
M  V30 1471 N 138.941 1.26152 0.944643 0
M  V30 1472 C 140.218 1.02247 1.66748 0
M  V30 1473 C 140.598 -0.448202 2.06287 0
M  V30 1474 O 139.946 -1.42779 1.78399 0
M  V30 1475 C 140.156 1.96788 2.88228 0
M  V30 1476 C 141.504 2.25201 3.59958 0
M  V30 1477 O 142.528 1.94626 2.98327 0
M  V30 1478 O 141.387 2.77242 4.70956 0
M  V30 1479 H 138.481 0.388517 0.730057 0
M  V30 1480 H 141.027 1.37348 0.99668 0
M  V30 1481 H 139.799 2.96047 2.55875 0
M  V30 1482 H 139.422 1.62145 3.63035 0
M  V30 1483 N 140.419 -1.14872 1.07899 0
M  V30 1484 C 141.835 -1.37776 0.805606 0
M  V30 1485 C 142.035 -1.92743 -0.587555 0
M  V30 1486 O 141.091 -2.13678 -1.34528 0
M  V30 1487 C 142.404 -2.34361 1.88402 0
M  V30 1488 C 143.952 -2.48012 1.90942 0
M  V30 1489 C 144.427 -3.47893 2.97883 0
M  V30 1490 N 145.918 -3.55433 2.97021 0
M  V30 1491 C 146.653 -4.32553 3.76412 0
M  V30 1492 N 146.149 -5.12959 4.65666 0
M  V30 1493 N 147.942 -4.27697 3.64735 0
M  V30 1494 H 140.093 -0.775365 1.97742 0
M  V30 1495 H 142.356 -0.403521 0.857831 0
M  V30 1496 H 142.062 -2.01098 2.88535 0
M  V30 1497 H 141.936 -3.34206 1.74889 0
M  V30 1498 H 144.323 -2.8057 0.914579 0
M  V30 1499 H 144.404 -1.48147 2.08534 0
M  V30 1500 H 144.048 -3.16069 3.97571 0
M  V30 1501 H 143.978 -4.47527 2.77538 0
M  V30 1502 H 146.469 -2.98048 2.32326 0
M  V30 1503 H 146.782 -5.69065 5.22862 0
M  V30 1504 H 145.127 -5.12245 4.69712 0
M  V30 1505 H 148.318 -3.63949 2.94378 0
M  V30 1506 H 148.491 -4.8755 4.26848 0
M  V30 1507 N 141.898 -0.863906 -1.31812 0
M  V30 1508 C 142.861 -0.320212 -2.26952 0
M  V30 1509 C 143.861 0.525369 -1.51975 0
M  V30 1510 O 145.051 0.335547 -1.70938 0
M  V30 1511 C 142.183 0.545919 -3.365 0
M  V30 1512 H 143.376 -1.16004 -2.76556 0
M  V30 1513 H 140.929 -0.638995 -1.42641 0
M  V30 1514 H 141.664 1.40718 -2.92179 0
M  V30 1515 H 141.449 -0.0594674 -3.92055 0
M  V30 1516 H 142.939 0.918796 -4.07367 0
M  V30 1517 N 143.376 1.44774 -0.622745 0
M  V30 1518 C 144.625 2.01334 -0.121397 0
M  V30 1519 C 144.938 1.49505 1.26125 0
M  V30 1520 O 146.144 1.98139 1.85616 0
M  V30 1521 C 144.6 3.59516 -0.166298 0
M  V30 1522 C 144.208 4.20342 -1.54974 0
M  V30 1523 C 145.952 4.23582 0.279021 0
M  V30 1524 C 143.859 5.70721 -1.55021 0
M  V30 1525 H 142.789 0.752851 -0.0416172 0
M  V30 1526 H 145.44 1.66083 -0.780309 0
M  V30 1527 H 143.822 3.92027 0.559557 0
M  V30 1528 H 144.996 3.99381 -2.29851 0
M  V30 1529 H 143.311 3.68529 -1.93843 0
M  V30 1530 H 145.908 5.33868 0.298083 0
M  V30 1531 H 146.251 3.95327 1.30471 0
M  V30 1532 H 146.784 3.95843 -0.394063 0
M  V30 1533 H 143.523 6.03698 -2.55399 0
M  V30 1534 H 143.043 5.93829 -0.844245 0
M  V30 1535 H 144.722 6.34203 -1.28047 0
M  V30 1536 N 144.854 0.36279 1.53368 0
M  V30 1537 C 145.764 -0.492994 2.29362 0
M  V30 1538 C 146.78 -1.09507 1.35219 0
M  V30 1539 O 147.956 -1.10662 1.68273 0
M  V30 1540 C 145.021 -1.61855 3.066 0
M  V30 1541 C 144.082 -1.04429 4.16405 0
M  V30 1542 C 143.315 -2.11621 4.89951 0
M  V30 1543 O 143.538 -3.32684 4.63333 0
M  V30 1544 O 142.472 -1.74835 5.75948 0
M  V30 1545 H 146.298 0.125331 3.03441 0
M  V30 1546 H 143.883 0.127253 1.48857 0
M  V30 1547 H 145.765 -2.27302 3.54841 0
M  V30 1548 H 144.44 -2.22233 2.3536 0
M  V30 1549 H 143.347 -0.353819 3.72423 0
M  V30 1550 H 144.68 -0.485113 4.89804 0
M  V30 1551 N 146.332 -1.57332 0.0918853 0
M  V30 1552 C 147.262 -2.16872 -0.865371 0
M  V30 1553 C 148.243 -1.10118 -1.29646 0
M  V30 1554 O 149.428 -1.38242 -1.36392 0
M  V30 1555 C 146.558 -2.74649 -2.12569 0
M  V30 1556 C 145.512 -3.86747 -1.83333 0
M  V30 1557 C 144.838 -4.31212 -3.16166 0
M  V30 1558 C 146.138 -5.10089 -1.1228 0
M  V30 1559 H 147.832 -2.97114 -0.369307 0
M  V30 1560 H 145.378 -1.42918 -0.176194 0
M  V30 1561 H 147.331 -3.14952 -2.7997 0
M  V30 1562 H 146.055 -1.91657 -2.64452 0
M  V30 1563 H 144.714 -3.46978 -1.18331 0
M  V30 1564 H 144.362 -3.45115 -3.6593 0
M  V30 1565 H 144.062 -5.06788 -2.97388 0
M  V30 1566 H 145.586 -4.74146 -3.84731 0
M  V30 1567 H 147 -5.47582 -1.69785 0
M  V30 1568 H 145.397 -5.91073 -1.03693 0
M  V30 1569 H 146.467 -4.84786 -0.105041 0
M  V30 1570 N 147.81 0.181792 -1.56548 0
M  V30 1571 C 148.773 1.20894 -1.94724 0
M  V30 1572 C 149.773 1.37738 -0.829747 0
M  V30 1573 O 150.963 1.35323 -1.09697 0
M  V30 1574 C 148.095 2.57593 -2.23291 0
M  V30 1575 H 149.288 0.882275 -2.86629 0
M  V30 1576 H 146.841 0.423838 -1.50444 0
M  V30 1577 H 147.576 2.95291 -1.34067 0
M  V30 1578 H 147.361 2.46735 -3.04736 0
M  V30 1579 H 148.851 3.31637 -2.53785 0
M  V30 1580 N 149.288 1.51039 0.449983 0
M  V30 1581 C 150.251 1.70863 1.5277 0
M  V30 1582 C 151.251 0.578846 1.5002 0
M  V30 1583 O 152.441 0.846213 1.52266 0
M  V30 1584 C 149.573 1.75341 2.9235 0
M  V30 1585 H 150.766 2.67034 1.36502 0
M  V30 1586 H 148.319 1.40838 0.677812 0
M  V30 1587 H 149.054 0.809383 3.14037 0
M  V30 1588 H 148.839 2.57436 2.95752 0
M  V30 1589 H 150.329 1.92559 3.70555 0
M  V30 1590 N 150.766 -0.704594 1.40972 0
M  V30 1591 C 152.043 -1.45847 1.30338 0
M  V30 1592 C 152.423 -2.10973 -0.0732344 0
M  V30 1593 O 151.771 -2.00997 -1.08685 0
M  V30 1594 C 151.981 -2.48525 2.45023 0
M  V30 1595 C 153.329 -3.1404 2.8577 0
M  V30 1596 O 154.353 -2.58848 2.44696 0
M  V30 1597 O 153.212 -4.13981 3.56766 0
M  V30 1598 H 150.306 -0.649092 0.512454 0
M  V30 1599 H 152.852 -0.735836 1.52917 0
M  V30 1600 H 151.624 -1.98994 3.36923 0
M  V30 1601 H 151.247 -3.2831 2.24272 0
M  V30 1602 N 152.244 -1.26651 -0.937939 0
M  V30 1603 C 153.194 -1.05156 -2.02302 0
M  V30 1604 C 154.178 0.0171233 -1.60891 0
M  V30 1605 O 155.37 -0.200213 -1.75864 0
M  V30 1606 C 152.499 -0.689962 -3.36295 0
M  V30 1607 C 151.585 -1.79626 -3.84181 0
M  V30 1608 N 151.976 -3.03422 -4.04684 0
M  V30 1609 C 150.274 -1.6806 -4.13124 0
M  V30 1610 C 150.975 -3.75345 -4.444 0
M  V30 1611 N 149.951 -3.03051 -4.51288 0
M  V30 1612 H 153.753 -1.99117 -2.1617 0
M  V30 1613 H 151.267 -1.17216 -1.12402 0
M  V30 1614 H 153.264 -0.517112 -4.13681 0
M  V30 1615 H 151.924 0.242139 -3.23796 0
M  V30 1616 H 152.935 -3.39293 -3.91281 0
M  V30 1617 H 149.612 -0.818629 -4.09396 0
M  V30 1618 H 151.002 -4.81691 -4.68427 0
M  V30 1619 N 153.722 1.14298 -1.08507 0
M  V30 1620 C 154.97 1.84993 -0.813763 0
M  V30 1621 C 155.291 1.83405 0.662393 0
M  V30 1622 O 154.561 1.28319 1.48024 0
M  V30 1623 H 153.141 0.684966 -0.298045 0
M  V30 1624 H 155.803 1.385 -1.37126 0
M  V30 1625 H 154.899 2.89788 -1.15884 0
M  V30 1626 N 155.201 0.870884 1.31352 0
M  V30 1627 C 156.45 0.478408 1.95944 0
M  V30 1628 C 156.763 -0.974493 1.69597 0
M  V30 1629 O 157.969 -1.47316 2.28058 0
M  V30 1630 C 156.425 0.804609 3.50791 0
M  V30 1631 C 156.033 2.27433 3.85977 0
M  V30 1632 C 157.777 0.480648 4.2177 0
M  V30 1633 C 155.684 2.5429 5.33939 0
M  V30 1634 H 154.614 0.175175 0.733369 0
M  V30 1635 H 157.265 1.06391 1.4951 0
M  V30 1636 H 155.647 0.148347 3.95722 0
M  V30 1637 H 156.821 2.97373 3.52002 0
M  V30 1638 H 155.136 2.56442 3.28065 0
M  V30 1639 H 157.733 0.658519 5.30629 0
M  V30 1640 H 158.076 -0.578979 4.12254 0
M  V30 1641 H 158.609 1.09349 3.82476 0
M  V30 1642 H 155.348 3.58939 5.48491 0
M  V30 1643 H 154.868 1.88945 5.69263 0
M  V30 1644 H 156.547 2.39066 6.01212 0
M  V30 1645 N 156.679 -1.44442 0.630414 0
M  V30 1646 C 157.927 -2.01653 0.134351 0
M  V30 1647 C 158.248 -1.49836 -1.24796 0
M  V30 1648 O 157.518 -0.701684 -1.82902 0
M  V30 1649 H 156.098 -0.74554 0.0466769 0
M  V30 1650 H 158.76 -1.76952 0.816955 0
M  V30 1651 H 157.856 -3.11935 0.101498 0
M  V30 1652 N 158.157 -0.370918 -1.53173 0
M  V30 1653 C 159.087 0.464847 -2.28826 0
M  V30 1654 C 160.068 1.07936 -1.31468 0
M  V30 1655 O 161.253 1.0956 -1.60344 0
M  V30 1656 C 158.383 1.60196 -3.08147 0
M  V30 1657 C 157.337 1.11443 -4.13237 0
M  V30 1658 C 156.663 2.3422 -4.80672 0
M  V30 1659 C 157.963 0.195384 -5.21934 0
M  V30 1660 H 159.657 -0.166329 -2.98938 0
M  V30 1661 H 157.203 -0.0814359 -1.4377 0
M  V30 1662 H 159.156 2.19332 -3.59822 0
M  V30 1663 H 157.88 2.26045 -2.35735 0
M  V30 1664 H 156.539 0.545727 -3.62515 0
M  V30 1665 H 156.187 2.98537 -4.04827 0
M  V30 1666 H 155.887 2.02269 -5.51689 0
M  V30 1667 H 157.411 2.94032 -5.35143 0
M  V30 1668 H 158.825 0.694375 -5.69079 0
M  V30 1669 H 157.222 -0.0335027 -6.00091 0
M  V30 1670 H 158.292 -0.760961 -4.78892 0
M  V30 1671 N 159.635 1.57281 -0.100228 0
M  V30 1672 C 160.881 1.94826 0.563101 0
M  V30 1673 C 161.214 0.982475 1.67514 0
M  V30 1674 O 160.489 0.0164069 1.94493 0
M  V30 1675 C 160.772 3.42453 1.11346 0
M  V30 1676 C 160.625 4.498 0.00612081 0
M  V30 1677 C 161.944 3.91506 2.01024 0
M  V30 1678 H 159.063 0.708428 0.203221 0
M  V30 1679 H 161.705 1.8922 -0.171979 0
M  V30 1680 H 159.855 3.47361 1.7399 0
M  V30 1681 H 161.527 4.57 -0.628357 0
M  V30 1682 H 159.77 4.28756 -0.659581 0
M  V30 1683 H 160.441 5.50306 0.432109 0
M  V30 1684 H 162.917 3.88784 1.48278 0
M  V30 1685 H 161.793 4.95358 2.36457 0
M  V30 1686 H 162.054 3.31099 2.92961 0
M  V30 1687 N 161.113 -0.173488 1.56642 0
M  V30 1688 C 162.076 -1.19859 1.95362 0
M  V30 1689 C 163.076 -1.37296 0.83704 0
M  V30 1690 O 164.266 -1.34739 1.10413 0
M  V30 1691 C 161.398 -2.56405 2.24654 0
M  V30 1692 H 162.591 -0.867062 2.87092 0
M  V30 1693 H 160.144 -0.415853 1.50666 0
M  V30 1694 H 160.879 -2.94576 1.35631 0
M  V30 1695 H 160.664 -2.45115 3.06041 0
M  V30 1696 H 162.154 -3.30287 2.5554 0
M  V30 1697 N 162.591 -1.51276 -0.441967 0
M  V30 1698 C 163.521 -1.752 -1.54361 0
M  V30 1699 C 164.502 -0.601682 -1.59103 0
M  V30 1700 O 165.687 -0.843913 -1.74905 0
M  V30 1701 C 162.817 -1.87282 -2.92477 0
M  V30 1702 C 161.771 -3.02687 -3.02596 0
M  V30 1703 C 161.097 -2.99947 -4.42647 0
M  V30 1704 C 162.397 -4.4273 -2.77106 0
M  V30 1705 H 164.091 -2.67442 -1.34592 0
M  V30 1706 H 161.637 -1.28694 -0.646048 0
M  V30 1707 H 163.59 -2.02602 -3.695 0
M  V30 1708 H 162.314 -0.916844 -3.13467 0
M  V30 1709 H 160.973 -2.87065 -2.28012 0
M  V30 1710 H 160.621 -2.02136 -4.60597 0
M  V30 1711 H 160.321 -3.77439 -4.50348 0
M  V30 1712 H 161.845 -3.17354 -5.2165 0
M  V30 1713 H 163.259 -4.58727 -3.43864 0
M  V30 1714 H 161.656 -5.21893 -2.96222 0
M  V30 1715 H 162.726 -4.53087 -1.72744 0
M  V30 1716 N 164.069 0.697108 -1.41344 0
M  V30 1717 C 165.485 1.00751 -1.2378 0
M  V30 1718 C 165.685 2.01105 -0.126066 0
M  V30 1719 O 164.741 2.47295 0.51004 0
M  V30 1720 C 166.054 1.53359 -2.58653 0
M  V30 1721 C 167.602 1.6525 -2.65822 0
M  V30 1722 C 168.077 2.2126 -4.01009 0
M  V30 1723 N 169.568 2.28622 -4.02847 0
M  V30 1724 C 170.303 2.72984 -5.04249 0
M  V30 1725 N 169.799 3.16962 -6.16041 0
M  V30 1726 N 171.592 2.72534 -4.91611 0
M  V30 1727 H 163.743 0.0322662 -2.12375 0
M  V30 1728 H 166.006 0.0768853 -0.944877 0
M  V30 1729 H 165.712 0.870773 -3.4075 0
M  V30 1730 H 165.586 2.51597 -2.81032 0
M  V30 1731 H 167.973 2.30644 -1.84086 0
M  V30 1732 H 168.054 0.655614 -2.47256 0
M  V30 1733 H 167.698 1.56482 -4.83193 0
M  V30 1734 H 167.628 3.21698 -4.16915 0
M  V30 1735 H 170.119 1.97585 -3.22131 0
M  V30 1736 H 170.432 3.49434 -6.89287 0
M  V30 1737 H 168.777 3.14875 -6.1958 0
M  V30 1738 H 171.968 2.37525 -4.0336 0
M  V30 1739 H 172.141 3.06789 -5.70775 0
M  V30 1740 N 165.547 1.27147 0.931209 0
M  V30 1741 C 166.495 1.09398 2.05268 0
M  V30 1742 C 167.489 0.0180591 1.6939 0
M  V30 1743 O 168.695 0.17551 1.79142 0
M  V30 1744 H 165.07 0.336986 0.672268 0
M  V30 1745 H 167.041 2.04416 2.17386 0
M  V30 1746 C 165.79 0.75424 3.39421 0
M  V30 1747 H 165.113 1.57404 3.67511 0
M  V30 1748 H 166.553 0.669903 4.18674 0
M  V30 1749 C 165.012 -0.541197 3.32525 0
M  V30 1750 O 165.542 -1.57664 3.69466 0
M  V30 1751 N 163.748 -0.535517 2.85623 0
M  V30 1752 H 163.295 0.307511 2.55758 0
M  V30 1753 H 163.253 -1.40236 2.81392 0
M  V30 1754 N 167.025 -1.13721 1.09112 0
M  V30 1755 C 167.988 -2.17222 0.731241 0
M  V30 1756 C 168.988 -1.59035 -0.237566 0
M  V30 1757 O 170.178 -1.74192 -0.0161704 0
M  V30 1758 C 167.31 -3.40804 0.0808443 0
M  V30 1759 H 168.503 -2.50573 1.64783 0
M  V30 1760 H 166.056 -1.28493 0.889897 0
M  V30 1761 H 166.791 -3.1304 -0.847127 0
M  V30 1762 H 166.576 -3.84306 0.777896 0
M  V30 1763 H 168.066 -4.1731 -0.155657 0
M  V30 1764 N 168.503 -0.877838 -1.30888 0
M  V30 1765 C 169.451 -0.328662 -2.30266 0
M  V30 1766 C 170.445 0.560496 -1.59859 0
M  V30 1767 O 171.651 0.445722 -1.74394 0
M  V30 1768 H 168.026 -0.0876142 -0.746879 0
M  V30 1769 H 169.997 -1.18061 -2.74051 0
M  V30 1770 C 168.746 0.448071 -3.44801 0
M  V30 1771 H 168.069 -0.226859 -3.99156 0
M  V30 1772 H 169.509 0.797541 -4.16432 0
M  V30 1773 C 167.968 1.64239 -2.94155 0
M  V30 1774 O 168.498 2.74175 -2.93583 0
M  V30 1775 N 166.704 1.47716 -2.50256 0
M  V30 1776 H 166.251 0.582821 -2.5092 0
M  V30 1777 H 166.209 2.27765 -2.16727 0
M  V30 1778 N 169.982 1.44106 -0.638065 0
M  V30 1779 C 170.932 2.27843 0.0847285 0
M  V30 1780 C 171.916 1.39055 0.809471 0
M  V30 1781 O 173.108 1.62808 0.694435 0
M  V30 1782 C 170.237 3.26497 1.06089 0
M  V30 1783 C 169.323 4.22772 0.33541 0
M  V30 1784 N 169.714 5.01737 -0.639787 0
M  V30 1785 C 168.012 4.42227 0.578921 0
M  V30 1786 C 168.713 5.71792 -1.06904 0
M  V30 1787 N 167.689 5.42079 -0.406395 0
M  V30 1788 H 171.491 2.86305 -0.663814 0
M  V30 1789 H 169.005 1.55627 -0.464122 0
M  V30 1790 H 171.002 3.8525 1.59337 0
M  V30 1791 H 169.662 2.69595 1.80966 0
M  V30 1792 H 170.673 5.07799 -1.01789 0
M  V30 1793 H 167.35 3.96415 1.31003 0
M  V30 1794 H 168.74 6.45205 -1.8751 0
M  V30 1795 N 171.46 0.379036 1.52974 0
M  V30 1796 C 172.706 -0.199244 2.02422 0
M  V30 1797 C 173.061 -1.4532 1.26095 0
M  V30 1798 O 172.354 -1.88377 0.34996 0
M  V30 1799 C 172.548 -0.53096 3.53434 0
M  V30 1800 C 172.377 0.689298 4.44386 0
M  V30 1801 C 171.147 1.20546 4.9071 0
M  V30 1802 C 173.345 1.55856 4.90116 0
M  V30 1803 N 171.327 2.38434 5.65705 0
M  V30 1804 C 172.698 2.58396 5.63588 0
M  V30 1805 C 174.753 1.57986 4.7217 0
M  V30 1806 C 173.456 3.62939 6.21022 0
M  V30 1807 C 175.482 2.6143 5.30479 0
M  V30 1808 C 174.844 3.62693 6.03849 0
M  V30 1809 H 170.943 -0.0352671 0.781204 0
M  V30 1810 H 173.527 0.526614 1.87443 0
M  V30 1811 H 171.698 -1.22588 3.68547 0
M  V30 1812 H 173.43 -1.0955 3.89591 0
M  V30 1813 H 170.185 0.768022 4.67331 0
M  V30 1814 H 170.609 2.98055 6.07859 0
M  V30 1815 H 175.251 0.810475 4.14959 0
M  V30 1816 H 172.969 4.40751 6.77321 0
M  V30 1817 H 176.555 2.63949 5.18481 0
M  V30 1818 H 175.435 4.41424 6.48163 0
M  V30 1819 N 172.938 -1.57226 0.108567 0
M  V30 1820 C 173.871 -2.10447 -0.882464 0
M  V30 1821 C 174.849 -1.01829 -1.26766 0
M  V30 1822 O 176.033 -1.29415 -1.37054 0
M  V30 1823 C 173.16 -2.59258 -2.17952 0
M  V30 1824 C 172.206 -3.79662 -1.94318 0
M  V30 1825 S 173.039 -5.22586 -1.16892 0
M  V30 1826 C 174.195 -5.74758 -2.47799 0
M  V30 1827 H 174.428 -2.94178 -0.429745 0
M  V30 1828 H 171.961 -1.54043 -0.105 0
M  V30 1829 H 173.919 -2.88036 -2.92482 0
M  V30 1830 H 172.58 -1.75728 -2.60343 0
M  V30 1831 H 171.773 -4.11928 -2.90399 0
M  V30 1832 H 171.375 -3.51446 -1.27913 0
M  V30 1833 H 173.667 -5.83846 -3.43701 0
M  V30 1834 H 174.61 -6.73027 -2.20093 0
M  V30 1835 H 175.018 -5.02763 -2.56689 0
M  V30 1836 N 174.416 0.165178 -1.56732 0
M  V30 1837 C 175.832 0.517174 -1.50988 0
M  V30 1838 C 176.032 1.84331 -0.813894 0
M  V30 1839 O 175.088 2.49672 -0.37682 0
M  V30 1840 C 176.401 0.544261 -2.95733 0
M  V30 1841 C 177.949 0.631039 -3.06573 0
M  V30 1842 C 178.424 0.68896 -4.52788 0
M  V30 1843 N 179.915 0.751683 -4.5706 0
M  V30 1844 C 180.65 0.817177 -5.67547 0
M  V30 1845 N 180.146 0.843129 -6.8765 0
M  V30 1846 N 181.939 0.856668 -5.55534 0
M  V30 1847 H 174.09 -0.704318 -2.00382 0
M  V30 1848 H 176.353 -0.254687 -0.913148 0
M  V30 1849 H 176.059 -0.361607 -3.49836 0
M  V30 1850 H 175.933 1.3886 -3.5071 0
M  V30 1851 H 178.32 1.52733 -2.52501 0
M  V30 1852 H 178.401 -0.240095 -2.54671 0
M  V30 1853 H 178.045 -0.2031 -5.07494 0
M  V30 1854 H 177.975 1.57633 -5.02454 0
M  V30 1855 H 180.466 0.739661 -3.70591 0
M  V30 1856 H 180.779 0.894448 -7.67606 0
M  V30 1857 H 179.124 0.811304 -6.90248 0
M  V30 1858 H 182.315 0.833437 -4.60621 0
M  V30 1859 H 182.488 0.904247 -6.4166 0
M  V30 1860 N 175.894 1.51508 0.433938 0
M  V30 1861 C 177.142 1.6402 1.18075 0
M  V30 1862 C 177.463 0.360328 1.91642 0
M  V30 1863 O 176.733 -0.623945 1.85698 0
M  V30 1864 H 175.313 0.6045 0.43885 0
M  V30 1865 H 177.975 1.88452 0.497178 0
M  V30 1866 H 177.071 2.46949 1.90847 0
M  V30 1867 N 177.372 -0.689602 1.41712 0
M  V30 1868 C 178.62 -1.4468 1.4111 0
M  V30 1869 C 178.941 -1.94986 0.0232196 0
M  V30 1870 O 178.211 -1.72097 -0.935913 0
M  V30 1871 H 176.791 -0.536847 0.519427 0
M  V30 1872 H 179.453 -0.815825 1.77004 0
M  V30 1873 H 178.549 -2.30706 2.10193 0
M  V30 1874 N 178.85 -1.27639 -0.924453 0
M  V30 1875 C 180.075 -1.17101 -1.71179 0
M  V30 1876 C 180.5 0.268134 -1.86179 0
M  V30 1877 O 179.858 1.19415 -1.36418 0
M  V30 1878 C 179.906 -1.86313 -3.08739 0
M  V30 1879 O 179.01 -1.16331 -3.95652 0
M  V30 1880 H 178.351 -0.407091 -0.524569 0
M  V30 1881 H 180.881 -1.68767 -1.15666 0
M  V30 1882 H 180.891 -1.938 -3.59034 0
M  V30 1883 H 179.566 -2.91001 -2.97138 0
M  V30 1884 H 178.143 -1.16935 -3.54091 0
M  V30 1885 N 180.328 1.1314 -1.09713 0
M  V30 1886 C 181.558 1.88048 -0.855656 0
M  V30 1887 C 181.966 1.79537 0.596919 0
M  V30 1888 O 181.309 1.16196 1.42282 0
M  V30 1889 C 181.371 3.38314 -1.21589 0
M  V30 1890 C 181.035 3.70605 -2.67397 0
M  V30 1891 C 182.032 3.69596 -3.65643 0
M  V30 1892 C 179.717 4.0017 -3.03593 0
M  V30 1893 C 181.711 3.977 -4.9811 0
M  V30 1894 C 179.398 4.27935 -4.36251 0
M  V30 1895 C 180.396 4.26685 -5.33318 0
M  V30 1896 O 180.084 4.53767 -6.63589 0
M  V30 1897 H 179.816 0.60208 -0.307368 0
M  V30 1898 H 182.37 1.44128 -1.46343 0
M  V30 1899 H 180.6 3.82752 -0.551177 0
M  V30 1900 H 182.289 3.94552 -0.953083 0
M  V30 1901 H 183.055 3.46826 -3.39023 0
M  V30 1902 H 178.934 4.00289 -2.2867 0
M  V30 1903 H 182.478 3.9664 -5.73866 0
M  V30 1904 H 178.375 4.50178 -4.62613 0
M  V30 1905 H 179.143 4.71422 -6.69107 0
M  V30 1906 N 181.806 0.884767 1.30421 0
M  V30 1907 C 183.054 0.502112 1.95763 0
M  V30 1908 C 183.375 -0.951815 1.70192 0
M  V30 1909 O 182.645 -1.6692 1.0254 0
M  V30 1910 H 181.225 0.182694 0.724315 0
M  V30 1911 H 183.887 1.1278 1.58955 0
M  V30 1912 H 182.983 0.672188 3.04775 0
M  V30 1913 N 183.284 -1.43765 0.645699 0
M  V30 1914 C 184.53 -2.02731 0.164844 0
M  V30 1915 C 184.885 -1.49983 -1.2051 0
M  V30 1916 O 184.178 -0.680208 -1.79119 0
M  V30 1917 C 184.372 -3.57238 0.107679 0
M  V30 1918 C 184.201 -4.24977 1.47054 0
M  V30 1919 C 182.971 -4.61356 2.06103 0
M  V30 1920 C 185.169 -4.54476 2.40741 0
M  V30 1921 N 183.151 -5.14132 3.35473 0
M  V30 1922 C 184.522 -5.08489 3.54737 0
M  V30 1923 C 186.577 -4.36438 2.39637 0
M  V30 1924 C 185.28 -5.46364 4.67845 0
M  V30 1925 C 187.306 -4.7537 3.5182 0
M  V30 1926 C 186.668 -5.2951 4.64541 0
M  V30 1927 H 182.767 -0.774976 0.104578 0
M  V30 1928 H 185.351 -1.75051 0.852367 0
M  V30 1929 H 183.522 -3.84498 -0.549165 0
M  V30 1930 H 185.254 -4.0288 -0.383351 0
M  V30 1931 H 182.009 -4.46151 1.58892 0
M  V30 1932 H 182.433 -5.4498 4.01654 0
M  V30 1933 H 187.075 -3.93861 1.53731 0
M  V30 1934 H 184.793 -5.87888 5.54448 0
M  V30 1935 H 188.379 -4.63115 3.52159 0
M  V30 1936 H 187.259 -5.59077 5.49911 0
M  V30 1937 N 184.763 -0.387143 -1.52771 0
M  V30 1938 C 185.695 0.484089 -2.2403 0
M  V30 1939 C 186.708 1.02849 -1.26198 0
M  V30 1940 O 187.897 0.931186 -1.52286 0
M  V30 1941 C 184.997 1.68337 -2.94136 0
M  V30 1942 C 184.17 1.26672 -4.18656 0
M  V30 1943 C 183.229 2.33045 -4.7178 0
M  V30 1944 O 182.255 1.94541 -5.34923 0
M  V30 1945 N 183.457 3.64929 -4.5145 0
M  V30 1946 H 186.222 -0.126404 -2.99433 0
M  V30 1947 H 183.783 -0.213392 -1.60488 0
M  V30 1948 H 185.775 2.39019 -3.26577 0
M  V30 1949 H 184.345 2.20025 -2.22053 0
M  V30 1950 H 183.565 0.388878 -3.92277 0
M  V30 1951 H 184.853 0.964964 -4.99566 0
M  V30 1952 H 184.251 3.98974 -4.01044 0
M  V30 1953 H 182.808 4.31651 -4.88386 0
M  V30 1954 N 186.241 1.57166 -0.116904 0
M  V30 1955 C 187.204 2.14039 0.819742 0
M  V30 1956 C 188.204 1.07477 1.19605 0
M  V30 1957 O 189.394 1.33263 1.1219 0
M  V30 1958 C 186.526 2.67891 2.10826 0
M  V30 1959 H 187.719 2.98128 0.325511 0
M  V30 1960 H 185.272 1.55739 0.132312 0
M  V30 1961 H 186.007 1.87384 2.64685 0
M  V30 1962 H 185.792 3.45823 1.84793 0
M  V30 1963 H 187.282 3.11809 2.77785 0
M  V30 1964 N 187.719 -0.156864 1.56817 0
M  V30 1965 C 188.682 -1.17781 1.96622 0
M  V30 1966 C 189.682 -1.36401 0.851555 0
M  V30 1967 O 190.872 -1.33561 1.11836 0
M  V30 1968 C 188.004 -2.54008 2.27361 0
M  V30 1969 H 189.197 -0.836564 2.87996 0
M  V30 1970 H 186.75 -0.39985 1.51099 0
M  V30 1971 H 187.485 -2.9312 1.38748 0
M  V30 1972 H 187.27 -2.41856 3.08623 0
M  V30 1973 H 188.76 -3.27558 2.59029 0
M  V30 1974 N 189.197 -1.51736 -0.425897 0
M  V30 1975 C 190.107 -1.76738 -1.54275 0
M  V30 1976 C 191.123 -0.65211 -1.61318 0
M  V30 1977 O 192.299 -0.935654 -1.78346 0
M  V30 1978 C 189.364 -1.89755 -2.90162 0
M  V30 1979 C 188.425 -3.13633 -2.93143 0
M  V30 1980 C 187.658 -3.2602 -4.22548 0
M  V30 1981 O 187.881 -2.44067 -5.15546 0
M  V30 1982 O 186.815 -4.19071 -4.32046 0
M  V30 1983 H 190.641 -2.71502 -1.36089 0
M  V30 1984 H 188.226 -1.36376 -0.610069 0
M  V30 1985 H 190.108 -2.00236 -3.70788 0
M  V30 1986 H 188.783 -0.981785 -3.08452 0
M  V30 1987 H 187.69 -3.08622 -2.11431 0
M  V30 1988 H 189.023 -4.04936 -2.798 0
M  V30 1989 N 190.675 0.682077 -1.42076 0
M  V30 1990 C 191.622 1.79578 -1.44984 0
M  V30 1991 C 192.592 1.6332 -0.302614 0
M  V30 1992 O 193.777 1.83978 -0.505633 0
M  V30 1993 C 190.917 3.1756 -1.35091 0
M  V30 1994 C 190.03 3.45156 -2.59791 0
M  V30 1995 C 189.165 4.72826 -2.42093 0
M  V30 1996 C 188.204 4.93433 -3.62202 0
M  V30 1997 N 187.341 6.12338 -3.43491 0
M  V30 1998 H 192.181 1.76427 -2.40161 0
M  V30 1999 H 189.718 0.861376 -1.19242 0
M  V30 2000 H 191.676 3.97287 -1.27354 0
M  V30 2001 H 190.306 3.19854 -0.435133 0
M  V30 2002 H 189.358 2.59736 -2.77923 0
M  V30 2003 H 190.67 3.5628 -3.49094 0
M  V30 2004 H 189.824 5.60631 -2.319 0
M  V30 2005 H 188.563 4.63973 -1.50268 0
M  V30 2006 H 187.568 4.04073 -3.72834 0
M  V30 2007 H 188.793 5.04136 -4.54998 0
M  V30 2008 H 186.739 6.04672 -2.54377 0
M  V30 2009 H 186.656 6.2429 -4.26377 0
M  V30 2010 H 187.924 7.02841 -3.37097 0
M  V30 2011 N 192.153 1.28127 0.917671 0
M  V30 2012 C 193.401 1.14825 1.66312 0
M  V30 2013 C 193.722 -0.304379 1.9261 0
M  V30 2014 O 192.992 -1.21149 1.53947 0
M  V30 2015 H 191.572 0.421953 0.616413 0
M  V30 2016 H 194.234 1.608 1.10134 0
M  V30 2017 H 193.33 1.68489 2.62712 0
M  V30 2018 N 193.631 -1.12557 1.10312 0
M  V30 2019 C 194.861 -1.87592 0.865617 0
M  V30 2020 C 195.269 -1.79851 -0.587389 0
M  V30 2021 O 194.612 -1.16949 -1.41664 0
M  V30 2022 C 194.674 -3.37665 1.23381 0
M  V30 2023 C 194.338 -3.69181 2.69359 0
M  V30 2024 C 195.335 -3.67652 3.67597 0
M  V30 2025 C 193.02 -3.98555 3.05711 0
M  V30 2026 C 195.014 -3.95053 5.00212 0
M  V30 2027 C 192.701 -4.25616 4.38514 0
M  V30 2028 C 193.699 -4.23851 5.35574 0
M  V30 2029 O 193.387 -4.50242 6.65986 0
M  V30 2030 H 193.119 -0.600442 0.310557 0
M  V30 2031 H 195.673 -1.4335 1.47105 0
M  V30 2032 H 193.903 -3.82454 0.571467 0
M  V30 2033 H 195.592 -3.94041 0.973994 0
M  V30 2034 H 196.358 -3.45024 3.40857 0
M  V30 2035 H 192.237 -3.99071 2.30789 0
M  V30 2036 H 195.781 -3.93591 5.75962 0
M  V30 2037 H 191.678 -4.47718 4.64994 0
M  V30 2038 H 192.446 -4.67867 6.71597 0
M  V30 2039 N 195.109 -0.891671 -1.2995 0
M  V30 2040 C 196.358 -0.509521 -1.95158 0
M  V30 2041 C 196.671 0.947388 -1.71125 0
M  V30 2042 O 197.877 1.43669 -2.30372 0
M  V30 2043 C 196.333 -0.860315 -3.49466 0
M  V30 2044 C 195.941 -2.33545 -3.8231 0
M  V30 2045 C 197.685 -0.547687 -4.20952 0
M  V30 2046 C 195.592 -2.62752 -5.29826 0
M  V30 2047 H 194.522 -0.18682 -0.730489 0
M  V30 2048 H 197.173 -1.08756 -1.47798 0
M  V30 2049 H 195.555 -0.211285 -3.95436 0
M  V30 2050 H 196.729 -3.02936 -3.47227 0
M  V30 2051 H 195.044 -2.61629 -3.23944 0
M  V30 2052 H 197.641 -0.742854 -5.29515 0
M  V30 2053 H 197.984 0.51332 -4.13123 0
M  V30 2054 H 198.517 -1.1542 -3.80688 0
M  V30 2055 H 195.256 -3.6762 -5.42712 0
M  V30 2056 H 194.776 -1.97977 -5.66185 0
M  V30 2057 H 196.455 -2.48601 -5.97333 0
M  V30 2058 N 196.587 1.43421 -0.653314 0
M  V30 2059 C 197.835 2.01414 -0.166415 0
M  V30 2060 C 198.156 1.51803 1.22397 0
M  V30 2061 O 197.426 0.730693 1.81763 0
M  V30 2062 H 196.006 0.744703 -0.0585319 0
M  V30 2063 H 198.668 1.75629 -0.845003 0
M  V30 2064 H 197.764 3.11734 -0.151111 0
M  V30 2065 N 198.065 0.39524 1.52563 0
M  V30 2066 C 199.314 -0.186321 2.00838 0
M  V30 2067 C 199.627 -1.47402 1.28577 0
M  V30 2068 O 200.833 -2.13599 1.67593 0
M  V30 2069 C 199.289 -0.382595 3.57861 0
M  V30 2070 C 198.897 0.892202 4.39026 0
M  V30 2071 C 200.641 -0.9202 4.14406 0
M  V30 2072 C 198.548 0.66388 5.87662 0
M  V30 2073 H 197.478 -0.0734041 0.750418 0
M  V30 2074 H 200.129 0.518552 1.76021 0
M  V30 2075 H 198.511 -1.14946 3.7895 0
M  V30 2076 H 199.685 1.66414 4.29701 0
M  V30 2077 H 198 1.35519 3.9373 0
M  V30 2078 H 200.597 -1.10683 5.23119 0
M  V30 2079 H 200.94 -1.89096 3.70875 0
M  V30 2080 H 201.473 -0.212751 3.97231 0
M  V30 2081 H 198.212 1.6058 6.35527 0
M  V30 2082 H 197.732 -0.0690193 5.9976 0
M  V30 2083 H 199.411 0.300699 6.46301 0
M  V30 2084 N 199.544 -1.57102 0.125237 0
M  V30 2085 C 200.784 -1.97294 -0.534259 0
M  V30 2086 C 201.148 -1.0074 -1.63449 0
M  V30 2087 O 202.349 -1.29893 -2.35332 0
M  V30 2088 C 200.62 -3.41705 -1.04748 0
M  V30 2089 S 202.179 -4.03913 -1.71463 0
M  V30 2090 H 198.997 -0.689517 -0.173458 0
M  V30 2091 H 201.599 -1.94349 0.211797 0
M  V30 2092 H 200.303 -4.09723 -0.235649 0
M  V30 2093 H 199.834 -3.48315 -1.82867 0
M  V30 2094 H 201.849 -3.95182 -3.00077 0
M  V30 2095 N 201.022 0.148545 -1.56898 0
M  V30 2096 C 202.268 0.857877 -1.84424 0
M  V30 2097 C 202.623 1.7886 -0.709006 0
M  V30 2098 O 201.916 1.89344 0.293139 0
M  V30 2099 C 202.11 1.67064 -3.1595 0
M  V30 2100 C 201.939 0.82011 -4.42159 0
M  V30 2101 C 200.709 0.486328 -5.02954 0
M  V30 2102 C 202.907 0.151155 -5.14078 0
M  V30 2103 N 200.889 -0.377956 -6.12735 0
M  V30 2104 C 202.26 -0.573333 -6.17343 0
M  V30 2105 C 204.315 0.0716685 -4.97848 0
M  V30 2106 C 203.018 -1.3698 -7.06137 0
M  V30 2107 C 205.044 -0.711532 -5.87104 0
M  V30 2108 C 204.406 -1.42431 -6.8985 0
M  V30 2109 H 200.505 0.291798 -0.725519 0
M  V30 2110 H 203.089 0.123347 -1.94309 0
M  V30 2111 H 201.26 2.37642 -3.07215 0
M  V30 2112 H 202.992 2.32302 -3.31388 0
M  V30 2113 H 199.747 0.821753 -4.66416 0
M  V30 2114 H 200.171 -0.801077 -6.72244 0
M  V30 2115 H 204.813 0.608381 -4.184 0
M  V30 2116 H 202.531 -1.91778 -7.85014 0
M  V30 2117 H 206.117 -0.775005 -5.76615 0
M  V30 2118 H 204.997 -2.02061 -7.57721 0
M  V30 2119 N 202.5 1.5196 0.417844 0
M  V30 2120 C 203.728 1.69426 1.18753 0
M  V30 2121 C 204.143 0.399955 1.84515 0
M  V30 2122 O 203.5 -0.623288 1.71527 0
M  V30 2123 C 203.551 2.82375 2.25714 0
M  V30 2124 O 203.272 4.06793 1.62638 0
M  V30 2125 C 204.773 3.11277 3.15628 0
M  V30 2126 H 201.993 0.568031 0.357186 0
M  V30 2127 H 204.537 1.98475 0.49273 0
M  V30 2128 H 202.692 2.5587 2.90877 0
M  V30 2129 H 203.106 4.69667 2.3348 0
M  V30 2130 H 204.58 3.93843 3.86771 0
M  V30 2131 H 205.057 2.24473 3.77503 0
M  V30 2132 H 205.663 3.39515 2.56144 0
M  V30 2133 N 203.978 -0.674533 1.42435 0
M  V30 2134 C 204.926 -1.80934 1.46169 0
M  V30 2135 C 205.92 -1.66006 0.3374 0
M  V30 2136 O 207.126 -1.72611 0.510425 0
M  V30 2137 H 203.501 -0.596594 0.457798 0
M  V30 2138 H 205.472 -1.74903 2.41767 0
M  V30 2139 C 204.221 -3.19088 1.38123 0
M  V30 2140 H 203.544 -3.31203 2.23931 0
M  V30 2141 H 204.984 -3.9851 1.44797 0
M  V30 2142 C 203.443 -3.36763 0.0960517 0
M  V30 2143 O 203.973 -3.92581 -0.851073 0
M  V30 2144 N 202.179 -2.90597 0.0131186 0
M  V30 2145 H 201.726 -2.45359 0.784639 0
M  V30 2146 H 201.684 -3.028 -0.846133 0
M  V30 2147 N 205.456 -1.28612 -0.910864 0
M  V30 2148 C 206.681 -1.1891 -1.69927 0
M  V30 2149 C 207.106 0.248372 -1.86453 0
M  V30 2150 O 206.464 1.17961 -1.37676 0
M  V30 2151 C 206.512 -1.89578 -3.06745 0
M  V30 2152 O 205.616 -1.20521 -3.94396 0
M  V30 2153 H 204.957 -0.412632 -0.520222 0
M  V30 2154 H 207.487 -1.69985 -1.1387 0
M  V30 2155 H 207.497 -1.97597 -3.56958 0
M  V30 2156 H 206.172 -2.94136 -2.94035 0
M  V30 2157 H 204.749 -1.20684 -3.52831 0
M  V30 2158 N 206.934 1.1197 -1.10907 0
M  V30 2159 C 208.183 1.82947 -0.849302 0
M  V30 2160 C 208.496 1.85275 0.627112 0
M  V30 2161 O 209.702 2.52296 1.00295 0
M  V30 2162 C 208.158 3.28529 -1.46959 0
M  V30 2163 C 207.766 3.34546 -2.97965 0
M  V30 2164 C 209.51 4.04443 -1.28942 0
M  V30 2165 C 207.417 4.74491 -3.53004 0
M  V30 2166 H 206.347 0.685477 -0.314065 0
M  V30 2167 H 208.998 1.2604 -1.33365 0
M  V30 2168 H 207.38 3.85333 -0.912917 0
M  V30 2169 H 208.554 2.87654 -3.59989 0
M  V30 2170 H 206.869 2.72108 -3.15192 0
M  V30 2171 H 209.466 5.07787 -1.67502 0
M  V30 2172 H 209.809 4.15656 -0.231456 0
M  V30 2173 H 210.342 3.5401 -1.81443 0
M  V30 2174 H 207.081 4.68474 -4.58489 0
M  V30 2175 H 206.601 5.21816 -2.9575 0
M  V30 2176 H 208.28 5.4344 -3.51115 0
M  V30 2177 N 208.412 0.89855 1.29475 0
M  V30 2178 C 209.375 0.380272 2.26023 0
M  V30 2179 C 210.375 -0.484891 1.53315 0
M  V30 2180 O 211.565 -0.290108 1.71767 0
M  V30 2181 C 208.697 -0.45651 3.3783 0
M  V30 2182 H 209.89 1.23295 2.73383 0
M  V30 2183 H 207.443 0.676589 1.40897 0
M  V30 2184 H 208.178 -1.32922 2.95808 0
M  V30 2185 H 207.963 0.163393 3.91759 0
M  V30 2186 H 209.453 -0.810466 4.0966 0
M  V30 2187 N 209.89 -1.43072 0.660911 0
M  V30 2188 C 211.136 -2.0202 0.177708 0
M  V30 2189 C 211.469 -1.52066 -1.20787 0
M  V30 2190 O 210.744 -0.716987 -1.80802 0
M  V30 2191 C 211.027 -3.59561 0.197019 0
M  V30 2192 C 210.88 -4.19727 1.61706 0
M  V30 2193 C 212.199 -4.37664 -0.462396 0
M  V30 2194 H 209.318 -0.734034 0.0660494 0
M  V30 2195 H 211.96 -1.70272 0.843058 0
M  V30 2196 H 210.11 -3.86739 -0.369527 0
M  V30 2197 H 211.782 -4.03553 2.23479 0
M  V30 2198 H 210.025 -3.76084 2.16201 0
M  V30 2199 H 210.696 -5.28834 1.58237 0
M  V30 2200 H 213.172 -4.16095 0.0197215 0
M  V30 2201 H 212.048 -5.47305 -0.418188 0
M  V30 2202 H 212.309 -4.14493 -1.53778 0
M  V30 2203 N 211.368 -0.403325 -1.52352 0
M  V30 2204 C 212.301 0.469463 -2.23319 0
M  V30 2205 C 213.279 1.05272 -1.23922 0
M  V30 2206 O 214.463 1.10169 -1.52954 0
M  V30 2207 C 211.59 1.6511 -2.9573 0
M  V30 2208 C 210.636 1.19178 -4.0951 0
M  V30 2209 S 211.469 0.161718 -5.35256 0
M  V30 2210 C 212.625 1.34882 -6.11194 0
M  V30 2211 H 212.858 -0.133134 -2.97002 0
M  V30 2212 H 210.391 -0.187588 -1.53256 0
M  V30 2213 H 212.349 2.3287 -3.38056 0
M  V30 2214 H 211.01 2.22503 -2.21701 0
M  V30 2215 H 210.203 2.07444 -4.59329 0
M  V30 2216 H 209.805 0.592911 -3.6927 0
M  V30 2217 H 212.097 2.27345 -6.38217 0
M  V30 2218 H 213.04 0.89128 -7.02468 0
M  V30 2219 H 213.448 1.57198 -5.42171 0
M  V30 2220 N 212.846 1.57033 -0.133567 0
M  V30 2221 C 214.257 1.82593 0.389464 0
M  V30 2222 C 214.608 1.05156 1.6564 0
M  V30 2223 O 213.733 0.292644 2.14412 0
M  V30 2224 C 214.328 3.31204 0.713377 0
M  V30 2225 C 212.887 3.57393 1.18098 0
M  V30 2226 C 212.034 2.76598 0.197126 0
M  V30 2227 H 214.985 1.54598 -0.358481 0
M  V30 2228 H 215.006 3.46627 1.56939 0
M  V30 2229 H 214.518 3.87537 -0.2089 0
M  V30 2230 H 212.619 3.06433 2.11966 0
M  V30 2231 H 212.732 4.65915 1.11624 0
M  V30 2232 H 211.096 2.45257 0.687088 0
M  V30 2233 H 211.879 3.35697 -0.718504 0
M  V30 2234 N 214.325 -0.140222 1.56975 0
M  V30 2235 C 215.736 -0.699596 1.73097 0
M  V30 2236 C 216.087 -1.8134 0.749022 0
M  V30 2237 O 215.212 -2.16241 -0.0828503 0
M  V30 2238 C 215.807 -1.27582 3.1386 0
M  V30 2239 C 214.366 -1.78169 3.31561 0
M  V30 2240 C 213.513 -0.672855 2.69013 0
M  V30 2241 H 216.464 0.0855115 1.58469 0
M  V30 2242 H 216.485 -2.14561 3.14235 0
M  V30 2243 H 215.997 -0.464955 3.85305 0
M  V30 2244 H 214.098 -2.61801 2.65124 0
M  V30 2245 H 214.211 -1.90574 4.39566 0
M  V30 2246 H 212.575 -1.10118 2.29665 0
M  V30 2247 H 213.358 0.126679 3.43066 0
M  V30 2248 N 215.803 -1.52179 -0.40978 0
M  V30 2249 C 217.049 -1.67408 -1.15525 0
M  V30 2250 C 217.404 -0.398746 -1.88223 0
M  V30 2251 O 216.697 0.60678 -1.81738 0
M  V30 2252 C 216.891 -2.83428 -2.17723 0
M  V30 2253 C 216.72 -4.22121 -1.55061 0
M  V30 2254 C 215.49 -4.87657 -1.3236 0
M  V30 2255 C 217.688 -5.04248 -1.01185 0
M  V30 2256 N 215.67 -6.10387 -0.655834 0
M  V30 2257 C 217.041 -6.18209 -0.470963 0
M  V30 2258 C 219.096 -4.89583 -0.906252 0
M  V30 2259 C 217.799 -7.1911 0.165172 0
M  V30 2260 C 219.825 -5.90718 -0.28397 0
M  V30 2261 C 219.187 -7.03969 0.246243 0
M  V30 2262 H 215.286 -0.666251 -0.409431 0
M  V30 2263 H 217.87 -1.89482 -0.447729 0
M  V30 2264 H 216.041 -2.6297 -2.85834 0
M  V30 2265 H 217.773 -2.87697 -2.84627 0
M  V30 2266 H 214.528 -4.46007 -1.59294 0
M  V30 2267 H 214.952 -6.76153 -0.338596 0
M  V30 2268 H 219.594 -4.02253 -1.302 0
M  V30 2269 H 217.312 -8.06066 0.572986 0
M  V30 2270 H 220.898 -5.81443 -0.203792 0
M  V30 2271 H 219.778 -7.80886 0.720173 0
M  V30 2272 N 217.281 0.66697 -1.42791 0
M  V30 2273 C 218.529 1.42417 -1.43394 0
M  V30 2274 C 218.85 1.94925 -0.0542373 0
M  V30 2275 O 218.12 1.73564 0.908415 0
M  V30 2276 H 216.7 0.528515 -0.527902 0
M  V30 2277 H 219.362 0.787562 -1.78279 0
M  V30 2278 H 218.458 2.27333 -2.13837 0
M  V30 2279 N 218.759 1.29093 0.90403 0
M  V30 2280 C 219.722 1.1386 1.98919 0
M  V30 2281 C 220.722 0.0753457 1.60623 0
M  V30 2282 O 221.912 0.321931 1.71199 0
M  V30 2283 C 219.044 0.740198 3.32767 0
M  V30 2284 H 220.237 2.10246 2.13861 0
M  V30 2285 H 217.79 1.12218 1.08797 0
M  V30 2286 H 218.525 -0.223997 3.23525 0
M  V30 2287 H 218.31 1.50838 3.61926 0
M  V30 2288 H 219.8 0.656546 4.12407 0
M  V30 2289 N 220.237 -1.11381 1.11499 0
M  V30 2290 C 221.184 -2.17439 0.773887 0
M  V30 2291 C 222.154 -1.64132 -0.254899 0
M  V30 2292 O 223.339 -1.90345 -0.13168 0
M  V30 2293 C 220.479 -3.44373 0.223917 0
M  V30 2294 C 219.592 -4.1168 1.30934 0
M  V30 2295 C 218.727 -5.263 0.71984 0
M  V30 2296 C 217.766 -5.85493 1.78507 0
M  V30 2297 N 216.903 -6.91507 1.21502 0
M  V30 2298 H 221.743 -2.45962 1.68246 0
M  V30 2299 H 219.28 -1.20744 0.840191 0
M  V30 2300 H 221.238 -4.17047 -0.112921 0
M  V30 2301 H 219.868 -3.16232 -0.647851 0
M  V30 2302 H 218.92 -3.37073 1.76312 0
M  V30 2303 H 220.232 -4.51729 2.11524 0
M  V30 2304 H 219.386 -6.05785 0.333094 0
M  V30 2305 H 218.125 -4.87559 -0.117377 0
M  V30 2306 H 217.13 -5.04686 2.18111 0
M  V30 2307 H 218.355 -6.26301 2.62533 0
M  V30 2308 H 216.301 -6.54783 0.399455 0
M  V30 2309 H 216.218 -7.30214 1.95763 0
M  V30 2310 H 217.486 -7.74795 0.855181 0
M  V30 2311 N 221.715 -0.905404 -1.28997 0
M  V30 2312 C 222.625 -0.392246 -2.31298 0
M  V30 2313 C 223.641 0.515889 -1.66176 0
M  V30 2314 O 224.817 0.404093 -1.97304 0
M  V30 2315 C 221.882 0.36686 -3.44754 0
M  V30 2316 C 220.943 -0.573485 -4.25452 0
M  V30 2317 C 220.176 0.149488 -5.33491 0
M  V30 2318 O 220.399 1.37255 -5.5364 0
M  V30 2319 O 219.333 -0.510919 -5.99728 0
M  V30 2320 H 223.159 -1.2411 -2.77183 0
M  V30 2321 H 220.744 -0.669926 -1.33538 0
M  V30 2322 H 222.626 0.795907 -4.13816 0
M  V30 2323 H 221.301 1.19169 -3.00966 0
M  V30 2324 H 220.208 -1.05176 -3.59011 0
M  V30 2325 H 221.541 -1.36489 -4.72897 0
M  V30 2326 N 223.193 1.4272 -0.668489 0
M  V30 2327 C 224.433 2.03497 -0.19194 0
M  V30 2328 C 224.797 1.51684 1.17712 0
M  V30 2329 O 225.998 2.04205 1.74796 0
M  V30 2330 C 224.269 3.56734 -0.218032 0
M  V30 2331 S 225.828 4.38395 0.188438 0
M  V30 2332 H 222.646 0.706542 -0.0794959 0
M  V30 2333 H 225.248 1.74563 -0.880235 0
M  V30 2334 H 223.952 3.91943 -1.2169 0
M  V30 2335 H 223.483 3.90333 0.490303 0
M  V30 2336 H 225.498 4.75345 1.42345 0
M  V30 2337 N 224.671 0.411399 1.52136 0
M  V30 2338 C 226.087 0.0623865 1.59478 0
M  V30 2339 C 226.287 -1.42554 1.4241 0
M  V30 2340 O 225.343 -2.19263 1.2522 0
M  V30 2341 C 226.656 0.559331 2.95452 0
M  V30 2342 C 228.204 0.517503 3.08692 0
M  V30 2343 C 228.679 0.990994 4.4715 0
M  V30 2344 N 230.17 0.947908 4.53397 0
M  V30 2345 C 230.905 1.28544 5.58806 0
M  V30 2346 N 230.401 1.69454 6.71757 0
M  V30 2347 N 232.194 1.20526 5.49026 0
M  V30 2348 H 224.345 1.37982 1.61477 0
M  V30 2349 H 226.608 0.566977 0.759764 0
M  V30 2350 H 226.314 1.59938 3.1323 0
M  V30 2351 H 226.188 -0.0298014 3.77188 0
M  V30 2352 H 228.575 -0.513505 2.90598 0
M  V30 2353 H 228.656 1.14272 2.28857 0
M  V30 2354 H 228.3 2.02034 4.65988 0
M  V30 2355 H 228.23 0.34257 5.25485 0
M  V30 2356 H 230.721 0.647157 3.72317 0
M  V30 2357 H 231.034 1.93513 7.48179 0
M  V30 2358 H 229.379 1.73359 6.73032 0
M  V30 2359 H 232.57 0.884505 4.59667 0
M  V30 2360 H 232.743 1.47161 6.31069 0
M  V30 2361 N 226.149 -1.5696 0.141893 0
M  V30 2362 C 227.398 -1.95135 -0.510427 0
M  V30 2363 C 227.711 -1.02896 -1.66348 0
M  V30 2364 O 228.917 -1.30629 -2.38009 0
M  V30 2365 C 227.373 -3.46876 -0.959427 0
M  V30 2366 C 226.981 -4.47691 0.166419 0
M  V30 2367 C 228.725 -3.93927 -1.58183 0
M  V30 2368 C 226.632 -5.90636 -0.300565 0
M  V30 2369 H 225.562 -0.728494 -0.194454 0
M  V30 2370 H 228.213 -1.8211 0.22542 0
M  V30 2371 H 226.595 -3.55215 -1.75038 0
M  V30 2372 H 227.769 -4.51043 0.94325 0
M  V30 2373 H 226.084 -4.10527 0.696905 0
M  V30 2374 H 228.681 -4.98158 -1.94275 0
M  V30 2375 H 229.024 -3.3519 -2.46888 0
M  V30 2376 H 229.557 -3.88484 -0.855863 0
M  V30 2377 H 226.296 -6.5318 0.550989 0
M  V30 2378 H 225.816 -5.90655 -1.04338 0
M  V30 2379 H 227.495 -6.42588 -0.754265 0
M  V30 2380 N 227.627 0.131896 -1.57047 0
M  V30 2381 C 228.875 0.840269 -1.83804 0
M  V30 2382 C 229.196 1.81017 -0.72512 0
M  V30 2383 O 228.466 1.94272 0.251995 0
M  V30 2384 H 227.046 0.313294 -0.678127 0
M  V30 2385 H 229.708 0.122294 -1.94516 0
M  V30 2386 H 228.804 1.39335 -2.79271 0
M  V30 2387 N 229.106 1.52395 0.401703 0
M  V30 2388 C 230.334 1.70676 1.16949 0
M  V30 2389 C 230.749 0.419503 1.8408 0
M  V30 2390 O 230.106 -0.605061 1.72178 0
M  V30 2391 C 230.157 2.84753 2.22706 0
M  V30 2392 O 229.878 4.08495 1.58314 0
M  V30 2393 C 231.379 3.14608 3.12309 0
M  V30 2394 H 228.599 0.571787 0.351142 0
M  V30 2395 H 231.143 1.98987 0.471652 0
M  V30 2396 H 229.298 2.58941 2.88147 0
M  V30 2397 H 229.712 4.72117 2.28485 0
M  V30 2398 H 231.186 3.97923 3.82572 0
M  V30 2399 H 231.663 2.28464 3.75101 0
M  V30 2400 H 232.269 3.42212 2.52529 0
M  V30 2401 N 230.584 -0.659388 1.43143 0
M  V30 2402 C 231.532 -1.79374 1.4808 0
M  V30 2403 C 232.526 -1.65639 0.354988 0
M  V30 2404 O 233.732 -1.7206 0.528704 0
M  V30 2405 H 230.107 -0.591705 0.4641 0
M  V30 2406 H 232.078 -1.72329 2.43609 0
M  V30 2407 C 230.827 -3.17606 1.41499 0
M  V30 2408 H 230.15 -3.28809 2.27431 0
M  V30 2409 H 231.59 -3.96951 1.49015 0
M  V30 2410 C 230.049 -3.36642 0.131765 0
M  V30 2411 O 230.579 -3.93461 -0.809386 0
M  V30 2412 N 228.785 -2.90567 0.0439396 0
M  V30 2413 H 228.332 -2.44513 0.810619 0
M  V30 2414 H 228.29 -3.03681 -0.813969 0
M  V30 2415 N 232.062 -1.29571 -0.897171 0
M  V30 2416 C 233.473 -1.15964 -1.46319 0
M  V30 2417 C 233.824 0.244267 -1.94674 0
M  V30 2418 O 232.949 1.13998 -1.83939 0
M  V30 2419 C 233.544 -2.09906 -2.65942 0
M  V30 2420 C 232.103 -2.00314 -3.18671 0
M  V30 2421 C 231.25 -2.00687 -1.91363 0
M  V30 2422 H 234.201 -1.42019 -0.708268 0
M  V30 2423 H 234.222 -1.67276 -3.41759 0
M  V30 2424 H 233.734 -3.12075 -2.30718 0
M  V30 2425 H 231.835 -1.01242 -3.58582 0
M  V30 2426 H 231.948 -2.88102 -3.82798 0
M  V30 2427 H 230.312 -1.45319 -2.09175 0
M  V30 2428 H 231.095 -3.04566 -1.58413 0
M  V30 2429 N 233.54 1.10788 -1.12088 0
M  V30 2430 C 234.47 2.19083 -0.807755 0
M  V30 2431 C 235.451 1.6858 0.226859 0
M  V30 2432 O 236.636 1.93997 0.0888475 0
M  V30 2433 C 233.766 3.46344 -0.257576 0
M  V30 2434 C 232.72 4.101 -1.22483 0
M  V30 2435 C 232.046 5.32016 -0.535052 0
M  V30 2436 C 233.346 4.54236 -2.57811 0
M  V30 2437 H 235.04 2.45534 -1.71328 0
M  V30 2438 H 232.586 1.1801 -0.825205 0
M  V30 2439 H 234.539 4.21392 -0.0262679 0
M  V30 2440 H 233.263 3.19373 0.683278 0
M  V30 2441 H 231.922 3.37054 -1.44189 0
M  V30 2442 H 231.57 5.01319 0.410827 0
M  V30 2443 H 231.27 5.75625 -1.18024 0
M  V30 2444 H 232.794 6.09799 -0.312695 0
M  V30 2445 H 234.208 5.20575 -2.40155 0
M  V30 2446 H 232.605 5.08682 -3.18375 0
M  V30 2447 H 233.675 3.6734 -3.16528 0
M  V30 2448 N 235.018 0.912232 1.28515 0
M  V30 2449 C 236.267 0.540504 1.94323 0
M  V30 2450 C 236.58 -0.920044 1.72611 0
M  V30 2451 O 237.786 -1.39986 2.32629 0
M  V30 2452 C 236.242 0.915803 3.48053 0
M  V30 2453 C 235.85 2.39598 3.78546 0
M  V30 2454 C 237.594 0.614588 4.20027 0
M  V30 2455 C 235.501 2.71148 5.25578 0
M  V30 2456 H 234.431 0.198418 0.727424 0
M  V30 2457 H 237.082 1.11094 1.46049 0
M  V30 2458 H 235.464 0.274168 3.9505 0
M  V30 2459 H 236.638 3.08422 3.42364 0
M  V30 2460 H 234.953 2.66749 3.1974 0
M  V30 2461 H 237.55 0.827002 5.28266 0
M  V30 2462 H 237.893 -0.447531 4.13887 0
M  V30 2463 H 238.426 1.21462 3.78803 0
M  V30 2464 H 235.165 3.76207 5.36794 0
M  V30 2465 H 234.685 2.0696 5.62963 0
M  V30 2466 H 236.364 2.58072 5.93302 0
M  V30 2467 N 236.496 -1.42363 0.676048 0
M  V30 2468 C 237.742 -2.0182 0.199125 0
M  V30 2469 C 238.075 -1.53339 -1.19168 0
M  V30 2470 O 237.35 -0.736124 -1.80032 0
M  V30 2471 C 237.633 -3.59331 0.235144 0
M  V30 2472 C 237.486 -4.17989 1.66149 0
M  V30 2473 C 238.805 -4.3813 -0.41595 0
M  V30 2474 H 235.924 -0.733293 0.0738311 0
M  V30 2475 H 238.566 -1.69368 0.86107 0
M  V30 2476 H 236.716 -3.87109 -0.328487 0
M  V30 2477 H 238.388 -4.0116 2.27747 0
M  V30 2478 H 236.631 -3.7377 2.20178 0
M  V30 2479 H 237.302 -5.27126 1.63837 0
M  V30 2480 H 239.778 -4.16051 0.0638529 0
M  V30 2481 H 238.654 -5.47717 -0.360115 0
M  V30 2482 H 238.915 -4.16101 -1.49373 0
M  V30 2483 N 237.974 -0.419461 -1.51915 0
M  V30 2484 C 238.937 0.389116 -2.25873 0
M  V30 2485 C 239.937 0.964924 -1.28631 0
M  V30 2486 O 241.127 0.842179 -1.52489 0
M  V30 2487 C 238.259 1.54874 -3.03689 0
M  V30 2488 H 239.452 -0.258799 -2.98781 0
M  V30 2489 H 237.005 -0.172209 -1.55348 0
M  V30 2490 H 237.74 2.23323 -2.35154 0
M  V30 2491 H 237.525 1.14223 -3.75094 0
M  V30 2492 H 239.015 2.12046 -3.59759 0
M  V30 2493 N 239.452 1.56882 -0.150215 0
M  V30 2494 C 240.701 1.95403 0.500071 0
M  V30 2495 C 241.014 1.03777 1.658 0
M  V30 2496 O 242.22 1.31889 2.37313 0
M  V30 2497 C 240.676 3.4738 0.941018 0
M  V30 2498 C 240.284 4.47596 -0.190158 0
M  V30 2499 C 242.028 3.9476 1.56091 0
M  V30 2500 C 239.935 5.90787 0.269237 0
M  V30 2501 H 238.865 0.729515 0.190588 0
M  V30 2502 H 241.516 1.81988 -0.235074 0
M  V30 2503 H 239.898 3.56138 1.73152 0
M  V30 2504 H 241.072 4.50536 -0.967157 0
M  V30 2505 H 239.387 4.10151 -0.718666 0
M  V30 2506 H 241.984 4.99181 1.9163 0
M  V30 2507 H 242.327 3.36494 2.45107 0
M  V30 2508 H 242.86 3.88932 0.835249 0
M  V30 2509 H 239.599 6.52879 -0.585621 0
M  V30 2510 H 239.119 5.912 1.01204 0
M  V30 2511 H 240.798 6.42979 0.720176 0
M  V30 2512 N 240.93 -0.123565 1.57115 0
M  V30 2513 C 242.341 -0.681198 1.73829 0
M  V30 2514 C 242.692 -1.80535 0.768214 0
M  V30 2515 O 241.817 -2.16317 -0.0599103 0
M  V30 2516 C 242.412 -1.24246 3.15196 0
M  V30 2517 C 240.971 -1.74643 3.33432 0
M  V30 2518 C 240.118 -0.644284 2.69711 0
M  V30 2519 H 243.069 0.102315 1.5837 0
M  V30 2520 H 243.09 -2.11216 3.16493 0
M  V30 2521 H 242.602 -0.424062 3.85776 0
M  V30 2522 H 240.703 -2.58974 2.67886 0
M  V30 2523 H 240.816 -1.85902 4.41562 0
M  V30 2524 H 239.18 -1.07676 2.3082 0
M  V30 2525 H 239.963 0.163058 3.42913 0
M  V30 2526 N 242.408 -1.52605 -0.393616 0
M  V30 2527 C 243.633 -1.71592 -1.16495 0
M  V30 2528 C 244.058 -0.43133 -1.83088 0
M  V30 2529 O 243.416 0.612523 -1.7064 0
M  V30 2530 C 243.464 -2.86318 -2.19213 0
M  V30 2531 O 242.568 -2.52969 -3.257 0
M  V30 2532 H 241.909 -0.570734 -0.33935 0
M  V30 2533 H 244.439 -1.99377 -0.459324 0
M  V30 2534 H 244.449 -3.1168 -2.63286 0
M  V30 2535 H 243.124 -3.79511 -1.7013 0
M  V30 2536 H 241.701 -2.38332 -2.86797 0
M  V30 2537 N 243.887 0.651787 -1.4349 0
M  V30 2538 C 245.115 1.43937 -1.48626 0
M  V30 2539 C 245.53 1.8851 -0.104587 0
M  V30 2540 O 244.887 1.5958 0.885464 0
M  V30 2541 C 244.938 2.6734 -2.43334 0
M  V30 2542 O 244.659 2.24631 -3.76128 0
M  V30 2543 C 246.16 3.60683 -2.57726 0
M  V30 2544 H 243.38 0.44213 -0.504739 0
M  V30 2545 H 245.924 0.798944 -1.88248 0
M  V30 2546 H 244.079 3.2752 -2.06904 0
M  V30 2547 H 244.493 3.04485 -4.2707 0
M  V30 2548 H 245.967 4.43933 -3.28067 0
M  V30 2549 H 246.444 4.08126 -1.62265 0
M  V30 2550 H 247.05 3.06384 -2.94973 0
M  V30 2551 N 245.365 1.30045 0.890287 0
M  V30 2552 C 246.776 1.16738 1.45702 0
M  V30 2553 C 247.127 -0.233939 1.948 0
M  V30 2554 O 246.252 -1.13021 1.84541 0
M  V30 2555 C 246.847 2.11313 2.64825 0
M  V30 2556 C 245.406 2.02001 3.17604 0
M  V30 2557 C 244.553 2.01699 1.90296 0
M  V30 2558 H 247.504 1.42392 0.700726 0
M  V30 2559 H 247.525 1.69086 3.40867 0
M  V30 2560 H 247.037 3.13294 2.2906 0
M  V30 2561 H 245.138 1.03142 3.5804 0
M  V30 2562 H 245.251 2.90128 3.81264 0
M  V30 2563 H 243.615 1.46427 2.08402 0
M  V30 2564 H 244.398 3.05402 1.56795 0
M  V30 2565 N 246.843 -1.10192 1.12674 0
M  V30 2566 C 248.092 -1.81573 0.8783 0
M  V30 2567 C 248.405 -1.86249 -0.597557 0
M  V30 2568 O 249.611 -2.5386 -0.962681 0
M  V30 2569 C 248.067 -3.26149 1.52167 0
M  V30 2570 C 247.675 -3.29763 3.03249 0
M  V30 2571 C 249.419 -4.0234 1.3536 0
M  V30 2572 C 247.326 -4.68815 3.60508 0
M  V30 2573 H 246.256 -0.680394 0.324931 0
M  V30 2574 H 248.907 -1.23902 1.35353 0
M  V30 2575 H 247.289 -3.83832 0.974104 0
M  V30 2576 H 248.463 -2.8189 3.6452 0
M  V30 2577 H 246.778 -2.67059 3.19481 0
M  V30 2578 H 249.375 -5.05058 1.75559 0
M  V30 2579 H 249.718 -4.15235 0.297554 0
M  V30 2580 H 250.251 -3.51079 1.87052 0
M  V30 2581 H 246.99 -4.61121 4.65884 0
M  V30 2582 H 246.51 -5.17045 3.04014 0
M  V30 2583 H 248.189 -5.37785 3.59717 0
M  V30 2584 N 248.321 -0.919034 -1.28029 0
M  V30 2585 C 249.549 -0.570971 -1.98866 0
M  V30 2586 C 249.964 0.848996 -1.68634 0
M  V30 2587 O 249.321 1.56307 -0.942036 0
M  V30 2588 C 249.372 -0.776876 -3.53054 0
M  V30 2589 O 249.093 -2.14097 -3.82222 0
M  V30 2590 C 250.594 -0.436356 -4.41147 0
M  V30 2591 H 247.814 -0.217175 -0.634883 0
M  V30 2592 H 250.358 -1.23368 -1.63097 0
M  V30 2593 H 248.513 -0.161085 -3.87065 0
M  V30 2594 H 248.927 -2.18455 -4.76841 0
M  V30 2595 H 250.401 -0.63117 -5.4838 0
M  V30 2596 H 250.878 0.627686 -4.34692 0
M  V30 2597 H 251.484 -1.02991 -4.12641 0
M  V30 2598 N 249.799 1.42003 -0.683588 0
M  V30 2599 C 250.732 2.28166 0.039592 0
M  V30 2600 C 251.71 1.41562 0.799942 0
M  V30 2601 O 252.894 1.70997 0.793248 0
M  V30 2602 C 250.021 3.21575 1.06335 0
M  V30 2603 C 249.067 4.24643 0.397562 0
M  V30 2604 S 249.9 5.2869 -0.851296 0
M  V30 2605 C 251.056 6.25666 0.171166 0
M  V30 2606 H 251.289 2.89153 -0.691229 0
M  V30 2607 H 248.822 1.46962 -0.473435 0
M  V30 2608 H 250.78 3.75928 1.6489 0
M  V30 2609 H 249.441 2.59707 1.76667 0
M  V30 2610 H 248.634 4.90223 1.17035 0
M  V30 2611 H 248.236 3.73824 -0.114611 0
M  V30 2612 H 250.528 6.69653 1.02819 0
M  V30 2613 H 251.471 7.06666 -0.450397 0
M  V30 2614 H 251.879 5.62095 0.520578 0
M  V30 2615 N 251.277 0.427512 1.51691 0
M  V30 2616 C 252.523 -0.142439 2.02299 0
M  V30 2617 C 252.856 -1.43214 1.31162 0
M  V30 2618 O 252.131 -1.89833 0.423511 0
M  V30 2619 C 252.414 -0.371301 3.58181 0
M  V30 2620 C 252.267 0.936358 4.39946 0
M  V30 2621 C 253.586 -1.14542 4.24933 0
M  V30 2622 H 250.705 -0.0502937 0.735282 0
M  V30 2623 H 253.347 0.564584 1.81418 0
M  V30 2624 H 251.497 -0.973559 3.76104 0
M  V30 2625 H 253.169 1.57184 4.33694 0
M  V30 2626 H 251.412 1.5432 4.05423 0
M  V30 2627 H 252.083 0.730388 5.47147 0
M  V30 2628 H 254.559 -0.635362 4.11221 0
M  V30 2629 H 253.435 -1.27431 5.33903 0
M  V30 2630 H 253.696 -2.17093 3.85127 0
M  V30 2631 N 252.755 -1.56801 0.158532 0
M  V30 2632 C 254.032 -1.88131 -0.535357 0
M  V30 2633 C 254.412 -1.06638 -1.82186 0
M  V30 2634 O 253.76 -0.156533 -2.27963 0
M  V30 2635 C 253.97 -3.39949 -0.789653 0
M  V30 2636 C 255.318 -4.09416 -1.12533 0
M  V30 2637 O 256.342 -3.45194 -0.878622 0
M  V30 2638 O 255.201 -5.22855 -1.59014 0
M  V30 2639 H 252.295 -0.780143 -0.27442 0
M  V30 2640 H 254.841 -1.68564 0.19601 0
M  V30 2641 H 253.613 -3.91115 0.120353 0
M  V30 2642 H 253.236 -3.65084 -1.57479 0
M  V30 2643 N 254.233 0.115231 -1.57178 0
M  V30 2644 C 255.166 1.17166 -1.95825 0
M  V30 2645 C 256.144 1.39912 -0.828463 0
M  V30 2646 O 257.328 1.54004 -1.08697 0
M  V30 2647 C 254.455 2.52478 -2.25771 0
M  V30 2648 C 253.501 2.46136 -3.48309 0
M  V30 2649 S 254.334 1.89736 -5.0076 0
M  V30 2650 C 255.49 3.26713 -5.33863 0
M  V30 2651 H 255.723 0.842103 -2.85124 0
M  V30 2652 H 253.256 0.322136 -1.51002 0
M  V30 2653 H 255.214 3.30332 -2.43702 0
M  V30 2654 H 253.875 2.82609 -1.37079 0
M  V30 2655 H 253.068 3.45819 -3.66641 0
M  V30 2656 H 252.67 1.76404 -3.29784 0
M  V30 2657 H 254.962 4.22935 -5.29275 0
M  V30 2658 H 255.905 3.13205 -6.35065 0
M  V30 2659 H 256.313 3.25316 -4.61335 0
M  V30 2660 N 255.711 1.52812 0.385517 0
M  V30 2661 C 256.936 1.72207 1.15583 0
M  V30 2662 C 257.361 0.441034 1.82857 0
M  V30 2663 O 256.719 -0.603465 1.70962 0
M  V30 2664 C 256.767 2.87476 2.17692 0
M  V30 2665 O 255.871 2.54693 3.24354 0
M  V30 2666 H 255.212 0.572526 0.336319 0
M  V30 2667 H 257.742 1.99618 0.448744 0
M  V30 2668 H 257.752 3.13072 2.6163 0
M  V30 2669 H 256.427 3.80408 1.68115 0
M  V30 2670 H 255.004 2.3985 2.85529 0
M  V30 2671 N 257.189 -0.644168 1.43834 0
M  V30 2672 C 258.122 -1.76906 1.44151 0
M  V30 2673 C 259.1 -1.59774 0.301857 0
M  V30 2674 O 260.284 -1.81834 0.496841 0
M  V30 2675 C 257.411 -3.14321 1.26174 0
M  V30 2676 C 256.457 -3.50134 2.43533 0
M  V30 2677 S 257.29 -3.49085 4.06079 0
M  V30 2678 C 258.446 -4.89142 3.90501 0
M  V30 2679 H 258.679 -1.76368 2.39336 0
M  V30 2680 H 256.212 -0.817624 1.30974 0
M  V30 2681 H 258.17 -3.93625 1.16489 0
M  V30 2682 H 256.831 -3.12412 0.325224 0
M  V30 2683 H 256.024 -4.50095 2.26783 0
M  V30 2684 H 255.626 -2.78264 2.4989 0
M  V30 2685 H 257.918 -5.78036 3.53385 0
M  V30 2686 H 258.861 -5.10945 4.90246 0
M  V30 2687 H 259.269 -4.63102 3.22795 0
M  V30 2688 N 258.668 -1.30515 -0.883378 0
M  V30 2689 C 259.893 -1.22487 -1.67367 0
M  V30 2690 C 260.318 0.208767 -1.86938 0
M  V30 2691 O 259.676 1.15015 -1.40148 0
M  V30 2692 C 259.724 -1.96041 -3.02655 0
M  V30 2693 O 258.828 -1.28859 -3.91751 0
M  V30 2694 H 258.169 -0.423573 -0.511353 0
M  V30 2695 H 260.699 -1.72362 -1.10239 0
M  V30 2696 H 260.709 -2.05124 -3.52687 0
M  V30 2697 H 259.384 -3.00307 -2.8773 0
M  V30 2698 H 257.961 -1.28141 -3.50192 0
M  V30 2699 N 260.146 1.09593 -1.13257 0
M  V30 2700 C 261.079 2.15451 -0.752061 0
M  V30 2701 C 262.057 1.60493 0.260913 0
M  V30 2702 O 263.241 1.8788 0.152819 0
M  V30 2703 C 260.368 3.38506 -0.114594 0
M  V30 2704 C 259.414 4.12183 -1.09579 0
M  V30 2705 S 260.247 4.6661 -2.62745 0
M  V30 2706 C 261.403 5.92966 -2.00354 0
M  V30 2707 H 261.636 2.47395 -1.64872 0
M  V30 2708 H 259.169 1.21515 -0.952545 0
M  V30 2709 H 261.127 4.09757 0.246808 0
M  V30 2710 H 259.788 3.04784 0.759309 0
M  V30 2711 H 258.981 5.00445 -0.597545 0
M  V30 2712 H 258.583 3.46785 -1.40057 0
M  V30 2713 H 260.875 6.63882 -1.35156 0
M  V30 2714 H 261.818 6.47467 -2.86691 0
M  V30 2715 H 262.226 5.45405 -1.4558 0
M  V30 2716 N 261.624 0.925811 1.2754 0
M  V30 2717 C 262.871 0.565255 1.94451 0
M  V30 2718 C 263.199 -0.89316 1.7278 0
M  V30 2719 O 262.454 -1.65213 1.04895 0
M  V30 2720 C 262.753 0.835296 3.47502 0
M  V30 2721 C 262.419 2.27515 3.89291 0
M  V30 2722 C 261.081 2.66879 4.00411 0
M  V30 2723 C 263.433 3.21158 4.10496 0
M  V30 2724 C 260.761 3.99014 4.30122 0
M  V30 2725 C 263.113 4.52871 4.4169 0
M  V30 2726 C 261.777 4.92072 4.51023 0
M  V30 2727 H 261.047 0.206841 0.711546 0
M  V30 2728 H 263.694 1.16942 1.51647 0
M  V30 2729 H 261.999 0.148442 3.91519 0
M  V30 2730 H 263.696 0.535322 3.97411 0
M  V30 2731 H 260.286 1.95976 3.81171 0
M  V30 2732 H 264.47 2.9195 4.01346 0
M  V30 2733 H 259.726 4.2907 4.35556 0
M  V30 2734 H 263.9 5.25436 4.57045 0
M  V30 2735 H 261.527 5.9449 4.738 0
M  V30 2736 N 263.102 -1.41638 0.69111 0
M  V30 2737 C 264.327 -2.06148 0.227583 0
M  V30 2738 C 264.752 -1.51652 -1.11281 0
M  V30 2739 O 264.11 -0.64164 -1.69566 0
M  V30 2740 C 264.158 -3.60095 0.190858 0
M  V30 2741 O 263.262 -4.03845 -0.835664 0
M  V30 2742 H 262.603 -0.654434 0.112306 0
M  V30 2743 H 265.133 -1.81484 0.944714 0
M  V30 2744 H 265.143 -4.07995 0.020207 0
M  V30 2745 H 263.818 -3.99129 1.16915 0
M  V30 2746 H 262.395 -3.67458 -0.63473 0
M  V30 2747 N 264.58 -0.43555 -1.51462 0
M  V30 2748 C 265.81 0.130053 -2.0619 0
M  V30 2749 C 266.218 1.37164 -1.30317 0
M  V30 2750 O 265.561 1.80225 -0.355598 0
M  V30 2751 C 265.623 0.519418 -3.55728 0
M  V30 2752 C 265.287 -0.615119 -4.52841 0
M  V30 2753 C 266.284 -1.48671 -4.9819 0
M  V30 2754 C 263.969 -0.795341 -4.95963 0
M  V30 2755 C 265.963 -2.52324 -5.8533 0
M  V30 2756 C 263.65 -1.83514 -5.82894 0
M  V30 2757 C 264.648 -2.69748 -6.27475 0
M  V30 2758 O 264.336 -3.71944 -7.1268 0
M  V30 2759 H 264.068 0.0121612 -0.675891 0
M  V30 2760 H 266.622 -0.6129 -1.96043 0
M  V30 2761 H 264.852 1.31505 -3.63653 0
M  V30 2762 H 266.541 1.01597 -3.92979 0
M  V30 2763 H 267.307 -1.359 -4.65571 0
M  V30 2764 H 263.186 -0.133713 -4.60806 0
M  V30 2765 H 266.73 -3.19665 -6.20048 0
M  V30 2766 H 262.627 -1.96306 -6.14926 0
M  V30 2767 H 263.395 -3.68503 -7.30854 0
M  V30 2768 N 266.058 1.56714 -0.166846 0
M  V30 2769 C 267.306 1.96358 0.478305 0
M  V30 2770 C 267.627 1.0537 1.6408 0
M  V30 2771 O 266.897 0.119154 1.95537 0
M  V30 2772 H 265.477 0.725065 0.179692 0
M  V30 2773 H 268.139 1.93329 -0.246985 0
M  V30 2774 H 267.235 3.00547 0.841292 0
M  V30 2775 N 267.536 -0.106894 1.57237 0
M  V30 2776 C 268.469 -1.16125 1.96444 0
M  V30 2777 C 269.447 -1.3947 0.835871 0
M  V30 2778 O 270.631 -1.53425 1.09513 0
M  V30 2779 C 267.758 -2.51277 2.27107 0
M  V30 2780 C 266.804 -2.44285 3.4961 0
M  V30 2781 S 267.637 -1.87077 5.01759 0
M  V30 2782 C 268.793 -3.23877 5.35588 0
M  V30 2783 H 269.026 -0.826971 2.85567 0
M  V30 2784 H 266.559 -0.314124 1.51171 0
M  V30 2785 H 268.517 -3.29035 2.45451 0
M  V30 2786 H 267.178 -2.81879 1.38576 0
M  V30 2787 H 266.371 -3.4387 3.68469 0
M  V30 2788 H 265.973 -1.74652 3.30715 0
M  V30 2789 H 268.265 -4.20122 5.31511 0
M  V30 2790 H 269.208 -3.09833 6.36717 0
M  V30 2791 H 269.616 -3.22864 4.63054 0
M  V30 2792 N 269.014 -1.53014 -0.377408 0
M  V30 2793 C 269.944 -1.81589 -1.46791 0
M  V30 2794 C 270.925 -0.668622 -1.56408 0
M  V30 2795 O 272.11 -0.917337 -1.71168 0
M  V30 2796 C 269.24 -1.99519 -2.8427 0
M  V30 2797 C 268.194 -3.15249 -2.89486 0
M  V30 2798 C 267.52 -3.18451 -4.29527 0
M  V30 2799 C 268.82 -4.54084 -2.58079 0
M  V30 2800 H 270.514 -2.7291 -1.23127 0
M  V30 2801 H 268.06 -1.31319 -0.590883 0
M  V30 2802 H 270.013 -2.18092 -3.60575 0
M  V30 2803 H 268.737 -1.04897 -3.09296 0
M  V30 2804 H 267.396 -2.96477 -2.15631 0
M  V30 2805 H 267.044 -2.2149 -4.5161 0
M  V30 2806 H 266.744 -3.962 -4.33934 0
M  V30 2807 H 268.268 -3.39193 -5.07721 0
M  V30 2808 H 269.682 -4.72899 -3.24098 0
M  V30 2809 H 268.079 -5.33987 -2.7382 0
M  V30 2810 H 269.149 -4.60006 -1.53372 0
M  V30 2811 N 270.492 0.636531 -1.44174 0
M  V30 2812 C 271.402 1.77754 -1.53103 0
M  V30 2813 C 272.418 1.68928 -0.417034 0
M  V30 2814 O 273.594 1.89801 -0.6736 0
M  V30 2815 C 270.659 3.14115 -1.46741 0
M  V30 2816 C 269.72 3.34612 -2.68948 0
M  V30 2817 C 268.953 4.64467 -2.6288 0
M  V30 2818 O 269.176 5.44919 -1.68581 0
M  V30 2819 O 268.11 4.87049 -3.53648 0
M  V30 2820 H 271.936 1.73174 -2.49489 0
M  V30 2821 H 269.521 0.79709 -1.2636 0
M  V30 2822 H 271.403 3.95412 -1.45696 0
M  V30 2823 H 270.078 3.19249 -0.534975 0
M  V30 2824 H 268.985 2.53014 -2.75562 0
M  V30 2825 H 270.318 3.34336 -3.61221 0
M  V30 2826 N 271.97 1.30982 0.876444 0
M  V30 2827 C 273.216 1.20474 1.63138 0
M  V30 2828 C 273.549 -0.238096 1.92735 0
M  V30 2829 O 272.824 -1.1692 1.55435 0
M  V30 2830 C 273.107 2.04244 2.96574 0
M  V30 2831 C 272.96 3.56793 2.73896 0
M  V30 2832 C 274.279 1.88684 3.97601 0
M  V30 2833 H 271.398 0.439001 0.591985 0
M  V30 2834 H 274.04 1.60704 1.01361 0
M  V30 2835 H 272.19 1.70063 3.493 0
M  V30 2836 H 273.862 4.01077 2.27892 0
M  V30 2837 H 272.105 3.80548 2.08245 0
M  V30 2838 H 272.776 4.10706 3.68815 0
M  V30 2839 H 275.252 2.18584 3.54062 0
M  V30 2840 H 274.128 2.4961 4.88862 0
M  V30 2841 H 274.389 0.848343 4.33884 0
M  V30 2842 N 273.449 -1.08991 1.13837 0
M  V30 2843 C 274.397 -2.17841 0.815347 0
M  V30 2844 C 275.391 -1.68164 -0.204233 0
M  V30 2845 O 276.597 -1.79897 -0.0609304 0
M  V30 2846 H 272.972 -0.710654 0.245915 0
M  V30 2847 H 274.943 -2.42315 1.74143 0
M  V30 2848 C 273.692 -3.46381 0.302614 0
M  V30 2849 H 273.015 -3.84979 1.0785 0
M  V30 2850 H 274.455 -4.23844 0.115074 0
M  V30 2851 C 272.914 -3.22556 -0.972591 0
M  V30 2852 O 273.444 -3.45599 -2.04754 0
M  V30 2853 N 271.65 -2.76134 -0.905455 0
M  V30 2854 H 271.197 -2.57582 -0.0305421 0
M  V30 2855 H 271.155 -2.60571 -1.75926 0
M  V30 2856 N 274.927 -0.932562 -1.27047 0
M  V30 2857 C 276.343 -0.633544 -1.46487 0
M  V30 2858 C 276.543 0.815746 -1.84249 0
M  V30 2859 O 275.599 1.59319 -1.95892 0
M  V30 2860 C 276.912 -1.58758 -2.55375 0
M  V30 2861 C 278.46 -1.59634 -2.69232 0
M  V30 2862 C 278.935 -2.53747 -3.81283 0
M  V30 2863 N 280.426 -2.51982 -3.88664 0
M  V30 2864 C 281.161 -3.21491 -4.74796 0
M  V30 2865 N 280.657 -4.00395 -5.65381 0
M  V30 2866 N 282.45 -3.10485 -4.68568 0
M  V30 2867 H 274.601 -1.86946 -1.00821 0
M  V30 2868 H 276.864 -0.802897 -0.504044 0
M  V30 2869 H 276.57 -2.62172 -2.34432 0
M  V30 2870 H 276.444 -1.33301 -3.52861 0
M  V30 2871 H 278.831 -0.569488 -2.89553 0
M  V30 2872 H 278.912 -1.89142 -1.72218 0
M  V30 2873 H 278.556 -3.56545 -3.61715 0
M  V30 2874 H 278.486 -2.21532 -4.77735 0
M  V30 2875 H 280.977 -1.94681 -3.23895 0
M  V30 2876 H 281.29 -4.50406 -6.27976 0
M  V30 2877 H 279.635 -4.04498 -5.65161 0
M  V30 2878 H 282.826 -2.48331 -3.96799 0
M  V30 2879 H 282.999 -3.64925 -5.35475 0
M  V30 2880 N 276.405 1.4127 -0.698611 0
M  V30 2881 C 277.335 2.33447 -0.049629 0
M  V30 2882 C 278.316 1.51982 0.763898 0
M  V30 2883 O 279.501 1.80509 0.716257 0
M  V30 2884 C 276.631 3.35828 0.885267 0
M  V30 2885 C 275.585 4.27627 0.178613 0
M  V30 2886 C 274.911 5.20406 1.22807 0
M  V30 2887 C 276.211 5.13459 -0.956933 0
M  V30 2888 H 277.905 2.87966 -0.81951 0
M  V30 2889 H 275.451 1.38461 -0.395538 0
M  V30 2890 H 277.404 3.9924 1.34854 0
M  V30 2891 H 276.128 2.79666 1.68685 0
M  V30 2892 H 274.787 3.65643 -0.26466 0
M  V30 2893 H 274.435 4.60558 2.02226 0
M  V30 2894 H 274.135 5.82661 0.760239 0
M  V30 2895 H 275.659 5.86695 1.69179 0
M  V30 2896 H 277.073 5.70421 -0.573805 0
M  V30 2897 H 275.47 5.8467 -1.35205 0
M  V30 2898 H 276.54 4.50443 -1.79524 0
M  V30 2899 N 277.883 0.443576 1.51229 0
M  V30 2900 C 278.846 -0.353132 2.26463 0
M  V30 2901 C 279.846 -0.944338 1.3015 0
M  V30 2902 O 281.036 -0.817813 1.5381 0
M  V30 2903 C 278.168 -1.50023 3.06114 0
M  V30 2904 H 279.361 0.3063 2.98332 0
M  V30 2905 H 276.914 0.196902 1.55055 0
M  V30 2906 H 277.649 -2.19553 2.38677 0
M  V30 2907 H 277.434 -1.08241 3.76864 0
M  V30 2908 H 278.924 -2.06296 3.63087 0
M  V30 2909 N 279.361 -1.56624 0.175154 0
M  V30 2910 C 280.609 -1.96609 -0.467885 0
M  V30 2911 C 280.93 -1.06238 -1.63519 0
M  V30 2912 O 280.2 -0.129523 -1.95471 0
M  V30 2913 H 278.78 -0.726008 -0.175845 0
M  V30 2914 H 281.442 -1.93195 0.257234 0
M  V30 2915 H 280.538 -3.00989 -0.825342 0
M  V30 2916 N 280.839 0.0985539 -1.57292 0
M  V30 2917 C 282.255 0.45267 -1.53046 0
M  V30 2918 C 282.455 1.80713 -0.891342 0
M  V30 2919 O 281.511 2.4785 -0.482375 0
M  V30 2920 C 282.824 0.418341 -2.97776 0
M  V30 2921 C 284.372 0.500443 -3.08973 0
M  V30 2922 C 284.847 0.496297 -4.55303 0
M  V30 2923 N 286.338 0.557151 -4.59837 0
M  V30 2924 C 287.073 0.575726 -5.70502 0
M  V30 2925 N 286.569 0.550714 -6.90608 0
M  V30 2926 N 288.362 0.620277 -5.58667 0
M  V30 2927 H 280.513 -0.788673 -1.97215 0
M  V30 2928 H 282.776 -0.293188 -0.901524 0
M  V30 2929 H 282.482 -0.509659 -3.47988 0
M  V30 2930 H 282.356 1.2386 -3.56284 0
M  V30 2931 H 284.743 1.41886 -2.58751 0
M  V30 2932 H 284.824 -0.347894 -2.53423 0
M  V30 2933 H 284.468 -0.418162 -5.06176 0
M  V30 2934 H 284.398 1.3618 -5.08687 0
M  V30 2935 H 286.889 0.581816 -3.73394 0
M  V30 2936 H 287.202 0.568075 -7.70709 0
M  V30 2937 H 285.547 0.517816 -6.93068 0
M  V30 2938 H 288.738 0.637322 -4.63741 0
M  V30 2939 H 288.911 0.631283 -6.44918 0
M  V30 2940 N 282.317 1.53212 0.369288 0
M  V30 2941 C 283.249 1.75668 1.47219 0
M  V30 2942 C 284.262 0.637387 1.49804 0
M  V30 2943 O 285.451 0.913561 1.5335 0
M  V30 2944 C 282.551 1.81818 2.85999 0
M  V30 2945 C 281.724 3.11409 3.07153 0
M  V30 2946 C 280.783 3.08849 4.26026 0
M  V30 2947 O 279.809 3.82659 4.2138 0
M  V30 2948 N 281.011 2.29409 5.33246 0
M  V30 2949 H 283.776 2.70832 1.28337 0
M  V30 2950 H 281.337 1.51944 0.55898 0
M  V30 2951 H 283.329 1.77588 3.63655 0
M  V30 2952 H 281.899 0.939544 2.98146 0
M  V30 2953 H 281.119 3.28971 2.1719 0
M  V30 2954 H 282.407 3.97059 3.18154 0
M  V30 2955 H 281.805 1.68946 5.39883 0
M  V30 2956 H 280.362 2.31001 6.09493 0
M  V30 2957 N 283.795 -0.628877 1.44509 0
M  V30 2958 C 284.725 -1.75187 1.54376 0
M  V30 2959 C 285.706 -1.65411 0.396618 0
M  V30 2960 O 286.891 -1.84137 0.617031 0
M  V30 2961 C 284.021 -3.13725 1.48976 0
M  V30 2962 C 282.975 -3.38291 2.62189 0
M  V30 2963 C 282.301 -4.76883 2.41841 0
M  V30 2964 C 283.601 -3.30632 4.04326 0
M  V30 2965 H 285.295 -1.67187 2.48373 0
M  V30 2966 H 282.841 -0.802909 1.19538 0
M  V30 2967 H 284.794 -3.92064 1.54478 0
M  V30 2968 H 283.518 -3.22515 0.514961 0
M  V30 2969 H 282.177 -2.62334 2.56079 0
M  V30 2970 H 281.825 -4.82378 1.42548 0
M  V30 2971 H 281.525 -4.94278 3.17747 0
M  V30 2972 H 283.049 -5.57449 2.49165 0
M  V30 2973 H 284.463 -3.98873 4.11793 0
M  V30 2974 H 282.86 -3.59561 4.80454 0
M  V30 2975 H 283.93 -2.28404 4.27738 0
M  V30 2976 N 285.273 -1.31445 -0.869486 0
M  V30 2977 C 286.684 -1.19042 -1.43826 0
M  V30 2978 C 287.035 0.202919 -1.95148 0
M  V30 2979 O 286.16 1.10071 -1.86315 0
M  V30 2980 C 286.755 -2.15499 -2.6143 0
M  V30 2981 C 285.314 -2.07028 -3.14351 0
M  V30 2982 C 284.461 -2.04701 -1.87063 0
M  V30 2983 H 287.412 -1.43489 -0.677984 0
M  V30 2984 H 287.433 -1.74488 -3.38134 0
M  V30 2985 H 286.945 -3.16899 -2.24046 0
M  V30 2986 H 285.046 -1.08825 -3.56354 0
M  V30 2987 H 285.159 -2.96157 -3.766 0
M  V30 2988 H 283.523 -1.49724 -2.06046 0
M  V30 2989 H 284.306 -3.07857 -1.51917 0
M  V30 2990 N 286.751 1.08385 -1.14413 0
M  V30 2991 C 287.997 1.81044 -0.913834 0
M  V30 2992 C 288.33 1.86004 0.558209 0
M  V30 2993 O 287.605 1.33606 1.4135 0
M  V30 2994 C 287.888 3.26648 -1.51569 0
M  V30 2995 C 287.741 3.29895 -3.0576 0
M  V30 2996 C 289.06 4.23629 -1.19273 0
M  V30 2997 H 286.179 0.65727 -0.333414 0
M  V30 2998 H 288.821 1.26896 -1.41412 0
M  V30 2999 H 286.971 3.72889 -1.09023 0
M  V30 3000 H 288.643 2.91977 -3.57137 0
M  V30 3001 H 286.886 2.69163 -3.40197 0
M  V30 3002 H 287.557 4.32516 -3.42977 0
M  V30 3003 H 290.033 3.85727 -1.56057 0
M  V30 3004 H 288.909 5.23822 -1.64017 0
M  V30 3005 H 289.17 4.41968 -0.108068 0
M  V30 3006 N 288.23 0.939286 1.26551 0
M  V30 3007 C 289.507 0.5038 1.89001 0
M  V30 3008 C 289.887 -1.01854 1.84903 0
M  V30 3009 O 289.235 -1.87773 1.30206 0
M  V30 3010 C 289.445 1.063 3.32417 0
M  V30 3011 C 290.793 1.13051 4.09273 0
M  V30 3012 O 291.817 1.01345 3.41479 0
M  V30 3013 O 290.676 1.31233 5.30509 0
M  V30 3014 H 287.77 0.163897 0.810597 0
M  V30 3015 H 290.316 1.03173 1.34735 0
M  V30 3016 H 289.088 2.10665 3.29752 0
M  V30 3017 H 288.711 0.517408 3.94219 0
M  V30 3018 N 289.708 -1.40897 0.706093 0
M  V30 3019 C 290.956 -2.00657 0.241054 0
M  V30 3020 C 291.277 -1.56241 -1.16678 0
M  V30 3021 O 290.547 -0.79765 -1.78926 0
M  V30 3022 H 289.127 -0.742018 0.0861308 0
M  V30 3023 H 291.789 -1.72372 0.909604 0
M  V30 3024 H 290.885 -3.10958 0.266705 0
M  V30 3025 N 291.186 -0.45159 -1.50991 0
M  V30 3026 C 292.434 0.109857 -2.01801 0
M  V30 3027 C 292.755 1.41958 -1.3369 0
M  V30 3028 O 292.025 1.9003 -0.475951 0
M  V30 3029 H 290.605 0.0435884 -0.745727 0
M  V30 3030 H 293.267 -0.597557 -1.85514 0
M  V30 3031 H 292.363 0.275489 -3.10882 0
M  V30 3032 N 292.664 1.56529 -0.183458 0
M  V30 3033 C 293.911 1.97244 0.458357 0
M  V30 3034 C 294.239 1.06992 1.62428 0
M  V30 3035 O 293.494 0.106542 1.9541 0
M  V30 3036 C 293.793 3.43939 0.971637 0
M  V30 3037 C 293.459 4.5083 -0.0796784 0
M  V30 3038 C 292.121 4.79786 -0.368584 0
M  V30 3039 C 294.473 5.15138 -0.792638 0
M  V30 3040 C 291.801 5.70345 -1.37563 0
M  V30 3041 C 294.153 6.06784 -1.78875 0
M  V30 3042 C 292.817 6.34102 -2.08497 0
M  V30 3043 H 292.087 0.721768 0.167725 0
M  V30 3044 H 294.734 1.89472 -0.277976 0
M  V30 3045 H 293.039 3.48724 1.78602 0
M  V30 3046 H 294.736 3.72791 1.47744 0
M  V30 3047 H 291.326 4.28317 0.155668 0
M  V30 3048 H 295.51 4.92868 -0.582659 0
M  V30 3049 H 290.766 5.89789 -1.61118 0
M  V30 3050 H 294.94 6.55677 -2.3465 0
M  V30 3051 H 292.567 7.04074 -2.86678 0
M  V30 3052 N 294.142 -0.090211 1.57342 0
M  V30 3053 C 295.419 -0.824761 1.77361 0
M  V30 3054 C 295.799 -1.96698 0.76637 0
M  V30 3055 O 295.147 -2.27586 -0.204179 0
M  V30 3056 C 295.357 -1.31481 3.23286 0
M  V30 3057 C 296.705 -1.75563 3.86604 0
M  V30 3058 O 297.729 -1.41093 3.27065 0
M  V30 3059 O 296.588 -2.39317 4.91314 0
M  V30 3060 H 293.682 -0.393776 0.727234 0
M  V30 3061 H 296.228 -0.0717138 1.69548 0
M  V30 3062 H 295 -0.496671 3.88135 0
M  V30 3063 H 294.623 -2.12973 3.35751 0
M  V30 3064 N 295.62 -1.53406 -0.361157 0
M  V30 3065 C 296.897 -1.60411 -1.11927 0
M  V30 3066 C 297.277 -0.414385 -2.06993 0
M  V30 3067 O 296.625 0.594976 -2.20618 0
M  V30 3068 C 296.835 -2.95652 -1.85448 0
M  V30 3069 C 298.183 -3.50386 -2.39823 0
M  V30 3070 O 299.207 -2.97711 -1.95568 0
M  V30 3071 O 298.066 -4.42482 -3.20737 0
M  V30 3072 H 295.16 -0.64811 -0.513695 0
M  V30 3073 H 297.706 -1.65749 -0.364065 0
M  V30 3074 H 296.478 -3.73682 -1.16091 0
M  V30 3075 H 296.101 -2.93825 -2.67866 0
M  V30 3076 N 297.098 0.621204 -1.44841 0
M  V30 3077 C 298.008 1.7612 -1.5498 0
M  V30 3078 C 299.024 1.68477 -0.434927 0
M  V30 3079 O 300.2 1.89076 -0.693693 0
M  V30 3080 C 297.265 3.1254 -1.50065 0
M  V30 3081 C 296.326 3.31741 -2.72482 0
M  V30 3082 C 295.559 4.61653 -2.67792 0
M  V30 3083 O 295.782 5.431 -1.74352 0
M  V30 3084 O 294.716 4.83271 -3.58794 0
M  V30 3085 H 298.542 1.70518 -2.51311 0
M  V30 3086 H 296.127 0.783643 -1.27198 0
M  V30 3087 H 298.009 3.93844 -1.49882 0
M  V30 3088 H 296.684 3.18663 -0.568806 0
M  V30 3089 H 295.591 2.50077 -2.7823 0
M  V30 3090 H 296.924 3.30486 -3.64746 0
M  V30 3091 N 298.576 1.31904 0.862503 0
M  V30 3092 C 299.824 1.21776 1.61292 0
M  V30 3093 C 300.145 -0.222413 1.93727 0
M  V30 3094 O 299.415 -1.1451 1.58947 0
M  V30 3095 H 297.995 0.447717 0.597962 0
M  V30 3096 H 300.657 1.65326 1.03215 0
M  V30 3097 H 299.753 1.7948 2.5533 0
M  V30 3098 N 300.054 -1.07777 1.14986 0
M  V30 3099 C 301.002 -2.16964 0.838406 0
M  V30 3100 C 301.996 -1.68372 -0.186386 0
M  V30 3101 O 303.202 -1.79951 -0.0418465 0
M  V30 3102 H 299.577 -0.708006 0.253439 0
M  V30 3103 H 301.548 -2.40454 1.76704 0
M  V30 3104 C 300.297 -3.4604 0.339335 0
M  V30 3105 H 299.62 -3.83813 1.11927 0
M  V30 3106 H 301.06 -4.23698 0.160021 0
M  V30 3107 C 299.519 -3.23569 -0.938325 0
M  V30 3108 O 300.049 -3.47752 -2.01077 0
M  V30 3109 N 298.255 -2.77079 -0.876117 0
M  V30 3110 H 297.802 -2.576 -0.00322037 0
M  V30 3111 H 297.76 -2.62422 -1.73153 0
M  V30 3112 N 301.532 -0.945985 -1.26051 0
M  V30 3113 C 302.462 -0.477172 -2.28572 0
M  V30 3114 C 303.443 0.472032 -1.63419 0
M  V30 3115 O 304.628 0.372853 -1.90587 0
M  V30 3116 C 301.758 0.253975 -3.4637 0
M  V30 3117 C 300.712 -0.609135 -4.23643 0
M  V30 3118 C 300.038 0.252252 -5.34105 0
M  V30 3119 C 301.338 -1.8829 -4.8718 0
M  V30 3120 H 303.032 -1.33402 -2.68038 0
M  V30 3121 H 300.578 -0.642904 -1.28852 0
M  V30 3122 H 302.531 0.593016 -4.17207 0
M  V30 3123 H 301.255 1.145 -3.05871 0
M  V30 3124 H 299.914 -0.931138 -3.54578 0
M  V30 3125 H 299.562 1.14278 -4.89846 0
M  V30 3126 H 299.262 -0.32188 -5.86718 0
M  V30 3127 H 300.786 0.586454 -6.07777 0
M  V30 3128 H 302.2 -1.61081 -5.50205 0
M  V30 3129 H 300.597 -2.40199 -5.49931 0
M  V30 3130 H 301.667 -2.59134 -4.09851 0
M  V30 3131 N 303.011 1.40521 -0.713556 0
M  V30 3132 C 304.239 2.05237 -0.261775 0
M  V30 3133 C 304.654 1.53755 1.09567 0
M  V30 3134 O 304.011 0.693268 1.6882 0
M  V30 3135 C 304.062 3.60763 -0.230706 0
M  V30 3136 O 303.783 4.10345 -1.53455 0
M  V30 3137 C 305.284 4.42651 0.239874 0
M  V30 3138 H 302.504 0.660533 -0.118057 0
M  V30 3139 H 305.048 1.79967 -0.971192 0
M  V30 3140 H 303.203 3.8501 0.429661 0
M  V30 3141 H 303.617 5.04526 -1.43366 0
M  V30 3142 H 305.091 5.51599 0.210468 0
M  V30 3143 H 305.568 4.20082 1.28171 0
M  V30 3144 H 306.174 4.23507 -0.390142 0
M  V30 3145 N 304.489 0.459591 1.5075 0
M  V30 3146 C 305.436 -0.340524 2.28274 0
M  V30 3147 C 306.406 -0.997371 1.32822 0
M  V30 3148 O 307.591 -1.01202 1.61749 0
M  V30 3149 C 304.731 -1.42317 3.14388 0
M  V30 3150 C 303.844 -0.782251 4.24859 0
M  V30 3151 C 302.979 -1.84182 4.98247 0
M  V30 3152 C 302.018 -1.18053 6.00608 0
M  V30 3153 N 301.155 -2.18244 6.67319 0
M  V30 3154 H 305.995 0.326899 2.96202 0
M  V30 3155 H 303.532 0.173057 1.46078 0
M  V30 3156 H 305.49 -2.06241 3.62658 0
M  V30 3157 H 304.12 -2.05992 2.4853 0
M  V30 3158 H 303.172 -0.0307404 3.80388 0
M  V30 3159 H 304.484 -0.259663 4.98124 0
M  V30 3160 H 303.638 -2.55714 5.50177 0
M  V30 3161 H 302.377 -2.39819 4.24662 0
M  V30 3162 H 301.382 -0.450776 5.47949 0
M  V30 3163 H 302.607 -0.631202 6.7616 0
M  V30 3164 H 300.553 -2.72919 5.96533 0
M  V30 3165 H 300.47 -1.70938 7.36421 0
M  V30 3166 H 301.738 -2.89191 7.23871 0
M  V30 3167 N 305.967 -1.56429 0.191757 0
M  V30 3168 C 306.877 -2.22541 -0.742481 0
M  V30 3169 C 307.893 -1.22342 -1.23727 0
M  V30 3170 O 309.069 -1.55069 -1.28513 0
M  V30 3171 C 306.134 -2.8692 -1.94623 0
M  V30 3172 C 305.195 -4.02378 -1.49633 0
M  V30 3173 C 304.428 -4.63678 -2.6427 0
M  V30 3174 O 304.651 -4.23895 -3.81666 0
M  V30 3175 O 303.585 -5.53202 -2.37174 0
M  V30 3176 H 307.411 -3.02977 -0.209462 0
M  V30 3177 H 304.996 -1.49353 -0.0373832 0
M  V30 3178 H 306.878 -3.27663 -2.64982 0
M  V30 3179 H 305.553 -2.09466 -2.46791 0
M  V30 3180 H 304.46 -3.66265 -0.761636 0
M  V30 3181 H 305.793 -4.81487 -1.02134 0
M  V30 3182 N 307.445 0.0818655 -1.57387 0
M  V30 3183 C 308.856 0.634871 -1.75574 0
M  V30 3184 C 309.207 1.78435 -0.815809 0
M  V30 3185 O 308.332 2.164 0.0025366 0
M  V30 3186 C 308.927 1.15845 -3.18379 0
M  V30 3187 C 307.486 1.65741 -3.37945 0
M  V30 3188 C 306.633 0.572549 -2.71325 0
M  V30 3189 H 309.584 -0.144268 -1.58043 0
M  V30 3190 H 309.605 2.02751 -3.21982 0
M  V30 3191 H 309.117 0.321631 -3.86765 0
M  V30 3192 H 307.218 2.51781 -2.74658 0
M  V30 3193 H 307.331 1.74129 -4.46336 0
M  V30 3194 H 305.695 1.01518 -2.33594 0
M  V30 3195 H 306.478 -0.253918 -3.4236 0
M  V30 3196 N 308.923 1.53595 0.353017 0
M  V30 3197 C 310.171 1.70049 1.09215 0
M  V30 3198 C 310.492 0.461406 1.89463 0
M  V30 3199 O 309.762 -0.524633 1.88744 0
M  V30 3200 H 308.342 0.626912 0.40619 0
M  V30 3201 H 311.004 1.90822 0.396585 0
M  V30 3202 H 310.1 2.56718 1.77488 0
M  V30 3203 N 310.401 -0.613514 1.45168 0
M  V30 3204 C 311.647 -1.37471 1.49096 0
M  V30 3205 C 311.98 -1.93765 0.129901 0
M  V30 3206 O 311.255 -1.74707 -0.854858 0
M  V30 3207 C 311.538 -2.52701 2.56542 0
M  V30 3208 C 311.391 -2.01643 4.0207 0
M  V30 3209 C 312.71 -3.54849 2.60327 0
M  V30 3210 H 309.829 -0.498502 0.54283 0
M  V30 3211 H 312.471 -0.692125 1.76945 0
M  V30 3212 H 310.621 -3.10931 2.32926 0
M  V30 3213 H 312.293 -1.48108 4.36877 0
M  V30 3214 H 310.536 -1.32688 4.13009 0
M  V30 3215 H 311.207 -2.84681 4.72928 0
M  V30 3216 H 313.683 -3.0645 2.81474 0
M  V30 3217 H 312.559 -4.32973 3.37381 0
M  V30 3218 H 312.82 -4.10079 1.6519 0
M  V30 3219 N 311.879 -1.3236 -0.855495 0
M  V30 3220 C 313.128 -1.22226 -1.60448 0
M  V30 3221 C 313.441 0.214733 -1.94418 0
M  V30 3222 O 314.647 0.437917 -2.67945 0
M  V30 3223 C 313.103 -2.14063 -2.89318 0
M  V30 3224 C 312.711 -3.62839 -2.62777 0
M  V30 3225 C 314.455 -2.12764 -3.67331 0
M  V30 3226 C 312.362 -4.4664 -3.87643 0
M  V30 3227 H 311.292 -0.453904 -0.602069 0
M  V30 3228 H 313.943 -1.57314 -0.944698 0
M  V30 3229 H 312.325 -1.71889 -3.5675 0
M  V30 3230 H 313.499 -4.1335 -2.03662 0
M  V30 3231 H 311.814 -3.66261 -1.98096 0
M  V30 3232 H 314.411 -2.72611 -4.59987 0
M  V30 3233 H 314.754 -1.11841 -4.00995 0
M  V30 3234 H 315.287 -2.53214 -3.06802 0
M  V30 3235 H 312.026 -5.48373 -3.5912 0
M  V30 3236 H 311.546 -4.0088 -4.46156 0
M  V30 3237 H 313.225 -4.59597 -4.55389 0
M  V30 3238 N 313.357 1.07166 -1.15556 0
M  V30 3239 C 314.267 2.17947 -0.868116 0
M  V30 3240 C 315.283 1.73297 0.156297 0
M  V30 3241 O 316.459 2.01392 -0.0182327 0
M  V30 3242 C 313.524 3.44789 -0.36355 0
M  V30 3243 C 312.585 4.03996 -1.45209 0
M  V30 3244 C 311.818 5.24783 -0.971508 0
M  V30 3245 O 312.041 5.70109 0.182194 0
M  V30 3246 O 310.975 5.75715 -1.75603 0
M  V30 3247 H 314.801 2.4503 -1.79427 0
M  V30 3248 H 312.386 1.16539 -0.934824 0
M  V30 3249 H 314.268 4.21307 -0.0887113 0
M  V30 3250 H 312.943 3.19253 0.534708 0
M  V30 3251 H 311.85 3.29009 -1.78056 0
M  V30 3252 H 313.183 4.33808 -2.32533 0
M  V30 3253 N 314.835 0.952656 1.25548 0
M  V30 3254 C 315.782 0.47008 2.25962 0
M  V30 3255 C 316.752 -0.476384 1.59122 0
M  V30 3256 O 317.937 -0.39007 1.8677 0
M  V30 3257 C 315.077 -0.247881 3.44209 0
M  V30 3258 C 314.19 0.735591 4.25691 0
M  V30 3259 C 313.325 -0.0047306 5.312 0
M  V30 3260 C 312.364 0.969805 6.04368 0
M  V30 3261 N 311.501 0.260486 7.01617 0
M  V30 3262 H 316.341 1.33126 2.66611 0
M  V30 3263 H 313.878 0.66765 1.31076 0
M  V30 3264 H 315.836 -0.680695 4.1161 0
M  V30 3265 H 314.466 -1.07312 3.0444 0
M  V30 3266 H 313.518 1.28689 3.57971 0
M  V30 3267 H 314.83 1.47934 4.76358 0
M  V30 3268 H 313.984 -0.496275 6.04667 0
M  V30 3269 H 312.723 -0.781282 4.81401 0
M  V30 3270 H 311.728 1.47237 5.29718 0
M  V30 3271 H 312.953 1.74655 6.56256 0
M  V30 3272 H 310.899 -0.497364 6.54112 0
M  V30 3273 H 310.816 0.943362 7.50091 0
M  V30 3274 H 312.084 -0.209587 7.79218 0
M  V30 3275 N 316.313 -1.40141 0.720998 0
M  V30 3276 C 317.261 -2.3252 0.0608547 0
M  V30 3277 C 318.255 -1.52326 -0.741152 0
M  V30 3278 O 319.461 -1.68089 -0.643911 0
M  V30 3279 H 315.836 -0.751999 0.000876664 0
M  V30 3280 H 317.807 -2.8584 0.856614 0
M  V30 3281 C 316.556 -3.37331 -0.842809 0
M  V30 3282 H 315.879 -3.99108 -0.235084 0
M  V30 3283 H 317.319 -4.04452 -1.27257 0
M  V30 3284 C 315.778 -2.73246 -1.97074 0
M  V30 3285 O 316.308 -2.59998 -3.06209 0
M  V30 3286 N 314.514 -2.31547 -1.75597 0
M  V30 3287 H 314.061 -2.42522 -0.868368 0
M  V30 3288 H 314.019 -1.89007 -2.51244 0
M  V30 3289 N 317.792 -0.46758 -1.50504 0
M  V30 3290 C 319.208 -0.121533 -1.59137 0
M  V30 3291 C 319.408 1.3717 -1.47603 0
M  V30 3292 O 318.464 2.14464 -1.33272 0
M  V30 3293 C 319.777 -0.6686 -2.93173 0
M  V30 3294 C 321.325 -0.631716 -3.06559 0
M  V30 3295 C 321.8 -1.15627 -4.43164 0
M  V30 3296 N 323.291 -1.11553 -4.49567 0
M  V30 3297 C 324.026 -1.49195 -5.5365 0
M  V30 3298 N 323.522 -1.94269 -6.65005 0
M  V30 3299 N 325.315 -1.4082 -5.44175 0
M  V30 3300 H 317.466 -1.4388 -1.56245 0
M  V30 3301 H 319.729 -0.594784 -0.738198 0
M  V30 3302 H 319.435 -1.71453 -3.07078 0
M  V30 3303 H 319.309 -0.11021 -3.77039 0
M  V30 3304 H 321.696 0.405297 -2.92304 0
M  V30 3305 H 321.777 -1.22687 -2.24458 0
M  V30 3306 H 321.421 -2.1919 -4.58168 0
M  V30 3307 H 321.351 -0.537365 -5.23851 0
M  V30 3308 H 323.842 -0.784895 -3.69659 0
M  V30 3309 H 324.155 -2.21148 -7.40482 0
M  V30 3310 H 322.5 -1.98219 -6.66134 0
M  V30 3311 H 325.691 -1.0545 -4.56068 0
M  V30 3312 H 325.864 -1.70481 -6.25172 0
M  V30 3313 N 319.27 1.56325 -0.20005 0
M  V30 3314 C 320.686 1.58839 0.155716 0
M  V30 3315 C 320.886 1.21636 1.60645 0
M  V30 3316 O 319.942 0.941437 2.34293 0
M  V30 3317 C 321.255 3.0032 -0.151124 0
M  V30 3318 C 322.803 3.12866 -0.0916284 0
M  V30 3319 C 323.278 4.56488 -0.371845 0
M  V30 3320 N 324.769 4.62089 -0.320641 0
M  V30 3321 C 325.504 5.71116 -0.511243 0
M  V30 3322 N 325 6.88592 -0.762461 0
M  V30 3323 N 326.793 5.60335 -0.445157 0
M  V30 3324 H 318.944 1.78788 -1.14668 0
M  V30 3325 H 321.207 0.829996 -0.458051 0
M  V30 3326 H 320.913 3.32117 -1.15721 0
M  V30 3327 H 320.787 3.73257 0.543986 0
M  V30 3328 H 323.174 2.80878 0.905065 0
M  V30 3329 H 323.255 2.42304 -0.81989 0
M  V30 3330 H 322.899 4.89189 -1.36588 0
M  V30 3331 H 322.829 5.25246 0.377362 0
M  V30 3332 H 325.32 3.77665 -0.13329 0
M  V30 3333 H 325.633 7.67581 -0.896576 0
M  V30 3334 H 323.978 6.90387 -0.799412 0
M  V30 3335 H 327.169 4.67436 -0.249278 0
M  V30 3336 H 327.342 6.45243 -0.597116 0
M  V30 3337 N 320.748 -0.0735177 1.57428 0
M  V30 3338 C 321.997 -0.771809 1.86349 0
M  V30 3339 C 322.31 -1.78828 0.792452 0
M  V30 3340 O 323.516 -2.53602 0.96945 0
M  V30 3341 C 321.972 -1.42358 3.30548 0
M  V30 3342 C 321.58 -0.445761 4.45777 0
M  V30 3343 C 323.324 -2.10434 3.6867 0
M  V30 3344 C 321.231 -1.10335 5.81016 0
M  V30 3345 H 320.161 -0.291999 0.695164 0
M  V30 3346 H 322.812 -0.0250749 1.83483 0
M  V30 3347 H 321.194 -2.21852 3.28021 0
M  V30 3348 H 322.368 0.319239 4.59693 0
M  V30 3349 H 320.683 0.130457 4.16196 0
M  V30 3350 H 323.28 -2.60405 4.67004 0
M  V30 3351 H 323.623 -2.90298 2.98383 0
M  V30 3352 H 324.156 -1.37773 3.7318 0
M  V30 3353 H 320.895 -0.345061 6.54591 0
M  V30 3354 H 320.415 -1.83925 5.70904 0
M  V30 3355 H 322.094 -1.62367 6.26295 0
M  V30 3356 N 322.226 -1.5378 -0.344866 0
M  V30 3357 C 323.156 -1.84662 -1.42906 0
M  V30 3358 C 324.137 -0.701648 -1.54955 0
M  V30 3359 O 325.322 -0.953438 -1.69184 0
M  V30 3360 C 322.452 -2.05503 -2.79974 0
M  V30 3361 C 321.406 -3.21318 -2.82734 0
M  V30 3362 C 320.732 -3.2749 -4.22675 0
M  V30 3363 C 322.032 -4.59456 -2.48389 0
M  V30 3364 H 323.726 -2.75461 -1.17311 0
M  V30 3365 H 321.272 -1.32542 -0.562896 0
M  V30 3366 H 323.225 -2.25691 -3.55867 0
M  V30 3367 H 321.949 -1.11434 -3.07002 0
M  V30 3368 H 320.608 -3.00984 -2.09294 0
M  V30 3369 H 320.256 -2.31019 -4.4681 0
M  V30 3370 H 319.956 -4.05316 -4.25433 0
M  V30 3371 H 321.48 -3.49887 -5.00412 0
M  V30 3372 H 322.894 -4.79667 -3.13995 0
M  V30 3373 H 321.291 -5.39675 -2.62432 0
M  V30 3374 H 322.361 -4.63155 -1.4358 0
M  V30 3375 N 323.704 0.605807 -1.45491 0
M  V30 3376 C 325.115 1.18777 -1.44045 0
M  V30 3377 C 325.466 1.95471 -0.169001 0
M  V30 3378 O 324.591 2.0374 0.729324 0
M  V30 3379 C 325.186 2.16064 -2.60963 0
M  V30 3380 C 323.745 2.69633 -2.62631 0
M  V30 3381 C 322.892 1.45072 -2.36325 0
M  V30 3382 H 325.843 0.395017 -1.53705 0
M  V30 3383 H 325.864 2.9913 -2.35163 0
M  V30 3384 H 325.376 1.60217 -3.53486 0
M  V30 3385 H 323.477 3.29414 -1.74119 0
M  V30 3386 H 323.59 3.13944 -3.61906 0
M  V30 3387 H 321.954 1.74089 -1.85917 0
M  V30 3388 H 322.737 0.910899 -3.30995 0
M  V30 3389 N 325.182 1.32811 0.848464 0
M  V30 3390 C 326.115 1.16601 1.96162 0
M  V30 3391 C 327.093 0.0638855 1.62474 0
M  V30 3392 O 328.277 0.224348 1.8716 0
M  V30 3393 C 325.404 0.786333 3.29446 0
M  V30 3394 C 324.45 1.89459 3.8211 0
M  V30 3395 S 325.283 3.50395 4.04949 0
M  V30 3396 C 326.439 3.14413 5.41198 0
M  V30 3397 H 326.672 2.10832 2.09612 0
M  V30 3398 H 324.205 1.17543 1.00115 0
M  V30 3399 H 326.163 0.574044 4.06466 0
M  V30 3400 H 324.824 -0.137218 3.138 0
M  V30 3401 H 324.017 1.58207 4.78526 0
M  V30 3402 H 323.619 2.06304 3.11953 0
M  V30 3403 H 325.911 2.64642 6.23675 0
M  V30 3404 H 326.854 4.09874 5.77416 0
M  V30 3405 H 327.262 2.51266 5.05495 0
M  V30 3406 N 326.66 -1.06551 1.16123 0
M  V30 3407 C 327.908 -1.78947 0.939267 0
M  V30 3408 C 328.229 -1.87532 -0.534476 0
M  V30 3409 O 327.499 -1.38211 -1.38833 0
M  V30 3410 H 326.079 -0.662807 0.344523 0
M  V30 3411 H 328.741 -1.28725 1.46342 0
M  V30 3412 H 327.837 -2.81117 1.35572 0
M  V30 3413 N 328.138 -0.959301 -1.25041 0
M  V30 3414 C 329.368 -0.63303 -1.96663 0
M  V30 3415 C 329.776 0.800031 -1.71453 0
M  V30 3416 O 329.119 1.54736 -0.99008 0
M  V30 3417 C 329.181 -0.817523 -3.50081 0
M  V30 3418 C 328.845 -2.22863 -3.98975 0
M  V30 3419 C 329.842 -3.20569 -4.09306 0
M  V30 3420 C 327.527 -2.55407 -4.32519 0
M  V30 3421 C 329.521 -4.4891 -4.52503 0
M  V30 3422 C 327.208 -3.83976 -4.754 0
M  V30 3423 C 328.206 -4.8054 -4.85356 0
M  V30 3424 O 327.894 -6.06817 -5.27284 0
M  V30 3425 H 327.626 -0.235866 -0.633516 0
M  V30 3426 H 330.18 -1.2874 -1.60047 0
M  V30 3427 H 328.41 -0.105992 -3.86555 0
M  V30 3428 H 330.099 -0.491604 -4.02912 0
M  V30 3429 H 330.865 -2.96753 -3.83618 0
M  V30 3430 H 326.744 -1.8097 -4.23994 0
M  V30 3431 H 330.288 -5.24283 -4.60188 0
M  V30 3432 H 326.185 -4.07596 -5.00535 0
M  V30 3433 H 326.953 -6.10262 -5.45457 0
M  V30 3434 N 329.616 1.39756 -0.72842 0
M  V30 3435 C 330.862 2.01425 -0.282761 0
M  V30 3436 C 331.217 1.56754 1.11561 0
M  V30 3437 O 330.51 0.783482 1.74849 0
M  V30 3438 C 330.704 3.56002 -0.315776 0
M  V30 3439 C 330.533 4.1568 -1.71582 0
M  V30 3440 C 329.303 4.48555 -2.32651 0
M  V30 3441 C 331.501 4.39667 -2.66829 0
M  V30 3442 N 329.483 4.93698 -3.64877 0
M  V30 3443 C 330.854 4.86942 -3.8378 0
M  V30 3444 C 332.909 4.21724 -2.64675 0
M  V30 3445 C 331.612 5.18158 -4.98904 0
M  V30 3446 C 333.638 4.54049 -3.78937 0
M  V30 3447 C 333 5.01525 -4.94623 0
M  V30 3448 H 329.099 0.76756 -0.149583 0
M  V30 3449 H 331.683 1.69784 -0.952976 0
M  V30 3450 H 329.854 3.87046 0.324057 0
M  V30 3451 H 331.586 4.0443 0.147808 0
M  V30 3452 H 328.341 4.36128 -1.84633 0
M  V30 3453 H 328.765 5.20635 -4.32744 0
M  V30 3454 H 333.407 3.84228 -1.76433 0
M  V30 3455 H 331.125 5.54562 -5.87781 0
M  V30 3456 H 334.711 4.41795 -3.78561 0
M  V30 3457 H 333.591 5.26065 -5.81572 0
M  V30 3458 N 331.094 0.475555 1.50254 0
M  V30 3459 C 332.041 -0.316293 2.28622 0
M  V30 3460 C 333.011 -0.983227 1.33873 0
M  V30 3461 O 334.196 -0.994805 1.62814 0
M  V30 3462 C 331.336 -1.38975 3.1588 0
M  V30 3463 C 330.449 -0.737146 4.25664 0
M  V30 3464 C 329.584 -1.78887 5.00173 0
M  V30 3465 C 328.623 -1.11676 6.01826 0
M  V30 3466 N 327.76 -2.11154 6.69596 0
M  V30 3467 H 332.6 0.358297 2.95838 0
M  V30 3468 H 330.137 0.188541 1.45887 0
M  V30 3469 H 332.095 -2.02383 3.64825 0
M  V30 3470 H 330.725 -2.03344 2.50701 0
M  V30 3471 H 329.777 0.0096065 3.80399 0
M  V30 3472 H 331.089 -0.206816 4.98371 0
M  V30 3473 H 330.243 -2.49865 5.52859 0
M  V30 3474 H 328.982 -2.35302 4.27182 0
M  V30 3475 H 327.987 -0.392633 5.48396 0
M  V30 3476 H 329.212 -0.55945 6.76792 0
M  V30 3477 H 327.158 -2.66577 5.99394 0
M  V30 3478 H 327.075 -1.63118 7.38193 0
M  V30 3479 H 328.343 -2.81497 7.26897 0
M  V30 3480 N 332.573 -1.56217 0.208337 0
M  V30 3481 C 333.821 -1.97558 -0.426076 0
M  V30 3482 C 334.142 -1.09683 -1.61229 0
M  V30 3483 O 333.412 -0.170956 -1.95153 0
M  V30 3484 H 331.992 -0.729575 -0.160405 0
M  V30 3485 H 334.654 -1.92606 0.298155 0
M  V30 3486 H 333.75 -3.02672 -0.761312 0
M  V30 3487 N 334.051 0.0651679 -1.57465 0
M  V30 3488 C 335.276 0.779605 -1.9219 0
M  V30 3489 C 335.701 1.69988 -0.805333 0
M  V30 3490 O 335.059 1.79685 0.241435 0
M  V30 3491 C 335.107 1.54364 -3.2589 0
M  V30 3492 O 334.211 2.65474 -3.1559 0
M  V30 3493 H 333.552 0.212249 -0.629163 0
M  V30 3494 H 336.082 0.0314294 -2.04576 0
M  V30 3495 H 336.092 1.92146 -3.59922 0
M  V30 3496 H 334.767 0.868457 -4.06732 0
M  V30 3497 H 333.344 2.30501 -2.93128 0
M  V30 3498 N 335.529 1.53961 0.336706 0
M  V30 3499 C 336.777 1.71197 1.07405 0
M  V30 3500 C 337.098 0.481475 1.88962 0
M  V30 3501 O 336.368 -0.504585 1.8929 0
M  V30 3502 H 334.948 0.631185 0.399517 0
M  V30 3503 H 337.61 1.91232 0.376323 0
M  V30 3504 H 336.706 2.58587 1.74755 0
M  V30 3505 N 337.007 -0.598083 1.45811 0
M  V30 3506 C 337.94 -1.7223 1.49706 0
M  V30 3507 C 338.918 -1.58732 0.352535 0
M  V30 3508 O 340.102 -1.80162 0.554438 0
M  V30 3509 C 337.229 -3.10148 1.3611 0
M  V30 3510 C 336.275 -3.42209 2.54549 0
M  V30 3511 S 337.108 -3.35989 4.16979 0
M  V30 3512 C 338.264 -4.76471 4.05865 0
M  V30 3513 H 338.497 -1.68665 2.44826 0
M  V30 3514 H 336.03 -0.775541 1.33509 0
M  V30 3515 H 337.988 -3.8972 1.28953 0
M  V30 3516 H 336.649 -3.11219 0.424451 0
M  V30 3517 H 335.842 -4.42652 2.40988 0
M  V30 3518 H 335.444 -2.70173 2.58617 0
M  V30 3519 H 337.736 -5.665 3.71596 0
M  V30 3520 H 338.679 -4.95089 5.06253 0
M  V30 3521 H 339.087 -4.52599 3.37364 0
M  V30 3522 N 338.485 -1.33259 -0.841409 0
M  V30 3523 C 339.71 -1.2775 -1.63385 0
M  V30 3524 C 340.135 0.149188 -1.87507 0
M  V30 3525 O 339.493 1.10498 -1.43736 0
M  V30 3526 C 339.541 -2.05571 -2.96265 0
M  V30 3527 O 338.645 -1.41257 -3.87453 0
M  V30 3528 H 337.986 -0.439627 -0.497618 0
M  V30 3529 H 340.516 -1.75782 -1.04699 0
M  V30 3530 H 340.526 -2.16241 -3.45982 0
M  V30 3531 H 339.201 -3.09309 -2.7803 0
M  V30 3532 H 337.778 -1.39217 -3.45938 0
M  V30 3533 N 339.963 1.05934 -1.16686 0
M  V30 3534 C 341.212 1.78188 -0.945085 0
M  V30 3535 C 341.525 1.88338 0.528021 0
M  V30 3536 O 342.731 2.57258 0.867799 0
M  V30 3537 C 341.187 3.20277 -1.64167 0
M  V30 3538 C 340.795 3.18281 -3.15279 0
M  V30 3539 C 342.539 3.97039 -1.502 0
M  V30 3540 C 340.446 4.55112 -3.7766 0
M  V30 3541 H 339.376 0.667866 -0.349959 0
M  V30 3542 H 342.027 1.18794 -1.39858 0
M  V30 3543 H 340.409 3.79952 -1.11589 0
M  V30 3544 H 341.583 2.68167 -3.74731 0
M  V30 3545 H 339.898 2.55018 -3.29173 0
M  V30 3546 H 342.495 4.98194 -1.94183 0
M  V30 3547 H 342.838 4.13845 -0.451461 0
M  V30 3548 H 343.371 3.43894 -1.99954 0
M  V30 3549 H 340.11 4.43512 -4.82677 0
M  V30 3550 H 339.63 5.05406 -3.22994 0
M  V30 3551 H 341.309 5.24064 -3.79428 0
M  V30 3552 N 341.441 0.965919 1.2453 0
M  V30 3553 C 342.687 0.62776 1.92839 0
M  V30 3554 C 343.02 -0.834694 1.75347 0
M  V30 3555 O 342.295 -1.60031 1.10546 0
M  V30 3556 C 342.578 1.00109 3.45905 0
M  V30 3557 C 342.431 2.52011 3.72573 0
M  V30 3558 C 343.75 0.53435 4.36844 0
M  V30 3559 H 340.869 0.229537 0.700344 0
M  V30 3560 H 343.511 1.2046 1.46933 0
M  V30 3561 H 341.661 0.510238 3.85135 0
M  V30 3562 H 343.333 3.08559 3.42912 0
M  V30 3563 H 341.576 2.95287 3.17786 0
M  V30 3564 H 342.247 2.73183 4.79661 0
M  V30 3565 H 344.723 0.955565 4.04979 0
M  V30 3566 H 343.599 0.824152 5.42678 0
M  V30 3567 H 343.86 -0.565589 4.38467 0
M  V30 3568 N 342.919 -1.39368 0.735821 0
M  V30 3569 C 343.849 -2.33234 0.111506 0
M  V30 3570 C 344.83 -1.53954 -0.723334 0
M  V30 3571 O 346.015 -1.82344 -0.668147 0
M  V30 3572 C 343.145 -3.38057 -0.795917 0
M  V30 3573 C 342.099 -4.2795 -0.065172 0
M  V30 3574 C 341.425 -5.23479 -1.08967 0
M  V30 3575 C 342.725 -5.10741 1.09273 0
M  V30 3576 H 344.419 -2.85692 0.895571 0
M  V30 3577 H 341.965 -1.37364 0.432109 0
M  V30 3578 H 343.918 -4.02675 -1.24221 0
M  V30 3579 H 342.642 -2.8404 -1.61211 0
M  V30 3580 H 341.301 -3.64813 0.361511 0
M  V30 3581 H 340.949 -4.65758 -1.89944 0
M  V30 3582 H 340.649 -5.84472 -0.605489 0
M  V30 3583 H 342.173 -5.90974 -1.53565 0
M  V30 3584 H 343.587 -5.68699 0.724841 0
M  V30 3585 H 341.984 -5.8088 1.50659 0
M  V30 3586 H 343.054 -4.45525 1.91404 0
M  V30 3587 N 344.397 -0.483516 -1.5 0
M  V30 3588 C 345.674 0.129337 -1.95172 0
M  V30 3589 C 346.054 1.55802 -1.4244 0
M  V30 3590 O 345.402 2.19625 -0.630649 0
M  V30 3591 C 345.612 0.0599251 -3.48949 0
M  V30 3592 C 346.96 0.242617 -4.23906 0
M  V30 3593 O 347.984 0.135933 -3.55941 0
M  V30 3594 O 346.843 0.459454 -5.44565 0
M  V30 3595 H 343.937 0.104887 -0.820322 0
M  V30 3596 H 346.483 -0.544807 -1.60717 0
M  V30 3597 H 345.255 -0.937079 -3.79914 0
M  V30 3598 H 344.878 0.774984 -3.89974 0
M  V30 3599 N 345.875 1.56104 -0.216619 0
M  V30 3600 C 346.808 2.16026 0.735395 0
M  V30 3601 C 347.786 1.1032 1.1945 0
M  V30 3602 O 348.97 1.38549 1.27814 0
M  V30 3603 C 346.097 2.73656 1.99575 0
M  V30 3604 C 345.143 3.92146 1.67702 0
M  V30 3605 S 345.976 5.29397 0.806145 0
M  V30 3606 C 347.132 5.90463 2.07617 0
M  V30 3607 H 347.365 2.96439 0.226072 0
M  V30 3608 H 344.898 1.544 -0.00136639 0
M  V30 3609 H 346.856 3.075 2.71945 0
M  V30 3610 H 345.517 1.93245 2.47619 0
M  V30 3611 H 344.71 4.30954 2.61332 0
M  V30 3612 H 344.312 3.59423 1.03398 0
M  V30 3613 H 346.604 6.06136 3.02664 0
M  V30 3614 H 347.547 6.86589 1.73207 0
M  V30 3615 H 347.955 5.19252 2.21445 0
M  V30 3616 N 347.353 -0.0568162 1.57498 0
M  V30 3617 C 348.602 -0.752001 1.87157 0
M  V30 3618 C 348.915 -1.77978 0.811375 0
M  V30 3619 O 350.121 -2.52559 0.996293 0
M  V30 3620 C 348.577 -1.38844 3.3204 0
M  V30 3621 C 348.185 -0.398456 4.46225 0
M  V30 3622 C 349.929 -2.06512 3.70882 0
M  V30 3623 C 347.836 -1.04166 5.82154 0
M  V30 3624 H 346.766 -0.28461 0.698222 0
M  V30 3625 H 349.417 -0.00561272 1.83499 0
M  V30 3626 H 347.799 -2.1836 3.30356 0
M  V30 3627 H 348.973 0.367977 4.59328 0
M  V30 3628 H 347.288 0.174592 4.16034 0
M  V30 3629 H 349.885 -2.55437 4.6974 0
M  V30 3630 H 350.228 -2.87117 3.01445 0
M  V30 3631 H 350.761 -1.33808 3.7462 0
M  V30 3632 H 347.5 -0.275614 6.5492 0
M  V30 3633 H 347.02 -1.7786 5.72823 0
M  V30 3634 H 348.699 -1.55715 6.27982 0
M  V30 3635 N 348.832 -1.54138 -0.328536 0
M  V30 3636 C 349.795 -1.82462 -1.38709 0
M  V30 3637 C 350.795 -0.696229 -1.44946 0
M  V30 3638 O 351.985 -0.964535 -1.4506 0
M  V30 3639 C 349.117 -1.98018 -2.77492 0
M  V30 3640 H 350.31 -2.77037 -1.14851 0
M  V30 3641 H 347.863 -1.45779 -0.563751 0
M  V30 3642 H 348.598 -1.05637 -3.06613 0
M  V30 3643 H 348.383 -2.80124 -2.74359 0
M  V30 3644 H 349.873 -2.21396 -3.54081 0
M  V30 3645 N 350.31 0.590341 -1.46126 0
M  V30 3646 C 351.538 1.37504 -1.54597 0
M  V30 3647 C 351.953 1.87897 -0.184447 0
M  V30 3648 O 351.31 1.63192 0.816984 0
M  V30 3649 C 351.361 2.56779 -2.54454 0
M  V30 3650 O 351.082 2.08476 -3.85317 0
M  V30 3651 C 352.583 3.49427 -2.72792 0
M  V30 3652 H 349.803 0.420325 -0.523037 0
M  V30 3653 H 352.347 0.718383 -1.91467 0
M  V30 3654 H 350.502 3.1845 -2.20609 0
M  V30 3655 H 350.916 2.86097 -4.396 0
M  V30 3656 H 352.39 4.29619 -3.466 0
M  V30 3657 H 352.867 4.00876 -1.79429 0
M  V30 3658 H 353.473 2.93598 -3.07702 0
M  V30 3659 N 351.788 1.33704 0.83433 0
M  V30 3660 C 352.718 1.26967 1.95963 0
M  V30 3661 C 353.699 0.149337 1.69443 0
M  V30 3662 O 354.884 0.339852 1.91203 0
M  V30 3663 C 352.014 1.01275 3.32206 0
M  V30 3664 C 350.968 2.09652 3.73136 0
M  V30 3665 C 350.294 1.69166 5.07235 0
M  V30 3666 C 351.594 3.51372 3.86439 0
M  V30 3667 H 353.288 2.2112 2.01857 0
M  V30 3668 H 350.834 1.06447 0.969793 0
M  V30 3669 H 352.787 0.952106 4.10503 0
M  V30 3670 H 351.511 0.0356203 3.26581 0
M  V30 3671 H 350.17 2.14766 2.97104 0
M  V30 3672 H 349.818 0.701437 4.98085 0
M  V30 3673 H 349.518 2.41694 5.35591 0
M  V30 3674 H 351.042 1.64576 5.88003 0
M  V30 3675 H 352.456 3.48734 4.55036 0
M  V30 3676 H 350.853 4.22425 4.26236 0
M  V30 3677 H 351.923 3.89546 2.88759 0
M  V30 3678 N 353.266 -1.05314 1.17247 0
M  V30 3679 C 354.196 -2.1498 0.911362 0
M  V30 3680 C 355.177 -1.69471 -0.146169 0
M  V30 3681 O 356.362 -1.942 0.003812 0
M  V30 3682 C 353.492 -3.4472 0.422528 0
M  V30 3683 C 352.446 -4.03789 1.4191 0
M  V30 3684 C 351.772 -5.28858 0.788274 0
M  V30 3685 C 353.072 -4.41418 2.7919 0
M  V30 3686 H 354.766 -2.3708 1.82848 0
M  V30 3687 H 352.312 -1.13938 0.880569 0
M  V30 3688 H 354.265 -4.20787 0.227289 0
M  V30 3689 H 352.989 -3.22269 -0.530123 0
M  V30 3690 H 351.648 -3.2979 1.60106 0
M  V30 3691 H 351.296 -5.02709 -0.171173 0
M  V30 3692 H 350.996 -5.69338 1.45353 0
M  V30 3693 H 352.52 -6.07612 0.603282 0
M  V30 3694 H 353.934 -5.08524 2.64719 0
M  V30 3695 H 352.331 -4.92913 3.42282 0
M  V30 3696 H 353.401 -3.51819 3.33693 0
M  V30 3697 N 354.744 -0.972509 -1.24016 0
M  V30 3698 C 355.969 -0.654417 -1.96805 0
M  V30 3699 C 356.394 0.770398 -1.716 0
M  V30 3700 O 355.752 1.52361 -0.982647 0
M  V30 3701 C 355.8 -0.941031 -3.48105 0
M  V30 3702 O 354.904 -0.0289472 -4.1239 0
M  V30 3703 H 354.245 -0.24692 -0.616382 0
M  V30 3704 H 356.775 -1.30396 -1.57664 0
M  V30 3705 H 356.785 -0.87452 -3.98517 0
M  V30 3706 H 355.46 -1.97939 -3.65777 0
M  V30 3707 H 354.037 -0.149192 -3.72601 0
M  V30 3708 N 356.222 1.38976 -0.743202 0
M  V30 3709 C 357.499 1.94351 -0.220705 0
M  V30 3710 C 357.879 1.67935 1.2791 0
M  V30 3711 O 357.227 1.01211 2.04862 0
M  V30 3712 C 357.437 3.44426 -0.563171 0
M  V30 3713 C 358.785 4.2144 -0.517046 0
M  V30 3714 O 359.809 3.52661 -0.500846 0
M  V30 3715 O 358.668 5.44032 -0.518806 0
M  V30 3716 H 355.762 0.825879 -0.043047 0
M  V30 3717 H 358.308 1.48429 -0.822618 0
M  V30 3718 H 357.08 3.5712 -1.59941 0
M  V30 3719 H 356.703 3.97543 0.0672883 0
M  V30 3720 N 357.7 0.491464 1.49741 0
M  V30 3721 C 358.948 -0.0563141 2.02022 0
M  V30 3722 C 359.269 -1.38363 1.37407 0
M  V30 3723 O 358.539 -1.88702 0.526166 0
M  V30 3724 H 357.119 -0.0238014 0.746621 0
M  V30 3725 H 359.781 0.646533 1.83864 0
M  V30 3726 H 358.877 -0.192967 3.11503 0
M  V30 3727 N 359.178 -1.55987 0.224894 0
M  V30 3728 C 360.141 -2.19178 -0.670348 0
M  V30 3729 C 361.141 -1.15461 -1.11917 0
M  V30 3730 O 362.331 -1.40675 -1.02743 0
M  V30 3731 C 359.463 -2.81777 -1.9187 0
M  V30 3732 H 360.656 -2.99662 -0.119364 0
M  V30 3733 H 358.209 -1.5628 -0.0247128 0
M  V30 3734 H 358.944 -2.05172 -2.51147 0
M  V30 3735 H 358.729 -3.57732 -1.60531 0
M  V30 3736 H 360.219 -3.30205 -2.55645 0
M  V30 3737 N 360.656 0.0484629 -1.57525 0
M  V30 3738 C 361.881 0.759177 -1.93006 0
M  V30 3739 C 362.306 1.69125 -0.823317 0
M  V30 3740 O 361.664 1.79931 0.222364 0
M  V30 3741 C 361.712 1.50899 -3.27509 0
M  V30 3742 O 360.816 2.62112 -3.18388 0
M  V30 3743 H 360.157 0.205564 -0.631379 0
M  V30 3744 H 362.687 0.00972959 -2.04598 0
M  V30 3745 H 362.697 1.88317 -3.6194 0
M  V30 3746 H 361.372 0.825269 -4.0763 0
M  V30 3747 H 359.949 2.27379 -2.95556 0
M  V30 3748 N 362.134 1.5431 0.320358 0
M  V30 3749 C 363.38 1.72924 1.05949 0
M  V30 3750 C 363.713 0.503185 1.87568 0
M  V30 3751 O 362.988 -0.499839 1.87968 0
M  V30 3752 C 363.271 3.00676 1.98156 0
M  V30 3753 C 363.124 4.3354 1.19845 0
M  V30 3754 C 364.443 3.24198 2.9763 0
M  V30 3755 H 361.562 0.629195 0.383774 0
M  V30 3756 H 364.204 1.87008 0.335854 0
M  V30 3757 H 362.354 2.888 2.59859 0
M  V30 3758 H 364.026 4.57305 0.605773 0
M  V30 3759 H 362.269 4.309 0.500784 0
M  V30 3760 H 362.94 5.19156 1.87567 0
M  V30 3761 H 365.416 3.35557 2.4605 0
M  V30 3762 H 364.292 4.14938 3.59329 0
M  V30 3763 H 364.553 2.41577 3.7026 0
M  V30 3764 N 363.613 -0.582584 1.46437 0
M  V30 3765 C 364.576 -1.67366 1.56592 0
M  V30 3766 C 365.576 -1.54575 0.443072 0
M  V30 3767 O 366.766 -1.59191 0.707381 0
M  V30 3768 C 363.898 -3.06791 1.48634 0
M  V30 3769 H 365.091 -1.5972 2.5383 0
M  V30 3770 H 362.644 -0.800432 1.34249 0
M  V30 3771 H 363.379 -3.19993 0.526763 0
M  V30 3772 H 363.164 -3.17484 2.30101 0
M  V30 3773 H 364.654 -3.86218 1.58826 0
M  V30 3774 N 365.091 -1.34144 -0.827227 0
M  V30 3775 C 366.001 -1.27428 -1.96975 0
M  V30 3776 C 367.017 -0.182728 -1.73038 0
M  V30 3777 O 368.193 -0.408426 -1.97215 0
M  V30 3778 C 365.258 -1.02526 -3.31194 0
M  V30 3779 C 364.319 -2.20796 -3.68168 0
M  V30 3780 C 363.552 -1.97073 -4.95982 0
M  V30 3781 O 363.775 -0.926822 -5.6282 0
M  V30 3782 O 362.709 -2.83912 -5.30733 0
M  V30 3783 H 366.535 -2.23537 -2.05584 0
M  V30 3784 H 364.12 -1.14307 -0.961989 0
M  V30 3785 H 366.002 -0.904026 -4.11589 0
M  V30 3786 H 364.677 -0.0945389 -3.23562 0
M  V30 3787 H 363.584 -2.38477 -2.88235 0
M  V30 3788 H 364.917 -3.12243 -3.8048 0
M  V30 3789 N 366.569 1.04691 -1.17803 0
M  V30 3790 C 367.815 1.78045 -0.970969 0
M  V30 3791 C 368.148 1.87686 0.498751 0
M  V30 3792 O 367.423 1.38035 1.37027 0
M  V30 3793 C 367.706 3.2166 -1.61884 0
M  V30 3794 C 367.559 3.20001 -3.161 0
M  V30 3795 C 368.878 4.1962 -1.3269 0
M  V30 3796 H 365.997 0.64633 -0.354155 0
M  V30 3797 H 368.639 1.22333 -1.45378 0
M  V30 3798 H 366.789 3.69232 -1.20831 0
M  V30 3799 H 368.461 2.80467 -3.66246 0
M  V30 3800 H 366.704 2.58203 -3.48588 0
M  V30 3801 H 367.375 4.21386 -3.56564 0
M  V30 3802 H 369.851 3.80567 -1.68249 0
M  V30 3803 H 368.727 5.18339 -1.80599 0
M  V30 3804 H 368.988 4.414 -0.248622 0
M  V30 3805 N 368.047 0.979072 1.23499 0
M  V30 3806 C 369.275 0.665202 1.95915 0
M  V30 3807 C 369.69 -0.767571 1.72493 0
M  V30 3808 O 369.047 -1.51635 1.01554 0
M  V30 3809 C 369.098 0.944438 3.48945 0
M  V30 3810 O 368.819 2.3209 3.71572 0
M  V30 3811 C 370.32 0.646336 4.38563 0
M  V30 3812 H 367.54 0.247218 0.623798 0
M  V30 3813 H 370.084 1.31009 1.57025 0
M  V30 3814 H 368.239 0.345575 3.85856 0
M  V30 3815 H 368.653 2.40957 4.65876 0
M  V30 3816 H 370.127 0.892091 5.44744 0
M  V30 3817 H 370.604 -0.419575 4.37191 0
M  V30 3818 H 371.21 1.22562 4.07258 0
M  V30 3819 N 369.525 -1.3858 0.750561 0
M  V30 3820 C 370.457 -2.29057 0.0810714 0
M  V30 3821 C 371.47 -1.47596 -0.686973 0
M  V30 3822 O 372.659 -1.70495 -0.528563 0
M  V30 3823 C 369.759 -3.26475 -0.909247 0
M  V30 3824 C 368.932 -4.36945 -0.199478 0
M  V30 3825 C 367.991 -5.14572 -1.10011 0
M  V30 3826 O 367.017 -5.66321 -0.57177 0
M  V30 3827 N 368.219 -5.27262 -2.42849 0
M  V30 3828 H 370.984 -2.87153 0.858087 0
M  V30 3829 H 368.545 -1.50328 0.60109 0
M  V30 3830 H 370.537 -3.75285 -1.51471 0
M  V30 3831 H 369.107 -2.69298 -1.58736 0
M  V30 3832 H 368.327 -3.8981 0.586664 0
M  V30 3833 H 369.615 -5.07963 0.291783 0
M  V30 3834 H 369.013 -4.86763 -2.88233 0
M  V30 3835 H 367.57 -5.79456 -2.98453 0
M  V30 3836 N 371.003 -0.499398 -1.49478 0
M  V30 3837 C 372.28 0.108629 -1.95298 0
M  V30 3838 C 372.66 1.54282 -1.44084 0
M  V30 3839 O 372.008 2.18944 -0.653908 0
M  V30 3840 C 372.218 0.0229111 -3.48992 0
M  V30 3841 C 373.566 0.197643 -4.2414 0
M  V30 3842 O 374.59 0.0981735 -3.56065 0
M  V30 3843 O 373.449 0.401669 -5.45022 0
M  V30 3844 H 370.543 0.096181 -0.821388 0
M  V30 3845 H 373.089 -0.561822 -1.6013 0
M  V30 3846 H 371.861 -0.977321 -3.78899 0
M  V30 3847 H 371.484 0.733579 -3.90774 0
M  V30 3848 N 372.481 1.55866 -0.233164 0
M  V30 3849 C 373.429 2.22176 0.68851 0
M  V30 3850 C 374.423 1.20487 1.19076 0
M  V30 3851 O 375.629 1.38536 1.14925 0
M  V30 3852 H 372.004 0.712511 0.240483 0
M  V30 3853 H 373.975 2.98212 0.105935 0
M  V30 3854 C 372.724 2.92446 1.88071 0
M  V30 3855 H 372.047 3.70458 1.50337 0
M  V30 3856 H 373.487 3.42226 2.50314 0
M  V30 3857 C 371.946 1.95555 2.74335 0
M  V30 3858 O 372.476 1.47986 3.73447 0
M  V30 3859 N 370.682 1.62953 2.40613 0
M  V30 3860 H 370.229 2.01831 1.60069 0
M  V30 3861 H 370.187 0.983886 2.98609 0
M  V30 3862 N 373.959 -0.0401083 1.57549 0
M  V30 3863 C 375.184 -0.748931 1.93406 0
M  V30 3864 C 375.609 -1.68686 0.832274 0
M  V30 3865 O 374.967 -1.80047 -0.212818 0
M  V30 3866 C 375.015 -1.4916 3.28304 0
M  V30 3867 O 374.119 -2.6042 3.19774 0
M  V30 3868 H 373.46 -0.202212 0.63246 0
M  V30 3869 H 375.99 0.00112086 2.046 0
M  V30 3870 H 376 -1.86395 3.62934 0
M  V30 3871 H 374.675 -0.80364 4.08062 0
M  V30 3872 H 373.252 -2.25808 2.96758 0
M  V30 3873 N 375.437 -1.54477 -0.31217 0
M  V30 3874 C 376.714 -1.63891 -1.06767 0
M  V30 3875 C 377.094 -0.480028 -2.0557 0
M  V30 3876 O 376.442 0.524487 -2.22399 0
M  V30 3877 C 376.652 -3.01402 -1.75948 0
M  V30 3878 C 378 -3.57838 -2.28554 0
M  V30 3879 O 379.024 -3.03782 -1.85998 0
M  V30 3880 O 377.883 -4.52462 -3.06497 0
M  V30 3881 H 374.977 -0.664125 -0.492816 0
M  V30 3882 H 377.523 -1.66823 -0.311149 0
M  V30 3883 H 376.295 -3.77187 -1.04144 0
M  V30 3884 H 375.918 -3.02199 -2.58383 0
M  V30 3885 N 376.915 0.57481 -1.46744 0
M  V30 3886 C 377.825 1.711 -1.60505 0
M  V30 3887 C 378.841 1.67008 -0.488307 0
M  V30 3888 O 380.017 1.86774 -0.753495 0
M  V30 3889 C 377.082 3.07608 -1.59932 0
M  V30 3890 C 376.143 3.22904 -2.82898 0
M  V30 3891 C 375.376 4.529 -2.82343 0
M  V30 3892 O 375.599 5.37278 -1.91542 0
M  V30 3893 O 374.533 4.71611 -3.73987 0
M  V30 3894 H 378.359 1.62436 -2.56609 0
M  V30 3895 H 375.944 0.742779 -1.29627 0
M  V30 3896 H 377.826 3.88877 -1.62336 0
M  V30 3897 H 376.501 3.16692 -0.669898 0
M  V30 3898 H 375.408 2.41099 -2.86046 0
M  V30 3899 H 376.741 3.18715 -3.75076 0
M  V30 3900 N 378.394 1.34581 0.820102 0
M  V30 3901 C 379.624 1.29991 1.6058 0
M  V30 3902 C 380.032 -0.127588 1.88769 0
M  V30 3903 O 379.375 -1.08595 1.48165 0
M  V30 3904 C 379.437 2.02548 2.9701 0
M  V30 3905 C 379.101 3.51794 2.91701 0
M  V30 3906 C 380.098 4.46647 2.66087 0
M  V30 3907 C 377.783 3.94249 3.11245 0
M  V30 3908 C 379.777 5.81929 2.60071 0
M  V30 3909 C 377.464 5.2963 3.04853 0
M  V30 3910 C 378.462 6.23282 2.793 0
M  V30 3911 O 378.15 7.56181 2.72847 0
M  V30 3912 H 377.882 0.448539 0.505756 0
M  V30 3913 H 380.436 1.77811 1.02822 0
M  V30 3914 H 378.666 1.49345 3.56697 0
M  V30 3915 H 380.355 1.91211 3.58041 0
M  V30 3916 H 381.121 4.15168 2.5072 0
M  V30 3917 H 377 3.21749 3.30149 0
M  V30 3918 H 380.544 6.54999 2.40046 0
M  V30 3919 H 376.441 5.60727 3.19774 0
M  V30 3920 H 377.209 7.6595 2.88553 0
M  V30 3921 N 379.872 -1.04064 1.18357 0
M  V30 3922 C 381.12 -1.76915 0.977013 0
M  V30 3923 C 381.441 -1.88624 -0.494577 0
M  V30 3924 O 380.711 -1.41125 -1.3587 0
M  V30 3925 H 379.291 -0.65535 0.358504 0
M  V30 3926 H 381.953 -1.25592 1.49039 0
M  V30 3927 H 381.049 -2.78178 1.41504 0
M  V30 3928 N 381.35 -0.985608 -1.22978 0
M  V30 3929 C 382.599 -0.652881 -1.90841 0
M  V30 3930 C 382.912 0.817842 -1.77681 0
M  V30 3931 O 384.118 1.26185 -2.40395 0
M  V30 3932 C 382.574 -1.11717 -3.42122 0
M  V30 3933 C 382.182 -2.6126 -3.63933 0
M  V30 3934 C 383.926 -0.85843 -4.1573 0
M  V30 3935 C 381.833 -3.0133 -5.08876 0
M  V30 3936 H 380.763 -0.240491 -0.714619 0
M  V30 3937 H 383.414 -1.1942 -1.39324 0
M  V30 3938 H 381.796 -0.504027 -3.92779 0
M  V30 3939 H 382.97 -3.27858 -3.23799 0
M  V30 3940 H 381.285 -2.84937 -3.03644 0
M  V30 3941 H 383.882 -1.13359 -5.22546 0
M  V30 3942 H 384.225 0.205461 -4.15793 0
M  V30 3943 H 384.758 -1.43341 -3.71077 0
M  V30 3944 H 381.497 -4.06864 -5.13947 0
M  V30 3945 H 381.017 -2.3943 -5.49939 0
M  V30 3946 H 382.696 -2.92224 -5.77247 0
M  V30 3947 N 382.828 1.3818 -0.7579 0
M  V30 3948 C 384.053 2.04827 -0.325679 0
M  V30 3949 C 384.478 1.56788 1.03919 0
M  V30 3950 O 383.836 0.721811 1.66312 0
M  V30 3951 C 383.884 3.58774 -0.362447 0
M  V30 3952 O 382.988 4.07372 0.642033 0
M  V30 3953 H 382.329 0.64833 -0.143402 0
M  V30 3954 H 384.859 1.7677 -1.03023 0
M  V30 3955 H 384.869 4.07434 -0.214844 0
M  V30 3956 H 383.544 3.93096 -1.35824 0
M  V30 3957 H 382.121 3.70068 0.458688 0
M  V30 3958 N 384.306 0.507319 1.49211 0
M  V30 3959 C 385.238 -0.304532 2.27168 0
M  V30 3960 C 386.251 -0.924956 1.33972 0
M  V30 3961 O 387.44 -0.807227 1.59205 0
M  V30 3962 C 384.54 -1.44431 3.06583 0
M  V30 3963 C 383.713 -0.930026 4.27398 0
M  V30 3964 C 382.772 -1.94817 4.88807 0
M  V30 3965 O 381.798 -1.51418 5.4869 0
M  V30 3966 N 383 -3.279 4.79022 0
M  V30 3967 H 385.765 0.36395 2.97482 0
M  V30 3968 H 383.326 0.340249 1.58284 0
M  V30 3969 H 385.318 -2.12311 3.44537 0
M  V30 3970 H 383.888 -2.01684 2.38835 0
M  V30 3971 H 383.108 -0.0759244 3.94127 0
M  V30 3972 H 384.396 -0.564932 5.05654 0
M  V30 3973 H 383.794 -3.65843 4.3148 0
M  V30 3974 H 382.351 -3.91476 5.21142 0
M  V30 3975 N 385.784 -1.5574 0.241426 0
M  V30 3976 C 387.033 -1.97986 -0.385295 0
M  V30 3977 C 387.346 -1.13267 -1.59468 0
M  V30 3978 O 388.552 -1.45501 -2.2922 0
M  V30 3979 C 387.008 -3.52275 -0.736884 0
M  V30 3980 C 386.616 -4.45726 0.450796 0
M  V30 3981 C 388.36 -4.03189 -1.3281 0
M  V30 3982 C 386.267 -5.91352 0.0756662 0
M  V30 3983 H 385.197 -0.739386 -0.147731 0
M  V30 3984 H 387.848 -1.80308 0.340779 0
M  V30 3985 H 386.23 -3.65628 -1.52094 0
M  V30 3986 H 387.404 -4.44131 1.22819 0
M  V30 3987 H 385.719 -4.05264 0.956573 0
M  V30 3988 H 388.316 -5.09505 -1.62201 0
M  V30 3989 H 388.659 -3.50212 -2.25071 0
M  V30 3990 H 389.192 -3.93141 -0.607069 0
M  V30 3991 H 385.931 -6.48354 0.965272 0
M  V30 3992 H 385.451 -5.96095 -0.665635 0
M  V30 3993 H 387.13 -6.46084 -0.344075 0
M  V30 3994 N 387.262 0.0317525 -1.57568 0
M  V30 3995 C 388.509 0.723104 -1.89149 0
M  V30 3996 C 388.837 1.75504 -0.838377 0
M  V30 3997 O 388.092 1.95037 0.160982 0
M  V30 3998 C 388.391 1.43167 -3.27472 0
M  V30 3999 C 388.057 0.535972 -4.47703 0
M  V30 4000 C 386.719 0.289262 -4.8033 0
M  V30 4001 C 389.071 -0.0826125 -5.21135 0
M  V30 4002 C 386.399 -0.584853 -5.83778 0
M  V30 4003 C 388.751 -0.944414 -6.25511 0
M  V30 4004 C 387.415 -1.20061 -6.56614 0
M  V30 4005 H 386.685 0.264602 -0.692146 0
M  V30 4006 H 389.332 -0.0169496 -1.91492 0
M  V30 4007 H 387.637 2.24497 -3.21105 0
M  V30 4008 H 389.334 1.97209 -3.49155 0
M  V30 4009 H 385.924 0.738414 -4.22191 0
M  V30 4010 H 390.108 0.0950302 -4.96209 0
M  V30 4011 H 385.364 -0.79168 -6.06253 0
M  V30 4012 H 389.538 -1.43026 -6.81554 0
M  V30 4013 H 387.165 -1.87967 -7.36595 0
M  V30 4014 N 388.74 1.54641 0.303973 0
M  V30 4015 C 389.989 1.7299 1.03717 0
M  V30 4016 C 390.302 0.521168 1.88529 0
M  V30 4017 O 391.508 0.586408 2.65092 0
M  V30 4018 C 389.964 3.06051 1.89369 0
M  V30 4019 C 389.572 4.34393 1.09574 0
M  V30 4020 C 391.316 3.3376 2.62306 0
M  V30 4021 C 389.223 5.58506 1.94486 0
M  V30 4022 H 388.153 0.64473 0.390947 0
M  V30 4023 H 390.804 1.81124 0.294328 0
M  V30 4024 H 389.186 2.91874 2.67629 0
M  V30 4025 H 390.36 4.59396 0.359485 0
M  V30 4026 H 388.675 4.13597 0.482324 0
M  V30 4027 H 391.272 4.23687 3.26181 0
M  V30 4028 H 391.615 2.52503 3.3098 0
M  V30 4029 H 392.148 3.48894 1.91097 0
M  V30 4030 H 388.887 6.42422 1.30287 0
M  V30 4031 H 388.407 5.37694 2.65792 0
M  V30 4032 H 390.086 5.95651 2.52605 0
M  V30 4033 N 390.218 -0.567019 1.47046 0
M  V30 4034 C 391.181 -1.65696 1.58359 0
M  V30 4035 C 392.181 -1.54097 0.459441 0
M  V30 4036 O 393.371 -1.58432 0.724225 0
M  V30 4037 C 390.503 -3.05197 1.51879 0
M  V30 4038 H 391.696 -1.57019 2.5551 0
M  V30 4039 H 389.249 -0.786148 1.3509 0
M  V30 4040 H 389.984 -3.19417 0.560673 0
M  V30 4041 H 389.769 -3.15025 2.33455 0
M  V30 4042 H 391.259 -3.84511 1.62913 0
M  V30 4043 N 391.696 -1.35014 -0.812953 0
M  V30 4044 C 392.945 -1.27269 -1.56479 0
M  V30 4045 C 393.258 0.152771 -1.95002 0
M  V30 4046 O 394.464 0.352451 -2.69203 0
M  V30 4047 C 392.92 -2.23159 -2.82362 0
M  V30 4048 C 392.528 -3.71016 -2.511 0
M  V30 4049 C 394.272 -2.24342 -3.60376 0
M  V30 4050 C 392.179 -4.58746 -3.73237 0
M  V30 4051 H 391.109 -0.472829 -0.587324 0
M  V30 4052 H 393.76 -1.6024 -0.894171 0
M  V30 4053 H 392.142 -1.83151 -3.51101 0
M  V30 4054 H 393.316 -4.1962 -1.90409 0
M  V30 4055 H 391.631 -3.72378 -1.86343 0
M  V30 4056 H 394.228 -2.87107 -4.51081 0
M  V30 4057 H 394.571 -1.24542 -3.97234 0
M  V30 4058 H 395.104 -2.62846 -2.98591 0
M  V30 4059 H 391.843 -5.59521 -3.41492 0
M  V30 4060 H 391.363 -4.14871 -4.33176 0
M  V30 4061 H 393.042 -4.73852 -4.40537 0
M  V30 4062 N 393.175 1.03435 -1.18907 0
M  V30 4063 C 394.085 2.15075 -0.937015 0
M  V30 4064 C 395.101 1.73706 0.101085 0
M  V30 4065 O 396.277 2.01232 -0.0822948 0
M  V30 4066 C 393.342 3.43458 -0.473057 0
M  V30 4067 C 392.403 3.99172 -1.57989 0
M  V30 4068 C 391.636 5.21427 -1.13797 0
M  V30 4069 O 391.859 5.704 0.000725941 0
M  V30 4070 O 390.793 5.69837 -1.9383 0
M  V30 4071 H 394.619 2.39198 -1.87131 0
M  V30 4072 H 392.204 1.13506 -0.971427 0
M  V30 4073 H 394.086 4.20811 -0.222702 0
M  V30 4074 H 392.761 3.20793 0.432869 0
M  V30 4075 H 391.668 3.23178 -1.88433 0
M  V30 4076 H 393.001 4.2619 -2.46217 0
M  V30 4077 N 394.653 0.992116 1.22453 0
M  V30 4078 C 395.899 0.668523 1.91464 0
M  V30 4079 C 396.232 -0.797313 1.77078 0
M  V30 4080 O 395.507 -1.5765 1.13916 0
M  V30 4081 C 395.79 1.07424 3.43703 0
M  V30 4082 C 395.643 2.59857 3.67143 0
M  V30 4083 C 396.962 0.626891 4.35612 0
M  V30 4084 H 394.081 0.244341 0.695318 0
M  V30 4085 H 396.723 1.2355 1.44345 0
M  V30 4086 H 394.873 0.591816 3.83966 0
M  V30 4087 H 396.545 3.15764 3.3629 0
M  V30 4088 H 394.788 3.01961 3.11451 0
M  V30 4089 H 395.459 2.83296 4.73759 0
M  V30 4090 H 397.935 1.04125 4.02861 0
M  V30 4091 H 396.811 0.939076 5.40807 0
M  V30 4092 H 397.072 -0.472457 4.39568 0
M  V30 4093 N 396.131 -1.37776 0.765217 0
M  V30 4094 C 397.408 -1.93975 0.251596 0
M  V30 4095 C 397.788 -1.69949 -1.25222 0
M  V30 4096 O 397.136 -1.04457 -2.03226 0
M  V30 4097 C 397.346 -3.43487 0.617895 0
M  V30 4098 C 398.694 -4.20564 0.584029 0
M  V30 4099 O 399.718 -3.5182 0.556888 0
M  V30 4100 O 398.577 -5.43138 0.605291 0
M  V30 4101 H 395.671 -0.82509 0.0561806 0
M  V30 4102 H 398.217 -1.47101 0.846128 0
M  V30 4103 H 396.989 -3.5453 1.65602 0
M  V30 4104 H 396.612 -3.976 -0.00403411 0
M  V30 4105 N 397.609 -0.515225 -1.4894 0
M  V30 4106 C 398.556 0.255567 -2.29381 0
M  V30 4107 C 399.526 0.947387 -1.36432 0
M  V30 4108 O 400.711 0.951288 -1.65394 0
M  V30 4109 C 397.851 1.30551 -3.19453 0
M  V30 4110 C 396.964 0.624029 -4.27469 0
M  V30 4111 C 396.099 1.65563 -5.0474 0
M  V30 4112 C 395.138 0.956802 -6.04576 0
M  V30 4113 N 394.275 1.93326 -6.74959 0
M  V30 4114 H 399.115 -0.436607 -2.94784 0
M  V30 4115 H 396.652 -0.227154 -1.45336 0
M  V30 4116 H 398.61 1.92639 -3.70062 0
M  V30 4117 H 397.24 1.96626 -2.56004 0
M  V30 4118 H 396.292 -0.110459 -3.8024 0
M  V30 4119 H 397.604 0.0746092 -4.98744 0
M  V30 4120 H 396.758 2.35119 -5.59289 0
M  V30 4121 H 395.497 2.23893 -4.3327 0
M  V30 4122 H 394.502 0.247097 -5.49244 0
M  V30 4123 H 395.727 0.379814 -6.78037 0
M  V30 4124 H 393.673 2.50591 -6.06251 0
M  V30 4125 H 393.59 1.43489 -7.42258 0
M  V30 4126 H 394.858 2.62126 -7.34105 0
M  V30 4127 N 399.087 1.5561 -0.249682 0
M  V30 4128 C 400.017 2.24477 0.642826 0
M  V30 4129 C 400.998 1.22601 1.17911 0
M  V30 4130 O 402.183 1.5126 1.21795 0
M  V30 4131 C 399.313 2.94638 1.83863 0
M  V30 4132 C 398.267 4.03227 1.435 0
M  V30 4133 C 397.593 4.60828 2.71186 0
M  V30 4134 C 398.893 5.18796 0.604002 0
M  V30 4135 H 400.587 2.99321 0.0685625 0
M  V30 4136 H 398.133 1.43965 0.0315363 0
M  V30 4137 H 400.086 3.41517 2.46868 0
M  V30 4138 H 398.81 2.17287 2.43832 0
M  V30 4139 H 397.469 3.57121 0.828275 0
M  V30 4140 H 397.117 3.80174 3.29358 0
M  V30 4141 H 396.817 5.34132 2.44901 0
M  V30 4142 H 398.341 5.10442 3.35084 0
M  V30 4143 H 399.755 5.61883 1.13842 0
M  V30 4144 H 398.152 5.98506 0.437097 0
M  V30 4145 H 399.222 4.83384 -0.383147 0
M  V30 4146 N 400.565 -0.0233959 1.57583 0
M  V30 4147 C 401.814 -0.712133 1.8871 0
M  V30 4148 C 402.127 -1.76217 0.848944 0
M  V30 4149 O 403.333 -2.50389 1.04964 0
M  V30 4150 C 401.789 -1.3177 3.3491 0
M  V30 4151 C 401.397 -0.303715 4.46969 0
M  V30 4152 C 403.141 -1.98598 3.75179 0
M  V30 4153 C 401.048 -0.917945 5.84233 0
M  V30 4154 H 399.978 -0.269735 0.704101 0
M  V30 4155 H 402.629 0.0333114 1.8347 0
M  V30 4156 H 401.011 -2.11304 3.34913 0
M  V30 4157 H 402.185 0.465325 4.58445 0
M  V30 4158 H 400.5 0.2628 4.1557 0
M  V30 4159 H 403.097 -2.45416 4.75053 0
M  V30 4160 H 403.44 -2.80659 3.07468 0
M  V30 4161 H 403.973 -1.25831 3.77374 0
M  V30 4162 H 400.712 -0.136633 6.55358 0
M  V30 4163 H 400.232 -1.65669 5.76467 0
M  V30 4164 H 401.911 -1.4236 6.31144 0
M  V30 4165 N 402.043 -1.548 -0.295768 0
M  V30 4166 C 403.32 -1.65014 -1.05023 0
M  V30 4167 C 403.7 -0.501805 -2.05049 0
M  V30 4168 O 403.048 0.500869 -2.22943 0
M  V30 4169 C 403.258 -3.03252 -1.72741 0
M  V30 4170 C 404.606 -3.60242 -2.24746 0
M  V30 4171 O 405.63 -3.05737 -1.82765 0
M  V30 4172 O 404.489 -4.55687 -3.01681 0
M  V30 4173 H 401.583 -0.669314 -0.485744 0
M  V30 4174 H 404.129 -1.67144 -0.293438 0
M  V30 4175 H 402.901 -3.7827 -1.00138 0
M  V30 4176 H 402.524 -3.04922 -2.55163 0
M  V30 4177 N 403.521 0.559213 -1.47345 0
M  V30 4178 C 404.769 1.31388 -1.53563 0
M  V30 4179 C 405.09 1.93985 -0.198678 0
M  V30 4180 O 404.36 1.79825 0.777167 0
M  V30 4181 H 402.94 0.487901 -0.565652 0
M  V30 4182 H 405.602 0.65315 -1.8363 0
M  V30 4183 H 404.698 2.10844 -2.30111 0
M  V30 4184 N 404.999 1.35443 0.805782 0
M  V30 4185 C 406.41 1.25768 1.37983 0
M  V30 4186 C 406.761 -0.10958 1.95894 0
M  V30 4187 O 405.886 -1.01056 1.91355 0
M  V30 4188 C 406.481 2.27727 2.5085 0
M  V30 4189 C 405.04 2.2179 3.04115 0
M  V30 4190 C 404.187 2.13393 1.77084 0
M  V30 4191 H 407.138 1.4656 0.608752 0
M  V30 4192 H 407.159 1.90422 3.29424 0
M  V30 4193 H 406.671 3.27227 2.08671 0
M  V30 4194 H 404.772 1.25703 3.50756 0
M  V30 4195 H 404.885 3.13788 3.62042 0
M  V30 4196 H 403.249 1.59384 1.98668 0
M  V30 4197 H 404.032 3.14755 1.37056 0
M  V30 4198 N 406.477 -1.02803 1.19454 0
M  V30 4199 C 407.705 -1.79841 1.02297 0
M  V30 4200 C 408.12 -1.83879 -0.428259 0
M  V30 4201 O 407.477 -1.28345 -1.29745 0
M  V30 4202 C 407.528 -3.24852 1.58598 0
M  V30 4203 O 407.249 -3.21097 2.98041 0
M  V30 4204 C 408.75 -4.18485 1.46236 0
M  V30 4205 H 405.97 -0.565936 0.360496 0
M  V30 4206 H 408.514 -1.2948 1.58288 0
M  V30 4207 H 406.669 -3.72401 1.06753 0
M  V30 4208 H 407.083 -4.12033 3.24545 0
M  V30 4209 H 408.557 -5.18121 1.90407 0
M  V30 4210 H 409.034 -4.37254 0.41301 0
M  V30 4211 H 409.64 -3.76811 1.97215 0
M  V30 4212 N 407.956 -0.998596 -1.21925 0
M  V30 4213 C 409.372 -0.710303 -1.42923 0
M  V30 4214 C 409.572 0.716933 -1.88314 0
M  V30 4215 O 408.628 1.48712 -2.04062 0
M  V30 4216 C 409.941 -1.72072 -2.466 0
M  V30 4217 C 411.489 -1.73681 -2.60392 0
M  V30 4218 C 411.964 -2.73601 -3.67296 0
M  V30 4219 N 413.455 -2.7223 -3.7476 0
M  V30 4220 C 414.19 -3.46206 -4.57087 0
M  V30 4221 N 413.686 -4.29802 -5.43362 0
M  V30 4222 N 415.479 -3.34886 -4.51451 0
M  V30 4223 H 407.63 -1.92028 -0.9077 0
M  V30 4224 H 409.893 -0.828487 -0.460775 0
M  V30 4225 H 409.599 -2.74231 -2.20206 0
M  V30 4226 H 409.473 -1.51818 -3.45299 0
M  V30 4227 H 411.86 -0.722173 -2.86127 0
M  V30 4228 H 411.941 -1.98005 -1.61949 0
M  V30 4229 H 411.585 -3.75217 -3.42307 0
M  V30 4230 H 411.515 -2.46545 -4.65321 0
M  V30 4231 H 414.006 -2.11576 -3.1312 0
M  V30 4232 H 414.319 -4.83061 -6.03218 0
M  V30 4233 H 412.664 -4.33887 -5.42925 0
M  V30 4234 H 415.855 -2.69015 -3.83078 0
M  V30 4235 H 416.028 -3.92796 -5.15379 0
M  V30 4236 N 409.434 1.37368 -0.772513 0
M  V30 4237 C 410.711 1.93839 -0.26188 0
M  V30 4238 C 411.091 1.7061 1.24319 0
M  V30 4239 O 410.439 1.05534 2.02669 0
M  V30 4240 C 410.649 3.43154 -0.636102 0
M  V30 4241 C 411.997 4.20249 -0.606324 0
M  V30 4242 O 413.021 3.5152 -0.575538 0
M  V30 4243 O 411.88 5.42809 -0.634086 0
M  V30 4244 H 408.974 0.82478 -0.0605555 0
M  V30 4245 H 411.52 1.4665 -0.853917 0
M  V30 4246 H 410.292 3.53647 -1.6748 0
M  V30 4247 H 409.915 3.97596 -0.0170516 0
M  V30 4248 N 410.912 0.523116 1.48665 0
M  V30 4249 C 411.875 -0.232592 2.28017 0
M  V30 4250 C 412.875 -0.874021 1.34972 0
M  V30 4251 O 414.065 -0.735132 1.57929 0
M  V30 4252 C 411.197 -1.33586 3.13636 0
M  V30 4253 H 412.39 0.464008 2.96289 0
M  V30 4254 H 409.943 0.278816 1.53793 0
M  V30 4255 H 410.678 -2.06593 2.4998 0
M  V30 4256 H 410.463 -0.881125 3.82071 0
M  V30 4257 H 411.953 -1.86759 3.73511 0
M  V30 4258 N 412.39 -1.55475 0.257931 0
M  V30 4259 C 413.337 -2.21837 -0.636939 0
M  V30 4260 C 414.307 -1.18596 -1.16294 0
M  V30 4261 O 415.492 -1.47081 -1.21539 0
M  V30 4262 C 412.632 -2.9301 -1.82317 0
M  V30 4263 C 411.745 -4.10931 -1.33265 0
M  V30 4264 C 410.88 -4.69791 -2.47931 0
M  V30 4265 C 409.919 -5.7994 -1.95796 0
M  V30 4266 N 409.056 -6.32935 -3.0387 0
M  V30 4267 H 413.896 -2.9793 -0.0643591 0
M  V30 4268 H 411.433 -1.47086 -0.0200031 0
M  V30 4269 H 413.391 -3.3248 -2.52018 0
M  V30 4270 H 412.021 -2.1937 -2.36805 0
M  V30 4271 H 411.073 -3.76699 -0.52931 0
M  V30 4272 H 412.385 -4.90417 -0.910654 0
M  V30 4273 H 411.539 -5.11892 -3.25656 0
M  V30 4274 H 410.278 -3.89545 -2.93438 0
M  V30 4275 H 409.283 -5.37305 -1.16546 0
M  V30 4276 H 410.508 -6.62043 -1.51246 0
M  V30 4277 H 408.454 -5.55591 -3.48791 0
M  V30 4278 H 408.371 -7.07645 -2.66035 0
M  V30 4279 H 409.639 -6.79695 -3.81621 0
M  V30 4280 N 413.868 0.0150385 -1.57593 0
M  V30 4281 C 414.798 1.01047 -2.10503 0
M  V30 4282 C 415.779 1.36816 -1.01071 0
M  V30 4283 O 416.964 1.45455 -1.28672 0
M  V30 4284 C 414.094 2.30708 -2.59598 0
M  V30 4285 C 413.048 2.09142 -3.73421 0
M  V30 4286 C 412.374 3.44685 -4.08774 0
M  V30 4287 C 413.674 1.46619 -5.01298 0
M  V30 4288 H 415.368 0.569978 -2.93925 0
M  V30 4289 H 412.914 0.272724 -1.41394 0
M  V30 4290 H 414.867 3.00687 -2.95238 0
M  V30 4291 H 413.591 2.76843 -1.73279 0
M  V30 4292 H 412.25 1.41592 -3.38153 0
M  V30 4293 H 411.898 3.88495 -3.195 0
M  V30 4294 H 411.598 3.31077 -4.8545 0
M  V30 4295 H 413.122 4.16004 -4.4696 0
M  V30 4296 H 414.536 2.06535 -5.34805 0
M  V30 4297 H 412.933 1.43544 -5.82679 0
M  V30 4298 H 414.003 0.433611 -4.82957 0
M  V30 4299 N 415.346 1.54954 0.287554 0
M  V30 4300 C 416.278 1.83224 1.37701 0
M  V30 4301 C 417.291 0.715898 1.46215 0
M  V30 4302 O 418.48 0.993565 1.48292 0
M  V30 4303 C 415.58 1.96723 2.75959 0
M  V30 4304 C 414.753 3.27253 2.90215 0
M  V30 4305 C 413.812 3.30998 4.09056 0
M  V30 4306 O 412.838 4.04457 4.00503 0
M  V30 4307 N 414.04 2.57353 5.20336 0
M  V30 4308 H 416.805 2.77254 1.138 0
M  V30 4309 H 414.366 1.54694 0.477652 0
M  V30 4310 H 416.358 1.96615 3.5373 0
M  V30 4311 H 414.928 1.09626 2.92747 0
M  V30 4312 H 414.148 3.40022 1.99447 0
M  V30 4313 H 415.436 4.13365 2.96659 0
M  V30 4314 H 414.834 1.97327 5.30169 0
M  V30 4315 H 413.391 2.62984 5.96391 0
M  V30 4316 N 416.824 -0.551391 1.4764 0
M  V30 4317 C 418.24 -0.877887 1.33287 0
M  V30 4318 C 418.44 -1.98817 0.327721 0
M  V30 4319 O 417.496 -2.51171 -0.258695 0
M  V30 4320 C 418.809 -1.26563 2.72768 0
M  V30 4321 C 420.357 -1.37673 2.81097 0
M  V30 4322 C 420.832 -1.79799 4.21232 0
M  V30 4323 N 422.323 -1.8694 4.23802 0
M  V30 4324 C 423.058 -2.20876 5.29151 0
M  V30 4325 N 422.554 -2.53386 6.448 0
M  V30 4326 N 424.347 -2.217 5.16532 0
M  V30 4327 H 416.498 0.18153 2.11623 0
M  V30 4328 H 418.761 0.0185514 0.947818 0
M  V30 4329 H 418.467 -0.523591 3.47781 0
M  V30 4330 H 418.341 -2.22052 3.04915 0
M  V30 4331 H 420.728 -2.10956 2.06353 0
M  V30 4332 H 420.809 -0.40357 2.52596 0
M  V30 4333 H 420.453 -1.07083 4.96483 0
M  V30 4334 H 420.383 -2.78128 4.4716 0
M  V30 4335 H 422.874 -1.64179 3.40373 0
M  V30 4336 H 423.187 -2.78325 7.20941 0
M  V30 4337 H 421.532 -2.50953 6.48111 0
M  V30 4338 H 424.723 -1.95745 4.25207 0
M  V30 4339 H 424.896 -2.47818 5.98741 0
M  V30 4340 N 418.302 -1.35869 -0.798587 0
M  V30 4341 C 419.551 -1.28921 -1.5512 0
M  V30 4342 C 419.864 0.13208 -1.95154 0
M  V30 4343 O 421.07 0.323879 -2.69561 0
M  V30 4344 C 419.526 -2.26141 -2.79979 0
M  V30 4345 C 419.134 -3.73658 -2.47151 0
M  V30 4346 C 420.878 -2.28152 -3.57976 0
M  V30 4347 C 418.785 -4.62679 -3.6835 0
M  V30 4348 H 417.715 -0.479031 -0.582276 0
M  V30 4349 H 420.366 -1.61179 -0.877125 0
M  V30 4350 H 418.748 -1.86865 -3.49138 0
M  V30 4351 H 419.922 -4.21616 -1.85947 0
M  V30 4352 H 418.237 -3.74333 -1.82383 0
M  V30 4353 H 420.834 -2.91875 -4.4801 0
M  V30 4354 H 421.177 -1.28748 -3.95891 0
M  V30 4355 H 421.71 -2.65998 -2.95787 0
M  V30 4356 H 418.449 -5.63111 -3.35538 0
M  V30 4357 H 417.969 -4.19442 -4.28752 0
M  V30 4358 H 419.648 -4.78498 -4.35487 0
M  V30 4359 N 419.78 1.02168 -1.19998 0
M  V30 4360 C 420.713 2.10232 -0.887558 0
M  V30 4361 C 421.691 1.61827 0.158317 0
M  V30 4362 O 422.875 1.88471 0.0330249 0
M  V30 4363 C 420.002 3.37092 -0.32964 0
M  V30 4364 C 419.048 4.0438 -1.3557 0
M  V30 4365 S 419.881 4.48956 -2.91888 0
M  V30 4366 C 421.037 5.79024 -2.37658 0
M  V30 4367 H 421.27 2.36409 -1.80272 0
M  V30 4368 H 418.803 1.15211 -1.0279 0
M  V30 4369 H 420.761 4.10498 -0.0142824 0
M  V30 4370 H 419.422 3.08996 0.563941 0
M  V30 4371 H 418.615 4.95632 -0.9146 0
M  V30 4372 H 418.217 3.37176 -1.61828 0
M  V30 4373 H 420.509 6.53942 -1.77103 0
M  V30 4374 H 421.452 6.27924 -3.27287 0
M  V30 4375 H 421.86 5.35043 -1.79971 0
M  V30 4376 N 421.258 1.00505 1.21394 0
M  V30 4377 C 422.535 0.603277 1.86064 0
M  V30 4378 C 422.915 -0.919095 1.90042 0
M  V30 4379 O 422.263 -1.80607 1.39977 0
M  V30 4380 C 422.473 1.23772 3.26315 0
M  V30 4381 C 423.821 1.34586 4.02705 0
M  V30 4382 O 424.845 1.19304 3.35626 0
M  V30 4383 O 423.704 1.59169 5.22807 0
M  V30 4384 H 420.798 0.206634 0.800769 0
M  V30 4385 H 423.344 1.1017 1.29076 0
M  V30 4386 H 422.116 2.27848 3.18121 0
M  V30 4387 H 421.739 0.725648 3.90922 0
M  V30 4388 N 422.737 -1.36956 0.779787 0
M  V30 4389 C 423.967 -2.03459 0.358877 0
M  V30 4390 C 424.375 -1.58939 -1.02641 0
M  V30 4391 O 423.718 -0.769777 -1.66794 0
M  V30 4392 C 423.78 -3.5796 0.332393 0
M  V30 4393 C 423.444 -4.25644 1.66362 0
M  V30 4394 C 424.441 -4.49205 2.61746 0
M  V30 4395 C 422.126 -4.63313 1.94027 0
M  V30 4396 C 424.12 -5.09503 3.82996 0
M  V30 4397 C 421.807 -5.2333 3.15546 0
M  V30 4398 C 422.805 -5.46363 4.0985 0
M  V30 4399 O 422.493 -6.05122 5.29228 0
M  V30 4400 H 422.225 -0.659767 0.147254 0
M  V30 4401 H 424.779 -1.76111 1.05708 0
M  V30 4402 H 423.009 -3.84388 -0.422237 0
M  V30 4403 H 424.698 -4.05852 -0.0625389 0
M  V30 4404 H 425.464 -4.20508 2.41657 0
M  V30 4405 H 421.343 -4.44715 1.21448 0
M  V30 4406 H 424.887 -5.27397 4.56617 0
M  V30 4407 H 420.784 -5.51451 3.35517 0
M  V30 4408 H 421.552 -6.23595 5.30161 0
M  V30 4409 N 424.215 -0.530993 -1.48385 0
M  V30 4410 C 425.461 0.00274135 -2.028 0
M  V30 4411 C 425.794 1.33838 -1.40716 0
M  V30 4412 O 425.069 1.86465 -0.553277 0
M  V30 4413 C 425.352 0.123676 -3.59888 0
M  V30 4414 C 425.205 -1.2372 -4.3245 0
M  V30 4415 C 426.524 0.849967 -4.31814 0
M  V30 4416 H 423.643 -0.000477758 -0.737 0
M  V30 4417 H 426.285 -0.688217 -1.77098 0
M  V30 4418 H 424.435 0.712157 -3.81917 0
M  V30 4419 H 426.107 -1.86687 -4.21836 0
M  V30 4420 H 424.35 -1.81882 -3.93829 0
M  V30 4421 H 425.021 -1.10557 -5.40815 0
M  V30 4422 H 427.497 0.350572 -4.14621 0
M  V30 4423 H 426.373 0.903486 -5.41413 0
M  V30 4424 H 426.634 1.90047 -3.99167 0
M  V30 4425 N 425.693 1.55336 -0.266172 0
M  V30 4426 C 426.921 2.03801 0.356756 0
M  V30 4427 C 427.336 1.14485 1.50129 0
M  V30 4428 O 426.693 0.163121 1.8177 0
M  V30 4429 C 426.744 3.51455 0.846281 0
M  V30 4430 O 426.465 4.37371 -0.252663 0
M  V30 4431 C 427.966 4.15767 1.53794 0
M  V30 4432 H 425.186 0.665906 0.0825218 0
M  V30 4433 H 427.73 2.00636 -0.39566 0
M  V30 4434 H 425.885 3.55092 1.54881 0
M  V30 4435 H 426.299 5.24358 0.122173 0
M  V30 4436 H 427.773 5.20714 1.83198 0
M  V30 4437 H 428.25 3.63404 2.46646 0
M  V30 4438 H 428.856 4.16107 0.879488 0
M  V30 4439 N 427.171 -0.0066808 1.57599 0
M  V30 4440 C 428.396 -0.707738 1.94951 0
M  V30 4441 C 428.821 -1.66882 0.867868 0
M  V30 4442 O 428.179 -1.80457 -0.17458 0
M  V30 4443 C 428.227 -1.42162 3.31394 0
M  V30 4444 O 427.331 -2.53578 3.25226 0
M  V30 4445 H 426.672 -0.188752 0.636607 0
M  V30 4446 H 429.202 0.0445193 2.04552 0
M  V30 4447 H 429.212 -1.78655 3.66806 0
M  V30 4448 H 427.887 -0.716903 4.09675 0
M  V30 4449 H 426.464 -2.19463 3.01481 0
M  V30 4450 N 428.649 -1.55105 -0.279332 0
M  V30 4451 C 429.612 -1.86783 -1.32834 0
M  V30 4452 C 430.612 -0.74199 -1.42657 0
M  V30 4453 O 431.802 -1.0102 -1.41918 0
M  V30 4454 C 428.934 -2.06746 -2.71052 0
M  V30 4455 H 430.127 -2.8055 -1.05979 0
M  V30 4456 H 427.68 -1.47499 -0.517087 0
M  V30 4457 H 428.415 -1.15339 -3.03097 0
M  V30 4458 H 428.2 -2.88711 -2.65309 0
M  V30 4459 H 429.69 -2.32549 -3.46858 0
M  V30 4460 N 430.127 0.543554 -1.4793 0
M  V30 4461 C 431.037 1.67657 -1.64098 0
M  V30 4462 C 432.053 1.65934 -0.523622 0
M  V30 4463 O 433.229 1.85133 -0.792943 0
M  V30 4464 C 430.294 3.04146 -1.66421 0
M  V30 4465 C 429.355 3.16831 -2.89684 0
M  V30 4466 C 428.588 4.46809 -2.91886 0
M  V30 4467 O 428.811 5.33095 -2.02895 0
M  V30 4468 O 427.745 4.63573 -3.83906 0
M  V30 4469 H 431.571 1.56957 -2.59997 0
M  V30 4470 H 429.156 0.715116 -1.31173 0
M  V30 4471 H 431.038 3.85346 -1.70548 0
M  V30 4472 H 429.713 3.152 -0.736923 0
M  V30 4473 H 428.62 2.34977 -2.91095 0
M  V30 4474 H 429.953 3.10687 -3.81752 0
M  V30 4475 N 431.605 1.3629 0.791371 0
M  V30 4476 C 433.021 1.16661 1.08914 0
M  V30 4477 C 433.221 -0.0106266 2.01497 0
M  V30 4478 O 432.277 -0.676596 2.43266 0
M  V30 4479 C 433.59 2.47656 1.70549 0
M  V30 4480 C 435.138 2.54002 1.82899 0
M  V30 4481 C 435.613 3.85078 2.47949 0
M  V30 4482 N 437.104 3.86413 2.5542 0
M  V30 4483 C 437.839 4.84572 3.06557 0
M  V30 4484 N 437.335 5.93124 3.58016 0
M  V30 4485 N 439.128 4.71994 3.05251 0
M  V30 4486 H 431.279 2.11668 0.176238 0
M  V30 4487 H 433.542 0.937486 0.140796 0
M  V30 4488 H 433.248 3.34059 1.09989 0
M  V30 4489 H 433.122 2.63319 2.70079 0
M  V30 4490 H 435.509 1.68018 2.42598 0
M  V30 4491 H 435.59 2.42239 0.821808 0
M  V30 4492 H 435.234 4.71467 1.88895 0
M  V30 4493 H 435.164 3.94135 3.49235 0
M  V30 4494 H 437.655 3.07988 2.18979 0
M  V30 4495 H 437.968 6.63999 3.95381 0
M  V30 4496 H 436.313 5.96796 3.56173 0
M  V30 4497 H 439.504 3.86321 2.64336 0
M  V30 4498 H 439.677 5.48653 3.44796 0
M  V30 4499 N 433.083 -1.0153 1.20538 0
M  V30 4500 C 434.046 -2.0826 0.957098 0
M  V30 4501 C 435.046 -1.60657 -0.0678655 0
M  V30 4502 O 436.236 -1.73385 0.168332 0
M  V30 4503 C 433.368 -3.38033 0.441188 0
M  V30 4504 H 434.561 -2.31719 1.90384 0
M  V30 4505 H 432.114 -1.1835 1.02093 0
M  V30 4506 H 432.849 -3.20249 -0.510961 0
M  V30 4507 H 432.634 -3.73911 1.18038 0
M  V30 4508 H 434.124 -4.16613 0.287009 0
M  V30 4509 N 434.561 -1.01147 -1.20859 0
M  V30 4510 C 435.838 -0.613136 -1.85742 0
M  V30 4511 C 436.218 0.909004 -1.90526 0
M  V30 4512 O 435.566 1.79862 -1.40932 0
M  V30 4513 C 435.776 -1.255 -3.25654 0
M  V30 4514 C 437.124 -1.3672 -4.01986 0
M  V30 4515 O 438.148 -1.21082 -3.34989 0
M  V30 4516 O 437.007 -1.6194 -5.21956 0
M  V30 4517 H 434.101 -0.210878 -0.799662 0
M  V30 4518 H 436.647 -1.10853 -1.2849 0
M  V30 4519 H 435.419 -2.29532 -3.16908 0
M  V30 4520 H 435.042 -0.746369 -3.90532 0
M  V30 4521 N 436.039 1.36541 -0.78704 0
M  V30 4522 C 436.949 2.3387 -0.184896 0
M  V30 4523 C 437.965 1.60927 0.661697 0
M  V30 4524 O 439.141 1.92927 0.57804 0
M  V30 4525 C 436.206 3.40122 0.672145 0
M  V30 4526 C 435.267 4.28867 -0.19267 0
M  V30 4527 C 434.5 5.30045 0.623561 0
M  V30 4528 O 434.723 5.39232 1.8597 0
M  V30 4529 O 433.657 6.01895 0.0247068 0
M  V30 4530 H 437.483 2.87126 -0.989562 0
M  V30 4531 H 435.068 1.38969 -0.548455 0
M  V30 4532 H 436.95 4.05093 1.16094 0
M  V30 4533 H 435.625 2.89169 1.45474 0
M  V30 4534 H 434.532 3.66945 -0.728166 0
M  V30 4535 H 435.865 4.83165 -0.938722 0
M  V30 4536 N 437.518 0.538854 1.48102 0
M  V30 4537 C 438.466 -0.232325 2.31437 0
M  V30 4538 C 439.46 -0.927004 1.41785 0
M  V30 4539 O 440.666 -0.850378 1.58646 0
M  V30 4540 H 437.041 -0.0937916 0.746128 0
M  V30 4541 H 439.012 0.489986 2.9435 0
M  V30 4542 C 437.761 -1.26074 3.24038 0
M  V30 4543 H 437.084 -0.735609 3.92974 0
M  V30 4544 H 438.524 -1.77157 3.85216 0
M  V30 4545 C 436.983 -2.29902 2.46265 0
M  V30 4546 O 437.513 -3.36502 2.19384 0
M  V30 4547 N 435.719 -2.03348 2.07601 0
M  V30 4548 H 435.266 -1.16675 2.29662 0
M  V30 4549 H 435.224 -2.73038 1.55877 0
M  V30 4550 N 438.996 -1.55193 0.274407 0
M  V30 4551 C 439.928 -2.1989 -0.646595 0
M  V30 4552 C 440.941 -1.1834 -1.11801 0
M  V30 4553 O 442.13 -1.4507 -1.04004 0
M  V30 4554 C 439.23 -2.8104 -1.89393 0
M  V30 4555 C 438.403 -4.08274 -1.56943 0
M  V30 4556 C 437.462 -4.53478 -2.66916 0
M  V30 4557 O 436.488 -5.19267 -2.33132 0
M  V30 4558 N 437.69 -4.2356 -3.9696 0
M  V30 4559 H 440.455 -2.99556 -0.0928686 0
M  V30 4560 H 438.016 -1.61618 0.0954783 0
M  V30 4561 H 440.008 -3.08226 -2.62257 0
M  V30 4562 H 438.578 -2.05372 -2.35672 0
M  V30 4563 H 437.798 -3.88384 -0.674655 0
M  V30 4564 H 439.086 -4.91173 -1.32764 0
M  V30 4565 H 438.484 -3.70799 -4.27229 0
M  V30 4566 H 437.041 -4.55518 -4.66205 0
M  V30 4567 N 440.474 -0.00167713 -1.576 0
M  V30 4568 C 441.437 0.974046 -2.07473 0
M  V30 4569 C 442.437 1.27143 -0.984444 0
M  V30 4570 O 443.627 1.21633 -1.24703 0
M  V30 4571 C 440.759 2.29849 -2.51759 0
M  V30 4572 H 441.952 0.54262 -2.9495 0
M  V30 4573 H 439.505 0.245829 -1.54355 0
M  V30 4574 H 440.24 2.77677 -1.67529 0
M  V30 4575 H 440.025 2.09584 -3.31386 0
M  V30 4576 H 441.515 2.9984 -2.90664 0
M  V30 4577 N 441.952 1.55251 0.271103 0
M  V30 4578 C 443.201 1.75151 1.00025 0
M  V30 4579 C 443.514 0.561041 1.87381 0
M  V30 4580 O 444.72 0.642506 2.63788 0
M  V30 4581 C 443.176 3.09999 1.82835 0
M  V30 4582 C 442.784 4.3662 1.00336 0
M  V30 4583 C 444.528 3.39249 2.55168 0
M  V30 4584 C 442.435 5.62506 1.82595 0
M  V30 4585 H 441.365 0.652877 0.377183 0
M  V30 4586 H 444.016 1.81708 0.255843 0
M  V30 4587 H 442.398 2.97485 2.61378 0
M  V30 4588 H 443.572 4.60055 0.261959 0
M  V30 4589 H 441.887 4.14527 0.394486 0
M  V30 4590 H 444.484 4.3051 3.1712 0
M  V30 4591 H 444.827 2.59467 3.2555 0
M  V30 4592 H 445.36 3.52869 1.83653 0
M  V30 4593 H 442.099 6.45041 1.16631 0
M  V30 4594 H 441.619 5.43211 2.54327 0
M  V30 4595 H 443.298 6.00875 2.39913 0
M  V30 4596 N 443.43 -0.535701 1.48216 0
M  V30 4597 C 444.846 -0.863701 1.3421 0
M  V30 4598 C 445.046 -1.98458 0.34879 0
M  V30 4599 O 444.102 -2.51432 -0.23204 0
M  V30 4600 C 445.415 -1.23662 2.74095 0
M  V30 4601 C 446.963 -1.34683 2.82541 0
M  V30 4602 C 447.438 -1.75322 4.23115 0
M  V30 4603 N 448.929 -1.82434 4.2576 0
M  V30 4604 C 449.664 -2.15252 5.31464 0
M  V30 4605 N 449.16 -2.46533 6.47452 0
M  V30 4606 N 450.953 -2.16209 5.18855 0
M  V30 4607 H 443.104 0.203965 2.11418 0
M  V30 4608 H 445.367 0.0286033 0.947568 0
M  V30 4609 H 445.073 -0.486674 3.48316 0
M  V30 4610 H 444.947 -2.18805 3.07253 0
M  V30 4611 H 447.334 -2.08756 2.08579 0
M  V30 4612 H 447.415 -0.376756 2.5301 0
M  V30 4613 H 447.059 -1.01812 4.97591 0
M  V30 4614 H 446.989 -2.7337 4.50085 0
M  V30 4615 H 449.48 -1.6056 3.42095 0
M  V30 4616 H 449.793 -2.70662 7.23852 0
M  V30 4617 H 448.138 -2.44065 6.50736 0
M  V30 4618 H 451.329 -1.91224 4.2726 0
M  V30 4619 H 451.502 -2.41453 6.01335 0
M  V30 4620 N 444.908 -1.36708 -0.784132 0
M  V30 4621 C 445.838 -1.34153 -1.91116 0
M  V30 4622 C 446.819 -0.212121 -1.68772 0
M  V30 4623 O 448.004 -0.410581 -1.8981 0
M  V30 4624 C 445.134 -1.13535 -3.28218 0
M  V30 4625 C 444.088 -2.23356 -3.65097 0
M  V30 4626 C 443.414 -1.87875 -5.00607 0
M  V30 4627 C 444.714 -3.65473 -3.73131 0
M  V30 4628 H 446.408 -2.28459 -1.93512 0
M  V30 4629 H 443.954 -1.09973 -0.929618 0
M  V30 4630 H 445.907 -1.10381 -4.06687 0
M  V30 4631 H 444.631 -0.156804 -3.26223 0
M  V30 4632 H 443.29 -2.25645 -2.88929 0
M  V30 4633 H 442.938 -0.885814 -4.95139 0
M  V30 4634 H 442.638 -2.61406 -5.26252 0
M  V30 4635 H 444.162 -1.86286 -5.81489 0
M  V30 4636 H 445.576 -3.65382 -4.41779 0
M  V30 4637 H 443.973 -4.37953 -4.10265 0
M  V30 4638 H 445.043 -3.99995 -2.74102 0
M  V30 4639 N 446.386 1.0089 -1.21074 0
M  V30 4640 C 447.797 1.56056 -1.02486 0
M  V30 4641 C 448.148 1.91728 0.416506 0
M  V30 4642 O 447.273 1.73066 1.29912 0
M  V30 4643 C 447.868 2.83563 -1.85411 0
M  V30 4644 C 446.427 3.3523 -1.71166 0
M  V30 4645 C 445.574 2.0846 -1.82865 0
M  V30 4646 H 448.525 0.831818 -1.35154 0
M  V30 4647 H 448.546 3.55286 -1.36205 0
M  V30 4648 H 448.058 2.57569 -2.9031 0
M  V30 4649 H 446.159 3.66167 -0.689361 0
M  V30 4650 H 446.272 4.06913 -2.52901 0
M  V30 4651 H 444.636 2.21275 -1.26132 0
M  V30 4652 H 445.419 1.84883 -2.89263 0
M  V30 4653 N 447.864 1.01787 1.20321 0
M  V30 4654 C 449.112 0.706538 1.89347 0
M  V30 4655 C 449.433 -0.766289 1.79313 0
M  V30 4656 O 448.703 -1.55126 1.19635 0
M  V30 4657 H 447.283 0.258348 0.700903 0
M  V30 4658 H 449.945 1.28974 1.46122 0
M  V30 4659 H 449.041 0.991066 2.95946 0
M  V30 4660 N 449.342 -1.36122 0.79427 0
M  V30 4661 C 450.292 -2.27373 0.169017 0
M  V30 4662 C 451.276 -1.4719 -0.649913 0
M  V30 4663 O 452.468 -1.69518 -0.50919 0
M  V30 4664 C 449.597 -3.36264 -0.691455 0
M  V30 4665 C 448.683 -4.2388 0.13653 0
M  V30 4666 N 449.074 -4.91519 1.19345 0
M  V30 4667 C 447.372 -4.45921 -0.0838499 0
M  V30 4668 C 448.073 -5.56369 1.6979 0
M  V30 4669 N 447.049 -5.34204 1.00634 0
M  V30 4670 H 450.851 -2.77154 0.977897 0
M  V30 4671 H 448.365 -1.49504 0.634208 0
M  V30 4672 H 450.362 -4.00572 -1.15534 0
M  V30 4673 H 449.022 -2.88037 -1.49883 0
M  V30 4674 H 450.033 -4.9334 1.57594 0
M  V30 4675 H 446.71 -4.08518 -0.861341 0
M  V30 4676 H 448.1 -6.20368 2.58055 0
M  V30 4677 N 450.82 -0.546701 -1.47814 0
M  V30 4678 C 451.73 0.21026 -2.33656 0
M  V30 4679 C 452.746 0.922413 -1.47538 0
M  V30 4680 O 453.922 0.893652 -1.80488 0
M  V30 4681 C 450.987 1.23348 -3.24016 0
M  V30 4682 C 450.048 0.529883 -4.26017 0
M  V30 4683 C 449.281 1.50435 -5.12059 0
M  V30 4684 O 449.504 2.73837 -5.00369 0
M  V30 4685 O 448.438 1.03459 -5.92942 0
M  V30 4686 H 452.264 -0.493605 -2.99662 0
M  V30 4687 H 449.849 -0.307427 -1.46203 0
M  V30 4688 H 451.731 1.82438 -3.79861 0
M  V30 4689 H 450.406 1.91945 -2.60651 0
M  V30 4690 H 449.313 -0.101948 -3.73961 0
M  V30 4691 H 450.646 -0.11445 -4.92067 0
M  V30 4692 N 452.299 1.55045 -0.282633 0
M  V30 4693 C 453.546 1.9976 0.33199 0
M  V30 4694 C 453.874 1.17105 1.55295 0
M  V30 4695 O 453.129 0.230599 1.94337 0
M  V30 4696 C 453.428 3.49422 0.750938 0
M  V30 4697 C 453.094 4.4941 -0.366228 0
M  V30 4698 C 451.756 4.76471 -0.672964 0
M  V30 4699 C 454.108 5.09054 -1.11864 0
M  V30 4700 C 451.436 5.60442 -1.73556 0
M  V30 4701 C 453.788 5.9418 -2.17102 0
M  V30 4702 C 452.452 6.19558 -2.48402 0
M  V30 4703 H 451.722 0.730974 0.121484 0
M  V30 4704 H 454.369 1.8732 -0.39791 0
M  V30 4705 H 452.674 3.59377 1.56063 0
M  V30 4706 H 454.371 3.81432 1.23736 0
M  V30 4707 H 450.961 4.2844 -0.117041 0
M  V30 4708 H 455.145 4.88165 -0.894925 0
M  V30 4709 H 450.401 5.78349 -1.983 0
M  V30 4710 H 454.575 6.39427 -2.75873 0
M  V30 4711 H 452.202 6.84417 -3.30874 0
M  V30 4712 N 453.777 0.010035 1.57597 0
M  V30 4713 C 455.005 -0.683413 1.95287 0
M  V30 4714 C 455.42 -1.66747 0.885481 0
M  V30 4715 O 454.777 -1.82003 -0.134629 0
M  V30 4716 C 454.828 -1.40652 3.33015 0
M  V30 4717 O 454.549 -0.461916 4.35658 0
M  V30 4718 C 456.05 -2.19356 3.85225 0
M  V30 4719 H 453.27 -0.189708 0.643624 0
M  V30 4720 H 455.814 0.0641359 2.04399 0
M  V30 4721 H 453.969 -2.10562 3.2518 0
M  V30 4722 H 454.383 -0.973215 5.15392 0
M  V30 4723 H 455.857 -2.65433 4.83993 0
M  V30 4724 H 456.334 -3.02457 3.18459 0
M  V30 4725 H 456.94 -1.54442 3.96267 0
M  V30 4726 N 455.255 -1.55392 -0.262866 0
M  V30 4727 C 456.483 -1.80513 -1.01108 0
M  V30 4728 C 456.898 -0.583533 -1.79556 0
M  V30 4729 O 456.255 0.447585 -1.76926 0
M  V30 4730 C 456.306 -3.03648 -1.96164 0
M  V30 4731 O 456.027 -4.2109 -1.20893 0
M  V30 4732 C 457.528 -3.41448 -2.82715 0
M  V30 4733 H 454.748 -0.601079 -0.298236 0
M  V30 4734 H 457.292 -2.02425 -0.290582 0
M  V30 4735 H 455.447 -2.83832 -2.63663 0
M  V30 4736 H 455.861 -4.90771 -1.85051 0
M  V30 4737 H 457.335 -4.30751 -3.45192 0
M  V30 4738 H 457.812 -2.61308 -3.53008 0
M  V30 4739 H 458.418 -3.63559 -2.20693 0
M  V30 4740 N 456.733 0.527833 -1.48498 0
M  V30 4741 C 457.663 1.64136 -1.66077 0
M  V30 4742 C 458.644 1.62286 -0.509625 0
M  V30 4743 O 459.829 1.79449 -0.742413 0
M  V30 4744 C 456.959 3.02717 -1.70234 0
M  V30 4745 C 455.913 3.19426 -2.8487 0
M  V30 4746 C 455.239 4.5909 -2.74118 0
M  V30 4747 C 456.539 3.01993 -4.26142 0
M  V30 4748 H 458.233 1.4968 -2.593 0
M  V30 4749 H 455.779 0.718654 -1.24785 0
M  V30 4750 H 457.732 3.80491 -1.8112 0
M  V30 4751 H 456.456 3.18201 -0.735911 0
M  V30 4752 H 455.115 2.4407 -2.73542 0
M  V30 4753 H 454.763 4.71413 -1.7544 0
M  V30 4754 H 454.463 4.71214 -3.51042 0
M  V30 4755 H 455.987 5.3896 -2.86974 0
M  V30 4756 H 457.401 3.69558 -4.38292 0
M  V30 4757 H 455.798 3.2561 -5.04082 0
M  V30 4758 H 456.868 1.98396 -4.42456 0
M  V30 4759 N 458.211 1.37122 0.776871 0
M  V30 4760 C 459.141 1.35164 1.90402 0
M  V30 4761 C 460.122 0.221069 1.68657 0
M  V30 4762 O 461.307 0.420642 1.8959 0
M  V30 4763 C 458.437 1.15274 3.27611 0
M  V30 4764 C 457.391 2.25289 3.63908 0
M  V30 4765 C 456.717 1.90527 4.99603 0
M  V30 4766 C 458.017 3.67446 3.71188 0
M  V30 4767 H 459.711 2.29482 1.92297 0
M  V30 4768 H 457.257 1.10465 0.923773 0
M  V30 4769 H 459.21 1.12536 4.06096 0
M  V30 4770 H 457.934 0.174102 3.26136 0
M  V30 4771 H 456.593 2.27174 2.87728 0
M  V30 4772 H 456.241 0.91206 4.94662 0
M  V30 4773 H 455.941 2.64193 5.24858 0
M  V30 4774 H 457.465 1.89367 5.80493 0
M  V30 4775 H 458.879 3.67719 4.39836 0
M  V30 4776 H 457.276 4.40123 4.07936 0
M  V30 4777 H 458.346 4.01443 2.71977 0
M  V30 4778 N 459.689 -1.00246 1.21608 0
M  V30 4779 C 460.652 -2.07233 0.979133 0
M  V30 4780 C 461.652 -1.6072 -0.0508219 0
M  V30 4781 O 462.842 -1.73196 0.186712 0
M  V30 4782 C 459.974 -3.37546 0.477016 0
M  V30 4783 H 461.167 -2.29687 1.92831 0
M  V30 4784 H 458.72 -1.17261 1.03342 0
M  V30 4785 H 459.455 -3.20773 -0.476966 0
M  V30 4786 H 459.24 -3.72638 1.21997 0
M  V30 4787 H 460.73 -4.16285 0.331181 0
M  V30 4788 N 461.167 -1.02423 -1.1978 0
M  V30 4789 C 462.077 -0.610919 -2.26506 0
M  V30 4790 C 463.093 0.355152 -1.70337 0
M  V30 4791 O 464.269 0.214195 -2.00258 0
M  V30 4792 C 461.334 0.0365921 -3.46681 0
M  V30 4793 C 460.395 -0.976389 -4.18049 0
M  V30 4794 C 459.628 -0.359683 -5.32487 0
M  V30 4795 O 459.851 0.838601 -5.64202 0
M  V30 4796 O 458.785 -1.08022 -5.92127 0
M  V30 4797 H 462.611 -1.49965 -2.64091 0
M  V30 4798 H 460.196 -0.794156 -1.26545 0
M  V30 4799 H 462.078 0.39786 -4.19518 0
M  V30 4800 H 460.753 0.899398 -3.10954 0
M  V30 4801 H 459.66 -1.38916 -3.47352 0
M  V30 4802 H 460.993 -1.80941 -4.57735 0
M  V30 4803 N 462.645 1.35699 -0.801477 0
M  V30 4804 C 463.593 2.3177 -0.196317 0
M  V30 4805 C 464.587 1.56388 0.651081 0
M  V30 4806 O 465.793 1.71557 0.544815 0
M  V30 4807 H 462.168 0.750669 -0.0447189 0
M  V30 4808 H 464.139 2.8036 -1.02181 0
M  V30 4809 C 462.888 3.41671 0.644702 0
M  V30 4810 H 462.211 3.998 0.0019921 0
M  V30 4811 H 463.651 4.11184 1.0346 0
M  V30 4812 C 462.11 2.84271 1.80808 0
M  V30 4813 O 462.64 2.77408 2.9053 0
M  V30 4814 N 460.846 2.41391 1.61799 0
M  V30 4815 H 460.393 2.47173 0.725493 0
M  V30 4816 H 460.351 2.03334 2.39797 0
M  V30 4817 N 464.123 0.554532 1.47522 0
M  V30 4818 C 465.539 0.214107 1.58157 0
M  V30 4819 C 465.739 -1.28331 1.55349 0
M  V30 4820 O 464.795 -2.06329 1.45549 0
M  V30 4821 C 466.108 0.838391 2.88776 0
M  V30 4822 C 467.656 0.809374 3.02354 0
M  V30 4823 C 468.131 1.41268 4.35669 0
M  V30 4824 N 469.622 1.37574 4.42298 0
M  V30 4825 C 470.357 1.8122 5.4401 0
M  V30 4826 N 469.853 2.3271 6.52547 0
M  V30 4827 N 471.646 1.72307 5.35039 0
M  V30 4828 H 463.797 1.52744 1.4759 0
M  V30 4829 H 466.06 0.636812 0.702264 0
M  V30 4830 H 465.766 1.89065 2.96559 0
M  V30 4831 H 465.64 0.329847 3.75755 0
M  V30 4832 H 468.027 -0.234187 2.94169 0
M  V30 4833 H 468.108 1.35565 2.16924 0
M  V30 4834 H 467.752 2.45529 4.4461 0
M  V30 4835 H 467.682 0.841871 5.19827 0
M  V30 4836 H 470.173 0.999081 3.64454 0
M  V30 4837 H 470.486 2.63944 7.26329 0
M  V30 4838 H 468.831 2.36719 6.53444 0
M  V30 4839 H 472.022 1.3186 4.49144 0
M  V30 4840 H 472.195 2.06641 6.14169 0
M  V30 4841 N 465.601 -1.54893 0.290851 0
M  V30 4842 C 467.017 -1.59476 -0.0628432 0
M  V30 4843 C 467.217 -1.30795 -1.5328 0
M  V30 4844 O 466.273 -1.07644 -2.28406 0
M  V30 4845 C 467.586 -2.98928 0.325962 0
M  V30 4846 C 469.134 -3.11799 0.273882 0
M  V30 4847 C 469.609 -4.53544 0.637359 0
M  V30 4848 N 471.1 -4.59433 0.589507 0
M  V30 4849 C 471.835 -5.67164 0.84335 0
M  V30 4850 N 471.331 -6.82975 1.16263 0
M  V30 4851 N 473.124 -5.56786 0.771091 0
M  V30 4852 H 465.275 -1.71798 1.24896 0
M  V30 4853 H 467.538 -0.801879 0.505663 0
M  V30 4854 H 467.244 -3.24805 1.34887 0
M  V30 4855 H 467.118 -3.75793 -0.325441 0
M  V30 4856 H 469.505 -2.85677 -0.739765 0
M  V30 4857 H 469.586 -2.37112 0.959766 0
M  V30 4858 H 469.23 -4.80394 1.64877 0
M  V30 4859 H 469.16 -5.26553 -0.0704866 0
M  V30 4860 H 471.651 -3.76245 0.353252 0
M  V30 4861 H 471.964 -7.61048 1.34257 0
M  V30 4862 H 470.309 -6.84552 1.20057 0
M  V30 4863 H 473.5 -4.65187 0.521383 0
M  V30 4864 H 473.673 -6.40664 0.972295 0
M  V30 4865 N 467.08 -0.0183926 -1.57589 0
M  V30 4866 C 468.028 0.985111 -2.10709 0
M  V30 4867 C 469.022 1.34397 -1.0312 0
M  V30 4868 O 470.228 1.32746 -1.21567 0
M  V30 4869 H 466.603 0.335418 -0.673052 0
M  V30 4870 H 468.574 0.511689 -2.9398 0
M  V30 4871 C 467.323 2.26202 -2.64061 0
M  V30 4872 H 466.646 1.9946 -3.4649 0
M  V30 4873 H 468.086 2.94652 -3.04887 0
M  V30 4874 C 466.545 2.98444 -1.5631 0
M  V30 4875 O 467.075 3.90142 -0.956674 0
M  V30 4876 N 465.281 2.6059 -1.28612 0
M  V30 4877 H 464.828 1.86101 -1.78112 0
M  V30 4878 H 464.786 3.09238 -0.567406 0
M  V30 4879 N 468.558 1.5553 0.254621 0
M  V30 4880 C 469.806 1.7665 0.981793 0
M  V30 4881 C 470.127 0.580963 1.86145 0
M  V30 4882 O 469.397 -0.403537 1.91699 0
M  V30 4883 H 467.977 0.651475 0.365498 0
M  V30 4884 H 470.639 1.92958 0.274426 0
M  V30 4885 H 469.735 2.67486 1.60802 0
M  V30 4886 N 470.036 -0.519951 1.48776 0
M  V30 4887 C 471.285 -1.27175 1.56555 0
M  V30 4888 C 471.598 -1.9401 0.248869 0
M  V30 4889 O 472.804 -2.70725 0.205004 0
M  V30 4890 C 471.26 -2.30811 2.76142 0
M  V30 4891 C 470.868 -1.7 4.14493 0
M  V30 4892 C 472.612 -3.06937 2.9324 0
M  V30 4893 C 470.519 -2.71635 5.25327 0
M  V30 4894 H 469.449 -0.478329 0.582853 0
M  V30 4895 H 472.1 -0.547916 1.75129 0
M  V30 4896 H 470.482 -3.06274 2.51023 0
M  V30 4897 H 471.656 -1.00658 4.49672 0
M  V30 4898 H 469.971 -1.06331 4.02595 0
M  V30 4899 H 472.568 -3.82905 3.73213 0
M  V30 4900 H 472.911 -3.63409 2.03075 0
M  V30 4901 H 473.444 -2.38589 3.18308 0
M  V30 4902 H 470.183 -2.1997 6.1749 0
M  V30 4903 H 469.703 -3.39275 4.94624 0
M  V30 4904 H 471.382 -3.34429 5.53865 0
M  V30 4905 N 471.514 -1.37532 -0.769588 0
M  V30 4906 C 472.742 -1.36059 -1.55871 0
M  V30 4907 C 473.157 0.053544 -1.88724 0
M  V30 4908 O 472.514 1.01591 -1.5161 0
M  V30 4909 C 472.565 -2.20107 -2.86767 0
M  V30 4910 O 472.286 -3.56009 -2.55321 0
M  V30 4911 C 473.787 -2.26636 -3.80987 0
M  V30 4912 H 471.007 -0.465967 -0.482821 0
M  V30 4913 H 473.551 -1.80901 -0.953686 0
M  V30 4914 H 471.706 -1.78768 -3.43687 0
M  V30 4915 H 472.12 -4.0009 -3.39158 0
M  V30 4916 H 473.594 -2.89763 -4.69831 0
M  V30 4917 H 474.071 -1.2754 -4.20274 0
M  V30 4918 H 474.677 -2.68296 -3.29996 0
M  V30 4919 N 472.992 0.995999 -1.22138 0
M  V30 4920 C 474.238 1.73767 -1.04561 0
M  V30 4921 C 474.571 1.89633 0.418698 0
M  V30 4922 O 473.846 1.43723 1.3105 0
M  V30 4923 C 474.129 3.14505 -1.75382 0
M  V30 4924 C 473.982 3.06306 -3.29388 0
M  V30 4925 C 475.301 4.13615 -1.50369 0
M  V30 4926 H 472.42 0.630728 -0.38125 0
M  V30 4927 H 475.062 1.16057 -1.50435 0
M  V30 4928 H 473.212 3.63775 -1.36383 0
M  V30 4929 H 474.884 2.64681 -3.77812 0
M  V30 4930 H 473.127 2.43186 -3.59226 0
M  V30 4931 H 473.798 4.05884 -3.74116 0
M  V30 4932 H 476.274 3.73089 -1.84239 0
M  V30 4933 H 475.15 5.10212 -2.02421 0
M  V30 4934 H 475.411 4.39949 -0.435611 0
M  V30 4935 N 474.47 1.03057 1.19235 0
M  V30 4936 C 475.747 0.642608 1.84743 0
M  V30 4937 C 476.127 -0.878577 1.91948 0
M  V30 4938 O 475.475 -1.77597 1.43776 0
M  V30 4939 C 475.685 1.30665 3.23616 0
M  V30 4940 C 477.033 1.43098 3.9976 0
M  V30 4941 O 478.057 1.26396 3.3302 0
M  V30 4942 O 476.916 1.70223 5.19313 0
M  V30 4943 H 474.01 0.223573 0.796206 0
M  V30 4944 H 476.556 1.12883 1.26711 0
M  V30 4945 H 475.328 2.34544 3.13217 0
M  V30 4946 H 474.951 0.808405 3.89295 0
M  V30 4947 N 475.948 -1.35272 0.808662 0
M  V30 4948 C 477.225 -1.93077 0.313181 0
M  V30 4949 C 477.605 -1.73847 -1.19752 0
M  V30 4950 O 476.953 -1.1087 -1.998 0
M  V30 4951 C 477.163 -3.41347 0.726859 0
M  V30 4952 C 478.511 -4.18493 0.717532 0
M  V30 4953 O 479.535 -3.4987 0.668535 0
M  V30 4954 O 478.394 -5.40937 0.777779 0
M  V30 4955 H 475.488 -0.822885 0.0824018 0
M  V30 4956 H 478.034 -1.44335 0.892499 0
M  V30 4957 H 476.806 -3.49082 1.76797 0
M  V30 4958 H 476.429 -3.97411 0.122461 0
M  V30 4959 N 477.426 -0.562348 -1.47226 0
M  V30 4960 C 478.651 -0.0432632 -2.07355 0
M  V30 4961 C 479.076 1.24332 -1.41149 0
M  V30 4962 O 478.434 1.74603 -0.488226 0
M  V30 4963 C 478.482 0.130288 -3.60365 0
M  V30 4964 O 477.586 1.19166 -3.94808 0
M  V30 4965 H 476.927 -0.0536334 -0.66183 0
M  V30 4966 H 479.457 -0.779495 -1.89169 0
M  V30 4967 H 479.467 0.342881 -4.06557 0
M  V30 4968 H 478.142 -0.809389 -4.07948 0
M  V30 4969 H 476.719 0.959153 -3.60354 0
M  V30 4970 N 478.904 1.54736 -0.299062 0
M  V30 4971 C 480.15 2.00397 0.311244 0
M  V30 4972 C 480.483 1.18716 1.53688 0
M  V30 4973 O 479.758 0.263154 1.92712 0
M  V30 4974 C 480.041 3.53817 0.669761 0
M  V30 4975 C 479.894 4.46239 -0.564882 0
M  V30 4976 C 481.213 4.13856 1.49702 0
M  V30 4977 H 478.332 0.728493 0.111653 0
M  V30 4978 H 480.974 1.85506 -0.410774 0
M  V30 4979 H 479.124 3.66637 1.28491 0
M  V30 4980 H 480.796 4.45328 -1.20337 0
M  V30 4981 H 479.039 4.16916 -1.19849 0
M  V30 4982 H 479.71 5.5134 -0.269918 0
M  V30 4983 H 482.186 4.04461 0.977284 0
M  V30 4984 H 481.062 5.21365 1.71666 0
M  V30 4985 H 481.323 3.65608 2.48563 0
M  V30 4986 N 480.382 0.0267497 1.57577 0
M  V30 4987 C 481.628 -0.647596 1.92815 0
M  V30 4988 C 481.983 -1.69872 0.903396 0
M  V30 4989 O 481.276 -1.91429 -0.0808881 0
M  V30 4990 C 481.47 -1.30914 3.3256 0
M  V30 4991 C 481.299 -0.323621 4.48534 0
M  V30 4992 C 480.069 0.0756607 5.05243 0
M  V30 4993 C 482.267 0.42112 5.12573 0
M  V30 4994 N 480.249 1.0566 6.04739 0
M  V30 4995 C 481.62 1.25589 6.07147 0
M  V30 4996 C 483.675 0.482077 4.95561 0
M  V30 4997 C 482.378 2.1461 6.86538 0
M  V30 4998 C 484.404 1.35962 5.75559 0
M  V30 4999 C 483.766 2.18217 6.69747 0
M  V30 5000 H 479.865 -0.209357 0.753454 0
M  V30 5001 H 482.449 0.0933695 1.94476 0
M  V30 5002 H 480.62 -2.02026 3.31723 0
M  V30 5003 H 482.352 -1.94033 3.55153 0
M  V30 5004 H 479.107 -0.298294 4.7266 0
M  V30 5005 H 479.531 1.54324 6.59176 0
M  V30 5006 H 484.173 -0.139609 4.22569 0
M  V30 5007 H 481.891 2.77835 7.58837 0
M  V30 5008 H 485.477 1.41105 5.6443 0
M  V30 5009 H 484.357 2.85022 7.3057 0
M  V30 5010 N 481.861 -1.55662 -0.24637 0
M  V30 5011 C 482.824 -1.89558 -1.28842 0
M  V30 5012 C 483.824 -0.772082 -1.41052 0
M  V30 5013 O 485.014 -1.04007 -1.39743 0
M  V30 5014 C 482.146 -2.12449 -2.66605 0
M  V30 5015 H 483.339 -2.82735 -1.00004 0
M  V30 5016 H 480.892 -1.48562 -0.485684 0
M  V30 5017 H 481.627 -1.21742 -3.00582 0
M  V30 5018 H 481.412 -2.94273 -2.59125 0
M  V30 5019 H 482.902 -2.39854 -3.41847 0
M  V30 5020 N 483.339 0.512053 -1.4905 0
M  V30 5021 C 484.286 1.6148 -1.64902 0
M  V30 5022 C 485.256 1.58687 -0.490673 0
M  V30 5023 O 486.441 1.76842 -0.71636 0
M  V30 5024 C 483.581 2.99676 -1.71139 0
M  V30 5025 C 482.694 3.12568 -2.98203 0
M  V30 5026 C 481.829 4.4143 -2.95487 0
M  V30 5027 C 480.868 4.47916 -4.17179 0
M  V30 5028 N 480.005 5.68191 -4.12437 0
M  V30 5029 H 484.845 1.47271 -2.59066 0
M  V30 5030 H 482.382 0.716713 -1.28459 0
M  V30 5031 H 484.34 3.79761 -1.72736 0
M  V30 5032 H 482.97 3.12614 -0.804508 0
M  V30 5033 H 482.022 2.25618 -3.06269 0
M  V30 5034 H 483.334 3.1322 -3.88194 0
M  V30 5035 H 482.488 5.29825 -2.95585 0
M  V30 5036 H 481.227 4.43326 -2.03256 0
M  V30 5037 H 480.232 3.57925 -4.17337 0
M  V30 5038 H 481.457 4.47744 -5.1059 0
M  V30 5039 H 479.403 5.7095 -3.23036 0
M  V30 5040 H 479.32 5.70413 -4.96151 0
M  V30 5041 H 480.588 6.58823 -4.16621 0
M  V30 5042 N 484.817 1.37938 0.762283 0
M  V30 5043 C 486.066 1.32989 1.51647 0
M  V30 5044 C 486.379 -0.0802922 1.95435 0
M  V30 5045 O 487.585 -0.252295 2.70325 0
M  V30 5046 C 486.041 2.33485 2.73885 0
M  V30 5047 C 485.649 3.80079 2.37157 0
M  V30 5048 C 487.393 2.37563 3.51801 0
M  V30 5049 C 485.3 4.72283 3.55954 0
M  V30 5050 H 484.23 0.494301 0.56937 0
M  V30 5051 H 486.881 1.63448 0.834083 0
M  V30 5052 H 485.263 1.96056 3.44061 0
M  V30 5053 H 486.437 4.26398 1.74704 0
M  V30 5054 H 484.752 3.79037 1.72395 0
M  V30 5055 H 487.349 3.0365 4.40114 0
M  V30 5056 H 487.692 1.39199 3.92338 0
M  V30 5057 H 488.225 2.73747 2.8863 0
M  V30 5058 H 484.964 5.7181 3.2049 0
M  V30 5059 H 484.484 4.30663 4.1748 0
M  V30 5060 H 486.163 4.89876 4.22647 0
M  V30 5061 N 486.295 -0.989507 1.22664 0
M  V30 5062 C 487.227 -2.0824 0.957542 0
M  V30 5063 C 488.24 -1.6267 -0.0651098 0
M  V30 5064 O 489.429 -1.77695 0.169312 0
M  V30 5065 C 486.529 -3.36298 0.419145 0
M  V30 5066 C 485.702 -4.10882 1.49982 0
M  V30 5067 C 484.761 -5.17221 0.967904 0
M  V30 5068 O 483.787 -5.44613 1.65487 0
M  V30 5069 N 484.989 -5.80124 -0.20896 0
M  V30 5070 H 487.754 -2.31904 1.89843 0
M  V30 5071 H 485.315 -1.15552 1.13399 0
M  V30 5072 H 487.307 -4.04671 0.0485451 0
M  V30 5073 H 485.877 -3.09671 -0.426937 0
M  V30 5074 H 485.097 -3.37092 2.04359 0
M  V30 5075 H 486.385 -4.57482 2.22682 0
M  V30 5076 H 485.783 -5.60244 -0.783818 0
M  V30 5077 H 484.34 -6.49715 -0.520913 0
M  V30 5078 N 487.773 -1.03688 -1.18687 0
M  V30 5079 C 488.736 -0.629115 -2.20397 0
M  V30 5080 C 489.736 0.311495 -1.57754 0
M  V30 5081 O 490.926 0.0974107 -1.73927 0
M  V30 5082 C 488.058 0.0782231 -3.4081 0
M  V30 5083 H 489.251 -1.52915 -2.57987 0
M  V30 5084 H 486.804 -0.828988 -1.32505 0
M  V30 5085 H 487.539 0.992233 -3.08748 0
M  V30 5086 H 487.324 -0.597776 -3.87517 0
M  V30 5087 H 488.814 0.350156 -4.16129 0
M  V30 5088 N 489.251 1.34841 -0.815825 0
M  V30 5089 C 490.181 2.32187 -0.247298 0
M  V30 5090 C 491.162 1.5791 0.632344 0
M  V30 5091 O 492.347 1.8593 0.560698 0
M  V30 5092 C 489.477 3.42122 0.597466 0
M  V30 5093 C 488.431 4.27602 -0.184446 0
M  V30 5094 C 487.757 5.28942 0.782609 0
M  V30 5095 C 489.057 5.03502 -1.38865 0
M  V30 5096 H 490.751 2.79985 -1.06061 0
M  V30 5097 H 488.297 1.34611 -0.511461 0
M  V30 5098 H 490.25 4.09232 1.00533 0
M  V30 5099 H 488.974 2.92956 1.44376 0
M  V30 5100 H 487.633 3.62085 -0.573592 0
M  V30 5101 H 487.281 4.7604 1.62466 0
M  V30 5102 H 486.981 5.87008 0.263695 0
M  V30 5103 H 488.505 5.98922 1.18848 0
M  V30 5104 H 489.919 5.63506 -1.05518 0
M  V30 5105 H 488.316 5.71108 -1.8427 0
M  V30 5106 H 489.386 4.33608 -2.17054 0
M  V30 5107 O 490.768 0.711044 1.45005 0
M  V30 5108 H 491.459 0.254759 1.92017 0
M  V30 END ATOM
M  V30 BEGIN BOND
M  V30 END BOND
M  V30 END CTAB
M  END
$$$$
