drugbank_target|P37747 UDP-galactopyranose mutase (DB03147)
 OpenBabel12092119583D

  0  0  0     0  0            999 V3000
M  V30 BEGIN CTAB
M  V30 COUNTS 6019 6098 0 0 0
M  V30 BEGIN ATOM
M  V30 1 H -0.908 1.98254 -0.117106 0
M  V30 2 N 0 1.576 0 0
M  V30 3 C 0.933 2.03868 1.02534 0
M  V30 4 C 1.911 0.928543 1.3348 0
M  V30 5 O 3.095 1.19667 1.45644 0
M  V30 6 C 0.222 2.43627 2.35294 0
M  V30 7 C -0.732 3.65373 2.2001 0
M  V30 8 S 0.101 5.13292 1.52614 0
M  V30 9 C 1.257 5.56322 2.86805 0
M  V30 10 H 1.49 2.90518 0.631377 0
M  V30 11 H -0.977 1.52953 0.210867 0
M  V30 12 H 0.981 2.67203 3.11629 0
M  V30 13 H -0.358 1.57376 2.7183 0
M  V30 14 H -1.165 3.90944 3.18086 0
M  V30 15 H -1.563 3.418 1.51819 0
M  V30 16 H 0.729 5.58782 3.83104 0
M  V30 17 H 1.672 6.56266 2.65933 0
M  V30 18 H 2.08 4.83886 2.90714 0
M  V30 19 N 1.4781 -0.272755 1.55222 0
M  V30 20 C 2.7081 -1.02107 1.79604 0
M  V30 21 C 3.1161 -1.80419 0.569693 0
M  V30 22 O 2.4591 -1.77566 -0.470743 0
M  V30 23 C 2.5211 -2.02675 2.96922 0
M  V30 24 C 2.1851 -1.43299 4.33952 0
M  V30 25 C 3.1821 -0.84853 5.12929 0
M  V30 26 C 0.8671 -1.46012 4.8061 0
M  V30 27 C 2.8611 -0.299109 6.36698 0
M  V30 28 C 0.5481 -0.906833 6.04334 0
M  V30 29 C 1.5461 -0.32733 6.82215 0
M  V30 30 O 1.2341 0.217479 8.03606 0
M  V30 31 H 0.9661 -0.307322 0.602104 0
M  V30 32 H 3.5201 -0.308862 2.03065 0
M  V30 33 H 1.7501 -2.77656 2.69155 0
M  V30 34 H 3.4391 -2.63637 3.08626 0
M  V30 35 H 4.2051 -0.820265 4.78013 0
M  V30 36 H 0.0841 -1.90056 4.2 0
M  V30 37 H 3.6281 0.153852 6.9743 0
M  V30 38 H -0.4749 -0.932339 6.38731 0
M  V30 39 H 0.2931 0.106863 8.1843 0
M  V30 40 N 2.9562 -1.48159 -0.537278 0
M  V30 41 C 4.2332 -1.46291 -1.29839 0
M  V30 42 C 4.6132 -0.170613 -2.10409 0
M  V30 43 O 3.9612 0.847746 -2.12192 0
M  V30 44 C 4.1712 -2.72055 -2.18603 0
M  V30 45 C 5.5192 -3.20087 -2.7898 0
M  V30 46 O 6.5432 -2.72921 -2.28894 0
M  V30 47 O 5.4022 -4.02138 -3.70064 0
M  V30 48 H 2.4962 -0.583906 -0.585647 0
M  V30 49 H 5.0422 -1.60384 -0.554534 0
M  V30 50 H 3.8142 -3.57628 -1.58801 0
M  V30 51 H 3.4372 -2.60646 -3.00249 0
M  V30 52 N 4.4343 0.785586 -1.36625 0
M  V30 53 C 5.6643 1.5722 -1.34036 0
M  V30 54 C 6.0723 1.89033 0.0795062 0
M  V30 55 O 5.4153 1.50881 1.04789 0
M  V30 56 C 5.4773 2.91759 -2.10041 0
M  V30 57 C 5.1413 2.82654 -3.59104 0
M  V30 58 C 6.1383 2.54634 -4.53274 0
M  V30 59 C 3.8233 3.01111 -4.02042 0
M  V30 60 C 5.8173 2.45177 -5.88359 0
M  V30 61 C 3.5043 2.91276 -5.37216 0
M  V30 62 C 4.5023 2.63348 -6.30188 0
M  V30 63 O 4.1903 2.53514 -7.6288 0
M  V30 64 H 3.9223 0.494177 -0.461265 0
M  V30 65 H 6.4763 0.982632 -1.8037 0
M  V30 66 H 4.7063 3.52781 -1.58375 0
M  V30 67 H 6.3953 3.53059 -2.00261 0
M  V30 68 H 7.1613 2.40073 -4.21414 0
M  V30 69 H 3.0403 3.21854 -3.30047 0
M  V30 70 H 6.5843 2.23299 -6.60896 0
M  V30 71 H 2.4813 3.054 -5.68684 0
M  V30 72 H 3.2493 2.68967 -7.73045 0
M  V30 73 N 5.9124 1.20967 1.01018 0
M  V30 74 C 7.1614 1.01796 1.74128 0
M  V30 75 C 7.4744 -0.449691 1.90361 0
M  V30 76 O 8.6804 -0.76068 2.60626 0
M  V30 77 C 7.1364 1.7727 3.13215 0
M  V30 78 C 6.7444 3.28171 3.04972 0
M  V30 79 C 8.4884 1.66489 3.90489 0
M  V30 80 C 6.3954 3.96156 4.39107 0
M  V30 81 H 5.3254 0.377276 0.652824 0
M  V30 82 H 7.9764 1.44651 1.12909 0
M  V30 83 H 6.3584 1.27205 3.75013 0
M  V30 84 H 7.5324 3.85499 2.52443 0
M  V30 85 H 5.8474 3.39437 2.41188 0
M  V30 86 H 8.4444 2.14617 4.89738 0
M  V30 87 H 8.7874 0.6222 4.11624 0
M  V30 88 H 9.3204 2.14003 3.35332 0
M  V30 89 H 6.0594 5.00604 4.23174 0
M  V30 90 H 5.5794 3.43617 4.91617 0
M  V30 91 H 7.2584 4.00774 5.07926 0
M  V30 92 N 7.3905 -1.2043 1.01659 0
M  V30 93 C 8.6395 -1.89118 0.701237 0
M  V30 94 C 8.9525 -1.79705 -0.772358 0
M  V30 95 O 10.1585 -2.43528 -1.20026 0
M  V30 96 C 8.6145 -3.39168 1.20388 0
M  V30 97 C 8.2225 -3.57166 2.70438 0
M  V30 98 C 9.9665 -4.1341 0.963953 0
M  V30 99 C 7.8735 -5.01042 3.14183 0
M  V30 100 H 6.8035 -0.708267 0.2586 0
M  V30 101 H 9.4545 -1.36239 1.22927 0
M  V30 102 H 7.8365 -3.91369 0.603824 0
M  V30 103 H 9.0105 -3.15351 3.35992 0
M  V30 104 H 7.3255 -2.96294 2.92572 0
M  V30 105 H 9.9225 -5.19491 1.26621 0
M  V30 106 H 10.2655 -4.16181 -0.099578 0
M  V30 107 H 10.7985 -3.67309 1.52738 0
M  V30 108 H 7.5375 -5.03426 4.19812 0
M  V30 109 H 7.0575 -5.43668 2.53348 0
M  V30 110 H 8.7365 -5.69623 3.0682 0
M  V30 111 N 8.8686 -0.792821 -1.36206 0
M  V30 112 C 10.1146 -0.36733 -1.99446 0
M  V30 113 C 10.4476 1.05917 -1.62774 0
M  V30 114 O 9.7226 1.7324 -0.88421 0
M  V30 115 C 10.0056 -0.535044 -3.56103 0
M  V30 116 C 9.8586 -2.00548 -4.02617 0
M  V30 117 C 11.1776 0.0478191 -4.40074 0
M  V30 118 H 8.2966 -0.134941 -0.724541 0
M  V30 119 H 10.9386 -0.999794 -1.61568 0
M  V30 120 H 9.0886 0.00336329 -3.885 0
M  V30 121 H 10.7606 -2.60521 -3.80692 0
M  V30 122 H 9.0036 -2.50686 -3.54032 0
M  V30 123 H 9.6746 -2.07377 -5.11565 0
M  V30 124 H 12.1506 -0.411822 -4.14057 0
M  V30 125 H 11.0266 -0.0995336 -5.4881 0
M  V30 126 H 11.2876 1.14025 -4.27142 0
M  V30 127 N 10.3467 1.47872 -0.545128 0
M  V30 128 C 11.5947 2.02093 -0.016553 0
M  V30 129 C 11.9157 1.42305 1.3332 0
M  V30 130 O 11.1857 0.593853 1.86682 0
M  V30 131 H 9.7657 0.746993 -0.00313038 0
M  V30 132 H 12.4277 1.81414 -0.712397 0
M  V30 133 H 11.5237 3.11996 0.0805422 0
M  V30 134 N 11.8248 0.280983 1.55075 0
M  V30 135 C 13.0498 -0.340154 2.04592 0
M  V30 136 C 13.4748 -1.48246 1.15779 0
M  V30 137 O 12.8328 -1.80614 0.15761 0
M  V30 138 C 12.8808 -0.793104 3.5177 0
M  V30 139 O 11.9848 -1.89981 3.66034 0
M  V30 140 H 11.3258 -0.0694289 0.66036 0
M  V30 141 H 13.8558 0.416993 2.00306 0
M  V30 142 H 13.8658 -1.08729 3.93245 0
M  V30 143 H 12.5408 0.0426163 4.15878 0
M  V30 144 H 11.1178 -1.60771 3.36463 0
M  V30 145 N 13.3029 -1.57598 0.00835791 0
M  V30 146 C 14.5509 -1.90551 -0.6734 0
M  V30 147 C 14.8719 -0.883301 -1.73847 0
M  V30 148 O 14.1419 0.0781442 -1.95744 0
M  V30 149 H 12.7219 -0.703312 -0.251717 0
M  V30 150 H 15.3839 -1.94833 0.0512592 0
M  V30 151 H 14.4799 -2.9056 -1.13935 0
M  V30 152 N 14.781 0.264519 -1.55364 0
M  V30 153 C 15.711 1.33121 -1.91836 0
M  V30 154 C 16.692 1.51101 -0.781192 0
M  V30 155 O 17.877 1.64003 -1.04003 0
M  V30 156 C 15.007 2.68921 -2.19769 0
M  V30 157 C 13.961 2.65661 -3.35571 0
M  V30 158 C 13.287 4.05093 -3.49004 0
M  V30 159 C 14.587 2.24187 -4.71739 0
M  V30 160 H 16.281 1.02844 -2.81182 0
M  V30 161 H 13.827 0.493286 -1.35287 0
M  V30 162 H 15.78 3.43663 -2.43872 0
M  V30 163 H 14.504 3.00799 -1.27231 0
M  V30 164 H 13.163 1.93377 -3.1145 0
M  V30 165 H 12.811 4.34206 -2.53917 0
M  V30 166 H 12.511 4.03804 -4.26868 0
M  V30 167 H 14.035 4.81561 -3.75408 0
M  V30 168 H 15.449 2.88654 -4.9533 0
M  V30 169 H 13.846 2.34044 -5.52579 0
M  V30 170 H 14.916 1.19327 -4.69988 0
M  V30 171 N 16.2591 1.48442 0.529413 0
M  V30 172 C 17.5061 1.56488 1.28521 0
M  V30 173 C 17.8341 0.239042 1.93025 0
M  V30 174 O 17.0891 -0.770713 1.79885 0
M  V30 175 C 17.3881 2.6523 2.39558 0
M  V30 176 C 17.0541 4.07648 1.92702 0
M  V30 177 C 15.7161 4.46411 1.79641 0
M  V30 178 C 18.0681 4.96896 1.573 0
M  V30 179 C 15.3961 5.72226 1.29514 0
M  V30 180 C 17.7481 6.23202 1.08636 0
M  V30 181 C 16.4121 6.60821 0.941919 0
M  V30 182 H 15.6821 0.572631 0.470292 0
M  V30 183 H 18.3291 1.82161 0.59072 0
M  V30 184 H 16.6341 2.33419 3.14679 0
M  V30 185 H 18.3311 2.68671 2.97686 0
M  V30 186 H 14.9211 3.77036 2.03819 0
M  V30 187 H 19.1051 4.67626 1.66251 0
M  V30 188 H 14.3611 6.00097 1.17019 0
M  V30 189 H 18.5351 6.91753 0.803136 0
M  V30 190 H 16.1621 7.58198 0.5513 0
M  V30 191 N 17.7372 -0.778329 1.37039 0
M  V30 192 C 18.9852 -1.53361 1.31623 0
M  V30 193 C 19.3062 -1.94739 -0.100831 0
M  V30 194 O 18.5762 -1.65797 -1.04347 0
M  V30 195 H 17.1562 -0.568794 0.484234 0
M  V30 196 H 19.8182 -0.926742 1.71457 0
M  V30 197 H 18.9142 -2.43606 1.95096 0
M  V30 198 N 19.2153 -1.21501 -1.00376 0
M  V30 199 C 20.1783 -0.976927 -2.07337 0
M  V30 200 C 21.1783 0.0525322 -1.60714 0
M  V30 201 O 22.3683 -0.184869 -1.73216 0
M  V30 202 C 19.5003 -0.473423 -3.37597 0
M  V30 203 H 20.6933 -1.92587 -2.29892 0
M  V30 204 H 18.2463 -1.03217 -1.17371 0
M  V30 205 H 18.9813 0.480379 -3.20722 0
M  V30 206 H 18.7663 -1.216 -3.72768 0
M  V30 207 H 20.2563 -0.32675 -4.1632 0
M  V30 208 N 20.6934 1.19889 -1.02296 0
M  V30 209 C 21.9394 1.89701 -0.717033 0
M  V30 210 C 22.2724 1.7905 0.751989 0
M  V30 211 O 21.5474 1.17891 1.547 0
M  V30 212 C 21.8304 3.40858 -1.16136 0
M  V30 213 C 21.6834 3.60411 -2.69117 0
M  V30 214 C 23.0024 4.33876 -0.737549 0
M  V30 215 H 20.1214 0.688874 -0.261957 0
M  V30 216 H 22.7634 1.41154 -1.27183 0
M  V30 217 H 20.9134 3.82335 -0.689342 0
M  V30 218 H 22.5854 3.28145 -3.2422 0
M  V30 219 H 20.8284 3.03665 -3.0979 0
M  V30 220 H 21.4994 4.66396 -2.95261 0
M  V30 221 H 23.9754 4.00081 -1.14344 0
M  V30 222 H 22.8514 5.38242 -1.0764 0
M  V30 223 H 23.1124 4.40628 0.360436 0
M  V30 224 N 22.1715 0.800033 1.35784 0
M  V30 225 C 23.4115 0.382891 2.00782 0
M  V30 226 C 23.7755 -1.02891 1.62103 0
M  V30 227 O 24.9765 -1.54771 2.19771 0
M  V30 228 C 23.2475 0.553299 3.53091 0
M  V30 229 S 24.8065 0.225608 4.3822 0
M  V30 230 H 21.6245 0.145737 0.695904 0
M  V30 231 H 24.2265 1.04085 1.65489 0
M  V30 232 H 22.9305 1.58091 3.78729 0
M  V30 233 H 22.4615 -0.120214 3.93216 0
M  V30 234 H 24.4765 -0.969074 4.86645 0
M  V30 235 N 23.6496 -1.47581 0.552962 0
M  V30 236 C 24.6126 -2.28439 -0.186605 0
M  V30 237 C 25.6126 -1.36706 -0.84665 0
M  V30 238 O 26.8026 -1.59378 -0.703164 0
M  V30 239 C 23.9346 -3.16264 -1.2724 0
M  V30 240 H 25.1276 -2.95294 0.523609 0
M  V30 241 H 22.6806 -1.532 0.309745 0
M  V30 242 H 23.4156 -2.54091 -2.01514 0
M  V30 243 H 23.2006 -3.83769 -0.803968 0
M  V30 244 H 24.6906 -3.77198 -1.79196 0
M  V30 245 N 25.1277 -0.289203 -1.54924 0
M  V30 246 C 26.0757 0.607966 -2.24514 0
M  V30 247 C 27.0697 1.14655 -1.24702 0
M  V30 248 O 28.2757 1.09856 -1.4259 0
M  V30 249 H 24.6507 0.21464 -0.720718 0
M  V30 250 H 26.6217 -0.00164182 -2.984 0
M  V30 251 C 25.3707 1.77406 -2.99036 0
M  V30 252 H 24.6937 1.36884 -3.75637 0
M  V30 253 H 26.1337 2.37814 -3.51028 0
M  V30 254 C 24.5927 2.67107 -2.05318 0
M  V30 255 O 25.1227 3.6787 -1.61353 0
M  V30 256 N 23.3287 2.34582 -1.71521 0
M  V30 257 H 22.8757 1.52688 -2.07471 0
M  V30 258 H 22.8337 2.94867 -1.0909 0
M  V30 259 N 26.6058 1.57591 -0.0167156 0
M  V30 260 C 27.5158 2.1291 0.98521 0
M  V30 261 C 28.5318 1.07834 1.36557 0
M  V30 262 O 29.7078 1.39826 1.44951 0
M  V30 263 C 26.7728 2.63512 2.25305 0
M  V30 264 C 25.8338 3.83256 1.93426 0
M  V30 265 C 25.0668 4.31435 3.14165 0
M  V30 266 O 25.2898 3.78851 4.26413 0
M  V30 267 O 24.2238 5.23416 2.97186 0
M  V30 268 H 28.0498 2.98772 0.544888 0
M  V30 269 H 25.6348 1.48012 0.203141 0
M  V30 270 H 27.5168 2.96183 2.99756 0
M  V30 271 H 26.1918 1.8074 2.68542 0
M  V30 272 H 25.0988 3.55531 1.16398 0
M  V30 273 H 26.4318 4.67153 1.55013 0
M  V30 274 N 28.0839 -0.256276 1.55502 0
M  V30 275 C 29.0139 -1.32102 1.92539 0
M  V30 276 C 29.9949 -1.50684 0.789194 0
M  V30 277 O 31.1799 -1.63449 1.04872 0
M  V30 278 C 28.3099 -2.67752 2.21192 0
M  V30 279 C 27.2639 -2.63878 3.36975 0
M  V30 280 C 26.5899 -4.03236 3.51147 0
M  V30 281 C 27.8899 -2.21682 4.72921 0
M  V30 282 H 29.5839 -1.01351 2.81724 0
M  V30 283 H 27.1299 -0.486105 1.35547 0
M  V30 284 H 29.0829 -3.42365 2.45691 0
M  V30 285 H 27.8069 -3.0012 1.28824 0
M  V30 286 H 26.4659 -1.91722 3.12471 0
M  V30 287 H 26.1139 -4.32854 2.56216 0
M  V30 288 H 25.8139 -4.01535 4.29003 0
M  V30 289 H 27.3379 -4.79563 3.77957 0
M  V30 290 H 28.7519 -2.86023 4.96854 0
M  V30 291 H 27.1489 -2.3111 5.53812 0
M  V30 292 H 28.2189 -1.16833 4.70615 0
M  V30 293 N 29.562 -1.4872 -0.521534 0
M  V30 294 C 30.509 -1.63871 -1.62527 0
M  V30 295 C 31.479 -0.480559 -1.58996 0
M  V30 296 O 32.664 -0.705085 -1.77294 0
M  V30 297 C 29.804 -1.69227 -3.00759 0
M  V30 298 C 28.917 -2.96207 -3.14461 0
M  V30 299 C 28.052 -2.92671 -4.43303 0
M  V30 300 C 27.091 -4.14318 -4.50563 0
M  V30 301 N 26.228 -4.0881 -5.70805 0
M  V30 302 H 31.068 -2.58123 -1.48918 0
M  V30 303 H 28.605 -1.28 -0.724878 0
M  V30 304 H 30.563 -1.70314 -3.80853 0
M  V30 305 H 29.193 -0.784586 -3.1312 0
M  V30 306 H 28.245 -3.04826 -2.27564 0
M  V30 307 H 29.557 -3.86192 -3.15686 0
M  V30 308 H 28.711 -2.92206 -5.31696 0
M  V30 309 H 27.45 -2.00429 -4.44612 0
M  V30 310 H 26.455 -4.15049 -3.60575 0
M  V30 311 H 27.68 -5.07729 -4.50986 0
M  V30 312 H 25.626 -3.19394 -5.72995 0
M  V30 313 H 25.543 -4.92509 -5.7356 0
M  V30 314 H 26.811 -4.12418 -6.61462 0
M  V30 315 N 31.0401 0.771051 -1.3745 0
M  V30 316 C 31.9871 1.88435 -1.3327 0
M  V30 317 C 32.9571 1.64914 -0.198136 0
M  V30 318 O 34.1421 1.86821 -0.387606 0
M  V30 319 C 31.2821 3.25509 -1.14622 0
M  V30 320 C 30.3951 3.60979 -2.37314 0
M  V30 321 C 29.5301 4.87265 -2.11533 0
M  V30 322 C 28.5691 5.15469 -3.30088 0
M  V30 323 N 27.7061 6.32944 -3.03853 0
M  V30 324 H 32.5461 1.91344 -2.28455 0
M  V30 325 H 30.0831 0.935466 -1.13523 0
M  V30 326 H 32.0411 4.04582 -1.01831 0
M  V30 327 H 30.6711 3.21974 -0.230837 0
M  V30 328 H 29.7231 2.76885 -2.60842 0
M  V30 329 H 31.0351 3.77759 -3.25729 0
M  V30 330 H 30.1891 5.74244 -1.95777 0
M  V30 331 H 28.9281 4.7259 -1.20457 0
M  V30 332 H 27.9331 4.26966 -3.46382 0
M  V30 333 H 29.1581 5.32052 -4.22016 0
M  V30 334 H 27.1041 6.19625 -2.15407 0
M  V30 335 H 27.0211 6.50143 -3.85812 0
M  V30 336 H 28.2891 7.22857 -2.91716 0
M  V30 337 N 32.5182 1.22032 0.997298 0
M  V30 338 C 33.4482 1.01065 2.10495 0
M  V30 339 C 34.4292 -0.0669542 1.69968 0
M  V30 340 O 35.6142 0.0943987 1.9397 0
M  V30 341 C 32.7442 0.582874 3.42374 0
M  V30 342 C 31.6982 1.60592 3.96729 0
M  V30 343 C 31.0242 1.03412 5.24605 0
M  V30 344 C 32.3242 2.99478 4.27914 0
M  V30 345 H 34.0182 1.93708 2.28292 0
M  V30 346 H 31.5642 0.932761 1.09707 0
M  V30 347 H 33.5172 0.423332 4.19268 0
M  V30 348 H 32.2412 -0.379213 3.24391 0
M  V30 349 H 30.9002 1.75316 3.21963 0
M  V30 350 H 30.5482 0.063518 5.0296 0
M  V30 351 H 30.2482 1.71754 5.61938 0
M  V30 352 H 31.7722 0.886066 6.04137 0
M  V30 353 H 33.1862 2.88153 4.95622 0
M  V30 354 H 31.5832 3.64903 4.76409 0
M  V30 355 H 32.6532 3.49742 3.3587 0
M  V30 356 N 33.9963 -1.19345 1.0293 0
M  V30 357 C 34.9443 -2.24621 0.604001 0
M  V30 358 C 35.9383 -1.65452 -0.363587 0
M  V30 359 O 37.1443 -1.78497 -0.23212 0
M  V30 360 H 33.5193 -0.730858 0.177061 0
M  V30 361 H 35.4903 -2.5781 1.50255 0
M  V30 362 C 34.2393 -3.47688 -0.0289127 0
M  V30 363 H 33.5623 -3.93505 0.706651 0
M  V30 364 H 35.0023 -4.23011 -0.289432 0
M  V30 365 C 33.4613 -3.11817 -1.2756 0
M  V30 366 O 33.9913 -3.2451 -2.36762 0
M  V30 367 N 32.1973 -2.66246 -1.16453 0
M  V30 368 H 31.7443 -2.56118 -0.275914 0
M  V30 369 H 31.7023 -2.42617 -1.99961 0
M  V30 370 N 35.4744 -0.807222 -1.35358 0
M  V30 371 C 36.4214 -0.216037 -2.29787 0
M  V30 372 C 37.3914 0.650278 -1.52842 0
M  V30 373 O 38.5764 0.595227 -1.81278 0
M  V30 374 C 35.7164 0.628893 -3.39321 0
M  V30 375 C 34.8294 -0.257927 -4.31229 0
M  V30 376 C 33.9644 0.595069 -5.27856 0
M  V30 377 C 33.0034 -0.292111 -6.11403 0
M  V30 378 N 32.1404 0.520895 -7.00165 0
M  V30 379 H 36.9804 -1.02671 -2.79755 0
M  V30 380 H 34.5174 -0.517839 -1.37684 0
M  V30 381 H 36.4754 1.13393 -4.01494 0
M  V30 382 H 35.1054 1.40482 -2.90628 0
M  V30 383 H 34.1574 -0.881076 -3.70056 0
M  V30 384 H 35.4694 -0.940759 -4.89848 0
M  V30 385 H 34.6234 1.16522 -5.95405 0
M  V30 386 H 33.3624 1.31146 -4.69736 0
M  V30 387 H 32.3674 -0.874525 -5.428 0
M  V30 388 H 33.5924 -1.00638 -6.71602 0
M  V30 389 H 31.5384 1.22125 -6.44532 0
M  V30 390 H 31.4554 -0.103877 -7.55929 0
M  V30 391 H 32.7234 1.0743 -7.72062 0
M  V30 392 N 36.9525 1.47285 -0.560781 0
M  V30 393 C 37.8995 2.30058 0.18491 0
M  V30 394 C 38.8695 1.39281 0.904986 0
M  V30 395 O 40.0545 1.68241 0.899979 0
M  V30 396 C 37.1945 3.23317 1.20666 0
M  V30 397 C 36.3075 4.29186 0.492285 0
M  V30 398 C 35.4425 5.09592 1.49964 0
M  V30 399 C 34.4815 6.07232 0.770439 0
M  V30 400 N 33.6185 6.80584 1.72479 0
M  V30 401 H 38.4585 2.93302 -0.527048 0
M  V30 402 H 35.9955 1.44568 -0.271738 0
M  V30 403 H 37.9535 3.75811 1.81168 0
M  V30 404 H 36.5835 2.61929 1.88661 0
M  V30 405 H 35.6355 3.7972 -0.227333 0
M  V30 406 H 36.9475 4.98738 -0.0787929 0
M  V30 407 H 36.1015 5.66254 2.17809 0
M  V30 408 H 34.8405 4.3995 2.10464 0
M  V30 409 H 33.8455 5.49745 0.0780846 0
M  V30 410 H 35.0705 6.78884 0.171134 0
M  V30 411 H 33.0165 6.1367 2.3183 0
M  V30 412 H 32.9335 7.46319 1.20596 0
M  V30 413 H 34.2015 7.41818 2.39428 0
M  V30 414 N 38.4306 0.297415 1.54768 0
M  V30 415 C 39.6766 -0.313376 2.00364 0
M  V30 416 C 40.0096 -1.53815 1.18553 0
M  V30 417 O 39.2846 -1.92739 0.261103 0
M  V30 418 C 39.5676 -0.673525 3.53745 0
M  V30 419 C 39.4206 0.560133 4.46299 0
M  V30 420 C 40.7396 -1.50143 4.13697 0
M  V30 421 H 37.8586 -0.112428 0.728374 0
M  V30 422 H 40.5006 0.4088 1.8555 0
M  V30 423 H 38.6506 -1.28881 3.665 0
M  V30 424 H 40.3226 1.19863 4.45455 0
M  V30 425 H 38.5656 1.19405 4.17043 0
M  V30 426 H 39.2366 0.26405 5.51368 0
M  V30 427 H 41.7126 -0.981588 4.04356 0
M  V30 428 H 40.5886 -1.72221 5.21182 0
M  V30 429 H 40.8496 -2.48952 3.65343 0
M  V30 430 N 39.9087 -1.5758 0.0250728 0
M  V30 431 C 40.8387 -2.13007 -0.956575 0
M  V30 432 C 41.8197 -1.0452 -1.342 0
M  V30 433 O 43.0047 -1.32332 -1.42133 0
M  V30 434 C 40.1347 -2.65386 -2.24026 0
M  V30 435 C 39.0887 -3.78623 -1.99571 0
M  V30 436 C 38.4147 -4.17414 -3.3417 0
M  V30 437 C 39.7147 -5.04867 -1.33814 0
M  V30 438 H 41.4087 -2.9528 -0.494991 0
M  V30 439 H 38.9547 -1.42042 -0.236651 0
M  V30 440 H 40.9077 -3.02794 -2.93076 0
M  V30 441 H 39.6317 -1.80268 -2.72343 0
M  V30 442 H 38.2907 -3.41646 -1.32941 0
M  V30 443 H 37.9387 -3.29284 -3.80238 0
M  V30 444 H 37.6387 -4.93719 -3.18615 0
M  V30 445 H 39.1627 -4.57402 -4.04495 0
M  V30 446 H 40.5767 -5.39888 -1.92857 0
M  V30 447 H 38.9737 -5.86144 -1.28669 0
M  V30 448 H 40.0437 -4.83904 -0.310561 0
M  V30 449 N 41.3868 0.248026 -1.55636 0
M  V30 450 C 42.6328 0.97767 -1.77678 0
M  V30 451 C 42.9658 1.85016 -0.590135 0
M  V30 452 O 42.2408 1.90095 0.411611 0
M  V30 453 C 42.5238 1.83914 -3.09593 0
M  V30 454 C 42.3768 0.99491 -4.38659 0
M  V30 455 C 43.6958 2.82183 -3.37729 0
M  V30 456 H 40.8148 0.354005 -0.646413 0
M  V30 457 H 43.4568 0.248253 -1.88371 0
M  V30 458 H 41.6068 2.46104 -3.00608 0
M  V30 459 H 43.2788 0.391789 -4.59633 0
M  V30 460 H 41.5218 0.299231 -4.32767 0
M  V30 461 H 42.1928 1.63145 -5.2734 0
M  V30 462 H 44.6688 2.30129 -3.4667 0
M  V30 463 H 43.5448 3.39582 -4.31249 0
M  V30 464 H 43.8058 3.58588 -2.58586 0
M  V30 465 N 42.8649 1.48995 0.513639 0
M  V30 466 C 44.1139 1.57093 1.2651 0
M  V30 467 C 44.4269 0.257091 1.93903 0
M  V30 468 O 45.6329 0.216478 2.70636 0
M  V30 469 C 44.0889 2.77118 2.29638 0
M  V30 470 C 43.6969 4.15209 1.68241 0
M  V30 471 C 45.4409 2.94538 3.05692 0
M  V30 472 C 43.3479 5.26474 2.69406 0
M  V30 473 H 42.2779 0.584876 0.475854 0
M  V30 474 H 44.9289 1.7536 0.540487 0
M  V30 475 H 43.3109 2.52319 3.05207 0
M  V30 476 H 44.4849 4.50094 0.987505 0
M  V30 477 H 42.7999 4.03042 1.04623 0
M  V30 478 H 45.3969 3.74832 3.8132 0
M  V30 479 H 45.7399 2.04614 3.62545 0
M  V30 480 H 46.2729 3.19316 2.37238 0
M  V30 481 H 43.0119 6.18417 2.17351 0
M  V30 482 H 42.5319 4.96058 3.37175 0
M  V30 483 H 44.2109 5.55277 3.32078 0
M  V30 484 N 44.343 -0.763751 1.37857 0
M  V30 485 C 45.253 -1.90817 1.36478 0
M  V30 486 C 46.269 -1.71997 0.263248 0
M  V30 487 O 47.445 -1.95095 0.499979 0
M  V30 488 C 44.51 -3.2605 1.17864 0
M  V30 489 C 43.571 -3.57467 2.3773 0
M  V30 490 C 42.804 -4.86249 2.19995 0
M  V30 491 O 43.027 -5.57884 1.18836 0
M  V30 492 O 41.961 -5.16911 3.08361 0
M  V30 493 H 45.787 -1.94933 2.32884 0
M  V30 494 H 43.372 -0.907619 1.1867 0
M  V30 495 H 45.254 -4.06924 1.09504 0
M  V30 496 H 43.929 -3.22769 0.245372 0
M  V30 497 H 42.836 -2.76796 2.51664 0
M  V30 498 H 44.169 -3.655 3.29652 0
M  V30 499 N 45.8211 -1.22559 -0.990812 0
M  V30 500 C 46.7681 -0.997519 -2.0813 0
M  V30 501 C 47.7381 0.0814702 -1.659 0
M  V30 502 O 48.9231 -0.0685424 -1.90677 0
M  V30 503 C 46.0631 -0.583615 -3.40129 0
M  V30 504 C 45.1761 -1.7336 -3.9569 0
M  V30 505 C 44.3111 -1.26748 -5.15857 0
M  V30 506 C 43.3501 -2.38888 -5.63559 0
M  V30 507 N 42.4871 -1.93308 -6.74964 0
M  V30 508 H 47.3271 -1.93099 -2.26973 0
M  V30 509 H 44.8641 -0.962114 -1.11273 0
M  V30 510 H 46.8221 -0.324801 -4.15934 0
M  V30 511 H 45.4521 0.312845 -3.2128 0
M  V30 512 H 44.5041 -2.10669 -3.16738 0
M  V30 513 H 45.8161 -2.57704 -4.27071 0
M  V30 514 H 44.9701 -0.966173 -5.98957 0
M  V30 515 H 43.7091 -0.394272 -4.86104 0
M  V30 516 H 42.7141 -2.69805 -4.79046 0
M  V30 517 H 43.9391 -3.26728 -5.95336 0
M  V30 518 H 41.8851 -1.08352 -6.4699 0
M  V30 519 H 41.8021 -2.71217 -7.05675 0
M  V30 520 H 43.0701 -1.66252 -7.61564 0
M  V30 521 N 47.2992 1.18797 -1.03562 0
M  V30 522 C 48.7152 1.40671 -0.753917 0
M  V30 523 C 48.9152 1.9043 0.658686 0
M  V30 524 O 47.9712 2.08538 1.42366 0
M  V30 525 C 49.2842 2.41192 -1.79574 0
M  V30 526 C 50.8322 2.54928 -1.81606 0
M  V30 527 C 51.3072 3.58709 -2.84766 0
M  V30 528 N 52.7982 3.66212 -2.83625 0
M  V30 529 C 53.5332 4.46225 -3.60098 0
M  V30 530 N 53.0292 5.29888 -4.46308 0
M  V30 531 N 54.8222 4.40939 -3.4861 0
M  V30 532 H 46.9732 0.848221 -1.94728 0
M  V30 533 H 49.2362 0.435081 -0.842264 0
M  V30 534 H 48.9422 2.11669 -2.80872 0
M  V30 535 H 48.8162 3.40467 -1.62365 0
M  V30 536 H 51.2032 2.83771 -0.809817 0
M  V30 537 H 51.2842 1.55784 -2.02891 0
M  V30 538 H 50.9282 3.30607 -3.85566 0
M  V30 539 H 50.8582 4.57519 -2.60737 0
M  V30 540 H 53.3492 3.06466 -2.21105 0
M  V30 541 H 53.6622 5.88078 -5.01382 0
M  V30 542 H 52.0072 5.29326 -4.50377 0
M  V30 543 H 55.1982 3.74624 -2.80668 0
M  V30 544 H 55.3712 5.03056 -4.08459 0
M  V30 545 N 48.7773 0.814389 1.34928 0
M  V30 546 C 49.7253 0.218424 2.31572 0
M  V30 547 C 50.7193 -0.636128 1.57002 0
M  V30 548 O 51.9253 -0.52842 1.72069 0
M  V30 549 H 48.3003 0.0518799 0.750208 0
M  V30 550 H 50.2713 1.04852 2.79372 0
M  V30 551 C 49.0203 -0.61207 3.4227 0
M  V30 552 H 48.3433 0.0361578 3.99784 0
M  V30 553 H 49.7833 -0.995317 4.12152 0
M  V30 554 C 48.2423 -1.78087 2.85984 0
M  V30 555 O 48.7723 -2.8787 2.80168 0
M  V30 556 N 46.9783 -1.59488 2.42924 0
M  V30 557 H 46.5253 -0.701874 2.47854 0
M  V30 558 H 46.4833 -2.37846 2.05613 0
M  V30 559 N 50.2554 -1.46986 0.568584 0
M  V30 560 C 51.2054 -2.27179 -0.193339 0
M  V30 561 C 52.1894 -1.35035 -0.874895 0
M  V30 562 O 53.3814 -1.5931 -0.771322 0
M  V30 563 C 50.5104 -3.21063 -1.21546 0
M  V30 564 C 49.5964 -4.2069 -0.536738 0
M  V30 565 N 49.9874 -5.04218 0.399673 0
M  V30 566 C 48.2854 -4.38961 -0.789254 0
M  V30 567 C 48.9864 -5.76242 0.795017 0
M  V30 568 N 47.9624 -5.434 0.1473 0
M  V30 569 H 51.7644 -2.89146 0.526458 0
M  V30 570 H 49.2784 -1.57664 0.389342 0
M  V30 571 H 51.2754 -3.77209 -1.77536 0
M  V30 572 H 49.9354 -2.60654 -1.93623 0
M  V30 573 H 50.9464 -5.12077 0.774454 0
M  V30 574 H 47.6234 -3.89713 -1.49767 0
M  V30 575 H 49.0134 -6.53417 1.56513 0
M  V30 576 N 51.7335 -0.305618 -1.54608 0
M  V30 577 C 52.9825 0.303098 -1.9941 0
M  V30 578 C 53.2955 1.54648 -1.19764 0
M  V30 579 O 54.5015 2.23007 -1.54855 0
M  V30 580 C 52.9575 0.590588 -3.55021 0
M  V30 581 C 52.5655 -0.634719 -4.43481 0
M  V30 582 C 54.3095 1.16025 -4.08336 0
M  V30 583 C 52.2165 -0.320126 -5.90533 0
M  V30 584 H 51.1465 0.117031 -0.744862 0
M  V30 585 H 53.7975 -0.415045 -1.78745 0
M  V30 586 H 52.1795 1.36845 -3.71604 0
M  V30 587 H 53.3535 -1.41079 -4.38672 0
M  V30 588 H 51.6685 -1.12333 -4.00962 0
M  V30 589 H 54.2655 1.40994 -5.15776 0
M  V30 590 H 54.6085 2.10397 -3.5922 0
M  V30 591 H 55.1415 0.443985 -3.95315 0
M  V30 592 H 51.8805 -1.23254 -6.43808 0
M  V30 593 H 51.4005 0.418579 -5.98338 0
M  V30 594 H 53.0795 0.0766241 -6.46955 0
M  V30 595 N 53.2116 1.57565 -0.0334293 0
M  V30 596 C 54.4596 1.91598 0.642999 0
M  V30 597 C 54.7806 0.910847 1.7242 0
M  V30 598 O 54.0506 -0.0469931 1.95844 0
M  V30 599 H 52.6306 0.707228 0.240496 0
M  V30 600 H 55.2926 1.94726 -0.0822488 0
M  V30 601 H 54.3886 2.92336 1.09298 0
M  V30 602 N 54.6897 -0.239769 1.55765 0
M  V30 603 C 55.9377 -0.964892 1.77579 0
M  V30 604 C 56.2587 -1.85582 0.598699 0
M  V30 605 O 55.5287 -1.92075 -0.385226 0
M  V30 606 H 54.1087 -0.359265 0.654933 0
M  V30 607 H 56.7707 -0.256001 1.93211 0
M  V30 608 H 55.8667 -1.58243 2.69009 0
M  V30 609 N 56.1678 -1.49265 -0.50573 0
M  V30 610 C 57.1158 -1.66065 -1.62866 0
M  V30 611 C 58.1098 -0.526636 -1.61006 0
M  V30 612 O 59.3158 -0.706126 -1.65571 0
M  V30 613 H 55.6908 -0.52356 -0.539805 0
M  V30 614 H 57.6618 -2.60329 -1.45848 0
M  V30 615 C 56.4108 -1.74008 -3.01026 0
M  V30 616 H 55.7338 -2.6064 -3.03161 0
M  V30 617 H 57.1738 -1.89798 -3.79147 0
M  V30 618 C 55.6328 -0.483868 -3.33407 0
M  V30 619 O 56.1628 0.392548 -3.99777 0
M  V30 620 N 54.3688 -0.348236 -2.88506 0
M  V30 621 H 53.9158 -1.06242 -2.34671 0
M  V30 622 H 53.8738 0.491204 -3.10539 0
M  V30 623 N 57.6459 0.756429 -1.3826 0
M  V30 624 C 58.6089 1.85176 -1.35065 0
M  V30 625 C 59.6089 1.58818 -0.251703 0
M  V30 626 O 60.7989 1.66615 -0.508433 0
M  V30 627 C 57.9309 3.22596 -1.10201 0
M  V30 628 H 59.1239 1.89417 -2.3251 0
M  V30 629 H 56.6769 0.95783 -1.23512 0
M  V30 630 H 57.4119 3.24025 -0.133504 0
M  V30 631 H 57.1969 3.43122 -1.89762 0
M  V30 632 H 58.6869 4.02673 -1.10654 0
M  V30 633 N 59.124 1.23083 0.984299 0
M  V30 634 C 60.354 1.08556 1.75781 0
M  V30 635 C 60.762 -0.366171 1.85623 0
M  V30 636 O 60.105 -1.26524 1.33182 0
M  V30 637 C 60.167 1.63208 3.20318 0
M  V30 638 C 59.831 3.11922 3.33997 0
M  V30 639 C 60.828 4.09259 3.2063 0
M  V30 640 C 58.513 3.51552 3.58771 0
M  V30 641 C 60.507 5.4421 3.31835 0
M  V30 642 C 58.194 4.86649 3.69616 0
M  V30 643 C 59.192 5.82787 3.56157 0
M  V30 644 O 58.88 7.15431 3.66626 0
M  V30 645 H 58.612 0.380713 0.5586 0
M  V30 646 H 61.166 1.63321 1.2456 0
M  V30 647 H 59.396 1.0286 3.72769 0
M  V30 648 H 61.085 1.44216 3.79416 0
M  V30 649 H 61.851 3.79984 3.01392 0
M  V30 650 H 57.73 2.77239 3.6832 0
M  V30 651 H 61.274 6.1923 3.21247 0
M  V30 652 H 57.171 5.15601 3.88363 0
M  V30 653 H 57.939 7.23127 3.83445 0
M  V30 654 N 60.6021 -1.18246 1.0419 0
M  V30 655 C 61.8301 -1.92195 0.766072 0
M  V30 656 C 62.2451 -1.76247 -0.676933 0
M  V30 657 O 61.6021 -1.09293 -1.46155 0
M  V30 658 C 61.6531 -3.43568 1.12442 0
M  V30 659 O 61.3741 -3.59015 2.51078 0
M  V30 660 C 62.8751 -4.34613 0.873275 0
M  V30 661 H 60.0951 -0.610114 0.279288 0
M  V30 662 H 62.6391 -1.50007 1.38989 0
M  V30 663 H 60.7941 -3.8354 0.545542 0
M  V30 664 H 61.2081 -4.5273 2.64831 0
M  V30 665 H 62.6821 -5.39374 1.17385 0
M  V30 666 H 63.1591 -4.38781 -0.191909 0
M  V30 667 H 63.7651 -4.00341 1.43551 0
M  V30 668 N 62.0802 -0.821533 -1.34494 0
M  V30 669 C 62.9902 -0.244355 -2.33324 0
M  V30 670 C 64.0062 0.620527 -1.62559 0
M  V30 671 O 65.1822 0.528754 -1.94335 0
M  V30 672 C 62.2472 0.585368 -3.41723 0
M  V30 673 C 61.3082 -0.301752 -4.28238 0
M  V30 674 C 60.5412 0.488466 -5.3146 0
M  V30 675 O 60.7642 1.72186 -5.4379 0
M  V30 676 O 59.6982 -0.12848 -6.01763 0
M  V30 677 H 63.5242 -1.06231 -2.84515 0
M  V30 678 H 61.1092 -0.583645 -1.37528 0
M  V30 679 H 62.9912 1.05747 -4.07916 0
M  V30 680 H 61.6662 1.38068 -2.92778 0
M  V30 681 H 60.5732 -0.821315 -3.64973 0
M  V30 682 H 61.9062 -1.06138 -4.8062 0
M  V30 683 N 63.5583 1.46682 -0.576371 0
M  V30 684 C 64.8353 1.95599 0.00703437 0
M  V30 685 C 65.2153 1.51904 1.46589 0
M  V30 686 O 64.5633 0.766755 2.15251 0
M  V30 687 C 64.7733 3.4864 -0.158404 0
M  V30 688 C 66.1213 4.24594 -0.0229439 0
M  V30 689 O 67.1453 3.56094 -0.0869173 0
M  V30 690 O 66.0043 5.46373 0.118015 0
M  V30 691 H 63.0983 0.825275 0.053384 0
M  V30 692 H 65.6443 1.56996 -0.644244 0
M  V30 693 H 64.4163 3.7331 -1.17282 0
M  V30 694 H 64.0393 3.94057 0.5296 0
M  V30 695 N 65.0364 0.313813 1.54444 0
M  V30 696 C 66.2764 -0.292389 2.02298 0
M  V30 697 C 66.6404 -1.50105 1.19719 0
M  V30 698 O 67.8414 -2.17947 1.5733 0
M  V30 699 C 66.1124 -0.627682 3.51845 0
M  V30 700 S 67.6714 -1.21493 4.21646 0
M  V30 701 H 64.4894 -0.0890247 0.705405 0
M  V30 702 H 67.0914 0.444668 1.90376 0
M  V30 703 H 65.7954 0.260265 4.09574 0
M  V30 704 H 65.3264 -1.39519 3.67829 0
M  V30 705 H 67.3414 -2.5022 4.28491 0
M  V30 706 N 66.5145 -1.57545 0.0417849 0
M  V30 707 C 67.4245 -2.14451 -0.951213 0
M  V30 708 C 68.4405 -1.09992 -1.34825 0
M  V30 709 O 69.6165 -1.42114 -1.42708 0
M  V30 710 C 66.6815 -2.67063 -2.21084 0
M  V30 711 C 65.7425 -3.86284 -1.87304 0
M  V30 712 C 64.9755 -4.36378 -3.07261 0
M  V30 713 O 65.1985 -3.85587 -4.20332 0
M  V30 714 O 64.1325 -5.28077 -2.88822 0
M  V30 715 H 67.9585 -2.99601 -0.497287 0
M  V30 716 H 65.5435 -1.48317 -0.179567 0
M  V30 717 H 67.4255 -3.00914 -2.95006 0
M  V30 718 H 66.1005 -1.84989 -2.65633 0
M  V30 719 H 65.0075 -3.57338 -1.10727 0
M  V30 720 H 66.3405 -4.6956 -1.47562 0
M  V30 721 N 67.9926 0.231505 -1.5589 0
M  V30 722 C 69.2406 0.955461 -1.78088 0
M  V30 723 C 69.5616 1.85262 -0.608533 0
M  V30 724 O 68.8316 1.92277 0.375035 0
M  V30 725 H 67.4116 0.355787 -0.656829 0
M  V30 726 H 70.0736 0.245751 -1.93344 0
M  V30 727 H 69.1696 1.56814 -2.69844 0
M  V30 728 N 69.4707 1.49531 0.497807 0
M  V30 729 C 70.7197 1.58426 1.24837 0
M  V30 730 C 71.0327 0.277643 1.93619 0
M  V30 731 O 72.2387 0.24517 2.70391 0
M  V30 732 C 70.6947 2.79538 2.26686 0
M  V30 733 C 70.3027 4.16971 1.63828 0
M  V30 734 C 72.0467 2.97764 3.0255 0
M  V30 735 C 69.9537 5.29301 2.63807 0
M  V30 736 H 68.8837 0.58989 0.469623 0
M  V30 737 H 71.5347 1.75923 0.521857 0
M  V30 738 H 69.9167 2.55542 3.02514 0
M  V30 739 H 71.0907 4.51116 0.939711 0
M  V30 740 H 69.4057 4.04129 1.00342 0
M  V30 741 H 72.0027 3.78856 3.77323 0
M  V30 742 H 72.3457 2.08448 3.60354 0
M  V30 743 H 72.8787 3.21815 2.33838 0
M  V30 744 H 69.6177 6.20687 2.10779 0
M  V30 745 H 69.1377 4.99606 3.31894 0
M  V30 746 H 70.8167 5.58768 3.2617 0
M  V30 747 N 70.9488 -0.749086 1.3866 0
M  V30 748 C 71.8808 -1.87273 1.32142 0
M  V30 749 C 72.8938 -1.61127 0.232787 0
M  V30 750 O 74.0828 -1.71623 0.49069 0
M  V30 751 C 71.1828 -3.23005 1.02571 0
M  V30 752 C 70.3558 -3.7662 2.22433 0
M  V30 753 C 69.4148 -4.90879 1.89537 0
M  V30 754 O 68.4408 -5.05276 2.62078 0
M  V30 755 N 69.6428 -5.74198 0.853031 0
M  V30 756 H 72.4078 -1.93373 2.28969 0
M  V30 757 H 69.9688 -0.929216 1.32579 0
M  V30 758 H 71.9608 -3.96992 0.786085 0
M  V30 759 H 70.5308 -3.12262 0.145249 0
M  V30 760 H 69.7508 -2.94147 2.62434 0
M  V30 761 H 71.0388 -4.09173 3.02415 0
M  V30 762 H 70.4368 -5.6514 0.25155 0
M  V30 763 H 68.9938 -6.48313 0.67329 0
M  V30 764 N 72.4269 -1.23603 -0.977757 0
M  V30 765 C 73.6759 -1.06377 -1.71368 0
M  V30 766 C 73.9889 0.399062 -1.91486 0
M  V30 767 O 75.1949 0.691312 -2.62551 0
M  V30 768 C 73.6509 -1.85512 -3.08404 0
M  V30 769 C 73.2589 -3.36141 -2.96164 0
M  V30 770 C 75.0029 -1.76783 -3.85938 0
M  V30 771 C 72.9099 -4.07659 -4.28449 0
M  V30 772 H 71.8399 -0.394452 -0.642591 0
M  V30 773 H 74.4909 -1.47594 -1.09034 0
M  V30 774 H 72.8729 -1.37103 -3.71509 0
M  V30 775 H 74.0469 -3.92056 -2.42133 0
M  V30 776 H 72.3619 -3.45712 -2.32104 0
M  V30 777 H 74.9589 -2.27526 -4.83876 0
M  V30 778 H 75.3019 -0.731116 -4.0983 0
M  V30 779 H 75.8349 -2.22818 -3.2954 0
M  V30 780 H 72.5739 -5.11648 -4.09752 0
M  V30 781 H 72.0939 -3.5653 -4.82334 0
M  V30 782 H 73.7729 -4.141 -4.97122 0
M  V30 783 N 73.905 1.17692 -1.04816 0
M  V30 784 C 74.855 2.1952 -0.616042 0
M  V30 785 C 75.839 1.57147 0.345485 0
M  V30 786 O 77.031 1.76245 0.163325 0
M  V30 787 C 74.16 3.43298 0.0116917 0
M  V30 788 C 73.246 4.12777 -0.973435 0
M  V30 789 N 73.637 4.5814 -2.14339 0
M  V30 790 C 71.935 4.38747 -0.80108 0
M  V30 791 C 72.636 5.11713 -2.7663 0
M  V30 792 N 71.612 5.03686 -2.04453 0
M  V30 793 H 75.414 2.52293 -1.5075 0
M  V30 794 H 72.928 1.3398 -0.917776 0
M  V30 795 H 74.925 4.15519 0.339006 0
M  V30 796 H 73.585 3.12018 0.898593 0
M  V30 797 H 74.596 4.52349 -2.52191 0
M  V30 798 H 71.273 4.17485 0.0350934 0
M  V30 799 H 72.663 5.56962 -3.75823 0
M  V30 800 N 75.3831 0.828654 1.34056 0
M  V30 801 C 76.3301 0.252567 2.29414 0
M  V30 802 C 77.3001 -0.62588 1.53857 0
M  V30 803 O 78.4851 -0.566312 1.82202 0
M  V30 804 C 75.6251 -0.574831 3.40279 0
M  V30 805 C 74.7381 0.326499 4.30764 0
M  V30 806 C 73.8731 -0.511016 5.28736 0
M  V30 807 C 72.9121 0.389342 6.1086 0
M  V30 808 N 72.0491 -0.409439 7.00905 0
M  V30 809 H 76.8891 1.07108 2.78086 0
M  V30 810 H 74.4261 0.539677 1.36843 0
M  V30 811 H 76.3841 -1.06992 4.03248 0
M  V30 812 H 75.0141 -1.35841 2.92826 0
M  V30 813 H 74.0661 0.939837 3.68607 0
M  V30 814 H 75.3781 1.01857 4.88289 0
M  V30 815 H 74.5321 -1.07035 5.97184 0
M  V30 816 H 73.2711 -1.23657 4.71763 0
M  V30 817 H 72.2761 0.960769 5.4134 0
M  V30 818 H 73.5011 1.1131 6.69916 0
M  V30 819 H 71.4471 -1.11856 6.46393 0
M  V30 820 H 71.3641 0.224126 7.55668 0
M  V30 821 H 72.6321 -0.951336 7.73673 0
M  V30 822 N 76.8612 -1.46375 0.584142 0
M  V30 823 C 78.0912 -2.06461 0.0758195 0
M  V30 824 C 78.4992 -1.43322 -1.23512 0
M  V30 825 O 77.8422 -0.533216 -1.75791 0
M  V30 826 C 77.9042 -3.59131 -0.162773 0
M  V30 827 C 77.5682 -4.4447 1.06279 0
M  V30 828 C 78.5652 -4.80918 1.97519 0
M  V30 829 C 76.2502 -4.85584 1.28504 0
M  V30 830 C 78.2442 -5.57309 3.09331 0
M  V30 831 C 75.9312 -5.61734 2.4062 0
M  V30 832 C 76.9292 -5.9751 3.30863 0
M  V30 833 O 76.6172 -6.72121 4.41032 0
M  V30 834 H 76.3492 -0.673745 0.0551725 0
M  V30 835 H 78.9032 -1.88969 0.804984 0
M  V30 836 H 77.1332 -3.74936 -0.946565 0
M  V30 837 H 78.8222 -4.0114 -0.619782 0
M  V30 838 H 79.5882 -4.49732 1.81565 0
M  V30 839 H 75.4672 -4.57187 0.591702 0
M  V30 840 H 79.0112 -5.85152 3.79793 0
M  V30 841 H 74.9082 -5.92334 2.56537 0
M  V30 842 H 75.6762 -6.90547 4.39417 0
M  V30 843 N 78.3393 -0.321999 -1.54275 0
M  V30 844 C 79.5873 0.280489 -2.00144 0
M  V30 845 C 79.9083 1.52777 -1.21178 0
M  V30 846 O 79.1783 1.9338 -0.313187 0
M  V30 847 H 77.7583 0.106632 -0.73935 0
M  V30 848 H 80.4203 -0.438184 -1.8991 0
M  V30 849 H 79.5163 0.537972 -3.07428 0
M  V30 850 N 79.8174 1.5752 -0.0501392 0
M  V30 851 C 80.7804 2.1037 0.909786 0
M  V30 852 C 81.7804 1.02308 1.24056 0
M  V30 853 O 82.9704 1.28385 1.17741 0
M  V30 854 C 80.1024 2.58708 2.21998 0
M  V30 855 H 81.2954 2.96479 0.451665 0
M  V30 856 H 78.8484 1.55038 0.198248 0
M  V30 857 H 79.5834 1.75989 2.72394 0
M  V30 858 H 79.3684 3.37675 1.99295 0
M  V30 859 H 80.8584 2.99747 2.9076 0
M  V30 860 N 81.2955 -0.223234 1.56011 0
M  V30 861 C 82.2455 -1.28008 1.88674 0
M  V30 862 C 83.2295 -1.42369 0.749663 0
M  V30 863 O 84.4215 -1.45212 1.01205 0
M  V30 864 C 81.5505 -2.63084 2.20548 0
M  V30 865 C 80.6365 -2.52632 3.40643 0
M  V30 866 N 81.0275 -2.11829 4.59306 0
M  V30 867 C 79.3255 -2.83594 3.44224 0
M  V30 868 C 80.0265 -2.12587 5.41463 0
M  V30 869 N 79.0025 -2.5301 4.81131 0
M  V30 870 H 82.8045 -0.955487 2.77935 0
M  V30 871 H 80.3185 -0.431801 1.56554 0
M  V30 872 H 82.3155 -3.39385 2.42122 0
M  V30 873 H 80.9755 -2.96391 1.32599 0
M  V30 874 H 81.9865 -1.82988 4.84496 0
M  V30 875 H 78.6635 -3.21284 2.66614 0
M  V30 876 H 80.0535 -1.83179 6.46448 0
M  V30 877 N 82.7736 -1.49793 -0.48987 0
M  V30 878 C 84.0226 -1.59085 -1.23995 0
M  V30 879 C 84.3356 -0.287907 -1.9347 0
M  V30 880 O 85.5416 -0.259506 -2.70257 0
M  V30 881 C 83.9976 -2.80736 -2.252 0
M  V30 882 C 83.6056 -4.17833 -1.61614 0
M  V30 883 C 85.3496 -2.99364 -3.00967 0
M  V30 884 C 83.2566 -5.30693 -2.60996 0
M  V30 885 H 82.1866 -0.592372 -0.466488 0
M  V30 886 H 84.8376 -1.76197 -0.51252 0
M  V30 887 H 83.2196 -2.57142 -3.01154 0
M  V30 888 H 84.3936 -4.51608 -0.915774 0
M  V30 889 H 82.7086 -4.04656 -0.981977 0
M  V30 890 H 85.3056 -3.80851 -3.75308 0
M  V30 891 H 85.6486 -2.10356 -3.59244 0
M  V30 892 H 86.1816 -3.2305 -2.32128 0
M  V30 893 H 82.9206 -6.21796 -2.07485 0
M  V30 894 H 82.4406 -5.01359 -3.2924 0
M  V30 895 H 84.1196 -5.6049 -3.23202 0
M  V30 896 N 84.2517 0.741722 -1.39055 0
M  V30 897 C 85.4987 1.50114 -1.35912 0
M  V30 898 C 85.8267 1.94443 0.0470937 0
M  V30 899 O 85.0817 1.66612 1.02659 0
M  V30 900 C 85.3807 2.7592 -2.27163 0
M  V30 901 C 85.0467 2.50493 -3.74919 0
M  V30 902 C 83.7087 2.43267 -4.1518 0
M  V30 903 C 86.0607 2.28585 -4.684 0
M  V30 904 C 83.3887 2.12166 -5.46994 0
M  V30 905 C 85.7407 1.99002 -6.00484 0
M  V30 906 C 84.4047 1.90241 -6.39816 0
M  V30 907 H 83.6747 0.549306 -0.497336 0
M  V30 908 H 86.3217 0.851896 -1.71508 0
M  V30 909 H 84.6267 3.45553 -1.84663 0
M  V30 910 H 86.3237 3.33923 -2.22028 0
M  V30 911 H 82.9137 2.56992 -3.43006 0
M  V30 912 H 87.0977 2.33139 -4.38132 0
M  V30 913 H 82.3537 2.03901 -5.76398 0
M  V30 914 H 86.5277 1.81057 -6.72452 0
M  V30 915 H 84.1547 1.65907 -7.41875 0
M  V30 916 N 85.7298 1.2412 0.971189 0
M  V30 917 C 86.6798 0.997551 2.05019 0
M  V30 918 C 87.6638 -0.0597747 1.60789 0
M  V30 919 O 88.8558 0.153516 1.76333 0
M  V30 920 C 85.9848 0.600557 3.38006 0
M  V30 921 C 85.0708 1.69377 3.88809 0
M  V30 922 N 85.4618 2.92586 4.12586 0
M  V30 923 C 83.7598 1.57048 4.17435 0
M  V30 924 C 84.4608 3.63431 4.54195 0
M  V30 925 N 83.4368 2.90979 4.59165 0
M  V30 926 H 87.2388 1.93316 2.21374 0
M  V30 927 H 84.7528 1.14194 1.1547 0
M  V30 928 H 86.7498 0.40725 4.14906 0
M  V30 929 H 85.4098 -0.327903 3.2304 0
M  V30 930 H 86.4208 3.288 4.00139 0
M  V30 931 H 83.0978 0.709798 4.11422 0
M  V30 932 H 84.4878 4.69102 4.81033 0
M  V30 933 N 87.2079 -1.17134 1.05439 0
M  V30 934 C 88.4359 -1.91372 0.786414 0
M  V30 935 C 88.8509 -1.76955 -0.658202 0
M  V30 936 O 88.2079 -1.10838 -1.44987 0
M  V30 937 C 88.2589 -3.42356 1.1608 0
M  V30 938 O 87.9799 -3.56332 2.54871 0
M  V30 939 C 89.4809 -4.33663 0.919322 0
M  V30 940 H 86.7009 -0.607118 0.285743 0
M  V30 941 H 89.2449 -1.48525 1.40572 0
M  V30 942 H 87.3999 -3.82939 0.586191 0
M  V30 943 H 87.8139 -4.49896 2.69618 0
M  V30 944 H 89.2879 -5.38099 1.231 0
M  V30 945 H 89.7649 -4.38959 -0.145359 0
M  V30 946 H 90.3709 -3.98796 1.47789 0
M  V30 947 N 88.686 -0.835752 -1.33615 0
M  V30 948 C 89.634 -0.255238 -2.31195 0
M  V30 949 C 90.628 0.61107 -1.57995 0
M  V30 950 O 91.834 0.500979 -1.72888 0
M  V30 951 H 88.209 -0.0638085 -0.749288 0
M  V30 952 H 90.18 -1.09283 -2.77669 0
M  V30 953 C 88.929 0.55754 -3.43201 0
M  V30 954 H 88.252 -0.0997553 -3.99676 0
M  V30 955 H 89.692 0.929622 -4.13683 0
M  V30 956 C 88.151 1.73515 -2.88781 0
M  V30 957 O 88.681 2.83376 -2.84712 0
M  V30 958 N 86.887 1.55603 -2.4543 0
M  V30 959 H 86.434 0.662354 -2.48939 0
M  V30 960 H 86.392 2.34545 -2.09371 0
M  V30 961 N 90.1641 1.46063 -0.591896 0
M  V30 962 C 91.4411 1.95595 -0.0137119 0
M  V30 963 C 91.8211 1.5345 1.4497 0
M  V30 964 O 91.1691 0.789543 2.14426 0
M  V30 965 C 91.3791 3.48453 -0.195373 0
M  V30 966 C 92.7271 4.24546 -0.0679765 0
M  V30 967 O 93.7511 3.55982 -0.124681 0
M  V30 968 O 92.6101 5.46467 0.0600579 0
M  V30 969 H 89.7041 0.825795 0.0446279 0
M  V30 970 H 92.2501 1.56303 -0.660859 0
M  V30 971 H 91.0221 3.72045 -1.21235 0
M  V30 972 H 90.6451 3.94597 0.487775 0
M  V30 973 N 91.6422 0.330177 1.54103 0
M  V30 974 C 92.5892 -0.532762 2.24567 0
M  V30 975 C 93.5592 -1.10635 1.23892 0
M  V30 976 O 94.7442 -1.14546 1.5259 0
M  V30 977 C 91.8842 -1.6845 3.01195 0
M  V30 978 C 90.9972 -1.13951 4.167 0
M  V30 979 C 90.1322 -2.25746 4.80845 0
M  V30 980 C 89.1712 -1.6853 5.88442 0
M  V30 981 N 88.3082 -2.74014 6.46421 0
M  V30 982 H 93.1482 0.0746905 2.97906 0
M  V30 983 H 90.6852 0.048632 1.4702 0
M  V30 984 H 92.6432 -2.36234 3.43874 0
M  V30 985 H 91.2732 -2.26314 2.30178 0
M  V30 986 H 90.3252 -0.35301 3.78758 0
M  V30 987 H 91.6372 -0.680892 4.94131 0
M  V30 988 H 90.7912 -3.01422 5.26526 0
M  V30 989 H 89.5302 -2.74947 4.0281 0
M  V30 990 H 88.5352 -0.913543 5.42157 0
M  V30 991 H 89.7602 -1.20198 6.68378 0
M  V30 992 H 87.7062 -3.22494 5.71256 0
M  V30 993 H 87.6232 -2.32735 7.19285 0
M  V30 994 H 88.8912 -3.49499 6.96757 0
M  V30 995 N 93.1203 -1.57491 0.0584922 0
M  V30 996 C 94.3503 -1.9701 -0.622134 0
M  V30 997 C 94.7583 -0.935034 -1.6448 0
M  V30 998 O 94.1013 0.0882904 -1.83488 0
M  V30 999 C 94.1633 -3.32794 -1.35972 0
M  V30 1000 C 93.8273 -4.54343 -0.492043 0
M  V30 1001 C 94.8243 -5.19323 0.244901 0
M  V30 1002 C 92.5093 -5.00534 -0.420821 0
M  V30 1003 C 94.5033 -6.28835 1.04143 0
M  V30 1004 C 92.1903 -6.09921 0.379389 0
M  V30 1005 C 93.1883 -6.73933 1.10919 0
M  V30 1006 O 92.8763 -7.81216 1.89623 0
M  V30 1007 H 92.6083 -0.653127 -0.174359 0
M  V30 1008 H 95.1623 -2.05029 0.123418 0
M  V30 1009 H 93.3923 -3.21351 -2.15105 0
M  V30 1010 H 95.0813 -3.5701 -1.93129 0
M  V30 1011 H 95.8473 -4.8459 0.19939 0
M  V30 1012 H 91.7263 -4.50496 -0.978474 0
M  V30 1013 H 95.2703 -6.7873 1.61157 0
M  V30 1014 H 91.1673 -6.44089 0.426512 0
M  V30 1015 H 91.9353 -7.98029 1.81913 0
M  V30 1016 N 94.5984 0.214957 -1.56127 0
M  V30 1017 C 95.8474 0.936451 -1.78643 0
M  V30 1018 C 96.1604 1.85237 -0.628229 0
M  V30 1019 O 97.3664 2.613 -0.737186 0
M  V30 1020 C 95.8224 1.7154 -3.16389 0
M  V30 1021 C 95.4304 0.845299 -4.39953 0
M  V30 1022 C 97.1744 2.42772 -3.48227 0
M  V30 1023 C 95.0814 1.62198 -5.68723 0
M  V30 1024 H 94.0114 0.353401 -0.666051 0
M  V30 1025 H 96.6624 0.190169 -1.82512 0
M  V30 1026 H 95.0444 2.50484 -3.06715 0
M  V30 1027 H 96.2184 0.0959353 -4.607 0
M  V30 1028 H 94.5334 0.244789 -4.1568 0
M  V30 1029 H 97.1304 3.01394 -4.41663 0
M  V30 1030 H 97.4734 3.15984 -2.71035 0
M  V30 1031 H 98.0064 1.70813 -3.5926 0
M  V30 1032 H 94.7454 0.933011 -6.48826 0
M  V30 1033 H 94.2654 2.34579 -5.52026 0
M  V30 1034 H 95.9444 2.18095 -6.09133 0
M  V30 1035 N 96.0765 1.50051 0.48192 0
M  V30 1036 C 97.3225 1.61706 1.2338 0
M  V30 1037 C 97.6775 0.308488 1.89911 0
M  V30 1038 O 96.9705 -0.692798 1.78636 0
M  V30 1039 C 97.1645 2.72717 2.30998 0
M  V30 1040 C 96.9935 4.14242 1.75024 0
M  V30 1041 C 95.7635 4.80786 1.55476 0
M  V30 1042 C 97.9615 4.98846 1.25128 0
M  V30 1043 N 95.9435 6.06563 0.946311 0
M  V30 1044 C 97.3145 6.15258 0.765382 0
M  V30 1045 C 99.3695 4.84702 1.13881 0
M  V30 1046 C 98.0725 7.19079 0.178113 0
M  V30 1047 C 100.098 5.8869 0.565486 0
M  V30 1048 C 99.4605 7.04343 0.0899105 0
M  V30 1049 H 95.5595 0.645958 0.440753 0
M  V30 1050 H 98.1435 1.8713 0.537624 0
M  V30 1051 H 96.3145 2.49033 2.98055 0
M  V30 1052 H 98.0465 2.73789 2.9803 0
M  V30 1053 H 94.8015 4.37899 1.80392 0
M  V30 1054 H 95.2255 6.73767 0.660812 0
M  V30 1055 H 99.8675 3.95583 1.49244 0
M  V30 1056 H 97.5855 8.07882 -0.187749 0
M  V30 1057 H 101.171 5.79808 0.480974 0
M  V30 1058 H 100.051 7.83433 -0.346782 0
M  V30 1059 N 97.5546 -0.734337 1.39446 0
M  V30 1060 C 98.8316 -1.48579 1.27215 0
M  V30 1061 C 99.2116 -2.1077 -0.117968 0
M  V30 1062 O 98.5596 -1.98646 -1.12924 0
M  V30 1063 C 98.7696 -2.53667 2.39696 0
M  V30 1064 C 100.118 -3.20031 2.79044 0
M  V30 1065 O 101.142 -2.6398 2.39151 0
M  V30 1066 O 100.001 -4.21455 3.47905 0
M  V30 1067 H 97.0946 -0.659816 0.49857 0
M  V30 1068 H 99.6406 -0.768106 1.51322 0
M  V30 1069 H 98.4126 -2.06096 3.32626 0
M  V30 1070 H 98.0356 -3.32994 2.17258 0
M  V30 1071 N 99.0327 -1.24633 -0.964593 0
M  V30 1072 C 100.263 -1.11339 -1.74032 0
M  V30 1073 C 100.671 0.336593 -1.86182 0
M  V30 1074 O 100.014 1.24389 -1.35178 0
M  V30 1075 C 100.076 -1.68284 -3.1768 0
M  V30 1076 C 99.7397 -3.17196 -3.28992 0
M  V30 1077 C 100.737 -4.14308 -3.14078 0
M  V30 1078 C 98.4217 -3.57215 -3.53133 0
M  V30 1079 C 100.416 -5.4942 -3.23135 0
M  V30 1080 C 98.1027 -4.92468 -3.61827 0
M  V30 1081 C 99.1007 -5.8838 -3.46841 0
M  V30 1082 O 98.7887 -7.21173 -3.55197 0
M  V30 1083 H 98.5207 -0.389551 -0.552472 0
M  V30 1084 H 101.075 -1.65282 -1.21946 0
M  V30 1085 H 99.3047 -1.08777 -3.71085 0
M  V30 1086 H 100.994 -1.50234 -3.77074 0
M  V30 1087 H 101.76 -3.84731 -2.95308 0
M  V30 1088 H 97.6387 -2.83063 -3.63863 0
M  V30 1089 H 101.183 -6.24263 -3.11355 0
M  V30 1090 H 97.0797 -5.21714 -3.80111 0
M  V30 1091 H 97.8477 -7.29135 -3.71892 0
M  V30 1092 N 100.511 1.16574 -1.06058 0
M  V30 1093 C 101.757 1.87324 -0.777022 0
M  V30 1094 C 102.09 1.81351 0.694645 0
M  V30 1095 O 101.365 1.22753 1.50871 0
M  V30 1096 C 101.648 3.36991 -1.26922 0
M  V30 1097 C 101.501 3.51667 -2.80447 0
M  V30 1098 C 102.82 4.3131 -0.87521 0
M  V30 1099 H 99.9388 0.680191 -0.28374 0
M  V30 1100 H 102.581 1.37036 -1.3161 0
M  V30 1101 H 100.731 3.79949 -0.81063 0
M  V30 1102 H 102.403 3.17664 -3.34495 0
M  V30 1103 H 100.646 2.93656 -3.19294 0
M  V30 1104 H 101.317 4.56766 -3.0995 0
M  V30 1105 H 103.793 3.9624 -1.27014 0
M  V30 1106 H 102.669 5.34545 -1.2471 0
M  V30 1107 H 102.93 4.41552 0.220071 0
M  V30 1108 N 101.989 0.842826 1.3317 0
M  V30 1109 C 102.937 0.267495 2.31057 0
M  V30 1110 C 103.931 -0.602682 1.58316 0
M  V30 1111 O 105.137 -0.491803 1.73151 0
M  V30 1112 H 101.512 0.0677813 0.748939 0
M  V30 1113 H 103.483 1.10754 2.77085 0
M  V30 1114 C 102.232 -0.539331 3.43492 0
M  V30 1115 H 101.555 0.12095 3.99617 0
M  V30 1116 H 102.995 -0.90767 4.14171 0
M  V30 1117 C 101.454 -1.71981 2.89697 0
M  V30 1118 O 101.984 -2.81862 2.86211 0
M  V30 1119 N 100.19 -1.54299 2.46252 0
M  V30 1120 H 99.7369 -0.649143 2.49287 0
M  V30 1121 H 99.6949 -2.33431 2.10612 0
M  V30 1122 N 103.467 -1.45747 0.599634 0
M  V30 1123 C 104.744 -1.95585 0.0240846 0
M  V30 1124 C 105.124 -1.54217 -1.44154 0
M  V30 1125 O 104.472 -0.800903 -2.14004 0
M  V30 1126 C 104.682 -3.48344 0.21385 0
M  V30 1127 C 106.03 -4.24504 0.0904902 0
M  V30 1128 O 107.054 -3.55911 0.143558 0
M  V30 1129 O 105.913 -5.46491 -0.0310766 0
M  V30 1130 H 103.007 -0.82602 -0.0402478 0
M  V30 1131 H 105.553 -1.55951 0.669139 0
M  V30 1132 H 104.325 -3.71397 1.23206 0
M  V30 1133 H 103.948 -3.9485 -0.466842 0
M  V30 1134 N 104.945 -0.338344 -1.53925 0
M  V30 1135 C 105.875 0.51328 -2.27789 0
M  V30 1136 C 106.856 1.107 -1.29149 0
M  V30 1137 O 108.041 1.12937 -1.57984 0
M  V30 1138 C 105.171 1.66697 -3.04679 0
M  V30 1139 C 104.125 1.20183 -4.1078 0
M  V30 1140 C 103.451 2.44363 -4.75595 0
M  V30 1141 C 104.751 0.30605 -5.21403 0
M  V30 1142 H 106.445 -0.102883 -2.99223 0
M  V30 1143 H 103.991 -0.0509219 -1.4391 0
M  V30 1144 H 105.944 2.26915 -3.55088 0
M  V30 1145 H 104.668 2.30995 -2.30887 0
M  V30 1146 H 103.327 0.622499 -3.61276 0
M  V30 1147 H 102.975 3.07057 -3.98403 0
M  V30 1148 H 102.675 2.13925 -5.47275 0
M  V30 1149 H 104.199 3.05317 -5.28786 0
M  V30 1150 H 105.613 0.814929 -5.67478 0
M  V30 1151 H 104.01 0.0937929 -6.00027 0
M  V30 1152 H 105.08 -0.65921 -4.80398 0
M  V30 1153 N 106.423 1.57458 -0.0668435 0
M  V30 1154 C 107.669 1.93587 0.6043 0
M  V30 1155 C 108.002 0.946722 1.69561 0
M  V30 1156 O 107.277 -0.0248516 1.94484 0
M  V30 1157 C 107.56 3.40014 1.18585 0
M  V30 1158 C 107.413 4.49685 0.101529 0
M  V30 1159 C 108.732 3.87154 2.09284 0
M  V30 1160 H 105.851 0.703958 0.218202 0
M  V30 1161 H 108.493 1.89542 -0.131804 0
M  V30 1162 H 106.643 3.43592 1.81319 0
M  V30 1163 H 108.315 4.5823 -0.531279 0
M  V30 1164 H 106.558 4.30059 -0.568487 0
M  V30 1165 H 107.229 5.49266 0.54874 0
M  V30 1166 H 109.705 3.85551 1.56491 0
M  V30 1167 H 108.581 4.90231 2.46911 0
M  V30 1168 H 108.842 3.2481 2.99918 0
M  V30 1169 N 107.901 -0.206675 1.56239 0
M  V30 1170 C 108.811 -1.27686 1.96808 0
M  V30 1171 C 109.827 -1.50455 0.874035 0
M  V30 1172 O 111.003 -1.63295 1.17884 0
M  V30 1173 C 108.068 -2.60358 2.28942 0
M  V30 1174 C 107.129 -2.45762 3.51994 0
M  V30 1175 C 106.362 -3.72108 3.82585 0
M  V30 1176 O 106.585 -4.75776 3.14631 0
M  V30 1177 O 105.519 -3.6833 4.76043 0
M  V30 1178 H 109.345 -0.962593 2.88041 0
M  V30 1179 H 106.93 -0.410746 1.43643 0
M  V30 1180 H 108.812 -3.38687 2.50737 0
M  V30 1181 H 107.487 -2.91435 1.4088 0
M  V30 1182 H 106.394 -1.65584 3.35459 0
M  V30 1183 H 107.727 -2.19621 4.40486 0
M  V30 1184 N 109.379 -1.50304 -0.473955 0
M  V30 1185 C 110.626 -1.6115 -1.22625 0
M  V30 1186 C 110.954 -0.310517 -1.92005 0
M  V30 1187 O 110.209 0.703419 -1.82621 0
M  V30 1188 C 110.508 -2.73938 -2.29549 0
M  V30 1189 C 110.174 -4.14519 -1.7744 0
M  V30 1190 C 108.836 -4.5277 -1.62949 0
M  V30 1191 C 111.188 -5.02392 -1.3875 0
M  V30 1192 C 108.516 -5.76639 -1.08187 0
M  V30 1193 C 110.868 -6.26805 -0.854309 0
M  V30 1194 C 109.532 -6.63861 -0.696011 0
M  V30 1195 H 108.802 -0.589691 -0.448715 0
M  V30 1196 H 111.449 -1.84228 -0.522705 0
M  V30 1197 H 109.754 -2.44937 -3.05799 0
M  V30 1198 H 111.451 -2.79534 -2.87509 0
M  V30 1199 H 108.041 -3.8434 -1.89685 0
M  V30 1200 H 112.225 -4.73474 -1.4878 0
M  V30 1201 H 107.481 -6.04027 -0.946666 0
M  V30 1202 H 111.655 -6.94258 -0.545843 0
M  V30 1203 H 109.282 -7.59722 -0.26952 0
M  V30 1204 N 110.857 0.726932 -1.39834 0
M  V30 1205 C 111.805 1.86235 -1.39353 0
M  V30 1206 C 112.799 1.67144 -0.275555 0
M  V30 1207 O 114.005 1.74387 -0.44601 0
M  V30 1208 H 110.38 0.613174 -0.43534 0
M  V30 1209 H 112.351 1.83756 -2.35109 0
M  V30 1210 C 111.1 3.23995 -1.26185 0
M  V30 1211 H 110.423 3.39285 -2.11484 0
M  V30 1212 H 111.863 4.03609 -1.29907 0
M  V30 1213 C 110.322 3.36888 0.0290018 0
M  V30 1214 O 110.852 3.89152 0.99619 0
M  V30 1215 N 109.058 2.90446 0.0947437 0
M  V30 1216 H 108.605 2.48102 -0.693035 0
M  V30 1217 H 108.563 2.99451 0.957932 0
M  V30 1218 N 112.336 1.25143 0.95797 0
M  V30 1219 C 113.752 1.01892 1.22842 0
M  V30 1220 C 113.952 -0.266311 1.99732 0
M  V30 1221 O 113.008 -0.979913 2.3271 0
M  V30 1222 C 114.321 2.24004 2.00606 0
M  V30 1223 C 115.869 2.28731 2.13662 0
M  V30 1224 C 116.344 3.5049 2.94823 0
M  V30 1225 N 117.835 3.50866 3.02403 0
M  V30 1226 C 118.57 4.4174 3.65586 0
M  V30 1227 N 118.066 5.42882 4.30408 0
M  V30 1228 N 119.859 4.29429 3.62694 0
M  V30 1229 H 112.01 2.07718 0.443493 0
M  V30 1230 H 114.273 0.912031 0.258657 0
M  V30 1231 H 113.979 3.17395 1.51503 0
M  V30 1232 H 113.853 2.26907 3.01319 0
M  V30 1233 H 116.24 1.35865 2.61963 0
M  V30 1234 H 116.321 2.29848 1.12265 0
M  V30 1235 H 115.965 4.43676 2.47213 0
M  V30 1236 H 115.895 3.46617 3.96439 0
M  V30 1237 H 118.386 2.777 2.56302 0
M  V30 1238 H 118.699 6.0844 4.76467 0
M  V30 1239 H 117.044 5.46758 4.29047 0
M  V30 1240 H 120.235 3.49643 3.11236 0
M  V30 1241 H 120.408 5.00448 4.1165 0
M  V30 1242 N 113.814 -1.1601 1.06675 0
M  V30 1243 C 115.061 -1.86633 0.785781 0
M  V30 1244 C 115.389 -1.81929 -0.687896 0
M  V30 1245 O 114.644 -1.23253 -1.52011 0
M  V30 1246 C 114.943 -3.35547 1.23057 0
M  V30 1247 C 114.609 -3.60448 2.70902 0
M  V30 1248 C 113.271 -3.66954 3.11285 0
M  V30 1249 C 115.623 -3.7071 3.66365 0
M  V30 1250 C 112.951 -3.81225 4.45965 0
M  V30 1251 C 115.303 -3.86503 5.00797 0
M  V30 1252 C 113.967 -3.91252 5.40813 0
M  V30 1253 H 113.237 -0.682937 0.287538 0
M  V30 1254 H 115.884 -1.37146 1.33654 0
M  V30 1255 H 114.189 -3.87193 0.59907 0
M  V30 1256 H 115.886 -3.88583 0.990163 0
M  V30 1257 H 112.476 -3.56021 2.38636 0
M  V30 1258 H 116.66 -3.64991 3.36296 0
M  V30 1259 H 111.916 -3.83155 4.76447 0
M  V30 1260 H 116.09 -3.93385 5.74649 0
M  V30 1261 H 113.717 -4.02062 6.45174 0
M  V30 1262 N 115.292 -0.849877 -1.32721 0
M  V30 1263 C 116.52 -0.464754 -2.01613 0
M  V30 1264 C 116.935 0.937191 -1.63897 0
M  V30 1265 O 116.292 1.61081 -0.857856 0
M  V30 1266 C 116.343 -0.588638 -3.56675 0
M  V30 1267 O 116.064 -1.93535 -3.93034 0
M  V30 1268 C 117.565 -0.2019 -4.4284 0
M  V30 1269 H 114.785 -0.183215 -0.645502 0
M  V30 1270 H 117.329 -1.1455 -1.69407 0
M  V30 1271 H 115.484 0.0443159 -3.87375 0
M  V30 1272 H 115.898 -1.92871 -4.87751 0
M  V30 1273 H 117.372 -0.339599 -5.50954 0
M  V30 1274 H 117.849 0.857224 -4.30753 0
M  V30 1275 H 118.455 -0.809733 -4.17521 0
M  V30 1276 N 116.77 1.45427 -0.607355 0
M  V30 1277 C 117.718 2.32269 0.12411 0
M  V30 1278 C 118.712 1.45955 0.859854 0
M  V30 1279 O 119.918 1.6244 0.775447 0
M  V30 1280 H 116.293 0.749691 0.0588839 0
M  V30 1281 H 118.264 2.91743 -0.626762 0
M  V30 1282 C 117.013 3.29567 1.1082 0
M  V30 1283 H 116.336 3.95978 0.551492 0
M  V30 1284 H 117.776 3.93061 1.58995 0
M  V30 1285 C 116.235 2.56722 2.18164 0
M  V30 1286 O 116.765 2.34842 3.25902 0
M  V30 1287 N 114.971 2.16861 1.93442 0
M  V30 1288 H 114.518 2.34855 1.05834 0
M  V30 1289 H 114.476 1.68444 2.65469 0
M  V30 1290 N 118.248 0.346503 1.53744 0
M  V30 1291 C 119.473 -0.253074 2.0585 0
M  V30 1292 C 119.898 -1.43202 1.21962 0
M  V30 1293 O 119.256 -1.79783 0.234073 0
M  V30 1294 C 119.304 -0.643193 3.54817 0
M  V30 1295 O 118.408 -1.74286 3.73762 0
M  V30 1296 H 117.749 -0.0413583 0.662711 0
M  V30 1297 H 120.279 0.501574 1.98357 0
M  V30 1298 H 120.289 -0.919526 3.97503 0
M  V30 1299 H 118.964 0.218966 4.15323 0
M  V30 1300 H 117.541 -1.46356 3.42979 0
M  V30 1301 N 119.726 -1.57421 0.075193 0
M  V30 1302 C 121.137 -1.81021 -0.456964 0
M  V30 1303 C 121.488 -0.98936 -1.69429 0
M  V30 1304 O 120.613 -0.212865 -2.15351 0
M  V30 1305 C 121.208 -3.28329 -0.83581 0
M  V30 1306 C 119.767 -3.52764 -1.31281 0
M  V30 1307 C 118.914 -2.75676 -0.299648 0
M  V30 1308 H 121.865 -1.55822 0.300856 0
M  V30 1309 H 121.886 -3.40564 -1.69696 0
M  V30 1310 H 121.398 -3.88046 0.0649238 0
M  V30 1311 H 119.499 -2.98355 -2.23193 0
M  V30 1312 H 119.612 -4.61451 -1.28839 0
M  V30 1313 H 117.976 -2.42538 -0.777641 0
M  V30 1314 H 118.759 -3.38132 0.593417 0
M  V30 1315 N 121.204 0.198386 -1.56346 0
M  V30 1316 C 122.134 1.24865 -1.9731 0
M  V30 1317 C 123.115 1.47651 -0.844576 0
M  V30 1318 O 124.3 1.59444 -1.10866 0
M  V30 1319 C 121.43 2.59358 -2.30977 0
M  V30 1320 C 120.384 2.5119 -3.46537 0
M  V30 1321 C 119.71 3.89926 -3.65871 0
M  V30 1322 C 121.01 2.03977 -4.80823 0
M  V30 1323 H 122.704 0.908252 -2.85291 0
M  V30 1324 H 120.25 0.435462 -1.37258 0
M  V30 1325 H 122.203 3.33011 -2.58228 0
M  V30 1326 H 120.927 2.95132 -1.39874 0
M  V30 1327 H 119.586 1.79993 -3.19371 0
M  V30 1328 H 119.234 4.23046 -2.72105 0
M  V30 1329 H 118.934 3.85336 -4.4361 0
M  V30 1330 H 120.458 4.65205 -3.95495 0
M  V30 1331 H 121.872 2.67386 -5.07127 0
M  V30 1332 H 120.269 2.10397 -5.62008 0
M  V30 1333 H 121.339 0.992861 -4.74626 0
M  V30 1334 N 122.682 1.50554 0.465978 0
M  V30 1335 C 123.645 1.69233 1.54574 0
M  V30 1336 C 124.645 0.562901 1.50626 0
M  V30 1337 O 125.835 0.830016 1.53155 0
M  V30 1338 C 122.967 1.7223 2.94193 0
M  V30 1339 H 124.16 2.65571 1.39327 0
M  V30 1340 H 121.713 1.40111 0.692711 0
M  V30 1341 H 122.448 0.77603 3.14878 0
M  V30 1342 H 122.233 2.54285 2.98466 0
M  V30 1343 H 123.723 1.88618 3.72576 0
M  V30 1344 N 124.16 -0.719506 1.40217 0
M  V30 1345 C 125.409 -1.47486 1.37589 0
M  V30 1346 C 125.722 -1.9559 -0.0201568 0
M  V30 1347 O 126.928 -2.70973 -0.169049 0
M  V30 1348 C 125.384 -2.66575 2.41796 0
M  V30 1349 C 124.992 -2.25358 3.87192 0
M  V30 1350 C 126.736 -3.4433 2.48269 0
M  V30 1351 C 124.643 -3.41262 4.83005 0
M  V30 1352 H 123.573 -0.553901 0.511576 0
M  V30 1353 H 126.224 -0.783427 1.65936 0
M  V30 1354 H 124.606 -3.3787 2.06543 0
M  V30 1355 H 125.78 -1.61509 4.31569 0
M  V30 1356 H 124.095 -1.60657 3.84159 0
M  V30 1357 H 126.692 -4.30569 3.17041 0
M  V30 1358 H 127.035 -3.87872 1.51198 0
M  V30 1359 H 127.568 -2.80076 2.82493 0
M  V30 1360 H 124.307 -3.02755 5.81394 0
M  V30 1361 H 123.827 -4.0404 4.43297 0
M  V30 1362 H 125.506 -4.07383 5.02641 0
M  V30 1363 N 125.638 -1.25649 -0.95132 0
M  V30 1364 C 126.868 -1.13179 -1.72841 0
M  V30 1365 C 127.276 0.316827 -1.86528 0
M  V30 1366 O 126.619 1.22948 -1.3649 0
M  V30 1367 C 126.681 -1.71644 -3.15878 0
M  V30 1368 C 126.345 -3.20667 -3.25609 0
M  V30 1369 C 127.342 -4.17616 -3.09666 0
M  V30 1370 C 125.027 -3.6094 -3.49324 0
M  V30 1371 C 127.021 -5.52817 -3.17289 0
M  V30 1372 C 124.708 -4.96278 -3.56584 0
M  V30 1373 C 125.706 -5.92025 -3.40581 0
M  V30 1374 O 125.394 -7.24899 -3.47528 0
M  V30 1375 H 125.126 -0.395389 -0.54831 0
M  V30 1376 H 127.68 -1.66566 -1.20187 0
M  V30 1377 H 125.91 -1.12707 -3.69911 0
M  V30 1378 H 127.599 -1.54225 -3.75459 0
M  V30 1379 H 128.365 -3.87842 -2.91211 0
M  V30 1380 H 124.244 -2.86907 -3.6084 0
M  V30 1381 H 127.788 -6.2753 -3.04716 0
M  V30 1382 H 123.685 -5.25716 -3.74556 0
M  V30 1383 H 124.453 -7.33039 -3.64138 0
M  V30 1384 N 127.117 1.15442 -1.07289 0
M  V30 1385 C 128.064 2.20161 -0.692653 0
M  V30 1386 C 129.034 1.63073 0.31564 0
M  V30 1387 O 130.219 1.89725 0.202235 0
M  V30 1388 C 127.359 3.44967 -0.0959509 0
M  V30 1389 C 126.472 4.16256 -1.15564 0
M  V30 1390 C 125.607 5.28609 -0.524011 0
M  V30 1391 C 124.646 5.91715 -1.56653 0
M  V30 1392 N 123.783 6.9554 -0.957531 0
M  V30 1393 H 128.623 2.52037 -1.59002 0
M  V30 1394 H 126.16 1.2378 -0.794798 0
M  V30 1395 H 128.118 4.16341 0.267628 0
M  V30 1396 H 126.748 3.1361 0.764772 0
M  V30 1397 H 125.8 3.43385 -1.6368 0
M  V30 1398 H 127.112 4.59268 -1.94613 0
M  V30 1399 H 126.266 6.06604 -0.108032 0
M  V30 1400 H 125.005 4.86787 0.29825 0
M  V30 1401 H 124.01 5.12433 -1.9923 0
M  V30 1402 H 125.235 6.35614 -2.39107 0
M  V30 1403 H 123.181 6.55814 -0.156162 0
M  V30 1404 H 123.098 7.36977 -1.68526 0
M  V30 1405 H 124.366 7.77435 -0.567032 0
M  V30 1406 N 128.595 0.856903 1.32268 0
M  V30 1407 C 129.872 0.382583 1.91822 0
M  V30 1408 C 130.252 -1.13407 1.78051 0
M  V30 1409 O 129.6 -1.95673 1.18001 0
M  V30 1410 C 129.81 0.849446 3.38505 0
M  V30 1411 C 131.158 0.867936 4.15634 0
M  V30 1412 O 132.182 0.794232 3.47232 0
M  V30 1413 O 131.041 0.972286 5.37781 0
M  V30 1414 H 128.135 0.112014 0.819379 0
M  V30 1415 H 130.681 0.943952 1.41024 0
M  V30 1416 H 129.453 1.89267 3.42482 0
M  V30 1417 H 129.076 0.265652 3.96712 0
M  V30 1418 N 130.073 -1.45103 0.615059 0
M  V30 1419 C 131.02 -2.30586 -0.0993978 0
M  V30 1420 C 131.99 -1.42544 -0.852669 0
M  V30 1421 O 133.175 -1.71465 -0.836917 0
M  V30 1422 C 130.315 -3.27572 -1.08583 0
M  V30 1423 C 129.428 -4.30717 -0.332656 0
M  V30 1424 C 128.563 -5.14807 -1.30947 0
M  V30 1425 C 127.602 -6.09673 -0.544538 0
M  V30 1426 N 126.739 -6.86517 -1.47101 0
M  V30 1427 H 131.579 -2.91144 0.635542 0
M  V30 1428 H 129.116 -1.4346 0.325206 0
M  V30 1429 H 131.074 -3.82276 -1.67095 0
M  V30 1430 H 129.704 -2.68751 -1.78809 0
M  V30 1431 H 128.756 -3.78615 0.368107 0
M  V30 1432 H 130.068 -4.98102 0.263842 0
M  V30 1433 H 129.222 -5.73948 -1.96643 0
M  V30 1434 H 127.961 -4.47458 -1.9399 0
M  V30 1435 H 126.966 -5.49656 0.126003 0
M  V30 1436 H 128.191 -6.79052 0.080947 0
M  V30 1437 H 126.137 -6.21851 -2.08895 0
M  V30 1438 H 126.054 -7.50281 -0.928137 0
M  V30 1439 H 127.322 -7.50194 -2.11731 0
M  V30 1440 N 131.551 -0.354651 -1.53558 0
M  V30 1441 C 132.481 0.489091 -2.2832 0
M  V30 1442 C 133.462 1.09324 -1.30316 0
M  V30 1443 O 134.647 1.11255 -1.59173 0
M  V30 1444 C 131.777 1.63456 -3.0643 0
M  V30 1445 C 130.731 1.1582 -4.12031 0
M  V30 1446 C 130.057 2.39305 -4.7816 0
M  V30 1447 C 131.357 0.250731 -5.21698 0
M  V30 1448 H 133.051 -0.134614 -2.99097 0
M  V30 1449 H 130.597 -0.0661826 -1.43848 0
M  V30 1450 H 132.55 2.23136 -3.57475 0
M  V30 1451 H 131.274 2.28533 -2.33325 0
M  V30 1452 H 129.933 0.584146 -3.61916 0
M  V30 1453 H 129.581 3.02814 -4.01637 0
M  V30 1454 H 129.281 2.08109 -5.49513 0
M  V30 1455 H 130.805 2.99691 -5.31994 0
M  V30 1456 H 132.219 0.754695 -5.68311 0
M  V30 1457 H 130.616 0.0301468 -6.00092 0
M  V30 1458 H 131.686 -0.710125 -4.79672 0
M  V30 1459 N 133.029 1.57378 -0.0835403 0
M  V30 1460 C 134.276 1.9393 0.58287 0
M  V30 1461 C 134.604 0.964455 1.68904 0
M  V30 1462 O 133.859 -0.0179474 1.95692 0
M  V30 1463 C 134.158 3.37063 1.1884 0
M  V30 1464 C 133.824 4.50424 0.207194 0
M  V30 1465 C 132.486 4.81159 -0.0627115 0
M  V30 1466 C 134.838 5.19136 -0.463426 0
M  V30 1467 C 132.166 5.77939 -1.01012 0
M  V30 1468 C 134.518 6.16931 -1.39924 0
M  V30 1469 C 133.182 6.46078 -1.67749 0
M  V30 1470 H 132.452 0.70964 0.213287 0
M  V30 1471 H 135.099 1.90856 -0.156916 0
M  V30 1472 H 133.404 3.3666 2.00418 0
M  V30 1473 H 135.101 3.6264 1.71153 0
M  V30 1474 H 131.691 4.2646 0.427747 0
M  V30 1475 H 135.875 4.95576 -0.268034 0
M  V30 1476 H 131.131 5.98842 -1.23283 0
M  V30 1477 H 135.305 6.69273 -1.92476 0
M  V30 1478 H 132.932 7.2088 -2.41321 0
M  V30 1479 N 134.507 -0.190092 1.56449 0
M  V30 1480 C 135.455 -1.25501 1.95837 0
M  V30 1481 C 136.449 -1.4685 0.844485 0
M  V30 1482 O 137.655 -1.47651 1.02952 0
M  V30 1483 H 134.03 -0.421447 0.622805 0
M  V30 1484 H 136.001 -0.895821 2.84636 0
M  V30 1485 C 134.75 -2.59124 2.31841 0
M  V30 1486 H 134.073 -2.43514 3.17082 0
M  V30 1487 H 135.513 -3.32371 2.6326 0
M  V30 1488 C 133.972 -3.16488 1.15486 0
M  V30 1489 O 134.502 -3.99365 0.432535 0
M  V30 1490 N 132.708 -2.75305 0.930349 0
M  V30 1491 H 132.255 -2.08013 1.51948 0
M  V30 1492 H 132.213 -3.14024 0.153634 0
M  V30 1493 N 135.985 -1.50799 -0.457987 0
M  V30 1494 C 136.915 -1.73553 -1.5621 0
M  V30 1495 C 137.896 -0.584774 -1.59732 0
M  V30 1496 O 139.081 -0.825314 -1.7579 0
M  V30 1497 C 136.211 -1.84169 -2.94447 0
M  V30 1498 C 135.165 -2.99461 -3.0579 0
M  V30 1499 C 134.491 -2.95235 -4.45803 0
M  V30 1500 C 135.791 -4.39766 -2.81786 0
M  V30 1501 H 137.485 -2.66 -1.37421 0
M  V30 1502 H 135.031 -1.28002 -0.659662 0
M  V30 1503 H 136.984 -1.98672 -3.71628 0
M  V30 1504 H 135.708 -0.883545 -3.14422 0
M  V30 1505 H 134.367 -2.8463 -2.31044 0
M  V30 1506 H 134.015 -1.97239 -4.62715 0
M  V30 1507 H 133.715 -3.72642 -4.54326 0
M  V30 1508 H 135.239 -3.11803 -5.24987 0
M  V30 1509 H 136.653 -4.55054 -3.4871 0
M  V30 1510 H 135.05 -5.18722 -3.0174 0
M  V30 1511 H 136.12 -4.51229 -1.7754 0
M  V30 1512 N 137.463 0.71206 -1.40597 0
M  V30 1513 C 138.874 1.29135 -1.34837 0
M  V30 1514 C 139.225 1.96186 -0.0235395 0
M  V30 1515 O 138.35 1.97768 0.878444 0
M  V30 1516 C 138.945 2.34827 -2.44217 0
M  V30 1517 C 137.504 2.88371 -2.41907 0
M  V30 1518 C 136.651 1.62202 -2.24913 0
M  V30 1519 H 139.602 0.507944 -1.50352 0
M  V30 1520 H 139.623 3.15749 -2.12327 0
M  V30 1521 H 139.135 1.85996 -3.40627 0
M  V30 1522 H 137.236 3.41422 -1.49204 0
M  V30 1523 H 137.349 3.39925 -3.37621 0
M  V30 1524 H 135.713 1.874 -1.72492 0
M  V30 1525 H 136.496 1.15391 -3.23326 0
M  V30 1526 N 138.941 1.26152 0.944643 0
M  V30 1527 C 140.188 1.11492 1.69044 0
M  V30 1528 C 140.516 -0.342366 1.91463 0
M  V30 1529 O 139.771 -1.26812 1.49054 0
M  V30 1530 C 140.07 1.82541 3.07268 0
M  V30 1531 C 139.736 3.32445 3.04616 0
M  V30 1532 C 138.398 3.73337 3.036 0
M  V30 1533 C 140.75 4.28171 2.97185 0
M  V30 1534 C 138.078 5.08348 2.92915 0
M  V30 1535 C 140.43 5.63218 2.88041 0
M  V30 1536 C 139.094 6.03426 2.85366 0
M  V30 1537 H 138.364 0.407977 0.618576 0
M  V30 1538 H 141.011 1.56551 1.10291 0
M  V30 1539 H 139.316 1.29941 3.69625 0
M  V30 1540 H 141.013 1.68642 3.63815 0
M  V30 1541 H 137.603 2.99915 3.06185 0
M  V30 1542 H 141.787 3.97563 2.97081 0
M  V30 1543 H 137.043 5.38667 2.89219 0
M  V30 1544 H 141.217 6.37078 2.81254 0
M  V30 1545 H 138.844 7.07999 2.76842 0
M  V30 1546 N 140.419 -1.14872 1.07899 0
M  V30 1547 C 141.367 -2.21857 0.698727 0
M  V30 1548 C 142.361 -1.66845 -0.293086 0
M  V30 1549 O 143.567 -1.79321 -0.156204 0
M  V30 1550 H 139.942 -0.722691 0.207899 0
M  V30 1551 H 141.913 -2.51205 1.61054 0
M  V30 1552 C 140.662 -3.47498 0.11858 0
M  V30 1553 H 139.985 -3.90154 0.872914 0
M  V30 1554 H 141.425 -4.23858 -0.109759 0
M  V30 1555 C 139.884 -3.16947 -1.1422 0
M  V30 1556 O 140.414 -3.3426 -2.22785 0
M  V30 1557 N 138.62 -2.70946 -1.05055 0
M  V30 1558 H 138.167 -2.57058 -0.167038 0
M  V30 1559 H 138.125 -2.50879 -1.89491 0
M  V30 1560 N 141.898 -0.863906 -1.31812 0
M  V30 1561 C 142.831 -0.259963 -2.26714 0
M  V30 1562 C 143.809 0.607392 -1.50829 0
M  V30 1563 O 144.993 0.562155 -1.79922 0
M  V30 1564 C 142.12 0.632456 -3.32743 0
M  V30 1565 C 141.166 -0.162743 -4.26189 0
M  V30 1566 S 141.999 -1.53726 -5.12961 0
M  V30 1567 C 143.155 -0.650803 -6.22507 0
M  V30 1568 H 143.388 -1.06445 -2.77591 0
M  V30 1569 H 140.921 -0.662071 -1.39485 0
M  V30 1570 H 142.879 1.14167 -3.94305 0
M  V30 1571 H 141.54 1.41083 -2.80632 0
M  V30 1572 H 140.733 0.517366 -5.01338 0
M  V30 1573 H 140.335 -0.60385 -3.69093 0
M  V30 1574 H 142.627 0.141134 -6.77353 0
M  V30 1575 H 143.57 -1.37322 -6.94657 0
M  V30 1576 H 143.978 -0.221041 -5.64067 0
M  V30 1577 N 143.376 1.44774 -0.622745 0
M  V30 1578 C 144.324 2.32387 0.0994683 0
M  V30 1579 C 145.318 1.46859 0.844326 0
M  V30 1580 O 146.524 1.63254 0.758174 0
M  V30 1581 H 142.899 0.750273 0.0509291 0
M  V30 1582 H 144.87 2.91062 -0.65767 0
M  V30 1583 C 143.619 3.30723 1.07319 0
M  V30 1584 H 142.942 3.96541 0.509462 0
M  V30 1585 H 144.382 3.94725 1.54817 0
M  V30 1586 C 142.841 2.59021 2.15429 0
M  V30 1587 O 143.371 2.38286 3.23393 0
M  V30 1588 N 141.577 2.189 1.91131 0
M  V30 1589 H 141.124 2.35964 1.03337 0
M  V30 1590 H 141.082 1.71251 2.63668 0
M  V30 1591 N 144.854 0.36279 1.53368 0
M  V30 1592 C 146.082 -0.228613 2.05633 0
M  V30 1593 C 146.497 -1.42676 1.23649 0
M  V30 1594 O 145.854 -1.80394 0.27647 0
M  V30 1595 C 145.905 -0.624845 3.56059 0
M  V30 1596 O 145.626 0.525675 4.34935 0
M  V30 1597 C 147.127 -1.27493 4.24571 0
M  V30 1598 H 144.347 -0.0407183 0.669763 0
M  V30 1599 H 146.891 0.520352 1.97769 0
M  V30 1600 H 145.046 -1.32373 3.64083 0
M  V30 1601 H 145.46 0.205969 5.24095 0
M  V30 1602 H 146.934 -1.50277 5.31151 0
M  V30 1603 H 147.411 -2.23439 3.78116 0
M  V30 1604 H 148.017 -0.617558 4.20792 0
M  V30 1605 N 146.332 -1.57332 0.0918853 0
M  V30 1606 C 147.579 -1.94236 -0.572577 0
M  V30 1607 C 147.907 -0.973398 -1.6839 0
M  V30 1608 O 147.162 0.00756912 -1.95699 0
M  V30 1609 C 147.461 -3.37689 -1.17051 0
M  V30 1610 C 147.127 -4.50527 -0.183304 0
M  V30 1611 C 145.789 -4.81119 0.0882276 0
M  V30 1612 C 148.141 -5.18883 0.49095 0
M  V30 1613 C 145.469 -5.77395 1.04076 0
M  V30 1614 C 147.821 -6.1618 1.43193 0
M  V30 1615 C 146.485 -6.45179 1.71173 0
M  V30 1616 H 145.755 -0.710762 -0.209521 0
M  V30 1617 H 148.402 -1.9077 0.167036 0
M  V30 1618 H 146.707 -3.37718 -1.9863 0
M  V30 1619 H 148.404 -3.63543 -1.69227 0
M  V30 1620 H 144.994 -4.26681 -0.405124 0
M  V30 1621 H 149.178 -4.95427 0.294312 0
M  V30 1622 H 144.434 -5.98179 1.26457 0
M  V30 1623 H 148.608 -6.68243 1.96023 0
M  V30 1624 H 146.235 -7.1959 2.4514 0
M  V30 1625 N 147.81 0.181792 -1.56548 0
M  V30 1626 C 148.76 1.22961 -1.92002 0
M  V30 1627 C 149.744 1.40331 -0.787146 0
M  V30 1628 O 150.936 1.42478 -1.05019 0
M  V30 1629 C 148.065 2.57144 -2.27446 0
M  V30 1630 C 147.151 2.43512 -3.47222 0
M  V30 1631 N 147.542 1.99577 -4.64761 0
M  V30 1632 C 145.84 2.74368 -3.51622 0
M  V30 1633 C 146.541 1.98156 -5.46909 0
M  V30 1634 N 145.517 2.40164 -4.8767 0
M  V30 1635 H 149.319 0.881462 -2.8037 0
M  V30 1636 H 146.833 0.390141 -1.57644 0
M  V30 1637 H 148.83 3.32847 -2.51035 0
M  V30 1638 H 147.49 2.92771 -1.40411 0
M  V30 1639 H 148.501 1.70078 -4.89177 0
M  V30 1640 H 145.178 3.14102 -2.75038 0
M  V30 1641 H 146.568 1.65975 -6.51077 0
M  V30 1642 N 149.288 1.51039 0.449983 0
M  V30 1643 C 150.22 1.67617 1.56324 0
M  V30 1644 C 151.233 0.557083 1.52972 0
M  V30 1645 O 152.422 0.830989 1.57977 0
M  V30 1646 C 149.522 1.66402 2.95235 0
M  V30 1647 C 148.695 2.9469 3.23229 0
M  V30 1648 C 147.754 2.85832 4.41799 0
M  V30 1649 O 146.78 3.59785 4.41071 0
M  V30 1650 N 147.982 2.00821 5.44657 0
M  V30 1651 H 150.747 2.63648 1.42512 0
M  V30 1652 H 148.308 1.48767 0.638737 0
M  V30 1653 H 150.3 1.58062 3.72557 0
M  V30 1654 H 148.87 0.780182 3.02708 0
M  V30 1655 H 148.09 3.16996 2.34323 0
M  V30 1656 H 149.378 3.79636 3.38754 0
M  V30 1657 H 148.776 1.40091 5.48079 0
M  V30 1658 H 147.333 1.98368 6.20881 0
M  V30 1659 N 150.766 -0.704594 1.40972 0
M  V30 1660 C 151.699 -1.82861 1.36518 0
M  V30 1661 C 152.677 -1.6091 0.23382 0
M  V30 1662 O 153.861 -1.83778 0.419271 0
M  V30 1663 C 150.988 -3.1939 1.12729 0
M  V30 1664 C 150.034 -3.60148 2.28463 0
M  V30 1665 S 150.867 -3.65994 3.90907 0
M  V30 1666 C 152.023 -5.05264 3.69403 0
M  V30 1667 H 152.256 -1.86361 2.3164 0
M  V30 1668 H 149.789 -0.872439 1.27389 0
M  V30 1669 H 151.747 -3.98211 0.996893 0
M  V30 1670 H 150.408 -3.1351 0.192427 0
M  V30 1671 H 149.601 -4.59309 2.07489 0
M  V30 1672 H 149.203 -2.88612 2.37863 0
M  V30 1673 H 151.495 -5.92504 3.28551 0
M  V30 1674 H 152.438 -5.31278 4.68134 0
M  V30 1675 H 152.846 -4.76377 3.02862 0
M  V30 1676 N 152.244 -1.26651 -0.937939 0
M  V30 1677 C 153.49 -1.13562 -1.68746 0
M  V30 1678 C 153.845 0.317241 -1.89767 0
M  V30 1679 O 153.138 1.22939 -1.46957 0
M  V30 1680 C 153.332 -1.84168 -3.06295 0
M  V30 1681 C 153.161 -3.36171 -2.98696 0
M  V30 1682 C 151.931 -4.05468 -3.01535 0
M  V30 1683 C 154.129 -4.32312 -2.78588 0
M  V30 1684 N 152.111 -5.44118 -2.84269 0
M  V30 1685 C 153.482 -5.58159 -2.69924 0
M  V30 1686 C 155.537 -4.22524 -2.63396 0
M  V30 1687 C 154.24 -6.75335 -2.47618 0
M  V30 1688 C 156.266 -5.39411 -2.42466 0
M  V30 1689 C 155.628 -6.64208 -2.34536 0
M  V30 1690 H 151.727 -0.470361 -0.624728 0
M  V30 1691 H 154.311 -1.59982 -1.10968 0
M  V30 1692 H 152.482 -1.40219 -3.62206 0
M  V30 1693 H 154.214 -1.63674 -3.70126 0
M  V30 1694 H 150.969 -3.56854 -3.11372 0
M  V30 1695 H 151.393 -6.1693 -2.78795 0
M  V30 1696 H 156.035 -3.26771 -2.68292 0
M  V30 1697 H 153.753 -7.71182 -2.41463 0
M  V30 1698 H 157.339 -5.33711 -2.31611 0
M  V30 1699 H 156.219 -7.53129 -2.18555 0
M  V30 1700 N 153.722 1.14298 -1.08507 0
M  V30 1701 C 154.97 1.84993 -0.813763 0
M  V30 1702 C 155.291 1.83405 0.662393 0
M  V30 1703 O 154.561 1.28319 1.48024 0
M  V30 1704 H 153.141 0.684966 -0.298045 0
M  V30 1705 H 155.803 1.385 -1.37126 0
M  V30 1706 H 154.899 2.89788 -1.15884 0
M  V30 1707 N 155.201 0.870884 1.31352 0
M  V30 1708 C 156.447 0.482987 1.96965 0
M  V30 1709 C 156.78 -0.962462 1.68672 0
M  V30 1710 O 156.055 -1.6779 0.98371 0
M  V30 1711 C 156.338 0.741752 3.52378 0
M  V30 1712 C 156.191 2.2368 3.9024 0
M  V30 1713 C 157.51 0.208838 4.39604 0
M  V30 1714 H 154.629 0.176955 0.715441 0
M  V30 1715 H 157.271 1.09229 1.55464 0
M  V30 1716 H 155.421 0.223149 3.87859 0
M  V30 1717 H 157.093 2.82273 3.64856 0
M  V30 1718 H 155.336 2.70901 3.38814 0
M  V30 1719 H 156.007 2.3685 4.98604 0
M  V30 1720 H 158.483 0.652529 4.10952 0
M  V30 1721 H 157.359 0.419336 5.47296 0
M  V30 1722 H 157.62 -0.889275 4.33064 0
M  V30 1723 N 156.679 -1.44442 0.630414 0
M  V30 1724 C 157.626 -2.30678 -0.0749355 0
M  V30 1725 C 158.596 -1.4344 -0.837502 0
M  V30 1726 O 159.781 -1.72343 -0.818684 0
M  V30 1727 C 156.921 -3.28706 -1.05103 0
M  V30 1728 C 156.034 -4.31046 -0.286954 0
M  V30 1729 C 155.169 -5.16167 -1.2548 0
M  V30 1730 C 154.208 -6.10216 -0.479843 0
M  V30 1731 N 153.345 -6.88039 -1.39811 0
M  V30 1732 H 158.185 -2.90454 0.666386 0
M  V30 1733 H 155.722 -1.43107 0.340404 0
M  V30 1734 H 157.68 -3.84027 -1.63031 0
M  V30 1735 H 156.31 -2.70632 -1.75949 0
M  V30 1736 H 155.362 -3.78203 0.408243 0
M  V30 1737 H 156.674 -4.97794 0.316657 0
M  V30 1738 H 155.828 -5.76002 -1.90544 0
M  V30 1739 H 154.567 -4.49491 -1.89233 0
M  V30 1740 H 153.572 -5.49491 0.184295 0
M  V30 1741 H 154.797 -6.78928 0.152965 0
M  V30 1742 H 152.743 -6.24032 -2.02287 0
M  V30 1743 H 152.66 -7.51223 -0.848508 0
M  V30 1744 H 153.928 -7.52397 -2.03762 0
M  V30 1745 N 158.157 -0.370918 -1.53173 0
M  V30 1746 C 159.434 0.273754 -1.93675 0
M  V30 1747 C 159.814 1.65938 -1.3049 0
M  V30 1748 O 159.162 2.23698 -0.465999 0
M  V30 1749 C 159.372 0.318602 -3.47543 0
M  V30 1750 C 160.72 0.556392 -4.20939 0
M  V30 1751 O 161.744 0.399587 -3.53952 0
M  V30 1752 O 160.603 0.862133 -5.39657 0
M  V30 1753 H 157.697 0.165448 -0.810281 0
M  V30 1754 H 160.243 -0.42409 -1.64315 0
M  V30 1755 H 159.015 -0.652687 -3.85818 0
M  V30 1756 H 158.638 1.06212 -3.83151 0
M  V30 1757 N 159.635 1.57281 -0.100228 0
M  V30 1758 C 161.046 1.81725 0.428107 0
M  V30 1759 C 161.397 1.01619 1.67833 0
M  V30 1760 O 160.522 0.247098 2.14985 0
M  V30 1761 C 161.117 3.29617 0.78347 0
M  V30 1762 C 159.676 3.54808 1.25653 0
M  V30 1763 C 158.823 2.76118 0.255752 0
M  V30 1764 H 161.774 1.55324 -0.325608 0
M  V30 1765 H 161.795 3.4322 1.64256 0
M  V30 1766 H 161.307 3.87893 -0.12665 0
M  V30 1767 H 159.408 3.01868 2.18418 0
M  V30 1768 H 159.521 4.63443 1.21482 0
M  V30 1769 H 157.885 2.43745 0.738956 0
M  V30 1770 H 158.668 3.37145 -0.647136 0
M  V30 1771 N 161.113 -0.173488 1.56642 0
M  V30 1772 C 162.045 -1.23935 1.92802 0
M  V30 1773 C 163.058 -1.40589 0.820889 0
M  V30 1774 O 164.247 -1.40631 1.09933 0
M  V30 1775 C 161.347 -2.60837 2.16373 0
M  V30 1776 C 160.52 -2.6551 3.47596 0
M  V30 1777 C 159.579 -3.8376 3.60021 0
M  V30 1778 O 158.605 -3.69859 4.32658 0
M  V30 1779 N 159.807 -5.00127 2.94709 0
M  V30 1780 H 162.572 -0.932236 2.84832 0
M  V30 1781 H 160.133 -0.363268 1.57772 0
M  V30 1782 H 162.125 -3.38407 2.21952 0
M  V30 1783 H 160.695 -2.83948 1.30738 0
M  V30 1784 H 159.915 -1.74052 3.53694 0
M  V30 1785 H 161.203 -2.65641 4.33949 0
M  V30 1786 H 160.601 -5.14322 2.35563 0
M  V30 1787 H 159.158 -5.75567 3.05886 0
M  V30 1788 N 162.591 -1.51276 -0.441967 0
M  V30 1789 C 163.501 -1.75092 -1.56141 0
M  V30 1790 C 164.517 -0.634963 -1.62001 0
M  V30 1791 O 165.693 -0.916686 -1.79329 0
M  V30 1792 C 162.758 -1.86666 -2.92158 0
M  V30 1793 C 161.819 -3.10506 -2.96453 0
M  V30 1794 C 161.052 -3.21519 -4.25982 0
M  V30 1795 O 161.275 -2.38586 -5.18105 0
M  V30 1796 O 160.209 -4.14465 -4.36466 0
M  V30 1797 H 164.035 -2.70044 -1.38961 0
M  V30 1798 H 161.62 -1.35722 -0.624499 0
M  V30 1799 H 163.502 -1.96292 -3.72891 0
M  V30 1800 H 162.177 -0.949014 -3.09476 0
M  V30 1801 H 161.084 -3.06363 -2.14692 0
M  V30 1802 H 162.417 -4.01945 -2.84079 0
M  V30 1803 N 164.069 0.697108 -1.41344 0
M  V30 1804 C 165.032 1.79281 -1.42797 0
M  V30 1805 C 166.032 1.57607 -0.318837 0
M  V30 1806 O 167.222 1.64309 -0.578642 0
M  V30 1807 C 164.354 3.17632 -1.23785 0
M  V30 1808 H 165.547 1.79385 -2.40335 0
M  V30 1809 H 163.1 0.904582 -1.27464 0
M  V30 1810 H 163.835 3.23167 -0.270814 0
M  V30 1811 H 163.62 3.34765 -2.04144 0
M  V30 1812 H 165.11 3.97617 -1.27633 0
M  V30 1813 N 165.547 1.27147 0.931209 0
M  V30 1814 C 166.479 1.05364 2.03546 0
M  V30 1815 C 167.492 0.0108438 1.62796 0
M  V30 1816 O 168.681 0.25202 1.76712 0
M  V30 1817 C 165.781 0.575566 3.33977 0
M  V30 1818 C 164.954 1.68985 4.03439 0
M  V30 1819 C 164.013 1.20813 5.12143 0
M  V30 1820 O 163.039 1.90712 5.363 0
M  V30 1821 N 164.241 0.0618851 5.80467 0
M  V30 1822 H 167.006 2.00454 2.22796 0
M  V30 1823 H 164.567 1.18666 1.10136 0
M  V30 1824 H 166.559 0.237264 4.04004 0
M  V30 1825 H 165.129 -0.282016 3.11325 0
M  V30 1826 H 164.349 2.19861 3.27192 0
M  V30 1827 H 165.637 2.4378 4.46597 0
M  V30 1828 H 165.035 -0.521621 5.6329 0
M  V30 1829 H 163.592 -0.217264 6.51438 0
M  V30 1830 N 167.025 -1.13721 1.09112 0
M  V30 1831 C 167.973 -2.21103 0.722219 0
M  V30 1832 C 168.967 -1.67147 -0.275374 0
M  V30 1833 O 170.173 -1.79477 -0.137176 0
M  V30 1834 H 166.548 -0.720445 0.215553 0
M  V30 1835 H 168.519 -2.49483 1.63709 0
M  V30 1836 C 167.268 -3.47352 0.15543 0
M  V30 1837 H 166.591 -3.89206 0.914246 0
M  V30 1838 H 168.031 -4.2395 -0.0647967 0
M  V30 1839 C 166.49 -3.1814 -1.10852 0
M  V30 1840 O 167.02 -3.36604 -2.19227 0
M  V30 1841 N 165.226 -2.72045 -1.02176 0
M  V30 1842 H 164.773 -2.57221 -0.139764 0
M  V30 1843 H 164.731 -2.52875 -1.8682 0
M  V30 1844 N 168.503 -0.877838 -1.30888 0
M  V30 1845 C 169.752 -0.488793 -1.95688 0
M  V30 1846 C 170.065 0.965485 -1.70111 0
M  V30 1847 O 171.271 1.46104 -2.28836 0
M  V30 1848 C 169.727 -0.823201 -3.50359 0
M  V30 1849 C 169.335 -2.29477 -3.84765 0
M  V30 1850 C 171.079 -0.503009 -4.21509 0
M  V30 1851 C 168.986 -2.57118 -5.32583 0
M  V30 1852 H 167.916 -0.179062 -0.732429 0
M  V30 1853 H 170.567 -1.07183 -1.48943 0
M  V30 1854 H 168.949 -0.169331 -3.95638 0
M  V30 1855 H 170.123 -2.99236 -3.5042 0
M  V30 1856 H 168.438 -2.58178 -3.267 0
M  V30 1857 H 171.035 -0.68665 -5.30273 0
M  V30 1858 H 171.378 0.557109 -4.12555 0
M  V30 1859 H 171.911 -1.11376 -3.8189 0
M  V30 1860 H 168.65 -3.61843 -5.4658 0
M  V30 1861 H 168.17 -1.91961 -5.68253 0
M  V30 1862 H 169.849 -2.42251 -5.99936 0
M  V30 1863 N 169.982 1.44106 -0.638065 0
M  V30 1864 C 171.231 2.01194 -0.142744 0
M  V30 1865 C 171.544 1.50835 1.24532 0
M  V30 1866 O 172.75 2.00096 1.83504 0
M  V30 1867 C 171.206 3.59319 -0.20442 0
M  V30 1868 C 170.814 4.18674 -1.59423 0
M  V30 1869 C 172.558 4.23854 0.234079 0
M  V30 1870 C 170.465 5.69045 -1.61065 0
M  V30 1871 H 169.395 0.752367 -0.0495998 0
M  V30 1872 H 172.046 1.65246 -0.797881 0
M  V30 1873 H 170.428 3.92598 0.517946 0
M  V30 1874 H 171.602 3.96921 -2.34074 0
M  V30 1875 H 169.917 3.66453 -1.97741 0
M  V30 1876 H 172.514 5.34155 0.241443 0
M  V30 1877 H 172.857 3.96688 1.2627 0
M  V30 1878 H 173.39 3.95403 -0.436025 0
M  V30 1879 H 170.129 6.00956 -2.61787 0
M  V30 1880 H 169.649 5.929 -0.90718 0
M  V30 1881 H 171.328 6.32809 -1.34766 0
M  V30 1882 N 171.46 0.379036 1.52974 0
M  V30 1883 C 172.408 -0.476033 2.27677 0
M  V30 1884 C 173.402 -1.0719 1.31174 0
M  V30 1885 O 174.608 -1.01355 1.48752 0
M  V30 1886 H 170.983 -0.172255 0.732006 0
M  V30 1887 H 172.954 0.175615 2.97883 0
M  V30 1888 C 171.703 -1.5967 3.0887 0
M  V30 1889 H 171.026 -1.1475 3.82978 0
M  V30 1890 H 172.466 -2.16943 3.64296 0
M  V30 1891 C 170.925 -2.54682 2.20542 0
M  V30 1892 O 171.455 -3.57836 1.82527 0
M  V30 1893 N 169.661 -2.24183 1.84907 0
M  V30 1894 H 169.208 -1.40333 2.1602 0
M  V30 1895 H 169.166 -2.88006 1.26096 0
M  V30 1896 N 172.938 -1.57226 0.108567 0
M  V30 1897 C 173.901 -2.13602 -0.831082 0
M  V30 1898 C 174.901 -1.06841 -1.20173 0
M  V30 1899 O 176.091 -1.32666 -1.12895 0
M  V30 1900 C 173.223 -2.66769 -2.12243 0
M  V30 1901 H 174.416 -2.97951 -0.341317 0
M  V30 1902 H 171.969 -1.55667 -0.14057 0
M  V30 1903 H 172.704 -1.85977 -2.65675 0
M  V30 1904 H 172.489 -3.44839 -1.86625 0
M  V30 1905 H 173.979 -3.10332 -2.79435 0
M  V30 1906 N 174.416 0.165178 -1.56732 0
M  V30 1907 C 175.348 1.22911 -1.93457 0
M  V30 1908 C 176.361 1.40152 -0.828333 0
M  V30 1909 O 177.55 1.40046 -1.10677 0
M  V30 1910 C 174.65 2.59686 -2.17753 0
M  V30 1911 C 173.823 2.63663 -3.48999 0
M  V30 1912 C 172.882 3.81845 -3.62051 0
M  V30 1913 O 171.908 3.67559 -4.34613 0
M  V30 1914 N 173.11 4.98557 -2.97357 0
M  V30 1915 H 175.875 0.917118 -2.85323 0
M  V30 1916 H 173.436 0.354895 -1.57962 0
M  V30 1917 H 175.428 3.37225 -2.23743 0
M  V30 1918 H 173.998 2.83251 -1.32242 0
M  V30 1919 H 173.218 1.72173 -3.54612 0
M  V30 1920 H 174.506 2.63336 -4.35352 0
M  V30 1921 H 173.904 5.13065 -2.38287 0
M  V30 1922 H 172.461 5.73936 -3.08934 0
M  V30 1923 N 175.894 1.51508 0.433938 0
M  V30 1924 C 176.841 1.73068 1.52696 0
M  V30 1925 C 177.811 0.572441 1.55924 0
M  V30 1926 O 178.996 0.807253 1.72882 0
M  V30 1927 C 176.136 1.86474 2.90381 0
M  V30 1928 C 175.249 3.14037 2.96656 0
M  V30 1929 C 174.384 3.18019 4.25485 0
M  V30 1930 C 173.423 4.39882 4.2564 0
M  V30 1931 N 172.56 4.41394 5.45999 0
M  V30 1932 H 177.4 2.66366 1.33615 0
M  V30 1933 H 174.937 1.32008 0.649018 0
M  V30 1934 H 176.895 1.92229 3.70275 0
M  V30 1935 H 175.525 0.965809 3.08013 0
M  V30 1936 H 174.577 3.17575 2.09404 0
M  V30 1937 H 175.889 4.0394 2.92633 0
M  V30 1938 H 175.043 3.22708 5.13755 0
M  V30 1939 H 173.782 2.2601 4.3217 0
M  V30 1940 H 172.787 4.35366 3.35763 0
M  V30 1941 H 174.012 5.33159 4.20617 0
M  V30 1942 H 171.958 3.52258 5.53399 0
M  V30 1943 H 171.875 5.25111 5.4387 0
M  V30 1944 H 173.143 4.50281 6.36292 0
M  V30 1945 N 177.372 -0.689602 1.41712 0
M  V30 1946 C 178.319 -1.80345 1.44029 0
M  V30 1947 C 179.289 -1.63478 0.293948 0
M  V30 1948 O 180.474 -1.84244 0.495869 0
M  V30 1949 C 177.614 -3.18272 1.33405 0
M  V30 1950 C 176.727 -3.46529 2.57956 0
M  V30 1951 C 175.862 -4.74103 2.39582 0
M  V30 1952 C 174.901 -4.95347 3.5958 0
M  V30 1953 N 174.038 -6.14151 3.40239 0
M  V30 1954 H 178.878 -1.77698 2.39222 0
M  V30 1955 H 176.415 -0.867688 1.18784 0
M  V30 1956 H 178.373 -3.97956 1.25246 0
M  V30 1957 H 177.003 -3.2008 0.418164 0
M  V30 1958 H 176.055 -2.61207 2.76542 0
M  V30 1959 H 177.367 -3.58126 3.47199 0
M  V30 1960 H 176.521 -5.61853 2.28924 0
M  V30 1961 H 175.26 -4.64763 1.47805 0
M  V30 1962 H 174.265 -4.06044 3.70686 0
M  V30 1963 H 175.49 -5.06542 4.52318 0
M  V30 1964 H 173.436 -6.06013 2.51167 0
M  V30 1965 H 173.353 -6.26543 4.23061 0
M  V30 1966 H 174.621 -7.04619 3.33365 0
M  V30 1967 N 178.85 -1.27639 -0.924453 0
M  V30 1968 C 179.797 -1.10644 -2.0255 0
M  V30 1969 C 180.767 -0.00658438 -1.66099 0
M  V30 1970 O 181.952 -0.16952 -1.90045 0
M  V30 1971 C 179.092 -0.76309 -3.36557 0
M  V30 1972 C 178.205 -1.94091 -3.85944 0
M  V30 1973 C 177.34 -1.53914 -5.08413 0
M  V30 1974 C 176.379 -2.68425 -5.50104 0
M  V30 1975 N 175.516 -2.28815 -6.63768 0
M  V30 1976 H 180.356 -2.04858 -2.16419 0
M  V30 1977 H 177.893 -1.01974 -1.06017 0
M  V30 1978 H 179.851 -0.544822 -4.13627 0
M  V30 1979 H 178.481 0.142102 -3.22487 0
M  V30 1980 H 177.533 -2.27162 -3.05125 0
M  V30 1981 H 178.845 -2.7998 -4.12811 0
M  V30 1982 H 177.999 -1.28231 -5.92994 0
M  V30 1983 H 176.738 -0.651391 -4.8333 0
M  V30 1984 H 175.743 -2.94819 -4.64071 0
M  V30 1985 H 176.968 -3.57826 -5.7718 0
M  V30 1986 H 174.914 -1.42495 -6.40337 0
M  V30 1987 H 174.831 -3.08242 -6.90306 0
M  V30 1988 H 176.099 -2.06387 -7.51681 0
M  V30 1989 N 180.328 1.1314 -1.09713 0
M  V30 1990 C 181.558 1.88048 -0.855656 0
M  V30 1991 C 181.966 1.79537 0.596919 0
M  V30 1992 O 181.309 1.16196 1.42282 0
M  V30 1993 C 181.371 3.38314 -1.21589 0
M  V30 1994 C 181.035 3.70605 -2.67397 0
M  V30 1995 C 182.032 3.69596 -3.65643 0
M  V30 1996 C 179.717 4.0017 -3.03593 0
M  V30 1997 C 181.711 3.977 -4.9811 0
M  V30 1998 C 179.398 4.27935 -4.36251 0
M  V30 1999 C 180.396 4.26685 -5.33318 0
M  V30 2000 O 180.084 4.53767 -6.63589 0
M  V30 2001 H 179.816 0.60208 -0.307368 0
M  V30 2002 H 182.37 1.44128 -1.46343 0
M  V30 2003 H 180.6 3.82752 -0.551177 0
M  V30 2004 H 182.289 3.94552 -0.953083 0
M  V30 2005 H 183.055 3.46826 -3.39023 0
M  V30 2006 H 178.934 4.00289 -2.2867 0
M  V30 2007 H 182.478 3.9664 -5.73866 0
M  V30 2008 H 178.375 4.50178 -4.62613 0
M  V30 2009 H 179.143 4.71422 -6.69107 0
M  V30 2010 N 181.806 0.884767 1.30421 0
M  V30 2011 C 183.054 0.502112 1.95763 0
M  V30 2012 C 183.375 -0.951815 1.70192 0
M  V30 2013 O 182.645 -1.6692 1.0254 0
M  V30 2014 H 181.225 0.182694 0.724315 0
M  V30 2015 H 183.887 1.1278 1.58955 0
M  V30 2016 H 182.983 0.672188 3.04775 0
M  V30 2017 N 183.284 -1.43765 0.645699 0
M  V30 2018 C 184.561 -1.9541 0.0862963 0
M  V30 2019 C 184.941 -1.58725 -1.39175 0
M  V30 2020 O 184.289 -0.868581 -2.11348 0
M  V30 2021 C 184.499 -3.47488 0.324565 0
M  V30 2022 C 185.847 -4.24001 0.225497 0
M  V30 2023 O 186.871 -3.55274 0.256715 0
M  V30 2024 O 185.73 -5.46313 0.142801 0
M  V30 2025 H 182.824 -0.826882 -0.0139483 0
M  V30 2026 H 185.37 -1.53743 0.718415 0
M  V30 2027 H 184.142 -3.67289 1.3496 0
M  V30 2028 H 183.765 -3.96135 -0.340987 0
M  V30 2029 N 184.763 -0.387143 -1.52771 0
M  V30 2030 C 185.71 0.449048 -2.26389 0
M  V30 2031 C 186.68 1.05961 -1.27912 0
M  V30 2032 O 187.865 1.08804 -1.56737 0
M  V30 2033 C 185.005 1.57155 -3.0724 0
M  V30 2034 C 184.118 0.984066 -4.20643 0
M  V30 2035 C 183.253 2.07745 -4.88892 0
M  V30 2036 C 182.292 1.46574 -5.94292 0
M  V30 2037 N 181.429 2.49834 -6.56146 0
M  V30 2038 H 186.269 -0.185205 -2.97424 0
M  V30 2039 H 183.806 -0.103164 -1.46738 0
M  V30 2040 H 185.764 2.23309 -3.52405 0
M  V30 2041 H 184.394 2.17615 -2.38419 0
M  V30 2042 H 183.446 0.212193 -3.79808 0
M  V30 2043 H 184.758 0.497029 -4.96318 0
M  V30 2044 H 183.912 2.81673 -5.3735 0
M  V30 2045 H 182.651 2.59807 -4.12737 0
M  V30 2046 H 181.656 0.711696 -5.45174 0
M  V30 2047 H 182.881 0.953088 -6.72379 0
M  V30 2048 H 180.827 3.0107 -5.82832 0
M  V30 2049 H 180.744 2.05879 -7.27427 0
M  V30 2050 H 182.012 3.23399 -7.09249 0
M  V30 2051 N 186.241 1.57166 -0.116904 0
M  V30 2052 C 187.487 1.95412 0.542405 0
M  V30 2053 C 187.82 1.00019 1.66463 0
M  V30 2054 O 187.095 0.0370346 1.94465 0
M  V30 2055 C 187.378 3.43615 1.07708 0
M  V30 2056 C 187.231 4.49781 -0.0415868 0
M  V30 2057 C 188.55 3.93616 1.96861 0
M  V30 2058 H 185.669 0.710543 0.195696 0
M  V30 2059 H 188.311 1.89027 -0.192038 0
M  V30 2060 H 186.461 3.49187 1.70296 0
M  V30 2061 H 188.133 4.56308 -0.676793 0
M  V30 2062 H 186.376 4.28033 -0.705019 0
M  V30 2063 H 187.047 5.50733 0.373717 0
M  V30 2064 H 189.523 3.90335 1.44146 0
M  V30 2065 H 188.399 4.97838 2.3119 0
M  V30 2066 H 188.66 3.34188 2.89432 0
M  V30 2067 N 187.719 -0.156864 1.56817 0
M  V30 2068 C 189.13 -0.717916 1.72345 0
M  V30 2069 C 189.481 -1.82124 0.729747 0
M  V30 2070 O 188.606 -2.16141 -0.105781 0
M  V30 2071 C 189.201 -1.30904 3.12489 0
M  V30 2072 C 187.76 -1.81676 3.29653 0
M  V30 2073 C 186.907 -0.701349 2.68284 0
M  V30 2074 H 189.858 0.0686989 1.58551 0
M  V30 2075 H 189.879 -2.17882 3.11942 0
M  V30 2076 H 189.391 -0.505796 3.8479 0
M  V30 2077 H 187.492 -2.64598 2.62333 0
M  V30 2078 H 187.605 -1.95226 4.3752 0
M  V30 2079 H 185.969 -1.12548 2.28484 0
M  V30 2080 H 186.752 0.0902846 3.43181 0
M  V30 2081 N 189.197 -1.51736 -0.425897 0
M  V30 2082 C 190.107 -1.76738 -1.54275 0
M  V30 2083 C 191.123 -0.65211 -1.61318 0
M  V30 2084 O 192.299 -0.935654 -1.78346 0
M  V30 2085 C 189.364 -1.89755 -2.90162 0
M  V30 2086 C 188.425 -3.13633 -2.93143 0
M  V30 2087 C 187.658 -3.2602 -4.22548 0
M  V30 2088 O 187.881 -2.44067 -5.15546 0
M  V30 2089 O 186.815 -4.19071 -4.32046 0
M  V30 2090 H 190.641 -2.71502 -1.36089 0
M  V30 2091 H 188.226 -1.36376 -0.610069 0
M  V30 2092 H 190.108 -2.00236 -3.70788 0
M  V30 2093 H 188.783 -0.981785 -3.08452 0
M  V30 2094 H 187.69 -3.08622 -2.11431 0
M  V30 2095 H 189.023 -4.04936 -2.798 0
M  V30 2096 N 190.675 0.682077 -1.42076 0
M  V30 2097 C 191.623 1.81707 -1.45208 0
M  V30 2098 C 192.617 1.66183 -0.328591 0
M  V30 2099 O 193.823 1.7288 -0.501264 0
M  V30 2100 H 190.198 0.599014 -0.454628 0
M  V30 2101 H 192.169 1.76183 -2.40836 0
M  V30 2102 C 190.918 3.19816 -1.36428 0
M  V30 2103 H 190.241 3.32385 -2.22171 0
M  V30 2104 H 191.681 3.99272 -1.42681 0
M  V30 2105 C 190.14 3.36809 -0.078191 0
M  V30 2106 O 190.67 3.92124 0.87188 0
M  V30 2107 N 188.876 2.906 0.00229266 0
M  V30 2108 H 188.423 2.45772 -0.771616 0
M  V30 2109 H 188.381 3.02347 0.862179 0
M  V30 2110 N 192.153 1.28127 0.917671 0
M  V30 2111 C 193.083 1.14248 2.03641 0
M  V30 2112 C 194.064 0.0412748 1.7005 0
M  V30 2113 O 195.249 0.217566 1.92977 0
M  V30 2114 C 192.379 0.799431 3.37974 0
M  V30 2115 C 191.333 1.85497 3.85713 0
M  V30 2116 C 190.659 1.36565 5.16966 0
M  V30 2117 C 191.959 3.26085 4.08002 0
M  V30 2118 H 193.653 2.07835 2.15511 0
M  V30 2119 H 191.199 1.00064 1.03553 0
M  V30 2120 H 193.152 0.689114 4.15727 0
M  V30 2121 H 191.876 -0.172145 3.26146 0
M  V30 2122 H 190.535 1.95437 3.10161 0
M  V30 2123 H 190.183 0.383253 5.01538 0
M  V30 2124 H 189.883 2.07143 5.49878 0
M  V30 2125 H 191.407 1.26848 5.97279 0
M  V30 2126 H 192.821 3.19089 4.76293 0
M  V30 2127 H 191.218 3.94462 4.52238 0
M  V30 2128 H 192.288 3.70394 3.12948 0
M  V30 2129 N 193.631 -1.12557 1.10312 0
M  V30 2130 C 194.541 -2.21841 0.763142 0
M  V30 2131 C 195.557 -1.72354 -0.238801 0
M  V30 2132 O 196.733 -2.01249 -0.0778746 0
M  V30 2133 C 193.798 -3.46131 0.198632 0
M  V30 2134 C 192.859 -4.10464 1.25769 0
M  V30 2135 C 192.092 -5.28821 0.72002 0
M  V30 2136 O 192.315 -5.6859 -0.453993 0
M  V30 2137 O 191.249 -5.83437 1.47935 0
M  V30 2138 H 195.075 -2.53312 1.67532 0
M  V30 2139 H 192.66 -1.20867 0.878157 0
M  V30 2140 H 194.542 -4.2125 -0.112401 0
M  V30 2141 H 193.217 -3.16338 -0.686419 0
M  V30 2142 H 192.124 -3.3713 1.62156 0
M  V30 2143 H 193.457 -4.44408 2.11571 0
M  V30 2144 N 195.109 -0.891671 -1.2995 0
M  V30 2145 C 196.019 -0.367691 -2.31701 0
M  V30 2146 C 197.035 0.533486 -1.6562 0
M  V30 2147 O 198.211 0.424997 -1.96865 0
M  V30 2148 C 195.276 0.403406 -3.44345 0
M  V30 2149 C 194.337 -0.528328 -4.26037 0
M  V30 2150 C 193.57 0.206063 -5.33302 0
M  V30 2151 O 193.793 1.43119 -5.52153 0
M  V30 2152 O 192.727 -0.447281 -6.00236 0
M  V30 2153 H 196.553 -1.21163 -2.78484 0
M  V30 2154 H 194.138 -0.655725 -1.34241 0
M  V30 2155 H 196.02 0.839753 -4.12948 0
M  V30 2156 H 194.695 1.22354 -2.99685 0
M  V30 2157 H 193.602 -1.01362 -3.60106 0
M  V30 2158 H 194.935 -1.31465 -4.74318 0
M  V30 2159 N 196.587 1.43421 -0.653314 0
M  V30 2160 C 197.519 2.29071 0.0769134 0
M  V30 2161 C 198.532 1.42513 0.787017 0
M  V30 2162 O 199.721 1.66449 0.644757 0
M  V30 2163 C 196.821 3.19436 1.13199 0
M  V30 2164 C 195.994 4.34533 0.500006 0
M  V30 2165 C 195.053 5.05771 1.45198 0
M  V30 2166 O 194.079 5.61037 0.960538 0
M  V30 2167 N 195.281 5.0928 2.78594 0
M  V30 2168 H 198.046 2.92382 -0.658235 0
M  V30 2169 H 195.607 1.54112 -0.496104 0
M  V30 2170 H 197.599 3.63958 1.76964 0
M  V30 2171 H 196.169 2.57724 1.7691 0
M  V30 2172 H 195.389 3.92925 -0.316738 0
M  V30 2173 H 196.677 5.08766 0.0588345 0
M  V30 2174 H 196.075 4.65751 3.2108 0
M  V30 2175 H 194.632 5.57519 3.37662 0
M  V30 2176 N 198.065 0.39524 1.52563 0
M  V30 2177 C 199.028 -0.425001 2.25225 0
M  V30 2178 C 200.028 -0.985266 1.27079 0
M  V30 2179 O 201.218 -0.866332 1.5113 0
M  V30 2180 C 198.35 -1.59686 3.01186 0
M  V30 2181 H 199.543 0.211233 2.99155 0
M  V30 2182 H 197.096 0.147472 1.55603 0
M  V30 2183 H 197.831 -2.27035 2.31572 0
M  V30 2184 H 197.616 -1.20176 3.73229 0
M  V30 2185 H 199.106 -2.17743 3.5634 0
M  V30 2186 N 199.544 -1.57102 0.125237 0
M  V30 2187 C 200.793 -1.94582 -0.531095 0
M  V30 2188 C 201.106 -1.01126 -1.6743 0
M  V30 2189 O 202.312 -1.28097 -2.39381 0
M  V30 2190 C 200.768 -3.45839 -0.996164 0
M  V30 2191 C 200.376 -4.47842 0.118926 0
M  V30 2192 C 202.12 -3.92227 -1.62352 0
M  V30 2193 C 200.027 -5.90284 -0.363192 0
M  V30 2194 H 198.957 -0.726391 -0.20217 0
M  V30 2195 H 201.608 -1.82339 0.206092 0
M  V30 2196 H 199.99 -3.53338 -1.78796 0
M  V30 2197 H 201.164 -4.52018 0.895358 0
M  V30 2198 H 199.479 -4.11243 0.653324 0
M  V30 2199 H 202.076 -4.96069 -1.99548 0
M  V30 2200 H 202.419 -3.32552 -2.50429 0
M  V30 2201 H 202.952 -3.87554 -0.897019 0
M  V30 2202 H 199.691 -6.53728 0.481679 0
M  V30 2203 H 199.211 -5.89515 -1.10597 0
M  V30 2204 H 200.89 -6.41752 -0.822377 0
M  V30 2205 N 201.022 0.148545 -1.56898 0
M  V30 2206 C 202.247 0.880385 -1.87787 0
M  V30 2207 C 202.672 1.74018 -0.714093 0
M  V30 2208 O 202.03 1.78153 0.336343 0
M  V30 2209 C 202.078 1.71422 -3.17249 0
M  V30 2210 O 201.182 2.8183 -3.01074 0
M  V30 2211 H 200.523 0.245301 -0.617028 0
M  V30 2212 H 203.053 0.139826 -2.04122 0
M  V30 2213 H 203.063 2.10954 -3.49231 0
M  V30 2214 H 201.738 1.08284 -4.01556 0
M  V30 2215 H 200.315 2.45715 -2.80497 0
M  V30 2216 N 202.5 1.5196 0.417844 0
M  V30 2217 C 203.43 1.77634 1.51554 0
M  V30 2218 C 204.411 0.626918 1.58126 0
M  V30 2219 O 205.596 0.871632 1.7354 0
M  V30 2220 C 202.726 1.91911 2.8946 0
M  V30 2221 C 201.68 3.07463 2.97743 0
M  V30 2222 C 201.006 3.06951 4.37819 0
M  V30 2223 C 202.306 4.47082 2.70027 0
M  V30 2224 H 204 2.6955 1.3032 0
M  V30 2225 H 201.546 1.29706 0.625492 0
M  V30 2226 H 203.499 2.08455 3.6623 0
M  V30 2227 H 202.223 0.966598 3.11969 0
M  V30 2228 H 200.882 2.90656 2.23416 0
M  V30 2229 H 200.53 2.09438 4.57323 0
M  V30 2230 H 200.23 3.84556 4.44286 0
M  V30 2231 H 201.754 3.25613 5.16535 0
M  V30 2232 H 203.168 4.6414 3.36522 0
M  V30 2233 H 201.565 5.2654 2.87881 0
M  V30 2234 H 202.635 4.55777 1.65514 0
M  V30 2235 N 203.978 -0.674533 1.42435 0
M  V30 2236 C 205.224 -1.43671 1.43131 0
M  V30 2237 C 205.557 -1.94142 0.0476021 0
M  V30 2238 O 204.832 -1.70924 -0.928188 0
M  V30 2239 C 205.115 -2.63355 2.45594 0
M  V30 2240 C 204.968 -2.18514 3.93156 0
M  V30 2241 C 206.287 -3.65571 2.45043 0
M  V30 2242 H 203.406 -0.521077 0.521198 0
M  V30 2243 H 206.048 -0.766551 1.7385 0
M  V30 2244 H 204.198 -3.2053 2.19528 0
M  V30 2245 H 205.87 -1.66504 4.30202 0
M  V30 2246 H 204.113 -1.50086 4.07009 0
M  V30 2247 H 204.784 -3.04484 4.60428 0
M  V30 2248 H 207.26 -3.18113 2.68223 0
M  V30 2249 H 206.136 -4.46893 3.18713 0
M  V30 2250 H 206.397 -4.16716 1.47649 0
M  V30 2251 N 205.456 -1.28612 -0.910864 0
M  V30 2252 C 206.704 -1.15705 -1.65701 0
M  V30 2253 C 207.025 0.29416 -1.92769 0
M  V30 2254 O 206.295 1.20331 -1.54588 0
M  V30 2255 H 204.875 -0.425216 -0.614167 0
M  V30 2256 H 207.537 -1.61381 -1.0928 0
M  V30 2257 H 206.633 -1.6988 -2.61815 0
M  V30 2258 N 206.934 1.1197 -1.10907 0
M  V30 2259 C 207.844 2.21433 -0.774896 0
M  V30 2260 C 208.86 1.72478 0.229657 0
M  V30 2261 O 210.036 2.01288 0.0672008 0
M  V30 2262 C 207.101 3.4602 -0.216986 0
M  V30 2263 C 206.162 4.09791 -1.27944 0
M  V30 2264 C 205.395 5.28431 -0.748055 0
M  V30 2265 O 205.618 5.68823 0.423833 0
M  V30 2266 O 204.552 5.82644 -1.51027 0
M  V30 2267 H 208.378 2.5242 -1.68873 0
M  V30 2268 H 205.963 1.20399 -0.884555 0
M  V30 2269 H 207.845 4.21304 0.090059 0
M  V30 2270 H 206.52 3.16698 0.669633 0
M  V30 2271 H 205.427 3.36265 -1.63941 0
M  V30 2272 H 206.76 4.4328 -2.13925 0
M  V30 2273 N 208.412 0.89855 1.29475 0
M  V30 2274 C 209.689 0.443416 1.90508 0
M  V30 2275 C 210.069 -1.07685 1.81569 0
M  V30 2276 O 209.417 -1.9182 1.24166 0
M  V30 2277 C 209.627 0.956708 3.35631 0
M  V30 2278 C 210.975 0.999728 4.12663 0
M  V30 2279 O 211.999 0.904299 3.4453 0
M  V30 2280 O 210.858 1.14289 5.34416 0
M  V30 2281 H 207.952 0.138025 0.815401 0
M  V30 2282 H 210.498 0.98834 1.37949 0
M  V30 2283 H 209.27 2.00067 3.36287 0
M  V30 2284 H 208.893 0.391728 3.95666 0
M  V30 2285 N 209.89 -1.43072 0.660911 0
M  V30 2286 C 210.82 -2.33497 -0.0122829 0
M  V30 2287 C 211.801 -1.49903 -0.803925 0
M  V30 2288 O 212.986 -1.78546 -0.763864 0
M  V30 2289 C 210.116 -3.33363 -0.973994 0
M  V30 2290 C 209.07 -4.27003 -0.291928 0
M  V30 2291 C 208.396 -5.16967 -1.36562 0
M  V30 2292 C 209.696 -5.15816 0.820462 0
M  V30 2293 H 211.39 -2.90038 0.742873 0
M  V30 2294 H 208.936 -1.39461 0.358688 0
M  V30 2295 H 210.889 -3.95524 -1.45392 0
M  V30 2296 H 209.613 -2.75095 -1.7604 0
M  V30 2297 H 208.272 -3.66217 0.167623 0
M  V30 2298 H 207.92 -4.55034 -2.14366 0
M  V30 2299 H 207.62 -5.80441 -0.914454 0
M  V30 2300 H 209.144 -5.82003 -1.84675 0
M  V30 2301 H 210.558 -5.71742 0.422366 0
M  V30 2302 H 208.955 -5.8805 1.19656 0
M  V30 2303 H 210.025 -4.55045 1.67518 0
M  V30 2304 N 211.368 -0.403325 -1.52352 0
M  V30 2305 C 212.598 0.17376 -2.05868 0
M  V30 2306 C 213.006 1.39898 -1.27378 0
M  V30 2307 O 212.349 1.80939 -0.31729 0
M  V30 2308 C 212.411 0.594756 -3.54546 0
M  V30 2309 C 212.075 -0.518926 -4.54044 0
M  V30 2310 C 213.072 -1.3807 -5.01231 0
M  V30 2311 C 210.757 -0.689961 -4.97539 0
M  V30 2312 C 212.751 -2.39852 -5.90551 0
M  V30 2313 C 210.438 -1.71109 -5.86656 0
M  V30 2314 C 211.436 -2.56378 -6.33056 0
M  V30 2315 O 211.124 -3.56743 -7.20409 0
M  V30 2316 H 210.856 0.0264951 -0.675481 0
M  V30 2317 H 213.41 -0.571179 -1.97299 0
M  V30 2318 H 211.64 1.39189 -3.60782 0
M  V30 2319 H 213.329 1.0991 -3.90736 0
M  V30 2320 H 214.095 -1.25994 -4.68349 0
M  V30 2321 H 209.974 -0.035939 -4.60986 0
M  V30 2322 H 213.518 -3.06441 -6.26689 0
M  V30 2323 H 209.415 -1.83218 -6.18952 0
M  V30 2324 H 210.183 -3.52918 -7.38506 0
M  V30 2325 N 212.846 1.57033 -0.133567 0
M  V30 2326 C 213.778 2.13176 0.841944 0
M  V30 2327 C 214.791 1.07794 1.22001 0
M  V30 2328 O 215.98 1.35117 1.16643 0
M  V30 2329 C 213.08 2.62847 2.13926 0
M  V30 2330 C 212.253 3.92486 1.93064 0
M  V30 2331 C 211.312 4.27605 3.0666 0
M  V30 2332 O 210.338 4.96168 2.78937 0
M  V30 2333 N 211.54 3.861 4.33483 0
M  V30 2334 H 214.305 2.97503 0.362192 0
M  V30 2335 H 211.866 1.61821 0.05042 0
M  V30 2336 H 213.858 2.83363 2.88942 0
M  V30 2337 H 212.428 1.83319 2.53205 0
M  V30 2338 H 211.648 3.80732 1.02159 0
M  V30 2339 H 212.936 4.77225 1.76447 0
M  V30 2340 H 212.334 3.30828 4.58878 0
M  V30 2341 H 210.891 4.11694 5.05323 0
M  V30 2342 N 214.325 -0.140222 1.56975 0
M  V30 2343 C 215.288 -1.15689 1.97861 0
M  V30 2344 C 216.288 -1.3549 0.865974 0
M  V30 2345 O 217.478 -1.32367 1.13246 0
M  V30 2346 C 214.61 -2.51582 2.30042 0
M  V30 2347 H 215.803 -0.805971 2.88867 0
M  V30 2348 H 213.356 -0.383801 1.51515 0
M  V30 2349 H 214.091 -2.91632 1.41849 0
M  V30 2350 H 213.876 -2.38569 3.11171 0
M  V30 2351 H 215.366 -3.24792 2.62488 0
M  V30 2352 N 215.803 -1.52179 -0.40978 0
M  V30 2353 C 216.733 -1.78435 -1.5061 0
M  V30 2354 C 217.714 -0.635295 -1.57791 0
M  V30 2355 O 218.899 -0.880823 -1.73076 0
M  V30 2356 C 216.029 -1.93444 -2.88439 0
M  V30 2357 C 214.983 -3.09038 -2.96108 0
M  V30 2358 C 214.309 -3.09268 -4.36185 0
M  V30 2359 C 215.609 -4.48508 -2.67652 0
M  V30 2360 H 217.303 -2.70237 -1.28889 0
M  V30 2361 H 214.849 -1.30036 -0.618605 0
M  V30 2362 H 216.802 -2.10394 -3.65119 0
M  V30 2363 H 215.526 -0.983129 -3.11452 0
M  V30 2364 H 214.185 -2.91837 -2.21872 0
M  V30 2365 H 213.833 -2.11861 -4.56206 0
M  V30 2366 H 213.533 -3.86907 -4.42241 0
M  V30 2367 H 215.057 -3.28348 -5.14801 0
M  V30 2368 H 216.471 -4.65918 -3.34056 0
M  V30 2369 H 214.868 -5.28059 -2.85085 0
M  V30 2370 H 215.938 -4.56649 -1.63095 0
M  V30 2371 N 217.281 0.66697 -1.42791 0
M  V30 2372 C 218.53 1.42278 -1.42968 0
M  V30 2373 C 218.843 1.9553 -0.0524489 0
M  V30 2374 O 220.049 2.71414 0.068363 0
M  V30 2375 C 218.505 2.57418 -2.51524 0
M  V30 2376 C 218.113 2.10832 -3.9529 0
M  V30 2377 C 219.857 3.34878 -2.60877 0
M  V30 2378 C 217.764 3.23101 -4.95338 0
M  V30 2379 H 216.694 0.534533 -0.531781 0
M  V30 2380 H 219.345 0.721302 -1.68729 0
M  V30 2381 H 217.727 3.29971 -2.18941 0
M  V30 2382 H 218.901 1.4538 -4.37266 0
M  V30 2383 H 217.216 1.46289 -3.89857 0
M  V30 2384 H 219.813 4.18505 -3.32802 0
M  V30 2385 H 220.156 3.81993 -1.6549 0
M  V30 2386 H 220.689 2.69398 -2.92693 0
M  V30 2387 H 217.428 2.80969 -5.9223 0
M  V30 2388 H 216.948 3.87309 -4.57987 0
M  V30 2389 H 218.627 3.88447 -5.17415 0
M  V30 2390 N 218.759 1.29093 0.90403 0
M  V30 2391 C 219.706 1.13853 2.00764 0
M  V30 2392 C 220.676 0.0330084 1.66067 0
M  V30 2393 O 221.861 0.199733 1.89752 0
M  V30 2394 C 219.001 0.816537 3.35301 0
M  V30 2395 C 218.114 2.00206 3.82807 0
M  V30 2396 C 217.249 1.61983 5.059 0
M  V30 2397 C 216.288 2.77143 5.45764 0
M  V30 2398 N 215.425 2.39346 6.60044 0
M  V30 2399 H 220.265 2.08276 2.13132 0
M  V30 2400 H 217.802 1.03648 1.04381 0
M  V30 2401 H 219.76 0.610557 4.12708 0
M  V30 2402 H 218.39 -0.090779 3.22672 0
M  V30 2403 H 217.442 2.31988 3.01473 0
M  V30 2404 H 218.754 2.86512 4.08304 0
M  V30 2405 H 217.908 1.37649 5.90879 0
M  V30 2406 H 216.647 0.728202 4.82233 0
M  V30 2407 H 215.652 3.02165 4.59322 0
M  V30 2408 H 216.877 3.66964 5.71414 0
M  V30 2409 H 214.823 1.52665 6.37989 0
M  V30 2410 H 214.74 3.19185 6.85315 0
M  V30 2411 H 216.008 2.1832 7.48303 0
M  V30 2412 N 220.237 -1.11381 1.11499 0
M  V30 2413 C 221.485 -1.8277 0.862524 0
M  V30 2414 C 221.806 -1.85097 -0.613534 0
M  V30 2415 O 221.076 -1.32198 -1.4457 0
M  V30 2416 H 219.656 -0.676823 0.316101 0
M  V30 2417 H 222.318 -1.34816 1.4075 0
M  V30 2418 H 221.414 -2.86614 1.23527 0
M  V30 2419 N 221.715 -0.905404 -1.28997 0
M  V30 2420 C 222.945 -0.549049 -1.99171 0
M  V30 2421 C 223.353 0.87203 -1.67906 0
M  V30 2422 O 222.696 1.58796 -0.923561 0
M  V30 2423 C 222.758 -0.668306 -3.53234 0
M  V30 2424 C 222.422 -2.0574 -4.08069 0
M  V30 2425 C 223.419 -3.0292 -4.22534 0
M  V30 2426 C 221.104 -2.36833 -4.42962 0
M  V30 2427 C 223.098 -4.29314 -4.71135 0
M  V30 2428 C 220.785 -3.63467 -4.91258 0
M  V30 2429 C 221.783 -4.59522 -5.053 0
M  V30 2430 O 221.471 -5.83907 -5.52546 0
M  V30 2431 H 221.203 -0.208784 -0.64295 0
M  V30 2432 H 223.757 -1.21836 -1.65363 0
M  V30 2433 H 221.987 0.0580547 -3.86656 0
M  V30 2434 H 223.676 -0.320273 -4.04634 0
M  V30 2435 H 224.442 -2.80216 -3.95859 0
M  V30 2436 H 220.321 -1.62824 -4.31288 0
M  V30 2437 H 223.865 -5.04293 -4.8201 0
M  V30 2438 H 219.762 -3.86 -5.17372 0
M  V30 2439 H 220.53 -5.86578 -5.70849 0
M  V30 2440 N 223.193 1.4272 -0.668489 0
M  V30 2441 C 224.421 2.05966 -0.196348 0
M  V30 2442 C 224.836 1.50191 1.14403 0
M  V30 2443 O 224.193 0.639208 1.7094 0
M  V30 2444 C 224.244 3.61314 -0.115815 0
M  V30 2445 O 223.965 4.1502 -1.40322 0
M  V30 2446 C 225.466 4.41663 0.380579 0
M  V30 2447 H 222.686 0.663954 -0.0969829 0
M  V30 2448 H 225.23 1.82966 -0.913446 0
M  V30 2449 H 223.385 3.83448 0.551931 0
M  V30 2450 H 223.799 5.08832 -1.27243 0
M  V30 2451 H 225.273 5.5065 0.385848 0
M  V30 2452 H 225.75 4.15792 1.41471 0
M  V30 2453 H 226.356 4.24534 -0.255209 0
M  V30 2454 N 224.671 0.411399 1.52136 0
M  V30 2455 C 225.581 -0.419774 2.30814 0
M  V30 2456 C 226.597 -1.0515 1.38634 0
M  V30 2457 O 227.773 -1.05252 1.71709 0
M  V30 2458 C 224.838 -1.52019 3.11594 0
M  V30 2459 C 223.899 -0.91129 4.19516 0
M  V30 2460 C 223.132 -1.95927 4.96436 0
M  V30 2461 O 223.355 -3.17775 4.73683 0
M  V30 2462 O 222.289 -1.56423 5.81219 0
M  V30 2463 H 226.115 0.221805 3.02889 0
M  V30 2464 H 223.7 0.174547 1.48377 0
M  V30 2465 H 225.582 -2.15898 3.61892 0
M  V30 2466 H 224.257 -2.14633 2.42311 0
M  V30 2467 H 223.164 -0.235157 3.7336 0
M  V30 2468 H 224.497 -0.32904 4.91099 0
M  V30 2469 N 226.149 -1.5696 0.141893 0
M  V30 2470 C 227.096 -2.16501 -0.799737 0
M  V30 2471 C 228.066 -1.09643 -1.24771 0
M  V30 2472 O 229.251 -1.3766 -1.32115 0
M  V30 2473 C 226.391 -2.78679 -2.03549 0
M  V30 2474 C 225.504 -3.99914 -1.6338 0
M  V30 2475 C 224.639 -4.50106 -2.82096 0
M  V30 2476 C 223.678 -5.63819 -2.38275 0
M  V30 2477 N 222.815 -6.08651 -3.49983 0
M  V30 2478 H 227.655 -2.96632 -0.285179 0
M  V30 2479 H 225.192 -1.46533 -0.129053 0
M  V30 2480 H 227.15 -3.1287 -2.75986 0
M  V30 2481 H 225.78 -2.012 -2.52425 0
M  V30 2482 H 224.832 -3.71735 -0.807279 0
M  V30 2483 H 226.144 -4.82311 -1.27192 0
M  V30 2484 H 225.298 -4.86325 -3.62729 0
M  V30 2485 H 224.037 -3.66706 -3.21525 0
M  V30 2486 H 223.042 -5.2718 -1.56081 0
M  V30 2487 H 224.267 -6.49 -1.99938 0
M  V30 2488 H 222.213 -5.28188 -3.89042 0
M  V30 2489 H 222.13 -6.85961 -3.17794 0
M  V30 2490 H 223.398 -6.49515 -4.30988 0
M  V30 2491 N 227.627 0.131896 -1.57047 0
M  V30 2492 C 228.559 1.1878 -1.9602 0
M  V30 2493 C 229.572 1.38363 -0.857875 0
M  V30 2494 O 230.761 1.37666 -1.13623 0
M  V30 2495 C 227.861 2.55008 -2.23213 0
M  V30 2496 C 227.034 2.56201 -3.54513 0
M  V30 2497 C 226.093 3.7408 -3.70069 0
M  V30 2498 O 225.119 3.58258 -4.42312 0
M  V30 2499 N 226.321 4.92137 -3.07866 0
M  V30 2500 H 229.086 0.85639 -2.87204 0
M  V30 2501 H 226.647 0.321309 -1.5868 0
M  V30 2502 H 228.639 3.32404 -2.30846 0
M  V30 2503 H 227.209 2.80382 -1.3822 0
M  V30 2504 H 226.429 1.64613 -3.58185 0
M  V30 2505 H 227.717 2.54043 -4.4084 0
M  V30 2506 H 227.115 5.07895 -2.49116 0
M  V30 2507 H 225.672 5.67254 -3.21039 0
M  V30 2508 N 229.106 1.52395 0.401703 0
M  V30 2509 C 230.352 1.68019 1.14635 0
M  V30 2510 C 230.707 0.408722 1.88009 0
M  V30 2511 O 230 -0.597133 1.82057 0
M  V30 2512 C 230.194 2.84578 2.16217 0
M  V30 2513 C 230.023 4.22938 1.5282 0
M  V30 2514 C 228.793 4.88352 1.29772 0
M  V30 2515 C 230.991 5.04778 0.985094 0
M  V30 2516 N 228.973 6.10726 0.623455 0
M  V30 2517 C 230.344 6.1845 0.438172 0
M  V30 2518 C 232.399 4.90057 0.880275 0
M  V30 2519 C 231.102 7.19013 -0.203306 0
M  V30 2520 C 233.128 5.9086 0.252639 0
M  V30 2521 C 232.49 7.03829 -0.283573 0
M  V30 2522 H 228.589 0.668413 0.405892 0
M  V30 2523 H 231.173 1.89717 0.437674 0
M  V30 2524 H 229.344 2.64483 2.84435 0
M  V30 2525 H 231.076 2.89202 2.83098 0
M  V30 2526 H 227.831 4.46846 1.56926 0
M  V30 2527 H 228.255 6.76323 0.302733 0
M  V30 2528 H 232.897 4.02938 1.28065 0
M  V30 2529 H 230.615 8.05751 -0.615726 0
M  V30 2530 H 234.201 5.81543 0.172954 0
M  V30 2531 H 233.081 7.80493 -0.761575 0
M  V30 2532 N 230.584 -0.659388 1.43143 0
M  V30 2533 C 231.832 -1.41654 1.44147 0
M  V30 2534 C 232.153 -1.94893 0.0645739 0
M  V30 2535 O 231.423 -1.74044 -0.899198 0
M  V30 2536 H 230.003 -0.525708 0.530697 0
M  V30 2537 H 232.665 -0.778097 1.78694 0
M  V30 2538 H 231.761 -2.26195 2.1504 0
M  V30 2539 N 232.062 -1.29571 -0.897171 0
M  V30 2540 C 233.478 -1.07637 -1.17841 0
M  V30 2541 C 233.678 0.170713 -2.00776 0
M  V30 2542 O 232.734 0.867768 -2.3712 0
M  V30 2543 C 234.047 -2.3332 -1.8969 0
M  V30 2544 C 235.595 -2.38664 -2.02505 0
M  V30 2545 C 236.07 -3.64157 -2.77765 0
M  V30 2546 N 237.561 -3.64894 -2.85318 0
M  V30 2547 C 238.296 -4.58679 -3.44094 0
M  V30 2548 N 237.792 -5.62799 -4.04017 0
M  V30 2549 N 239.585 -4.46245 -3.41793 0
M  V30 2550 H 231.736 -2.09598 -0.343883 0
M  V30 2551 H 233.999 -0.923333 -0.214848 0
M  V30 2552 H 233.705 -3.24262 -1.36187 0
M  V30 2553 H 233.579 -2.41025 -2.9015 0
M  V30 2554 H 235.966 -1.48208 -2.55183 0
M  V30 2555 H 236.047 -2.34943 -1.01171 0
M  V30 2556 H 235.691 -4.54965 -2.25763 0
M  V30 2557 H 235.621 -3.65137 -3.7945 0
M  V30 2558 H 238.112 -2.89613 -2.42761 0
M  V30 2559 H 238.425 -6.3048 -4.46895 0
M  V30 2560 H 236.77 -5.66605 -4.02472 0
M  V30 2561 H 239.961 -3.64094 -2.94199 0
M  V30 2562 H 240.134 -5.19518 -3.87304 0
M  V30 2563 N 233.54 1.10788 -1.12088 0
M  V30 2564 C 234.765 1.87002 -0.896949 0
M  V30 2565 C 235.19 1.79933 0.548261 0
M  V30 2566 O 234.548 1.16662 1.38779 0
M  V30 2567 C 234.596 3.3349 -1.37174 0
M  V30 2568 O 233.7 4.08745 -0.547831 0
M  V30 2569 H 233.041 0.580397 -0.322545 0
M  V30 2570 H 235.571 1.39996 -1.49206 0
M  V30 2571 H 235.581 3.84339 -1.36922 0
M  V30 2572 H 234.256 3.37951 -2.42408 0
M  V30 2573 H 232.833 3.6776 -0.617034 0
M  V30 2574 N 235.018 0.912232 1.28515 0
M  V30 2575 C 235.981 0.404223 2.25607 0
M  V30 2576 C 236.981 -0.468602 1.53821 0
M  V30 2577 O 238.171 -0.271873 1.72065 0
M  V30 2578 C 235.303 -0.420653 3.38295 0
M  V30 2579 H 236.496 1.26188 2.7206 0
M  V30 2580 H 234.049 0.691495 1.40171 0
M  V30 2581 H 234.784 -1.29777 2.97201 0
M  V30 2582 H 234.569 0.204935 3.91564 0
M  V30 2583 H 236.059 -0.766971 4.10496 0
M  V30 2584 N 236.496 -1.42363 0.676048 0
M  V30 2585 C 237.443 -2.308 -0.00150904 0
M  V30 2586 C 238.413 -1.46032 -0.791444 0
M  V30 2587 O 239.598 -1.74861 -0.76344 0
M  V30 2588 C 236.738 -3.31883 -0.945919 0
M  V30 2589 C 235.851 -4.31741 -0.149675 0
M  V30 2590 C 234.986 -5.19898 -1.08995 0
M  V30 2591 C 234.025 -6.11434 -0.285465 0
M  V30 2592 N 233.162 -6.92138 -1.17851 0
M  V30 2593 H 238.002 -2.88187 0.758455 0
M  V30 2594 H 235.539 -1.41952 0.38576 0
M  V30 2595 H 237.497 -3.89019 -1.50731 0
M  V30 2596 H 236.127 -2.76093 -1.6725 0
M  V30 2597 H 235.179 -3.76713 0.528359 0
M  V30 2598 H 236.491 -4.96534 0.474866 0
M  V30 2599 H 235.645 -5.81772 -1.72123 0
M  V30 2600 H 234.384 -4.55284 -1.74837 0
M  V30 2601 H 233.389 -5.48627 0.359018 0
M  V30 2602 H 234.614 -6.78097 0.368883 0
M  V30 2603 H 232.56 -6.30152 -1.82332 0
M  V30 2604 H 232.477 -7.53542 -0.609082 0
M  V30 2605 H 233.745 -7.58499 -1.79722 0
M  V30 2606 N 237.974 -0.419461 -1.51915 0
M  V30 2607 C 238.884 0.407528 -2.31033 0
M  V30 2608 C 239.9 1.04413 -1.3919 0
M  V30 2609 O 241.076 1.0434 -1.72265 0
M  V30 2610 C 238.141 1.50365 -3.12396 0
M  V30 2611 C 237.202 0.889029 -4.19994 0
M  V30 2612 C 236.435 1.93291 -4.97468 0
M  V30 2613 O 236.658 3.15259 -4.75361 0
M  V30 2614 O 235.592 1.53339 -5.8204 0
M  V30 2615 H 239.418 -0.237865 -3.02767 0
M  V30 2616 H 237.003 -0.182413 -1.48282 0
M  V30 2617 H 238.885 2.13975 -3.63032 0
M  V30 2618 H 237.56 2.13345 -2.43445 0
M  V30 2619 H 236.467 0.215353 -3.7348 0
M  V30 2620 H 237.8 0.302991 -4.91267 0
M  V30 2621 N 239.452 1.56882 -0.150215 0
M  V30 2622 C 240.382 2.19935 0.784284 0
M  V30 2623 C 241.363 1.14854 1.25469 0
M  V30 2624 O 242.548 1.43209 1.31168 0
M  V30 2625 C 239.678 2.82349 2.02229 0
M  V30 2626 C 238.632 3.93285 1.68853 0
M  V30 2627 C 237.958 4.42649 2.99944 0
M  V30 2628 C 239.258 5.13904 0.932714 0
M  V30 2629 H 240.952 2.9828 0.258781 0
M  V30 2630 H 238.498 1.43473 0.123029 0
M  V30 2631 H 240.451 3.25126 2.68088 0
M  V30 2632 H 239.175 2.0134 2.57157 0
M  V30 2633 H 237.834 3.5113 1.05371 0
M  V30 2634 H 237.482 3.58458 3.52869 0
M  V30 2635 H 237.182 5.17476 2.78374 0
M  V30 2636 H 238.706 4.88099 3.66868 0
M  V30 2637 H 240.12 5.53506 1.49345 0
M  V30 2638 H 238.517 5.94515 0.81684 0
M  V30 2639 H 239.587 4.84842 -0.0749568 0
M  V30 2640 N 240.93 -0.123565 1.57115 0
M  V30 2641 C 242.341 -0.681198 1.73829 0
M  V30 2642 C 242.692 -1.80535 0.768214 0
M  V30 2643 O 241.817 -2.16317 -0.0599103 0
M  V30 2644 C 242.412 -1.24246 3.15196 0
M  V30 2645 C 240.971 -1.74643 3.33432 0
M  V30 2646 C 240.118 -0.644284 2.69711 0
M  V30 2647 H 243.069 0.102315 1.5837 0
M  V30 2648 H 243.09 -2.11216 3.16493 0
M  V30 2649 H 242.602 -0.424062 3.85776 0
M  V30 2650 H 240.703 -2.58974 2.67886 0
M  V30 2651 H 240.816 -1.85902 4.41562 0
M  V30 2652 H 239.18 -1.07676 2.3082 0
M  V30 2653 H 239.963 0.163058 3.42913 0
M  V30 2654 N 242.408 -1.52605 -0.393616 0
M  V30 2655 C 243.371 -1.76415 -1.46323 0
M  V30 2656 C 244.371 -0.634126 -1.47768 0
M  V30 2657 O 245.561 -0.902142 -1.4902 0
M  V30 2658 C 242.693 -1.8607 -2.85641 0
M  V30 2659 H 243.886 -2.71916 -1.26498 0
M  V30 2660 H 241.439 -1.43257 -0.625073 0
M  V30 2661 H 242.174 -0.925378 -3.10817 0
M  V30 2662 H 241.959 -2.68235 -2.85993 0
M  V30 2663 H 243.449 -2.06179 -3.63153 0
M  V30 2664 N 243.887 0.651787 -1.4349 0
M  V30 2665 C 245.134 1.41167 -1.45183 0
M  V30 2666 C 245.462 1.94349 -0.0766601 0
M  V30 2667 O 244.717 1.72804 0.918555 0
M  V30 2668 C 245.016 2.60914 -2.44251 0
M  V30 2669 C 244.682 2.26142 -3.9009 0
M  V30 2670 C 243.344 2.16371 -4.2981 0
M  V30 2671 C 245.696 1.98334 -4.81989 0
M  V30 2672 C 243.024 1.7695 -5.5938 0
M  V30 2673 C 245.376 1.6041 -6.11924 0
M  V30 2674 C 244.04 1.49166 -6.5062 0
M  V30 2675 H 243.31 0.516566 -0.531263 0
M  V30 2676 H 245.957 0.741099 -1.76579 0
M  V30 2677 H 244.262 3.3311 -2.06265 0
M  V30 2678 H 245.959 3.19127 -2.42815 0
M  V30 2679 H 242.549 2.34658 -3.58655 0
M  V30 2680 H 246.733 2.04803 -4.52072 0
M  V30 2681 H 241.989 1.66831 -5.88198 0
M  V30 2682 H 246.163 1.37925 -6.82605 0
M  V30 2683 H 243.79 1.1839 -7.50925 0
M  V30 2684 N 245.365 1.30045 0.890287 0
M  V30 2685 C 246.614 1.17929 1.63633 0
M  V30 2686 C 246.927 -0.266204 1.9378 0
M  V30 2687 O 248.133 -0.508804 2.6669 0
M  V30 2688 C 246.589 2.06317 2.94892 0
M  V30 2689 C 246.197 3.55745 2.72305 0
M  V30 2690 C 247.941 2.0295 3.72843 0
M  V30 2691 C 245.848 4.36205 3.99348 0
M  V30 2692 H 244.778 0.437782 0.613892 0
M  V30 2693 H 247.429 1.54754 0.986075 0
M  V30 2694 H 245.811 1.6237 3.61182 0
M  V30 2695 H 246.985 4.07805 2.1455 0
M  V30 2696 H 245.3 3.6088 2.07737 0
M  V30 2697 H 247.897 2.60319 4.67053 0
M  V30 2698 H 248.24 1.0117 4.0382 0
M  V30 2699 H 248.773 2.4499 3.13408 0
M  V30 2700 H 245.512 5.38659 3.73533 0
M  V30 2701 H 245.032 3.8891 4.56628 0
M  V30 2702 H 246.711 4.47362 4.67415 0
M  V30 2703 N 246.843 -1.10192 1.12674 0
M  V30 2704 C 248.092 -1.81573 0.8783 0
M  V30 2705 C 248.405 -1.86249 -0.597557 0
M  V30 2706 O 249.611 -2.5386 -0.962681 0
M  V30 2707 C 248.067 -3.26149 1.52167 0
M  V30 2708 C 247.675 -3.29763 3.03249 0
M  V30 2709 C 249.419 -4.0234 1.3536 0
M  V30 2710 C 247.326 -4.68815 3.60508 0
M  V30 2711 H 246.256 -0.680394 0.324931 0
M  V30 2712 H 248.907 -1.23902 1.35353 0
M  V30 2713 H 247.289 -3.83832 0.974104 0
M  V30 2714 H 248.463 -2.8189 3.6452 0
M  V30 2715 H 246.778 -2.67059 3.19481 0
M  V30 2716 H 249.375 -5.05058 1.75559 0
M  V30 2717 H 249.718 -4.15235 0.297554 0
M  V30 2718 H 250.251 -3.51079 1.87052 0
M  V30 2719 H 246.99 -4.61121 4.65884 0
M  V30 2720 H 246.51 -5.17045 3.04014 0
M  V30 2721 H 248.189 -5.37785 3.59717 0
M  V30 2722 N 248.321 -0.919034 -1.28029 0
M  V30 2723 C 249.268 -0.410005 -2.27129 0
M  V30 2724 C 250.238 0.518405 -1.57803 0
M  V30 2725 O 251.423 0.439451 -1.8567 0
M  V30 2726 C 248.563 0.339054 -3.4343 0
M  V30 2727 C 247.676 -0.622468 -4.27492 0
M  V30 2728 C 246.811 0.145567 -5.31001 0
M  V30 2729 C 245.85 -0.809226 -6.06727 0
M  V30 2730 N 244.987 -0.0743728 -7.02061 0
M  V30 2731 H 249.827 -1.26011 -2.70047 0
M  V30 2732 H 247.364 -0.632663 -1.328 0
M  V30 2733 H 249.322 0.789586 -4.0966 0
M  V30 2734 H 247.952 1.15346 -3.01488 0
M  V30 2735 H 247.004 -1.19153 -3.61257 0
M  V30 2736 H 248.316 -1.35252 -4.80113 0
M  V30 2737 H 247.47 0.656417 -6.03139 0
M  V30 2738 H 246.209 0.908643 -4.79161 0
M  V30 2739 H 245.214 -1.3314 -5.33436 0
M  V30 2740 H 246.439 -1.57194 -6.60656 0
M  V30 2741 H 244.385 0.670616 -6.52563 0
M  V30 2742 H 244.302 -0.744157 -7.52329 0
M  V30 2743 H 245.57 0.416109 -7.78389 0
M  V30 2744 N 249.799 1.42003 -0.683588 0
M  V30 2745 C 251.215 1.55625 -0.353976 0
M  V30 2746 C 251.415 1.66151 1.14 0
M  V30 2747 O 250.471 1.63329 1.92561 0
M  V30 2748 C 251.784 2.80171 -1.092 0
M  V30 2749 C 253.332 2.93954 -1.07518 0
M  V30 2750 C 253.807 4.21372 -1.79471 0
M  V30 2751 N 255.298 4.28303 -1.76381 0
M  V30 2752 C 256.033 5.25729 -2.28904 0
M  V30 2753 N 255.529 6.29254 -2.89846 0
M  V30 2754 N 257.322 5.17586 -2.19228 0
M  V30 2755 H 249.473 1.33415 -1.6527 0
M  V30 2756 H 251.736 0.64282 -0.696769 0
M  V30 2757 H 251.442 2.78561 -2.14701 0
M  V30 2758 H 251.316 3.7133 -0.662862 0
M  V30 2759 H 253.703 2.95086 -0.028475 0
M  V30 2760 H 253.784 2.04002 -1.54328 0
M  V30 2761 H 253.428 4.21001 -2.84114 0
M  V30 2762 H 253.358 5.10275 -1.30104 0
M  V30 2763 H 255.849 3.54119 -1.31939 0
M  V30 2764 H 256.162 6.99964 -3.27522 0
M  V30 2765 H 254.507 6.29791 -2.93919 0
M  V30 2766 H 257.698 4.35631 -1.71299 0
M  V30 2767 H 257.871 5.93348 -2.60466 0
M  V30 2768 N 251.277 0.427512 1.51691 0
M  V30 2769 C 252.526 -0.143679 2.01188 0
M  V30 2770 C 252.839 -1.44642 1.31674 0
M  V30 2771 O 254.045 -2.09997 1.72086 0
M  V30 2772 C 252.501 -0.306602 3.58592 0
M  V30 2773 C 252.109 0.985125 4.37035 0
M  V30 2774 C 253.853 -0.832091 4.16265 0
M  V30 2775 C 251.76 0.788382 5.86122 0
M  V30 2776 H 250.69 -0.0574701 0.751807 0
M  V30 2777 H 253.341 0.555772 1.74881 0
M  V30 2778 H 251.723 -1.06882 3.81303 0
M  V30 2779 H 252.897 1.75492 4.26074 0
M  V30 2780 H 251.212 1.4384 3.90767 0
M  V30 2781 H 253.809 -0.995617 5.25349 0
M  V30 2782 H 254.152 -1.81186 3.74803 0
M  V30 2783 H 254.685 -0.128444 3.97593 0
M  V30 2784 H 251.424 1.74025 6.31978 0
M  V30 2785 H 250.944 0.0582143 5.99772 0
M  V30 2786 H 252.623 0.437722 6.45518 0
M  V30 2787 N 252.755 -1.56801 0.158532 0
M  V30 2788 C 254.166 -1.83189 -0.360366 0
M  V30 2789 C 254.517 -1.07778 -1.63946 0
M  V30 2790 O 253.642 -0.326718 -2.13919 0
M  V30 2791 C 254.237 -3.32297 -0.660595 0
M  V30 2792 C 252.796 -3.59227 -1.12398 0
M  V30 2793 C 251.943 -2.76877 -0.153097 0
M  V30 2794 H 254.894 -1.54008 0.383031 0
M  V30 2795 H 254.915 -3.4908 -1.51405 0
M  V30 2796 H 254.427 -3.87156 0.270527 0
M  V30 2797 H 252.528 -3.09766 -2.07064 0
M  V30 2798 H 252.641 -4.67632 -1.04197 0
M  V30 2799 H 251.005 -2.46319 -0.647983 0
M  V30 2800 H 251.788 -3.34511 0.77182 0
M  V30 2801 N 254.233 0.115231 -1.57178 0
M  V30 2802 C 255.479 0.82357 -1.85325 0
M  V30 2803 C 255.812 1.79349 -0.744814 0
M  V30 2804 O 255.087 1.92899 0.249024 0
M  V30 2805 C 255.37 1.57014 -3.24066 0
M  V30 2806 C 255.223 0.619565 -4.45513 0
M  V30 2807 C 256.542 2.52545 -3.60429 0
M  V30 2808 H 253.661 0.297948 -0.674089 0
M  V30 2809 H 256.303 0.0877138 -1.89797 0
M  V30 2810 H 254.453 2.19742 -3.20383 0
M  V30 2811 H 256.125 0.000837639 -4.613 0
M  V30 2812 H 254.368 -0.0686174 -4.33746 0
M  V30 2813 H 255.039 1.17866 -5.3927 0
M  V30 2814 H 257.515 1.9992 -3.64926 0
M  V30 2815 H 256.391 3.01811 -4.58477 0
M  V30 2816 H 256.652 3.35383 -2.88047 0
M  V30 2817 N 255.711 1.52812 0.385517 0
M  V30 2818 C 257.127 1.4214 0.725829 0
M  V30 2819 C 257.327 0.544589 1.94001 0
M  V30 2820 O 256.383 0.0193693 2.52493 0
M  V30 2821 C 257.696 2.85042 0.957668 0
M  V30 2822 C 259.244 2.94543 1.05892 0
M  V30 2823 C 259.719 4.38464 1.32337 0
M  V30 2824 N 261.21 4.41804 1.39151 0
M  V30 2825 C 261.945 5.5025 1.61285 0
M  V30 2826 N 261.441 6.68775 1.80866 0
M  V30 2827 N 263.234 5.37798 1.63492 0
M  V30 2828 H 255.385 2.08338 -0.413383 0
M  V30 2829 H 257.648 0.940016 -0.122775 0
M  V30 2830 H 257.354 3.51431 0.137568 0
M  V30 2831 H 257.228 3.27505 1.87137 0
M  V30 2832 H 259.615 2.28321 1.86959 0
M  V30 2833 H 259.696 2.55504 0.123057 0
M  V30 2834 H 259.34 5.05254 0.517793 0
M  V30 2835 H 259.27 4.75059 2.27214 0
M  V30 2836 H 261.761 3.56377 1.25713 0
M  V30 2837 H 262.074 7.47197 1.97271 0
M  V30 2838 H 260.419 6.71797 1.78083 0
M  V30 2839 H 263.61 4.44171 1.47749 0
M  V30 2840 H 263.783 6.22382 1.80402 0
M  V30 2841 N 257.189 -0.644168 1.43834 0
M  V30 2842 C 258.436 -1.40395 1.4593 0
M  V30 2843 C 258.764 -1.94305 0.0869658 0
M  V30 2844 O 258.019 -1.73288 -0.909378 0
M  V30 2845 C 258.318 -2.59615 2.45631 0
M  V30 2846 C 257.984 -2.2407 3.91284 0
M  V30 2847 C 256.646 -2.14089 4.30952 0
M  V30 2848 C 258.998 -1.95775 4.83034 0
M  V30 2849 C 256.326 -1.73981 5.6031 0
M  V30 2850 C 258.678 -1.57163 6.12766 0
M  V30 2851 C 257.342 -1.45713 6.51402 0
M  V30 2852 H 256.612 -0.513741 0.533995 0
M  V30 2853 H 259.259 -0.731724 1.76969 0
M  V30 2854 H 257.564 -3.32011 2.08028 0
M  V30 2855 H 259.261 -3.17834 2.44504 0
M  V30 2856 H 255.851 -2.32753 3.59895 0
M  V30 2857 H 260.035 -2.02403 4.53152 0
M  V30 2858 H 255.291 -1.63709 5.89075 0
M  V30 2859 H 259.465 -1.34303 6.83327 0
M  V30 2860 H 257.092 -1.14406 7.51542 0
M  V30 2861 N 258.668 -1.30515 -0.883378 0
M  V30 2862 C 259.896 -1.22359 -1.66841 0
M  V30 2863 C 260.311 0.213296 -1.87591 0
M  V30 2864 O 259.668 1.14075 -1.42454 0
M  V30 2865 C 259.719 -1.95011 -3.04389 0
M  V30 2866 O 259.44 -3.3309 -2.84575 0
M  V30 2867 C 260.941 -1.93532 -3.98824 0
M  V30 2868 H 258.161 -0.423371 -0.520575 0
M  V30 2869 H 260.705 -1.72167 -1.10357 0
M  V30 2870 H 258.86 -1.48997 -3.57601 0
M  V30 2871 H 259.274 -3.69907 -3.71846 0
M  V30 2872 H 260.748 -2.48902 -4.92699 0
M  V30 2873 H 261.225 -0.914627 -4.29571 0
M  V30 2874 H 261.831 -2.39364 -3.51547 0
M  V30 2875 N 260.146 1.09593 -1.13257 0
M  V30 2876 C 261.393 1.81734 -0.893257 0
M  V30 2877 C 261.721 1.8563 0.580656 0
M  V30 2878 O 260.976 1.31906 1.44566 0
M  V30 2879 C 261.275 3.27802 -1.42411 0
M  V30 2880 C 260.941 3.44041 -2.91456 0
M  V30 2881 C 259.603 3.48181 -3.3215 0
M  V30 2882 C 261.955 3.48719 -3.87356 0
M  V30 2883 C 259.283 3.54575 -4.67433 0
M  V30 2884 C 261.635 3.56648 -5.2248 0
M  V30 2885 C 260.299 3.59055 -5.62704 0
M  V30 2886 H 259.569 0.665011 -0.326866 0
M  V30 2887 H 262.216 1.2912 -1.41422 0
M  V30 2888 H 260.521 3.83042 -0.823795 0
M  V30 2889 H 262.218 3.82149 -1.21503 0
M  V30 2890 H 258.808 3.41502 -2.58987 0
M  V30 2891 H 262.992 3.44763 -3.57004 0
M  V30 2892 H 258.248 3.54725 -4.97976 0
M  V30 2893 H 262.422 3.59212 -5.96607 0
M  V30 2894 H 260.049 3.63763 -6.67518 0
M  V30 2895 N 261.624 0.925811 1.2754 0
M  V30 2896 C 262.901 0.483726 1.89524 0
M  V30 2897 C 263.281 -1.03809 1.83812 0
M  V30 2898 O 262.629 -1.89143 1.28207 0
M  V30 2899 C 262.839 1.02769 3.33526 0
M  V30 2900 C 264.187 1.08703 4.10449 0
M  V30 2901 O 265.211 0.977175 3.42534 0
M  V30 2902 O 264.07 1.25599 5.31871 0
M  V30 2903 H 261.164 0.15529 0.812289 0
M  V30 2904 H 263.71 1.01738 1.35822 0
M  V30 2905 H 262.482 2.07155 3.31967 0
M  V30 2906 H 262.105 0.475567 3.94746 0
M  V30 2907 N 263.102 -1.41638 0.69111 0
M  V30 2908 C 264.05 -2.32597 0.0115199 0
M  V30 2909 C 265.044 -1.5072 -0.773296 0
M  V30 2910 O 266.25 -1.66685 -0.67942 0
M  V30 2911 H 262.625 -0.751849 -0.0150746 0
M  V30 2912 H 264.596 -2.87593 0.795791 0
M  V30 2913 C 263.345 -3.35467 -0.914172 0
M  V30 2914 H 262.668 -3.9852 -0.319687 0
M  V30 2915 H 264.108 -4.01662 -1.35808 0
M  V30 2916 C 262.567 -2.69004 -2.02826 0
M  V30 2917 O 263.097 -2.53444 -3.11655 0
M  V30 2918 N 261.303 -2.2777 -1.80469 0
M  V30 2919 H 260.85 -2.40626 -0.919615 0
M  V30 2920 H 260.808 -1.83635 -2.55197 0
M  V30 2921 N 264.58 -0.43555 -1.51462 0
M  V30 2922 C 265.528 0.391205 -2.29287 0
M  V30 2923 C 266.522 1.02247 -1.35062 0
M  V30 2924 O 267.728 0.957646 -1.52411 0
M  V30 2925 H 264.103 0.144968 -0.737895 0
M  V30 2926 H 266.074 -0.286051 -2.97026 0
M  V30 2927 C 264.823 1.48096 -3.14583 0
M  V30 2928 H 264.146 1.00457 -3.86973 0
M  V30 2929 H 265.586 2.03273 -3.72097 0
M  V30 2930 C 264.045 2.46321 -2.29843 0
M  V30 2931 O 264.575 3.50815 -1.95682 0
M  V30 2932 N 262.781 2.17166 -1.931 0
M  V30 2933 H 262.328 1.32218 -2.21079 0
M  V30 2934 H 262.286 2.83127 -1.36698 0
M  V30 2935 N 266.058 1.56714 -0.166846 0
M  V30 2936 C 267.288 2.00828 0.48494 0
M  V30 2937 C 267.696 1.04612 1.57648 0
M  V30 2938 O 267.039 0.0383201 1.8366 0
M  V30 2939 C 267.101 3.4137 1.12723 0
M  V30 2940 C 266.765 4.56654 0.177886 0
M  V30 2941 C 267.762 5.16402 -0.60207 0
M  V30 2942 C 265.447 5.02244 0.0750139 0
M  V30 2943 C 267.441 6.20167 -1.47215 0
M  V30 2944 C 265.128 6.05859 -0.798649 0
M  V30 2945 C 266.126 6.64691 -1.57082 0
M  V30 2946 O 265.814 7.66297 -2.42989 0
M  V30 2947 H 265.546 0.663587 0.128953 0
M  V30 2948 H 268.1 2.03692 -0.264365 0
M  V30 2949 H 266.33 3.35406 1.92457 0
M  V30 2950 H 268.019 3.69466 1.68076 0
M  V30 2951 H 268.785 4.82065 -0.53274 0
M  V30 2952 H 264.664 4.56167 0.665812 0
M  V30 2953 H 268.208 6.66016 -2.07531 0
M  V30 2954 H 264.105 6.39621 -0.869199 0
M  V30 2955 H 264.873 7.83601 -2.36455 0
M  V30 2956 N 267.536 -0.106894 1.57237 0
M  V30 2957 C 268.783 -0.812526 1.85484 0
M  V30 2958 C 269.111 -1.79304 0.753687 0
M  V30 2959 O 268.366 -1.94047 -0.253853 0
M  V30 2960 C 268.665 -1.58628 3.20268 0
M  V30 2961 C 268.331 -0.748967 4.44636 0
M  V30 2962 C 266.993 -0.518104 4.78403 0
M  V30 2963 C 269.345 -0.166122 5.20935 0
M  V30 2964 C 266.673 0.305659 5.85903 0
M  V30 2965 C 269.025 0.644899 6.29304 0
M  V30 2966 C 267.689 0.885965 6.61594 0
M  V30 2967 H 266.959 -0.297324 0.678734 0
M  V30 2968 H 269.606 -0.0744332 1.91355 0
M  V30 2969 H 267.911 -2.39562 3.10028 0
M  V30 2970 H 269.608 -2.13643 3.39349 0
M  V30 2971 H 266.198 -0.939006 4.18187 0
M  V30 2972 H 270.382 -0.33167 4.95191 0
M  V30 2973 H 265.638 0.501528 6.0934 0
M  V30 2974 H 269.812 1.10345 6.87602 0
M  V30 2975 H 267.439 1.52609 7.44725 0
M  V30 2976 N 269.014 -1.53014 -0.377408 0
M  V30 2977 C 270.239 -1.72818 -1.14668 0
M  V30 2978 C 270.664 -0.450725 -1.8262 0
M  V30 2979 O 270.022 0.59439 -1.7128 0
M  V30 2980 C 270.07 -2.88627 -2.16164 0
M  V30 2981 O 269.174 -2.56409 -3.22998 0
M  V30 2982 H 268.515 -0.574301 -0.333278 0
M  V30 2983 H 271.045 -1.99853 -0.438152 0
M  V30 2984 H 271.055 -3.14455 -2.59966 0
M  V30 2985 H 269.73 -3.81294 -1.66095 0
M  V30 2986 H 268.307 -2.4136 -2.84253 0
M  V30 2987 N 270.492 0.636531 -1.44174 0
M  V30 2988 C 271.769 1.39463 -1.37148 0
M  V30 2989 C 272.149 2.11082 -0.027507 0
M  V30 2990 O 271.497 2.05954 0.989716 0
M  V30 2991 C 271.707 2.36552 -2.56601 0
M  V30 2992 C 273.055 3.00048 -3.00427 0
M  V30 2993 O 274.079 2.46878 -2.56767 0
M  V30 2994 O 272.938 3.96488 -3.76111 0
M  V30 2995 H 270.032 0.623903 -0.542839 0
M  V30 2996 H 272.578 0.662039 -1.56253 0
M  V30 2997 H 271.35 1.82692 -3.46034 0
M  V30 2998 H 270.973 3.17236 -2.39681 0
M  V30 2999 N 271.97 1.30982 0.876444 0
M  V30 3000 C 273.386 1.09498 1.16113 0
M  V30 3001 C 273.586 -0.13875 2.01022 0
M  V30 3002 O 272.642 -0.829935 2.38471 0
M  V30 3003 C 273.955 2.36308 1.85954 0
M  V30 3004 C 275.503 2.41856 1.98683 0
M  V30 3005 C 275.978 3.6853 2.71937 0
M  V30 3006 N 277.469 3.69387 2.79477 0
M  V30 3007 C 278.204 4.64096 3.36753 0
M  V30 3008 N 277.7 5.69155 3.95012 0
M  V30 3009 N 279.493 4.51626 3.3465 0
M  V30 3010 H 271.644 2.10118 0.310494 0
M  V30 3011 H 273.907 0.926634 0.200131 0
M  V30 3012 H 273.613 3.26388 1.31011 0
M  V30 3013 H 273.487 2.4561 2.86278 0
M  V30 3014 H 275.874 1.52249 2.52793 0
M  V30 3015 H 275.955 2.36523 0.9742 0
M  V30 3016 H 275.599 4.58499 2.18496 0
M  V30 3017 H 275.529 3.71127 3.73593 0
M  V30 3018 H 278.02 2.93438 2.38123 0
M  V30 3019 H 278.333 6.3751 4.36808 0
M  V30 3020 H 276.678 5.72937 3.93406 0
M  V30 3021 H 279.869 3.68728 2.8837 0
M  V30 3022 H 280.042 5.25614 3.7899 0
M  V30 3023 N 273.449 -1.08991 1.13837 0
M  V30 3024 C 274.679 -1.84743 0.924859 0
M  V30 3025 C 275.087 -1.81629 -0.529874 0
M  V30 3026 O 274.43 -1.21397 -1.37872 0
M  V30 3027 C 274.492 -3.33568 1.34061 0
M  V30 3028 C 274.156 -3.60425 2.80968 0
M  V30 3029 C 275.153 -3.55771 3.79108 0
M  V30 3030 C 272.838 -3.88627 3.18236 0
M  V30 3031 C 274.832 -3.78939 5.12527 0
M  V30 3032 C 272.519 -4.11449 4.51833 0
M  V30 3033 C 273.517 -4.06598 5.48787 0
M  V30 3034 O 273.205 -4.28826 6.79973 0
M  V30 3035 H 272.937 -0.590258 0.329502 0
M  V30 3036 H 275.491 -1.38598 1.51591 0
M  V30 3037 H 273.721 -3.80442 0.692853 0
M  V30 3038 H 275.41 -3.90743 1.09886 0
M  V30 3039 H 276.176 -3.34005 3.51661 0
M  V30 3040 H 272.055 -3.91526 2.43369 0
M  V30 3041 H 275.599 -3.75068 5.88192 0
M  V30 3042 H 271.496 -4.32698 4.79002 0
M  V30 3043 H 272.264 -4.46264 6.86142 0
M  V30 3044 N 274.927 -0.932562 -1.27047 0
M  V30 3045 C 275.859 -0.392734 -2.2581 0
M  V30 3046 C 276.872 0.479241 -1.55586 0
M  V30 3047 O 278.061 0.291078 -1.76111 0
M  V30 3048 C 275.161 0.455456 -3.35826 0
M  V30 3049 C 274.334 -0.398355 -4.35582 0
M  V30 3050 C 273.393 0.387985 -5.24768 0
M  V30 3051 O 272.419 -0.206003 -5.68827 0
M  V30 3052 N 273.621 1.68664 -5.55457 0
M  V30 3053 H 276.386 -1.24173 -2.72766 0
M  V30 3054 H 273.947 -0.800511 -1.40725 0
M  V30 3055 H 275.939 0.988692 -3.92437 0
M  V30 3056 H 274.509 1.20522 -2.88432 0
M  V30 3057 H 273.729 -1.11286 -3.78165 0
M  V30 3058 H 275.017 -0.981889 -4.99236 0
M  V30 3059 H 274.415 2.19147 -5.21528 0
M  V30 3060 H 272.972 2.1663 -6.14748 0
M  V30 3061 N 276.405 1.4127 -0.698611 0
M  V30 3062 C 277.653 2.00782 -0.230409 0
M  V30 3063 C 277.974 1.5562 1.17505 0
M  V30 3064 O 277.244 0.78815 1.79346 0
M  V30 3065 H 275.824 0.742464 -0.0821944 0
M  V30 3066 H 278.486 1.72852 -0.90045 0
M  V30 3067 H 277.582 3.11095 -0.25021 0
M  V30 3068 N 277.883 0.443576 1.51229 0
M  V30 3069 C 279.132 -0.122332 2.01329 0
M  V30 3070 C 279.445 -1.43237 1.33201 0
M  V30 3071 O 280.651 -2.0816 1.74304 0
M  V30 3072 C 279.107 -0.268551 3.58897 0
M  V30 3073 C 278.715 1.03142 4.35965 0
M  V30 3074 C 280.459 -0.787894 4.17124 0
M  V30 3075 C 278.366 0.850504 5.85252 0
M  V30 3076 H 277.296 -0.0494929 0.752374 0
M  V30 3077 H 279.947 0.574289 1.74282 0
M  V30 3078 H 278.329 -1.02832 3.82415 0
M  V30 3079 H 279.503 1.80001 4.24189 0
M  V30 3080 H 277.818 1.47977 3.89219 0
M  V30 3081 H 280.415 -0.939841 5.26375 0
M  V30 3082 H 280.758 -1.77201 3.76703 0
M  V30 3083 H 281.291 -0.0862669 3.97706 0
M  V30 3084 H 278.03 1.80718 6.30096 0
M  V30 3085 H 277.55 0.121825 5.99676 0
M  V30 3086 H 279.229 0.506163 6.45017 0
M  V30 3087 N 279.361 -1.56624 0.175154 0
M  V30 3088 C 280.772 -1.83561 -0.340916 0
M  V30 3089 C 281.123 -1.09511 -1.62794 0
M  V30 3090 O 280.248 -0.349389 -2.13561 0
M  V30 3091 C 280.843 -3.32979 -0.625313 0
M  V30 3092 C 279.402 -3.60399 -1.08581 0
M  V30 3093 C 278.549 -2.77024 -0.123722 0
M  V30 3094 H 281.5 -1.53593 0.399344 0
M  V30 3095 H 281.521 -3.50666 -1.47694 0
M  V30 3096 H 281.033 -3.86847 0.311575 0
M  V30 3097 H 279.134 -3.11945 -2.03767 0
M  V30 3098 H 279.247 -4.68711 -0.992317 0
M  V30 3099 H 277.611 -2.46993 -0.621821 0
M  V30 3100 H 278.394 -3.33674 0.807256 0
M  V30 3101 N 280.839 0.0985539 -1.57292 0
M  V30 3102 C 282.085 0.803867 -1.86188 0
M  V30 3103 C 282.418 1.78549 -0.763794 0
M  V30 3104 O 281.693 1.93153 0.22855 0
M  V30 3105 C 281.976 1.53568 -3.25713 0
M  V30 3106 C 281.829 0.572277 -4.46145 0
M  V30 3107 C 283.148 2.48708 -3.63087 0
M  V30 3108 H 280.267 0.290781 -0.677211 0
M  V30 3109 H 282.909 0.0675783 -1.8988 0
M  V30 3110 H 281.059 2.16332 -3.22696 0
M  V30 3111 H 282.731 -0.0480894 -4.61275 0
M  V30 3112 H 280.974 -0.114618 -4.33649 0
M  V30 3113 H 281.645 1.12139 -5.40489 0
M  V30 3114 H 284.121 1.96039 -3.67026 0
M  V30 3115 H 282.997 2.96932 -4.61652 0
M  V30 3116 H 283.258 3.32309 -2.91588 0
M  V30 3117 N 282.317 1.53212 0.369288 0
M  V30 3118 C 283.565 1.68881 1.11012 0
M  V30 3119 C 283.886 0.441285 1.89941 0
M  V30 3120 O 283.156 -0.544623 1.88177 0
M  V30 3121 H 281.736 0.622569 0.412816 0
M  V30 3122 H 284.398 1.90391 0.416802 0
M  V30 3123 H 283.494 2.54822 1.80201 0
M  V30 3124 N 283.795 -0.628877 1.44509 0
M  V30 3125 C 285.043 -1.38565 1.4712 0
M  V30 3126 C 285.364 -1.94712 0.105899 0
M  V30 3127 O 284.634 -1.75912 -0.862079 0
M  V30 3128 H 283.214 -0.514333 0.541729 0
M  V30 3129 H 285.876 -0.740018 1.80305 0
M  V30 3130 H 284.972 -2.21583 2.19789 0
M  V30 3131 N 285.273 -1.31445 -0.869486 0
M  V30 3132 C 286.503 -1.23942 -1.65294 0
M  V30 3133 C 286.911 0.197561 -1.88166 0
M  V30 3134 O 286.254 1.14019 -1.44033 0
M  V30 3135 C 286.316 -1.91385 -3.04322 0
M  V30 3136 C 285.98 -3.40726 -3.04557 0
M  V30 3137 C 286.977 -4.36464 -2.82481 0
M  V30 3138 C 284.662 -3.82425 -3.25663 0
M  V30 3139 C 286.656 -5.71876 -2.8149 0
M  V30 3140 C 284.343 -5.1795 -3.243 0
M  V30 3141 C 285.341 -6.12486 -3.02241 0
M  V30 3142 O 285.029 -7.45534 -3.00724 0
M  V30 3143 H 284.761 -0.429459 -0.522054 0
M  V30 3144 H 287.315 -1.73873 -1.0935 0
M  V30 3145 H 285.545 -1.36004 -3.61994 0
M  V30 3146 H 287.234 -1.77791 -3.64891 0
M  V30 3147 H 288 -4.05576 -2.65956 0
M  V30 3148 H 283.879 -3.09274 -3.41863 0
M  V30 3149 H 287.423 -6.45638 -2.64191 0
M  V30 3150 H 283.32 -5.48473 -3.40365 0
M  V30 3151 H 284.088 -7.54713 -3.16782 0
M  V30 3152 N 286.751 1.08385 -1.14413 0
M  V30 3153 C 287.979 1.84517 -0.936001 0
M  V30 3154 C 288.394 1.81626 0.515503 0
M  V30 3155 O 287.751 1.22008 1.35721 0
M  V30 3156 C 287.802 3.32049 -1.42918 0
M  V30 3157 O 287.523 3.34951 -2.82381 0
M  V30 3158 C 289.024 4.24986 -1.26103 0
M  V30 3159 H 286.244 0.582491 -0.333084 0
M  V30 3160 H 288.788 1.36885 -1.5193 0
M  V30 3161 H 286.943 3.7707 -0.888641 0
M  V30 3162 H 287.357 4.27048 -3.04517 0
M  V30 3163 H 288.831 5.26615 -1.6547 0
M  V30 3164 H 289.308 4.38726 -0.20392 0
M  V30 3165 H 289.914 3.85791 -1.79012 0
M  V30 3166 N 288.23 0.939286 1.26551 0
M  V30 3167 C 289.177 0.446088 2.26448 0
M  V30 3168 C 290.147 -0.493234 1.58608 0
M  V30 3169 O 291.332 -0.409857 1.86346 0
M  V30 3170 C 288.472 -0.284375 3.43926 0
M  V30 3171 C 287.585 0.690399 4.26448 0
M  V30 3172 C 286.72 -0.0610712 5.31165 0
M  V30 3173 C 285.759 0.905649 6.05363 0
M  V30 3174 N 284.896 0.186055 7.01853 0
M  V30 3175 H 289.736 1.30291 2.68008 0
M  V30 3176 H 287.273 0.65371 1.31776 0
M  V30 3177 H 289.231 -0.724313 4.10864 0
M  V30 3178 H 287.861 -1.10535 3.03285 0
M  V30 3179 H 286.913 1.24885 3.59316 0
M  V30 3180 H 288.225 1.42873 4.779 0
M  V30 3181 H 287.379 -0.56038 6.04106 0
M  V30 3182 H 286.118 -0.832297 4.80546 0
M  V30 3183 H 285.123 1.4161 5.3125 0
M  V30 3184 H 286.348 1.67685 6.58072 0
M  V30 3185 H 284.294 -0.566714 6.53548 0
M  V30 3186 H 284.211 0.863752 7.51049 0
M  V30 3187 H 285.479 -0.292221 7.78952 0
M  V30 3188 N 289.708 -1.40897 0.706093 0
M  V30 3189 C 290.638 -2.33418 0.0620085 0
M  V30 3190 C 291.619 -1.52385 -0.755827 0
M  V30 3191 O 292.804 -1.80886 -0.706674 0
M  V30 3192 C 289.934 -3.36293 -0.867445 0
M  V30 3193 C 288.888 -4.27716 -0.155932 0
M  V30 3194 C 288.214 -5.2105 -1.20046 0
M  V30 3195 C 289.514 -5.12944 0.984149 0
M  V30 3196 H 291.208 -2.87527 0.83477 0
M  V30 3197 H 288.754 -1.38249 0.402875 0
M  V30 3198 H 290.707 -3.99949 -1.32735 0
M  V30 3199 H 289.431 -2.80556 -1.67199 0
M  V30 3200 H 288.09 -3.65498 0.284047 0
M  V30 3201 H 287.738 -4.61624 -1.99781 0
M  V30 3202 H 287.438 -5.83056 -0.729328 0
M  V30 3203 H 288.962 -5.87584 -1.66066 0
M  V30 3204 H 290.376 -5.70109 0.604048 0
M  V30 3205 H 288.773 -5.83945 1.38304 0
M  V30 3206 H 289.843 -4.49485 1.81911 0
M  V30 3207 N 291.186 -0.45159 -1.50991 0
M  V30 3208 C 292.435 0.111653 -2.01391 0
M  V30 3209 C 292.748 1.42529 -1.33959 0
M  V30 3210 O 293.954 2.07232 -1.75405 0
M  V30 3211 C 292.41 0.249514 -3.59034 0
M  V30 3212 C 292.018 -1.05453 -4.35412 0
M  V30 3213 C 293.762 0.765762 -4.17536 0
M  V30 3214 C 291.669 -0.881529 -5.84793 0
M  V30 3215 H 290.599 0.0455022 -0.752626 0
M  V30 3216 H 293.25 -0.583524 -1.73975 0
M  V30 3217 H 291.632 1.00803 -3.82955 0
M  V30 3218 H 292.806 -1.82248 -4.23229 0
M  V30 3219 H 291.121 -1.50039 -3.88429 0
M  V30 3220 H 293.718 0.911913 -5.26866 0
M  V30 3221 H 294.061 1.75201 -3.77638 0
M  V30 3222 H 294.594 0.0651744 -3.97747 0
M  V30 3223 H 291.333 -1.84057 -6.29129 0
M  V30 3224 H 290.853 -0.153625 -5.99603 0
M  V30 3225 H 292.532 -0.540363 -6.4474 0
M  V30 3226 N 292.664 1.56529 -0.183458 0
M  V30 3227 C 293.574 2.22144 0.754272 0
M  V30 3228 C 294.59 1.21684 1.24374 0
M  V30 3229 O 295.766 1.54385 1.29333 0
M  V30 3230 C 292.831 2.85884 1.96141 0
M  V30 3231 C 291.892 4.01579 1.51765 0
M  V30 3232 C 291.125 4.6227 2.66725 0
M  V30 3233 O 291.348 4.21865 3.83909 0
M  V30 3234 O 290.282 5.51936 2.40104 0
M  V30 3235 H 294.108 3.02861 0.225527 0
M  V30 3236 H 291.693 1.49331 0.0453032 0
M  V30 3237 H 293.575 3.26253 2.66715 0
M  V30 3238 H 292.25 2.08154 2.47899 0
M  V30 3239 H 291.157 3.65856 0.781049 0
M  V30 3240 H 292.49 4.80938 1.04686 0
M  V30 3241 N 294.142 -0.090211 1.57342 0
M  V30 3242 C 295.089 -1.10909 2.02405 0
M  V30 3243 C 296.059 -1.39523 0.901252 0
M  V30 3244 O 297.244 -1.50903 1.1676 0
M  V30 3245 C 294.384 -2.42277 2.45755 0
M  V30 3246 C 293.497 -2.20352 3.71576 0
M  V30 3247 C 292.632 -3.45154 4.03785 0
M  V30 3248 C 291.671 -3.18512 5.22701 0
M  V30 3249 N 290.808 -4.35593 5.50639 0
M  V30 3250 H 295.648 -0.71782 2.89225 0
M  V30 3251 H 293.185 -0.342901 1.43048 0
M  V30 3252 H 295.143 -3.18951 2.68935 0
M  V30 3253 H 293.773 -2.79242 1.61938 0
M  V30 3254 H 292.825 -1.34458 3.55844 0
M  V30 3255 H 294.137 -1.96661 4.58395 0
M  V30 3256 H 293.291 -4.30233 4.27767 0
M  V30 3257 H 292.03 -3.71904 3.15498 0
M  V30 3258 H 291.035 -2.31827 4.98534 0
M  V30 3259 H 292.26 -2.93103 6.12591 0
M  V30 3260 H 290.206 -4.6241 4.6531 0
M  V30 3261 H 290.123 -4.1511 6.31838 0
M  V30 3262 H 291.391 -5.21723 5.7916 0
M  V30 3263 N 295.62 -1.53406 -0.361157 0
M  V30 3264 C 296.553 -1.74946 -1.46524 0
M  V30 3265 C 297.531 -0.59795 -1.51206 0
M  V30 3266 O 298.715 -0.831062 -1.69191 0
M  V30 3267 C 295.842 -1.83224 -2.84863 0
M  V30 3268 C 294.888 -3.05233 -2.97885 0
M  V30 3269 S 295.721 -4.6466 -2.66179 0
M  V30 3270 C 296.877 -4.75793 -4.06659 0
M  V30 3271 H 297.11 -2.68319 -1.28033 0
M  V30 3272 H 294.643 -1.44051 -0.555764 0
M  V30 3273 H 296.601 -1.88679 -3.64569 0
M  V30 3274 H 295.262 -0.908948 -3.00661 0
M  V30 3275 H 294.455 -3.07648 -3.9921 0
M  V30 3276 H 294.057 -2.97913 -2.26106 0
M  V30 3277 H 296.349 -4.5612 -5.0096 0
M  V30 3278 H 297.292 -5.7786 -4.09247 0
M  V30 3279 H 297.7 -4.04389 -3.93865 0
M  V30 3280 N 297.098 0.621204 -1.44841 0
M  V30 3281 C 298.028 1.74366 -1.55303 0
M  V30 3282 C 299.009 1.65199 -0.405385 0
M  V30 3283 O 300.194 1.83807 -0.626787 0
M  V30 3284 C 297.324 3.12931 -1.50637 0
M  V30 3285 C 296.278 3.36896 -2.63979 0
M  V30 3286 C 295.604 4.75594 -2.44366 0
M  V30 3287 C 296.904 3.28483 -4.06074 0
M  V30 3288 H 298.598 1.65867 -2.49256 0
M  V30 3289 H 296.144 0.796558 -1.19962 0
M  V30 3290 H 298.097 3.9124 -1.56555 0
M  V30 3291 H 296.821 3.22237 -0.532057 0
M  V30 3292 H 295.48 2.60972 -2.57467 0
M  V30 3293 H 295.128 4.81616 -1.45105 0
M  V30 3294 H 294.828 4.92586 -3.20364 0
M  V30 3295 H 296.352 5.5612 -2.52117 0
M  V30 3296 H 297.766 3.96684 -4.13902 0
M  V30 3297 H 296.163 3.57008 -4.82354 0
M  V30 3298 H 297.233 2.26133 -4.28943 0
M  V30 3299 N 298.576 1.31904 0.862503 0
M  V30 3300 C 299.486 1.22161 2.00285 0
M  V30 3301 C 300.502 0.136785 1.73462 0
M  V30 3302 O 301.678 0.355994 1.98229 0
M  V30 3303 C 298.743 0.937093 3.33796 0
M  V30 3304 C 297.804 2.10957 3.73893 0
M  V30 3305 C 297.037 1.83853 5.01033 0
M  V30 3306 O 297.26 0.777274 5.65079 0
M  V30 3307 O 296.194 2.69741 5.38074 0
M  V30 3308 H 300.02 2.18008 2.11439 0
M  V30 3309 H 297.605 1.11716 0.991957 0
M  V30 3310 H 299.487 0.794583 4.13841 0
M  V30 3311 H 298.162 0.00871894 3.23699 0
M  V30 3312 H 297.069 2.30752 2.94456 0
M  V30 3313 H 298.402 3.02046 3.88625 0
M  V30 3314 N 300.054 -1.07777 1.14986 0
M  V30 3315 C 301.302 -1.79934 0.920235 0
M  V30 3316 C 301.623 -1.86955 -0.554336 0
M  V30 3317 O 300.893 -1.36731 -1.40291 0
M  V30 3318 H 299.473 -0.666424 0.337473 0
M  V30 3319 H 302.135 -1.3027 1.44968 0
M  V30 3320 H 301.231 -2.82539 1.32583 0
M  V30 3321 N 301.532 -0.945985 -1.26051 0
M  V30 3322 C 302.778 -0.597002 -1.93814 0
M  V30 3323 C 303.111 0.862484 -1.73997 0
M  V30 3324 O 302.386 1.61769 -1.07986 0
M  V30 3325 C 302.669 -0.945937 -3.47454 0
M  V30 3326 C 302.522 -2.46052 -3.76535 0
M  V30 3327 C 303.841 -0.464785 -4.37639 0
M  V30 3328 H 300.96 -0.218366 -0.703907 0
M  V30 3329 H 303.602 -1.18107 -1.48831 0
M  V30 3330 H 301.752 -0.448902 -3.85898 0
M  V30 3331 H 303.424 -3.03065 -3.47778 0
M  V30 3332 H 301.667 -2.90194 -3.22444 0
M  V30 3333 H 302.338 -2.65517 -4.83947 0
M  V30 3334 H 304.814 -0.891016 -4.06448 0
M  V30 3335 H 303.69 -0.737712 -5.4392 0
M  V30 3336 H 303.951 0.635274 -4.37512 0
M  V30 3337 N 303.011 1.40521 -0.713556 0
M  V30 3338 C 304.288 1.94775 -0.17943 0
M  V30 3339 C 304.668 1.65184 1.31444 0
M  V30 3340 O 304.016 0.968429 2.06963 0
M  V30 3341 C 304.226 3.45543 -0.489986 0
M  V30 3342 C 305.574 4.22442 -0.427536 0
M  V30 3343 O 306.598 3.53644 -0.425929 0
M  V30 3344 O 305.457 5.4501 -0.403292 0
M  V30 3345 H 302.551 0.826606 -0.0255192 0
M  V30 3346 H 305.097 1.5014 -0.790949 0
M  V30 3347 H 303.869 3.60432 -1.5233 0
M  V30 3348 H 303.492 3.97311 0.151598 0
M  V30 3349 N 304.489 0.459591 1.5075 0
M  V30 3350 C 305.735 -0.0994966 2.02556 0
M  V30 3351 C 306.068 -1.40399 1.3417 0
M  V30 3352 O 305.343 -1.88892 0.463683 0
M  V30 3353 C 305.626 -0.295242 3.58888 0
M  V30 3354 C 305.479 1.02947 4.37861 0
M  V30 3355 C 306.798 -1.05502 4.27267 0
M  V30 3356 H 303.917 -0.034686 0.736183 0
M  V30 3357 H 306.559 0.602938 1.8018 0
M  V30 3358 H 304.709 -0.893563 3.78084 0
M  V30 3359 H 306.381 1.66348 4.30263 0
M  V30 3360 H 304.624 1.62885 4.02058 0
M  V30 3361 H 305.295 0.846281 5.45474 0
M  V30 3362 H 307.771 -0.547993 4.12476 0
M  V30 3363 H 306.647 -1.16077 5.36486 0
M  V30 3364 H 306.908 -2.08875 3.89645 0
M  V30 3365 N 305.967 -1.56429 0.191757 0
M  V30 3366 C 306.914 -2.18936 -0.730454 0
M  V30 3367 C 307.884 -1.13557 -1.21219 0
M  V30 3368 O 309.069 -1.41794 -1.27668 0
M  V30 3369 C 306.209 -2.85013 -1.9458 0
M  V30 3370 C 305.322 -4.04909 -1.50574 0
M  V30 3371 C 304.457 -4.58853 -2.67634 0
M  V30 3372 C 303.496 -5.71114 -2.20217 0
M  V30 3373 N 302.633 -6.19478 -3.30442 0
M  V30 3374 H 307.473 -2.97389 -0.190664 0
M  V30 3375 H 305.01 -1.46869 -0.0823694 0
M  V30 3376 H 306.968 -3.21492 -2.65893 0
M  V30 3377 H 305.598 -2.09129 -2.45896 0
M  V30 3378 H 304.65 -3.74115 -0.688605 0
M  V30 3379 H 305.962 -4.86113 -1.11784 0
M  V30 3380 H 305.116 -4.97619 -3.47074 0
M  V30 3381 H 303.855 -3.76749 -3.09696 0
M  V30 3382 H 302.86 -5.31879 -1.3923 0
M  V30 3383 H 304.085 -6.55033 -1.79189 0
M  V30 3384 H 302.031 -5.40297 -3.72041 0
M  V30 3385 H 301.948 -6.95725 -2.9581 0
M  V30 3386 H 303.216 -6.62898 -4.10106 0
M  V30 3387 N 307.445 0.0818655 -1.57387 0
M  V30 3388 C 308.375 1.09885 -2.06028 0
M  V30 3389 C 309.356 1.4098 -0.951774 0
M  V30 3390 O 310.541 1.50781 -1.22387 0
M  V30 3391 C 307.671 2.4151 -2.4958 0
M  V30 3392 C 306.625 2.24792 -3.64215 0
M  V30 3393 C 305.951 3.61712 -3.93787 0
M  V30 3394 C 307.251 1.67749 -4.94629 0
M  V30 3395 H 308.945 0.694128 -2.91243 0
M  V30 3396 H 306.491 0.332448 -1.4011 0
M  V30 3397 H 308.444 3.12939 -2.82219 0
M  V30 3398 H 307.168 2.83943 -1.61381 0
M  V30 3399 H 305.827 1.55807 -3.31843 0
M  V30 3400 H 305.475 4.01697 -3.02735 0
M  V30 3401 H 305.175 3.51368 -4.70971 0
M  V30 3402 H 306.699 4.34587 -4.28913 0
M  V30 3403 H 308.113 2.29032 -5.25564 0
M  V30 3404 H 306.51 1.68128 -5.76067 0
M  V30 3405 H 307.58 0.638059 -4.80684 0
M  V30 3406 N 308.923 1.53595 0.353017 0
M  V30 3407 C 310.171 1.70049 1.09215 0
M  V30 3408 C 310.492 0.461406 1.89463 0
M  V30 3409 O 309.762 -0.524633 1.88744 0
M  V30 3410 H 308.342 0.626912 0.40619 0
M  V30 3411 H 311.004 1.90822 0.396585 0
M  V30 3412 H 310.1 2.56718 1.77488 0
M  V30 3413 N 310.401 -0.613514 1.45168 0
M  V30 3414 C 311.65 -1.36874 1.4815 0
M  V30 3415 C 311.963 -1.952 0.124982 0
M  V30 3416 O 313.169 -2.71481 0.0324176 0
M  V30 3417 C 311.625 -2.47905 2.60904 0
M  V30 3418 C 311.233 -1.96016 4.02842 0
M  V30 3419 C 312.977 -3.24965 2.73126 0
M  V30 3420 C 310.884 -3.04494 5.06988 0
M  V30 3421 H 309.814 -0.514428 0.551253 0
M  V30 3422 H 312.465 -0.658182 1.7129 0
M  V30 3423 H 310.847 -3.21618 2.31037 0
M  V30 3424 H 312.021 -1.29051 4.4236 0
M  V30 3425 H 310.336 -1.31719 3.95018 0
M  V30 3426 H 312.933 -4.05865 3.48106 0
M  V30 3427 H 313.276 -3.75588 1.79553 0
M  V30 3428 H 313.809 -2.5835 3.0249 0
M  V30 3429 H 310.548 -2.58795 6.0225 0
M  V30 3430 H 310.068 -3.70044 4.72046 0
M  V30 3431 H 311.747 -3.68976 5.31475 0
M  V30 3432 N 311.879 -1.3236 -0.855495 0
M  V30 3433 C 313.156 -1.13491 -1.59309 0
M  V30 3434 C 313.536 0.30503 -2.08885 0
M  V30 3435 O 312.884 1.30151 -1.87811 0
M  V30 3436 C 313.094 -2.16176 -2.73987 0
M  V30 3437 C 314.442 -2.49463 -3.43589 0
M  V30 3438 O 315.466 -2.14715 -2.84211 0
M  V30 3439 O 314.325 -3.09027 -4.50738 0
M  V30 3440 H 311.419 -0.437887 -0.701559 0
M  V30 3441 H 313.965 -1.43887 -0.899696 0
M  V30 3442 H 312.737 -3.1297 -2.34873 0
M  V30 3443 H 312.36 -1.86769 -3.51003 0
M  V30 3444 N 313.357 1.07166 -1.15556 0
M  V30 3445 C 314.604 1.79798 -0.931604 0
M  V30 3446 C 314.932 1.8682 0.54115 0
M  V30 3447 O 314.187 1.34942 1.41736 0
M  V30 3448 C 314.486 3.24707 -1.49332 0
M  V30 3449 C 314.152 3.37781 -2.98688 0
M  V30 3450 C 312.814 3.41057 -3.39461 0
M  V30 3451 C 315.166 3.40424 -3.94665 0
M  V30 3452 C 312.494 3.4458 -4.74849 0
M  V30 3453 C 314.846 3.45485 -5.29927 0
M  V30 3454 C 313.51 3.47039 -5.70193 0
M  V30 3455 H 312.78 0.657928 -0.340898 0
M  V30 3456 H 315.427 1.26091 -1.44129 0
M  V30 3457 H 313.732 3.81208 -0.904859 0
M  V30 3458 H 315.429 3.79486 -1.29582 0
M  V30 3459 H 312.019 3.35932 -2.66172 0
M  V30 3460 H 316.203 3.37113 -3.64237 0
M  V30 3461 H 311.459 3.44083 -5.05388 0
M  V30 3462 H 315.633 3.46476 -6.04092 0
M  V30 3463 H 313.26 3.49522 -6.75084 0
M  V30 3464 N 314.835 0.952656 1.25548 0
M  V30 3465 C 315.765 0.489287 2.28316 0
M  V30 3466 C 316.746 -0.463359 1.63667 0
M  V30 3467 O 317.931 -0.36274 1.90782 0
M  V30 3468 C 315.061 -0.235603 3.465 0
M  V30 3469 C 314.015 0.631593 4.23314 0
M  V30 3470 C 313.341 -0.223923 5.34231 0
M  V30 3471 C 314.641 1.90871 4.86174 0
M  V30 3472 H 316.335 1.34822 2.67326 0
M  V30 3473 H 313.881 0.649728 1.28509 0
M  V30 3474 H 315.834 -0.570882 4.17515 0
M  V30 3475 H 314.558 -1.12877 3.06474 0
M  V30 3476 H 313.217 0.949929 3.54079 0
M  V30 3477 H 312.865 -1.11678 4.90446 0
M  V30 3478 H 312.565 0.35299 5.86539 0
M  V30 3479 H 314.089 -0.554214 6.0808 0
M  V30 3480 H 315.503 1.63997 5.49343 0
M  V30 3481 H 313.9 2.43112 5.4865 0
M  V30 3482 H 314.97 2.61304 4.08471 0
M  V30 3483 N 316.313 -1.40141 0.720998 0
M  V30 3484 C 317.26 -2.30688 0.071919 0
M  V30 3485 C 318.23 -1.48476 -0.744584 0
M  V30 3486 O 319.415 -1.77201 -0.707423 0
M  V30 3487 C 316.555 -3.34724 -0.839855 0
M  V30 3488 C 315.668 -4.31998 -0.0122438 0
M  V30 3489 C 314.803 -5.23102 -0.923995 0
M  V30 3490 C 313.842 -6.12033 -0.0907969 0
M  V30 3491 N 312.979 -6.95537 -0.957718 0
M  V30 3492 H 317.819 -2.85628 0.849755 0
M  V30 3493 H 315.356 -1.40653 0.430726 0
M  V30 3494 H 317.314 -3.93618 -1.38279 0
M  V30 3495 H 315.944 -2.81274 -1.58381 0
M  V30 3496 H 314.996 -3.74841 0.64794 0
M  V30 3497 H 316.308 -4.94772 0.632595 0
M  V30 3498 H 315.462 -5.86953 -1.53527 0
M  V30 3499 H 314.201 -4.60615 -1.60264 0
M  V30 3500 H 313.206 -5.47207 0.533377 0
M  V30 3501 H 314.431 -6.76581 0.584428 0
M  V30 3502 H 312.377 -6.35633 -1.62192 0
M  V30 3503 H 312.294 -7.55099 -0.36904 0
M  V30 3504 H 313.562 -7.63832 -1.555 0
M  V30 3505 N 317.792 -0.46758 -1.50504 0
M  V30 3506 C 319.069 0.15003 -1.95024 0
M  V30 3507 C 319.449 1.57304 -1.40779 0
M  V30 3508 O 318.797 2.20281 -0.607319 0
M  V30 3509 C 319.007 0.0969324 -3.48865 0
M  V30 3510 C 320.355 0.287565 -4.23625 0
M  V30 3511 O 321.379 0.173678 -3.55776 0
M  V30 3512 O 320.238 0.517186 -5.44047 0
M  V30 3513 H 317.332 0.113582 -0.819163 0
M  V30 3514 H 319.878 -0.52773 -1.61286 0
M  V30 3515 H 318.65 -0.896732 -3.80886 0
M  V30 3516 H 318.273 0.816303 -3.8913 0
M  V30 3517 N 319.27 1.56325 -0.20005 0
M  V30 3518 C 320.217 2.1932 0.718833 0
M  V30 3519 C 321.187 1.14198 1.20615 0
M  V30 3520 O 322.372 1.42469 1.26914 0
M  V30 3521 C 319.512 2.86041 1.93066 0
M  V30 3522 C 318.625 4.05702 1.48425 0
M  V30 3523 C 317.76 4.60266 2.65196 0
M  V30 3524 C 316.799 5.72273 2.17185 0
M  V30 3525 N 315.936 6.21221 3.27152 0
M  V30 3526 H 320.776 2.97486 0.17489 0
M  V30 3527 H 318.313 1.46911 0.0745794 0
M  V30 3528 H 320.271 3.22897 2.64184 0
M  V30 3529 H 318.901 2.1043 2.44783 0
M  V30 3530 H 317.953 3.74475 0.668755 0
M  V30 3531 H 319.265 4.86699 1.09204 0
M  V30 3532 H 318.419 4.99453 3.4443 0
M  V30 3533 H 317.158 3.78386 3.07693 0
M  V30 3534 H 316.163 5.3261 1.36407 0
M  V30 3535 H 317.388 6.55974 1.75713 0
M  V30 3536 H 315.334 5.42263 3.69171 0
M  V30 3537 H 315.251 6.97284 2.92116 0
M  V30 3538 H 316.519 6.65063 4.06585 0
M  V30 3539 N 320.748 -0.0735177 1.57428 0
M  V30 3540 C 322.025 -0.805903 1.78226 0
M  V30 3541 C 322.405 -1.95874 0.787189 0
M  V30 3542 O 321.753 -2.2779 -0.180029 0
M  V30 3543 C 321.963 -1.28045 3.24662 0
M  V30 3544 C 323.311 -1.71453 3.88444 0
M  V30 3545 O 324.335 -1.37616 3.28543 0
M  V30 3546 O 323.194 -2.34093 4.93825 0
M  V30 3547 H 320.288 -0.386041 0.73137 0
M  V30 3548 H 322.834 -0.0537269 1.69615 0
M  V30 3549 H 321.606 -0.455476 3.8864 0
M  V30 3550 H 321.229 -2.094 3.37991 0
M  V30 3551 N 322.226 -1.5378 -0.344866 0
M  V30 3552 C 323.451 -1.75211 -1.10977 0
M  V30 3553 C 323.876 -0.48936 -1.81623 0
M  V30 3554 O 323.234 0.557925 -1.72502 0
M  V30 3555 C 323.282 -2.93147 -2.09993 0
M  V30 3556 O 322.386 -2.63203 -3.17487 0
M  V30 3557 H 321.727 -0.581241 -0.321021 0
M  V30 3558 H 324.257 -2.00738 -0.395661 0
M  V30 3559 H 324.267 -3.19898 -2.53237 0
M  V30 3560 H 322.942 -3.84731 -1.5797 0
M  V30 3561 H 321.519 -2.47336 -2.79069 0
M  V30 3562 N 323.704 0.605807 -1.45491 0
M  V30 3563 C 324.634 1.72709 -1.57143 0
M  V30 3564 C 325.615 1.6476 -0.422884 0
M  V30 3565 O 326.8 1.83132 -0.646247 0
M  V30 3566 C 323.93 3.11316 -1.53948 0
M  V30 3567 C 322.884 3.34077 -2.67537 0
M  V30 3568 C 322.21 4.72975 -2.49397 0
M  V30 3569 C 323.51 3.24158 -4.09535 0
M  V30 3570 H 325.204 1.63214 -2.51001 0
M  V30 3571 H 322.75 0.78379 -1.208 0
M  V30 3572 H 324.703 3.89557 -1.60696 0
M  V30 3573 H 323.427 3.21655 -0.566205 0
M  V30 3574 H 322.086 2.58227 -2.6022 0
M  V30 3575 H 321.734 4.8005 -1.50205 0
M  V30 3576 H 321.434 4.8916 -3.25571 0
M  V30 3577 H 322.958 5.53414 -2.58002 0
M  V30 3578 H 324.372 3.92271 -4.18086 0
M  V30 3579 H 322.769 3.51872 -4.86113 0
M  V30 3580 H 323.839 2.2157 -4.31317 0
M  V30 3581 N 325.182 1.32811 0.848464 0
M  V30 3582 C 326.145 1.22194 1.9391 0
M  V30 3583 C 327.145 0.143404 1.60159 0
M  V30 3584 O 328.335 0.394253 1.6968 0
M  V30 3585 C 325.467 0.88067 3.29328 0
M  V30 3586 H 326.66 2.19127 2.04752 0
M  V30 3587 H 324.213 1.16731 1.0394 0
M  V30 3588 H 324.948 -0.0865776 3.24184 0
M  V30 3589 H 324.733 1.66052 3.55203 0
M  V30 3590 H 326.223 0.830871 4.09251 0
M  V30 3591 N 326.66 -1.06551 1.16123 0
M  V30 3592 C 327.885 -1.83544 0.965735 0
M  V30 3593 C 328.31 -1.81843 -0.481102 0
M  V30 3594 O 327.668 -1.21732 -1.34354 0
M  V30 3595 C 327.716 -3.28169 1.49457 0
M  V30 3596 O 326.82 -4.0643 0.699157 0
M  V30 3597 H 326.161 -0.568026 0.343864 0
M  V30 3598 H 328.691 -1.34362 1.54299 0
M  V30 3599 H 328.701 -3.78992 1.51092 0
M  V30 3600 H 327.376 -3.28722 2.54784 0
M  V30 3601 H 325.953 -3.65216 0.7531 0
M  V30 3602 N 328.138 -0.959301 -1.25041 0
M  V30 3603 C 329.085 -0.482057 -2.2571 0
M  V30 3604 C 330.055 0.467939 -1.59372 0
M  V30 3605 O 331.24 0.380159 -1.86974 0
M  V30 3606 C 328.38 0.229623 -3.44335 0
M  V30 3607 C 327.493 -0.758156 -4.25295 0
M  V30 3608 C 326.628 -0.0234403 -5.31195 0
M  V30 3609 C 325.667 -1.00184 -6.03846 0
M  V30 3610 N 324.804 -0.29769 -7.01469 0
M  V30 3611 H 329.644 -1.34538 -2.65901 0
M  V30 3612 H 327.181 -0.674592 -1.3072 0
M  V30 3613 H 329.139 0.658856 -4.11965 0
M  V30 3614 H 327.769 1.05696 -3.05005 0
M  V30 3615 H 326.821 -1.30586 -3.57284 0
M  V30 3616 H 328.133 -1.50458 -4.75567 0
M  V30 3617 H 327.287 0.464201 -6.04922 0
M  V30 3618 H 326.026 0.755741 -4.81809 0
M  V30 3619 H 325.031 -1.50044 -5.2893 0
M  V30 3620 H 326.256 -1.78133 -6.55321 0
M  V30 3621 H 324.202 0.462668 -6.54366 0
M  V30 3622 H 324.119 -0.983128 -7.4958 0
M  V30 3623 H 325.387 0.16826 -7.79318 0
M  V30 3624 N 329.616 1.39756 -0.72842 0
M  V30 3625 C 330.579 2.29012 -0.0927297 0
M  V30 3626 C 331.579 1.45992 0.674025 0
M  V30 3627 O 332.769 1.66749 0.50402 0
M  V30 3628 C 329.901 3.29396 0.878137 0
M  V30 3629 H 331.094 2.86729 -0.879011 0
M  V30 3630 H 328.647 1.48293 -0.493847 0
M  V30 3631 H 329.382 2.76722 1.69101 0
M  V30 3632 H 329.167 3.907 0.331051 0
M  V30 3633 H 330.657 3.96199 1.3197 0
M  V30 3634 N 331.094 0.475555 1.50254 0
M  V30 3635 C 332.044 -0.335025 2.25525 0
M  V30 3636 C 333.028 -0.957625 1.29299 0
M  V30 3637 O 334.22 -0.869436 1.54175 0
M  V30 3638 C 331.349 -1.41385 3.12834 0
M  V30 3639 C 330.435 -0.798762 4.1651 0
M  V30 3640 N 330.826 0.0835815 5.05731 0
M  V30 3641 C 329.124 -1.06221 4.33166 0
M  V30 3642 C 329.825 0.433113 5.80085 0
M  V30 3643 N 328.801 -0.1928 5.43258 0
M  V30 3644 H 332.603 0.344612 2.91873 0
M  V30 3645 H 330.117 0.289986 1.5979 0
M  V30 3646 H 332.114 -2.00777 3.65368 0
M  V30 3647 H 330.774 -2.09543 2.48036 0
M  V30 3648 H 331.785 0.452715 5.15918 0
M  V30 3649 H 328.462 -1.73844 3.79585 0
M  V30 3650 H 329.852 1.15346 6.61925 0
M  V30 3651 N 332.573 -1.56217 0.208337 0
M  V30 3652 C 333.989 -1.58919 -0.14729 0
M  V30 3653 C 334.189 -1.22486 -1.59998 0
M  V30 3654 O 333.245 -0.953849 -2.3379 0
M  V30 3655 C 334.558 -3.00236 0.167048 0
M  V30 3656 C 336.106 -3.12813 0.108219 0
M  V30 3657 C 336.581 -4.56284 0.396049 0
M  V30 3658 N 338.072 -4.61912 0.345142 0
M  V30 3659 C 338.807 -5.70837 0.541523 0
M  V30 3660 N 338.303 -6.88178 0.798968 0
M  V30 3661 N 340.096 -5.60091 0.474867 0
M  V30 3662 H 332.247 -1.78177 1.15614 0
M  V30 3663 H 334.51 -0.827555 0.462446 0
M  V30 3664 H 334.216 -3.31499 1.1748 0
M  V30 3665 H 334.09 -3.7354 -0.524184 0
M  V30 3666 H 336.477 -2.81354 -0.890157 0
M  V30 3667 H 336.558 -2.41866 0.832729 0
M  V30 3668 H 336.202 -4.88458 1.3918 0
M  V30 3669 H 336.132 -5.25439 -0.349502 0
M  V30 3670 H 338.623 -3.77589 0.153316 0
M  V30 3671 H 338.936 -7.67095 0.93727 0
M  V30 3672 H 337.281 -6.89953 0.836013 0
M  V30 3673 H 340.472 -4.67297 0.274064 0
M  V30 3674 H 340.645 -6.44917 0.631326 0
M  V30 3675 N 334.051 0.0651679 -1.57465 0
M  V30 3676 C 335.3 0.761916 -1.86756 0
M  V30 3677 C 335.613 1.78406 -0.801925 0
M  V30 3678 O 336.819 2.53084 -0.982885 0
M  V30 3679 C 335.275 1.40603 -3.31299 0
M  V30 3680 C 334.883 0.422115 -4.46007 0
M  V30 3681 C 336.627 2.08476 -3.69781 0
M  V30 3682 C 334.534 1.07252 -5.81593 0
M  V30 3683 H 333.464 0.288308 -0.696702 0
M  V30 3684 H 336.115 0.015344 -1.83494 0
M  V30 3685 H 334.497 2.20109 -3.29193 0
M  V30 3686 H 335.671 -0.343613 -4.59517 0
M  V30 3687 H 333.986 -0.152527 -4.16121 0
M  V30 3688 H 336.583 2.57925 -4.68379 0
M  V30 3689 H 336.926 2.88712 -2.99919 0
M  V30 3690 H 337.459 1.35792 -3.73905 0
M  V30 3691 H 334.198 0.310342 -6.54765 0
M  V30 3692 H 333.718 1.80895 -5.71872 0
M  V30 3693 H 335.397 1.59043 -6.27148 0
M  V30 3694 N 335.529 1.53961 0.336706 0
M  V30 3695 C 336.778 1.70751 1.07363 0
M  V30 3696 C 337.091 0.481061 1.89592 0
M  V30 3697 O 338.297 0.530046 2.66276 0
M  V30 3698 C 336.753 3.01965 1.95818 0
M  V30 3699 C 336.361 4.31971 1.18764 0
M  V30 3700 C 338.105 3.28121 2.69327 0
M  V30 3701 C 336.012 5.54255 2.06289 0
M  V30 3702 H 334.942 0.636292 0.404535 0
M  V30 3703 H 337.593 1.80459 0.332681 0
M  V30 3704 H 335.975 2.86132 2.7376 0
M  V30 3705 H 337.149 4.5853 0.456849 0
M  V30 3706 H 335.464 4.12481 0.569946 0
M  V30 3707 H 338.061 4.16673 3.35094 0
M  V30 3708 H 338.404 2.45426 3.36261 0
M  V30 3709 H 338.937 3.44762 1.98454 0
M  V30 3710 H 335.676 6.39513 1.43885 0
M  V30 3711 H 335.196 5.31935 2.77138 0
M  V30 3712 H 336.875 5.90159 2.65182 0
M  V30 3713 N 337.007 -0.598083 1.45811 0
M  V30 3714 C 338.237 -1.38121 1.53643 0
M  V30 3715 C 338.645 -1.88425 0.171081 0
M  V30 3716 O 337.988 -1.63409 -0.839237 0
M  V30 3717 C 338.05 -2.61432 2.46766 0
M  V30 3718 C 337.714 -2.32702 3.93318 0
M  V30 3719 C 338.711 -1.92479 4.82957 0
M  V30 3720 C 336.396 -2.45321 4.38318 0
M  V30 3721 C 338.39 -1.65248 6.15607 0
M  V30 3722 C 336.077 -2.17703 5.71007 0
M  V30 3723 C 337.075 -1.7773 6.5947 0
M  V30 3724 O 336.763 -1.50441 7.89698 0
M  V30 3725 H 336.495 -0.428863 0.522544 0
M  V30 3726 H 339.049 -0.73557 1.91777 0
M  V30 3727 H 337.279 -3.28749 2.0362 0
M  V30 3728 H 338.968 -3.23487 2.45175 0
M  V30 3729 H 339.734 -1.82258 4.49452 0
M  V30 3730 H 335.613 -2.75399 3.69697 0
M  V30 3731 H 339.157 -1.33973 6.84614 0
M  V30 3732 H 335.054 -2.27544 6.04065 0
M  V30 3733 H 335.822 -1.64415 8.01817 0
M  V30 3734 N 338.485 -1.33259 -0.841409 0
M  V30 3735 C 339.713 -1.27605 -1.62864 0
M  V30 3736 C 340.128 0.153507 -1.88175 0
M  V30 3737 O 339.485 1.09485 -1.46011 0
M  V30 3738 C 339.536 -2.04596 -2.98031 0
M  V30 3739 O 339.257 -3.41975 -2.73834 0
M  V30 3740 C 340.758 -2.06122 -3.92465 0
M  V30 3741 H 337.978 -0.439718 -0.506842 0
M  V30 3742 H 340.522 -1.75591 -1.04824 0
M  V30 3743 H 338.677 -1.60299 -3.5268 0
M  V30 3744 H 339.091 -3.81549 -3.59889 0
M  V30 3745 H 340.565 -2.64451 -4.84531 0
M  V30 3746 H 341.042 -1.05083 -4.26444 0
M  V30 3747 H 341.648 -2.50427 -3.43753 0
M  V30 3748 N 339.963 1.05934 -1.16686 0
M  V30 3749 C 341.211 1.78447 -0.948744 0
M  V30 3750 C 341.532 1.87813 0.524523 0
M  V30 3751 O 340.802 1.38945 1.38098 0
M  V30 3752 H 339.382 0.660971 -0.348033 0
M  V30 3753 H 342.044 1.27947 -1.47022 0
M  V30 3754 H 341.14 2.80394 -1.37061 0
M  V30 3755 N 341.441 0.965919 1.2453 0
M  V30 3756 C 342.852 0.665929 1.7442 0
M  V30 3757 C 343.203 -0.818407 1.78316 0
M  V30 3758 O 342.328 -1.64037 1.41141 0
M  V30 3759 C 342.923 1.20211 3.16757 0
M  V30 3760 C 341.482 0.952059 3.6416 0
M  V30 3761 C 340.629 1.33848 2.42858 0
M  V30 3762 H 343.58 1.14144 1.10258 0
M  V30 3763 H 343.601 0.567544 3.76244 0
M  V30 3764 H 343.113 2.28244 3.13889 0
M  V30 3765 H 341.214 -0.112821 3.72429 0
M  V30 3766 H 341.327 1.59645 4.51719 0
M  V30 3767 H 339.691 0.756864 2.43195 0
M  V30 3768 H 340.474 2.42827 2.42673 0
M  V30 3769 N 342.919 -1.39368 0.735821 0
M  V30 3770 C 344.168 -1.99733 0.281004 0
M  V30 3771 C 344.481 -1.59055 -1.13846 0
M  V30 3772 O 345.687 -2.12262 -1.69284 0
M  V30 3773 C 344.143 -3.57057 0.451462 0
M  V30 3774 C 343.751 -4.06697 1.87886 0
M  V30 3775 C 345.495 -4.2446 0.0584616 0
M  V30 3776 C 343.402 -5.56598 1.99883 0
M  V30 3777 H 342.332 -0.747163 0.101311 0
M  V30 3778 H 344.983 -1.59357 0.909819 0
M  V30 3779 H 343.365 -3.95234 -0.246263 0
M  V30 3780 H 344.539 -3.79853 2.60861 0
M  V30 3781 H 342.854 -3.5196 2.22515 0
M  V30 3782 H 345.451 -5.34549 0.127099 0
M  V30 3783 H 345.794 -4.04444 -0.986433 0
M  V30 3784 H 346.327 -3.9146 0.707374 0
M  V30 3785 H 343.066 -5.81494 3.02564 0
M  V30 3786 H 342.586 -5.85242 1.31346 0
M  V30 3787 H 344.265 -6.22022 1.78039 0
M  V30 3788 N 344.397 -0.483516 -1.5 0
M  V30 3789 C 345.674 0.129337 -1.95172 0
M  V30 3790 C 346.054 1.55802 -1.4244 0
M  V30 3791 O 345.402 2.19625 -0.630649 0
M  V30 3792 C 345.612 0.0599251 -3.48949 0
M  V30 3793 C 346.96 0.242617 -4.23906 0
M  V30 3794 O 347.984 0.135933 -3.55941 0
M  V30 3795 O 346.843 0.459454 -5.44565 0
M  V30 3796 H 343.937 0.104887 -0.820322 0
M  V30 3797 H 346.483 -0.544807 -1.60717 0
M  V30 3798 H 345.255 -0.937079 -3.79914 0
M  V30 3799 H 344.878 0.774984 -3.89974 0
M  V30 3800 N 345.875 1.56104 -0.216619 0
M  V30 3801 C 346.807 2.17339 0.72776 0
M  V30 3802 C 347.82 1.14109 1.16116 0
M  V30 3803 O 349.009 1.4111 1.09317 0
M  V30 3804 C 346.109 2.73818 1.99693 0
M  V30 3805 C 345.282 4.02168 1.71988 0
M  V30 3806 C 344.341 4.43259 2.83562 0
M  V30 3807 O 343.367 5.10257 2.52244 0
M  V30 3808 N 344.569 4.08535 4.12407 0
M  V30 3809 H 347.334 2.99005 0.203983 0
M  V30 3810 H 344.895 1.61861 -0.0354289 0
M  V30 3811 H 346.887 2.9828 2.73516 0
M  V30 3812 H 345.457 1.96483 2.43132 0
M  V30 3813 H 344.677 3.85612 0.818337 0
M  V30 3814 H 345.965 4.85907 1.50903 0
M  V30 3815 H 345.363 3.54687 4.40696 0
M  V30 3816 H 343.92 4.37901 4.8279 0
M  V30 3817 N 347.353 -0.0568162 1.57498 0
M  V30 3818 C 348.583 -0.764515 1.91934 0
M  V30 3819 C 348.991 -1.70877 0.81227 0
M  V30 3820 O 348.334 -1.82351 -0.222213 0
M  V30 3821 C 348.396 -1.5994 3.21962 0
M  V30 3822 C 348.06 -0.822925 4.4953 0
M  V30 3823 C 349.057 -0.135464 5.19723 0
M  V30 3824 C 346.742 -0.785666 4.96117 0
M  V30 3825 C 348.736 0.578861 6.34766 0
M  V30 3826 C 346.423 -0.0675784 6.11063 0
M  V30 3827 C 347.421 0.613471 6.80239 0
M  V30 3828 O 347.109 1.31996 7.92989 0
M  V30 3829 H 346.841 -0.221647 0.63863 0
M  V30 3830 H 349.395 -0.0268218 2.05382 0
M  V30 3831 H 347.625 -2.38026 3.04763 0
M  V30 3832 H 349.314 -2.18715 3.41934 0
M  V30 3833 H 350.08 -0.155458 4.84751 0
M  V30 3834 H 345.959 -1.30524 4.42136 0
M  V30 3835 H 349.503 1.111 6.88696 0
M  V30 3836 H 345.4 -0.0455636 6.45484 0
M  V30 3837 H 346.168 1.23077 8.09194 0
M  V30 3838 N 348.832 -1.54138 -0.328536 0
M  V30 3839 C 350.079 -1.72105 -1.06706 0
M  V30 3840 C 350.407 -0.492111 -1.88171 0
M  V30 3841 O 349.662 0.526153 -1.88494 0
M  V30 3842 C 349.961 -2.9457 -2.02393 0
M  V30 3843 C 349.627 -4.29544 -1.37122 0
M  V30 3844 C 348.289 -4.6624 -1.19052 0
M  V30 3845 C 350.641 -5.1333 -0.902331 0
M  V30 3846 C 347.969 -5.84325 -0.527331 0
M  V30 3847 C 350.321 -6.32094 -0.252988 0
M  V30 3848 C 348.985 -6.67473 -0.0600901 0
M  V30 3849 H 348.255 -0.629775 -0.390466 0
M  V30 3850 H 350.902 -1.88372 -0.34473 0
M  V30 3851 H 349.207 -2.72969 -2.81061 0
M  V30 3852 H 350.904 -3.05665 -2.59557 0
M  V30 3853 H 347.494 -4.0067 -1.52188 0
M  V30 3854 H 351.678 -4.855 -1.02974 0
M  V30 3855 H 346.934 -6.103 -0.366634 0
M  V30 3856 H 351.108 -6.96299 0.118366 0
M  V30 3857 H 348.735 -7.58832 0.455828 0
M  V30 3858 N 350.31 0.590341 -1.46126 0
M  V30 3859 C 351.587 1.35029 -1.41515 0
M  V30 3860 C 351.967 2.10888 -0.0946472 0
M  V30 3861 O 351.315 2.08998 0.923693 0
M  V30 3862 C 351.525 2.28269 -2.63997 0
M  V30 3863 C 352.873 2.90338 -3.09821 0
M  V30 3864 O 353.897 2.38585 -2.64492 0
M  V30 3865 O 352.756 3.84321 -3.88535 0
M  V30 3866 H 349.85 0.606317 -0.562413 0
M  V30 3867 H 352.396 0.611994 -1.58281 0
M  V30 3868 H 351.168 1.71591 -3.51671 0
M  V30 3869 H 350.791 3.0945 -2.49652 0
M  V30 3870 N 351.788 1.33704 0.83433 0
M  V30 3871 C 353.018 1.28281 1.6195 0
M  V30 3872 C 353.426 -0.147603 1.88623 0
M  V30 3873 O 352.769 -1.1016 1.47005 0
M  V30 3874 C 352.831 1.99386 2.99141 0
M  V30 3875 C 352.495 3.48681 2.95416 0
M  V30 3876 C 353.492 4.438 2.70809 0
M  V30 3877 C 351.177 3.90925 3.15409 0
M  V30 3878 C 353.171 5.79138 2.66229 0
M  V30 3879 C 350.858 5.26366 3.10454 0
M  V30 3880 C 351.856 6.20284 2.85895 0
M  V30 3881 O 351.544 7.53245 2.80852 0
M  V30 3882 H 351.276 0.44315 0.510484 0
M  V30 3883 H 353.83 1.76711 1.04702 0
M  V30 3884 H 352.06 1.45554 3.58261 0
M  V30 3885 H 353.749 1.87403 3.60049 0
M  V30 3886 H 354.515 4.12485 2.5511 0
M  V30 3887 H 350.394 3.18229 3.33543 0
M  V30 3888 H 353.938 6.52416 2.4698 0
M  V30 3889 H 349.835 5.57304 3.25703 0
M  V30 3890 H 350.603 7.62846 2.96661 0
M  V30 3891 N 353.266 -1.05314 1.17247 0
M  V30 3892 C 354.682 -1.30452 0.919473 0
M  V30 3893 C 354.882 -1.9703 -0.42209 0
M  V30 3894 O 353.938 -2.24311 -1.15935 0
M  V30 3895 C 355.251 -2.17551 2.07586 0
M  V30 3896 C 356.799 -2.30937 2.11275 0
M  V30 3897 C 357.274 -3.21396 3.26296 0
M  V30 3898 N 358.765 -3.28981 3.26076 0
M  V30 3899 C 359.5 -3.99095 4.11716 0
M  V30 3900 N 358.996 -4.71648 5.07465 0
M  V30 3901 N 360.789 -3.95247 3.9967 0
M  V30 3902 H 352.94 -0.604988 2.03602 0
M  V30 3903 H 355.203 -0.329368 0.888944 0
M  V30 3904 H 354.909 -1.75921 3.0454 0
M  V30 3905 H 354.783 -3.18182 2.02584 0
M  V30 3906 H 357.17 -2.71809 1.14907 0
M  V30 3907 H 357.251 -1.2994 2.20339 0
M  V30 3908 H 356.895 -2.81238 4.22927 0
M  V30 3909 H 356.825 -4.22395 3.14467 0
M  V30 3910 H 359.316 -2.77286 2.5675 0
M  V30 3911 H 359.629 -5.22705 5.6921 0
M  V30 3912 H 357.974 -4.70594 5.11435 0
M  V30 3913 H 361.165 -3.37691 3.24164 0
M  V30 3914 H 361.338 -4.4962 4.66632 0
M  V30 3915 N 354.744 -0.972509 -1.24016 0
M  V30 3916 C 355.991 -0.637034 -1.92219 0
M  V30 3917 C 356.319 0.828418 -1.75976 0
M  V30 3918 O 355.574 1.61206 -1.10955 0
M  V30 3919 C 355.873 -0.963694 -3.44162 0
M  V30 3920 C 355.539 -2.41807 -3.80579 0
M  V30 3921 C 354.201 -2.81556 -3.9023 0
M  V30 3922 C 356.553 -3.36172 -3.98293 0
M  V30 3923 C 353.881 -4.14702 -4.15017 0
M  V30 3924 C 356.233 -4.68952 -4.24578 0
M  V30 3925 C 354.897 -5.08472 -4.32449 0
M  V30 3926 H 354.167 -0.233107 -0.703379 0
M  V30 3927 H 356.814 -1.2249 -1.47202 0
M  V30 3928 H 355.119 -0.29365 -3.90698 0
M  V30 3929 H 356.816 -0.682449 -3.9515 0
M  V30 3930 H 353.406 -2.09988 -3.73635 0
M  V30 3931 H 357.59 -3.06644 -3.90234 0
M  V30 3932 H 352.846 -4.4494 -4.19331 0
M  V30 3933 H 357.02 -5.42037 -4.37229 0
M  V30 3934 H 354.647 -6.11665 -4.51409 0
M  V30 3935 N 356.222 1.38976 -0.743202 0
M  V30 3936 C 357.47 1.99948 -0.29417 0
M  V30 3937 C 357.791 1.59279 1.12495 0
M  V30 3938 O 357.061 0.844808 1.76748 0
M  V30 3939 H 355.641 0.739473 -0.105774 0
M  V30 3940 H 358.303 1.699 -0.954986 0
M  V30 3941 H 357.399 3.10142 -0.349056 0
M  V30 3942 N 357.7 0.491464 1.49741 0
M  V30 3943 C 358.663 -0.280906 2.27472 0
M  V30 3944 C 359.663 -0.902454 1.33088 0
M  V30 3945 O 360.853 -0.768465 1.56334 0
M  V30 3946 C 357.985 -1.40209 3.10732 0
M  V30 3947 H 359.178 0.401056 2.97206 0
M  V30 3948 H 356.731 0.246131 1.5435 0
M  V30 3949 H 357.466 -2.11849 2.45541 0
M  V30 3950 H 357.251 -0.961969 3.80117 0
M  V30 3951 H 358.741 -1.9464 3.69466 0
M  V30 3952 N 359.178 -1.55987 0.224894 0
M  V30 3953 C 360.108 -2.23426 -0.678457 0
M  V30 3954 C 361.089 -1.20709 -1.19847 0
M  V30 3955 O 362.274 -1.49304 -1.24186 0
M  V30 3956 C 359.404 -2.91676 -1.88527 0
M  V30 3957 C 358.358 -4.00893 -1.49896 0
M  V30 3958 C 357.684 -4.56455 -2.78483 0
M  V30 3959 C 358.984 -5.17769 -0.686461 0
M  V30 3960 H 360.678 -2.99175 -0.116173 0
M  V30 3961 H 358.224 -1.43897 -0.054436 0
M  V30 3962 H 360.177 -3.37547 -2.5227 0
M  V30 3963 H 358.901 -2.1338 -2.47258 0
M  V30 3964 H 357.56 -3.55758 -0.884985 0
M  V30 3965 H 357.208 -3.74886 -3.35365 0
M  V30 3966 H 356.908 -5.30169 -2.53368 0
M  V30 3967 H 358.432 -5.05047 -3.43162 0
M  V30 3968 H 359.846 -5.60001 -1.22767 0
M  V30 3969 H 358.243 -5.97735 -0.532259 0
M  V30 3970 H 359.313 -4.83932 0.306196 0
M  V30 3971 N 360.656 0.0484629 -1.57525 0
M  V30 3972 C 361.566 1.07241 -2.08654 0
M  V30 3973 C 362.582 1.409 -1.02095 0
M  V30 3974 O 363.758 1.50609 -1.33712 0
M  V30 3975 C 360.823 2.36008 -2.5397 0
M  V30 3976 C 359.884 2.09108 -3.7493 0
M  V30 3977 C 359.117 3.31736 -4.18075 0
M  V30 3978 O 359.34 4.41714 -3.60895 0
M  V30 3979 O 358.274 3.18576 -5.10679 0
M  V30 3980 H 362.1 0.667965 -2.96263 0
M  V30 3981 H 359.685 0.26417 -1.47046 0
M  V30 3982 H 361.567 3.11747 -2.83535 0
M  V30 3983 H 360.242 2.75786 -1.69481 0
M  V30 3984 H 359.149 1.31 -3.50414 0
M  V30 3985 H 360.482 1.74198 -4.60343 0
M  V30 3986 N 362.134 1.5431 0.320358 0
M  V30 3987 C 363.364 1.7638 1.07582 0
M  V30 3988 C 363.772 0.513944 1.82086 0
M  V30 3989 O 363.115 -0.525123 1.76035 0
M  V30 3990 C 363.177 2.9055 2.1171 0
M  V30 3991 C 362.841 4.2934 1.56575 0
M  V30 3992 C 363.838 5.10077 1.00586 0
M  V30 3993 C 361.523 4.75893 1.60722 0
M  V30 3994 C 363.517 6.35477 0.494756 0
M  V30 3995 C 361.204 6.0126 1.09224 0
M  V30 3996 C 362.202 6.80886 0.53696 0
M  V30 3997 O 361.89 8.03894 0.0297371 0
M  V30 3998 H 361.622 0.592369 0.325692 0
M  V30 3999 H 364.176 2.02019 0.37116 0
M  V30 4000 H 362.406 2.60489 2.85801 0
M  V30 4001 H 364.095 3.00373 2.73003 0
M  V30 4002 H 364.861 4.75265 0.966869 0
M  V30 4003 H 360.74 4.13957 2.02882 0
M  V30 4004 H 364.284 6.97574 0.0606842 0
M  V30 4005 H 360.181 6.35562 1.12831 0
M  V30 4006 H 360.949 8.18372 0.14486 0
M  V30 4007 N 363.613 -0.582584 1.46437 0
M  V30 4008 C 365.029 -0.905962 1.31394 0
M  V30 4009 C 365.229 -1.99468 0.285476 0
M  V30 4010 O 364.285 -2.50566 -0.311914 0
M  V30 4011 C 365.598 -1.3232 2.70022 0
M  V30 4012 C 367.146 -1.43604 2.78113 0
M  V30 4013 C 367.621 -1.88694 4.17323 0
M  V30 4014 N 369.112 -1.95887 4.19741 0
M  V30 4015 C 369.847 -2.32051 5.24347 0
M  V30 4016 N 369.343 -2.67006 6.39281 0
M  V30 4017 N 371.136 -2.32606 5.11713 0
M  V30 4018 H 363.287 0.1366 2.1196 0
M  V30 4019 H 365.55 -0.00155736 0.947999 0
M  V30 4020 H 365.256 -0.597242 3.46592 0
M  V30 4021 H 365.13 -2.28469 3.00136 0
M  V30 4022 H 367.517 -2.15286 2.01832 0
M  V30 4023 H 367.598 -0.457059 2.51684 0
M  V30 4024 H 367.242 -1.1759 4.941 0
M  V30 4025 H 367.172 -2.8755 4.4116 0
M  V30 4026 H 369.663 -1.71362 3.36814 0
M  V30 4027 H 369.976 -2.93554 7.14875 0
M  V30 4028 H 368.321 -2.64644 6.42642 0
M  V30 4029 H 371.512 -2.04721 4.2096 0
M  V30 4030 H 371.685 -2.60462 5.93349 0
M  V30 4031 N 365.091 -1.34144 -0.827227 0
M  V30 4032 C 366.316 -1.29476 -1.62021 0
M  V30 4033 C 366.741 0.129292 -1.87655 0
M  V30 4034 O 366.099 1.08967 -1.449 0
M  V30 4035 C 366.147 -2.08702 -2.94068 0
M  V30 4036 O 365.251 -1.45359 -3.85933 0
M  V30 4037 H 364.592 -0.444881 -0.492927 0
M  V30 4038 H 367.122 -1.76882 -1.02829 0
M  V30 4039 H 367.132 -2.19898 -3.43669 0
M  V30 4040 H 365.807 -3.12241 -2.74734 0
M  V30 4041 H 364.384 -1.42879 -3.44442 0
M  V30 4042 N 366.569 1.04691 -1.17803 0
M  V30 4043 C 367.499 2.14494 -0.92275 0
M  V30 4044 C 368.48 1.69546 0.137179 0
M  V30 4045 O 369.665 1.94195 -0.0141108 0
M  V30 4046 C 366.795 3.44491 -0.440803 0
M  V30 4047 C 365.749 4.03031 -1.4405 0
M  V30 4048 C 365.075 5.28432 -0.81631 0
M  V30 4049 C 366.375 4.39932 -2.81527 0
M  V30 4050 H 368.069 2.36107 -1.84103 0
M  V30 4051 H 365.615 1.1347 -0.886599 0
M  V30 4052 H 367.568 4.2066 -0.249602 0
M  V30 4053 H 366.292 3.22546 0.513025 0
M  V30 4054 H 364.951 3.28937 -1.61853 0
M  V30 4055 H 364.599 5.02792 0.144511 0
M  V30 4056 H 364.299 5.68559 -1.48371 0
M  V30 4057 H 365.823 6.07284 -0.635496 0
M  V30 4058 H 367.237 5.07113 -2.67412 0
M  V30 4059 H 365.634 4.9109 -3.44892 0
M  V30 4060 H 366.704 3.50045 -3.35554 0
M  V30 4061 N 368.047 0.979072 1.23499 0
M  V30 4062 C 368.994 0.517904 2.24914 0
M  V30 4063 C 369.964 -0.442525 1.60097 0
M  V30 4064 O 371.149 -0.350365 1.87556 0
M  V30 4065 C 368.289 -0.174813 3.44657 0
M  V30 4066 C 367.402 0.825721 4.24035 0
M  V30 4067 C 366.537 0.107946 5.3109 0
M  V30 4068 C 365.576 1.09778 6.02175 0
M  V30 4069 N 364.713 0.40925 7.00906 0
M  V30 4070 H 369.553 1.38751 2.63727 0
M  V30 4071 H 367.09 0.695303 1.2963 0
M  V30 4072 H 369.048 -0.593233 4.12961 0
M  V30 4073 H 367.678 -1.0083 3.06648 0
M  V30 4074 H 366.73 1.36253 3.55161 0
M  V30 4075 H 368.042 1.58005 4.73113 0
M  V30 4076 H 367.196 -0.367904 6.05583 0
M  V30 4077 H 365.935 -0.678994 4.8295 0
M  V30 4078 H 364.94 1.5844 5.26476 0
M  V30 4079 H 366.165 1.88536 6.52404 0
M  V30 4080 H 364.111 -0.358506 6.5502 0
M  V30 4081 H 364.028 1.10226 7.47921 0
M  V30 4082 H 365.296 -0.0442557 7.79487 0
M  V30 4083 N 369.525 -1.3858 0.750561 0
M  V30 4084 C 370.772 -2.00184 0.305373 0
M  V30 4085 C 371.1 -1.59575 -1.11203 0
M  V30 4086 O 370.355 -0.823236 -1.77542 0
M  V30 4087 C 370.654 -3.55455 0.372373 0
M  V30 4088 C 370.32 -4.15765 1.745 0
M  V30 4089 C 368.982 -4.31951 2.12065 0
M  V30 4090 C 371.334 -4.49067 2.64553 0
M  V30 4091 C 368.662 -4.78734 3.39162 0
M  V30 4092 C 371.014 -4.97265 3.91038 0
M  V30 4093 C 369.678 -5.11658 4.28676 0
M  V30 4094 H 368.948 -0.732526 0.111744 0
M  V30 4095 H 371.595 -1.65673 0.960451 0
M  V30 4096 H 369.9 -3.90084 -0.366272 0
M  V30 4097 H 371.597 -4.00999 0.00953918 0
M  V30 4098 H 368.187 -4.03579 1.44297 0
M  V30 4099 H 372.371 -4.36166 2.36796 0
M  V30 4100 H 367.627 -4.88062 3.68246 0
M  V30 4101 H 371.801 -5.22003 4.60962 0
M  V30 4102 H 369.428 -5.47668 5.27222 0
M  V30 4103 N 371.003 -0.499398 -1.49478 0
M  V30 4104 C 371.913 0.284489 -2.32869 0
M  V30 4105 C 372.929 0.968885 -1.44529 0
M  V30 4106 O 374.105 0.95062 -1.77553 0
M  V30 4107 C 371.17 1.33594 -3.19928 0
M  V30 4108 C 370.231 0.665149 -4.24116 0
M  V30 4109 C 369.464 1.6665 -5.07014 0
M  V30 4110 O 369.687 2.89618 -4.91404 0
M  V30 4111 O 368.621 1.22271 -5.8935 0
M  V30 4112 H 372.447 -0.39802 -3.01081 0
M  V30 4113 H 370.032 -0.260758 -1.47107 0
M  V30 4114 H 371.914 1.94431 -3.73864 0
M  V30 4115 H 370.589 2.0014 -2.54412 0
M  V30 4116 H 369.496 0.0170769 -3.74096 0
M  V30 4117 H 370.829 0.0421555 -4.92182 0
M  V30 4118 N 372.481 1.55866 -0.233164 0
M  V30 4119 C 373.709 2.02998 0.399905 0
M  V30 4120 C 374.124 1.11274 1.52524 0
M  V30 4121 O 373.481 0.124528 1.82075 0
M  V30 4122 C 373.532 3.4958 0.920639 0
M  V30 4123 O 373.253 4.37808 -0.159834 0
M  V30 4124 C 374.754 4.12411 1.62578 0
M  V30 4125 H 371.974 0.664006 0.0966281 0
M  V30 4126 H 374.518 2.0143 -0.353013 0
M  V30 4127 H 372.673 3.51727 1.62379 0
M  V30 4128 H 373.087 5.23981 0.23337 0
M  V30 4129 H 374.561 5.16711 1.94201 0
M  V30 4130 H 375.038 3.5809 2.54299 0
M  V30 4131 H 375.644 4.14148 0.967553 0
M  V30 4132 N 373.959 -0.0401083 1.57549 0
M  V30 4133 C 374.869 -1.06133 2.0922 0
M  V30 4134 C 375.885 -1.40356 1.0284 0
M  V30 4135 O 377.061 -1.49897 1.34509 0
M  V30 4136 C 374.126 -2.34658 2.55218 0
M  V30 4137 C 373.187 -2.07117 3.76033 0
M  V30 4138 C 372.42 -3.29514 4.19829 0
M  V30 4139 O 372.643 -4.39794 3.63232 0
M  V30 4140 O 371.577 -3.15863 5.12362 0
M  V30 4141 H 375.403 -0.652244 2.96613 0
M  V30 4142 H 372.988 -0.256368 1.47184 0
M  V30 4143 H 374.87 -3.10239 2.85184 0
M  V30 4144 H 373.545 -2.74883 1.70941 0
M  V30 4145 H 372.452 -1.29139 3.51104 0
M  V30 4146 H 373.785 -1.71754 4.61261 0
M  V30 4147 N 375.437 -1.54477 -0.31217 0
M  V30 4148 C 376.853 -1.45442 -0.657185 0
M  V30 4149 C 377.053 -0.63653 -1.91182 0
M  V30 4150 O 376.109 -0.139815 -2.52113 0
M  V30 4151 C 377.422 -2.89287 -0.82058 0
M  V30 4152 C 378.97 -2.9926 -0.917188 0
M  V30 4153 C 379.445 -4.44279 -1.11267 0
M  V30 4154 N 380.936 -4.4794 -1.17914 0
M  V30 4155 C 381.671 -5.57318 -1.34848 0
M  V30 4156 N 381.167 -6.76642 -1.48752 0
M  V30 4157 N 382.96 -5.44986 -1.37647 0
M  V30 4158 H 375.111 -2.06129 0.512313 0
M  V30 4159 H 377.374 -0.933088 0.167485 0
M  V30 4160 H 377.08 -3.51687 0.0302604 0
M  V30 4161 H 376.954 -3.36061 -1.71298 0
M  V30 4162 H 379.341 -2.36981 -1.75852 0
M  V30 4163 H 379.422 -2.558 -0.00101257 0
M  V30 4164 H 379.066 -5.07149 -0.27614 0
M  V30 4165 H 378.996 -4.85359 -2.04289 0
M  V30 4166 H 381.487 -3.61969 -1.08567 0
M  V30 4167 H 381.8 -7.55758 -1.61397 0
M  V30 4168 H 380.145 -6.79529 -1.45828 0
M  V30 4169 H 383.336 -4.50715 -1.26388 0
M  V30 4170 H 383.509 -6.3028 -1.50501 0
M  V30 4171 N 376.915 0.57481 -1.46744 0
M  V30 4172 C 377.865 1.67838 -1.54319 0
M  V30 4173 C 378.849 1.55759 -0.40346 0
M  V30 4174 O 380.041 1.6454 -0.652347 0
M  V30 4175 C 377.17 3.06624 -1.5439 0
M  V30 4176 C 376.256 3.23971 -2.73685 0
M  V30 4177 N 376.647 3.11447 -3.9854 0
M  V30 4178 C 374.945 3.5493 -2.70075 0
M  V30 4179 C 375.646 3.31011 -4.78337 0
M  V30 4180 N 374.622 3.56533 -4.10348 0
M  V30 4181 H 378.424 1.56698 -2.48642 0
M  V30 4182 H 375.938 0.779071 -1.42493 0
M  V30 4183 H 377.935 3.85839 -1.57905 0
M  V30 4184 H 376.595 3.1889 -0.611493 0
M  V30 4185 H 377.606 2.89145 -4.29669 0
M  V30 4186 H 374.283 3.73832 -1.85893 0
M  V30 4187 H 375.673 3.26445 -5.87268 0
M  V30 4188 N 378.394 1.34581 0.820102 0
M  V30 4189 C 379.304 1.28471 1.96297 0
M  V30 4190 C 380.32 0.191902 1.72939 0
M  V30 4191 O 381.496 0.418879 1.96996 0
M  V30 4192 C 378.561 1.04281 3.30645 0
M  V30 4193 C 377.622 2.22745 3.66992 0
M  V30 4194 C 376.855 1.997 4.9493 0
M  V30 4195 O 377.078 0.956656 5.6232 0
M  V30 4196 O 376.012 2.86723 5.2922 0
M  V30 4197 H 379.838 2.24624 2.04396 0
M  V30 4198 H 377.423 1.14816 0.955913 0
M  V30 4199 H 379.305 0.925841 4.11104 0
M  V30 4200 H 377.98 0.111697 3.23507 0
M  V30 4201 H 376.887 2.40003 2.86966 0
M  V30 4202 H 378.22 3.14257 3.78819 0
M  V30 4203 N 379.872 -1.04064 1.18357 0
M  V30 4204 C 381.119 -1.77265 0.978947 0
M  V30 4205 C 381.447 -1.88189 -0.491428 0
M  V30 4206 O 380.702 -1.38653 -1.38108 0
M  V30 4207 C 381.001 -3.20634 1.57888 0
M  V30 4208 C 380.667 -3.29743 3.07539 0
M  V30 4209 C 379.329 -3.31937 3.48384 0
M  V30 4210 C 381.681 -3.29841 4.03552 0
M  V30 4211 C 379.009 -3.3187 4.83818 0
M  V30 4212 C 381.361 -3.31313 5.38901 0
M  V30 4213 C 380.025 -3.31799 5.79194 0
M  V30 4214 H 379.295 -0.648659 0.358222 0
M  V30 4215 H 381.942 -1.22225 1.47422 0
M  V30 4216 H 380.247 -3.78675 1.00561 0
M  V30 4217 H 381.944 -3.75917 1.39598 0
M  V30 4218 H 378.534 -3.28757 2.74986 0
M  V30 4219 H 382.718 -3.27337 3.73047 0
M  V30 4220 H 377.974 -3.30562 5.14333 0
M  V30 4221 H 382.148 -3.30338 6.13066 0
M  V30 4222 H 379.775 -3.315 6.84114 0
M  V30 4223 N 381.35 -0.985608 -1.22978 0
M  V30 4224 C 382.761 -0.693593 -1.73338 0
M  V30 4225 C 383.112 0.789935 -1.79595 0
M  V30 4226 O 382.237 1.61771 -1.43733 0
M  V30 4227 C 382.832 -1.25235 -3.14804 0
M  V30 4228 C 381.391 -1.00987 -3.626 0
M  V30 4229 C 380.538 -1.37695 -2.40698 0
M  V30 4230 H 383.489 -1.15884 -1.08428 0
M  V30 4231 H 383.51 -0.627329 -3.75293 0
M  V30 4232 H 383.022 -2.33209 -3.10218 0
M  V30 4233 H 381.123 0.0535565 -3.72562 0
M  V30 4234 H 381.236 -1.66812 -4.49122 0
M  V30 4235 H 379.6 -0.795459 -2.4196 0
M  V30 4236 H 380.383 -2.46657 -2.38779 0
M  V30 4237 N 382.828 1.3818 -0.7579 0
M  V30 4238 C 383.776 2.32277 -0.122482 0
M  V30 4239 C 384.77 1.54238 0.700505 0
M  V30 4240 O 385.976 1.69737 0.599119 0
M  V30 4241 H 382.351 0.751712 -0.0208143 0
M  V30 4242 H 384.322 2.83469 -0.932099 0
M  V30 4243 C 383.071 3.39447 0.753076 0
M  V30 4244 H 382.394 3.99591 0.129184 0
M  V30 4245 H 383.834 4.07684 1.16489 0
M  V30 4246 C 382.293 2.78375 1.8976 0
M  V30 4247 O 382.823 2.68025 2.99208 0
M  V30 4248 N 381.029 2.36121 1.69397 0
M  V30 4249 H 380.576 2.4474 0.803762 0
M  V30 4250 H 380.534 1.95602 2.46145 0
M  V30 4251 N 384.306 0.507319 1.49211 0
M  V30 4252 C 385.553 -0.0349529 2.0247 0
M  V30 4253 C 385.881 -1.36409 1.38647 0
M  V30 4254 O 385.136 -1.88841 0.513566 0
M  V30 4255 C 385.435 -0.229513 3.56662 0
M  V30 4256 C 385.101 1.02241 4.39156 0
M  V30 4257 C 383.763 1.36557 4.61417 0
M  V30 4258 C 386.115 1.85428 4.871 0
M  V30 4259 C 383.443 2.53999 5.28868 0
M  V30 4260 C 385.795 3.02028 5.55843 0
M  V30 4261 C 384.459 3.36717 5.76349 0
M  V30 4262 H 383.729 -0.0127902 0.74089 0
M  V30 4263 H 386.376 0.668756 1.79443 0
M  V30 4264 H 384.681 -1.0158 3.78403 0
M  V30 4265 H 386.378 -0.663641 3.9547 0
M  V30 4266 H 382.968 0.745124 4.22073 0
M  V30 4267 H 387.152 1.6023 4.69723 0
M  V30 4268 H 382.408 2.81105 5.42946 0
M  V30 4269 H 386.582 3.66808 5.91967 0
M  V30 4270 H 384.209 4.27821 6.28389 0
M  V30 4271 N 385.784 -1.5574 0.241426 0
M  V30 4272 C 386.716 -2.18469 -0.693091 0
M  V30 4273 C 387.729 -1.15942 -1.14286 0
M  V30 4274 O 388.918 -1.42832 -1.07058 0
M  V30 4275 C 386.018 -2.7696 -1.95311 0
M  V30 4276 C 385.191 -4.04853 -1.65568 0
M  V30 4277 C 384.25 -4.47715 -2.76474 0
M  V30 4278 O 383.276 -5.14205 -2.44094 0
M  V30 4279 N 384.478 -4.15044 -4.05855 0
M  V30 4280 H 387.243 -2.99292 -0.156388 0
M  V30 4281 H 384.804 -1.61784 0.0611752 0
M  V30 4282 H 386.796 -3.02594 -2.68736 0
M  V30 4283 H 385.366 -2.00326 -2.39975 0
M  V30 4284 H 384.586 -3.86865 -0.756886 0
M  V30 4285 H 385.874 -4.88246 -1.43153 0
M  V30 4286 H 385.272 -3.61654 -4.34998 0
M  V30 4287 H 383.829 -4.45526 -4.75762 0
M  V30 4288 N 387.262 0.0317525 -1.57568 0
M  V30 4289 C 388.51 0.721676 -1.88776 0
M  V30 4290 C 388.831 1.76039 -0.838772 0
M  V30 4291 O 388.101 1.95482 0.127935 0
M  V30 4292 H 386.681 0.269534 -0.696678 0
M  V30 4293 H 389.343 -0.00165879 -1.949 0
M  V30 4294 H 388.439 1.21293 -2.87566 0
M  V30 4295 N 388.74 1.54641 0.303973 0
M  V30 4296 C 389.688 1.86137 1.39484 0
M  V30 4297 C 390.682 0.734854 1.52631 0
M  V30 4298 O 391.888 0.918803 1.54784 0
M  V30 4299 H 388.263 0.590324 0.465856 0
M  V30 4300 H 390.234 2.77324 1.10154 0
M  V30 4301 C 388.983 2.12274 2.75382 0
M  V30 4302 H 388.306 2.98429 2.66046 0
M  V30 4303 H 389.746 2.38254 3.5073 0
M  V30 4304 C 388.205 0.920365 3.24085 0
M  V30 4305 O 388.735 0.139377 4.01458 0
M  V30 4306 N 386.941 0.726566 2.81371 0
M  V30 4307 H 386.488 1.36332 2.18567 0
M  V30 4308 H 386.446 -0.0763799 3.14307 0
M  V30 4309 N 390.218 -0.567019 1.47046 0
M  V30 4310 C 391.181 -1.65696 1.58359 0
M  V30 4311 C 392.181 -1.54097 0.459441 0
M  V30 4312 O 393.371 -1.58432 0.724225 0
M  V30 4313 C 390.503 -3.05197 1.51879 0
M  V30 4314 H 391.696 -1.57019 2.5551 0
M  V30 4315 H 389.249 -0.786148 1.3509 0
M  V30 4316 H 389.984 -3.19417 0.560673 0
M  V30 4317 H 389.769 -3.15025 2.33455 0
M  V30 4318 H 391.259 -3.84511 1.62913 0
M  V30 4319 N 391.696 -1.35014 -0.812953 0
M  V30 4320 C 392.942 -1.2812 -1.57204 0
M  V30 4321 C 393.275 0.145869 -1.93651 0
M  V30 4322 O 392.55 1.0937 -1.60836 0
M  V30 4323 C 392.833 -2.18162 -2.86492 0
M  V30 4324 C 392.686 -3.69454 -2.56561 0
M  V30 4325 C 394.005 -2.07439 -3.88145 0
M  V30 4326 H 391.124 -0.466746 -0.570366 0
M  V30 4327 H 393.766 -1.65357 -0.935783 0
M  V30 4328 H 391.916 -1.86535 -3.40789 0
M  V30 4329 H 393.588 -4.11493 -2.08497 0
M  V30 4330 H 391.831 -3.9005 -1.89851 0
M  V30 4331 H 392.502 -4.27835 -3.48799 0
M  V30 4332 H 394.978 -2.35228 -3.4323 0
M  V30 4333 H 393.854 -2.7265 -4.76396 0
M  V30 4334 H 394.115 -1.05439 -4.29343 0
M  V30 4335 N 393.175 1.03435 -1.18907 0
M  V30 4336 C 394.424 1.76143 -0.982669 0
M  V30 4337 C 394.737 1.89416 0.487953 0
M  V30 4338 O 395.943 2.59041 0.813036 0
M  V30 4339 C 394.399 3.16722 -1.70924 0
M  V30 4340 C 394.007 3.11522 -3.21959 0
M  V30 4341 C 395.751 3.93764 -1.58588 0
M  V30 4342 C 393.658 4.46999 -3.87228 0
M  V30 4343 H 392.588 0.660292 -0.364047 0
M  V30 4344 H 395.239 1.158 -1.42347 0
M  V30 4345 H 393.621 3.775 -1.19623 0
M  V30 4346 H 394.795 2.60158 -3.80335 0
M  V30 4347 H 393.11 2.47978 -3.34508 0
M  V30 4348 H 395.707 4.93963 -2.04707 0
M  V30 4349 H 396.05 4.12794 -0.539142 0
M  V30 4350 H 396.583 3.39576 -2.07203 0
M  V30 4351 H 393.322 4.33174 -4.91976 0
M  V30 4352 H 392.842 4.98441 -3.33642 0
M  V30 4353 H 394.521 5.15898 -3.90459 0
M  V30 4354 N 394.653 0.992116 1.22453 0
M  V30 4355 C 395.601 0.534644 2.26372 0
M  V30 4356 C 396.595 -0.414293 1.64256 0
M  V30 4357 O 397.801 -0.286899 1.77699 0
M  V30 4358 H 394.176 0.154502 0.735957 0
M  V30 4359 H 396.147 1.42256 2.62309 0
M  V30 4360 C 394.896 -0.135815 3.47435 0
M  V30 4361 H 394.219 0.585311 3.95492 0
M  V30 4362 H 395.659 -0.419374 4.21921 0
M  V30 4363 C 394.118 -1.37089 3.07747 0
M  V30 4364 O 394.648 -2.46629 3.17076 0
M  V30 4365 N 392.854 -1.24585 2.62539 0
M  V30 4366 H 392.401 -0.354542 2.55149 0
M  V30 4367 H 392.359 -2.07327 2.36353 0
M  V30 4368 N 396.131 -1.37776 0.765217 0
M  V30 4369 C 397.378 -1.99849 0.326588 0
M  V30 4370 C 397.706 -1.60746 -1.09504 0
M  V30 4371 O 396.961 -0.84202 -1.76659 0
M  V30 4372 C 397.26 -3.5504 0.410053 0
M  V30 4373 C 396.926 -4.13891 1.78899 0
M  V30 4374 C 395.588 -4.29678 2.16635 0
M  V30 4375 C 397.94 -4.46236 2.69301 0
M  V30 4376 C 395.268 -4.7511 3.44221 0
M  V30 4377 C 397.62 -4.93089 3.9629 0
M  V30 4378 C 396.284 -5.07082 4.34078 0
M  V30 4379 H 395.554 -0.7313 0.119507 0
M  V30 4380 H 398.201 -1.64645 0.977968 0
M  V30 4381 H 396.506 -3.90451 -0.324878 0
M  V30 4382 H 398.203 -4.00966 0.0520699 0
M  V30 4383 H 394.793 -4.02026 1.48569 0
M  V30 4384 H 398.977 -4.3363 2.41409 0
M  V30 4385 H 394.233 -4.84129 3.73402 0
M  V30 4386 H 398.407 -5.17084 4.66472 0
M  V30 4387 H 396.034 -5.42046 5.33001 0
M  V30 4388 N 397.609 -0.515225 -1.4894 0
M  V30 4389 C 398.837 0.0206034 -2.0689 0
M  V30 4390 C 399.252 1.29514 -1.37374 0
M  V30 4391 O 398.609 1.76698 -0.456529 0
M  V30 4392 C 398.66 0.26351 -3.60538 0
M  V30 4393 O 398.381 -0.960517 -4.27441 0
M  V30 4394 C 399.882 0.841383 -4.35242 0
M  V30 4395 H 397.102 -0.0268608 -0.670462 0
M  V30 4396 H 399.646 -0.716651 -1.91532 0
M  V30 4397 H 397.801 0.950777 -3.75552 0
M  V30 4398 H 398.215 -0.73212 -5.19365 0
M  V30 4399 H 399.689 0.96085 -5.43573 0
M  V30 4400 H 400.166 1.8427 -3.98674 0
M  V30 4401 H 400.772 0.191143 -4.2487 0
M  V30 4402 N 399.087 1.5561 -0.249682 0
M  V30 4403 C 400.364 1.90932 0.424761 0
M  V30 4404 C 400.744 1.17078 1.75658 0
M  V30 4405 O 400.092 0.289176 2.26663 0
M  V30 4406 C 400.302 3.43975 0.590109 0
M  V30 4407 C 401.65 4.15281 0.884714 0
M  V30 4408 O 402.674 3.49729 0.67587 0
M  V30 4409 O 401.533 5.31236 1.28259 0
M  V30 4410 H 398.627 0.794815 0.228468 0
M  V30 4411 H 401.173 1.67135 -0.293954 0
M  V30 4412 H 399.945 3.89748 -0.34818 0
M  V30 4413 H 399.568 3.73644 1.35926 0
M  V30 4414 N 400.565 -0.0233959 1.57583 0
M  V30 4415 C 401.528 -1.00693 2.05897 0
M  V30 4416 C 402.528 -1.28693 0.964092 0
M  V30 4417 O 403.718 -1.23602 1.22753 0
M  V30 4418 C 400.85 -2.33825 2.4807 0
M  V30 4419 H 402.043 -0.589476 2.9405 0
M  V30 4420 H 399.596 -0.270354 1.53944 0
M  V30 4421 H 400.331 -2.80307 1.6309 0
M  V30 4422 H 400.116 -2.1483 3.2801 0
M  V30 4423 H 401.606 -3.04426 2.85857 0
M  V30 4424 N 402.043 -1.548 -0.295768 0
M  V30 4425 C 402.991 -1.86874 -1.38495 0
M  V30 4426 C 403.985 -0.742938 -1.52239 0
M  V30 4427 O 405.191 -0.926999 -1.54294 0
M  V30 4428 H 401.566 -0.592786 -0.462719 0
M  V30 4429 H 403.537 -2.77904 -1.08682 0
M  V30 4430 C 402.286 -2.13732 -2.74252 0
M  V30 4431 H 401.609 -2.99835 -2.64459 0
M  V30 4432 H 403.049 -2.4011 -3.49461 0
M  V30 4433 C 401.508 -0.937539 -3.23592 0
M  V30 4434 O 402.038 -0.160665 -4.01379 0
M  V30 4435 N 400.244 -0.741478 -2.80981 0
M  V30 4436 H 399.791 -1.37489 -2.1784 0
M  V30 4437 H 399.749 0.0597103 -3.14343 0
M  V30 4438 N 403.521 0.559213 -1.47345 0
M  V30 4439 C 404.767 1.31843 -1.54095 0
M  V30 4440 C 405.1 1.93149 -0.201726 0
M  V30 4441 O 404.375 1.77759 0.789428 0
M  V30 4442 C 404.658 2.43006 -2.65744 0
M  V30 4443 C 404.511 1.86581 -4.09277 0
M  V30 4444 C 405.83 3.44943 -2.73318 0
M  V30 4445 H 402.949 0.478012 -0.560957 0
M  V30 4446 H 405.591 0.625977 -1.79392 0
M  V30 4447 H 403.741 3.02072 -2.44305 0
M  V30 4448 H 405.413 1.31792 -4.42073 0
M  V30 4449 H 403.656 1.17268 -4.17649 0
M  V30 4450 H 404.327 2.66933 -4.83168 0
M  V30 4451 H 406.803 2.95793 -2.92653 0
M  V30 4452 H 405.679 4.20153 -3.53218 0
M  V30 4453 H 405.94 4.03665 -1.80296 0
M  V30 4454 N 404.999 1.35443 0.805782 0
M  V30 4455 C 406.41 1.25768 1.37983 0
M  V30 4456 C 406.761 -0.10958 1.95894 0
M  V30 4457 O 405.886 -1.01056 1.91355 0
M  V30 4458 C 406.481 2.27727 2.5085 0
M  V30 4459 C 405.04 2.2179 3.04115 0
M  V30 4460 C 404.187 2.13393 1.77084 0
M  V30 4461 H 407.138 1.4656 0.608752 0
M  V30 4462 H 407.159 1.90422 3.29424 0
M  V30 4463 H 406.671 3.27227 2.08671 0
M  V30 4464 H 404.772 1.25703 3.50756 0
M  V30 4465 H 404.885 3.13788 3.62042 0
M  V30 4466 H 403.249 1.59384 1.98668 0
M  V30 4467 H 404.032 3.14755 1.37056 0
M  V30 4468 N 406.477 -1.02803 1.19454 0
M  V30 4469 C 407.707 -1.79581 1.02149 0
M  V30 4470 C 408.115 -1.84182 -0.432851 0
M  V30 4471 O 407.458 -1.28534 -1.31243 0
M  V30 4472 C 407.52 -3.25993 1.51554 0
M  V30 4473 C 407.184 -3.45025 2.99678 0
M  V30 4474 C 408.181 -3.35175 3.97434 0
M  V30 4475 C 405.866 -3.71212 3.38389 0
M  V30 4476 C 407.86 -3.51238 5.31893 0
M  V30 4477 C 405.547 -3.8692 4.73008 0
M  V30 4478 C 406.545 -3.76936 5.69569 0
M  V30 4479 O 406.233 -3.92179 7.01748 0
M  V30 4480 H 405.965 -0.571962 0.360327 0
M  V30 4481 H 408.519 -1.30367 1.58725 0
M  V30 4482 H 406.749 -3.76235 0.893543 0
M  V30 4483 H 408.438 -3.84368 1.30444 0
M  V30 4484 H 409.204 -3.14895 3.68872 0
M  V30 4485 H 405.083 -3.78075 2.6378 0
M  V30 4486 H 408.627 -3.43362 6.07247 0
M  V30 4487 H 404.524 -4.06699 5.01265 0
M  V30 4488 H 405.292 -4.09265 7.08833 0
M  V30 4489 N 407.956 -0.998596 -1.21925 0
M  V30 4490 C 409.184 -0.696286 -1.94832 0
M  V30 4491 C 409.599 0.740032 -1.73692 0
M  V30 4492 O 408.956 1.5 -1.03953 0
M  V30 4493 C 409.007 -0.999833 -3.47398 0
M  V30 4494 O 408.728 -2.37972 -3.67833 0
M  V30 4495 C 410.229 -0.716025 -4.37479 0
M  V30 4496 H 407.449 -0.257111 -0.619786 0
M  V30 4497 H 409.993 -1.33491 -1.54921 0
M  V30 4498 H 408.148 -0.406918 -3.85257 0
M  V30 4499 H 408.562 -2.48338 -4.61983 0
M  V30 4500 H 410.036 -0.978642 -5.43256 0
M  V30 4501 H 410.513 0.349968 -4.37803 0
M  V30 4502 H 411.119 -1.29025 -4.05256 0
M  V30 4503 N 409.434 1.37368 -0.772513 0
M  V30 4504 C 410.85 1.53059 -0.452231 0
M  V30 4505 C 411.05 1.73065 1.03203 0
M  V30 4506 O 410.106 1.75245 1.81784 0
M  V30 4507 C 411.419 2.72659 -1.26797 0
M  V30 4508 C 412.967 2.86521 -1.25995 0
M  V30 4509 C 413.442 4.09105 -2.05905 0
M  V30 4510 N 414.933 4.16219 -2.03263 0
M  V30 4511 C 415.668 5.10107 -2.61875 0
M  V30 4512 N 415.164 6.09547 -3.29278 0
M  V30 4513 N 416.957 5.02596 -2.51701 0
M  V30 4514 H 409.108 1.22634 -1.7342 0
M  V30 4515 H 411.371 0.597206 -0.736239 0
M  V30 4516 H 411.077 2.64343 -2.31982 0
M  V30 4517 H 410.951 3.66363 -0.897672 0
M  V30 4518 H 413.338 2.94308 -0.216081 0
M  V30 4519 H 413.419 1.93774 -1.66989 0
M  V30 4520 H 413.063 4.0208 -3.10313 0
M  V30 4521 H 412.993 5.00968 -1.62292 0
M  V30 4522 H 415.484 3.45012 -1.54192 0
M  V30 4523 H 415.797 6.77718 -3.71374 0
M  V30 4524 H 414.142 6.09824 -3.33377 0
M  V30 4525 H 417.333 4.23855 -1.98657 0
M  V30 4526 H 417.506 5.75582 -2.97673 0
M  V30 4527 N 410.912 0.523116 1.48665 0
M  V30 4528 C 412.161 -0.01544 2.01694 0
M  V30 4529 C 412.474 -1.35975 1.40606 0
M  V30 4530 O 413.68 -1.98627 1.85093 0
M  V30 4531 C 412.136 -0.0779303 3.59816 0
M  V30 4532 C 411.744 1.26107 4.29885 0
M  V30 4533 C 413.488 -0.565678 4.20714 0
M  V30 4534 C 411.395 1.15954 5.79921 0
M  V30 4535 H 410.325 -0.00954163 0.75394 0
M  V30 4536 H 412.976 0.665865 1.70993 0
M  V30 4537 H 411.358 -0.824165 3.87329 0
M  V30 4538 H 412.532 2.02233 4.14051 0
M  V30 4539 H 410.847 1.68401 3.80828 0
M  V30 4540 H 413.444 -0.6595 5.30617 0
M  V30 4541 H 413.787 -1.56984 3.85567 0
M  V30 4542 H 414.32 0.12467 3.97605 0
M  V30 4543 H 411.059 2.13864 6.19631 0
M  V30 4544 H 410.579 0.439529 5.98187 0
M  V30 4545 H 412.258 0.847361 6.41427 0
M  V30 4546 N 412.39 -1.55475 0.257931 0
M  V30 4547 C 413.639 -1.98383 -0.364275 0
M  V30 4548 C 413.952 -1.14952 -1.58258 0
M  V30 4549 O 415.158 -1.47924 -2.27664 0
M  V30 4550 C 413.614 -3.53037 -0.699479 0
M  V30 4551 C 413.222 -4.45223 0.498046 0
M  V30 4552 C 414.966 -4.04575 -1.28526 0
M  V30 4553 C 412.873 -5.91238 0.138383 0
M  V30 4554 H 411.803 -0.740911 -0.13988 0
M  V30 4555 H 414.454 -1.79936 0.359883 0
M  V30 4556 H 412.836 -3.6722 -1.48207 0
M  V30 4557 H 414.01 -4.42803 1.27522 0
M  V30 4558 H 412.325 -4.04226 0.999503 0
M  V30 4559 H 414.922 -5.11196 -1.56788 0
M  V30 4560 H 415.265 -3.5258 -2.21344 0
M  V30 4561 H 415.798 -3.93762 -0.565337 0
M  V30 4562 H 412.537 -6.47294 1.03398 0
M  V30 4563 H 412.057 -5.96768 -0.602374 0
M  V30 4564 H 413.736 -6.46413 -0.27553 0
M  V30 4565 N 413.868 0.0150385 -1.57593 0
M  V30 4566 C 414.778 1.02791 -2.10882 0
M  V30 4567 C 415.794 1.38702 -1.0506 0
M  V30 4568 O 416.97 1.47739 -1.36877 0
M  V30 4569 C 414.035 2.30568 -2.58919 0
M  V30 4570 C 413.096 2.01108 -3.79281 0
M  V30 4571 C 412.329 3.22794 -4.25018 0
M  V30 4572 O 412.552 4.33959 -3.70183 0
M  V30 4573 O 411.486 3.07672 -5.17322 0
M  V30 4574 H 415.312 0.604973 -2.97613 0
M  V30 4575 H 412.897 0.23292 -1.47573 0
M  V30 4576 H 414.779 3.05662 -2.90084 0
M  V30 4577 H 413.454 2.72129 -1.75293 0
M  V30 4578 H 412.361 1.23537 -3.53114 0
M  V30 4579 H 413.694 1.64394 -4.63935 0
M  V30 4580 N 415.346 1.54954 0.287554 0
M  V30 4581 C 416.296 1.8322 1.357 0
M  V30 4582 C 417.28 0.690152 1.45347 0
M  V30 4583 O 418.472 0.951137 1.49273 0
M  V30 4584 C 415.601 2.09481 2.71979 0
M  V30 4585 C 414.687 3.29906 2.66502 0
M  V30 4586 N 415.078 4.50154 2.30641 0
M  V30 4587 C 413.376 3.32203 2.97585 0
M  V30 4588 C 414.077 5.32209 2.34794 0
M  V30 4589 N 413.053 4.70258 2.72688 0
M  V30 4590 H 416.855 2.73746 1.0696 0
M  V30 4591 H 414.369 1.54635 0.496167 0
M  V30 4592 H 416.366 2.27882 3.49107 0
M  V30 4593 H 415.026 1.2023 3.0162 0
M  V30 4594 H 416.037 4.76515 2.02865 0
M  V30 4595 H 412.714 2.53101 3.32034 0
M  V30 4596 H 414.104 6.38321 2.09753 0
M  V30 4597 N 416.824 -0.551391 1.4764 0
M  V30 4598 C 417.771 -1.65796 1.60563 0
M  V30 4599 C 418.741 -1.59932 0.448428 0
M  V30 4600 O 419.926 -1.78679 0.669222 0
M  V30 4601 C 417.066 -3.04108 1.63133 0
M  V30 4602 C 416.179 -3.20365 2.89811 0
M  V30 4603 C 415.314 -4.49109 2.8368 0
M  V30 4604 C 414.353 -4.58819 4.05156 0
M  V30 4605 N 413.49 -5.78926 3.97227 0
M  V30 4606 H 418.33 -1.54088 2.5507 0
M  V30 4607 H 415.867 -0.75052 1.26513 0
M  V30 4608 H 417.825 -3.84207 1.62606 0
M  V30 4609 H 416.455 -3.14637 0.721341 0
M  V30 4610 H 415.507 -2.33659 3.00179 0
M  V30 4611 H 416.819 -3.23402 3.79753 0
M  V30 4612 H 415.973 -5.37475 2.81434 0
M  V30 4613 H 414.712 -4.4856 1.91431 0
M  V30 4614 H 413.717 -3.68864 4.077 0
M  V30 4615 H 414.942 -4.61124 4.98539 0
M  V30 4616 H 412.888 -5.79314 3.07785 0
M  V30 4617 H 412.805 -5.83367 4.80853 0
M  V30 4618 H 414.073 -6.69637 3.99007 0
M  V30 4619 N 418.302 -1.35869 -0.798587 0
M  V30 4620 C 419.252 -1.25982 -1.90033 0
M  V30 4621 C 420.236 -0.153303 -1.60168 0
M  V30 4622 O 421.428 -0.38527 -1.72756 0
M  V30 4623 C 418.557 -1.04211 -3.27101 0
M  V30 4624 C 417.643 -2.19289 -3.63006 0
M  V30 4625 N 418.034 -3.44559 -3.70287 0
M  V30 4626 C 416.332 -2.10852 -3.93011 0
M  V30 4627 C 417.033 -4.20283 -4.02166 0
M  V30 4628 N 416.009 -3.49124 -4.16669 0
M  V30 4629 H 419.811 -2.20883 -1.93876 0
M  V30 4630 H 417.325 -1.28457 -0.993614 0
M  V30 4631 H 419.322 -0.952155 -4.05881 0
M  V30 4632 H 417.982 -0.102013 -3.2454 0
M  V30 4633 H 418.993 -3.7881 -3.53162 0
M  V30 4634 H 415.67 -1.24744 -3.98428 0
M  V30 4635 H 417.06 -5.28575 -4.14799 0
M  V30 4636 N 419.78 1.02168 -1.19998 0
M  V30 4637 C 421.027 1.75685 -1.00702 0
M  V30 4638 C 421.355 1.88947 0.461426 0
M  V30 4639 O 420.61 1.40832 1.35885 0
M  V30 4640 C 420.909 3.18081 -1.62969 0
M  V30 4641 C 420.575 3.24809 -3.12746 0
M  V30 4642 C 419.237 3.26352 -3.53621 0
M  V30 4643 C 421.589 3.23379 -4.08749 0
M  V30 4644 C 418.917 3.2413 -4.89036 0
M  V30 4645 C 421.269 3.22698 -5.44104 0
M  V30 4646 C 419.933 3.22542 -5.84399 0
M  V30 4647 H 419.203 0.642877 -0.368496 0
M  V30 4648 H 421.85 1.19865 -1.49348 0
M  V30 4649 H 420.155 3.77027 -1.06573 0
M  V30 4650 H 421.852 3.73648 -1.45561 0
M  V30 4651 H 418.442 3.2434 -2.80181 0
M  V30 4652 H 422.626 3.21361 -3.78207 0
M  V30 4653 H 417.882 3.22338 -5.19527 0
M  V30 4654 H 422.056 3.20543 -6.18244 0
M  V30 4655 H 419.683 3.20575 -6.89301 0
M  V30 4656 N 421.258 1.00505 1.21394 0
M  V30 4657 C 422.535 0.603277 1.86064 0
M  V30 4658 C 422.915 -0.919095 1.90042 0
M  V30 4659 O 422.263 -1.80607 1.39977 0
M  V30 4660 C 422.473 1.23772 3.26315 0
M  V30 4661 C 423.821 1.34586 4.02705 0
M  V30 4662 O 424.845 1.19304 3.35626 0
M  V30 4663 O 423.704 1.59169 5.22807 0
M  V30 4664 H 420.798 0.206634 0.800769 0
M  V30 4665 H 423.344 1.1017 1.29076 0
M  V30 4666 H 422.116 2.27848 3.18121 0
M  V30 4667 H 421.739 0.725648 3.90922 0
M  V30 4668 N 422.737 -1.36956 0.779787 0
M  V30 4669 C 423.967 -2.03459 0.358877 0
M  V30 4670 C 424.375 -1.58939 -1.02641 0
M  V30 4671 O 423.718 -0.769777 -1.66794 0
M  V30 4672 C 423.78 -3.5796 0.332393 0
M  V30 4673 C 423.444 -4.25644 1.66362 0
M  V30 4674 C 424.441 -4.49205 2.61746 0
M  V30 4675 C 422.126 -4.63313 1.94027 0
M  V30 4676 C 424.12 -5.09503 3.82996 0
M  V30 4677 C 421.807 -5.2333 3.15546 0
M  V30 4678 C 422.805 -5.46363 4.0985 0
M  V30 4679 O 422.493 -6.05122 5.29228 0
M  V30 4680 H 422.225 -0.659767 0.147254 0
M  V30 4681 H 424.779 -1.76111 1.05708 0
M  V30 4682 H 423.009 -3.84388 -0.422237 0
M  V30 4683 H 424.698 -4.05852 -0.0625389 0
M  V30 4684 H 425.464 -4.20508 2.41657 0
M  V30 4685 H 421.343 -4.44715 1.21448 0
M  V30 4686 H 424.887 -5.27397 4.56617 0
M  V30 4687 H 420.784 -5.51451 3.35517 0
M  V30 4688 H 421.552 -6.23595 5.30161 0
M  V30 4689 N 424.215 -0.530993 -1.48385 0
M  V30 4690 C 425.461 0.00274135 -2.028 0
M  V30 4691 C 425.794 1.33838 -1.40716 0
M  V30 4692 O 425.069 1.86465 -0.553277 0
M  V30 4693 C 425.352 0.123676 -3.59888 0
M  V30 4694 C 425.205 -1.2372 -4.3245 0
M  V30 4695 C 426.524 0.849967 -4.31814 0
M  V30 4696 H 423.643 -0.000477758 -0.737 0
M  V30 4697 H 426.285 -0.688217 -1.77098 0
M  V30 4698 H 424.435 0.712157 -3.81917 0
M  V30 4699 H 426.107 -1.86687 -4.21836 0
M  V30 4700 H 424.35 -1.81882 -3.93829 0
M  V30 4701 H 425.021 -1.10557 -5.40815 0
M  V30 4702 H 427.497 0.350572 -4.14621 0
M  V30 4703 H 426.373 0.903486 -5.41413 0
M  V30 4704 H 426.634 1.90047 -3.99167 0
M  V30 4705 N 425.693 1.55336 -0.266172 0
M  V30 4706 C 426.603 2.2583 0.635458 0
M  V30 4707 C 427.619 1.28106 1.17749 0
M  V30 4708 O 428.795 1.61024 1.20968 0
M  V30 4709 C 425.86 2.95879 1.80712 0
M  V30 4710 C 424.921 4.09059 1.30265 0
M  V30 4711 C 424.154 4.75759 2.41846 0
M  V30 4712 O 424.377 4.41622 3.61007 0
M  V30 4713 O 423.311 5.63888 2.1051 0
M  V30 4714 H 427.137 3.03631 0.0646693 0
M  V30 4715 H 424.722 1.49361 -0.0339177 0
M  V30 4716 H 426.604 3.39932 2.49047 0
M  V30 4717 H 425.279 2.21002 2.36516 0
M  V30 4718 H 424.186 3.69482 0.586019 0
M  V30 4719 H 425.519 4.85811 0.790458 0
M  V30 4720 N 427.171 -0.0066808 1.57599 0
M  V30 4721 C 428.399 -0.704087 1.94551 0
M  V30 4722 C 428.814 -1.67677 0.867746 0
M  V30 4723 O 428.171 -1.8185 -0.153925 0
M  V30 4724 C 428.222 -1.44177 3.31505 0
M  V30 4725 O 427.943 -0.508097 4.35144 0
M  V30 4726 C 429.444 -2.23429 3.82876 0
M  V30 4727 H 426.664 -0.196523 0.641576 0
M  V30 4728 H 429.208 0.042453 2.04456 0
M  V30 4729 H 427.363 -2.13999 3.22929 0
M  V30 4730 H 427.777 -1.02782 5.14331 0
M  V30 4731 H 429.251 -2.70552 4.8115 0
M  V30 4732 H 429.728 -3.05818 3.15233 0
M  V30 4733 H 430.334 -1.58636 3.94607 0
M  V30 4734 N 428.649 -1.55105 -0.279332 0
M  V30 4735 C 429.596 -1.8755 -1.34513 0
M  V30 4736 C 430.566 -0.726384 -1.49375 0
M  V30 4737 O 431.751 -0.977063 -1.63884 0
M  V30 4738 C 428.891 -2.14738 -2.70151 0
M  V30 4739 C 428.004 -3.42285 -2.63562 0
M  V30 4740 C 427.139 -3.59206 -3.91337 0
M  V30 4741 C 426.178 -4.80467 -3.79233 0
M  V30 4742 N 425.315 -4.94079 -4.98829 0
M  V30 4743 H 430.155 -2.78456 -1.06143 0
M  V30 4744 H 427.692 -1.37867 -0.512936 0
M  V30 4745 H 429.65 -2.28501 -3.49061 0
M  V30 4746 H 428.28 -1.27075 -2.96735 0
M  V30 4747 H 427.332 -3.37029 -1.76397 0
M  V30 4748 H 428.644 -4.31328 -2.50515 0
M  V30 4749 H 427.798 -3.72751 -4.78687 0
M  V30 4750 H 426.537 -2.68337 -4.07243 0
M  V30 4751 H 425.542 -4.66932 -2.90266 0
M  V30 4752 H 426.767 -5.72765 -3.64852 0
M  V30 4753 H 424.713 -4.06139 -5.15158 0
M  V30 4754 H 424.63 -5.77156 -4.8829 0
M  V30 4755 H 425.898 -5.12003 -5.8777 0
M  V30 4756 N 430.127 0.543554 -1.4793 0
M  V30 4757 C 431.077 1.64527 -1.57844 0
M  V30 4758 C 432.061 1.54869 -0.436408 0
M  V30 4759 O 433.253 1.63119 -0.687101 0
M  V30 4760 C 430.382 3.03281 -1.6086 0
M  V30 4761 C 429.468 3.18093 -2.80495 0
M  V30 4762 N 429.859 3.02923 -4.05057 0
M  V30 4763 C 428.157 3.49121 -2.77543 0
M  V30 4764 C 428.858 3.20791 -4.85251 0
M  V30 4765 N 427.834 3.47749 -4.17818 0
M  V30 4766 H 431.636 1.51388 -2.5191 0
M  V30 4767 H 429.15 0.748671 -1.44113 0
M  V30 4768 H 431.147 3.82403 -1.66054 0
M  V30 4769 H 429.807 3.17521 -0.678996 0
M  V30 4770 H 430.818 2.79966 -4.35705 0
M  V30 4771 H 427.495 3.69804 -1.93781 0
M  V30 4772 H 428.885 3.13915 -5.9406 0
M  V30 4773 N 431.605 1.3629 0.791371 0
M  V30 4774 C 432.833 1.33562 1.58016 0
M  V30 4775 C 433.248 -0.0835616 1.88615 0
M  V30 4776 O 432.605 -1.0399 1.49974 0
M  V30 4777 C 432.656 2.15517 2.90232 0
M  V30 4778 O 432.377 3.51902 2.60953 0
M  V30 4779 C 433.878 2.20546 3.84544 0
M  V30 4780 H 431.098 0.458226 0.490173 0
M  V30 4781 H 433.642 1.79361 0.982345 0
M  V30 4782 H 431.797 1.73278 3.46487 0
M  V30 4783 H 432.211 3.94644 3.4548 0
M  V30 4784 H 433.685 2.82252 4.74382 0
M  V30 4785 H 434.162 1.20838 4.2225 0
M  V30 4786 H 434.768 2.63013 3.34222 0
M  V30 4787 N 433.083 -1.0153 1.20538 0
M  V30 4788 C 434.329 -1.75408 1.01783 0
M  V30 4789 C 434.662 -1.88943 -0.448814 0
M  V30 4790 O 433.937 -1.4162 -1.33319 0
M  V30 4791 C 434.22 -3.17255 1.70356 0
M  V30 4792 C 434.073 -3.11508 3.24473 0
M  V30 4793 C 435.392 -4.15955 1.43769 0
M  V30 4794 H 432.511 -0.636713 0.371167 0
M  V30 4795 H 435.153 -1.18436 1.4857 0
M  V30 4796 H 433.303 -3.65898 1.30578 0
M  V30 4797 H 434.975 -2.70658 3.73553 0
M  V30 4798 H 433.218 -2.4887 3.55311 0
M  V30 4799 H 433.889 -4.11784 3.67611 0
M  V30 4800 H 436.365 -3.75973 1.7828 0
M  V30 4801 H 435.241 -5.13368 1.94279 0
M  V30 4802 H 435.502 -4.40586 0.365564 0
M  V30 4803 N 434.561 -1.01147 -1.20859 0
M  V30 4804 C 435.807 -0.698899 -1.90377 0
M  V30 4805 C 436.14 0.76904 -1.78324 0
M  V30 4806 O 435.415 1.55817 -1.16409 0
M  V30 4807 C 435.698 -1.12878 -3.41951 0
M  V30 4808 C 435.551 -2.65665 -3.62963 0
M  V30 4809 C 436.87 -0.696114 -4.3456 0
M  V30 4810 H 433.989 -0.255372 -0.691342 0
M  V30 4811 H 436.631 -1.25831 -1.42361 0
M  V30 4812 H 434.781 -0.652827 -3.82976 0
M  V30 4813 H 436.453 -3.21074 -3.31224 0
M  V30 4814 H 434.696 -3.06878 -3.06608 0
M  V30 4815 H 435.367 -2.90797 -4.69192 0
M  V30 4816 H 437.843 -1.10521 -4.01154 0
M  V30 4817 H 436.719 -1.025 -5.39245 0
M  V30 4818 H 436.98 0.402465 -4.40264 0
M  V30 4819 N 436.039 1.36541 -0.78704 0
M  V30 4820 C 437.267 2.03561 -0.370199 0
M  V30 4821 C 437.682 1.59347 1.01263 0
M  V30 4822 O 437.039 0.781781 1.64907 0
M  V30 4823 C 437.09 3.59033 -0.421614 0
M  V30 4824 O 436.811 4.01634 -1.7499 0
M  V30 4825 C 438.312 4.433 0.00489763 0
M  V30 4826 H 435.532 0.653346 -0.152904 0
M  V30 4827 H 438.076 1.74566 -1.06522 0
M  V30 4828 H 436.231 3.86746 0.224971 0
M  V30 4829 H 436.645 4.96217 -1.69909 0
M  V30 4830 H 438.119 5.51939 -0.0822184 0
M  V30 4831 H 438.596 4.26285 1.05723 0
M  V30 4832 H 439.202 4.20843 -0.614085 0
M  V30 4833 N 437.518 0.538854 1.48102 0
M  V30 4834 C 438.465 -0.219042 2.29758 0
M  V30 4835 C 439.435 -0.925562 1.37922 0
M  V30 4836 O 440.62 -0.924855 1.66886 0
M  V30 4837 C 437.76 -1.25452 3.2149 0
M  V30 4838 C 436.873 -0.555943 4.28408 0
M  V30 4839 C 436.008 -1.57512 5.0731 0
M  V30 4840 C 435.047 -0.860498 6.06021 0
M  V30 4841 N 434.184 -1.82564 6.77949 0
M  V30 4842 H 439.024 0.483449 2.94052 0
M  V30 4843 H 436.561 0.250247 1.44956 0
M  V30 4844 H 438.519 -1.86727 3.7308 0
M  V30 4845 H 437.149 -1.92528 2.591 0
M  V30 4846 H 436.201 0.170938 3.80016 0
M  V30 4847 H 437.513 0.00474616 4.988 0
M  V30 4848 H 436.667 -2.26191 5.62959 0
M  V30 4849 H 435.406 -2.16972 4.36778 0
M  V30 4850 H 434.411 -0.159686 5.49568 0
M  V30 4851 H 435.636 -0.271897 6.78555 0
M  V30 4852 H 433.582 -2.40915 6.10161 0
M  V30 4853 H 433.499 -1.31662 7.44447 0
M  V30 4854 H 434.767 -2.50414 7.38182 0
M  V30 4855 N 438.996 -1.55193 0.274407 0
M  V30 4856 C 439.906 -2.26164 -0.623473 0
M  V30 4857 C 440.922 -1.28729 -1.17068 0
M  V30 4858 O 442.098 -1.61663 -1.20112 0
M  V30 4859 C 439.163 -2.96833 -1.7914 0
M  V30 4860 C 438.224 -4.09745 -1.28093 0
M  V30 4861 C 437.457 -4.77034 -2.3932 0
M  V30 4862 O 437.68 -4.4353 -3.5866 0
M  V30 4863 O 436.614 -5.64996 -2.07516 0
M  V30 4864 H 440.44 -3.03661 -0.0485661 0
M  V30 4865 H 438.025 -1.49341 0.0418382 0
M  V30 4866 H 439.907 -3.41248 -2.4724 0
M  V30 4867 H 438.582 -2.22253 -2.35341 0
M  V30 4868 H 437.489 -3.69787 -0.566416 0
M  V30 4869 H 438.822 -4.86224 -0.764683 0
M  V30 4870 N 440.474 -0.00167713 -1.576 0
M  V30 4871 C 441.704 0.692754 -1.94639 0
M  V30 4872 C 442.112 1.67744 -0.87513 0
M  V30 4873 O 441.455 1.8305 0.154382 0
M  V30 4874 C 441.517 1.47881 -3.27676 0
M  V30 4875 C 441.181 0.655518 -4.52274 0
M  V30 4876 C 442.178 -0.0575214 -5.19868 0
M  V30 4877 C 439.863 0.600994 -4.98692 0
M  V30 4878 C 441.857 -0.814052 -6.3218 0
M  V30 4879 C 439.544 -0.15926 -6.10892 0
M  V30 4880 C 440.542 -0.865515 -6.77494 0
M  V30 4881 O 440.23 -1.61336 -7.87544 0
M  V30 4882 H 439.962 0.197792 -0.646417 0
M  V30 4883 H 442.516 -0.049423 -2.05341 0
M  V30 4884 H 440.746 2.2655 -3.13388 0
M  V30 4885 H 442.435 2.05874 -3.49816 0
M  V30 4886 H 443.201 -0.0245611 -4.84994 0
M  V30 4887 H 439.08 1.14025 -4.46676 0
M  V30 4888 H 442.624 -1.36584 -6.84098 0
M  V30 4889 H 438.521 -0.194035 -6.45208 0
M  V30 4890 H 439.289 -1.53025 -8.04068 0
M  V30 4891 N 441.952 1.55251 0.271103 0
M  V30 4892 C 443.363 1.66635 0.842007 0
M  V30 4893 C 443.714 0.594631 1.86972 0
M  V30 4894 O 442.839 -0.263532 2.14789 0
M  V30 4895 C 443.434 3.02082 1.53401 0
M  V30 4896 C 441.993 3.15487 2.05293 0
M  V30 4897 C 441.14 2.62438 0.895631 0
M  V30 4898 H 444.091 1.58629 0.0474117 0
M  V30 4899 H 444.112 2.95176 2.40107 0
M  V30 4900 H 443.624 3.80062 0.785786 0
M  V30 4901 H 441.725 2.42284 2.83071 0
M  V30 4902 H 441.838 4.22075 2.26693 0
M  V30 4903 H 440.202 2.19644 1.28953 0
M  V30 4904 H 440.985 3.42923 0.160878 0
M  V30 4905 N 443.43 -0.535701 1.48216 0
M  V30 4906 C 444.36 -1.65014 1.65204 0
M  V30 4907 C 445.341 -1.62554 0.501011 0
M  V30 4908 O 446.526 -1.7984 0.732886 0
M  V30 4909 C 443.656 -3.03616 1.68626 0
M  V30 4910 C 442.61 -3.20932 2.83172 0
M  V30 4911 C 441.936 -4.60537 2.71679 0
M  V30 4912 C 443.236 -3.04249 4.24535 0
M  V30 4913 H 444.93 -1.51053 2.58502 0
M  V30 4914 H 442.476 -0.725262 1.24402 0
M  V30 4915 H 444.429 -3.81446 1.79099 0
M  V30 4916 H 443.153 -3.18587 0.719026 0
M  V30 4917 H 441.812 -2.45517 2.72244 0
M  V30 4918 H 441.46 -4.72336 1.72937 0
M  V30 4919 H 441.16 -4.73069 3.48538 0
M  V30 4920 H 442.684 -5.40475 2.84112 0
M  V30 4921 H 444.098 -3.71877 4.36326 0
M  V30 4922 H 442.495 -3.28278 5.02348 0
M  V30 4923 H 443.565 -2.00739 4.41397 0
M  V30 4924 N 444.908 -1.36708 -0.784132 0
M  V30 4925 C 445.818 -1.3363 -1.92822 0
M  V30 4926 C 446.834 -0.237686 -1.72369 0
M  V30 4927 O 448.01 -0.470962 -1.95816 0
M  V30 4928 C 445.075 -1.13011 -3.27764 0
M  V30 4929 C 444.136 -2.32397 -3.60957 0
M  V30 4930 C 443.369 -2.12752 -4.89461 0
M  V30 4931 O 443.592 -1.10541 -5.59586 0
M  V30 4932 O 442.526 -3.00653 -5.21432 0
M  V30 4933 H 446.352 -2.29964 -1.98369 0
M  V30 4934 H 443.937 -1.1731 -0.925136 0
M  V30 4935 H 445.819 -1.03451 -4.08504 0
M  V30 4936 H 444.494 -0.19743 -3.23097 0
M  V30 4937 H 443.401 -2.47527 -2.80502 0
M  V30 4938 H 444.734 -3.2419 -3.70354 0
M  V30 4939 N 446.386 1.0089 -1.21074 0
M  V30 4940 C 447.632 1.7497 -1.03717 0
M  V30 4941 C 447.987 1.8764 0.425344 0
M  V30 4942 O 447.28 1.39679 1.3115 0
M  V30 4943 C 447.474 3.16335 -1.66334 0
M  V30 4944 C 447.303 3.17449 -3.18522 0
M  V30 4945 C 446.073 3.2425 -3.87543 0
M  V30 4946 C 448.271 3.02877 -4.15656 0
M  V30 4947 N 446.253 3.14949 -5.26954 0
M  V30 4948 C 447.624 3.0143 -5.41793 0
M  V30 4949 C 449.679 2.8715 -4.06755 0
M  V30 4950 C 448.382 2.85869 -6.60054 0
M  V30 4951 C 450.408 2.72944 -5.24648 0
M  V30 4952 C 449.77 2.72171 -6.49694 0
M  V30 4953 H 445.869 0.650627 -0.43383 0
M  V30 4954 H 448.453 1.19944 -1.53367 0
M  V30 4955 H 446.624 3.69638 -1.19256 0
M  V30 4956 H 448.356 3.78888 -1.42219 0
M  V30 4957 H 445.111 3.31288 -3.38446 0
M  V30 4958 H 445.535 3.13651 -5.9996 0
M  V30 4959 H 450.177 2.86557 -3.10878 0
M  V30 4960 H 447.895 2.8521 -7.56096 0
M  V30 4961 H 451.481 2.61782 -5.19578 0
M  V30 4962 H 450.361 2.61307 -7.39384 0
M  V30 4963 N 447.864 1.01787 1.20321 0
M  V30 4964 C 448.811 0.589197 2.23153 0
M  V30 4965 C 449.781 -0.391367 1.61423 0
M  V30 4966 O 450.966 -0.290518 1.88575 0
M  V30 4967 C 448.106 -0.0650747 3.45039 0
M  V30 4968 C 447.219 0.960207 4.21194 0
M  V30 4969 C 446.354 0.276854 5.30478 0
M  V30 4970 C 445.393 1.2888 5.98378 0
M  V30 4971 N 444.53 0.632031 6.99249 0
M  V30 4972 H 449.37 1.47071 2.59179 0
M  V30 4973 H 446.907 0.736192 1.27352 0
M  V30 4974 H 448.865 -0.461552 4.14639 0
M  V30 4975 H 447.495 -0.910233 3.09701 0
M  V30 4976 H 446.547 1.47484 3.50646 0
M  V30 4977 H 447.859 1.72977 4.67847 0
M  V30 4978 H 447.013 -0.175056 6.06447 0
M  V30 4979 H 445.752 -0.525004 4.84866 0
M  V30 4980 H 444.757 1.75109 5.21169 0
M  V30 4981 H 445.982 2.09196 6.46076 0
M  V30 4982 H 443.928 -0.149935 6.55829 0
M  V30 4983 H 443.845 1.33964 7.44036 0
M  V30 4984 H 445.113 0.203755 7.79234 0
M  V30 4985 N 449.342 -1.36122 0.79427 0
M  V30 4986 C 450.588 -1.99406 0.369452 0
M  V30 4987 C 450.921 -1.62886 -1.05743 0
M  V30 4988 O 450.196 -0.886053 -1.73145 0
M  V30 4989 C 450.479 -3.56046 0.538833 0
M  V30 4990 C 450.332 -4.02404 2.00976 0
M  V30 4991 C 451.651 -4.40079 -0.0431359 0
M  V30 4992 H 448.77 -0.724397 0.135712 0
M  V30 4993 H 451.412 -1.61461 1.00151 0
M  V30 4994 H 449.562 -3.885 0.000771004 0
M  V30 4995 H 451.234 -3.80415 2.60926 0
M  V30 4996 H 449.477 -3.53765 2.51063 0
M  V30 4997 H 450.148 -5.11344 2.07922 0
M  V30 4998 H 452.624 -4.14013 0.416228 0
M  V30 4999 H 451.5 -5.48799 0.105374 0
M  V30 5000 H 451.761 -4.27264 -1.13571 0
M  V30 5001 N 450.82 -0.546701 -1.47814 0
M  V30 5002 C 452.068 -0.0187037 -2.02091 0
M  V30 5003 C 452.389 1.33168 -1.42447 0
M  V30 5004 O 451.659 1.86619 -0.595839 0
M  V30 5005 H 450.239 -0.00392531 -0.74699 0
M  V30 5006 H 452.901 -0.714327 -1.81338 0
M  V30 5007 H 451.997 0.0772219 -3.12004 0
M  V30 5008 N 452.299 1.55045 -0.282633 0
M  V30 5009 C 453.576 1.9179 0.384166 0
M  V30 5010 C 453.956 1.20778 1.73136 0
M  V30 5011 O 453.304 0.33719 2.25998 0
M  V30 5012 C 453.514 3.45149 0.517014 0
M  V30 5013 C 454.862 4.17064 0.796427 0
M  V30 5014 O 455.886 3.51084 0.601535 0
M  V30 5015 O 454.745 5.33837 1.16962 0
M  V30 5016 H 451.839 0.799483 0.211558 0
M  V30 5017 H 454.385 1.66474 -0.32934 0
M  V30 5018 H 453.157 3.88922 -0.430772 0
M  V30 5019 H 452.78 3.76443 1.2797 0
M  V30 5020 N 453.777 0.010035 1.57597 0
M  V30 5021 C 454.687 -0.994226 2.12491 0
M  V30 5022 C 455.703 -1.37013 1.07254 0
M  V30 5023 O 456.879 -1.45542 1.3921 0
M  V30 5024 C 453.944 -2.2642 2.62555 0
M  V30 5025 C 453.005 -1.95049 3.82432 0
M  V30 5026 C 452.238 -3.15991 4.30099 0
M  V30 5027 O 452.461 -4.28015 3.7704 0
M  V30 5028 O 451.395 -2.99403 5.22151 0
M  V30 5029 H 455.221 -0.557549 2.98538 0
M  V30 5030 H 452.806 -0.209413 1.47925 0
M  V30 5031 H 454.688 -3.01009 2.9491 0
M  V30 5032 H 453.363 -2.69306 1.796 0
M  V30 5033 H 452.27 -1.17904 3.55034 0
M  V30 5034 H 453.603 -1.56992 4.66491 0
M  V30 5035 N 455.255 -1.55392 -0.262866 0
M  V30 5036 C 456.666 -1.67079 -0.833158 0
M  V30 5037 C 457.017 -0.604539 -1.86654 0
M  V30 5038 O 456.142 0.252138 -2.14926 0
M  V30 5039 C 456.737 -3.02891 -1.51797 0
M  V30 5040 C 455.296 -3.16571 -2.03617 0
M  V30 5041 C 454.443 -2.62909 -0.881701 0
M  V30 5042 H 457.394 -1.58652 -0.0389986 0
M  V30 5043 H 457.415 -2.96445 -2.38538 0
M  V30 5044 H 456.927 -3.80473 -0.765619 0
M  V30 5045 H 455.028 -2.43782 -2.81782 0
M  V30 5046 H 455.141 -4.23271 -2.24452 0
M  V30 5047 H 453.505 -2.20324 -1.27786 0
M  V30 5048 H 454.288 -3.43003 -0.14269 0
M  V30 5049 N 456.733 0.527833 -1.48498 0
M  V30 5050 C 457.963 1.30633 -1.60058 0
M  V30 5051 C 458.371 1.87394 -0.260786 0
M  V30 5052 O 457.714 1.67227 0.760317 0
M  V30 5053 C 457.776 2.49361 -2.58958 0
M  V30 5054 C 457.44 2.13671 -4.03972 0
M  V30 5055 C 458.437 1.69217 -4.91591 0
M  V30 5056 C 456.122 2.24129 -4.49524 0
M  V30 5057 C 458.116 1.35689 -6.2279 0
M  V30 5058 C 455.803 1.90212 -5.80743 0
M  V30 5059 C 456.801 1.46063 -6.67199 0
M  V30 5060 O 456.489 1.12593 -7.95976 0
M  V30 5061 H 456.221 0.403444 -0.54241 0
M  V30 5062 H 458.775 0.643233 -1.95068 0
M  V30 5063 H 457.005 3.18659 -2.19073 0
M  V30 5064 H 458.694 3.11421 -2.6033 0
M  V30 5065 H 459.46 1.60607 -4.57636 0
M  V30 5066 H 455.339 2.57447 -3.82416 0
M  V30 5067 H 458.883 1.01157 -6.90227 0
M  V30 5068 H 454.78 1.98464 -6.14233 0
M  V30 5069 H 455.548 1.25972 -8.08748 0
M  V30 5070 N 458.211 1.37122 0.776871 0
M  V30 5071 C 459.441 1.35034 1.56363 0
M  V30 5072 C 459.849 -0.0674681 1.8908 0
M  V30 5073 O 459.192 -1.03826 1.51545 0
M  V30 5074 C 459.254 2.11894 2.90415 0
M  V30 5075 C 458.918 3.60897 2.80362 0
M  V30 5076 C 459.915 4.54887 2.51742 0
M  V30 5077 C 457.6 4.03951 2.98545 0
M  V30 5078 C 459.594 5.89909 2.41426 0
M  V30 5079 C 457.281 5.3906 2.87849 0
M  V30 5080 C 458.279 6.31852 2.5933 0
M  V30 5081 O 457.967 7.64479 2.48651 0
M  V30 5082 H 457.699 0.464402 0.49123 0
M  V30 5083 H 460.253 1.80992 0.971127 0
M  V30 5084 H 458.483 1.60618 3.51765 0
M  V30 5085 H 460.172 2.02505 3.51776 0
M  V30 5086 H 460.938 4.22934 2.37385 0
M  V30 5087 H 456.817 3.3209 3.19746 0
M  V30 5088 H 460.361 6.62304 2.19086 0
M  V30 5089 H 456.258 5.70617 3.01773 0
M  V30 5090 H 457.026 7.74742 2.64039 0
M  V30 5091 N 459.689 -1.00246 1.21608 0
M  V30 5092 C 461.1 -1.55511 1.03312 0
M  V30 5093 C 461.451 -1.91946 -0.406332 0
M  V30 5094 O 460.576 -1.73753 -1.28992 0
M  V30 5095 C 461.171 -2.82576 1.86913 0
M  V30 5096 C 459.73 -3.34318 1.72941 0
M  V30 5097 C 458.877 -2.07487 1.83968 0
M  V30 5098 H 461.828 -0.824638 1.35593 0
M  V30 5099 H 461.849 -3.54559 1.38087 0
M  V30 5100 H 461.361 -2.56026 2.91672 0
M  V30 5101 H 459.462 -3.65797 0.70877 0
M  V30 5102 H 459.575 -4.05566 2.55055 0
M  V30 5103 H 457.939 -2.20603 1.27304 0
M  V30 5104 H 458.722 -1.83346 2.9024 0
M  V30 5105 N 461.167 -1.02423 -1.1978 0
M  V30 5106 C 462.413 -0.719051 -1.89625 0
M  V30 5107 C 462.746 0.750083 -1.7913 0
M  V30 5108 O 462.021 1.54574 -1.18056 0
M  V30 5109 C 462.304 -1.16499 -3.40735 0
M  V30 5110 C 462.157 -2.695 -3.60125 0
M  V30 5111 C 463.476 -0.742166 -4.33797 0
M  V30 5112 H 460.595 -0.26269 -0.688595 0
M  V30 5113 H 463.237 -1.27333 -1.41018 0
M  V30 5114 H 461.387 -0.69341 -3.82262 0
M  V30 5115 H 463.059 -3.24569 -3.278 0
M  V30 5116 H 461.302 -3.10113 -3.03336 0
M  V30 5117 H 461.973 -2.95757 -4.66081 0
M  V30 5118 H 464.449 -1.1477 -3.99959 0
M  V30 5119 H 463.325 -1.08213 -5.38127 0
M  V30 5120 H 463.586 0.355747 -4.40666 0
M  V30 5121 N 462.645 1.35699 -0.801477 0
M  V30 5122 C 463.593 2.3177 -0.196317 0
M  V30 5123 C 464.587 1.56388 0.651081 0
M  V30 5124 O 465.793 1.71557 0.544815 0
M  V30 5125 H 462.168 0.750669 -0.0447189 0
M  V30 5126 H 464.139 2.8036 -1.02181 0
M  V30 5127 C 462.888 3.41671 0.644702 0
M  V30 5128 H 462.211 3.998 0.0019921 0
M  V30 5129 H 463.651 4.11184 1.0346 0
M  V30 5130 C 462.11 2.84271 1.80808 0
M  V30 5131 O 462.64 2.77408 2.9053 0
M  V30 5132 N 460.846 2.41391 1.61799 0
M  V30 5133 H 460.393 2.47173 0.725493 0
M  V30 5134 H 460.351 2.03334 2.39797 0
M  V30 5135 N 464.123 0.554532 1.47522 0
M  V30 5136 C 465.4 -0.0360704 1.95567 0
M  V30 5137 C 465.78 -1.48828 1.49711 0
M  V30 5138 O 465.128 -2.16366 0.734717 0
M  V30 5139 C 465.338 0.106631 3.48837 0
M  V30 5140 C 466.686 -0.0400899 4.24581 0
M  V30 5141 O 467.71 0.0340453 3.56184 0
M  V30 5142 O 466.569 -0.199111 5.46137 0
M  V30 5143 H 463.663 -0.0656294 0.824392 0
M  V30 5144 H 466.209 0.620867 1.57935 0
M  V30 5145 H 464.981 1.11727 3.7501 0
M  V30 5146 H 464.604 -0.58804 3.93227 0
M  V30 5147 N 465.601 -1.54893 0.290851 0
M  V30 5148 C 466.549 -2.24579 -0.605576 0
M  V30 5149 C 467.543 -1.24824 -1.14522 0
M  V30 5150 O 468.749 -1.42706 -1.09704 0
M  V30 5151 H 465.124 -0.720946 -0.213872 0
M  V30 5152 H 467.095 -2.984 0.0048173 0
M  V30 5153 C 465.844 -2.99224 -1.77088 0
M  V30 5154 H 465.167 -3.75782 -1.36484 0
M  V30 5155 H 466.607 -3.51281 -2.3744 0
M  V30 5156 C 465.066 -2.05602 -2.66888 0
M  V30 5157 O 465.596 -1.61745 -3.67698 0
M  V30 5158 N 463.802 -1.71771 -2.34399 0
M  V30 5159 H 463.349 -2.07633 -1.52468 0
M  V30 5160 H 463.307 -1.09403 -2.94751 0
M  V30 5161 N 467.08 -0.0183926 -1.57589 0
M  V30 5162 C 468.027 0.967022 -2.09565 0
M  V30 5163 C 468.997 1.32983 -0.995225 0
M  V30 5164 O 470.182 1.42501 -1.26878 0
M  V30 5165 C 467.322 2.24772 -2.61861 0
M  V30 5166 C 466.435 1.94232 -3.85873 0
M  V30 5167 C 465.57 3.16518 -4.26603 0
M  V30 5168 C 464.609 2.81748 -5.43401 0
M  V30 5169 N 463.746 3.96626 -5.79338 0
M  V30 5170 H 468.586 0.516874 -2.93483 0
M  V30 5171 H 466.123 0.243544 -1.4507 0
M  V30 5172 H 468.081 2.99667 -2.90268 0
M  V30 5173 H 466.711 2.67423 -1.8079 0
M  V30 5174 H 465.763 1.09625 -3.64262 0
M  V30 5175 H 467.075 1.64616 -4.70853 0
M  V30 5176 H 466.229 3.99743 -4.56389 0
M  V30 5177 H 464.968 3.49286 -3.40368 0
M  V30 5178 H 463.973 1.96933 -5.1332 0
M  V30 5179 H 465.198 2.50207 -6.31327 0
M  V30 5180 H 463.144 4.29257 -4.96059 0
M  V30 5181 H 463.061 3.70598 -6.58933 0
M  V30 5182 H 464.329 4.80586 -6.13724 0
M  V30 5183 N 468.558 1.5553 0.254621 0
M  V30 5184 C 469.506 1.9048 1.33492 0
M  V30 5185 C 470.5 0.78304 1.50216 0
M  V30 5186 O 471.706 0.967582 1.51782 0
M  V30 5187 H 468.081 0.604846 0.44684 0
M  V30 5188 H 470.052 2.80688 1.01275 0
M  V30 5189 C 468.801 2.20928 2.68489 0
M  V30 5190 H 468.124 3.06742 2.56417 0
M  V30 5191 H 469.564 2.49291 3.42972 0
M  V30 5192 C 468.023 1.023 3.20993 0
M  V30 5193 O 468.553 0.267027 4.00811 0
M  V30 5194 N 466.759 0.815714 2.78917 0
M  V30 5195 H 466.306 1.43217 2.14119 0
M  V30 5196 H 466.264 0.0236532 3.14391 0
M  V30 5197 N 470.036 -0.519951 1.48776 0
M  V30 5198 C 470.969 -1.64053 1.58625 0
M  V30 5199 C 471.947 -1.5664 0.43618 0
M  V30 5200 O 473.131 -1.76969 0.649159 0
M  V30 5201 C 470.258 -3.02497 1.52359 0
M  V30 5202 C 469.304 -3.28235 2.72331 0
M  V30 5203 S 470.137 -3.13414 4.34203 0
M  V30 5204 C 471.293 -4.54287 4.30551 0
M  V30 5205 H 471.526 -1.5545 2.53422 0
M  V30 5206 H 469.059 -0.703681 1.37433 0
M  V30 5207 H 471.017 -3.82336 1.4943 0
M  V30 5208 H 469.678 -3.08531 0.588824 0
M  V30 5209 H 468.871 -4.29256 2.64113 0
M  V30 5210 H 468.473 -2.56085 2.72574 0
M  V30 5211 H 470.765 -5.46006 4.01103 0
M  V30 5212 H 471.708 -4.67558 5.31785 0
M  V30 5213 H 472.116 -4.34079 3.60881 0
M  V30 5214 N 471.514 -1.37532 -0.769588 0
M  V30 5215 C 472.424 -1.35668 -1.91393 0
M  V30 5216 C 473.44 -0.255954 -1.72107 0
M  V30 5217 O 474.616 -0.491704 -1.95305 0
M  V30 5218 C 471.681 -1.16481 -3.26547 0
M  V30 5219 C 470.742 -2.36212 -3.58472 0
M  V30 5220 C 469.975 -2.17932 -4.87177 0
M  V30 5221 O 470.198 -1.1647 -5.58382 0
M  V30 5222 O 469.132 -3.06167 -5.18214 0
M  V30 5223 H 472.958 -2.32055 -1.95918 0
M  V30 5224 H 470.543 -1.18284 -0.912641 0
M  V30 5225 H 472.425 -1.07778 -4.07384 0
M  V30 5226 H 471.1 -0.231687 -3.2287 0
M  V30 5227 H 470.007 -2.50488 -2.77861 0
M  V30 5228 H 471.34 -3.281 -3.66894 0
M  V30 5229 N 472.992 0.995999 -1.22138 0
M  V30 5230 C 473.922 2.10387 -1.01289 0
M  V30 5231 C 474.903 1.69975 0.0651454 0
M  V30 5232 O 476.088 1.9396 -0.0964628 0
M  V30 5233 C 473.218 3.42312 -0.586517 0
M  V30 5234 C 472.172 3.96558 -1.61014 0
M  V30 5235 C 471.498 5.24494 -1.0397 0
M  V30 5236 C 472.798 4.27595 -2.99933 0
M  V30 5237 H 474.492 2.28086 -1.93951 0
M  V30 5238 H 472.038 1.09607 -0.933928 0
M  V30 5239 H 473.991 4.19223 -0.427793 0
M  V30 5240 H 472.715 3.24431 0.375761 0
M  V30 5241 H 471.374 3.21776 -1.75658 0
M  V30 5242 H 471.022 5.02953 -0.0688703 0
M  V30 5243 H 470.722 5.61755 -1.72352 0
M  V30 5244 H 472.246 6.04042 -0.892494 0
M  V30 5245 H 473.66 4.95315 -2.8868 0
M  V30 5246 H 472.057 4.76021 -3.6541 0
M  V30 5247 H 473.127 3.35498 -3.50099 0
M  V30 5248 N 474.47 1.03057 1.19235 0
M  V30 5249 C 475.717 0.728019 1.88961 0
M  V30 5250 C 476.045 -0.743515 1.79728 0
M  V30 5251 O 475.3 -1.55729 1.1852 0
M  V30 5252 C 475.599 1.1268 3.39172 0
M  V30 5253 C 475.265 2.5969 3.68608 0
M  V30 5254 C 473.927 2.99854 3.76352 0
M  V30 5255 C 476.279 3.54793 3.81801 0
M  V30 5256 C 473.607 4.34031 3.94758 0
M  V30 5257 C 475.959 4.88675 4.0172 0
M  V30 5258 C 474.623 5.28526 4.07697 0
M  V30 5259 H 473.893 0.266401 0.691456 0
M  V30 5260 H 476.54 1.29373 1.41191 0
M  V30 5261 H 474.845 0.479722 3.88852 0
M  V30 5262 H 476.542 0.870203 3.91444 0
M  V30 5263 H 473.132 2.27575 3.63191 0
M  V30 5264 H 477.316 3.24914 3.7516 0
M  V30 5265 H 472.572 4.6444 3.97625 0
M  V30 5266 H 476.746 5.6228 4.1087 0
M  V30 5267 H 474.373 6.32506 4.21712 0
M  V30 5268 N 475.948 -1.35272 0.808662 0
M  V30 5269 C 476.895 -2.29764 0.218482 0
M  V30 5270 C 477.865 -1.52911 -0.648652 0
M  V30 5271 O 479.05 -1.81341 -0.593297 0
M  V30 5272 C 476.19 -3.39388 -0.625282 0
M  V30 5273 C 475.303 -4.31202 0.262516 0
M  V30 5274 C 474.438 -5.27919 -0.589451 0
M  V30 5275 C 473.477 -6.11371 0.298617 0
M  V30 5276 N 472.614 -7.0022 -0.513443 0
M  V30 5277 H 477.454 -2.79645 1.02968 0
M  V30 5278 H 474.991 -1.37629 0.519303 0
M  V30 5279 H 476.949 -4.01615 -1.12966 0
M  V30 5280 H 475.579 -2.90777 -1.40173 0
M  V30 5281 H 474.631 -3.69962 0.885013 0
M  V30 5282 H 475.943 -4.89748 0.945971 0
M  V30 5283 H 475.097 -5.95529 -1.15888 0
M  V30 5284 H 473.836 -4.69875 -1.30647 0
M  V30 5285 H 472.841 -5.42707 0.880301 0
M  V30 5286 H 474.066 -6.71494 1.01352 0
M  V30 5287 H 472.012 -6.44662 -1.21439 0
M  V30 5288 H 471.929 -7.55917 0.111922 0
M  V30 5289 H 473.197 -7.72175 -1.06608 0
M  V30 5290 N 477.426 -0.562348 -1.47226 0
M  V30 5291 C 478.373 0.182461 -2.30078 0
M  V30 5292 C 479.343 0.903503 -1.39377 0
M  V30 5293 O 480.528 0.898188 -1.68337 0
M  V30 5294 C 477.668 1.20322 -3.23445 0
M  V30 5295 C 476.781 0.487717 -4.29238 0
M  V30 5296 C 475.916 1.49422 -5.09752 0
M  V30 5297 C 474.955 0.763976 -6.07314 0
M  V30 5298 N 474.092 1.71755 -6.80768 0
M  V30 5299 H 478.932 -0.530169 -2.93246 0
M  V30 5300 H 476.469 -0.273276 -1.44539 0
M  V30 5301 H 478.427 1.80768 -3.76004 0
M  V30 5302 H 477.057 1.88382 -2.6213 0
M  V30 5303 H 476.109 -0.231374 -3.79696 0
M  V30 5304 H 477.421 -0.0841003 -4.98729 0
M  V30 5305 H 476.575 2.17206 -5.66486 0
M  V30 5306 H 475.314 2.09995 -4.40174 0
M  V30 5307 H 474.319 0.0722344 -5.49753 0
M  V30 5308 H 475.544 0.16391 -6.78902 0
M  V30 5309 H 473.49 2.31177 -6.13916 0
M  V30 5310 H 473.407 1.19802 -7.46447 0
M  V30 5311 H 474.675 2.38638 -7.42073 0
M  V30 5312 N 478.904 1.54736 -0.299062 0
M  V30 5313 C 480.134 2.04215 0.312992 0
M  V30 5314 C 480.542 1.17596 1.48215 0
M  V30 5315 O 479.885 0.193835 1.82674 0
M  V30 5316 C 479.947 3.49696 0.833862 0
M  V30 5317 C 479.611 4.56518 -0.20977 0
M  V30 5318 C 480.608 5.09442 -1.03756 0
M  V30 5319 C 478.293 5.01073 -0.35091 0
M  V30 5320 C 480.287 6.05459 -1.99244 0
M  V30 5321 C 477.974 5.9691 -1.30924 0
M  V30 5322 C 478.972 6.48987 -2.1285 0
M  V30 5323 O 478.66 7.42947 -3.07059 0
M  V30 5324 H 478.392 0.672128 0.0722494 0
M  V30 5325 H 480.946 2.00718 -0.436043 0
M  V30 5326 H 479.176 3.5051 1.63339 0
M  V30 5327 H 480.865 3.82381 1.36159 0
M  V30 5328 H 481.631 4.75816 -0.939376 0
M  V30 5329 H 477.51 4.60168 0.276813 0
M  V30 5330 H 481.054 6.46031 -2.63229 0
M  V30 5331 H 476.951 6.29953 -1.40815 0
M  V30 5332 H 477.719 7.60743 -3.02015 0
M  V30 5333 N 480.382 0.0267497 1.57577 0
M  V30 5334 C 481.798 -0.32962 1.56159 0
M  V30 5335 C 481.998 -1.73059 1.03213 0
M  V30 5336 O 481.054 -2.43233 0.677804 0
M  V30 5337 C 482.367 -0.18039 3.00158 0
M  V30 5338 C 483.915 -0.253334 3.11973 0
M  V30 5339 C 484.39 -0.132921 4.57807 0
M  V30 5340 N 485.881 -0.189979 4.6281 0
M  V30 5341 C 486.616 -0.120554 5.73273 0
M  V30 5342 N 486.112 -0.000180315 6.928 0
M  V30 5343 N 487.905 -0.174369 5.61829 0
M  V30 5344 H 480.056 0.942896 1.90324 0
M  V30 5345 H 482.319 0.3639 0.875375 0
M  V30 5346 H 482.025 0.784576 3.42837 0
M  V30 5347 H 481.899 -0.951565 3.65 0
M  V30 5348 H 484.286 -1.20876 2.69208 0
M  V30 5349 H 484.367 0.548177 2.49857 0
M  V30 5350 H 484.011 0.819073 5.01252 0
M  V30 5351 H 483.941 -0.953264 5.179 0
M  V30 5352 H 486.432 -0.283257 3.76837 0
M  V30 5353 H 486.745 0.0461666 7.72786 0
M  V30 5354 H 485.09 0.034569 6.94991 0
M  V30 5355 H 488.281 -0.266794 4.67339 0
M  V30 5356 H 488.454 -0.116802 6.47895 0
M  V30 5357 N 481.861 -1.55662 -0.24637 0
M  V30 5358 C 482.771 -1.93495 -1.32653 0
M  V30 5359 C 483.787 -0.835462 -1.5263 0
M  V30 5360 O 484.963 -1.1369 -1.66242 0
M  V30 5361 C 482.028 -2.22242 -2.66101 0
M  V30 5362 C 481.089 -3.45625 -2.54641 0
M  V30 5363 C 480.322 -3.72991 -3.81724 0
M  V30 5364 O 480.545 -3.02421 -4.8363 0
M  V30 5365 O 479.479 -4.66515 -3.80325 0
M  V30 5366 H 483.305 -2.85498 -1.03559 0
M  V30 5367 H 480.89 -1.42551 -0.44717 0
M  V30 5368 H 482.772 -2.42037 -3.44958 0
M  V30 5369 H 481.447 -1.33417 -2.94926 0
M  V30 5370 H 480.354 -3.31136 -1.74067 0
M  V30 5371 H 481.687 -4.34754 -2.3076 0
M  V30 5372 N 483.339 0.512053 -1.4905 0
M  V30 5373 C 484.269 1.62365 -1.67809 0
M  V30 5374 C 485.25 1.61737 -0.526809 0
M  V30 5375 O 486.435 1.78651 -0.761404 0
M  V30 5376 C 483.565 3.00895 -1.73435 0
M  V30 5377 C 482.519 3.16387 -2.88242 0
M  V30 5378 C 481.845 4.56157 -2.78971 0
M  V30 5379 C 483.145 2.97457 -4.29321 0
M  V30 5380 H 484.839 1.46921 -2.60873 0
M  V30 5381 H 482.385 0.705379 -1.2554 0
M  V30 5382 H 484.338 3.78549 -1.85145 0
M  V30 5383 H 483.062 3.17403 -0.769619 0
M  V30 5384 H 481.721 2.41155 -2.76116 0
M  V30 5385 H 481.369 4.69525 -1.8043 0
M  V30 5386 H 481.069 4.67465 -3.5602 0
M  V30 5387 H 482.593 5.35886 -2.92675 0
M  V30 5388 H 484.007 3.64888 -4.42187 0
M  V30 5389 H 482.404 3.20245 -5.07507 0
M  V30 5390 H 483.474 1.93692 -4.44535 0
M  V30 5391 N 484.817 1.37938 0.762283 0
M  V30 5392 C 485.78 1.34279 1.85747 0
M  V30 5393 C 486.78 0.244969 1.58923 0
M  V30 5394 O 487.97 0.501365 1.66829 0
M  V30 5395 C 485.102 1.08833 3.23061 0
M  V30 5396 H 486.295 2.31705 1.90401 0
M  V30 5397 H 483.848 1.23105 0.963057 0
M  V30 5398 H 484.583 0.119767 3.24079 0
M  V30 5399 H 484.368 1.88306 3.43923 0
M  V30 5400 H 485.858 1.08946 4.03138 0
M  V30 5401 N 486.295 -0.989507 1.22664 0
M  V30 5402 C 487.52 -1.77031 1.08051 0
M  V30 5403 C 487.945 -1.84535 -0.364483 0
M  V30 5404 O 487.303 -1.3003 -1.2634 0
M  V30 5405 C 487.351 -3.18 1.70024 0
M  V30 5406 O 486.455 -4.01161 0.956216 0
M  V30 5407 H 485.796 -0.545008 0.379292 0
M  V30 5408 H 488.326 -1.24277 1.62531 0
M  V30 5409 H 488.336 -3.68616 1.74888 0
M  V30 5410 H 487.011 -3.11853 2.75174 0
M  V30 5411 H 485.588 -3.59687 0.98384 0
M  V30 5412 N 487.773 -1.03688 -1.18687 0
M  V30 5413 C 489.189 -0.755413 -1.4059 0
M  V30 5414 C 489.389 0.656659 -1.905 0
M  V30 5415 O 488.445 1.42144 -2.08689 0
M  V30 5416 C 489.758 -1.7983 -2.41001 0
M  V30 5417 C 491.306 -1.81877 -2.54735 0
M  V30 5418 C 491.781 -2.85148 -3.58406 0
M  V30 5419 N 493.272 -2.84015 -3.6591 0
M  V30 5420 C 494.007 -3.60573 -4.45841 0
M  V30 5421 N 493.503 -4.46871 -5.29413 0
M  V30 5422 N 495.296 -3.49079 -4.40568 0
M  V30 5423 H 487.447 -1.94818 -0.846148 0
M  V30 5424 H 489.71 -0.842727 -0.434184 0
M  V30 5425 H 489.416 -2.81097 -2.1137 0
M  V30 5426 H 489.29 -1.62727 -3.40294 0
M  V30 5427 H 491.677 -0.812836 -2.83685 0
M  V30 5428 H 491.758 -2.03057 -1.55568 0
M  V30 5429 H 491.402 -3.85918 -3.30197 0
M  V30 5430 H 491.332 -2.61224 -4.57241 0
M  V30 5431 H 493.823 -2.21431 -3.0623 0
M  V30 5432 H 494.136 -5.02007 -5.87545 0
M  V30 5433 H 492.481 -4.5094 -5.28846 0
M  V30 5434 H 495.672 -2.81066 -3.74325 0
M  V30 5435 H 495.845 -4.08994 -5.02621 0
M  V30 5436 N 489.251 1.34841 -0.815825 0
M  V30 5437 C 490.161 2.33425 -0.234462 0
M  V30 5438 C 491.177 1.62295 0.627413 0
M  V30 5439 O 492.353 1.94109 0.536987 0
M  V30 5440 C 489.418 3.41471 0.599849 0
M  V30 5441 C 488.479 4.28362 -0.283596 0
M  V30 5442 C 487.712 5.31248 0.51099 0
M  V30 5443 O 487.935 5.43056 1.7449 0
M  V30 5444 O 486.869 6.01812 -0.10297 0
M  V30 5445 H 490.695 2.84962 -1.05024 0
M  V30 5446 H 488.28 1.37774 -0.577809 0
M  V30 5447 H 490.162 4.07464 1.07475 0
M  V30 5448 H 488.837 2.9219 1.39308 0
M  V30 5449 H 487.744 3.65318 -0.805836 0
M  V30 5450 H 489.077 4.81066 -1.041 0
M  V30 5451 N 490.729 0.570148 1.46925 0
M  V30 5452 C 492.006 -0.0153259 1.95594 0
M  V30 5453 C 492.386 -1.47232 1.51281 0
M  V30 5454 O 491.734 -2.15574 0.757624 0
M  V30 5455 C 491.944 0.143624 3.48704 0
M  V30 5456 C 493.292 0.00494484 4.246 0
M  V30 5457 O 494.316 0.0718214 3.56128 0
M  V30 5458 O 493.175 -0.141175 5.46318 0
M  V30 5459 H 490.269 -0.0568819 0.825041 0
M  V30 5460 H 492.815 0.637583 1.57267 0
M  V30 5461 H 491.587 1.15699 3.73804 0
M  V30 5462 H 491.21 -0.5463 3.93829 0
M  V30 5463 N 492.207 -1.54576 0.307264 0
M  V30 5464 C 493.154 -2.23751 -0.56604 0
M  V30 5465 C 494.124 -1.22235 -1.12462 0
M  V30 5466 O 495.309 -1.50873 -1.16799 0
M  V30 5467 C 492.449 -2.98661 -1.72903 0
M  V30 5468 C 491.562 -4.14963 -1.20124 0
M  V30 5469 C 490.697 -4.77441 -2.3286 0
M  V30 5470 C 489.736 -5.85875 -1.77247 0
M  V30 5471 N 488.873 -6.42282 -2.8358 0
M  V30 5472 H 493.713 -2.97984 0.0304578 0
M  V30 5473 H 491.25 -1.47076 0.0268015 0
M  V30 5474 H 493.208 -3.40329 -2.41313 0
M  V30 5475 H 491.838 -2.26793 -2.29706 0
M  V30 5476 H 490.89 -3.78193 -0.409198 0
M  V30 5477 H 492.202 -4.93066 -0.754171 0
M  V30 5478 H 491.356 -5.21993 -3.09205 0
M  V30 5479 H 490.095 -3.98684 -2.80896 0
M  V30 5480 H 489.1 -5.40741 -0.993926 0
M  V30 5481 H 490.325 -6.6652 -1.30107 0
M  V30 5482 H 488.271 -5.66406 -3.30939 0
M  V30 5483 H 488.188 -7.1575 -2.43388 0
M  V30 5484 H 489.456 -6.91492 -3.59804 0
M  V30 5485 N 493.685 -0.035106 -1.57561 0
M  V30 5486 C 494.931 0.64318 -1.92331 0
M  V30 5487 C 495.264 1.71434 -0.912368 0
M  V30 5488 O 494.539 1.94395 0.0640303 0
M  V30 5489 C 494.822 1.25411 -3.37556 0
M  V30 5490 C 494.675 0.192109 -4.4939 0
M  V30 5491 C 495.994 2.17041 -3.82859 0
M  V30 5492 H 493.113 0.232341 -0.699419 0
M  V30 5493 H 495.755 -0.0935889 -1.89769 0
M  V30 5494 H 493.905 1.88205 -3.39869 0
M  V30 5495 H 495.577 -0.438849 -4.59208 0
M  V30 5496 H 493.82 -0.481725 -4.31117 0
M  V30 5497 H 494.491 0.659292 -5.48049 0
M  V30 5498 H 496.967 1.64228 -3.8232 0
M  V30 5499 H 495.843 2.56738 -4.85157 0
M  V30 5500 H 496.104 3.06401 -3.18702 0
M  V30 5501 N 495.163 1.55791 0.238111 0
M  V30 5502 C 496.412 1.77234 0.962868 0
M  V30 5503 C 496.725 0.600661 1.86149 0
M  V30 5504 O 497.931 0.698315 2.62366 0
M  V30 5505 C 496.387 3.13808 1.76218 0
M  V30 5506 C 495.995 4.3865 0.910518 0
M  V30 5507 C 497.739 3.44585 2.47914 0
M  V30 5508 C 495.646 5.66252 1.70623 0
M  V30 5509 H 494.576 0.660731 0.36325 0
M  V30 5510 H 497.227 1.8221 0.217242 0
M  V30 5511 H 495.609 3.02963 2.55009 0
M  V30 5512 H 496.783 4.60507 0.164316 0
M  V30 5513 H 495.098 4.15271 0.30647 0
M  V30 5514 H 497.695 4.3714 3.07917 0
M  V30 5515 H 498.038 2.66314 3.19973 0
M  V30 5516 H 498.571 3.56685 1.76127 0
M  V30 5517 H 495.31 6.47369 1.02923 0
M  V30 5518 H 494.83 5.48483 2.42748 0
M  V30 5519 H 496.509 6.05829 2.27114 0
M  V30 5520 N 496.642 -0.504142 1.49319 0
M  V30 5521 C 497.889 -1.25846 1.58647 0
M  V30 5522 C 498.217 -1.92592 0.27177 0
M  V30 5523 O 497.472 -1.81167 -0.74007 0
M  V30 5524 C 497.771 -2.35021 2.69258 0
M  V30 5525 C 497.437 -1.85755 4.1086 0
M  V30 5526 C 496.099 -1.72038 4.49395 0
M  V30 5527 C 498.451 -1.48844 4.99495 0
M  V30 5528 C 495.779 -1.19783 5.74342 0
M  V30 5529 C 498.131 -0.980422 6.24956 0
M  V30 5530 C 496.795 -0.829622 6.62324 0
M  V30 5531 H 496.065 -0.460505 0.580531 0
M  V30 5532 H 498.712 -0.559716 1.83138 0
M  V30 5533 H 497.017 -3.10672 2.38726 0
M  V30 5534 H 498.714 -2.93083 2.73685 0
M  V30 5535 H 495.304 -1.9739 3.80441 0
M  V30 5536 H 499.488 -1.5829 4.70381 0
M  V30 5537 H 494.744 -1.06817 6.01997 0
M  V30 5538 H 498.918 -0.685608 6.93017 0
M  V30 5539 H 496.545 -0.42253 7.59025 0
M  V30 5540 N 498.12 -1.38341 -0.754957 0
M  V30 5541 C 499.368 -1.34208 -1.51105 0
M  V30 5542 C 499.689 0.0677634 -1.94882 0
M  V30 5543 O 498.959 1.01517 -1.67544 0
M  V30 5544 H 497.539 -0.493819 -0.560493 0
M  V30 5545 H 500.201 -1.73005 -0.897507 0
M  V30 5546 H 499.297 -1.99203 -2.4026 0
M  V30 5547 N 499.598 0.982988 -1.23187 0
M  V30 5548 C 500.846 1.72052 -1.06031 0
M  V30 5549 C 501.167 1.90769 0.404019 0
M  V30 5550 O 500.437 1.47446 1.28982 0
M  V30 5551 H 499.017 0.637499 -0.389363 0
M  V30 5552 H 501.679 1.18338 -1.54862 0
M  V30 5553 H 500.775 2.7111 -1.54615 0
M  V30 5554 N 501.076 1.04316 1.18135 0
M  V30 5555 C 502.492 0.762858 1.40188 0
M  V30 5556 C 502.692 -0.646547 1.90846 0
M  V30 5557 O 501.748 -1.41036 2.0944 0
M  V30 5558 C 503.061 1.81106 2.40044 0
M  V30 5559 C 504.609 1.83226 2.53766 0
M  V30 5560 C 505.084 2.87044 3.56889 0
M  V30 5561 N 506.575 2.85951 3.64398 0
M  V30 5562 C 507.31 3.62932 4.43923 0
M  V30 5563 N 506.806 4.49672 5.27036 0
M  V30 5564 N 508.599 3.51411 4.38711 0
M  V30 5565 H 500.75 1.95264 0.835805 0
M  V30 5566 H 503.013 0.845017 0.429709 0
M  V30 5567 H 502.719 2.82214 2.09876 0
M  V30 5568 H 502.593 1.64529 3.39426 0
M  V30 5569 H 504.98 0.827869 2.8325 0
M  V30 5570 H 505.061 2.03879 1.54489 0
M  V30 5571 H 504.705 3.87663 3.28145 0
M  V30 5572 H 504.635 2.63645 4.5585 0
M  V30 5573 H 507.126 2.23051 3.05052 0
M  V30 5574 H 507.439 5.05116 5.84874 0
M  V30 5575 H 505.784 4.53738 5.26447 0
M  V30 5576 H 508.975 2.83047 3.72829 0
M  V30 5577 H 509.148 4.11654 5.00445 0
M  V30 5578 N 502.554 -1.34406 0.822964 0
M  V30 5579 C 503.484 -2.32052 0.259608 0
M  V30 5580 C 504.465 -1.58243 -0.623961 0
M  V30 5581 O 505.65 -1.86224 -0.55083 0
M  V30 5582 C 502.78 -3.42434 -0.579314 0
M  V30 5583 C 501.734 -4.27499 0.20712 0
M  V30 5584 C 501.06 -5.29349 -0.754547 0
M  V30 5585 C 502.36 -5.02758 1.41533 0
M  V30 5586 H 504.054 -2.79418 1.07545 0
M  V30 5587 H 501.6 -1.34338 0.518593 0
M  V30 5588 H 503.553 -4.0976 -0.983612 0
M  V30 5589 H 502.277 -2.93717 -1.4282 0
M  V30 5590 H 500.936 -3.61776 0.592787 0
M  V30 5591 H 500.584 -4.76895 -1.59939 0
M  V30 5592 H 500.284 -5.8714 -0.232561 0
M  V30 5593 H 501.808 -5.99544 -1.1567 0
M  V30 5594 H 503.222 -5.62938 1.08504 0
M  V30 5595 H 501.619 -5.70123 1.87296 0
M  V30 5596 H 502.689 -4.32451 2.1935 0
M  V30 5597 N 504.032 -0.577932 -1.46621 0
M  V30 5598 C 504.995 0.147805 -2.28723 0
M  V30 5599 C 505.995 0.823325 -1.38123 0
M  V30 5600 O 507.185 0.676011 -1.60548 0
M  V30 5601 C 504.317 1.21853 -3.18378 0
M  V30 5602 H 505.51 -0.573654 -2.94362 0
M  V30 5603 H 503.063 -0.335703 -1.52652 0
M  V30 5604 H 503.798 1.97173 -2.57475 0
M  V30 5605 H 503.583 0.738714 -3.85078 0
M  V30 5606 H 505.073 1.72768 -3.80186 0
M  V30 5607 N 505.51 1.54411 -0.315457 0
M  V30 5608 C 506.42 2.27737 0.56329 0
M  V30 5609 C 507.436 1.31787 1.13614 0
M  V30 5610 O 508.612 1.64791 1.15784 0
M  V30 5611 C 505.677 3.01478 1.71207 0
M  V30 5612 C 504.738 4.12997 1.17185 0
M  V30 5613 C 503.971 4.83212 2.26588 0
M  V30 5614 O 504.194 4.52884 3.46775 0
M  V30 5615 O 503.128 5.70299 1.92463 0
M  V30 5616 H 506.954 3.03683 -0.0319614 0
M  V30 5617 H 504.539 1.49178 -0.0814188 0
M  V30 5618 H 506.421 3.47683 2.38106 0
M  V30 5619 H 505.096 2.28414 2.29366 0
M  V30 5620 H 504.003 3.71159 0.468174 0
M  V30 5621 H 505.336 4.8808 0.635501 0
M  V30 5622 N 506.988 0.0434614 1.5754 0
M  V30 5623 C 508.218 -0.640905 1.96408 0
M  V30 5624 C 508.626 -1.65365 0.919297 0
M  V30 5625 O 507.969 -1.83395 -0.105795 0
M  V30 5626 C 508.031 -1.39141 3.31482 0
M  V30 5627 C 507.695 -0.535375 4.53853 0
M  V30 5628 C 508.692 0.195335 5.19533 0
M  V30 5629 C 506.377 -0.468564 5.0011 0
M  V30 5630 C 508.371 0.981377 6.298 0
M  V30 5631 C 506.058 0.321171 6.10255 0
M  V30 5632 C 507.056 1.04484 6.74961 0
M  V30 5633 O 506.744 1.8216 7.8299 0
M  V30 5634 H 506.476 -0.180584 0.651433 0
M  V30 5635 H 509.03 0.103848 2.05137 0
M  V30 5636 H 507.26 -2.18162 3.19284 0
M  V30 5637 H 508.949 -1.96526 3.55151 0
M  V30 5638 H 509.715 0.15314 4.84758 0
M  V30 5639 H 505.594 -1.02142 4.49542 0
M  V30 5640 H 509.138 1.54674 6.80237 0
M  V30 5641 H 505.035 0.365032 6.44467 0
M  V30 5642 H 505.803 1.74289 7.99728 0
M  V30 5643 N 508.466 -1.55915 -0.229846 0
M  V30 5644 C 509.413 -1.91734 -1.28478 0
M  V30 5645 C 510.383 -0.773539 -1.46988 0
M  V30 5646 O 511.568 -1.02871 -1.60693 0
M  V30 5647 C 508.708 -2.23224 -2.63182 0
M  V30 5648 C 507.821 -3.50497 -2.52539 0
M  V30 5649 C 506.956 -3.71474 -3.79711 0
M  V30 5650 C 505.995 -4.92289 -3.63755 0
M  V30 5651 N 505.132 -5.09698 -4.82858 0
M  V30 5652 H 509.972 -2.81692 -0.972308 0
M  V30 5653 H 507.509 -1.39429 -0.468815 0
M  V30 5654 H 509.467 -2.3949 -3.41614 0
M  V30 5655 H 508.097 -1.36451 -2.92542 0
M  V30 5656 H 507.149 -3.4247 -1.65585 0
M  V30 5657 H 508.461 -4.39079 -2.36666 0
M  V30 5658 H 507.615 -3.87791 -4.66586 0
M  V30 5659 H 506.354 -2.81157 -3.985 0
M  V30 5660 H 505.359 -4.7593 -2.75264 0
M  V30 5661 H 506.584 -5.84083 -3.46445 0
M  V30 5662 H 504.53 -4.22322 -5.01976 0
M  V30 5663 H 504.447 -5.92399 -4.69681 0
M  V30 5664 H 505.715 -5.30443 -5.71183 0
M  V30 5665 N 509.944 0.496216 -1.49584 0
M  V30 5666 C 511.174 1.27209 -1.62793 0
M  V30 5667 C 511.582 1.86799 -0.300476 0
M  V30 5668 O 510.925 1.68802 0.724674 0
M  V30 5669 C 510.987 2.43812 -2.64189 0
M  V30 5670 C 510.651 2.05055 -4.08414 0
M  V30 5671 C 511.648 1.58752 -4.9507 0
M  V30 5672 C 509.333 2.14543 -4.54177 0
M  V30 5673 C 511.327 1.22448 -6.25528 0
M  V30 5674 C 509.014 1.77851 -5.84647 0
M  V30 5675 C 510.012 1.31878 -6.70147 0
M  V30 5676 O 509.7 0.956834 -7.98185 0
M  V30 5677 H 509.432 0.391848 -0.550846 0
M  V30 5678 H 511.986 0.601712 -1.96389 0
M  V30 5679 H 510.216 3.13941 -2.25783 0
M  V30 5680 H 511.905 3.05829 -2.66877 0
M  V30 5681 H 512.671 1.50863 -4.60939 0
M  V30 5682 H 508.55 2.49277 -3.87791 0
M  V30 5683 H 512.094 0.864933 -6.92217 0
M  V30 5684 H 507.991 1.8539 -6.18305 0
M  V30 5685 H 508.759 1.08789 -8.11238 0
M  V30 5686 N 511.423 1.38739 0.74761 0
M  V30 5687 C 512.653 1.3832 1.53464 0
M  V30 5688 C 513.061 -0.0273464 1.8918 0
M  V30 5689 O 512.404 -1.00588 1.53713 0
M  V30 5690 C 512.466 2.18007 2.85855 0
M  V30 5691 C 512.13 3.66762 2.72644 0
M  V30 5692 C 513.127 4.60124 2.42037 0
M  V30 5693 C 510.812 4.10193 2.89909 0
M  V30 5694 C 512.806 5.94897 2.28859 0
M  V30 5695 C 510.493 5.45045 2.7635 0
M  V30 5696 C 511.491 6.37211 2.45869 0
M  V30 5697 O 511.179 7.69581 2.3238 0
M  V30 5698 H 510.911 0.474718 0.481268 0
M  V30 5699 H 513.465 1.83012 0.932518 0
M  V30 5700 H 511.695 1.68043 3.48279 0
M  V30 5701 H 513.384 2.09921 3.47402 0
M  V30 5702 H 514.15 4.27874 2.28361 0
M  V30 5703 H 510.029 3.38797 3.1263 0
M  V30 5704 H 513.573 6.66802 2.04989 0
M  V30 5705 H 509.47 5.76889 2.89601 0
M  V30 5706 H 510.238 7.80169 2.47546 0
M  V30 5707 N 512.901 -0.976442 1.23707 0
M  V30 5708 C 514.178 -1.69296 0.979699 0
M  V30 5709 C 514.558 -2.0508 -0.500555 0
M  V30 5710 O 513.906 -1.74708 -1.47273 0
M  V30 5711 C 514.116 -2.93143 1.89389 0
M  V30 5712 C 515.464 -3.65572 2.15968 0
M  V30 5713 O 516.488 -3.03184 1.86971 0
M  V30 5714 O 515.347 -4.77859 2.65167 0
M  V30 5715 H 512.441 -0.739708 0.369812 0
M  V30 5716 H 514.987 -1.03131 1.34767 0
M  V30 5717 H 513.759 -2.63327 2.89439 0
M  V30 5718 H 513.382 -3.67044 1.52854 0
M  V30 5719 N 514.379 -1.04941 -1.1758 0
M  V30 5720 C 515.312 -0.592518 -2.20373 0
M  V30 5721 C 516.29 0.377561 -1.58156 0
M  V30 5722 O 517.474 0.28978 -1.86259 0
M  V30 5723 C 514.601 0.133215 -3.38438 0
M  V30 5724 C 513.647 -0.791484 -4.19092 0
M  V30 5725 S 514.48 -2.27925 -4.84572 0
M  V30 5726 C 515.636 -1.56462 -6.06028 0
M  V30 5727 H 515.869 -1.46342 -2.58788 0
M  V30 5728 H 513.402 -0.861148 -1.28155 0
M  V30 5729 H 515.36 0.545746 -4.06856 0
M  V30 5730 H 514.021 0.980124 -2.98416 0
M  V30 5731 H 513.214 -0.230039 -5.03475 0
M  V30 5732 H 512.816 -1.14326 -3.56098 0
M  V30 5733 H 515.108 -0.862539 -6.71987 0
M  V30 5734 H 516.051 -2.38583 -6.66696 0
M  V30 5735 H 516.459 -1.05313 -5.5459 0
M  V30 5736 N 515.857 1.33968 -0.830081 0
M  V30 5737 C 516.807 2.26845 -0.229242 0
M  V30 5738 C 517.791 1.48862 0.610659 0
M  V30 5739 O 518.983 1.70808 0.464067 0
M  V30 5740 C 516.112 3.3798 0.602057 0
M  V30 5741 C 515.198 4.23369 -0.248866 0
M  V30 5742 N 515.589 4.88182 -1.32334 0
M  V30 5743 C 513.887 4.45987 -0.0344077 0
M  V30 5744 C 514.588 5.51671 -1.84482 0
M  V30 5745 N 513.564 5.31348 -1.14762 0
M  V30 5746 H 517.366 2.74464 -1.05104 0
M  V30 5747 H 514.88 1.4777 -0.673623 0
M  V30 5748 H 516.877 4.03494 1.04873 0
M  V30 5749 H 515.537 2.9191 1.42193 0
M  V30 5750 H 516.548 4.88988 -1.70619 0
M  V30 5751 H 513.225 4.10658 0.752727 0
M  V30 5752 H 514.615 6.13308 -2.74413 0
M  V30 5753 N 517.335 0.585699 1.46312 0
M  V30 5754 C 518.267 -0.183687 2.28463 0
M  V30 5755 C 519.28 -0.85264 1.38686 0
M  V30 5756 O 520.469 -0.721701 1.6326 0
M  V30 5757 C 517.569 -1.27977 3.13808 0
M  V30 5758 C 516.742 -0.702164 4.31727 0
M  V30 5759 C 515.801 -1.68633 4.98447 0
M  V30 5760 O 514.827 -1.22121 5.55945 0
M  V30 5761 N 516.029 -3.02047 4.95729 0
M  V30 5762 H 518.794 0.521127 2.95134 0
M  V30 5763 H 516.355 0.423673 1.56258 0
M  V30 5764 H 518.347 -1.9375 3.55307 0
M  V30 5765 H 516.917 -1.8874 2.4919 0
M  V30 5766 H 516.137 0.1331 3.93975 0
M  V30 5767 H 517.425 -0.296101 5.07938 0
M  V30 5768 H 516.823 -3.42457 4.50266 0
M  V30 5769 H 515.38 -3.63301 5.41161 0
M  V30 5770 N 518.813 -1.54241 0.323641 0
M  V30 5771 C 520.059 -2.00867 -0.279323 0
M  V30 5772 C 520.392 -1.21146 -1.5178 0
M  V30 5773 O 519.667 -0.29378 -1.92269 0
M  V30 5774 C 519.95 -3.54837 -0.613387 0
M  V30 5775 C 519.803 -4.45284 0.635803 0
M  V30 5776 C 521.122 -4.16186 -1.43099 0
M  V30 5777 H 518.241 -0.730177 -0.100049 0
M  V30 5778 H 520.883 -1.84829 0.440235 0
M  V30 5779 H 519.033 -3.68634 -1.22641 0
M  V30 5780 H 520.705 -4.43357 1.27406 0
M  V30 5781 H 518.948 -4.14956 1.26466 0
M  V30 5782 H 519.619 -5.5084 0.357597 0
M  V30 5783 H 522.095 -4.05964 -0.912814 0
M  V30 5784 H 520.971 -5.24031 -1.6335 0
M  V30 5785 H 521.232 -3.69516 -2.42715 0
M  V30 5786 N 520.291 -0.0518155 -1.57515 0
M  V30 5787 C 521.54 0.621286 -1.91893 0
M  V30 5788 C 521.853 1.71966 -0.932052 0
M  V30 5789 O 523.059 2.45096 -1.16791 0
M  V30 5790 C 521.515 1.15641 -3.40816 0
M  V30 5791 C 521.123 0.0901146 -4.47909 0
M  V30 5792 C 522.867 1.80472 -3.84227 0
M  V30 5793 C 520.774 0.638154 -5.87947 0
M  V30 5794 H 519.704 0.235835 -0.716169 0
M  V30 5795 H 522.355 -0.120809 -1.83102 0
M  V30 5796 H 520.737 1.95084 -3.44613 0
M  V30 5797 H 521.911 -0.683525 -4.55702 0
M  V30 5798 H 520.226 -0.460774 -4.13843 0
M  V30 5799 H 522.823 2.22471 -4.86221 0
M  V30 5800 H 523.166 2.65669 -3.20508 0
M  V30 5801 H 523.699 1.07683 -3.82948 0
M  V30 5802 H 520.438 -0.176202 -6.55263 0
M  V30 5803 H 519.958 1.37976 -5.83714 0
M  V30 5804 H 521.637 1.12085 -6.37217 0
M  V30 5805 N 521.769 1.56035 0.221574 0
M  V30 5806 C 522.994 1.83476 0.967026 0
M  V30 5807 C 523.419 0.632139 1.7716 0
M  V30 5808 O 522.777 -0.419082 1.7639 0
M  V30 5809 C 522.825 3.08907 1.86034 0
M  V30 5810 O 521.929 2.876 2.95567 0
M  V30 5811 H 521.27 0.604913 0.273817 0
M  V30 5812 H 523.8 2.03247 0.234893 0
M  V30 5813 H 523.81 3.3901 2.27016 0
M  V30 5814 H 522.485 3.96068 1.26898 0
M  V30 5815 H 521.062 2.6873 2.58532 0
M  V30 5816 N 523.247 -0.488276 1.49845 0
M  V30 5817 C 524.21 -1.57069 1.66919 0
M  V30 5818 C 525.21 -1.51445 0.540479 0
M  V30 5819 O 526.4 -1.5437 0.807188 0
M  V30 5820 C 523.532 -2.96718 1.67844 0
M  V30 5821 H 524.725 -1.43254 2.63474 0
M  V30 5822 H 522.278 -0.713435 1.39068 0
M  V30 5823 H 523.013 -3.15996 0.7292 0
M  V30 5824 H 522.798 -3.02208 2.49826 0
M  V30 5825 H 524.288 -3.75335 1.83066 0
M  V30 5826 N 524.725 -1.39134 -0.740242 0
M  V30 5827 C 525.688 -1.37217 -1.83587 0
M  V30 5828 C 526.688 -0.270221 -1.58513 0
M  V30 5829 O 527.878 -0.527843 -1.6601 0
M  V30 5830 C 525.01 -1.13959 -3.21288 0
M  V30 5831 H 526.203 -2.34705 -1.86691 0
M  V30 5832 H 523.756 -1.24622 -0.94335 0
M  V30 5833 H 524.491 -0.17131 -3.23847 0
M  V30 5834 H 524.276 -1.93754 -3.40884 0
M  V30 5835 H 525.766 -1.15346 -4.01354 0
M  V30 5836 N 526.204 0.969867 -1.24223 0
M  V30 5837 C 527.134 2.08191 -1.05729 0
M  V30 5838 C 528.115 1.70075 0.0290765 0
M  V30 5839 O 529.3 1.93712 -0.137583 0
M  V30 5840 C 526.43 3.40991 -0.658995 0
M  V30 5841 C 525.384 3.93054 -1.69389 0
M  V30 5842 C 524.71 5.22171 -1.15072 0
M  V30 5843 C 526.01 4.21137 -3.08935 0
M  V30 5844 H 527.704 2.23921 -1.98746 0
M  V30 5845 H 525.25 1.07602 -0.956967 0
M  V30 5846 H 527.203 4.18221 -0.51662 0
M  V30 5847 H 525.927 3.25155 0.30686 0
M  V30 5848 H 524.586 3.17977 -1.82444 0
M  V30 5849 H 524.234 5.02694 -0.175539 0
M  V30 5850 H 523.934 5.57973 -1.84229 0
M  V30 5851 H 525.458 6.02013 -1.02042 0
M  V30 5852 H 526.872 4.8908 -2.99121 0
M  V30 5853 H 525.269 4.68163 -3.75425 0
M  V30 5854 H 526.339 3.27996 -3.57137 0
M  V30 5855 N 527.682 1.05563 1.17022 0
M  V30 5856 C 528.912 0.787307 1.91011 0
M  V30 5857 C 529.32 -0.661256 1.77268 0
M  V30 5858 O 528.663 -1.46379 1.10991 0
M  V30 5859 C 528.725 1.09313 3.42478 0
M  V30 5860 C 528.389 2.53863 3.80004 0
M  V30 5861 C 529.386 3.52081 3.82538 0
M  V30 5862 C 527.071 2.88969 4.10855 0
M  V30 5863 C 529.065 4.83449 4.15399 0
M  V30 5864 C 526.752 4.2054 4.43384 0
M  V30 5865 C 527.75 5.17589 4.45635 0
M  V30 5866 O 527.438 6.46799 4.77395 0
M  V30 5867 H 527.17 0.285463 0.61277 0
M  V30 5868 H 529.724 1.41051 1.49311 0
M  V30 5869 H 527.954 0.412833 3.8449 0
M  V30 5870 H 529.643 0.810224 3.97731 0
M  V30 5871 H 530.409 3.26299 3.58823 0
M  V30 5872 H 526.288 2.1409 4.08272 0
M  V30 5873 H 529.832 5.59194 4.1707 0
M  V30 5874 H 525.729 4.46083 4.66563 0
M  V30 5875 H 526.497 6.51677 4.95237 0
M  V30 5876 N 529.16 -1.33526 0.837174 0
M  V30 5877 C 530.092 -2.28077 0.226579 0
M  V30 5878 C 531.105 -1.51666 -0.591717 0
M  V30 5879 O 532.294 -1.73511 -0.419064 0
M  V30 5880 C 529.394 -3.31597 -0.69978 0
M  V30 5881 C 528.567 -4.37329 0.0788067 0
M  V30 5882 C 527.626 -5.20526 -0.770637 0
M  V30 5883 O 526.652 -5.68811 -0.210453 0
M  V30 5884 N 527.854 -5.41639 -2.08825 0
M  V30 5885 H 530.619 -2.81115 1.03897 0
M  V30 5886 H 528.18 -1.46201 0.695476 0
M  V30 5887 H 530.172 -3.84158 -1.27298 0
M  V30 5888 H 528.742 -2.78848 -1.41288 0
M  V30 5889 H 527.962 -3.8529 0.833381 0
M  V30 5890 H 529.25 -5.05079 0.614238 0
M  V30 5891 H 528.648 -5.04108 -2.56693 0
M  V30 5892 H 527.205 -5.97263 -2.60998 0
M  V30 5893 N 530.638 -0.59345 -1.46 0
M  V30 5894 C 531.884 -0.0832754 -2.02629 0
M  V30 5895 C 532.217 1.27749 -1.46266 0
M  V30 5896 O 531.492 1.8395 -0.631866 0
M  V30 5897 C 531.775 -0.0290756 -3.60088 0
M  V30 5898 C 531.628 -1.41951 -4.26814 0
M  V30 5899 C 532.947 0.666055 -4.35031 0
M  V30 5900 H 530.066 -0.031736 -0.736316 0
M  V30 5901 H 532.708 -0.762711 -1.74019 0
M  V30 5902 H 530.858 0.549532 -3.84594 0
M  V30 5903 H 532.53 -2.04411 -4.13538 0
M  V30 5904 H 530.773 -1.98422 -3.8576 0
M  V30 5905 H 531.444 -1.33395 -5.3564 0
M  V30 5906 H 533.92 0.174401 -4.15734 0
M  V30 5907 H 532.796 0.673041 -5.44758 0
M  V30 5908 H 533.057 1.72946 -4.06869 0
M  V30 5909 N 532.116 1.54067 -0.331816 0
M  V30 5910 C 533.063 2.24623 0.530372 0
M  V30 5911 C 534.033 1.24009 1.10503 0
M  V30 5912 O 535.218 1.52712 1.14384 0
M  V30 5913 C 532.358 3.01374 1.68129 0
M  V30 5914 C 531.471 4.16821 1.13507 0
M  V30 5915 C 530.606 4.81085 2.25234 0
M  V30 5916 C 529.645 5.88621 1.67903 0
M  V30 5917 N 528.782 6.46713 2.73326 0
M  V30 5918 H 533.622 2.97898 -0.0778607 0
M  V30 5919 H 531.159 1.47014 -0.0501965 0
M  V30 5920 H 533.117 3.44125 2.35868 0
M  V30 5921 H 531.747 2.30419 2.26069 0
M  V30 5922 H 530.799 3.78796 0.348979 0
M  V30 5923 H 532.111 4.94203 0.675633 0
M  V30 5924 H 531.265 5.26846 3.00862 0
M  V30 5925 H 530.004 4.03102 2.74518 0
M  V30 5926 H 529.009 5.42254 0.907773 0
M  V30 5927 H 530.234 6.68506 1.19487 0
M  V30 5928 H 528.18 5.71599 3.21886 0
M  V30 5929 H 528.097 7.19532 2.3197 0
M  V30 5930 H 529.365 6.97129 3.48758 0
M  V30 5931 N 533.594 0.0601682 1.57485 0
M  V30 5932 C 534.542 -0.928899 2.13247 0
M  V30 5933 C 535.536 -1.31616 1.06647 0
M  V30 5934 O 536.742 -1.29476 1.25043 0
M  V30 5935 H 533.117 -0.317455 0.681708 0
M  V30 5936 H 535.088 -0.433566 2.95233 0
M  V30 5937 C 533.837 -2.19121 2.69965 0
M  V30 5938 H 533.16 -1.90204 3.51657 0
M  V30 5939 H 534.6 -2.86465 3.12592 0
M  V30 5940 C 533.059 -2.94195 1.64168 0
M  V30 5941 O 533.589 -3.87468 1.05978 0
M  V30 5942 N 531.795 -2.57089 1.35476 0
M  V30 5943 H 531.342 -1.81314 1.82984 0
M  V30 5944 H 531.3 -3.07624 0.649196 0
M  V30 5945 N 535.072 -1.5615 -0.213296 0
M  V30 5946 C 536.321 -1.78743 -0.93455 0
M  V30 5947 C 536.634 -0.630199 -1.8517 0
M  V30 5948 O 537.84 -0.739966 -2.61222 0
M  V30 5949 C 536.296 -3.16571 -1.71203 0
M  V30 5950 C 535.904 -4.40043 -0.840617 0
M  V30 5951 C 537.648 -3.48485 -2.42401 0
M  V30 5952 C 535.555 -5.68895 -1.61592 0
M  V30 5953 H 534.485 -0.666426 -0.352692 0
M  V30 5954 H 537.136 -1.82532 -0.188227 0
M  V30 5955 H 535.518 -3.06981 -2.50157 0
M  V30 5956 H 536.692 -4.6071 -0.0910326 0
M  V30 5957 H 535.007 -4.15706 -0.240365 0
M  V30 5958 H 537.604 -4.41983 -3.00924 0
M  V30 5959 H 537.947 -2.71371 -3.15695 0
M  V30 5960 H 538.48 -3.59442 -1.7043 0
M  V30 5961 H 535.219 -6.48925 -0.926106 0
M  V30 5962 H 534.739 -5.52275 -2.33991 0
M  V30 5963 H 536.418 -6.09365 -2.17447 0
M  V30 5964 N 536.55 0.480323 -1.50102 0
M  V30 5965 C 537.483 1.59789 -1.62919 0
M  V30 5966 C 538.461 1.55429 -0.477557 0
M  V30 5967 O 539.645 1.75186 -0.695851 0
M  V30 5968 C 536.772 2.98351 -1.60325 0
M  V30 5969 C 535.818 3.20899 -2.80938 0
M  V30 5970 S 536.651 3.01791 -4.4236 0
M  V30 5971 C 537.807 4.42712 -4.42444 0
M  V30 5972 H 538.04 1.48676 -2.57454 0
M  V30 5973 H 535.573 0.666996 -1.3925 0
M  V30 5974 H 537.531 3.7824 -1.59514 0
M  V30 5975 H 536.192 3.06862 -0.670419 0
M  V30 5976 H 535.385 4.22102 -2.75401 0
M  V30 5977 H 534.987 2.48768 -2.79268 0
M  V30 5978 H 537.279 5.3518 -4.15438 0
M  V30 5979 H 538.222 4.53294 -5.43995 0
M  V30 5980 H 538.63 4.24359 -3.72263 0
M  V30 5981 N 538.028 1.39524 0.732853 0
M  V30 5982 C 539.253 1.40329 1.52717 0
M  V30 5983 C 539.678 0.000286574 1.881 0
M  V30 5984 O 539.036 -0.987262 1.52062 0
M  V30 5985 C 539.084 2.28464 2.78992 0
M  V30 5986 O 538.188 1.716 3.75003 0
M  V30 5987 H 537.529 0.47778 0.461109 0
M  V30 5988 H 540.059 1.83546 0.903996 0
M  V30 5989 H 540.069 2.43051 3.27705 0
M  V30 5990 H 538.744 3.30425 2.52572 0
M  V30 5991 H 537.321 1.66267 3.33781 0
M  V30 5992 N 539.506 -0.963266 1.24736 0
M  V30 5993 C 540.734 -1.74166 1.11686 0
M  V30 5994 C 541.149 -1.8589 -0.330187 0
M  V30 5995 O 540.506 -1.35042 -1.2276 0
M  V30 5996 C 540.557 -3.15989 1.75595 0
M  V30 5997 O 540.278 -3.04847 3.14642 0
M  V30 5998 C 541.779 -4.10145 1.68213 0
M  V30 5999 H 538.999 -0.546031 0.389989 0
M  V30 6000 H 541.543 -1.20907 1.64929 0
M  V30 6001 H 539.698 -3.66219 1.26343 0
M  V30 6002 H 540.112 -3.9425 3.4593 0
M  V30 6003 H 541.586 -5.07299 2.17604 0
M  V30 6004 H 542.063 -4.3445 0.644208 0
M  V30 6005 H 542.669 -3.65827 2.16912 0
M  V30 6006 N 540.985 -1.06182 -1.16461 0
M  V30 6007 C 542.262 -0.691364 -1.82974 0
M  V30 6008 C 542.642 0.827377 -1.9421 0
M  V30 6009 O 541.99 1.73723 -1.48434 0
M  V30 6010 C 542.2 -1.39199 -3.20038 0
M  V30 6011 C 543.548 -1.53647 -3.95825 0
M  V30 6012 O 544.572 -1.35181 -3.29552 0
M  V30 6013 O 543.431 -1.83932 -5.14618 0
M  V30 6014 H 540.525 -0.244605 -0.789998 0
M  V30 6015 H 543.071 -1.16203 -1.23673 0
M  V30 6016 H 541.843 -2.42766 -3.06888 0
M  V30 6017 H 541.466 -0.911335 -3.87015 0
M  V30 6018 O 542.502 1.28464 -0.97874 0
M  V30 6019 H 543.193 1.83432 -0.622284 0
M  V30 END ATOM
M  V30 BEGIN BOND
M  V30 END BOND
M  V30 END CTAB
M  END
$$$$
