drugbank_target|P37840 Alpha-synuclein (DB02709; DB09130)
 OpenBabel12092119423D

  0  0  0     0  0            999 V3000
M  V30 BEGIN CTAB
M  V30 COUNTS 2016 2027 0 0 0
M  V30 BEGIN ATOM
M  V30 1 H -0.908 1.98254 -0.117106 0
M  V30 2 N 0 1.576 0 0
M  V30 3 C 0.933 2.03868 1.02534 0
M  V30 4 C 1.911 0.928543 1.3348 0
M  V30 5 O 3.095 1.19667 1.45644 0
M  V30 6 C 0.222 2.43627 2.35294 0
M  V30 7 C -0.732 3.65373 2.2001 0
M  V30 8 S 0.101 5.13292 1.52614 0
M  V30 9 C 1.257 5.56322 2.86805 0
M  V30 10 H 1.49 2.90518 0.631377 0
M  V30 11 H -0.977 1.52953 0.210867 0
M  V30 12 H 0.981 2.67203 3.11629 0
M  V30 13 H -0.358 1.57376 2.7183 0
M  V30 14 H -1.165 3.90944 3.18086 0
M  V30 15 H -1.563 3.418 1.51819 0
M  V30 16 H 0.729 5.58782 3.83104 0
M  V30 17 H 1.672 6.56266 2.65933 0
M  V30 18 H 2.08 4.83886 2.90714 0
M  V30 19 N 1.4781 -0.272755 1.55222 0
M  V30 20 C 2.7551 -1.02562 1.66555 0
M  V30 21 C 3.1351 -2.04282 0.532189 0
M  V30 22 O 2.4831 -2.23662 -0.467717 0
M  V30 23 C 2.6931 -1.6822 3.05782 0
M  V30 24 C 4.0411 -2.19373 3.63539 0
M  V30 25 O 5.0651 -1.78206 3.08417 0
M  V30 26 O 3.9241 -2.94883 4.60115 0
M  V30 27 H 1.0181 -0.475755 0.676451 0
M  V30 28 H 3.5641 -0.268593 1.67561 0
M  V30 29 H 2.3361 -0.945112 3.79715 0
M  V30 30 H 1.9591 -2.50609 3.08676 0
M  V30 31 N 2.9562 -1.48159 -0.537278 0
M  V30 32 C 4.2022 -1.56035 -1.29541 0
M  V30 33 C 4.5352 -0.230377 -1.92829 0
M  V30 34 O 3.8102 0.762952 -1.78911 0
M  V30 35 C 4.0932 -2.69323 -2.39034 0
M  V30 36 C 3.9462 -4.12002 -1.80485 0
M  V30 37 C 5.2652 -2.78408 -3.40847 0
M  V30 38 H 2.3842 -0.567992 -0.469632 0
M  V30 39 H 5.0262 -1.80302 -0.599277 0
M  V30 40 H 3.1762 -2.48763 -2.98412 0
M  V30 41 H 4.8482 -4.43981 -1.25215 0
M  V30 42 H 3.0912 -4.19344 -1.11055 0
M  V30 43 H 3.7622 -4.87077 -2.59731 0
M  V30 44 H 6.2382 -2.97012 -2.91416 0
M  V30 45 H 5.1142 -3.59416 -4.14863 0
M  V30 46 H 5.3752 -1.86269 -4.00944 0
M  V30 47 N 4.4343 0.785586 -1.36625 0
M  V30 48 C 5.6813 1.54362 -1.31067 0
M  V30 49 C 6.0093 1.94195 0.10893 0
M  V30 50 O 5.2643 1.63262 1.07908 0
M  V30 51 C 5.5633 2.83007 -2.1827 0
M  V30 52 C 5.2293 2.62294 -3.6676 0
M  V30 53 C 3.8913 2.56353 -4.0723 0
M  V30 54 C 6.2433 2.43371 -4.6089 0
M  V30 55 C 3.5713 2.29461 -5.39967 0
M  V30 56 C 5.9233 2.18005 -5.93849 0
M  V30 57 C 4.5873 2.105 -6.3344 0
M  V30 58 H 3.8573 0.564851 -0.479609 0
M  V30 59 H 6.5043 0.906028 -1.68711 0
M  V30 60 H 4.8093 3.51253 -1.73576 0
M  V30 61 H 6.5063 3.40817 -2.11292 0
M  V30 62 H 3.0963 2.67774 -3.34656 0
M  V30 63 H 7.2803 2.46959 -4.30494 0
M  V30 64 H 2.5363 2.22135 -5.69619 0
M  V30 65 H 6.7103 2.02359 -6.66351 0
M  V30 66 H 4.3373 1.89425 -7.36222 0
M  V30 67 N 5.9124 1.20967 1.01018 0
M  V30 68 C 6.8454 0.907578 2.09376 0
M  V30 69 C 7.8234 -0.142868 1.61971 0
M  V30 70 O 9.0074 -0.0150391 1.88494 0
M  V30 71 C 6.1344 0.361791 3.36762 0
M  V30 72 C 5.1804 1.39423 4.03068 0
M  V30 73 S 6.0134 2.96159 4.4615 0
M  V30 74 C 7.1694 2.43173 5.7673 0
M  V30 75 H 7.4024 1.82519 2.34678 0
M  V30 76 H 4.9354 1.03884 1.14225 0
M  V30 77 H 6.8934 0.0534523 4.10465 0
M  V30 78 H 5.5544 -0.53443 3.0952 0
M  V30 79 H 4.7474 0.961853 4.94737 0
M  V30 80 H 4.3494 1.65038 3.35617 0
M  V30 81 H 6.6414 1.83335 6.52223 0
M  V30 82 H 7.5844 3.33264 6.24773 0
M  V30 83 H 7.9924 1.85069 5.33301 0
M  V30 84 N 7.3905 -1.2043 1.01659 0
M  V30 85 C 8.3375 -2.23215 0.586822 0
M  V30 86 C 9.3075 -1.61382 -0.393085 0
M  V30 87 O 10.4925 -1.88544 -0.292525 0
M  V30 88 C 7.6325 -3.45032 -0.0687464 0
M  V30 89 C 6.7455 -4.21296 0.955724 0
M  V30 90 C 5.8805 -5.30507 0.271208 0
M  V30 91 C 4.9195 -5.98515 1.28244 0
M  V30 92 N 4.0565 -6.99316 0.62459 0
M  V30 93 H 8.8965 -2.59336 1.46796 0
M  V30 94 H 6.4335 -1.27431 0.734836 0
M  V30 95 H 8.3915 -4.1459 -0.465965 0
M  V30 96 H 7.0215 -3.09604 -0.913529 0
M  V30 97 H 6.0735 -3.50803 1.4711 0
M  V30 98 H 7.3855 -4.6803 1.72479 0
M  V30 99 H 6.5395 -6.06428 -0.18151 0
M  V30 100 H 5.2785 -4.8481 -0.530163 0
M  V30 101 H 4.2835 -5.21355 1.74554 0
M  V30 102 H 5.5085 -6.46298 2.08509 0
M  V30 103 H 3.4545 -6.55812 -0.156914 0
M  V30 104 H 3.3715 -7.44178 1.33172 0
M  V30 105 H 4.6395 -7.79255 0.195462 0
M  V30 106 N 8.8686 -0.792821 -1.36206 0
M  V30 107 C 10.1166 -0.366062 -1.98757 0
M  V30 108 C 10.4376 1.0668 -1.63231 0
M  V30 109 O 9.7076 1.73587 -0.907978 0
M  V30 110 H 8.2876 -0.132364 -0.735179 0
M  V30 111 H 10.9496 -1.01562 -1.66347 0
M  V30 112 H 10.0456 -0.460638 -3.08682 0
M  V30 113 N 10.3467 1.47872 -0.545128 0
M  V30 114 C 11.2767 2.32661 0.197793 0
M  V30 115 C 12.2577 1.43041 0.920504 0
M  V30 116 O 13.4427 1.71912 0.90333 0
M  V30 117 C 10.5727 3.24569 1.23582 0
M  V30 118 C 9.5267 4.23333 0.630323 0
M  V30 119 C 8.8527 5.0448 1.77211 0
M  V30 120 C 10.1527 5.20704 -0.407974 0
M  V30 121 H 11.8467 2.95024 -0.510045 0
M  V30 122 H 9.3927 1.4187 -0.246731 0
M  V30 123 H 11.3457 3.8272 1.76362 0
M  V30 124 H 10.0697 2.60236 1.97344 0
M  V30 125 H 8.7287 3.6639 0.123922 0
M  V30 126 H 8.3767 4.36561 2.49847 0
M  V30 127 H 8.0767 5.71339 1.37281 0
M  V30 128 H 9.6007 5.65487 2.3034 0
M  V30 129 H 11.0147 5.7329 0.033305 0
M  V30 130 H 9.4117 5.95699 -0.725486 0
M  V30 131 H 10.4817 4.66917 -1.30828 0
M  V30 132 N 11.8248 0.280983 1.55075 0
M  V30 133 C 13.0498 -0.340154 2.04592 0
M  V30 134 C 13.4748 -1.48246 1.15779 0
M  V30 135 O 12.8328 -1.80614 0.15761 0
M  V30 136 C 12.8808 -0.793104 3.5177 0
M  V30 137 O 11.9848 -1.89981 3.66034 0
M  V30 138 H 11.3258 -0.0694289 0.66036 0
M  V30 139 H 13.8558 0.416993 2.00306 0
M  V30 140 H 13.8658 -1.08729 3.93245 0
M  V30 141 H 12.5408 0.0426163 4.15878 0
M  V30 142 H 11.1178 -1.60771 3.36463 0
M  V30 143 N 13.3029 -1.57598 0.00835791 0
M  V30 144 C 14.2499 -2.08945 -0.980346 0
M  V30 145 C 15.2199 -0.986738 -1.33614 0
M  V30 146 O 16.4049 -1.25968 -1.43306 0
M  V30 147 C 13.5449 -2.60425 -2.26435 0
M  V30 148 C 12.6579 -3.84628 -1.96685 0
M  V30 149 C 11.7929 -4.24579 -3.19228 0
M  V30 150 C 10.8319 -5.41596 -2.85202 0
M  V30 151 N 9.9689 -5.768 -4.00307 0
M  V30 152 H 14.8089 -2.93148 -0.535551 0
M  V30 153 H 12.3459 -1.44912 -0.252776 0
M  V30 154 H 14.3039 -2.88354 -3.01509 0
M  V30 155 H 12.9339 -1.79083 -2.68568 0
M  V30 156 H 11.9859 -3.63556 -1.11942 0
M  V30 157 H 13.2979 -4.69796 -1.67611 0
M  V30 158 H 12.4519 -4.53834 -4.02641 0
M  V30 159 H 11.1909 -3.38137 -3.51447 0
M  V30 160 H 10.1959 -5.12056 -2.00198 0
M  V30 161 H 11.4209 -6.29721 -2.54222 0
M  V30 162 H 9.3669 -4.93316 -4.32407 0
M  V30 163 H 9.2839 -6.5656 -3.74786 0
M  V30 164 H 10.5519 -6.10652 -4.84484 0
M  V30 165 N 14.781 0.264519 -1.55364 0
M  V30 166 C 15.744 1.31046 -1.88042 0
M  V30 167 C 16.744 1.41943 -0.755569 0
M  V30 168 O 17.934 1.40947 -1.02369 0
M  V30 169 C 15.066 2.69067 -2.09323 0
M  V30 170 H 16.259 1.03297 -2.81549 0
M  V30 171 H 13.812 0.502989 -1.47986 0
M  V30 172 H 14.547 3.01982 -1.18226 0
M  V30 173 H 14.332 2.62542 -2.91229 0
M  V30 174 H 15.822 3.44623 -2.35848 0
M  V30 175 N 16.2591 1.48442 0.529413 0
M  V30 176 C 17.2061 1.63007 1.63394 0
M  V30 177 C 18.1761 0.47212 1.59249 0
M  V30 178 O 19.3611 0.695673 1.77666 0
M  V30 179 C 16.5011 1.6763 3.01653 0
M  V30 180 C 15.6141 2.94535 3.16027 0
M  V30 181 C 14.7491 2.90316 4.44849 0
M  V30 182 C 13.7881 4.11923 4.52754 0
M  V30 183 N 12.9251 4.05777 5.72965 0
M  V30 184 H 17.7651 2.5733 1.50285 0
M  V30 185 H 15.3021 1.27613 0.731656 0
M  V30 186 H 17.2601 1.68292 3.81751 0
M  V30 187 H 15.8901 0.76797 3.13532 0
M  V30 188 H 14.9421 3.03615 2.29177 0
M  V30 189 H 16.2541 3.84512 3.17729 0
M  V30 190 H 15.4081 2.89382 5.33238 0
M  V30 191 H 14.1471 1.98068 4.45668 0
M  V30 192 H 13.1521 4.13131 3.62771 0
M  V30 193 H 14.3771 5.0533 4.53672 0
M  V30 194 H 12.3231 3.16351 5.74681 0
M  V30 195 H 12.2401 4.8946 5.76164 0
M  V30 196 H 13.5081 4.08904 6.6364 0
M  V30 197 N 17.7372 -0.778329 1.37039 0
M  V30 198 C 18.6472 -1.92253 1.34446 0
M  V30 199 C 19.6632 -1.72267 0.244991 0
M  V30 200 O 20.8392 -1.95615 0.479258 0
M  V30 201 C 17.9042 -3.27282 1.144 0
M  V30 202 C 16.9652 -3.59969 2.33925 0
M  V30 203 C 16.1982 -4.88555 2.14825 0
M  V30 204 O 16.4212 -5.59113 1.12912 0
M  V30 205 O 15.3552 -5.20153 3.02861 0
M  V30 206 H 19.1812 -1.97392 2.30803 0
M  V30 207 H 16.7662 -0.920154 1.17701 0
M  V30 208 H 18.6482 -4.08062 1.05182 0
M  V30 209 H 17.3232 -3.23011 0.211124 0
M  V30 210 H 16.2302 -2.7945 2.48714 0
M  V30 211 H 17.5632 -3.68976 3.25757 0
M  V30 212 N 19.2153 -1.21501 -1.00376 0
M  V30 213 C 20.4633 -1.03095 -1.73827 0
M  V30 214 C 20.7843 0.436341 -1.90055 0
M  V30 215 O 20.0543 1.31466 -1.45236 0
M  V30 216 H 18.6343 -0.378487 -0.644016 0
M  V30 217 H 21.2963 -1.52831 -1.20949 0
M  V30 218 H 20.3923 -1.49991 -2.73695 0
M  V30 219 N 20.6934 1.19889 -1.02296 0
M  V30 220 C 21.9394 1.89701 -0.717033 0
M  V30 221 C 22.2724 1.7905 0.751989 0
M  V30 222 O 21.5474 1.17891 1.547 0
M  V30 223 C 21.8304 3.40858 -1.16136 0
M  V30 224 C 21.6834 3.60411 -2.69117 0
M  V30 225 C 23.0024 4.33876 -0.737549 0
M  V30 226 H 20.1214 0.688874 -0.261957 0
M  V30 227 H 22.7634 1.41154 -1.27183 0
M  V30 228 H 20.9134 3.82335 -0.689342 0
M  V30 229 H 22.5854 3.28145 -3.2422 0
M  V30 230 H 20.8284 3.03665 -3.0979 0
M  V30 231 H 21.4994 4.66396 -2.95261 0
M  V30 232 H 23.9754 4.00081 -1.14344 0
M  V30 233 H 22.8514 5.38242 -1.0764 0
M  V30 234 H 23.1124 4.40628 0.360436 0
M  V30 235 N 22.1715 0.800033 1.35784 0
M  V30 236 C 23.4175 0.377901 1.99248 0
M  V30 237 C 23.7505 -1.05052 1.63333 0
M  V30 238 O 23.0255 -1.72768 0.893385 0
M  V30 239 C 23.3085 0.553922 3.55814 0
M  V30 240 C 23.1615 2.0268 4.01548 0
M  V30 241 C 24.4805 -0.0244802 4.40093 0
M  V30 242 H 21.5995 0.138782 0.723815 0
M  V30 243 H 24.2415 1.00835 1.61035 0
M  V30 244 H 22.3915 0.0172398 3.88496 0
M  V30 245 H 24.0635 2.62536 3.79305 0
M  V30 246 H 22.3065 2.5256 3.52698 0
M  V30 247 H 22.9775 2.10087 5.10458 0
M  V30 248 H 25.4535 0.433775 4.13833 0
M  V30 249 H 24.3295 0.128637 5.48749 0
M  V30 250 H 24.5905 -1.11758 4.27741 0
M  V30 251 N 23.6496 -1.47581 0.552962 0
M  V30 252 C 24.6126 -2.28439 -0.186605 0
M  V30 253 C 25.6126 -1.36706 -0.84665 0
M  V30 254 O 26.8026 -1.59378 -0.703164 0
M  V30 255 C 23.9346 -3.16264 -1.2724 0
M  V30 256 H 25.1276 -2.95294 0.523609 0
M  V30 257 H 22.6806 -1.532 0.309745 0
M  V30 258 H 23.4156 -2.54091 -2.01514 0
M  V30 259 H 23.2006 -3.83769 -0.803968 0
M  V30 260 H 24.6906 -3.77198 -1.79196 0
M  V30 261 N 25.1277 -0.289203 -1.54924 0
M  V30 262 C 26.0907 0.579144 -2.21762 0
M  V30 263 C 27.0907 1.07047 -1.1999 0
M  V30 264 O 28.2807 0.968384 -1.44803 0
M  V30 265 C 25.4127 1.80055 -2.8947 0
M  V30 266 H 26.6057 -0.00464908 -2.999 0
M  V30 267 H 24.1587 -0.0399306 -1.56249 0
M  V30 268 H 24.8937 2.42449 -2.15381 0
M  V30 269 H 24.6787 1.45602 -3.64064 0
M  V30 270 H 26.1687 2.41773 -3.40493 0
M  V30 271 N 26.6058 1.57591 -0.0167156 0
M  V30 272 C 27.5688 2.08393 0.954204 0
M  V30 273 C 28.5688 0.996531 1.26198 0
M  V30 274 O 29.7588 1.25858 1.20438 0
M  V30 275 C 26.8908 2.5394 2.27436 0
M  V30 276 H 28.0838 2.95455 0.514451 0
M  V30 277 H 25.6368 1.54582 0.231089 0
M  V30 278 H 26.3718 1.70171 2.76066 0
M  V30 279 H 26.1568 3.33371 2.06412 0
M  V30 280 H 27.6468 2.93512 2.97053 0
M  V30 281 N 28.0839 -0.256276 1.55502 0
M  V30 282 C 28.9939 -1.33882 1.92647 0
M  V30 283 C 30.0099 -1.53159 0.825727 0
M  V30 284 O 31.1859 -1.66963 1.12629 0
M  V30 285 C 28.2509 -2.6751 2.20543 0
M  V30 286 C 27.3119 -2.56836 3.43997 0
M  V30 287 C 26.5449 -3.84092 3.70553 0
M  V30 288 O 26.7679 -4.85545 2.99336 0
M  V30 289 O 25.7019 -3.83288 4.64084 0
M  V30 290 H 29.5279 -1.05374 2.84833 0
M  V30 291 H 27.1129 -0.456237 1.42263 0
M  V30 292 H 28.9949 -3.46492 2.39835 0
M  V30 293 H 27.6699 -2.9577 1.31536 0
M  V30 294 H 26.5769 -1.76172 3.30021 0
M  V30 295 H 27.9099 -2.33523 4.33275 0
M  V30 296 N 29.562 -1.4872 -0.521534 0
M  V30 297 C 30.509 -1.63871 -1.62527 0
M  V30 298 C 31.479 -0.480559 -1.58996 0
M  V30 299 O 32.664 -0.705085 -1.77294 0
M  V30 300 C 29.804 -1.69227 -3.00759 0
M  V30 301 C 28.917 -2.96207 -3.14461 0
M  V30 302 C 28.052 -2.92671 -4.43303 0
M  V30 303 C 27.091 -4.14318 -4.50563 0
M  V30 304 N 26.228 -4.0881 -5.70805 0
M  V30 305 H 31.068 -2.58123 -1.48918 0
M  V30 306 H 28.605 -1.28 -0.724878 0
M  V30 307 H 30.563 -1.70314 -3.80853 0
M  V30 308 H 29.193 -0.784586 -3.1312 0
M  V30 309 H 28.245 -3.04826 -2.27564 0
M  V30 310 H 29.557 -3.86192 -3.15686 0
M  V30 311 H 28.711 -2.92206 -5.31696 0
M  V30 312 H 27.45 -2.00429 -4.44612 0
M  V30 313 H 26.455 -4.15049 -3.60575 0
M  V30 314 H 27.68 -5.07729 -4.50986 0
M  V30 315 H 25.626 -3.19394 -5.72995 0
M  V30 316 H 25.543 -4.92509 -5.7356 0
M  V30 317 H 26.811 -4.12418 -6.61462 0
M  V30 318 N 31.0401 0.771051 -1.3745 0
M  V30 319 C 32.2681 1.56015 -1.35893 0
M  V30 320 C 32.6831 1.88718 0.0555523 0
M  V30 321 O 32.0401 1.51502 1.01752 0
M  V30 322 C 32.0911 2.87001 -2.19801 0
M  V30 323 O 31.8121 2.557 -3.55738 0
M  V30 324 C 33.3131 3.81228 -2.26231 0
M  V30 325 H 30.5331 0.483317 -0.465453 0
M  V30 326 H 33.0771 0.955611 -1.80799 0
M  V30 327 H 31.2321 3.43877 -1.78402 0
M  V30 328 H 31.6461 3.39584 -3.99729 0
M  V30 329 H 33.1201 4.70139 -2.89263 0
M  V30 330 H 33.5971 4.20409 -1.27093 0
M  V30 331 H 34.2031 3.30281 -2.67945 0
M  V30 332 N 32.5182 1.22032 0.997298 0
M  V30 333 C 33.4652 0.986467 2.08656 0
M  V30 334 C 34.4352 -0.0902671 1.65855 0
M  V30 335 O 35.6202 0.0584294 1.90711 0
M  V30 336 C 32.7602 0.565569 3.40434 0
M  V30 337 C 31.8732 1.71259 3.96604 0
M  V30 338 C 31.0082 1.24011 5.16522 0
M  V30 339 C 30.0472 2.35896 5.64818 0
M  V30 340 N 29.1842 1.89726 6.7598 0
M  V30 341 H 34.0242 1.91892 2.27994 0
M  V30 342 H 31.5612 0.956199 1.11782 0
M  V30 343 H 33.5192 0.302738 4.161 0
M  V30 344 H 32.1492 -0.329879 3.2111 0
M  V30 345 H 31.2012 2.08986 3.17851 0
M  V30 346 H 32.5132 2.55436 4.28432 0
M  V30 347 H 31.6672 0.934395 5.99461 0
M  V30 348 H 30.4062 0.368487 4.86306 0
M  V30 349 H 29.4112 2.67261 4.8047 0
M  V30 350 H 30.6362 3.23567 5.97061 0
M  V30 351 H 28.5822 1.0492 6.47555 0
M  V30 352 H 28.4992 2.67471 7.07103 0
M  V30 353 H 29.7672 1.62211 7.62435 0
M  V30 354 N 33.9963 -1.19345 1.0293 0
M  V30 355 C 34.9283 -2.22036 0.56857 0
M  V30 356 C 35.9413 -1.58865 -0.355779 0
M  V30 357 O 37.1303 -1.77851 -0.152103 0
M  V30 358 C 34.2303 -3.38363 -0.190752 0
M  V30 359 C 33.4033 -4.31118 0.738643 0
M  V30 360 C 32.4623 -5.26194 0.0246497 0
M  V30 361 O 31.4883 -5.65461 0.651354 0
M  V30 362 N 32.6903 -5.66971 -1.24594 0
M  V30 363 H 35.4553 -2.6219 1.45177 0
M  V30 364 H 33.0163 -1.34015 0.908381 0
M  V30 365 H 35.0083 -3.98981 -0.677961 0
M  V30 366 H 33.5783 -2.96994 -0.975366 0
M  V30 367 H 32.7983 -3.68276 1.40593 0
M  V30 368 H 34.0863 -4.90001 1.37029 0
M  V30 369 H 33.4843 -5.37104 -1.77583 0
M  V30 370 H 32.0413 -6.2984 -1.67764 0
M  V30 371 N 35.4744 -0.807222 -1.35358 0
M  V30 372 C 36.7224 -0.387122 -1.98358 0
M  V30 373 C 37.0434 1.04942 -1.64354 0
M  V30 374 O 36.3134 1.72615 -0.926339 0
M  V30 375 H 34.8934 -0.140154 -0.733734 0
M  V30 376 H 37.5554 -1.0332 -1.6526 0
M  V30 377 H 36.6514 -0.493352 -3.08176 0
M  V30 378 N 36.9525 1.47285 -0.560781 0
M  V30 379 C 38.1985 2.02764 -0.0381184 0
M  V30 380 C 38.5315 1.43384 1.30976 0
M  V30 381 O 37.8065 0.590733 1.85312 0
M  V30 382 C 38.0895 3.60064 0.0511427 0
M  V30 383 C 37.9425 4.2987 -1.32408 0
M  V30 384 C 39.2615 4.33439 0.762795 0
M  V30 385 H 36.3805 0.736841 -0.0153264 0
M  V30 386 H 39.0225 1.75675 -0.723759 0
M  V30 387 H 37.1725 3.83274 0.635065 0
M  V30 388 H 38.8445 4.17989 -1.95148 0
M  V30 389 H 37.0875 3.90085 -1.8978 0
M  V30 390 H 37.7585 5.38478 -1.21431 0
M  V30 391 H 40.2345 4.15243 0.266965 0
M  V30 392 H 39.1105 5.43124 0.794221 0
M  V30 393 H 39.3715 4.02915 1.81966 0
M  V30 394 N 38.4306 0.297415 1.54768 0
M  V30 395 C 39.3936 -0.567375 2.22066 0
M  V30 396 C 40.3936 -1.06409 1.20556 0
M  V30 397 O 41.5836 -0.960691 1.45315 0
M  V30 398 C 38.7156 -1.78517 2.90421 0
M  V30 399 H 39.9086 0.0205534 2.99893 0
M  V30 400 H 37.4616 0.0482163 1.56226 0
M  V30 401 H 38.1966 -2.41303 2.16664 0
M  V30 402 H 37.9816 -1.43669 3.64831 0
M  V30 403 H 39.4716 -2.39964 3.41771 0
M  V30 404 N 39.9087 -1.5758 0.0250728 0
M  V30 405 C 40.8187 -2.1343 -0.973905 0
M  V30 406 C 41.8347 -1.08556 -1.35984 0
M  V30 407 O 43.0107 -1.40592 -1.44207 0
M  V30 408 C 40.0757 -2.64703 -2.23904 0
M  V30 409 C 39.1367 -3.84276 -1.91391 0
M  V30 410 C 38.3697 -4.33095 -3.11873 0
M  V30 411 O 38.5927 -3.81107 -4.24398 0
M  V30 412 O 37.5267 -5.24984 -2.94406 0
M  V30 413 H 41.3527 -2.99057 -0.529036 0
M  V30 414 H 38.9377 -1.48118 -0.195288 0
M  V30 415 H 40.8197 -2.97769 -2.98181 0
M  V30 416 H 39.4947 -1.82161 -2.6758 0
M  V30 417 H 38.4017 -3.56143 -1.14511 0
M  V30 418 H 39.7347 -4.67968 -1.52534 0
M  V30 419 N 41.3868 0.248026 -1.55636 0
M  V30 420 C 42.3498 1.29044 -1.89421 0
M  V30 421 C 43.3498 1.41134 -0.770581 0
M  V30 422 O 44.5398 1.39854 -1.03858 0
M  V30 423 C 41.6718 2.66831 -2.12165 0
M  V30 424 H 42.8648 1.00305 -2.82629 0
M  V30 425 H 40.4178 0.487265 -1.48511 0
M  V30 426 H 41.1528 3.00711 -1.21422 0
M  V30 427 H 40.9378 2.59438 -2.93997 0
M  V30 428 H 42.4278 3.42103 -2.3949 0
M  V30 429 N 42.8649 1.48995 0.513639 0
M  V30 430 C 43.8279 1.64229 1.59879 0
M  V30 431 C 44.8279 0.514696 1.5234 0
M  V30 432 O 46.0179 0.78087 1.55718 0
M  V30 433 C 43.1499 1.62783 2.99524 0
M  V30 434 H 44.3429 2.61004 1.47705 0
M  V30 435 H 41.8959 1.37837 0.736936 0
M  V30 436 H 42.6309 0.675461 3.17188 0
M  V30 437 H 42.4159 2.4466 3.06404 0
M  V30 438 H 43.9059 1.76669 3.78388 0
M  V30 439 N 44.343 -0.763751 1.37857 0
M  V30 440 C 45.591 -1.51957 1.33243 0
M  V30 441 C 45.912 -1.94835 -0.0801709 0
M  V30 442 O 45.182 -1.66894 -1.02582 0
M  V30 443 H 43.762 -0.563626 0.49024 0
M  V30 444 H 46.424 -0.908504 1.7243 0
M  V30 445 H 45.52 -2.41523 1.97669 0
M  V30 446 N 45.8211 -1.22559 -0.990812 0
M  V30 447 C 46.7681 -0.997519 -2.0813 0
M  V30 448 C 47.7381 0.0814702 -1.659 0
M  V30 449 O 48.9231 -0.0685424 -1.90677 0
M  V30 450 C 46.0631 -0.583615 -3.40129 0
M  V30 451 C 45.1761 -1.7336 -3.9569 0
M  V30 452 C 44.3111 -1.26748 -5.15857 0
M  V30 453 C 43.3501 -2.38888 -5.63559 0
M  V30 454 N 42.4871 -1.93308 -6.74964 0
M  V30 455 H 47.3271 -1.93099 -2.26973 0
M  V30 456 H 44.8641 -0.962114 -1.11273 0
M  V30 457 H 46.8221 -0.324801 -4.15934 0
M  V30 458 H 45.4521 0.312845 -3.2128 0
M  V30 459 H 44.5041 -2.10669 -3.16738 0
M  V30 460 H 45.8161 -2.57704 -4.27071 0
M  V30 461 H 44.9701 -0.966173 -5.98957 0
M  V30 462 H 43.7091 -0.394272 -4.86104 0
M  V30 463 H 42.7141 -2.69805 -4.79046 0
M  V30 464 H 43.9391 -3.26728 -5.95336 0
M  V30 465 H 41.8851 -1.08352 -6.4699 0
M  V30 466 H 41.8021 -2.71217 -7.05675 0
M  V30 467 H 43.0701 -1.66252 -7.61564 0
M  V30 468 N 47.2992 1.18797 -1.03562 0
M  V30 469 C 48.5272 1.92599 -0.755869 0
M  V30 470 C 48.9422 1.75886 0.686271 0
M  V30 471 O 48.2992 1.08517 1.46732 0
M  V30 472 C 48.3502 3.44159 -1.10619 0
M  V30 473 O 48.0712 3.60341 -2.4917 0
M  V30 474 C 49.5722 4.3507 -0.850214 0
M  V30 475 H 46.7922 0.611587 -0.276048 0
M  V30 476 H 49.3362 1.50742 -1.38192 0
M  V30 477 H 47.4912 3.83823 -0.525194 0
M  V30 478 H 47.9052 4.54128 -2.62427 0
M  V30 479 H 49.3792 5.39989 -1.14523 0
M  V30 480 H 49.8562 4.38673 0.215176 0
M  V30 481 H 50.4622 4.01097 -1.41426 0
M  V30 482 N 48.7773 0.814389 1.34928 0
M  V30 483 C 49.7243 0.22822 2.29669 0
M  V30 484 C 50.6943 -0.642164 1.53184 0
M  V30 485 O 51.8793 -0.585605 1.81591 0
M  V30 486 C 49.0193 -0.61089 3.3965 0
M  V30 487 C 48.1323 0.280792 4.31086 0
M  V30 488 C 47.2673 -0.567067 5.28165 0
M  V30 489 C 46.3063 0.324531 6.11239 0
M  V30 490 N 45.4433 -0.483756 7.00431 0
M  V30 491 H 50.2833 1.04153 2.79206 0
M  V30 492 H 47.8203 0.525133 1.37407 0
M  V30 493 H 49.7783 -1.11263 4.0209 0
M  V30 494 H 48.4083 -1.38939 2.91369 0
M  V30 495 H 47.4603 0.900688 3.69583 0
M  V30 496 H 48.7723 0.966723 4.89342 0
M  V30 497 H 47.9263 -1.13363 5.96015 0
M  V30 498 H 46.6653 -1.28654 4.70425 0
M  V30 499 H 45.6703 0.903298 5.42329 0
M  V30 500 H 46.8953 1.04198 6.71059 0
M  V30 501 H 44.8413 -1.18706 6.45171 0
M  V30 502 H 44.7583 0.143965 7.55863 0
M  V30 503 H 46.0263 -1.03334 7.7262 0
M  V30 504 N 50.2554 -1.46986 0.568584 0
M  V30 505 C 51.1654 -2.33942 -0.17555 0
M  V30 506 C 52.1814 -1.48891 -0.90041 0
M  V30 507 O 53.3574 -1.81794 -0.86676 0
M  V30 508 C 50.4224 -3.25811 -1.18524 0
M  V30 509 C 49.4834 -4.26757 -0.466582 0
M  V30 510 C 48.7164 -5.14236 -1.42817 0
M  V30 511 O 48.9394 -5.04379 -2.66379 0
M  V30 512 O 47.8734 -5.94412 -0.946453 0
M  V30 513 H 51.6994 -2.98896 0.538036 0
M  V30 514 H 49.2844 -1.4573 0.329097 0
M  V30 515 H 51.1664 -3.82527 -1.76779 0
M  V30 516 H 49.8414 -2.63471 -1.88055 0
M  V30 517 H 48.7484 -3.73769 0.157451 0
M  V30 518 H 50.0814 -4.91843 0.187485 0
M  V30 519 N 51.7335 -0.305618 -1.54608 0
M  V30 520 C 52.9815 0.301701 -1.99835 0
M  V30 521 C 53.3025 1.54054 -1.19551 0
M  V30 522 O 52.5725 1.93702 -0.292658 0
M  V30 523 H 51.1525 0.114468 -0.738178 0
M  V30 524 H 53.8145 -0.418016 -1.90364 0
M  V30 525 H 52.9105 0.570548 -3.06841 0
M  V30 526 N 53.2116 1.57565 -0.0334293 0
M  V30 527 C 54.4576 1.92262 0.645226 0
M  V30 528 C 54.7906 0.910543 1.71531 0
M  V30 529 O 54.0656 -0.066099 1.94388 0
M  V30 530 C 54.3486 3.37422 1.2577 0
M  V30 531 C 54.2016 4.49369 0.196891 0
M  V30 532 C 55.5206 3.82628 2.17449 0
M  V30 533 H 52.6396 0.699171 0.233085 0
M  V30 534 H 55.2816 1.89779 -0.0915694 0
M  V30 535 H 53.4316 3.39669 1.88566 0
M  V30 536 H 55.1036 4.59254 -0.433962 0
M  V30 537 H 53.3466 4.31168 -0.477137 0
M  V30 538 H 54.0176 5.47978 0.665124 0
M  V30 539 H 56.4936 3.82145 1.64634 0
M  V30 540 H 55.3696 4.84883 2.57254 0
M  V30 541 H 55.6306 3.18376 3.0674 0
M  V30 542 N 54.6897 -0.239769 1.55765 0
M  V30 543 C 55.6197 -1.30052 1.9393 0
M  V30 544 C 56.6007 -1.49839 0.805132 0
M  V30 545 O 57.7857 -1.62328 1.06599 0
M  V30 546 C 54.9157 -2.65391 2.2402 0
M  V30 547 C 53.8697 -2.60289 3.39755 0
M  V30 548 C 53.1957 -3.99489 3.55405 0
M  V30 549 C 54.4957 -2.16654 4.75246 0
M  V30 550 H 56.1897 -0.983573 2.82783 0
M  V30 551 H 53.7357 -0.471701 1.36055 0
M  V30 552 H 55.6887 -3.3974 2.49308 0
M  V30 553 H 54.4127 -2.98736 1.32 0
M  V30 554 H 53.0717 -1.88398 3.14487 0
M  V30 555 H 52.7197 -4.30112 2.60793 0
M  V30 556 H 52.4197 -3.96962 4.33238 0
M  V30 557 H 53.9437 -4.75528 3.83022 0
M  V30 558 H 55.3577 -2.80737 4.99859 0
M  V30 559 H 53.7547 -2.25223 5.56232 0
M  V30 560 H 54.8247 -1.11835 4.71827 0
M  V30 561 N 56.1678 -1.49265 -0.50573 0
M  V30 562 C 57.3978 -1.61979 -1.28243 0
M  V30 563 C 57.8058 -0.288576 -1.86986 0
M  V30 564 O 57.1488 0.735408 -1.68337 0
M  V30 565 C 57.2108 -2.62632 -2.45489 0
M  V30 566 C 56.8748 -4.071 -2.07651 0
M  V30 567 C 57.8718 -4.94049 -1.61901 0
M  V30 568 C 55.5568 -4.52801 -2.17431 0
M  V30 569 C 57.5508 -6.24736 -1.26428 0
M  V30 570 C 55.2378 -5.83503 -1.8157 0
M  V30 571 C 56.2358 -6.69294 -1.36142 0
M  V30 572 O 55.9238 -7.9756 -1.00764 0
M  V30 573 H 55.6558 -0.54834 -0.395347 0
M  V30 574 H 58.2098 -1.96002 -0.614204 0
M  V30 575 H 56.4398 -2.2378 -3.15372 0
M  V30 576 H 58.1288 -2.64925 -3.07522 0
M  V30 577 H 58.8948 -4.5997 -1.53795 0
M  V30 578 H 54.7738 -3.86196 -2.51742 0
M  V30 579 H 58.3178 -6.91652 -0.908992 0
M  V30 580 H 54.2148 -6.17112 -1.89324 0
M  V30 581 H 54.9828 -8.10529 -1.13952 0
M  V30 582 N 57.6459 0.756429 -1.3826 0
M  V30 583 C 58.8919 1.51772 -1.34511 0
M  V30 584 C 59.2249 1.94089 0.0656691 0
M  V30 585 O 58.4999 1.65221 1.02626 0
M  V30 586 C 58.7829 2.77226 -2.29821 0
M  V30 587 C 58.6359 2.41065 -3.79747 0
M  V30 588 C 59.9549 3.79236 -2.23312 0
M  V30 589 H 57.0739 0.550578 -0.489931 0
M  V30 590 H 59.7159 0.866607 -1.69086 0
M  V30 591 H 57.8659 3.32784 -2.00467 0
M  V30 592 H 59.5379 1.91303 -4.19763 0
M  V30 593 H 57.7809 1.7356 -3.97567 0
M  V30 594 H 58.4519 3.3081 -4.41892 0
M  V30 595 H 60.9279 3.3321 -2.49219 0
M  V30 596 H 59.8039 4.64714 -2.92116 0
M  V30 597 H 60.0649 4.24615 -1.23102 0
M  V30 598 N 59.124 1.23083 0.984299 0
M  V30 599 C 60.372 1.05848 1.72165 0
M  V30 600 C 60.693 -0.406049 1.90726 0
M  V30 601 O 59.963 -1.29139 1.47309 0
M  V30 602 H 58.543 0.388685 0.637913 0
M  V30 603 H 61.205 1.54736 1.18503 0
M  V30 604 H 60.301 1.54327 2.71274 0
M  V30 605 N 60.6021 -1.18246 1.0419 0
M  V30 606 C 61.8271 -1.92736 0.765996 0
M  V30 607 C 62.2521 -1.75728 -0.67091 0
M  V30 608 O 61.6101 -1.06825 -1.46486 0
M  V30 609 C 61.6581 -3.42148 1.13875 0
M  V30 610 O 60.7621 -4.11548 0.264954 0
M  V30 611 H 60.1031 -0.601238 0.281797 0
M  V30 612 H 62.6331 -1.49942 1.39207 0
M  V30 613 H 62.6431 -3.92858 1.1012 0
M  V30 614 H 61.3181 -3.53848 2.18551 0
M  V30 615 H 59.8951 -3.71137 0.362226 0
M  V30 616 N 62.0802 -0.821533 -1.34494 0
M  V30 617 C 63.0272 -0.240397 -2.29545 0
M  V30 618 C 63.9972 0.634031 -1.53523 0
M  V30 619 O 65.1822 0.575966 -1.81899 0
M  V30 620 C 62.3222 0.592869 -3.39969 0
M  V30 621 C 61.4352 -0.30365 -4.30932 0
M  V30 622 C 60.5702 0.539049 -5.28458 0
M  V30 623 C 59.6092 -0.356942 -6.11058 0
M  V30 624 N 58.7462 0.446603 -7.00678 0
M  V30 625 H 63.5862 -1.05632 -2.7865 0
M  V30 626 H 61.1232 -0.532413 -1.37127 0
M  V30 627 H 63.0812 1.09129 -4.02675 0
M  V30 628 H 61.7112 1.37392 -2.92102 0
M  V30 629 H 60.7632 -0.920276 -3.691 0
M  V30 630 H 62.0752 -0.992661 -4.88823 0
M  V30 631 H 61.2292 1.102 -5.96608 0
M  V30 632 H 59.9682 1.26157 -4.71101 0
M  V30 633 H 58.9732 -0.932047 -5.41842 0
M  V30 634 H 60.1982 -1.07755 -6.70497 0
M  V30 635 H 58.1442 1.15282 -6.45791 0
M  V30 636 H 58.0612 -0.184048 -7.55776 0
M  V30 637 H 59.3292 0.992352 -7.73158 0
M  V30 638 N 63.5583 1.46682 -0.576371 0
M  V30 639 C 64.7863 2.06798 -0.0649635 0
M  V30 640 C 65.2013 1.42612 1.23723 0
M  V30 641 O 64.5583 0.529203 1.74659 0
M  V30 642 C 64.6093 3.6132 0.114202 0
M  V30 643 O 64.3303 4.23104 -1.13644 0
M  V30 644 C 65.8313 4.38349 0.66069 0
M  V30 645 H 63.0513 0.668778 -0.0545616 0
M  V30 646 H 65.5953 1.88404 -0.795237 0
M  V30 647 H 63.7503 3.79162 0.794673 0
M  V30 648 H 64.1643 5.15894 -0.946253 0
M  V30 649 H 65.6383 5.47081 0.73526 0
M  V30 650 H 66.1153 4.05953 1.67627 0
M  V30 651 H 66.7213 4.25297 0.0152951 0
M  V30 652 N 65.0364 0.313813 1.54444 0
M  V30 653 C 65.9834 -0.55655 2.23989 0
M  V30 654 C 66.9534 -1.11943 1.22711 0
M  V30 655 O 68.1384 -1.16158 1.51367 0
M  V30 656 C 65.2784 -1.71635 2.99392 0
M  V30 657 C 64.3914 -1.18364 4.15468 0
M  V30 658 C 63.5264 -2.30834 4.78424 0
M  V30 659 C 62.5654 -1.74762 5.86622 0
M  V30 660 N 61.7024 -2.80855 6.43479 0
M  V30 661 H 66.5424 0.0430893 2.97969 0
M  V30 662 H 64.0794 0.0330359 1.47063 0
M  V30 663 H 66.0374 -2.39868 3.41349 0
M  V30 664 H 64.6674 -2.28742 2.27765 0
M  V30 665 H 63.7194 -0.393163 3.78363 0
M  V30 666 H 65.0314 -0.733262 4.93381 0
M  V30 667 H 64.1854 -3.0699 5.23299 0
M  V30 668 H 62.9244 -2.79204 3.99871 0
M  V30 669 H 61.9294 -0.970995 5.41158 0
M  V30 670 H 63.1544 -1.2728 6.67066 0
M  V30 671 H 61.1004 -3.28535 5.67804 0
M  V30 672 H 61.0174 -2.40351 7.16776 0
M  V30 673 H 62.2854 -3.5687 6.93011 0
M  V30 674 N 66.5145 -1.57545 0.0417849 0
M  V30 675 C 67.4245 -2.14451 -0.951213 0
M  V30 676 C 68.4405 -1.09992 -1.34825 0
M  V30 677 O 69.6165 -1.42114 -1.42708 0
M  V30 678 C 66.6815 -2.67063 -2.21084 0
M  V30 679 C 65.7425 -3.86284 -1.87304 0
M  V30 680 C 64.9755 -4.36378 -3.07261 0
M  V30 681 O 65.1985 -3.85587 -4.20332 0
M  V30 682 O 64.1325 -5.28077 -2.88822 0
M  V30 683 H 67.9585 -2.99601 -0.497287 0
M  V30 684 H 65.5435 -1.48317 -0.179567 0
M  V30 685 H 67.4255 -3.00914 -2.95006 0
M  V30 686 H 66.1005 -1.84989 -2.65633 0
M  V30 687 H 65.0075 -3.57338 -1.10727 0
M  V30 688 H 66.3405 -4.6956 -1.47562 0
M  V30 689 N 67.9926 0.231505 -1.5589 0
M  V30 690 C 69.2406 0.955461 -1.78088 0
M  V30 691 C 69.5616 1.85262 -0.608533 0
M  V30 692 O 68.8316 1.92277 0.375035 0
M  V30 693 H 67.4116 0.355787 -0.656829 0
M  V30 694 H 70.0736 0.245751 -1.93344 0
M  V30 695 H 69.1696 1.56814 -2.69844 0
M  V30 696 N 69.4707 1.49531 0.497807 0
M  V30 697 C 70.7167 1.59415 1.25358 0
M  V30 698 C 71.0497 0.281422 1.9215 0
M  V30 699 O 70.3247 -0.715249 1.80871 0
M  V30 700 C 70.6077 2.75566 2.3181 0
M  V30 701 C 70.4607 4.16642 1.69498 0
M  V30 702 C 71.7797 2.87347 3.33346 0
M  V30 703 H 68.8987 0.580244 0.454408 0
M  V30 704 H 71.5407 1.81827 0.551262 0
M  V30 705 H 69.6907 2.56587 2.91711 0
M  V30 706 H 71.3627 4.47145 1.13399 0
M  V30 707 H 69.6057 4.22141 0.998978 0
M  V30 708 H 70.2767 4.93792 2.46725 0
M  V30 709 H 72.7527 3.04634 2.83438 0
M  V30 710 H 71.6287 3.70289 4.05188 0
M  V30 711 H 71.8897 1.96834 3.95865 0
M  V30 712 N 70.9488 -0.749086 1.3866 0
M  V30 713 C 72.1948 -1.51056 1.35314 0
M  V30 714 C 72.5278 -1.94121 -0.0553751 0
M  V30 715 O 71.8028 -1.65763 -1.01749 0
M  V30 716 C 72.0858 -2.76003 2.31288 0
M  V30 717 C 71.9388 -2.39047 3.8102 0
M  V30 718 C 73.2578 -3.78046 2.2532 0
M  V30 719 H 70.3768 -0.547972 0.492844 0
M  V30 720 H 73.0188 -0.857628 1.69543 0
M  V30 721 H 71.1688 -3.31716 2.02229 0
M  V30 722 H 72.8408 -1.89074 4.20771 0
M  V30 723 H 71.0838 -1.71449 3.98482 0
M  V30 724 H 71.7548 -3.28462 4.4364 0
M  V30 725 H 74.2308 -3.31884 2.50983 0
M  V30 726 H 73.1068 -4.63159 2.94576 0
M  V30 727 H 73.3678 -4.23957 1.25352 0
M  V30 728 N 72.4269 -1.23603 -0.977757 0
M  V30 729 C 73.3769 -0.986664 -2.05545 0
M  V30 730 C 74.3609 0.0683009 -1.60755 0
M  V30 731 O 75.5529 -0.144162 -1.76412 0
M  V30 732 C 72.6819 -0.582623 -3.3832 0
M  V30 733 C 71.7679 -1.67313 -3.89701 0
M  V30 734 N 72.1589 -2.90394 -4.14132 0
M  V30 735 C 70.4569 -1.54832 -4.18262 0
M  V30 736 C 71.1579 -3.61017 -4.56116 0
M  V30 737 N 70.1339 -2.8854 -4.60701 0
M  V30 738 H 73.9359 -1.92139 -2.22396 0
M  V30 739 H 71.4499 -1.1358 -1.16074 0
M  V30 740 H 73.4469 -0.38524 -4.15116 0
M  V30 741 H 72.1069 0.34503 -3.22862 0
M  V30 742 H 73.1179 -3.26673 -4.01877 0
M  V30 743 H 69.7949 -0.687969 -4.11793 0
M  V30 744 H 71.1849 -4.66544 -4.83514 0
M  V30 745 N 73.905 1.17692 -1.04816 0
M  V30 746 C 75.153 1.87488 -0.754497 0
M  V30 747 C 75.474 1.81205 0.720407 0
M  V30 748 O 74.744 1.23544 1.52032 0
M  V30 749 H 73.324 0.694101 -0.276102 0
M  V30 750 H 75.986 1.42793 -1.32651 0
M  V30 751 H 75.082 2.93328 -1.06606 0
M  V30 752 N 75.3831 0.828654 1.34056 0
M  V30 753 C 76.6291 0.42008 1.98402 0
M  V30 754 C 76.9621 -1.01564 1.65525 0
M  V30 755 O 76.2371 -1.70834 0.929831 0
M  V30 756 C 76.5201 0.62927 3.54559 0
M  V30 757 C 76.3731 2.11152 3.97159 0
M  V30 758 C 77.6921 0.0688756 4.40046 0
M  V30 759 H 74.8111 0.154104 0.720709 0
M  V30 760 H 77.4531 1.04228 1.5886 0
M  V30 761 H 75.6031 0.0996418 3.88372 0
M  V30 762 H 77.2751 2.70522 3.73651 0
M  V30 763 H 75.5181 2.59985 3.47261 0
M  V30 764 H 76.1891 2.20868 5.05887 0
M  V30 765 H 78.6651 0.521458 4.1282 0
M  V30 766 H 77.5411 0.245006 5.48353 0
M  V30 767 H 77.8021 -1.0266 4.30015 0
M  V30 768 N 76.8612 -1.46375 0.584142 0
M  V30 769 C 77.8242 -2.28784 -0.138108 0
M  V30 770 C 78.8242 -1.38471 -0.817462 0
M  V30 771 O 80.0142 -1.60833 -0.669199 0
M  V30 772 C 77.1462 -3.18892 -1.20503 0
M  V30 773 H 78.3392 -2.94117 0.586127 0
M  V30 774 H 75.8922 -1.52509 0.342171 0
M  V30 775 H 76.6272 -2.58309 -1.96079 0
M  V30 776 H 76.4122 -3.85388 -0.722384 0
M  V30 777 H 77.9022 -3.80914 -1.71155 0
M  V30 778 N 78.3393 -0.321999 -1.54275 0
M  V30 779 C 79.5673 0.283052 -2.04955 0
M  V30 780 C 79.9823 1.45904 -1.19823 0
M  V30 781 O 79.3393 1.81063 -0.228545 0
M  V30 782 C 79.3903 0.719028 -3.54277 0
M  V30 783 O 79.1113 -0.410175 -4.36176 0
M  V30 784 C 80.6123 1.38705 -4.21041 0
M  V30 785 H 77.8323 0.0584616 -0.668448 0
M  V30 786 H 80.3763 -0.467734 -1.99079 0
M  V30 787 H 78.5313 1.41979 -3.60445 0
M  V30 788 H 78.9453 -0.0669416 -5.24457 0
M  V30 789 H 80.4193 1.64306 -5.2698 0
M  V30 790 H 80.8963 2.33385 -3.72059 0
M  V30 791 H 81.5023 0.728906 -4.19007 0
M  V30 792 N 79.8174 1.5752 -0.0501392 0
M  V30 793 C 81.0634 1.92936 0.624798 0
M  V30 794 C 81.3964 0.928685 1.70555 0
M  V30 795 O 80.6714 -0.0454779 1.94447 0
M  V30 796 C 80.9544 3.38737 1.22185 0
M  V30 797 C 80.8074 4.49552 0.149218 0
M  V30 798 C 82.1264 3.84913 2.13378 0
M  V30 799 H 79.2454 0.701604 0.225657 0
M  V30 800 H 81.8874 1.89671 -0.111693 0
M  V30 801 H 80.0374 3.4165 1.84953 0
M  V30 802 H 81.7094 4.58768 -0.482648 0
M  V30 803 H 79.9524 4.30638 -0.522841 0
M  V30 804 H 80.6234 5.48653 0.606966 0
M  V30 805 H 83.0994 3.8387 1.60572 0
M  V30 806 H 81.9754 4.87584 2.52097 0
M  V30 807 H 82.2364 3.21611 3.03346 0
M  V30 808 N 81.2955 -0.223234 1.56011 0
M  V30 809 C 82.2585 -1.26014 1.9145 0
M  V30 810 C 83.2585 -1.3989 0.792937 0
M  V30 811 O 84.4485 -1.38184 1.0607 0
M  V30 812 C 81.5805 -2.63422 2.16383 0
M  V30 813 H 82.7735 -0.95796 2.84189 0
M  V30 814 H 80.3265 -0.463576 1.49267 0
M  V30 815 H 81.0615 -2.98741 1.2619 0
M  V30 816 H 80.8465 -2.54728 2.98088 0
M  V30 817 H 82.3365 -3.38249 2.44903 0
M  V30 818 N 82.7736 -1.49793 -0.48987 0
M  V30 819 C 83.6836 -1.70036 -1.61632 0
M  V30 820 C 84.6996 -0.583102 -1.63939 0
M  V30 821 O 85.8756 -0.859169 -1.82154 0
M  V30 822 C 82.9406 -1.77277 -2.97949 0
M  V30 823 C 82.0016 -3.00918 -3.06181 0
M  V30 824 C 81.2346 -3.07804 -4.35996 0
M  V30 825 O 81.4576 -2.21982 -5.25433 0
M  V30 826 O 80.3916 -4.00369 -4.49431 0
M  V30 827 H 84.2176 -2.65486 -1.47482 0
M  V30 828 H 81.8026 -1.33666 -0.667362 0
M  V30 829 H 83.6846 -1.84329 -3.78947 0
M  V30 830 H 82.3596 -0.850076 -3.12339 0
M  V30 831 H 81.2666 -2.99377 -2.2433 0
M  V30 832 H 82.5996 -3.92704 -2.96723 0
M  V30 833 N 84.2517 0.741722 -1.39055 0
M  V30 834 C 85.1987 1.85566 -1.37237 0
M  V30 835 C 86.1687 1.64457 -0.233072 0
M  V30 836 O 87.3537 1.85957 -0.427147 0
M  V30 837 C 84.4937 3.23004 -1.215 0
M  V30 838 C 83.6067 3.55864 -2.44918 0
M  V30 839 C 82.7417 4.82669 -2.21821 0
M  V30 840 C 81.7807 5.08351 -3.40948 0
M  V30 841 N 80.9177 6.26356 -3.17211 0
M  V30 842 H 85.7577 1.86455 -2.32462 0
M  V30 843 H 83.2947 0.911176 -1.15482 0
M  V30 844 H 85.2527 4.02331 -1.10389 0
M  V30 845 H 83.8827 3.21411 -0.29908 0
M  V30 846 H 82.9347 2.7129 -2.66657 0
M  V30 847 H 84.2467 3.70765 -3.33668 0
M  V30 848 H 83.4007 5.69962 -2.07914 0
M  V30 849 H 82.1397 4.69929 -1.30454 0
M  V30 850 H 81.1447 4.19522 -3.55361 0
M  V30 851 H 82.3697 5.22981 -4.33207 0
M  V30 852 H 80.3157 6.14917 -2.28502 0
M  V30 853 H 80.2327 6.41813 -3.99515 0
M  V30 854 H 81.5007 7.16506 -3.06984 0
M  V30 855 N 85.7298 1.2412 0.971189 0
M  V30 856 C 86.9578 1.10575 1.74874 0
M  V30 857 C 87.3728 -0.342017 1.85676 0
M  V30 858 O 86.7298 -1.23617 1.34258 0
M  V30 859 C 86.7808 1.73579 3.171 0
M  V30 860 O 86.5018 3.12695 3.06844 0
M  V30 861 C 88.0028 1.65598 4.11208 0
M  V30 862 H 85.2228 0.386504 0.548503 0
M  V30 863 H 87.7668 1.64156 1.21955 0
M  V30 864 H 85.9218 1.24009 3.67016 0
M  V30 865 H 86.3358 3.43412 3.96445 0
M  V30 866 H 87.8098 2.1437 5.08674 0
M  V30 867 H 88.2868 0.616532 4.34851 0
M  V30 868 H 88.8928 2.14578 3.67201 0
M  V30 869 N 87.2079 -1.17134 1.05439 0
M  V30 870 C 88.1549 -2.21235 0.657539 0
M  V30 871 C 89.1249 -1.62551 -0.341543 0
M  V30 872 O 90.3099 -1.89379 -0.232393 0
M  V30 873 C 87.4499 -3.45076 0.0410575 0
M  V30 874 C 86.5629 -4.18042 1.08927 0
M  V30 875 C 85.6979 -5.29376 0.439848 0
M  V30 876 C 84.7369 -5.94132 1.4722 0
M  V30 877 N 83.8739 -6.96975 0.846756 0
M  V30 878 H 88.7139 -2.54534 1.54972 0
M  V30 879 H 86.2509 -1.25028 0.775006 0
M  V30 880 H 88.2089 -4.15862 -0.33383 0
M  V30 881 H 86.8389 -3.12353 -0.814568 0
M  V30 882 H 85.8909 -3.45945 1.58196 0
M  V30 883 H 87.2029 -4.62306 1.87282 0
M  V30 884 H 86.3569 -6.06699 0.0115125 0
M  V30 885 H 85.0959 -4.86251 -0.375656 0
M  V30 886 H 84.1009 -5.15538 1.91052 0
M  V30 887 H 85.3259 -6.39337 2.28965 0
M  V30 888 H 83.2719 -6.5598 0.0518075 0
M  V30 889 H 83.1889 -7.39565 1.5678 0
M  V30 890 H 84.4569 -7.78239 0.443277 0
M  V30 891 N 88.686 -0.835752 -1.33615 0
M  V30 892 C 89.596 -0.269088 -2.33052 0
M  V30 893 C 90.612 0.603251 -1.63208 0
M  V30 894 O 91.788 0.508112 -1.94885 0
M  V30 895 C 88.853 0.549091 -3.42324 0
M  V30 896 C 87.914 -0.347156 -4.27894 0
M  V30 897 C 87.147 0.43207 -5.31948 0
M  V30 898 O 87.37 1.66409 -5.45586 0
M  V30 899 O 86.304 -0.192298 -6.01593 0
M  V30 900 H 90.13 -1.09243 -2.83372 0
M  V30 901 H 87.715 -0.598198 -1.36901 0
M  V30 902 H 89.597 1.01414 -4.09015 0
M  V30 903 H 88.272 1.34955 -2.94226 0
M  V30 904 H 87.179 -0.859979 -3.64081 0
M  V30 905 H 88.512 -1.1123 -4.79467 0
M  V30 906 N 90.1641 1.46063 -0.591896 0
M  V30 907 C 91.0961 2.28539 0.174001 0
M  V30 908 C 92.1091 1.39047 0.846753 0
M  V30 909 O 93.2981 1.63564 0.714774 0
M  V30 910 C 90.3981 3.14347 1.26645 0
M  V30 911 C 89.5711 4.32021 0.683856 0
M  V30 912 C 88.6301 4.99157 1.66518 0
M  V30 913 O 87.6561 5.56458 1.19763 0
M  V30 914 N 88.8581 4.97005 2.99943 0
M  V30 915 H 91.6231 2.94911 -0.533633 0
M  V30 916 H 89.1841 1.56077 -0.430294 0
M  V30 917 H 91.1761 3.56125 1.92242 0
M  V30 918 H 89.7461 2.49988 1.87682 0
M  V30 919 H 88.9661 3.93915 -0.1498 0
M  V30 920 H 90.2541 5.08059 0.274567 0
M  V30 921 H 89.6521 4.51714 3.40545 0
M  V30 922 H 88.2091 5.42696 3.61004 0
M  V30 923 N 91.6422 0.330177 1.54103 0
M  V30 924 C 92.8882 -0.270806 2.00984 0
M  V30 925 C 93.2212 -1.51265 1.21789 0
M  V30 926 O 92.4962 -1.92142 0.301927 0
M  V30 927 C 92.7792 -0.598339 3.55094 0
M  V30 928 C 92.6322 0.654674 4.4501 0
M  V30 929 C 93.9512 -1.41334 4.16789 0
M  V30 930 H 91.0702 -0.0969531 0.730595 0
M  V30 931 H 93.7122 0.448066 1.84641 0
M  V30 932 H 91.8622 -1.21078 3.69151 0
M  V30 933 H 93.5342 1.29285 4.42813 0
M  V30 934 H 91.7772 1.28224 4.14416 0
M  V30 935 H 92.4482 0.380944 5.50684 0
M  V30 936 H 94.9242 -0.895597 4.06347 0
M  V30 937 H 93.8002 -1.61127 5.24718 0
M  V30 938 H 94.0612 -2.41146 3.70541 0
M  V30 939 N 93.1203 -1.57491 0.0584922 0
M  V30 940 C 94.3483 -1.97296 -0.623037 0
M  V30 941 C 94.7633 -0.936338 -1.63946 0
M  V30 942 O 94.1203 0.0785981 -1.82331 0
M  V30 943 C 94.1713 -3.37183 -1.30345 0
M  V30 944 O 93.8923 -4.36872 -0.32773 0
M  V30 945 C 95.3933 -3.91788 -2.07406 0
M  V30 946 H 92.6133 -0.649153 -0.169826 0
M  V30 947 H 95.1573 -2.04106 0.12696 0
M  V30 948 H 93.3123 -3.31502 -2.00463 0
M  V30 949 H 93.7263 -5.18141 -0.814269 0
M  V30 950 H 95.2003 -4.91926 -2.50425 0
M  V30 951 H 95.6773 -3.27609 -2.92521 0
M  V30 952 H 96.2833 -4.00829 -1.42184 0
M  V30 953 N 94.5984 0.214957 -1.56127 0
M  V30 954 C 95.5464 1.28601 -1.93816 0
M  V30 955 C 96.5404 1.48175 -0.821016 0
M  V30 956 O 97.7464 1.49271 -1.0059 0
M  V30 957 H 94.1214 0.431302 -0.616022 0
M  V30 958 H 96.0924 0.940991 -2.83175 0
M  V30 959 C 94.8414 2.62779 -2.27689 0
M  V30 960 H 94.1644 2.48527 -3.13168 0
M  V30 961 H 95.6044 3.36517 -2.57939 0
M  V30 962 C 94.0634 3.18285 -1.10436 0
M  V30 963 O 94.5934 4.00002 -0.368945 0
M  V30 964 N 92.7994 2.7675 -0.886433 0
M  V30 965 H 92.3464 2.10404 -1.48619 0
M  V30 966 H 92.3044 3.14229 -0.103656 0
M  V30 967 N 96.0765 1.50051 0.48192 0
M  V30 968 C 97.3225 1.60736 1.2366 0
M  V30 969 C 97.6555 0.301786 1.91841 0
M  V30 970 O 96.9305 -0.696025 1.8162 0
M  V30 971 C 97.2135 2.78009 2.28874 0
M  V30 972 C 97.0665 4.18416 1.65069 0
M  V30 973 C 98.3855 2.90867 3.30279 0
M  V30 974 H 95.5045 0.585031 0.448228 0
M  V30 975 H 98.1465 1.82402 0.531946 0
M  V30 976 H 96.2965 2.59667 2.88973 0
M  V30 977 H 97.9685 4.48322 1.0865 0
M  V30 978 H 96.2115 4.23177 0.954148 0
M  V30 979 H 96.8825 4.96381 2.41474 0
M  V30 980 H 99.3585 3.07623 2.80191 0
M  V30 981 H 98.2345 3.74566 4.01238 0
M  V30 982 H 98.4955 2.01021 3.93755 0
M  V30 983 N 97.5546 -0.734337 1.39446 0
M  V30 984 C 98.8026 -1.49096 1.36436 0
M  V30 985 C 99.1236 -1.94961 -0.0388255 0
M  V30 986 O 98.3936 -1.69033 -0.990191 0
M  V30 987 H 96.9736 -0.5531 0.502085 0
M  V30 988 H 99.6356 -0.871725 1.74319 0
M  V30 989 H 98.7316 -2.37276 2.02747 0
M  V30 990 N 99.0327 -1.24633 -0.964593 0
M  V30 991 C 100.281 -1.08573 -1.70459 0
M  V30 992 C 100.602 0.375655 -1.91347 0
M  V30 993 O 99.8717 1.26779 -1.49345 0
M  V30 994 H 98.4517 -0.398784 -0.631649 0
M  V30 995 H 101.114 -1.56601 -1.16026 0
M  V30 996 H 100.21 -1.58623 -2.68785 0
M  V30 997 N 100.511 1.16574 -1.06058 0
M  V30 998 C 101.474 2.19085 -0.673392 0
M  V30 999 C 102.474 1.5835 0.279648 0
M  V30 1000 O 103.664 1.74088 0.0623488 0
M  V30 1001 C 100.796 3.40899 0.00954234 0
M  V30 1002 H 101.989 2.54853 -1.58081 0
M  V30 1003 H 99.5418 1.30808 -0.855516 0
M  V30 1004 H 100.277 3.10684 0.929826 0
M  V30 1005 H 100.062 3.86233 -0.67573 0
M  V30 1006 H 101.552 4.1675 0.266245 0
M  V30 1007 N 101.989 0.842826 1.3317 0
M  V30 1008 C 103.235 0.441099 1.97945 0
M  V30 1009 C 103.568 -0.998024 1.66593 0
M  V30 1010 O 102.843 -1.69839 0.947898 0
M  V30 1011 C 103.126 0.666841 3.53872 0
M  V30 1012 C 102.979 2.15352 3.94897 0
M  V30 1013 C 104.298 0.115544 4.39948 0
M  V30 1014 H 101.417 0.161739 0.719034 0
M  V30 1015 H 104.059 1.05907 1.57746 0
M  V30 1016 H 102.209 0.140828 3.88245 0
M  V30 1017 H 103.881 2.7447 3.70761 0
M  V30 1018 H 102.124 2.63653 3.44484 0
M  V30 1019 H 102.795 2.26221 5.03516 0
M  V30 1020 H 105.271 0.565213 4.12243 0
M  V30 1021 H 104.147 0.303152 5.48062 0
M  V30 1022 H 104.408 -0.980935 4.3108 0
M  V30 1023 N 103.467 -1.45747 0.599634 0
M  V30 1024 C 104.713 -2.02592 0.0918643 0
M  V30 1025 C 105.046 -1.46806 -1.27128 0
M  V30 1026 O 104.321 -0.639658 -1.83681 0
M  V30 1027 C 104.604 -3.60073 0.0443398 0
M  V30 1028 C 104.457 -4.26208 1.43759 0
M  V30 1029 C 105.776 -4.35309 -0.647608 0
M  V30 1030 H 102.895 -0.736175 0.034857 0
M  V30 1031 H 105.537 -1.73694 0.770081 0
M  V30 1032 H 103.687 -3.84823 -0.533224 0
M  V30 1033 H 105.359 -4.12668 2.06162 0
M  V30 1034 H 103.602 -3.84916 2.00056 0
M  V30 1035 H 104.273 -5.35069 1.35665 0
M  V30 1036 H 106.749 -4.15805 -0.156776 0
M  V30 1037 H 105.625 -5.45038 -0.649942 0
M  V30 1038 H 105.886 -4.07598 -1.71219 0
M  V30 1039 N 104.945 -0.338344 -1.53925 0
M  V30 1040 C 106.173 0.261298 -2.05243 0
M  V30 1041 C 106.588 1.44625 -1.21363 0
M  V30 1042 O 105.945 1.80811 -0.247736 0
M  V30 1043 C 105.996 0.681412 -3.5502 0
M  V30 1044 O 105.717 -0.456414 -4.35716 0
M  V30 1045 C 107.218 1.34232 -4.22489 0
M  V30 1046 H 104.438 0.0513685 -0.669031 0
M  V30 1047 H 106.982 -0.488822 -1.98572 0
M  V30 1048 H 105.137 1.38148 -3.61931 0
M  V30 1049 H 105.551 -0.122564 -5.24357 0
M  V30 1050 H 107.025 1.58708 -5.28693 0
M  V30 1051 H 107.502 2.29426 -3.74514 0
M  V30 1052 H 108.108 0.684424 -4.19757 0
M  V30 1053 N 106.423 1.57458 -0.0668435 0
M  V30 1054 C 107.671 1.92919 0.602214 0
M  V30 1055 C 107.992 0.947215 1.70449 0
M  V30 1056 O 107.262 -0.00544117 1.95899 0
M  V30 1057 H 105.842 0.71217 0.22544 0
M  V30 1058 H 108.504 1.94508 -0.123535 0
M  V30 1059 H 107.6 2.94589 1.03073 0
M  V30 1060 N 107.901 -0.206675 1.56239 0
M  V30 1061 C 109.147 -0.930218 1.80208 0
M  V30 1062 C 109.48 -1.83387 0.638981 0
M  V30 1063 O 108.755 -1.91119 -0.361066 0
M  V30 1064 C 109.038 -1.75641 3.1436 0
M  V30 1065 C 108.891 -0.878257 4.41142 0
M  V30 1066 C 110.21 -2.73129 3.45092 0
M  V30 1067 H 107.329 -0.336742 0.655571 0
M  V30 1068 H 109.971 -0.198222 1.88963 0
M  V30 1069 H 108.121 -2.38048 3.07027 0
M  V30 1070 H 109.793 -0.269787 4.6051 0
M  V30 1071 H 108.036 -0.184385 4.33408 0
M  V30 1072 H 108.707 -1.49106 5.3148 0
M  V30 1073 H 111.183 -2.20856 3.52649 0
M  V30 1074 H 110.059 -3.28028 4.40101 0
M  V30 1075 H 110.32 -3.51606 2.68003 0
M  V30 1076 N 109.379 -1.50304 -0.473955 0
M  V30 1077 C 110.607 -1.64902 -1.24959 0
M  V30 1078 C 111.022 -0.331198 -1.85872 0
M  V30 1079 O 110.379 0.68652 -1.69095 0
M  V30 1080 C 110.43 -2.73803 -2.36038 0
M  V30 1081 O 110.151 -4.00477 -1.77624 0
M  V30 1082 C 111.652 -2.99349 -3.26964 0
M  V30 1083 H 108.872 -0.554383 -0.378022 0
M  V30 1084 H 111.416 -1.9651 -0.566054 0
M  V30 1085 H 109.571 -2.44898 -3.00173 0
M  V30 1086 H 109.985 -4.60678 -2.5075 0
M  V30 1087 H 111.459 -3.79217 -4.01121 0
M  V30 1088 H 111.936 -2.10307 -3.85574 0
M  V30 1089 H 112.542 -3.29774 -2.68569 0
M  V30 1090 N 110.857 0.726932 -1.39834 0
M  V30 1091 C 111.82 1.82269 -1.38962 0
M  V30 1092 C 112.82 1.58248 -0.285334 0
M  V30 1093 O 114.01 1.65499 -0.54366 0
M  V30 1094 C 111.142 3.20186 -1.17019 0
M  V30 1095 H 112.335 1.84443 -2.36476 0
M  V30 1096 H 109.888 0.931416 -1.25516 0
M  V30 1097 H 110.623 3.23669 -0.202204 0
M  V30 1098 H 110.408 3.3902 -1.96998 0
M  V30 1099 H 111.898 4.00235 -1.1917 0
M  V30 1100 N 112.336 1.25143 0.95797 0
M  V30 1101 C 113.582 1.09855 1.70469 0
M  V30 1102 C 113.915 -0.360187 1.90831 0
M  V30 1103 O 113.19 -1.26568 1.47685 0
M  V30 1104 C 113.473 1.8497 3.08963 0
M  V30 1105 C 113.326 3.38652 2.96032 0
M  V30 1106 C 114.645 1.63016 4.08795 0
M  V30 1107 H 111.764 0.400465 0.618706 0
M  V30 1108 H 114.406 1.53933 1.11376 0
M  V30 1109 H 112.556 1.47505 3.59409 0
M  V30 1110 H 114.228 3.85772 2.52938 0
M  V30 1111 H 112.471 3.66534 2.32025 0
M  V30 1112 H 113.142 3.8642 3.94187 0
M  V30 1113 H 115.618 1.95625 3.67247 0
M  V30 1114 H 114.494 2.18015 5.03747 0
M  V30 1115 H 114.755 0.570692 4.38401 0
M  V30 1116 N 113.814 -1.1601 1.06675 0
M  V30 1117 C 114.777 -2.18724 0.685001 0
M  V30 1118 C 115.777 -1.58496 -0.271246 0
M  V30 1119 O 116.967 -1.74119 -0.0531156 0
M  V30 1120 C 114.099 -3.40899 0.00853648 0
M  V30 1121 H 115.292 -2.54011 1.59431 0
M  V30 1122 H 112.845 -1.30352 0.862441 0
M  V30 1123 H 113.58 -3.11173 -0.913337 0
M  V30 1124 H 113.365 -3.8587 0.696204 0
M  V30 1125 H 114.855 -4.16886 -0.24414 0
M  V30 1126 N 115.292 -0.849877 -1.32721 0
M  V30 1127 C 116.224 -0.248332 -2.27851 0
M  V30 1128 C 117.237 0.577218 -1.52224 0
M  V30 1129 O 118.426 0.402489 -1.73903 0
M  V30 1130 C 115.526 0.668107 -3.32249 0
M  V30 1131 C 114.699 -0.120534 -4.37234 0
M  V30 1132 C 113.758 0.720932 -5.21238 0
M  V30 1133 O 112.784 0.156166 -5.68986 0
M  V30 1134 N 113.986 2.03647 -5.43607 0
M  V30 1135 H 116.751 -1.06575 -2.80111 0
M  V30 1136 H 114.312 -0.709395 -1.45531 0
M  V30 1137 H 116.304 1.23627 -3.85355 0
M  V30 1138 H 114.874 1.38621 -2.80184 0
M  V30 1139 H 114.094 -0.870108 -3.84477 0
M  V30 1140 H 115.382 -0.662406 -5.0447 0
M  V30 1141 H 114.78 2.51871 -5.06535 0
M  V30 1142 H 113.337 2.55287 -5.99727 0
M  V30 1143 N 116.77 1.45427 -0.607355 0
M  V30 1144 C 117.717 2.3053 0.111625 0
M  V30 1145 C 118.687 1.4209 0.860216 0
M  V30 1146 O 119.872 1.71019 0.845998 0
M  V30 1147 C 117.012 3.26992 1.10319 0
M  V30 1148 C 116.125 4.30535 0.355493 0
M  V30 1149 C 115.26 5.14105 1.33676 0
M  V30 1150 C 114.299 6.09376 0.576862 0
M  V30 1151 N 113.436 6.85727 1.5074 0
M  V30 1152 H 118.276 2.91477 -0.620093 0
M  V30 1153 H 115.813 1.43631 -0.317594 0
M  V30 1154 H 117.771 3.81385 1.6912 0
M  V30 1155 H 116.401 2.67799 1.80232 0
M  V30 1156 H 115.453 3.78805 -0.348023 0
M  V30 1157 H 116.765 4.98235 -0.237423 0
M  V30 1158 H 115.919 5.72897 1.99684 0
M  V30 1159 H 114.658 4.46423 1.9636 0
M  V30 1160 H 113.663 5.49715 -0.0968519 0
M  V30 1161 H 114.888 6.79085 -0.0449341 0
M  V30 1162 H 112.834 6.20735 2.12189 0
M  V30 1163 H 112.751 7.49778 0.967913 0
M  V30 1164 H 114.019 7.4906 2.15706 0
M  V30 1165 N 118.248 0.346503 1.53744 0
M  V30 1166 C 119.476 -0.25041 2.05379 0
M  V30 1167 C 119.891 -1.43979 1.22129 0
M  V30 1168 O 119.248 -1.80677 0.257321 0
M  V30 1169 C 119.299 -0.662575 3.55376 0
M  V30 1170 O 119.02 0.479515 4.35468 0
M  V30 1171 C 120.521 -1.31989 4.23195 0
M  V30 1172 H 117.741 -0.0478198 0.669294 0
M  V30 1173 H 120.285 0.499346 1.9831 0
M  V30 1174 H 118.44 -1.36227 3.62658 0
M  V30 1175 H 118.854 0.15037 5.24284 0
M  V30 1176 H 120.328 -1.55902 5.29527 0
M  V30 1177 H 120.805 -2.27436 3.75725 0
M  V30 1178 H 121.411 -0.662154 4.20114 0
M  V30 1179 N 119.726 -1.57421 0.075193 0
M  V30 1180 C 120.972 -1.93905 -0.594025 0
M  V30 1181 C 121.305 -0.955701 -1.69056 0
M  V30 1182 O 120.58 0.0145373 -1.94495 0
M  V30 1183 C 120.863 -3.40638 -1.1678 0
M  V30 1184 C 120.716 -4.49733 -0.0776792 0
M  V30 1185 C 122.035 -3.88259 -2.07228 0
M  V30 1186 H 119.154 -0.705105 -0.214466 0
M  V30 1187 H 121.796 -1.8947 0.141854 0
M  V30 1188 H 119.946 -3.44549 -1.79494 0
M  V30 1189 H 121.618 -4.57942 0.555573 0
M  V30 1190 H 119.861 -4.29751 0.591286 0
M  V30 1191 H 120.532 -5.49549 -0.519603 0
M  V30 1192 H 123.008 -3.86376 -1.54445 0
M  V30 1193 H 121.884 -4.91533 -2.44308 0
M  V30 1194 H 122.145 -3.26396 -2.98191 0
M  V30 1195 N 121.204 0.198386 -1.56346 0
M  V30 1196 C 122.114 1.2664 -1.97483 0
M  V30 1197 C 123.13 1.49989 -0.882002 0
M  V30 1198 O 124.306 1.62668 -1.18748 0
M  V30 1199 C 121.371 2.59141 -2.30319 0
M  V30 1200 C 120.432 2.43892 -3.53292 0
M  V30 1201 C 119.665 3.70074 -3.84553 0
M  V30 1202 O 119.888 4.74101 -3.1715 0
M  V30 1203 O 118.822 3.658 -4.7799 0
M  V30 1204 H 122.648 0.947304 -2.88548 0
M  V30 1205 H 120.233 0.403123 -1.43859 0
M  V30 1206 H 122.115 3.37352 -2.5253 0
M  V30 1207 H 120.79 2.90684 -1.42423 0
M  V30 1208 H 119.697 1.63803 -3.36332 0
M  V30 1209 H 121.03 2.17282 -4.41644 0
M  V30 1210 N 122.682 1.50554 0.465978 0
M  V30 1211 C 123.93 1.61479 1.21528 0
M  V30 1212 C 124.251 0.319596 1.92363 0
M  V30 1213 O 123.521 -0.663194 1.84333 0
M  V30 1214 H 122.101 0.595055 0.451573 0
M  V30 1215 H 124.763 1.87355 0.53704 0
M  V30 1216 H 123.859 2.42846 1.96042 0
M  V30 1217 N 124.16 -0.719506 1.40217 0
M  V30 1218 C 125.123 -1.8153 1.39927 0
M  V30 1219 C 126.123 -1.58095 0.293723 0
M  V30 1220 O 127.313 -1.65209 0.552429 0
M  V30 1221 C 124.445 -3.19561 1.18716 0
M  V30 1222 H 125.638 -1.83186 2.37451 0
M  V30 1223 H 123.191 -0.924746 1.26008 0
M  V30 1224 H 123.926 -3.23557 0.219366 0
M  V30 1225 H 123.711 -3.3797 1.98793 0
M  V30 1226 H 125.201 -3.99598 1.21291 0
M  V30 1227 N 125.638 -1.25649 -0.95132 0
M  V30 1228 C 126.886 -1.10375 -1.69298 0
M  V30 1229 C 127.207 0.355339 -1.91735 0
M  V30 1230 O 126.477 1.25188 -1.50681 0
M  V30 1231 H 125.057 -0.405461 -0.627384 0
M  V30 1232 H 127.719 -1.57823 -1.14358 0
M  V30 1233 H 126.815 -1.61465 -2.67087 0
M  V30 1234 N 127.117 1.15442 -1.07289 0
M  V30 1235 C 128.342 1.90638 -0.816828 0
M  V30 1236 C 128.767 1.77445 0.624083 0
M  V30 1237 O 128.125 1.10671 1.43602 0
M  V30 1238 C 128.173 3.39008 -1.22906 0
M  V30 1239 O 127.277 4.10701 -0.373975 0
M  V30 1240 H 126.618 0.593555 -0.297638 0
M  V30 1241 H 129.148 1.46198 -1.43134 0
M  V30 1242 H 129.158 3.89801 -1.20497 0
M  V30 1243 H 127.833 3.47929 -2.27856 0
M  V30 1244 H 126.41 3.70046 -0.460499 0
M  V30 1245 N 128.595 0.856903 1.32268 0
M  V30 1246 C 129.844 0.457599 1.96441 0
M  V30 1247 C 130.157 -0.992426 1.68553 0
M  V30 1248 O 131.363 -1.49727 2.26482 0
M  V30 1249 C 129.819 0.767358 3.51624 0
M  V30 1250 C 129.427 2.23326 3.88367 0
M  V30 1251 C 131.171 0.435887 4.22256 0
M  V30 1252 C 129.078 2.48613 5.36606 0
M  V30 1253 H 128.008 0.167387 0.735185 0
M  V30 1254 H 130.659 1.048 1.5063 0
M  V30 1255 H 129.041 0.106367 3.95857 0
M  V30 1256 H 130.215 2.93623 3.55137 0
M  V30 1257 H 128.53 2.52948 3.30766 0
M  V30 1258 H 131.127 0.602202 5.31298 0
M  V30 1259 H 131.47 -0.622672 4.11617 0
M  V30 1260 H 132.003 1.05286 3.83614 0
M  V30 1261 H 128.742 3.53101 5.52268 0
M  V30 1262 H 128.262 1.82896 5.71235 0
M  V30 1263 H 129.941 2.32676 6.03714 0
M  V30 1264 N 130.073 -1.45103 0.615059 0
M  V30 1265 C 131.036 -2.29025 -0.0895485 0
M  V30 1266 C 132.036 -1.40174 -0.787906 0
M  V30 1267 O 133.226 -1.62217 -0.634933 0
M  V30 1268 C 130.358 -3.21376 -1.13711 0
M  V30 1269 H 131.551 -2.92807 0.648382 0
M  V30 1270 H 129.104 -1.51749 0.374444 0
M  V30 1271 H 129.839 -2.6241 -1.90556 0
M  V30 1272 H 129.624 -3.86834 -0.640475 0
M  V30 1273 H 131.114 -3.84459 -1.63036 0
M  V30 1274 N 131.551 -0.354651 -1.53558 0
M  V30 1275 C 132.514 0.484566 -2.24019 0
M  V30 1276 C 133.514 1.01861 -1.24422 0
M  V30 1277 O 134.704 0.906097 -1.4878 0
M  V30 1278 C 131.836 1.67615 -2.96847 0
M  V30 1279 H 133.029 -0.131843 -2.9961 0
M  V30 1280 H 130.582 -0.106165 -1.55939 0
M  V30 1281 H 131.317 2.33095 -2.25471 0
M  V30 1282 H 131.102 1.30029 -3.69912 0
M  V30 1283 H 132.592 2.27114 -3.50441 0
M  V30 1284 N 133.029 1.57378 -0.0835403 0
M  V30 1285 C 133.992 2.12252 0.864959 0
M  V30 1286 C 134.992 1.04916 1.21858 0
M  V30 1287 O 136.182 1.30853 1.14991 0
M  V30 1288 C 133.314 2.63358 2.16461 0
M  V30 1289 H 134.507 2.97371 0.388676 0
M  V30 1290 H 132.06 1.55423 0.165317 0
M  V30 1291 H 132.795 1.81727 2.686 0
M  V30 1292 H 132.58 3.41826 1.92087 0
M  V30 1293 H 134.07 3.05847 2.84337 0
M  V30 1294 N 134.507 -0.190092 1.56449 0
M  V30 1295 C 135.735 -0.925772 1.85033 0
M  V30 1296 C 136.15 -1.76638 0.666658 0
M  V30 1297 O 135.507 -1.78822 -0.364565 0
M  V30 1298 C 135.558 -1.81786 3.12468 0
M  V30 1299 O 135.279 -1.01118 4.26271 0
M  V30 1300 C 136.78 -2.6648 3.54265 0
M  V30 1301 H 134 -0.269872 0.614337 0
M  V30 1302 H 136.544 -0.195837 2.0356 0
M  V30 1303 H 134.699 -2.50136 2.95822 0
M  V30 1304 H 135.113 -1.61956 4.98869 0
M  V30 1305 H 136.587 -3.24722 4.46385 0
M  V30 1306 H 137.064 -3.40434 2.77491 0
M  V30 1307 H 137.67 -2.03493 3.73458 0
M  V30 1308 N 135.985 -1.50799 -0.457987 0
M  V30 1309 C 137.233 -1.62121 -1.2067 0
M  V30 1310 C 137.554 -0.329793 -1.92191 0
M  V30 1311 O 136.824 0.653409 -1.84682 0
M  V30 1312 H 135.404 -0.597441 -0.448411 0
M  V30 1313 H 138.066 -1.87637 -0.527096 0
M  V30 1314 H 137.162 -2.43882 -1.94751 0
M  V30 1315 N 137.463 0.71206 -1.40597 0
M  V30 1316 C 138.71 1.47197 -1.39065 0
M  V30 1317 C 139.038 1.94499 0.00583891 0
M  V30 1318 O 138.293 1.68752 0.99102 0
M  V30 1319 C 138.592 2.71039 -2.32965 0
M  V30 1320 C 138.258 2.42484 -3.80148 0
M  V30 1321 C 136.92 2.34406 -4.20247 0
M  V30 1322 C 139.272 2.18598 -4.73143 0
M  V30 1323 C 136.6 2.00516 -5.51371 0
M  V30 1324 C 138.952 1.8622 -6.0457 0
M  V30 1325 C 137.616 1.76626 -6.43708 0
M  V30 1326 H 136.886 0.538634 -0.508876 0
M  V30 1327 H 139.533 0.815325 -1.73276 0
M  V30 1328 H 137.838 3.41558 -1.91951 0
M  V30 1329 H 139.535 3.29138 -2.29061 0
M  V30 1330 H 136.125 2.49659 -3.4838 0
M  V30 1331 H 140.309 2.23793 -4.42979 0
M  V30 1332 H 135.565 1.91628 -5.80593 0
M  V30 1333 H 139.739 1.66752 -6.76141 0
M  V30 1334 H 137.366 1.50133 -7.45228 0
M  V30 1335 N 138.941 1.26152 0.944643 0
M  V30 1336 C 140.187 1.11657 1.69294 0
M  V30 1337 C 140.52 -0.339926 1.91202 0
M  V30 1338 O 139.795 -1.24994 1.49019 0
M  V30 1339 C 140.078 1.88236 3.06984 0
M  V30 1340 C 139.931 3.41772 2.92424 0
M  V30 1341 C 141.25 1.67343 4.07043 0
M  V30 1342 H 138.369 0.407004 0.614424 0
M  V30 1343 H 141.011 1.55106 1.09737 0
M  V30 1344 H 139.161 1.51308 3.57824 0
M  V30 1345 H 140.833 3.88433 2.48832 0
M  V30 1346 H 139.076 3.68974 2.28124 0
M  V30 1347 H 139.747 3.90579 3.90067 0
M  V30 1348 H 142.223 1.99509 3.65151 0
M  V30 1349 H 141.099 2.23346 5.01406 0
M  V30 1350 H 141.36 0.617158 4.37771 0
M  V30 1351 N 140.419 -1.14872 1.07899 0
M  V30 1352 C 141.366 -2.19791 0.704319 0
M  V30 1353 C 142.336 -1.63238 -0.306987 0
M  V30 1354 O 143.521 -1.8983 -0.192171 0
M  V30 1355 C 140.661 -3.44911 0.114244 0
M  V30 1356 C 139.774 -4.15637 1.1777 0
M  V30 1357 C 138.909 -5.28324 0.552037 0
M  V30 1358 C 137.948 -5.90875 1.59789 0
M  V30 1359 N 137.085 -6.95022 0.994404 0
M  V30 1360 H 141.925 -2.5119 1.60336 0
M  V30 1361 H 139.462 -1.23356 0.801352 0
M  V30 1362 H 141.42 -4.16477 -0.245544 0
M  V30 1363 H 140.05 -3.14011 -0.74813 0
M  V30 1364 H 139.102 -3.42512 1.65499 0
M  V30 1365 H 140.414 -4.5823 1.97046 0
M  V30 1366 H 139.568 -6.06538 0.1402 0
M  V30 1367 H 138.307 -4.86939 -0.272431 0
M  V30 1368 H 137.312 -5.11369 2.01945 0
M  V30 1369 H 138.537 -6.34337 2.42474 0
M  V30 1370 H 136.483 -6.55722 0.190939 0
M  V30 1371 H 136.4 -7.36073 1.72432 0
M  V30 1372 H 137.668 -7.77123 0.608253 0
M  V30 1373 N 141.898 -0.863906 -1.31812 0
M  V30 1374 C 142.845 -0.313303 -2.28664 0
M  V30 1375 C 143.815 0.584868 -1.55462 0
M  V30 1376 O 145 0.517805 -1.83639 0
M  V30 1377 C 142.14 0.48441 -3.41683 0
M  V30 1378 C 141.253 -0.440594 -4.29747 0
M  V30 1379 C 140.388 0.370652 -5.29905 0
M  V30 1380 C 139.427 -0.551164 -6.09613 0
M  V30 1381 N 138.564 0.223462 -7.01744 0
M  V30 1382 H 143.404 -1.14444 -2.75148 0
M  V30 1383 H 140.941 -0.575769 -1.35364 0
M  V30 1384 H 142.899 0.962627 -4.05943 0
M  V30 1385 H 141.529 1.28029 -2.96325 0
M  V30 1386 H 140.581 -1.03724 -3.65986 0
M  V30 1387 H 141.893 -1.14767 -4.85417 0
M  V30 1388 H 141.047 0.911638 -5.99812 0
M  V30 1389 H 139.786 1.11105 -4.74876 0
M  V30 1390 H 138.791 -1.10396 -5.38603 0
M  V30 1391 H 140.016 -1.29032 -6.66729 0
M  V30 1392 H 137.962 0.946787 -6.49132 0
M  V30 1393 H 137.879 -0.424399 -7.54808 0
M  V30 1394 H 139.147 0.745876 -7.75923 0
M  V30 1395 N 143.376 1.44774 -0.622745 0
M  V30 1396 C 144.653 1.95522 -0.0551974 0
M  V30 1397 C 145.033 1.5649 1.41683 0
M  V30 1398 O 144.381 0.834848 2.12703 0
M  V30 1399 C 144.591 3.4796 -0.269242 0
M  V30 1400 C 145.939 4.24306 -0.158014 0
M  V30 1401 O 146.963 3.55637 -0.200162 0
M  V30 1402 O 145.822 5.46471 -0.0558693 0
M  V30 1403 H 142.916 0.826556 0.0271015 0
M  V30 1404 H 145.462 1.54866 -0.693864 0
M  V30 1405 H 144.234 3.6939 -1.29099 0
M  V30 1406 H 143.857 3.95543 0.403966 0
M  V30 1407 N 144.854 0.36279 1.53368 0
M  V30 1408 C 145.786 -0.519668 2.23231 0
M  V30 1409 C 146.799 -1.04844 1.24546 0
M  V30 1410 O 147.988 -0.955296 1.50786 0
M  V30 1411 C 145.088 -1.72995 2.9142 0
M  V30 1412 C 144.261 -1.33316 4.16588 0
M  V30 1413 C 143.32 -2.40521 4.68013 0
M  V30 1414 O 142.346 -2.03027 5.3176 0
M  V30 1415 N 143.548 -3.72065 4.45587 0
M  V30 1416 H 146.313 0.078751 2.99597 0
M  V30 1417 H 143.874 0.187833 1.60807 0
M  V30 1418 H 145.866 -2.44184 3.22733 0
M  V30 1419 H 144.436 -2.2353 2.18525 0
M  V30 1420 H 143.656 -0.451236 3.91609 0
M  V30 1421 H 144.944 -1.04432 4.97967 0
M  V30 1422 H 144.342 -4.05304 3.94646 0
M  V30 1423 H 142.899 -4.39366 4.81457 0
M  V30 1424 N 146.332 -1.57332 0.0918853 0
M  V30 1425 C 147.262 -2.16872 -0.865371 0
M  V30 1426 C 148.243 -1.10118 -1.29646 0
M  V30 1427 O 149.428 -1.38242 -1.36392 0
M  V30 1428 C 146.558 -2.74649 -2.12569 0
M  V30 1429 C 145.512 -3.86747 -1.83333 0
M  V30 1430 C 144.838 -4.31212 -3.16166 0
M  V30 1431 C 146.138 -5.10089 -1.1228 0
M  V30 1432 H 147.832 -2.97114 -0.369307 0
M  V30 1433 H 145.378 -1.42918 -0.176194 0
M  V30 1434 H 147.331 -3.14952 -2.7997 0
M  V30 1435 H 146.055 -1.91657 -2.64452 0
M  V30 1436 H 144.714 -3.46978 -1.18331 0
M  V30 1437 H 144.362 -3.45115 -3.6593 0
M  V30 1438 H 144.062 -5.06788 -2.97388 0
M  V30 1439 H 145.586 -4.74146 -3.84731 0
M  V30 1440 H 147 -5.47582 -1.69785 0
M  V30 1441 H 145.397 -5.91073 -1.03693 0
M  V30 1442 H 146.467 -4.84786 -0.105041 0
M  V30 1443 N 147.81 0.181792 -1.56548 0
M  V30 1444 C 149.058 0.89832 -1.81038 0
M  V30 1445 C 149.379 1.83232 -0.667164 0
M  V30 1446 O 148.649 1.93372 0.313673 0
M  V30 1447 H 147.229 0.33471 -0.667816 0
M  V30 1448 H 149.891 0.184116 -1.94028 0
M  V30 1449 H 148.987 1.4815 -2.74696 0
M  V30 1450 N 149.288 1.51039 0.449983 0
M  V30 1451 C 150.235 1.71439 1.54523 0
M  V30 1452 C 151.205 0.555871 1.56522 0
M  V30 1453 O 152.39 0.788871 1.73728 0
M  V30 1454 C 149.53 1.83384 2.92343 0
M  V30 1455 C 148.643 3.10873 2.9997 0
M  V30 1456 C 147.778 3.13488 4.28834 0
M  V30 1457 C 146.817 4.35343 4.30282 0
M  V30 1458 N 145.954 4.35579 5.5065 0
M  V30 1459 H 150.794 2.64934 1.36433 0
M  V30 1460 H 148.331 1.31312 0.662982 0
M  V30 1461 H 150.289 1.88291 3.72293 0
M  V30 1462 H 148.919 0.933086 3.0902 0
M  V30 1463 H 147.971 3.15336 2.12761 0
M  V30 1464 H 149.283 4.00814 2.96901 0
M  V30 1465 H 148.437 3.17241 5.17149 0
M  V30 1466 H 147.176 2.21414 4.34543 0
M  V30 1467 H 146.181 4.3178 3.40362 0
M  V30 1468 H 147.406 5.28668 4.26248 0
M  V30 1469 H 145.352 3.46369 5.57104 0
M  V30 1470 H 145.269 5.19313 5.49409 0
M  V30 1471 H 146.537 4.43507 6.41032 0
M  V30 1472 N 150.766 -0.704594 1.40972 0
M  V30 1473 C 151.714 -1.83994 1.42299 0
M  V30 1474 C 152.708 -1.66684 0.302111 0
M  V30 1475 O 153.914 -1.73655 0.473697 0
M  V30 1476 H 150.289 -0.606171 0.44504 0
M  V30 1477 H 152.26 -1.79992 2.38003 0
M  V30 1478 C 151.009 -3.21946 1.31323 0
M  V30 1479 H 150.332 -3.35878 2.16855 0
M  V30 1480 H 151.772 -4.01491 1.36311 0
M  V30 1481 C 150.231 -3.36891 0.0245977 0
M  V30 1482 O 150.761 -3.90687 -0.934153 0
M  V30 1483 N 148.967 -2.90559 -0.0485243 0
M  V30 1484 H 148.514 -2.46968 0.732419 0
M  V30 1485 H 148.472 -3.00937 -0.910171 0
M  V30 1486 N 152.244 -1.26651 -0.937939 0
M  V30 1487 C 153.154 -1.10276 -2.07066 0
M  V30 1488 C 154.17 -0.0354197 -1.73964 0
M  V30 1489 O 155.346 -0.239816 -1.99967 0
M  V30 1490 C 152.411 -0.740887 -3.38691 0
M  V30 1491 C 151.472 -1.88799 -3.85556 0
M  V30 1492 C 150.705 -1.54329 -5.10899 0
M  V30 1493 O 150.928 -0.446494 -5.6865 0
M  V30 1494 O 149.862 -2.37911 -5.52885 0
M  V30 1495 H 153.688 -2.05309 -2.23789 0
M  V30 1496 H 151.273 -1.05743 -1.0554 0
M  V30 1497 H 153.155 -0.55195 -4.1777 0
M  V30 1498 H 151.83 0.180022 -3.23199 0
M  V30 1499 H 150.737 -2.13191 -3.07409 0
M  V30 1500 H 152.07 -2.78874 -4.05574 0
M  V30 1501 N 153.722 1.14298 -1.08507 0
M  V30 1502 C 154.632 2.23027 -0.727753 0
M  V30 1503 C 155.648 1.71952 0.26619 0
M  V30 1504 O 156.824 2.011 0.109882 0
M  V30 1505 C 153.889 3.46403 -0.143541 0
M  V30 1506 C 152.95 4.12413 -1.19223 0
M  V30 1507 C 152.183 5.29899 -0.635798 0
M  V30 1508 O 152.406 5.67796 0.544393 0
M  V30 1509 O 151.34 5.85717 -1.38634 0
M  V30 1510 H 155.166 2.55945 -1.63481 0
M  V30 1511 H 152.751 1.22248 -0.858817 0
M  V30 1512 H 154.633 4.21018 0.179404 0
M  V30 1513 H 153.308 3.15206 0.736659 0
M  V30 1514 H 152.215 3.39667 -1.56772 0
M  V30 1515 H 153.548 4.47718 -2.04474 0
M  V30 1516 N 155.201 0.870884 1.31352 0
M  V30 1517 C 156.449 0.48132 1.96285 0
M  V30 1518 C 156.77 -0.969813 1.69173 0
M  V30 1519 O 156.04 -1.67998 1.00764 0
M  V30 1520 H 154.62 0.175002 0.726212 0
M  V30 1521 H 157.282 1.11087 1.60143 0
M  V30 1522 H 156.378 0.639825 3.05471 0
M  V30 1523 N 156.679 -1.44442 0.630414 0
M  V30 1524 C 157.642 -2.29107 -0.0652523 0
M  V30 1525 C 158.642 -1.41002 -0.772995 0
M  V30 1526 O 159.832 -1.62881 -0.617692 0
M  V30 1527 C 156.964 -3.22564 -1.10296 0
M  V30 1528 H 158.157 -2.92103 0.679401 0
M  V30 1529 H 155.71 -1.51343 0.390517 0
M  V30 1530 H 156.445 -2.64416 -1.87762 0
M  V30 1531 H 156.23 -3.87491 -0.59941 0
M  V30 1532 H 157.72 -3.86167 -1.5895 0
M  V30 1533 N 158.157 -0.370918 -1.53173 0
M  V30 1534 C 159.568 0.107139 -1.86392 0
M  V30 1535 C 159.919 1.47714 -1.29132 0
M  V30 1536 O 159.044 2.07464 -0.615439 0
M  V30 1537 C 159.639 0.201187 -3.38202 0
M  V30 1538 C 158.198 0.623507 -3.712 0
M  V30 1539 C 157.345 -0.225978 -2.76378 0
M  V30 1540 H 160.296 -0.58951 -1.47345 0
M  V30 1541 H 160.317 1.02377 -3.66468 0
M  V30 1542 H 159.829 -0.796058 -3.79848 0
M  V30 1543 H 157.93 1.62879 -3.35114 0
M  V30 1544 H 158.043 0.394414 -4.77474 0
M  V30 1545 H 156.407 0.305962 -2.52856 0
M  V30 1546 H 157.19 -1.22086 -3.20858 0
M  V30 1547 N 159.635 1.57281 -0.100228 0
M  V30 1548 C 160.567 2.11342 0.886972 0
M  V30 1549 C 161.58 1.05182 1.24261 0
M  V30 1550 O 162.769 1.32613 1.19483 0
M  V30 1551 C 159.869 2.5825 2.19454 0
M  V30 1552 C 159.042 3.88302 2.01346 0
M  V30 1553 C 158.101 4.21004 3.15661 0
M  V30 1554 O 157.127 4.9014 2.89398 0
M  V30 1555 N 158.329 3.76818 4.41575 0
M  V30 1556 H 161.094 2.96668 0.425216 0
M  V30 1557 H 158.655 1.61678 0.0847334 0
M  V30 1558 H 160.647 2.7717 2.94888 0
M  V30 1559 H 159.217 1.77907 2.57037 0
M  V30 1560 H 158.437 3.7848 1.10212 0
M  V30 1561 H 159.725 4.73375 1.8653 0
M  V30 1562 H 159.123 3.2102 4.65792 0
M  V30 1563 H 157.68 4.00882 5.13942 0
M  V30 1564 N 161.113 -0.173488 1.56642 0
M  V30 1565 C 162.023 -1.23482 1.99473 0
M  V30 1566 C 163.039 -1.48567 0.905752 0
M  V30 1567 O 164.215 -1.60758 1.21321 0
M  V30 1568 C 161.28 -2.55444 2.34413 0
M  V30 1569 C 160.341 -2.38241 3.57127 0
M  V30 1570 C 159.574 -3.63909 3.90392 0
M  V30 1571 O 159.797 -4.68996 3.24653 0
M  V30 1572 O 158.731 -3.58149 4.83749 0
M  V30 1573 H 162.557 -0.901279 2.90018 0
M  V30 1574 H 160.142 -0.380185 1.44482 0
M  V30 1575 H 162.024 -3.33292 2.57865 0
M  V30 1576 H 160.699 -2.88382 1.4703 0
M  V30 1577 H 159.606 -1.58431 3.38896 0
M  V30 1578 H 160.939 -2.10228 4.45045 0
M  V30 1579 N 162.591 -1.51276 -0.441967 0
M  V30 1580 C 163.839 -1.63392 -1.18943 0
M  V30 1581 C 164.16 -0.350159 -1.9183 0
M  V30 1582 O 163.43 0.633784 -1.85364 0
M  V30 1583 H 162.01 -0.602164 -0.442049 0
M  V30 1584 H 164.672 -1.88186 -0.507165 0
M  V30 1585 H 163.768 -2.45934 -1.92154 0
M  V30 1586 N 164.069 0.697108 -1.41344 0
M  V30 1587 C 165.318 1.45279 -1.39918 0
M  V30 1588 C 165.631 1.95597 -0.0109624 0
M  V30 1589 O 166.837 2.71208 0.125919 0
M  V30 1590 C 165.293 2.62695 -2.46007 0
M  V30 1591 C 164.901 2.19169 -3.90729 0
M  V30 1592 C 166.645 3.40336 -2.53715 0
M  V30 1593 C 164.552 3.33535 -4.88373 0
M  V30 1594 H 163.482 0.545692 -0.520323 0
M  V30 1595 H 166.133 0.756929 -1.67161 0
M  V30 1596 H 164.515 3.34541 -2.11892 0
M  V30 1597 H 165.689 1.54623 -4.34083 0
M  V30 1598 H 164.004 1.54525 -3.86666 0
M  V30 1599 H 166.601 4.2547 -3.2385 0
M  V30 1600 H 166.944 3.85418 -1.5735 0
M  V30 1601 H 167.477 2.75546 -2.86913 0
M  V30 1602 H 164.216 2.93468 -5.86137 0
M  V30 1603 H 163.736 3.96936 -4.49668 0
M  V30 1604 H 165.415 3.99335 -5.09059 0
M  V30 1605 N 165.547 1.27147 0.931209 0
M  V30 1606 C 166.477 1.12081 2.04842 0
M  V30 1607 C 167.458 0.0232364 1.70084 0
M  V30 1608 O 168.643 0.197085 1.93197 0
M  V30 1609 C 165.773 0.76354 3.38803 0
M  V30 1610 C 164.727 1.81396 3.87659 0
M  V30 1611 C 164.053 1.31075 5.18385 0
M  V30 1612 C 165.353 3.21739 4.11438 0
M  V30 1613 H 167.047 2.05537 2.17703 0
M  V30 1614 H 164.593 0.989603 1.04608 0
M  V30 1615 H 166.546 0.644982 4.16435 0
M  V30 1616 H 165.27 -0.206727 3.25945 0
M  V30 1617 H 163.929 1.92136 3.12217 0
M  V30 1618 H 163.577 0.330037 5.01916 0
M  V30 1619 H 163.277 2.013 5.52044 0
M  V30 1620 H 164.801 1.20506 5.98591 0
M  V30 1621 H 166.215 3.14019 4.79651 0
M  V30 1622 H 164.612 3.89644 4.56397 0
M  V30 1623 H 165.682 3.67054 3.16859 0
M  V30 1624 N 167.025 -1.13721 1.09112 0
M  V30 1625 C 167.935 -2.22638 0.73957 0
M  V30 1626 C 168.951 -1.72091 -0.257068 0
M  V30 1627 O 170.127 -2.01155 -0.0992154 0
M  V30 1628 C 167.192 -3.46322 0.16191 0
M  V30 1629 C 166.253 -4.11775 1.21408 0
M  V30 1630 C 165.486 -5.29555 0.663891 0
M  V30 1631 O 165.709 -5.68077 -0.514274 0
M  V30 1632 O 164.643 -5.84973 1.41738 0
M  V30 1633 H 168.469 -2.55074 1.64836 0
M  V30 1634 H 166.054 -1.21791 0.865289 0
M  V30 1635 H 167.936 -4.21107 -0.157073 0
M  V30 1636 H 166.611 -3.15593 -0.719932 0
M  V30 1637 H 165.518 -3.3883 1.58571 0
M  V30 1638 H 166.851 -4.46627 2.06845 0
M  V30 1639 N 168.503 -0.877838 -1.30888 0
M  V30 1640 C 169.78 -0.413052 -1.91189 0
M  V30 1641 C 170.16 1.1056 -1.79832 0
M  V30 1642 O 169.508 1.93771 -1.21099 0
M  V30 1643 C 169.718 -0.903191 -3.3711 0
M  V30 1644 C 171.066 -0.93395 -4.14201 0
M  V30 1645 O 172.09 -0.849373 -3.45925 0
M  V30 1646 O 170.949 -1.05772 -5.36167 0
M  V30 1647 H 168.043 -0.125035 -0.817493 0
M  V30 1648 H 170.589 -0.966269 -1.39504 0
M  V30 1649 H 169.361 -1.94692 -3.39427 0
M  V30 1650 H 168.984 -0.328732 -3.96239 0
M  V30 1651 N 169.982 1.44106 -0.638065 0
M  V30 1652 C 170.915 2.27924 0.112161 0
M  V30 1653 C 171.893 1.38945 0.844574 0
M  V30 1654 O 173.077 1.68386 0.847248 0
M  V30 1655 C 170.204 3.18029 1.16512 0
M  V30 1656 C 169.25 4.23163 0.532458 0
M  V30 1657 S 170.083 5.31131 -0.682666 0
M  V30 1658 C 171.239 6.24805 0.37013 0
M  V30 1659 H 171.472 2.91205 -0.598887 0
M  V30 1660 H 169.005 1.48394 -0.426441 0
M  V30 1661 H 170.963 3.70492 1.76766 0
M  V30 1662 H 169.624 2.53955 1.8484 0
M  V30 1663 H 168.817 4.86252 1.32571 0
M  V30 1664 H 168.419 3.74 0.00437644 0
M  V30 1665 H 170.711 6.66042 1.24071 0
M  V30 1666 H 171.654 7.07741 -0.225349 0
M  V30 1667 H 172.062 5.60154 0.699141 0
M  V30 1668 N 171.46 0.379036 1.52974 0
M  V30 1669 C 172.871 -0.0972525 1.86447 0
M  V30 1670 C 173.222 -1.47027 1.29914 0
M  V30 1671 O 172.347 -2.07135 0.626433 0
M  V30 1672 C 172.942 -0.183248 3.38304 0
M  V30 1673 C 171.501 -0.603812 3.71525 0
M  V30 1674 C 170.648 0.240632 2.76254 0
M  V30 1675 H 173.599 0.597316 1.4703 0
M  V30 1676 H 173.62 -1.00432 3.67006 0
M  V30 1677 H 173.132 0.816191 3.79421 0
M  V30 1678 H 171.233 -1.61099 3.35973 0
M  V30 1679 H 171.346 -0.369086 4.77676 0
M  V30 1680 H 169.71 -0.292548 2.53014 0
M  V30 1681 H 170.493 1.23786 3.20206 0
M  V30 1682 N 172.938 -1.57226 0.108567 0
M  V30 1683 C 174.184 -1.95121 -0.552761 0
M  V30 1684 C 174.517 -0.991345 -1.66991 0
M  V30 1685 O 173.792 -0.0267211 -1.94482 0
M  V30 1686 C 174.075 -3.43039 -1.09528 0
M  V30 1687 C 173.928 -4.49797 0.0177332 0
M  V30 1688 C 175.247 -3.92567 -1.98945 0
M  V30 1689 H 172.366 -0.709496 -0.199461 0
M  V30 1690 H 175.008 -1.89126 0.182011 0
M  V30 1691 H 173.158 -3.48279 -1.72146 0
M  V30 1692 H 174.83 -4.56661 0.652584 0
M  V30 1693 H 173.073 -4.284 0.682309 0
M  V30 1694 H 173.744 -5.50528 -0.402919 0
M  V30 1695 H 176.22 -3.89565 -1.46214 0
M  V30 1696 H 175.096 -4.96605 -2.33827 0
M  V30 1697 H 175.357 -3.32648 -2.91201 0
M  V30 1698 N 174.416 0.165178 -1.56732 0
M  V30 1699 C 175.693 0.908443 -1.73224 0
M  V30 1700 C 176.073 2.0013 -0.67165 0
M  V30 1701 O 175.421 2.26353 0.31253 0
M  V30 1702 C 175.631 1.46756 -3.16644 0
M  V30 1703 C 176.979 1.93809 -3.77787 0
M  V30 1704 O 178.003 1.56537 -3.1996 0
M  V30 1705 O 176.862 2.62486 -4.79336 0
M  V30 1706 H 173.956 0.428025 -0.707618 0
M  V30 1707 H 176.502 0.152526 -1.69013 0
M  V30 1708 H 175.274 0.68129 -3.85323 0
M  V30 1709 H 174.897 2.28749 -3.25207 0
M  V30 1710 N 175.894 1.51508 0.433938 0
M  V30 1711 C 177.305 1.56784 1.01369 0
M  V30 1712 C 177.656 0.393349 1.92217 0
M  V30 1713 O 176.781 -0.489441 2.10792 0
M  V30 1714 C 177.376 2.84144 1.8452 0
M  V30 1715 C 175.935 2.9198 2.37539 0
M  V30 1716 C 175.082 2.51482 1.16843 0
M  V30 1717 H 178.033 1.57236 0.215081 0
M  V30 1718 H 178.054 2.68098 2.70007 0
M  V30 1719 H 177.566 3.69607 1.18373 0
M  V30 1720 H 175.667 2.10955 3.0713 0
M  V30 1721 H 175.78 3.95704 2.70103 0
M  V30 1722 H 174.144 2.04758 1.51481 0
M  V30 1723 H 174.927 3.39293 0.523015 0
M  V30 1724 N 177.372 -0.689602 1.41712 0
M  V30 1725 C 178.649 -1.44457 1.31877 0
M  V30 1726 C 179.029 -2.11039 -0.0508537 0
M  V30 1727 O 178.377 -2.02138 -1.06547 0
M  V30 1728 C 178.587 -2.45913 2.47645 0
M  V30 1729 C 179.935 -3.10991 2.89084 0
M  V30 1730 O 180.959 -2.56238 2.47428 0
M  V30 1731 O 179.818 -4.10174 3.61137 0
M  V30 1732 H 176.912 -0.64362 0.519309 0
M  V30 1733 H 179.458 -0.719576 1.53689 0
M  V30 1734 H 178.23 -1.95409 3.39015 0
M  V30 1735 H 177.853 -3.25913 2.27742 0
M  V30 1736 N 178.85 -1.27639 -0.924453 0
M  V30 1737 C 179.798 -1.10485 -2.04685 0
M  V30 1738 C 180.792 -0.0270421 -1.69378 0
M  V30 1739 O 181.998 -0.185008 -1.79047 0
M  V30 1740 H 178.373 -0.340546 -0.670472 0
M  V30 1741 H 180.344 -2.05566 -2.16298 0
M  V30 1742 C 179.093 -0.772229 -3.39016 0
M  V30 1743 H 178.416 -1.59351 -3.66671 0
M  V30 1744 H 179.856 -0.692097 -4.18313 0
M  V30 1745 C 178.315 0.523554 -3.32807 0
M  V30 1746 O 178.845 1.55702 -3.70297 0
M  V30 1747 N 177.051 0.520363 -2.85903 0
M  V30 1748 H 176.598 -0.32107 -2.55591 0
M  V30 1749 H 176.556 1.38742 -2.82131 0
M  V30 1750 N 180.328 1.1314 -1.09713 0
M  V30 1751 C 181.238 2.22242 -0.751367 0
M  V30 1752 C 182.254 1.72224 0.247938 0
M  V30 1753 O 183.43 2.01205 0.0885463 0
M  V30 1754 C 180.495 3.46231 -0.180274 0
M  V30 1755 C 179.556 4.11125 -1.2359 0
M  V30 1756 C 178.789 5.29195 -0.691966 0
M  V30 1757 O 179.012 5.68342 0.48414 0
M  V30 1758 O 177.946 5.84214 -1.44838 0
M  V30 1759 H 181.772 2.54197 -1.66186 0
M  V30 1760 H 179.357 1.21331 -0.871735 0
M  V30 1761 H 181.239 4.21185 0.134739 0
M  V30 1762 H 179.914 3.1597 0.703185 0
M  V30 1763 H 178.821 3.37985 -1.60366 0
M  V30 1764 H 180.154 4.45524 -2.09211 0
M  V30 1765 N 181.806 0.884767 1.30421 0
M  V30 1766 C 182.769 0.356277 2.26414 0
M  V30 1767 C 183.769 -0.501124 1.52792 0
M  V30 1768 O 184.959 -0.30831 1.7145 0
M  V30 1769 C 182.091 -0.492316 3.37326 0
M  V30 1770 H 183.284 1.20389 2.74675 0
M  V30 1771 H 180.837 0.661607 1.41607 0
M  V30 1772 H 181.572 -1.36052 2.94381 0
M  V30 1773 H 181.357 0.121832 3.91911 0
M  V30 1774 H 182.847 -0.853871 4.08777 0
M  V30 1775 N 183.284 -1.43765 0.645699 0
M  V30 1776 C 184.514 -2.05953 0.163318 0
M  V30 1777 C 184.922 -1.48432 -1.17322 0
M  V30 1778 O 184.265 -0.607295 -1.73371 0
M  V30 1779 C 184.327 -3.59499 -0.0103065 0
M  V30 1780 C 183.991 -4.39563 1.25035 0
M  V30 1781 C 184.988 -4.72108 2.17739 0
M  V30 1782 C 182.673 -4.79697 1.48983 0
M  V30 1783 C 184.667 -5.43688 3.3269 0
M  V30 1784 C 182.354 -5.51023 2.64229 0
M  V30 1785 C 183.352 -5.8294 3.55908 0
M  V30 1786 O 183.04 -6.5281 4.69142 0
M  V30 1787 H 182.772 -0.670798 0.0836986 0
M  V30 1788 H 185.326 -1.85384 0.884407 0
M  V30 1789 H 183.556 -3.78613 -0.78669 0
M  V30 1790 H 185.245 -4.03408 -0.449087 0
M  V30 1791 H 186.011 -4.41627 2.00476 0
M  V30 1792 H 181.89 -4.54266 0.785078 0
M  V30 1793 H 185.434 -5.68517 4.04269 0
M  V30 1794 H 181.331 -5.8092 2.81429 0
M  V30 1795 H 182.099 -6.71288 4.6831 0
M  V30 1796 N 184.763 -0.387143 -1.52771 0
M  V30 1797 C 185.673 0.456442 -2.30117 0
M  V30 1798 C 186.689 1.07342 -1.36944 0
M  V30 1799 O 187.865 1.07971 -1.70013 0
M  V30 1800 C 184.93 1.56957 -3.09136 0
M  V30 1801 C 183.991 0.977916 -4.18014 0
M  V30 1802 C 183.224 2.038 -4.93256 0
M  V30 1803 O 183.447 3.25271 -4.68567 0
M  V30 1804 O 182.381 1.6565 -5.78657 0
M  V30 1805 H 186.207 -0.17359 -3.03203 0
M  V30 1806 H 183.792 -0.150919 -1.48636 0
M  V30 1807 H 185.674 2.21628 -3.58412 0
M  V30 1808 H 184.349 2.18461 -2.38865 0
M  V30 1809 H 183.256 0.294525 -3.72939 0
M  V30 1810 H 184.589 0.407128 -4.90513 0
M  V30 1811 N 186.241 1.57166 -0.116904 0
M  V30 1812 C 187.174 2.10912 0.871291 0
M  V30 1813 C 188.152 1.025 1.26224 0
M  V30 1814 O 189.336 1.3014 1.36366 0
M  V30 1815 C 186.463 2.6041 2.16574 0
M  V30 1816 C 185.509 3.80687 1.92302 0
M  V30 1817 S 186.342 5.23199 1.14119 0
M  V30 1818 C 187.498 5.76064 2.44748 0
M  V30 1819 H 187.731 2.94401 0.414138 0
M  V30 1820 H 185.264 1.54096 0.096829 0
M  V30 1821 H 187.222 2.89583 2.9095 0
M  V30 1822 H 185.883 1.77106 2.59408 0
M  V30 1823 H 185.076 4.13462 2.8821 0
M  V30 1824 H 184.678 3.5212 1.26047 0
M  V30 1825 H 186.97 5.8566 3.406 0
M  V30 1826 H 187.913 6.74184 2.16521 0
M  V30 1827 H 188.321 5.04117 2.54019 0
M  V30 1828 N 187.719 -0.156864 1.56817 0
M  V30 1829 C 189.13 -0.717916 1.72345 0
M  V30 1830 C 189.481 -1.82124 0.729747 0
M  V30 1831 O 188.606 -2.16141 -0.105781 0
M  V30 1832 C 189.201 -1.30904 3.12489 0
M  V30 1833 C 187.76 -1.81676 3.29653 0
M  V30 1834 C 186.907 -0.701349 2.68284 0
M  V30 1835 H 189.858 0.0686989 1.58551 0
M  V30 1836 H 189.879 -2.17882 3.11942 0
M  V30 1837 H 189.391 -0.505796 3.8479 0
M  V30 1838 H 187.492 -2.64598 2.62333 0
M  V30 1839 H 187.605 -1.95226 4.3752 0
M  V30 1840 H 185.969 -1.12548 2.28484 0
M  V30 1841 H 186.752 0.0902846 3.43181 0
M  V30 1842 N 189.197 -1.51736 -0.425897 0
M  V30 1843 C 190.422 -1.69082 -1.20108 0
M  V30 1844 C 190.847 -0.392398 -1.83962 0
M  V30 1845 O 190.205 0.64858 -1.69302 0
M  V30 1846 C 190.253 -2.81604 -2.25237 0
M  V30 1847 O 189.357 -2.46004 -3.30992 0
M  V30 1848 H 188.698 -0.563408 -0.35138 0
M  V30 1849 H 191.228 -1.98358 -0.501512 0
M  V30 1850 H 191.238 -3.06025 -2.69838 0
M  V30 1851 H 189.913 -3.75817 -1.78142 0
M  V30 1852 H 188.49 -2.32195 -2.91787 0
M  V30 1853 N 190.675 0.682077 -1.42076 0
M  V30 1854 C 191.585 1.82535 -1.47371 0
M  V30 1855 C 192.601 1.7017 -0.363079 0
M  V30 1856 O 193.777 1.91848 -0.612875 0
M  V30 1857 C 190.842 3.18624 -1.36674 0
M  V30 1858 C 189.903 3.42999 -2.58167 0
M  V30 1859 C 189.136 4.72595 -2.4797 0
M  V30 1860 O 189.359 5.50006 -1.5116 0
M  V30 1861 O 188.293 4.98054 -3.37974 0
M  V30 1862 H 192.119 1.81023 -2.43853 0
M  V30 1863 H 189.704 0.836887 -1.2376 0
M  V30 1864 H 191.586 3.99847 -1.33043 0
M  V30 1865 H 190.261 3.20789 -0.433138 0
M  V30 1866 H 189.168 2.61653 -2.67373 0
M  V30 1867 H 190.501 3.45659 -3.50401 0
M  V30 1868 N 192.153 1.28127 0.917671 0
M  V30 1869 C 193.063 1.13556 2.05286 0
M  V30 1870 C 194.079 0.0630914 1.73886 0
M  V30 1871 O 195.255 0.271598 1.9956 0
M  V30 1872 C 192.32 0.794676 3.3747 0
M  V30 1873 C 191.381 1.94909 3.82504 0
M  V30 1874 C 190.614 1.62437 5.0838 0
M  V30 1875 O 190.837 0.536905 5.67867 0
M  V30 1876 O 189.771 2.46677 5.4903 0
M  V30 1877 H 193.597 2.08844 2.20495 0
M  V30 1878 H 191.182 1.07409 1.03845 0
M  V30 1879 H 193.064 0.618344 4.16839 0
M  V30 1880 H 191.739 -0.128581 3.23445 0
M  V30 1881 H 190.646 2.18055 3.03978 0
M  V30 1882 H 191.979 2.85291 4.01086 0
M  V30 1883 N 193.631 -1.12557 1.10312 0
M  V30 1884 C 194.879 -1.83675 0.843091 0
M  V30 1885 C 195.2 -1.84435 -0.633131 0
M  V30 1886 O 194.47 -1.30657 -1.45964 0
M  V30 1887 H 193.05 -0.680138 0.308904 0
M  V30 1888 H 195.712 -1.36301 1.39313 0
M  V30 1889 H 194.808 -2.87908 1.2048 0
M  V30 1890 N 195.109 -0.891671 -1.2995 0
M  V30 1891 C 196.339 -0.527893 -1.99742 0
M  V30 1892 C 196.747 0.88979 -1.66971 0
M  V30 1893 O 196.09 1.59766 -0.906667 0
M  V30 1894 C 196.152 -0.630804 -3.53922 0
M  V30 1895 C 195.816 -2.01401 -4.10228 0
M  V30 1896 C 196.813 -2.98422 -4.25724 0
M  V30 1897 C 194.498 -2.32121 -4.45449 0
M  V30 1898 C 196.492 -4.24293 -4.75662 0
M  V30 1899 C 194.179 -3.58237 -4.95086 0
M  V30 1900 C 195.177 -4.54137 -5.10146 0
M  V30 1901 O 194.865 -5.78014 -5.58708 0
M  V30 1902 H 194.597 -0.201953 -0.645129 0
M  V30 1903 H 197.151 -1.20076 -1.66646 0
M  V30 1904 H 195.381 0.0990616 -3.86573 0
M  V30 1905 H 197.07 -0.277338 -4.04951 0
M  V30 1906 H 197.836 -2.76001 -3.98809 0
M  V30 1907 H 193.715 -1.5824 -4.32991 0
M  V30 1908 H 197.259 -4.99153 -4.87332 0
M  V30 1909 H 193.156 -3.80491 -5.21437 0
M  V30 1910 H 193.924 -5.8049 -5.77039 0
M  V30 1911 N 196.587 1.43421 -0.653314 0
M  V30 1912 C 197.519 2.29071 0.0769134 0
M  V30 1913 C 198.532 1.42513 0.787017 0
M  V30 1914 O 199.721 1.66449 0.644757 0
M  V30 1915 C 196.821 3.19436 1.13199 0
M  V30 1916 C 195.994 4.34533 0.500006 0
M  V30 1917 C 195.053 5.05771 1.45198 0
M  V30 1918 O 194.079 5.61037 0.960538 0
M  V30 1919 N 195.281 5.0928 2.78594 0
M  V30 1920 H 198.046 2.92382 -0.658235 0
M  V30 1921 H 195.607 1.54112 -0.496104 0
M  V30 1922 H 197.599 3.63958 1.76964 0
M  V30 1923 H 196.169 2.57724 1.7691 0
M  V30 1924 H 195.389 3.92925 -0.316738 0
M  V30 1925 H 196.677 5.08766 0.0588345 0
M  V30 1926 H 196.075 4.65751 3.2108 0
M  V30 1927 H 194.632 5.57519 3.37662 0
M  V30 1928 N 198.065 0.39524 1.52563 0
M  V30 1929 C 199.342 -0.242908 1.94086 0
M  V30 1930 C 199.722 -1.63841 1.33114 0
M  V30 1931 O 199.07 -2.22928 0.501529 0
M  V30 1932 C 199.28 -0.26327 3.48006 0
M  V30 1933 C 200.628 -0.489354 4.21771 0
M  V30 1934 O 201.652 -0.343226 3.54543 0
M  V30 1935 O 200.511 -0.776169 5.4096 0
M  V30 1936 H 197.605 -0.152536 0.812811 0
M  V30 1937 H 200.151 0.450178 1.6362 0
M  V30 1938 H 198.923 0.713985 3.84731 0
M  V30 1939 H 198.546 -1.00103 3.84792 0
M  V30 1940 N 199.544 -1.57102 0.125237 0
M  V30 1941 C 200.774 -1.99472 -0.538015 0
M  V30 1942 C 201.182 -1.00395 -1.60366 0
M  V30 1943 O 200.525 0.0103875 -1.83697 0
M  V30 1944 C 200.587 -3.38262 -1.21734 0
M  V30 1945 C 200.251 -4.56021 -0.298897 0
M  V30 1946 C 201.248 -5.17817 0.464943 0
M  V30 1947 C 198.933 -5.01869 -0.208149 0
M  V30 1948 C 200.927 -6.23852 1.3072 0
M  V30 1949 C 198.614 -6.07763 0.637736 0
M  V30 1950 C 199.612 -6.68622 1.39403 0
M  V30 1951 O 199.3 -7.7247 2.22586 0
M  V30 1952 H 199.032 -0.659934 -0.146501 0
M  V30 1953 H 201.586 -2.04321 0.210267 0
M  V30 1954 H 199.816 -3.30185 -2.01282 0
M  V30 1955 H 201.505 -3.6488 -1.77813 0
M  V30 1956 H 202.271 -4.83308 0.404741 0
M  V30 1957 H 198.15 -4.54241 -0.786522 0
M  V30 1958 H 201.694 -6.71284 1.898 0
M  V30 1959 H 197.591 -6.41701 0.699309 0
M  V30 1960 H 198.359 -7.89595 2.15596 0
M  V30 1961 N 201.022 0.148545 -1.56898 0
M  V30 1962 C 201.932 1.20293 -2.01412 0
M  V30 1963 C 202.948 1.47107 -0.929273 0
M  V30 1964 O 204.124 1.58807 -1.23863 0
M  V30 1965 C 201.189 2.51682 -2.38447 0
M  V30 1966 C 200.25 2.32529 -3.60872 0
M  V30 1967 C 199.483 3.57653 -3.96132 0
M  V30 1968 O 199.706 4.63771 -3.32073 0
M  V30 1969 O 198.64 3.50408 -4.89385 0
M  V30 1970 H 202.466 0.855025 -2.91416 0
M  V30 1971 H 200.051 0.357151 -1.45068 0
M  V30 1972 H 201.933 3.29147 -2.63135 0
M  V30 1973 H 200.608 2.86006 -1.51599 0
M  V30 1974 H 199.515 1.53019 -3.41373 0
M  V30 1975 H 200.848 2.03121 -4.48333 0
M  V30 1976 N 202.5 1.5196 0.417844 0
M  V30 1977 C 203.911 1.57851 0.997 0
M  V30 1978 C 204.262 0.413714 1.91789 0
M  V30 1979 O 203.387 -0.467057 2.113 0
M  V30 1980 C 203.982 2.86085 1.81496 0
M  V30 1981 C 202.541 2.94483 2.34428 0
M  V30 1982 C 201.688 2.52707 1.14169 0
M  V30 1983 H 204.639 1.57455 0.198392 0
M  V30 1984 H 204.66 2.70947 2.67148 0
M  V30 1985 H 204.172 3.70842 1.14446 0
M  V30 1986 H 202.273 2.142 3.04875 0
M  V30 1987 H 202.386 3.98546 2.65891 0
M  V30 1988 H 200.75 2.06353 1.49301 0
M  V30 1989 H 201.533 3.39828 0.486999 0
M  V30 1990 N 203.978 -0.674533 1.42435 0
M  V30 1991 C 204.888 -1.81751 1.48337 0
M  V30 1992 C 205.904 -1.69975 0.372099 0
M  V30 1993 O 207.08 -1.91521 0.62304 0
M  V30 1994 C 204.145 -3.17895 1.38361 0
M  V30 1995 C 203.206 -3.41625 2.59982 0
M  V30 1996 C 202.439 -4.71274 2.50473 0
M  V30 1997 O 202.662 -5.49197 1.54075 0
M  V30 1998 O 201.596 -4.96254 3.4061 0
M  V30 1999 H 205.422 -1.79728 2.44809 0
M  V30 2000 H 203.007 -0.830312 1.24202 0
M  V30 2001 H 204.889 -3.99136 1.35161 0
M  V30 2002 H 203.564 -3.20555 0.450144 0
M  V30 2003 H 202.471 -2.60231 2.68757 0
M  V30 2004 H 203.804 -3.43796 3.52229 0
M  V30 2005 N 205.456 -1.28612 -0.910864 0
M  V30 2006 C 206.419 -1.12803 -1.9952 0
M  V30 2007 C 207.419 -0.0668264 -1.60661 0
M  V30 2008 O 208.609 -0.312847 -1.71368 0
M  V30 2009 C 205.741 -0.72254 -3.33155 0
M  V30 2010 H 206.934 -2.09109 -2.14973 0
M  V30 2011 H 204.487 -1.11639 -1.09391 0
M  V30 2012 H 205.222 0.241152 -3.23402 0
M  V30 2013 H 205.007 -1.48916 -3.62721 0
M  V30 2014 H 206.497 -0.634666 -4.12749 0
M  V30 2015 O 206.973 1.04587 -1.2306 0
M  V30 2016 H 207.664 1.65902 -0.999811 0
M  V30 END ATOM
M  V30 BEGIN BOND
M  V30 END BOND
M  V30 END CTAB
M  END
$$$$
