drugbank_target|P38038 Sulfite reductase [NADPH] flavoprotein alpha-component (DB03147; DB03461)
 OpenBabel12092120263D

  0  0  0     0  0            999 V3000
M  V30 BEGIN CTAB
M  V30 COUNTS 9287 9388 0 0 0
M  V30 BEGIN ATOM
M  V30 1 H -0.908 1.98254 -0.117106 0
M  V30 2 N 0 1.576 0 0
M  V30 3 C 0.933 2.03868 1.02534 0
M  V30 4 C 1.911 0.928543 1.3348 0
M  V30 5 O 3.095 1.19667 1.45644 0
M  V30 6 C 0.222 2.43627 2.35294 0
M  V30 7 C -0.732 3.65373 2.2001 0
M  V30 8 S 0.101 5.13292 1.52614 0
M  V30 9 C 1.257 5.56322 2.86805 0
M  V30 10 H 1.49 2.90518 0.631377 0
M  V30 11 H -0.977 1.52953 0.210867 0
M  V30 12 H 0.981 2.67203 3.11629 0
M  V30 13 H -0.358 1.57376 2.7183 0
M  V30 14 H -1.165 3.90944 3.18086 0
M  V30 15 H -1.563 3.418 1.51819 0
M  V30 16 H 0.729 5.58782 3.83104 0
M  V30 17 H 1.672 6.56266 2.65933 0
M  V30 18 H 2.08 4.83886 2.90714 0
M  V30 19 N 1.4781 -0.272755 1.55222 0
M  V30 20 C 2.7061 -1.02255 1.79865 0
M  V30 21 C 3.1211 -1.79924 0.572088 0
M  V30 22 O 2.4781 -1.76638 -0.458842 0
M  V30 23 C 2.5291 -1.98094 3.02392 0
M  V30 24 O 2.2501 -1.23572 4.20311 0
M  V30 25 C 3.7511 -2.84884 3.39641 0
M  V30 26 H 0.9711 -0.302057 0.599168 0
M  V30 27 H 3.5151 -0.303465 2.02236 0
M  V30 28 H 1.6701 -2.65465 2.82147 0
M  V30 29 H 2.0841 -1.88172 4.89583 0
M  V30 30 H 3.5581 -3.47927 4.28545 0
M  V30 31 H 4.0351 -3.54665 2.59055 0
M  V30 32 H 4.6411 -2.23003 3.62146 0
M  V30 33 N 2.9562 -1.48159 -0.537278 0
M  V30 34 C 4.1842 -1.59454 -1.31841 0
M  V30 35 C 4.5992 -0.252065 -1.8711 0
M  V30 36 O 3.9562 0.757621 -1.66031 0
M  V30 37 C 4.0072 -2.63546 -2.47439 0
M  V30 38 O 3.7282 -3.92583 -1.94449 0
M  V30 39 C 5.2292 -2.85212 -3.39366 0
M  V30 40 H 2.4492 -0.53785 -0.401196 0
M  V30 41 H 4.9932 -1.93932 -0.648891 0
M  V30 42 H 3.1482 -2.31946 -3.1029 0
M  V30 43 H 3.5622 -4.49629 -2.70063 0
M  V30 44 H 5.0362 -3.61863 -4.16844 0
M  V30 45 H 5.5132 -1.93765 -3.94147 0
M  V30 46 H 6.1192 -3.18086 -2.82314 0
M  V30 47 N 4.4343 0.785586 -1.36625 0
M  V30 48 C 5.3663 1.90711 -1.2713 0
M  V30 49 C 6.3793 1.61688 -0.189986 0
M  V30 50 O 7.5683 1.72864 -0.445014 0
M  V30 51 C 4.6683 3.25611 -0.939713 0
M  V30 52 C 3.8413 3.82385 -2.12369 0
M  V30 53 C 2.9003 4.95732 -1.76456 0
M  V30 54 O 1.9263 5.12047 -2.48589 0
M  V30 55 N 3.1283 5.76258 -0.700492 0
M  V30 56 H 5.8933 1.99376 -2.23762 0
M  V30 57 H 3.4543 0.964041 -1.30069 0
M  V30 58 H 5.4463 3.98937 -0.680554 0
M  V30 59 H 4.0163 3.12538 -0.0624074 0
M  V30 60 H 3.2363 3.01001 -2.54543 0
M  V30 61 H 4.5243 4.17047 -2.9146 0
M  V30 62 H 3.9223 5.65609 -0.101624 0
M  V30 63 H 2.4793 6.4987 -0.501165 0
M  V30 64 N 5.9124 1.20967 1.01018 0
M  V30 65 C 7.1584 1.02526 1.74975 0
M  V30 66 C 7.4914 -0.4408 1.89131 0
M  V30 67 O 6.7664 -1.32718 1.42184 0
M  V30 68 C 7.0494 1.71699 3.1653 0
M  V30 69 C 6.9024 3.25791 3.10129 0
M  V30 70 C 8.2214 1.45531 4.15342 0
M  V30 71 H 5.3404 0.373863 0.635134 0
M  V30 72 H 7.9824 1.49071 1.17805 0
M  V30 73 H 6.1324 1.32128 3.65341 0
M  V30 74 H 7.8044 3.74697 2.69072 0
M  V30 75 H 6.0474 3.56363 2.47362 0
M  V30 76 H 6.7184 3.69353 4.10222 0
M  V30 77 H 9.1944 1.79872 3.75213 0
M  V30 78 H 8.0704 1.96453 5.1254 0
M  V30 79 H 8.3314 0.384237 4.40427 0
M  V30 80 N 7.3905 -1.2043 1.01659 0
M  V30 81 C 8.8015 -1.71517 0.737482 0
M  V30 82 C 9.1525 -1.81547 -0.743973 0
M  V30 83 O 8.2775 -1.47803 -1.58061 0
M  V30 84 C 8.8725 -3.11515 1.33206 0
M  V30 85 C 7.4315 -3.59912 1.10183 0
M  V30 86 C 6.5785 -2.37116 1.43776 0
M  V30 87 H 9.5295 -1.05444 1.18606 0
M  V30 88 H 9.5505 -3.73575 0.722636 0
M  V30 89 H 9.0625 -3.04182 2.41028 0
M  V30 90 H 7.1635 -3.72577 0.0412756 0
M  V30 91 H 7.2765 -4.44731 1.78188 0
M  V30 92 H 5.6405 -2.39857 0.856778 0
M  V30 93 H 6.4235 -2.32424 2.52654 0
M  V30 94 N 8.8686 -0.792821 -1.36206 0
M  V30 95 C 10.2796 -0.429513 -1.81692 0
M  V30 96 C 10.6306 1.04695 -1.65932 0
M  V30 97 O 9.7556 1.81256 -1.18218 0
M  V30 98 C 10.3506 -0.772831 -3.29868 0
M  V30 99 C 8.9096 -0.462307 -3.7355 0
M  V30 100 C 8.0566 -1.00569 -2.5842 0
M  V30 101 H 11.0076 -0.985672 -1.24379 0
M  V30 102 H 11.0286 -0.0651928 -3.80444 0
M  V30 103 H 10.5406 -1.84747 -3.41307 0
M  V30 104 H 8.6416 0.604158 -3.67669 0
M  V30 105 H 8.7546 -0.985299 -4.68859 0
M  V30 106 H 7.1186 -0.428734 -2.51066 0
M  V30 107 H 7.9016 -2.08616 -2.72643 0
M  V30 108 N 10.3467 1.47872 -0.545128 0
M  V30 109 C 11.5717 2.07391 -0.0190611 0
M  V30 110 C 11.9967 1.39688 1.25971 0
M  V30 111 O 11.3547 0.467816 1.7516 0
M  V30 112 C 11.4027 3.60188 0.172335 0
M  V30 113 O 10.5067 3.9339 1.23766 0
M  V30 114 H 9.8477 0.662411 -0.0459059 0
M  V30 115 H 12.3777 1.90066 -0.757365 0
M  V30 116 H 12.3877 4.06129 0.390305 0
M  V30 117 H 11.0627 4.08865 -0.761725 0
M  V30 118 H 9.6397 3.5921 1.00114 0
M  V30 119 N 11.8248 0.280983 1.55075 0
M  V30 120 C 12.7878 -0.590896 2.21452 0
M  V30 121 C 13.7878 -1.07682 1.19421 0
M  V30 122 O 14.9778 -0.97605 1.44288 0
M  V30 123 C 12.1098 -1.81587 2.88511 0
M  V30 124 H 13.3028 -0.0112554 2.99898 0
M  V30 125 H 10.8558 0.0316438 1.56268 0
M  V30 126 H 11.5908 -2.43587 2.14093 0
M  V30 127 H 11.3758 -1.4753 3.63287 0
M  V30 128 H 12.8658 -2.43575 3.39206 0
M  V30 129 N 13.3029 -1.57598 0.00835791 0
M  V30 130 C 14.2329 -2.1198 -0.979113 0
M  V30 131 C 15.2139 -1.03091 -1.35301 0
M  V30 132 O 16.3989 -1.30818 -1.43528 0
M  V30 133 C 13.5289 -2.62995 -2.26828 0
M  V30 134 C 12.4829 -3.76485 -2.03576 0
M  V30 135 C 11.8089 -4.13846 -3.38579 0
M  V30 136 C 13.1089 -5.0342 -1.39161 0
M  V30 137 H 14.8029 -2.94738 -0.526281 0
M  V30 138 H 12.3489 -1.41783 -0.251704 0
M  V30 139 H 14.3019 -2.99669 -2.96271 0
M  V30 140 H 13.0259 -1.7737 -2.7424 0
M  V30 141 H 11.6849 -3.40217 -1.36557 0
M  V30 142 H 11.3329 -3.25232 -3.83709 0
M  V30 143 H 11.0329 -4.90312 -3.23834 0
M  V30 144 H 12.5569 -4.53086 -4.09323 0
M  V30 145 H 13.9709 -5.37812 -1.98573 0
M  V30 146 H 12.3679 -5.84746 -1.34878 0
M  V30 147 H 13.4379 -4.83548 -0.361868 0
M  V30 148 N 14.781 0.264519 -1.55364 0
M  V30 149 C 15.711 1.33121 -1.91836 0
M  V30 150 C 16.692 1.51101 -0.781192 0
M  V30 151 O 17.877 1.64003 -1.04003 0
M  V30 152 C 15.007 2.68921 -2.19769 0
M  V30 153 C 13.961 2.65661 -3.35571 0
M  V30 154 C 13.287 4.05093 -3.49004 0
M  V30 155 C 14.587 2.24187 -4.71739 0
M  V30 156 H 16.281 1.02844 -2.81182 0
M  V30 157 H 13.827 0.493286 -1.35287 0
M  V30 158 H 15.78 3.43663 -2.43872 0
M  V30 159 H 14.504 3.00799 -1.27231 0
M  V30 160 H 13.163 1.93377 -3.1145 0
M  V30 161 H 12.811 4.34206 -2.53917 0
M  V30 162 H 12.511 4.03804 -4.26868 0
M  V30 163 H 14.035 4.81561 -3.75408 0
M  V30 164 H 15.449 2.88654 -4.9533 0
M  V30 165 H 13.846 2.34044 -5.52579 0
M  V30 166 H 14.916 1.19327 -4.69988 0
M  V30 167 N 16.2591 1.48442 0.529413 0
M  V30 168 C 17.6701 1.5002 1.11134 0
M  V30 169 C 18.0211 0.27031 1.94329 0
M  V30 170 O 17.1461 -0.622507 2.07253 0
M  V30 171 C 17.7411 2.71834 2.02217 0
M  V30 172 C 16.3001 2.76283 2.55627 0
M  V30 173 C 15.4471 2.43542 1.326 0
M  V30 174 H 18.3981 1.5555 0.314641 0
M  V30 175 H 18.4191 2.50384 2.8651 0
M  V30 176 H 17.9311 3.61331 1.41639 0
M  V30 177 H 16.0321 1.90995 3.19924 0
M  V30 178 H 16.1451 3.77725 2.94721 0
M  V30 179 H 14.5091 1.94709 1.64196 0
M  V30 180 H 15.2921 3.3528 0.737734 0
M  V30 181 N 17.7372 -0.778329 1.37039 0
M  V30 182 C 18.6672 -1.90546 1.34962 0
M  V30 183 C 19.6482 -1.68681 0.219274 0
M  V30 184 O 20.8332 -1.89634 0.418624 0
M  V30 185 C 17.9632 -3.27734 1.14925 0
M  V30 186 C 16.9172 -3.64147 2.24902 0
M  V30 187 C 16.2432 -4.99806 1.89996 0
M  V30 188 C 17.5432 -3.71579 3.67051 0
M  V30 189 H 19.2372 -1.92541 2.29277 0
M  V30 190 H 16.7832 -0.924948 1.10366 0
M  V30 191 H 18.7362 -4.06215 1.12104 0
M  V30 192 H 17.4602 -3.26154 0.170631 0
M  V30 193 H 16.1192 -2.8797 2.26868 0
M  V30 194 H 15.7672 -4.94759 0.906796 0
M  V30 195 H 15.4672 -5.25139 2.63634 0
M  V30 196 H 16.9912 -5.80694 1.88749 0
M  V30 197 H 18.4052 -4.40227 3.67251 0
M  V30 198 H 16.8022 -4.08405 4.39688 0
M  V30 199 H 17.8722 -2.72404 4.01154 0
M  V30 200 N 19.2153 -1.21501 -1.00376 0
M  V30 201 C 20.1633 -0.972442 -2.11297 0
M  V30 202 C 21.1573 0.080731 -1.69208 0
M  V30 203 O 22.3633 -0.0707666 -1.79861 0
M  V30 204 H 18.7383 -0.297218 -0.690772 0
M  V30 205 H 20.7093 -1.91394 -2.28934 0
M  V30 206 C 19.4583 -0.555065 -3.43241 0
M  V30 207 H 18.7813 -1.35709 -3.76062 0
M  V30 208 H 20.2213 -0.424664 -4.21868 0
M  V30 209 C 18.6803 0.734147 -3.28804 0
M  V30 210 O 19.2103 1.78937 -3.59645 0
M  V30 211 N 17.4163 0.701133 -2.82015 0
M  V30 212 H 16.9633 -0.157874 -2.57116 0
M  V30 213 H 16.9213 1.56403 -2.72737 0
M  V30 214 N 20.6934 1.19889 -1.02296 0
M  V30 215 C 22.1044 1.71124 -0.746568 0
M  V30 216 C 22.4554 1.81939 0.734335 0
M  V30 217 O 21.5804 1.48639 1.57275 0
M  V30 218 C 22.1754 3.10804 -1.34857 0
M  V30 219 C 20.7344 3.59323 -1.1209 0
M  V30 220 C 19.8814 2.3635 -1.45031 0
M  V30 221 H 22.8324 1.04813 -1.19163 0
M  V30 222 H 22.8534 3.73186 -0.742437 0
M  V30 223 H 22.3654 3.029 -2.42638 0
M  V30 224 H 20.4664 3.7255 -0.0610337 0
M  V30 225 H 20.5794 4.4378 -1.80544 0
M  V30 226 H 18.9434 2.39399 -0.869487 0
M  V30 227 H 19.7264 2.31081 -2.53883 0
M  V30 228 N 22.1715 0.800033 1.35784 0
M  V30 229 C 23.0815 0.207204 2.33683 0
M  V30 230 C 24.0975 -0.64631 1.61551 0
M  V30 231 O 25.2735 -0.559604 1.93469 0
M  V30 232 C 22.3385 -0.639659 3.40748 0
M  V30 233 C 21.3995 0.233585 4.28664 0
M  V30 234 C 20.6325 -0.572954 5.30616 0
M  V30 235 O 20.8555 -1.80816 5.40982 0
M  V30 236 O 19.7895 0.0327285 6.01891 0
M  V30 237 H 23.6155 1.01692 2.86169 0
M  V30 238 H 21.2005 0.561691 1.38439 0
M  V30 239 H 23.0825 -1.12223 4.06182 0
M  V30 240 H 21.7575 -1.42708 2.90544 0
M  V30 241 H 20.6645 0.763147 3.66233 0
M  V30 242 H 21.9975 0.984784 4.82248 0
M  V30 243 N 23.6496 -1.47581 0.552962 0
M  V30 244 C 24.5816 -2.27997 -0.234533 0
M  V30 245 C 25.5946 -1.36753 -0.883321 0
M  V30 246 O 26.7836 -1.61612 -0.757889 0
M  V30 247 C 23.8836 -3.10879 -1.34935 0
M  V30 248 C 23.0566 -4.30056 -0.798158 0
M  V30 249 C 22.1156 -4.94567 -1.79694 0
M  V30 250 O 21.1416 -5.53087 -1.34474 0
M  V30 251 N 22.3436 -4.88878 -3.13015 0
M  V30 252 H 25.1086 -2.96222 0.455255 0
M  V30 253 H 22.6696 -1.57163 0.388761 0
M  V30 254 H 24.6616 -3.50903 -2.01616 0
M  V30 255 H 23.2316 -2.44924 -1.94244 0
M  V30 256 H 22.4516 -3.94174 0.0453079 0
M  V30 257 H 23.7396 -5.07152 -0.409173 0
M  V30 258 H 23.1376 -4.42526 -3.52402 0
M  V30 259 H 21.6946 -5.32934 -3.75266 0
M  V30 260 N 25.1277 -0.289203 -1.54924 0
M  V30 261 C 26.0577 0.58549 -2.2604 0
M  V30 262 C 27.0387 1.14753 -1.25562 0
M  V30 263 O 28.2237 1.17906 -1.54311 0
M  V30 264 C 25.3537 1.76305 -2.99222 0
M  V30 265 C 24.3077 1.33191 -4.06748 0
M  V30 266 C 23.6337 2.5937 -4.6758 0
M  V30 267 C 24.9337 0.471775 -5.20165 0
M  V30 268 H 26.6277 -0.00763532 -2.99399 0
M  V30 269 H 24.1737 -0.00511229 -1.43999 0
M  V30 270 H 26.1267 2.38097 -3.47689 0
M  V30 271 H 24.8507 2.38223 -2.23422 0
M  V30 272 H 23.5097 0.737121 -3.59113 0
M  V30 273 H 23.1577 3.19576 -3.88433 0
M  V30 274 H 22.8577 2.31228 -5.40192 0
M  V30 275 H 24.3817 3.21985 -5.18804 0
M  V30 276 H 25.7957 0.995056 -5.64599 0
M  V30 277 H 24.1927 0.284639 -5.99425 0
M  V30 278 H 25.2627 -0.506041 -4.82252 0
M  V30 279 N 26.6058 1.57591 -0.0167156 0
M  V30 280 C 27.5688 2.08393 0.954204 0
M  V30 281 C 28.5688 0.996531 1.26198 0
M  V30 282 O 29.7588 1.25858 1.20438 0
M  V30 283 C 26.8908 2.5394 2.27436 0
M  V30 284 H 28.0838 2.95455 0.514451 0
M  V30 285 H 25.6368 1.54582 0.231089 0
M  V30 286 H 26.3718 1.70171 2.76066 0
M  V30 287 H 26.1568 3.33371 2.06412 0
M  V30 288 H 27.6468 2.93512 2.97053 0
M  V30 289 N 28.0839 -0.256276 1.55502 0
M  V30 290 C 29.4999 -0.604325 1.47716 0
M  V30 291 C 29.6999 -1.88763 0.705039 0
M  V30 292 O 28.7559 -2.51445 0.230613 0
M  V30 293 C 30.0689 -0.715756 2.92057 0
M  V30 294 C 31.6169 -0.808706 3.02372 0
M  V30 295 C 32.0919 -0.951777 4.48001 0
M  V30 296 N 33.5829 -1.01688 4.519 0
M  V30 297 C 34.3179 -1.14668 5.61817 0
M  V30 298 N 33.8139 -1.24261 6.81565 0
M  V30 299 N 35.6069 -1.1791 5.49594 0
M  V30 300 H 27.7579 0.586291 2.04148 0
M  V30 301 H 30.0209 0.201015 0.926443 0
M  V30 302 H 29.7269 0.157027 3.51349 0
M  V30 303 H 29.6009 -1.59071 3.42018 0
M  V30 304 H 31.9879 -1.67195 2.43166 0
M  V30 305 H 32.0689 0.0912063 2.55637 0
M  V30 306 H 31.7129 -0.0931291 5.07815 0
M  V30 307 H 31.6429 -1.86659 4.92408 0
M  V30 308 H 34.1339 -0.954468 3.65648 0
M  V30 309 H 34.4469 -1.34046 7.61086 0
M  V30 310 H 32.7919 -1.21236 6.84344 0
M  V30 311 H 35.9829 -1.10057 4.54978 0
M  V30 312 H 36.1559 -1.27681 6.35296 0
M  V30 313 N 29.562 -1.4872 -0.521534 0
M  V30 314 C 30.492 -1.66771 -1.63431 0
M  V30 315 C 31.473 -0.516499 -1.62069 0
M  V30 316 O 32.658 -0.750013 -1.79132 0
M  V30 317 C 29.788 -1.71515 -3.01993 0
M  V30 318 C 28.742 -2.86222 -3.18216 0
M  V30 319 C 28.068 -2.76061 -4.57924 0
M  V30 320 C 29.368 -4.27419 -3.00184 0
M  V30 321 H 31.062 -2.59932 -1.48579 0
M  V30 322 H 28.608 -1.25089 -0.713358 0
M  V30 323 H 30.561 -1.82731 -3.7972 0
M  V30 324 H 29.285 -0.749393 -3.17886 0
M  V30 325 H 27.944 -2.74575 -2.42908 0
M  V30 326 H 27.592 -1.77437 -4.70665 0
M  V30 327 H 27.292 -3.53037 -4.69722 0
M  V30 328 H 28.816 -2.89256 -5.37739 0
M  V30 329 H 30.23 -4.39855 -3.67697 0
M  V30 330 H 28.627 -5.05458 -3.2347 0
M  V30 331 H 29.697 -4.43293 -1.96518 0
M  V30 332 N 31.0401 0.771051 -1.3745 0
M  V30 333 C 31.9721 1.89352 -1.29146 0
M  V30 334 C 32.9851 1.61477 -0.207124 0
M  V30 335 O 34.1741 1.72382 -0.463324 0
M  V30 336 C 31.2741 3.24596 -0.974195 0
M  V30 337 C 30.4471 3.80111 -2.16413 0
M  V30 338 C 29.5061 4.93832 -1.81703 0
M  V30 339 O 28.5321 5.09382 -2.54006 0
M  V30 340 N 29.7341 5.75483 -0.761573 0
M  V30 341 H 32.4991 1.96991 -2.25864 0
M  V30 342 H 30.0601 0.950191 -1.31084 0
M  V30 343 H 32.0521 3.98193 -0.722828 0
M  V30 344 H 30.6221 3.12454 -0.0955527 0
M  V30 345 H 29.8421 2.98284 -2.57721 0
M  V30 346 H 31.1301 4.13932 -2.95867 0
M  V30 347 H 30.5281 5.65469 -0.161609 0
M  V30 348 H 29.0851 6.49302 -0.570064 0
M  V30 349 N 32.5182 1.22032 0.997298 0
M  V30 350 C 33.4812 0.987909 2.06816 0
M  V30 351 C 34.4812 -0.0440084 1.6074 0
M  V30 352 O 35.6712 0.194053 1.73116 0
M  V30 353 C 32.8032 0.49132 3.37341 0
M  V30 354 H 33.9962 1.93803 2.28868 0
M  V30 355 H 31.5492 1.03838 1.16822 0
M  V30 356 H 32.2842 -0.463364 3.20973 0
M  V30 357 H 32.0692 1.23575 3.72118 0
M  V30 358 H 33.5592 0.348824 4.16141 0
M  V30 359 N 33.9963 -1.19345 1.0293 0
M  V30 360 C 34.9593 -2.20793 0.615069 0
M  V30 361 C 35.9593 -1.57553 -0.321533 0
M  V30 362 O 37.1493 -1.73862 -0.108483 0
M  V30 363 C 34.2813 -3.40754 -0.0999222 0
M  V30 364 H 35.4743 -2.58955 1.51269 0
M  V30 365 H 33.0273 -1.3303 0.820534 0
M  V30 366 H 33.7623 -3.0811 -1.01187 0
M  V30 367 H 33.5473 -3.87889 0.57309 0
M  V30 368 H 35.0373 -4.15898 -0.376645 0
M  V30 369 N 35.4744 -0.807222 -1.35358 0
M  V30 370 C 36.7024 -0.400377 -2.02989 0
M  V30 371 C 37.1174 0.988859 -1.60832 0
M  V30 372 O 36.4744 1.63729 -0.806175 0
M  V30 373 C 36.5254 -0.474867 -3.58368 0
M  V30 374 O 36.2464 -1.80933 -3.98992 0
M  V30 375 C 37.7474 -0.0609112 -4.43258 0
M  V30 376 H 34.9674 -0.162587 -0.651004 0
M  V30 377 H 37.5114 -1.09102 -1.72965 0
M  V30 378 H 35.6664 0.167534 -3.87038 0
M  V30 379 H 36.0804 -1.77256 -4.9364 0
M  V30 380 H 37.5544 -0.164145 -5.51756 0
M  V30 381 H 38.0314 0.993831 -4.27808 0
M  V30 382 H 38.6374 -0.676492 -4.19885 0
M  V30 383 N 36.9525 1.47285 -0.560781 0
M  V30 384 C 38.1805 2.06855 -0.0430262 0
M  V30 385 C 38.5955 1.41291 1.25229 0
M  V30 386 O 37.9525 0.510648 1.7521 0
M  V30 387 C 38.0035 3.61178 0.152518 0
M  V30 388 O 37.7245 4.24285 -1.0915 0
M  V30 389 C 39.2255 4.37624 0.707145 0
M  V30 390 H 36.4455 0.669319 -0.0474652 0
M  V30 391 H 38.9895 1.89237 -0.77521 0
M  V30 392 H 37.1445 3.78298 0.834843 0
M  V30 393 H 37.5585 5.16868 -0.891482 0
M  V30 394 H 39.0325 5.46271 0.793244 0
M  V30 395 H 39.5095 4.04152 1.71923 0
M  V30 396 H 40.1155 4.25257 0.0604027 0
M  V30 397 N 38.4306 0.297415 1.54768 0
M  V30 398 C 39.7076 -0.365847 1.92148 0
M  V30 399 C 40.0876 -1.71975 1.22424 0
M  V30 400 O 39.4356 -2.25666 0.358739 0
M  V30 401 C 39.6456 -0.484056 3.45627 0
M  V30 402 C 40.9936 -0.756594 4.17805 0
M  V30 403 O 42.0176 -0.568007 3.51642 0
M  V30 404 O 40.8766 -1.11863 5.34929 0
M  V30 405 H 37.9706 -0.203919 0.801465 0
M  V30 406 H 40.5166 0.34521 1.66152 0
M  V30 407 H 39.2886 0.467865 3.88493 0
M  V30 408 H 38.9116 -1.24372 3.77647 0
M  V30 409 N 39.9087 -1.5758 0.0250728 0
M  V30 410 C 40.8387 -2.13007 -0.956575 0
M  V30 411 C 41.8197 -1.0452 -1.342 0
M  V30 412 O 43.0047 -1.32332 -1.42133 0
M  V30 413 C 40.1347 -2.65386 -2.24026 0
M  V30 414 C 39.0887 -3.78623 -1.99571 0
M  V30 415 C 38.4147 -4.17414 -3.3417 0
M  V30 416 C 39.7147 -5.04867 -1.33814 0
M  V30 417 H 41.4087 -2.9528 -0.494991 0
M  V30 418 H 38.9547 -1.42042 -0.236651 0
M  V30 419 H 40.9077 -3.02794 -2.93076 0
M  V30 420 H 39.6317 -1.80268 -2.72343 0
M  V30 421 H 38.2907 -3.41646 -1.32941 0
M  V30 422 H 37.9387 -3.29284 -3.80238 0
M  V30 423 H 37.6387 -4.93719 -3.18615 0
M  V30 424 H 39.1627 -4.57402 -4.04495 0
M  V30 425 H 40.5767 -5.39888 -1.92857 0
M  V30 426 H 38.9737 -5.86144 -1.28669 0
M  V30 427 H 40.0437 -4.83904 -0.310561 0
M  V30 428 N 41.3868 0.248026 -1.55636 0
M  V30 429 C 42.6148 0.993808 -1.81469 0
M  V30 430 C 43.0298 1.78991 -0.60064 0
M  V30 431 O 42.3868 1.77345 0.430682 0
M  V30 432 C 42.4378 1.93258 -3.05506 0
M  V30 433 O 42.1588 1.16869 -4.22224 0
M  V30 434 C 43.6598 2.79444 -3.4413 0
M  V30 435 H 40.8798 0.292486 -0.603898 0
M  V30 436 H 43.4238 0.271253 -2.02693 0
M  V30 437 H 41.5788 2.60943 -2.86335 0
M  V30 438 H 41.9928 1.80359 -4.92515 0
M  V30 439 H 43.4668 3.41066 -4.34026 0
M  V30 440 H 43.9438 3.50499 -2.64665 0
M  V30 441 H 44.5498 2.17214 -3.65648 0
M  V30 442 N 42.8649 1.48995 0.513639 0
M  V30 443 C 44.2759 1.5119 1.09537 0
M  V30 444 C 44.6269 0.290906 1.94031 0
M  V30 445 O 43.7519 -0.60049 2.07902 0
M  V30 446 C 44.3469 2.73964 1.99322 0
M  V30 447 C 42.9059 2.78978 2.52682 0
M  V30 448 C 42.0529 2.44934 1.30009 0
M  V30 449 H 45.0039 1.55875 0.298125 0
M  V30 450 H 45.0249 2.53409 2.83838 0
M  V30 451 H 44.5369 3.62813 1.37799 0
M  V30 452 H 42.6379 1.94378 3.1788 0
M  V30 453 H 42.7509 3.8083 2.90698 0
M  V30 454 H 41.1149 1.9644 1.62122 0
M  V30 455 H 41.8979 3.36043 0.702131 0
M  V30 456 N 44.343 -0.763751 1.37857 0
M  V30 457 C 45.571 -1.55293 1.36718 0
M  V30 458 C 45.986 -1.88745 -0.0455434 0
M  V30 459 O 45.343 -1.52039 -1.00947 0
M  V30 460 C 45.394 -2.85831 2.2132 0
M  V30 461 O 45.115 -2.5381 3.57089 0
M  V30 462 C 46.616 -3.80023 2.28249 0
M  V30 463 H 43.836 -0.480841 0.468009 0
M  V30 464 H 46.38 -0.946009 1.81303 0
M  V30 465 H 44.535 -3.42926 1.80223 0
M  V30 466 H 44.949 -3.37459 4.01524 0
M  V30 467 H 46.423 -4.68599 2.91752 0
M  V30 468 H 46.9 -4.1973 1.2932 0
M  V30 469 H 47.506 -3.28855 2.69693 0
M  V30 470 N 45.8211 -1.22559 -0.990812 0
M  V30 471 C 46.7531 -0.955325 -2.08342 0
M  V30 472 C 47.7661 0.0668408 -1.62663 0
M  V30 473 O 48.9551 -0.167421 -1.77713 0
M  V30 474 C 46.0551 -0.415566 -3.36342 0
M  V30 475 C 45.2281 -1.49544 -4.11042 0
M  V30 476 C 44.2871 -0.962399 -5.17324 0
M  V30 477 O 43.3131 -1.64907 -5.44788 0
M  V30 478 N 44.5151 0.215134 -5.80101 0
M  V30 479 H 47.2801 -1.89596 -2.32106 0
M  V30 480 H 44.8411 -1.13276 -1.15673 0
M  V30 481 H 46.8331 -0.0442386 -4.04676 0
M  V30 482 H 45.4031 0.430232 -3.09625 0
M  V30 483 H 44.6231 -2.04 -3.37309 0
M  V30 484 H 45.9111 -2.22195 -4.57719 0
M  V30 485 H 45.3091 0.789779 -5.6016 0
M  V30 486 H 43.8661 0.527826 -6.49659 0
M  V30 487 N 47.2992 1.18797 -1.03562 0
M  V30 488 C 48.2292 2.24472 -0.643019 0
M  V30 489 C 49.2102 1.66433 0.351283 0
M  V30 490 O 50.3952 1.92803 0.232505 0
M  V30 491 C 47.5252 3.473 4.24935e-05 0
M  V30 492 C 46.4792 4.18055 -0.917257 0
M  V30 493 C 45.8052 5.34519 -0.138941 0
M  V30 494 C 47.1052 4.72109 -2.23407 0
M  V30 495 H 48.7992 2.57566 -1.52643 0
M  V30 496 H 46.3452 1.23806 -0.735394 0
M  V30 497 H 48.2982 4.20426 0.286383 0
M  V30 498 H 47.0222 3.13424 0.918299 0
M  V30 499 H 45.6812 3.46821 -1.1879 0
M  V30 500 H 45.3292 4.96891 0.781562 0
M  V30 501 H 45.0292 5.82794 -0.750005 0
M  V30 502 H 46.5532 6.10438 0.1405 0
M  V30 503 H 47.9672 5.36955 -2.00879 0
M  V30 504 H 46.3642 5.30897 -2.79765 0
M  V30 505 H 47.4342 3.89807 -2.88407 0
M  V30 506 N 48.7773 0.814389 1.34928 0
M  V30 507 C 49.7403 0.235759 2.27984 0
M  V30 508 C 50.7403 -0.581412 1.49921 0
M  V30 509 O 51.9303 -0.398758 1.69575 0
M  V30 510 C 49.0623 -0.670433 3.34242 0
M  V30 511 H 50.2553 1.05659 2.80671 0
M  V30 512 H 47.8083 0.585614 1.44915 0
M  V30 513 H 48.5433 -1.51466 2.86755 0
M  V30 514 H 48.3283 -0.0860822 3.92005 0
M  V30 515 H 49.8183 -1.06935 4.03676 0
M  V30 516 N 50.2554 -1.46986 0.568584 0
M  V30 517 C 51.5014 -2.0332 0.0571487 0
M  V30 518 C 51.8564 -1.43384 -1.28291 0
M  V30 519 O 51.1494 -0.584304 -1.82473 0
M  V30 520 C 51.3434 -3.57306 -0.081836 0
M  V30 521 C 51.1724 -4.32174 1.24321 0
M  V30 522 C 49.9424 -4.71633 1.81358 0
M  V30 523 C 52.1404 -4.66598 2.16312 0
M  V30 524 N 50.1224 -5.31191 3.07748 0
M  V30 525 C 51.4934 -5.26578 3.27285 0
M  V30 526 C 53.5484 -4.48527 2.16166 0
M  V30 527 C 52.2514 -5.70395 4.38226 0
M  V30 528 C 54.2774 -4.93351 3.26127 0
M  V30 529 C 53.6394 -5.5339 4.3582 0
M  V30 530 H 49.7384 -0.77943 0.063351 0
M  V30 531 H 52.3224 -1.79323 0.758378 0
M  V30 532 H 50.4934 -3.81046 -0.752207 0
M  V30 533 H 52.2254 -4.00282 -0.59637 0
M  V30 534 H 48.9804 -4.53946 1.35019 0
M  V30 535 H 49.4044 -5.65505 3.72201 0
M  V30 536 H 54.0464 -4.01456 1.32638 0
M  V30 537 H 51.7644 -6.16452 5.22506 0
M  V30 538 H 55.3504 -4.81131 3.27115 0
M  V30 539 H 54.2304 -5.87441 5.19503 0
M  V30 540 N 51.7335 -0.305618 -1.54608 0
M  V30 541 C 52.9795 0.302746 -2.00528 0
M  V30 542 C 53.3125 1.53184 -1.19367 0
M  V30 543 O 52.5875 1.92598 -0.271321 0
M  V30 544 C 52.8705 0.654756 -3.54097 0
M  V30 545 C 52.7235 -0.583793 -4.45995 0
M  V30 546 C 54.0425 1.47947 -4.14487 0
M  V30 547 H 51.1615 0.108564 -0.72896 0
M  V30 548 H 53.8035 -0.418634 -1.85331 0
M  V30 549 H 51.9535 1.26935 -3.67178 0
M  V30 550 H 53.6255 -1.22224 -4.44814 0
M  V30 551 H 51.8685 -1.21615 -4.16404 0
M  V30 552 H 52.5395 -0.293287 -5.5122 0
M  V30 553 H 55.0155 0.96013 -4.04871 0
M  V30 554 H 53.8915 1.69454 -5.22088 0
M  V30 555 H 54.1525 2.47011 -3.66658 0
M  V30 556 N 53.2116 1.57565 -0.0334293 0
M  V30 557 C 54.4366 1.96689 0.657895 0
M  V30 558 C 54.8616 0.910057 1.64619 0
M  V30 559 O 54.2196 -0.128598 1.80843 0
M  V30 560 C 54.2676 3.34905 1.33683 0
M  V30 561 O 53.3716 3.31574 2.45219 0
M  V30 562 H 52.7126 0.641205 0.172489 0
M  V30 563 H 55.2426 2.04372 -0.0965621 0
M  V30 564 H 55.2526 3.71234 1.69262 0
M  V30 565 H 53.9276 4.11366 0.612411 0
M  V30 566 H 52.5046 3.06968 2.11719 0
M  V30 567 N 54.6897 -0.239769 1.55765 0
M  V30 568 C 55.9377 -0.964892 1.77579 0
M  V30 569 C 56.2587 -1.85582 0.598699 0
M  V30 570 O 55.5287 -1.92075 -0.385226 0
M  V30 571 H 54.1087 -0.359265 0.654933 0
M  V30 572 H 56.7707 -0.256001 1.93211 0
M  V30 573 H 55.8667 -1.58243 2.69009 0
M  V30 574 N 56.1678 -1.49265 -0.50573 0
M  V30 575 C 57.3978 -1.61979 -1.28243 0
M  V30 576 C 57.8058 -0.288576 -1.86986 0
M  V30 577 O 57.1488 0.735408 -1.68337 0
M  V30 578 C 57.2108 -2.62632 -2.45489 0
M  V30 579 C 56.8748 -4.071 -2.07651 0
M  V30 580 C 57.8718 -4.94049 -1.61901 0
M  V30 581 C 55.5568 -4.52801 -2.17431 0
M  V30 582 C 57.5508 -6.24736 -1.26428 0
M  V30 583 C 55.2378 -5.83503 -1.8157 0
M  V30 584 C 56.2358 -6.69294 -1.36142 0
M  V30 585 O 55.9238 -7.9756 -1.00764 0
M  V30 586 H 55.6558 -0.54834 -0.395347 0
M  V30 587 H 58.2098 -1.96002 -0.614204 0
M  V30 588 H 56.4398 -2.2378 -3.15372 0
M  V30 589 H 58.1288 -2.64925 -3.07522 0
M  V30 590 H 58.8948 -4.5997 -1.53795 0
M  V30 591 H 54.7738 -3.86196 -2.51742 0
M  V30 592 H 58.3178 -6.91652 -0.908992 0
M  V30 593 H 54.2148 -6.17112 -1.89324 0
M  V30 594 H 54.9828 -8.10529 -1.13952 0
M  V30 595 N 57.6459 0.756429 -1.3826 0
M  V30 596 C 58.8929 1.51547 -1.34312 0
M  V30 597 C 59.2209 1.94382 0.0677144 0
M  V30 598 O 58.4759 1.65514 1.04421 0
M  V30 599 C 58.7749 2.78313 -2.24224 0
M  V30 600 C 58.4409 2.54455 -3.72241 0
M  V30 601 C 57.1029 2.47657 -4.12576 0
M  V30 602 C 59.4549 2.3354 -4.65949 0
M  V30 603 C 56.7829 2.17956 -5.44713 0
M  V30 604 C 59.1349 2.05359 -5.9834 0
M  V30 605 C 57.7989 1.97016 -6.37762 0
M  V30 606 H 57.0689 0.55455 -0.491482 0
M  V30 607 H 59.7159 0.870039 -1.70595 0
M  V30 608 H 58.0209 3.47492 -1.80987 0
M  V30 609 H 59.7179 3.36259 -2.18474 0
M  V30 610 H 56.3079 2.60616 -3.40261 0
M  V30 611 H 60.4919 2.37772 -4.35635 0
M  V30 612 H 55.7479 2.10003 -5.74203 0
M  V30 613 H 59.9219 1.88179 -6.70494 0
M  V30 614 H 57.5489 1.73766 -7.40074 0
M  V30 615 N 59.124 1.23083 0.984299 0
M  V30 616 C 60.37 1.07221 1.72845 0
M  V30 617 C 60.725 -0.387453 1.88458 0
M  V30 618 O 60.018 -1.28309 1.42293 0
M  V30 619 C 60.212 1.72673 3.1292 0
M  V30 620 C 60.041 3.24853 3.10967 0
M  V30 621 C 58.811 3.93998 3.16376 0
M  V30 622 C 61.009 4.21674 2.94441 0
M  V30 623 N 58.991 5.33192 3.04268 0
M  V30 624 C 60.362 5.47756 2.90453 0
M  V30 625 C 62.417 4.12457 2.78897 0
M  V30 626 C 61.12 6.6568 2.72512 0
M  V30 627 C 63.146 5.3004 2.62319 0
M  V30 628 C 62.508 6.55046 2.59026 0
M  V30 629 H 58.607 0.44685 0.641755 0
M  V30 630 H 61.191 1.55753 1.16829 0
M  V30 631 H 59.362 1.26679 3.67161 0
M  V30 632 H 61.094 1.49824 3.75945 0
M  V30 633 H 57.849 3.45052 3.24401 0
M  V30 634 H 58.273 6.06157 3.015 0
M  V30 635 H 62.915 3.16588 2.80235 0
M  V30 636 H 60.633 7.61689 2.69919 0
M  V30 637 H 64.219 5.24747 2.5126 0
M  V30 638 H 63.099 7.44498 2.46357 0
M  V30 639 N 60.6021 -1.18246 1.0419 0
M  V30 640 C 61.8501 -1.87886 0.744543 0
M  V30 641 C 62.1711 -1.8082 -0.730006 0
M  V30 642 O 61.4411 -1.22736 -1.52685 0
M  V30 643 H 60.0211 -0.695556 0.272417 0
M  V30 644 H 62.6831 -1.43494 1.31892 0
M  V30 645 H 61.7791 -2.9389 1.05049 0
M  V30 646 N 62.0802 -0.821533 -1.34494 0
M  V30 647 C 63.3262 -0.409552 -1.98622 0
M  V30 648 C 63.6592 1.0244 -1.64984 0
M  V30 649 O 62.9342 1.71325 -0.920758 0
M  V30 650 C 63.2172 -0.610458 -3.54888 0
M  V30 651 C 63.0702 -2.09043 -3.98273 0
M  V30 652 C 64.3892 -0.0455379 -4.40076 0
M  V30 653 H 61.5082 -0.15028 -0.721516 0
M  V30 654 H 64.1502 -1.03384 -1.59411 0
M  V30 655 H 62.3002 -0.079044 -3.8842 0
M  V30 656 H 63.9722 -2.68537 -3.75081 0
M  V30 657 H 62.2152 -2.58139 -3.48635 0
M  V30 658 H 62.8862 -2.18182 -5.07051 0
M  V30 659 H 65.3622 -0.499557 -4.1309 0
M  V30 660 H 64.2382 -0.215922 -5.48475 0
M  V30 661 H 64.4992 1.04939 -4.29465 0
M  V30 662 N 63.5583 1.46682 -0.576371 0
M  V30 663 C 64.4883 2.33028 0.148397 0
M  V30 664 C 65.4693 1.44961 0.889956 0
M  V30 665 O 66.6543 1.73789 0.866662 0
M  V30 666 C 63.7843 3.27117 1.1667 0
M  V30 667 C 62.7383 4.24575 0.540386 0
M  V30 668 C 62.0643 5.08126 1.6647 0
M  V30 669 C 63.3643 5.19722 -0.518331 0
M  V30 670 H 65.0583 2.93875 -0.572509 0
M  V30 671 H 62.6043 1.41315 -0.276768 0
M  V30 672 H 64.5573 3.86374 1.68204 0
M  V30 673 H 63.2813 2.64364 1.9178 0
M  V30 674 H 61.9403 3.66571 0.0461769 0
M  V30 675 H 61.5883 4.41762 2.40531 0
M  V30 676 H 61.2883 5.74122 1.25131 0
M  V30 677 H 62.8123 5.70246 2.18293 0
M  V30 678 H 64.2263 5.73232 -0.0883058 0
M  V30 679 H 62.6233 5.94026 -0.851679 0
M  V30 680 H 63.6933 4.64037 -1.40703 0
M  V30 681 N 65.0364 0.313813 1.54444 0
M  V30 682 C 65.9844 -0.572171 2.25453 0
M  V30 683 C 66.9784 -1.12657 1.2651 0
M  V30 684 O 68.1844 -1.07573 1.44319 0
M  V30 685 H 64.5594 -0.203146 0.724041 0
M  V30 686 H 66.5304 0.0491145 2.9836 0
M  V30 687 C 65.2794 -1.72626 3.0182 0
M  V30 688 H 64.6024 -1.30891 3.77767 0
M  V30 689 H 66.0424 -2.32199 3.54767 0
M  V30 690 C 64.5014 -2.63806 2.09542 0
M  V30 691 O 65.0314 -3.65256 1.67185 0
M  V30 692 N 63.2374 -2.31824 1.75232 0
M  V30 693 H 62.7844 -1.49368 2.09873 0
M  V30 694 H 62.7424 -2.93095 1.13767 0
M  V30 695 N 66.5145 -1.57545 0.0417849 0
M  V30 696 C 67.4465 -2.07904 -0.964799 0
M  V30 697 C 68.4595 -1.00497 -1.28079 0
M  V30 698 O 69.6485 -1.28087 -1.24322 0
M  V30 699 C 66.7485 -2.49928 -2.28887 0
M  V30 700 C 65.9215 -3.80562 -2.15619 0
M  V30 701 C 64.9805 -4.08999 -3.31069 0
M  V30 702 O 64.0065 -4.79061 -3.0739 0
M  V30 703 N 65.2085 -3.6017 -4.55256 0
M  V30 704 H 67.9735 -2.94886 -0.535029 0
M  V30 705 H 65.5345 -1.61252 -0.144681 0
M  V30 706 H 67.5265 -2.66034 -3.04972 0
M  V30 707 H 66.0965 -1.68245 -2.63463 0
M  V30 708 H 65.3165 -3.74129 -1.24183 0
M  V30 709 H 66.6045 -4.66126 -2.03971 0
M  V30 710 H 66.0025 -3.03512 -4.77386 0
M  V30 711 H 64.5595 -3.81532 -5.28466 0
M  V30 712 N 67.9926 0.231505 -1.5589 0
M  V30 713 C 68.9246 1.31006 -1.8807 0
M  V30 714 C 69.9376 1.43539 -0.768145 0
M  V30 715 O 71.1266 1.44614 -1.04638 0
M  V30 716 C 68.2266 2.68688 -2.06543 0
M  V30 717 C 67.3996 2.78228 -3.37502 0
M  V30 718 C 66.4586 3.96857 -3.4553 0
M  V30 719 O 65.4846 3.85662 -4.18633 0
M  V30 720 N 66.6866 5.1072 -2.75944 0
M  V30 721 H 69.4516 1.03731 -2.81176 0
M  V30 722 H 67.0126 0.421573 -1.56315 0
M  V30 723 H 69.0046 3.46412 -2.09239 0
M  V30 724 H 67.5746 2.88605 -1.20109 0
M  V30 725 H 66.7946 1.87059 -3.46991 0
M  V30 726 H 68.0826 2.81564 -4.23791 0
M  V30 727 H 67.4806 5.2271 -2.16311 0
M  V30 728 H 66.0376 5.86523 -2.84314 0
M  V30 729 N 69.4707 1.49531 0.497807 0
M  V30 730 C 70.8817 1.52344 1.07927 0
M  V30 731 C 71.2327 0.311469 1.93712 0
M  V30 732 O 70.3577 -0.578405 2.08527 0
M  V30 733 C 70.9527 2.76062 1.96405 0
M  V30 734 C 69.5117 2.81643 2.49709 0
M  V30 735 C 68.6587 2.46299 1.27404 0
M  V30 736 H 71.6097 1.56182 0.281576 0
M  V30 737 H 71.6307 2.56405 2.81135 0
M  V30 738 H 71.1427 3.64254 1.33943 0
M  V30 739 H 69.2437 1.97739 3.15801 0
M  V30 740 H 69.3567 3.83891 2.86643 0
M  V30 741 H 67.7207 1.98148 1.60029 0
M  V30 742 H 68.5037 3.36769 0.66645 0
M  V30 743 N 70.9488 -0.749086 1.3866 0
M  V30 744 C 71.9118 -1.84457 1.36045 0
M  V30 745 C 72.9118 -1.58682 0.260122 0
M  V30 746 O 74.1018 -1.66343 0.517261 0
M  V30 747 C 71.2338 -3.22008 1.11911 0
M  V30 748 H 72.4268 -1.88182 2.33512 0
M  V30 749 H 69.9798 -0.951266 1.24019 0
M  V30 750 H 70.7148 -3.2395 0.150686 0
M  V30 751 H 70.4998 -3.42111 1.91579 0
M  V30 752 H 71.9898 -4.0208 1.12788 0
M  V30 753 N 72.4269 -1.23603 -0.977757 0
M  V30 754 C 73.3899 -1.02069 -2.05218 0
M  V30 755 C 74.3899 0.0184305 -1.60789 0
M  V30 756 O 75.5799 -0.221569 -1.72785 0
M  V30 757 C 72.7119 -0.544926 -3.36517 0
M  V30 758 H 73.9049 -1.9742 -2.25755 0
M  V30 759 H 71.4579 -1.05684 -1.15155 0
M  V30 760 H 72.1929 0.412241 -3.21669 0
M  V30 761 H 71.9779 -1.2948 -3.70105 0
M  V30 762 H 73.4679 -0.414985 -4.15533 0
M  V30 763 N 73.905 1.17692 -1.04816 0
M  V30 764 C 74.835 2.23777 -0.666791 0
M  V30 765 C 75.816 1.66796 0.33361 0
M  V30 766 O 77.001 1.93039 0.212042 0
M  V30 767 C 74.131 3.47281 -0.0367933 0
M  V30 768 C 73.085 4.17059 -0.961546 0
M  V30 769 C 72.411 5.34342 -0.195626 0
M  V30 770 C 73.711 4.69713 -2.28402 0
M  V30 771 H 75.405 2.55933 -1.55367 0
M  V30 772 H 72.951 1.23019 -0.748484 0
M  V30 773 H 74.904 4.20706 0.241775 0
M  V30 774 H 73.628 3.14381 0.885004 0
M  V30 775 H 72.287 3.45541 -1.22462 0
M  V30 776 H 71.935 4.97692 0.728816 0
M  V30 777 H 71.635 5.81966 -0.811775 0
M  V30 778 H 73.159 6.10553 0.0757473 0
M  V30 779 H 74.573 5.34794 -2.06563 0
M  V30 780 H 72.97 5.279 -2.8538 0
M  V30 781 H 74.04 3.86726 -2.92525 0
M  V30 782 N 75.3831 0.828654 1.34056 0
M  V30 783 C 76.3461 0.259927 2.27721 0
M  V30 784 C 77.3461 -0.565478 1.50529 0
M  V30 785 O 78.5361 -0.38075 1.69988 0
M  V30 786 C 75.6681 -0.634944 3.34935 0
M  V30 787 H 76.8611 1.0863 2.79534 0
M  V30 788 H 74.4141 0.600951 1.44285 0
M  V30 789 H 75.1491 -1.48416 2.88346 0
M  V30 790 H 74.9341 -0.0444999 3.92075 0
M  V30 791 H 76.4241 -1.02648 4.04788 0
M  V30 792 N 76.8612 -1.46375 0.584142 0
M  V30 793 C 77.8242 -2.28784 -0.138108 0
M  V30 794 C 78.8242 -1.38471 -0.817462 0
M  V30 795 O 80.0142 -1.60833 -0.669199 0
M  V30 796 C 77.1462 -3.18892 -1.20503 0
M  V30 797 H 78.3392 -2.94117 0.586127 0
M  V30 798 H 75.8922 -1.52509 0.342171 0
M  V30 799 H 76.6272 -2.58309 -1.96079 0
M  V30 800 H 76.4122 -3.85388 -0.722384 0
M  V30 801 H 77.9022 -3.80914 -1.71155 0
M  V30 802 N 78.3393 -0.321999 -1.54275 0
M  V30 803 C 79.5673 0.283052 -2.04955 0
M  V30 804 C 79.9823 1.45904 -1.19823 0
M  V30 805 O 79.3393 1.81063 -0.228545 0
M  V30 806 C 79.3903 0.719028 -3.54277 0
M  V30 807 O 79.1113 -0.410175 -4.36176 0
M  V30 808 C 80.6123 1.38705 -4.21041 0
M  V30 809 H 77.8323 0.0584616 -0.668448 0
M  V30 810 H 80.3763 -0.467734 -1.99079 0
M  V30 811 H 78.5313 1.41979 -3.60445 0
M  V30 812 H 78.9453 -0.0669416 -5.24457 0
M  V30 813 H 80.4193 1.64306 -5.2698 0
M  V30 814 H 80.8963 2.33385 -3.72059 0
M  V30 815 H 81.5023 0.728906 -4.19007 0
M  V30 816 N 79.8174 1.5752 -0.0501392 0
M  V30 817 C 81.2284 1.80271 0.485705 0
M  V30 818 C 81.5794 0.96228 1.70981 0
M  V30 819 O 80.7044 0.178578 2.15662 0
M  V30 820 C 81.2994 3.26957 0.887938 0
M  V30 821 C 79.8584 3.5063 1.36877 0
M  V30 822 C 79.0054 2.75165 0.343468 0
M  V30 823 H 81.9564 1.56281 -0.276028 0
M  V30 824 H 81.9774 3.37821 1.75093 0
M  V30 825 H 81.4894 3.881 -0.0031809 0
M  V30 826 H 79.5904 2.94766 2.27911 0
M  V30 827 H 79.7034 4.59343 1.36164 0
M  V30 828 H 78.0674 2.4127 0.816128 0
M  V30 829 H 78.8504 3.39034 -0.539548 0
M  V30 830 N 81.2955 -0.223234 1.56011 0
M  V30 831 C 82.2585 -1.26014 1.9145 0
M  V30 832 C 83.2585 -1.3989 0.792937 0
M  V30 833 O 84.4485 -1.38184 1.0607 0
M  V30 834 C 81.5805 -2.63422 2.16383 0
M  V30 835 H 82.7735 -0.95796 2.84189 0
M  V30 836 H 80.3265 -0.463576 1.49267 0
M  V30 837 H 81.0615 -2.98741 1.2619 0
M  V30 838 H 80.8465 -2.54728 2.98088 0
M  V30 839 H 82.3365 -3.38249 2.44903 0
M  V30 840 N 82.7736 -1.49793 -0.48987 0
M  V30 841 C 84.1846 -1.52914 -1.07118 0
M  V30 842 C 84.5356 -0.321738 -1.93544 0
M  V30 843 O 83.6606 0.567338 -2.08831 0
M  V30 844 C 84.2556 -2.771 -1.94938 0
M  V30 845 C 82.8146 -2.82963 -2.48212 0
M  V30 846 C 81.9616 -2.46972 -1.26096 0
M  V30 847 H 84.9126 -1.56329 -0.273289 0
M  V30 848 H 84.9336 -2.57892 -2.79771 0
M  V30 849 H 84.4456 -3.64959 -1.32009 0
M  V30 850 H 82.5466 -1.99411 -3.14748 0
M  V30 851 H 82.6596 -3.85406 -2.84603 0
M  V30 852 H 81.0236 -1.98994 -1.58976 0
M  V30 853 H 81.8066 -3.37118 -0.648581 0
M  V30 854 N 84.2517 0.741722 -1.39055 0
M  V30 855 C 85.2147 1.83733 -1.37021 0
M  V30 856 C 86.2147 1.58542 -0.268534 0
M  V30 857 O 87.4047 1.66067 -0.526076 0
M  V30 858 C 84.5367 3.2141 -1.13617 0
M  V30 859 H 85.7297 1.86941 -2.34506 0
M  V30 860 H 83.2827 0.944676 -1.24521 0
M  V30 861 H 84.0177 3.23865 -0.167863 0
M  V30 862 H 83.8027 3.4109 -1.93391 0
M  V30 863 H 85.2927 4.01477 -1.14918 0
M  V30 864 N 85.7298 1.2412 0.971189 0
M  V30 865 C 86.6928 1.03156 2.04674 0
M  V30 866 C 87.6928 -0.00990322 1.60797 0
M  V30 867 O 88.8828 0.230729 1.72665 0
M  V30 868 C 86.0148 0.562765 3.36223 0
M  V30 869 H 87.2078 1.98614 2.24705 0
M  V30 870 H 84.7608 1.06293 1.14593 0
M  V30 871 H 85.4958 -0.395176 3.21883 0
M  V30 872 H 85.2808 1.31441 3.69413 0
M  V30 873 H 86.7708 0.437015 4.15307 0
M  V30 874 N 87.2079 -1.17134 1.05439 0
M  V30 875 C 88.1179 -2.24878 0.668365 0
M  V30 876 C 89.1339 -1.71186 -0.311687 0
M  V30 877 O 90.3099 -2.00738 -0.163161 0
M  V30 878 C 87.3749 -3.46662 0.051648 0
M  V30 879 C 86.4359 -4.15429 1.08246 0
M  V30 880 C 85.6689 -5.31399 0.495082 0
M  V30 881 O 85.8919 -5.66153 -0.694743 0
M  V30 882 O 84.8259 -5.89187 1.23056 0
M  V30 883 H 88.6519 -2.60189 1.56637 0
M  V30 884 H 86.2369 -1.24482 0.826104 0
M  V30 885 H 88.1189 -4.20394 -0.290966 0
M  V30 886 H 86.7939 -3.13142 -0.819971 0
M  V30 887 H 85.7009 -3.43704 1.47711 0
M  V30 888 H 87.0339 -4.52982 1.92532 0
M  V30 889 N 88.686 -0.835752 -1.33615 0
M  V30 890 C 89.619 -0.211815 -2.27215 0
M  V30 891 C 90.597 0.639249 -1.49507 0
M  V30 892 O 91.781 0.600193 -1.78689 0
M  V30 893 C 88.908 0.702893 -3.31326 0
M  V30 894 C 87.954 -0.0723049 -4.26439 0
M  V30 895 S 88.787 -1.42811 -5.16106 0
M  V30 896 C 89.943 -0.518613 -6.23748 0
M  V30 897 H 90.176 -1.00533 -2.79786 0
M  V30 898 H 87.709 -0.632336 -1.40858 0
M  V30 899 H 89.667 1.22505 -3.91794 0
M  V30 900 H 88.328 1.47004 -2.77576 0
M  V30 901 H 87.521 0.62359 -5.00127 0
M  V30 902 H 87.123 -0.525424 -3.70291 0
M  V30 903 H 89.415 0.284778 -6.76901 0
M  V30 904 H 90.358 -1.22556 -6.97413 0
M  V30 905 H 90.766 -0.101344 -5.64409 0
M  V30 906 N 90.1641 1.46063 -0.591896 0
M  V30 907 C 91.5751 1.85944 -0.167822 0
M  V30 908 C 91.9261 1.49429 1.27143 0
M  V30 909 O 91.0511 0.913515 1.96173 0
M  V30 910 C 91.6461 3.37489 -0.297794 0
M  V30 911 C 90.2051 3.76332 0.0714732 0
M  V30 912 C 89.3521 2.7006 -0.629509 0
M  V30 913 H 92.3031 1.37087 -0.799555 0
M  V30 914 H 92.3241 3.77532 0.474349 0
M  V30 915 H 91.8361 3.64034 -1.3454 0
M  V30 916 H 89.9371 3.55405 1.11886 0
M  V30 917 H 90.0501 4.78088 -0.311245 0
M  V30 918 H 88.4141 2.54607 -0.0687867 0
M  V30 919 H 89.1971 2.99444 -1.67894 0
M  V30 920 N 91.6422 0.330177 1.54103 0
M  V30 921 C 92.8902 -0.269871 2.0029 0
M  V30 922 C 93.2112 -1.52133 1.21986 0
M  V30 923 O 92.4812 -1.93212 0.323438 0
M  V30 924 H 91.0612 -0.10271 0.739905 0
M  V30 925 H 93.7232 0.448249 1.89675 0
M  V30 926 H 92.8192 -0.52166 3.07709 0
M  V30 927 N 93.1203 -1.57491 0.0584922 0
M  V30 928 C 94.3693 -1.92155 -0.613146 0
M  V30 929 C 94.6823 -0.939334 -1.71569 0
M  V30 930 O 95.8883 -1.17829 -2.44599 0
M  V30 931 C 94.3443 -3.41303 -1.14195 0
M  V30 932 C 93.9523 -4.47944 -0.0711265 0
M  V30 933 C 95.6963 -3.84988 -1.78841 0
M  V30 934 C 93.6033 -5.88212 -0.613225 0
M  V30 935 H 92.5333 -0.717162 -0.232796 0
M  V30 936 H 95.1843 -1.83049 0.12857 0
M  V30 937 H 93.5663 -3.45437 -1.93621 0
M  V30 938 H 94.7403 -4.55408 0.702836 0
M  V30 939 H 93.0553 -4.13644 0.478313 0
M  V30 940 H 95.6523 -4.87159 -2.20408 0
M  V30 941 H 95.9953 -3.21632 -2.64308 0
M  V30 942 H 96.5283 -3.83401 -1.06059 0
M  V30 943 H 93.2673 -6.55183 0.203978 0
M  V30 944 H 92.7873 -5.84294 -1.35501 0
M  V30 945 H 94.4663 -6.37687 -1.09383 0
M  V30 946 N 94.5984 0.214957 -1.56127 0
M  V30 947 C 95.8264 0.955092 -1.83536 0
M  V30 948 C 96.2414 1.77677 -0.638472 0
M  V30 949 O 95.5984 1.78219 0.392968 0
M  V30 950 C 95.6494 1.86734 -3.09536 0
M  V30 951 O 95.3704 1.07887 -4.24608 0
M  V30 952 C 96.8714 2.72082 -3.4998 0
M  V30 953 H 94.0914 0.279611 -0.609966 0
M  V30 954 H 96.6354 0.228197 -2.03223 0
M  V30 955 H 94.7904 2.5481 -2.91806 0
M  V30 956 H 95.2044 1.69872 -4.9623 0
M  V30 957 H 96.6784 3.31782 -4.41163 0
M  V30 958 H 97.1554 3.44806 -2.7204 0
M  V30 959 H 97.7614 2.09409 -3.70173 0
M  V30 960 N 96.0765 1.50051 0.48192 0
M  V30 961 C 97.3255 1.59741 1.23149 0
M  V30 962 C 97.6385 0.298163 1.93314 0
M  V30 963 O 98.8445 0.273835 2.70116 0
M  V30 964 C 97.3005 2.81926 2.23708 0
M  V30 965 C 96.9085 4.18685 1.59396 0
M  V30 966 C 98.6525 3.00956 2.99375 0
M  V30 967 C 96.5595 5.3207 2.58178 0
M  V30 968 H 95.4895 0.594838 0.46334 0
M  V30 969 H 98.1405 1.76467 0.503169 0
M  V30 970 H 96.5225 2.58736 2.99786 0
M  V30 971 H 97.6965 4.52088 0.891811 0
M  V30 972 H 96.0115 4.05171 0.960503 0
M  V30 973 H 98.6085 3.82836 3.73283 0
M  V30 974 H 98.9515 2.12258 3.58123 0
M  V30 975 H 99.4845 3.24277 2.30411 0
M  V30 976 H 96.2235 6.22888 2.04184 0
M  V30 977 H 95.7435 5.03098 3.26577 0
M  V30 978 H 97.4225 5.62196 3.20225 0
M  V30 979 N 97.5546 -0.734337 1.39446 0
M  V30 980 C 98.8036 -1.48937 1.36017 0
M  V30 981 C 99.1166 -1.95557 -0.0409005 0
M  V30 982 O 100.323 -2.70779 -0.19778 0
M  V30 983 C 98.7786 -2.69125 2.38955 0
M  V30 984 C 98.3866 -2.29452 3.8478 0
M  V30 985 C 100.131 -3.46944 2.44603 0
M  V30 986 C 98.0376 -3.46366 4.79358 0
M  V30 987 H 96.9676 -0.559296 0.505672 0
M  V30 988 H 99.6186 -0.800983 1.65095 0
M  V30 989 H 98.0006 -3.40041 2.02948 0
M  V30 990 H 99.1746 -1.66077 4.29831 0
M  V30 991 H 97.4896 -1.64723 3.82433 0
M  V30 992 H 100.087 -4.33907 3.12456 0
M  V30 993 H 100.43 -3.89454 1.47076 0
M  V30 994 H 100.963 -2.83056 2.79507 0
M  V30 995 H 97.7016 -3.08905 5.78151 0
M  V30 996 H 97.2216 -4.08719 4.38986 0
M  V30 997 H 98.9006 -4.12691 4.98292 0
M  V30 998 N 99.0327 -1.24633 -0.964593 0
M  V30 999 C 100.258 -1.11596 -1.74818 0
M  V30 1000 C 100.683 0.32723 -1.85232 0
M  V30 1001 O 100.041 1.23695 -1.32549 0
M  V30 1002 C 100.089 -1.76397 -3.1451 0
M  V30 1003 O 99.1927 -1.03685 -3.99153 0
M  V30 1004 H 98.5337 -0.390196 -0.537255 0
M  V30 1005 H 101.064 -1.65002 -1.20977 0
M  V30 1006 H 101.074 -1.8228 -3.65018 0
M  V30 1007 H 99.7487 -2.81401 -3.06246 0
M  V30 1008 H 98.3257 -1.05611 -3.57632 0
M  V30 1009 N 100.511 1.16574 -1.06058 0
M  V30 1010 C 101.474 2.19085 -0.673392 0
M  V30 1011 C 102.474 1.5835 0.279648 0
M  V30 1012 O 103.664 1.74088 0.0623488 0
M  V30 1013 C 100.796 3.40899 0.00954234 0
M  V30 1014 H 101.989 2.54853 -1.58081 0
M  V30 1015 H 99.5418 1.30808 -0.855516 0
M  V30 1016 H 100.277 3.10684 0.929826 0
M  V30 1017 H 100.062 3.86233 -0.67573 0
M  V30 1018 H 101.552 4.1675 0.266245 0
M  V30 1019 N 101.989 0.842826 1.3317 0
M  V30 1020 C 103.214 0.453129 2.02389 0
M  V30 1021 C 103.639 -0.939105 1.6298 0
M  V30 1022 O 102.997 -1.61472 0.8244 0
M  V30 1023 C 103.045 0.586094 3.55805 0
M  V30 1024 O 102.149 -0.386029 4.10589 0
M  V30 1025 H 101.49 0.183664 0.638094 0
M  V30 1026 H 104.02 1.13875 1.69981 0
M  V30 1027 H 104.03 0.469209 4.05293 0
M  V30 1028 H 102.705 1.6014 3.83833 0
M  V30 1029 H 101.282 -0.226371 3.72212 0
M  V30 1030 N 103.467 -1.45747 0.599634 0
M  V30 1031 C 104.399 -2.28628 -0.161879 0
M  V30 1032 C 105.412 -1.39494 -0.839367 0
M  V30 1033 O 106.601 -1.63941 -0.706089 0
M  V30 1034 C 103.701 -3.15014 -1.24976 0
M  V30 1035 C 102.874 -4.32378 -0.660935 0
M  V30 1036 C 101.933 -5.00033 -1.63869 0
M  V30 1037 O 100.959 -5.57085 -1.1681 0
M  V30 1038 N 102.161 -4.98589 -2.97303 0
M  V30 1039 H 104.926 -2.94624 0.549265 0
M  V30 1040 H 102.487 -1.55847 0.438565 0
M  V30 1041 H 104.479 -3.5714 -1.9035 0
M  V30 1042 H 103.049 -2.5098 -1.86354 0
M  V30 1043 H 102.269 -3.9383 0.170688 0
M  V30 1044 H 103.557 -5.08197 -0.247619 0
M  V30 1045 H 102.955 -4.53514 -3.38145 0
M  V30 1046 H 101.512 -5.44603 -3.58121 0
M  V30 1047 N 104.945 -0.338344 -1.53925 0
M  V30 1048 C 106.173 0.261298 -2.05243 0
M  V30 1049 C 106.588 1.44625 -1.21363 0
M  V30 1050 O 105.945 1.80811 -0.247736 0
M  V30 1051 C 105.996 0.681412 -3.5502 0
M  V30 1052 O 105.717 -0.456414 -4.35716 0
M  V30 1053 C 107.218 1.34232 -4.22489 0
M  V30 1054 H 104.438 0.0513685 -0.669031 0
M  V30 1055 H 106.982 -0.488822 -1.98572 0
M  V30 1056 H 105.137 1.38148 -3.61931 0
M  V30 1057 H 105.551 -0.122564 -5.24357 0
M  V30 1058 H 107.025 1.58708 -5.28693 0
M  V30 1059 H 107.502 2.29426 -3.74514 0
M  V30 1060 H 108.108 0.684424 -4.19757 0
M  V30 1061 N 106.423 1.57458 -0.0668435 0
M  V30 1062 C 107.671 1.92919 0.602214 0
M  V30 1063 C 107.992 0.947215 1.70449 0
M  V30 1064 O 107.262 -0.00544117 1.95899 0
M  V30 1065 H 105.842 0.71217 0.22544 0
M  V30 1066 H 108.504 1.94508 -0.123535 0
M  V30 1067 H 107.6 2.94589 1.03073 0
M  V30 1068 N 107.901 -0.206675 1.56239 0
M  V30 1069 C 108.849 -1.27571 1.94495 0
M  V30 1070 C 109.843 -1.47737 0.828862 0
M  V30 1071 O 111.049 -1.48735 1.0138 0
M  V30 1072 H 107.424 -0.428029 0.6183 0
M  V30 1073 H 109.395 -0.925961 2.8367 0
M  V30 1074 C 108.144 -2.61568 2.29079 0
M  V30 1075 H 107.467 -2.46863 3.14482 0
M  V30 1076 H 108.907 -3.35144 2.5972 0
M  V30 1077 C 107.366 -3.17695 1.12123 0
M  V30 1078 O 107.896 -3.99801 0.390153 0
M  V30 1079 N 106.102 -2.76276 0.901097 0
M  V30 1080 H 105.649 -2.09613 1.49733 0
M  V30 1081 H 105.607 -3.1417 0.120319 0
M  V30 1082 N 109.379 -1.50304 -0.473955 0
M  V30 1083 C 110.342 -1.6841 -1.55469 0
M  V30 1084 C 111.342 -0.554905 -1.50922 0
M  V30 1085 O 112.532 -0.821882 -1.53593 0
M  V30 1086 C 109.664 -1.70667 -2.95102 0
M  V30 1087 H 110.857 -2.64828 -1.40733 0
M  V30 1088 H 108.41 -1.39742 -0.700132 0
M  V30 1089 H 109.145 -0.75932 -3.15285 0
M  V30 1090 H 108.93 -2.52698 -2.9981 0
M  V30 1091 H 110.42 -1.8664 -3.73571 0
M  V30 1092 N 110.857 0.726932 -1.39834 0
M  V30 1093 C 112.273 1.03354 -1.21615 0
M  V30 1094 C 112.473 2.01327 -0.08338 0
M  V30 1095 O 111.529 2.46158 0.56238 0
M  V30 1096 C 112.842 1.58811 -2.55342 0
M  V30 1097 C 114.39 1.70851 -2.62257 0
M  V30 1098 C 114.865 2.29716 -3.96225 0
M  V30 1099 N 116.356 2.37116 -3.97907 0
M  V30 1100 C 117.091 2.83619 -4.98345 0
M  V30 1101 N 116.587 3.29958 -6.09179 0
M  V30 1102 N 118.38 2.82901 -4.8572 0
M  V30 1103 H 110.531 0.0773069 -2.12259 0
M  V30 1104 H 112.794 0.0969102 -0.943034 0
M  V30 1105 H 112.5 0.942855 -3.38826 0
M  V30 1106 H 112.374 2.57502 -2.75632 0
M  V30 1107 H 114.761 2.34497 -1.79152 0
M  V30 1108 H 114.842 0.707913 -2.45809 0
M  V30 1109 H 114.486 1.66696 -4.79765 0
M  V30 1110 H 114.416 3.30469 -4.09997 0
M  V30 1111 H 116.907 2.04374 -3.17868 0
M  V30 1112 H 117.22 3.63976 -6.8172 0
M  V30 1113 H 115.565 3.27946 -6.12761 0
M  V30 1114 H 118.756 2.46027 -3.98231 0
M  V30 1115 H 118.929 3.18827 -5.6414 0
M  V30 1116 N 112.336 1.25143 0.95797 0
M  V30 1117 C 113.752 1.01892 1.22842 0
M  V30 1118 C 113.952 -0.266311 1.99732 0
M  V30 1119 O 113.008 -0.979913 2.3271 0
M  V30 1120 C 114.321 2.24004 2.00606 0
M  V30 1121 C 115.869 2.28731 2.13662 0
M  V30 1122 C 116.344 3.5049 2.94823 0
M  V30 1123 N 117.835 3.50866 3.02403 0
M  V30 1124 C 118.57 4.4174 3.65586 0
M  V30 1125 N 118.066 5.42882 4.30408 0
M  V30 1126 N 119.859 4.29429 3.62694 0
M  V30 1127 H 112.01 2.07718 0.443493 0
M  V30 1128 H 114.273 0.912031 0.258657 0
M  V30 1129 H 113.979 3.17395 1.51503 0
M  V30 1130 H 113.853 2.26907 3.01319 0
M  V30 1131 H 116.24 1.35865 2.61963 0
M  V30 1132 H 116.321 2.29848 1.12265 0
M  V30 1133 H 115.965 4.43676 2.47213 0
M  V30 1134 H 115.895 3.46617 3.96439 0
M  V30 1135 H 118.386 2.777 2.56302 0
M  V30 1136 H 118.699 6.0844 4.76467 0
M  V30 1137 H 117.044 5.46758 4.29047 0
M  V30 1138 H 120.235 3.49643 3.11236 0
M  V30 1139 H 120.408 5.00448 4.1165 0
M  V30 1140 N 113.814 -1.1601 1.06675 0
M  V30 1141 C 115.06 -1.86909 0.786945 0
M  V30 1142 C 115.393 -1.81717 -0.685018 0
M  V30 1143 O 114.668 -1.23551 -1.50218 0
M  V30 1144 C 114.951 -3.36313 1.28707 0
M  V30 1145 C 114.804 -3.50175 2.82308 0
M  V30 1146 C 116.123 -4.3084 0.898071 0
M  V30 1147 H 113.242 -0.678677 0.287343 0
M  V30 1148 H 115.884 -1.36336 1.32334 0
M  V30 1149 H 114.034 -3.79513 0.830768 0
M  V30 1150 H 115.706 -3.15886 3.36175 0
M  V30 1151 H 113.949 -2.91959 3.20847 0
M  V30 1152 H 114.62 -4.55116 3.12368 0
M  V30 1153 H 117.096 -3.95561 1.29114 0
M  V30 1154 H 115.972 -5.33876 1.27543 0
M  V30 1155 H 116.233 -4.41662 -0.196651 0
M  V30 1156 N 115.292 -0.849877 -1.32721 0
M  V30 1157 C 116.255 -0.296122 -2.27279 0
M  V30 1158 C 117.255 0.541458 -1.5141 0
M  V30 1159 O 118.445 0.353658 -1.70572 0
M  V30 1160 C 115.577 0.581579 -3.35902 0
M  V30 1161 H 116.77 -1.13064 -2.77771 0
M  V30 1162 H 114.323 -0.62383 -1.43311 0
M  V30 1163 H 115.058 1.43809 -2.9067 0
M  V30 1164 H 114.843 -0.0178814 -3.92096 0
M  V30 1165 H 116.333 0.961951 -4.0637 0
M  V30 1166 N 116.77 1.45427 -0.607355 0
M  V30 1167 C 117.68 2.34325 0.113463 0
M  V30 1168 C 118.696 1.51226 0.860617 0
M  V30 1169 O 119.872 1.84029 0.818255 0
M  V30 1170 C 116.937 3.28839 1.09844 0
M  V30 1171 C 115.998 4.27844 0.353271 0
M  V30 1172 C 115.231 5.17842 1.29133 0
M  V30 1173 O 115.454 5.11264 2.52913 0
M  V30 1174 O 114.388 5.96713 0.788523 0
M  V30 1175 H 118.214 2.97364 -0.617094 0
M  V30 1176 H 115.799 1.44807 -0.367619 0
M  V30 1177 H 117.681 3.8708 1.66575 0
M  V30 1178 H 116.356 2.68365 1.81003 0
M  V30 1179 H 115.263 3.7322 -0.256494 0
M  V30 1180 H 116.596 4.91173 -0.317822 0
M  V30 1181 N 118.248 0.346503 1.53744 0
M  V30 1182 C 119.211 -0.496439 2.23759 0
M  V30 1183 C 120.211 -1.0252 1.2388 0
M  V30 1184 O 121.401 -0.913974 1.48297 0
M  V30 1185 C 118.533 -1.69187 2.95954 0
M  V30 1186 H 119.726 0.115952 2.99676 0
M  V30 1187 H 117.279 0.0978939 1.55993 0
M  V30 1188 H 118.014 -2.34288 2.24231 0
M  V30 1189 H 117.799 -1.31989 3.69217 0
M  V30 1190 H 119.289 -2.28969 3.49232 0
M  V30 1191 N 119.726 -1.57421 0.075193 0
M  V30 1192 C 120.656 -2.15942 -0.888324 0
M  V30 1193 C 121.637 -1.08737 -1.30806 0
M  V30 1194 O 122.822 -1.36787 -1.37851 0
M  V30 1195 C 119.952 -2.72379 -2.1547 0
M  V30 1196 C 118.906 -3.8478 -1.87425 0
M  V30 1197 C 118.232 -4.27834 -3.20721 0
M  V30 1198 C 119.532 -5.08869 -1.17684 0
M  V30 1199 H 121.226 -2.96705 -0.400799 0
M  V30 1200 H 118.772 -1.42723 -0.191342 0
M  V30 1201 H 120.725 -3.11965 -2.83295 0
M  V30 1202 H 119.449 -1.88841 -2.6647 0
M  V30 1203 H 118.108 -3.45703 -1.22004 0
M  V30 1204 H 117.756 -3.41214 -3.6957 0
M  V30 1205 H 117.456 -5.03605 -3.02746 0
M  V30 1206 H 118.98 -4.70039 -3.89738 0
M  V30 1207 H 120.394 -5.4575 -1.75584 0
M  V30 1208 H 118.791 -5.8994 -1.09956 0
M  V30 1209 H 119.861 -4.84648 -0.156453 0
M  V30 1210 N 121.204 0.198386 -1.56346 0
M  V30 1211 C 122.62 0.549085 -1.49857 0
M  V30 1212 C 122.82 1.86016 -0.774611 0
M  V30 1213 O 121.876 2.50416 -0.323776 0
M  V30 1214 C 123.189 0.606868 -2.94512 0
M  V30 1215 C 124.737 0.695925 -3.05165 0
M  V30 1216 C 125.212 0.784848 -4.51225 0
M  V30 1217 N 126.703 0.848463 -4.55363 0
M  V30 1218 C 127.438 0.937378 -5.65686 0
M  V30 1219 N 126.934 0.9888 -6.85707 0
M  V30 1220 N 128.727 0.974312 -5.53592 0
M  V30 1221 H 120.878 -0.661655 -2.01831 0
M  V30 1222 H 123.141 -0.235261 -0.918344 0
M  V30 1223 H 122.847 -0.28732 -3.50524 0
M  V30 1224 H 122.721 1.46268 -3.47686 0
M  V30 1225 H 125.108 1.58055 -2.49204 0
M  V30 1226 H 125.189 -0.186022 -2.55123 0
M  V30 1227 H 124.833 -0.0954072 -5.0781 0
M  V30 1228 H 124.763 1.68255 -4.98997 0
M  V30 1229 H 127.254 0.818103 -3.68938 0
M  V30 1230 H 127.567 1.05707 -7.65536 0
M  V30 1231 H 125.912 0.957534 -6.88372 0
M  V30 1232 H 129.103 0.930954 -4.58749 0
M  V30 1233 H 129.276 1.04015 -6.39597 0
M  V30 1234 N 122.682 1.50554 0.465978 0
M  V30 1235 C 123.959 1.5232 1.22712 0
M  V30 1236 C 124.339 0.270807 2.09356 0
M  V30 1237 O 123.687 -0.745541 2.15995 0
M  V30 1238 C 123.897 2.82175 2.05374 0
M  V30 1239 C 125.245 3.33033 2.6339 0
M  V30 1240 O 126.269 2.83531 2.15612 0
M  V30 1241 O 125.128 4.19336 3.50456 0
M  V30 1242 H 122.222 0.611183 0.557122 0
M  V30 1243 H 124.768 1.62847 0.477381 0
M  V30 1244 H 123.54 3.64797 1.41558 0
M  V30 1245 H 123.163 2.74675 2.87471 0
M  V30 1246 N 124.16 -0.719506 1.40217 0
M  V30 1247 C 125.437 -1.47221 1.28784 0
M  V30 1248 C 125.817 -2.10883 -0.0956067 0
M  V30 1249 O 125.165 -1.99833 -1.10811 0
M  V30 1250 C 125.375 -2.5111 2.42373 0
M  V30 1251 C 126.723 -3.17053 2.82423 0
M  V30 1252 O 127.747 -2.61429 2.41937 0
M  V30 1253 O 126.606 -4.17742 3.52355 0
M  V30 1254 H 123.7 -0.654491 0.50554 0
M  V30 1255 H 126.246 -0.752014 1.52128 0
M  V30 1256 H 125.018 -2.02556 3.34793 0
M  V30 1257 H 124.641 -3.3067 2.20778 0
M  V30 1258 N 125.638 -1.25649 -0.95132 0
M  V30 1259 C 126.568 -1.08808 -2.06599 0
M  V30 1260 C 127.549 0.00382547 -1.701 0
M  V30 1261 O 128.734 -0.166325 -1.93486 0
M  V30 1262 C 125.864 -0.709542 -3.39975 0
M  V30 1263 C 124.818 -1.75206 -3.90496 0
M  V30 1264 C 124.144 -1.22811 -5.20405 0
M  V30 1265 C 125.444 -3.15153 -4.16504 0
M  V30 1266 H 127.138 -2.02048 -2.20946 0
M  V30 1267 H 124.684 -0.972835 -1.06169 0
M  V30 1268 H 126.637 -0.578649 -4.17408 0
M  V30 1269 H 125.361 0.258556 -3.25575 0
M  V30 1270 H 124.02 -1.87145 -3.15234 0
M  V30 1271 H 123.668 -0.250145 -5.02378 0
M  V30 1272 H 123.368 -1.92492 -5.55176 0
M  V30 1273 H 124.892 -1.10968 -6.00432 0
M  V30 1274 H 126.306 -3.06349 -4.84586 0
M  V30 1275 H 124.703 -3.82333 -4.62538 0
M  V30 1276 H 125.773 -3.61966 -3.22658 0
M  V30 1277 N 127.117 1.15442 -1.07289 0
M  V30 1278 C 128.047 2.22312 -0.714107 0
M  V30 1279 C 129.028 1.67467 0.298155 0
M  V30 1280 O 130.213 1.93445 0.171048 0
M  V30 1281 C 127.343 3.47124 -0.110448 0
M  V30 1282 C 126.297 4.14926 -1.04979 0
M  V30 1283 C 125.623 5.33807 -0.308924 0
M  V30 1284 C 126.923 4.64762 -2.38314 0
M  V30 1285 H 128.617 2.5258 -1.6076 0
M  V30 1286 H 126.163 1.21404 -0.77441 0
M  V30 1287 H 128.116 4.21124 0.152482 0
M  V30 1288 H 126.84 3.16187 0.81812 0
M  V30 1289 H 125.499 3.42866 -1.29764 0
M  V30 1290 H 125.147 4.99126 0.623084 0
M  V30 1291 H 124.847 5.80113 -0.935036 0
M  V30 1292 H 126.371 6.10576 -0.0537771 0
M  V30 1293 H 127.785 5.30292 -2.1786 0
M  V30 1294 H 126.182 5.21728 -2.96514 0
M  V30 1295 H 127.252 3.80434 -3.00663 0
M  V30 1296 N 128.595 0.856903 1.32268 0
M  V30 1297 C 129.558 0.308171 2.27119 0
M  V30 1298 C 130.558 -0.533421 1.51695 0
M  V30 1299 O 131.748 -0.344607 1.70757 0
M  V30 1300 C 128.88 -0.563757 3.36206 0
M  V30 1301 H 130.073 1.14535 2.77167 0
M  V30 1302 H 127.626 0.631421 1.42978 0
M  V30 1303 H 128.361 -1.42266 2.91429 0
M  V30 1304 H 128.146 0.0386749 3.92081 0
M  V30 1305 H 129.636 -0.940386 4.06874 0
M  V30 1306 N 130.073 -1.45103 0.615059 0
M  V30 1307 C 131.036 -2.29025 -0.0895485 0
M  V30 1308 C 132.036 -1.40174 -0.787906 0
M  V30 1309 O 133.226 -1.62217 -0.634933 0
M  V30 1310 C 130.358 -3.21376 -1.13711 0
M  V30 1311 H 131.551 -2.92807 0.648382 0
M  V30 1312 H 129.104 -1.51749 0.374444 0
M  V30 1313 H 129.839 -2.6241 -1.90556 0
M  V30 1314 H 129.624 -3.86834 -0.640475 0
M  V30 1315 H 131.114 -3.84459 -1.63036 0
M  V30 1316 N 131.551 -0.354651 -1.53558 0
M  V30 1317 C 132.498 0.496968 -2.25386 0
M  V30 1318 C 133.468 1.0865 -1.25636 0
M  V30 1319 O 134.653 1.12104 -1.54394 0
M  V30 1320 C 131.793 1.63637 -3.03837 0
M  V30 1321 C 130.906 1.07307 -4.18461 0
M  V30 1322 C 130.041 2.18068 -4.84376 0
M  V30 1323 C 129.08 1.59147 -5.91049 0
M  V30 1324 N 128.217 2.63695 -6.50699 0
M  V30 1325 H 133.057 -0.122075 -2.9775 0
M  V30 1326 H 130.594 -0.0720154 -1.46924 0
M  V30 1327 H 132.552 2.30734 -3.47589 0
M  V30 1328 H 131.182 2.22623 -2.33749 0
M  V30 1329 H 130.234 0.292708 -3.79272 0
M  V30 1330 H 131.546 0.602193 -4.95152 0
M  V30 1331 H 130.7 2.93007 -5.31255 0
M  V30 1332 H 129.439 2.68504 -4.07133 0
M  V30 1333 H 128.444 0.827175 -5.43542 0
M  V30 1334 H 129.669 1.09549 -6.70206 0
M  V30 1335 H 127.615 3.13365 -5.76315 0
M  V30 1336 H 127.532 2.21263 -7.22896 0
M  V30 1337 H 128.8 3.3837 -7.02229 0
M  V30 1338 N 133.029 1.57378 -0.0835403 0
M  V30 1339 C 133.959 2.1641 0.87686 0
M  V30 1340 C 134.94 1.09429 1.30228 0
M  V30 1341 O 136.125 1.37516 1.37124 0
M  V30 1342 C 133.255 2.73517 2.14022 0
M  V30 1343 C 132.209 3.85769 1.85381 0
M  V30 1344 C 131.535 4.29529 3.18448 0
M  V30 1345 C 132.835 5.09486 1.14984 0
M  V30 1346 H 134.529 2.96914 0.385059 0
M  V30 1347 H 132.075 1.42823 0.18377 0
M  V30 1348 H 134.028 3.13463 2.81636 0
M  V30 1349 H 132.752 1.90252 2.65465 0
M  V30 1350 H 131.411 3.46345 1.20169 0
M  V30 1351 H 131.059 3.43169 3.67755 0
M  V30 1352 H 130.759 5.05204 3.00071 0
M  V30 1353 H 132.283 4.72099 3.8724 0
M  V30 1354 H 133.697 5.46674 1.72687 0
M  V30 1355 H 132.094 5.90515 1.06826 0
M  V30 1356 H 133.164 4.84724 0.130749 0
M  V30 1357 N 134.507 -0.190092 1.56449 0
M  V30 1358 C 135.455 -1.25501 1.95837 0
M  V30 1359 C 136.449 -1.4685 0.844485 0
M  V30 1360 O 137.655 -1.47651 1.02952 0
M  V30 1361 H 134.03 -0.421447 0.622805 0
M  V30 1362 H 136.001 -0.895821 2.84636 0
M  V30 1363 C 134.75 -2.59124 2.31841 0
M  V30 1364 H 134.073 -2.43514 3.17082 0
M  V30 1365 H 135.513 -3.32371 2.6326 0
M  V30 1366 C 133.972 -3.16488 1.15486 0
M  V30 1367 O 134.502 -3.99365 0.432535 0
M  V30 1368 N 132.708 -2.75305 0.930349 0
M  V30 1369 H 132.255 -2.08013 1.51948 0
M  V30 1370 H 132.213 -3.14024 0.153634 0
M  V30 1371 N 135.985 -1.50799 -0.457987 0
M  V30 1372 C 137.231 -1.62683 -1.21088 0
M  V30 1373 C 137.564 -0.332268 -1.91336 0
M  V30 1374 O 136.839 0.667043 -1.82704 0
M  V30 1375 C 137.122 -2.81615 -2.24422 0
M  V30 1376 C 136.975 -4.20989 -1.58392 0
M  V30 1377 C 138.294 -2.96085 -3.2561 0
M  V30 1378 H 135.413 -0.592087 -0.438864 0
M  V30 1379 H 138.055 -1.83225 -0.50286 0
M  V30 1380 H 136.205 -2.64231 -2.84806 0
M  V30 1381 H 137.877 -4.49994 -1.01504 0
M  V30 1382 H 136.12 -4.24641 -0.886704 0
M  V30 1383 H 136.791 -5.0016 -2.33547 0
M  V30 1384 H 139.267 -3.12042 -2.75262 0
M  V30 1385 H 138.143 -3.80902 -3.95228 0
M  V30 1386 H 138.404 -2.0726 -3.90507 0
M  V30 1387 N 137.463 0.71206 -1.40597 0
M  V30 1388 C 138.41 1.82613 -1.41142 0
M  V30 1389 C 139.38 1.63925 -0.267903 0
M  V30 1390 O 140.565 1.85009 -0.466495 0
M  V30 1391 C 137.705 3.20354 -1.28324 0
M  V30 1392 C 136.818 3.50589 -2.52411 0
M  V30 1393 C 135.953 4.77855 -2.32009 0
M  V30 1394 C 134.992 5.01005 -3.51654 0
M  V30 1395 N 134.129 6.19487 -3.30425 0
M  V30 1396 H 138.969 1.81482 -2.36365 0
M  V30 1397 H 136.506 0.886475 -1.17388 0
M  V30 1398 H 138.464 3.99899 -1.18899 0
M  V30 1399 H 137.094 3.20705 -0.367189 0
M  V30 1400 H 136.146 2.65573 -2.72351 0
M  V30 1401 H 137.458 3.63604 -3.41458 0
M  V30 1402 H 136.612 5.65424 -2.19956 0
M  V30 1403 H 135.351 4.67056 -1.40392 0
M  V30 1404 H 134.356 4.1189 -3.64179 0
M  V30 1405 H 135.581 5.13674 -4.44202 0
M  V30 1406 H 133.527 6.09932 -2.41494 0
M  V30 1407 H 133.444 6.33194 -4.13039 0
M  V30 1408 H 134.712 7.09834 -3.22113 0
M  V30 1409 N 138.941 1.26152 0.944643 0
M  V30 1410 C 139.871 1.09902 2.06019 0
M  V30 1411 C 140.852 0.00519538 1.70099 0
M  V30 1412 O 142.037 0.176583 1.93396 0
M  V30 1413 C 139.167 0.727562 3.39594 0
M  V30 1414 C 138.121 1.77274 3.89561 0
M  V30 1415 C 137.447 1.25569 5.19747 0
M  V30 1416 C 138.747 3.17357 4.14827 0
M  V30 1417 H 140.441 2.03217 2.19871 0
M  V30 1418 H 137.987 0.978452 1.05652 0
M  V30 1419 H 139.94 0.600777 4.17095 0
M  V30 1420 H 138.664 -0.241287 3.25707 0
M  V30 1421 H 137.323 1.88814 3.14237 0
M  V30 1422 H 136.971 0.276783 5.02238 0
M  V30 1423 H 136.671 1.95433 5.54148 0
M  V30 1424 H 138.195 1.1415 5.99835 0
M  V30 1425 H 139.609 3.08914 4.82954 0
M  V30 1426 H 138.006 3.84781 4.60504 0
M  V30 1427 H 139.076 3.63673 3.20734 0
M  V30 1428 N 140.419 -1.14872 1.07899 0
M  V30 1429 C 141.665 -1.86064 0.806725 0
M  V30 1430 C 141.998 -1.82434 -0.665706 0
M  V30 1431 O 141.273 -1.25138 -1.48899 0
M  V30 1432 C 141.556 -3.34929 1.32267 0
M  V30 1433 C 141.409 -3.47161 2.86006 0
M  V30 1434 C 142.728 -4.29863 0.943717 0
M  V30 1435 H 139.847 -0.675591 0.294526 0
M  V30 1436 H 142.489 -1.34925 1.33773 0
M  V30 1437 H 140.639 -3.78611 0.870974 0
M  V30 1438 H 142.311 -3.12302 3.39507 0
M  V30 1439 H 140.554 -2.88539 3.23925 0
M  V30 1440 H 141.225 -4.51777 3.17177 0
M  V30 1441 H 143.701 -3.9417 1.33302 0
M  V30 1442 H 142.577 -5.32494 1.33198 0
M  V30 1443 H 142.838 -4.41846 -0.149796 0
M  V30 1444 N 141.898 -0.863906 -1.31812 0
M  V30 1445 C 142.846 -0.30422 -2.30602 0
M  V30 1446 C 143.84 0.577419 -1.59255 0
M  V30 1447 O 145.046 0.464194 -1.73912 0
M  V30 1448 H 141.421 -0.0796877 -0.747766 0
M  V30 1449 H 143.392 -1.15148 -2.75288 0
M  V30 1450 C 142.141 0.484617 -3.44306 0
M  V30 1451 H 141.464 -0.18451 -3.99374 0
M  V30 1452 H 142.904 0.841664 -4.15562 0
M  V30 1453 C 141.363 1.6735 -2.92396 0
M  V30 1454 O 141.893 2.77273 -2.90659 0
M  V30 1455 N 140.099 1.50362 -2.48676 0
M  V30 1456 H 139.646 0.609402 -2.50288 0
M  V30 1457 H 139.604 2.30051 -2.14299 0
M  V30 1458 N 143.376 1.44774 -0.622745 0
M  V30 1459 C 144.339 2.29069 0.0774015 0
M  V30 1460 C 145.339 1.4059 0.780461 0
M  V30 1461 O 146.529 1.62551 0.626322 0
M  V30 1462 C 143.661 3.21974 1.12006 0
M  V30 1463 H 144.854 2.92459 -0.663901 0
M  V30 1464 H 142.407 1.51548 -0.382486 0
M  V30 1465 H 143.142 2.63417 1.89162 0
M  V30 1466 H 142.927 3.87168 0.619951 0
M  V30 1467 H 144.417 3.85318 1.60995 0
M  V30 1468 N 144.854 0.36279 1.53368 0
M  V30 1469 C 146.102 -0.227326 2.00817 0
M  V30 1470 C 146.423 -1.49511 1.25186 0
M  V30 1471 O 145.693 -1.92482 0.364348 0
M  V30 1472 H 144.273 -0.0869923 0.741917 0
M  V30 1473 H 146.935 0.488381 1.88682 0
M  V30 1474 H 146.031 -0.456273 3.08747 0
M  V30 1475 N 146.332 -1.57332 0.0918853 0
M  V30 1476 C 147.609 -1.85691 -0.614668 0
M  V30 1477 C 147.989 -0.988146 -1.86545 0
M  V30 1478 O 147.337 -0.0597055 -2.28422 0
M  V30 1479 C 147.547 -3.36294 -0.933126 0
M  V30 1480 C 148.895 -4.04275 -1.29796 0
M  V30 1481 O 149.919 -3.41157 -1.02424 0
M  V30 1482 O 148.778 -5.1564 -1.81047 0
M  V30 1483 H 145.872 -0.767802 -0.307261 0
M  V30 1484 H 148.418 -1.69244 0.12434 0
M  V30 1485 H 147.19 -3.91273 -0.0456404 0
M  V30 1486 H 146.813 -3.58076 -1.72822 0
M  V30 1487 N 147.81 0.181792 -1.56548 0
M  V30 1488 C 149.04 0.914618 -1.85252 0
M  V30 1489 C 149.448 1.76791 -0.673914 0
M  V30 1490 O 148.791 1.80009 0.366416 0
M  V30 1491 C 148.853 1.85019 -3.08234 0
M  V30 1492 C 148.517 1.17754 -4.41569 0
M  V30 1493 C 149.514 0.548035 -5.17003 0
M  V30 1494 C 147.199 1.17742 -4.88305 0
M  V30 1495 C 149.193 -0.0726128 -6.37359 0
M  V30 1496 C 146.88 0.552946 -6.08593 0
M  V30 1497 C 147.878 -0.070978 -6.82963 0
M  V30 1498 O 147.566 -0.685635 -8.00971 0
M  V30 1499 H 147.298 0.271695 -0.618998 0
M  V30 1500 H 149.852 0.189944 -2.0452 0
M  V30 1501 H 148.082 2.61491 -2.84885 0
M  V30 1502 H 149.771 2.45195 -3.23472 0
M  V30 1503 H 150.537 0.540174 -4.81982 0
M  V30 1504 H 146.416 1.65246 -4.30366 0
M  V30 1505 H 149.96 -0.560213 -6.95347 0
M  V30 1506 H 145.857 0.558354 -6.43081 0
M  V30 1507 H 146.625 -0.58385 -8.16415 0
M  V30 1508 N 149.288 1.51039 0.449983 0
M  V30 1509 C 150.235 1.71439 1.54523 0
M  V30 1510 C 151.205 0.555871 1.56522 0
M  V30 1511 O 152.39 0.788871 1.73728 0
M  V30 1512 C 149.53 1.83384 2.92343 0
M  V30 1513 C 148.643 3.10873 2.9997 0
M  V30 1514 C 147.778 3.13488 4.28834 0
M  V30 1515 C 146.817 4.35343 4.30282 0
M  V30 1516 N 145.954 4.35579 5.5065 0
M  V30 1517 H 150.794 2.64934 1.36433 0
M  V30 1518 H 148.331 1.31312 0.662982 0
M  V30 1519 H 150.289 1.88291 3.72293 0
M  V30 1520 H 148.919 0.933086 3.0902 0
M  V30 1521 H 147.971 3.15336 2.12761 0
M  V30 1522 H 149.283 4.00814 2.96901 0
M  V30 1523 H 148.437 3.17241 5.17149 0
M  V30 1524 H 147.176 2.21414 4.34543 0
M  V30 1525 H 146.181 4.3178 3.40362 0
M  V30 1526 H 147.406 5.28668 4.26248 0
M  V30 1527 H 145.352 3.46369 5.57104 0
M  V30 1528 H 145.269 5.19313 5.49409 0
M  V30 1529 H 146.537 4.43507 6.41032 0
M  V30 1530 N 150.766 -0.704594 1.40972 0
M  V30 1531 C 152.013 -1.46458 1.39844 0
M  V30 1532 C 152.341 -1.94499 0.00447594 0
M  V30 1533 O 151.596 -1.69275 -0.982057 0
M  V30 1534 C 151.895 -2.698 2.34399 0
M  V30 1535 C 151.561 -2.40464 3.81429 0
M  V30 1536 C 150.223 -2.32174 4.21484 0
M  V30 1537 C 152.575 -2.16086 4.74296 0
M  V30 1538 C 149.903 -1.97589 5.52427 0
M  V30 1539 C 152.255 -1.83011 6.05549 0
M  V30 1540 C 150.919 -1.7321 6.44635 0
M  V30 1541 H 150.189 -0.535927 0.511725 0
M  V30 1542 H 152.836 -0.806124 1.73706 0
M  V30 1543 H 151.141 -3.40536 1.93759 0
M  V30 1544 H 152.838 -3.27919 2.30804 0
M  V30 1545 H 149.428 -2.47808 3.49699 0
M  V30 1546 H 153.612 -2.2144 4.4416 0
M  V30 1547 H 148.868 -1.88547 5.81601 0
M  V30 1548 H 153.042 -1.63164 6.77016 0
M  V30 1549 H 150.669 -1.46179 7.46013 0
M  V30 1550 N 152.244 -1.26651 -0.937939 0
M  V30 1551 C 153.191 -1.0849 -2.03712 0
M  V30 1552 C 154.161 0.011033 -1.66096 0
M  V30 1553 O 155.346 -0.149353 -1.90215 0
M  V30 1554 C 152.486 -0.72735 -3.37348 0
M  V30 1555 C 151.599 -1.89986 -3.87981 0
M  V30 1556 C 150.734 -1.48513 -5.10017 0
M  V30 1557 C 149.773 -2.62575 -5.5292 0
M  V30 1558 N 148.91 -2.21762 -6.66158 0
M  V30 1559 H 153.75 -2.02551 -2.18579 0
M  V30 1560 H 151.287 -1.00844 -1.07093 0
M  V30 1561 H 153.245 -0.50092 -4.14182 0
M  V30 1562 H 151.875 0.176298 -3.22318 0
M  V30 1563 H 150.927 -2.23913 -3.07518 0
M  V30 1564 H 152.239 -2.75586 -4.15757 0
M  V30 1565 H 151.393 -1.21934 -5.94321 0
M  V30 1566 H 150.132 -0.60009 -4.83994 0
M  V30 1567 H 149.137 -2.8988 -4.67172 0
M  V30 1568 H 150.362 -3.51685 -5.80943 0
M  V30 1569 H 148.308 -1.35696 -6.41812 0
M  V30 1570 H 148.225 -3.00903 -6.93537 0
M  V30 1571 H 149.493 -1.98403 -7.53828 0
M  V30 1572 N 153.722 1.14298 -1.08507 0
M  V30 1573 C 154.654 2.1907 -0.673859 0
M  V30 1574 C 155.667 1.60381 0.279577 0
M  V30 1575 O 156.856 1.78374 0.0670754 0
M  V30 1576 C 153.956 3.38888 0.0290979 0
M  V30 1577 C 153.129 4.27103 -0.943494 0
M  V30 1578 C 152.188 5.25477 -0.275676 0
M  V30 1579 O 151.214 5.61709 -0.920401 0
M  V30 1580 N 152.416 5.7227 0.974013 0
M  V30 1581 H 155.181 2.54965 -1.57521 0
M  V30 1582 H 152.742 1.29528 -0.971287 0
M  V30 1583 H 154.734 4.01761 0.48683 0
M  V30 1584 H 153.304 3.01309 0.832555 0
M  V30 1585 H 152.524 3.61149 -1.58004 0
M  V30 1586 H 153.812 4.82905 -1.60251 0
M  V30 1587 H 153.21 5.44965 1.51755 0
M  V30 1588 H 151.767 6.37127 1.37522 0
M  V30 1589 N 155.201 0.870884 1.31352 0
M  V30 1590 C 156.45 0.478408 1.95944 0
M  V30 1591 C 156.763 -0.974493 1.69597 0
M  V30 1592 O 157.969 -1.47316 2.28058 0
M  V30 1593 C 156.425 0.804609 3.50791 0
M  V30 1594 C 156.033 2.27433 3.85977 0
M  V30 1595 C 157.777 0.480648 4.2177 0
M  V30 1596 C 155.684 2.5429 5.33939 0
M  V30 1597 H 154.614 0.175175 0.733369 0
M  V30 1598 H 157.265 1.06391 1.4951 0
M  V30 1599 H 155.647 0.148347 3.95722 0
M  V30 1600 H 156.821 2.97373 3.52002 0
M  V30 1601 H 155.136 2.56442 3.28065 0
M  V30 1602 H 157.733 0.658519 5.30629 0
M  V30 1603 H 158.076 -0.578979 4.12254 0
M  V30 1604 H 158.609 1.09349 3.82476 0
M  V30 1605 H 155.348 3.58939 5.48491 0
M  V30 1606 H 154.868 1.88945 5.69263 0
M  V30 1607 H 156.547 2.39066 6.01212 0
M  V30 1608 N 156.679 -1.44442 0.630414 0
M  V30 1609 C 157.642 -2.29107 -0.0652523 0
M  V30 1610 C 158.642 -1.41002 -0.772995 0
M  V30 1611 O 159.832 -1.62881 -0.617692 0
M  V30 1612 C 156.964 -3.22564 -1.10296 0
M  V30 1613 H 158.157 -2.92103 0.679401 0
M  V30 1614 H 155.71 -1.51343 0.390517 0
M  V30 1615 H 156.445 -2.64416 -1.87762 0
M  V30 1616 H 156.23 -3.87491 -0.59941 0
M  V30 1617 H 157.72 -3.86167 -1.5895 0
M  V30 1618 N 158.157 -0.370918 -1.53173 0
M  V30 1619 C 159.382 0.220293 -2.06227 0
M  V30 1620 C 159.807 1.41243 -1.24225 0
M  V30 1621 O 159.165 1.79387 -0.262645 0
M  V30 1622 C 159.213 0.586663 -3.55796 0
M  V30 1623 O 158.317 1.68317 -3.76488 0
M  V30 1624 H 157.658 0.0308099 -0.663285 0
M  V30 1625 H 160.188 -0.533068 -1.97534 0
M  V30 1626 H 160.198 0.85617 -3.98916 0
M  V30 1627 H 158.873 -0.285013 -4.14922 0
M  V30 1628 H 157.45 1.40881 -3.45264 0
M  V30 1629 N 159.635 1.57281 -0.100228 0
M  V30 1630 C 160.545 2.17833 0.870965 0
M  V30 1631 C 161.561 1.14921 1.30649 0
M  V30 1632 O 162.737 1.47313 1.37335 0
M  V30 1633 C 159.802 2.75085 2.1102 0
M  V30 1634 C 158.863 3.9297 1.72838 0
M  V30 1635 C 158.096 4.47482 2.90854 0
M  V30 1636 O 158.319 4.00922 4.05731 0
M  V30 1637 O 157.253 5.38433 2.69023 0
M  V30 1638 H 161.079 3.0124 0.38575 0
M  V30 1639 H 158.664 1.48881 0.124397 0
M  V30 1640 H 160.546 3.11656 2.83634 0
M  V30 1641 H 159.221 1.94721 2.58584 0
M  V30 1642 H 158.128 3.61201 0.973883 0
M  V30 1643 H 159.461 4.74713 1.30033 0
M  V30 1644 N 161.113 -0.173488 1.56642 0
M  V30 1645 C 162.06 -1.21482 1.96242 0
M  V30 1646 C 163.03 -1.44104 0.826027 0
M  V30 1647 O 164.215 -1.5688 1.08597 0
M  V30 1648 C 161.355 -2.54964 2.32567 0
M  V30 1649 C 160.468 -2.39739 3.59373 0
M  V30 1650 C 159.603 -3.66072 3.84921 0
M  V30 1651 C 158.642 -3.45771 5.05083 0
M  V30 1652 N 157.779 -4.64169 5.26775 0
M  V30 1653 H 162.619 -0.870123 2.85014 0
M  V30 1654 H 160.156 -0.418245 1.41029 0
M  V30 1655 H 162.114 -3.32758 2.5165 0
M  V30 1656 H 160.744 -2.87433 1.46908 0
M  V30 1657 H 159.796 -1.53131 3.48217 0
M  V30 1658 H 161.108 -2.20683 4.47326 0
M  V30 1659 H 160.262 -4.52303 4.0436 0
M  V30 1660 H 159.001 -3.88105 2.9534 0
M  V30 1661 H 158.006 -2.57927 4.85545 0
M  V30 1662 H 159.231 -3.25163 5.96193 0
M  V30 1663 H 157.177 -4.86425 4.40144 0
M  V30 1664 H 157.094 -4.48019 6.08946 0
M  V30 1665 H 158.362 -5.51689 5.5069 0
M  V30 1666 N 162.591 -1.51276 -0.441967 0
M  V30 1667 C 163.521 -1.752 -1.54361 0
M  V30 1668 C 164.502 -0.601682 -1.59103 0
M  V30 1669 O 165.687 -0.843913 -1.74905 0
M  V30 1670 C 162.817 -1.87282 -2.92477 0
M  V30 1671 C 161.771 -3.02687 -3.02596 0
M  V30 1672 C 161.097 -2.99947 -4.42647 0
M  V30 1673 C 162.397 -4.4273 -2.77106 0
M  V30 1674 H 164.091 -2.67442 -1.34592 0
M  V30 1675 H 161.637 -1.28694 -0.646048 0
M  V30 1676 H 163.59 -2.02602 -3.695 0
M  V30 1677 H 162.314 -0.916844 -3.13467 0
M  V30 1678 H 160.973 -2.87065 -2.28012 0
M  V30 1679 H 160.621 -2.02136 -4.60597 0
M  V30 1680 H 160.321 -3.77439 -4.50348 0
M  V30 1681 H 161.845 -3.17354 -5.2165 0
M  V30 1682 H 163.259 -4.58727 -3.43864 0
M  V30 1683 H 161.656 -5.21893 -2.96222 0
M  V30 1684 H 162.726 -4.53087 -1.72744 0
M  V30 1685 N 164.069 0.697108 -1.41344 0
M  V30 1686 C 164.999 1.82353 -1.45841 0
M  V30 1687 C 165.98 1.67115 -0.317247 0
M  V30 1688 O 167.165 1.86871 -0.528474 0
M  V30 1689 C 164.295 3.20476 -1.33838 0
M  V30 1690 C 163.249 3.50415 -2.4575 0
M  V30 1691 C 162.575 4.87878 -2.18813 0
M  V30 1692 C 163.875 3.49546 -3.88091 0
M  V30 1693 H 165.569 1.78846 -2.40113 0
M  V30 1694 H 163.115 0.859028 -1.15571 0
M  V30 1695 H 165.068 3.98988 -1.35596 0
M  V30 1696 H 163.792 3.24604 -0.360498 0
M  V30 1697 H 162.451 2.74253 -2.43271 0
M  V30 1698 H 162.099 4.8863 -1.19371 0
M  V30 1699 H 161.799 5.08875 -2.93803 0
M  V30 1700 H 163.323 5.68702 -2.22284 0
M  V30 1701 H 164.737 4.18066 -3.92293 0
M  V30 1702 H 163.134 3.82075 -4.62751 0
M  V30 1703 H 164.204 2.48552 -4.16353 0
M  V30 1704 N 165.547 1.27147 0.931209 0
M  V30 1705 C 166.796 1.12664 1.67302 0
M  V30 1706 C 167.109 -0.327718 1.92835 0
M  V30 1707 O 168.315 -0.593392 2.64936 0
M  V30 1708 C 166.771 1.9683 3.01307 0
M  V30 1709 C 166.379 3.46901 2.83485 0
M  V30 1710 C 168.123 1.90985 3.79111 0
M  V30 1711 C 166.03 4.23279 4.13024 0
M  V30 1712 H 164.96 0.41803 0.627509 0
M  V30 1713 H 167.611 1.51539 1.03481 0
M  V30 1714 H 165.993 1.50797 3.66164 0
M  V30 1715 H 167.167 4.00773 2.27415 0
M  V30 1716 H 165.482 3.54088 2.19113 0
M  V30 1717 H 168.079 2.45328 4.75098 0
M  V30 1718 H 168.422 0.882718 4.06834 0
M  V30 1719 H 168.955 2.34895 3.21044 0
M  V30 1720 H 165.694 5.26503 3.90481 0
M  V30 1721 H 165.214 3.74186 4.6877 0
M  V30 1722 H 166.893 4.32265 4.81411 0
M  V30 1723 N 167.025 -1.13721 1.09112 0
M  V30 1724 C 168.271 -1.85198 0.826414 0
M  V30 1725 C 168.604 -1.83129 -0.646319 0
M  V30 1726 O 167.879 -1.2671 -1.47563 0
M  V30 1727 C 168.162 -3.33507 1.35812 0
M  V30 1728 C 168.015 -3.44108 2.89672 0
M  V30 1729 C 169.334 -4.28838 0.989256 0
M  V30 1730 H 166.453 -0.67243 0.301675 0
M  V30 1731 H 169.095 -1.33499 1.35197 0
M  V30 1732 H 167.245 -3.77666 0.911082 0
M  V30 1733 H 168.917 -3.08684 3.428 0
M  V30 1734 H 167.16 -2.85087 3.26967 0
M  V30 1735 H 167.831 -4.48388 3.21951 0
M  V30 1736 H 170.307 -3.92734 1.37475 0
M  V30 1737 H 169.183 -5.31051 1.38838 0
M  V30 1738 H 169.444 -4.4198 -0.102924 0
M  V30 1739 N 168.503 -0.877838 -1.30888 0
M  V30 1740 C 169.749 -0.493426 -1.96706 0
M  V30 1741 C 170.082 0.953504 -1.6918 0
M  V30 1742 O 169.357 1.67266 -0.992594 0
M  V30 1743 C 169.64 -0.760429 -3.51979 0
M  V30 1744 C 169.493 -2.25747 -3.89048 0
M  V30 1745 C 170.812 -0.232148 -4.39487 0
M  V30 1746 H 167.931 -0.180746 -0.714493 0
M  V30 1747 H 170.573 -1.10052 -1.54882 0
M  V30 1748 H 168.723 -0.243715 -3.87735 0
M  V30 1749 H 170.395 -2.84204 -3.63354 0
M  V30 1750 H 168.638 -2.72694 -3.37373 0
M  V30 1751 H 169.309 -2.39491 -4.97341 0
M  V30 1752 H 171.785 -0.674314 -4.106 0
M  V30 1753 H 170.661 -0.448355 -5.47066 0
M  V30 1754 H 170.922 0.866297 -4.33529 0
M  V30 1755 N 169.982 1.44106 -0.638065 0
M  V30 1756 C 171.21 2.06336 -0.152615 0
M  V30 1757 C 171.625 1.47731 1.17563 0
M  V30 1758 O 170.982 0.602806 1.72257 0
M  V30 1759 C 171.033 3.61479 -0.0391491 0
M  V30 1760 O 170.754 4.17903 -1.31487 0
M  V30 1761 C 172.255 4.40757 0.474176 0
M  V30 1762 H 169.475 0.665862 -0.0828776 0
M  V30 1763 H 172.019 1.84862 -0.87443 0
M  V30 1764 H 170.174 3.82191 0.633142 0
M  V30 1765 H 170.588 5.11416 -1.16421 0
M  V30 1766 H 172.062 5.49707 0.502562 0
M  V30 1767 H 172.539 4.12697 1.50258 0
M  V30 1768 H 173.145 4.24979 -0.165102 0
M  V30 1769 N 171.46 0.379036 1.52974 0
M  V30 1770 C 172.685 -0.209353 2.06341 0
M  V30 1771 C 173.11 -1.40583 1.24972 0
M  V30 1772 O 172.468 -1.79246 0.272155 0
M  V30 1773 C 172.516 -0.567786 3.56102 0
M  V30 1774 O 171.62 -1.66318 3.77375 0
M  V30 1775 H 170.961 -0.0272919 0.663439 0
M  V30 1776 H 173.491 0.543536 1.97248 0
M  V30 1777 H 173.501 -0.835003 3.99364 0
M  V30 1778 H 172.176 0.307013 4.14765 0
M  V30 1779 H 170.753 -1.39048 3.46006 0
M  V30 1780 N 172.938 -1.57226 0.108567 0
M  V30 1781 C 174.166 -1.99179 -0.559954 0
M  V30 1782 C 174.581 -0.988022 -1.60884 0
M  V30 1783 O 173.938 0.0205512 -1.82488 0
M  V30 1784 C 173.989 -3.41159 -1.19552 0
M  V30 1785 O 173.71 -4.37694 -0.188577 0
M  V30 1786 C 175.211 -3.98188 -1.94837 0
M  V30 1787 H 172.431 -0.654228 -0.149088 0
M  V30 1788 H 174.975 -2.03598 0.19183 0
M  V30 1789 H 173.13 -3.37711 -1.89815 0
M  V30 1790 H 173.544 -5.20469 -0.649014 0
M  V30 1791 H 175.018 -4.99644 -2.34648 0
M  V30 1792 H 175.495 -3.3675 -2.81951 0
M  V30 1793 H 176.101 -4.0515 -1.2936 0
M  V30 1794 N 174.416 0.165178 -1.56732 0
M  V30 1795 C 175.348 1.22911 -1.93457 0
M  V30 1796 C 176.361 1.40152 -0.828333 0
M  V30 1797 O 177.55 1.40046 -1.10677 0
M  V30 1798 C 174.65 2.59686 -2.17753 0
M  V30 1799 C 173.823 2.63663 -3.48999 0
M  V30 1800 C 172.882 3.81845 -3.62051 0
M  V30 1801 O 171.908 3.67559 -4.34613 0
M  V30 1802 N 173.11 4.98557 -2.97357 0
M  V30 1803 H 175.875 0.917118 -2.85323 0
M  V30 1804 H 173.436 0.354895 -1.57962 0
M  V30 1805 H 175.428 3.37225 -2.23743 0
M  V30 1806 H 173.998 2.83251 -1.32242 0
M  V30 1807 H 173.218 1.72173 -3.54612 0
M  V30 1808 H 174.506 2.63336 -4.35352 0
M  V30 1809 H 173.904 5.13065 -2.38287 0
M  V30 1810 H 172.461 5.73936 -3.08934 0
M  V30 1811 N 175.894 1.51508 0.433938 0
M  V30 1812 C 177.142 1.6402 1.18075 0
M  V30 1813 C 177.463 0.360328 1.91642 0
M  V30 1814 O 176.733 -0.623945 1.85698 0
M  V30 1815 H 175.313 0.6045 0.43885 0
M  V30 1816 H 177.975 1.88452 0.497178 0
M  V30 1817 H 177.071 2.46949 1.90847 0
M  V30 1818 N 177.372 -0.689602 1.41712 0
M  V30 1819 C 178.282 -1.83314 1.46401 0
M  V30 1820 C 179.298 -1.7036 0.35405 0
M  V30 1821 O 180.474 -1.92171 0.602692 0
M  V30 1822 C 177.539 -3.19344 1.34982 0
M  V30 1823 C 176.6 -3.44363 2.56344 0
M  V30 1824 C 175.833 -4.73904 2.45461 0
M  V30 1825 O 176.056 -5.508 1.48241 0
M  V30 1826 O 174.99 -4.99839 3.35328 0
M  V30 1827 H 178.816 -1.82314 2.42889 0
M  V30 1828 H 176.401 -0.843438 1.23315 0
M  V30 1829 H 178.283 -4.00547 1.3092 0
M  V30 1830 H 176.958 -3.21014 0.41612 0
M  V30 1831 H 175.865 -2.63067 2.65982 0
M  V30 1832 H 177.198 -3.47512 3.48563 0
M  V30 1833 N 178.85 -1.27639 -0.924453 0
M  V30 1834 C 180.098 -1.13941 -1.66918 0
M  V30 1835 C 180.419 0.314589 -1.92446 0
M  V30 1836 O 179.689 1.21964 -1.53303 0
M  V30 1837 H 178.269 -0.418678 -0.618642 0
M  V30 1838 H 180.931 -1.60213 -1.10985 0
M  V30 1839 H 180.027 -1.67094 -2.63602 0
M  V30 1840 N 180.328 1.1314 -1.09713 0
M  V30 1841 C 181.238 2.22242 -0.751367 0
M  V30 1842 C 182.254 1.72224 0.247938 0
M  V30 1843 O 183.43 2.01205 0.0885463 0
M  V30 1844 C 180.495 3.46231 -0.180274 0
M  V30 1845 C 179.556 4.11125 -1.2359 0
M  V30 1846 C 178.789 5.29195 -0.691966 0
M  V30 1847 O 179.012 5.68342 0.48414 0
M  V30 1848 O 177.946 5.84214 -1.44838 0
M  V30 1849 H 181.772 2.54197 -1.66186 0
M  V30 1850 H 179.357 1.21331 -0.871735 0
M  V30 1851 H 181.239 4.21185 0.134739 0
M  V30 1852 H 179.914 3.1597 0.703185 0
M  V30 1853 H 178.821 3.37985 -1.60366 0
M  V30 1854 H 180.154 4.45524 -2.09211 0
M  V30 1855 N 181.806 0.884767 1.30421 0
M  V30 1856 C 183.217 0.553656 1.78302 0
M  V30 1857 C 183.568 -0.930153 1.7275 0
M  V30 1858 O 182.693 -1.72681 1.30423 0
M  V30 1859 C 183.288 0.998234 3.2376 0
M  V30 1860 C 181.847 0.71854 3.69478 0
M  V30 1861 C 180.994 1.18132 2.50879 0
M  V30 1862 H 183.945 1.06901 1.17294 0
M  V30 1863 H 183.966 0.327118 3.79091 0
M  V30 1864 H 183.478 2.0782 3.27769 0
M  V30 1865 H 181.579 -0.349444 3.70958 0
M  V30 1866 H 181.692 1.30595 4.60958 0
M  V30 1867 H 180.056 0.600669 2.47516 0
M  V30 1868 H 180.839 2.26902 2.57624 0
M  V30 1869 N 183.284 -1.43765 0.645699 0
M  V30 1870 C 184.695 -1.85193 0.236719 0
M  V30 1871 C 185.046 -1.54045 -1.21509 0
M  V30 1872 O 184.171 -0.985694 -1.92647 0
M  V30 1873 C 184.766 -3.36151 0.422845 0
M  V30 1874 C 183.325 -3.76338 0.0682492 0
M  V30 1875 C 182.472 -2.67538 0.729306 0
M  V30 1876 H 185.423 -1.34025 0.849883 0
M  V30 1877 H 185.444 -3.79032 -0.333904 0
M  V30 1878 H 184.956 -3.5879 1.47958 0
M  V30 1879 H 183.057 -3.59312 -0.986179 0
M  V30 1880 H 183.17 -4.76603 0.488469 0
M  V30 1881 H 181.534 -2.54176 0.163235 0
M  V30 1882 H 182.317 -2.93006 1.78892 0
M  V30 1883 N 184.763 -0.387143 -1.52771 0
M  V30 1884 C 185.673 0.456442 -2.30117 0
M  V30 1885 C 186.689 1.07342 -1.36944 0
M  V30 1886 O 187.865 1.07971 -1.70013 0
M  V30 1887 C 184.93 1.56957 -3.09136 0
M  V30 1888 C 183.991 0.977916 -4.18014 0
M  V30 1889 C 183.224 2.038 -4.93256 0
M  V30 1890 O 183.447 3.25271 -4.68567 0
M  V30 1891 O 182.381 1.6565 -5.78657 0
M  V30 1892 H 186.207 -0.17359 -3.03203 0
M  V30 1893 H 183.792 -0.150919 -1.48636 0
M  V30 1894 H 185.674 2.21628 -3.58412 0
M  V30 1895 H 184.349 2.18461 -2.38865 0
M  V30 1896 H 183.256 0.294525 -3.72939 0
M  V30 1897 H 184.589 0.407128 -4.90513 0
M  V30 1898 N 186.241 1.57166 -0.116904 0
M  V30 1899 C 187.151 2.18745 0.847812 0
M  V30 1900 C 188.167 1.163 1.29423 0
M  V30 1901 O 189.343 1.48761 1.35765 0
M  V30 1902 C 186.408 2.77307 2.0809 0
M  V30 1903 C 185.469 3.94781 1.68661 0
M  V30 1904 C 184.702 4.50541 2.86091 0
M  V30 1905 O 184.925 4.05202 4.01456 0
M  V30 1906 O 183.859 5.41256 2.63298 0
M  V30 1907 H 187.685 3.01632 0.353778 0
M  V30 1908 H 185.27 1.49005 0.108599 0
M  V30 1909 H 187.152 3.14647 2.80313 0
M  V30 1910 H 185.827 1.97452 2.56504 0
M  V30 1911 H 184.734 3.62214 0.935518 0
M  V30 1912 H 186.067 4.76065 1.24991 0
M  V30 1913 N 187.719 -0.156864 1.56817 0
M  V30 1914 C 188.682 -1.17781 1.96622 0
M  V30 1915 C 189.682 -1.36401 0.851555 0
M  V30 1916 O 190.872 -1.33561 1.11836 0
M  V30 1917 C 188.004 -2.54008 2.27361 0
M  V30 1918 H 189.197 -0.836564 2.87996 0
M  V30 1919 H 186.75 -0.39985 1.51099 0
M  V30 1920 H 187.485 -2.9312 1.38748 0
M  V30 1921 H 187.27 -2.41856 3.08623 0
M  V30 1922 H 188.76 -3.27558 2.59029 0
M  V30 1923 N 189.197 -1.51736 -0.425897 0
M  V30 1924 C 190.443 -1.65214 -1.1761 0
M  V30 1925 C 190.776 -0.372778 -1.90589 0
M  V30 1926 O 190.051 0.628139 -1.84078 0
M  V30 1927 C 190.334 -2.86312 -2.18398 0
M  V30 1928 C 190.187 -4.24254 -1.49426 0
M  V30 1929 C 191.506 -3.02925 -3.19256 0
M  V30 1930 H 188.625 -0.601263 -0.426206 0
M  V30 1931 H 191.267 -1.8425 -0.463882 0
M  V30 1932 H 189.417 -2.70213 -2.79137 0
M  V30 1933 H 191.089 -4.52046 -0.919362 0
M  V30 1934 H 189.332 -4.26426 -0.796432 0
M  V30 1935 H 190.003 -5.05001 -2.22885 0
M  V30 1936 H 192.479 -3.1781 -2.68581 0
M  V30 1937 H 191.355 -3.89199 -3.8706 0
M  V30 1938 H 191.616 -2.15497 -3.86023 0
M  V30 1939 N 190.675 0.682077 -1.42076 0
M  V30 1940 C 191.638 1.77756 -1.44691 0
M  V30 1941 C 192.638 1.5726 -0.335535 0
M  V30 1942 O 193.828 1.63686 -0.596037 0
M  V30 1943 C 190.96 3.16301 -1.27146 0
M  V30 1944 H 192.153 1.76826 -2.42224 0
M  V30 1945 H 189.706 0.891012 -1.28416 0
M  V30 1946 H 190.441 3.22862 -0.305075 0
M  V30 1947 H 190.226 3.32581 -2.07683 0
M  V30 1948 H 191.716 3.96241 -1.31843 0
M  V30 1949 N 192.153 1.28127 0.917671 0
M  V30 1950 C 193.083 1.14248 2.03641 0
M  V30 1951 C 194.064 0.0412748 1.7005 0
M  V30 1952 O 195.249 0.217566 1.92977 0
M  V30 1953 C 192.379 0.799431 3.37974 0
M  V30 1954 C 191.333 1.85497 3.85713 0
M  V30 1955 C 190.659 1.36565 5.16966 0
M  V30 1956 C 191.959 3.26085 4.08002 0
M  V30 1957 H 193.653 2.07835 2.15511 0
M  V30 1958 H 191.199 1.00064 1.03553 0
M  V30 1959 H 193.152 0.689114 4.15727 0
M  V30 1960 H 191.876 -0.172145 3.26146 0
M  V30 1961 H 190.535 1.95437 3.10161 0
M  V30 1962 H 190.183 0.383253 5.01538 0
M  V30 1963 H 189.883 2.07143 5.49878 0
M  V30 1964 H 191.407 1.26848 5.97279 0
M  V30 1965 H 192.821 3.19089 4.76293 0
M  V30 1966 H 191.218 3.94462 4.52238 0
M  V30 1967 H 192.288 3.70394 3.12948 0
M  V30 1968 N 193.631 -1.12557 1.10312 0
M  V30 1969 C 194.581 -2.16331 0.720076 0
M  V30 1970 C 195.565 -1.58616 -0.270115 0
M  V30 1971 O 196.757 -1.76823 -0.0790507 0
M  V30 1972 C 193.886 -3.42963 0.152113 0
M  V30 1973 C 192.972 -4.07663 1.16927 0
M  V30 1974 N 193.363 -4.47392 2.35953 0
M  V30 1975 C 191.661 -4.34425 1.0095 0
M  V30 1976 C 192.362 -4.97932 3.0073 0
M  V30 1977 N 191.338 -4.93358 2.28252 0
M  V30 1978 H 195.14 -2.44813 1.62616 0
M  V30 1979 H 192.654 -1.29449 0.980654 0
M  V30 1980 H 194.651 -4.16664 -0.14037 0
M  V30 1981 H 193.311 -3.1595 -0.748701 0
M  V30 1982 H 194.322 -4.39802 2.73486 0
M  V30 1983 H 190.999 -4.17177 0.164134 0
M  V30 1984 H 192.389 -5.38397 4.01969 0
M  V30 1985 N 195.109 -0.891671 -1.2995 0
M  V30 1986 C 196.056 -0.361736 -2.27948 0
M  V30 1987 C 197.026 0.551761 -1.56668 0
M  V30 1988 O 198.211 0.478736 -1.84696 0
M  V30 1989 C 195.351 0.411825 -3.42634 0
M  V30 1990 C 194.464 -0.531651 -4.28716 0
M  V30 1991 C 193.599 0.258167 -5.30572 0
M  V30 1992 C 192.638 -0.680349 -6.08307 0
M  V30 1993 N 191.775 0.0745613 -7.0206 0
M  V30 1994 H 196.615 -1.20254 -2.72659 0
M  V30 1995 H 194.152 -0.604352 -1.34112 0
M  V30 1996 H 196.11 0.876304 -4.07893 0
M  V30 1997 H 194.74 1.21715 -2.98974 0
M  V30 1998 H 193.792 -1.11463 -3.63703 0
M  V30 1999 H 195.104 -1.25038 -4.82874 0
M  V30 2000 H 194.258 0.784204 -6.0161 0
M  V30 2001 H 192.997 1.01008 -4.77126 0
M  V30 2002 H 192.002 -1.21796 -5.3614 0
M  V30 2003 H 193.227 -1.43145 -6.63842 0
M  V30 2004 H 191.173 0.808883 -6.50994 0
M  V30 2005 H 191.09 -0.584409 -7.53738 0
M  V30 2006 H 192.358 0.581123 -7.77331 0
M  V30 2007 N 196.587 1.43421 -0.653314 0
M  V30 2008 C 197.834 2.01812 -0.166745 0
M  V30 2009 C 198.162 1.51535 1.21931 0
M  V30 2010 O 197.417 0.698975 1.82792 0
M  V30 2011 C 197.716 3.57176 -0.126623 0
M  V30 2012 C 197.382 4.26798 -1.45444 0
M  V30 2013 C 196.044 4.45534 -1.81805 0
M  V30 2014 C 198.396 4.66225 -2.32989 0
M  V30 2015 C 195.724 5.00961 -3.05377 0
M  V30 2016 C 198.076 5.23021 -3.55853 0
M  V30 2017 C 196.74 5.39973 -3.9241 0
M  V30 2018 H 196.01 0.738484 -0.0610162 0
M  V30 2019 H 198.657 1.71896 -0.84404 0
M  V30 2020 H 196.962 3.86634 0.634123 0
M  V30 2021 H 198.659 4.00112 0.266723 0
M  V30 2022 H 195.249 4.12561 -1.16153 0
M  V30 2023 H 199.433 4.51443 -2.06187 0
M  V30 2024 H 194.689 5.12271 -3.3375 0
M  V30 2025 H 198.863 5.52518 -4.23907 0
M  V30 2026 H 196.49 5.82687 -4.88242 0
M  V30 2027 N 198.065 0.39524 1.52563 0
M  V30 2028 C 198.995 -0.428384 2.29537 0
M  V30 2029 C 199.976 -1.05831 1.33169 0
M  V30 2030 O 201.161 -1.06995 1.62067 0
M  V30 2031 C 198.291 -1.55274 3.10656 0
M  V30 2032 C 197.245 -1.04855 4.14957 0
M  V30 2033 C 196.571 -2.26543 4.84337 0
M  V30 2034 C 197.871 -0.112324 5.22179 0
M  V30 2035 H 199.565 0.213867 2.98635 0
M  V30 2036 H 197.111 0.104298 1.43622 0
M  V30 2037 H 199.064 -2.1358 3.63265 0
M  V30 2038 H 197.788 -2.22266 2.39302 0
M  V30 2039 H 196.447 -0.487985 3.63338 0
M  V30 2040 H 196.095 -2.92059 4.09525 0
M  V30 2041 H 195.795 -1.93466 5.54837 0
M  V30 2042 H 197.319 -2.85481 5.39753 0
M  V30 2043 H 198.733 -0.603752 5.70112 0
M  V30 2044 H 197.13 0.128968 5.99961 0
M  V30 2045 H 198.2 0.837052 4.77621 0
M  V30 2046 N 199.544 -1.57102 0.125237 0
M  V30 2047 C 200.791 -1.95407 -0.531248 0
M  V30 2048 C 201.119 -1.0089 -1.66287 0
M  V30 2049 O 200.374 -0.0339431 -1.95671 0
M  V30 2050 C 200.673 -3.40096 -1.09862 0
M  V30 2051 C 200.339 -4.50815 -0.0876989 0
M  V30 2052 C 199.001 -4.80824 0.19026 0
M  V30 2053 C 201.353 -5.17724 0.600902 0
M  V30 2054 C 198.681 -5.75058 1.163 0
M  V30 2055 C 201.033 -6.13005 1.56231 0
M  V30 2056 C 199.697 -6.41403 1.8482 0
M  V30 2057 H 198.967 -0.715046 -0.194397 0
M  V30 2058 H 201.614 -1.90373 0.207463 0
M  V30 2059 H 199.919 -3.41855 -1.91422 0
M  V30 2060 H 201.616 -3.6705 -1.61478 0
M  V30 2061 H 198.206 -4.27444 -0.314528 0
M  V30 2062 H 202.39 -4.94691 0.399333 0
M  V30 2063 H 197.646 -5.95362 1.39117 0
M  V30 2064 H 201.82 -6.63934 2.10153 0
M  V30 2065 H 199.447 -7.14229 2.60349 0
M  V30 2066 N 201.022 0.148545 -1.56898 0
M  V30 2067 C 202.247 0.880385 -1.87787 0
M  V30 2068 C 202.672 1.74018 -0.714093 0
M  V30 2069 O 202.03 1.78153 0.336343 0
M  V30 2070 C 202.078 1.71422 -3.17249 0
M  V30 2071 O 201.182 2.8183 -3.01074 0
M  V30 2072 H 200.523 0.245301 -0.617028 0
M  V30 2073 H 203.053 0.139826 -2.04122 0
M  V30 2074 H 203.063 2.10954 -3.49231 0
M  V30 2075 H 201.738 1.08284 -4.01556 0
M  V30 2076 H 200.315 2.45715 -2.80497 0
M  V30 2077 N 202.5 1.5196 0.417844 0
M  V30 2078 C 203.447 1.74678 1.50852 0
M  V30 2079 C 204.417 0.588947 1.55308 0
M  V30 2080 O 205.602 0.825544 1.72016 0
M  V30 2081 C 202.742 1.89544 2.88387 0
M  V30 2082 C 201.855 3.17166 2.93309 0
M  V30 2083 C 200.99 3.22513 4.22088 0
M  V30 2084 C 200.029 4.44372 4.20951 0
M  V30 2085 N 199.166 4.47161 5.41287 0
M  V30 2086 H 204.006 2.67768 1.30783 0
M  V30 2087 H 201.543 1.32689 0.63498 0
M  V30 2088 H 203.501 1.96146 3.68216 0
M  V30 2089 H 202.131 0.998424 3.06971 0
M  V30 2090 H 201.183 3.19778 2.06024 0
M  V30 2091 H 202.495 4.07021 2.88332 0
M  V30 2092 H 201.649 3.28139 5.10303 0
M  V30 2093 H 200.388 2.30581 4.29748 0
M  V30 2094 H 199.393 4.38902 3.31127 0
M  V30 2095 H 200.618 5.3759 4.14938 0
M  V30 2096 H 198.564 3.58108 5.49632 0
M  V30 2097 H 198.481 5.3085 5.3827 0
M  V30 2098 H 199.749 4.57005 6.3148 0
M  V30 2099 N 203.978 -0.674533 1.42435 0
M  V30 2100 C 204.925 -1.78807 1.45934 0
M  V30 2101 C 205.895 -1.63157 0.311271 0
M  V30 2102 O 207.08 -1.83707 0.515383 0
M  V30 2103 C 204.22 -3.16839 1.36773 0
M  V30 2104 C 203.333 -3.43774 2.61617 0
M  V30 2105 C 202.468 -4.71536 2.44597 0
M  V30 2106 C 201.507 -4.91505 3.64814 0
M  V30 2107 N 200.644 -6.10508 3.46734 0
M  V30 2108 H 205.484 -1.75151 2.41093 0
M  V30 2109 H 203.021 -0.85504 1.19697 0
M  V30 2110 H 204.979 -3.96606 1.29459 0
M  V30 2111 H 203.609 -3.19619 0.452089 0
M  V30 2112 H 202.661 -2.58259 2.79297 0
M  V30 2113 H 203.973 -3.54423 3.50978 0
M  V30 2114 H 203.127 -5.59393 2.3487 0
M  V30 2115 H 201.866 -4.6317 1.52726 0
M  V30 2116 H 200.871 -4.0209 3.74972 0
M  V30 2117 H 202.096 -5.01716 4.57665 0
M  V30 2118 H 200.042 -6.03315 2.5758 0
M  V30 2119 H 199.959 -6.2202 4.29682 0
M  V30 2120 H 201.227 -7.01044 3.40819 0
M  V30 2121 N 205.456 -1.28612 -0.910864 0
M  V30 2122 C 206.419 -1.12803 -1.9952 0
M  V30 2123 C 207.419 -0.0668264 -1.60661 0
M  V30 2124 O 208.609 -0.312847 -1.71368 0
M  V30 2125 C 205.741 -0.72254 -3.33155 0
M  V30 2126 H 206.934 -2.09109 -2.14973 0
M  V30 2127 H 204.487 -1.11639 -1.09391 0
M  V30 2128 H 205.222 0.241152 -3.23402 0
M  V30 2129 H 205.007 -1.48916 -3.62721 0
M  V30 2130 H 206.497 -0.634666 -4.12749 0
M  V30 2131 N 206.934 1.1197 -1.10907 0
M  V30 2132 C 208.345 1.65114 -0.871446 0
M  V30 2133 C 208.696 1.86885 0.597353 0
M  V30 2134 O 207.821 1.59896 1.45816 0
M  V30 2135 C 208.416 2.99944 -1.5754 0
M  V30 2136 C 206.975 3.50018 -1.38435 0
M  V30 2137 C 206.122 2.24941 -1.62164 0
M  V30 2138 H 209.073 0.956851 -1.2661 0
M  V30 2139 H 209.094 3.66651 -1.01721 0
M  V30 2140 H 208.606 2.84067 -2.64438 0
M  V30 2141 H 206.707 3.71071 -0.337214 0
M  V30 2142 H 206.82 4.29165 -2.12965 0
M  V30 2143 H 205.184 2.3229 -1.04467 0
M  V30 2144 H 205.967 2.11612 -2.70324 0
M  V30 2145 N 208.412 0.89855 1.29475 0
M  V30 2146 C 209.359 0.373819 2.27753 0
M  V30 2147 C 210.329 -0.543444 1.56958 0
M  V30 2148 O 211.514 -0.468934 1.84948 0
M  V30 2149 C 208.654 -0.393648 3.42848 0
M  V30 2150 C 207.767 0.554379 4.28428 0
M  V30 2151 C 206.902 -0.230026 5.30702 0
M  V30 2152 C 205.941 0.712599 6.07938 0
M  V30 2153 N 205.078 -0.0373283 7.0209 0
M  V30 2154 H 209.918 1.21699 2.72017 0
M  V30 2155 H 207.455 0.611456 1.33789 0
M  V30 2156 H 209.413 -0.85466 4.08352 0
M  V30 2157 H 208.043 -1.20128 2.99615 0
M  V30 2158 H 207.095 1.13391 3.63107 0
M  V30 2159 H 208.407 1.27597 4.82204 0
M  V30 2160 H 207.561 -0.752288 6.02018 0
M  V30 2161 H 206.3 -0.984758 4.77654 0
M  V30 2162 H 205.305 1.24637 5.35486 0
M  V30 2163 H 206.53 1.46664 6.63074 0
M  V30 2164 H 204.476 -0.774348 6.51414 0
M  V30 2165 H 204.393 0.624374 7.53417 0
M  V30 2166 H 205.661 -0.539891 7.77628 0
M  V30 2167 N 209.89 -1.43072 0.660911 0
M  V30 2168 C 210.82 -2.33497 -0.0122829 0
M  V30 2169 C 211.801 -1.49903 -0.803925 0
M  V30 2170 O 212.986 -1.78546 -0.763864 0
M  V30 2171 C 210.116 -3.33363 -0.973994 0
M  V30 2172 C 209.07 -4.27003 -0.291928 0
M  V30 2173 C 208.396 -5.16967 -1.36562 0
M  V30 2174 C 209.696 -5.15816 0.820462 0
M  V30 2175 H 211.39 -2.90038 0.742873 0
M  V30 2176 H 208.936 -1.39461 0.358688 0
M  V30 2177 H 210.889 -3.95524 -1.45392 0
M  V30 2178 H 209.613 -2.75095 -1.7604 0
M  V30 2179 H 208.272 -3.66217 0.167623 0
M  V30 2180 H 207.92 -4.55034 -2.14366 0
M  V30 2181 H 207.62 -5.80441 -0.914454 0
M  V30 2182 H 209.144 -5.82003 -1.84675 0
M  V30 2183 H 210.558 -5.71742 0.422366 0
M  V30 2184 H 208.955 -5.8805 1.19656 0
M  V30 2185 H 210.025 -4.55045 1.67518 0
M  V30 2186 N 211.368 -0.403325 -1.52352 0
M  V30 2187 C 212.278 0.432009 -2.30588 0
M  V30 2188 C 213.294 1.05884 -1.38075 0
M  V30 2189 O 214.47 1.06161 -1.71148 0
M  V30 2190 C 211.535 1.53669 -3.10784 0
M  V30 2191 C 210.596 0.933525 -4.19027 0
M  V30 2192 C 209.829 1.98557 -4.9539 0
M  V30 2193 O 210.052 3.20283 -4.71991 0
M  V30 2194 O 208.986 1.59504 -5.80381 0
M  V30 2195 H 212.812 -0.205739 -3.03002 0
M  V30 2196 H 210.397 -0.166675 -1.48467 0
M  V30 2197 H 212.279 2.17814 -3.60742 0
M  V30 2198 H 210.954 2.15915 -2.41169 0
M  V30 2199 H 209.861 0.254954 -3.7323 0
M  V30 2200 H 211.194 0.35508 -4.90918 0
M  V30 2201 N 212.846 1.57033 -0.133567 0
M  V30 2202 C 213.794 2.17348 0.828412 0
M  V30 2203 C 214.788 1.12671 1.26498 0
M  V30 2204 O 215.994 1.30947 1.23502 0
M  V30 2205 H 212.369 0.695775 0.285309 0
M  V30 2206 H 214.34 2.96935 0.295372 0
M  V30 2207 C 213.089 2.79893 2.06289 0
M  V30 2208 H 212.412 3.60147 1.73592 0
M  V30 2209 H 213.852 3.25615 2.71572 0
M  V30 2210 C 212.311 1.77713 2.86216 0
M  V30 2211 O 212.841 1.23937 3.82103 0
M  V30 2212 N 211.047 1.47321 2.50489 0
M  V30 2213 H 210.594 1.91243 1.7258 0
M  V30 2214 H 210.552 0.79199 3.04261 0
M  V30 2215 N 214.325 -0.140222 1.56975 0
M  V30 2216 C 215.553 -0.866437 1.87884 0
M  V30 2217 C 215.968 -1.74428 0.722517 0
M  V30 2218 O 215.325 -1.79891 -0.30749 0
M  V30 2219 C 215.376 -1.71753 3.18093 0
M  V30 2220 O 215.097 -0.875056 4.29272 0
M  V30 2221 C 216.598 -2.55074 3.62563 0
M  V30 2222 H 213.818 -0.25019 0.622612 0
M  V30 2223 H 216.362 -0.130977 2.0408 0
M  V30 2224 H 214.517 -2.40598 3.03631 0
M  V30 2225 H 214.931 -1.46002 5.03769 0
M  V30 2226 H 216.405 -3.10356 4.5649 0
M  V30 2227 H 216.882 -3.31434 2.88181 0
M  V30 2228 H 217.488 -1.91509 3.79743 0
M  V30 2229 N 215.803 -1.52179 -0.40978 0
M  V30 2230 C 216.766 -1.74853 -1.48186 0
M  V30 2231 C 217.766 -0.618417 -1.48433 0
M  V30 2232 O 218.956 -0.886286 -1.49969 0
M  V30 2233 C 216.088 -1.8303 -2.87598 0
M  V30 2234 H 217.281 -2.70559 -1.29374 0
M  V30 2235 H 214.834 -1.42586 -0.640233 0
M  V30 2236 H 215.569 -0.89236 -3.11781 0
M  V30 2237 H 215.354 -2.65187 -2.88822 0
M  V30 2238 H 216.844 -2.02316 -3.65319 0
M  V30 2239 N 217.281 0.66697 -1.42791 0
M  V30 2240 C 218.528 1.42699 -1.43678 0
M  V30 2241 C 218.856 1.94419 -0.0560425 0
M  V30 2242 O 218.111 1.7182 0.936831 0
M  V30 2243 C 218.41 2.6349 -2.4147 0
M  V30 2244 C 218.076 2.30267 -3.8767 0
M  V30 2245 C 216.738 2.20918 -4.27491 0
M  V30 2246 C 219.09 2.03435 -4.79858 0
M  V30 2247 C 216.418 1.82873 -5.57471 0
M  V30 2248 C 218.77 1.66892 -6.10188 0
M  V30 2249 C 217.434 1.56058 -6.49001 0
M  V30 2250 H 216.704 0.522171 -0.525755 0
M  V30 2251 H 219.351 0.759785 -1.75783 0
M  V30 2252 H 217.656 3.35279 -2.0272 0
M  V30 2253 H 219.353 3.21684 -2.39417 0
M  V30 2254 H 215.943 2.38449 -3.56146 0
M  V30 2255 H 220.127 2.09586 -4.49875 0
M  V30 2256 H 215.383 1.7306 -5.86396 0
M  V30 2257 H 219.557 1.45157 -6.81104 0
M  V30 2258 H 217.184 1.26348 -7.49627 0
M  V30 2259 N 218.759 1.29093 0.90403 0
M  V30 2260 C 219.722 1.1386 1.98919 0
M  V30 2261 C 220.722 0.0753457 1.60623 0
M  V30 2262 O 221.912 0.321931 1.71199 0
M  V30 2263 C 219.044 0.740198 3.32767 0
M  V30 2264 H 220.237 2.10246 2.13861 0
M  V30 2265 H 217.79 1.12218 1.08797 0
M  V30 2266 H 218.525 -0.223997 3.23525 0
M  V30 2267 H 218.31 1.50838 3.61926 0
M  V30 2268 H 219.8 0.656546 4.12407 0
M  V30 2269 N 220.237 -1.11381 1.11499 0
M  V30 2270 C 221.483 -1.83403 0.865512 0
M  V30 2271 C 221.816 -1.84459 -0.607329 0
M  V30 2272 O 221.091 -1.29811 -1.44842 0
M  V30 2273 C 221.374 -3.30552 1.42855 0
M  V30 2274 C 221.227 -3.37886 2.96906 0
M  V30 2275 C 222.546 -4.26643 1.08 0
M  V30 2276 H 219.665 -0.665879 0.31587 0
M  V30 2277 H 222.307 -1.30601 1.37998 0
M  V30 2278 H 220.457 -3.75648 0.990985 0
M  V30 2279 H 222.129 -3.01343 3.49271 0
M  V30 2280 H 220.372 -2.78088 3.32941 0
M  V30 2281 H 221.043 -4.41458 3.31389 0
M  V30 2282 H 223.519 -3.89729 1.45775 0
M  V30 2283 H 222.395 -5.27986 1.50072 0
M  V30 2284 H 222.656 -4.42099 -0.00915037 0
M  V30 2285 N 221.715 -0.905404 -1.28997 0
M  V30 2286 C 222.962 -0.534248 -1.95325 0
M  V30 2287 C 223.29 0.920535 -1.71337 0
M  V30 2288 O 222.545 1.66861 -1.02254 0
M  V30 2289 C 222.844 -0.779906 -3.48787 0
M  V30 2290 C 222.51 -2.21293 -3.92861 0
M  V30 2291 C 221.172 -2.60475 -4.04606 0
M  V30 2292 C 223.524 -3.14587 -4.15553 0
M  V30 2293 C 220.852 -3.9212 -4.36416 0
M  V30 2294 C 223.204 -4.45787 -4.48839 0
M  V30 2295 C 221.868 -4.84834 -4.58794 0
M  V30 2296 H 221.138 -0.195495 -0.714747 0
M  V30 2297 H 223.785 -1.14514 -1.53488 0
M  V30 2298 H 222.09 -0.0861365 -3.91705 0
M  V30 2299 H 223.787 -0.472029 -3.98212 0
M  V30 2300 H 220.377 -1.89887 -3.84241 0
M  V30 2301 H 224.561 -2.85528 -4.0594 0
M  V30 2302 H 219.817 -4.22086 -4.42327 0
M  V30 2303 H 223.991 -5.18098 -4.65346 0
M  V30 2304 H 221.618 -5.86877 -4.83197 0
M  V30 2305 N 223.193 1.4272 -0.668489 0
M  V30 2306 C 224.418 2.06484 -0.194758 0
M  V30 2307 C 224.843 1.49862 1.13679 0
M  V30 2308 O 224.201 0.614582 1.70565 0
M  V30 2309 C 224.249 3.60353 -0.133546 0
M  V30 2310 O 223.353 4.02464 0.899806 0
M  V30 2311 H 222.694 0.656137 -0.10188 0
M  V30 2312 H 225.224 1.82964 -0.915722 0
M  V30 2313 H 225.234 4.07976 0.0447041 0
M  V30 2314 H 223.909 4.00938 -1.1055 0
M  V30 2315 H 222.486 3.66402 0.693109 0
M  V30 2316 N 224.671 0.411399 1.52136 0
M  V30 2317 C 225.601 -0.404015 2.29978 0
M  V30 2318 C 226.582 -1.04412 1.34284 0
M  V30 2319 O 227.767 -1.0527 1.63192 0
M  V30 2320 C 224.897 -1.5197 3.12286 0
M  V30 2321 C 223.851 -1.00448 4.16046 0
M  V30 2322 C 223.177 -2.21393 4.86712 0
M  V30 2323 C 224.477 -0.0569336 5.22269 0
M  V30 2324 H 226.171 0.245529 2.98392 0
M  V30 2325 H 223.717 0.119525 1.43503 0
M  V30 2326 H 225.67 -2.09715 3.6551 0
M  V30 2327 H 224.394 -2.19716 2.41646 0
M  V30 2328 H 223.053 -0.449421 3.63835 0
M  V30 2329 H 222.701 -2.87699 4.12599 0
M  V30 2330 H 222.401 -1.87571 5.56858 0
M  V30 2331 H 223.925 -2.7974 5.4275 0
M  V30 2332 H 225.339 -0.54325 5.7072 0
M  V30 2333 H 223.736 0.192594 5.99791 0
M  V30 2334 H 224.806 0.887663 4.76706 0
M  V30 2335 N 226.149 -1.5696 0.141893 0
M  V30 2336 C 227.397 -1.95573 -0.509484 0
M  V30 2337 C 227.718 -1.02746 -1.65736 0
M  V30 2338 O 226.988 -0.0880311 -1.95702 0
M  V30 2339 H 225.568 -0.722115 -0.191205 0
M  V30 2340 H 228.23 -1.93697 0.216196 0
M  V30 2341 H 227.326 -2.99171 -0.889 0
M  V30 2342 N 227.627 0.131896 -1.57047 0
M  V30 2343 C 228.904 0.871495 -1.75112 0
M  V30 2344 C 229.284 1.9866 -0.713949 0
M  V30 2345 O 228.632 2.26965 0.264447 0
M  V30 2346 C 228.842 1.40007 -3.19686 0
M  V30 2347 C 230.19 1.85752 -3.81813 0
M  V30 2348 O 231.214 1.49715 -3.23209 0
M  V30 2349 O 230.073 2.5226 -4.84796 0
M  V30 2350 H 227.167 0.412919 -0.716538 0
M  V30 2351 H 229.713 0.116641 -1.69299 0
M  V30 2352 H 228.485 0.599404 -3.86682 0
M  V30 2353 H 228.108 2.218 -3.29986 0
M  V30 2354 N 229.106 1.52395 0.401703 0
M  V30 2355 C 230.331 1.70972 1.17403 0
M  V30 2356 C 230.756 0.421615 1.83314 0
M  V30 2357 O 230.114 -0.621564 1.70312 0
M  V30 2358 C 230.162 2.85151 2.20728 0
M  V30 2359 O 229.266 2.51238 3.27037 0
M  V30 2360 H 228.607 0.568927 0.342372 0
M  V30 2361 H 231.137 1.99131 0.469891 0
M  V30 2362 H 231.147 3.10279 2.64936 0
M  V30 2363 H 229.822 3.78603 1.7214 0
M  V30 2364 H 228.399 2.36808 2.88057 0
M  V30 2365 N 230.584 -0.659388 1.43143 0
M  V30 2366 C 231.809 -1.45221 1.48073 0
M  V30 2367 C 232.234 -1.87845 0.097995 0
M  V30 2368 O 231.592 -1.56985 -0.90694 0
M  V30 2369 C 231.64 -2.66748 2.42647 0
M  V30 2370 O 230.744 -3.65583 1.90848 0
M  V30 2371 H 230.085 -0.435669 0.501088 0
M  V30 2372 H 232.615 -0.807432 1.87994 0
M  V30 2373 H 232.625 -3.14637 2.59745 0
M  V30 2374 H 231.3 -2.35067 3.43098 0
M  V30 2375 H 229.877 -3.24693 1.83381 0
M  V30 2376 N 232.062 -1.29571 -0.897171 0
M  V30 2377 C 233.292 -1.20408 -1.67886 0
M  V30 2378 C 233.7 0.237429 -1.87704 0
M  V30 2379 O 233.043 1.17048 -1.41582 0
M  V30 2380 C 233.105 -1.84887 -3.08314 0
M  V30 2381 C 232.769 -3.34189 -3.11716 0
M  V30 2382 C 233.766 -4.30374 -2.91675 0
M  V30 2383 C 231.451 -3.75431 -3.33701 0
M  V30 2384 C 233.445 -5.65776 -2.93557 0
M  V30 2385 C 231.132 -5.10955 -3.35214 0
M  V30 2386 C 232.13 -6.05938 -3.15164 0
M  V30 2387 O 231.818 -7.38987 -3.1647 0
M  V30 2388 H 231.55 -0.418289 -0.531046 0
M  V30 2389 H 234.104 -1.71514 -1.13014 0
M  V30 2390 H 232.334 -1.28295 -3.64798 0
M  V30 2391 H 234.023 -1.70011 -3.6858 0
M  V30 2392 H 234.789 -3.99844 -2.74499 0
M  V30 2393 H 230.668 -3.01953 -3.48347 0
M  V30 2394 H 234.212 -6.39889 -2.77826 0
M  V30 2395 H 230.109 -5.4113 -3.51922 0
M  V30 2396 H 230.877 -7.47823 -3.3272 0
M  V30 2397 N 233.54 1.10788 -1.12088 0
M  V30 2398 C 234.45 2.20599 -0.798338 0
M  V30 2399 C 235.466 1.72712 0.21135 0
M  V30 2400 O 236.642 2.01348 0.0458477 0
M  V30 2401 C 233.707 3.45771 -0.253674 0
M  V30 2402 C 232.768 4.08411 -1.32283 0
M  V30 2403 C 232.001 5.27608 -0.80406 0
M  V30 2404 O 232.224 5.69241 0.363478 0
M  V30 2405 O 231.158 5.8101 -1.57198 0
M  V30 2406 H 234.984 2.50614 -1.7154 0
M  V30 2407 H 232.569 1.19454 -0.897275 0
M  V30 2408 H 234.451 4.21376 0.0453691 0
M  V30 2409 H 233.126 3.1739 0.636005 0
M  V30 2410 H 232.033 3.34507 -1.67499 0
M  V30 2411 H 233.366 4.40986 -2.18614 0
M  V30 2412 N 235.018 0.912232 1.28515 0
M  V30 2413 C 236.265 0.544599 1.95039 0
M  V30 2414 C 236.593 -0.911435 1.71823 0
M  V30 2415 O 235.848 -1.66317 1.03137 0
M  V30 2416 C 236.147 0.798392 3.48368 0
M  V30 2417 C 235.813 2.23374 3.91682 0
M  V30 2418 C 234.475 2.62617 4.03219 0
M  V30 2419 C 236.827 3.16786 4.13879 0
M  V30 2420 C 234.155 3.94429 4.3433 0
M  V30 2421 C 236.507 4.48161 4.46469 0
M  V30 2422 C 235.171 4.8726 4.56217 0
M  V30 2423 H 234.441 0.199283 0.7137 0
M  V30 2424 H 237.088 1.15327 1.52879 0
M  V30 2425 H 235.393 0.106908 3.91654 0
M  V30 2426 H 237.09 0.493141 3.97956 0
M  V30 2427 H 233.68 1.91922 3.83228 0
M  V30 2428 H 237.864 2.87677 4.0442 0
M  V30 2429 H 233.12 4.24426 4.40082 0
M  V30 2430 H 237.294 5.20559 4.62592 0
M  V30 2431 H 234.921 5.89431 4.80078 0
M  V30 2432 N 236.496 -1.42363 0.676048 0
M  V30 2433 C 237.743 -2.01522 0.19883 0
M  V30 2434 C 238.071 -1.53456 -1.19505 0
M  V30 2435 O 237.326 -0.727967 -1.81657 0
M  V30 2436 C 237.625 -3.56929 0.183431 0
M  V30 2437 C 237.291 -4.24431 1.52215 0
M  V30 2438 C 235.953 -4.42585 1.8887 0
M  V30 2439 C 238.305 -4.62459 2.40377 0
M  V30 2440 C 235.633 -4.96039 3.13309 0
M  V30 2441 C 237.985 -5.17294 3.64129 0
M  V30 2442 C 236.649 -5.33661 4.00951 0
M  V30 2443 H 235.919 -0.737419 0.0727571 0
M  V30 2444 H 238.566 -1.70531 0.871281 0
M  V30 2445 H 236.871 -3.87594 -0.572532 0
M  V30 2446 H 238.568 -4.00486 -0.203035 0
M  V30 2447 H 235.158 -4.10661 1.22701 0
M  V30 2448 H 239.342 -4.48105 2.13343 0
M  V30 2449 H 234.598 -5.06896 3.41857 0
M  V30 2450 H 238.772 -5.45704 4.32644 0
M  V30 2451 H 236.399 -5.74845 4.9745 0
M  V30 2452 N 237.974 -0.419461 -1.51915 0
M  V30 2453 C 239.214 0.152336 -2.03832 0
M  V30 2454 C 239.578 1.41501 -1.29775 0
M  V30 2455 O 240.779 2.06591 -1.7197 0
M  V30 2456 C 239.05 0.383812 -3.55333 0
M  V30 2457 S 240.609 0.921577 -4.29013 0
M  V30 2458 H 237.427 0.0402193 -0.709862 0
M  V30 2459 H 240.029 -0.574758 -1.8686 0
M  V30 2460 H 238.733 -0.541794 -4.06808 0
M  V30 2461 H 238.264 1.13849 -3.76566 0
M  V30 2462 H 240.279 2.20108 -4.4471 0
M  V30 2463 N 239.452 1.56882 -0.150215 0
M  V30 2464 C 240.384 2.14057 0.819286 0
M  V30 2465 C 241.397 1.09082 1.20851 0
M  V30 2466 O 242.586 1.36347 1.15203 0
M  V30 2467 C 239.686 2.65102 2.11127 0
M  V30 2468 C 238.859 3.94511 1.88891 0
M  V30 2469 C 237.918 4.30834 3.02107 0
M  V30 2470 O 236.944 4.99099 2.73659 0
M  V30 2471 N 238.146 3.90676 4.29363 0
M  V30 2472 H 240.911 2.97871 0.330618 0
M  V30 2473 H 238.472 1.61866 0.0332538 0
M  V30 2474 H 240.464 2.86411 2.85921 0
M  V30 2475 H 239.034 1.85994 2.51247 0
M  V30 2476 H 238.254 3.81795 0.981152 0
M  V30 2477 H 239.542 4.7907 1.71376 0
M  V30 2478 H 238.94 3.35677 4.55343 0
M  V30 2479 H 237.497 4.1703 5.00928 0
M  V30 2480 N 240.93 -0.123565 1.57115 0
M  V30 2481 C 242.155 -0.850398 1.89164 0
M  V30 2482 C 242.58 -1.7286 0.741688 0
M  V30 2483 O 241.938 -1.78665 -0.307958 0
M  V30 2484 C 241.986 -1.66353 3.19936 0
M  V30 2485 O 241.09 -2.77004 3.0552 0
M  V30 2486 H 240.431 -0.235454 0.620852 0
M  V30 2487 H 242.961 -0.107335 2.04318 0
M  V30 2488 H 242.971 -2.05372 3.52543 0
M  V30 2489 H 241.646 -1.01881 4.03228 0
M  V30 2490 H 240.223 -2.41221 2.84371 0
M  V30 2491 N 242.408 -1.52605 -0.393616 0
M  V30 2492 C 243.656 -1.67093 -1.13685 0
M  V30 2493 C 243.977 -0.411011 -1.90619 0
M  V30 2494 O 243.247 0.574491 -1.87287 0
M  V30 2495 H 241.827 -0.615923 -0.422668 0
M  V30 2496 H 244.489 -1.89704 -0.447039 0
M  V30 2497 H 243.585 -2.51922 -1.84232 0
M  V30 2498 N 243.887 0.651787 -1.4349 0
M  V30 2499 C 244.834 1.76462 -1.4876 0
M  V30 2500 C 245.804 1.62641 -0.337189 0
M  V30 2501 O 246.989 1.82864 -0.544544 0
M  V30 2502 C 244.129 3.14623 -1.41796 0
M  V30 2503 C 243.242 3.39568 -2.67053 0
M  V30 2504 C 242.377 4.67585 -2.52068 0
M  V30 2505 C 241.416 4.85639 -3.72587 0
M  V30 2506 N 240.553 6.04915 -3.56402 0
M  V30 2507 H 245.393 1.71293 -2.43849 0
M  V30 2508 H 242.93 0.835889 -1.21043 0
M  V30 2509 H 244.888 3.94496 -1.35753 0
M  V30 2510 H 243.518 3.18859 -0.50288 0
M  V30 2511 H 242.57 2.53783 -2.8337 0
M  V30 2512 H 243.882 3.48795 -3.56572 0
M  V30 2513 H 243.036 5.55586 -2.4374 0
M  V30 2514 H 241.775 4.60681 -1.60075 0
M  V30 2515 H 240.78 3.96073 -3.81321 0
M  V30 2516 H 242.005 4.94372 -4.65589 0
M  V30 2517 H 239.951 5.9914 -2.67146 0
M  V30 2518 H 239.868 6.15106 -4.39524 0
M  V30 2519 H 241.136 6.95533 -3.51929 0
M  V30 2520 N 245.365 1.30045 0.890287 0
M  V30 2521 C 246.642 1.09227 1.62262 0
M  V30 2522 C 247.022 -0.360305 2.08002 0
M  V30 2523 O 246.37 -1.35084 1.84295 0
M  V30 2524 C 246.58 2.08835 2.79623 0
M  V30 2525 C 247.928 2.40266 3.50082 0
M  V30 2526 O 248.952 2.07104 2.89804 0
M  V30 2527 O 247.811 2.96967 4.58773 0
M  V30 2528 H 244.905 0.419132 0.712922 0
M  V30 2529 H 247.451 1.41451 0.937529 0
M  V30 2530 H 246.223 3.06633 2.43089 0
M  V30 2531 H 245.846 1.77397 3.55832 0
M  V30 2532 N 246.843 -1.10192 1.12674 0
M  V30 2533 C 248.09 -1.82205 0.883606 0
M  V30 2534 C 248.418 -1.8532 -0.590492 0
M  V30 2535 O 247.673 -1.31137 -1.45264 0
M  V30 2536 C 247.972 -3.28552 1.4067 0
M  V30 2537 C 247.638 -3.45582 2.89627 0
M  V30 2538 C 246.3 -3.49937 3.30299 0
M  V30 2539 C 248.652 -3.50768 3.85501 0
M  V30 2540 C 245.98 -3.57049 4.65546 0
M  V30 2541 C 248.332 -3.59414 5.20581 0
M  V30 2542 C 246.996 -3.62034 5.60792 0
M  V30 2543 H 246.266 -0.666735 0.323334 0
M  V30 2544 H 248.913 -1.29868 1.40736 0
M  V30 2545 H 247.218 -3.83473 0.80347 0
M  V30 2546 H 248.915 -3.82788 1.19475 0
M  V30 2547 H 245.505 -3.42871 2.57172 0
M  V30 2548 H 249.689 -3.46651 3.55171 0
M  V30 2549 H 244.945 -3.57361 4.96088 0
M  V30 2550 H 249.119 -3.62371 5.94693 0
M  V30 2551 H 246.746 -3.67298 6.6558 0
M  V30 2552 N 248.321 -0.919034 -1.28029 0
M  V30 2553 C 249.598 -0.473668 -1.89778 0
M  V30 2554 C 249.978 1.04783 -1.83259 0
M  V30 2555 O 249.326 1.8982 -1.27202 0
M  V30 2556 C 249.536 -1.00998 -3.34066 0
M  V30 2557 C 250.884 -1.06525 -4.1102 0
M  V30 2558 O 251.908 -0.958996 -3.43048 0
M  V30 2559 O 250.767 -1.22776 -5.3253 0
M  V30 2560 H 247.861 -0.15098 -0.813101 0
M  V30 2561 H 250.407 -1.01016 -1.36359 0
M  V30 2562 H 249.179 -2.05392 -3.33061 0
M  V30 2563 H 248.802 -0.454626 -3.94992 0
M  V30 2564 N 249.799 1.42003 -0.683588 0
M  V30 2565 C 251.024 2.06265 -0.216647 0
M  V30 2566 C 251.449 1.51059 1.12083 0
M  V30 2567 O 250.807 0.632638 1.69904 0
M  V30 2568 C 250.855 3.60191 -0.171759 0
M  V30 2569 O 249.959 4.03396 0.857069 0
M  V30 2570 H 249.3 0.65502 -0.108834 0
M  V30 2571 H 251.83 1.81982 -0.935077 0
M  V30 2572 H 251.84 4.08 0.0014303 0
M  V30 2573 H 250.515 3.99743 -1.14796 0
M  V30 2574 H 249.092 3.67117 0.654208 0
M  V30 2575 N 251.277 0.427512 1.51691 0
M  V30 2576 C 252.224 -0.388867 2.275 0
M  V30 2577 C 253.194 -1.02532 1.30677 0
M  V30 2578 O 254.379 -1.0461 1.59566 0
M  V30 2579 C 251.519 -1.48954 3.11298 0
M  V30 2580 C 250.632 -0.872194 4.23104 0
M  V30 2581 C 249.767 -1.94709 4.94228 0
M  V30 2582 C 248.806 -1.30766 5.97969 0
M  V30 2583 N 247.943 -2.32349 6.62539 0
M  V30 2584 H 252.783 0.263997 2.96828 0
M  V30 2585 H 250.32 0.142033 1.46413 0
M  V30 2586 H 252.278 -2.13887 3.58201 0
M  V30 2587 H 250.908 -2.11217 2.44105 0
M  V30 2588 H 249.96 -0.111419 3.80237 0
M  V30 2589 H 251.272 -0.365264 4.97461 0
M  V30 2590 H 250.426 -2.67327 5.44629 0
M  V30 2591 H 249.165 -2.48773 4.1948 0
M  V30 2592 H 248.17 -0.566902 5.4687 0
M  V30 2593 H 249.395 -0.774483 6.74669 0
M  V30 2594 H 247.341 -2.85511 5.90609 0
M  V30 2595 H 247.258 -1.8652 7.3263 0
M  V30 2596 H 248.526 -3.04481 7.17574 0
M  V30 2597 N 252.755 -1.56801 0.158532 0
M  V30 2598 C 253.685 -2.20347 -0.772609 0
M  V30 2599 C 254.666 -1.15518 -1.24859 0
M  V30 2600 O 255.851 -1.43902 -1.30406 0
M  V30 2601 C 252.981 -2.83417 -2.00729 0
M  V30 2602 C 251.935 -3.94174 -1.66765 0
M  V30 2603 C 251.261 -4.44233 -2.97592 0
M  V30 2604 C 252.561 -5.14392 -0.905447 0
M  V30 2605 H 254.255 -2.98413 -0.242959 0
M  V30 2606 H 251.801 -1.43537 -0.115419 0
M  V30 2607 H 253.754 -3.26543 -2.6636 0
M  V30 2608 H 252.478 -2.02701 -2.56086 0
M  V30 2609 H 251.137 -3.51684 -1.03508 0
M  V30 2610 H 250.785 -3.60325 -3.50963 0
M  V30 2611 H 250.485 -5.18945 -2.75626 0
M  V30 2612 H 252.009 -4.90037 -3.64274 0
M  V30 2613 H 253.423 -5.5429 -1.46408 0
M  V30 2614 H 251.82 -5.9494 -0.7853 0
M  V30 2615 H 252.89 -4.84795 0.100668 0
M  V30 2616 N 254.233 0.115231 -1.57178 0
M  V30 2617 C 255.196 1.12526 -1.99676 0
M  V30 2618 C 256.196 1.34095 -0.88742 0
M  V30 2619 O 257.386 1.30548 -1.15337 0
M  V30 2620 C 254.518 2.4789 -2.34015 0
M  V30 2621 H 255.711 0.759912 -2.90113 0
M  V30 2622 H 253.264 0.359648 -1.52106 0
M  V30 2623 H 253.999 2.89339 -1.4647 0
M  V30 2624 H 253.784 2.33588 -3.14927 0
M  V30 2625 H 255.274 3.20575 -2.67622 0
M  V30 2626 N 255.711 1.52812 0.385517 0
M  V30 2627 C 256.621 1.80766 1.49535 0
M  V30 2628 C 257.637 0.694651 1.59532 0
M  V30 2629 O 258.813 0.982611 1.75803 0
M  V30 2630 C 255.878 1.97381 2.85029 0
M  V30 2631 C 254.939 3.21295 2.84724 0
M  V30 2632 C 254.172 3.37108 4.13756 0
M  V30 2633 O 254.395 2.5765 5.08893 0
M  V30 2634 O 253.329 4.30378 4.20783 0
M  V30 2635 H 257.155 2.75015 1.28842 0
M  V30 2636 H 254.74 1.37946 0.573697 0
M  V30 2637 H 256.622 2.09996 3.65349 0
M  V30 2638 H 255.297 1.06322 3.05741 0
M  V30 2639 H 254.204 3.1412 2.03174 0
M  V30 2640 H 255.537 4.12212 2.68965 0
M  V30 2641 N 257.189 -0.644168 1.43834 0
M  V30 2642 C 258.119 -1.76814 1.52509 0
M  V30 2643 C 259.1 -1.65823 0.379052 0
M  V30 2644 O 260.285 -1.84781 0.597466 0
M  V30 2645 C 257.415 -3.15288 1.4564 0
M  V30 2646 C 256.369 -3.41053 2.58586 0
M  V30 2647 C 255.695 -4.79421 2.36769 0
M  V30 2648 C 256.995 -3.34902 4.00797 0
M  V30 2649 H 258.689 -1.69812 2.46586 0
M  V30 2650 H 256.235 -0.815542 1.1868 0
M  V30 2651 H 258.188 -3.93681 1.50311 0
M  V30 2652 H 256.912 -3.23043 0.480725 0
M  V30 2653 H 255.571 -2.65035 2.53282 0
M  V30 2654 H 255.219 -4.83863 1.37424 0
M  V30 2655 H 254.919 -4.9762 3.12487 0
M  V30 2656 H 256.443 -5.6006 2.43238 0
M  V30 2657 H 257.857 -4.03218 4.07539 0
M  V30 2658 H 256.254 -3.64637 4.76613 0
M  V30 2659 H 257.324 -2.32928 4.25291 0
M  V30 2660 N 258.668 -1.30515 -0.883378 0
M  V30 2661 C 259.916 -1.19194 -1.63209 0
M  V30 2662 C 260.237 0.253205 -1.93349 0
M  V30 2663 O 259.507 1.17025 -1.57105 0
M  V30 2664 H 258.087 -0.438148 -0.605009 0
M  V30 2665 H 260.749 -1.63663 -1.05832 0
M  V30 2666 H 259.845 -1.75396 -2.58153 0
M  V30 2667 N 260.146 1.09593 -1.13257 0
M  V30 2668 C 261.394 1.81375 -0.891492 0
M  V30 2669 C 261.715 1.86049 0.584009 0
M  V30 2670 O 260.985 1.34481 1.42449 0
M  V30 2671 H 259.565 0.671708 -0.326828 0
M  V30 2672 H 262.227 1.3256 -1.42877 0
M  V30 2673 H 261.323 2.84612 -1.28071 0
M  V30 2674 N 261.624 0.925811 1.2754 0
M  V30 2675 C 262.534 0.428993 2.30644 0
M  V30 2676 C 263.55 -0.489387 1.66976 0
M  V30 2677 O 264.726 -0.372653 1.97922 0
M  V30 2678 C 261.791 -0.311967 3.45294 0
M  V30 2679 C 260.852 0.641098 4.24486 0
M  V30 2680 C 260.085 -0.0645955 5.33661 0
M  V30 2681 O 260.308 -1.28429 5.55754 0
M  V30 2682 O 259.242 0.606265 5.98839 0
M  V30 2683 H 263.068 1.28504 2.75173 0
M  V30 2684 H 260.653 0.691086 1.32455 0
M  V30 2685 H 262.535 -0.729972 4.15029 0
M  V30 2686 H 261.21 -1.14365 3.02824 0
M  V30 2687 H 260.117 1.10874 3.57292 0
M  V30 2688 H 261.45 1.43995 4.70666 0
M  V30 2689 N 263.102 -1.41638 0.69111 0
M  V30 2690 C 264.518 -1.55435 0.362224 0
M  V30 2691 C 264.718 -1.66754 -1.13117 0
M  V30 2692 O 263.774 -1.64348 -1.91692 0
M  V30 2693 C 265.087 -2.79588 1.10684 0
M  V30 2694 C 266.635 -2.9338 1.09075 0
M  V30 2695 C 267.11 -4.20414 1.81703 0
M  V30 2696 N 268.601 -4.27362 1.7865 0
M  V30 2697 C 269.336 -5.24507 2.31689 0
M  V30 2698 N 268.832 -6.27708 2.93179 0
M  V30 2699 N 270.625 -5.16416 2.2197 0
M  V30 2700 H 262.776 -1.32536 1.65976 0
M  V30 2701 H 265.039 -0.639115 0.700168 0
M  V30 2702 H 264.745 -2.77419 2.16175 0
M  V30 2703 H 264.619 -3.70973 0.682545 0
M  V30 2704 H 267.006 -2.95067 0.0441238 0
M  V30 2705 H 267.087 -2.0318 1.55407 0
M  V30 2706 H 266.731 -4.19488 2.86343 0
M  V30 2707 H 266.661 -5.09578 1.32808 0
M  V30 2708 H 269.152 -3.53415 1.33815 0
M  V30 2709 H 269.465 -6.98217 3.31229 0
M  V30 2710 H 267.81 -6.28223 2.97255 0
M  V30 2711 H 271.001 -4.34716 1.73607 0
M  V30 2712 H 271.174 -5.91958 2.63609 0
M  V30 2713 N 264.58 -0.43555 -1.51462 0
M  V30 2714 C 265.51 0.367376 -2.30592 0
M  V30 2715 C 266.491 1.02263 -1.35928 0
M  V30 2716 O 267.676 1.02661 -1.64847 0
M  V30 2717 C 264.806 1.46983 -3.14664 0
M  V30 2718 C 263.76 0.938161 -4.17591 0
M  V30 2719 C 263.086 2.13622 -4.90173 0
M  V30 2720 C 264.386 -0.0261621 -5.22293 0
M  V30 2721 H 266.08 -0.292969 -2.97963 0
M  V30 2722 H 263.626 -0.14234 -1.43295 0
M  V30 2723 H 265.579 2.03873 -3.688 0
M  V30 2724 H 264.303 2.15843 -2.4511 0
M  V30 2725 H 262.962 0.391481 -3.64504 0
M  V30 2726 H 262.61 2.81098 -4.17124 0
M  V30 2727 H 262.31 1.78688 -5.59772 0
M  V30 2728 H 263.834 2.7107 -5.47132 0
M  V30 2729 H 265.248 0.452384 -5.71512 0
M  V30 2730 H 263.645 -0.287992 -5.99409 0
M  V30 2731 H 264.715 -0.963391 -4.75233 0
M  V30 2732 N 266.058 1.56714 -0.166846 0
M  V30 2733 C 266.988 2.20754 0.760913 0
M  V30 2734 C 267.969 1.16178 1.24244 0
M  V30 2735 O 269.154 1.44592 1.29641 0
M  V30 2736 C 266.284 2.84478 1.99223 0
M  V30 2737 C 265.238 3.95053 1.64672 0
M  V30 2738 C 264.564 4.45805 2.95232 0
M  V30 2739 C 265.864 5.14865 0.878155 0
M  V30 2740 H 267.558 2.98537 0.22713 0
M  V30 2741 H 265.104 1.43596 0.107805 0
M  V30 2742 H 267.057 3.27951 2.64624 0
M  V30 2743 H 265.781 2.04056 2.55007 0
M  V30 2744 H 264.44 3.52228 1.01641 0
M  V30 2745 H 264.088 3.62181 3.49047 0
M  V30 2746 H 263.788 5.204 2.7287 0
M  V30 2747 H 265.312 4.91962 3.6167 0
M  V30 2748 H 266.726 5.55059 1.43466 0
M  V30 2749 H 265.123 5.95348 0.753738 0
M  V30 2750 H 266.193 4.84735 -0.126377 0
M  V30 2751 N 267.536 -0.106894 1.57237 0
M  V30 2752 C 268.813 -0.843526 1.76477 0
M  V30 2753 C 269.193 -1.97499 0.745464 0
M  V30 2754 O 268.541 -2.27357 -0.228306 0
M  V30 2755 C 268.751 -1.34903 3.21873 0
M  V30 2756 C 270.099 -1.79654 3.8472 0
M  V30 2757 O 271.123 -1.44554 3.2555 0
M  V30 2758 O 269.982 -2.44515 4.88748 0
M  V30 2759 H 267.076 -0.401468 0.723016 0
M  V30 2760 H 269.622 -0.0896927 1.69463 0
M  V30 2761 H 268.394 -0.53781 3.87586 0
M  V30 2762 H 268.017 -2.16522 3.33473 0
M  V30 2763 N 269.014 -1.53014 -0.377408 0
M  V30 2764 C 270.43 -1.42523 -0.718281 0
M  V30 2765 C 270.63 -0.55487 -1.9371 0
M  V30 2766 O 269.686 -0.0327593 -2.52479 0
M  V30 2767 C 270.999 -2.85546 -0.942539 0
M  V30 2768 C 272.547 -2.95101 -1.04329 0
M  V30 2769 C 273.022 -4.3916 -1.3001 0
M  V30 2770 N 274.513 -4.42536 -1.36806 0
M  V30 2771 C 275.248 -5.51097 -1.58364 0
M  V30 2772 N 274.744 -6.69724 -1.77317 0
M  V30 2773 N 276.537 -5.38657 -1.60638 0
M  V30 2774 H 268.688 -2.08116 0.424426 0
M  V30 2775 H 270.951 -0.939352 0.127759 0
M  V30 2776 H 270.657 -3.51499 -0.118929 0
M  V30 2777 H 270.531 -3.28493 -1.85397 0
M  V30 2778 H 272.918 -2.29309 -1.85745 0
M  V30 2779 H 272.999 -2.55566 -0.109505 0
M  V30 2780 H 272.643 -5.05521 -0.490991 0
M  V30 2781 H 272.573 -4.76258 -2.24691 0
M  V30 2782 H 275.064 -3.57039 -1.23821 0
M  V30 2783 H 275.377 -7.48233 -1.93306 0
M  V30 2784 H 273.722 -6.72732 -1.74518 0
M  V30 2785 H 276.913 -4.44948 -1.45391 0
M  V30 2786 H 277.086 -6.2333 -1.77098 0
M  V30 2787 N 270.492 0.636531 -1.44174 0
M  V30 2788 C 271.738 1.39826 -1.4689 0
M  V30 2789 C 272.071 1.93947 -0.0990585 0
M  V30 2790 O 271.346 1.73325 0.882544 0
M  V30 2791 C 271.629 2.56751 -2.5249 0
M  V30 2792 C 271.482 2.08014 -3.98811 0
M  V30 2793 C 272.801 3.58946 -2.54649 0
M  V30 2794 H 269.92 0.507075 -0.53483 0
M  V30 2795 H 272.562 0.720188 -1.75822 0
M  V30 2796 H 270.712 3.14597 -2.2795 0
M  V30 2797 H 272.384 1.5504 -4.34466 0
M  V30 2798 H 270.627 1.39242 -4.10846 0
M  V30 2799 H 271.298 2.92169 -4.68339 0
M  V30 2800 H 273.774 3.1089 -2.76563 0
M  V30 2801 H 272.65 4.38286 -3.3045 0
M  V30 2802 H 272.911 4.12655 -1.58646 0
M  V30 2803 N 271.97 1.30982 0.876444 0
M  V30 2804 C 273.247 1.10942 1.61094 0
M  V30 2805 C 273.627 -0.338223 2.08373 0
M  V30 2806 O 272.975 -1.33122 1.85717 0
M  V30 2807 C 273.185 2.11789 2.77392 0
M  V30 2808 C 274.533 2.43965 3.47514 0
M  V30 2809 O 275.557 2.10166 2.87591 0
M  V30 2810 O 274.416 3.01817 4.55597 0
M  V30 2811 H 271.51 0.42667 0.708436 0
M  V30 2812 H 274.056 1.42438 0.922474 0
M  V30 2813 H 272.828 3.09194 2.39823 0
M  V30 2814 H 272.451 1.81161 3.5393 0
M  V30 2815 N 273.449 -1.08991 1.13837 0
M  V30 2816 C 274.412 -2.13925 0.822715 0
M  V30 2817 C 275.412 -1.599 -0.1699 0
M  V30 2818 O 276.602 -1.74104 0.0577251 0
M  V30 2819 C 273.734 -3.40155 0.225318 0
M  V30 2820 H 274.927 -2.43358 1.75262 0
M  V30 2821 H 272.48 -1.24603 0.943594 0
M  V30 2822 H 273.215 -3.16352 -0.713594 0
M  V30 2823 H 273 -3.80661 0.940193 0
M  V30 2824 H 274.49 -4.17594 0.0214784 0
M  V30 2825 N 274.927 -0.932562 -1.27047 0
M  V30 2826 C 276.204 -0.49377 -1.89265 0
M  V30 2827 C 276.584 1.02833 -1.8436 0
M  V30 2828 O 275.932 1.88461 -1.29209 0
M  V30 2829 C 276.142 -1.04536 -3.32976 0
M  V30 2830 C 277.49 -1.10879 -4.09867 0
M  V30 2831 O 278.514 -0.995327 -3.42011 0
M  V30 2832 O 277.373 -1.28417 -5.31198 0
M  V30 2833 H 274.467 -0.159596 -0.811454 0
M  V30 2834 H 277.013 -1.02457 -1.3528 0
M  V30 2835 H 275.785 -2.08913 -3.30864 0
M  V30 2836 H 275.408 -0.496494 -3.94488 0
M  V30 2837 N 276.405 1.4127 -0.698611 0
M  V30 2838 C 277.651 2.01478 -0.231207 0
M  V30 2839 C 277.984 1.55215 1.16713 0
M  V30 2840 O 277.259 0.764672 1.78838 0
M  V30 2841 C 277.542 3.58912 -0.292281 0
M  V30 2842 C 277.395 4.15293 -1.72778 0
M  V30 2843 C 278.714 4.38736 0.346194 0
M  V30 2844 H 275.833 0.732025 -0.0854878 0
M  V30 2845 H 278.475 1.67977 -0.887906 0
M  V30 2846 H 276.625 3.87582 0.26686 0
M  V30 2847 H 278.297 3.97486 -2.341 0
M  V30 2848 H 276.54 3.7022 -2.26096 0
M  V30 2849 H 277.211 5.24452 -1.72202 0
M  V30 2850 H 279.687 4.15897 -0.130035 0
M  V30 2851 H 278.563 5.48221 0.272932 0
M  V30 2852 H 278.824 4.18425 1.42734 0
M  V30 2853 N 277.883 0.443576 1.51229 0
M  V30 2854 C 278.793 -0.370721 2.31652 0
M  V30 2855 C 279.809 -1.02186 1.40833 0
M  V30 2856 O 280.985 -1.01586 1.73903 0
M  V30 2857 C 278.05 -1.45376 3.14749 0
M  V30 2858 C 277.111 -0.822099 4.21355 0
M  V30 2859 C 276.344 -1.85353 5.0048 0
M  V30 2860 O 276.567 -3.07656 4.80316 0
M  V30 2861 O 275.501 -1.4406 5.84406 0
M  V30 2862 H 279.327 0.286002 3.0235 0
M  V30 2863 H 276.912 0.20598 1.47973 0
M  V30 2864 H 278.794 -2.08173 3.66391 0
M  V30 2865 H 277.469 -2.09445 2.46809 0
M  V30 2866 H 276.376 -0.155909 3.73775 0
M  V30 2867 H 277.709 -0.224797 4.91686 0
M  V30 2868 N 279.361 -1.56624 0.175154 0
M  V30 2869 C 280.591 -2.01082 -0.474283 0
M  V30 2870 C 280.999 -1.05447 -1.57091 0
M  V30 2871 O 280.342 -0.0480595 -1.83637 0
M  V30 2872 C 280.404 -3.41963 -1.10911 0
M  V30 2873 C 280.068 -4.56742 -0.153666 0
M  V30 2874 C 281.065 -5.16076 0.629448 0
M  V30 2875 C 278.75 -5.02277 -0.0483776 0
M  V30 2876 C 280.744 -6.19377 1.50501 0
M  V30 2877 C 278.431 -6.05427 0.830768 0
M  V30 2878 C 279.429 -6.63849 1.60605 0
M  V30 2879 O 279.117 -7.64998 2.47049 0
M  V30 2880 H 278.849 -0.664261 -0.125432 0
M  V30 2881 H 281.403 -2.03549 0.275163 0
M  V30 2882 H 279.633 -3.36422 -1.90676 0
M  V30 2883 H 281.322 -3.70352 -1.66114 0
M  V30 2884 H 282.088 -4.81776 0.558297 0
M  V30 2885 H 277.967 -4.56513 -0.641611 0
M  V30 2886 H 281.511 -6.64906 2.1106 0
M  V30 2887 H 277.408 -6.39151 0.903107 0
M  V30 2888 H 278.176 -7.82336 2.40607 0
M  V30 2889 N 280.839 0.0985539 -1.57292 0
M  V30 2890 C 281.771 1.14595 -1.98496 0
M  V30 2891 C 282.784 1.36512 -0.887031 0
M  V30 2892 O 283.973 1.35225 -1.16518 0
M  V30 2893 C 281.073 2.50216 -2.28572 0
M  V30 2894 C 280.246 2.48624 -3.59868 0
M  V30 2895 C 279.305 3.66146 -3.7792 0
M  V30 2896 O 278.331 3.48795 -4.49812 0
M  V30 2897 N 279.533 4.85496 -3.18235 0
M  V30 2898 H 282.298 0.795277 -2.88956 0
M  V30 2899 H 279.859 0.287579 -1.59325 0
M  V30 2900 H 281.851 3.27432 -2.37845 0
M  V30 2901 H 280.421 2.77387 -1.44136 0
M  V30 2902 H 279.641 1.56978 -3.61596 0
M  V30 2903 H 280.929 2.44635 -4.46129 0
M  V30 2904 H 280.327 5.02497 -2.59833 0
M  V30 2905 H 278.884 5.60317 -3.32999 0
M  V30 2906 N 282.317 1.53212 0.369288 0
M  V30 2907 C 283.28 1.7872 1.43498 0
M  V30 2908 C 284.28 0.657554 1.46741 0
M  V30 2909 O 285.47 0.925736 1.47566 0
M  V30 2910 C 282.602 1.90591 2.82645 0
M  V30 2911 H 283.795 2.73894 1.22156 0
M  V30 2912 H 281.348 1.44233 0.602203 0
M  V30 2913 H 282.083 0.974709 3.09306 0
M  V30 2914 H 281.868 2.72751 2.8169 0
M  V30 2915 H 283.358 2.11931 3.59826 0
M  V30 2916 N 283.795 -0.628877 1.44509 0
M  V30 2917 C 284.758 -1.72263 1.51188 0
M  V30 2918 C 285.758 -1.55907 0.39367 0
M  V30 2919 O 286.948 -1.61361 0.656377 0
M  V30 2920 C 284.08 -3.11365 1.38798 0
M  V30 2921 H 285.273 -1.67714 2.4862 0
M  V30 2922 H 282.826 -0.842737 1.31634 0
M  V30 2923 H 283.561 -3.21507 0.424693 0
M  V30 2924 H 283.346 -3.24644 2.19884 0
M  V30 2925 H 284.836 -3.91075 1.46458 0
M  V30 2926 N 285.273 -1.31445 -0.869486 0
M  V30 2927 C 286.236 -1.19094 -1.9583 0
M  V30 2928 C 287.236 -0.117906 -1.60367 0
M  V30 2929 O 288.426 -0.367208 -1.70286 0
M  V30 2930 C 285.558 -0.828165 -3.30688 0
M  V30 2931 H 286.751 -2.15842 -2.08212 0
M  V30 2932 H 284.304 -1.15063 -1.05784 0
M  V30 2933 H 285.039 0.138142 -3.24006 0
M  V30 2934 H 284.824 -1.6038 -3.578 0
M  V30 2935 H 286.314 -0.765658 -4.10521 0
M  V30 2936 N 286.751 1.08385 -1.14413 0
M  V30 2937 C 287.976 1.85057 -0.936413 0
M  V30 2938 C 288.401 1.81055 0.509971 0
M  V30 2939 O 287.759 1.1958 1.36273 0
M  V30 2940 C 287.807 3.30505 -1.44217 0
M  V30 2941 O 286.911 4.07491 -0.634409 0
M  V30 2942 H 286.252 0.573425 -0.334784 0
M  V30 2943 H 288.782 1.36799 -1.52142 0
M  V30 2944 H 288.792 3.81348 -1.45043 0
M  V30 2945 H 287.467 3.32734 -2.49522 0
M  V30 2946 H 286.044 3.66368 -0.694902 0
M  V30 2947 N 288.23 0.939286 1.26551 0
M  V30 2948 C 289.14 0.453432 2.30176 0
M  V30 2949 C 290.156 -0.471649 1.67486 0
M  V30 2950 O 291.332 -0.35164 1.98306 0
M  V30 2951 C 288.397 -0.275326 3.45605 0
M  V30 2952 C 287.458 0.686084 4.23782 0
M  V30 2953 C 286.691 -0.00798994 5.33699 0
M  V30 2954 O 286.914 -1.22528 5.57085 0
M  V30 2955 O 285.848 0.669746 5.98162 0
M  V30 2956 H 289.674 1.31416 2.73795 0
M  V30 2957 H 287.259 0.705095 1.31715 0
M  V30 2958 H 289.141 -0.685911 4.1578 0
M  V30 2959 H 287.816 -1.11147 3.0402 0
M  V30 2960 H 286.723 1.14658 3.56096 0
M  V30 2961 H 288.056 1.48979 4.69112 0
M  V30 2962 N 289.708 -1.40897 0.706093 0
M  V30 2963 C 290.954 -2.01849 0.250681 0
M  V30 2964 C 291.309 -1.5496 -1.14041 0
M  V30 2965 O 290.602 -0.755566 -1.76073 0
M  V30 2966 C 290.796 -3.5646 0.259099 0
M  V30 2967 C 290.625 -4.18357 1.64947 0
M  V30 2968 C 289.395 -4.522 2.25485 0
M  V30 2969 C 291.593 -4.43856 2.598 0
M  V30 2970 N 289.575 -4.9944 3.56977 0
M  V30 2971 C 290.946 -4.92986 3.75985 0
M  V30 2972 C 293.001 -4.25882 2.57933 0
M  V30 2973 C 291.704 -5.2603 4.90597 0
M  V30 2974 C 293.73 -4.6002 3.71665 0
M  V30 2975 C 293.092 -5.09331 4.86581 0
M  V30 2976 H 289.191 -0.769843 0.137353 0
M  V30 2977 H 291.775 -1.71278 0.925845 0
M  V30 2978 H 289.946 -3.86481 -0.385592 0
M  V30 2979 H 291.678 -4.04144 -0.21213 0
M  V30 2980 H 288.433 -4.3901 1.77671 0
M  V30 2981 H 288.857 -5.27454 4.24407 0
M  V30 2982 H 293.499 -3.86986 1.70298 0
M  V30 2983 H 291.217 -5.63843 5.78884 0
M  V30 2984 H 294.803 -4.47762 3.71484 0
M  V30 2985 H 293.683 -5.35251 5.73129 0
M  V30 2986 N 291.186 -0.45159 -1.50991 0
M  V30 2987 C 292.602 -0.104647 -1.59257 0
M  V30 2988 C 292.802 1.38728 -1.4614 0
M  V30 2989 O 291.858 2.15866 -1.30989 0
M  V30 2990 C 293.171 -0.637468 -2.93865 0
M  V30 2991 C 294.719 -0.599166 -3.07212 0
M  V30 2992 C 295.194 -1.1092 -4.44366 0
M  V30 2993 N 296.685 -1.06778 -4.50725 0
M  V30 2994 C 297.42 -1.43314 -5.55201 0
M  V30 2995 N 296.916 -1.87204 -6.67028 0
M  V30 2996 N 298.709 -1.3504 -5.45638 0
M  V30 2997 H 290.86 -1.42214 -1.57762 0
M  V30 2998 H 293.123 -0.586921 -0.744465 0
M  V30 2999 H 292.829 -1.68187 -3.08879 0
M  V30 3000 H 292.703 -0.0702139 -3.77135 0
M  V30 3001 H 295.09 0.436277 -2.91857 0
M  V30 3002 H 295.171 -1.20299 -2.25747 0
M  V30 3003 H 294.815 -2.14318 -4.60467 0
M  V30 3004 H 294.745 -0.481773 -5.24392 0
M  V30 3005 H 297.236 -0.745643 -3.70471 0
M  V30 3006 H 297.549 -2.13282 -7.42786 0
M  V30 3007 H 295.894 -1.91142 -6.68199 0
M  V30 3008 H 299.085 -1.00607 -4.57161 0
M  V30 3009 H 299.258 -1.63841 -6.26945 0
M  V30 3010 N 292.664 1.56529 -0.183458 0
M  V30 3011 C 293.627 2.17324 0.728223 0
M  V30 3012 C 294.627 1.12453 1.14939 0
M  V30 3013 O 295.817 1.37902 1.06437 0
M  V30 3014 C 292.949 2.76591 1.99274 0
M  V30 3015 H 294.142 2.99241 0.198772 0
M  V30 3016 H 291.695 1.5616 0.0661391 0
M  V30 3017 H 292.43 1.98441 2.56499 0
M  V30 3018 H 292.215 3.5335 1.69959 0
M  V30 3019 H 293.705 3.23311 2.6431 0
M  V30 3020 N 294.142 -0.090211 1.57342 0
M  V30 3021 C 295.558 -0.444547 1.53284 0
M  V30 3022 C 295.758 -1.80238 0.900914 0
M  V30 3023 O 294.814 -2.4759 0.495513 0
M  V30 3024 C 296.127 -0.402543 2.97993 0
M  V30 3025 C 297.675 -0.48405 3.09234 0
M  V30 3026 C 298.15 -0.472144 4.5556 0
M  V30 3027 N 299.641 -0.532757 4.60126 0
M  V30 3028 C 300.376 -0.545462 5.708 0
M  V30 3029 N 299.872 -0.514082 6.9089 0
M  V30 3030 N 301.665 -0.59064 5.58988 0
M  V30 3031 H 293.816 0.799121 1.96794 0
M  V30 3032 H 296.079 0.297965 0.899956 0
M  V30 3033 H 295.785 0.528106 3.47712 0
M  V30 3034 H 295.659 -1.21969 3.56936 0
M  V30 3035 H 298.046 -1.40512 2.595 0
M  V30 3036 H 298.127 0.361328 2.53235 0
M  V30 3037 H 297.771 0.445 5.05947 0
M  V30 3038 H 297.701 -1.3348 5.09402 0
M  V30 3039 H 300.192 -0.562006 3.73698 0
M  V30 3040 H 300.505 -0.527195 7.71 0
M  V30 3041 H 298.85 -0.481054 6.93333 0
M  V30 3042 H 302.041 -0.61272 4.64073 0
M  V30 3043 H 302.214 -0.597073 6.45243 0
M  V30 3044 N 295.62 -1.53406 -0.361157 0
M  V30 3045 C 296.866 -1.70054 -1.10496 0
M  V30 3046 C 297.199 -0.453278 -1.88836 0
M  V30 3047 O 296.474 0.5495 -1.86576 0
M  V30 3048 C 296.757 -2.95317 -2.06058 0
M  V30 3049 C 296.61 -4.3021 -1.31298 0
M  V30 3050 C 297.929 -3.16193 -3.06121 0
M  V30 3051 H 295.048 -0.618799 -0.400321 0
M  V30 3052 H 297.69 -1.86052 -0.385318 0
M  V30 3053 H 295.84 -2.81809 -2.67425 0
M  V30 3054 H 297.512 -4.55538 -0.726807 0
M  V30 3055 H 295.755 -4.29421 -0.614853 0
M  V30 3056 H 296.426 -5.14 -2.01265 0
M  V30 3057 H 298.902 -3.28916 -2.5486 0
M  V30 3058 H 297.778 -4.05266 -3.70204 0
M  V30 3059 H 298.039 -2.31676 -3.76535 0
M  V30 3060 N 297.098 0.621204 -1.44841 0
M  V30 3061 C 298.344 1.3826 -1.48365 0
M  V30 3062 C 298.677 1.93831 -0.119624 0
M  V30 3063 O 297.952 1.74251 0.864111 0
M  V30 3064 C 298.235 2.54058 -2.55199 0
M  V30 3065 C 298.088 2.03772 -4.00995 0
M  V30 3066 C 299.407 3.56225 -2.58442 0
M  V30 3067 H 296.526 0.501374 -0.540179 0
M  V30 3068 H 299.168 0.7015 -1.76576 0
M  V30 3069 H 297.318 3.12162 -2.31274 0
M  V30 3070 H 298.99 1.50423 -4.36086 0
M  V30 3071 H 297.233 1.34876 -4.12299 0
M  V30 3072 H 297.904 2.87185 -4.71411 0
M  V30 3073 H 300.38 3.07939 -2.79844 0
M  V30 3074 H 299.256 4.34756 -3.3508 0
M  V30 3075 H 299.517 4.10949 -1.63013 0
M  V30 3076 N 298.576 1.31904 0.862503 0
M  V30 3077 C 299.853 1.12644 1.59908 0
M  V30 3078 C 300.233 -0.316104 2.0872 0
M  V30 3079 O 299.581 -1.31145 1.87118 0
M  V30 3080 C 299.791 2.1472 2.7513 0
M  V30 3081 C 301.139 2.47637 3.44907 0
M  V30 3082 O 302.163 2.13205 2.85346 0
M  V30 3083 O 301.022 3.06632 4.52371 0
M  V30 3084 H 298.116 0.43416 0.703871 0
M  V30 3085 H 300.662 1.43408 0.907314 0
M  V30 3086 H 299.434 3.1172 2.3653 0
M  V30 3087 H 299.057 1.84905 3.51989 0
M  V30 3088 N 300.054 -1.07777 1.14986 0
M  V30 3089 C 301.017 -2.13041 0.845358 0
M  V30 3090 C 302.017 -1.60071 -0.152931 0
M  V30 3091 O 303.207 -1.74033 0.0761879 0
M  V30 3092 C 300.339 -3.39896 0.261383 0
M  V30 3093 H 301.532 -2.41485 1.77834 0
M  V30 3094 H 299.085 -1.23595 0.956757 0
M  V30 3095 H 299.82 -3.17091 -0.68 0
M  V30 3096 H 299.605 -3.79642 0.980514 0
M  V30 3097 H 301.095 -4.17548 0.0657687 0
M  V30 3098 N 301.532 -0.945985 -1.26051 0
M  V30 3099 C 302.462 -0.477172 -2.28572 0
M  V30 3100 C 303.443 0.472032 -1.63419 0
M  V30 3101 O 304.628 0.372853 -1.90587 0
M  V30 3102 C 301.758 0.253975 -3.4637 0
M  V30 3103 C 300.712 -0.609135 -4.23643 0
M  V30 3104 C 300.038 0.252252 -5.34105 0
M  V30 3105 C 301.338 -1.8829 -4.8718 0
M  V30 3106 H 303.032 -1.33402 -2.68038 0
M  V30 3107 H 300.578 -0.642904 -1.28852 0
M  V30 3108 H 302.531 0.593016 -4.17207 0
M  V30 3109 H 301.255 1.145 -3.05871 0
M  V30 3110 H 299.914 -0.931138 -3.54578 0
M  V30 3111 H 299.562 1.14278 -4.89846 0
M  V30 3112 H 299.262 -0.32188 -5.86718 0
M  V30 3113 H 300.786 0.586454 -6.07777 0
M  V30 3114 H 302.2 -1.61081 -5.50205 0
M  V30 3115 H 300.597 -2.40199 -5.49931 0
M  V30 3116 H 301.667 -2.59134 -4.09851 0
M  V30 3117 N 303.011 1.40521 -0.713556 0
M  V30 3118 C 303.958 2.30723 -0.059684 0
M  V30 3119 C 304.928 1.48079 0.752448 0
M  V30 3120 O 306.113 1.76823 0.71681 0
M  V30 3121 C 303.253 3.34274 0.857594 0
M  V30 3122 C 302.366 4.31986 0.0351536 0
M  V30 3123 C 301.501 5.22605 0.951724 0
M  V30 3124 C 300.54 6.11976 0.123253 0
M  V30 3125 N 299.677 6.9502 0.99459 0
M  V30 3126 H 304.517 2.86074 -0.834596 0
M  V30 3127 H 302.054 1.40879 -0.42326 0
M  V30 3128 H 304.012 3.92879 1.40364 0
M  V30 3129 H 302.642 2.8043 1.59871 0
M  V30 3130 H 301.694 3.7518 -0.628052 0
M  V30 3131 H 303.006 4.95101 -0.606347 0
M  V30 3132 H 302.16 5.86131 1.56638 0
M  V30 3133 H 300.899 4.59759 1.62705 0
M  V30 3134 H 299.904 5.47482 -0.50435 0
M  V30 3135 H 301.129 6.76881 -0.548539 0
M  V30 3136 H 299.075 6.34764 1.6556 0
M  V30 3137 H 298.992 7.54892 0.40908 0
M  V30 3138 H 300.26 7.62997 1.59549 0
M  V30 3139 N 304.489 0.459591 1.5075 0
M  V30 3140 C 305.714 -0.0996819 2.0716 0
M  V30 3141 C 306.139 -1.33761 1.32249 0
M  V30 3142 O 305.497 -1.77551 0.366786 0
M  V30 3143 C 305.545 -0.378226 3.58611 0
M  V30 3144 O 304.649 -1.46081 3.85661 0
M  V30 3145 H 303.99 0.00791392 0.663953 0
M  V30 3146 H 306.52 0.647329 1.9409 0
M  V30 3147 H 306.53 -0.622135 4.03229 0
M  V30 3148 H 305.205 0.526439 4.12555 0
M  V30 3149 H 303.782 -1.20511 3.5289 0
M  V30 3150 N 305.967 -1.56429 0.191757 0
M  V30 3151 C 307.383 -1.58754 -0.164137 0
M  V30 3152 C 307.583 -1.20782 -1.61288 0
M  V30 3153 O 306.639 -0.928999 -2.34789 0
M  V30 3154 C 307.952 -3.00396 0.135195 0
M  V30 3155 C 309.5 -3.1291 0.0750351 0
M  V30 3156 C 309.975 -4.56679 0.347632 0
M  V30 3157 N 311.466 -4.62252 0.296131 0
M  V30 3158 C 312.201 -5.71379 0.480948 0
M  V30 3159 N 311.697 -6.88986 0.725933 0
M  V30 3160 N 313.49 -5.60563 0.415435 0
M  V30 3161 H 305.641 -1.79393 1.13718 0
M  V30 3162 H 307.904 -0.832414 0.453643 0
M  V30 3163 H 307.61 -3.32726 1.13958 0
M  V30 3164 H 307.484 -3.72963 -0.563773 0
M  V30 3165 H 309.871 -2.80394 -0.919948 0
M  V30 3166 H 309.952 -2.42736 0.807029 0
M  V30 3167 H 309.596 -4.89907 1.33992 0
M  V30 3168 H 309.526 -5.25039 -0.405212 0
M  V30 3169 H 312.017 -3.7773 0.113259 0
M  V30 3170 H 312.33 -7.68046 0.855857 0
M  V30 3171 H 310.675 -6.90801 0.762788 0
M  V30 3172 H 313.866 -4.67561 0.224486 0
M  V30 3173 H 314.039 -6.45551 0.562889 0
M  V30 3174 N 307.445 0.0818655 -1.57387 0
M  V30 3175 C 308.408 1.08265 -2.02018 0
M  V30 3176 C 309.408 1.32183 -0.915664 0
M  V30 3177 O 310.598 1.28073 -1.18081 0
M  V30 3178 C 307.73 2.42871 -2.39221 0
M  V30 3179 H 308.923 0.698204 -2.91659 0
M  V30 3180 H 306.476 0.327303 -1.52835 0
M  V30 3181 H 307.211 2.86167 -1.52575 0
M  V30 3182 H 306.996 2.26855 -3.19811 0
M  V30 3183 H 308.486 3.14826 -2.74362 0
M  V30 3184 N 308.923 1.53595 0.353017 0
M  V30 3185 C 310.334 1.61937 0.929153 0
M  V30 3186 C 310.685 0.494686 1.89861 0
M  V30 3187 O 309.81 -0.377017 2.1309 0
M  V30 3188 C 310.405 2.93526 1.69199 0
M  V30 3189 C 308.964 3.04161 2.21727 0
M  V30 3190 C 308.111 2.57322 1.03348 0
M  V30 3191 H 311.062 1.58155 0.131431 0
M  V30 3192 H 311.083 2.82034 2.55416 0
M  V30 3193 H 310.595 3.75362 0.986144 0
M  V30 3194 H 308.696 2.26938 2.95516 0
M  V30 3195 H 308.809 4.09465 2.48748 0
M  V30 3196 H 307.173 2.12499 1.40414 0
M  V30 3197 H 307.956 3.41588 0.342428 0
M  V30 3198 N 310.401 -0.613514 1.45168 0
M  V30 3199 C 311.647 -1.37471 1.49096 0
M  V30 3200 C 311.98 -1.93765 0.129901 0
M  V30 3201 O 311.255 -1.74707 -0.854858 0
M  V30 3202 C 311.538 -2.52701 2.56542 0
M  V30 3203 C 311.391 -2.01643 4.0207 0
M  V30 3204 C 312.71 -3.54849 2.60327 0
M  V30 3205 H 309.829 -0.498502 0.54283 0
M  V30 3206 H 312.471 -0.692125 1.76945 0
M  V30 3207 H 310.621 -3.10931 2.32926 0
M  V30 3208 H 312.293 -1.48108 4.36877 0
M  V30 3209 H 310.536 -1.32688 4.13009 0
M  V30 3210 H 311.207 -2.84681 4.72928 0
M  V30 3211 H 313.683 -3.0645 2.81474 0
M  V30 3212 H 312.559 -4.32973 3.37381 0
M  V30 3213 H 312.82 -4.10079 1.6519 0
M  V30 3214 N 311.879 -1.3236 -0.855495 0
M  V30 3215 C 312.842 -1.21164 -1.94556 0
M  V30 3216 C 313.842 -0.134908 -1.60233 0
M  V30 3217 O 315.032 -0.385249 -1.69887 0
M  V30 3218 C 312.164 -0.863192 -3.29791 0
M  V30 3219 H 313.357 -2.18038 -2.05911 0
M  V30 3220 H 310.91 -1.16179 -1.04557 0
M  V30 3221 H 311.645 0.103769 -3.24134 0
M  V30 3222 H 311.43 -1.64166 -3.56078 0
M  V30 3223 H 312.92 -0.809156 -4.09686 0
M  V30 3224 N 313.357 1.07166 -1.15556 0
M  V30 3225 C 314.32 2.12589 -0.856644 0
M  V30 3226 C 315.32 1.6015 0.14444 0
M  V30 3227 O 316.51 1.7399 -0.0854163 0
M  V30 3228 C 313.642 3.39753 -0.279405 0
M  V30 3229 H 314.835 2.40539 -1.79112 0
M  V30 3230 H 312.388 1.23086 -0.963298 0
M  V30 3231 H 313.123 3.17447 0.663174 0
M  V30 3232 H 312.908 3.79117 -1.00063 0
M  V30 3233 H 314.398 4.17507 -0.0879113 0
M  V30 3234 N 314.835 0.952656 1.25548 0
M  V30 3235 C 316.246 0.647392 1.75116 0
M  V30 3236 C 316.597 -0.837274 1.77438 0
M  V30 3237 O 315.722 -1.65525 1.39393 0
M  V30 3238 C 316.317 1.16845 3.18014 0
M  V30 3239 C 314.876 0.913382 3.6515 0
M  V30 3240 C 314.023 1.31265 2.44264 0
M  V30 3241 H 316.974 1.12968 1.11462 0
M  V30 3242 H 316.995 0.527606 3.76824 0
M  V30 3243 H 316.507 2.24902 3.16292 0
M  V30 3244 H 314.608 -0.152316 3.72289 0
M  V30 3245 H 314.721 1.54845 4.53387 0
M  V30 3246 H 313.085 0.731028 2.43984 0
M  V30 3247 H 313.868 2.40239 2.45234 0
M  V30 3248 N 316.313 -1.40141 0.720998 0
M  V30 3249 C 317.538 -2.05618 0.271258 0
M  V30 3250 C 317.963 -1.53978 -1.08039 0
M  V30 3251 O 317.321 -0.677463 -1.68167 0
M  V30 3252 C 317.369 -3.59609 0.267197 0
M  V30 3253 O 316.473 -4.05526 -0.749814 0
M  V30 3254 H 315.814 -0.651904 0.126162 0
M  V30 3255 H 318.344 -1.79439 0.982997 0
M  V30 3256 H 318.354 -4.0786 0.106744 0
M  V30 3257 H 317.029 -3.96559 1.25354 0
M  V30 3258 H 315.606 -3.68722 -0.556644 0
M  V30 3259 N 317.792 -0.46758 -1.50504 0
M  V30 3260 C 318.724 0.364655 -2.26281 0
M  V30 3261 C 319.737 0.960151 -1.31472 0
M  V30 3262 O 320.926 0.849153 -1.57008 0
M  V30 3263 C 318.026 1.52509 -3.02645 0
M  V30 3264 C 317.199 1.04302 -4.24782 0
M  V30 3265 C 316.258 2.07709 -4.8347 0
M  V30 3266 O 315.284 1.65913 -5.44483 0
M  V30 3267 N 316.486 3.40485 -4.70159 0
M  V30 3268 H 319.251 -0.28495 -2.98342 0
M  V30 3269 H 316.812 -0.298163 -1.59131 0
M  V30 3270 H 318.804 2.21371 -3.38787 0
M  V30 3271 H 317.374 2.07945 -2.33404 0
M  V30 3272 H 316.594 0.180393 -3.93787 0
M  V30 3273 H 317.882 0.698798 -5.03978 0
M  V30 3274 H 317.28 3.77155 -4.21629 0
M  V30 3275 H 315.837 4.05156 -5.1058 0
M  V30 3276 N 319.27 1.56325 -0.20005 0
M  V30 3277 C 320.495 2.02548 0.44597 0
M  V30 3278 C 320.92 1.07922 1.5406 0
M  V30 3279 O 320.278 0.0635775 1.81188 0
M  V30 3280 C 320.326 3.47175 0.974761 0
M  V30 3281 O 319.43 3.55671 2.08739 0
M  V30 3282 H 318.771 0.655862 0.103638 0
M  V30 3283 H 321.301 2.02201 -0.312381 0
M  V30 3284 H 321.311 3.87067 1.2901 0
M  V30 3285 H 319.986 4.15538 0.17347 0
M  V30 3286 H 318.563 3.27657 1.78032 0
M  V30 3287 N 320.748 -0.0735177 1.57428 0
M  V30 3288 C 321.994 -0.774145 1.87443 0
M  V30 3289 C 322.327 -1.77311 0.792103 0
M  V30 3290 O 321.602 -1.93492 -0.197793 0
M  V30 3291 C 321.885 -1.48367 3.28115 0
M  V30 3292 C 321.738 -0.501227 4.46999 0
M  V30 3293 C 323.057 -2.429 3.66998 0
M  V30 3294 H 320.176 -0.279971 0.681752 0
M  V30 3295 H 322.818 -0.0373616 1.89963 0
M  V30 3296 H 320.968 -2.11171 3.26097 0
M  V30 3297 H 322.64 0.121468 4.6114 0
M  V30 3298 H 320.883 0.183593 4.33411 0
M  V30 3299 H 321.554 -1.03526 5.42205 0
M  V30 3300 H 324.03 -1.90175 3.70098 0
M  V30 3301 H 322.906 -2.89549 4.66318 0
M  V30 3302 H 323.167 -3.27628 2.96837 0
M  V30 3303 N 322.226 -1.5378 -0.344866 0
M  V30 3304 C 323.189 -1.80981 -1.40637 0
M  V30 3305 C 324.189 -0.680816 -1.45676 0
M  V30 3306 O 325.379 -0.949095 -1.46075 0
M  V30 3307 C 322.511 -1.95063 -2.79577 0
M  V30 3308 H 323.704 -2.75803 -1.17783 0
M  V30 3309 H 321.257 -1.45173 -0.579181 0
M  V30 3310 H 321.992 -1.02379 -3.07716 0
M  V30 3311 H 321.777 -2.77198 -2.77315 0
M  V30 3312 H 323.267 -2.17629 -3.56409 0
M  V30 3313 N 323.704 0.605807 -1.45491 0
M  V30 3314 C 324.932 1.39136 -1.5313 0
M  V30 3315 C 325.347 1.88082 -0.164507 0
M  V30 3316 O 324.704 1.62316 0.834247 0
M  V30 3317 C 324.755 2.59463 -2.51716 0
M  V30 3318 O 324.476 2.12551 -3.83084 0
M  V30 3319 C 325.977 3.52301 -2.6907 0
M  V30 3320 H 323.197 0.425849 -0.51855 0
M  V30 3321 H 325.741 0.73865 -1.90694 0
M  V30 3322 H 323.896 3.20772 -2.17219 0
M  V30 3323 H 324.31 2.90744 -4.36541 0
M  V30 3324 H 325.784 4.33271 -3.42024 0
M  V30 3325 H 326.261 4.02757 -1.75167 0
M  V30 3326 H 326.867 2.96845 -3.04571 0
M  V30 3327 N 325.182 1.32811 0.848464 0
M  V30 3328 C 326.43 1.23479 1.59991 0
M  V30 3329 C 326.751 -0.201853 1.93952 0
M  V30 3330 O 326.021 -1.12818 1.60153 0
M  V30 3331 H 324.601 0.454034 0.593179 0
M  V30 3332 H 327.263 1.66412 1.01455 0
M  V30 3333 H 326.359 1.82178 2.53412 0
M  V30 3334 N 326.66 -1.06551 1.16123 0
M  V30 3335 C 327.623 -2.12132 0.867906 0
M  V30 3336 C 328.623 -1.60224 -0.135944 0
M  V30 3337 O 329.813 -1.73943 0.0946422 0
M  V30 3338 C 326.945 -3.396 0.297419 0
M  V30 3339 H 328.138 -2.39586 1.80385 0
M  V30 3340 H 325.691 -1.22574 0.969812 0
M  V30 3341 H 326.426 -3.17794 -0.64633 0
M  V30 3342 H 326.211 -3.78581 1.02073 0
M  V30 3343 H 327.701 -4.17455 0.110052 0
M  V30 3344 N 328.138 -0.959301 -1.25041 0
M  V30 3345 C 329.384 -0.617525 -1.9317 0
M  V30 3346 C 329.717 0.843981 -1.74902 0
M  V30 3347 O 328.992 1.60615 -1.09696 0
M  V30 3348 C 329.275 -0.982736 -3.46431 0
M  V30 3349 C 329.128 -2.50032 -3.73904 0
M  V30 3350 C 330.447 -0.511176 -4.37121 0
M  V30 3351 H 327.566 -0.22582 -0.701552 0
M  V30 3352 H 330.208 -1.19679 -1.4757 0
M  V30 3353 H 328.358 -0.489806 -3.854 0
M  V30 3354 H 330.03 -3.06737 -3.44544 0
M  V30 3355 H 328.273 -2.93598 -3.19348 0
M  V30 3356 H 328.944 -2.70635 -4.81103 0
M  V30 3357 H 331.42 -0.934075 -4.0548 0
M  V30 3358 H 330.296 -0.795361 -5.43107 0
M  V30 3359 H 330.557 0.588834 -4.38161 0
M  V30 3360 N 329.616 1.39756 -0.72842 0
M  V30 3361 C 330.564 2.32485 -0.0731849 0
M  V30 3362 C 331.558 1.52717 0.733063 0
M  V30 3363 O 332.764 1.68428 0.634988 0
M  V30 3364 H 329.139 0.751984 -0.00486469 0
M  V30 3365 H 331.11 2.85382 -0.871761 0
M  V30 3366 C 329.859 3.37773 0.824908 0
M  V30 3367 H 329.182 3.99227 0.213915 0
M  V30 3368 H 330.622 4.05121 1.25111 0
M  V30 3369 C 329.081 2.74287 1.95622 0
M  V30 3370 O 329.611 2.61618 3.04826 0
M  V30 3371 N 327.817 2.32475 1.74367 0
M  V30 3372 H 327.364 2.4298 0.855494 0
M  V30 3373 H 327.322 1.90337 2.50238 0
M  V30 3374 N 331.094 0.475555 1.50254 0
M  V30 3375 C 332.004 -0.321501 2.32387 0
M  V30 3376 C 333.02 -0.991755 1.42969 0
M  V30 3377 O 334.196 -0.978747 1.76018 0
M  V30 3378 C 331.261 -1.38667 3.17762 0
M  V30 3379 C 330.322 -0.732538 4.23004 0
M  V30 3380 C 329.555 -1.74695 5.04299 0
M  V30 3381 O 329.778 -2.97399 4.86734 0
M  V30 3382 O 328.712 -1.31631 5.8733 0
M  V30 3383 H 332.538 0.350071 3.01676 0
M  V30 3384 H 330.123 0.237321 1.47503 0
M  V30 3385 H 332.005 -2.00354 3.70724 0
M  V30 3386 H 330.68 -2.04163 2.51196 0
M  V30 3387 H 329.587 -0.0765902 3.74022 0
M  V30 3388 H 330.92 -0.120452 4.92053 0
M  V30 3389 N 332.573 -1.56217 0.208337 0
M  V30 3390 C 333.822 -1.97124 -0.427204 0
M  V30 3391 C 334.135 -1.09859 -1.61835 0
M  V30 3392 O 335.341 -1.40606 -2.32255 0
M  V30 3393 C 333.797 -3.50633 -0.811442 0
M  V30 3394 C 333.405 -4.46582 0.35615 0
M  V30 3395 C 335.149 -4.00282 -1.41332 0
M  V30 3396 C 333.056 -5.91379 -0.0497852 0
M  V30 3397 H 331.986 -0.736086 -0.163381 0
M  V30 3398 H 334.637 -1.8099 0.302456 0
M  V30 3399 H 333.019 -3.62319 -1.59815 0
M  V30 3400 H 334.193 -4.46636 1.1337 0
M  V30 3401 H 332.508 -4.07202 0.870396 0
M  V30 3402 H 335.105 -5.0595 -1.72972 0
M  V30 3403 H 335.448 -3.45359 -2.32449 0
M  V30 3404 H 335.981 -3.91764 -0.690323 0
M  V30 3405 H 332.72 -6.50255 0.827529 0
M  V30 3406 H 332.24 -5.94549 -0.791926 0
M  V30 3407 H 333.919 -6.45209 -0.481042 0
M  V30 3408 N 334.051 0.0651679 -1.57465 0
M  V30 3409 C 335.001 1.0838 -2.00594 0
M  V30 3410 C 335.985 1.34106 -0.889071 0
M  V30 3411 O 337.177 1.34295 -1.15299 0
M  V30 3412 C 334.306 2.39565 -2.45894 0
M  V30 3413 C 333.392 2.17085 -3.64328 0
M  V30 3414 N 333.783 1.64553 -4.78285 0
M  V30 3415 C 332.081 2.4753 -3.71006 0
M  V30 3416 C 332.782 1.57042 -5.60101 0
M  V30 3417 N 331.758 2.03328 -5.04141 0
M  V30 3418 H 335.56 0.671062 -2.86136 0
M  V30 3419 H 333.074 0.27213 -1.60104 0
M  V30 3420 H 335.071 3.13308 -2.75034 0
M  V30 3421 H 333.731 2.81549 -1.61741 0
M  V30 3422 H 334.742 1.33323 -5.00445 0
M  V30 3423 H 331.419 2.92835 -2.9758 0
M  V30 3424 H 332.809 1.17223 -6.61595 0
M  V30 3425 N 335.529 1.53961 0.336706 0
M  V30 3426 C 336.757 1.75483 1.09605 0
M  V30 3427 C 337.172 0.4972 1.82136 0
M  V30 3428 O 336.529 -0.53149 1.74589 0
M  V30 3429 C 336.58 2.93943 2.10428 0
M  V30 3430 O 336.301 4.14842 1.40846 0
M  V30 3431 C 337.802 3.27571 2.98684 0
M  V30 3432 H 335.022 0.586166 0.326574 0
M  V30 3433 H 337.566 2.00808 0.38683 0
M  V30 3434 H 335.721 2.70929 2.76905 0
M  V30 3435 H 336.135 4.81383 2.08255 0
M  V30 3436 H 337.609 4.13791 3.6535 0
M  V30 3437 H 338.086 2.44168 3.65074 0
M  V30 3438 H 338.692 3.52615 2.37787 0
M  V30 3439 N 337.007 -0.598083 1.45811 0
M  V30 3440 C 338.232 -1.3881 1.54099 0
M  V30 3441 C 338.657 -1.8726 0.177578 0
M  V30 3442 O 338.015 -1.6069 -0.839541 0
M  V30 3443 C 338.063 -2.56217 2.53743 0
M  V30 3444 O 337.167 -3.5716 2.06182 0
M  V30 3445 H 336.508 -0.414024 0.519115 0
M  V30 3446 H 339.038 -0.726971 1.91249 0
M  V30 3447 H 339.048 -3.03337 2.72856 0
M  V30 3448 H 337.723 -2.20303 3.5276 0
M  V30 3449 H 336.3 -3.16624 1.96987 0
M  V30 3450 N 338.485 -1.33259 -0.841409 0
M  V30 3451 C 339.896 -1.22066 -1.41269 0
M  V30 3452 C 340.247 0.161479 -1.95534 0
M  V30 3453 O 339.372 1.06094 -1.88608 0
M  V30 3454 C 339.967 -2.20996 -2.568 0
M  V30 3455 C 338.526 -2.13649 -3.09888 0
M  V30 3456 C 337.673 -2.08623 -1.82679 0
M  V30 3457 H 340.624 -1.44895 -0.647395 0
M  V30 3458 H 340.645 -1.81621 -3.34356 0
M  V30 3459 H 340.157 -3.2158 -2.17274 0
M  V30 3460 H 338.258 -1.16359 -3.53965 0
M  V30 3461 H 338.371 -3.04079 -3.70234 0
M  V30 3462 H 336.735 -1.54061 -2.02824 0
M  V30 3463 H 337.518 -3.1101 -1.45353 0
M  V30 3464 N 339.963 1.05934 -1.16686 0
M  V30 3465 C 341.193 1.82226 -0.973515 0
M  V30 3466 C 341.601 1.8297 0.481532 0
M  V30 3467 O 340.944 1.25009 1.34604 0
M  V30 3468 C 341.006 3.29897 -1.42858 0
M  V30 3469 C 340.67 3.52849 -2.90425 0
M  V30 3470 C 341.667 3.45595 -3.88407 0
M  V30 3471 C 339.352 3.80053 -3.28428 0
M  V30 3472 C 341.346 3.65217 -5.22394 0
M  V30 3473 C 339.033 3.99325 -4.62583 0
M  V30 3474 C 340.031 3.91905 -5.59374 0
M  V30 3475 O 339.719 4.10647 -6.91104 0
M  V30 3476 H 339.451 0.581314 -0.345036 0
M  V30 3477 H 342.005 1.3453 -1.55212 0
M  V30 3478 H 340.235 3.78472 -0.793477 0
M  V30 3479 H 341.924 3.87692 -1.20207 0
M  V30 3480 H 342.69 3.24564 -3.60393 0
M  V30 3481 H 338.569 3.84936 -2.53664 0
M  V30 3482 H 342.113 3.59341 -5.9793 0
M  V30 3483 H 338.01 4.19846 -4.90306 0
M  V30 3484 H 338.778 4.27915 -6.97733 0
M  V30 3485 N 341.441 0.965919 1.2453 0
M  V30 3486 C 342.666 0.643971 1.97149 0
M  V30 3487 C 343.091 -0.779487 1.71189 0
M  V30 3488 O 342.449 -1.5288 0.974553 0
M  V30 3489 C 342.497 0.922557 3.48599 0
M  V30 3490 O 341.601 0.00707672 4.12399 0
M  V30 3491 H 340.942 0.243647 0.617683 0
M  V30 3492 H 343.472 1.29558 1.58353 0
M  V30 3493 H 343.482 0.853373 3.98976 0
M  V30 3494 H 342.157 1.95996 3.66822 0
M  V30 3495 H 340.734 0.12943 3.72675 0
M  V30 3496 N 342.919 -1.39368 0.735821 0
M  V30 3497 C 343.866 -2.30599 0.0963825 0
M  V30 3498 C 344.836 -1.49257 -0.728794 0
M  V30 3499 O 346.021 -1.77941 -0.688588 0
M  V30 3500 C 343.161 -3.35596 -0.804305 0
M  V30 3501 C 342.274 -4.31987 0.0335761 0
M  V30 3502 C 341.409 -5.24053 -0.868461 0
M  V30 3503 C 340.448 -6.12095 -0.0258776 0
M  V30 3504 N 339.585 -6.96514 -0.883893 0
M  V30 3505 H 344.425 -2.8471 0.880002 0
M  V30 3506 H 341.962 -1.40188 0.445619 0
M  V30 3507 H 343.92 -3.95062 -1.34096 0
M  V30 3508 H 342.55 -2.82938 -1.55389 0
M  V30 3509 H 341.602 -3.74133 0.68766 0
M  V30 3510 H 342.914 -4.94074 0.685036 0
M  V30 3511 H 342.068 -5.88549 -1.47293 0
M  V30 3512 H 340.807 -4.62289 -1.5537 0
M  V30 3513 H 339.812 -5.4661 0.591386 0
M  V30 3514 H 341.037 -6.75923 0.656156 0
M  V30 3515 H 338.983 -6.37318 -1.55441 0
M  V30 3516 H 338.9 -7.55448 -0.288931 0
M  V30 3517 H 340.168 -7.65439 -1.4739 0
M  V30 3518 N 344.397 -0.483516 -1.5 0
M  V30 3519 C 345.674 0.129337 -1.95172 0
M  V30 3520 C 346.054 1.55802 -1.4244 0
M  V30 3521 O 345.402 2.19625 -0.630649 0
M  V30 3522 C 345.612 0.0599251 -3.48949 0
M  V30 3523 C 346.96 0.242617 -4.23906 0
M  V30 3524 O 347.984 0.135933 -3.55941 0
M  V30 3525 O 346.843 0.459454 -5.44565 0
M  V30 3526 H 343.937 0.104887 -0.820322 0
M  V30 3527 H 346.483 -0.544807 -1.60717 0
M  V30 3528 H 345.255 -0.937079 -3.79914 0
M  V30 3529 H 344.878 0.774984 -3.89974 0
M  V30 3530 N 345.875 1.56104 -0.216619 0
M  V30 3531 C 346.838 2.18819 0.681962 0
M  V30 3532 C 347.838 1.14866 1.12528 0
M  V30 3533 O 349.028 1.40128 1.03488 0
M  V30 3534 C 346.16 2.80756 1.93362 0
M  V30 3535 H 347.353 2.99595 0.135254 0
M  V30 3536 H 344.906 1.56265 0.0330003 0
M  V30 3537 H 345.641 2.03837 2.52232 0
M  V30 3538 H 345.426 3.56876 1.62426 0
M  V30 3539 H 346.916 3.28844 2.57393 0
M  V30 3540 N 347.353 -0.0568162 1.57498 0
M  V30 3541 C 348.764 -0.606858 1.76562 0
M  V30 3542 C 349.115 -1.77114 0.844094 0
M  V30 3543 O 348.24 -2.16376 0.0318911 0
M  V30 3544 C 348.835 -1.10766 3.20182 0
M  V30 3545 C 347.394 -1.60344 3.40539 0
M  V30 3546 C 346.541 -0.529311 2.72201 0
M  V30 3547 H 349.492 0.169393 1.57793 0
M  V30 3548 H 349.513 -1.97602 3.25167 0
M  V30 3549 H 349.025 -0.26006 3.87228 0
M  V30 3550 H 347.126 -2.47379 2.78629 0
M  V30 3551 H 347.239 -1.67006 4.4905 0
M  V30 3552 H 345.603 -0.977893 2.35179 0
M  V30 3553 H 346.386 0.308352 3.41912 0
M  V30 3554 N 348.832 -1.54138 -0.328536 0
M  V30 3555 C 349.762 -1.86167 -1.40939 0
M  V30 3556 C 350.743 -0.718044 -1.54202 0
M  V30 3557 O 351.928 -0.971328 -1.68163 0
M  V30 3558 C 349.058 -2.08461 -2.77779 0
M  V30 3559 C 348.012 -3.24299 -2.7931 0
M  V30 3560 C 347.338 -3.31955 -4.19178 0
M  V30 3561 C 348.638 -4.62065 -2.43502 0
M  V30 3562 H 350.332 -2.76689 -1.14383 0
M  V30 3563 H 347.878 -1.33132 -0.548806 0
M  V30 3564 H 349.831 -2.29453 -3.53454 0
M  V30 3565 H 348.555 -1.14684 -3.05802 0
M  V30 3566 H 347.214 -3.03187 -2.0609 0
M  V30 3567 H 346.862 -2.35745 -4.44335 0
M  V30 3568 H 346.562 -4.09805 -4.2111 0
M  V30 3569 H 348.086 -3.55175 -4.96672 0
M  V30 3570 H 349.5 -4.8297 -3.08889 0
M  V30 3571 H 347.897 -5.42429 -2.56693 0
M  V30 3572 H 348.967 -4.64652 -1.38659 0
M  V30 3573 N 350.31 0.590341 -1.46126 0
M  V30 3574 C 351.556 1.35082 -1.51264 0
M  V30 3575 C 351.889 1.93534 -0.160711 0
M  V30 3576 O 351.164 1.76045 0.826956 0
M  V30 3577 C 351.447 2.48588 -2.6053 0
M  V30 3578 C 351.3 1.95221 -4.05227 0
M  V30 3579 C 352.619 3.50662 -2.6594 0
M  V30 3580 H 349.738 0.489803 -0.550692 0
M  V30 3581 H 352.38 0.663887 -1.78024 0
M  V30 3582 H 350.53 3.07186 -2.37843 0
M  V30 3583 H 352.202 1.41139 -4.39178 0
M  V30 3584 H 350.445 1.26101 -4.15068 0
M  V30 3585 H 351.116 2.77121 -4.77397 0
M  V30 3586 H 353.592 3.01934 -2.86313 0
M  V30 3587 H 352.468 4.27551 -3.44226 0
M  V30 3588 H 352.729 4.07399 -1.71694 0
M  V30 3589 N 351.788 1.33704 0.83433 0
M  V30 3590 C 352.751 1.24244 1.92603 0
M  V30 3591 C 353.751 0.160383 1.59998 0
M  V30 3592 O 354.941 0.412228 1.69252 0
M  V30 3593 C 352.073 0.91555 3.28376 0
M  V30 3594 H 353.266 2.21287 2.02416 0
M  V30 3595 H 350.819 1.17827 1.02696 0
M  V30 3596 H 351.554 -0.0521886 3.24258 0
M  V30 3597 H 351.339 1.69811 3.53422 0
M  V30 3598 H 352.829 0.874231 4.08347 0
M  V30 3599 N 353.266 -1.05314 1.17247 0
M  V30 3600 C 354.491 -1.82509 0.985148 0
M  V30 3601 C 354.916 -1.82343 -0.461788 0
M  V30 3602 O 354.274 -1.23151 -1.33055 0
M  V30 3603 C 354.322 -3.26566 1.52929 0
M  V30 3604 O 353.426 -4.05666 0.742225 0
M  V30 3605 H 352.767 -0.564347 0.349869 0
M  V30 3606 H 355.297 -1.32718 1.55715 0
M  V30 3607 H 355.307 -3.77369 1.55103 0
M  V30 3608 H 353.982 -3.26001 2.58256 0
M  V30 3609 H 352.559 -3.64397 0.791794 0
M  V30 3610 N 354.744 -0.972509 -1.24016 0
M  V30 3611 C 355.674 -0.525548 -2.27509 0
M  V30 3612 C 356.655 0.437262 -1.64384 0
M  V30 3613 O 357.84 0.332343 -1.91335 0
M  V30 3614 C 354.97 0.180448 -3.46831 0
M  V30 3615 C 353.924 -0.698859 -4.22256 0
M  V30 3616 C 353.25 0.138903 -5.3452 0
M  V30 3617 C 354.55 -1.98582 -4.83076 0
M  V30 3618 H 356.244 -1.39058 -2.65148 0
M  V30 3619 H 353.79 -0.67009 -1.27459 0
M  V30 3620 H 355.743 0.504387 -4.18371 0
M  V30 3621 H 354.467 1.07987 -3.08231 0
M  V30 3622 H 353.126 -1.00614 -3.52523 0
M  V30 3623 H 352.774 1.03862 -4.9216 0
M  V30 3624 H 352.474 -0.446259 -5.85903 0
M  V30 3625 H 353.998 0.457404 -6.08884 0
M  V30 3626 H 355.412 -1.72715 -5.46665 0
M  V30 3627 H 353.809 -2.5181 -5.44713 0
M  V30 3628 H 354.879 -2.67769 -4.04262 0
M  V30 3629 N 356.222 1.38976 -0.743202 0
M  V30 3630 C 357.447 2.05161 -0.303936 0
M  V30 3631 C 357.872 1.55677 1.05576 0
M  V30 3632 O 357.23 0.704131 1.67068 0
M  V30 3633 C 357.278 3.59138 -0.324373 0
M  V30 3634 O 356.382 4.06668 0.685204 0
M  V30 3635 H 355.723 0.649815 -0.136518 0
M  V30 3636 H 358.253 1.77852 -1.01142 0
M  V30 3637 H 358.263 4.07639 -0.171618 0
M  V30 3638 H 356.938 3.94515 -1.31647 0
M  V30 3639 H 355.515 3.69561 0.497913 0
M  V30 3640 N 357.7 0.491464 1.49741 0
M  V30 3641 C 358.946 -0.0565092 2.02721 0
M  V30 3642 C 359.279 -1.37522 1.37118 0
M  V30 3643 O 358.554 -1.87866 0.503645 0
M  V30 3644 C 358.837 -0.219051 3.59433 0
M  V30 3645 C 358.69 1.12211 4.35579 0
M  V30 3646 C 360.009 -0.964157 4.29409 0
M  V30 3647 H 357.128 -0.0190627 0.736753 0
M  V30 3648 H 359.77 0.641021 1.7886 0
M  V30 3649 H 357.92 -0.813165 3.79895 0
M  V30 3650 H 359.592 1.75437 4.26637 0
M  V30 3651 H 357.835 1.71377 3.98513 0
M  V30 3652 H 358.506 0.961794 5.43556 0
M  V30 3653 H 360.982 -0.460378 4.13545 0
M  V30 3654 H 359.858 -1.04671 5.38828 0
M  V30 3655 H 360.119 -2.00563 3.93988 0
M  V30 3656 N 359.178 -1.55987 0.224894 0
M  V30 3657 C 360.126 -2.21808 -0.700283 0
M  V30 3658 C 361.12 -1.19854 -1.19714 0
M  V30 3659 O 362.326 -1.37925 -1.15658 0
M  V30 3660 H 358.701 -0.711226 -0.244258 0
M  V30 3661 H 360.672 -2.98152 -0.121749 0
M  V30 3662 C 359.421 -2.91444 -1.8962 0
M  V30 3663 H 358.744 -3.69655 -1.52299 0
M  V30 3664 H 360.184 -3.40894 -2.52125 0
M  V30 3665 C 358.643 -1.94098 -2.75368 0
M  V30 3666 O 359.173 -1.46004 -3.74227 0
M  V30 3667 N 357.379 -1.61675 -2.41474 0
M  V30 3668 H 356.926 -2.00979 -1.61137 0
M  V30 3669 H 356.884 -0.968036 -2.99126 0
M  V30 3670 N 360.656 0.0484629 -1.57525 0
M  V30 3671 C 361.588 1.08222 -2.02041 0
M  V30 3672 C 362.601 1.33621 -0.930012 0
M  V30 3673 O 363.79 1.3145 -1.20761 0
M  V30 3674 C 360.89 2.42818 -2.36416 0
M  V30 3675 C 360.063 2.37049 -3.67596 0
M  V30 3676 C 359.122 3.53937 -3.89378 0
M  V30 3677 O 358.148 3.34308 -4.60681 0
M  V30 3678 N 359.35 4.75126 -3.3352 0
M  V30 3679 H 362.115 0.702946 -2.9134 0
M  V30 3680 H 359.676 0.236745 -1.6016 0
M  V30 3681 H 361.668 3.197 -2.48141 0
M  V30 3682 H 360.238 2.72661 -1.52888 0
M  V30 3683 H 359.458 1.45395 -3.66407 0
M  V30 3684 H 360.746 2.30318 -4.53686 0
M  V30 3685 H 360.144 4.93976 -2.75688 0
M  V30 3686 H 358.701 5.49439 -3.50656 0
M  V30 3687 N 362.134 1.5431 0.320358 0
M  V30 3688 C 363.081 1.83918 1.39438 0
M  V30 3689 C 364.051 0.686525 1.51248 0
M  V30 3690 O 365.236 0.933269 1.66417 0
M  V30 3691 C 362.376 2.075 2.75749 0
M  V30 3692 C 361.489 3.35177 2.72544 0
M  V30 3693 C 360.624 3.48704 4.00723 0
M  V30 3694 C 359.663 4.70244 3.91838 0
M  V30 3695 N 358.8 4.80679 5.11754 0
M  V30 3696 H 363.64 2.75544 1.13489 0
M  V30 3697 H 361.177 1.36459 0.549309 0
M  V30 3698 H 363.135 2.19166 3.54996 0
M  V30 3699 H 361.765 1.19163 3 0
M  V30 3700 H 360.817 3.32233 1.85271 0
M  V30 3701 H 362.129 4.24534 2.61863 0
M  V30 3702 H 361.283 3.59928 4.88402 0
M  V30 3703 H 360.022 2.57445 4.14214 0
M  V30 3704 H 359.027 4.59072 3.02544 0
M  V30 3705 H 360.252 5.6289 3.7991 0
M  V30 3706 H 358.198 3.92337 5.25745 0
M  V30 3707 H 358.115 5.64007 5.0342 0
M  V30 3708 H 359.383 4.96239 6.01138 0
M  V30 3709 N 363.613 -0.582584 1.46437 0
M  V30 3710 C 364.862 -1.337 1.5102 0
M  V30 3711 C 365.175 -1.94891 0.166359 0
M  V30 3712 O 366.381 -2.71351 0.0899954 0
M  V30 3713 C 364.837 -2.42315 2.66104 0
M  V30 3714 C 364.445 -1.87427 4.06909 0
M  V30 3715 C 366.189 -3.19099 2.79958 0
M  V30 3716 C 364.096 -2.93672 5.13333 0
M  V30 3717 H 363.026 -0.502619 0.562041 0
M  V30 3718 H 365.677 -0.621701 1.72647 0
M  V30 3719 H 364.059 -3.16645 2.37807 0
M  V30 3720 H 365.233 -1.19639 4.44998 0
M  V30 3721 H 363.548 -1.2331 3.97723 0
M  V30 3722 H 366.145 -3.9839 3.56636 0
M  V30 3723 H 366.488 -3.71695 1.87479 0
M  V30 3724 H 367.021 -2.51875 3.07902 0
M  V30 3725 H 363.76 -2.45962 6.07604 0
M  V30 3726 H 363.28 -3.59948 4.79789 0
M  V30 3727 H 364.959 -3.5762 5.39182 0
M  V30 3728 N 365.091 -1.34144 -0.827227 0
M  V30 3729 C 366.319 -1.29325 -1.61501 0
M  V30 3730 C 366.734 0.13354 -1.88327 0
M  V30 3731 O 366.091 1.0793 -1.47164 0
M  V30 3732 C 366.142 -2.07746 -2.95844 0
M  V30 3733 O 365.863 -3.4486 -2.70191 0
M  V30 3734 C 367.364 -2.10273 -3.90256 0
M  V30 3735 H 364.584 -0.445069 -0.50215 0
M  V30 3736 H 367.128 -1.76693 -1.02955 0
M  V30 3737 H 365.283 -1.6403 -3.5096 0
M  V30 3738 H 365.697 -3.85345 -3.55822 0
M  V30 3739 H 367.171 -2.69575 -4.81698 0
M  V30 3740 H 367.648 -1.096 -4.25305 0
M  V30 3741 H 368.254 -2.54059 -3.41078 0
M  V30 3742 N 366.569 1.04691 -1.17803 0
M  V30 3743 C 367.817 1.7743 -0.967617 0
M  V30 3744 C 368.138 1.88359 0.504574 0
M  V30 3745 O 367.408 1.40402 1.36617 0
M  V30 3746 H 365.988 0.657242 -0.355024 0
M  V30 3747 H 368.65 1.2638 -1.48371 0
M  V30 3748 H 367.746 2.78924 -1.40027 0
M  V30 3749 N 368.047 0.979072 1.23499 0
M  V30 3750 C 369.463 0.687475 1.44034 0
M  V30 3751 C 369.663 -0.746801 1.8715 0
M  V30 3752 O 368.719 -1.51939 2.0167 0
M  V30 3753 C 370.032 1.68127 2.49307 0
M  V30 3754 C 371.58 1.69516 2.63122 0
M  V30 3755 C 372.055 2.67723 3.71603 0
M  V30 3756 N 373.546 2.66233 3.79044 0
M  V30 3757 C 374.281 3.38891 4.62537 0
M  V30 3758 N 373.777 4.21103 5.50131 0
M  V30 3759 N 375.57 3.27661 4.56721 0
M  V30 3760 H 367.721 1.90559 0.938135 0
M  V30 3761 H 369.984 0.821051 0.473897 0
M  V30 3762 H 369.69 2.70693 2.2454 0
M  V30 3763 H 369.564 1.46306 3.4767 0
M  V30 3764 H 371.951 0.676561 2.8724 0
M  V30 3765 H 372.032 1.95404 1.65079 0
M  V30 3766 H 371.676 3.69724 3.48233 0
M  V30 3767 H 371.606 2.39111 4.69184 0
M  V30 3768 H 374.097 2.06568 3.16446 0
M  V30 3769 H 374.41 4.73403 6.10827 0
M  V30 3770 H 372.755 4.25195 5.49759 0
M  V30 3771 H 375.946 2.62887 3.87309 0
M  V30 3772 H 376.119 3.84547 5.21562 0
M  V30 3773 N 369.525 -1.3858 0.750561 0
M  V30 3774 C 370.473 -2.32339 0.110162 0
M  V30 3775 C 371.467 -1.53864 -0.708674 0
M  V30 3776 O 372.673 -1.69417 -0.608112 0
M  V30 3777 H 369.048 -0.751812 0.0168275 0
M  V30 3778 H 371.019 -2.83959 0.917053 0
M  V30 3779 C 369.768 -3.39043 -0.771067 0
M  V30 3780 H 369.091 -3.99517 -0.150374 0
M  V30 3781 H 370.531 -4.07061 -1.1865 0
M  V30 3782 C 368.99 -2.77365 -1.91234 0
M  V30 3783 O 369.52 -2.66434 -3.00626 0
M  V30 3784 N 367.726 -2.35219 -1.70646 0
M  V30 3785 H 367.273 -2.4431 -0.81673 0
M  V30 3786 H 367.231 -1.94294 -2.47178 0
M  V30 3787 N 371.003 -0.499398 -1.49478 0
M  V30 3788 C 372.228 0.044722 -2.07352 0
M  V30 3789 C 372.653 1.30207 -1.35749 0
M  V30 3790 O 372.011 1.76516 -0.413732 0
M  V30 3791 C 372.059 0.283013 -3.59488 0
M  V30 3792 O 371.163 1.35804 -3.89398 0
M  V30 3793 H 370.504 -0.0255147 -0.66351 0
M  V30 3794 H 373.034 -0.698561 -1.92305 0
M  V30 3795 H 373.044 0.515007 -4.04737 0
M  V30 3796 H 371.719 -0.635636 -4.11014 0
M  V30 3797 H 370.296 1.11113 -3.55961 0
M  V30 3798 N 372.481 1.55866 -0.233164 0
M  V30 3799 C 373.391 2.24431 0.683217 0
M  V30 3800 C 374.407 1.2558 1.2044 0
M  V30 3801 O 375.583 1.58422 1.24356 0
M  V30 3802 C 372.648 2.91979 1.86947 0
M  V30 3803 C 371.709 4.06204 1.38912 0
M  V30 3804 C 370.942 4.70522 2.51883 0
M  V30 3805 O 371.165 4.33865 3.70293 0
M  V30 3806 O 370.099 5.59296 2.22423 0
M  V30 3807 H 373.925 3.03426 0.129059 0
M  V30 3808 H 371.51 1.494 -0.0022283 0
M  V30 3809 H 373.392 3.34573 2.56201 0
M  V30 3810 H 372.067 2.15935 2.41151 0
M  V30 3811 H 370.974 3.68155 0.664259 0
M  V30 3812 H 372.307 4.84025 0.893328 0
M  V30 3813 N 373.959 -0.0401083 1.57549 0
M  V30 3814 C 374.906 -1.04413 2.05831 0
M  V30 3815 C 375.876 -1.36585 0.945184 0
M  V30 3816 O 377.061 -1.47112 1.21502 0
M  V30 3817 C 374.201 -2.34336 2.53339 0
M  V30 3818 C 373.314 -2.08419 3.78398 0
M  V30 3819 C 372.449 -3.32133 4.14561 0
M  V30 3820 C 371.488 -3.01721 5.3257 0
M  V30 3821 N 370.625 -4.17855 5.64218 0
M  V30 3822 H 375.465 -0.625442 2.91363 0
M  V30 3823 H 373.002 -0.297218 1.44066 0
M  V30 3824 H 374.96 -3.10234 2.78946 0
M  V30 3825 H 373.59 -2.73948 1.7074 0
M  V30 3826 H 372.642 -1.23069 3.59942 0
M  V30 3827 H 373.954 -1.81978 4.64419 0
M  V30 3828 H 373.108 -4.16406 4.41238 0
M  V30 3829 H 371.847 -3.61678 3.2717 0
M  V30 3830 H 370.852 -2.15849 5.05657 0
M  V30 3831 H 372.077 -2.73466 6.21605 0
M  V30 3832 H 370.023 -4.47372 4.79786 0
M  V30 3833 H 369.94 -3.94798 6.44725 0
M  V30 3834 H 371.208 -5.03033 5.95465 0
M  V30 3835 N 375.437 -1.54477 -0.31217 0
M  V30 3836 C 376.714 -1.63891 -1.06767 0
M  V30 3837 C 377.094 -0.480028 -2.0557 0
M  V30 3838 O 376.442 0.524487 -2.22399 0
M  V30 3839 C 376.652 -3.01402 -1.75948 0
M  V30 3840 C 378 -3.57838 -2.28554 0
M  V30 3841 O 379.024 -3.03782 -1.85998 0
M  V30 3842 O 377.883 -4.52462 -3.06497 0
M  V30 3843 H 374.977 -0.664125 -0.492816 0
M  V30 3844 H 377.523 -1.66823 -0.311149 0
M  V30 3845 H 376.295 -3.77187 -1.04144 0
M  V30 3846 H 375.918 -3.02199 -2.58383 0
M  V30 3847 N 376.915 0.57481 -1.46744 0
M  V30 3848 C 378.161 1.3347 -1.52688 0
M  V30 3849 C 378.494 1.93353 -0.181229 0
M  V30 3850 O 377.769 1.76912 0.808237 0
M  V30 3851 C 378.052 2.45811 -2.63152 0
M  V30 3852 C 377.905 1.90912 -4.07275 0
M  V30 3853 C 379.224 3.47822 -2.69644 0
M  V30 3854 H 376.343 0.483935 -0.555856 0
M  V30 3855 H 378.985 0.644968 -1.78718 0
M  V30 3856 H 377.135 3.04646 -2.41088 0
M  V30 3857 H 378.807 1.36473 -4.4065 0
M  V30 3858 H 377.05 1.21691 -4.16382 0
M  V30 3859 H 377.721 2.72042 -4.80309 0
M  V30 3860 H 380.197 2.9888 -2.895 0
M  V30 3861 H 379.073 4.23876 -3.48742 0
M  V30 3862 H 379.334 4.05555 -1.76005 0
M  V30 3863 N 378.394 1.34581 0.820102 0
M  V30 3864 C 379.81 1.14325 1.11364 0
M  V30 3865 C 380.01 -0.0533648 2.01429 0
M  V30 3866 O 379.066 -0.728044 2.41776 0
M  V30 3867 C 380.379 2.43983 1.75764 0
M  V30 3868 C 381.927 2.50065 1.88246 0
M  V30 3869 C 382.402 3.79732 2.56061 0
M  V30 3870 N 383.893 3.80908 2.63558 0
M  V30 3871 C 384.628 4.77961 3.16766 0
M  V30 3872 N 384.124 5.85397 3.70517 0
M  V30 3873 N 385.917 4.65413 3.15194 0
M  V30 3874 H 378.068 2.11246 0.221096 0
M  V30 3875 H 380.331 0.934289 0.160649 0
M  V30 3876 H 380.037 3.31651 1.1705 0
M  V30 3877 H 379.911 2.57531 2.75604 0
M  V30 3878 H 382.298 1.62834 2.46108 0
M  V30 3879 H 382.379 2.40442 0.873006 0
M  V30 3880 H 382.023 4.67354 1.98853 0
M  V30 3881 H 381.953 3.86639 3.57516 0
M  V30 3882 H 384.444 3.03274 2.25463 0
M  V30 3883 H 384.757 6.55463 4.09376 0
M  V30 3884 H 383.102 5.89107 3.68752 0
M  V30 3885 H 386.293 3.80627 2.72471 0
M  V30 3886 H 386.466 5.41216 3.56356 0
M  V30 3887 N 379.872 -1.04064 1.18357 0
M  V30 3888 C 380.822 -2.10393 0.878561 0
M  V30 3889 C 381.806 -1.60183 -0.151713 0
M  V30 3890 O 382.998 -1.76923 0.0523303 0
M  V30 3891 C 380.127 -3.4089 0.406096 0
M  V30 3892 C 379.213 -3.97866 1.46844 0
M  V30 3893 N 379.604 -4.28657 2.68489 0
M  V30 3894 C 377.902 -4.2574 1.32896 0
M  V30 3895 C 378.603 -4.74253 3.36836 0
M  V30 3896 N 377.579 -4.75068 2.64219 0
M  V30 3897 H 381.381 -2.32076 1.80327 0
M  V30 3898 H 378.895 -1.21818 1.07397 0
M  V30 3899 H 380.892 -4.16557 0.169088 0
M  V30 3900 H 379.552 -3.20633 -0.512275 0
M  V30 3901 H 380.563 -4.18304 3.05356 0
M  V30 3902 H 377.24 -4.1481 0.473134 0
M  V30 3903 H 378.63 -5.07096 4.40798 0
M  V30 3904 N 381.35 -0.985608 -1.22978 0
M  V30 3905 C 382.599 -0.652881 -1.90841 0
M  V30 3906 C 382.912 0.817842 -1.77681 0
M  V30 3907 O 384.118 1.26185 -2.40395 0
M  V30 3908 C 382.574 -1.11717 -3.42122 0
M  V30 3909 C 382.182 -2.6126 -3.63933 0
M  V30 3910 C 383.926 -0.85843 -4.1573 0
M  V30 3911 C 381.833 -3.0133 -5.08876 0
M  V30 3912 H 380.763 -0.240491 -0.714619 0
M  V30 3913 H 383.414 -1.1942 -1.39324 0
M  V30 3914 H 381.796 -0.504027 -3.92779 0
M  V30 3915 H 382.97 -3.27858 -3.23799 0
M  V30 3916 H 381.285 -2.84937 -3.03644 0
M  V30 3917 H 383.882 -1.13359 -5.22546 0
M  V30 3918 H 384.225 0.205461 -4.15793 0
M  V30 3919 H 384.758 -1.43341 -3.71077 0
M  V30 3920 H 381.497 -4.06864 -5.13947 0
M  V30 3921 H 381.017 -2.3943 -5.49939 0
M  V30 3922 H 382.696 -2.92224 -5.77247 0
M  V30 3923 N 382.828 1.3818 -0.7579 0
M  V30 3924 C 383.738 2.3421 -0.135247 0
M  V30 3925 C 384.754 1.59487 0.695683 0
M  V30 3926 O 385.93 1.91657 0.618832 0
M  V30 3927 C 382.995 3.3862 0.744139 0
M  V30 3928 C 382.056 4.2918 -0.101658 0
M  V30 3929 C 381.289 5.28603 0.735851 0
M  V30 3930 O 381.512 5.35166 1.97366 0
M  V30 3931 O 380.446 6.01707 0.152372 0
M  V30 3932 H 384.272 2.8916 -0.928436 0
M  V30 3933 H 381.857 1.40101 -0.518855 0
M  V30 3934 H 383.739 4.02539 1.2466 0
M  V30 3935 H 382.414 2.86019 1.51575 0
M  V30 3936 H 381.321 3.68407 -0.650167 0
M  V30 3937 H 382.654 4.85048 -0.836024 0
M  V30 3938 N 384.306 0.507319 1.49211 0
M  V30 3939 C 385.555 -0.0368315 2.01666 0
M  V30 3940 C 385.868 -1.37459 1.39156 0
M  V30 3941 O 387.074 -2.00579 1.82976 0
M  V30 3942 C 385.53 -0.116089 3.59713 0
M  V30 3943 C 385.138 1.2154 4.31198 0
M  V30 3944 C 386.882 -0.610268 4.2009 0
M  V30 3945 C 384.789 1.09796 5.81119 0
M  V30 3946 H 383.719 -0.0175376 0.753796 0
M  V30 3947 H 386.37 0.647691 1.71689 0
M  V30 3948 H 384.752 -0.8652 3.86433 0
M  V30 3949 H 385.926 1.9783 4.16173 0
M  V30 3950 H 384.241 1.64352 3.82593 0
M  V30 3951 H 386.838 -0.715742 5.29888 0
M  V30 3952 H 387.181 -1.61064 3.8388 0
M  V30 3953 H 387.714 0.0824916 3.97714 0
M  V30 3954 H 384.453 2.0728 6.21864 0
M  V30 3955 H 383.973 0.376058 5.9862 0
M  V30 3956 H 385.652 0.779281 6.4229 0
M  V30 3957 N 385.784 -1.5574 0.241426 0
M  V30 3958 C 387.061 -1.90704 -0.434881 0
M  V30 3959 C 387.441 -1.16145 -1.76277 0
M  V30 3960 O 386.789 -0.277152 -2.26813 0
M  V30 3961 C 386.999 -3.43657 -0.608343 0
M  V30 3962 C 388.347 -4.14806 -0.906725 0
M  V30 3963 O 389.371 -3.49366 -0.694408 0
M  V30 3964 O 388.23 -5.30548 -1.31075 0
M  V30 3965 H 385.324 -0.793592 -0.23268 0
M  V30 3966 H 387.87 -1.67288 0.285086 0
M  V30 3967 H 386.642 -3.89927 0.327505 0
M  V30 3968 H 386.265 -3.72918 -1.37906 0
M  V30 3969 N 387.262 0.0317525 -1.57568 0
M  V30 3970 C 388.192 1.03274 -2.0942 0
M  V30 3971 C 389.173 1.3788 -0.996143 0
M  V30 3972 O 390.358 1.46811 -1.27122 0
M  V30 3973 C 387.488 2.33448 -2.57137 0
M  V30 3974 C 386.442 2.13091 -3.71182 0
M  V30 3975 C 385.768 3.49001 -4.05095 0
M  V30 3976 C 387.068 1.51928 -4.99715 0
M  V30 3977 H 388.762 0.60112 -2.93303 0
M  V30 3978 H 386.308 0.287705 -1.41097 0
M  V30 3979 H 388.261 3.03802 -2.92032 0
M  V30 3980 H 386.985 2.78665 -1.70333 0
M  V30 3981 H 385.644 1.45171 -3.36632 0
M  V30 3982 H 385.292 3.91862 -3.15362 0
M  V30 3983 H 384.992 3.36207 -4.81911 0
M  V30 3984 H 386.516 4.20721 -4.42522 0
M  V30 3985 H 387.93 2.12196 -5.32584 0
M  V30 3986 H 386.327 1.49716 -5.81124 0
M  V30 3987 H 387.397 0.484811 -4.8247 0
M  V30 3988 N 388.74 1.54641 0.303973 0
M  V30 3989 C 389.988 1.73437 1.0375 0
M  V30 3990 C 390.309 0.521449 1.87899 0
M  V30 3991 O 389.579 -0.46432 1.90318 0
M  V30 3992 H 388.159 0.639518 0.386039 0
M  V30 3993 H 390.821 1.91988 0.335675 0
M  V30 3994 H 389.917 2.62235 1.69231 0
M  V30 3995 N 390.218 -0.567019 1.47046 0
M  V30 3996 C 391.495 -1.3276 1.43646 0
M  V30 3997 C 391.875 -2.1071 0.128186 0
M  V30 3998 O 391.223 -2.10441 -0.890326 0
M  V30 3999 C 391.433 -2.2404 2.67595 0
M  V30 4000 C 392.781 -2.85372 3.14401 0
M  V30 4001 O 393.805 -2.34346 2.68254 0
M  V30 4002 O 392.664 -3.78091 3.946 0
M  V30 4003 H 389.758 -0.597293 0.571988 0
M  V30 4004 H 392.304 -0.586735 1.59234 0
M  V30 4005 H 391.076 -1.65975 3.54356 0
M  V30 4006 H 390.699 -3.05439 2.54544 0
M  V30 4007 N 391.696 -1.35014 -0.812953 0
M  V30 4008 C 392.921 -1.31187 -1.60639 0
M  V30 4009 C 393.346 0.109382 -1.87782 0
M  V30 4010 O 392.704 1.07424 -1.46047 0
M  V30 4011 C 392.752 -2.11809 -2.91838 0
M  V30 4012 O 391.856 -1.49444 -3.8437 0
M  V30 4013 H 391.197 -0.450084 -0.488181 0
M  V30 4014 H 393.727 -1.77963 -1.00947 0
M  V30 4015 H 393.737 -2.23531 -3.41318 0
M  V30 4016 H 392.412 -3.15137 -2.71407 0
M  V30 4017 H 390.989 -1.46524 -3.42907 0
M  V30 4018 N 393.175 1.03435 -1.18907 0
M  V30 4019 C 394.423 1.76394 -0.986382 0
M  V30 4020 C 394.744 1.88883 0.484567 0
M  V30 4021 O 394.014 1.41843 1.3512 0
M  V30 4022 H 392.594 0.65344 -0.361975 0
M  V30 4023 H 395.256 1.248 -1.49703 0
M  V30 4024 H 394.352 2.77424 -1.42978 0
M  V30 4025 N 394.653 0.992116 1.22453 0
M  V30 4026 C 395.586 0.486701 2.22949 0
M  V30 4027 C 396.564 -0.45259 1.56174 0
M  V30 4028 O 397.748 -0.378317 1.84665 0
M  V30 4029 C 394.875 -0.294537 3.37417 0
M  V30 4030 C 393.921 0.590628 4.22391 0
M  V30 4031 S 394.754 2.04546 4.94895 0
M  V30 4032 C 395.91 1.27369 6.12803 0
M  V30 4033 H 396.143 1.33828 2.65475 0
M  V30 4034 H 393.676 0.799023 1.32117 0
M  V30 4035 H 395.634 -0.739241 4.03789 0
M  V30 4036 H 394.295 -1.12139 2.934 0
M  V30 4037 H 393.488 -0.0104375 5.03999 0
M  V30 4038 H 393.09 0.972064 3.61147 0
M  V30 4039 H 395.382 0.540943 6.75337 0
M  V30 4040 H 396.325 2.06502 6.7732 0
M  V30 4041 H 396.733 0.787324 5.58983 0
M  V30 4042 N 396.131 -1.37776 0.765217 0
M  V30 4043 C 397.547 -1.53297 0.444108 0
M  V30 4044 C 397.747 -1.72515 -1.04119 0
M  V30 4045 O 396.803 -1.74278 -1.82711 0
M  V30 4046 C 398.116 -2.73328 1.25349 0
M  V30 4047 C 399.664 -2.87185 1.24473 0
M  V30 4048 C 400.139 -4.10191 2.03733 0
M  V30 4049 N 401.63 -4.17291 2.01053 0
M  V30 4050 C 402.365 -5.11488 2.59166 0
M  V30 4051 N 401.861 -6.11285 3.26041 0
M  V30 4052 N 403.654 -5.03924 2.49032 0
M  V30 4053 H 395.805 -1.23552 1.72768 0
M  V30 4054 H 398.068 -0.601103 0.733062 0
M  V30 4055 H 397.774 -2.6557 2.30577 0
M  V30 4056 H 397.648 -3.66834 0.87823 0
M  V30 4057 H 400.035 -2.94418 0.20047 0
M  V30 4058 H 400.116 -1.94657 1.65959 0
M  V30 4059 H 399.76 -4.0372 3.08176 0
M  V30 4060 H 399.69 -5.01821 1.59633 0
M  V30 4061 H 402.181 -3.45825 1.5236 0
M  V30 4062 H 402.494 -6.79678 3.67774 0
M  V30 4063 H 400.839 -6.11583 3.30138 0
M  V30 4064 H 404.03 -4.24902 1.96407 0
M  V30 4065 H 404.203 -5.77152 2.94617 0
M  V30 4066 N 397.609 -0.515225 -1.4894 0
M  V30 4067 C 398.839 0.0205735 -2.0659 0
M  V30 4068 C 399.247 1.30064 -1.37405 0
M  V30 4069 O 398.59 1.78087 -0.450632 0
M  V30 4070 C 398.652 0.330124 -3.57981 0
M  V30 4071 C 398.316 -0.854295 -4.48944 0
M  V30 4072 C 399.313 -1.7487 -4.89609 0
M  V30 4073 C 396.998 -1.05712 -4.9105 0
M  V30 4074 C 398.992 -2.82996 -5.71132 0
M  V30 4075 C 396.679 -2.14154 -5.72347 0
M  V30 4076 C 397.677 -3.0263 -6.12294 0
M  V30 4077 O 397.365 -4.09198 -6.91962 0
M  V30 4078 H 397.097 -0.0236833 -0.675585 0
M  V30 4079 H 399.651 -0.715956 -1.92518 0
M  V30 4080 H 397.881 1.12044 -3.70112 0
M  V30 4081 H 399.57 0.806233 -3.97812 0
M  V30 4082 H 400.336 -1.60388 -4.57712 0
M  V30 4083 H 396.215 -0.377788 -4.59449 0
M  V30 4084 H 399.759 -3.52083 -6.02232 0
M  V30 4085 H 395.656 -2.28626 -6.03656 0
M  V30 4086 H 396.424 -4.06726 -7.10293 0
M  V30 4087 N 399.087 1.5561 -0.249682 0
M  V30 4088 C 400.019 2.18834 0.681496 0
M  V30 4089 C 401.032 1.16546 1.1367 0
M  V30 4090 O 402.221 1.43397 1.06299 0
M  V30 4091 C 399.321 2.77992 1.9384 0
M  V30 4092 C 398.494 4.05725 1.63419 0
M  V30 4093 C 397.553 4.49174 2.74096 0
M  V30 4094 O 396.579 5.15492 2.41364 0
M  V30 4095 N 397.781 4.17191 4.03649 0
M  V30 4096 H 400.546 2.9937 0.140514 0
M  V30 4097 H 398.107 1.6175 -0.0697541 0
M  V30 4098 H 400.099 3.04015 2.67127 0
M  V30 4099 H 398.669 2.01596 2.38909 0
M  V30 4100 H 397.889 3.87261 0.736358 0
M  V30 4101 H 399.177 4.88999 1.40562 0
M  V30 4102 H 398.575 3.63955 4.33074 0
M  V30 4103 H 397.132 4.48043 4.73393 0
M  V30 4104 N 400.565 -0.0233959 1.57583 0
M  V30 4105 C 401.976 -0.56927 1.77809 0
M  V30 4106 C 402.327 -1.75284 0.881472 0
M  V30 4107 O 401.452 -2.1626 0.0777805 0
M  V30 4108 C 402.047 -1.03949 3.22459 0
M  V30 4109 C 400.606 -1.53084 3.43864 0
M  V30 4110 C 399.753 -0.471454 2.73263 0
M  V30 4111 H 402.704 0.202825 1.57399 0
M  V30 4112 H 402.725 -1.90661 3.29285 0
M  V30 4113 H 402.237 -0.177865 3.87692 0
M  V30 4114 H 400.338 -2.41414 2.83814 0
M  V30 4115 H 400.451 -1.57443 4.52491 0
M  V30 4116 H 398.815 -0.927788 2.37201 0
M  V30 4117 H 399.598 0.380808 3.41181 0
M  V30 4118 N 402.043 -1.548 -0.295768 0
M  V30 4119 C 403.291 -1.73985 -1.02828 0
M  V30 4120 C 403.612 -0.531406 -1.87619 0
M  V30 4121 O 402.882 0.454221 -1.90561 0
M  V30 4122 H 401.462 -0.641556 -0.382642 0
M  V30 4123 H 404.124 -1.92163 -0.325489 0
M  V30 4124 H 403.22 -2.63129 -1.67838 0
M  V30 4125 N 403.521 0.559213 -1.47345 0
M  V30 4126 C 404.798 1.31997 -1.44348 0
M  V30 4127 C 405.178 2.1064 -0.139358 0
M  V30 4128 O 404.526 2.1091 0.879153 0
M  V30 4129 C 404.736 2.22618 -2.68779 0
M  V30 4130 C 406.084 2.83701 -3.1591 0
M  V30 4131 O 407.108 2.32921 -2.69493 0
M  V30 4132 O 405.967 3.75993 -3.966 0
M  V30 4133 H 403.061 0.594251 -0.575147 0
M  V30 4134 H 405.607 0.578282 -1.59543 0
M  V30 4135 H 404.379 1.64093 -3.55231 0
M  V30 4136 H 404.002 3.04085 -2.5616 0
M  V30 4137 N 404.999 1.35443 0.805782 0
M  V30 4138 C 405.962 1.28301 1.89925 0
M  V30 4139 C 406.962 0.194285 1.59622 0
M  V30 4140 O 408.152 0.448036 1.6834 0
M  V30 4141 C 405.284 0.984997 3.2636 0
M  V30 4142 H 406.477 2.2553 1.97677 0
M  V30 4143 H 404.03 1.19979 1.00173 0
M  V30 4144 H 404.765 0.016603 3.24296 0
M  V30 4145 H 404.55 1.77269 3.4974 0
M  V30 4146 H 406.04 0.960651 4.064 0
M  V30 4147 N 406.477 -1.02803 1.19454 0
M  V30 4148 C 407.407 -2.12999 0.956758 0
M  V30 4149 C 408.388 -1.69743 -0.110188 0
M  V30 4150 O 409.573 -1.94148 0.0450038 0
M  V30 4151 C 406.703 -3.43746 0.495553 0
M  V30 4152 C 405.657 -4.00688 1.50443 0
M  V30 4153 C 404.983 -5.27067 0.900275 0
M  V30 4154 C 406.283 -4.35397 2.8849 0
M  V30 4155 H 407.977 -2.33148 1.87836 0
M  V30 4156 H 405.523 -1.12045 0.904539 0
M  V30 4157 H 407.476 -4.2021 0.316493 0
M  V30 4158 H 406.2 -3.23321 -0.461646 0
M  V30 4159 H 404.859 -3.2632 1.67065 0
M  V30 4160 H 404.507 -5.02959 -0.064503 0
M  V30 4161 H 404.207 -5.66127 1.57397 0
M  V30 4162 H 405.731 -6.06196 0.73203 0
M  V30 4163 H 407.145 -5.02795 2.75446 0
M  V30 4164 H 405.542 -4.85541 3.52661 0
M  V30 4165 H 406.612 -3.44662 3.41081 0
M  V30 4166 N 407.956 -0.998596 -1.21925 0
M  V30 4167 C 409.204 -0.676325 -1.90448 0
M  V30 4168 C 409.525 0.794719 -1.78071 0
M  V30 4169 O 408.795 1.5701 -1.17152 0
M  V30 4170 H 407.375 -0.247165 -0.704925 0
M  V30 4171 H 410.037 -1.26633 -1.48156 0
M  V30 4172 H 409.133 -0.943858 -2.97486 0
M  V30 4173 N 409.434 1.37368 -0.772513 0
M  V30 4174 C 410.68 1.99969 -0.337681 0
M  V30 4175 C 411.013 1.61184 1.08321 0
M  V30 4176 O 410.288 0.858395 1.74533 0
M  V30 4177 C 410.571 3.56858 -0.482121 0
M  V30 4178 C 410.424 4.0555 -1.94549 0
M  V30 4179 C 411.743 4.39955 0.113143 0
M  V30 4180 H 408.862 0.726464 -0.124171 0
M  V30 4181 H 411.504 1.63034 -0.975699 0
M  V30 4182 H 409.654 3.88452 0.0610361 0
M  V30 4183 H 411.326 3.84518 -2.54841 0
M  V30 4184 H 409.569 3.57715 -2.45403 0
M  V30 4185 H 410.24 5.14587 -1.9976 0
M  V30 4186 H 412.716 4.14623 -0.35031 0
M  V30 4187 H 411.592 5.48897 -0.0180514 0
M  V30 4188 H 411.853 4.25403 1.20354 0
M  V30 4189 N 410.912 0.523116 1.48665 0
M  V30 4190 C 412.158 -0.00540031 2.03399 0
M  V30 4191 C 412.513 -1.3264 1.39372 0
M  V30 4192 O 411.806 -1.84184 0.527916 0
M  V30 4193 C 412 -0.191671 3.56886 0
M  V30 4194 C 411.829 1.10972 4.35793 0
M  V30 4195 C 410.599 1.66769 4.76987 0
M  V30 4196 C 412.797 2.01861 4.73029 0
M  V30 4197 N 410.779 2.91268 5.40404 0
M  V30 4198 C 412.15 3.10937 5.36394 0
M  V30 4199 C 414.205 2.02271 4.54962 0
M  V30 4200 C 412.908 4.20478 5.83601 0
M  V30 4201 C 414.934 3.10802 5.03146 0
M  V30 4202 C 414.296 4.18597 5.6653 0
M  V30 4203 H 410.395 0.0393531 0.781009 0
M  V30 4204 H 412.979 0.702876 1.8157 0
M  V30 4205 H 411.15 -0.869025 3.78553 0
M  V30 4206 H 412.882 -0.719177 3.98259 0
M  V30 4207 H 409.637 1.20996 4.57883 0
M  V30 4208 H 410.061 3.54635 5.76683 0
M  V30 4209 H 414.703 1.2023 4.05345 0
M  V30 4210 H 412.421 5.03303 6.32228 0
M  V30 4211 H 416.007 3.12166 4.90962 0
M  V30 4212 H 414.887 5.01193 6.03138 0
M  V30 4213 N 412.39 -1.55475 0.257931 0
M  V30 4214 C 413.62 -2.03314 -0.367026 0
M  V30 4215 C 414.028 -1.13625 -1.51281 0
M  V30 4216 O 413.371 -0.145334 -1.83124 0
M  V30 4217 C 413.433 -3.47362 -0.926284 0
M  V30 4218 C 413.097 -4.56914 0.0886584 0
M  V30 4219 C 414.094 -5.12013 0.902123 0
M  V30 4220 C 411.779 -5.01827 0.217936 0
M  V30 4221 C 413.773 -6.10529 1.83122 0
M  V30 4222 C 411.46 -6.00172 1.15052 0
M  V30 4223 C 412.458 -6.54402 1.95568 0
M  V30 4224 O 412.146 -7.50827 2.87253 0
M  V30 4225 H 411.878 -0.669976 -0.0900443 0
M  V30 4226 H 414.432 -2.01804 0.382673 0
M  V30 4227 H 412.662 -3.46056 -1.72575 0
M  V30 4228 H 414.351 -3.78637 -1.46249 0
M  V30 4229 H 415.117 -4.78139 0.812891 0
M  V30 4230 H 410.996 -4.59272 -0.398721 0
M  V30 4231 H 414.54 -6.52783 2.46008 0
M  V30 4232 H 410.437 -6.33465 1.24064 0
M  V30 4233 H 411.205 -7.68483 2.81739 0
M  V30 4234 N 413.868 0.0150385 -1.57593 0
M  V30 4235 C 414.8 1.03912 -2.04291 0
M  V30 4236 C 415.813 1.31618 -0.958146 0
M  V30 4237 O 417.002 1.28859 -1.23522 0
M  V30 4238 C 414.102 2.37749 -2.41514 0
M  V30 4239 C 413.275 2.29198 -3.72541 0
M  V30 4240 C 412.334 3.45598 -3.96797 0
M  V30 4241 O 411.36 3.24461 -4.67668 0
M  V30 4242 N 412.562 4.67945 -3.43523 0
M  V30 4243 H 415.327 0.64099 -2.92765 0
M  V30 4244 H 412.888 0.20272 -1.60626 0
M  V30 4245 H 414.88 3.14364 -2.54867 0
M  V30 4246 H 413.45 2.69357 -1.58637 0
M  V30 4247 H 412.67 1.3759 -3.69408 0
M  V30 4248 H 413.958 2.20642 -4.5847 0
M  V30 4249 H 413.356 4.88017 -2.86104 0
M  V30 4250 H 411.913 5.41878 -3.62232 0
M  V30 4251 N 415.346 1.54954 0.287554 0
M  V30 4252 C 416.294 1.87606 1.37502 0
M  V30 4253 C 417.288 0.751001 1.51843 0
M  V30 4254 O 418.494 0.935169 1.53801 0
M  V30 4255 H 414.869 0.595231 0.459569 0
M  V30 4256 H 416.84 2.78477 1.07206 0
M  V30 4257 C 415.589 2.15183 2.73115 0
M  V30 4258 H 414.912 3.01234 2.62866 0
M  V30 4259 H 416.352 2.4196 3.48183 0
M  V30 4260 C 414.811 0.954686 3.2309 0
M  V30 4261 O 415.341 0.181949 4.01288 0
M  V30 4262 N 413.547 0.756368 2.80584 0
M  V30 4263 H 413.094 1.38643 2.17108 0
M  V30 4264 H 413.052 -0.0430391 3.14371 0
M  V30 4265 N 416.824 -0.551391 1.4764 0
M  V30 4266 C 418.101 -1.31229 1.45046 0
M  V30 4267 C 418.481 -2.10563 0.150527 0
M  V30 4268 O 417.829 -2.11374 -0.867956 0
M  V30 4269 C 418.039 -2.21189 2.69956 0
M  V30 4270 C 419.387 -2.82021 3.1741 0
M  V30 4271 O 420.411 -2.31488 2.70724 0
M  V30 4272 O 419.27 -3.73885 3.98588 0
M  V30 4273 H 416.364 -0.591193 0.578291 0
M  V30 4274 H 418.91 -0.569813 1.59847 0
M  V30 4275 H 417.682 -1.62207 3.56096 0
M  V30 4276 H 417.305 -3.02722 2.57769 0
M  V30 4277 N 418.302 -1.35869 -0.798587 0
M  V30 4278 C 419.713 -1.26498 -1.37314 0
M  V30 4279 C 420.064 0.0991899 -1.95949 0
M  V30 4280 O 419.189 1.0004 -1.91888 0
M  V30 4281 C 419.784 -2.29054 -2.49639 0
M  V30 4282 C 418.343 -2.234 -3.02935 0
M  V30 4283 C 417.49 -2.14329 -1.75949 0
M  V30 4284 H 420.441 -1.46881 -0.600971 0
M  V30 4285 H 420.462 -1.92166 -3.28409 0
M  V30 4286 H 419.974 -3.2833 -2.06933 0
M  V30 4287 H 418.075 -1.27562 -3.50084 0
M  V30 4288 H 418.188 -3.15703 -3.60372 0
M  V30 4289 H 416.552 -1.60435 -1.9782 0
M  V30 4290 H 417.335 -3.15477 -1.35384 0
M  V30 4291 N 419.78 1.02168 -1.19998 0
M  V30 4292 C 420.743 2.08765 -0.94604 0
M  V30 4293 C 421.743 1.60618 0.0763846 0
M  V30 4294 O 422.933 1.73472 -0.159135 0
M  V30 4295 C 420.065 3.38262 -0.423255 0
M  V30 4296 H 421.258 2.32726 -1.89153 0
M  V30 4297 H 418.811 1.1889 -1.01464 0
M  V30 4298 H 419.546 3.19974 0.527938 0
M  V30 4299 H 419.331 3.74532 -1.16053 0
M  V30 4300 H 420.821 4.16759 -0.264911 0
M  V30 4301 N 421.258 1.00505 1.21394 0
M  V30 4302 C 422.188 0.585684 2.26035 0
M  V30 4303 C 423.169 -0.393525 1.65485 0
M  V30 4304 O 424.354 -0.281497 1.92149 0
M  V30 4305 C 421.484 -0.0884283 3.47187 0
M  V30 4306 C 420.438 0.810567 4.20254 0
M  V30 4307 C 419.764 0.00286382 5.347 0
M  V30 4308 C 421.064 2.1132 4.77641 0
M  V30 4309 H 422.758 1.46039 2.61368 0
M  V30 4310 H 420.304 0.703648 1.25638 0
M  V30 4311 H 422.257 -0.393286 4.19561 0
M  V30 4312 H 420.981 -0.997766 3.10986 0
M  V30 4313 H 419.64 1.09925 3.49731 0
M  V30 4314 H 419.288 -0.907765 4.94741 0
M  V30 4315 H 418.988 0.601444 5.84514 0
M  V30 4316 H 420.512 -0.295808 6.09883 0
M  V30 4317 H 421.926 1.87148 5.41893 0
M  V30 4318 H 420.323 2.66164 5.37845 0
M  V30 4319 H 421.393 2.78393 3.9702 0
M  V30 4320 N 422.737 -1.36956 0.779787 0
M  V30 4321 C 423.983 -1.99787 0.348281 0
M  V30 4322 C 424.316 -1.61756 -1.07465 0
M  V30 4323 O 423.591 -0.867639 -1.74075 0
M  V30 4324 C 423.874 -3.56597 0.50104 0
M  V30 4325 C 423.727 -4.04513 1.96697 0
M  V30 4326 C 425.046 -4.40008 -0.0898097 0
M  V30 4327 H 422.165 -0.725796 0.128022 0
M  V30 4328 H 424.807 -1.62514 0.984331 0
M  V30 4329 H 422.957 -3.88479 -0.0404347 0
M  V30 4330 H 424.629 -3.83161 2.56876 0
M  V30 4331 H 422.872 -3.56408 2.47297 0
M  V30 4332 H 423.543 -5.1352 2.02486 0
M  V30 4333 H 426.019 -4.14431 0.372293 0
M  V30 4334 H 424.895 -5.4888 0.0471605 0
M  V30 4335 H 425.156 -4.26035 -1.18096 0
M  V30 4336 N 424.215 -0.530993 -1.48385 0
M  V30 4337 C 425.162 0.231223 -2.29639 0
M  V30 4338 C 426.132 0.932864 -1.37429 0
M  V30 4339 O 427.317 0.933692 -1.66394 0
M  V30 4340 C 424.457 1.27155 -3.2082 0
M  V30 4341 C 423.57 0.578655 -4.28107 0
M  V30 4342 C 422.705 1.602 -5.06467 0
M  V30 4343 C 421.744 0.892625 -6.05556 0
M  V30 4344 N 420.881 1.86157 -6.76971 0
M  V30 4345 H 425.721 -0.467848 -2.94305 0
M  V30 4346 H 423.258 -0.242556 -1.45086 0
M  V30 4347 H 425.216 1.88703 -3.72085 0
M  V30 4348 H 423.846 1.939 -2.58075 0
M  V30 4349 H 422.898 -0.150782 -3.80101 0
M  V30 4350 H 424.21 0.0217065 -4.98795 0
M  V30 4351 H 423.364 2.29173 -5.61751 0
M  V30 4352 H 422.103 2.19285 -4.35621 0
M  V30 4353 H 421.108 0.188829 -5.49476 0
M  V30 4354 H 422.333 0.307878 -6.78402 0
M  V30 4355 H 420.279 2.44147 -6.08875 0
M  V30 4356 H 420.196 1.35608 -7.43738 0
M  V30 4357 H 421.464 2.54325 -7.36844 0
M  V30 4358 N 425.693 1.55336 -0.266172 0
M  V30 4359 C 426.603 2.2583 0.635458 0
M  V30 4360 C 427.619 1.28106 1.17749 0
M  V30 4361 O 428.795 1.61024 1.20968 0
M  V30 4362 C 425.86 2.95879 1.80712 0
M  V30 4363 C 424.921 4.09059 1.30265 0
M  V30 4364 C 424.154 4.75759 2.41846 0
M  V30 4365 O 424.377 4.41622 3.61007 0
M  V30 4366 O 423.311 5.63888 2.1051 0
M  V30 4367 H 427.137 3.03631 0.0646693 0
M  V30 4368 H 424.722 1.49361 -0.0339177 0
M  V30 4369 H 426.604 3.39932 2.49047 0
M  V30 4370 H 425.279 2.21002 2.36516 0
M  V30 4371 H 424.186 3.69482 0.586019 0
M  V30 4372 H 425.519 4.85811 0.790458 0
M  V30 4373 N 427.171 -0.0066808 1.57599 0
M  V30 4374 C 428.101 -0.999296 2.11036 0
M  V30 4375 C 429.082 -1.36278 1.01795 0
M  V30 4376 O 430.267 -1.4477 1.29442 0
M  V30 4377 C 427.397 -2.29328 2.60818 0
M  V30 4378 C 426.351 -2.07159 3.74525 0
M  V30 4379 C 425.677 -3.42512 4.10596 0
M  V30 4380 C 426.977 -1.43959 5.02069 0
M  V30 4381 H 428.671 -0.554382 2.94223 0
M  V30 4382 H 426.217 -0.265221 1.41536 0
M  V30 4383 H 428.17 -2.99117 2.96828 0
M  V30 4384 H 426.894 -2.7592 1.74745 0
M  V30 4385 H 425.553 -1.39797 3.38899 0
M  V30 4386 H 425.201 -3.86795 3.21556 0
M  V30 4387 H 424.901 -3.28498 4.87199 0
M  V30 4388 H 426.425 -4.13628 4.4916 0
M  V30 4389 H 427.839 -2.03696 5.35893 0
M  V30 4390 H 426.236 -1.40452 5.83432 0
M  V30 4391 H 427.306 -0.407992 4.83181 0
M  V30 4392 N 428.649 -1.55105 -0.279332 0
M  V30 4393 C 429.895 -1.75672 -1.01327 0
M  V30 4394 C 430.228 -0.552739 -1.86168 0
M  V30 4395 O 429.503 0.449827 -1.89227 0
M  V30 4396 C 429.786 -3.05825 -1.90114 0
M  V30 4397 C 429.639 -4.36565 -1.08309 0
M  V30 4398 C 430.958 -3.31975 -2.8893 0
M  V30 4399 H 428.077 -0.639149 -0.366957 0
M  V30 4400 H 430.719 -1.87833 -0.286154 0
M  V30 4401 H 428.869 -2.95588 -2.52111 0
M  V30 4402 H 430.541 -4.58751 -0.484314 0
M  V30 4403 H 428.784 -4.32076 -0.386362 0
M  V30 4404 H 429.455 -5.23946 -1.73737 0
M  V30 4405 H 431.931 -3.41963 -2.37067 0
M  V30 4406 H 430.807 -4.2432 -3.48201 0
M  V30 4407 H 431.068 -2.51309 -3.63725 0
M  V30 4408 N 430.127 0.543554 -1.4793 0
M  V30 4409 C 431.037 1.67657 -1.64098 0
M  V30 4410 C 432.053 1.65934 -0.523622 0
M  V30 4411 O 433.229 1.85133 -0.792943 0
M  V30 4412 C 430.294 3.04146 -1.66421 0
M  V30 4413 C 429.355 3.16831 -2.89684 0
M  V30 4414 C 428.588 4.46809 -2.91886 0
M  V30 4415 O 428.811 5.33095 -2.02895 0
M  V30 4416 O 427.745 4.63573 -3.83906 0
M  V30 4417 H 431.571 1.56957 -2.59997 0
M  V30 4418 H 429.156 0.715116 -1.31173 0
M  V30 4419 H 431.038 3.85346 -1.70548 0
M  V30 4420 H 429.713 3.152 -0.736923 0
M  V30 4421 H 428.62 2.34977 -2.91095 0
M  V30 4422 H 429.953 3.10687 -3.81752 0
M  V30 4423 N 431.605 1.3629 0.791371 0
M  V30 4424 C 432.535 1.33137 1.91825 0
M  V30 4425 C 433.516 0.203168 1.68882 0
M  V30 4426 O 434.701 0.400509 1.90025 0
M  V30 4427 C 431.831 1.11793 3.28816 0
M  V30 4428 C 430.785 2.21417 3.66277 0
M  V30 4429 C 430.111 1.85218 5.01596 0
M  V30 4430 C 431.411 3.63489 3.75064 0
M  V30 4431 H 433.105 2.2743 1.9472 0
M  V30 4432 H 430.651 1.09479 0.935437 0
M  V30 4433 H 432.604 1.08222 4.07266 0
M  V30 4434 H 431.328 0.139501 3.26302 0
M  V30 4435 H 429.987 2.2411 2.90121 0
M  V30 4436 H 429.635 0.859544 4.95602 0
M  V30 4437 H 429.335 2.58611 5.27631 0
M  V30 4438 H 430.859 1.832 5.82469 0
M  V30 4439 H 432.273 3.63034 4.43711 0
M  V30 4440 H 430.67 4.35771 4.12582 0
M  V30 4441 H 431.74 3.98536 2.76219 0
M  V30 4442 N 433.083 -1.0153 1.20538 0
M  V30 4443 C 434.013 -2.11972 0.979295 0
M  V30 4444 C 434.994 -1.6985 -0.0921787 0
M  V30 4445 O 436.179 -1.94089 0.0655932 0
M  V30 4446 C 433.309 -3.43201 0.531984 0
M  V30 4447 C 432.263 -3.9907 1.54685 0
M  V30 4448 C 431.589 -5.26082 0.956127 0
M  V30 4449 C 432.889 -4.32313 2.93092 0
M  V30 4450 H 434.583 -2.31143 1.90298 0
M  V30 4451 H 432.129 -1.11079 0.916372 0
M  V30 4452 H 434.082 -4.1985 0.361044 0
M  V30 4453 H 432.806 -3.23792 -0.427327 0
M  V30 4454 H 431.465 -3.2453 1.70517 0
M  V30 4455 H 431.113 -5.02999 -0.0111538 0
M  V30 4456 H 430.813 -5.64426 1.63393 0
M  V30 4457 H 432.337 -6.05386 0.796284 0
M  V30 4458 H 433.751 -4.99845 2.80763 0
M  V30 4459 H 432.148 -4.81774 3.57791 0
M  V30 4460 H 433.218 -3.41025 3.44717 0
M  V30 4461 N 434.561 -1.01147 -1.20859 0
M  V30 4462 C 435.807 -0.708598 -1.90658 0
M  V30 4463 C 436.162 0.753069 -1.7705 0
M  V30 4464 O 435.455 1.53952 -1.14059 0
M  V30 4465 C 435.649 -1.0727 -3.40922 0
M  V30 4466 C 435.478 -2.56821 -3.69152 0
M  V30 4467 C 434.248 -3.23524 -3.8815 0
M  V30 4468 C 436.446 -3.54997 -3.72131 0
M  V30 4469 N 434.428 -4.62359 -4.03853 0
M  V30 4470 C 435.799 -4.79371 -3.93196 0
M  V30 4471 C 437.854 -3.49042 -3.55069 0
M  V30 4472 C 436.557 -5.98512 -3.98969 0
M  V30 4473 C 438.583 -4.67579 -3.6211 0
M  V30 4474 C 437.945 -5.9076 -3.83643 0
M  V30 4475 H 434.044 -0.31088 -0.71755 0
M  V30 4476 H 436.628 -1.29526 -1.45366 0
M  V30 4477 H 434.799 -0.51443 -3.84978 0
M  V30 4478 H 436.531 -0.723891 -3.98173 0
M  V30 4479 H 433.286 -2.73958 -3.86321 0
M  V30 4480 H 433.71 -5.34427 -4.15592 0
M  V30 4481 H 438.352 -2.54808 -3.37391 0
M  V30 4482 H 436.07 -6.93132 -4.15444 0
M  V30 4483 H 439.656 -4.64581 -3.50222 0
M  V30 4484 H 438.536 -6.8095 -3.88944 0
M  V30 4485 N 436.039 1.36541 -0.78704 0
M  V30 4486 C 436.969 2.32659 -0.197992 0
M  V30 4487 C 437.95 1.56533 0.665697 0
M  V30 4488 O 439.135 1.84698 0.60001 0
M  V30 4489 C 436.265 3.40778 0.669901 0
M  V30 4490 C 435.219 4.27897 -0.0937039 0
M  V30 4491 C 434.545 5.27163 0.894629 0
M  V30 4492 C 435.845 5.06334 -1.28154 0
M  V30 4493 H 437.539 2.82171 -1.00099 0
M  V30 4494 H 435.085 1.35665 -0.482793 0
M  V30 4495 H 437.038 4.07008 1.09191 0
M  V30 4496 H 435.762 2.89827 1.50558 0
M  V30 4497 H 434.421 3.6322 -0.49666 0
M  V30 4498 H 434.069 4.72486 1.72527 0
M  V30 4499 H 433.769 5.86317 0.388149 0
M  V30 4500 H 435.293 5.96266 1.31525 0
M  V30 4501 H 436.707 5.65617 -0.93541 0
M  V30 4502 H 435.104 5.74888 -1.72115 0
M  V30 4503 H 436.174 4.38114 -2.07807 0
M  V30 4504 N 437.518 0.538854 1.48102 0
M  V30 4505 C 438.465 -0.219042 2.29758 0
M  V30 4506 C 439.435 -0.925562 1.37922 0
M  V30 4507 O 440.62 -0.924855 1.66886 0
M  V30 4508 C 437.76 -1.25452 3.2149 0
M  V30 4509 C 436.873 -0.555943 4.28408 0
M  V30 4510 C 436.008 -1.57512 5.0731 0
M  V30 4511 C 435.047 -0.860498 6.06021 0
M  V30 4512 N 434.184 -1.82564 6.77949 0
M  V30 4513 H 439.024 0.483449 2.94052 0
M  V30 4514 H 436.561 0.250247 1.44956 0
M  V30 4515 H 438.519 -1.86727 3.7308 0
M  V30 4516 H 437.149 -1.92528 2.591 0
M  V30 4517 H 436.201 0.170938 3.80016 0
M  V30 4518 H 437.513 0.00474616 4.988 0
M  V30 4519 H 436.667 -2.26191 5.62959 0
M  V30 4520 H 435.406 -2.16972 4.36778 0
M  V30 4521 H 434.411 -0.159686 5.49568 0
M  V30 4522 H 435.636 -0.271897 6.78555 0
M  V30 4523 H 433.582 -2.40915 6.10161 0
M  V30 4524 H 433.499 -1.31662 7.44447 0
M  V30 4525 H 434.767 -2.50414 7.38182 0
M  V30 4526 N 438.996 -1.55193 0.274407 0
M  V30 4527 C 440.244 -1.99187 -0.341902 0
M  V30 4528 C 440.565 -1.16422 -1.56431 0
M  V30 4529 O 439.835 -0.253573 -1.94252 0
M  V30 4530 H 438.415 -0.735721 -0.129317 0
M  V30 4531 H 441.077 -1.91168 0.379578 0
M  V30 4532 H 440.173 -3.05629 -0.632253 0
M  V30 4533 N 440.474 -0.00167713 -1.576 0
M  V30 4534 C 441.751 0.719951 -1.81868 0
M  V30 4535 C 442.131 1.91895 -0.879747 0
M  V30 4536 O 441.479 2.28389 0.0711423 0
M  V30 4537 C 441.689 1.12409 -3.30402 0
M  V30 4538 C 443.037 1.52724 -3.96182 0
M  V30 4539 O 444.061 1.21784 -3.34734 0
M  V30 4540 O 442.92 2.10265 -5.04431 0
M  V30 4541 H 440.014 0.350707 -0.748955 0
M  V30 4542 H 442.56 -0.0272597 -1.69678 0
M  V30 4543 H 441.332 0.269532 -3.90371 0
M  V30 4544 H 440.955 1.93035 -3.47596 0
M  V30 4545 N 441.952 1.55251 0.271103 0
M  V30 4546 C 442.862 1.9136 1.35714 0
M  V30 4547 C 443.878 0.811075 1.5394 0
M  V30 4548 O 445.054 1.11031 1.6803 0
M  V30 4549 C 442.119 2.1798 2.69603 0
M  V30 4550 C 441.18 3.4153 2.60107 0
M  V30 4551 C 440.413 3.66871 3.8761 0
M  V30 4552 O 440.636 2.94689 4.8838 0
M  V30 4553 O 439.57 4.60405 3.87699 0
M  V30 4554 H 443.396 2.83815 1.08088 0
M  V30 4555 H 440.981 1.41821 0.469792 0
M  V30 4556 H 442.863 2.36518 3.48765 0
M  V30 4557 H 441.538 1.28708 2.97012 0
M  V30 4558 H 440.445 3.28325 1.79314 0
M  V30 4559 H 441.778 4.31027 2.37647 0
M  V30 4560 N 443.43 -0.535701 1.48216 0
M  V30 4561 C 444.841 -1.11769 1.49548 0
M  V30 4562 C 445.192 -1.94442 0.26207 0
M  V30 4563 O 444.317 -2.06987 -0.631287 0
M  V30 4564 C 444.912 -2.03367 2.70975 0
M  V30 4565 C 443.471 -2.56795 2.75196 0
M  V30 4566 C 442.618 -1.33631 2.42977 0
M  V30 4567 H 445.569 -0.321232 1.55415 0
M  V30 4568 H 445.59 -2.87569 2.49167 0
M  V30 4569 H 445.102 -1.43169 3.60727 0
M  V30 4570 H 443.203 -3.20731 1.89638 0
M  V30 4571 H 443.316 -2.9632 3.76472 0
M  V30 4572 H 441.68 -1.6502 1.94012 0
M  V30 4573 H 442.463 -0.75194 3.34964 0
M  V30 4574 N 444.908 -1.36708 -0.784132 0
M  V30 4575 C 446.154 -1.31426 -1.54451 0
M  V30 4576 C 446.487 0.10476 -1.93917 0
M  V30 4577 O 445.762 1.05934 -1.6312 0
M  V30 4578 C 446.045 -2.24189 -2.818 0
M  V30 4579 C 445.898 -3.74813 -2.48667 0
M  V30 4580 C 447.217 -2.15626 -3.83658 0
M  V30 4581 H 444.336 -0.478739 -0.560337 0
M  V30 4582 H 446.978 -1.67305 -0.900498 0
M  V30 4583 H 445.128 -1.93722 -3.36755 0
M  V30 4584 H 446.8 -4.15823 -1.99722 0
M  V30 4585 H 445.043 -3.93989 -1.81535 0
M  V30 4586 H 445.714 -4.35138 -3.39646 0
M  V30 4587 H 448.19 -2.42456 -3.38163 0
M  V30 4588 H 447.066 -2.82694 -4.70506 0
M  V30 4589 H 447.327 -1.14522 -4.27009 0
M  V30 4590 N 446.386 1.0089 -1.21074 0
M  V30 4591 C 447.614 1.78191 -1.05145 0
M  V30 4592 C 448.029 1.84537 0.398952 0
M  V30 4593 O 447.386 1.30393 1.27687 0
M  V30 4594 C 447.437 3.22288 -1.63746 0
M  V30 4595 O 447.158 3.16315 -3.03111 0
M  V30 4596 C 448.659 4.16106 -1.52875 0
M  V30 4597 H 445.879 0.560129 -0.369454 0
M  V30 4598 H 448.423 1.26945 -1.60328 0
M  V30 4599 H 446.578 3.70655 -1.12664 0
M  V30 4600 H 446.992 4.06817 -3.31059 0
M  V30 4601 H 448.466 5.15026 -1.98626 0
M  V30 4602 H 448.943 4.36541 -0.482521 0
M  V30 4603 H 449.549 3.73625 -2.03185 0
M  V30 4604 N 447.864 1.01787 1.20321 0
M  V30 4605 C 449.11 0.708985 1.90003 0
M  V30 4606 C 449.443 -0.759572 1.78729 0
M  V30 4607 O 448.718 -1.55198 1.17234 0
M  V30 4608 C 449.001 1.1469 3.41348 0
M  V30 4609 C 448.854 2.67586 3.61549 0
M  V30 4610 C 450.173 0.71915 4.34185 0
M  V30 4611 H 447.292 0.259034 0.689978 0
M  V30 4612 H 449.934 1.26584 1.41692 0
M  V30 4613 H 448.084 0.673128 3.82624 0
M  V30 4614 H 449.756 3.22826 3.29517 0
M  V30 4615 H 447.999 3.085 3.04976 0
M  V30 4616 H 448.67 2.93281 4.67643 0
M  V30 4617 H 451.146 1.12647 4.00562 0
M  V30 4618 H 450.022 1.05358 5.38694 0
M  V30 4619 H 450.283 -0.379111 4.40472 0
M  V30 4620 N 449.342 -1.36122 0.79427 0
M  V30 4621 C 450.252 -2.33769 0.197296 0
M  V30 4622 C 451.268 -1.61276 -0.653153 0
M  V30 4623 O 452.444 -1.9323 -0.5678 0
M  V30 4624 C 449.509 -3.40474 -0.654098 0
M  V30 4625 C 448.57 -4.28759 0.215411 0
M  V30 4626 C 447.803 -5.30368 -0.595443 0
M  V30 4627 O 448.026 -5.40211 -1.83107 0
M  V30 4628 O 446.96 -6.019 0.00721351 0
M  V30 4629 H 450.786 -2.86597 1.00478 0
M  V30 4630 H 448.371 -1.38676 0.555818 0
M  V30 4631 H 450.253 -4.05703 -1.13944 0
M  V30 4632 H 448.928 -2.89937 -1.43938 0
M  V30 4633 H 447.835 -3.66554 0.747615 0
M  V30 4634 H 449.168 -4.82661 0.964332 0
M  V30 4635 N 450.82 -0.546701 -1.47814 0
M  V30 4636 C 452.068 -0.0187037 -2.02091 0
M  V30 4637 C 452.389 1.33168 -1.42447 0
M  V30 4638 O 451.659 1.86619 -0.595839 0
M  V30 4639 H 450.239 -0.00392531 -0.74699 0
M  V30 4640 H 452.901 -0.714327 -1.81338 0
M  V30 4641 H 451.997 0.0772219 -3.12004 0
M  V30 4642 N 452.299 1.55045 -0.282633 0
M  V30 4643 C 453.246 2.22822 0.601566 0
M  V30 4644 C 454.216 1.20431 1.14392 0
M  V30 4645 O 455.401 1.48996 1.19184 0
M  V30 4646 C 452.541 2.95873 1.77632 0
M  V30 4647 C 451.654 4.12999 1.26711 0
M  V30 4648 C 450.789 4.73676 2.40426 0
M  V30 4649 C 449.828 5.82981 1.86545 0
M  V30 4650 N 448.965 6.3769 2.93762 0
M  V30 4651 H 453.805 2.97995 0.0169528 0
M  V30 4652 H 451.342 1.471 -0.00339964 0
M  V30 4653 H 453.3 3.36447 2.46697 0
M  V30 4654 H 451.93 2.2311 2.33285 0
M  V30 4655 H 450.982 3.77494 0.469314 0
M  V30 4656 H 452.294 4.91803 0.832518 0
M  V30 4657 H 451.448 5.17008 3.17471 0
M  V30 4658 H 450.187 3.94164 2.87203 0
M  V30 4659 H 449.192 5.39092 1.07983 0
M  V30 4660 H 450.417 6.64366 1.40694 0
M  V30 4661 H 448.363 5.61069 3.39908 0
M  V30 4662 H 448.28 7.11788 2.54744 0
M  V30 4663 H 449.548 6.8568 3.7076 0
M  V30 4664 N 453.777 0.010035 1.57597 0
M  V30 4665 C 455.005 -0.683413 1.95287 0
M  V30 4666 C 455.42 -1.66747 0.885481 0
M  V30 4667 O 454.777 -1.82003 -0.134629 0
M  V30 4668 C 454.828 -1.40652 3.33015 0
M  V30 4669 O 454.549 -0.461916 4.35658 0
M  V30 4670 C 456.05 -2.19356 3.85225 0
M  V30 4671 H 453.27 -0.189708 0.643624 0
M  V30 4672 H 455.814 0.0641359 2.04399 0
M  V30 4673 H 453.969 -2.10562 3.2518 0
M  V30 4674 H 454.383 -0.973215 5.15392 0
M  V30 4675 H 455.857 -2.65433 4.83993 0
M  V30 4676 H 456.334 -3.02457 3.18459 0
M  V30 4677 H 456.94 -1.54442 3.96267 0
M  V30 4678 N 455.255 -1.55392 -0.262866 0
M  V30 4679 C 456.185 -1.91978 -1.32917 0
M  V30 4680 C 457.166 -0.7828 -1.51017 0
M  V30 4681 O 458.351 -1.04178 -1.63892 0
M  V30 4682 C 455.481 -2.20055 -2.68687 0
M  V30 4683 C 454.435 -3.35854 -2.65304 0
M  V30 4684 C 453.761 -3.49435 -4.04721 0
M  V30 4685 C 455.061 -4.71977 -2.23685 0
M  V30 4686 H 456.755 -2.81292 -1.02544 0
M  V30 4687 H 454.301 -1.3534 -0.491846 0
M  V30 4688 H 456.254 -2.44237 -3.43404 0
M  V30 4689 H 454.978 -1.27551 -3.00663 0
M  V30 4690 H 453.637 -3.11655 -1.93045 0
M  V30 4691 H 453.285 -2.54379 -4.33936 0
M  V30 4692 H 452.985 -4.27297 -4.0335 0
M  V30 4693 H 454.509 -3.7592 -4.81161 0
M  V30 4694 H 455.923 -4.95637 -2.88127 0
M  V30 4695 H 454.32 -5.52828 -2.33456 0
M  V30 4696 H 455.39 -4.70115 -1.18827 0
M  V30 4697 N 456.733 0.527833 -1.48498 0
M  V30 4698 C 458.144 1.10975 -1.50138 0
M  V30 4699 C 458.495 1.943 -0.272378 0
M  V30 4700 O 457.62 2.07319 0.620301 0
M  V30 4701 C 458.215 2.01927 -2.72049 0
M  V30 4702 C 456.774 2.55332 -2.76554 0
M  V30 4703 C 455.921 1.32341 -2.43683 0
M  V30 4704 H 458.872 0.312986 -1.55583 0
M  V30 4705 H 458.893 2.86244 -2.50689 0
M  V30 4706 H 458.405 1.41254 -3.61481 0
M  V30 4707 H 456.506 3.19721 -1.91336 0
M  V30 4708 H 456.619 2.94319 -3.78038 0
M  V30 4709 H 454.983 1.63989 -1.94884 0
M  V30 4710 H 455.766 0.734165 -3.35358 0
M  V30 4711 N 458.211 1.37122 0.776871 0
M  V30 4712 C 459.141 1.35164 1.90402 0
M  V30 4713 C 460.122 0.221069 1.68657 0
M  V30 4714 O 461.307 0.420642 1.8959 0
M  V30 4715 C 458.437 1.15274 3.27611 0
M  V30 4716 C 457.391 2.25289 3.63908 0
M  V30 4717 C 456.717 1.90527 4.99603 0
M  V30 4718 C 458.017 3.67446 3.71188 0
M  V30 4719 H 459.711 2.29482 1.92297 0
M  V30 4720 H 457.257 1.10465 0.923773 0
M  V30 4721 H 459.21 1.12536 4.06096 0
M  V30 4722 H 457.934 0.174102 3.26136 0
M  V30 4723 H 456.593 2.27174 2.87728 0
M  V30 4724 H 456.241 0.91206 4.94662 0
M  V30 4725 H 455.941 2.64193 5.24858 0
M  V30 4726 H 457.465 1.89367 5.80493 0
M  V30 4727 H 458.879 3.67719 4.39836 0
M  V30 4728 H 457.276 4.40123 4.07936 0
M  V30 4729 H 458.346 4.01443 2.71977 0
M  V30 4730 N 459.689 -1.00246 1.21608 0
M  V30 4731 C 460.637 -2.11193 0.97469 0
M  V30 4732 C 461.631 -1.69216 -0.0789303 0
M  V30 4733 O 462.837 -1.79853 0.0726806 0
M  V30 4734 H 459.212 -0.690455 0.297953 0
M  V30 4735 H 461.183 -2.2873 1.91638 0
M  V30 4736 C 459.932 -3.43182 0.558717 0
M  V30 4737 H 459.255 -3.75918 1.3611 0
M  V30 4738 H 460.695 -4.21823 0.429154 0
M  V30 4739 C 459.154 -3.28882 -0.730648 0
M  V30 4740 O 459.684 -3.59835 -1.78554 0
M  V30 4741 N 457.89 -2.8209 -0.698131 0
M  V30 4742 H 457.437 -2.57099 0.16061 0
M  V30 4743 H 457.395 -2.72903 -1.56113 0
M  V30 4744 N 461.167 -1.02423 -1.1978 0
M  V30 4745 C 462.077 -0.610919 -2.26506 0
M  V30 4746 C 463.093 0.355152 -1.70337 0
M  V30 4747 O 464.269 0.214195 -2.00258 0
M  V30 4748 C 461.334 0.0365921 -3.46681 0
M  V30 4749 C 460.395 -0.976389 -4.18049 0
M  V30 4750 C 459.628 -0.359683 -5.32487 0
M  V30 4751 O 459.851 0.838601 -5.64202 0
M  V30 4752 O 458.785 -1.08022 -5.92127 0
M  V30 4753 H 462.611 -1.49965 -2.64091 0
M  V30 4754 H 460.196 -0.794156 -1.26545 0
M  V30 4755 H 462.078 0.39786 -4.19518 0
M  V30 4756 H 460.753 0.899398 -3.10954 0
M  V30 4757 H 459.66 -1.38916 -3.47352 0
M  V30 4758 H 460.993 -1.80941 -4.57735 0
M  V30 4759 N 462.645 1.35699 -0.801477 0
M  V30 4760 C 463.608 2.28199 -0.213994 0
M  V30 4761 C 464.608 1.49359 0.595691 0
M  V30 4762 O 465.798 1.69186 0.414921 0
M  V30 4763 C 462.93 3.33587 0.702297 0
M  V30 4764 H 464.123 2.81666 -1.02976 0
M  V30 4765 H 461.676 1.45467 -0.571759 0
M  V30 4766 H 462.411 2.85297 1.54195 0
M  V30 4767 H 462.196 3.91906 0.123484 0
M  V30 4768 H 463.686 4.02638 1.10783 0
M  V30 4769 N 464.123 0.554532 1.47522 0
M  V30 4770 C 465.053 -0.182974 2.32782 0
M  V30 4771 C 466.034 -0.911377 1.43624 0
M  V30 4772 O 467.219 -0.892366 1.72483 0
M  V30 4773 C 464.349 -1.21513 3.25349 0
M  V30 4774 C 463.303 -0.603355 4.23726 0
M  V30 4775 C 462.629 -1.73995 5.05598 0
M  V30 4776 C 463.929 0.441121 5.20434 0
M  V30 4777 H 465.623 0.52882 2.94693 0
M  V30 4778 H 463.169 0.255759 1.41711 0
M  V30 4779 H 465.122 -1.73922 3.83835 0
M  V30 4780 H 463.846 -1.95683 2.61487 0
M  V30 4781 H 462.505 -0.10059 3.66462 0
M  V30 4782 H 462.153 -2.47063 4.38143 0
M  V30 4783 H 461.853 -1.3364 5.72201 0
M  V30 4784 H 463.377 -2.26735 5.66942 0
M  V30 4785 H 464.791 0.00319931 5.733 0
M  V30 4786 H 463.188 0.763402 5.95224 0
M  V30 4787 H 464.258 1.33799 4.66075 0
M  V30 4788 N 465.601 -1.54893 0.290851 0
M  V30 4789 C 466.533 -2.20564 -0.623236 0
M  V30 4790 C 467.546 -1.19519 -1.1054 0
M  V30 4791 O 468.735 -1.46165 -1.02459 0
M  V30 4792 C 465.835 -2.83033 -1.86401 0
M  V30 4793 C 465.008 -4.09916 -1.52604 0
M  V30 4794 C 464.067 -4.56284 -2.62091 0
M  V30 4795 O 463.093 -5.2171 -2.27612 0
M  V30 4796 N 464.295 -4.27746 -3.92446 0
M  V30 4797 H 467.06 -2.99638 -0.0610915 0
M  V30 4798 H 464.621 -1.61508 0.112615 0
M  V30 4799 H 466.613 -3.1099 -2.58973 0
M  V30 4800 H 465.183 -2.0786 -2.33481 0
M  V30 4801 H 464.403 -3.89078 -0.633424 0
M  V30 4802 H 465.691 -4.92554 -1.27547 0
M  V30 4803 H 465.089 -3.7531 -4.23272 0
M  V30 4804 H 463.646 -4.60437 -4.61347 0
M  V30 4805 N 467.08 -0.0183926 -1.57589 0
M  V30 4806 C 468.326 0.657813 -1.92469 0
M  V30 4807 C 468.681 1.70349 -0.894375 0
M  V30 4808 O 467.974 1.91384 0.0910389 0
M  V30 4809 C 468.168 1.32676 -3.31861 0
M  V30 4810 C 467.997 0.347403 -4.48356 0
M  V30 4811 C 466.767 -0.0488653 -5.05276 0
M  V30 4812 C 468.965 -0.393931 -5.12789 0
M  V30 4813 N 466.947 -1.02451 -6.05291 0
M  V30 4814 C 468.318 -1.22367 -6.07804 0
M  V30 4815 C 470.373 -0.455789 -4.95809 0
M  V30 4816 C 469.076 -2.10966 -6.87667 0
M  V30 4817 C 471.102 -1.32908 -5.76272 0
M  V30 4818 C 470.464 -2.14662 -6.70894 0
M  V30 4819 H 466.563 0.21335 -0.752334 0
M  V30 4820 H 469.147 -0.0830547 -1.94523 0
M  V30 4821 H 467.318 2.03782 -3.30647 0
M  V30 4822 H 469.05 1.95913 -3.54119 0
M  V30 4823 H 465.805 0.323356 -4.72495 0
M  V30 4824 H 466.229 -1.50826 -6.59985 0
M  V30 4825 H 470.871 0.162017 -4.22489 0
M  V30 4826 H 468.589 -2.73807 -7.603 0
M  V30 4827 H 472.175 -1.38109 -5.6517 0
M  V30 4828 H 471.055 -2.81143 -7.32071 0
M  V30 4829 N 468.558 1.5553 0.254621 0
M  V30 4830 C 469.508 1.86057 1.31783 0
M  V30 4831 C 470.492 0.720827 1.4385 0
M  V30 4832 O 471.684 0.982586 1.47222 0
M  V30 4833 C 468.813 2.15203 2.67475 0
M  V30 4834 C 467.899 3.35484 2.59444 0
M  V30 4835 N 468.29 4.54945 2.2104 0
M  V30 4836 C 466.588 3.38441 2.90472 0
M  V30 4837 C 467.289 5.3707 2.23453 0
M  V30 4838 N 466.265 4.75936 2.62652 0
M  V30 4839 H 470.067 2.75953 1.01129 0
M  V30 4840 H 467.581 1.55653 0.463255 0
M  V30 4841 H 469.578 2.35235 3.44195 0
M  V30 4842 H 468.238 1.26601 2.99002 0
M  V30 4843 H 469.249 4.8071 1.92712 0
M  V30 4844 H 465.926 2.60087 3.2659 0
M  V30 4845 H 467.316 6.42626 1.96166 0
M  V30 4846 N 470.036 -0.519951 1.48776 0
M  V30 4847 C 471.283 -1.27522 1.57303 0
M  V30 4848 C 471.611 -1.92869 0.251328 0
M  V30 4849 O 470.866 -1.80372 -0.759243 0
M  V30 4850 C 471.165 -2.37864 2.6675 0
M  V30 4851 C 470.831 -1.90103 4.08867 0
M  V30 4852 C 469.493 -1.76795 4.47546 0
M  V30 4853 C 471.845 -1.54133 4.97888 0
M  V30 4854 C 469.173 -1.25868 5.73039 0
M  V30 4855 C 471.525 -1.04665 6.23881 0
M  V30 4856 C 470.189 -0.899823 6.61407 0
M  V30 4857 H 469.459 -0.466636 0.575614 0
M  V30 4858 H 472.106 -0.579109 1.82534 0
M  V30 4859 H 470.411 -3.13186 2.35418 0
M  V30 4860 H 472.108 -2.95969 2.70561 0
M  V30 4861 H 468.698 -2.01414 3.78326 0
M  V30 4862 H 472.882 -1.6327 4.68675 0
M  V30 4863 H 468.138 -1.13196 6.0083 0
M  V30 4864 H 472.312 -0.759074 6.92251 0
M  V30 4865 H 469.939 -0.503011 7.58534 0
M  V30 4866 N 471.514 -1.37532 -0.769588 0
M  V30 4867 C 472.424 -1.35668 -1.91393 0
M  V30 4868 C 473.44 -0.255954 -1.72107 0
M  V30 4869 O 474.616 -0.491704 -1.95305 0
M  V30 4870 C 471.681 -1.16481 -3.26547 0
M  V30 4871 C 470.742 -2.36212 -3.58472 0
M  V30 4872 C 469.975 -2.17932 -4.87177 0
M  V30 4873 O 470.198 -1.1647 -5.58382 0
M  V30 4874 O 469.132 -3.06167 -5.18214 0
M  V30 4875 H 472.958 -2.32055 -1.95918 0
M  V30 4876 H 470.543 -1.18284 -0.912641 0
M  V30 4877 H 472.425 -1.07778 -4.07384 0
M  V30 4878 H 471.1 -0.231687 -3.2287 0
M  V30 4879 H 470.007 -2.50488 -2.77861 0
M  V30 4880 H 471.34 -3.281 -3.66894 0
M  V30 4881 N 472.992 0.995999 -1.22138 0
M  V30 4882 C 473.922 2.10387 -1.01289 0
M  V30 4883 C 474.903 1.69975 0.0651454 0
M  V30 4884 O 476.088 1.9396 -0.0964628 0
M  V30 4885 C 473.218 3.42312 -0.586517 0
M  V30 4886 C 472.172 3.96558 -1.61014 0
M  V30 4887 C 471.498 5.24494 -1.0397 0
M  V30 4888 C 472.798 4.27595 -2.99933 0
M  V30 4889 H 474.492 2.28086 -1.93951 0
M  V30 4890 H 472.038 1.09607 -0.933928 0
M  V30 4891 H 473.991 4.19223 -0.427793 0
M  V30 4892 H 472.715 3.24431 0.375761 0
M  V30 4893 H 471.374 3.21776 -1.75658 0
M  V30 4894 H 471.022 5.02953 -0.0688703 0
M  V30 4895 H 470.722 5.61755 -1.72352 0
M  V30 4896 H 472.246 6.04042 -0.892494 0
M  V30 4897 H 473.66 4.95315 -2.8868 0
M  V30 4898 H 472.057 4.76021 -3.6541 0
M  V30 4899 H 473.127 3.35498 -3.50099 0
M  V30 4900 N 474.47 1.03057 1.19235 0
M  V30 4901 C 475.698 0.747697 1.92917 0
M  V30 4902 C 476.113 -0.69372 1.75593 0
M  V30 4903 O 475.47 -1.47191 1.07894 0
M  V30 4904 C 475.521 1.09159 3.44625 0
M  V30 4905 O 475.242 2.47641 3.61394 0
M  V30 4906 C 476.743 0.831763 4.35427 0
M  V30 4907 H 473.963 0.273453 0.612751 0
M  V30 4908 H 476.507 1.37552 1.51327 0
M  V30 4909 H 474.662 0.508919 3.84043 0
M  V30 4910 H 475.076 2.60499 4.55237 0
M  V30 4911 H 476.55 1.12233 5.4047 0
M  V30 4912 H 477.027 -0.233769 4.38577 0
M  V30 4913 H 477.633 1.39725 4.01693 0
M  V30 4914 N 475.948 -1.35272 0.808662 0
M  V30 4915 C 477.194 -1.99003 0.390581 0
M  V30 4916 C 477.527 -1.63999 -1.0401 0
M  V30 4917 O 476.802 -0.904368 -1.72196 0
M  V30 4918 C 477.085 -3.55454 0.576566 0
M  V30 4919 C 476.938 -4.00249 2.05233 0
M  V30 4920 C 478.257 -4.401 0.00354277 0
M  V30 4921 H 475.376 -0.722917 0.143388 0
M  V30 4922 H 478.018 -1.6039 1.01858 0
M  V30 4923 H 476.168 -3.88477 0.0419766 0
M  V30 4924 H 477.84 -3.77626 2.64946 0
M  V30 4925 H 476.083 -3.51082 2.54801 0
M  V30 4926 H 476.754 -5.0911 2.13333 0
M  V30 4927 H 479.23 -4.13548 0.460117 0
M  V30 4928 H 478.106 -5.48656 0.163575 0
M  V30 4929 H 478.367 -4.28444 -1.09032 0
M  V30 4930 N 477.426 -0.562348 -1.47226 0
M  V30 4931 C 478.374 0.195476 -2.31777 0
M  V30 4932 C 479.368 0.90433 -1.43242 0
M  V30 4933 O 480.574 0.825031 -1.59979 0
M  V30 4934 H 476.949 0.0819095 -0.747526 0
M  V30 4935 H 478.92 -0.536753 -2.93533 0
M  V30 4936 C 477.669 1.20902 -3.26003 0
M  V30 4937 H 476.992 0.672997 -3.94095 0
M  V30 4938 H 478.432 1.71006 -3.87986 0
M  V30 4939 C 476.891 2.25955 -2.49891 0
M  V30 4940 O 477.421 3.32969 -2.2471 0
M  V30 4941 N 475.627 2.00019 -2.1081 0
M  V30 4942 H 475.174 1.13006 -2.31489 0
M  V30 4943 H 475.132 2.70523 -1.60201 0
M  V30 4944 N 478.904 1.54736 -0.299062 0
M  V30 4945 C 480.132 2.04512 0.313447 0
M  V30 4946 C 480.547 1.17643 1.47667 0
M  V30 4947 O 479.904 0.20164 1.81383 0
M  V30 4948 C 479.955 3.53171 0.771542 0
M  V30 4949 O 479.676 4.36736 -0.345379 0
M  V30 4950 C 481.177 4.18936 1.4494 0
M  V30 4951 H 478.397 0.667507 0.0683784 0
M  V30 4952 H 480.941 1.99752 -0.438129 0
M  V30 4953 H 479.096 3.58298 1.47314 0
M  V30 4954 H 479.51 5.24499 0.0109219 0
M  V30 4955 H 480.984 5.24482 1.72111 0
M  V30 4956 H 481.461 3.68554 2.38883 0
M  V30 4957 H 482.067 4.17879 0.791028 0
M  V30 4958 N 480.382 0.0267497 1.57577 0
M  V30 4959 C 481.345 -0.940916 2.08996 0
M  V30 4960 C 482.345 -1.25561 1.00455 0
M  V30 4961 O 483.535 -1.19634 1.26623 0
M  V30 4962 C 480.667 -2.25814 2.55384 0
M  V30 4963 H 481.86 -0.495628 2.95776 0
M  V30 4964 H 479.413 -0.221241 1.54726 0
M  V30 4965 H 480.148 -2.74976 1.71926 0
M  V30 4966 H 479.933 -2.04285 3.34679 0
M  V30 4967 H 481.423 -2.95178 2.95398 0
M  V30 4968 N 481.861 -1.55662 -0.24637 0
M  V30 4969 C 482.809 -1.91186 -1.3248 0
M  V30 4970 C 483.803 -0.790996 -1.49799 0
M  V30 4971 O 485.009 -0.975617 -1.51267 0
M  V30 4972 H 481.384 -0.607207 -0.443626 0
M  V30 4973 H 483.355 -2.81221 -0.997853 0
M  V30 4974 C 482.104 -2.22349 -2.67313 0
M  V30 4975 H 481.427 -3.08097 -2.54786 0
M  V30 4976 H 482.867 -2.51107 -3.41645 0
M  V30 4977 C 481.326 -1.04001 -3.20446 0
M  V30 4978 O 481.856 -0.28828 -4.00664 0
M  V30 4979 N 480.062 -0.830494 -2.7848 0
M  V30 4980 H 479.609 -1.4435 -2.13356 0
M  V30 4981 H 479.567 -0.0403258 -3.14374 0
M  V30 4982 N 483.339 0.512053 -1.4905 0
M  V30 4983 C 484.588 1.26343 -1.57227 0
M  V30 4984 C 484.901 1.93876 -0.259155 0
M  V30 4985 O 486.107 2.70612 -0.219358 0
M  V30 4986 C 484.563 2.29343 -2.77362 0
M  V30 4987 C 484.171 1.67799 -4.15388 0
M  V30 4988 C 485.915 3.05378 -2.94864 0
M  V30 4989 C 483.822 2.68845 -5.2676 0
M  V30 4990 H 482.752 0.475231 -0.585382 0
M  V30 4991 H 485.403 0.53862 -1.75417 0
M  V30 4992 H 483.785 3.04938 -2.52643 0
M  V30 4993 H 484.959 0.982715 -4.50199 0
M  V30 4994 H 483.274 1.04194 -4.03153 0
M  V30 4995 H 485.871 3.80921 -3.75238 0
M  V30 4996 H 486.214 3.62327 -2.05 0
M  V30 4997 H 486.747 2.36898 -3.19569 0
M  V30 4998 H 483.486 2.16692 -6.18647 0
M  V30 4999 H 483.006 3.36647 -4.96416 0
M  V30 5000 H 484.685 3.31487 -5.5563 0
M  V30 5001 N 484.817 1.37938 0.762283 0
M  V30 5002 C 486.063 1.33866 1.52341 0
M  V30 5003 C 486.396 -0.0738961 1.94059 0
M  V30 5004 O 485.671 -1.03326 1.64785 0
M  V30 5005 C 485.954 2.28644 2.78197 0
M  V30 5006 C 485.807 3.78722 2.42672 0
M  V30 5007 C 487.126 2.21702 3.80179 0
M  V30 5008 H 484.245 0.487593 0.55265 0
M  V30 5009 H 486.887 1.68717 0.873767 0
M  V30 5010 H 485.037 1.99055 3.33631 0
M  V30 5011 H 486.709 4.18948 1.93081 0
M  V30 5012 H 484.952 3.96827 1.75244 0
M  V30 5013 H 485.623 4.40486 3.3268 0
M  V30 5014 H 488.099 2.47805 3.34263 0
M  V30 5015 H 486.975 2.90143 4.65949 0
M  V30 5016 H 487.236 1.21301 4.25133 0
M  V30 5017 N 486.295 -0.989507 1.22664 0
M  V30 5018 C 487.205 -2.11449 1.01619 0
M  V30 5019 C 488.221 -1.73962 -0.036545 0
M  V30 5020 O 489.397 -2.00788 0.156924 0
M  V30 5021 C 486.462 -3.41465 0.600204 0
M  V30 5022 C 485.523 -3.93033 1.72695 0
M  V30 5023 C 484.756 -5.16844 1.33071 0
M  V30 5024 O 484.979 -5.7001 0.210975 0
M  V30 5025 O 483.913 -5.6225 2.14845 0
M  V30 5026 H 487.739 -2.32088 1.9588 0
M  V30 5027 H 485.324 -1.09823 1.01289 0
M  V30 5028 H 487.206 -4.19695 0.37873 0
M  V30 5029 H 485.881 -3.22178 -0.313511 0
M  V30 5030 H 484.788 -3.15961 2.00298 0
M  V30 5031 H 486.121 -4.16758 2.61865 0
M  V30 5032 N 487.773 -1.03688 -1.18687 0
M  V30 5033 C 488.721 -0.618292 -2.24232 0
M  V30 5034 C 489.715 0.353045 -1.6568 0
M  V30 5035 O 490.921 0.220749 -1.78641 0
M  V30 5036 H 487.296 -0.181711 -0.729716 0
M  V30 5037 H 489.267 -1.51893 -2.56848 0
M  V30 5038 C 488.016 0.00677342 -3.47699 0
M  V30 5039 H 487.339 -0.731692 -3.93047 0
M  V30 5040 H 488.779 0.262492 -4.23187 0
M  V30 5041 C 487.238 1.25572 -3.12623 0
M  V30 5042 O 487.768 2.34691 -3.26011 0
M  V30 5043 N 485.974 1.14755 -2.66982 0
M  V30 5044 H 485.521 0.259601 -2.56289 0
M  V30 5045 H 485.479 1.98412 -2.43885 0
M  V30 5046 N 489.251 1.34841 -0.815825 0
M  V30 5047 C 490.481 2.02436 -0.412695 0
M  V30 5048 C 490.889 1.61604 0.983906 0
M  V30 5049 O 490.232 0.813729 1.64694 0
M  V30 5050 C 490.294 3.56953 -0.427182 0
M  V30 5051 C 489.958 4.21083 -1.77589 0
M  V30 5052 C 490.955 4.42107 -2.73564 0
M  V30 5053 C 488.64 4.58006 -2.06243 0
M  V30 5054 C 490.634 4.99169 -3.9637 0
M  V30 5055 C 488.321 5.1478 -3.2931 0
M  V30 5056 C 489.319 5.35304 -4.24191 0
M  V30 5057 O 489.007 5.90878 -5.45086 0
M  V30 5058 H 488.739 0.655631 -0.164695 0
M  V30 5059 H 491.293 1.73246 -1.1034 0
M  V30 5060 H 489.523 3.85372 0.320175 0
M  V30 5061 H 491.212 4.05875 -0.0450875 0
M  V30 5062 H 491.978 4.13953 -2.52721 0
M  V30 5063 H 487.857 4.41339 -1.33196 0
M  V30 5064 H 491.401 5.15105 -4.70439 0
M  V30 5065 H 487.298 5.42362 -3.5002 0
M  V30 5066 H 488.066 6.0932 -5.46508 0
M  V30 5067 N 490.729 0.570148 1.46925 0
M  V30 5068 C 491.692 -0.159933 2.28641 0
M  V30 5069 C 492.692 -0.830638 1.37685 0
M  V30 5070 O 493.882 -0.684516 1.60187 0
M  V30 5071 C 491.014 -1.2354 3.17727 0
M  V30 5072 H 492.207 0.558035 2.94662 0
M  V30 5073 H 489.76 0.327603 1.52828 0
M  V30 5074 H 490.495 -1.98535 2.56426 0
M  V30 5075 H 490.28 -0.759125 3.84681 0
M  V30 5076 H 491.77 -1.74782 3.79264 0
M  V30 5077 N 492.207 -1.54576 0.307264 0
M  V30 5078 C 493.435 -2.04675 -0.302597 0
M  V30 5079 C 493.85 -1.18425 -1.47041 0
M  V30 5080 O 493.207 -0.211257 -1.81273 0
M  V30 5081 C 493.258 -3.53575 -0.752801 0
M  V30 5082 O 492.979 -4.36547 0.368536 0
M  V30 5083 C 494.48 -4.19699 -1.42717 0
M  V30 5084 H 491.7 -0.66786 -0.0648374 0
M  V30 5085 H 494.244 -1.99516 0.448716 0
M  V30 5086 H 492.399 -3.59074 -1.45412 0
M  V30 5087 H 492.813 -5.24497 0.0168937 0
M  V30 5088 H 494.287 -5.25388 -1.69327 0
M  V30 5089 H 494.764 -3.69815 -2.36925 0
M  V30 5090 H 495.37 -4.18293 -0.768856 0
M  V30 5091 N 493.685 -0.035106 -1.57561 0
M  V30 5092 C 494.615 0.942993 -2.13612 0
M  V30 5093 C 495.596 1.33531 -1.05373 0
M  V30 5094 O 496.781 1.41287 -1.33235 0
M  V30 5095 C 493.911 2.22332 -2.66807 0
M  V30 5096 C 492.865 1.97156 -3.79886 0
M  V30 5097 C 492.191 3.31506 -4.19533 0
M  V30 5098 C 493.491 1.30596 -5.05709 0
M  V30 5099 H 495.185 0.476179 -2.95589 0
M  V30 5100 H 492.731 0.227602 -1.4219 0
M  V30 5101 H 494.684 2.91142 -3.04654 0
M  V30 5102 H 493.408 2.7119 -1.81999 0
M  V30 5103 H 492.067 1.30763 -3.42486 0
M  V30 5104 H 491.715 3.78134 -3.31698 0
M  V30 5105 H 491.415 3.15465 -4.95738 0
M  V30 5106 H 492.939 4.01574 -4.59968 0
M  V30 5107 H 494.353 1.89416 -5.41105 0
M  V30 5108 H 492.75 1.24934 -5.86951 0
M  V30 5109 H 493.82 0.279742 -4.84092 0
M  V30 5110 N 495.163 1.55791 0.238111 0
M  V30 5111 C 496.391 1.82098 0.982233 0
M  V30 5112 C 496.806 0.612025 1.78605 0
M  V30 5113 O 496.163 -0.419381 1.77616 0
M  V30 5114 C 496.214 3.0673 1.91309 0
M  V30 5115 O 495.935 4.2296 1.14179 0
M  V30 5116 C 497.436 3.45903 2.77248 0
M  V30 5117 H 494.656 0.605748 0.288635 0
M  V30 5118 H 497.2 2.02862 0.258341 0
M  V30 5119 H 495.355 2.87991 2.59114 0
M  V30 5120 H 495.769 4.93653 1.7722 0
M  V30 5121 H 497.243 4.36189 3.38295 0
M  V30 5122 H 497.72 2.66891 3.48806 0
M  V30 5123 H 498.326 3.67024 2.14881 0
M  V30 5124 N 496.642 -0.504142 1.49319 0
M  V30 5125 C 498.058 -0.835039 1.36012 0
M  V30 5126 C 498.258 -1.97674 0.390808 0
M  V30 5127 O 497.314 -2.51867 -0.178655 0
M  V30 5128 C 498.627 -1.17821 2.76656 0
M  V30 5129 C 500.175 -1.2866 2.85334 0
M  V30 5130 C 500.65 -1.66307 4.26739 0
M  V30 5131 N 502.141 -1.73362 4.29534 0
M  V30 5132 C 502.876 -2.0393 5.35911 0
M  V30 5133 N 502.372 -2.32744 6.52535 0
M  V30 5134 N 504.165 -2.05155 5.23324 0
M  V30 5135 H 496.316 0.248764 2.10938 0
M  V30 5136 H 498.579 0.0486962 0.946748 0
M  V30 5137 H 498.285 -0.412682 3.4927 0
M  V30 5138 H 498.159 -2.12239 3.11825 0
M  V30 5139 H 500.546 -2.04285 2.1296 0
M  V30 5140 H 500.627 -0.323004 2.53752 0
M  V30 5141 H 500.271 -0.91234 4.99639 0
M  V30 5142 H 500.201 -2.63761 4.55782 0
M  V30 5143 H 502.692 -1.53268 3.45424 0
M  V30 5144 H 503.005 -2.55248 7.2943 0
M  V30 5145 H 501.35 -2.30207 6.55767 0
M  V30 5146 H 504.541 -1.82119 4.3122 0
M  V30 5147 H 504.714 -2.28644 6.06322 0
M  V30 5148 N 498.12 -1.38341 -0.754957 0
M  V30 5149 C 499.345 -1.37882 -1.5493 0
M  V30 5150 C 499.77 0.0296385 -1.88077 0
M  V30 5151 O 499.128 1.01133 -1.50472 0
M  V30 5152 C 499.176 -2.23996 -2.82592 0
M  V30 5153 O 498.28 -1.65612 -3.77686 0
M  V30 5154 H 497.621 -0.470384 -0.468652 0
M  V30 5155 H 500.151 -1.82084 -0.933082 0
M  V30 5156 H 500.161 -2.37806 -3.3153 0
M  V30 5157 H 498.836 -3.26365 -2.57796 0
M  V30 5158 H 497.413 -1.60936 -3.36384 0
M  V30 5159 N 499.598 0.982988 -1.23187 0
M  V30 5160 C 500.508 2.10907 -1.02739 0
M  V30 5161 C 501.524 1.73979 0.0273188 0
M  V30 5162 O 502.7 2.00702 -0.16757 0
M  V30 5163 C 499.765 3.41142 -0.618304 0
M  V30 5164 C 498.826 3.92112 -1.74777 0
M  V30 5165 C 498.059 5.16131 -1.3581 0
M  V30 5166 O 498.282 5.6989 -0.241201 0
M  V30 5167 O 497.216 5.61103 -2.17824 0
M  V30 5168 H 501.042 2.31046 -1.97108 0
M  V30 5169 H 498.627 1.09284 -1.01869 0
M  V30 5170 H 500.509 4.19488 -0.400982 0
M  V30 5171 H 499.184 3.2234 0.296421 0
M  V30 5172 H 498.091 3.14895 -2.0197 0
M  V30 5173 H 499.424 4.15364 -2.64071 0
M  V30 5174 N 501.076 1.04316 1.18135 0
M  V30 5175 C 502.304 0.768117 1.92113 0
M  V30 5176 C 502.719 -0.675057 1.76319 0
M  V30 5177 O 502.076 -1.46038 1.09449 0
M  V30 5178 C 502.127 1.12808 3.43448 0
M  V30 5179 O 501.848 2.5146 3.58747 0
M  V30 5180 C 503.349 0.8779 4.3452 0
M  V30 5181 H 500.569 0.279937 0.609817 0
M  V30 5182 H 503.113 1.39149 1.49859 0
M  V30 5183 H 501.268 0.549623 3.83481 0
M  V30 5184 H 501.682 2.65313 4.52448 0
M  V30 5185 H 503.156 1.17959 5.39249 0
M  V30 5186 H 503.633 -0.187239 4.38801 0
M  V30 5187 H 504.239 1.43977 4.00188 0
M  V30 5188 N 502.554 -1.34406 0.822964 0
M  V30 5189 C 503.484 -2.32052 0.259608 0
M  V30 5190 C 504.465 -1.58243 -0.623961 0
M  V30 5191 O 505.65 -1.86224 -0.55083 0
M  V30 5192 C 502.78 -3.42434 -0.579314 0
M  V30 5193 C 501.734 -4.27499 0.20712 0
M  V30 5194 C 501.06 -5.29349 -0.754547 0
M  V30 5195 C 502.36 -5.02758 1.41533 0
M  V30 5196 H 504.054 -2.79418 1.07545 0
M  V30 5197 H 501.6 -1.34338 0.518593 0
M  V30 5198 H 503.553 -4.0976 -0.983612 0
M  V30 5199 H 502.277 -2.93717 -1.4282 0
M  V30 5200 H 500.936 -3.61776 0.592787 0
M  V30 5201 H 500.584 -4.76895 -1.59939 0
M  V30 5202 H 500.284 -5.8714 -0.232561 0
M  V30 5203 H 501.808 -5.99544 -1.1567 0
M  V30 5204 H 503.222 -5.62938 1.08504 0
M  V30 5205 H 501.619 -5.70123 1.87296 0
M  V30 5206 H 502.689 -4.32451 2.1935 0
M  V30 5207 N 504.032 -0.577932 -1.46621 0
M  V30 5208 C 504.962 0.145917 -2.33044 0
M  V30 5209 C 505.943 0.888412 -1.45056 0
M  V30 5210 O 507.128 0.864812 -1.73881 0
M  V30 5211 C 504.258 1.16322 -3.27241 0
M  V30 5212 C 503.212 0.535868 -4.24632 0
M  V30 5213 C 502.538 1.65929 -5.08303 0
M  V30 5214 C 503.838 -0.523861 -5.19666 0
M  V30 5215 H 505.532 -0.575636 -2.93814 0
M  V30 5216 H 503.078 -0.278272 -1.41286 0
M  V30 5217 H 505.031 1.67793 -3.86553 0
M  V30 5218 H 503.755 1.91498 -2.64567 0
M  V30 5219 H 502.414 0.0422759 -3.66576 0
M  V30 5220 H 502.062 2.40061 -4.42018 0
M  V30 5221 H 501.762 1.2452 -5.74255 0
M  V30 5222 H 503.286 2.17686 -5.70478 0
M  V30 5223 H 504.7 -0.0944059 -5.73222 0
M  V30 5224 H 503.097 -0.858 -5.93935 0
M  V30 5225 H 504.167 -1.41197 -4.63887 0
M  V30 5226 N 505.51 1.54411 -0.315457 0
M  V30 5227 C 506.921 1.85885 0.174265 0
M  V30 5228 C 507.272 1.23723 1.52273 0
M  V30 5229 O 506.397 0.540246 2.09548 0
M  V30 5230 C 506.992 3.37257 0.322981 0
M  V30 5231 C 505.551 3.68711 0.756922 0
M  V30 5232 C 504.698 2.77013 -0.126195 0
M  V30 5233 H 507.649 1.49374 -0.536007 0
M  V30 5234 H 507.67 3.62539 1.15522 0
M  V30 5235 H 507.182 3.82471 -0.658602 0
M  V30 5236 H 505.283 3.29024 1.74854 0
M  V30 5237 H 505.396 4.75741 0.566291 0
M  V30 5238 H 503.76 2.51588 0.39692 0
M  V30 5239 H 504.543 3.25051 -1.1044 0
M  V30 5240 N 506.988 0.0434614 1.5754 0
M  V30 5241 C 507.918 -0.931651 2.14109 0
M  V30 5242 C 508.899 -1.32971 1.06079 0
M  V30 5243 O 510.084 -1.40579 1.33982 0
M  V30 5244 C 507.214 -2.20914 2.67982 0
M  V30 5245 C 506.168 -1.95139 3.80926 0
M  V30 5246 C 505.494 -3.29276 4.21285 0
M  V30 5247 C 506.794 -1.27913 5.06395 0
M  V30 5248 H 508.488 -0.460497 2.95837 0
M  V30 5249 H 506.034 -0.220058 1.42309 0
M  V30 5250 H 507.987 -2.89522 3.06194 0
M  V30 5251 H 506.711 -2.70221 1.83434 0
M  V30 5252 H 505.37 -1.28945 3.43175 0
M  V30 5253 H 505.018 -3.76369 3.33699 0
M  V30 5254 H 504.718 -3.12831 4.97404 0
M  V30 5255 H 506.242 -3.99129 4.62091 0
M  V30 5256 H 507.656 -1.86544 5.42102 0
M  V30 5257 H 506.053 -1.2182 5.87605 0
M  V30 5258 H 507.123 -0.254066 4.84234 0
M  V30 5259 N 508.466 -1.55915 -0.229846 0
M  V30 5260 C 509.712 -1.78807 -0.956868 0
M  V30 5261 C 510.045 -0.611687 -1.84315 0
M  V30 5262 O 509.32 0.389398 -1.90562 0
M  V30 5263 C 509.603 -3.11718 -1.80288 0
M  V30 5264 C 509.456 -4.3979 -0.943649 0
M  V30 5265 C 510.775 -3.40999 -2.78222 0
M  V30 5266 H 507.894 -0.6505 -0.346437 0
M  V30 5267 H 510.536 -1.88648 -0.226252 0
M  V30 5268 H 508.686 -3.03459 -2.42579 0
M  V30 5269 H 510.358 -4.60059 -0.338121 0
M  V30 5270 H 508.601 -4.33086 -0.248705 0
M  V30 5271 H 509.272 -5.29208 -1.5698 0
M  V30 5272 H 511.748 -3.49332 -2.26067 0
M  V30 5273 H 510.624 -4.35183 -3.34526 0
M  V30 5274 H 510.885 -2.62754 -3.55546 0
M  V30 5275 N 509.944 0.496216 -1.49584 0
M  V30 5276 C 511.192 1.24756 -1.58998 0
M  V30 5277 C 511.513 1.92968 -0.280775 0
M  V30 5278 O 510.783 1.82959 0.700198 0
M  V30 5279 H 509.363 0.463471 -0.585836 0
M  V30 5280 H 512.025 0.574678 -1.86235 0
M  V30 5281 H 511.121 2.00895 -2.38847 0
M  V30 5282 N 511.423 1.38739 0.74761 0
M  V30 5283 C 512.7 1.25791 1.49786 0
M  V30 5284 C 513.08 -0.138075 2.10648 0
M  V30 5285 O 512.428 -1.14815 1.9756 0
M  V30 5286 C 512.638 2.37265 2.55942 0
M  V30 5287 C 513.986 2.75978 3.22679 0
M  V30 5288 O 515.01 2.36621 2.6625 0
M  V30 5289 O 513.869 3.43867 4.24756 0
M  V30 5290 H 510.963 0.492251 0.664543 0
M  V30 5291 H 513.509 1.50582 0.782511 0
M  V30 5292 H 512.281 3.30644 2.0926 0
M  V30 5293 H 511.904 2.14071 3.35051 0
M  V30 5294 N 512.901 -0.976442 1.23707 0
M  V30 5295 C 513.848 -2.06952 1.02174 0
M  V30 5296 C 514.818 -1.65984 -0.0621034 0
M  V30 5297 O 516.003 -1.90584 0.0907906 0
M  V30 5298 C 513.143 -3.39425 0.62327 0
M  V30 5299 C 512.256 -3.9364 1.77966 0
M  V30 5300 C 511.391 -5.14343 1.3276 0
M  V30 5301 C 510.43 -5.60733 2.45449 0
M  V30 5302 N 509.567 -6.72662 2.01172 0
M  V30 5303 H 514.407 -2.24704 1.95734 0
M  V30 5304 H 511.944 -1.10143 0.975034 0
M  V30 5305 H 513.902 -4.15526 0.37332 0
M  V30 5306 H 512.532 -3.21624 -0.275329 0
M  V30 5307 H 511.584 -3.14258 2.14351 0
M  V30 5308 H 512.896 -4.24035 2.62671 0
M  V30 5309 H 512.05 -5.97789 1.03601 0
M  V30 5310 H 510.789 -4.8561 0.450975 0
M  V30 5311 H 509.794 -4.75865 2.75378 0
M  V30 5312 H 511.019 -5.91483 3.33654 0
M  V30 5313 H 508.965 -6.45681 1.15895 0
M  V30 5314 H 508.882 -7.02462 2.79434 0
M  V30 5315 H 510.15 -7.59572 1.75129 0
M  V30 5316 N 514.379 -1.04941 -1.1758 0
M  V30 5317 C 515.342 -0.652456 -2.19717 0
M  V30 5318 C 516.342 0.294745 -1.58076 0
M  V30 5319 O 517.532 0.0789579 -1.74021 0
M  V30 5320 C 514.664 0.0420712 -3.40874 0
M  V30 5321 H 515.857 -1.55642 -2.5635 0
M  V30 5322 H 513.41 -0.842995 -1.31618 0
M  V30 5323 H 514.145 0.95943 -3.09783 0
M  V30 5324 H 513.93 -0.638844 -3.86861 0
M  V30 5325 H 515.42 0.306 -4.16477 0
M  V30 5326 N 515.857 1.33968 -0.830081 0
M  V30 5327 C 516.804 2.29387 -0.255008 0
M  V30 5328 C 517.774 1.53923 0.624243 0
M  V30 5329 O 518.959 1.82262 0.564372 0
M  V30 5330 C 516.099 3.4034 0.571209 0
M  V30 5331 C 515.212 4.30729 -0.331083 0
M  V30 5332 C 514.347 5.2879 0.505389 0
M  V30 5333 C 513.386 6.10819 -0.395843 0
M  V30 5334 N 512.523 7.00948 0.401979 0
M  V30 5335 H 517.363 2.77972 -1.07404 0
M  V30 5336 H 514.9 1.36785 -0.541133 0
M  V30 5337 H 516.858 4.03361 1.06562 0
M  V30 5338 H 515.488 2.9297 1.35529 0
M  V30 5339 H 514.54 3.68507 -0.943759 0
M  V30 5340 H 515.852 4.88181 -1.02377 0
M  V30 5341 H 515.006 5.97297 1.06399 0
M  V30 5342 H 513.745 4.71894 1.23155 0
M  V30 5343 H 512.75 5.41238 -0.966529 0
M  V30 5344 H 513.975 6.69797 -1.12023 0
M  V30 5345 H 511.921 6.46512 1.11168 0
M  V30 5346 H 511.838 7.55643 -0.232167 0
M  V30 5347 H 513.106 7.73774 0.943102 0
M  V30 5348 N 517.335 0.585699 1.46312 0
M  V30 5349 C 518.265 -0.133556 2.33118 0
M  V30 5350 C 519.246 -0.880707 1.45525 0
M  V30 5351 O 520.431 -0.855579 1.74337 0
M  V30 5352 C 517.561 -1.14585 3.27853 0
M  V30 5353 C 516.515 -0.513341 4.2491 0
M  V30 5354 C 515.841 -1.63231 5.09175 0
M  V30 5355 C 517.141 0.551413 5.19381 0
M  V30 5356 H 518.835 0.59121 2.93505 0
M  V30 5357 H 516.381 0.285761 1.41136 0
M  V30 5358 H 518.334 -1.65741 3.87438 0
M  V30 5359 H 517.058 -1.90093 2.65579 0
M  V30 5360 H 515.717 -0.0228349 3.66593 0
M  V30 5361 H 515.365 -2.37713 4.43285 0
M  V30 5362 H 515.065 -1.21473 5.74907 0
M  V30 5363 H 516.589 -2.14658 5.71624 0
M  V30 5364 H 518.003 0.124804 5.73164 0
M  V30 5365 H 516.4 0.889486 5.93471 0
M  V30 5366 H 517.47 1.43655 4.63132 0
M  V30 5367 N 518.813 -1.54241 0.323641 0
M  V30 5368 C 519.745 -2.21836 -0.576311 0
M  V30 5369 C 520.758 -1.21837 -1.07979 0
M  V30 5370 O 521.947 -1.48306 -0.99336 0
M  V30 5371 C 519.047 -2.86923 -1.80356 0
M  V30 5372 C 518.22 -4.1306 -1.43875 0
M  V30 5373 C 517.279 -4.6174 -2.52353 0
M  V30 5374 O 516.305 -5.26421 -2.16494 0
M  V30 5375 N 517.507 -4.35974 -3.83284 0
M  V30 5376 H 520.272 -2.997 0.00247987 0
M  V30 5377 H 517.833 -1.61233 0.146848 0
M  V30 5378 H 519.825 -3.16414 -2.52318 0
M  V30 5379 H 518.395 -2.12765 -2.29019 0
M  V30 5380 H 517.615 -3.90334 -0.550752 0
M  V30 5381 H 518.903 -4.95148 -1.17071 0
M  V30 5382 H 518.301 -3.84203 -4.15216 0
M  V30 5383 H 516.858 -4.70119 -4.51477 0
M  V30 5384 N 520.291 -0.0518155 -1.57515 0
M  V30 5385 C 521.241 0.932017 -2.0808 0
M  V30 5386 C 522.225 1.27141 -0.986098 0
M  V30 5387 O 523.417 1.25373 -1.24943 0
M  V30 5388 C 520.546 2.20665 -2.62986 0
M  V30 5389 C 519.632 1.89462 -3.79427 0
M  V30 5390 N 520.023 1.28621 -4.89173 0
M  V30 5391 C 518.321 2.19327 -3.88345 0
M  V30 5392 C 519.022 1.15062 -5.70207 0
M  V30 5393 N 517.998 1.65372 -5.17835 0
M  V30 5394 H 521.8 0.456964 -2.90326 0
M  V30 5395 H 519.314 0.152619 -1.61681 0
M  V30 5396 H 521.311 2.92044 -2.97516 0
M  V30 5397 H 519.971 2.68776 -1.8218 0
M  V30 5398 H 520.982 0.958341 -5.08956 0
M  V30 5399 H 517.659 2.69955 -3.18482 0
M  V30 5400 H 519.049 0.678243 -6.68468 0
M  V30 5401 N 521.769 1.56035 0.221574 0
M  V30 5402 C 522.999 1.82864 0.961468 0
M  V30 5403 C 523.407 0.628703 1.78449 0
M  V30 5404 O 522.75 -0.412109 1.79018 0
M  V30 5405 C 522.812 3.03425 1.92804 0
M  V30 5406 C 522.476 4.38429 1.28954 0
M  V30 5407 C 523.473 5.15441 0.679431 0
M  V30 5408 C 521.158 4.85151 1.30131 0
M  V30 5409 C 523.152 6.37337 0.0896148 0
M  V30 5410 C 520.839 6.06989 0.707651 0
M  V30 5411 C 521.837 6.82923 0.102855 0
M  V30 5412 O 521.525 8.02456 -0.48157 0
M  V30 5413 H 521.257 0.611883 0.28736 0
M  V30 5414 H 523.811 2.0397 0.241932 0
M  V30 5415 H 522.041 2.78138 2.68656 0
M  V30 5416 H 523.73 3.17127 2.53348 0
M  V30 5417 H 524.496 4.80452 0.662661 0
M  V30 5418 H 520.375 4.26021 1.76145 0
M  V30 5419 H 523.919 6.96547 -0.383069 0
M  V30 5420 H 519.816 6.41451 0.721834 0
M  V30 5421 H 520.584 8.17636 -0.375887 0
M  V30 5422 N 523.247 -0.488276 1.49845 0
M  V30 5423 C 524.21 -1.57069 1.66919 0
M  V30 5424 C 525.21 -1.51445 0.540479 0
M  V30 5425 O 526.4 -1.5437 0.807188 0
M  V30 5426 C 523.532 -2.96718 1.67844 0
M  V30 5427 H 524.725 -1.43254 2.63474 0
M  V30 5428 H 522.278 -0.713435 1.39068 0
M  V30 5429 H 523.013 -3.15996 0.7292 0
M  V30 5430 H 522.798 -3.02208 2.49826 0
M  V30 5431 H 524.288 -3.75335 1.83066 0
M  V30 5432 N 524.725 -1.39134 -0.740242 0
M  V30 5433 C 525.688 -1.37217 -1.83587 0
M  V30 5434 C 526.688 -0.270221 -1.58513 0
M  V30 5435 O 527.878 -0.527843 -1.6601 0
M  V30 5436 C 525.01 -1.13959 -3.21288 0
M  V30 5437 H 526.203 -2.34705 -1.86691 0
M  V30 5438 H 523.756 -1.24622 -0.94335 0
M  V30 5439 H 524.491 -0.17131 -3.23847 0
M  V30 5440 H 524.276 -1.93754 -3.40884 0
M  V30 5441 H 525.766 -1.15346 -4.01354 0
M  V30 5442 N 526.204 0.969867 -1.24223 0
M  V30 5443 C 527.432 1.74756 -1.10761 0
M  V30 5444 C 527.847 1.85713 0.340041 0
M  V30 5445 O 527.204 1.34389 1.23474 0
M  V30 5446 C 527.255 3.16915 -1.73917 0
M  V30 5447 O 526.976 3.06511 -3.13021 0
M  V30 5448 C 528.477 4.11032 -1.66036 0
M  V30 5449 H 525.697 0.548092 -0.387087 0
M  V30 5450 H 528.241 1.2178 -1.64286 0
M  V30 5451 H 526.396 3.66884 -1.244 0
M  V30 5452 H 526.81 3.96079 -3.43834 0
M  V30 5453 H 528.284 5.08446 -2.14911 0
M  V30 5454 H 528.761 4.34785 -0.621159 0
M  V30 5455 H 529.367 3.66972 -2.14969 0
M  V30 5456 N 527.682 1.05563 1.17022 0
M  V30 5457 C 528.91 0.78845 1.91288 0
M  V30 5458 C 529.325 -0.656318 1.77025 0
M  V30 5459 O 528.682 -1.44869 1.10992 0
M  V30 5460 C 528.733 1.16444 3.42232 0
M  V30 5461 O 528.454 2.5525 3.5606 0
M  V30 5462 C 529.955 0.923937 4.33565 0
M  V30 5463 H 527.175 0.286389 0.606813 0
M  V30 5464 H 529.719 1.4073 1.48375 0
M  V30 5465 H 527.874 0.590266 3.82877 0
M  V30 5466 H 528.288 2.70097 4.49609 0
M  V30 5467 H 529.762 1.23672 5.37968 0
M  V30 5468 H 530.239 -0.140688 4.38975 0
M  V30 5469 H 530.845 1.48214 3.98639 0
M  V30 5470 N 529.16 -1.33526 0.837174 0
M  V30 5471 C 530.571 -1.80182 0.489017 0
M  V30 5472 C 530.922 -1.69285 -0.991826 0
M  V30 5473 O 530.047 -1.24113 -1.77271 0
M  V30 5474 C 530.642 -3.27149 0.880866 0
M  V30 5475 C 529.201 -3.71828 0.584872 0
M  V30 5476 C 528.348 -2.54974 1.09011 0
M  V30 5477 H 531.299 -1.21071 1.02603 0
M  V30 5478 H 531.32 -3.80024 0.190239 0
M  V30 5479 H 530.832 -3.35048 1.95869 0
M  V30 5480 H 528.933 -3.69457 -0.48295 0
M  V30 5481 H 529.046 -4.65366 1.13892 0
M  V30 5482 H 527.41 -2.4952 0.511047 0
M  V30 5483 H 528.193 -2.65637 2.17467 0
M  V30 5484 N 530.638 -0.59345 -1.46 0
M  V30 5485 C 531.887 -0.0808084 -2.01538 0
M  V30 5486 C 532.2 1.29112 -1.46934 0
M  V30 5487 O 533.406 1.8957 -1.94359 0
M  V30 5488 C 531.862 -0.0938311 -3.59778 0
M  V30 5489 C 531.47 -1.46474 -4.23379 0
M  V30 5490 C 533.214 0.364306 -4.22934 0
M  V30 5491 C 531.121 -1.4349 -5.73729 0
M  V30 5492 H 530.051 -0.0264407 -0.753536 0
M  V30 5493 H 532.702 -0.746689 -1.67621 0
M  V30 5494 H 531.084 0.638427 -3.9082 0
M  V30 5495 H 532.258 -2.21758 -4.03931 0
M  V30 5496 H 530.573 -1.86379 -3.7236 0
M  V30 5497 H 533.17 0.405584 -5.3316 0
M  V30 5498 H 533.513 1.38409 -3.92618 0
M  V30 5499 H 534.046 -0.31423 -3.96557 0
M  V30 5500 H 530.785 -2.43184 -6.08722 0
M  V30 5501 H 530.305 -0.724431 -5.95409 0
M  V30 5502 H 531.984 -1.15243 -6.36654 0
M  V30 5503 N 532.116 1.54067 -0.331816 0
M  V30 5504 C 533.362 2.01012 0.268667 0
M  V30 5505 C 533.695 1.2195 1.51136 0
M  V30 5506 O 532.97 0.303972 1.9211 0
M  V30 5507 C 533.253 3.55158 0.59456 0
M  V30 5508 C 533.106 4.4494 -0.659409 0
M  V30 5509 C 534.425 4.16939 1.4089 0
M  V30 5510 H 531.544 0.730698 0.0961756 0
M  V30 5511 H 534.186 1.84593 -0.450031 0
M  V30 5512 H 532.336 3.6928 1.20685 0
M  V30 5513 H 534.008 4.42675 -1.29756 0
M  V30 5514 H 532.251 4.1428 -1.28665 0
M  V30 5515 H 532.922 5.50643 -0.386804 0
M  V30 5516 H 535.398 4.06443 0.891272 0
M  V30 5517 H 534.274 5.24889 1.60569 0
M  V30 5518 H 534.535 3.70798 2.40752 0
M  V30 5519 N 533.594 0.0601682 1.57485 0
M  V30 5520 C 534.871 -0.651956 1.84415 0
M  V30 5521 C 535.251 -1.88498 0.950361 0
M  V30 5522 O 534.599 -2.28496 0.0136719 0
M  V30 5523 C 534.809 -1.00069 3.34346 0
M  V30 5524 C 536.157 -1.37915 4.01578 0
M  V30 5525 O 537.181 -1.09277 3.39024 0
M  V30 5526 O 536.04 -1.91399 5.11887 0
M  V30 5527 H 533.134 -0.322668 0.761455 0
M  V30 5528 H 535.68 0.0902159 1.6946 0
M  V30 5529 H 534.452 -0.124463 3.91102 0
M  V30 5530 H 534.075 -1.80001 3.54521 0
M  V30 5531 N 535.072 -1.5615 -0.213296 0
M  V30 5532 C 536.005 -1.88115 -1.29182 0
M  V30 5533 C 536.983 -0.739348 -1.44819 0
M  V30 5534 O 538.167 -0.988541 -1.605 0
M  V30 5535 C 535.294 -2.09541 -2.66102 0
M  V30 5536 C 534.34 -3.32236 -2.67436 0
M  V30 5537 S 535.173 -4.87915 -2.20679 0
M  V30 5538 C 536.329 -5.12387 -3.59458 0
M  V30 5539 H 536.562 -2.793 -1.01876 0
M  V30 5540 H 534.095 -1.48692 -0.415934 0
M  V30 5541 H 536.053 -2.22568 -3.44925 0
M  V30 5542 H 534.714 -1.19138 -2.90628 0
M  V30 5543 H 533.907 -3.44297 -3.6807 0
M  V30 5544 H 533.509 -3.18108 -1.96681 0
M  V30 5545 H 535.801 -5.01791 -4.55205 0
M  V30 5546 H 536.744 -6.14236 -3.52306 0
M  V30 5547 H 537.152 -4.40089 -3.53528 0
M  V30 5548 N 536.55 0.480323 -1.50102 0
M  V30 5549 C 537.796 1.23489 -1.60867 0
M  V30 5550 C 538.129 1.91809 -0.303827 0
M  V30 5551 O 537.404 1.81694 0.694092 0
M  V30 5552 C 537.687 2.28578 -2.78252 0
M  V30 5553 C 537.54 1.64624 -4.18592 0
M  V30 5554 C 538.859 3.2997 -2.91218 0
M  V30 5555 H 535.978 0.447605 -0.585507 0
M  V30 5556 H 538.62 0.530005 -1.82458 0
M  V30 5557 H 536.77 2.88697 -2.59974 0
M  V30 5558 H 538.442 1.08173 -4.48438 0
M  V30 5559 H 536.685 0.949645 -4.23278 0
M  V30 5560 H 537.356 2.40946 -4.96638 0
M  V30 5561 H 539.832 2.79864 -3.07921 0
M  V30 5562 H 538.708 4.00839 -3.74993 0
M  V30 5563 H 538.969 3.93541 -2.0144 0
M  V30 5564 N 538.028 1.39524 0.732853 0
M  V30 5565 C 539.444 1.21176 1.03868 0
M  V30 5566 C 539.644 0.0748448 2.01361 0
M  V30 5567 O 538.7 -0.57281 2.45917 0
M  V30 5568 C 540.013 2.54667 1.59892 0
M  V30 5569 C 541.561 2.6153 1.71962 0
M  V30 5570 C 542.036 3.95248 2.31394 0
M  V30 5571 N 543.527 3.96899 2.38801 0
M  V30 5572 C 544.262 4.97138 2.85729 0
M  V30 5573 N 543.758 6.07775 3.32537 0
M  V30 5574 N 545.551 4.84516 2.84957 0
M  V30 5575 H 537.702 2.12225 0.086304 0
M  V30 5576 H 539.965 0.942614 0.100907 0
M  V30 5577 H 539.671 3.38423 0.95721 0
M  V30 5578 H 539.545 2.74538 2.58668 0
M  V30 5579 H 541.932 1.78156 2.35254 0
M  V30 5580 H 542.013 2.45507 0.718327 0
M  V30 5581 H 541.657 4.79054 1.68729 0
M  V30 5582 H 541.587 4.08593 3.32204 0
M  V30 5583 H 544.078 3.16998 2.05719 0
M  V30 5584 H 544.391 6.8017 3.66862 0
M  V30 5585 H 542.736 6.11366 3.30541 0
M  V30 5586 H 545.927 3.97185 2.47713 0
M  V30 5587 H 546.1 5.62783 3.21215 0
M  V30 5588 N 539.506 -0.963266 1.24736 0
M  V30 5589 C 540.753 -1.7068 1.0897 0
M  V30 5590 C 541.081 -1.90934 -0.370751 0
M  V30 5591 O 540.336 -1.47155 -1.29011 0
M  V30 5592 C 540.635 -3.09944 1.7796 0
M  V30 5593 C 540.301 -3.09518 3.27887 0
M  V30 5594 C 538.963 -3.09109 3.68789 0
M  V30 5595 C 541.315 -3.03509 4.23712 0
M  V30 5596 C 538.643 -3.00429 5.03944 0
M  V30 5597 C 540.995 -2.96371 5.5888 0
M  V30 5598 C 539.659 -2.94293 5.99123 0
M  V30 5599 H 538.929 -0.624564 0.398749 0
M  V30 5600 H 541.576 -1.12603 1.54896 0
M  V30 5601 H 539.881 -3.71513 1.2444 0
M  V30 5602 H 541.578 -3.66278 1.63222 0
M  V30 5603 H 538.168 -3.10603 2.95337 0
M  V30 5604 H 542.352 -3.0295 3.93109 0
M  V30 5605 H 537.608 -2.97183 5.34314 0
M  V30 5606 H 541.782 -2.90681 6.32833 0
M  V30 5607 H 539.409 -2.87322 7.03811 0
M  V30 5608 N 540.985 -1.06182 -1.16461 0
M  V30 5609 C 542.21 -0.798599 -1.91408 0
M  V30 5610 C 542.635 0.640987 -1.76842 0
M  V30 5611 O 541.993 1.44652 -1.09296 0
M  V30 5612 C 542.041 -1.19665 -3.40165 0
M  V30 5613 O 541.145 -0.334768 -4.11039 0
M  V30 5614 H 540.486 -0.291961 -0.596368 0
M  V30 5615 H 543.016 -1.41732 -1.47557 0
M  V30 5616 H 543.026 -1.16772 -3.90933 0
M  V30 5617 H 541.701 -2.24526 -3.50087 0
M  V30 5618 H 540.278 -0.425168 -3.70468 0
M  V30 5619 N 542.463 1.3308 -0.844243 0
M  V30 5620 C 543.874 1.7992 -0.498566 0
M  V30 5621 C 544.225 1.69808 0.982834 0
M  V30 5622 O 543.35 1.25051 1.7661 0
M  V30 5623 C 543.945 3.26677 -0.898204 0
M  V30 5624 C 542.504 3.71513 -0.604583 0
M  V30 5625 C 541.651 2.54393 -1.10362 0
M  V30 5626 H 544.602 1.20526 -1.03244 0
M  V30 5627 H 544.623 3.79918 -0.21039 0
M  V30 5628 H 544.135 3.34004 -1.97643 0
M  V30 5629 H 542.236 3.69708 0.46335 0
M  V30 5630 H 542.349 4.64755 -1.16358 0
M  V30 5631 H 540.713 2.49246 -0.524273 0
M  V30 5632 H 541.496 2.6448 -2.18873 0
M  V30 5633 N 543.941 0.601185 1.45683 0
M  V30 5634 C 544.904 -0.111398 2.28929 0
M  V30 5635 C 545.904 -0.801246 1.39416 0
M  V30 5636 O 547.094 -0.650383 1.61603 0
M  V30 5637 C 544.226 -1.16773 3.20276 0
M  V30 5638 H 545.419 0.620412 2.93413 0
M  V30 5639 H 542.972 0.359946 1.52099 0
M  V30 5640 H 543.707 -1.93051 2.60579 0
M  V30 5641 H 543.492 -0.677358 3.86205 0
M  V30 5642 H 544.982 -1.66698 3.82886 0
M  V30 5643 N 545.419 -1.53889 0.339982 0
M  V30 5644 C 546.351 -2.22435 -0.55275 0
M  V30 5645 C 547.364 -1.22975 -1.06681 0
M  V30 5646 O 548.553 -1.49351 -0.977575 0
M  V30 5647 C 545.653 -2.8882 -1.77302 0
M  V30 5648 C 544.826 -4.14563 -1.39486 0
M  V30 5649 C 543.885 -4.64391 -2.47442 0
M  V30 5650 O 542.911 -5.28687 -2.10899 0
M  V30 5651 N 544.113 -4.40015 -3.78639 0
M  V30 5652 H 546.878 -2.9968 0.0342669 0
M  V30 5653 H 544.439 -1.61068 0.16394 0
M  V30 5654 H 546.431 -3.19072 -2.48948 0
M  V30 5655 H 545.001 -2.15182 -2.26749 0
M  V30 5656 H 544.221 -3.90896 -0.509321 0
M  V30 5657 H 545.509 -4.96362 -1.11813 0
M  V30 5658 H 544.907 -3.88586 -4.11118 0
M  V30 5659 H 543.464 -4.74881 -4.46465 0
M  V30 5660 N 546.897 -0.0685191 -1.57451 0
M  V30 5661 C 547.827 0.89747 -2.15564 0
M  V30 5662 C 548.808 1.31266 -1.08181 0
M  V30 5663 O 549.993 1.38429 -1.36202 0
M  V30 5664 C 547.123 2.16623 -2.71463 0
M  V30 5665 C 546.077 1.89054 -3.83982 0
M  V30 5666 C 545.403 3.22532 -4.26471 0
M  V30 5667 C 546.703 1.1984 -5.08366 0
M  V30 5668 H 548.397 0.413373 -2.96533 0
M  V30 5669 H 545.943 0.197391 -1.42641 0
M  V30 5670 H 547.896 2.84614 -3.10761 0
M  V30 5671 H 546.62 2.67269 -1.8771 0
M  V30 5672 H 545.279 1.23469 -3.45183 0
M  V30 5673 H 544.927 3.71013 -3.39644 0
M  V30 5674 H 544.627 3.04879 -5.02317 0
M  V30 5675 H 546.151 3.91727 -4.68383 0
M  V30 5676 H 547.565 1.77896 -5.45001 0
M  V30 5677 H 545.962 1.12456 -5.89469 0
M  V30 5678 H 547.032 0.176996 -4.84577 0
M  V30 5679 N 548.375 1.56261 0.205012 0
M  V30 5680 C 549.652 1.70856 0.952233 0
M  V30 5681 C 550.032 0.620501 2.01775 0
M  V30 5682 O 549.38 -0.370035 2.25484 0
M  V30 5683 C 549.59 3.12807 1.54767 0
M  V30 5684 C 550.938 3.72733 2.0336 0
M  V30 5685 O 551.962 3.15873 1.64629 0
M  V30 5686 O 550.821 4.72501 2.746 0
M  V30 5687 H 547.915 0.696496 0.445895 0
M  V30 5688 H 550.461 1.6857 0.195489 0
M  V30 5689 H 549.233 3.83465 0.779132 0
M  V30 5690 H 548.856 3.1928 2.36951 0
M  V30 5691 N 549.853 -0.472356 1.50355 0
M  V30 5692 C 550.816 -1.5529 1.68576 0
M  V30 5693 C 551.816 -1.50863 0.556511 0
M  V30 5694 O 553.006 -1.53505 0.823516 0
M  V30 5695 C 550.138 -2.94921 1.70981 0
M  V30 5696 H 551.331 -1.40451 2.64978 0
M  V30 5697 H 548.884 -0.698645 1.39816 0
M  V30 5698 H 549.619 -3.15204 0.762675 0
M  V30 5699 H 549.404 -2.99541 2.53017 0
M  V30 5700 H 550.894 -3.73372 1.87037 0
M  V30 5701 N 551.331 -1.39911 -0.725443 0
M  V30 5702 C 552.241 -1.41688 -1.8698 0
M  V30 5703 C 553.257 -0.310579 -1.71206 0
M  V30 5704 O 554.433 -0.55359 -1.93642 0
M  V30 5705 C 551.498 -1.26811 -3.22676 0
M  V30 5706 C 550.559 -2.47497 -3.50776 0
M  V30 5707 C 549.792 -2.3332 -4.79997 0
M  V30 5708 O 550.015 -1.34175 -5.54394 0
M  V30 5709 O 548.949 -3.22498 -5.08211 0
M  V30 5710 H 552.775 -2.38171 -1.88436 0
M  V30 5711 H 550.36 -1.21128 -0.874548 0
M  V30 5712 H 552.242 -1.20684 -4.03749 0
M  V30 5713 H 550.917 -0.334289 -3.21969 0
M  V30 5714 H 549.824 -2.59201 -2.69751 0
M  V30 5715 H 551.157 -3.39606 -3.5627 0
M  V30 5716 N 552.809 0.956637 -1.25245 0
M  V30 5717 C 553.772 2.03457 -1.05537 0
M  V30 5718 C 554.772 1.60798 -0.00886317 0
M  V30 5719 O 555.962 1.72384 -0.250865 0
M  V30 5720 C 553.094 3.35543 -0.601965 0
M  V30 5721 H 554.287 2.22372 -2.01223 0
M  V30 5722 H 551.84 1.13344 -1.07623 0
M  V30 5723 H 552.575 3.22323 0.357584 0
M  V30 5724 H 552.36 3.67854 -1.35743 0
M  V30 5725 H 553.85 4.14769 -0.485454 0
M  V30 5726 N 554.287 1.06798 1.15896 0
M  V30 5727 C 555.217 0.704677 2.22613 0
M  V30 5728 C 556.198 -0.305252 1.67339 0
M  V30 5729 O 557.383 -0.179247 1.93371 0
M  V30 5730 C 554.513 0.0957325 3.47168 0
M  V30 5731 C 553.467 1.0322 4.15367 0
M  V30 5732 C 552.793 0.286293 5.33933 0
M  V30 5733 C 554.093 2.36341 4.65768 0
M  V30 5734 H 555.787 1.59688 2.53259 0
M  V30 5735 H 553.333 0.769257 1.21731 0
M  V30 5736 H 555.286 -0.170333 4.21056 0
M  V30 5737 H 554.01 -0.831516 3.15838 0
M  V30 5738 H 552.669 1.28309 3.43413 0
M  V30 5739 H 552.317 -0.644237 4.98857 0
M  V30 5740 H 552.017 0.910436 5.80504 0
M  V30 5741 H 553.541 0.0278938 6.10594 0
M  V30 5742 H 554.955 2.1561 5.31211 0
M  V30 5743 H 553.352 2.94299 5.2298 0
M  V30 5744 H 554.422 2.99047 3.81705 0
M  V30 5745 N 555.766 -1.3263 0.851289 0
M  V30 5746 C 557.015 -1.96633 0.449267 0
M  V30 5747 C 557.328 -1.68131 -0.999562 0
M  V30 5748 O 558.534 -2.25845 -1.50685 0
M  V30 5749 C 556.99 -3.51946 0.752446 0
M  V30 5750 C 556.598 -3.89311 2.21678 0
M  V30 5751 C 558.342 -4.22437 0.417983 0
M  V30 5752 C 556.249 -5.37655 2.46336 0
M  V30 5753 H 555.179 -0.735888 0.164269 0
M  V30 5754 H 557.83 -1.51073 1.0416 0
M  V30 5755 H 556.212 -3.95899 0.0895858 0
M  V30 5756 H 557.386 -3.56378 2.92115 0
M  V30 5757 H 555.701 -3.31836 2.51543 0
M  V30 5758 H 558.298 -5.31549 0.579674 0
M  V30 5759 H 558.641 -4.11349 -0.640115 0
M  V30 5760 H 559.174 -3.84057 1.03659 0
M  V30 5761 H 555.913 -5.5376 3.50757 0
M  V30 5762 H 555.433 -5.72005 1.80473 0
M  V30 5763 H 557.112 -6.04695 2.30115 0
M  V30 5764 N 557.244 -0.608902 -1.45362 0
M  V30 5765 C 558.192 0.121639 -2.32282 0
M  V30 5766 C 559.186 0.858301 -1.46046 0
M  V30 5767 O 560.392 0.773718 -1.62523 0
M  V30 5768 H 556.767 0.058086 -0.749753 0
M  V30 5769 H 558.738 -0.629866 -2.91677 0
M  V30 5770 C 557.487 1.1047 -3.29684 0
M  V30 5771 H 556.81 0.547278 -3.96036 0
M  V30 5772 H 558.25 1.58576 -3.9323 0
M  V30 5773 C 556.709 2.17891 -2.56954 0
M  V30 5774 O 557.239 3.25652 -2.35189 0
M  V30 5775 N 555.445 1.93211 -2.17066 0
M  V30 5776 H 554.992 1.05584 -2.34967 0
M  V30 5777 H 554.95 2.6529 -1.68727 0
M  V30 5778 N 558.722 1.53707 -0.348139 0
M  V30 5779 C 559.652 2.28111 0.498766 0
M  V30 5780 C 560.633 1.29851 1.09876 0
M  V30 5781 O 561.818 1.587 1.11928 0
M  V30 5782 C 558.948 3.05735 1.64753 0
M  V30 5783 C 557.902 4.11537 1.17565 0
M  V30 5784 C 557.228 4.77142 2.4133 0
M  V30 5785 C 558.528 5.21587 0.272844 0
M  V30 5786 H 560.222 2.99152 -0.121934 0
M  V30 5787 H 557.768 1.43875 -0.0600842 0
M  V30 5788 H 559.721 3.56526 2.24649 0
M  V30 5789 H 558.445 2.32354 2.2952 0
M  V30 5790 H 557.104 3.61665 0.599483 0
M  V30 5791 H 556.752 4.0035 3.04514 0
M  V30 5792 H 556.452 5.48626 2.10436 0
M  V30 5793 H 557.976 5.30719 3.01943 0
M  V30 5794 H 559.39 5.67986 0.778779 0
M  V30 5795 H 557.787 6.00074 0.0555849 0
M  V30 5796 H 558.857 4.79969 -0.689785 0
M  V30 5797 N 560.2 0.0768682 1.57412 0
M  V30 5798 C 561.13 -0.886026 2.16037 0
M  V30 5799 C 562.111 -1.30691 1.08876 0
M  V30 5800 O 563.296 -1.37705 1.36934 0
M  V30 5801 C 560.426 -2.1518 2.72608 0
M  V30 5802 C 559.38 -1.87015 3.8498 0
M  V30 5803 C 558.706 -3.20266 4.28175 0
M  V30 5804 C 560.006 -1.17143 5.08994 0
M  V30 5805 H 561.7 -0.397642 2.96748 0
M  V30 5806 H 559.246 -0.189823 1.42743 0
M  V30 5807 H 561.199 -2.82962 3.12266 0
M  V30 5808 H 559.923 -2.66269 1.89125 0
M  V30 5809 H 558.582 -1.21636 3.45833 0
M  V30 5810 H 558.23 -3.69207 3.41607 0
M  V30 5811 H 557.93 -3.0221 5.03927 0
M  V30 5812 H 559.454 -3.89237 4.70454 0
M  V30 5813 H 560.868 -1.75003 5.45937 0
M  V30 5814 H 559.265 -1.09328 5.90057 0
M  V30 5815 H 560.335 -0.151295 4.84664 0
M  V30 5816 N 561.678 -1.56367 -0.196722 0
M  V30 5817 C 563.094 -1.49916 -0.54749 0
M  V30 5818 C 563.294 -0.77659 -1.85934 0
M  V30 5819 O 562.35 -0.32644 -2.50381 0
M  V30 5820 C 563.663 -2.94577 -0.603734 0
M  V30 5821 C 565.211 -3.05239 -0.692677 0
M  V30 5822 C 565.686 -4.51308 -0.780046 0
M  V30 5823 N 567.177 -4.55453 -0.843616 0
M  V30 5824 C 567.912 -5.65786 -0.931358 0
M  V30 5825 N 567.408 -6.85812 -0.981503 0
M  V30 5826 N 569.201 -5.53695 -0.968421 0
M  V30 5827 H 561.352 -2.01761 0.663803 0
M  V30 5828 H 563.615 -0.918094 0.236238 0
M  V30 5829 H 563.321 -3.50494 0.29105 0
M  V30 5830 H 563.195 -3.47841 -1.45898 0
M  V30 5831 H 565.582 -2.49372 -1.57789 0
M  V30 5832 H 565.663 -2.55103 0.188736 0
M  V30 5833 H 565.307 -5.078 0.100811 0
M  V30 5834 H 565.237 -4.99176 -1.67724 0
M  V30 5835 H 567.728 -3.69025 -0.814176 0
M  V30 5836 H 568.041 -7.65648 -1.04892 0
M  V30 5837 H 566.386 -6.88474 -0.950208 0
M  V30 5838 H 569.577 -4.58848 -0.926072 0
M  V30 5839 H 569.75 -6.39708 -1.03334 0
M  V30 5840 N 563.156 0.464375 -1.50603 0
M  V30 5841 C 564.567 1.04507 -1.5471 0
M  V30 5842 C 564.918 1.9297 -0.354542 0
M  V30 5843 O 564.043 2.09763 0.531812 0
M  V30 5844 C 564.638 1.90207 -2.80369 0
M  V30 5845 C 563.197 2.43373 -2.87135 0
M  V30 5846 C 562.344 1.21886 -2.49076 0
M  V30 5847 H 565.295 0.246716 -1.56771 0
M  V30 5848 H 565.316 2.75353 -2.62604 0
M  V30 5849 H 564.828 1.25796 -3.67147 0
M  V30 5850 H 562.929 3.11318 -2.04724 0
M  V30 5851 H 563.042 2.7802 -3.90181 0
M  V30 5852 H 561.406 1.55575 -2.01664 0
M  V30 5853 H 562.189 0.591268 -3.3817 0
M  V30 5854 N 564.634 1.40294 0.718013 0
M  V30 5855 C 565.564 1.43118 1.84498 0
M  V30 5856 C 566.545 0.292403 1.67568 0
M  V30 5857 O 567.73 0.500675 1.87635 0
M  V30 5858 C 564.86 1.29065 3.22427 0
M  V30 5859 C 563.814 2.40521 3.54025 0
M  V30 5860 C 563.14 2.11546 4.91073 0
M  V30 5861 C 564.44 3.82859 3.55269 0
M  V30 5862 H 566.134 2.37432 1.82391 0
M  V30 5863 H 563.68 1.14283 0.87609 0
M  V30 5864 H 565.633 1.29658 4.00957 0
M  V30 5865 H 564.357 0.312271 3.25104 0
M  V30 5866 H 563.016 2.39173 2.77834 0
M  V30 5867 H 562.664 1.12104 4.90348 0
M  V30 5868 H 562.364 2.86216 5.1318 0
M  V30 5869 H 563.888 2.13817 5.71939 0
M  V30 5870 H 565.302 3.86044 4.23843 0
M  V30 5871 H 563.699 4.57029 3.88902 0
M  V30 5872 H 564.769 4.12617 2.54706 0
M  V30 5873 N 566.112 -0.949982 1.2575 0
M  V30 5874 C 567.34 -1.72972 1.13527 0
M  V30 5875 C 567.755 -1.8623 -0.310453 0
M  V30 5876 O 567.112 -1.36336 -1.2132 0
M  V30 5877 C 567.163 -3.14108 1.78936 0
M  V30 5878 O 566.884 -3.01493 3.17858 0
M  V30 5879 C 568.385 -4.08338 1.72554 0
M  V30 5880 H 565.605 -0.541864 0.395758 0
M  V30 5881 H 568.149 -1.19151 1.66202 0
M  V30 5882 H 566.304 -3.64858 1.30221 0
M  V30 5883 H 566.718 -3.90559 3.50092 0
M  V30 5884 H 568.192 -5.04963 2.22973 0
M  V30 5885 H 568.669 -4.33742 0.690251 0
M  V30 5886 H 569.275 -3.63506 2.2078 0
M  V30 5887 N 567.59 -1.07411 -1.15328 0
M  V30 5888 C 569.001 -0.820261 -1.67716 0
M  V30 5889 C 569.352 0.654539 -1.8496 0
M  V30 5890 O 568.477 1.50664 -1.55337 0
M  V30 5891 C 569.072 -1.48242 -3.04647 0
M  V30 5892 C 567.631 -1.27606 -3.5411 0
M  V30 5893 C 566.778 -1.5517 -2.29821 0
M  V30 5894 H 569.729 -1.23608 -0.995332 0
M  V30 5895 H 569.75 -0.903984 -3.69606 0
M  V30 5896 H 569.262 -2.55578 -2.92064 0
M  V30 5897 H 567.363 -0.222948 -3.71932 0
M  V30 5898 H 567.476 -1.99667 -4.35511 0
M  V30 5899 H 565.84 -0.972747 -2.35393 0
M  V30 5900 H 566.623 -2.63689 -2.19824 0
M  V30 5901 N 569.068 1.32177 -0.85831 0
M  V30 5902 C 570.484 1.49873 -0.548656 0
M  V30 5903 C 570.684 1.79278 0.919874 0
M  V30 5904 O 569.74 1.86451 1.70271 0
M  V30 5905 C 571.053 2.64043 -1.4388 0
M  V30 5906 C 572.601 2.77928 -1.43961 0
M  V30 5907 C 573.076 3.95182 -2.31506 0
M  V30 5908 N 574.567 4.0245 -2.29321 0
M  V30 5909 C 575.302 4.9242 -2.93786 0
M  V30 5910 N 574.798 5.87373 -3.67376 0
M  V30 5911 N 576.591 4.85572 -2.83155 0
M  V30 5912 H 568.742 1.11357 -1.80868 0
M  V30 5913 H 571.005 0.549175 -0.772729 0
M  V30 5914 H 570.711 2.49055 -2.48324 0
M  V30 5915 H 570.585 3.59912 -1.12885 0
M  V30 5916 H 572.972 2.92338 -0.402813 0
M  V30 5917 H 573.053 1.82762 -1.78974 0
M  V30 5918 H 572.697 3.81531 -3.35256 0
M  V30 5919 H 572.627 4.89633 -1.93823 0
M  V30 5920 H 575.118 3.34507 -1.75822 0
M  V30 5921 H 575.431 6.52728 -4.13722 0
M  V30 5922 H 573.776 5.87388 -3.71484 0
M  V30 5923 H 576.967 4.10363 -2.25211 0
M  V30 5924 H 577.14 5.55486 -3.33676 0
M  V30 5925 N 570.547 0.616602 1.45037 0
M  V30 5926 C 571.477 -0.0840787 2.33349 0
M  V30 5927 C 572.458 -0.849641 1.4736 0
M  V30 5928 O 573.643 -0.818407 1.76113 0
M  V30 5929 C 570.773 -1.07604 3.3021 0
M  V30 5930 C 569.727 -0.423096 4.25904 0
M  V30 5931 C 569.053 -1.52394 5.12523 0
M  V30 5932 C 570.353 0.661457 5.18095 0
M  V30 5933 H 572.047 0.653333 2.92185 0
M  V30 5934 H 569.593 0.315634 1.40498 0
M  V30 5935 H 571.546 -1.57485 3.90866 0
M  V30 5936 H 570.27 -1.84416 2.69552 0
M  V30 5937 H 568.929 0.05493 3.66559 0
M  V30 5938 H 568.577 -2.28257 4.48227 0
M  V30 5939 H 568.277 -1.09251 5.77354 0
M  V30 5940 H 569.801 -2.02485 5.76049 0
M  V30 5941 H 571.215 0.246353 5.7277 0
M  V30 5942 H 569.612 1.01517 5.91451 0
M  V30 5943 H 570.682 1.53446 4.59981 0
M  V30 5944 N 572.025 -1.5352 0.356285 0
M  V30 5945 C 573.255 -2.05236 -0.236983 0
M  V30 5946 C 573.663 -1.23016 -1.43749 0
M  V30 5947 O 573.006 -0.2615 -1.81829 0
M  V30 5948 C 573.068 -3.52549 -0.7035 0
M  V30 5949 C 572.732 -4.55425 0.379059 0
M  V30 5950 C 573.729 -5.0524 1.22592 0
M  V30 5951 C 571.414 -4.99425 0.536638 0
M  V30 5952 C 573.408 -5.97647 2.21578 0
M  V30 5953 C 571.095 -5.9164 1.52988 0
M  V30 5954 C 572.093 -6.4064 2.3679 0
M  V30 5955 O 571.781 -7.31039 3.34421 0
M  V30 5956 H 571.513 -0.674346 -0.047254 0
M  V30 5957 H 574.067 -1.98962 0.510238 0
M  V30 5958 H 572.297 -3.56331 -1.50217 0
M  V30 5959 H 573.986 -3.87171 -1.21873 0
M  V30 5960 H 574.752 -4.72002 1.11532 0
M  V30 5961 H 570.631 -4.60879 -0.105834 0
M  V30 5962 H 574.175 -6.35816 2.87025 0
M  V30 5963 H 570.072 -6.24293 1.64099 0
M  V30 5964 H 570.84 -7.49009 3.30041 0
M  V30 5965 N 573.503 -0.0852151 -1.57369 0
M  V30 5966 C 574.728 0.592872 -1.98746 0
M  V30 5967 C 575.153 1.61538 -0.963689 0
M  V30 5968 O 574.511 1.81168 0.069071 0
M  V30 5969 C 574.559 1.22599 -3.39119 0
M  V30 5970 O 573.663 2.34185 -3.39457 0
M  V30 5971 H 573.004 0.151314 -0.646529 0
M  V30 5972 H 575.534 -0.163703 -2.03944 0
M  V30 5973 H 575.544 1.56965 -3.76598 0
M  V30 5974 H 574.219 0.476831 -4.13158 0
M  V30 5975 H 572.796 2.01512 -3.13763 0
M  V30 5976 N 574.981 1.5647 0.188427 0
M  V30 5977 C 576.23 1.80207 0.905995 0
M  V30 5978 C 576.543 0.659579 1.84144 0
M  V30 5979 O 577.749 0.781431 2.60011 0
M  V30 5980 C 576.205 3.19255 1.66145 0
M  V30 5981 C 575.813 4.41324 0.770504 0
M  V30 5982 C 577.557 3.52298 2.36826 0
M  V30 5983 C 575.464 5.71394 1.52521 0
M  V30 5984 H 574.394 0.671953 0.342045 0
M  V30 5985 H 577.045 1.82808 0.159164 0
M  V30 5986 H 575.427 3.10922 2.45242 0
M  V30 5987 H 576.601 4.60797 0.0177261 0
M  V30 5988 H 574.916 4.16035 0.174199 0
M  V30 5989 H 577.513 4.46715 2.93854 0
M  V30 5990 H 577.856 2.76359 3.11338 0
M  V30 5991 H 578.389 3.62108 1.6469 0
M  V30 5992 H 575.128 6.50316 0.82275 0
M  V30 5993 H 574.648 5.55928 2.25175 0
M  V30 5994 H 576.327 6.12747 2.07725 0
M  V30 5995 N 576.459 -0.456382 1.50847 0
M  V30 5996 C 577.422 -1.53493 1.70213 0
M  V30 5997 C 578.422 -1.50264 0.572481 0
M  V30 5998 O 579.612 -1.52623 0.839751 0
M  V30 5999 C 576.744 -2.93091 1.741 0
M  V30 6000 H 577.937 -1.37633 2.66453 0
M  V30 6001 H 575.49 -0.683776 1.4055 0
M  V30 6002 H 576.225 -3.14378 0.796063 0
M  V30 6003 H 576.01 -2.9684 2.5618 0
M  V30 6004 H 577.5 -3.71368 1.90987 0
M  V30 6005 N 577.937 -1.40673 -0.710563 0
M  V30 6006 C 579.162 -1.42741 -1.50465 0
M  V30 6007 C 579.587 -0.0302116 -1.88076 0
M  V30 6008 O 578.945 0.962945 -1.53613 0
M  V30 6009 C 578.993 -2.32873 -2.75322 0
M  V30 6010 O 578.097 -1.77544 -3.72226 0
M  V30 6011 H 577.438 -0.485056 -0.45345 0
M  V30 6012 H 579.968 -1.84961 -0.874681 0
M  V30 6013 H 579.978 -2.48233 -3.23797 0
M  V30 6014 H 578.653 -3.34401 -2.47283 0
M  V30 6015 H 577.23 -1.71556 -3.31093 0
M  V30 6016 N 579.415 0.9433 -1.26252 0
M  V30 6017 C 580.64 1.72898 -1.14547 0
M  V30 6018 C 581.065 1.85761 0.295743 0
M  V30 6019 O 580.423 1.3463 1.21427 0
M  V30 6020 C 580.471 3.11471 -1.8171 0
M  V30 6021 O 579.575 3.97336 -1.10445 0
M  V30 6022 H 578.916 0.530555 -0.399259 0
M  V30 6023 H 581.446 1.18159 -1.67032 0
M  V30 6024 H 581.456 3.61872 -1.88449 0
M  V30 6025 H 580.131 3.01425 -2.86558 0
M  V30 6026 H 578.708 3.55788 -1.11666 0
M  V30 6027 N 580.893 1.08022 1.14757 0
M  V30 6028 C 581.825 0.664566 2.19354 0
M  V30 6029 C 582.838 -0.286374 1.60261 0
M  V30 6030 O 584.027 -0.0746362 1.78344 0
M  V30 6031 C 581.127 -0.0434634 3.38872 0
M  V30 6032 C 580.3 0.925381 4.27499 0
M  V30 6033 C 579.359 0.253398 5.2559 0
M  V30 6034 O 578.385 0.896581 5.62094 0
M  V30 6035 N 579.587 -0.998263 5.71852 0
M  V30 6036 H 582.352 1.56438 2.55631 0
M  V30 6037 H 579.913 0.965788 1.29939 0
M  V30 6038 H 581.905 -0.503857 4.01551 0
M  V30 6039 H 580.475 -0.845321 3.00954 0
M  V30 6040 H 579.695 1.56472 3.61815 0
M  V30 6041 H 580.983 1.58203 4.8358 0
M  V30 6042 H 580.381 -1.54063 5.44317 0
M  V30 6043 H 578.938 -1.40222 6.36538 0
M  V30 6044 N 582.371 -1.3172 0.865308 0
M  V30 6045 C 583.334 -2.26918 0.322627 0
M  V30 6046 C 584.334 -1.52031 -0.523751 0
M  V30 6047 O 585.524 -1.70973 -0.333727 0
M  V30 6048 C 582.656 -3.36558 -0.542338 0
M  V30 6049 H 583.849 -2.76432 1.16298 0
M  V30 6050 H 581.402 -1.42573 0.640512 0
M  V30 6051 H 582.137 -2.92329 -1.40407 0
M  V30 6052 H 581.922 -3.92048 0.0636395 0
M  V30 6053 H 583.412 -4.07465 -0.91446 0
M  V30 6054 N 583.85 -0.624285 -1.44708 0
M  V30 6055 C 584.76 0.0861083 -2.34442 0
M  V30 6056 C 585.776 0.84291 -1.5222 0
M  V30 6057 O 586.952 0.796723 -1.84971 0
M  V30 6058 C 584.017 1.05999 -3.30099 0
M  V30 6059 C 583.077 0.303316 -4.28227 0
M  V30 6060 C 582.311 1.23081 -5.19314 0
M  V30 6061 O 582.534 2.46929 -5.14181 0
M  V30 6062 O 581.468 0.71883 -5.97592 0
M  V30 6063 H 585.293 -0.651756 -2.96624 0
M  V30 6064 H 582.879 -0.384493 -1.44368 0
M  V30 6065 H 584.76 1.62046 -3.88997 0
M  V30 6066 H 583.436 1.77859 -2.70459 0
M  V30 6067 H 582.343 -0.300033 -3.72895 0
M  V30 6068 H 583.676 -0.375123 -4.90768 0
M  V30 6069 N 585.328 1.53329 -0.364422 0
M  V30 6070 C 586.574 2.01537 0.225969 0
M  V30 6071 C 586.907 1.25128 1.48515 0
M  V30 6072 O 586.182 0.344653 1.91422 0
M  V30 6073 C 586.465 3.56339 0.519092 0
M  V30 6074 C 586.318 4.43441 -0.753639 0
M  V30 6075 C 587.637 4.19833 1.32015 0
M  V30 6076 H 584.756 0.732573 0.0806548 0
M  V30 6077 H 587.398 1.83597 -0.489084 0
M  V30 6078 H 585.548 3.71756 1.12825 0
M  V30 6079 H 587.22 4.39823 -1.39116 0
M  V30 6080 H 585.463 4.11457 -1.37424 0
M  V30 6081 H 586.134 5.49699 -0.503517 0
M  V30 6082 H 588.61 4.08242 0.804859 0
M  V30 6083 H 587.486 5.28177 1.49399 0
M  V30 6084 H 587.747 3.75821 2.32832 0
M  V30 6085 N 586.806 0.0935595 1.57322 0
M  V30 6086 C 587.716 -0.880192 2.17462 0
M  V30 6087 C 588.732 -1.31135 1.14366 0
M  V30 6088 O 589.908 -1.37958 1.46729 0
M  V30 6089 C 586.973 -2.12184 2.74188 0
M  V30 6090 C 586.034 -1.74503 3.92234 0
M  V30 6091 C 585.267 -2.92748 4.46245 0
M  V30 6092 O 585.49 -4.07427 3.99198 0
M  V30 6093 O 584.424 -2.71303 5.37288 0
M  V30 6094 H 588.25 -0.398516 3.01074 0
M  V30 6095 H 585.835 -0.130707 1.48827 0
M  V30 6096 H 587.717 -2.84953 3.10451 0
M  V30 6097 H 586.392 -2.59407 1.93623 0
M  V30 6098 H 585.299 -0.989186 3.60785 0
M  V30 6099 H 586.632 -1.32044 4.74157 0
M  V30 6100 N 588.284 -1.56567 -0.180126 0
M  V30 6101 C 589.232 -1.96632 -1.24251 0
M  V30 6102 C 590.226 -0.853818 -1.46309 0
M  V30 6103 O 591.432 -1.0389 -1.46993 0
M  V30 6104 H 587.807 -0.625476 -0.417473 0
M  V30 6105 H 589.778 -2.85201 -0.877679 0
M  V30 6106 C 588.527 -2.33486 -2.57642 0
M  V30 6107 H 587.85 -3.18626 -2.4149 0
M  V30 6108 H 589.29 -2.65371 -3.30688 0
M  V30 6109 C 587.749 -1.17499 -3.15746 0
M  V30 6110 O 588.279 -0.457956 -3.99081 0
M  V30 6111 N 586.485 -0.94786 -2.74707 0
M  V30 6112 H 586.032 -1.53269 -2.07042 0
M  V30 6113 H 585.99 -0.173626 -3.1392 0
M  V30 6114 N 589.762 0.448376 -1.51087 0
M  V30 6115 C 590.672 1.56882 -1.74428 0
M  V30 6116 C 591.688 1.62268 -0.62809 0
M  V30 6117 O 592.864 1.79716 -0.909075 0
M  V30 6118 C 589.929 2.92947 -1.85426 0
M  V30 6119 C 588.99 2.97766 -3.09247 0
M  V30 6120 C 588.223 4.27341 -3.19711 0
M  V30 6121 O 588.446 5.19112 -2.36387 0
M  V30 6122 O 587.38 4.38219 -4.12611 0
M  V30 6123 H 591.206 1.40104 -2.69452 0
M  V30 6124 H 588.791 0.630247 -1.35456 0
M  V30 6125 H 590.673 3.73719 -1.94709 0
M  V30 6126 H 589.348 3.09876 -0.935887 0
M  V30 6127 H 588.255 2.15989 -3.0545 0
M  V30 6128 H 589.588 2.8578 -4.00738 0
M  V30 6129 N 591.24 1.41047 0.703093 0
M  V30 6130 C 592.486 1.40207 1.46526 0
M  V30 6131 C 592.819 0.00847763 1.94198 0
M  V30 6132 O 592.094 -0.962437 1.69019 0
M  V30 6133 C 592.377 2.40238 2.6825 0
M  V30 6134 C 592.23 3.88674 2.26391 0
M  V30 6135 C 593.549 2.37627 3.70434 0
M  V30 6136 H 590.668 0.510594 0.531472 0
M  V30 6137 H 593.31 1.72271 0.801422 0
M  V30 6138 H 591.46 2.13026 3.24888 0
M  V30 6139 H 593.132 4.2676 1.75138 0
M  V30 6140 H 591.375 4.03903 1.58255 0
M  V30 6141 H 592.046 4.542 3.13698 0
M  V30 6142 H 594.522 2.61759 3.23452 0
M  V30 6143 H 593.398 3.09645 4.53223 0
M  V30 6144 H 593.659 1.39223 4.19606 0
M  V30 6145 N 592.718 -0.936591 1.26751 0
M  V30 6146 C 593.668 -2.0219 1.05371 0
M  V30 6147 C 594.652 -1.60893 -0.0154112 0
M  V30 6148 O 595.844 -1.75843 0.202085 0
M  V30 6149 C 592.973 -3.36222 0.693541 0
M  V30 6150 C 592.059 -3.8399 1.80035 0
M  V30 6151 N 592.45 -4.0436 3.03852 0
M  V30 6152 C 590.748 -4.12945 1.685 0
M  V30 6153 C 591.449 -4.44 3.75818 0
M  V30 6154 N 590.425 -4.50966 3.03531 0
M  V30 6155 H 594.227 -2.15958 1.99347 0
M  V30 6156 H 591.741 -1.12277 1.17335 0
M  V30 6157 H 593.738 -4.13625 0.521513 0
M  V30 6158 H 592.398 -3.23821 -0.238693 0
M  V30 6159 H 593.409 -3.9092 3.39709 0
M  V30 6160 H 590.086 -4.09308 0.822986 0
M  V30 6161 H 591.476 -4.67914 4.82189 0
M  V30 6162 N 594.196 -1.08629 -1.14182 0
M  V30 6163 C 595.442 -0.818556 -1.85546 0
M  V30 6164 C 595.775 0.654076 -1.82854 0
M  V30 6165 O 595.05 1.48099 -1.26083 0
M  V30 6166 C 595.333 -1.34397 -3.3408 0
M  V30 6167 C 595.186 -2.8821 -3.45333 0
M  V30 6168 C 596.505 -0.971069 -4.29253 0
M  V30 6169 H 593.624 -0.298821 -0.673702 0
M  V30 6170 H 596.266 -1.34629 -1.34071 0
M  V30 6171 H 594.416 -0.895064 -3.78049 0
M  V30 6172 H 596.088 -3.41488 -3.10134 0
M  V30 6173 H 594.331 -3.25756 -2.86471 0
M  V30 6174 H 595.002 -3.20047 -4.49749 0
M  V30 6175 H 597.478 -1.35809 -3.93313 0
M  V30 6176 H 596.354 -1.36586 -5.31635 0
M  V30 6177 H 596.615 0.121659 -4.41933 0
M  V30 6178 N 595.674 1.31259 -0.872281 0
M  V30 6179 C 596.902 2.00795 -0.498907 0
M  V30 6180 C 597.317 1.65464 0.909238 0
M  V30 6181 O 596.674 0.885073 1.59602 0
M  V30 6182 C 596.725 3.55625 -0.649092 0
M  V30 6183 O 596.446 3.89692 -2.00179 0
M  V30 6184 C 597.947 4.42434 -0.277034 0
M  V30 6185 H 595.167 0.642299 -0.194145 0
M  V30 6186 H 597.711 1.67438 -1.17408 0
M  V30 6187 H 595.866 3.87394 -0.0214402 0
M  V30 6188 H 596.28 4.84407 -2.01122 0
M  V30 6189 H 597.754 5.50299 -0.433064 0
M  V30 6190 H 598.231 4.32146 0.783989 0
M  V30 6191 H 598.837 4.16086 -0.880483 0
M  V30 6192 N 597.152 0.631951 1.44375 0
M  V30 6193 C 598.398 0.13697 2.02337 0
M  V30 6194 C 598.731 -1.23826 1.49602 0
M  V30 6195 O 598.006 -1.8221 0.680415 0
M  V30 6196 C 598.289 0.124536 3.59885 0
M  V30 6197 C 598.142 1.53217 4.229 0
M  V30 6198 C 599.461 -0.550481 4.36644 0
M  V30 6199 H 596.58 0.051247 0.735216 0
M  V30 6200 H 599.222 0.808581 1.71936 0
M  V30 6201 H 597.372 -0.44737 3.85916 0
M  V30 6202 H 599.044 2.15303 4.07973 0
M  V30 6203 H 597.287 2.0858 3.80364 0
M  V30 6204 H 597.958 1.4755 5.31914 0
M  V30 6205 H 600.434 -0.0641154 4.16051 0
M  V30 6206 H 599.31 -0.528371 5.46351 0
M  V30 6207 H 599.571 -1.62097 4.11311 0
M  V30 6208 N 598.631 -1.53133 0.372548 0
M  V30 6209 C 599.879 -2.00958 -0.214534 0
M  V30 6210 C 600.2 -1.26135 -1.48711 0
M  V30 6211 O 599.47 -0.376597 -1.92246 0
M  V30 6212 H 598.05 -0.742456 -0.0822664 0
M  V30 6213 H 600.712 -1.88367 0.500385 0
M  V30 6214 H 599.808 -3.09031 -0.436605 0
M  V30 6215 N 600.109 -0.101901 -1.5727 0
M  V30 6216 C 601.355 0.561027 -1.94885 0
M  V30 6217 C 601.688 1.6741 -0.984258 0
M  V30 6218 O 600.963 1.94491 -0.0184767 0
M  V30 6219 C 601.246 1.10982 -3.42571 0
M  V30 6220 C 601.099 0.00133418 -4.498 0
M  V30 6221 C 602.418 2.00608 -3.9172 0
M  V30 6222 H 599.537 0.202467 -0.708644 0
M  V30 6223 H 602.179 -0.173992 -1.89202 0
M  V30 6224 H 600.329 1.73621 -3.47546 0
M  V30 6225 H 602.001 -0.63322 -4.56933 0
M  V30 6226 H 600.244 -0.664143 -4.28686 0
M  V30 6227 H 600.915 0.426253 -5.50352 0
M  V30 6228 H 603.391 1.47864 -3.88941 0
M  V30 6229 H 602.267 2.3593 -4.95609 0
M  V30 6230 H 602.528 2.92608 -3.3141 0
M  V30 6231 N 601.587 1.56661 0.17182 0
M  V30 6232 C 602.833 1.82235 0.889845 0
M  V30 6233 C 603.166 0.679673 1.81918 0
M  V30 6234 O 602.441 -0.318404 1.91876 0
M  V30 6235 C 602.724 3.18195 1.68595 0
M  V30 6236 C 602.577 4.42989 0.779773 0
M  V30 6237 C 603.896 3.5109 2.65375 0
M  V30 6238 H 601.015 0.66291 0.322056 0
M  V30 6239 H 603.657 1.89358 0.15608 0
M  V30 6240 H 601.807 3.12253 2.3115 0
M  V30 6241 H 603.479 4.60997 0.16714 0
M  V30 6242 H 601.722 4.33711 0.0877964 0
M  V30 6243 H 602.393 5.3467 1.3723 0
M  V30 6244 H 604.869 3.57482 2.12946 0
M  V30 6245 H 603.745 4.47298 3.18144 0
M  V30 6246 H 604.006 2.75768 3.45549 0
M  V30 6247 N 603.065 -0.440357 1.51323 0
M  V30 6248 C 604.481 -0.7766 1.39431 0
M  V30 6249 C 604.681 -1.95838 0.474296 0
M  V30 6250 O 603.737 -2.52398 -0.0716692 0
M  V30 6251 C 605.05 -1.05981 2.81405 0
M  V30 6252 C 606.598 -1.16442 2.90534 0
M  V30 6253 C 607.073 -1.48058 4.33408 0
M  V30 6254 N 608.564 -1.54988 4.36501 0
M  V30 6255 C 609.299 -1.81017 5.44078 0
M  V30 6256 N 608.795 -2.04858 6.61819 0
M  V30 6257 N 610.588 -1.82774 5.31554 0
M  V30 6258 H 602.739 0.338006 2.09693 0
M  V30 6259 H 605.002 0.0888072 0.943831 0
M  V30 6260 H 604.708 -0.264173 3.50706 0
M  V30 6261 H 604.582 -1.98822 3.20546 0
M  V30 6262 H 606.969 -1.95068 2.21432 0
M  V30 6263 H 607.05 -0.215088 2.54894 0
M  V30 6264 H 606.694 -0.699605 5.03059 0
M  V30 6265 H 606.624 -2.44192 4.66559 0
M  V30 6266 H 609.115 -1.38479 3.51613 0
M  V30 6267 H 609.428 -2.2408 7.396 0
M  V30 6268 H 607.773 -2.02187 6.6494 0
M  V30 6269 H 610.964 -1.63665 4.38556 0
M  V30 6270 H 611.137 -2.02722 6.15474 0
M  V30 6271 N 604.543 -1.41418 -0.695603 0
M  V30 6272 C 605.773 -1.43921 -1.48224 0
M  V30 6273 C 606.181 -0.0428855 -1.89151 0
M  V30 6274 O 605.524 0.948138 -1.5734 0
M  V30 6275 C 605.586 -2.28466 -2.77567 0
M  V30 6276 C 605.25 -3.76629 -2.58844 0
M  V30 6277 C 606.247 -4.6879 -2.24793 0
M  V30 6278 C 603.932 -4.2067 -2.74485 0
M  V30 6279 C 605.926 -6.02981 -2.06622 0
M  V30 6280 C 603.613 -5.54926 -2.55931 0
M  V30 6281 C 604.611 -6.45897 -2.2205 0
M  V30 6282 O 604.299 -7.77675 -2.03657 0
M  V30 6283 H 604.031 -0.492252 -0.463318 0
M  V30 6284 H 606.585 -1.86347 -0.863952 0
M  V30 6285 H 604.815 -1.80853 -3.41802 0
M  V30 6286 H 606.504 -2.2267 -3.39371 0
M  V30 6287 H 607.27 -4.36055 -2.12323 0
M  V30 6288 H 603.149 -3.50167 -2.9984 0
M  V30 6289 H 606.693 -6.73951 -1.80099 0
M  V30 6290 H 602.59 -5.8724 -2.67991 0
M  V30 6291 H 603.358 -7.88819 -2.1842 0
M  V30 6292 N 606.021 0.929856 -1.27246 0
M  V30 6293 C 607.298 1.65544 -1.04186 0
M  V30 6294 C 607.678 2.06796 0.424097 0
M  V30 6295 O 607.026 1.80053 1.40688 0
M  V30 6296 C 607.236 2.85912 -2.00138 0
M  V30 6297 C 608.584 3.57305 -2.29387 0
M  V30 6298 O 609.608 2.96036 -1.98094 0
M  V30 6299 O 608.467 4.67688 -2.82719 0
M  V30 6300 H 605.561 0.725473 -0.397011 0
M  V30 6301 H 608.107 0.980583 -1.38501 0
M  V30 6302 H 606.879 2.52403 -2.99013 0
M  V30 6303 H 606.502 3.61118 -1.66371 0
M  V30 6304 N 607.499 1.09233 1.13605 0
M  V30 6305 C 608.745 0.828385 1.8511 0
M  V30 6306 C 609.078 -0.64437 1.83198 0
M  V30 6307 O 608.353 -1.47428 1.26867 0
M  V30 6308 C 608.636 1.36167 3.33363 0
M  V30 6309 C 608.489 2.90038 3.438 0
M  V30 6310 C 609.808 0.993819 4.28732 0
M  V30 6311 H 606.927 0.30239 0.672108 0
M  V30 6312 H 609.569 1.35339 1.33355 0
M  V30 6313 H 607.719 0.9151 3.77569 0
M  V30 6314 H 609.391 3.43128 3.08319 0
M  V30 6315 H 607.634 3.27271 2.84739 0
M  V30 6316 H 608.305 3.22428 4.48045 0
M  V30 6317 H 610.781 1.37893 3.92587 0
M  V30 6318 H 609.657 1.39403 5.30903 0
M  V30 6319 H 609.918 -0.0982206 4.41991 0
M  V30 6320 N 608.977 -1.30795 0.87923 0
M  V30 6321 C 609.887 -2.32041 0.345565 0
M  V30 6322 C 610.903 -1.65103 -0.549265 0
M  V30 6323 O 612.079 -1.9645 -0.443763 0
M  V30 6324 C 609.144 -3.43944 -0.436245 0
M  V30 6325 C 608.205 -4.26521 0.48765 0
M  V30 6326 C 607.438 -5.33081 -0.256943 0
M  V30 6327 O 607.661 -5.50762 -1.48381 0
M  V30 6328 O 606.595 -6.00635 0.389985 0
M  V30 6329 H 610.421 -2.79627 1.18501 0
M  V30 6330 H 608.006 -1.3486 0.642885 0
M  V30 6331 H 609.888 -4.12128 -0.879119 0
M  V30 6332 H 608.563 -2.98504 -1.25208 0
M  V30 6333 H 607.47 -3.61057 0.979216 0
M  V30 6334 H 608.803 -4.75551 1.26933 0
M  V30 6335 N 610.455 -0.639598 -1.44038 0
M  V30 6336 C 611.703 -0.147188 -2.01563 0
M  V30 6337 C 612.024 1.2384 -1.50628 0
M  V30 6338 O 611.294 1.82452 -0.713316 0
M  V30 6339 H 609.874 -0.0514231 -0.745228 0
M  V30 6340 H 612.536 -0.828205 -1.76428 0
M  V30 6341 H 611.632 -0.121358 -3.11864 0
M  V30 6342 N 611.933 1.52934 -0.380664 0
M  V30 6343 C 613.349 1.59571 -0.0302429 0
M  V30 6344 C 613.549 1.39509 1.45394 0
M  V30 6345 O 612.605 1.20777 2.21741 0
M  V30 6346 C 613.918 2.96519 -0.499691 0
M  V30 6347 C 615.466 3.09672 -0.455204 0
M  V30 6348 C 615.941 4.49056 -0.900703 0
M  V30 6349 N 617.432 4.55215 -0.856367 0
M  V30 6350 C 618.167 5.61282 -1.17259 0
M  V30 6351 N 617.663 6.75035 -1.55885 0
M  V30 6352 N 619.456 5.51343 -1.0944 0
M  V30 6353 H 611.607 1.64224 -1.347 0
M  V30 6354 H 613.87 0.771033 -0.551554 0
M  V30 6355 H 613.576 3.16388 -1.53595 0
M  V30 6356 H 613.45 3.77052 0.105789 0
M  V30 6357 H 615.837 2.89504 0.571949 0
M  V30 6358 H 615.918 2.31113 -1.09638 0
M  V30 6359 H 615.562 4.69964 -1.92604 0
M  V30 6360 H 615.492 5.26068 -0.236629 0
M  V30 6361 H 617.983 3.73546 -0.572013 0
M  V30 6362 H 618.296 7.51926 -1.784 0
M  V30 6363 H 616.641 6.76388 -1.59764 0
M  V30 6364 H 619.832 4.61356 -0.791713 0
M  V30 6365 H 620.005 6.33905 -1.34417 0
M  V30 6366 N 613.412 0.11024 1.57214 0
M  V30 6367 C 614.375 -0.828808 2.1369 0
M  V30 6368 C 615.375 -1.20059 1.06969 0
M  V30 6369 O 616.565 -1.12754 1.32786 0
M  V30 6370 C 613.697 -2.11959 2.66994 0
M  V30 6371 H 614.89 -0.338146 2.97988 0
M  V30 6372 H 612.443 -0.138913 1.55681 0
M  V30 6373 H 613.178 -2.65476 1.8626 0
M  V30 6374 H 612.963 -1.86258 3.45037 0
M  V30 6375 H 614.453 -2.79105 3.10629 0
M  V30 6376 N 614.89 -1.56749 -0.16351 0
M  V30 6377 C 616.306 -1.51043 -0.515567 0
M  V30 6378 C 616.506 -0.815855 -1.84245 0
M  V30 6379 O 615.562 -0.379477 -2.49632 0
M  V30 6380 C 616.875 -2.95791 -0.541114 0
M  V30 6381 C 618.423 -3.0664 -0.627776 0
M  V30 6382 C 618.898 -4.52861 -0.684141 0
M  V30 6383 N 620.389 -4.5714 -0.746818 0
M  V30 6384 C 621.124 -5.67634 -0.811137 0
M  V30 6385 N 620.62 -6.8774 -0.835811 0
M  V30 6386 N 622.413 -5.55624 -0.850756 0
M  V30 6387 H 614.564 -2.00307 0.70645 0
M  V30 6388 H 616.827 -0.912876 0.255659 0
M  V30 6389 H 616.533 -3.49797 0.365329 0
M  V30 6390 H 616.407 -3.50858 -1.38487 0
M  V30 6391 H 618.794 -2.52663 -1.52464 0
M  V30 6392 H 618.875 -2.54645 0.242805 0
M  V30 6393 H 618.519 -5.07472 0.2085 0
M  V30 6394 H 618.449 -5.02621 -1.57098 0
M  V30 6395 H 620.94 -3.70669 -0.735717 0
M  V30 6396 H 621.253 -7.67701 -0.886279 0
M  V30 6397 H 619.598 -6.90334 -0.803958 0
M  V30 6398 H 622.789 -4.60709 -0.828535 0
M  V30 6399 H 622.962 -6.41756 -0.897418 0
M  V30 6400 N 616.368 0.432326 -1.51554 0
M  V30 6401 C 617.331 1.50765 -1.72634 0
M  V30 6402 C 618.331 1.49334 -0.596314 0
M  V30 6403 O 619.521 1.51268 -0.863925 0
M  V30 6404 C 616.653 2.90284 -1.7874 0
M  V30 6405 H 617.846 1.33377 -2.68609 0
M  V30 6406 H 615.399 0.661329 -1.4162 0
M  V30 6407 H 616.134 3.13071 -0.845977 0
M  V30 6408 H 615.919 2.92727 -2.6087 0
M  V30 6409 H 617.409 3.68282 -1.96871 0
M  V30 6410 N 617.846 1.41785 0.688094 0
M  V30 6411 C 619.094 1.41264 1.4453 0
M  V30 6412 C 619.415 0.0252946 1.94984 0
M  V30 6413 O 618.685 -0.934081 1.72197 0
M  V30 6414 H 617.265 0.519998 0.536294 0
M  V30 6415 H 619.927 1.7709 0.813941 0
M  V30 6416 H 619.023 2.10439 2.30482 0
M  V30 6417 N 619.324 -0.923095 1.27737 0
M  V30 6418 C 620.572 -1.66797 1.14119 0
M  V30 6419 C 620.893 -1.92479 -0.312541 0
M  V30 6420 O 620.163 -1.53432 -1.218 0
M  V30 6421 H 618.743 -0.618196 0.419336 0
M  V30 6422 H 621.405 -1.10815 1.60331 0
M  V30 6423 H 620.501 -2.63424 1.67374 0
M  V30 6424 N 620.802 -1.09834 -1.13024 0
M  V30 6425 C 621.765 -0.745058 -2.16752 0
M  V30 6426 C 622.765 0.227435 -1.59183 0
M  V30 6427 O 623.955 0.0050786 -1.74199 0
M  V30 6428 C 621.087 -0.102543 -3.40746 0
M  V30 6429 H 622.28 -1.66375 -2.49518 0
M  V30 6430 H 619.833 -0.898061 -1.27924 0
M  V30 6431 H 620.568 0.827177 -3.13573 0
M  V30 6432 H 620.353 -0.80235 -3.83803 0
M  V30 6433 H 621.843 0.129082 -4.174 0
M  V30 6434 N 622.28 1.30327 -0.886154 0
M  V30 6435 C 623.505 2.0079 -0.519425 0
M  V30 6436 C 623.93 1.65979 0.885013 0
M  V30 6437 O 623.288 0.877043 1.58675 0
M  V30 6438 C 623.336 3.53686 -0.702758 0
M  V30 6439 O 622.44 4.11637 0.250828 0
M  V30 6440 H 621.781 0.63171 -0.204544 0
M  V30 6441 H 624.311 1.66145 -1.19402 0
M  V30 6442 H 624.321 4.03531 -0.602207 0
M  V30 6443 H 622.996 3.78361 -1.72673 0
M  V30 6444 H 621.573 3.72755 0.103873 0
M  V30 6445 N 623.758 0.647228 1.43697 0
M  V30 6446 C 624.983 0.164083 2.0675 0
M  V30 6447 C 625.408 -1.15892 1.48158 0
M  V30 6448 O 624.766 -1.71459 0.589194 0
M  V30 6449 C 624.814 0.0800368 3.60511 0
M  V30 6450 O 623.918 -0.959453 4.01084 0
M  V30 6451 H 623.259 0.0921288 0.657578 0
M  V30 6452 H 625.789 0.88846 1.84303 0
M  V30 6453 H 625.799 -0.105263 4.07864 0
M  V30 6454 H 624.474 1.04586 4.02535 0
M  V30 6455 H 623.051 -0.747425 3.65333 0
M  V30 6456 N 625.236 -1.5273 0.388769 0
M  V30 6457 C 626.483 -2.01573 -0.19359 0
M  V30 6458 C 626.811 -1.27525 -1.46859 0
M  V30 6459 O 626.066 -0.363926 -1.92286 0
M  V30 6460 C 626.365 -3.53765 -0.508445 0
M  V30 6461 C 626.031 -4.4582 0.674947 0
M  V30 6462 C 624.693 -4.70703 0.999596 0
M  V30 6463 C 627.045 -5.00138 1.46666 0
M  V30 6464 C 624.373 -5.47155 2.11751 0
M  V30 6465 C 626.725 -5.77812 2.57518 0
M  V30 6466 C 625.389 -6.00975 2.90492 0
M  V30 6467 H 624.659 -0.737606 -0.0708397 0
M  V30 6468 H 627.306 -1.84134 0.526006 0
M  V30 6469 H 625.611 -3.69274 -1.30936 0
M  V30 6470 H 627.308 -3.8905 -0.971664 0
M  V30 6471 H 623.898 -4.26616 0.411906 0
M  V30 6472 H 628.082 -4.8084 1.22909 0
M  V30 6473 H 623.338 -5.63314 2.3767 0
M  V30 6474 H 627.512 -6.18904 3.19267 0
M  V30 6475 H 625.139 -6.59998 3.77236 0
M  V30 6476 N 626.714 -0.118576 -1.57153 0
M  V30 6477 C 627.644 0.828436 -2.1831 0
M  V30 6478 C 628.625 1.27758 -1.12303 0
M  V30 6479 O 629.81 1.34026 -1.40537 0
M  V30 6480 C 626.94 2.07876 -2.78217 0
M  V30 6481 C 625.894 1.76742 -3.89803 0
M  V30 6482 C 625.22 3.08801 -4.36516 0
M  V30 6483 C 626.52 1.03606 -5.11921 0
M  V30 6484 H 628.214 0.318824 -2.97698 0
M  V30 6485 H 625.76 0.151911 -1.43196 0
M  V30 6486 H 627.713 2.74584 -3.19659 0
M  V30 6487 H 626.437 2.61161 -1.96118 0
M  V30 6488 H 625.096 1.12424 -3.48936 0
M  V30 6489 H 624.744 3.6002 -3.51276 0
M  V30 6490 H 624.444 2.88743 -5.11763 0
M  V30 6491 H 625.968 3.76627 -4.80608 0
M  V30 6492 H 627.382 1.60467 -5.50385 0
M  V30 6493 H 625.779 0.936454 -5.92748 0
M  V30 6494 H 626.849 0.0227421 -4.84895 0
M  V30 6495 N 628.193 1.56834 0.155195 0
M  V30 6496 C 629.156 1.96748 1.17571 0
M  V30 6497 C 630.156 0.853006 1.3631 0
M  V30 6498 O 631.346 1.11978 1.33441 0
M  V30 6499 C 628.478 2.27631 2.53765 0
M  V30 6500 H 629.671 2.88085 0.833498 0
M  V30 6501 H 627.224 1.51141 0.398242 0
M  V30 6502 H 627.959 1.39059 2.92973 0
M  V30 6503 H 627.744 3.0888 2.41527 0
M  V30 6504 H 629.234 2.59377 3.27282 0
M  V30 6505 N 629.671 -0.424282 1.51781 0
M  V30 6506 C 630.948 -1.18464 1.55646 0
M  V30 6507 C 631.328 -2.08529 0.328438 0
M  V30 6508 O 630.676 -2.17969 -0.685693 0
M  V30 6509 C 630.886 -1.97514 2.87731 0
M  V30 6510 C 632.234 -2.54106 3.40169 0
M  V30 6511 O 633.258 -2.07711 2.89369 0
M  V30 6512 O 632.117 -3.38759 4.28841 0
M  V30 6513 H 629.211 -0.540055 0.626314 0
M  V30 6514 H 631.757 -0.432291 1.64102 0
M  V30 6515 H 630.529 -1.31444 3.68562 0
M  V30 6516 H 630.152 -2.79787 2.82498 0
M  V30 6517 N 631.149 -1.42148 -0.680565 0
M  V30 6518 C 632.565 -1.24947 -0.992995 0
M  V30 6519 C 632.765 -0.149527 -2.00944 0
M  V30 6520 O 631.821 0.481145 -2.47873 0
M  V30 6521 C 633.134 -2.60426 -1.5033 0
M  V30 6522 C 634.682 -2.67733 -1.62137 0
M  V30 6523 C 635.157 -4.03564 -2.16565 0
M  V30 6524 N 636.648 -4.05488 -2.23905 0
M  V30 6525 C 637.383 -5.07401 -2.67081 0
M  V30 6526 N 636.879 -6.19698 -3.09751 0
M  V30 6527 N 638.672 -4.94758 -2.66778 0
M  V30 6528 H 630.823 -2.12399 -0.0074788 0
M  V30 6529 H 633.086 -0.94571 -0.0658529 0
M  V30 6530 H 632.792 -3.41743 -0.830947 0
M  V30 6531 H 632.666 -2.83949 -2.483 0
M  V30 6532 H 635.053 -1.86765 -2.2848 0
M  V30 6533 H 635.134 -2.48004 -0.626713 0
M  V30 6534 H 634.778 -4.84987 -1.50833 0
M  V30 6535 H 634.708 -4.20641 -3.1681 0
M  V30 6536 H 637.199 -3.24415 -1.93812 0
M  V30 6537 H 637.512 -6.93318 -3.41365 0
M  V30 6538 H 635.857 -6.23212 -3.07623 0
M  V30 6539 H 639.048 -4.06105 -2.32801 0
M  V30 6540 H 639.221 -5.74317 -3.00107 0
M  V30 6541 N 632.627 0.916307 -1.28225 0
M  V30 6542 C 633.873 1.66765 -1.154 0
M  V30 6543 C 634.206 1.91912 0.297251 0
M  V30 6544 O 633.481 1.51766 1.21644 0
M  V30 6545 C 633.764 3.02715 -1.95028 0
M  V30 6546 C 633.617 2.84738 -3.48201 0
M  V30 6547 C 634.936 4.03215 -1.76369 0
M  V30 6548 H 632.055 0.605205 -0.42059 0
M  V30 6549 H 634.697 1.06255 -1.57512 0
M  V30 6550 H 632.847 3.54365 -1.59242 0
M  V30 6551 H 634.519 2.40118 -3.9388 0
M  V30 6552 H 632.762 2.19848 -3.73964 0
M  V30 6553 H 633.433 3.8127 -3.99171 0
M  V30 6554 H 635.909 3.60617 -2.07593 0
M  V30 6555 H 634.785 4.96306 -2.34459 0
M  V30 6556 H 635.046 4.36288 -0.71452 0
M  V30 6557 N 634.105 1.10431 1.1244 0
M  V30 6558 C 635.015 0.765502 2.21759 0
M  V30 6559 C 636.031 -0.236966 1.72379 0
M  V30 6560 O 637.207 -0.0757329 2.01258 0
M  V30 6561 C 634.272 0.202316 3.46109 0
M  V30 6562 C 633.333 1.26205 4.1033 0
M  V30 6563 C 632.566 0.725648 5.28744 0
M  V30 6564 O 632.789 -0.447942 5.68638 0
M  V30 6565 O 631.723 1.48555 5.83279 0
M  V30 6566 H 635.549 1.67801 2.53133 0
M  V30 6567 H 633.134 0.879443 1.20773 0
M  V30 6568 H 635.016 -0.107918 4.21262 0
M  V30 6569 H 633.691 -0.683052 3.16411 0
M  V30 6570 H 632.598 1.62514 3.36957 0
M  V30 6571 H 633.931 2.12044 4.44183 0
M  V30 6572 N 635.583 -1.29855 0.893053 0
M  V30 6573 C 636.493 -2.31661 0.370157 0
M  V30 6574 C 637.509 -1.65677 -0.531723 0
M  V30 6575 O 638.685 -1.9691 -0.422902 0
M  V30 6576 C 635.75 -3.44388 -0.399741 0
M  V30 6577 C 634.811 -4.2598 0.532861 0
M  V30 6578 C 634.044 -5.33324 -0.200388 0
M  V30 6579 O 634.267 -5.52305 -1.42531 0
M  V30 6580 O 633.201 -6.00188 0.453668 0
M  V30 6581 H 637.027 -2.78354 1.2146 0
M  V30 6582 H 634.612 -1.34171 0.657153 0
M  V30 6583 H 636.494 -4.13037 -0.835358 0
M  V30 6584 H 635.169 -2.99815 -1.22035 0
M  V30 6585 H 634.076 -3.59998 1.01746 0
M  V30 6586 H 635.409 -4.74178 1.3197 0
M  V30 6587 N 637.061 -0.65484 -1.43351 0
M  V30 6588 C 637.971 0.0363603 -2.34572 0
M  V30 6589 C 638.987 0.810432 -1.53974 0
M  V30 6590 O 640.163 0.757308 -1.86619 0
M  V30 6591 C 637.228 0.989733 -3.32273 0
M  V30 6592 C 636.289 0.212414 -4.28774 0
M  V30 6593 C 635.522 1.12038 -5.21808 0
M  V30 6594 O 635.745 2.35967 -5.19303 0
M  V30 6595 O 634.679 0.59191 -5.98982 0
M  V30 6596 H 638.505 -0.714527 -2.95175 0
M  V30 6597 H 636.09 -0.415029 -1.4352 0
M  V30 6598 H 637.972 1.53759 -3.92347 0
M  V30 6599 H 636.647 1.72082 -2.74171 0
M  V30 6600 H 635.554 -0.379062 -3.72175 0
M  V30 6601 H 636.887 -0.479138 -4.89862 0
M  V30 6602 N 638.539 1.52521 -0.396863 0
M  V30 6603 C 639.787 2.01274 0.182536 0
M  V30 6604 C 640.108 1.28485 1.46685 0
M  V30 6605 O 639.378 0.407134 1.91623 0
M  V30 6606 H 637.958 0.743671 0.0704442 0
M  V30 6607 H 640.62 1.87547 -0.530289 0
M  V30 6608 H 639.716 3.09687 0.387385 0
M  V30 6609 N 640.017 0.126909 1.57088 0
M  V30 6610 C 640.927 -0.833867 2.1928 0
M  V30 6611 C 641.943 -1.2868 1.17122 0
M  V30 6612 O 643.119 -1.34815 1.49622 0
M  V30 6613 C 640.184 -2.0632 2.78627 0
M  V30 6614 C 639.245 -1.66143 3.95847 0
M  V30 6615 C 638.478 -2.83217 4.52354 0
M  V30 6616 O 638.701 -3.98868 4.0775 0
M  V30 6617 O 637.635 -2.59846 5.42922 0
M  V30 6618 H 641.461 -0.334564 3.01852 0
M  V30 6619 H 639.046 -0.0991091 1.49071 0
M  V30 6620 H 640.928 -2.78304 3.16425 0
M  V30 6621 H 639.603 -2.55242 1.99082 0
M  V30 6622 H 638.51 -0.912435 3.62802 0
M  V30 6623 H 639.843 -1.21957 4.76852 0
M  V30 6624 N 641.495 -1.56914 -0.146875 0
M  V30 6625 C 642.741 -1.83628 -0.860741 0
M  V30 6626 C 643.074 -0.708528 -1.80813 0
M  V30 6627 O 642.349 0.287838 -1.92358 0
M  V30 6628 C 642.632 -3.20836 -1.63511 0
M  V30 6629 C 642.485 -4.44174 -0.709199 0
M  V30 6630 C 643.804 -3.55268 -2.59756 0
M  V30 6631 H 640.923 -0.667949 -0.311468 0
M  V30 6632 H 643.565 -1.89582 -0.125936 0
M  V30 6633 H 641.715 -3.15891 -2.26153 0
M  V30 6634 H 643.387 -4.61205 -0.0937781 0
M  V30 6635 H 641.63 -4.33796 -0.0187856 0
M  V30 6636 H 642.301 -5.36785 -1.28707 0
M  V30 6637 H 644.777 -3.60824 -2.07232 0
M  V30 6638 H 643.653 -4.52303 -3.10987 0
M  V30 6639 H 643.914 -2.81231 -3.41118 0
M  V30 6640 N 642.974 0.416227 -1.52004 0
M  V30 6641 C 644.39 0.754319 -1.40649 0
M  V30 6642 C 644.59 1.95059 -0.505392 0
M  V30 6643 O 643.646 2.5248 0.0315057 0
M  V30 6644 C 644.959 1.0149 -2.83055 0
M  V30 6645 C 646.507 1.11805 -2.9235 0
M  V30 6646 C 646.982 1.41144 -4.35709 0
M  V30 6647 N 648.473 1.48024 -4.38911 0
M  V30 6648 C 649.208 1.72338 -5.46889 0
M  V30 6649 N 648.704 1.94303 -6.64995 0
M  V30 6650 N 650.497 1.74294 -5.34395 0
M  V30 6651 H 642.648 -0.371324 -2.09129 0
M  V30 6652 H 644.911 -0.103811 -0.942299 0
M  V30 6653 H 644.617 0.208345 -3.51082 0
M  V30 6654 H 644.491 1.93697 -3.23668 0
M  V30 6655 H 646.878 1.91521 -2.24508 0
M  V30 6656 H 646.959 0.17451 -2.55204 0
M  V30 6657 H 646.603 0.619484 -5.04108 0
M  V30 6658 H 646.533 2.36739 -4.70385 0
M  V30 6659 H 649.024 1.32868 -3.53772 0
M  V30 6660 H 649.337 2.12286 -7.43071 0
M  V30 6661 H 647.682 1.91582 -6.68073 0
M  V30 6662 H 650.873 1.56667 -4.41104 0
M  V30 6663 H 651.046 1.92904 -6.18621 0
M  V30 6664 N 644.452 1.42507 0.673017 0
M  V30 6665 C 645.698 1.43284 1.43519 0
M  V30 6666 C 646.031 0.049668 1.94136 0
M  V30 6667 O 645.306 -0.926369 1.71022 0
M  V30 6668 C 645.589 2.45874 2.63093 0
M  V30 6669 C 645.442 3.93388 2.18096 0
M  V30 6670 C 646.761 2.45431 3.6531 0
M  V30 6671 H 643.88 0.521752 0.520522 0
M  V30 6672 H 646.522 1.73932 0.764701 0
M  V30 6673 H 644.672 2.19869 3.20296 0
M  V30 6674 H 646.344 4.30379 1.66046 0
M  V30 6675 H 644.587 4.07169 1.49652 0
M  V30 6676 H 645.258 4.60752 3.03993 0
M  V30 6677 H 647.734 2.68561 3.17827 0
M  V30 6678 H 646.61 3.19189 4.46553 0
M  V30 6679 H 646.871 1.48092 4.16559 0
M  V30 6680 N 645.93 -0.909495 1.28709 0
M  V30 6681 C 647.177 -1.65905 1.16111 0
M  V30 6682 C 647.505 -1.92334 -0.289436 0
M  V30 6683 O 646.76 -1.52495 -1.22653 0
M  V30 6684 C 647.059 -3.02117 1.90945 0
M  V30 6685 C 646.725 -2.95332 3.40719 0
M  V30 6686 C 645.387 -2.93189 3.81567 0
M  V30 6687 C 647.739 -2.85264 4.36204 0
M  V30 6688 C 645.067 -2.78784 5.16233 0
M  V30 6689 C 647.419 -2.724 5.70948 0
M  V30 6690 C 646.083 -2.68617 6.11066 0
M  V30 6691 H 645.353 -0.60709 0.42488 0
M  V30 6692 H 648 -1.05932 1.59533 0
M  V30 6693 H 646.305 -3.65901 1.40085 0
M  V30 6694 H 648.002 -3.59026 1.7861 0
M  V30 6695 H 644.592 -2.97797 3.08245 0
M  V30 6696 H 648.776 -2.86005 4.05605 0
M  V30 6697 H 644.032 -2.74254 5.46438 0
M  V30 6698 H 648.206 -2.63579 6.44592 0
M  V30 6699 H 645.833 -2.57213 7.15364 0
M  V30 6700 N 647.408 -1.11026 -1.11852 0
M  V30 6701 C 648.657 -0.851249 -1.82857 0
M  V30 6702 C 648.97 0.62514 -1.85341 0
M  V30 6703 O 650.176 1.00026 -2.52403 0
M  V30 6704 C 648.632 -1.47309 -3.28372 0
M  V30 6705 C 648.24 -2.9832 -3.34229 0
M  V30 6706 C 649.984 -1.29373 -4.04306 0
M  V30 6707 C 647.891 -3.53509 -4.74115 0
M  V30 6708 H 646.821 -0.314794 -0.685143 0
M  V30 6709 H 649.472 -1.33499 -1.25898 0
M  V30 6710 H 647.854 -0.917017 -3.85236 0
M  V30 6711 H 649.028 -3.60295 -2.87271 0
M  V30 6712 H 647.343 -3.15482 -2.71772 0
M  V30 6713 H 649.94 -1.68042 -5.07608 0
M  V30 6714 H 650.283 -0.235879 -4.15631 0
M  V30 6715 H 650.816 -1.8182 -3.53817 0
M  V30 6716 H 647.555 -4.58987 -4.67986 0
M  V30 6717 H 647.075 -2.96305 -5.21501 0
M  V30 6718 H 648.754 -3.51693 -5.43066 0
M  V30 6719 N 648.886 1.2938 -0.899927 0
M  V30 6720 C 649.796 2.31462 -0.382437 0
M  V30 6721 C 650.812 1.65956 0.522929 0
M  V30 6722 O 651.988 1.97131 0.412454 0
M  V30 6723 C 649.053 3.44595 0.381472 0
M  V30 6724 C 648.114 4.25692 -0.555444 0
M  V30 6725 C 647.347 5.33422 0.172102 0
M  V30 6726 O 647.57 5.53053 1.396 0
M  V30 6727 O 646.504 5.99939 -0.485491 0
M  V30 6728 H 650.33 2.77706 -1.22934 0
M  V30 6729 H 647.915 1.33821 -0.664259 0
M  V30 6730 H 649.797 4.13474 0.813442 0
M  V30 6731 H 648.472 3.00458 1.20443 0
M  V30 6732 H 647.379 3.59453 -1.03653 0
M  V30 6733 H 648.712 4.73471 -1.34483 0
M  V30 6734 N 650.364 0.662433 1.43002 0
M  V30 6735 C 651.314 -0.0460442 2.27954 0
M  V30 6736 C 652.298 -0.785753 1.40409 0
M  V30 6737 O 653.49 -0.666701 1.63964 0
M  V30 6738 C 650.619 -1.00532 3.2825 0
M  V30 6739 C 649.705 -0.263604 4.2328 0
M  V30 6740 N 650.096 0.724855 5.00579 0
M  V30 6741 C 648.394 -0.503778 4.43146 0
M  V30 6742 C 649.095 1.16594 5.69895 0
M  V30 6743 N 648.071 0.498345 5.41311 0
M  V30 6744 H 651.873 0.712314 2.85137 0
M  V30 6745 H 649.387 0.490469 1.54817 0
M  V30 6746 H 651.384 -1.52775 3.87899 0
M  V30 6747 H 650.044 -1.76364 2.72628 0
M  V30 6748 H 651.055 1.10393 5.05998 0
M  V30 6749 H 647.732 -1.24255 3.98581 0
M  V30 6750 H 649.122 1.98434 6.4193 0
M  V30 6751 N 651.842 -1.52309 0.404946 0
M  V30 6752 C 652.79 -2.28452 -0.437321 0
M  V30 6753 C 653.784 -1.32975 -1.04948 0
M  V30 6754 O 654.99 -1.50451 -0.988159 0
M  V30 6755 H 651.365 -0.734824 -0.159805 0
M  V30 6756 H 653.336 -2.97542 0.22615 0
M  V30 6757 C 652.085 -3.11536 -1.54404 0
M  V30 6758 H 651.408 -3.84871 -1.08233 0
M  V30 6759 H 652.848 -3.67926 -2.10729 0
M  V30 6760 C 651.307 -2.24833 -2.50902 0
M  V30 6761 O 651.837 -1.88574 -3.54687 0
M  V30 6762 N 650.043 -1.88685 -2.21012 0
M  V30 6763 H 649.59 -2.18371 -1.36646 0
M  V30 6764 H 649.548 -1.30966 -2.85824 0
M  V30 6765 N 653.32 -0.135238 -1.57019 0
M  V30 6766 C 654.597 0.563227 -1.87316 0
M  V30 6767 C 654.977 1.83749 -1.03921 0
M  V30 6768 O 654.325 2.2817 -0.122675 0
M  V30 6769 C 654.535 0.840031 -3.3874 0
M  V30 6770 C 655.883 1.18598 -4.077 0
M  V30 6771 O 656.907 0.92977 -3.43851 0
M  V30 6772 O 655.766 1.66758 -5.20436 0
M  V30 6773 H 652.86 0.285971 -0.775983 0
M  V30 6774 H 655.406 -0.170965 -1.68837 0
M  V30 6775 H 654.178 -0.0622785 -3.9125 0
M  V30 6776 H 653.801 1.62882 -3.62706 0
M  V30 6777 N 654.798 1.5699 0.138552 0
M  V30 6778 C 655.746 1.99858 1.18994 0
M  V30 6779 C 656.74 0.89231 1.43994 0
M  V30 6780 O 657.946 1.0775 1.44187 0
M  V30 6781 H 654.321 0.636325 0.400743 0
M  V30 6782 H 656.292 2.87427 0.801755 0
M  V30 6783 C 655.041 2.40235 2.51361 0
M  V30 6784 H 654.364 3.24917 2.32957 0
M  V30 6785 H 655.804 2.74045 3.23535 0
M  V30 6786 C 654.263 1.25829 3.1252 0
M  V30 6787 O 654.793 0.563604 3.97727 0
M  V30 6788 N 652.999 1.02036 2.72097 0
M  V30 6789 H 652.546 1.58705 2.02905 0
M  V30 6790 H 652.504 0.256796 3.1335 0
M  V30 6791 N 656.276 -0.40816 1.52223 0
M  V30 6792 C 657.523 -1.15502 1.66329 0
M  V30 6793 C 657.851 -1.90474 0.393701 0
M  V30 6794 O 657.106 -1.85507 -0.623356 0
M  V30 6795 C 657.405 -2.17422 2.83659 0
M  V30 6796 C 657.071 -1.5925 4.21841 0
M  V30 6797 C 655.733 -1.4311 4.59427 0
M  V30 6798 C 658.085 -1.16776 5.0795 0
M  V30 6799 C 655.413 -0.830148 5.80797 0
M  V30 6800 C 657.765 -0.580988 6.29926 0
M  V30 6801 C 656.429 -0.406729 6.6626 0
M  V30 6802 H 655.699 -0.422653 0.608642 0
M  V30 6803 H 658.346 -0.442114 1.86327 0
M  V30 6804 H 656.651 -2.94861 2.58001 0
M  V30 6805 H 658.348 -2.75084 2.9177 0
M  V30 6806 H 654.938 -1.72796 3.92224 0
M  V30 6807 H 659.122 -1.28055 4.79495 0
M  V30 6808 H 654.378 -0.68316 6.07571 0
M  V30 6809 H 658.552 -0.243488 6.95974 0
M  V30 6810 H 656.179 0.0610366 7.60175 0
M  V30 6811 N 657.755 -1.42862 -0.66545 0
M  V30 6812 C 659.171 -1.25993 -0.979687 0
M  V30 6813 C 659.371 -0.170831 -2.00775 0
M  V30 6814 O 658.427 0.454827 -2.4837 0
M  V30 6815 C 659.74 -2.62005 -1.47559 0
M  V30 6816 C 661.288 -2.69437 -1.59288 0
M  V30 6817 C 661.763 -4.05838 -2.12272 0
M  V30 6818 N 663.254 -4.0784 -2.19592 0
M  V30 6819 C 663.989 -5.10205 -2.61684 0
M  V30 6820 N 663.485 -6.22949 -3.03161 0
M  V30 6821 N 665.278 -4.9756 -2.61516 0
M  V30 6822 H 657.429 -2.12395 0.0150493 0
M  V30 6823 H 659.692 -0.946355 -0.0558187 0
M  V30 6824 H 659.398 -3.42605 -0.794654 0
M  V30 6825 H 659.272 -2.86566 -2.45275 0
M  V30 6826 H 661.659 -1.89178 -2.26486 0
M  V30 6827 H 661.74 -2.48655 -0.600374 0
M  V30 6828 H 661.384 -4.86559 -1.4568 0
M  V30 6829 H 661.314 -4.23977 -3.12331 0
M  V30 6830 H 663.805 -3.26452 -1.90361 0
M  V30 6831 H 664.118 -6.96899 -3.33993 0
M  V30 6832 H 662.463 -6.2644 -3.00995 0
M  V30 6833 H 665.654 -4.08551 -2.28481 0
M  V30 6834 H 665.827 -5.77468 -2.93999 0
M  V30 6835 N 659.233 0.902656 -1.29189 0
M  V30 6836 C 660.163 2.02294 -1.16616 0
M  V30 6837 C 661.144 1.6999 -0.0611175 0
M  V30 6838 O 662.329 1.9271 -0.240072 0
M  V30 6839 C 659.459 3.37018 -0.83882 0
M  V30 6840 C 658.413 3.83522 -1.89986 0
M  V30 6841 C 657.739 5.15337 -1.42589 0
M  V30 6842 C 659.039 4.04169 -3.30824 0
M  V30 6843 H 660.733 2.13071 -2.10336 0
M  V30 6844 H 658.279 1.02378 -1.01266 0
M  V30 6845 H 660.232 4.14895 -0.737584 0
M  V30 6846 H 658.956 3.26325 0.134071 0
M  V30 6847 H 657.615 3.07859 -1.99043 0
M  V30 6848 H 657.263 5.01056 -0.441759 0
M  V30 6849 H 656.963 5.47423 -2.13547 0
M  V30 6850 H 658.487 5.95758 -1.3381 0
M  V30 6851 H 659.901 4.72537 -3.24626 0
M  V30 6852 H 658.298 4.47604 -3.99713 0
M  V30 6853 H 659.368 3.08604 -3.74021 0
M  V30 6854 N 660.711 1.11618 1.11262 0
M  V30 6855 C 662.122 0.881942 1.64556 0
M  V30 6856 C 662.473 -0.585442 1.87262 0
M  V30 6857 O 661.598 -1.44795 1.60821 0
M  V30 6858 C 662.193 1.59446 2.98935 0
M  V30 6859 C 660.752 1.40661 3.4913 0
M  V30 6860 C 659.899 1.63593 2.23903 0
M  V30 6861 H 662.85 1.27217 0.94877 0
M  V30 6862 H 662.871 1.04054 3.65996 0
M  V30 6863 H 662.383 2.66241 2.82378 0
M  V30 6864 H 660.484 0.360835 3.70849 0
M  V30 6865 H 660.597 2.15693 4.27801 0
M  V30 6866 H 658.961 1.05944 2.3162 0
M  V30 6867 H 659.744 2.71666 2.09886 0
M  V30 6868 N 662.189 -1.289 0.906776 0
M  V30 6869 C 663.152 -2.25777 0.394656 0
M  V30 6870 C 664.152 -1.53621 -0.475119 0
M  V30 6871 O 665.342 -1.71949 -0.279165 0
M  V30 6872 C 662.474 -3.38113 -0.43499 0
M  V30 6873 H 663.667 -2.72592 1.25033 0
M  V30 6874 H 661.22 -1.40463 0.685547 0
M  V30 6875 H 661.955 -2.96648 -1.31036 0
M  V30 6876 H 661.74 -3.91647 0.188334 0
M  V30 6877 H 663.23 -4.10168 -0.784365 0
M  V30 6878 N 663.667 -0.670007 -1.42649 0
M  V30 6879 C 664.615 0.0230106 -2.32589 0
M  V30 6880 C 665.609 0.795585 -1.49555 0
M  V30 6881 O 666.815 0.70409 -1.65658 0
M  V30 6882 H 663.19 0.0262342 -0.751542 0
M  V30 6883 H 665.161 -0.753009 -2.88743 0
M  V30 6884 C 663.91 0.963872 -3.34073 0
M  V30 6885 H 663.233 0.378813 -3.98001 0
M  V30 6886 H 664.673 1.41755 -3.99602 0
M  V30 6887 C 663.132 2.06797 -2.65964 0
M  V30 6888 O 663.662 3.15383 -2.48789 0
M  V30 6889 N 661.868 1.83831 -2.25066 0
M  V30 6890 H 661.415 0.955235 -2.39234 0
M  V30 6891 H 661.373 2.57895 -1.79827 0
M  V30 6892 N 665.145 1.52092 -0.413018 0
M  V30 6893 C 666.556 1.86617 0.0556967 0
M  V30 6894 C 666.907 1.33156 1.44097 0
M  V30 6895 O 666.032 0.672417 2.05688 0
M  V30 6896 C 666.627 3.38628 0.107844 0
M  V30 6897 C 665.186 3.72778 0.520904 0
M  V30 6898 C 664.333 2.75649 -0.302109 0
M  V30 6899 H 667.284 1.45663 -0.629919 0
M  V30 6900 H 667.305 3.69152 0.922324 0
M  V30 6901 H 666.817 3.77508 -0.900506 0
M  V30 6902 H 664.918 3.39478 1.53575 0
M  V30 6903 H 665.031 4.7838 0.262591 0
M  V30 6904 H 663.395 2.53603 0.236115 0
M  V30 6905 H 664.178 3.17369 -1.30888 0
M  V30 6906 N 666.623 0.143563 1.56945 0
M  V30 6907 C 667.533 -0.810562 2.20152 0
M  V30 6908 C 668.549 -1.27431 1.1848 0
M  V30 6909 O 669.725 -1.33221 1.51044 0
M  V30 6910 C 666.79 -2.03353 2.80799 0
M  V30 6911 C 665.851 -1.61936 3.97587 0
M  V30 6912 C 665.084 -2.78403 4.55332 0
M  V30 6913 O 665.307 -3.94521 4.11958 0
M  V30 6914 O 664.241 -2.54073 5.45647 0
M  V30 6915 H 668.067 -0.30253 3.02189 0
M  V30 6916 H 665.652 -0.0832925 1.49168 0
M  V30 6917 H 667.534 -2.74932 3.19359 0
M  V30 6918 H 666.209 -2.53116 2.01777 0
M  V30 6919 H 665.116 -0.873904 3.6375 0
M  V30 6920 H 666.449 -1.16892 4.78118 0
M  V30 6921 N 668.101 -1.57061 -0.130224 0
M  V30 6922 C 669.329 -1.88432 -0.854456 0
M  V30 6923 C 669.744 -0.733608 -1.73964 0
M  V30 6924 O 669.101 0.296029 -1.80083 0
M  V30 6925 C 669.152 -3.1918 -1.69724 0
M  V30 6926 O 668.873 -4.2982 -0.847705 0
M  V30 6927 C 670.374 -3.6418 -2.5276 0
M  V30 6928 H 667.594 -0.624193 -0.246221 0
M  V30 6929 H 670.138 -2.04159 -0.11798 0
M  V30 6930 H 668.293 -3.05156 -2.3866 0
M  V30 6931 H 668.707 -5.04689 -1.42792 0
M  V30 6932 H 670.181 -4.58457 -3.07443 0
M  V30 6933 H 670.658 -2.90285 -3.29592 0
M  V30 6934 H 671.264 -3.80954 -1.89087 0
M  V30 6935 N 669.579 0.400081 -1.52437 0
M  V30 6936 C 670.99 0.97851 -1.59003 0
M  V30 6937 C 671.341 1.91293 -0.436068 0
M  V30 6938 O 670.466 2.1183 0.442365 0
M  V30 6939 C 671.061 1.78145 -2.88184 0
M  V30 6940 C 669.62 2.30976 -2.97199 0
M  V30 6941 C 668.767 1.11212 -2.54022 0
M  V30 6942 H 671.718 0.180002 -1.57676 0
M  V30 6943 H 671.739 2.63968 -2.74046 0
M  V30 6944 H 671.251 1.1011 -3.72152 0
M  V30 6945 H 669.352 3.02355 -2.17744 0
M  V30 6946 H 669.465 2.61221 -4.01622 0
M  V30 6947 H 667.829 1.46882 -2.08081 0
M  V30 6948 H 668.612 0.447307 -3.40373 0
M  V30 6949 N 671.057 1.43213 0.657864 0
M  V30 6950 C 672.303 1.44798 1.41991 0
M  V30 6951 C 672.636 0.070256 1.94073 0
M  V30 6952 O 671.911 -0.908177 1.71995 0
M  V30 6953 C 672.194 2.4865 2.60471 0
M  V30 6954 C 672.047 3.95679 2.13911 0
M  V30 6955 C 673.366 2.49292 3.62686 0
M  V30 6956 H 670.485 0.527244 0.514959 0
M  V30 6957 H 673.127 1.74733 0.74621 0
M  V30 6958 H 671.277 2.23254 3.17946 0
M  V30 6959 H 672.949 4.32116 1.61472 0
M  V30 6960 H 671.192 4.08733 1.45325 0
M  V30 6961 H 671.863 4.6395 2.99089 0
M  V30 6962 H 674.339 2.71917 3.14961 0
M  V30 6963 H 673.215 3.23907 4.43143 0
M  V30 6964 H 673.476 1.52502 4.14964 0
M  V30 6965 N 672.536 -0.895792 1.29666 0
M  V30 6966 C 673.785 -1.64131 1.17234 0
M  V30 6967 C 674.098 -1.93665 -0.274416 0
M  V30 6968 O 675.304 -2.66472 -0.520105 0
M  V30 6969 C 673.76 -2.95764 2.05065 0
M  V30 6970 C 673.368 -2.7381 3.54587 0
M  V30 6971 C 675.112 -3.737 2.01367 0
M  V30 6972 C 673.019 -4.01194 4.34508 0
M  V30 6973 H 671.949 -0.615742 0.435175 0
M  V30 6974 H 674.6 -0.992626 1.54335 0
M  V30 6975 H 672.982 -3.61867 1.60837 0
M  V30 6976 H 674.156 -2.16277 4.06892 0
M  V30 6977 H 672.471 -2.09265 3.59996 0
M  V30 6978 H 675.068 -4.68152 2.58337 0
M  V30 6979 H 675.411 -4.04245 0.994575 0
M  V30 6980 H 675.944 -3.14444 2.43659 0
M  V30 6981 H 672.683 -3.75813 5.37071 0
M  V30 6982 H 672.203 -4.58272 3.86971 0
M  V30 6983 H 673.882 -4.69307 4.45376 0
M  V30 6984 N 674.014 -1.12206 -1.10668 0
M  V30 6985 C 674.947 -0.731468 -2.16159 0
M  V30 6986 C 675.925 0.276216 -1.60237 0
M  V30 6987 O 677.109 0.17074 -1.87725 0
M  V30 6988 C 674.236 -0.0822882 -3.386 0
M  V30 6989 C 673.282 -1.05641 -4.1321 0
M  V30 6990 S 674.115 -2.58281 -4.69096 0
M  V30 6991 C 675.271 -1.94686 -5.94851 0
M  V30 6992 H 675.504 -1.62504 -2.48957 0
M  V30 6993 H 673.037 -0.940906 -1.22419 0
M  V30 6994 H 674.995 0.285896 -4.09503 0
M  V30 6995 H 673.656 0.788358 -3.04046 0
M  V30 6996 H 672.849 -0.549764 -5.00993 0
M  V30 6997 H 672.451 -1.36741 -3.48106 0
M  V30 6998 H 674.743 -1.28815 -6.65141 0
M  V30 6999 H 675.686 -2.80499 -6.50174 0
M  V30 7000 H 676.094 -1.40369 -5.46769 0
M  V30 7001 N 675.492 1.28418 -0.913599 0
M  V30 7002 C 676.741 1.94265 -0.542572 0
M  V30 7003 C 677.054 1.72709 0.918207 0
M  V30 7004 O 678.26 2.32778 1.39738 0
M  V30 7005 C 676.716 3.47956 -0.919507 0
M  V30 7006 C 676.324 3.78291 -2.4 0
M  V30 7007 C 678.068 4.19962 -0.619057 0
M  V30 7008 C 675.975 5.2529 -2.71707 0
M  V30 7009 H 674.905 0.727213 -0.199192 0
M  V30 7010 H 677.556 1.45931 -1.11249 0
M  V30 7011 H 675.938 3.9502 -0.278372 0
M  V30 7012 H 677.112 3.42035 -3.08786 0
M  V30 7013 H 675.427 3.19456 -2.67089 0
M  V30 7014 H 678.024 5.28178 -0.832623 0
M  V30 7015 H 678.367 4.13935 0.443126 0
M  V30 7016 H 678.9 3.78674 -1.21865 0
M  V30 7017 H 675.639 5.36394 -3.76778 0
M  V30 7018 H 675.159 5.62743 -2.07559 0
M  V30 7019 H 676.838 5.93027 -2.58703 0
M  V30 7020 N 676.97 0.677563 1.42291 0
M  V30 7021 C 678.218 0.200578 2.01102 0
M  V30 7022 C 678.539 -1.19803 1.53858 0
M  V30 7023 O 677.809 -1.80496 0.761439 0
M  V30 7024 H 676.389 0.0711634 0.743603 0
M  V30 7025 H 679.051 0.874691 1.7417 0
M  V30 7026 H 678.147 0.204 3.11433 0
M  V30 7027 N 678.448 -1.51871 0.421078 0
M  V30 7028 C 679.859 -1.86644 -0.0457991 0
M  V30 7029 C 680.21 -1.33919 -1.43388 0
M  V30 7030 O 679.335 -0.683316 -2.05328 0
M  V30 7031 C 679.93 -3.38681 -0.0898844 0
M  V30 7032 C 678.489 -3.73049 -0.501127 0
M  V30 7033 C 677.636 -2.75485 0.316723 0
M  V30 7034 H 680.587 -1.45327 0.637635 0
M  V30 7035 H 680.608 -3.69636 -0.902734 0
M  V30 7036 H 680.12 -3.77025 0.920513 0
M  V30 7037 H 678.221 -3.40288 -1.51773 0
M  V30 7038 H 678.334 -4.78512 -0.237217 0
M  V30 7039 H 676.698 -2.53725 -0.222663 0
M  V30 7040 H 677.481 -3.16671 1.32569 0
M  V30 7041 N 679.926 -0.151884 -1.56866 0
M  V30 7042 C 681.174 0.497021 -1.95893 0
M  V30 7043 C 681.495 1.65078 -1.03799 0
M  V30 7044 O 680.765 1.95642 -0.10049 0
M  V30 7045 H 679.345 0.186603 -0.723318 0
M  V30 7046 H 682.007 -0.228525 -1.93556 0
M  V30 7047 H 681.103 0.869933 -2.99731 0
M  V30 7048 N 681.404 1.57128 0.121893 0
M  V30 7049 C 682.632 1.88883 0.844451 0
M  V30 7050 C 683.047 0.742824 1.73573 0
M  V30 7051 O 682.404 -0.286475 1.80238 0
M  V30 7052 C 682.455 3.20076 1.68029 0
M  V30 7053 O 682.176 4.30264 0.824898 0
M  V30 7054 C 683.677 3.65515 2.50826 0
M  V30 7055 H 680.897 0.62549 0.242907 0
M  V30 7056 H 683.441 2.04219 0.107151 0
M  V30 7057 H 681.596 3.06418 2.37038 0
M  V30 7058 H 682.01 5.05439 1.40113 0
M  V30 7059 H 683.484 4.60081 3.05008 0
M  V30 7060 H 683.961 2.92029 3.28048 0
M  V30 7061 H 684.567 3.81952 1.87064 0
M  V30 7062 N 682.882 -0.391992 1.52647 0
M  V30 7063 C 684.13 -1.13507 1.67214 0
M  V30 7064 C 684.451 -1.90575 0.41304 0
M  V30 7065 O 683.721 -1.87348 -0.572498 0
M  V30 7066 H 682.301 -0.422013 0.616372 0
M  V30 7067 H 684.963 -0.44502 1.89751 0
M  V30 7068 H 684.059 -1.83964 2.52118 0
M  V30 7069 N 684.36 -1.4356 -0.65026 0
M  V30 7070 C 685.609 -1.44619 -1.406 0
M  V30 7071 C 685.922 -0.0752645 -1.95455 0
M  V30 7072 O 687.128 0.0366832 -2.71475 0
M  V30 7073 C 685.584 -2.54511 -2.54465 0
M  V30 7074 C 685.192 -3.97723 -2.06204 0
M  V30 7075 C 686.936 -2.64768 -3.31811 0
M  V30 7076 C 684.843 -4.99075 -3.17298 0
M  V30 7077 H 683.773 -0.537983 -0.52829 0
M  V30 7078 H 686.424 -1.69559 -0.701561 0
M  V30 7079 H 684.806 -2.22777 -3.27393 0
M  V30 7080 H 685.98 -4.38932 -1.40267 0
M  V30 7081 H 684.295 -3.91538 -1.41729 0
M  V30 7082 H 686.892 -3.37664 -4.14593 0
M  V30 7083 H 687.235 -1.69936 -3.80036 0
M  V30 7084 H 687.768 -2.95817 -2.65964 0
M  V30 7085 H 684.507 -5.95469 -2.74038 0
M  V30 7086 H 684.027 -4.62476 -3.81937 0
M  V30 7087 H 685.706 -5.21913 -3.82382 0
M  V30 7088 N 685.838 0.888903 -1.30139 0
M  V30 7089 C 686.801 1.97576 -1.16174 0
M  V30 7090 C 687.801 1.60525 -0.094086 0
M  V30 7091 O 688.991 1.70812 -0.341889 0
M  V30 7092 C 686.123 3.3188 -0.778983 0
M  V30 7093 H 687.316 2.11393 -2.12728 0
M  V30 7094 H 684.869 1.0748 -1.1348 0
M  V30 7095 H 685.604 3.23765 0.186225 0
M  V30 7096 H 685.389 3.60141 -1.55051 0
M  V30 7097 H 686.879 4.11612 -0.704631 0
M  V30 7098 N 687.317 1.12792 1.10072 0
M  V30 7099 C 688.728 0.899346 1.63611 0
M  V30 7100 C 689.079 -0.565547 1.87872 0
M  V30 7101 O 688.204 -1.43081 1.62348 0
M  V30 7102 C 688.799 1.62608 2.97227 0
M  V30 7103 C 687.358 1.44356 3.47618 0
M  V30 7104 C 686.505 1.65958 2.22156 0
M  V30 7105 H 689.456 1.28216 0.935223 0
M  V30 7106 H 689.477 1.0793 3.64872 0
M  V30 7107 H 688.989 2.69221 2.79538 0
M  V30 7108 H 687.09 0.400148 3.70445 0
M  V30 7109 H 687.203 2.20218 4.25489 0
M  V30 7110 H 685.567 1.08395 2.30484 0
M  V30 7111 H 686.35 2.73877 2.06993 0
M  V30 7112 N 688.795 -1.27931 0.920396 0
M  V30 7113 C 690.042 -1.94689 0.557007 0
M  V30 7114 C 690.37 -1.724 -0.900476 0
M  V30 7115 O 689.625 -1.04194 -1.65657 0
M  V30 7116 C 689.924 -3.47853 0.820558 0
M  V30 7117 C 689.59 -3.90252 2.25863 0
M  V30 7118 C 688.252 -4.01539 2.65179 0
M  V30 7119 C 690.604 -4.11853 3.19415 0
M  V30 7120 C 687.932 -4.3181 3.97187 0
M  V30 7121 C 690.284 -4.43606 4.50995 0
M  V30 7122 C 688.948 -4.53105 4.90155 0
M  V30 7123 H 688.218 -0.712416 0.203823 0
M  V30 7124 H 690.865 -1.52142 1.16298 0
M  V30 7125 H 689.17 -3.91578 0.131844 0
M  V30 7126 H 690.867 -3.97634 0.51847 0
M  V30 7127 H 687.457 -3.81999 1.94358 0
M  V30 7128 H 691.641 -4.0258 2.90246 0
M  V30 7129 H 686.897 -4.37371 4.2722 0
M  V30 7130 H 691.071 -4.59268 5.23494 0
M  V30 7131 H 688.698 -4.76315 5.92476 0
M  V30 7132 N 690.273 -0.685099 -1.4193 0
M  V30 7133 C 691.689 -0.355632 -1.55587 0
M  V30 7134 C 691.889 1.13823 -1.66273 0
M  V30 7135 O 690.945 1.92387 -1.63534 0
M  V30 7136 C 692.258 -1.09498 -2.80055 0
M  V30 7137 C 693.806 -1.07831 -2.93839 0
M  V30 7138 C 694.281 -1.79919 -4.21181 0
M  V30 7139 N 695.772 -1.76837 -4.28115 0
M  V30 7140 C 696.507 -2.29463 -5.25485 0
M  V30 7141 N 696.003 -2.90516 -6.28945 0
M  V30 7142 N 697.796 -2.19779 -5.17353 0
M  V30 7143 H 689.947 -1.65412 -1.33239 0
M  V30 7144 H 692.21 -0.697453 -0.642078 0
M  V30 7145 H 691.916 -2.14997 -2.78333 0
M  V30 7146 H 691.79 -0.666813 -3.71259 0
M  V30 7147 H 694.177 -0.0316152 -2.95083 0
M  V30 7148 H 694.258 -1.54545 -2.03837 0
M  V30 7149 H 693.902 -2.84562 -4.20698 0
M  V30 7150 H 693.832 -1.30647 -5.10136 0
M  V30 7151 H 696.323 -1.32315 -3.53979 0
M  V30 7152 H 696.636 -3.28266 -6.99615 0
M  V30 7153 H 694.981 -2.94589 -6.29478 0
M  V30 7154 H 698.172 -1.71763 -4.35448 0
M  V30 7155 H 698.345 -2.61097 -5.9307 0
M  V30 7156 N 691.751 1.51645 -0.429126 0
M  V30 7157 C 692.714 2.26116 0.374726 0
M  V30 7158 C 693.714 1.29242 0.956714 0
M  V30 7159 O 694.904 1.53022 0.832452 0
M  V30 7160 C 692.036 3.04669 1.52937 0
M  V30 7161 H 693.229 2.9861 -0.277818 0
M  V30 7162 H 690.782 1.55236 -0.182097 0
M  V30 7163 H 691.517 2.36571 2.21821 0
M  V30 7164 H 691.302 3.75814 1.11833 0
M  V30 7165 H 692.792 3.61102 2.09751 0
M  V30 7166 N 693.229 0.160201 1.56784 0
M  V30 7167 C 694.476 -0.487588 1.96542 0
M  V30 7168 C 694.804 -1.63999 1.04569 0
M  V30 7169 O 694.059 -1.95546 0.0775211 0
M  V30 7170 C 694.358 -1.02259 3.42459 0
M  V30 7171 C 694.024 0.0127436 4.50898 0
M  V30 7172 C 692.686 0.297318 4.80281 0
M  V30 7173 C 695.038 0.716078 5.16257 0
M  V30 7174 C 692.366 1.29081 5.72324 0
M  V30 7175 C 694.718 1.69847 6.09372 0
M  V30 7176 C 693.382 1.99061 6.37127 0
M  V30 7177 H 692.652 -0.178421 0.719199 0
M  V30 7178 H 695.299 0.249818 1.89864 0
M  V30 7179 H 693.604 -1.8376 3.46034 0
M  V30 7180 H 695.301 -1.53261 3.70556 0
M  V30 7181 H 691.891 -0.219235 4.28039 0
M  V30 7182 H 696.075 0.509428 4.93679 0
M  V30 7183 H 691.331 1.52344 5.92116 0
M  V30 7184 H 695.505 2.2489 6.59088 0
M  V30 7185 H 693.132 2.76194 7.08252 0
M  V30 7186 N 694.707 -1.5719 -0.113559 0
M  V30 7187 C 695.64 -1.9595 -1.16957 0
M  V30 7188 C 696.618 -0.829951 -1.39823 0
M  V30 7189 O 697.802 -1.08861 -1.53888 0
M  V30 7190 C 694.929 -2.2604 -2.52237 0
M  V30 7191 C 693.975 -3.48571 -2.45765 0
M  V30 7192 S 694.808 -5.00962 -1.89203 0
M  V30 7193 C 695.964 -5.3421 -3.26145 0
M  V30 7194 H 696.197 -2.85214 -0.839069 0
M  V30 7195 H 693.73 -1.51036 -0.320529 0
M  V30 7196 H 695.688 -2.44054 -3.30073 0
M  V30 7197 H 694.349 -1.3738 -2.82463 0
M  V30 7198 H 693.542 -3.67008 -3.45429 0
M  V30 7199 H 693.144 -3.29972 -1.76053 0
M  V30 7200 H 695.436 -5.29725 -4.22371 0
M  V30 7201 H 696.379 -6.35398 -3.12529 0
M  V30 7202 H 696.787 -4.61681 -3.24825 0
M  V30 7203 N 696.185 0.383891 -1.52853 0
M  V30 7204 C 697.117 1.48889 -1.74255 0
M  V30 7205 C 698.13 1.50405 -0.623063 0
M  V30 7206 O 699.319 1.54215 -0.898887 0
M  V30 7207 C 696.419 2.87721 -1.79081 0
M  V30 7208 C 695.592 3.10111 -3.08464 0
M  V30 7209 C 694.651 4.28954 -3.0477 0
M  V30 7210 O 693.677 4.25012 -3.78621 0
M  V30 7211 N 694.879 5.35411 -2.24311 0
M  V30 7212 H 697.644 1.30915 -2.69595 0
M  V30 7213 H 695.205 0.573454 -1.51404 0
M  V30 7214 H 697.197 3.65333 -1.7411 0
M  V30 7215 H 695.767 2.99029 -0.911052 0
M  V30 7216 H 694.987 2.20319 -3.26884 0
M  V30 7217 H 696.275 3.21928 -3.94005 0
M  V30 7218 H 695.673 5.41471 -1.63787 0
M  V30 7219 H 694.23 6.1167 -2.25175 0
M  V30 7220 N 697.663 1.43903 0.642637 0
M  V30 7221 C 698.595 1.45857 1.768 0
M  V30 7222 C 699.608 0.353358 1.58919 0
M  V30 7223 O 700.797 0.618426 1.67445 0
M  V30 7224 C 697.897 1.26583 3.14372 0
M  V30 7225 C 697.07 2.50139 3.58817 0
M  V30 7226 C 696.129 2.25933 4.75227 0
M  V30 7227 O 695.155 2.99351 4.84125 0
M  V30 7228 N 696.357 1.28263 5.66153 0
M  V30 7229 H 699.122 2.42869 1.75598 0
M  V30 7230 H 696.683 1.39194 0.826832 0
M  V30 7231 H 698.675 1.08255 3.89953 0
M  V30 7232 H 697.245 0.37978 3.10284 0
M  V30 7233 H 696.465 2.83821 2.73568 0
M  V30 7234 H 697.753 3.32344 3.8526 0
M  V30 7235 H 697.151 0.676041 5.61646 0
M  V30 7236 H 695.708 1.15916 6.4141 0
M  V30 7237 N 699.141 -0.881989 1.30609 0
M  V30 7238 C 700.557 -1.16576 1.09005 0
M  V30 7239 C 700.757 -2.00961 -0.14727 0
M  V30 7240 O 699.813 -2.38117 -0.840036 0
M  V30 7241 C 701.126 -1.86954 2.35518 0
M  V30 7242 C 702.674 -1.99706 2.41011 0
M  V30 7243 C 703.149 -2.73497 3.67374 0
M  V30 7244 N 704.64 -2.8104 3.68199 0
M  V30 7245 C 705.375 -3.38718 4.62664 0
M  V30 7246 N 704.871 -3.97421 5.67475 0
M  V30 7247 N 706.664 -3.36561 4.50203 0
M  V30 7248 H 698.815 -0.319398 2.09985 0
M  V30 7249 H 701.078 -0.204058 0.925778 0
M  V30 7250 H 700.784 -1.32393 3.2583 0
M  V30 7251 H 700.658 -2.87317 2.44395 0
M  V30 7252 H 703.045 -2.53436 1.51176 0
M  V30 7253 H 703.126 -0.984218 2.36108 0
M  V30 7254 H 702.77 -2.20438 4.57569 0
M  V30 7255 H 702.7 -3.75163 3.6954 0
M  V30 7256 H 705.191 -2.39365 2.92426 0
M  V30 7257 H 705.504 -4.39507 6.35652 0
M  V30 7258 H 703.849 -3.95832 5.71264 0
M  V30 7259 H 707.04 -2.8993 3.67503 0
M  V30 7260 H 707.213 -3.81215 5.24003 0
M  V30 7261 N 700.619 -1.13374 -1.09472 0
M  V30 7262 C 701.582 -0.813639 -2.14272 0
M  V30 7263 C 702.582 0.176677 -1.59826 0
M  V30 7264 O 703.772 -0.0503441 -1.74127 0
M  V30 7265 C 700.904 -0.210897 -3.40247 0
M  V30 7266 H 702.097 -1.74229 -2.44099 0
M  V30 7267 H 699.65 -0.938304 -1.25002 0
M  V30 7268 H 700.385 0.726998 -3.16046 0
M  V30 7269 H 700.17 -0.924048 -3.81056 0
M  V30 7270 H 701.66 -0.00377603 -4.176 0
M  V30 7271 N 702.098 1.27442 -0.927168 0
M  V30 7272 C 703.061 2.2512 -0.430525 0
M  V30 7273 C 704.061 1.54357 0.450619 0
M  V30 7274 O 705.251 1.72371 0.251774 0
M  V30 7275 C 702.383 3.38763 0.381144 0
M  V30 7276 H 703.576 2.70569 -1.29354 0
M  V30 7277 H 701.129 1.39355 -0.707806 0
M  V30 7278 H 701.864 2.98695 1.263 0
M  V30 7279 H 701.649 3.91298 -0.250618 0
M  V30 7280 H 703.139 4.11364 0.719012 0
M  V30 7281 N 703.576 0.692616 1.41565 0
M  V30 7282 C 704.853 0.150496 1.9502 0
M  V30 7283 C 705.233 -1.33881 1.63215 0
M  V30 7284 O 704.581 -2.08378 0.937598 0
M  V30 7285 C 704.791 0.438636 3.46233 0
M  V30 7286 C 706.139 0.364777 4.2303 0
M  V30 7287 O 707.163 0.373383 3.54238 0
M  V30 7288 O 706.022 0.32234 5.45549 0
M  V30 7289 H 703.116 0.0132454 0.826894 0
M  V30 7290 H 705.662 0.768574 1.51298 0
M  V30 7291 H 704.434 1.46962 3.62654 0
M  V30 7292 H 704.057 -0.210562 3.97042 0
M  V30 7293 N 705.054 -1.51416 0.437162 0
M  V30 7294 C 705.964 -2.31493 -0.380537 0
M  V30 7295 C 706.98 -1.40399 -1.02782 0
M  V30 7296 O 708.156 -1.73471 -1.02323 0
M  V30 7297 C 705.221 -3.1413 -1.46709 0
M  V30 7298 C 704.282 -4.21003 -0.839953 0
M  V30 7299 C 703.515 -4.9969 -1.87473 0
M  V30 7300 O 703.738 -4.79008 -3.09689 0
M  V30 7301 O 702.672 -5.8379 -1.46536 0
M  V30 7302 H 706.498 -3.02469 0.273183 0
M  V30 7303 H 704.083 -1.48059 0.199706 0
M  V30 7304 H 705.965 -3.65505 -2.09724 0
M  V30 7305 H 704.64 -2.45919 -2.10489 0
M  V30 7306 H 703.547 -3.73706 -0.171752 0
M  V30 7307 H 704.88 -4.91587 -0.245638 0
M  V30 7308 N 706.532 -0.168513 -1.56696 0
M  V30 7309 C 707.495 0.748928 -2.16619 0
M  V30 7310 C 708.495 1.16007 -1.11351 0
M  V30 7311 O 709.685 1.07748 -1.3688 0
M  V30 7312 C 706.817 2.01904 -2.74677 0
M  V30 7313 H 708.01 0.227317 -2.99037 0
M  V30 7314 H 705.563 0.0810372 -1.5609 0
M  V30 7315 H 706.298 2.58381 -1.95985 0
M  V30 7316 H 706.083 1.73323 -3.51712 0
M  V30 7317 H 707.573 2.67383 -3.20774 0
M  V30 7318 N 708.01 1.57248 0.105221 0
M  V30 7319 C 709.421 1.74612 0.660865 0
M  V30 7320 C 709.772 0.789231 1.79626 0
M  V30 7321 O 708.897 -0.0346611 2.16372 0
M  V30 7322 C 709.492 3.16624 1.20559 0
M  V30 7323 C 708.051 3.35447 1.7074 0
M  V30 7324 C 707.198 2.70445 0.612764 0
M  V30 7325 H 710.149 1.5824 -0.12079 0
M  V30 7326 H 710.17 3.18937 2.07508 0
M  V30 7327 H 709.682 3.86245 0.379012 0
M  V30 7328 H 707.783 2.7089 2.5583 0
M  V30 7329 H 707.896 4.43702 1.80736 0
M  V30 7330 H 706.26 2.32061 1.04975 0
M  V30 7331 H 707.043 3.42699 -0.203066 0
M  V30 7332 N 709.488 -0.375779 1.53054 0
M  V30 7333 C 710.736 -1.11727 1.68409 0
M  V30 7334 C 711.057 -1.90127 0.43323 0
M  V30 7335 O 710.327 -1.87945 -0.552595 0
M  V30 7336 H 708.907 -0.415451 0.620813 0
M  V30 7337 H 711.569 -0.424869 1.90213 0
M  V30 7338 H 710.665 -1.8128 2.54055 0
M  V30 7339 N 710.966 -1.44241 -0.634997 0
M  V30 7340 C 711.913 -1.5081 -1.74714 0
M  V30 7341 C 712.883 -0.356147 -1.62237 0
M  V30 7342 O 714.068 -0.565848 -1.82216 0
M  V30 7343 C 711.208 -1.45458 -3.12947 0
M  V30 7344 C 710.321 -2.70998 -3.36428 0
M  V30 7345 C 709.456 -2.57507 -4.64611 0
M  V30 7346 C 708.495 -3.78229 -4.81258 0
M  V30 7347 N 707.632 -3.63438 -6.00714 0
M  V30 7348 H 712.472 -2.45832 -1.68436 0
M  V30 7349 H 710.009 -1.2201 -0.821706 0
M  V30 7350 H 711.967 -1.40347 -3.92885 0
M  V30 7351 H 710.597 -0.540058 -3.1825 0
M  V30 7352 H 709.649 -2.86312 -2.50458 0
M  V30 7353 H 710.961 -3.60619 -3.44609 0
M  V30 7354 H 710.115 -2.50207 -5.52703 0
M  V30 7355 H 708.854 -1.65441 -4.58782 0
M  V30 7356 H 707.859 -3.85918 -3.91596 0
M  V30 7357 H 709.084 -4.71327 -4.88904 0
M  V30 7358 H 707.03 -2.7412 -5.95982 0
M  V30 7359 H 706.947 -4.46672 -6.09934 0
M  V30 7360 H 708.215 -3.60022 -6.91378 0
M  V30 7361 N 712.444 0.87505 -1.31075 0
M  V30 7362 C 713.392 2.00317 -1.18219 0
M  V30 7363 C 714.386 1.69152 -0.0916872 0
M  V30 7364 O 715.592 1.7821 -0.253229 0
M  V30 7365 H 711.967 0.656981 -0.365895 0
M  V30 7366 H 713.938 2.08293 -2.13674 0
M  V30 7367 C 712.687 3.35821 -0.901095 0
M  V30 7368 H 712.01 3.6032 -1.73233 0
M  V30 7369 H 713.45 4.15366 -0.851295 0
M  V30 7370 C 711.909 3.34563 0.396114 0
M  V30 7371 O 712.439 3.75971 1.41452 0
M  V30 7372 N 710.645 2.87681 0.410832 0
M  V30 7373 H 710.192 2.54179 -0.418415 0
M  V30 7374 H 710.15 2.87223 1.27869 0
M  V30 7375 N 713.922 1.13953 1.08869 0
M  V30 7376 C 715.168 0.916103 1.81602 0
M  V30 7377 C 715.523 -0.551633 1.84322 0
M  V30 7378 O 714.816 -1.40322 1.30462 0
M  V30 7379 C 715.01 1.44495 3.26888 0
M  V30 7380 C 714.839 2.96257 3.38322 0
M  V30 7381 C 713.609 3.64658 3.49789 0
M  V30 7382 C 715.807 3.94156 3.30372 0
M  V30 7383 N 713.789 5.04379 3.49965 0
M  V30 7384 C 715.16 5.20101 3.37484 0
M  V30 7385 C 717.215 3.86342 3.14077 0
M  V30 7386 C 715.918 6.39145 3.29979 0
M  V30 7387 C 717.944 5.04927 3.07901 0
M  V30 7388 C 717.306 6.29738 3.1561 0
M  V30 7389 H 713.405 0.388701 0.678554 0
M  V30 7390 H 715.989 1.44879 1.3007 0
M  V30 7391 H 714.16 0.939102 3.76876 0
M  V30 7392 H 715.892 1.16193 3.87661 0
M  V30 7393 H 712.647 3.15196 3.5348 0
M  V30 7394 H 713.071 5.77305 3.53622 0
M  V30 7395 H 717.713 2.90726 3.06982 0
M  V30 7396 H 715.431 7.3501 3.35836 0
M  V30 7397 H 719.017 5.00626 2.9642 0
M  V30 7398 H 717.897 7.19958 3.10854 0
M  V30 7399 N 715.4 -1.26948 0.933913 0
M  V30 7400 C 716.33 -2.29017 0.45534 0
M  V30 7401 C 717.311 -1.62961 -0.487605 0
M  V30 7402 O 718.496 -1.90223 -0.391022 0
M  V30 7403 C 715.626 -3.46112 -0.287015 0
M  V30 7404 C 714.58 -4.24205 0.568682 0
M  V30 7405 C 713.906 -5.3384 -0.303206 0
M  V30 7406 C 715.206 -4.88954 1.83633 0
M  V30 7407 H 716.9 -2.69298 1.30839 0
M  V30 7408 H 714.446 -1.29459 0.630579 0
M  V30 7409 H 716.399 -4.16622 -0.6328 0
M  V30 7410 H 715.123 -3.04765 -1.17414 0
M  V30 7411 H 713.782 -3.5545 0.897261 0
M  V30 7412 H 713.43 -4.88734 -1.18947 0
M  V30 7413 H 713.13 -5.86998 0.265879 0
M  V30 7414 H 714.654 -6.0719 -0.644423 0
M  V30 7415 H 716.068 -5.51717 1.55823 0
M  V30 7416 H 714.465 -5.52198 2.34941 0
M  V30 7417 H 715.535 -4.12305 2.55211 0
M  V30 7418 N 716.879 -0.700114 -1.41195 0
M  V30 7419 C 718.126 -0.233006 -2.01155 0
M  V30 7420 C 718.454 1.16883 -1.55462 0
M  V30 7421 O 717.709 1.80395 -0.758695 0
M  V30 7422 C 718.008 -0.243986 -3.56566 0
M  V30 7423 C 717.674 -1.59397 -4.21786 0
M  V30 7424 C 716.336 -1.96355 -4.39316 0
M  V30 7425 C 718.688 -2.48192 -4.58312 0
M  V30 7426 C 716.016 -3.21683 -4.9065 0
M  V30 7427 C 718.368 -3.72857 -5.11039 0
M  V30 7428 C 717.032 -4.09951 -5.26779 0
M  V30 7429 H 716.302 -0.085263 -0.736078 0
M  V30 7430 H 718.949 -0.9001 -1.69028 0
M  V30 7431 H 717.254 0.506663 -3.8851 0
M  V30 7432 H 718.951 0.135031 -4.00773 0
M  V30 7433 H 715.541 -1.29654 -4.08519 0
M  V30 7434 H 719.725 -2.20918 -4.4442 0
M  V30 7435 H 714.981 -3.50412 -5.01021 0
M  V30 7436 H 719.155 -4.41844 -5.38282 0
M  V30 7437 H 716.782 -5.07136 -5.66319 0
M  V30 7438 N 718.357 1.51182 -0.445186 0
M  V30 7439 C 719.604 2.02152 0.118645 0
M  V30 7440 C 719.932 1.32888 1.42025 0
M  V30 7441 O 719.187 0.435041 1.90803 0
M  V30 7442 C 719.486 3.55408 0.376797 0
M  V30 7443 C 719.152 4.43008 -0.839945 0
M  V30 7444 C 717.814 4.66669 -1.17361 0
M  V30 7445 C 720.166 4.9435 -1.65127 0
M  V30 7446 C 717.494 5.38919 -2.31913 0
M  V30 7447 C 719.846 5.67857 -2.78786 0
M  V30 7448 C 718.51 5.89779 -3.12597 0
M  V30 7449 H 717.78 0.739727 0.0434152 0
M  V30 7450 H 720.427 1.82055 -0.593984 0
M  V30 7451 H 718.732 3.73879 1.1714 0
M  V30 7452 H 720.429 3.92388 0.826602 0
M  V30 7453 H 717.019 4.24793 -0.569958 0
M  V30 7454 H 721.203 4.75947 -1.4067 0
M  V30 7455 H 716.459 5.54105 -2.58413 0
M  V30 7456 H 720.633 6.06628 -3.42017 0
M  V30 7457 H 718.26 6.45542 -4.01471 0
M  V30 7458 N 719.835 0.176821 1.56605 0
M  V30 7459 C 721.083 -0.465793 1.96659 0
M  V30 7460 C 721.404 -1.63406 1.06412 0
M  V30 7461 O 720.674 -1.95457 0.131603 0
M  V30 7462 H 719.254 -0.175072 0.726195 0
M  V30 7463 H 721.916 0.25929 1.93168 0
M  V30 7464 H 721.012 -0.822138 3.01077 0
M  V30 7465 N 721.313 -1.57302 -0.09688 0
M  V30 7466 C 722.261 -2.02942 -1.13654 0
M  V30 7467 C 723.255 -0.930173 -1.41577 0
M  V30 7468 O 724.461 -1.11535 -1.41279 0
M  V30 7469 H 720.836 -0.646726 -0.383731 0
M  V30 7470 H 722.807 -2.89452 -0.725267 0
M  V30 7471 C 721.556 -2.46815 -2.44903 0
M  V30 7472 H 720.879 -3.30979 -2.24261 0
M  V30 7473 H 722.319 -2.82527 -3.16156 0
M  V30 7474 C 720.778 -1.34071 -3.09074 0
M  V30 7475 O 721.308 -0.668856 -3.96092 0
M  V30 7476 N 719.514 -1.09214 -2.69296 0
M  V30 7477 H 719.061 -1.64029 -1.98626 0
M  V30 7478 H 719.019 -0.339785 -3.12559 0
M  V30 7479 N 722.791 0.367657 -1.53252 0
M  V30 7480 C 724.202 0.944563 -1.61043 0
M  V30 7481 C 724.553 1.90325 -0.476546 0
M  V30 7482 O 723.678 2.12721 0.397333 0
M  V30 7483 C 724.273 1.71992 -2.91898 0
M  V30 7484 C 722.832 2.2462 -3.02031 0
M  V30 7485 C 721.979 1.05799 -2.56324 0
M  V30 7486 H 724.93 0.146516 -1.58022 0
M  V30 7487 H 724.951 2.58095 -2.79584 0
M  V30 7488 H 724.463 1.02192 -3.74404 0
M  V30 7489 H 722.564 2.97668 -2.24108 0
M  V30 7490 H 722.677 2.52644 -4.07073 0
M  V30 7491 H 721.041 1.42435 -2.1115 0
M  V30 7492 H 721.824 0.375008 -3.41246 0
M  V30 7493 N 724.269 1.44576 0.627338 0
M  V30 7494 C 725.219 1.48168 1.73293 0
M  V30 7495 C 726.203 0.347045 1.57113 0
M  V30 7496 O 727.395 0.592605 1.66785 0
M  V30 7497 C 724.524 1.43236 3.11991 0
M  V30 7498 C 723.61 2.61828 3.33627 0
M  V30 7499 N 724.001 3.87053 3.25612 0
M  V30 7500 C 722.299 2.57104 3.64436 0
M  V30 7501 C 723 4.66093 3.48041 0
M  V30 7502 N 721.976 3.97228 3.71095 0
M  V30 7503 H 725.778 2.42832 1.6556 0
M  V30 7504 H 723.292 1.39592 0.829934 0
M  V30 7505 H 725.289 1.43893 3.91281 0
M  V30 7506 H 723.949 0.496133 3.20887 0
M  V30 7507 H 724.96 4.18966 3.04447 0
M  V30 7508 H 721.637 1.72295 3.8029 0
M  V30 7509 H 723.027 5.75117 3.47404 0
M  V30 7510 N 725.747 -0.868086 1.31537 0
M  V30 7511 C 726.994 -1.62127 1.2133 0
M  V30 7512 C 727.322 -1.93158 -0.2281 0
M  V30 7513 O 726.577 -1.5632 -1.1774 0
M  V30 7514 C 726.876 -2.95889 2.0046 0
M  V30 7515 C 726.542 -2.84343 3.49943 0
M  V30 7516 C 725.204 -2.80901 3.90702 0
M  V30 7517 C 727.556 -2.71243 4.45058 0
M  V30 7518 C 724.884 -2.6222 5.24841 0
M  V30 7519 C 727.236 -2.54098 5.79325 0
M  V30 7520 C 725.9 -2.4904 6.19302 0
M  V30 7521 H 725.17 -0.593265 0.443979 0
M  V30 7522 H 727.817 -1.00803 1.62822 0
M  V30 7523 H 726.122 -3.61259 1.51655 0
M  V30 7524 H 727.819 -3.53161 1.89942 0
M  V30 7525 H 724.409 -2.8784 3.17563 0
M  V30 7526 H 728.593 -2.72956 4.14498 0
M  V30 7527 H 723.849 -2.56731 5.54887 0
M  V30 7528 H 728.023 -2.42938 6.52652 0
M  V30 7529 H 725.65 -2.34324 7.23185 0
M  V30 7530 N 727.225 -1.14528 -1.08264 0
M  V30 7531 C 728.453 -0.937964 -1.84418 0
M  V30 7532 C 728.868 0.51357 -1.81681 0
M  V30 7533 O 728.225 1.35591 -1.22153 0
M  V30 7534 C 728.276 -1.43272 -3.31897 0
M  V30 7535 O 727.997 -2.82738 -3.34651 0
M  V30 7536 C 729.498 -1.26555 -4.24851 0
M  V30 7537 H 726.718 -0.333704 -0.582136 0
M  V30 7538 H 729.262 -1.52076 -1.36723 0
M  V30 7539 H 727.417 -0.892653 -3.76975 0
M  V30 7540 H 727.831 -3.04971 -4.26724 0
M  V30 7541 H 729.305 -1.66031 -5.26439 0
M  V30 7542 H 729.782 -0.208589 -4.38704 0
M  V30 7543 H 730.388 -1.79423 -3.856 0
M  V30 7544 N 728.703 1.26451 -0.940633 0
M  V30 7545 C 729.613 2.30128 -0.455881 0
M  V30 7546 C 730.629 1.67536 0.469867 0
M  V30 7547 O 731.805 1.98344 0.349529 0
M  V30 7548 C 728.87 3.45634 0.271648 0
M  V30 7549 C 727.931 4.23709 -0.690594 0
M  V30 7550 C 727.164 5.337 0.00231047 0
M  V30 7551 O 727.387 5.57215 1.21935 0
M  V30 7552 O 726.321 5.98091 -0.676111 0
M  V30 7553 H 730.147 2.73655 -1.31707 0
M  V30 7554 H 727.732 1.3164 -0.706497 0
M  V30 7555 H 729.614 4.15853 0.681486 0
M  V30 7556 H 728.289 3.04138 1.10824 0
M  V30 7557 H 727.196 3.55974 -1.15037 0
M  V30 7558 H 728.529 4.68953 -1.49478 0
M  V30 7559 N 730.181 0.707592 1.40822 0
M  V30 7560 C 731.458 0.171172 1.9485 0
M  V30 7561 C 731.838 -1.32143 1.64625 0
M  V30 7562 O 731.186 -2.07372 0.959647 0
M  V30 7563 C 731.396 0.475334 3.45748 0
M  V30 7564 C 732.744 0.409625 4.22619 0
M  V30 7565 O 733.768 0.410934 3.53822 0
M  V30 7566 O 732.627 0.380185 5.45176 0
M  V30 7567 H 729.721 0.022015 0.826707 0
M  V30 7568 H 732.267 0.784577 1.50474 0
M  V30 7569 H 731.039 1.50801 3.61075 0
M  V30 7570 H 730.662 -0.168439 3.97243 0
M  V30 7571 N 731.66 -1.50943 0.453197 0
M  V30 7572 C 732.907 -2.02212 -0.107922 0
M  V30 7573 C 733.235 -1.33639 -1.41318 0
M  V30 7574 O 732.49 -0.445154 -1.9057 0
M  V30 7575 C 732.789 -3.55603 -0.357944 0
M  V30 7576 C 732.455 -4.42556 0.863427 0
M  V30 7577 C 731.117 -4.6604 1.19834 0
M  V30 7578 C 733.469 -4.93468 1.67747 0
M  V30 7579 C 730.797 -5.37681 2.34768 0
M  V30 7580 C 733.149 -5.6637 2.81793 0
M  V30 7581 C 731.813 -5.88113 3.1572 0
M  V30 7582 H 731.083 -0.739947 -0.0394916 0
M  V30 7583 H 733.73 -1.81738 0.60363 0
M  V30 7584 H 732.035 -3.74495 -1.15156 0
M  V30 7585 H 733.732 -3.92821 -0.805781 0
M  V30 7586 H 730.322 -4.24485 0.592478 0
M  V30 7587 H 734.506 -4.75194 1.43192 0
M  V30 7588 H 729.762 -5.52727 2.61348 0
M  V30 7589 H 733.936 -6.04806 3.45229 0
M  V30 7590 H 731.563 -6.43404 4.04889 0
M  V30 7591 N 733.138 -0.185124 -1.56509 0
M  V30 7592 C 734.068 0.735098 -2.21627 0
M  V30 7593 C 735.049 1.2288 -1.1762 0
M  V30 7594 O 736.234 1.27945 -1.46095 0
M  V30 7595 C 733.364 1.95889 -2.86783 0
M  V30 7596 C 732.318 1.6005 -3.96948 0
M  V30 7597 C 731.644 2.90009 -4.4922 0
M  V30 7598 C 732.944 0.818008 -5.15855 0
M  V30 7599 H 734.638 0.192274 -2.98782 0
M  V30 7600 H 732.184 0.0910393 -1.43712 0
M  V30 7601 H 734.137 2.60779 -3.31017 0
M  V30 7602 H 732.861 2.52608 -2.07018 0
M  V30 7603 H 731.52 0.975237 -3.5339 0
M  V30 7604 H 731.168 3.44797 -3.6623 0
M  V30 7605 H 730.868 2.66778 -5.23549 0
M  V30 7606 H 732.392 3.55904 -4.9615 0
M  V30 7607 H 733.806 1.36979 -5.56695 0
M  V30 7608 H 732.203 0.684207 -5.96187 0
M  V30 7609 H 733.273 -0.182939 -4.84555 0
M  V30 7610 N 734.616 1.57351 0.0885366 0
M  V30 7611 C 735.846 1.90355 0.80303 0
M  V30 7612 C 736.254 0.777678 1.72478 0
M  V30 7613 O 735.597 -0.258908 1.81866 0
M  V30 7614 C 735.659 3.18674 1.66395 0
M  V30 7615 C 735.323 4.4778 0.913327 0
M  V30 7616 C 736.32 5.19345 0.240148 0
M  V30 7617 C 734.005 4.94434 0.885462 0
M  V30 7618 C 735.999 6.35803 -0.450854 0
M  V30 7619 C 733.686 6.10802 0.190679 0
M  V30 7620 C 734.684 6.81337 -0.476295 0
M  V30 7621 O 734.372 7.95488 -1.15992 0
M  V30 7622 H 734.104 0.634035 0.234469 0
M  V30 7623 H 736.658 2.05287 0.0681959 0
M  V30 7624 H 734.888 2.99906 2.44117 0
M  V30 7625 H 736.577 3.37458 2.2556 0
M  V30 7626 H 737.343 4.84339 0.253092 0
M  V30 7627 H 733.222 4.39417 1.39406 0
M  V30 7628 H 736.766 6.90795 -0.972019 0
M  V30 7629 H 732.663 6.45261 0.175603 0
M  V30 7630 H 733.431 8.11509 -1.06749 0
M  V30 7631 N 736.094 -0.359525 1.53444 0
M  V30 7632 C 737.026 -1.46098 1.76602 0
M  V30 7633 C 738.039 -1.49395 0.646912 0
M  V30 7634 O 739.228 -1.52765 0.923307 0
M  V30 7635 C 736.328 -2.84836 1.83635 0
M  V30 7636 C 735.501 -3.05164 3.13358 0
M  V30 7637 C 734.56 -4.24051 3.11556 0
M  V30 7638 O 733.586 -4.18935 3.85334 0
M  V30 7639 N 734.788 -5.31775 2.328 0
M  V30 7640 H 737.553 -1.2661 2.71643 0
M  V30 7641 H 735.114 -0.549294 1.52297 0
M  V30 7642 H 737.106 -3.62516 1.799 0
M  V30 7643 H 735.676 -2.97542 0.958509 0
M  V30 7644 H 734.896 -2.15091 3.30348 0
M  V30 7645 H 736.184 -3.15619 3.99076 0
M  V30 7646 H 735.582 -5.38796 1.7238 0
M  V30 7647 H 734.139 -6.0801 2.34877 0
M  V30 7648 N 737.572 -1.44907 -0.619662 0
M  V30 7649 C 738.818 -1.48512 -1.38102 0
M  V30 7650 C 739.151 -0.121686 -1.93818 0
M  V30 7651 O 738.426 0.862256 -1.74343 0
M  V30 7652 C 738.709 -2.55469 -2.53787 0
M  V30 7653 C 738.562 -4.01212 -2.03345 0
M  V30 7654 C 739.881 -2.58821 -3.55949 0
M  V30 7655 H 737 -0.540712 -0.500799 0
M  V30 7656 H 739.642 -1.7665 -0.69962 0
M  V30 7657 H 737.792 -2.31606 -3.11915 0
M  V30 7658 H 739.464 -4.36245 -1.49959 0
M  V30 7659 H 737.707 -4.12443 -1.34438 0
M  V30 7660 H 738.378 -4.71717 -2.86683 0
M  V30 7661 H 740.854 -2.80172 -3.07641 0
M  V30 7662 H 739.73 -3.35542 -4.34399 0
M  V30 7663 H 739.991 -1.63451 -4.10775 0
M  V30 7664 N 739.05 0.861098 -1.31996 0
M  V30 7665 C 739.96 2.00154 -1.22374 0
M  V30 7666 C 740.976 1.73447 -0.138631 0
M  V30 7667 O 742.152 1.98191 -0.358104 0
M  V30 7668 C 739.217 3.33696 -0.940645 0
M  V30 7669 C 738.278 3.73668 -2.11355 0
M  V30 7670 C 737.511 5.00837 -1.84386 0
M  V30 7671 O 737.734 5.64996 -0.783287 0
M  V30 7672 O 736.668 5.37787 -2.70313 0
M  V30 7673 H 740.494 2.11207 -2.18233 0
M  V30 7674 H 738.079 0.990768 -1.11822 0
M  V30 7675 H 739.961 4.13756 -0.798987 0
M  V30 7676 H 738.636 3.23698 -0.0121636 0
M  V30 7677 H 737.543 2.94211 -2.31065 0
M  V30 7678 H 738.876 3.88303 -3.02459 0
M  V30 7679 N 740.528 1.15101 1.07655 0
M  V30 7680 C 741.774 0.935313 1.8062 0
M  V30 7681 C 742.129 -0.532052 1.84897 0
M  V30 7682 O 741.422 -1.3893 1.31943 0
M  V30 7683 C 741.616 1.47954 3.25337 0
M  V30 7684 C 741.445 2.99829 3.35161 0
M  V30 7685 C 740.215 3.68348 3.45902 0
M  V30 7686 C 742.413 3.97638 3.26173 0
M  V30 7687 N 740.395 5.08062 3.44596 0
M  V30 7688 C 741.766 5.23651 3.31949 0
M  V30 7689 C 743.821 3.89651 3.09962 0
M  V30 7690 C 742.524 6.42609 3.23182 0
M  V30 7691 C 744.55 5.08164 3.02528 0
M  V30 7692 C 743.912 6.3305 3.08913 0
M  V30 7693 H 740.011 0.395876 0.674393 0
M  V30 7694 H 742.595 1.4625 1.28526 0
M  V30 7695 H 740.766 0.979022 3.75859 0
M  V30 7696 H 742.498 1.20298 3.86407 0
M  V30 7697 H 739.253 3.18928 3.50117 0
M  V30 7698 H 739.677 5.81023 3.47479 0
M  V30 7699 H 744.319 2.93966 3.03881 0
M  V30 7700 H 742.037 7.38531 3.28022 0
M  V30 7701 H 745.623 5.03742 2.91093 0
M  V30 7702 H 744.503 7.23214 3.03201 0
M  V30 7703 N 742.006 -1.2595 0.947325 0
M  V30 7704 C 742.938 -2.25336 0.41906 0
M  V30 7705 C 743.951 -1.56135 -0.461051 0
M  V30 7706 O 745.14 -1.76438 -0.270505 0
M  V30 7707 C 742.24 -3.36334 -0.416233 0
M  V30 7708 C 741.413 -4.35088 0.449162 0
M  V30 7709 C 740.472 -5.25185 -0.326716 0
M  V30 7710 O 739.498 -5.68548 0.272374 0
M  V30 7711 N 740.7 -5.57388 -1.6217 0
M  V30 7712 H 743.465 -2.71298 1.27348 0
M  V30 7713 H 741.026 -1.39781 0.81688 0
M  V30 7714 H 743.018 -3.93564 -0.942826 0
M  V30 7715 H 741.588 -2.89819 -1.17148 0
M  V30 7716 H 740.808 -3.76841 1.15692 0
M  V30 7717 H 742.096 -4.98056 1.04008 0
M  V30 7718 H 741.494 -5.2405 -2.13046 0
M  V30 7719 H 740.051 -6.17234 -2.0944 0
M  V30 7720 N 743.484 -0.715051 -1.40445 0
M  V30 7721 C 744.9 -0.388555 -1.54798 0
M  V30 7722 C 745.1 1.10271 -1.68649 0
M  V30 7723 O 744.156 1.88875 -1.67578 0
M  V30 7724 C 745.469 -1.15414 -2.77669 0
M  V30 7725 C 747.017 -1.14039 -2.91486 0
M  V30 7726 C 747.492 -1.88812 -4.1727 0
M  V30 7727 N 748.983 -1.85878 -4.24268 0
M  V30 7728 C 749.718 -2.40558 -5.20499 0
M  V30 7729 N 749.214 -3.03791 -6.22642 0
M  V30 7730 N 751.007 -2.30703 -5.12574 0
M  V30 7731 H 743.158 -1.68201 -1.297 0
M  V30 7732 H 745.421 -0.710915 -0.627139 0
M  V30 7733 H 745.127 -2.20853 -2.7371 0
M  V30 7734 H 745.001 -0.745412 -3.69761 0
M  V30 7735 H 747.388 -0.0941996 -2.9495 0
M  V30 7736 H 747.469 -1.58834 -2.00513 0
M  V30 7737 H 747.113 -2.93422 -4.14568 0
M  V30 7738 H 747.043 -1.41438 -5.0725 0
M  V30 7739 H 749.534 -1.39794 -3.51093 0
M  V30 7740 H 749.847 -3.43032 -6.92495 0
M  V30 7741 H 748.192 -3.07875 -6.23087 0
M  V30 7742 H 751.383 -1.80961 -4.31707 0
M  V30 7743 H 751.556 -2.73618 -5.87398 0
M  V30 7744 N 744.962 1.50701 -0.461195 0
M  V30 7745 C 746.192 2.06381 0.0950376 0
M  V30 7746 C 746.6 1.32627 1.34933 0
M  V30 7747 O 745.943 0.386137 1.79596 0
M  V30 7748 C 746.005 3.56558 0.458965 0
M  V30 7749 C 745.669 4.51732 -0.691891 0
M  V30 7750 C 746.666 4.95594 -1.57105 0
M  V30 7751 C 744.351 4.94542 -0.879407 0
M  V30 7752 C 746.345 5.80963 -2.62223 0
M  V30 7753 C 744.032 5.79695 -1.93382 0
M  V30 7754 C 745.03 6.22806 -2.80359 0
M  V30 7755 O 744.718 7.06265 -3.83986 0
M  V30 7756 H 744.45 0.676 0.000687488 0
M  V30 7757 H 747.004 1.94974 -0.646087 0
M  V30 7758 H 745.234 3.65832 1.25314 0
M  V30 7759 H 746.923 3.94647 0.949124 0
M  V30 7760 H 747.689 4.63197 -1.43783 0
M  V30 7761 H 743.568 4.60513 -0.211907 0
M  V30 7762 H 747.112 6.14533 -3.30143 0
M  V30 7763 H 743.009 6.11506 -2.06715 0
M  V30 7764 H 743.777 7.24494 -3.80855 0
M  V30 7765 N 746.441 0.193421 1.56409 0
M  V30 7766 C 747.687 -0.446449 1.97825 0
M  V30 7767 C 748.02 -1.61386 1.08019 0
M  V30 7768 O 747.295 -1.94053 0.131839 0
M  V30 7769 C 747.578 -0.908199 3.48459 0
M  V30 7770 C 747.431 0.260914 4.49043 0
M  V30 7771 C 748.75 -1.77428 4.0275 0
M  V30 7772 H 745.869 -0.160807 0.719243 0
M  V30 7773 H 748.511 0.284006 1.87865 0
M  V30 7774 H 746.661 -1.53062 3.57077 0
M  V30 7775 H 748.333 0.898548 4.52464 0
M  V30 7776 H 746.576 0.912949 4.24085 0
M  V30 7777 H 747.247 -0.104657 5.51901 0
M  V30 7778 H 749.723 -1.24936 3.96901 0
M  V30 7779 H 748.599 -2.06633 5.08521 0
M  V30 7780 H 748.86 -2.72788 3.47907 0
M  V30 7781 N 747.919 -1.57396 -0.0801906 0
M  V30 7782 C 748.866 -2.03107 -1.09618 0
M  V30 7783 C 749.836 -0.910118 -1.38946 0
M  V30 7784 O 751.021 -1.17719 -1.50156 0
M  V30 7785 C 748.161 -2.47293 -2.40708 0
M  V30 7786 C 747.274 -3.72972 -2.17982 0
M  V30 7787 C 746.409 -4.05975 -3.42576 0
M  V30 7788 C 745.448 -5.24719 -3.15177 0
M  V30 7789 N 744.585 -5.53401 -4.32078 0
M  V30 7790 H 749.425 -2.89677 -0.69939 0
M  V30 7791 H 746.962 -1.43263 -0.333785 0
M  V30 7792 H 748.92 -2.7096 -3.17232 0
M  V30 7793 H 747.55 -1.63713 -2.78205 0
M  V30 7794 H 746.602 -3.56693 -1.32189 0
M  V30 7795 H 747.914 -4.59638 -1.93738 0
M  V30 7796 H 747.068 -4.30498 -4.275 0
M  V30 7797 H 745.807 -3.17859 -3.69887 0
M  V30 7798 H 744.812 -5 -2.28648 0
M  V30 7799 H 746.037 -6.14445 -2.89197 0
M  V30 7800 H 743.983 -4.68245 -4.59437 0
M  V30 7801 H 743.9 -6.34469 -4.11078 0
M  V30 7802 H 745.168 -5.8247 -5.18024 0
M  V30 7803 N 749.397 0.351382 -1.53633 0
M  V30 7804 C 750.674 1.10903 -1.6112 0
M  V30 7805 C 751.054 2.06725 -0.427556 0
M  V30 7806 O 750.402 2.20992 0.580916 0
M  V30 7807 C 750.612 1.83561 -2.96827 0
M  V30 7808 C 751.96 2.37587 -3.51906 0
M  V30 7809 O 752.984 1.93669 -2.9895 0
M  V30 7810 O 751.843 3.17913 -4.44515 0
M  V30 7811 H 748.937 0.509558 -0.651368 0
M  V30 7812 H 751.483 0.353504 -1.65977 0
M  V30 7813 H 750.255 1.1371 -3.74414 0
M  V30 7814 H 749.878 2.6599 -2.95525 0
M  V30 7815 N 750.875 1.45233 0.611969 0
M  V30 7816 C 752.123 1.48727 1.36838 0
M  V30 7817 C 752.444 0.128616 1.94575 0
M  V30 7818 O 751.714 -0.84149 1.76906 0
M  V30 7819 H 750.294 0.547695 0.507976 0
M  V30 7820 H 752.956 1.81156 0.718925 0
M  V30 7821 H 752.052 2.2236 2.19003 0
M  V30 7822 N 752.353 -0.854086 1.3245 0
M  V30 7823 C 753.599 -1.61069 1.23225 0
M  V30 7824 C 753.932 -1.93111 -0.205349 0
M  V30 7825 O 753.207 -1.57397 -1.14265 0
M  V30 7826 C 753.49 -2.93065 2.09249 0
M  V30 7827 C 753.343 -2.67801 3.6139 0
M  V30 7828 C 754.662 -3.94341 1.95406 0
M  V30 7829 H 751.781 -0.584449 0.448986 0
M  V30 7830 H 754.423 -0.986189 1.62402 0
M  V30 7831 H 752.573 -3.46364 1.75967 0
M  V30 7832 H 754.245 -2.21052 4.04887 0
M  V30 7833 H 752.488 -2.01756 3.84027 0
M  V30 7834 H 753.159 -3.6179 4.16907 0
M  V30 7835 H 755.635 -3.50301 2.24562 0
M  V30 7836 H 754.511 -4.84555 2.57872 0
M  V30 7837 H 754.772 -4.32382 0.921865 0
M  V30 7838 N 753.831 -1.1567 -1.07043 0
M  V30 7839 C 754.761 -0.879348 -2.16309 0
M  V30 7840 C 755.742 0.171311 -1.69235 0
M  V30 7841 O 756.927 0.0250175 -1.94184 0
M  V30 7842 C 754.057 -0.371307 -3.45309 0
M  V30 7843 C 753.011 -1.359 -4.05851 0
M  V30 7844 C 752.337 -0.709678 -5.29969 0
M  V30 7845 C 753.637 -2.72606 -4.45514 0
M  V30 7846 H 755.331 -1.79308 -2.39768 0
M  V30 7847 H 752.877 -0.863558 -1.15233 0
M  V30 7848 H 754.83 -0.164798 -4.21078 0
M  V30 7849 H 753.554 0.577906 -3.21446 0
M  V30 7850 H 752.213 -1.55193 -3.32131 0
M  V30 7851 H 751.861 0.245782 -5.02399 0
M  V30 7852 H 751.561 -1.36886 -5.71433 0
M  V30 7853 H 753.085 -0.513015 -6.08441 0
M  V30 7854 H 754.499 -2.57141 -5.12398 0
M  V30 7855 H 752.896 -3.34927 -4.97939 0
M  V30 7856 H 753.966 -3.28434 -3.56734 0
M  V30 7857 N 755.309 1.25446 -0.953992 0
M  V30 7858 C 756.537 1.97215 -0.625595 0
M  V30 7859 C 756.952 1.70911 0.802168 0
M  V30 7860 O 756.309 0.984782 1.5365 0
M  V30 7861 C 756.36 3.50777 -0.873943 0
M  V30 7862 O 756.081 3.76173 -2.24556 0
M  V30 7863 C 757.582 4.39776 -0.557845 0
M  V30 7864 H 754.802 0.628652 -0.2346 0
M  V30 7865 H 757.346 1.59632 -1.27819 0
M  V30 7866 H 755.501 3.86474 -0.267765 0
M  V30 7867 H 755.915 4.70636 -2.31522 0
M  V30 7868 H 757.389 5.46431 -0.782157 0
M  V30 7869 H 757.866 4.36257 0.507573 0
M  V30 7870 H 758.472 4.09644 -1.14332 0
M  V30 7871 N 756.787 0.722489 1.40064 0
M  V30 7872 C 758.203 0.396758 1.5459 0
M  V30 7873 C 758.403 -1.09375 1.69232 0
M  V30 7874 O 757.459 -1.87984 1.68578 0
M  V30 7875 C 758.772 1.16885 2.77053 0
M  V30 7876 C 760.32 1.15583 2.90877 0
M  V30 7877 C 760.795 1.91023 4.16262 0
M  V30 7878 N 762.286 1.88126 4.23276 0
M  V30 7879 C 763.021 2.43315 5.19216 0
M  V30 7880 N 762.517 3.07089 6.21022 0
M  V30 7881 N 764.31 2.33418 5.11344 0
M  V30 7882 H 756.461 1.68887 1.28806 0
M  V30 7883 H 758.724 0.714231 0.62336 0
M  V30 7884 H 758.43 2.22301 2.72534 0
M  V30 7885 H 758.304 0.765011 3.69361 0
M  V30 7886 H 760.691 0.10984 2.94896 0
M  V30 7887 H 760.772 1.59895 1.99668 0
M  V30 7888 H 760.416 2.95616 4.13006 0
M  V30 7889 H 760.346 1.44126 5.06493 0
M  V30 7890 H 762.837 1.41654 3.50346 0
M  V30 7891 H 763.15 3.467 6.90666 0
M  V30 7892 H 761.495 3.11175 6.21446 0
M  V30 7893 H 764.686 1.83248 4.30741 0
M  V30 7894 H 764.859 2.7673 5.85939 0
M  V30 7895 N 758.265 -1.50454 0.469181 0
M  V30 7896 C 759.514 -2.01507 -0.0881425 0
M  V30 7897 C 759.827 -1.35613 -1.40956 0
M  V30 7898 O 761.033 -1.77812 -2.05171 0
M  V30 7899 C 759.489 -3.59301 -0.207596 0
M  V30 7900 C 759.097 -4.34152 1.10527 0
M  V30 7901 C 760.841 -4.18401 -0.716981 0
M  V30 7902 C 758.748 -5.83725 0.949717 0
M  V30 7903 H 757.678 -0.753106 -0.0367156 0
M  V30 7904 H 760.329 -1.73282 0.603788 0
M  V30 7905 H 758.711 -3.84106 -0.963265 0
M  V30 7906 H 759.885 -4.21073 1.87175 0
M  V30 7907 H 758.2 -3.86652 1.54562 0
M  V30 7908 H 760.797 -5.27895 -0.850363 0
M  V30 7909 H 761.14 -3.79657 -1.70782 0
M  V30 7910 H 761.673 -3.97796 -0.0187511 0
M  V30 7911 H 758.412 -6.26938 1.91387 0
M  V30 7912 H 757.932 -5.99383 0.223591 0
M  V30 7913 H 759.611 -6.44065 0.61557 0
M  V30 7914 N 759.743 -0.201713 -1.56304 0
M  V30 7915 C 761.02 0.483273 -1.89536 0
M  V30 7916 C 761.4 1.79176 -1.11621 0
M  V30 7917 O 760.748 2.27445 -0.219339 0
M  V30 7918 C 760.958 0.695604 -3.41998 0
M  V30 7919 C 762.306 1.012 -4.12364 0
M  V30 7920 O 763.33 0.783094 -3.47485 0
M  V30 7921 O 762.189 1.44534 -5.27041 0
M  V30 7922 H 759.283 0.252801 -0.787414 0
M  V30 7923 H 761.829 -0.24242 -1.6796 0
M  V30 7924 H 760.601 -0.228165 -3.90634 0
M  V30 7925 H 760.224 1.47351 -3.69288 0
M  V30 7926 N 761.222 1.57436 0.0718424 0
M  V30 7927 C 762.152 2.06724 1.08571 0
M  V30 7928 C 763.133 0.960731 1.40371 0
M  V30 7929 O 764.318 1.23345 1.49999 0
M  V30 7930 C 761.448 2.51112 2.39916 0
M  V30 7931 C 760.402 3.65639 2.22469 0
M  V30 7932 C 759.728 3.96082 3.59198 0
M  V30 7933 C 761.028 4.95687 1.64596 0
M  V30 7934 H 762.722 2.91679 0.675569 0
M  V30 7935 H 760.268 1.40319 0.32352 0
M  V30 7936 H 762.221 2.84206 3.11135 0
M  V30 7937 H 760.945 1.63186 2.8291 0
M  V30 7938 H 759.604 3.32828 1.53691 0
M  V30 7939 H 759.252 3.05287 3.99761 0
M  V30 7940 H 758.952 4.73199 3.48362 0
M  V30 7941 H 760.476 4.31672 4.31847 0
M  V30 7942 H 761.89 5.27011 2.25681 0
M  V30 7943 H 760.287 5.77126 1.64457 0
M  V30 7944 H 761.357 4.8108 0.60744 0
M  V30 7945 N 762.7 -0.34323 1.53817 0
M  V30 7946 C 763.663 -1.40444 1.8113 0
M  V30 7947 C 764.663 -1.45604 0.682366 0
M  V30 7948 O 765.853 -1.45974 0.950649 0
M  V30 7949 C 762.985 -2.79369 1.95361 0
M  V30 7950 H 764.178 -1.17489 2.75928 0
M  V30 7951 H 761.731 -0.577636 1.45234 0
M  V30 7952 H 762.466 -3.07607 1.02707 0
M  V30 7953 H 762.251 -2.7702 2.77493 0
M  V30 7954 H 763.741 -3.56178 2.18008 0
M  V30 7955 N 764.178 -1.45556 -0.604258 0
M  V30 7956 C 765.424 -1.50958 -1.3632 0
M  V30 7957 C 765.779 -0.15051 -1.9181 0
M  V30 7958 O 765.072 0.838035 -1.72301 0
M  V30 7959 C 765.266 -2.52697 -2.52743 0
M  V30 7960 C 765.095 -3.98364 -2.08654 0
M  V30 7961 C 763.865 -4.66295 -1.94671 0
M  V30 7962 C 766.063 -4.86801 -1.6592 0
M  V30 7963 N 764.045 -5.96669 -1.44428 0
M  V30 7964 C 765.416 -6.06829 -1.27115 0
M  V30 7965 C 767.471 -4.73634 -1.53542 0
M  V30 7966 C 766.174 -7.15149 -0.771676 0
M  V30 7967 C 768.2 -5.82005 -1.04998 0
M  V30 7968 C 767.562 -7.01191 -0.671599 0
M  V30 7969 H 763.661 -0.607329 -0.492621 0
M  V30 7970 H 766.245 -1.82048 -0.69041 0
M  V30 7971 H 764.416 -2.23554 -3.17614 0
M  V30 7972 H 766.148 -2.48227 -3.19633 0
M  V30 7973 H 762.903 -4.21496 -2.15959 0
M  V30 7974 H 763.327 -6.66003 -1.21528 0
M  V30 7975 H 767.969 -3.81898 -1.81421 0
M  V30 7976 H 765.687 -8.06671 -0.480442 0
M  V30 7977 H 769.273 -5.73851 -0.958423 0
M  V30 7978 H 768.153 -7.83619 -0.301752 0
M  V30 7979 N 765.656 0.84705 -1.32902 0
M  V30 7980 C 766.881 1.63925 -1.27056 0
M  V30 7981 C 767.306 1.87443 0.157136 0
M  V30 7982 O 766.664 1.43266 1.11106 0
M  V30 7983 C 766.712 2.97134 -2.04313 0
M  V30 7984 O 765.816 3.88049 -1.39614 0
M  V30 7985 H 765.157 0.499477 -0.437514 0
M  V30 7986 H 767.687 1.05443 -1.75336 0
M  V30 7987 H 767.697 3.46896 -2.14772 0
M  V30 7988 H 766.372 2.79339 -3.08128 0
M  V30 7989 H 764.949 3.46525 -1.3775 0
M  V30 7990 N 767.134 1.16236 1.06428 0
M  V30 7991 C 768.55 0.906983 1.31324 0
M  V30 7992 C 768.75 -0.440872 1.96618 0
M  V30 7993 O 767.806 -1.1807 2.23194 0
M  V30 7994 C 769.119 2.05501 2.19522 0
M  V30 7995 C 770.667 2.09061 2.32943 0
M  V30 7996 C 771.142 3.23214 3.24495 0
M  V30 7997 N 772.633 3.22922 3.32078 0
M  V30 7998 C 773.368 4.07889 4.03006 0
M  V30 7999 N 772.864 5.02941 4.76469 0
M  V30 8000 N 774.657 3.95881 3.99043 0
M  V30 8001 H 766.808 2.03015 0.624388 0
M  V30 8002 H 769.071 0.88576 0.337835 0
M  V30 8003 H 768.777 3.02847 1.78819 0
M  V30 8004 H 768.651 1.99538 3.201 0
M  V30 8005 H 771.038 1.12308 2.72893 0
M  V30 8006 H 771.119 2.19089 1.32037 0
M  V30 8007 H 770.763 4.20225 2.85261 0
M  V30 8008 H 770.693 3.10423 4.25377 0
M  V30 8009 H 773.184 2.54093 2.79724 0
M  V30 8010 H 773.497 5.64196 5.28112 0
M  V30 8011 H 771.842 5.06922 4.75453 0
M  V30 8012 H 775.033 3.20927 3.40769 0
M  V30 8013 H 775.206 4.62321 4.54052 0
M  V30 8014 N 768.612 -1.24939 0.960631 0
M  V30 8015 C 769.889 -1.88118 0.535807 0
M  V30 8016 C 770.269 -1.86605 -0.987009 0
M  V30 8017 O 769.617 -1.33375 -1.85536 0
M  V30 8018 C 769.827 -3.30565 1.11927 0
M  V30 8019 C 771.175 -4.07296 1.19981 0
M  V30 8020 O 772.199 -3.39709 1.07126 0
M  V30 8021 O 771.058 -5.28206 1.40218 0
M  V30 8022 H 768.152 -0.807698 0.177631 0
M  V30 8023 H 770.698 -1.32964 1.05445 0
M  V30 8024 H 769.47 -3.26128 2.16231 0
M  V30 8025 H 769.093 -3.93284 0.584245 0
M  V30 8026 N 770.09 -0.729906 -1.39679 0
M  V30 8027 C 771.022 -0.0470588 -2.29152 0
M  V30 8028 C 772.035 0.708808 -1.4656 0
M  V30 8029 O 773.224 0.553815 -1.69691 0
M  V30 8030 C 770.324 0.957612 -3.25089 0
M  V30 8031 C 769.497 0.264321 -4.36601 0
M  V30 8032 C 768.556 1.17638 -5.12882 0
M  V30 8033 O 767.582 0.655777 -5.6541 0
M  V30 8034 N 768.784 2.50649 -5.23598 0
M  V30 8035 H 771.549 -0.815364 -2.88395 0
M  V30 8036 H 769.11 -0.578707 -1.51204 0
M  V30 8037 H 771.102 1.57026 -3.72995 0
M  V30 8038 H 769.672 1.62716 -2.66912 0
M  V30 8039 H 768.892 -0.528732 -3.90638 0
M  V30 8040 H 770.18 -0.216344 -5.0834 0
M  V30 8041 H 769.578 2.95427 -4.82431 0
M  V30 8042 H 768.135 3.07022 -5.74961 0
M  V30 8043 N 771.568 1.50203 -0.477153 0
M  V30 8044 C 772.515 2.28656 0.31386 0
M  V30 8045 C 773.485 1.33977 0.981802 0
M  V30 8046 O 774.67 1.62919 0.993072 0
M  V30 8047 C 771.81 3.16027 1.38639 0
M  V30 8048 C 770.923 4.25743 0.732615 0
M  V30 8049 C 770.058 5.00363 1.78355 0
M  V30 8050 C 769.097 6.01945 1.11035 0
M  V30 8051 N 768.234 6.6982 2.10441 0
M  V30 8052 H 773.074 2.958 -0.361445 0
M  V30 8053 H 770.611 1.45867 -0.190093 0
M  V30 8054 H 772.569 3.6504 2.01994 0
M  V30 8055 H 771.199 2.50917 2.03077 0
M  V30 8056 H 770.251 3.80398 -0.0136546 0
M  V30 8057 H 771.563 4.98393 0.201513 0
M  V30 8058 H 770.717 5.53124 2.49276 0
M  V30 8059 H 769.456 4.27432 2.34847 0
M  V30 8060 H 768.461 5.48438 0.386797 0
M  V30 8061 H 769.686 6.76851 0.552248 0
M  V30 8062 H 767.632 5.99677 2.65939 0
M  V30 8063 H 767.549 7.38366 1.62332 0
M  V30 8064 H 768.817 7.27196 2.80724 0
M  V30 8065 N 773.046 0.209999 1.56195 0
M  V30 8066 C 773.956 -0.716459 2.23392 0
M  V30 8067 C 774.972 -1.22291 1.23778 0
M  V30 8068 O 776.148 -1.26694 1.56558 0
M  V30 8069 C 773.213 -1.91261 2.89172 0
M  V30 8070 C 772.274 -1.44927 4.04097 0
M  V30 8071 C 771.507 -2.5884 4.66731 0
M  V30 8072 O 771.73 -3.76693 4.2832 0
M  V30 8073 O 770.664 -2.30701 5.55932 0
M  V30 8074 H 774.49 -0.174089 3.03201 0
M  V30 8075 H 772.075 -0.0199505 1.49387 0
M  V30 8076 H 773.957 -2.6114 3.30733 0
M  V30 8077 H 772.632 -2.4433 2.12331 0
M  V30 8078 H 771.539 -0.718839 3.67129 0
M  V30 8079 H 772.872 -0.965084 4.82646 0
M  V30 8080 N 774.524 -1.57472 -0.0634922 0
M  V30 8081 C 775.471 -2.04258 -1.07457 0
M  V30 8082 C 776.441 -0.924804 -1.37973 0
M  V30 8083 O 777.626 -1.19305 -1.48899 0
M  V30 8084 C 774.766 -2.49832 -2.38071 0
M  V30 8085 C 773.879 -3.75263 -2.14014 0
M  V30 8086 C 773.014 -4.09585 -3.38251 0
M  V30 8087 C 772.053 -5.28032 -3.09594 0
M  V30 8088 N 771.19 -5.57953 -4.26185 0
M  V30 8089 H 776.03 -2.90402 -0.668626 0
M  V30 8090 H 773.567 -1.43609 -0.318572 0
M  V30 8091 H 775.525 -2.7431 -3.14341 0
M  V30 8092 H 774.155 -1.66654 -2.76453 0
M  V30 8093 H 773.207 -3.58075 -1.28399 0
M  V30 8094 H 774.519 -4.61667 -1.88852 0
M  V30 8095 H 773.673 -4.35008 -4.2291 0
M  V30 8096 H 772.412 -3.21765 -3.66495 0
M  V30 8097 H 771.417 -5.02397 -2.23332 0
M  V30 8098 H 772.642 -6.17477 -2.82663 0
M  V30 8099 H 770.588 -4.73092 -4.54445 0
M  V30 8100 H 770.505 -6.38793 -4.04326 0
M  V30 8101 H 771.773 -5.87931 -5.11817 0
M  V30 8102 N 776.003 0.335068 -1.53997 0
M  V30 8103 C 777.249 1.07594 -1.71905 0
M  V30 8104 C 777.582 1.88039 -0.485264 0
M  V30 8105 O 776.857 1.87482 0.517752 0
M  V30 8106 C 777.14 2.01016 -2.98772 0
M  V30 8107 C 776.993 1.23977 -4.32377 0
M  V30 8108 C 778.312 3.0071 -3.21343 0
M  V30 8109 H 775.431 0.38976 -0.625505 0
M  V30 8110 H 778.073 0.353684 -1.86679 0
M  V30 8111 H 776.223 2.62603 -2.86307 0
M  V30 8112 H 777.895 0.649383 -4.56706 0
M  V30 8113 H 776.138 0.541878 -4.30402 0
M  V30 8114 H 776.809 1.92512 -5.17342 0
M  V30 8115 H 779.285 2.4924 -3.33194 0
M  V30 8116 H 778.161 3.63272 -4.11491 0
M  V30 8117 H 778.422 3.72549 -2.38033 0
M  V30 8118 N 777.481 1.45874 0.596531 0
M  V30 8119 C 778.711 1.5379 1.37958 0
M  V30 8120 C 779.119 0.173086 1.88407 0
M  V30 8121 O 778.462 -0.837498 1.63498 0
M  V30 8122 C 778.524 2.47044 2.61169 0
M  V30 8123 C 778.188 3.93565 2.32283 0
M  V30 8124 C 779.185 4.83162 1.91965 0
M  V30 8125 C 776.87 4.38579 2.44854 0
M  V30 8126 C 778.864 6.15782 1.64593 0
M  V30 8127 C 776.551 5.71238 2.17095 0
M  V30 8128 C 777.549 6.59659 1.77028 0
M  V30 8129 O 777.237 7.89857 1.49601 0
M  V30 8130 H 776.969 0.523 0.428307 0
M  V30 8131 H 779.523 1.91855 0.733529 0
M  V30 8132 H 777.753 2.0397 3.28532 0
M  V30 8133 H 779.442 2.4552 3.23226 0
M  V30 8134 H 780.208 4.49646 1.8178 0
M  V30 8135 H 776.087 3.6999 2.75006 0
M  V30 8136 H 779.631 6.84757 1.33245 0
M  V30 8137 H 775.528 6.04306 2.26901 0
M  V30 8138 H 776.296 8.01991 1.63561 0
M  V30 8139 N 778.959 -0.83999 1.33349 0
M  V30 8140 C 780.205 -1.59753 1.24927 0
M  V30 8141 C 780.538 -1.93318 -0.184855 0
M  V30 8142 O 779.813 -1.586 -1.12589 0
M  V30 8143 C 780.096 -2.90829 2.12345 0
M  V30 8144 C 779.949 -2.63953 3.6421 0
M  V30 8145 C 781.268 -3.92246 1.99577 0
M  V30 8146 H 778.387 -0.579654 0.45516 0
M  V30 8147 H 781.029 -0.968909 1.63439 0
M  V30 8148 H 779.179 -3.44478 1.79631 0
M  V30 8149 H 780.851 -2.16745 4.07209 0
M  V30 8150 H 779.094 -1.97671 3.86146 0
M  V30 8151 H 779.765 -3.57348 4.20721 0
M  V30 8152 H 782.241 -3.479 2.28265 0
M  V30 8153 H 781.117 -4.81793 2.62996 0
M  V30 8154 H 781.378 -4.3138 0.967673 0
M  V30 8155 N 780.437 -1.16799 -1.0581 0
M  V30 8156 C 781.369 -0.836774 -2.13379 0
M  V30 8157 C 782.382 0.158116 -1.6203 0
M  V30 8158 O 783.571 -0.0673211 -1.78373 0
M  V30 8159 C 780.671 -0.225959 -3.38146 0
M  V30 8160 C 779.844 -1.26217 -4.18794 0
M  V30 8161 C 778.903 -0.670257 -5.21914 0
M  V30 8162 O 777.929 -1.34042 -5.53192 0
M  V30 8163 N 779.131 0.540683 -5.77977 0
M  V30 8164 H 781.896 -1.76257 -2.42391 0
M  V30 8165 H 779.457 -1.06599 -1.21853 0
M  V30 8166 H 781.449 0.18317 -4.04285 0
M  V30 8167 H 780.019 0.603494 -3.06719 0
M  V30 8168 H 779.239 -1.84729 -3.48237 0
M  V30 8169 H 780.527 -1.9613 -4.69479 0
M  V30 8170 H 779.925 1.10322 -5.54838 0
M  V30 8171 H 778.482 0.891958 -6.45668 0
M  V30 8172 N 781.915 1.24427 -0.967243 0
M  V30 8173 C 783.192 1.87831 -0.545776 0
M  V30 8174 C 783.572 1.87126 0.977099 0
M  V30 8175 O 782.92 1.34357 1.84826 0
M  V30 8176 C 783.13 3.29967 -1.13679 0
M  V30 8177 C 784.478 4.06654 -1.22139 0
M  V30 8178 O 785.502 3.39136 -1.08926 0
M  V30 8179 O 784.361 5.27455 -1.43017 0
M  V30 8180 H 781.455 0.806745 -0.181912 0
M  V30 8181 H 784.001 1.32403 -1.06148 0
M  V30 8182 H 782.773 3.24977 -2.17958 0
M  V30 8183 H 782.396 3.92969 -0.605093 0
M  V30 8184 N 783.393 0.737304 1.3929 0
M  V30 8185 C 784.34 0.0988364 2.30588 0
M  V30 8186 C 785.31 -0.727206 1.49335 0
M  V30 8187 O 786.495 -0.686694 1.78014 0
M  V30 8188 C 783.635 -0.800734 3.35682 0
M  V30 8189 C 782.748 0.0381731 4.31983 0
M  V30 8190 C 781.883 -0.862884 5.24145 0
M  V30 8191 C 780.922 -0.0193639 6.12097 0
M  V30 8192 N 780.059 -0.87648 6.96608 0
M  V30 8193 H 784.899 0.883031 2.84617 0
M  V30 8194 H 782.436 0.447111 1.4014 0
M  V30 8195 H 784.394 -1.33676 3.95205 0
M  V30 8196 H 783.024 -1.55088 2.83103 0
M  V30 8197 H 782.076 0.691641 3.74059 0
M  V30 8198 H 783.388 0.690294 4.94 0
M  V30 8199 H 782.542 -1.46667 5.88705 0
M  V30 8200 H 781.281 -1.54878 4.62454 0
M  V30 8201 H 780.286 0.597202 5.46547 0
M  V30 8202 H 781.511 0.663348 6.75852 0
M  V30 8203 H 779.457 -1.54762 6.37483 0
M  V30 8204 H 779.374 -0.280892 7.55478 0
M  V30 8205 H 780.642 -1.46575 7.65595 0
M  V30 8206 N 784.871 -1.49948 0.485112 0
M  V30 8207 C 785.801 -2.31675 -0.291364 0
M  V30 8208 C 786.782 -1.39216 -0.977383 0
M  V30 8209 O 787.967 -1.68133 -0.971855 0
M  V30 8210 C 785.097 -3.19326 -1.36558 0
M  V30 8211 C 784.051 -4.2045 -0.800359 0
M  V30 8212 C 783.377 -4.96931 -1.97391 0
M  V30 8213 C 784.677 -5.21925 0.197867 0
M  V30 8214 H 786.371 -2.96839 0.390775 0
M  V30 8215 H 783.917 -1.42749 0.189375 0
M  V30 8216 H 785.87 -3.75304 -1.91638 0
M  V30 8217 H 784.594 -2.52074 -2.07668 0
M  V30 8218 H 783.253 -3.65594 -0.271428 0
M  V30 8219 H 782.901 -4.26141 -2.67232 0
M  V30 8220 H 782.601 -5.65344 -1.60187 0
M  V30 8221 H 784.125 -5.55749 -2.52935 0
M  V30 8222 H 785.539 -5.72691 -0.264239 0
M  V30 8223 H 783.936 -5.98138 0.484908 0
M  V30 8224 H 785.006 -4.71809 1.11912 0
M  V30 8225 N 786.349 -0.21828 -1.56081 0
M  V30 8226 C 787.765 0.137168 -1.59009 0
M  V30 8227 C 787.965 1.59215 -1.23503 0
M  V30 8228 O 787.021 2.33178 -0.968716 0
M  V30 8229 C 788.334 -0.186162 -3.00123 0
M  V30 8230 C 789.882 -0.128135 -3.12738 0
M  V30 8231 C 790.357 -0.425094 -4.56023 0
M  V30 8232 N 791.848 -0.374547 -4.61683 0
M  V30 8233 C 792.583 -0.57786 -5.70481 0
M  V30 8234 N 792.079 -0.842771 -6.87655 0
M  V30 8235 N 793.872 -0.510521 -5.59777 0
M  V30 8236 H 786.023 -1.16746 -1.77437 0
M  V30 8237 H 788.286 -0.467706 -0.824594 0
M  V30 8238 H 787.992 -1.19589 -3.30744 0
M  V30 8239 H 787.866 0.500388 -3.73866 0
M  V30 8240 H 790.253 0.872224 -2.81915 0
M  V30 8241 H 790.334 -0.848112 -2.41331 0
M  V30 8242 H 789.978 -1.42288 -4.87562 0
M  V30 8243 H 789.908 0.316038 -5.25651 0
M  V30 8244 H 792.399 -0.177356 -3.77484 0
M  V30 8245 H 792.712 -0.986095 -7.66483 0
M  V30 8246 H 791.057 -0.879929 -6.89407 0
M  V30 8247 H 794.248 -0.303813 -4.67113 0
M  V30 8248 H 794.421 -0.672378 -6.44502 0
M  V30 8249 N 787.827 1.57504 0.0551401 0
M  V30 8250 C 788.737 2.08198 1.08124 0
M  V30 8251 C 789.753 1.01496 1.41331 0
M  V30 8252 O 790.929 1.33073 1.51174 0
M  V30 8253 C 787.994 2.52968 2.37083 0
M  V30 8254 C 787.055 3.7404 2.10696 0
M  V30 8255 C 786.288 4.16665 3.33505 0
M  V30 8256 O 786.511 3.59019 4.4324 0
M  V30 8257 O 785.445 5.09324 3.20737 0
M  V30 8258 H 789.271 2.95977 0.680518 0
M  V30 8259 H 786.856 1.46933 0.270401 0
M  V30 8260 H 788.738 2.82211 3.12946 0
M  V30 8261 H 787.413 1.6831 2.76502 0
M  V30 8262 H 786.32 3.49855 1.32484 0
M  V30 8263 H 787.653 4.59601 1.76148 0
M  V30 8264 N 789.305 -0.326896 1.54172 0
M  V30 8265 C 790.237 -1.42319 1.79661 0
M  V30 8266 C 791.25 -1.47989 0.678456 0
M  V30 8267 O 792.439 -1.50773 0.955503 0
M  V30 8268 C 789.539 -2.80876 1.89636 0
M  V30 8269 C 788.712 -2.98449 3.19761 0
M  V30 8270 C 787.771 -4.17347 3.2048 0
M  V30 8271 O 786.797 -4.10667 3.94134 0
M  V30 8272 N 787.999 -5.26717 2.44027 0
M  V30 8273 H 790.764 -1.20819 2.74268 0
M  V30 8274 H 788.325 -0.516866 1.53428 0
M  V30 8275 H 790.317 -3.58619 1.87549 0
M  V30 8276 H 788.887 -2.95442 1.02141 0
M  V30 8277 H 788.107 -2.08035 3.34836 0
M  V30 8278 H 789.395 -3.07083 4.05681 0
M  V30 8279 H 788.793 -5.35019 1.8377 0
M  V30 8280 H 787.35 -6.02891 2.47721 0
M  V30 8281 N 790.784 -1.46188 -0.588786 0
M  V30 8282 C 792.032 -1.50885 -1.34455 0
M  V30 8283 C 792.353 -0.159555 -1.94346 0
M  V30 8284 O 791.623 0.813239 -1.78222 0
M  V30 8285 H 790.203 -0.555707 -0.499198 0
M  V30 8286 H 792.865 -1.82277 -0.690014 0
M  V30 8287 H 791.961 -2.25816 -2.15438 0
M  V30 8288 N 792.262 0.832906 -1.33792 0
M  V30 8289 C 793.225 1.92471 -1.24449 0
M  V30 8290 C 794.225 1.59981 -0.162085 0
M  V30 8291 O 795.415 1.69208 -0.414029 0
M  V30 8292 C 792.547 3.28278 -0.919044 0
M  V30 8293 H 793.74 2.0218 -2.21502 0
M  V30 8294 H 791.293 1.0257 -1.17936 0
M  V30 8295 H 792.028 3.24263 0.048738 0
M  V30 8296 H 791.813 3.53241 -1.70187 0
M  V30 8297 H 793.303 4.08253 -0.878576 0
M  V30 8298 N 793.74 1.17359 1.05189 0
M  V30 8299 C 794.65 0.904984 2.16442 0
M  V30 8300 C 795.666 -0.12686 1.73537 0
M  V30 8301 O 796.842 0.0524127 2.01332 0
M  V30 8302 C 793.907 0.422019 3.44122 0
M  V30 8303 C 792.968 1.52045 4.01473 0
M  V30 8304 C 792.201 1.06044 5.23059 0
M  V30 8305 O 792.424 -0.0854023 5.70336 0
M  V30 8306 O 791.358 1.85349 5.72651 0
M  V30 8307 H 795.184 1.8356 2.41949 0
M  V30 8308 H 792.769 0.95447 1.14936 0
M  V30 8309 H 794.651 0.160208 4.21095 0
M  V30 8310 H 793.326 -0.480444 3.20115 0
M  V30 8311 H 792.233 1.83615 3.25939 0
M  V30 8312 H 793.566 2.39863 4.29798 0
M  V30 8313 N 795.218 -1.23913 0.973828 0
M  V30 8314 C 796.148 -2.27453 0.527969 0
M  V30 8315 C 797.129 -1.6443 -0.435513 0
M  V30 8316 O 798.314 -1.9137 -0.330306 0
M  V30 8317 C 795.444 -3.4685 -0.176757 0
M  V30 8318 C 794.398 -4.22181 0.703352 0
M  V30 8319 C 793.724 -5.34534 -0.133215 0
M  V30 8320 C 795.024 -4.82865 1.99096 0
M  V30 8321 H 796.718 -2.65 1.3934 0
M  V30 8322 H 794.264 -1.27388 0.671446 0
M  V30 8323 H 796.217 -4.18424 -0.499934 0
M  V30 8324 H 794.941 -3.08346 -1.07659 0
M  V30 8325 H 793.6 -3.52416 1.00989 0
M  V30 8326 H 793.248 -4.92271 -1.03338 0
M  V30 8327 H 792.948 -5.85855 0.452494 0
M  V30 8328 H 794.472 -6.08933 -0.450924 0
M  V30 8329 H 795.886 -5.46481 1.73297 0
M  V30 8330 H 794.283 -5.44444 2.52389 0
M  V30 8331 H 795.353 -4.03977 2.68199 0
M  V30 8332 N 796.696 -0.74468 -1.38897 0
M  V30 8333 C 797.942 -0.306249 -2.01081 0
M  V30 8334 C 798.297 1.09724 -1.58046 0
M  V30 8335 O 797.59 1.73923 -0.803834 0
M  V30 8336 C 797.784 -0.357302 -3.55609 0
M  V30 8337 C 797.613 -1.76421 -4.13649 0
M  V30 8338 C 796.383 -2.3787 -4.4581 0
M  V30 8339 C 798.581 -2.71942 -4.36523 0
M  V30 8340 N 796.563 -3.70614 -4.89406 0
M  V30 8341 C 797.934 -3.89437 -4.8243 0
M  V30 8342 C 799.989 -2.69579 -4.18607 0
M  V30 8343 C 798.692 -5.04917 -5.123 0
M  V30 8344 C 800.718 -3.8421 -4.49596 0
M  V30 8345 C 800.08 -5.00442 -4.95719 0
M  V30 8346 H 796.179 -0.158531 -0.765762 0
M  V30 8347 H 798.763 -0.972726 -1.6866 0
M  V30 8348 H 796.934 0.278865 -3.87398 0
M  V30 8349 H 798.666 0.100599 -4.04575 0
M  V30 8350 H 795.421 -1.8971 -4.33943 0
M  V30 8351 H 795.845 -4.38791 -5.1555 0
M  V30 8352 H 800.487 -1.80905 -3.82143 0
M  V30 8353 H 798.205 -5.94213 -5.47665 0
M  V30 8354 H 801.791 -3.83691 -4.37347 0
M  V30 8355 H 800.671 -5.87671 -5.19242 0
M  V30 8356 N 798.174 1.49689 -0.493057 0
M  V30 8357 C 799.59 1.58907 -0.148526 0
M  V30 8358 C 799.79 1.4991 1.34645 0
M  V30 8359 O 798.846 1.36893 2.12171 0
M  V30 8360 C 800.159 2.91996 -0.718265 0
M  V30 8361 C 801.707 3.05443 -0.683658 0
M  V30 8362 C 802.182 4.41138 -1.23132 0
M  V30 8363 N 803.673 4.47608 -1.19167 0
M  V30 8364 C 804.408 5.51038 -1.5857 0
M  V30 8365 N 803.904 6.61612 -2.05528 0
M  V30 8366 N 805.697 5.41706 -1.50036 0
M  V30 8367 H 797.848 1.5378 -1.46511 0
M  V30 8368 H 800.111 0.727996 -0.607228 0
M  V30 8369 H 799.817 3.04123 -1.7664 0
M  V30 8370 H 799.691 3.76798 -0.17419 0
M  V30 8371 H 802.078 2.92949 0.355626 0
M  V30 8372 H 802.159 2.22344 -1.26479 0
M  V30 8373 H 801.803 4.54382 -2.26935 0
M  V30 8374 H 801.733 5.22864 -0.626201 0
M  V30 8375 H 804.224 3.68274 -0.847524 0
M  V30 8376 H 804.537 7.36622 -2.33685 0
M  V30 8377 H 802.882 6.62674 -2.09497 0
M  V30 8378 H 806.073 4.54212 -1.13176 0
M  V30 8379 H 806.246 6.22188 -1.81068 0
M  V30 8380 N 799.652 0.226554 1.55963 0
M  V30 8381 C 800.898 -0.397608 1.99476 0
M  V30 8382 C 801.253 -1.57031 1.11172 0
M  V30 8383 O 800.546 -1.90907 0.162757 0
M  V30 8384 C 800.74 -0.87642 3.46488 0
M  V30 8385 C 800.569 0.248344 4.49014 0
M  V30 8386 C 799.339 0.71638 5.00196 0
M  V30 8387 C 801.537 1.06835 5.03081 0
M  V30 8388 N 799.519 1.81568 5.86435 0
M  V30 8389 C 800.89 2.01641 5.86294 0
M  V30 8390 C 802.945 1.10722 4.85433 0
M  V30 8391 C 801.648 3.0002 6.53743 0
M  V30 8392 C 803.674 2.07921 5.53645 0
M  V30 8393 C 803.036 3.01466 6.3663 0
M  V30 8394 H 799.135 -0.112024 0.773935 0
M  V30 8395 H 801.719 0.339472 1.91718 0
M  V30 8396 H 799.89 -1.58285 3.54684 0
M  V30 8397 H 801.622 -1.47382 3.76909 0
M  V30 8398 H 798.377 0.30409 4.72623 0
M  V30 8399 H 798.801 2.36748 6.34255 0
M  V30 8400 H 803.443 0.397909 4.20923 0
M  V30 8401 H 801.161 3.71911 7.17432 0
M  V30 8402 H 804.747 2.11609 5.41953 0
M  V30 8403 H 803.627 3.75451 6.88481 0
M  V30 8404 N 801.13 -1.57531 -0.0467866 0
M  V30 8405 C 802.379 -1.87632 -0.740069 0
M  V30 8406 C 802.692 -0.822691 -1.77457 0
M  V30 8407 O 803.898 -1.01235 -2.5192 0
M  V30 8408 C 802.354 -3.32917 -1.36727 0
M  V30 8409 C 801.962 -4.46469 -0.370035 0
M  V30 8410 C 803.706 -3.72189 -2.04146 0
M  V30 8411 C 801.613 -5.82806 -1.00457 0
M  V30 8412 H 800.543 -0.70002 -0.280158 0
M  V30 8413 H 803.194 -1.83499 0.00607151 0
M  V30 8414 H 801.576 -3.31739 -2.16252 0
M  V30 8415 H 802.75 -4.59085 0.397217 0
M  V30 8416 H 801.065 -4.15914 0.201079 0
M  V30 8417 H 803.662 -4.71357 -2.52441 0
M  V30 8418 H 804.005 -3.03268 -2.85192 0
M  V30 8419 H 804.538 -3.75465 -1.3142 0
M  V30 8420 H 801.277 -6.55083 -0.233907 0
M  V30 8421 H 800.797 -5.73944 -1.74209 0
M  V30 8422 H 802.476 -6.28961 -1.51713 0
M  V30 8423 N 802.608 0.318715 -1.54344 0
M  V30 8424 C 803.556 1.41254 -1.84798 0
M  V30 8425 C 804.55 1.53325 -0.720256 0
M  V30 8426 O 805.756 1.55653 -0.903992 0
M  V30 8427 H 802.131 0.471468 -0.585851 0
M  V30 8428 H 804.102 1.12795 -2.7626 0
M  V30 8429 C 802.851 2.77395 -2.09637 0
M  V30 8430 H 802.174 2.68881 -2.95876 0
M  V30 8431 H 803.614 3.52987 -2.34896 0
M  V30 8432 C 802.073 3.24948 -0.889398 0
M  V30 8433 O 802.603 4.01573 -0.101063 0
M  V30 8434 N 800.809 2.82051 -0.699684 0
M  V30 8435 H 800.356 2.19858 -1.3424 0
M  V30 8436 H 800.314 3.1422 0.106368 0
M  V30 8437 N 804.086 1.46499 0.581025 0
M  V30 8438 C 805.363 1.42372 1.34125 0
M  V30 8439 C 805.743 0.108073 2.10823 0
M  V30 8440 O 805.091 -0.910366 2.09582 0
M  V30 8441 C 805.301 2.65445 2.26583 0
M  V30 8442 C 806.649 3.11664 2.88359 0
M  V30 8443 O 807.673 2.66006 2.36896 0
M  V30 8444 O 806.532 3.90974 3.81839 0
M  V30 8445 H 803.626 0.566262 0.602724 0
M  V30 8446 H 806.172 1.58667 0.601903 0
M  V30 8447 H 804.944 3.52756 1.69348 0
M  V30 8448 H 804.567 2.51618 3.07854 0
M  V30 8449 N 805.565 -0.825799 1.34232 0
M  V30 8450 C 806.813 -1.57873 1.26177 0
M  V30 8451 C 807.134 -1.94267 -0.168904 0
M  V30 8452 O 806.404 -1.62045 -1.10084 0
M  V30 8453 H 804.984 -0.585388 0.464037 0
M  V30 8454 H 807.646 -0.986163 1.6811 0
M  V30 8455 H 806.742 -2.50283 1.86453 0
M  V30 8456 N 807.043 -1.17915 -1.04565 0
M  V30 8457 C 808.006 -0.903787 -2.10628 0
M  V30 8458 C 809.006 0.10873 -1.60432 0
M  V30 8459 O 810.196 -0.124152 -1.73757 0
M  V30 8460 C 807.328 -0.355017 -3.39046 0
M  V30 8461 H 808.521 -1.84425 -2.3649 0
M  V30 8462 H 806.074 -0.990477 -1.2091 0
M  V30 8463 H 806.809 0.592297 -3.18845 0
M  V30 8464 H 806.594 -1.08484 -3.76794 0
M  V30 8465 H 808.084 -0.180891 -4.17208 0
M  V30 8466 N 808.521 1.23394 -0.980386 0
M  V30 8467 C 809.471 2.22634 -0.491747 0
M  V30 8468 C 810.455 1.54958 0.433222 0
M  V30 8469 O 811.647 1.75049 0.262078 0
M  V30 8470 C 808.776 3.4269 0.204531 0
M  V30 8471 C 807.862 4.17594 -0.740007 0
M  V30 8472 N 808.253 4.69458 -1.88263 0
M  V30 8473 C 806.551 4.42554 -0.553335 0
M  V30 8474 C 807.252 5.26446 -2.47446 0
M  V30 8475 N 806.228 5.14377 -1.75834 0
M  V30 8476 H 810.03 2.60363 -1.36339 0
M  V30 8477 H 807.544 1.38924 -0.841059 0
M  V30 8478 H 809.541 4.12959 0.571901 0
M  V30 8479 H 808.201 3.06477 1.07246 0
M  V30 8480 H 809.212 4.65803 -2.26381 0
M  V30 8481 H 805.889 4.16629 0.269573 0
M  V30 8482 H 807.279 5.77195 -3.43941 0
M  V30 8483 N 809.999 0.752036 1.385 0
M  V30 8484 C 811.248 0.304294 1.99391 0
M  V30 8485 C 811.561 -1.11982 1.60373 0
M  V30 8486 O 812.767 -1.66795 2.14223 0
M  V30 8487 C 811.223 0.493101 3.56506 0
M  V30 8488 C 810.831 1.9262 4.04477 0
M  V30 8489 C 812.575 0.107994 4.24363 0
M  V30 8490 C 810.482 2.06365 5.54227 0
M  V30 8491 H 809.412 0.110024 0.745929 0
M  V30 8492 H 812.063 0.928355 1.58284 0
M  V30 8493 H 810.445 -0.20012 3.95494 0
M  V30 8494 H 811.619 2.65276 3.76783 0
M  V30 8495 H 809.934 2.26608 3.49339 0
M  V30 8496 H 812.531 0.189474 5.34364 0
M  V30 8497 H 812.874 -0.939165 4.05568 0
M  V30 8498 H 813.407 0.753011 3.90608 0
M  V30 8499 H 810.146 3.0933 5.77923 0
M  V30 8500 H 809.666 1.38167 5.83669 0
M  V30 8501 H 811.345 1.85286 6.19902 0
M  V30 8502 N 811.477 -1.49425 0.500989 0
M  V30 8503 C 812.707 -2.06561 -0.0402858 0
M  V30 8504 C 813.115 -1.36157 -1.31369 0
M  V30 8505 O 812.458 -0.433618 -1.78509 0
M  V30 8506 C 812.52 -3.5765 -0.364269 0
M  V30 8507 C 812.184 -4.49739 0.811417 0
M  V30 8508 C 813.181 -4.91255 1.7019 0
M  V30 8509 C 810.866 -4.92036 1.01022 0
M  V30 8510 C 812.86 -5.73806 2.77534 0
M  V30 8511 C 810.547 -5.74364 2.08683 0
M  V30 8512 C 811.545 -6.15154 2.96774 0
M  V30 8513 O 811.233 -6.95836 4.02577 0
M  V30 8514 H 810.965 -0.67578 0.0172357 0
M  V30 8515 H 813.519 -1.93193 0.697553 0
M  V30 8516 H 811.749 -3.69026 -1.1557 0
M  V30 8517 H 813.438 -3.97025 -0.844156 0
M  V30 8518 H 814.204 -4.59222 1.56013 0
M  V30 8519 H 810.083 -4.59789 0.333929 0
M  V30 8520 H 813.627 -6.05564 3.4632 0
M  V30 8521 H 809.524 -6.0581 2.22855 0
M  V30 8522 H 810.292 -7.14142 3.9993 0
M  V30 8523 N 812.955 -0.234822 -1.55841 0
M  V30 8524 C 814.201 0.393843 -1.98939 0
M  V30 8525 C 814.534 1.58466 -1.1226 0
M  V30 8526 O 813.809 1.93635 -0.183242 0
M  V30 8527 C 814.092 0.815492 -3.50745 0
M  V30 8528 C 813.945 -0.379878 -4.48193 0
M  V30 8529 C 815.264 1.66687 -4.07312 0
M  V30 8530 H 812.383 0.141681 -0.723253 0
M  V30 8531 H 815.025 -0.333716 -1.87046 0
M  V30 8532 H 813.175 1.43541 -3.6101 0
M  V30 8533 H 814.847 -1.0182 -4.49923 0
M  V30 8534 H 813.09 -1.02507 -4.21515 0
M  V30 8535 H 813.761 -0.0417069 -5.51984 0
M  V30 8536 H 816.237 1.14369 -4.00074 0
M  V30 8537 H 815.113 1.93078 -5.13821 0
M  V30 8538 H 815.374 2.63468 -3.55017 0
M  V30 8539 N 814.433 1.57553 0.0384317 0
M  V30 8540 C 815.673 1.90687 0.736069 0
M  V30 8541 C 816.037 0.832381 1.73019 0
M  V30 8542 O 817.238 1.04777 2.47538 0
M  V30 8543 C 815.509 3.28994 1.39635 0
M  V30 8544 S 817.068 3.83944 2.12444 0
M  V30 8545 H 813.886 0.667799 0.244059 0
M  V30 8546 H 816.488 1.95498 -0.00901643 0
M  V30 8547 H 815.192 4.05067 0.659465 0
M  V30 8548 H 814.723 3.27463 2.18018 0
M  V30 8549 H 816.738 3.61916 3.39457 0
M  V30 8550 N 815.911 -0.310526 1.54511 0
M  V30 8551 C 817.159 -1.04484 1.72996 0
M  V30 8552 C 817.48 -1.88118 0.513479 0
M  V30 8553 O 816.75 -1.90119 -0.472384 0
M  V30 8554 H 815.33 -0.388747 0.637875 0
M  V30 8555 H 817.992 -0.343811 1.91844 0
M  V30 8556 H 817.088 -1.70341 2.61515 0
M  V30 8557 N 817.389 -1.46805 -0.573248 0
M  V30 8558 C 818.666 -1.43082 -1.33368 0
M  V30 8559 C 819.046 -0.119252 -2.10763 0
M  V30 8560 O 818.394 0.899239 -2.10062 0
M  V30 8561 C 818.604 -2.66643 -2.25172 0
M  V30 8562 C 819.952 -3.13188 -2.86702 0
M  V30 8563 O 820.976 -2.67258 -2.35482 0
M  V30 8564 O 819.835 -3.92994 -3.79761 0
M  V30 8565 H 816.929 -0.569451 -0.599712 0
M  V30 8566 H 819.475 -1.58984 -0.59348 0
M  V30 8567 H 818.247 -3.53649 -1.67475 0
M  V30 8568 H 817.87 -2.53247 -3.06516 0
M  V30 8569 N 818.867 0.818669 -1.34668 0
M  V30 8570 C 819.83 1.9114 -1.26483 0
M  V30 8571 C 820.83 1.598 -0.179044 0
M  V30 8572 O 822.02 1.6876 -0.431952 0
M  V30 8573 C 819.152 3.27285 -0.95381 0
M  V30 8574 H 820.345 1.9982 -2.23634 0
M  V30 8575 H 817.898 1.01314 -1.19018 0
M  V30 8576 H 818.633 3.24297 0.0143428 0
M  V30 8577 H 818.418 3.51416 -1.73924 0
M  V30 8578 H 819.908 4.07299 -0.921827 0
M  V30 8579 N 820.346 1.18468 1.03938 0
M  V30 8580 C 821.294 0.909286 2.14091 0
M  V30 8581 C 822.288 -0.130928 1.68893 0
M  V30 8582 O 823.494 0.0173403 1.79992 0
M  V30 8583 H 819.869 0.27658 0.699291 0
M  V30 8584 H 821.84 1.84514 2.34515 0
M  V30 8585 C 820.589 0.452922 3.44737 0
M  V30 8586 H 819.912 1.24485 3.79926 0
M  V30 8587 H 821.352 0.299238 4.22943 0
M  V30 8588 C 819.811 -0.831435 3.26479 0
M  V30 8589 O 820.341 -1.89535 3.54174 0
M  V30 8590 N 818.547 -0.784545 2.79809 0
M  V30 8591 H 818.094 0.0814746 2.57471 0
M  V30 8592 H 818.052 -1.64431 2.67973 0
M  V30 8593 N 821.824 -1.22873 0.986916 0
M  V30 8594 C 823.24 -1.43594 0.696633 0
M  V30 8595 C 823.44 -1.87622 -0.734869 0
M  V30 8596 O 822.496 -2.02633 -1.50652 0
M  V30 8597 C 823.809 -2.48231 1.69711 0
M  V30 8598 C 825.357 -2.62037 1.71188 0
M  V30 8599 C 825.832 -3.6989 2.70084 0
M  V30 8600 N 827.323 -3.77341 2.68641 0
M  V30 8601 C 828.058 -4.6037 3.41829 0
M  V30 8602 N 827.554 -5.47438 4.24598 0
M  V30 8603 N 829.347 -4.54626 3.30563 0
M  V30 8604 H 821.498 -0.925982 1.91153 0
M  V30 8605 H 823.761 -0.46866 0.824052 0
M  V30 8606 H 823.467 -2.22812 2.72117 0
M  V30 8607 H 823.341 -3.46731 1.48516 0
M  V30 8608 H 825.728 -2.86803 0.694837 0
M  V30 8609 H 825.809 -1.63831 1.96451 0
M  V30 8610 H 825.453 -3.45872 3.71934 0
M  V30 8611 H 825.383 -4.67652 2.42093 0
M  V30 8612 H 827.874 -3.15124 2.08578 0
M  V30 8613 H 828.187 -6.078 4.77283 0
M  V30 8614 H 826.532 -5.4704 4.28687 0
M  V30 8615 H 829.723 -3.85627 2.65347 0
M  V30 8616 H 829.896 -5.19103 3.8786 0
M  V30 8617 N 823.302 -0.75937 -1.38099 0
M  V30 8618 C 824.235 -0.0838362 -2.28046 0
M  V30 8619 C 825.213 0.722229 -1.4568 0
M  V30 8620 O 826.397 0.699629 -1.75036 0
M  V30 8621 C 823.524 0.887916 -3.26854 0
M  V30 8622 C 822.57 0.167374 -4.26171 0
M  V30 8623 S 823.403 -1.13592 -5.23314 0
M  V30 8624 C 824.559 -0.167385 -6.25676 0
M  V30 8625 H 824.792 -0.846564 -2.84992 0
M  V30 8626 H 822.325 -0.552206 -1.44188 0
M  V30 8627 H 824.283 1.44322 -3.84293 0
M  V30 8628 H 822.944 1.62366 -2.68879 0
M  V30 8629 H 822.137 0.903567 -4.95834 0
M  V30 8630 H 821.739 -0.316572 -3.72658 0
M  V30 8631 H 824.031 0.664598 -6.74232 0
M  V30 8632 H 824.974 -0.831836 -7.03197 0
M  V30 8633 H 825.382 0.21589 -5.64087 0
M  V30 8634 N 824.78 1.49157 -0.508906 0
M  V30 8635 C 825.743 2.27784 0.25434 0
M  V30 8636 C 826.743 1.34132 0.88686 0
M  V30 8637 O 827.933 1.5722 0.750168 0
M  V30 8638 C 825.065 3.12347 1.36573 0
M  V30 8639 H 826.258 2.96718 -0.435714 0
M  V30 8640 H 823.811 1.54052 -0.264128 0
M  V30 8641 H 824.546 2.47997 2.08969 0
M  V30 8642 H 824.331 3.81213 0.917543 0
M  V30 8643 H 825.821 3.71712 1.90315 0
M  V30 8644 N 826.258 0.243083 1.55714 0
M  V30 8645 C 827.205 -0.658078 2.21219 0
M  V30 8646 C 828.175 -1.1742 1.17481 0
M  V30 8647 O 829.36 -1.22937 1.45915 0
M  V30 8648 C 826.5 -1.85104 2.91257 0
M  V30 8649 C 825.613 -1.3718 4.09641 0
M  V30 8650 C 824.748 -2.52403 4.67404 0
M  V30 8651 C 823.787 -2.01321 5.78045 0
M  V30 8652 N 822.924 -3.09896 6.30007 0
M  V30 8653 H 827.764 -0.0927854 2.97856 0
M  V30 8654 H 825.301 -0.0340375 1.47061 0
M  V30 8655 H 827.259 -2.55179 3.3006 0
M  V30 8656 H 825.889 -2.38887 2.17101 0
M  V30 8657 H 824.941 -0.565232 3.76177 0
M  V30 8658 H 826.253 -0.957409 4.89525 0
M  V30 8659 H 825.407 -3.30525 5.08761 0
M  V30 8660 H 824.146 -2.97142 3.86728 0
M  V30 8661 H 823.151 -1.21667 5.36169 0
M  V30 8662 H 824.376 -1.57556 6.6057 0
M  V30 8663 H 822.322 -3.54077 5.52237 0
M  V30 8664 H 822.239 -2.72776 7.05074 0
M  V30 8665 H 823.507 -3.8809 6.76023 0
M  V30 8666 N 827.736 -1.57571 -0.0300757 0
M  V30 8667 C 829.013 -1.80381 -0.756447 0
M  V30 8668 C 829.393 -0.840906 -1.93628 0
M  V30 8669 O 828.741 0.117143 -2.282 0
M  V30 8670 C 828.951 -3.2807 -1.19043 0
M  V30 8671 C 830.299 -3.93025 -1.60676 0
M  V30 8672 O 831.323 -3.32213 -1.28503 0
M  V30 8673 O 830.182 -5.00092 -2.20386 0
M  V30 8674 H 827.276 -0.741737 -0.365725 0
M  V30 8675 H 829.822 -1.69699 -0.00693177 0
M  V30 8676 H 828.594 -3.89748 -0.348128 0
M  V30 8677 H 828.217 -3.43637 -1.99999 0
M  V30 8678 N 829.214 0.302327 -1.54673 0
M  V30 8679 C 830.46 1.03924 -1.74149 0
M  V30 8680 C 830.793 1.86968 -0.525041 0
M  V30 8681 O 830.068 1.88538 0.477868 0
M  V30 8682 C 830.351 1.94633 -3.02969 0
M  V30 8683 C 830.204 1.14778 -4.34909 0
M  V30 8684 C 831.523 2.93826 -3.27649 0
M  V30 8685 H 828.642 0.376405 -0.633631 0
M  V30 8686 H 831.284 0.314007 -1.87387 0
M  V30 8687 H 829.434 2.56471 -2.91813 0
M  V30 8688 H 831.106 0.552363 -4.57981 0
M  V30 8689 H 829.349 0.450462 -4.31455 0
M  V30 8690 H 830.02 1.81495 -5.21309 0
M  V30 8691 H 832.496 2.42117 -3.38406 0
M  V30 8692 H 831.372 3.54462 -4.19104 0
M  V30 8693 H 831.633 3.67416 -2.45882 0
M  V30 8694 N 830.692 1.47107 0.565454 0
M  V30 8695 C 831.602 1.61591 1.70075 0
M  V30 8696 C 832.618 0.498931 1.66693 0
M  V30 8697 O 833.794 0.765372 1.8629 0
M  V30 8698 C 830.859 1.61887 3.06583 0
M  V30 8699 C 829.92 2.84949 3.21096 0
M  V30 8700 C 829.153 2.85221 4.51093 0
M  V30 8701 O 829.376 1.94959 5.36048 0
M  V30 8702 O 828.31 3.76982 4.69221 0
M  V30 8703 H 832.136 2.57638 1.60799 0
M  V30 8704 H 829.721 1.30097 0.73451 0
M  V30 8705 H 831.603 1.64809 3.87835 0
M  V30 8706 H 830.278 0.69005 3.16259 0
M  V30 8707 H 829.185 2.87575 2.39273 0
M  V30 8708 H 830.518 3.77098 3.1632 0
M  V30 8709 N 832.17 -0.811516 1.35101 0
M  V30 8710 C 833.102 -1.93102 1.23468 0
M  V30 8711 C 834.115 -1.62021 0.159095 0
M  V30 8712 O 835.304 -1.73682 0.411945 0
M  V30 8713 C 832.404 -3.27345 0.877404 0
M  V30 8714 C 831.577 -3.86368 2.05033 0
M  V30 8715 C 830.636 -4.99009 1.66963 0
M  V30 8716 O 829.662 -5.16698 2.38772 0
M  V30 8717 N 830.864 -5.7749 0.590394 0
M  V30 8718 H 833.629 -2.0361 2.19916 0
M  V30 8719 H 831.19 -0.988687 1.28205 0
M  V30 8720 H 833.182 -4.00163 0.604298 0
M  V30 8721 H 831.752 -3.126 0.00275267 0
M  V30 8722 H 830.972 -3.05804 2.48752 0
M  V30 8723 H 832.26 -4.22533 2.83449 0
M  V30 8724 H 831.658 -5.657 -0.00633259 0
M  V30 8725 H 830.215 -6.50708 0.377055 0
M  V30 8726 N 833.648 -1.19017 -1.03309 0
M  V30 8727 C 834.611 -0.926076 -2.09658 0
M  V30 8728 C 835.611 0.0917077 -1.60538 0
M  V30 8729 O 836.801 -0.142574 -1.73616 0
M  V30 8730 C 833.933 -0.390958 -3.38651 0
M  V30 8731 H 835.126 -1.86923 -2.3452 0
M  V30 8732 H 832.679 -1.00325 -1.19853 0
M  V30 8733 H 833.414 0.558446 -3.19456 0
M  V30 8734 H 833.199 -1.12474 -3.75622 0
M  V30 8735 H 834.689 -0.225131 -4.16993 0
M  V30 8736 N 835.127 1.22348 -0.993418 0
M  V30 8737 C 836.057 2.26584 -0.564088 0
M  V30 8738 C 837.038 1.65102 0.409298 0
M  V30 8739 O 838.223 1.91872 0.299819 0
M  V30 8740 C 835.353 3.47087 0.121554 0
M  V30 8741 C 834.307 4.21009 -0.770429 0
M  V30 8742 C 833.633 5.34678 0.0481586 0
M  V30 8743 C 834.933 4.79636 -2.06752 0
M  V30 8744 H 836.627 2.62749 -1.43538 0
M  V30 8745 H 834.173 1.26303 -0.691628 0
M  V30 8746 H 836.126 4.19166 0.433303 0
M  V30 8747 H 834.85 3.1002 1.0274 0
M  V30 8748 H 833.509 3.50764 -1.06583 0
M  V30 8749 H 833.157 4.93852 0.954933 0
M  V30 8750 H 832.857 5.85061 -0.545641 0
M  V30 8751 H 834.381 6.09573 0.353991 0
M  V30 8752 H 835.795 5.43654 -1.81969 0
M  V30 8753 H 834.192 5.4036 -2.61019 0
M  V30 8754 H 835.262 3.99659 -2.74592 0
M  V30 8755 N 836.605 0.766683 1.37694 0
M  V30 8756 C 837.535 0.163432 2.32927 0
M  V30 8757 C 838.516 -0.688861 1.55527 0
M  V30 8758 O 839.701 -0.627363 1.83787 0
M  V30 8759 C 836.831 -0.720416 3.39746 0
M  V30 8760 C 835.785 0.0301718 4.27989 0
M  V30 8761 C 835.111 -0.972788 5.25776 0
M  V30 8762 C 836.411 1.20623 5.0818 0
M  V30 8763 H 838.105 0.958988 2.83626 0
M  V30 8764 H 835.651 0.462601 1.36367 0
M  V30 8765 H 837.604 -1.15221 4.05342 0
M  V30 8766 H 836.328 -1.54844 2.8756 0
M  V30 8767 H 834.987 0.442685 3.63917 0
M  V30 8768 H 834.635 -1.79522 4.69873 0
M  V30 8769 H 834.335 -0.475145 5.85676 0
M  V30 8770 H 835.859 -1.40362 5.94248 0
M  V30 8771 H 837.273 0.851341 5.66944 0
M  V30 8772 H 835.67 1.63561 5.7738 0
M  V30 8773 H 836.74 2.01281 4.41151 0
M  V30 8774 N 838.083 -1.48885 0.516809 0
M  V30 8775 C 838.993 -2.33185 -0.257293 0
M  V30 8776 C 840.009 -1.4565 -0.951952 0
M  V30 8777 O 841.185 -1.78651 -0.929834 0
M  V30 8778 C 838.25 -3.21465 -1.29851 0
M  V30 8779 C 837.311 -4.24863 -0.615608 0
M  V30 8780 C 836.544 -5.08925 -1.60722 0
M  V30 8781 O 836.767 -4.9475 -2.83863 0
M  V30 8782 O 835.701 -5.90737 -1.15384 0
M  V30 8783 H 839.527 -3.00596 0.433131 0
M  V30 8784 H 837.112 -1.46792 0.277908 0
M  V30 8785 H 838.994 -3.76108 -1.90055 0
M  V30 8786 H 837.669 -2.5673 -1.97158 0
M  V30 8787 H 836.576 -3.74091 0.0265829 0
M  V30 8788 H 837.909 -4.92198 0.0152871 0
M  V30 8789 N 839.561 -0.251338 -1.55583 0
M  V30 8790 C 840.807 0.37272 -1.99346 0
M  V30 8791 C 841.14 1.57266 -1.13934 0
M  V30 8792 O 840.415 1.9343 -0.20377 0
M  V30 8793 C 840.698 0.778245 -3.5159 0
M  V30 8794 C 840.551 -0.427394 -4.47765 0
M  V30 8795 C 841.87 1.62358 -4.09057 0
M  V30 8796 H 838.989 0.134002 -0.724715 0
M  V30 8797 H 841.631 -0.353536 -1.86682 0
M  V30 8798 H 839.781 1.39704 -3.62512 0
M  V30 8799 H 841.453 -1.06586 -4.48818 0
M  V30 8800 H 839.696 -1.06972 -4.20404 0
M  V30 8801 H 840.367 -0.10025 -5.51909 0
M  V30 8802 H 842.843 1.1012 -4.01264 0
M  V30 8803 H 841.719 1.87617 -5.1584 0
M  V30 8804 H 841.98 2.59688 -3.57791 0
M  V30 8805 N 841.039 1.57585 0.0217189 0
M  V30 8806 C 842.288 1.88786 0.710125 0
M  V30 8807 C 842.601 0.850819 1.76126 0
M  V30 8808 O 843.807 1.0523 2.50277 0
M  V30 8809 C 842.263 3.3505 1.31413 0
M  V30 8810 C 841.871 4.47001 0.298959 0
M  V30 8811 C 843.615 3.7539 1.98199 0
M  V30 8812 C 841.522 5.8433 0.911727 0
M  V30 8813 H 840.452 0.704388 0.268986 0
M  V30 8814 H 843.103 1.83466 -0.0352638 0
M  V30 8815 H 841.485 3.35138 2.10947 0
M  V30 8816 H 842.659 4.58395 -0.470203 0
M  V30 8817 H 840.974 4.15542 -0.267222 0
M  V30 8818 H 843.571 4.75314 2.4491 0
M  V30 8819 H 843.914 3.07766 2.80331 0
M  V30 8820 H 844.447 3.77508 1.2543 0
M  V30 8821 H 841.186 6.55372 0.129659 0
M  V30 8822 H 840.706 5.76643 1.65056 0
M  V30 8823 H 842.385 6.31295 1.41688 0
M  V30 8824 N 842.517 -0.29412 1.54831 0
M  V30 8825 C 843.48 -1.3461 1.85507 0
M  V30 8826 C 844.48 -1.43359 0.728343 0
M  V30 8827 O 845.67 -1.42875 0.996609 0
M  V30 8828 C 842.802 -2.73012 2.0415 0
M  V30 8829 H 843.995 -1.08651 2.79526 0
M  V30 8830 H 841.548 -0.531138 1.46999 0
M  V30 8831 H 842.283 -3.04183 1.12441 0
M  V30 8832 H 842.068 -2.68051 2.86166 0
M  V30 8833 H 843.558 -3.49061 2.29229 0
M  V30 8834 N 843.995 -1.47404 -0.557645 0
M  V30 8835 C 844.905 -1.62491 -1.69216 0
M  V30 8836 C 845.921 -0.507764 -1.66426 0
M  V30 8837 O 847.097 -0.775241 -1.85882 0
M  V30 8838 C 844.162 -1.63511 -3.05721 0
M  V30 8839 C 843.223 -2.86648 -3.1958 0
M  V30 8840 C 842.456 -2.87609 -4.49574 0
M  V30 8841 O 842.679 -1.97799 -5.35006 0
M  V30 8842 O 841.613 -3.79465 -4.67215 0
M  V30 8843 H 845.439 -2.58487 -1.59431 0
M  V30 8844 H 843.024 -1.30485 -0.7276 0
M  V30 8845 H 844.906 -1.66863 -3.86956 0
M  V30 8846 H 843.581 -0.706812 -3.15889 0
M  V30 8847 H 842.488 -2.8884 -2.37744 0
M  V30 8848 H 843.821 -3.7877 -3.14316 0
M  V30 8849 N 845.473 0.80434 -1.35529 0
M  V30 8850 C 846.72 1.56154 -1.28927 0
M  V30 8851 C 847.048 1.94026 0.135682 0
M  V30 8852 O 846.303 1.61759 1.10148 0
M  V30 8853 C 846.602 2.85988 -2.14349 0
M  V30 8854 C 846.268 2.67323 -3.6311 0
M  V30 8855 C 844.93 2.61941 -4.03659 0
M  V30 8856 C 847.282 2.49699 -4.57493 0
M  V30 8857 C 844.61 2.3688 -5.36754 0
M  V30 8858 C 846.962 2.26168 -5.90788 0
M  V30 8859 C 845.626 2.19209 -6.30479 0
M  V30 8860 H 844.896 0.571407 -0.471779 0
M  V30 8861 H 847.543 0.929193 -1.67446 0
M  V30 8862 H 845.848 3.53612 -1.68718 0
M  V30 8863 H 847.545 3.43697 -2.06576 0
M  V30 8864 H 844.135 2.72361 -3.30934 0
M  V30 8865 H 848.319 2.52869 -4.27049 0
M  V30 8866 H 843.575 2.29964 -5.66504 0
M  V30 8867 H 847.749 2.11522 -6.63499 0
M  V30 8868 H 845.376 1.99553 -7.33541 0
M  V30 8869 N 846.951 1.19563 1.02676 0
M  V30 8870 C 848.199 0.997593 1.75763 0
M  V30 8871 C 848.52 -0.47253 1.89188 0
M  V30 8872 O 847.79 -1.34214 1.42701 0
M  V30 8873 H 846.37 0.366128 0.651122 0
M  V30 8874 H 849.032 1.50495 1.23844 0
M  V30 8875 H 848.128 1.44741 2.76508 0
M  V30 8876 N 848.429 -1.21819 0.999893 0
M  V30 8877 C 849.677 -1.90375 0.678351 0
M  V30 8878 C 849.998 -1.78155 -0.792824 0
M  V30 8879 O 849.268 -1.17319 -1.56885 0
M  V30 8880 H 847.848 -0.704661 0.247915 0
M  V30 8881 H 850.51 -1.48021 1.2679 0
M  V30 8882 H 849.606 -2.97385 0.947023 0
M  V30 8883 N 849.908 -0.773975 -1.37286 0
M  V30 8884 C 850.841 -0.108019 -2.27944 0
M  V30 8885 C 851.819 0.706737 -1.46438 0
M  V30 8886 O 853.003 0.681025 -1.75768 0
M  V30 8887 C 850.13 0.853199 -3.27778 0
M  V30 8888 C 849.176 0.122164 -4.26325 0
M  V30 8889 S 850.009 -1.19136 -5.22079 0
M  V30 8890 C 851.165 -0.233737 -6.25463 0
M  V30 8891 H 851.398 -0.876743 -2.84078 0
M  V30 8892 H 848.931 -0.567468 -1.43594 0
M  V30 8893 H 850.889 1.40238 -3.85803 0
M  V30 8894 H 849.55 1.59505 -2.70586 0
M  V30 8895 H 848.743 0.850926 -4.96765 0
M  V30 8896 H 848.345 -0.356079 -3.72301 0
M  V30 8897 H 850.637 0.59305 -6.74899 0
M  V30 8898 H 851.58 -0.906373 -7.02275 0
M  V30 8899 H 851.988 0.156048 -5.64284 0
M  V30 8900 N 851.386 1.48609 -0.524698 0
M  V30 8901 C 852.663 1.95454 0.075465 0
M  V30 8902 C 853.043 1.46682 1.51814 0
M  V30 8903 O 852.391 0.690975 2.17802 0
M  V30 8904 C 852.601 3.48981 -0.0363273 0
M  V30 8905 C 853.949 4.24414 0.125624 0
M  V30 8906 O 854.973 3.5618 0.0377239 0
M  V30 8907 O 853.832 5.45625 0.309104 0
M  V30 8908 H 850.926 0.822902 0.0822256 0
M  V30 8909 H 853.472 1.59153 -0.588921 0
M  V30 8910 H 852.244 3.77185 -1.04149 0
M  V30 8911 H 851.867 3.91963 0.667146 0
M  V30 8912 N 852.864 0.259585 1.55447 0
M  V30 8913 C 854.092 -0.365392 2.03648 0
M  V30 8914 C 854.507 -1.50613 1.13847 0
M  V30 8915 O 853.864 -1.81837 0.155414 0
M  V30 8916 C 853.915 -0.861172 3.51093 0
M  V30 8917 O 853.636 0.234121 4.37474 0
M  V30 8918 C 855.137 -1.55555 4.15111 0
M  V30 8919 H 852.357 -0.0853439 0.66555 0
M  V30 8920 H 854.901 0.387151 2.00802 0
M  V30 8921 H 853.056 -1.56385 3.54433 0
M  V30 8922 H 853.47 -0.1444 5.24301 0
M  V30 8923 H 854.944 -1.85403 5.19932 0
M  V30 8924 H 855.421 -2.48185 3.62355 0
M  V30 8925 H 856.027 -0.89712 4.15731 0
M  V30 8926 N 854.342 -1.57594 -0.0133615 0
M  V30 8927 C 855.252 -2.10991 -1.02566 0
M  V30 8928 C 856.268 -1.05208 -1.3859 0
M  V30 8929 O 857.444 -1.37034 -1.47593 0
M  V30 8930 C 854.509 -2.59165 -2.30292 0
M  V30 8931 C 853.57 -3.79495 -2.00704 0
M  V30 8932 C 852.803 -4.25361 -3.22341 0
M  V30 8933 O 853.026 -3.70645 -4.33565 0
M  V30 8934 O 851.96 -5.17649 -3.07121 0
M  V30 8935 H 855.786 -2.97678 -0.601806 0
M  V30 8936 H 853.371 -1.47598 -0.23135 0
M  V30 8937 H 855.253 -2.90409 -3.05354 0
M  V30 8938 H 853.928 -1.75582 -2.71942 0
M  V30 8939 H 852.835 -3.53245 -1.23161 0
M  V30 8940 H 854.168 -4.64109 -1.639 0
M  V30 8941 N 855.82 0.285905 -1.54985 0
M  V30 8942 C 856.783 1.33625 -1.86218 0
M  V30 8943 C 857.783 1.42971 -0.735936 0
M  V30 8944 O 858.973 1.42345 -1.00417 0
M  V30 8945 C 856.105 2.71926 -2.05595 0
M  V30 8946 H 857.298 1.07167 -2.80099 0
M  V30 8947 H 854.851 0.523335 -1.47278 0
M  V30 8948 H 855.586 3.03583 -1.14053 0
M  V30 8949 H 855.371 2.6653 -2.87583 0
M  V30 8950 H 856.861 3.47841 -2.31077 0
M  V30 8951 N 857.298 1.47698 0.54982 0
M  V30 8952 C 858.261 1.60282 1.63837 0
M  V30 8953 C 859.261 0.477394 1.5355 0
M  V30 8954 O 860.451 0.742665 1.57576 0
M  V30 8955 C 857.583 1.55431 3.03404 0
M  V30 8956 H 858.776 2.57325 1.54026 0
M  V30 8957 H 856.329 1.35999 0.770329 0
M  V30 8958 H 857.064 0.597912 3.1874 0
M  V30 8959 H 856.849 2.37116 3.12279 0
M  V30 8960 H 858.339 1.6739 3.82584 0
M  V30 8961 N 858.776 -0.797141 1.35954 0
M  V30 8962 C 860.053 -1.54224 1.2031 0
M  V30 8963 C 860.433 -2.10013 -0.213926 0
M  V30 8964 O 859.781 -1.93292 -1.21862 0
M  V30 8965 C 859.991 -2.6433 2.27883 0
M  V30 8966 C 861.339 -3.32418 2.64165 0
M  V30 8967 O 862.363 -2.74607 2.26868 0
M  V30 8968 O 861.222 -4.36876 3.28331 0
M  V30 8969 H 858.316 -0.681857 0.467974 0
M  V30 8970 H 860.862 -0.836288 1.47663 0
M  V30 8971 H 859.634 -2.21044 3.22885 0
M  V30 8972 H 859.257 -3.42551 2.01853 0
M  V30 8973 N 860.254 -1.20106 -1.0204 0
M  V30 8974 C 861.164 -0.962051 -2.13967 0
M  V30 8975 C 862.18 0.0808053 -1.73812 0
M  V30 8976 O 863.356 -0.105774 -2.01122 0
M  V30 8977 C 860.421 -0.513108 -3.42882 0
M  V30 8978 C 859.482 -1.62636 -3.97301 0
M  V30 8979 C 858.715 -1.19875 -5.20063 0
M  V30 8980 O 858.938 -0.0658423 -5.70362 0
M  V30 8981 O 857.872 -2.00467 -5.67536 0
M  V30 8982 H 861.698 -1.8991 -2.36998 0
M  V30 8983 H 859.283 -0.984608 -1.12365 0
M  V30 8984 H 861.165 -0.271797 -4.20523 0
M  V30 8985 H 859.84 0.395402 -3.21276 0
M  V30 8986 H 858.747 -1.92192 -3.20957 0
M  V30 8987 H 860.08 -2.51174 -4.23288 0
M  V30 8988 N 861.732 1.21287 -1.00634 0
M  V30 8989 C 862.979 1.90389 -0.6898 0
M  V30 8990 C 863.307 1.78193 0.779574 0
M  V30 8991 O 862.562 1.15358 1.58085 0
M  V30 8992 C 862.861 3.41374 -1.05824 0
M  V30 8993 C 862.527 3.73766 -2.5221 0
M  V30 8994 C 861.189 3.82317 -2.92211 0
M  V30 8995 C 863.541 3.88871 -3.47028 0
M  V30 8996 C 860.869 4.03423 -4.2599 0
M  V30 8997 C 863.221 4.11484 -4.80483 0
M  V30 8998 C 861.885 4.18263 -5.20204 0
M  V30 8999 H 861.155 0.696683 -0.252416 0
M  V30 9000 H 863.802 1.43769 -1.26502 0
M  V30 9001 H 862.107 3.8974 -0.401281 0
M  V30 9002 H 863.804 3.93118 -0.79116 0
M  V30 9003 H 860.394 3.67702 -2.20212 0
M  V30 9004 H 864.578 3.8163 -3.17289 0
M  V30 9005 H 859.834 4.06902 -4.56334 0
M  V30 9006 H 864.008 4.22115 -5.53888 0
M  V30 9007 H 861.635 4.34369 -6.23881 0
M  V30 9008 N 863.21 0.781244 1.36873 0
M  V30 9009 C 864.14 0.188128 2.32741 0
M  V30 9010 C 865.121 -0.672326 1.56249 0
M  V30 9011 O 866.306 -0.607835 1.84442 0
M  V30 9012 C 863.436 -0.684341 3.40491 0
M  V30 9013 C 862.39 0.0755641 4.27933 0
M  V30 9014 C 861.716 -0.916968 5.26779 0
M  V30 9015 C 863.016 1.26006 5.06873 0
M  V30 9016 H 864.71 0.989016 2.82593 0
M  V30 9017 H 862.256 0.477038 1.35869 0
M  V30 9018 H 864.209 -1.10915 4.06541 0
M  V30 9019 H 862.933 -1.51785 2.89187 0
M  V30 9020 H 861.592 0.481258 3.63427 0
M  V30 9021 H 861.24 -1.74528 4.71751 0
M  V30 9022 H 860.94 -0.413 5.86147 0
M  V30 9023 H 862.464 -1.34052 5.95703 0
M  V30 9024 H 863.878 0.911425 5.66009 0
M  V30 9025 H 862.275 1.69676 5.75613 0
M  V30 9026 H 863.345 2.05948 4.38991 0
M  V30 9027 N 864.689 -1.48329 0.532571 0
M  V30 9028 C 865.914 -2.074 0.00147755 0
M  V30 9029 C 866.339 -1.38615 -1.27151 0
M  V30 9030 O 865.697 -0.452949 -1.75551 0
M  V30 9031 C 865.745 -3.60029 -0.202866 0
M  V30 9032 O 864.849 -3.92327 -1.27097 0
M  V30 9033 H 864.19 -0.662777 0.0402883 0
M  V30 9034 H 866.72 -1.90701 0.741224 0
M  V30 9035 H 866.73 -4.05783 -0.424722 0
M  V30 9036 H 865.405 -4.09496 0.727033 0
M  V30 9037 H 863.982 -3.58348 -1.03156 0
M  V30 9038 N 866.167 -0.267825 -1.55308 0
M  V30 9039 C 867.077 0.633055 -2.25897 0
M  V30 9040 C 868.093 1.17613 -1.28231 0
M  V30 9041 O 869.269 1.20797 -1.61153 0
M  V30 9042 C 866.334 1.80397 -2.96071 0
M  V30 9043 C 865.395 1.29829 -4.09198 0
M  V30 9044 C 864.628 2.4134 -4.76016 0
M  V30 9045 O 864.851 3.60537 -4.42006 0
M  V30 9046 O 863.785 2.09909 -5.64111 0
M  V30 9047 H 867.611 0.0614381 -3.03638 0
M  V30 9048 H 865.196 -0.0355072 -1.49358 0
M  V30 9049 H 867.078 2.48685 -3.40197 0
M  V30 9050 H 865.753 2.36281 -2.21253 0
M  V30 9051 H 864.66 0.582086 -3.69544 0
M  V30 9052 H 865.993 0.785288 -4.85895 0
M  V30 9053 N 867.645 1.57599 0.00500368 0
M  V30 9054 C 868.575 2.11143 0.99705 0
M  V30 9055 C 869.556 1.0194 1.3617 0
M  V30 9056 O 870.741 1.29596 1.44632 0
M  V30 9057 C 867.871 2.61062 2.2905 0
M  V30 9058 C 866.825 3.74745 2.0676 0
M  V30 9059 C 866.151 4.10961 3.42075 0
M  V30 9060 C 867.451 5.02222 1.43424 0
M  V30 9061 H 869.145 2.94281 0.551251 0
M  V30 9062 H 866.691 1.41565 0.263715 0
M  V30 9063 H 868.644 2.97146 2.98801 0
M  V30 9064 H 867.368 1.75038 2.75734 0
M  V30 9065 H 866.027 3.39047 1.39436 0
M  V30 9066 H 865.675 3.21968 3.86453 0
M  V30 9067 H 865.375 4.87549 3.27979 0
M  V30 9068 H 866.899 4.49599 4.1315 0
M  V30 9069 H 868.313 5.36109 2.03125 0
M  V30 9070 H 866.71 5.83581 1.39831 0
M  V30 9071 H 867.78 4.83224 0.40285 0
M  V30 9072 N 869.123 -0.277682 1.55134 0
M  V30 9073 C 870.539 -0.624625 1.46869 0
M  V30 9074 C 870.739 -1.89717 0.678958 0
M  V30 9075 O 869.795 -2.51739 0.195939 0
M  V30 9076 C 871.108 -0.755937 2.91043 0
M  V30 9077 C 872.656 -0.850299 3.01229 0
M  V30 9078 C 873.131 -1.01343 4.46647 0
M  V30 9079 N 874.622 -1.07906 4.50456 0
M  V30 9080 C 875.357 -1.224 5.60184 0
M  V30 9081 N 874.853 -1.33642 6.79788 0
M  V30 9082 N 876.646 -1.25473 5.47917 0
M  V30 9083 H 868.797 0.558102 2.04937 0
M  V30 9084 H 871.06 0.188228 0.929125 0
M  V30 9085 H 870.766 0.108593 3.51532 0
M  V30 9086 H 870.64 -1.6377 3.39793 0
M  V30 9087 H 873.027 -1.7053 2.40839 0
M  V30 9088 H 873.108 0.0559681 2.55739 0
M  V30 9089 H 872.752 -0.163102 5.07638 0
M  V30 9090 H 872.682 -1.93427 4.89789 0
M  V30 9091 H 875.173 -1.00477 3.64298 0
M  V30 9092 H 875.486 -1.44522 7.59166 0
M  V30 9093 H 873.831 -1.30655 6.82608 0
M  V30 9094 H 877.022 -1.16317 4.53418 0
M  V30 9095 H 877.195 -1.36424 6.33476 0
M  V30 9096 N 870.601 -1.47988 -0.541979 0
M  V30 9097 C 871.847 -1.55623 -1.30036 0
M  V30 9098 C 872.18 -0.224254 -1.92901 0
M  V30 9099 O 871.455 0.768629 -1.78668 0
M  V30 9100 C 871.738 -2.68562 -2.39888 0
M  V30 9101 C 871.591 -4.11426 -1.81792 0
M  V30 9102 C 872.91 -2.77325 -3.41729 0
M  V30 9103 H 870.029 -0.566498 -0.471433 0
M  V30 9104 H 872.671 -1.8011 -0.604998 0
M  V30 9105 H 870.821 -2.47814 -2.992 0
M  V30 9106 H 872.493 -4.43581 -1.26624 0
M  V30 9107 H 870.736 -4.18989 -1.12386 0
M  V30 9108 H 871.407 -4.8625 -2.61276 0
M  V30 9109 H 873.883 -2.96085 -2.92357 0
M  V30 9110 H 872.759 -3.58097 -4.16002 0
M  V30 9111 H 873.02 -1.84995 -4.01534 0
M  V30 9112 N 872.079 0.78992 -1.36375 0
M  V30 9113 C 872.989 1.93386 -1.32812 0
M  V30 9114 C 874.005 1.72468 -0.230377 0
M  V30 9115 O 875.181 1.96014 -0.462657 0
M  V30 9116 C 872.246 3.2824 -1.11621 0
M  V30 9117 C 871.307 3.61939 -2.30865 0
M  V30 9118 C 870.54 4.90359 -2.10675 0
M  V30 9119 O 870.763 5.6005 -1.08168 0
M  V30 9120 O 869.697 5.22702 -2.9844 0
M  V30 9121 H 873.523 1.99342 -2.29121 0
M  V30 9122 H 871.108 0.9301 -1.16917 0
M  V30 9123 H 872.99 4.08939 -1.01719 0
M  V30 9124 H 871.665 3.23178 -0.183732 0
M  V30 9125 H 870.572 2.81549 -2.46335 0
M  V30 9126 H 871.905 3.71725 -3.22617 0
M  V30 9127 N 873.557 1.20646 1.01402 0
M  V30 9128 C 874.973 0.961866 1.27359 0
M  V30 9129 C 875.173 -0.357083 1.98311 0
M  V30 9130 O 874.229 -1.08498 2.28001 0
M  V30 9131 C 875.542 2.14627 2.10609 0
M  V30 9132 C 877.09 2.18753 2.23866 0
M  V30 9133 C 877.565 3.36686 3.10494 0
M  V30 9134 N 879.056 3.36716 3.18083 0
M  V30 9135 C 879.791 4.24615 3.85343 0
M  V30 9136 N 879.287 5.22697 4.54708 0
M  V30 9137 N 881.08 4.12449 3.81893 0
M  V30 9138 H 873.231 2.05481 0.537721 0
M  V30 9139 H 875.494 0.899292 0.299963 0
M  V30 9140 H 875.2 3.10159 1.65814 0
M  V30 9141 H 875.074 2.12935 3.11349 0
M  V30 9142 H 877.461 1.23782 2.67885 0
M  V30 9143 H 877.542 2.24492 1.22626 0
M  V30 9144 H 877.186 4.31945 2.67181 0
M  V30 9145 H 877.116 3.28185 4.11828 0
M  V30 9146 H 879.607 2.65728 2.68695 0
M  V30 9147 H 879.92 5.86087 5.03708 0
M  V30 9148 H 878.265 5.26631 4.53525 0
M  V30 9149 H 881.456 3.35091 3.26851 0
M  V30 9150 H 881.629 4.81162 4.34035 0
M  V30 9151 N 875.035 -1.20752 1.01276 0
M  V30 9152 C 876.451 -1.42084 0.726934 0
M  V30 9153 C 876.651 -1.89138 -0.694907 0
M  V30 9154 O 875.707 -2.05783 -1.4632 0
M  V30 9155 C 877.02 -2.44575 1.74938 0
M  V30 9156 C 878.568 -2.58347 1.76708 0
M  V30 9157 C 879.043 -3.64078 2.77869 0
M  V30 9158 N 880.534 -3.71558 2.76585 0
M  V30 9159 C 881.269 -4.53016 3.51517 0
M  V30 9160 N 880.765 -5.38309 4.36114 0
M  V30 9161 N 882.558 -4.47512 3.40132 0
M  V30 9162 H 874.709 -0.885228 1.93074 0
M  V30 9163 H 876.972 -0.451075 0.833808 0
M  V30 9164 H 876.678 -2.1699 2.76782 0
M  V30 9165 H 876.552 -3.43503 1.55838 0
M  V30 9166 H 878.939 -2.85265 0.755516 0
M  V30 9167 H 879.02 -1.59628 1.99882 0
M  V30 9168 H 878.664 -3.37905 3.79187 0
M  V30 9169 H 878.594 -4.62412 2.51958 0
M  V30 9170 H 881.085 -3.10629 2.15216 0
M  V30 9171 H 881.398 -5.9754 4.90068 0
M  V30 9172 H 879.743 -5.37824 4.40194 0
M  V30 9173 H 882.934 -3.79912 2.73467 0
M  V30 9174 H 883.107 -5.10759 3.98784 0
M  V30 9175 N 876.513 -0.788492 -1.36457 0
M  V30 9176 C 877.743 -0.371825 -2.03227 0
M  V30 9177 C 878.151 1.01627 -1.59589 0
M  V30 9178 O 877.494 1.663 -0.780382 0
M  V30 9179 C 877.556 -0.355179 -3.57741 0
M  V30 9180 C 877.22 -1.69069 -4.24576 0
M  V30 9181 C 878.217 -2.64601 -4.47529 0
M  V30 9182 C 875.902 -1.96973 -4.62068 0
M  V30 9183 C 877.896 -3.86232 -5.07054 0
M  V30 9184 C 875.583 -3.18872 -5.2131 0
M  V30 9185 C 876.581 -4.1332 -5.43742 0
M  V30 9186 O 876.269 -5.3307 -6.0174 0
M  V30 9187 H 876.001 -0.151452 -0.658816 0
M  V30 9188 H 878.555 -1.06827 -1.75434 0
M  V30 9189 H 876.785 0.397753 -3.84649 0
M  V30 9190 H 878.474 0.0366955 -4.05883 0
M  V30 9191 H 879.24 -2.44329 -4.18961 0
M  V30 9192 H 875.119 -1.24277 -4.43933 0
M  V30 9193 H 878.663 -4.59965 -5.24478 0
M  V30 9194 H 874.56 -3.39022 -5.49304 0
M  V30 9195 H 875.328 -5.34121 -6.20207 0
M  V30 9196 N 877.991 1.48044 -0.54043 0
M  V30 9197 C 878.923 2.2779 0.253854 0
M  V30 9198 C 879.936 1.35999 0.894883 0
M  V30 9199 O 881.125 1.60963 0.771563 0
M  V30 9200 C 878.225 3.09724 1.37566 0
M  V30 9201 C 877.398 4.29364 0.83459 0
M  V30 9202 C 876.457 4.93026 1.83881 0
M  V30 9203 O 875.483 5.51927 1.39159 0
M  V30 9204 N 876.685 4.86207 3.17149 0
M  V30 9205 H 879.45 2.96597 -0.430125 0
M  V30 9206 H 877.011 1.57487 -0.375423 0
M  V30 9207 H 879.003 3.49181 2.04584 0
M  V30 9208 H 877.573 2.43269 1.96314 0
M  V30 9209 H 876.793 3.94198 -0.0118878 0
M  V30 9210 H 878.081 5.06787 0.452155 0
M  V30 9211 H 877.479 4.39523 3.56141 0
M  V30 9212 H 876.036 5.29733 3.79771 0
M  V30 9213 N 879.47 0.276058 1.55163 0
M  V30 9214 C 880.886 -0.0780579 1.59409 0
M  V30 9215 C 881.086 -1.54521 1.29327 0
M  V30 9216 O 880.142 -2.29422 1.05459 0
M  V30 9217 C 881.455 0.297422 2.99225 0
M  V30 9218 C 883.003 0.244117 3.12047 0
M  V30 9219 C 883.478 0.594051 4.54131 0
M  V30 9220 N 884.969 0.54564 4.59975 0
M  V30 9221 C 885.704 0.789192 5.67943 0
M  V30 9222 N 885.2 1.09741 6.84053 0
M  V30 9223 N 886.993 0.717926 5.57496 0
M  V30 9224 H 879.144 1.23251 1.72982 0
M  V30 9225 H 881.407 0.497988 0.806667 0
M  V30 9226 H 881.113 1.31782 3.26077 0
M  V30 9227 H 880.987 -0.361286 3.75466 0
M  V30 9228 H 883.374 -0.766992 2.84958 0
M  V30 9229 H 883.455 0.937097 2.38017 0
M  V30 9230 H 883.099 1.60285 4.81945 0
M  V30 9231 H 883.029 -0.120728 5.26462 0
M  V30 9232 H 885.52 0.317334 3.76565 0
M  V30 9233 H 885.833 1.26989 7.62295 0
M  V30 9234 H 884.178 1.13519 6.85666 0
M  V30 9235 H 887.369 0.47697 4.65664 0
M  V30 9236 H 887.542 0.911118 6.41563 0
M  V30 9237 N 880.948 -1.576 0.00335426 0
M  V30 9238 C 882.225 -1.81945 -0.718015 0
M  V30 9239 C 882.605 -0.881788 -1.91801 0
M  V30 9240 O 881.953 0.0687118 -2.28397 0
M  V30 9241 C 882.163 -3.30521 -1.12058 0
M  V30 9242 C 883.511 -3.96345 -1.52303 0
M  V30 9243 O 884.535 -3.34864 -1.21428 0
M  V30 9244 O 883.394 -5.04655 -2.09728 0
M  V30 9245 H 880.488 -0.749328 -0.34991 0
M  V30 9246 H 883.034 -1.69675 0.0290654 0
M  V30 9247 H 881.806 -3.90399 -0.265378 0
M  V30 9248 H 881.429 -3.47802 -1.92665 0
M  V30 9249 N 882.426 0.269451 -1.5528 0
M  V30 9250 C 883.672 1.00206 -1.76314 0
M  V30 9251 C 884.005 1.85812 -0.564581 0
M  V30 9252 O 883.28 1.89509 0.437769 0
M  V30 9253 C 883.563 1.88163 -3.07029 0
M  V30 9254 C 883.416 1.05527 -4.37246 0
M  V30 9255 C 884.735 2.8681 -3.33808 0
M  V30 9256 H 881.854 0.36288 -0.641473 0
M  V30 9257 H 884.496 0.274188 -1.88011 0
M  V30 9258 H 882.646 2.50224 -2.97187 0
M  V30 9259 H 884.318 0.455094 -4.5905 0
M  V30 9260 H 882.561 0.358842 -4.32313 0
M  V30 9261 H 883.232 1.70397 -5.25042 0
M  V30 9262 H 885.708 2.34884 -3.43466 0
M  V30 9263 H 884.584 3.45492 -4.26528 0
M  V30 9264 H 884.845 3.62118 -2.5362 0
M  V30 9265 N 883.904 1.48273 0.534124 0
M  V30 9266 C 885.134 1.59503 1.31311 0
M  V30 9267 C 885.542 0.25284 1.87503 0
M  V30 9268 O 884.885 -0.767399 1.66903 0
M  V30 9269 C 884.947 2.57899 2.50456 0
M  V30 9270 C 884.611 4.03063 2.15382 0
M  V30 9271 C 885.608 4.90869 1.713 0
M  V30 9272 C 883.293 4.4857 2.26032 0
M  V30 9273 C 885.287 6.22209 1.38328 0
M  V30 9274 C 882.974 5.79932 1.92672 0
M  V30 9275 C 883.972 6.66574 1.4889 0
M  V30 9276 O 883.66 7.95492 1.15966 0
M  V30 9277 H 883.392 0.540695 0.405739 0
M  V30 9278 H 885.946 1.94794 0.651497 0
M  V30 9279 H 884.176 2.1772 3.19585 0
M  V30 9280 H 885.865 2.59008 3.12522 0
M  V30 9281 H 886.631 4.56951 1.62545 0
M  V30 9282 H 882.51 3.81321 2.59066 0
M  V30 9283 H 886.054 6.89792 1.04082 0
M  V30 9284 H 881.951 6.13386 2.01066 0
M  V30 9285 H 882.719 8.08207 1.29399 0
M  V30 9286 O 885.421 -0.679058 1.4653 0
M  V30 9287 H 886.112 -1.33158 1.40672 0
M  V30 END ATOM
M  V30 BEGIN BOND
M  V30 END BOND
M  V30 END CTAB
M  END
$$$$
