drugbank_target|P38484 Interferon gamma receptor 2 (DB00033)
 OpenBabel12092119323D

  0  0  0     0  0            999 V3000
M  V30 BEGIN CTAB
M  V30 COUNTS 5312 5390 0 0 0
M  V30 BEGIN ATOM
M  V30 1 H -0.908 1.98254 -0.117106 0
M  V30 2 N 0 1.576 0 0
M  V30 3 C 0.933 2.03868 1.02534 0
M  V30 4 C 1.911 0.928543 1.3348 0
M  V30 5 O 3.095 1.19667 1.45644 0
M  V30 6 C 0.222 2.43627 2.35294 0
M  V30 7 C -0.732 3.65373 2.2001 0
M  V30 8 S 0.101 5.13292 1.52614 0
M  V30 9 C 1.257 5.56322 2.86805 0
M  V30 10 H 1.49 2.90518 0.631377 0
M  V30 11 H -0.977 1.52953 0.210867 0
M  V30 12 H 0.981 2.67203 3.11629 0
M  V30 13 H -0.358 1.57376 2.7183 0
M  V30 14 H -1.165 3.90944 3.18086 0
M  V30 15 H -1.563 3.418 1.51819 0
M  V30 16 H 0.729 5.58782 3.83104 0
M  V30 17 H 1.672 6.56266 2.65933 0
M  V30 18 H 2.08 4.83886 2.90714 0
M  V30 19 N 1.4781 -0.272755 1.55222 0
M  V30 20 C 2.8941 -0.619959 1.47067 0
M  V30 21 C 3.0941 -1.895 0.684978 0
M  V30 22 O 2.1501 -2.51675 0.203931 0
M  V30 23 C 3.4631 -0.746693 2.91282 0
M  V30 24 C 5.0111 -0.840731 3.01497 0
M  V30 25 C 5.4861 -0.99924 4.46967 0
M  V30 26 N 6.9771 -1.06476 4.50796 0
M  V30 27 C 7.7121 -1.20621 5.6057 0
M  V30 28 N 7.2081 -1.31483 6.80209 0
M  V30 29 N 9.0011 -1.23733 5.48312 0
M  V30 30 H 1.1521 0.564606 2.04758 0
M  V30 31 H 3.4151 0.191177 0.928523 0
M  V30 32 H 3.1211 0.119753 3.51496 0
M  V30 33 H 2.9951 -1.6269 3.40311 0
M  V30 34 H 5.3821 -1.69764 2.41379 0
M  V30 35 H 5.4631 0.0640874 2.5572 0
M  V30 36 H 5.1071 -0.146984 5.07687 0
M  V30 37 H 5.0371 -1.91871 4.90401 0
M  V30 38 H 7.5281 -0.993196 3.64615 0
M  V30 39 H 7.8411 -1.42111 7.59621 0
M  V30 40 H 6.1861 -1.28487 6.8302 0
M  V30 41 H 9.3771 -1.14877 4.53785 0
M  V30 42 H 9.5501 -1.34412 6.33906 0
M  V30 43 N 2.9562 -1.48159 -0.537278 0
M  V30 44 C 4.3672 -1.49429 -1.11928 0
M  V30 45 C 4.7182 -0.26 -1.9447 0
M  V30 46 O 3.8432 0.633489 -2.0692 0
M  V30 47 C 4.4382 -2.70758 -2.03656 0
M  V30 48 C 2.9972 -2.74923 -2.57088 0
M  V30 49 C 2.1442 -2.42835 -1.3389 0
M  V30 50 H 5.0952 -1.55381 -0.322886 0
M  V30 51 H 5.1162 -2.48861 -2.87834 0
M  V30 52 H 4.6282 -3.60575 -1.43553 0
M  V30 53 H 2.7292 -1.89296 -3.20933 0
M  V30 54 H 2.8422 -3.76157 -2.9672 0
M  V30 55 H 1.2062 -1.93836 -1.65226 0
M  V30 56 H 1.9892 -3.34884 -0.755504 0
M  V30 57 N 4.4343 0.785586 -1.36625 0
M  V30 58 C 5.6623 1.57448 -1.3423 0
M  V30 59 C 6.0773 1.88649 0.0755653 0
M  V30 60 O 5.4343 1.50414 1.03354 0
M  V30 61 C 5.4853 2.89316 -2.16745 0
M  V30 62 O 5.2063 2.59459 -3.53005 0
M  V30 63 C 6.7073 3.83606 -2.22174 0
M  V30 64 H 3.9273 0.488226 -0.4603 0
M  V30 65 H 6.4713 0.974733 -1.79775 0
M  V30 66 H 4.6263 3.4575 -1.74745 0
M  V30 67 H 5.0403 3.43804 -3.96105 0
M  V30 68 H 6.5143 4.73181 -2.8426 0
M  V30 69 H 6.9913 4.21734 -1.22627 0
M  V30 70 H 7.5973 3.33104 -2.64427 0
M  V30 71 N 5.9124 1.20967 1.01018 0
M  V30 72 C 6.8424 0.988272 2.11555 0
M  V30 73 C 7.8234 -0.0849778 1.69888 0
M  V30 74 O 9.0084 0.0738202 1.9406 0
M  V30 75 C 6.1384 0.546528 3.42973 0
M  V30 76 C 5.0924 1.56375 3.9841 0
M  V30 77 C 4.4184 0.97842 5.25672 0
M  V30 78 C 5.7184 2.94922 4.31066 0
M  V30 79 H 7.4124 1.91276 2.30334 0
M  V30 80 H 4.9584 0.921073 1.1069 0
M  V30 81 H 6.9114 0.378839 4.19694 0
M  V30 82 H 5.6354 -0.413598 3.23971 0
M  V30 83 H 4.2944 1.71891 3.23804 0
M  V30 84 H 3.9424 0.0101688 5.02999 0
M  V30 85 H 3.6424 1.65784 5.63728 0
M  V30 86 H 5.1664 0.821939 6.05043 0
M  V30 87 H 6.5804 2.8288 4.9865 0
M  V30 88 H 4.9774 3.5983 4.80253 0
M  V30 89 H 6.0474 3.4616 3.39561 0
M  V30 90 N 7.3905 -1.2043 1.01659 0
M  V30 91 C 8.3205 -2.25466 0.607226 0
M  V30 92 C 9.3015 -1.65853 -0.377716 0
M  V30 93 O 10.4865 -1.92409 -0.263149 0
M  V30 94 C 7.6165 -3.47256 -0.0552949 0
M  V30 95 C 6.5705 -4.19462 0.850632 0
M  V30 96 C 5.8965 -5.34673 0.0538859 0
M  V30 97 C 7.1965 -4.75603 2.15868 0
M  V30 98 H 8.8905 -2.59962 1.48526 0
M  V30 99 H 6.4365 -1.2496 0.715605 0
M  V30 100 H 8.3895 -4.19917 -0.353233 0
M  V30 101 H 7.1135 -3.11924 -0.968045 0
M  V30 102 H 5.7725 -3.48667 1.13257 0
M  V30 103 H 5.4205 -4.95585 -0.860514 0
M  V30 104 H 5.1205 -5.83913 0.657192 0
M  V30 105 H 6.6445 -6.10138 -0.237598 0
M  V30 106 H 8.0585 -5.40083 1.92311 0
M  V30 107 H 6.4555 -5.3528 2.71284 0
M  V30 108 H 7.5255 -3.94346 2.82169 0
M  V30 109 N 8.8686 -0.792821 -1.36206 0
M  V30 110 C 10.1146 -0.376415 -1.99887 0
M  V30 111 C 10.4696 1.04127 -1.61788 0
M  V30 112 O 9.7626 1.71004 -0.864193 0
M  V30 113 C 9.9566 -0.481501 -3.54142 0
M  V30 114 C 9.7856 -1.90786 -4.07223 0
M  V30 115 C 8.5556 -2.53322 -4.37214 0
M  V30 116 C 10.7536 -2.87048 -4.26741 0
M  V30 117 N 8.7356 -3.8751 -4.7614 0
M  V30 118 C 10.1066 -4.06077 -4.6851 0
M  V30 119 C 12.1616 -2.8406 -4.08918 0
M  V30 120 C 10.8646 -5.22532 -4.94321 0
M  V30 121 C 12.8906 -3.99705 -4.35878 0
M  V30 122 C 12.2526 -5.1748 -4.77906 0
M  V30 123 H 8.3516 -0.185226 -0.759747 0
M  V30 124 H 10.9356 -1.03114 -1.65153 0
M  V30 125 H 9.1066 0.143154 -3.88136 0
M  V30 126 H 10.8386 -0.0410128 -4.04679 0
M  V30 127 H 7.5936 -2.04777 -4.2704 0
M  V30 128 H 8.0176 -4.5656 -4.99882 0
M  V30 129 H 12.6596 -1.94165 -3.75579 0
M  V30 130 H 10.3776 -6.1301 -5.2654 0
M  V30 131 H 13.9636 -3.98758 -4.23655 0
M  V30 132 H 12.8436 -6.05478 -4.98363 0
M  V30 133 N 10.3467 1.47872 -0.545128 0
M  V30 134 C 11.5717 2.07391 -0.0190611 0
M  V30 135 C 11.9967 1.39688 1.25971 0
M  V30 136 O 11.3547 0.467816 1.7516 0
M  V30 137 C 11.4027 3.60188 0.172335 0
M  V30 138 O 10.5067 3.9339 1.23766 0
M  V30 139 H 9.8477 0.662411 -0.0459059 0
M  V30 140 H 12.3777 1.90066 -0.757365 0
M  V30 141 H 12.3877 4.06129 0.390305 0
M  V30 142 H 11.0627 4.08865 -0.761725 0
M  V30 143 H 9.6397 3.5921 1.00114 0
M  V30 144 N 11.8248 0.280983 1.55075 0
M  V30 145 C 12.7548 -0.597469 2.25727 0
M  V30 146 C 13.7358 -1.15417 1.24952 0
M  V30 147 O 14.9208 -1.18722 1.53684 0
M  V30 148 C 12.0508 -1.7789 2.98283 0
M  V30 149 C 11.0048 -1.35347 4.06036 0
M  V30 150 C 10.3308 -2.61846 4.66198 0
M  V30 151 C 11.6308 -0.499354 5.19907 0
M  V30 152 H 13.3248 -0.00824265 2.99399 0
M  V30 153 H 10.8708 -0.0025244 1.44 0
M  V30 154 H 12.8238 -2.39937 3.46422 0
M  V30 155 H 11.5478 -2.39405 2.22155 0
M  V30 156 H 10.2068 -0.756156 3.58717 0
M  V30 157 H 9.8548 -3.21632 3.86732 0
M  V30 158 H 9.5548 -2.3409 5.38958 0
M  V30 159 H 11.0788 -3.24732 5.1709 0
M  V30 160 H 12.4928 -1.02498 5.64063 0
M  V30 161 H 10.8898 -0.316424 5.99265 0
M  V30 162 H 11.9598 0.480459 4.82514 0
M  V30 163 N 13.3029 -1.57598 0.00835791 0
M  V30 164 C 14.2329 -2.1198 -0.979113 0
M  V30 165 C 15.2139 -1.03091 -1.35301 0
M  V30 166 O 16.3989 -1.30818 -1.43528 0
M  V30 167 C 13.5289 -2.62995 -2.26828 0
M  V30 168 C 12.4829 -3.76485 -2.03576 0
M  V30 169 C 11.8089 -4.13846 -3.38579 0
M  V30 170 C 13.1089 -5.0342 -1.39161 0
M  V30 171 H 14.8029 -2.94738 -0.526281 0
M  V30 172 H 12.3489 -1.41783 -0.251704 0
M  V30 173 H 14.3019 -2.99669 -2.96271 0
M  V30 174 H 13.0259 -1.7737 -2.7424 0
M  V30 175 H 11.6849 -3.40217 -1.36557 0
M  V30 176 H 11.3329 -3.25232 -3.83709 0
M  V30 177 H 11.0329 -4.90312 -3.23834 0
M  V30 178 H 12.5569 -4.53086 -4.09323 0
M  V30 179 H 13.9709 -5.37812 -1.98573 0
M  V30 180 H 12.3679 -5.84746 -1.34878 0
M  V30 181 H 13.4379 -4.83548 -0.361868 0
M  V30 182 N 14.781 0.264519 -1.55364 0
M  V30 183 C 15.711 1.33121 -1.91836 0
M  V30 184 C 16.692 1.51101 -0.781192 0
M  V30 185 O 17.877 1.64003 -1.04003 0
M  V30 186 C 15.007 2.68921 -2.19769 0
M  V30 187 C 13.961 2.65661 -3.35571 0
M  V30 188 C 13.287 4.05093 -3.49004 0
M  V30 189 C 14.587 2.24187 -4.71739 0
M  V30 190 H 16.281 1.02844 -2.81182 0
M  V30 191 H 13.827 0.493286 -1.35287 0
M  V30 192 H 15.78 3.43663 -2.43872 0
M  V30 193 H 14.504 3.00799 -1.27231 0
M  V30 194 H 13.163 1.93377 -3.1145 0
M  V30 195 H 12.811 4.34206 -2.53917 0
M  V30 196 H 12.511 4.03804 -4.26868 0
M  V30 197 H 14.035 4.81561 -3.75408 0
M  V30 198 H 15.449 2.88654 -4.9533 0
M  V30 199 H 13.846 2.34044 -5.52579 0
M  V30 200 H 14.916 1.19327 -4.69988 0
M  V30 201 N 16.2591 1.48442 0.529413 0
M  V30 202 C 17.1891 1.65902 1.64313 0
M  V30 203 C 18.1701 0.507897 1.6234 0
M  V30 204 O 19.3551 0.740503 1.79528 0
M  V30 205 C 16.4851 1.69911 3.02898 0
M  V30 206 C 15.4391 2.8453 3.19729 0
M  V30 207 C 14.7651 2.73629 4.59381 0
M  V30 208 C 16.0651 4.25821 3.02447 0
M  V30 209 H 17.7591 2.5914 1.49955 0
M  V30 210 H 15.3051 1.24709 0.719982 0
M  V30 211 H 17.2581 1.80715 3.80684 0
M  V30 212 H 15.9821 0.732524 3.18279 0
M  V30 213 H 14.6411 2.73283 2.44361 0
M  V30 214 H 14.2891 1.74938 4.71599 0
M  V30 215 H 13.9891 3.50541 4.71588 0
M  V30 216 H 15.5131 2.86401 5.39265 0
M  V30 217 H 16.9271 4.37898 3.70024 0
M  V30 218 H 15.3241 5.03735 3.26146 0
M  V30 219 H 16.3941 4.42244 1.98867 0
M  V30 220 N 17.7372 -0.778329 1.37039 0
M  V30 221 C 18.6672 -1.90546 1.34962 0
M  V30 222 C 19.6482 -1.68681 0.219274 0
M  V30 223 O 20.8332 -1.89634 0.418624 0
M  V30 224 C 17.9632 -3.27734 1.14925 0
M  V30 225 C 16.9172 -3.64147 2.24902 0
M  V30 226 C 16.2432 -4.99806 1.89996 0
M  V30 227 C 17.5432 -3.71579 3.67051 0
M  V30 228 H 19.2372 -1.92541 2.29277 0
M  V30 229 H 16.7832 -0.924948 1.10366 0
M  V30 230 H 18.7362 -4.06215 1.12104 0
M  V30 231 H 17.4602 -3.26154 0.170631 0
M  V30 232 H 16.1192 -2.8797 2.26868 0
M  V30 233 H 15.7672 -4.94759 0.906796 0
M  V30 234 H 15.4672 -5.25139 2.63634 0
M  V30 235 H 16.9912 -5.80694 1.88749 0
M  V30 236 H 18.4052 -4.40227 3.67251 0
M  V30 237 H 16.8022 -4.08405 4.39688 0
M  V30 238 H 17.8722 -2.72404 4.01154 0
M  V30 239 N 19.2153 -1.21501 -1.00376 0
M  V30 240 C 20.4633 -1.03095 -1.73827 0
M  V30 241 C 20.7843 0.436341 -1.90055 0
M  V30 242 O 20.0543 1.31466 -1.45236 0
M  V30 243 H 18.6343 -0.378487 -0.644016 0
M  V30 244 H 21.2963 -1.52831 -1.20949 0
M  V30 245 H 20.3923 -1.49991 -2.73695 0
M  V30 246 N 20.6934 1.19889 -1.02296 0
M  V30 247 C 21.9394 1.89701 -0.717033 0
M  V30 248 C 22.2724 1.7905 0.751989 0
M  V30 249 O 21.5474 1.17891 1.547 0
M  V30 250 C 21.8304 3.40858 -1.16136 0
M  V30 251 C 21.6834 3.60411 -2.69117 0
M  V30 252 C 23.0024 4.33876 -0.737549 0
M  V30 253 H 20.1214 0.688874 -0.261957 0
M  V30 254 H 22.7634 1.41154 -1.27183 0
M  V30 255 H 20.9134 3.82335 -0.689342 0
M  V30 256 H 22.5854 3.28145 -3.2422 0
M  V30 257 H 20.8284 3.03665 -3.0979 0
M  V30 258 H 21.4994 4.66396 -2.95261 0
M  V30 259 H 23.9754 4.00081 -1.14344 0
M  V30 260 H 22.8514 5.38242 -1.0764 0
M  V30 261 H 23.1124 4.40628 0.360436 0
M  V30 262 N 22.1715 0.800033 1.35784 0
M  V30 263 C 23.4185 0.377342 1.98953 0
M  V30 264 C 23.7465 -1.05378 1.6348 0
M  V30 265 O 23.0015 -1.74459 0.886707 0
M  V30 266 C 23.3005 0.500276 3.53881 0
M  V30 267 C 22.9665 1.89375 4.09204 0
M  V30 268 C 21.6285 2.27499 4.24025 0
M  V30 269 C 23.9805 2.8057 4.39238 0
M  V30 270 C 21.3085 3.562 4.66195 0
M  V30 271 C 23.6605 4.0871 4.82844 0
M  V30 272 C 22.3245 4.46843 4.95871 0
M  V30 273 H 21.5945 0.138079 0.728021 0
M  V30 274 H 24.2415 1.01955 1.62103 0
M  V30 275 H 22.5465 -0.225405 3.91151 0
M  V30 276 H 24.2435 0.154097 4.00704 0
M  V30 277 H 20.8335 1.58753 3.98115 0
M  V30 278 H 25.0175 2.52367 4.27346 0
M  V30 279 H 20.2735 3.85602 4.74469 0
M  V30 280 H 24.4475 4.79481 5.05046 0
M  V30 281 H 22.0745 5.46623 5.28306 0
M  V30 282 N 23.6496 -1.47581 0.552962 0
M  V30 283 C 24.6126 -2.28439 -0.186605 0
M  V30 284 C 25.6126 -1.36706 -0.84665 0
M  V30 285 O 26.8026 -1.59378 -0.703164 0
M  V30 286 C 23.9346 -3.16264 -1.2724 0
M  V30 287 H 25.1276 -2.95294 0.523609 0
M  V30 288 H 22.6806 -1.532 0.309745 0
M  V30 289 H 23.4156 -2.54091 -2.01514 0
M  V30 290 H 23.2006 -3.83769 -0.803968 0
M  V30 291 H 24.6906 -3.77198 -1.79196 0
M  V30 292 N 25.1277 -0.289203 -1.54924 0
M  V30 293 C 26.0907 0.579144 -2.21762 0
M  V30 294 C 27.0907 1.07047 -1.1999 0
M  V30 295 O 28.2807 0.968384 -1.44803 0
M  V30 296 C 25.4127 1.80055 -2.8947 0
M  V30 297 H 26.6057 -0.00464908 -2.999 0
M  V30 298 H 24.1587 -0.0399306 -1.56249 0
M  V30 299 H 24.8937 2.42449 -2.15381 0
M  V30 300 H 24.6787 1.45602 -3.64064 0
M  V30 301 H 26.1687 2.41773 -3.40493 0
M  V30 302 N 26.6058 1.57591 -0.0167156 0
M  V30 303 C 27.5688 2.08393 0.954204 0
M  V30 304 C 28.5688 0.996531 1.26198 0
M  V30 305 O 29.7588 1.25858 1.20438 0
M  V30 306 C 26.8908 2.5394 2.27436 0
M  V30 307 H 28.0838 2.95455 0.514451 0
M  V30 308 H 25.6368 1.54582 0.231089 0
M  V30 309 H 26.3718 1.70171 2.76066 0
M  V30 310 H 26.1568 3.33371 2.06412 0
M  V30 311 H 27.6468 2.93512 2.97053 0
M  V30 312 N 28.0839 -0.256276 1.55502 0
M  V30 313 C 29.0469 -1.30047 1.88734 0
M  V30 314 C 30.0469 -1.4154 0.763086 0
M  V30 315 O 31.2369 -1.40403 1.03115 0
M  V30 316 C 28.3689 -2.67953 2.10747 0
M  V30 317 H 29.5619 -1.01802 2.82093 0
M  V30 318 H 27.1149 -0.495134 1.4825 0
M  V30 319 H 27.8499 -3.01351 1.19825 0
M  V30 320 H 27.6349 -2.60993 2.92617 0
M  V30 321 H 29.1249 -3.43368 2.37673 0
M  V30 322 N 29.562 -1.4872 -0.521534 0
M  V30 323 C 30.525 -1.63379 -1.60748 0
M  V30 324 C 31.525 -0.50661 -1.52611 0
M  V30 325 O 32.715 -0.772601 -1.5613 0
M  V30 326 C 29.847 -1.61192 -3.00383 0
M  V30 327 H 31.04 -2.60217 -1.49087 0
M  V30 328 H 28.593 -1.37444 -0.744235 0
M  V30 329 H 29.328 -0.65863 -3.17541 0
M  V30 330 H 29.113 -2.43032 -3.07698 0
M  V30 331 H 30.603 -1.7466 -3.7932 0
M  V30 332 N 31.0401 0.771051 -1.3745 0
M  V30 333 C 32.0031 1.86598 -1.33093 0
M  V30 334 C 33.0031 1.59076 -0.234845 0
M  V30 335 O 34.1931 1.67145 -0.490732 0
M  V30 336 C 31.3251 3.23747 -1.06773 0
M  V30 337 H 32.5181 1.91873 -2.30488 0
M  V30 338 H 30.0711 0.970876 -1.2249 0
M  V30 339 H 30.8061 3.24148 -0.099129 0
M  V30 340 H 30.5911 3.45115 -1.86112 0
M  V30 341 H 32.0811 4.03824 -1.06377 0
M  V30 342 N 32.5182 1.22032 0.997298 0
M  V30 343 C 33.9292 1.0397 1.55071 0
M  V30 344 C 34.2802 -0.398192 1.92117 0
M  V30 345 O 33.4052 -1.28254 1.74298 0
M  V30 346 C 34.0002 1.88109 2.81781 0
M  V30 347 C 32.5592 1.74357 3.33581 0
M  V30 348 C 31.7062 1.84846 2.06706 0
M  V30 349 H 34.6572 1.35941 0.818883 0
M  V30 350 H 34.6782 1.39589 3.53971 0
M  V30 351 H 34.1902 2.92754 2.54787 0
M  V30 352 H 32.2912 0.72427 3.65493 0
M  V30 353 H 32.4042 2.56772 4.04481 0
M  V30 354 H 30.7682 1.28238 2.20062 0
M  V30 355 H 31.5512 2.91014 1.82114 0
M  V30 356 N 33.9963 -1.19345 1.0293 0
M  V30 357 C 35.4073 -1.70725 0.755633 0
M  V30 358 C 35.7583 -1.82326 -0.724676 0
M  V30 359 O 34.8833 -1.49471 -1.56484 0
M  V30 360 C 35.4783 -3.10084 1.36503 0
M  V30 361 C 34.0373 -3.58723 1.13994 0
M  V30 362 C 33.1843 -2.35577 1.46283 0
M  V30 363 H 36.1353 -1.0418 1.19718 0
M  V30 364 H 36.1563 -3.72787 0.762217 0
M  V30 365 H 35.6683 -3.01609 2.44241 0
M  V30 366 H 33.7693 -3.72512 0.0807901 0
M  V30 367 H 33.8823 -4.42816 1.82894 0
M  V30 368 H 32.2463 -2.38935 0.88217 0
M  V30 369 H 33.0293 -2.29731 2.55105 0
M  V30 370 N 35.4744 -0.807222 -1.35358 0
M  V30 371 C 36.7514 -0.311126 -1.9311 0
M  V30 372 C 37.1314 1.19937 -1.73719 0
M  V30 373 O 36.4794 1.99918 -1.10657 0
M  V30 374 C 36.6894 -0.723226 -3.41424 0
M  V30 375 C 38.0374 -0.713078 -4.18569 0
M  V30 376 O 39.0614 -0.664811 -3.49941 0
M  V30 377 O 37.9204 -0.772022 -5.41019 0
M  V30 378 H 35.0144 -0.081526 -0.822972 0
M  V30 379 H 37.5604 -0.890962 -1.4443 0
M  V30 380 H 36.3324 -1.76426 -3.4927 0
M  V30 381 H 35.9554 -0.118232 -3.97424 0
M  V30 382 N 36.9525 1.47285 -0.560781 0
M  V30 383 C 38.3635 1.86258 -0.128343 0
M  V30 384 C 38.7145 1.46699 1.30284 0
M  V30 385 O 37.8395 0.871698 1.98067 0
M  V30 386 C 38.4345 3.38044 -0.22614 0
M  V30 387 C 36.9935 3.76096 0.151283 0
M  V30 388 C 36.1405 2.71335 -0.572084 0
M  V30 389 H 39.0915 1.38752 -0.770297 0
M  V30 390 H 39.1125 3.76441 0.554322 0
M  V30 391 H 38.6245 3.66806 -1.26788 0
M  V30 392 H 36.7255 3.52951 1.19399 0
M  V30 393 H 36.8385 4.78641 -0.209765 0
M  V30 394 H 35.2025 2.54696 -0.0147653 0
M  V30 395 H 35.9855 3.02938 -1.61504 0
M  V30 396 N 38.4306 0.297415 1.54768 0
M  V30 397 C 39.3606 -0.573494 2.26348 0
M  V30 398 C 40.3416 -1.14085 1.26169 0
M  V30 399 O 41.5266 -1.17086 1.54934 0
M  V30 400 C 38.6566 -1.74716 3.00153 0
M  V30 401 C 37.6106 -1.31032 4.07449 0
M  V30 402 C 36.9366 -2.56887 4.68949 0
M  V30 403 C 38.2366 -0.444183 5.20408 0
M  V30 404 H 39.9306 0.0235131 2.99391 0
M  V30 405 H 37.4766 0.0127488 1.43994 0
M  V30 406 H 39.4296 -2.3625 3.48947 0
M  V30 407 H 38.1536 -2.37035 2.24682 0
M  V30 408 H 36.8126 -0.718066 3.59499 0
M  V30 409 H 36.4606 -3.17512 3.90122 0
M  V30 410 H 36.1606 -2.2836 5.41411 0
M  V30 411 H 37.6846 -3.19229 5.20505 0
M  V30 412 H 39.0986 -0.9651 5.65118 0
M  V30 413 H 37.4956 -0.252846 5.99567 0
M  V30 414 H 38.5656 0.531609 4.81977 0
M  V30 415 N 39.9087 -1.5758 0.0250728 0
M  V30 416 C 41.1337 -1.96337 -0.668317 0
M  V30 417 C 41.5587 -0.901314 -1.651 0
M  V30 418 O 40.9167 0.138187 -1.80773 0
M  V30 419 C 40.9647 -3.34191 -1.35457 0
M  V30 420 O 40.0687 -3.30269 -2.46974 0
M  V30 421 H 39.4097 -0.640281 -0.175887 0
M  V30 422 H 41.9397 -2.0442 0.0857224 0
M  V30 423 H 41.9497 -3.70331 -1.71228 0
M  V30 424 H 40.6247 -4.11036 -0.634218 0
M  V30 425 H 39.2017 -3.05841 -2.13344 0
M  V30 426 N 41.3868 0.248026 -1.55636 0
M  V30 427 C 42.3188 1.32993 -1.8667 0
M  V30 428 C 43.3318 1.44345 -0.752877 0
M  V30 429 O 44.5208 1.45715 -1.03098 0
M  V30 430 C 41.6208 2.70863 -2.03682 0
M  V30 431 C 40.7938 2.81792 -3.34532 0
M  V30 432 C 39.8528 4.005 -3.41301 0
M  V30 433 O 38.8788 3.9008 -4.14519 0
M  V30 434 N 40.0808 5.13618 -2.70512 0
M  V30 435 H 42.8458 1.06707 -2.8006 0
M  V30 436 H 40.4068 0.438129 -1.55859 0
M  V30 437 H 42.3988 3.48612 -2.05553 0
M  V30 438 H 40.9688 2.89862 -1.17041 0
M  V30 439 H 40.1888 1.90729 -3.44987 0
M  V30 440 H 41.4768 2.86043 -4.20781 0
M  V30 441 H 40.8748 5.24975 -2.10755 0
M  V30 442 H 39.4318 5.89505 -2.78077 0
M  V30 443 N 42.8649 1.48995 0.513639 0
M  V30 444 C 43.7949 1.67636 1.62544 0
M  V30 445 C 44.7759 0.525087 1.61793 0
M  V30 446 O 45.9609 0.759502 1.78732 0
M  V30 447 C 43.0909 1.73114 3.01079 0
M  V30 448 C 42.0449 2.87905 3.16693 0
M  V30 449 C 41.3709 2.78486 4.56453 0
M  V30 450 C 42.6709 4.29005 2.97913 0
M  V30 451 H 44.3649 2.60716 1.47198 0
M  V30 452 H 41.9109 1.25465 0.706714 0
M  V30 453 H 43.8639 1.84742 3.78746 0
M  V30 454 H 42.5879 0.766241 3.17484 0
M  V30 455 H 41.2469 2.75859 2.41448 0
M  V30 456 H 40.8949 1.7993 4.69717 0
M  V30 457 H 40.5949 3.55523 4.67843 0
M  V30 458 H 42.1189 2.92104 5.36197 0
M  V30 459 H 43.5329 4.41798 3.65359 0
M  V30 460 H 41.9299 5.07166 3.20785 0
M  V30 461 H 42.9999 4.44329 1.94165 0
M  V30 462 N 44.343 -0.763751 1.37857 0
M  V30 463 C 45.754 -1.3405 1.29952 0
M  V30 464 C 46.105 -1.96138 -0.0492898 0
M  V30 465 O 45.23 -1.94372 -0.951239 0
M  V30 466 C 45.825 -2.43729 2.35333 0
M  V30 467 C 44.384 -2.97151 2.31037 0
M  V30 468 C 43.531 -1.70438 2.18738 0
M  V30 469 H 46.482 -0.563396 1.48363 0
M  V30 470 H 46.503 -3.23412 2.00462 0
M  V30 471 H 46.015 -1.9851 3.33489 0
M  V30 472 H 44.116 -3.46724 1.3643 0
M  V30 473 H 44.229 -3.52221 3.24772 0
M  V30 474 H 42.593 -1.93673 1.65418 0
M  V30 475 H 43.376 -1.27312 3.18821 0
M  V30 476 N 45.8211 -1.22559 -0.990812 0
M  V30 477 C 46.7841 -0.998863 -2.0629 0
M  V30 478 C 47.7841 0.0354834 -1.60761 0
M  V30 479 O 48.9741 -0.203231 -1.7301 0
M  V30 480 C 46.1061 -0.509203 -3.37076 0
M  V30 481 H 47.2991 -1.95014 -2.27837 0
M  V30 482 H 44.8521 -1.04456 -1.16269 0
M  V30 483 H 45.5871 0.446335 -3.21214 0
M  V30 484 H 45.3721 -1.25547 -3.71457 0
M  V30 485 H 46.8621 -0.370888 -4.1595 0
M  V30 486 N 47.2992 1.18797 -1.03562 0
M  V30 487 C 48.7102 1.70322 -0.764676 0
M  V30 488 C 49.0612 1.82708 0.714996 0
M  V30 489 O 48.1862 1.50299 1.55689 0
M  V30 490 C 48.7812 3.09356 -1.38145 0
M  V30 491 C 47.3402 3.58114 -1.15895 0
M  V30 492 C 46.4872 2.34798 -1.4753 0
M  V30 493 H 49.4382 1.03543 -1.20268 0
M  V30 494 H 49.4592 3.72378 -0.781977 0
M  V30 495 H 48.9712 3.00309 -2.45837 0
M  V30 496 H 47.0722 3.72464 -0.100544 0
M  V30 497 H 47.1852 4.4184 -1.8524 0
M  V30 498 H 45.5492 2.38464 -0.894829 0
M  V30 499 H 46.3322 2.28375 -2.56319 0
M  V30 500 N 48.7773 0.814389 1.34928 0
M  V30 501 C 49.7093 0.187834 2.28429 0
M  V30 502 C 50.7223 -0.617374 1.5064 0
M  V30 503 O 51.9113 -0.448454 1.72775 0
M  V30 504 C 49.0113 -0.755962 3.30361 0
M  V30 505 C 48.1843 0.00456686 4.374 0
M  V30 506 C 47.2433 -0.858876 5.19143 0
M  V30 507 O 46.2693 -0.306968 5.68372 0
M  V30 508 N 47.4713 -2.17988 5.38016 0
M  V30 509 H 50.2363 0.991105 2.82838 0
M  V30 510 H 47.7973 0.670561 1.4736 0
M  V30 511 H 49.7893 -1.338 3.81942 0
M  V30 512 H 48.3593 -1.46001 2.7641 0
M  V30 513 H 47.5793 0.767865 3.86649 0
M  V30 514 H 48.8673 0.528422 5.06049 0
M  V30 515 H 48.2653 -2.65212 4.99679 0
M  V30 516 H 46.8223 -2.71098 5.92747 0
M  V30 517 N 50.2554 -1.46986 0.568584 0
M  V30 518 C 51.2054 -2.27179 -0.193339 0
M  V30 519 C 52.1894 -1.35035 -0.874895 0
M  V30 520 O 53.3814 -1.5931 -0.771322 0
M  V30 521 C 50.5104 -3.21063 -1.21546 0
M  V30 522 C 49.5964 -4.2069 -0.536738 0
M  V30 523 N 49.9874 -5.04218 0.399673 0
M  V30 524 C 48.2854 -4.38961 -0.789254 0
M  V30 525 C 48.9864 -5.76242 0.795017 0
M  V30 526 N 47.9624 -5.434 0.1473 0
M  V30 527 H 51.7644 -2.89146 0.526458 0
M  V30 528 H 49.2784 -1.57664 0.389342 0
M  V30 529 H 51.2754 -3.77209 -1.77536 0
M  V30 530 H 49.9354 -2.60654 -1.93623 0
M  V30 531 H 50.9464 -5.12077 0.774454 0
M  V30 532 H 47.6234 -3.89713 -1.49767 0
M  V30 533 H 49.0134 -6.53417 1.56513 0
M  V30 534 N 51.7335 -0.305618 -1.54608 0
M  V30 535 C 53.1445 0.186098 -1.8577 0
M  V30 536 C 53.4955 1.53058 -1.22751 0
M  V30 537 O 52.6205 2.09888 -0.526893 0
M  V30 538 C 53.2155 0.344449 -3.37044 0
M  V30 539 C 51.7745 0.780384 -3.68221 0
M  V30 540 C 50.9215 -0.108554 -2.77087 0
M  V30 541 H 53.8725 -0.526485 -1.49712 0
M  V30 542 H 53.8935 1.17828 -3.61796 0
M  V30 543 H 53.4055 -0.634235 -3.82883 0
M  V30 544 H 51.5065 1.76945 -3.27904 0
M  V30 545 H 51.6195 0.596572 -4.75371 0
M  V30 546 H 49.9835 0.412931 -2.5133 0
M  V30 547 H 50.7665 -1.08368 -3.25747 0
M  V30 548 N 53.2116 1.57565 -0.0334293 0
M  V30 549 C 54.1586 2.10478 0.946981 0
M  V30 550 C 55.1286 1.00787 1.32027 0
M  V30 551 O 56.3136 1.28232 1.41284 0
M  V30 552 C 53.4536 2.63994 2.22263 0
M  V30 553 C 52.5666 3.87709 1.90541 0
M  V30 554 C 51.7016 4.29604 3.12433 0
M  V30 555 C 50.7406 5.46065 2.76549 0
M  V30 556 N 49.8776 5.83096 3.9108 0
M  V30 557 H 54.7176 2.93963 0.488846 0
M  V30 558 H 52.2546 1.45296 0.22969 0
M  V30 559 H 54.2126 2.93114 2.96884 0
M  V30 560 H 52.8426 1.83333 2.65685 0
M  V30 561 H 51.8946 3.65291 1.06144 0
M  V30 562 H 53.2066 4.72403 1.60116 0
M  V30 563 H 52.3606 4.60182 3.9537 0
M  V30 564 H 51.0996 3.43685 3.46023 0
M  V30 565 H 50.1046 5.15176 1.92026 0
M  V30 566 H 51.3296 6.33685 2.44171 0
M  V30 567 H 49.2756 5.00132 4.24504 0
M  V30 568 H 49.1926 6.6244 3.64293 0
M  V30 569 H 50.4606 6.18282 4.74708 0
M  V30 570 N 54.6897 -0.239769 1.55765 0
M  V30 571 C 55.9387 -0.964754 1.77131 0
M  V30 572 C 56.2517 -1.86213 0.59868 0
M  V30 573 O 57.4577 -2.6244 0.695522 0
M  V30 574 C 55.9137 -1.76552 3.1362 0
M  V30 575 C 55.5217 -0.915185 4.38553 0
M  V30 576 C 57.2657 -2.48281 3.44321 0
M  V30 577 C 55.1727 -1.71225 5.66071 0
M  V30 578 H 54.1027 -0.363953 0.660344 0
M  V30 579 H 56.7537 -0.219181 1.82186 0
M  V30 580 H 55.1357 -2.55331 3.02691 0
M  V30 581 H 56.3097 -0.169217 4.60489 0
M  V30 582 H 54.6247 -0.310889 4.15238 0
M  V30 583 H 57.2217 -3.08382 4.36812 0
M  V30 584 H 57.5647 -3.20256 2.65973 0
M  V30 585 H 58.0977 -1.76507 3.56497 0
M  V30 586 H 54.8367 -1.03612 6.4726 0
M  V30 587 H 54.3567 -2.43331 5.48224 0
M  V30 588 H 56.0357 -2.27758 6.05587 0
M  V30 589 N 56.1678 -1.49265 -0.50573 0
M  V30 590 C 57.5838 -1.35923 -0.836486 0
M  V30 591 C 57.7838 -0.388704 -1.97715 0
M  V30 592 O 56.8398 0.181336 -2.51848 0
M  V30 593 C 58.1528 -2.76531 -1.18115 0
M  V30 594 C 59.7008 -2.85197 -1.28964 0
M  V30 595 C 60.1758 -4.26561 -1.66761 0
M  V30 596 N 61.6668 -4.2935 -1.73819 0
M  V30 597 C 62.4018 -5.35693 -2.045 0
M  V30 598 N 61.8978 -6.52287 -2.33438 0
M  V30 599 N 63.6908 -5.23105 -2.05711 0
M  V30 600 H 55.8418 -2.10965 0.246519 0
M  V30 601 H 58.1048 -0.9468 0.0476887 0
M  V30 602 H 57.8108 -3.49226 -0.416398 0
M  V30 603 H 57.6848 -3.11599 -2.1257 0
M  V30 604 H 60.0718 -2.12742 -2.04511 0
M  V30 605 H 60.1528 -2.53718 -0.325704 0
M  V30 606 H 59.7968 -4.99541 -0.917656 0
M  V30 607 H 59.7268 -4.55502 -2.64246 0
M  V30 608 H 62.2178 -3.4526 -1.53635 0
M  V30 609 H 62.5308 -7.29158 -2.56024 0
M  V30 610 H 60.8758 -6.55521 -2.30905 0
M  V30 611 H 64.0668 -4.31026 -1.82577 0
M  V30 612 H 64.2398 -6.06078 -2.29289 0
M  V30 613 N 57.6459 0.756429 -1.3826 0
M  V30 614 C 58.5759 1.88374 -1.37976 0
M  V30 615 C 59.5569 1.68311 -0.246082 0
M  V30 616 O 60.7419 1.88944 -0.44874 0
M  V30 617 C 57.8719 3.25864 -1.20125 0
M  V30 618 C 56.8259 3.60523 -2.30666 0
M  V30 619 C 56.1519 4.9672 -1.97923 0
M  V30 620 C 57.4519 3.65692 -3.72916 0
M  V30 621 H 59.1459 1.88869 -2.32312 0
M  V30 622 H 56.6919 0.907272 -1.11824 0
M  V30 623 H 58.6449 4.0438 -1.18552 0
M  V30 624 H 57.3689 3.25841 -0.222498 0
M  V30 625 H 56.0279 2.84324 -2.3142 0
M  V30 626 H 55.6759 4.93253 -0.985393 0
M  V30 627 H 55.3759 5.20878 -2.71955 0
M  V30 628 H 56.8999 5.77618 -1.97964 0
M  V30 629 H 58.3139 4.34328 -3.74208 0
M  V30 630 H 56.7109 4.01358 -4.4613 0
M  V30 631 H 57.7809 2.65987 -4.05436 0
M  V30 632 N 59.124 1.23083 0.984299 0
M  V30 633 C 60.354 1.08556 1.75781 0
M  V30 634 C 60.762 -0.366171 1.85623 0
M  V30 635 O 60.105 -1.26524 1.33182 0
M  V30 636 C 60.167 1.63208 3.20318 0
M  V30 637 C 59.831 3.11922 3.33997 0
M  V30 638 C 60.828 4.09259 3.2063 0
M  V30 639 C 58.513 3.51552 3.58771 0
M  V30 640 C 60.507 5.4421 3.31835 0
M  V30 641 C 58.194 4.86649 3.69616 0
M  V30 642 C 59.192 5.82787 3.56157 0
M  V30 643 O 58.88 7.15431 3.66626 0
M  V30 644 H 58.612 0.380713 0.5586 0
M  V30 645 H 61.166 1.63321 1.2456 0
M  V30 646 H 59.396 1.0286 3.72769 0
M  V30 647 H 61.085 1.44216 3.79416 0
M  V30 648 H 61.851 3.79984 3.01392 0
M  V30 649 H 57.73 2.77239 3.6832 0
M  V30 650 H 61.274 6.1923 3.21247 0
M  V30 651 H 57.171 5.15601 3.88363 0
M  V30 652 H 57.939 7.23127 3.83445 0
M  V30 653 N 60.6021 -1.18246 1.0419 0
M  V30 654 C 61.5501 -2.23968 0.627792 0
M  V30 655 C 62.5441 -1.65828 -0.346019 0
M  V30 656 O 63.7501 -1.78733 -0.213175 0
M  V30 657 H 60.1251 -0.728939 0.184802 0
M  V30 658 H 62.0961 -2.56202 1.52981 0
M  V30 659 C 60.8451 -3.47699 0.00796591 0
M  V30 660 H 60.1681 -3.92734 0.748347 0
M  V30 661 H 61.6081 -4.23294 -0.24455 0
M  V30 662 C 60.0671 -3.13153 -1.24246 0
M  V30 663 O 60.5971 -3.27003 -2.33307 0
M  V30 664 N 58.8031 -2.67467 -1.13622 0
M  V30 665 H 58.3501 -2.56396 -0.248734 0
M  V30 666 H 58.3081 -2.44724 -1.97377 0
M  V30 667 N 62.0802 -0.821533 -1.34494 0
M  V30 668 C 63.0432 -0.247847 -2.27856 0
M  V30 669 C 64.0432 0.573453 -1.50227 0
M  V30 670 O 65.2332 0.389759 -1.69784 0
M  V30 671 C 62.3652 0.652698 -3.34593 0
M  V30 672 H 63.5582 -1.07146 -2.80107 0
M  V30 673 H 61.1112 -0.593291 -1.44602 0
M  V30 674 H 61.8462 1.49943 -2.87555 0
M  V30 675 H 61.6312 0.065292 -3.92046 0
M  V30 676 H 63.1212 1.04793 -4.04238 0
M  V30 677 N 63.5583 1.46682 -0.576371 0
M  V30 678 C 64.4683 2.34032 0.163141 0
M  V30 679 C 65.4843 1.49367 0.892501 0
M  V30 680 O 66.6603 1.82252 0.857106 0
M  V30 681 C 63.7253 3.26435 1.16795 0
M  V30 682 C 62.7863 4.26998 0.443944 0
M  V30 683 C 62.0193 5.14986 1.40088 0
M  V30 684 O 62.2423 5.05785 2.637 0
M  V30 685 O 61.1763 5.94906 0.914917 0
M  V30 686 H 65.0023 2.98607 -0.55388 0
M  V30 687 H 62.5873 1.45554 -0.336821 0
M  V30 688 H 64.4693 3.83459 1.74748 0
M  V30 689 H 63.1443 2.64465 1.86655 0
M  V30 690 H 62.0513 3.7368 -0.177271 0
M  V30 691 H 63.3843 4.91736 -0.213566 0
M  V30 692 N 65.0364 0.313813 1.54444 0
M  V30 693 C 65.9684 -0.590425 2.21465 0
M  V30 694 C 66.9814 -1.08753 1.21147 0
M  V30 695 O 68.1704 -1.00278 1.4767 0
M  V30 696 C 65.2704 -1.82179 2.85769 0
M  V30 697 C 64.4434 -1.46502 4.12136 0
M  V30 698 C 63.5024 -2.55288 4.60124 0
M  V30 699 O 62.5284 -2.19842 5.25032 0
M  V30 700 N 63.7304 -3.86053 4.33525 0
M  V30 701 H 66.4954 -0.0166033 2.99695 0
M  V30 702 H 64.0564 0.136578 1.61323 0
M  V30 703 H 66.0484 -2.54328 3.14801 0
M  V30 704 H 64.6184 -2.30369 2.11303 0
M  V30 705 H 63.8384 -0.575595 3.89975 0
M  V30 706 H 65.1264 -1.20221 4.94393 0
M  V30 707 H 64.5244 -4.17654 3.81552 0
M  V30 708 H 63.0814 -4.54461 4.67235 0
M  V30 709 N 66.5145 -1.57545 0.0417849 0
M  V30 710 C 67.7605 -1.92601 -0.635021 0
M  V30 711 C 68.0935 -0.919627 -1.71045 0
M  V30 712 O 67.3685 0.0557892 -1.9442 0
M  V30 713 C 67.6515 -3.38085 -1.23979 0
M  V30 714 C 67.5045 -4.49467 -0.173057 0
M  V30 715 C 68.8235 -3.83776 -2.15416 0
M  V30 716 H 65.9425 -0.700397 -0.229374 0
M  V30 717 H 68.5845 -1.89728 0.101633 0
M  V30 718 H 66.7345 -3.40664 -1.86762 0
M  V30 719 H 68.4065 -4.59018 0.458312 0
M  V30 720 H 66.6495 -4.30909 0.499996 0
M  V30 721 H 67.3205 -5.48323 -0.636054 0
M  V30 722 H 69.7965 -3.83013 -1.62605 0
M  V30 723 H 68.6725 -4.8624 -2.54679 0
M  V30 724 H 68.9335 -3.19998 -3.05047 0
M  V30 725 N 67.9926 0.231505 -1.5589 0
M  V30 726 C 68.9226 1.29022 -1.94617 0
M  V30 727 C 69.9036 1.4941 -0.813067 0
M  V30 728 O 71.0886 1.6176 -1.07459 0
M  V30 729 C 68.2186 2.64199 -2.25424 0
M  V30 730 C 67.1726 2.58484 -3.41131 0
M  V30 731 C 66.4986 3.97599 -3.57518 0
M  V30 732 C 67.7986 2.1413 -4.76388 0
M  V30 733 H 69.4926 0.968563 -2.83301 0
M  V30 734 H 67.0386 0.464479 -1.36303 0
M  V30 735 H 68.9916 3.38413 -2.51107 0
M  V30 736 H 67.7156 2.98032 -1.33583 0
M  V30 737 H 66.3746 1.86727 -3.15481 0
M  V30 738 H 66.0226 4.28723 -2.6307 0
M  V30 739 H 65.7226 3.94659 -4.35337 0
M  V30 740 H 67.2466 4.7349 -3.85538 0
M  V30 741 H 68.6606 2.78083 -5.01341 0
M  V30 742 H 67.0576 2.2227 -5.57419 0
M  V30 743 H 68.1276 1.09331 -4.72414 0
M  V30 744 N 69.4707 1.49531 0.497807 0
M  V30 745 C 70.6957 1.63159 1.28039 0
M  V30 746 C 71.1207 0.30418 1.85624 0
M  V30 747 O 70.4787 -0.728618 1.66015 0
M  V30 748 C 70.5267 2.70537 2.38416 0
M  V30 749 O 69.6307 2.29931 3.42353 0
M  V30 750 H 68.9717 0.546001 0.377861 0
M  V30 751 H 71.5017 1.9574 0.59558 0
M  V30 752 H 71.5117 2.92802 2.84132 0
M  V30 753 H 70.1867 3.6689 1.95869 0
M  V30 754 H 68.7637 2.18009 3.02533 0
M  V30 755 N 70.9488 -0.749086 1.3866 0
M  V30 756 C 72.1948 -1.50959 1.36319 0
M  V30 757 C 72.5498 -1.92347 -0.0452451 0
M  V30 758 O 71.8428 -1.6289 -1.00884 0
M  V30 759 C 72.0368 -2.7712 2.25697 0
M  V30 760 C 71.8658 -2.48067 3.7509 0
M  V30 761 C 70.6358 -2.41062 4.44091 0
M  V30 762 C 72.8338 -2.14544 4.67414 0
M  V30 763 N 70.8158 -2.04331 5.78897 0
M  V30 764 C 72.1868 -1.88141 5.90765 0
M  V30 765 C 74.2418 -2.00892 4.55573 0
M  V30 766 C 72.9448 -1.49463 7.036 0
M  V30 767 C 74.9708 -1.63616 5.68317 0
M  V30 768 C 74.3328 -1.38088 6.90732 0
M  V30 769 H 70.4318 -0.551804 0.554108 0
M  V30 770 H 73.0158 -0.871886 1.74087 0
M  V30 771 H 71.1868 -3.38693 1.9011 0
M  V30 772 H 72.9188 -3.4321 2.1445 0
M  V30 773 H 69.6738 -2.57685 3.9736 0
M  V30 774 H 70.0978 -1.88598 6.502 0
M  V30 775 H 74.7398 -2.19301 3.61479 0
M  V30 776 H 72.4578 -1.29794 7.97608 0
M  V30 777 H 76.0438 -1.53678 5.61137 0
M  V30 778 H 74.9238 -1.09674 7.76493 0
M  V30 779 N 72.4269 -1.23603 -0.977757 0
M  V30 780 C 73.3369 -1.03632 -2.1047 0
M  V30 781 C 74.3529 0.0199435 -1.73989 0
M  V30 782 O 75.5289 -0.176076 -2.00629 0
M  V30 783 C 72.5939 -0.63276 -3.40877 0
M  V30 784 C 71.6549 -1.76437 -3.91367 0
M  V30 785 C 70.8879 -1.37997 -5.15551 0
M  V30 786 O 71.1109 -0.265357 -5.69782 0
M  V30 787 O 70.0449 -2.20201 -5.60174 0
M  V30 788 H 73.8709 -1.98086 -2.30208 0
M  V30 789 H 71.4559 -1.02332 -1.08851 0
M  V30 790 H 73.3379 -0.418761 -4.19314 0
M  V30 791 H 72.0129 0.282754 -3.22463 0
M  V30 792 H 70.9199 -2.03304 -3.14036 0
M  V30 793 H 72.2529 -2.6583 -4.14241 0
M  V30 794 N 73.905 1.17692 -1.04816 0
M  V30 795 C 75.316 1.69501 -0.782698 0
M  V30 796 C 75.667 1.83456 0.695577 0
M  V30 797 O 74.792 1.51942 1.54086 0
M  V30 798 C 75.387 3.07874 -1.41419 0
M  V30 799 C 73.946 3.56864 -1.19686 0
M  V30 800 C 73.093 2.3322 -1.50012 0
M  V30 801 H 76.044 1.02262 -1.2136 0
M  V30 802 H 76.065 3.71528 -0.821428 0
M  V30 803 H 75.577 2.97685 -2.49009 0
M  V30 804 H 73.678 3.72337 -0.140043 0
M  V30 805 H 73.791 4.39851 -1.89916 0
M  V30 806 H 72.155 2.37501 -0.920071 0
M  V30 807 H 72.938 2.25644 -2.58727 0
M  V30 808 N 75.3831 0.828654 1.34056 0
M  V30 809 C 76.6291 0.42008 1.98402 0
M  V30 810 C 76.9621 -1.01564 1.65525 0
M  V30 811 O 76.2371 -1.70834 0.929831 0
M  V30 812 C 76.5201 0.62927 3.54559 0
M  V30 813 C 76.3731 2.11152 3.97159 0
M  V30 814 C 77.6921 0.0688756 4.40046 0
M  V30 815 H 74.8111 0.154104 0.720709 0
M  V30 816 H 77.4531 1.04228 1.5886 0
M  V30 817 H 75.6031 0.0996418 3.88372 0
M  V30 818 H 77.2751 2.70522 3.73651 0
M  V30 819 H 75.5181 2.59985 3.47261 0
M  V30 820 H 76.1891 2.20868 5.05887 0
M  V30 821 H 78.6651 0.521458 4.1282 0
M  V30 822 H 77.5411 0.245006 5.48353 0
M  V30 823 H 77.8021 -1.0266 4.30015 0
M  V30 824 N 76.8612 -1.46375 0.584142 0
M  V30 825 C 77.8242 -2.28784 -0.138108 0
M  V30 826 C 78.8242 -1.38471 -0.817462 0
M  V30 827 O 80.0142 -1.60833 -0.669199 0
M  V30 828 C 77.1462 -3.18892 -1.20503 0
M  V30 829 H 78.3392 -2.94117 0.586127 0
M  V30 830 H 75.8922 -1.52509 0.342171 0
M  V30 831 H 76.6272 -2.58309 -1.96079 0
M  V30 832 H 76.4122 -3.85388 -0.722384 0
M  V30 833 H 77.9022 -3.80914 -1.71155 0
M  V30 834 N 78.3393 -0.321999 -1.54275 0
M  V30 835 C 79.2693 0.537411 -2.27231 0
M  V30 836 C 80.2503 1.12064 -1.27968 0
M  V30 837 O 81.4353 1.14606 -1.56777 0
M  V30 838 C 78.5653 1.69919 -3.02894 0
M  V30 839 C 77.5193 1.24534 -4.09482 0
M  V30 840 C 76.8453 2.49394 -4.72977 0
M  V30 841 C 78.1453 0.361335 -5.21049 0
M  V30 842 H 79.8393 -0.0711406 -2.99315 0
M  V30 843 H 77.3853 -0.0356555 -1.43956 0
M  V30 844 H 79.3383 2.30668 -3.52662 0
M  V30 845 H 78.0623 2.33431 -2.28424 0
M  V30 846 H 76.7213 0.660782 -3.60596 0
M  V30 847 H 76.3693 3.11265 -3.95124 0
M  V30 848 H 76.0693 2.19718 -5.44975 0
M  V30 849 H 77.5933 3.10908 -5.25517 0
M  V30 850 H 79.0073 0.875072 -5.66582 0
M  V30 851 H 77.4043 0.157428 -5.99893 0
M  V30 852 H 78.4743 -0.60822 -4.8107 0
M  V30 853 N 79.8174 1.5752 -0.0501392 0
M  V30 854 C 81.0424 1.97376 0.636997 0
M  V30 855 C 81.4674 0.927466 1.63645 0
M  V30 856 O 80.8254 -0.10941 1.8097 0
M  V30 857 C 80.8734 3.36304 1.30123 0
M  V30 858 O 79.9774 3.34156 2.41689 0
M  V30 859 H 79.3184 0.642998 0.165679 0
M  V30 860 H 81.8484 2.04258 -0.118233 0
M  V30 861 H 81.8584 3.73008 1.65315 0
M  V30 862 H 80.5334 4.11993 0.568746 0
M  V30 863 H 79.1104 3.09196 2.08451 0
M  V30 864 N 81.2955 -0.223234 1.56011 0
M  V30 865 C 82.2435 -1.29627 1.93131 0
M  V30 866 C 83.2375 -1.48608 0.813146 0
M  V30 867 O 84.4435 -1.49802 0.997966 0
M  V30 868 H 80.8185 -0.434563 0.613726 0
M  V30 869 H 82.7895 -0.955995 2.82672 0
M  V30 870 C 81.5385 -2.63983 2.26292 0
M  V30 871 H 80.8615 -2.50185 3.11846 0
M  V30 872 H 82.3015 -3.3788 2.56151 0
M  V30 873 C 80.7605 -3.18866 1.08747 0
M  V30 874 O 81.2905 -4.00192 0.347727 0
M  V30 875 N 79.4965 -2.77217 0.871743 0
M  V30 876 H 79.0435 -2.1119 1.47501 0
M  V30 877 H 79.0015 -3.1428 0.0869905 0
M  V30 878 N 82.7736 -1.49793 -0.48987 0
M  V30 879 C 83.9986 -1.63836 -1.27172 0
M  V30 880 C 84.4236 -0.31402 -1.8546 0
M  V30 881 O 83.7816 0.719803 -1.66399 0
M  V30 882 C 83.8296 -2.71797 -2.36978 0
M  V30 883 O 82.9336 -2.31744 -3.41128 0
M  V30 884 H 82.2746 -0.547997 -0.37496 0
M  V30 885 H 84.8046 -1.96053 -0.585191 0
M  V30 886 H 84.8146 -2.94305 -2.82575 0
M  V30 887 H 83.4896 -3.67923 -1.93921 0
M  V30 888 H 82.0666 -2.1961 -3.01373 0
M  V30 889 N 84.2517 0.741722 -1.39055 0
M  V30 890 C 85.4797 1.53098 -1.39171 0
M  V30 891 C 85.8947 1.88794 0.0155099 0
M  V30 892 O 85.2517 1.53626 0.985159 0
M  V30 893 C 85.3027 2.82274 -2.2584 0
M  V30 894 O 85.0237 2.48097 -3.61081 0
M  V30 895 C 86.5247 3.76343 -2.34266 0
M  V30 896 H 83.7447 0.473335 -0.4756 0
M  V30 897 H 86.2887 0.917045 -1.82785 0
M  V30 898 H 84.4437 3.40015 -1.85656 0
M  V30 899 H 84.8577 3.31029 -4.06842 0
M  V30 900 H 86.3317 4.63898 -2.9917 0
M  V30 901 H 86.8087 4.17619 -1.35982 0
M  V30 902 H 87.4147 3.24523 -2.74891 0
M  V30 903 N 85.7298 1.2412 0.971189 0
M  V30 904 C 87.1458 1.00584 1.23916 0
M  V30 905 C 87.3458 -0.287481 1.99439 0
M  V30 906 O 86.4018 -1.00454 2.31658 0
M  V30 907 C 87.7148 2.21864 2.0297 0
M  V30 908 C 89.2628 2.26452 2.16076 0
M  V30 909 C 89.7378 3.47343 2.98524 0
M  V30 910 N 91.2288 3.47639 3.06107 0
M  V30 911 C 91.9638 4.37837 3.70251 0
M  V30 912 N 91.4598 5.38286 4.36142 0
M  V30 913 N 93.2528 4.25558 3.67228 0
M  V30 914 H 85.4038 2.07236 0.465499 0
M  V30 915 H 87.6668 0.909236 0.268315 0
M  V30 916 H 87.3728 3.15771 1.54861 0
M  V30 917 H 87.2468 2.23698 3.03709 0
M  V30 918 H 89.6338 1.33078 2.6339 0
M  V30 919 H 89.7148 2.28645 1.14696 0
M  V30 920 H 89.3588 4.41029 2.51905 0
M  V30 921 H 89.2888 3.42393 4.00093 0
M  V30 922 H 91.7798 2.74966 2.59233 0
M  V30 923 H 92.0928 6.03352 4.82894 0
M  V30 924 H 90.4378 5.42176 4.34822 0
M  V30 925 H 93.6288 3.46322 3.14927 0
M  V30 926 H 93.8018 4.96054 4.16935 0
M  V30 927 N 87.2079 -1.17134 1.05439 0
M  V30 928 C 88.6189 -1.69084 0.791676 0
M  V30 929 C 88.9699 -1.83822 -0.685839 0
M  V30 930 O 88.0949 -1.52757 -1.53278 0
M  V30 931 C 88.6899 -3.07119 1.4305 0
M  V30 932 C 87.2489 -3.56225 1.21577 0
M  V30 933 C 86.3959 -2.32421 1.51247 0
M  V30 934 H 89.3469 -1.01617 1.219 0
M  V30 935 H 89.3679 -3.71087 0.84112 0
M  V30 936 H 88.8799 -2.9636 2.50584 0
M  V30 937 H 86.9809 -3.72257 0.159787 0
M  V30 938 H 87.0939 -4.38837 1.92246 0
M  V30 939 H 85.4579 -2.3701 0.932653 0
M  V30 940 H 86.2409 -2.24268 2.5992 0
M  V30 941 N 88.686 -0.835752 -1.33615 0
M  V30 942 C 89.932 -0.430596 -1.98176 0
M  V30 943 C 90.265 1.00684 -1.66061 0
M  V30 944 O 89.54 1.70339 -0.938877 0
M  V30 945 C 89.823 -0.648065 -3.5422 0
M  V30 946 C 89.676 -2.13255 -3.96033 0
M  V30 947 C 90.995 -0.0922113 -4.40003 0
M  V30 948 H 88.114 -0.157924 -0.719881 0
M  V30 949 H 90.756 -1.05069 -1.58305 0
M  V30 950 H 88.906 -0.120237 -3.88314 0
M  V30 951 H 90.578 -2.725 -3.72211 0
M  V30 952 H 88.821 -2.61823 -3.45878 0
M  V30 953 H 89.492 -2.23547 -5.04708 0
M  V30 954 H 91.968 -0.543343 -4.12537 0
M  V30 955 H 90.844 -0.274083 -5.48215 0
M  V30 956 H 91.105 1.00378 -4.30554 0
M  V30 957 N 90.1641 1.46063 -0.591896 0
M  V30 958 C 91.4101 2.02638 -0.0811191 0
M  V30 959 C 91.7431 1.4613 1.27905 0
M  V30 960 O 91.0181 0.629908 1.84017 0
M  V30 961 C 91.3011 3.60091 -0.0252436 0
M  V30 962 C 91.1541 4.26965 -1.41496 0
M  V30 963 C 92.4731 4.3496 0.670685 0
M  V30 964 H 89.5921 0.73635 -0.0309524 0
M  V30 965 H 92.2341 1.741 -0.760859 0
M  V30 966 H 90.3841 3.84535 0.553624 0
M  V30 967 H 92.0561 4.13756 -2.0397 0
M  V30 968 H 90.2991 3.85971 -1.98011 0
M  V30 969 H 90.9701 5.35781 -1.32825 0
M  V30 970 H 93.4461 4.15716 0.178825 0
M  V30 971 H 92.3221 5.44686 0.678837 0
M  V30 972 H 92.5831 4.06685 1.73379 0
M  V30 973 N 91.6422 0.330177 1.54103 0
M  V30 974 C 92.8722 -0.271784 2.04805 0
M  V30 975 C 93.2802 -1.45816 1.20559 0
M  V30 976 O 92.6232 -1.82247 0.2306 0
M  V30 977 C 92.6852 -0.763238 3.51305 0
M  V30 978 C 92.3492 0.301705 4.56003 0
M  V30 979 C 93.3462 1.13999 5.07248 0
M  V30 980 C 91.0312 0.451793 5.00264 0
M  V30 981 C 93.0252 2.11402 6.01322 0
M  V30 982 C 90.7122 1.42924 5.94151 0
M  V30 983 C 91.7102 2.25882 6.44567 0
M  V30 984 O 91.3982 3.21965 7.3661 0
M  V30 985 H 91.1302 -0.058693 0.673447 0
M  V30 986 H 93.6842 0.476395 1.99799 0
M  V30 987 H 91.9142 -1.56244 3.5373 0
M  V30 988 H 93.6032 -1.28427 3.85047 0
M  V30 989 H 94.3692 1.03505 4.73827 0
M  V30 990 H 90.2482 -0.184044 4.60632 0
M  V30 991 H 93.7922 2.76192 6.40596 0
M  V30 992 H 89.6892 1.53479 6.26988 0
M  V30 993 H 90.4572 3.17281 7.54503 0
M  V30 994 N 93.1203 -1.57491 0.0584922 0
M  V30 995 C 94.0523 -2.08916 -0.942694 0
M  V30 996 C 95.0653 -1.0185 -1.27006 0
M  V30 997 O 96.2543 -1.29398 -1.22957 0
M  V30 998 C 93.3543 -2.52341 -2.26224 0
M  V30 999 C 92.5273 -3.82827 -2.1157 0
M  V30 1000 C 91.5863 -4.12487 -3.26712 0
M  V30 1001 O 90.6123 -4.82295 -3.02292 0
M  V30 1002 N 91.8143 -3.64978 -4.5141 0
M  V30 1003 H 94.5793 -2.95437 -0.503722 0
M  V30 1004 H 92.1403 -1.61397 -0.12757 0
M  V30 1005 H 94.1323 -2.69254 -3.02133 0
M  V30 1006 H 92.7023 -1.7103 -2.61663 0
M  V30 1007 H 91.9223 -3.75425 -1.20208 0
M  V30 1008 H 93.2103 -4.68263 -1.99015 0
M  V30 1009 H 92.6083 -3.08558 -4.7414 0
M  V30 1010 H 91.1653 -3.87115 -5.2439 0
M  V30 1011 N 94.5984 0.214957 -1.56127 0
M  V30 1012 C 95.8444 0.939762 -1.79712 0
M  V30 1013 C 96.1774 1.83723 -0.629247 0
M  V30 1014 O 95.4524 1.90925 0.371197 0
M  V30 1015 C 95.7354 1.77306 -3.13424 0
M  V30 1016 C 95.5884 0.90164 -4.40671 0
M  V30 1017 C 96.9074 2.74956 -3.43638 0
M  V30 1018 H 94.0264 0.340214 -0.653776 0
M  V30 1019 H 96.6684 0.20824 -1.88855 0
M  V30 1020 H 94.8184 2.39673 -3.0576 0
M  V30 1021 H 96.4904 0.294206 -4.60361 0
M  V30 1022 H 94.7334 0.207368 -4.33304 0
M  V30 1023 H 95.4044 1.51923 -5.30682 0
M  V30 1024 H 97.8804 2.22724 -3.51473 0
M  V30 1025 H 96.7564 3.30358 -4.38355 0
M  V30 1026 H 97.0174 3.53023 -2.66134 0
M  V30 1027 N 96.0765 1.50051 0.48192 0
M  V30 1028 C 97.0085 1.64263 1.59844 0
M  V30 1029 C 98.0215 0.52451 1.54119 0
M  V30 1030 O 99.2105 0.797293 1.59704 0
M  V30 1031 C 96.3105 1.60102 2.98698 0
M  V30 1032 C 95.4835 2.87767 3.29407 0
M  V30 1033 C 94.5425 2.76397 4.47762 0
M  V30 1034 O 93.5685 3.50348 4.48603 0
M  V30 1035 N 94.7705 1.89222 5.48794 0
M  V30 1036 H 97.5355 2.60566 1.48073 0
M  V30 1037 H 95.0965 1.47379 0.670149 0
M  V30 1038 H 97.0885 1.50123 3.75826 0
M  V30 1039 H 95.6585 0.715798 3.04294 0
M  V30 1040 H 94.8785 3.11954 2.40994 0
M  V30 1041 H 96.1665 3.72365 3.4673 0
M  V30 1042 H 95.5645 1.28434 5.50928 0
M  V30 1043 H 94.1215 1.85154 6.24949 0
M  V30 1044 N 97.5546 -0.734337 1.39446 0
M  V30 1045 C 98.8016 -1.49391 1.36706 0
M  V30 1046 C 99.1296 -1.94465 -0.0367813 0
M  V30 1047 O 98.3846 -1.67154 -1.01774 0
M  V30 1048 C 98.6836 -2.74711 2.28623 0
M  V30 1049 C 98.3496 -2.48501 3.76242 0
M  V30 1050 C 97.0116 -2.41062 4.16464 0
M  V30 1051 C 99.3636 -2.26098 4.69606 0
M  V30 1052 C 96.6916 -2.09262 5.48112 0
M  V30 1053 C 99.0436 -1.95814 6.01531 0
M  V30 1054 C 97.7076 -1.86845 6.40816 0
M  V30 1055 H 96.9776 -0.546661 0.500243 0
M  V30 1056 H 99.6246 -0.842788 1.71957 0
M  V30 1057 H 97.9296 -3.44569 1.86492 0
M  V30 1058 H 99.6266 -3.32741 2.23796 0
M  V30 1059 H 96.2166 -2.55169 3.44364 0
M  V30 1060 H 100.401 -2.30812 4.39363 0
M  V30 1061 H 95.6566 -2.00841 5.77471 0
M  V30 1062 H 99.8306 -1.77488 6.73403 0
M  V30 1063 H 97.4576 -1.6197 7.42745 0
M  V30 1064 N 99.0327 -1.24633 -0.964593 0
M  V30 1065 C 99.9797 -1.04144 -2.05968 0
M  V30 1066 C 100.95 0.046262 -1.66036 0
M  V30 1067 O 102.135 -0.108972 -1.90489 0
M  V30 1068 C 99.2747 -0.65563 -3.38815 0
M  V30 1069 C 98.3877 -1.81714 -3.91923 0
M  V30 1070 C 97.5227 -1.37662 -5.13052 0
M  V30 1071 C 96.5617 -2.50788 -5.58365 0
M  V30 1072 N 95.6987 -2.07582 -6.70712 0
M  V30 1073 H 100.539 -1.9787 -2.22827 0
M  V30 1074 H 98.0757 -0.9855 -1.09208 0
M  V30 1075 H 100.034 -0.412954 -4.15151 0
M  V30 1076 H 98.6637 0.244627 -3.21872 0
M  V30 1077 H 97.7157 -2.1734 -3.12198 0
M  V30 1078 H 99.0277 -2.66705 -4.21509 0
M  V30 1079 H 98.1817 -1.093 -5.96773 0
M  V30 1080 H 96.9207 -0.497293 -4.85158 0
M  V30 1081 H 95.9257 -2.79906 -4.73215 0
M  V30 1082 H 97.1507 -3.39283 -5.88272 0
M  V30 1083 H 95.0967 -1.22051 -6.44546 0
M  V30 1084 H 95.0137 -2.86125 -6.99763 0
M  V30 1085 H 96.2817 -1.82369 -7.57867 0
M  V30 1086 N 100.511 1.16574 -1.06058 0
M  V30 1087 C 101.741 1.90675 -0.795397 0
M  V30 1088 C 102.149 1.77547 0.653735 0
M  V30 1089 O 101.492 1.11611 1.45907 0
M  V30 1090 C 101.554 3.42011 -1.10764 0
M  V30 1091 C 101.218 3.78924 -2.55471 0
M  V30 1092 C 102.215 3.81042 -3.53699 0
M  V30 1093 C 99.8998 4.09626 -2.90708 0
M  V30 1094 C 101.894 4.13346 -4.85205 0
M  V30 1095 C 99.5808 4.41597 -4.22416 0
M  V30 1096 C 100.579 4.43436 -5.19474 0
M  V30 1097 O 100.267 4.74649 -6.48817 0
M  V30 1098 H 99.9988 0.611554 -0.288058 0
M  V30 1099 H 102.553 1.48711 -1.41683 0
M  V30 1100 H 100.783 3.84312 -0.429128 0
M  V30 1101 H 102.472 3.97384 -0.827077 0
M  V30 1102 H 103.238 3.57437 -3.27817 0
M  V30 1103 H 99.1168 4.07361 -2.15819 0
M  V30 1104 H 102.661 4.14696 -5.60957 0
M  V30 1105 H 98.5578 4.64667 -4.48056 0
M  V30 1106 H 99.3258 4.9247 -6.5377 0
M  V30 1107 N 101.989 0.842826 1.3317 0
M  V30 1108 C 103.217 0.454055 2.01856 0
M  V30 1109 C 103.632 -0.94587 1.63397 0
M  V30 1110 O 102.989 -1.61534 0.849302 0
M  V30 1111 C 103.04 0.569715 3.56982 0
M  V30 1112 O 102.761 1.91448 3.94055 0
M  V30 1113 C 104.262 0.178412 4.42941 0
M  V30 1114 H 101.482 0.17979 0.646465 0
M  V30 1115 H 104.026 1.1365 1.70012 0
M  V30 1116 H 102.181 -0.0648587 3.87346 0
M  V30 1117 H 102.595 1.90282 4.88767 0
M  V30 1118 H 104.069 0.310376 5.51127 0
M  V30 1119 H 104.546 -0.880056 4.30293 0
M  V30 1120 H 105.152 0.787579 4.17944 0
M  V30 1121 N 103.467 -1.45747 0.599634 0
M  V30 1122 C 104.744 -1.95585 0.0240846 0
M  V30 1123 C 105.124 -1.54217 -1.44154 0
M  V30 1124 O 104.472 -0.800903 -2.14004 0
M  V30 1125 C 104.682 -3.48344 0.21385 0
M  V30 1126 C 106.03 -4.24504 0.0904902 0
M  V30 1127 O 107.054 -3.55911 0.143558 0
M  V30 1128 O 105.913 -5.46491 -0.0310766 0
M  V30 1129 H 103.007 -0.82602 -0.0402478 0
M  V30 1130 H 105.553 -1.55951 0.669139 0
M  V30 1131 H 104.325 -3.71397 1.23206 0
M  V30 1132 H 103.948 -3.9485 -0.466842 0
M  V30 1133 N 104.945 -0.338344 -1.53925 0
M  V30 1134 C 106.17 0.263987 -2.05713 0
M  V30 1135 C 106.595 1.43847 -1.21201 0
M  V30 1136 O 105.953 1.79904 -0.224535 0
M  V30 1137 C 106.001 0.662 -3.54471 0
M  V30 1138 O 105.105 1.76265 -3.72833 0
M  V30 1139 H 104.446 0.0448722 -0.662482 0
M  V30 1140 H 106.976 -0.491048 -1.9862 0
M  V30 1141 H 106.986 0.940594 -3.9701 0
M  V30 1142 H 105.661 -0.196937 -4.15433 0
M  V30 1143 H 104.238 1.48173 -3.42198 0
M  V30 1144 N 106.423 1.57458 -0.0668435 0
M  V30 1145 C 107.37 2.12439 0.902122 0
M  V30 1146 C 108.34 1.03565 1.2986 0
M  V30 1147 O 109.525 1.312 1.38532 0
M  V30 1148 C 106.665 2.6865 2.16614 0
M  V30 1149 C 105.778 3.91663 1.82274 0
M  V30 1150 C 104.913 4.36134 3.0325 0
M  V30 1151 C 103.952 5.51808 2.64904 0
M  V30 1152 N 103.089 5.9126 3.78624 0
M  V30 1153 H 107.929 2.94934 0.426382 0
M  V30 1154 H 105.466 1.4575 0.198819 0
M  V30 1155 H 107.424 2.99346 2.90599 0
M  V30 1156 H 106.054 1.88928 2.61737 0
M  V30 1157 H 105.106 3.6746 0.983719 0
M  V30 1158 H 106.418 4.75693 1.50059 0
M  V30 1159 H 105.572 4.68465 3.85519 0
M  V30 1160 H 104.311 3.50948 3.38655 0
M  V30 1161 H 103.316 5.19133 1.81055 0
M  V30 1162 H 104.541 6.38722 2.30675 0
M  V30 1163 H 102.487 5.09024 4.138 0
M  V30 1164 H 102.404 6.70018 3.5016 0
M  V30 1165 H 103.672 6.28212 4.61486 0
M  V30 1166 N 107.901 -0.206675 1.56239 0
M  V30 1167 C 109.147 -0.925733 1.81113 0
M  V30 1168 C 109.502 -1.81368 0.642135 0
M  V30 1169 O 108.795 -1.88126 -0.363211 0
M  V30 1170 C 108.989 -1.78675 3.09532 0
M  V30 1171 C 108.818 -0.98365 4.3881 0
M  V30 1172 C 107.588 -0.672661 5.00803 0
M  V30 1173 C 109.786 -0.341847 5.13163 0
M  V30 1174 N 107.768 0.150283 6.13716 0
M  V30 1175 C 109.139 0.343815 6.19046 0
M  V30 1176 C 111.194 -0.256392 4.97239 0
M  V30 1177 C 109.897 1.10678 7.10734 0
M  V30 1178 C 111.923 0.493142 5.8934 0
M  V30 1179 C 111.285 1.16729 6.94661 0
M  V30 1180 H 107.384 -0.318524 0.714189 0
M  V30 1181 H 109.968 -0.195378 1.93717 0
M  V30 1182 H 108.139 -2.4888 2.98183 0
M  V30 1183 H 109.871 -2.44441 3.22538 0
M  V30 1184 H 106.626 -0.994294 4.63045 0
M  V30 1185 H 107.05 0.551026 6.74754 0
M  V30 1186 H 111.692 -0.763249 4.15854 0
M  V30 1187 H 109.41 1.6251 7.91591 0
M  V30 1188 H 112.996 0.560465 5.79094 0
M  V30 1189 H 111.876 1.738 7.64698 0
M  V30 1190 N 109.379 -1.50304 -0.473955 0
M  V30 1191 C 110.626 -1.6115 -1.22625 0
M  V30 1192 C 110.954 -0.310517 -1.92005 0
M  V30 1193 O 110.209 0.703419 -1.82621 0
M  V30 1194 C 110.508 -2.73938 -2.29549 0
M  V30 1195 C 110.174 -4.14519 -1.7744 0
M  V30 1196 C 108.836 -4.5277 -1.62949 0
M  V30 1197 C 111.188 -5.02392 -1.3875 0
M  V30 1198 C 108.516 -5.76639 -1.08187 0
M  V30 1199 C 110.868 -6.26805 -0.854309 0
M  V30 1200 C 109.532 -6.63861 -0.696011 0
M  V30 1201 H 108.802 -0.589691 -0.448715 0
M  V30 1202 H 111.449 -1.84228 -0.522705 0
M  V30 1203 H 109.754 -2.44937 -3.05799 0
M  V30 1204 H 111.451 -2.79534 -2.87509 0
M  V30 1205 H 108.041 -3.8434 -1.89685 0
M  V30 1206 H 112.225 -4.73474 -1.4878 0
M  V30 1207 H 107.481 -6.04027 -0.946666 0
M  V30 1208 H 111.655 -6.94258 -0.545843 0
M  V30 1209 H 109.282 -7.59722 -0.26952 0
M  V30 1210 N 110.857 0.726932 -1.39834 0
M  V30 1211 C 112.085 1.51613 -1.40787 0
M  V30 1212 C 112.5 1.88799 -0.00451505 0
M  V30 1213 O 111.857 1.54662 0.968809 0
M  V30 1214 C 111.908 2.79863 -2.28821 0
M  V30 1215 O 111.629 2.44253 -3.63692 0
M  V30 1216 C 113.13 3.73837 -2.38245 0
M  V30 1217 H 110.35 0.468264 -0.480593 0
M  V30 1218 H 112.894 0.897607 -1.83748 0
M  V30 1219 H 111.049 3.38027 -1.89252 0
M  V30 1220 H 111.463 3.26695 -4.1033 0
M  V30 1221 H 112.937 4.60699 -3.04073 0
M  V30 1222 H 113.414 4.16153 -1.40403 0
M  V30 1223 H 114.02 3.21589 -2.78317 0
M  V30 1224 N 112.336 1.25143 0.95797 0
M  V30 1225 C 113.299 1.05321 2.03569 0
M  V30 1226 C 114.299 0.007152 1.60798 0
M  V30 1227 O 115.489 0.24903 1.72411 0
M  V30 1228 C 112.621 0.598394 3.35607 0
M  V30 1229 H 113.814 2.00986 2.22586 0
M  V30 1230 H 111.367 1.07502 1.13459 0
M  V30 1231 H 112.102 -0.361014 3.22284 0
M  V30 1232 H 111.887 1.35351 3.67998 0
M  V30 1233 H 113.377 0.48104 4.1482 0
M  V30 1234 N 113.814 -1.1601 1.06675 0
M  V30 1235 C 115.091 -1.82679 0.699114 0
M  V30 1236 C 115.471 -1.94559 -0.819137 0
M  V30 1237 O 114.819 -1.49169 -1.73092 0
M  V30 1238 C 115.029 -3.19445 1.40555 0
M  V30 1239 C 116.377 -3.95171 1.55323 0
M  V30 1240 O 117.401 -3.28976 1.36577 0
M  V30 1241 O 116.26 -5.13833 1.86112 0
M  V30 1242 H 113.354 -0.788954 0.247951 0
M  V30 1243 H 115.9 -1.23179 1.16726 0
M  V30 1244 H 114.672 -3.05856 2.44065 0
M  V30 1245 H 114.295 -3.86625 0.927733 0
M  V30 1246 N 115.292 -0.849877 -1.32721 0
M  V30 1247 C 116.541 -0.447175 -1.96681 0
M  V30 1248 C 116.854 1.00135 -1.68025 0
M  V30 1249 O 118.06 1.50926 -2.25685 0
M  V30 1250 C 116.516 -0.7487 -3.52026 0
M  V30 1251 C 116.124 -2.21264 -3.89546 0
M  V30 1252 C 117.868 -0.413487 -4.22481 0
M  V30 1253 C 115.775 -2.45763 -5.37917 0
M  V30 1254 H 114.705 -0.163486 -0.736063 0
M  V30 1255 H 117.356 -1.03999 -1.51183 0
M  V30 1256 H 115.738 -0.0853727 -3.95908 0
M  V30 1257 H 116.912 -2.91736 -3.56689 0
M  V30 1258 H 115.227 -2.5119 -3.32103 0
M  V30 1259 H 117.824 -0.574017 -5.3161 0
M  V30 1260 H 118.167 0.644492 -4.11281 0
M  V30 1261 H 118.7 -1.03251 -3.84167 0
M  V30 1262 H 115.439 -3.50168 -5.54132 0
M  V30 1263 H 114.959 -1.79864 -5.72197 0
M  V30 1264 H 116.638 -2.29471 -6.0494 0
M  V30 1265 N 116.77 1.45427 -0.607355 0
M  V30 1266 C 117.703 2.27635 0.160482 0
M  V30 1267 C 118.681 1.37122 0.873857 0
M  V30 1268 O 119.865 1.66551 0.882775 0
M  V30 1269 C 116.992 3.15486 1.23231 0
M  V30 1270 C 116.038 4.21939 0.622097 0
M  V30 1271 S 116.871 5.32459 -0.569852 0
M  V30 1272 C 118.027 6.23879 0.502577 0
M  V30 1273 H 118.26 2.9241 -0.536983 0
M  V30 1274 H 115.793 1.49265 -0.394868 0
M  V30 1275 H 117.751 3.66659 1.84585 0
M  V30 1276 H 116.412 2.49977 1.90185 0
M  V30 1277 H 115.605 4.8333 1.42856 0
M  V30 1278 H 115.207 3.73906 0.0837063 0
M  V30 1279 H 117.499 6.63261 1.38171 0
M  V30 1280 H 118.442 7.0806 -0.0751759 0
M  V30 1281 H 118.85 5.58545 0.8178 0
M  V30 1282 N 118.248 0.346503 1.53744 0
M  V30 1283 C 119.473 -0.253074 2.0585 0
M  V30 1284 C 119.898 -1.43202 1.21962 0
M  V30 1285 O 119.256 -1.79783 0.234073 0
M  V30 1286 C 119.304 -0.643193 3.54817 0
M  V30 1287 O 118.408 -1.74286 3.73762 0
M  V30 1288 H 117.749 -0.0413583 0.662711 0
M  V30 1289 H 120.279 0.501574 1.98357 0
M  V30 1290 H 120.289 -0.919526 3.97503 0
M  V30 1291 H 118.964 0.218966 4.15323 0
M  V30 1292 H 117.541 -1.46356 3.42979 0
M  V30 1293 N 119.726 -1.57421 0.075193 0
M  V30 1294 C 120.975 -1.92794 -0.592731 0
M  V30 1295 C 121.288 -0.957478 -1.70563 0
M  V30 1296 O 122.494 -1.20417 -2.43335 0
M  V30 1297 C 120.95 -3.42495 -1.10569 0
M  V30 1298 C 120.558 -4.47994 -0.0236121 0
M  V30 1299 C 122.302 -3.86864 -1.74748 0
M  V30 1300 C 120.209 -5.88829 -0.550803 0
M  V30 1301 H 119.139 -0.719591 -0.225177 0
M  V30 1302 H 121.79 -1.82902 0.147978 0
M  V30 1303 H 120.172 -3.47471 -1.89947 0
M  V30 1304 H 121.346 -4.54637 0.751099 0
M  V30 1305 H 119.661 -4.13113 0.522159 0
M  V30 1306 H 122.258 -4.8947 -2.15229 0
M  V30 1307 H 122.601 -3.24417 -2.60882 0
M  V30 1308 H 123.134 -3.84504 -1.01986 0
M  V30 1309 H 119.873 -6.54929 0.273457 0
M  V30 1310 H 119.393 -5.85698 -1.29296 0
M  V30 1311 H 121.072 -6.38811 -1.02613 0
M  V30 1312 N 121.204 0.198386 -1.56346 0
M  V30 1313 C 122.452 0.91747 -1.80075 0
M  V30 1314 C 122.773 1.83929 -0.647692 0
M  V30 1315 O 122.043 1.93029 0.334166 0
M  V30 1316 H 120.623 0.341774 -0.664228 0
M  V30 1317 H 123.285 0.204684 -1.93822 0
M  V30 1318 H 122.381 1.51055 -2.7311 0
M  V30 1319 N 122.682 1.50554 0.465978 0
M  V30 1320 C 123.928 1.62038 1.21949 0
M  V30 1321 C 124.261 0.322116 1.9151 0
M  V30 1322 O 123.536 -0.676723 1.82348 0
M  V30 1323 C 123.819 2.80421 2.25912 0
M  V30 1324 C 123.672 4.20144 1.60622 0
M  V30 1325 C 124.991 2.94354 3.27176 0
M  V30 1326 H 122.11 0.589752 0.441998 0
M  V30 1327 H 124.752 1.82956 0.51257 0
M  V30 1328 H 122.902 2.62717 2.86203 0
M  V30 1329 H 124.574 4.49449 1.03889 0
M  V30 1330 H 122.817 4.24165 0.909211 0
M  V30 1331 H 123.488 4.98914 2.36196 0
M  V30 1332 H 125.964 3.10578 2.76913 0
M  V30 1333 H 124.84 3.788 3.97242 0
M  V30 1334 H 125.101 2.05186 3.916 0
M  V30 1335 N 124.16 -0.719506 1.40217 0
M  V30 1336 C 125.108 -1.85493 1.40339 0
M  V30 1337 C 126.102 -1.66995 0.284415 0
M  V30 1338 O 127.308 -1.74148 0.455252 0
M  V30 1339 H 123.683 -0.610857 0.438586 0
M  V30 1340 H 125.654 -1.82506 2.36081 0
M  V30 1341 C 124.403 -3.23321 1.27901 0
M  V30 1342 H 123.726 -3.38159 2.1328 0
M  V30 1343 H 125.166 -4.02914 1.32045 0
M  V30 1344 C 123.625 -3.36898 -0.0111355 0
M  V30 1345 O 124.155 -3.89674 -0.975538 0
M  V30 1346 N 122.361 -2.90492 -0.0793393 0
M  V30 1347 H 121.908 -2.47731 0.706183 0
M  V30 1348 H 121.866 -2.99955 -0.942038 0
M  V30 1349 N 125.638 -1.25649 -0.95132 0
M  V30 1350 C 126.878 -1.11802 -1.71113 0
M  V30 1351 C 127.242 0.334758 -1.89059 0
M  V30 1352 O 128.443 0.595121 -2.62129 0
M  V30 1353 C 126.714 -1.85512 -3.05483 0
M  V30 1354 S 128.273 -1.87597 -3.96677 0
M  V30 1355 H 125.091 -0.399552 -0.588115 0
M  V30 1356 H 127.693 -1.59222 -1.1344 0
M  V30 1357 H 126.397 -2.90299 -2.90094 0
M  V30 1358 H 125.928 -1.38493 -3.68216 0
M  V30 1359 H 127.943 -0.955389 -4.86916 0
M  V30 1360 N 127.117 1.15442 -1.07289 0
M  V30 1361 C 128.345 1.90096 -0.81676 0
M  V30 1362 C 128.76 1.7798 0.629966 0
M  V30 1363 O 128.117 1.1313 1.43206 0
M  V30 1364 C 128.168 3.40466 -1.21512 0
M  V30 1365 O 127.889 3.52232 -2.60508 0
M  V30 1366 C 129.39 4.32145 -0.988198 0
M  V30 1367 H 126.61 0.602495 -0.295366 0
M  V30 1368 H 129.154 1.4627 -1.42918 0
M  V30 1369 H 127.309 3.81958 -0.647039 0
M  V30 1370 H 127.723 4.45549 -2.76742 0
M  V30 1371 H 129.197 5.36072 -1.31645 0
M  V30 1372 H 129.674 4.39135 0.0755063 0
M  V30 1373 H 130.28 3.96395 -1.54115 0
M  V30 1374 N 128.595 0.856903 1.32268 0
M  V30 1375 C 129.527 0.260412 2.27716 0
M  V30 1376 C 130.54 -0.569137 1.52528 0
M  V30 1377 O 131.729 -0.39326 1.74114 0
M  V30 1378 C 128.829 -0.650477 3.32599 0
M  V30 1379 C 128.002 0.14372 4.37164 0
M  V30 1380 C 127.061 -0.69328 5.21613 0
M  V30 1381 O 126.087 -0.12599 5.69061 0
M  V30 1382 N 127.289 -2.00761 5.44679 0
M  V30 1383 H 130.054 1.08059 2.79541 0
M  V30 1384 H 127.615 0.717103 1.45152 0
M  V30 1385 H 129.607 -1.21581 3.86005 0
M  V30 1386 H 128.177 -1.37133 2.80915 0
M  V30 1387 H 127.397 0.890486 3.8401 0
M  V30 1388 H 128.685 0.68915 5.04111 0
M  V30 1389 H 128.083 -2.49181 5.07863 0
M  V30 1390 H 126.64 -2.52103 6.01072 0
M  V30 1391 N 130.073 -1.45103 0.615059 0
M  V30 1392 C 131.322 -2.01396 0.110718 0
M  V30 1393 C 131.635 -1.48834 -1.26916 0
M  V30 1394 O 132.841 -1.97152 -1.86664 0
M  V30 1395 C 131.297 -3.59599 0.14723 0
M  V30 1396 C 130.905 -4.21158 1.52743 0
M  V30 1397 C 132.649 -4.23428 -0.30148 0
M  V30 1398 C 130.556 -5.71535 1.51992 0
M  V30 1399 H 129.486 -0.753061 0.0376241 0
M  V30 1400 H 132.137 -1.66494 0.77149 0
M  V30 1401 H 130.519 -3.91724 -0.580339 0
M  V30 1402 H 131.693 -4.00594 2.2773 0
M  V30 1403 H 130.008 -3.69552 1.91886 0
M  V30 1404 H 132.605 -5.33703 -0.326392 0
M  V30 1405 H 132.948 -3.94629 -1.32565 0
M  V30 1406 H 133.481 -3.96047 0.373065 0
M  V30 1407 H 130.22 -6.05044 2.52193 0
M  V30 1408 H 129.74 -5.94268 0.81274 0
M  V30 1409 H 131.419 -6.34873 1.24681 0
M  V30 1410 N 131.551 -0.354651 -1.53558 0
M  V30 1411 C 132.779 0.239515 -2.05509 0
M  V30 1412 C 133.194 1.4333 -1.2289 0
M  V30 1413 O 132.551 1.80538 -0.266899 0
M  V30 1414 C 132.602 0.643719 -3.55723 0
M  V30 1415 O 132.323 -0.502602 -4.35207 0
M  V30 1416 C 133.824 1.29743 -4.23889 0
M  V30 1417 H 131.044 0.0442697 -0.669538 0
M  V30 1418 H 133.588 -0.509856 -1.98042 0
M  V30 1419 H 131.743 1.34302 -3.63376 0
M  V30 1420 H 132.157 -0.178172 -5.24197 0
M  V30 1421 H 133.631 1.53091 -5.30346 0
M  V30 1422 H 134.108 2.25441 -3.76926 0
M  V30 1423 H 134.714 0.639865 -4.20459 0
M  V30 1424 N 133.029 1.57378 -0.0835403 0
M  V30 1425 C 133.992 2.12252 0.864959 0
M  V30 1426 C 134.992 1.04916 1.21858 0
M  V30 1427 O 136.182 1.30853 1.14991 0
M  V30 1428 C 133.314 2.63358 2.16461 0
M  V30 1429 H 134.507 2.97371 0.388676 0
M  V30 1430 H 132.06 1.55423 0.165317 0
M  V30 1431 H 132.795 1.81727 2.686 0
M  V30 1432 H 132.58 3.41826 1.92087 0
M  V30 1433 H 134.07 3.05847 2.84337 0
M  V30 1434 N 134.507 -0.190092 1.56449 0
M  V30 1435 C 135.735 -0.925772 1.85033 0
M  V30 1436 C 136.15 -1.76638 0.666658 0
M  V30 1437 O 135.507 -1.78822 -0.364565 0
M  V30 1438 C 135.558 -1.81786 3.12468 0
M  V30 1439 O 135.279 -1.01118 4.26271 0
M  V30 1440 C 136.78 -2.6648 3.54265 0
M  V30 1441 H 134 -0.269872 0.614337 0
M  V30 1442 H 136.544 -0.195837 2.0356 0
M  V30 1443 H 134.699 -2.50136 2.95822 0
M  V30 1444 H 135.113 -1.61956 4.98869 0
M  V30 1445 H 136.587 -3.24722 4.46385 0
M  V30 1446 H 137.064 -3.40434 2.77491 0
M  V30 1447 H 137.67 -2.03493 3.73458 0
M  V30 1448 N 135.985 -1.50799 -0.457987 0
M  V30 1449 C 136.895 -1.73426 -1.57989 0
M  V30 1450 C 137.911 -0.617745 -1.62665 0
M  V30 1451 O 139.087 -0.897614 -1.80291 0
M  V30 1452 C 136.152 -1.83557 -2.94122 0
M  V30 1453 C 135.213 -3.07345 -2.99729 0
M  V30 1454 C 134.446 -3.16983 -4.29368 0
M  V30 1455 O 134.669 -2.33077 -5.20607 0
M  V30 1456 O 133.603 -4.09812 -4.40837 0
M  V30 1457 H 137.429 -2.68555 -1.41817 0
M  V30 1458 H 135.014 -1.35052 -0.638859 0
M  V30 1459 H 136.896 -1.92326 -3.74952 0
M  V30 1460 H 135.571 -0.916137 -3.10465 0
M  V30 1461 H 134.478 -3.04068 -2.1793 0
M  V30 1462 H 135.811 -3.9891 -2.88326 0
M  V30 1463 N 137.463 0.71206 -1.40597 0
M  V30 1464 C 138.703 1.48438 -1.40519 0
M  V30 1465 C 139.067 1.91998 -0.00767611 0
M  V30 1466 O 140.268 2.6854 0.118239 0
M  V30 1467 C 138.539 2.67514 -2.37004 0
M  V30 1468 S 140.098 3.56875 -2.55315 0
M  V30 1469 H 136.916 0.507457 -0.498005 0
M  V30 1470 H 139.518 0.832355 -1.76896 0
M  V30 1471 H 138.222 2.33689 -3.37368 0
M  V30 1472 H 137.753 3.37625 -2.01923 0
M  V30 1473 H 139.768 4.62081 -1.8082 0
M  V30 1474 N 138.941 1.26152 0.944643 0
M  V30 1475 C 140.218 1.02247 1.66748 0
M  V30 1476 C 140.598 -0.448202 2.06287 0
M  V30 1477 O 139.946 -1.42779 1.78399 0
M  V30 1478 C 140.156 1.96788 2.88228 0
M  V30 1479 C 141.504 2.25201 3.59958 0
M  V30 1480 O 142.528 1.94626 2.98327 0
M  V30 1481 O 141.387 2.77242 4.70956 0
M  V30 1482 H 138.481 0.388517 0.730057 0
M  V30 1483 H 141.027 1.37348 0.99668 0
M  V30 1484 H 139.799 2.96047 2.55875 0
M  V30 1485 H 139.422 1.62145 3.63035 0
M  V30 1486 N 140.419 -1.14872 1.07899 0
M  V30 1487 C 141.666 -1.85789 0.805532 0
M  V30 1488 C 141.994 -1.82649 -0.668561 0
M  V30 1489 O 141.249 -1.24858 -1.50695 0
M  V30 1490 C 141.548 -3.34223 1.26609 0
M  V30 1491 C 141.214 -3.57555 2.74709 0
M  V30 1492 C 139.876 -3.63631 3.1516 0
M  V30 1493 C 142.228 -3.66803 3.70277 0
M  V30 1494 C 139.556 -3.76473 4.49983 0
M  V30 1495 C 141.908 -3.8117 5.04869 0
M  V30 1496 C 140.572 -3.85494 5.44932 0
M  V30 1497 H 139.842 -0.679849 0.294765 0
M  V30 1498 H 142.489 -1.3572 1.35101 0
M  V30 1499 H 140.794 -3.86536 0.640103 0
M  V30 1500 H 142.491 -3.87511 1.03132 0
M  V30 1501 H 139.081 -3.5347 2.42398 0
M  V30 1502 H 143.265 -3.61404 3.40149 0
M  V30 1503 H 138.521 -3.7808 4.80484 0
M  V30 1504 H 142.695 -3.87268 5.78789 0
M  V30 1505 H 140.322 -3.95197 6.49403 0
M  V30 1506 N 141.898 -0.863906 -1.31812 0
M  V30 1507 C 143.126 -0.486111 -2.01108 0
M  V30 1508 C 143.541 0.919755 -1.64882 0
M  V30 1509 O 142.898 1.60162 -0.874893 0
M  V30 1510 C 142.949 -0.626435 -3.56031 0
M  V30 1511 O 142.67 -1.97693 -3.90959 0
M  V30 1512 C 144.171 -0.248857 -4.42601 0
M  V30 1513 H 141.391 -0.190052 -0.643523 0
M  V30 1514 H 143.935 -1.1634 -1.68182 0
M  V30 1515 H 142.09 0.00322717 -3.874 0
M  V30 1516 H 142.504 -1.98034 -4.85678 0
M  V30 1517 H 143.978 -0.398016 -5.50563 0
M  V30 1518 H 144.455 0.811489 -4.31638 0
M  V30 1519 H 145.061 -0.853971 -4.16638 0
M  V30 1520 N 143.376 1.44774 -0.622745 0
M  V30 1521 C 144.339 2.29069 0.0774015 0
M  V30 1522 C 145.339 1.4059 0.780461 0
M  V30 1523 O 146.529 1.62551 0.626322 0
M  V30 1524 C 143.661 3.21974 1.12006 0
M  V30 1525 H 144.854 2.92459 -0.663901 0
M  V30 1526 H 142.407 1.51548 -0.382486 0
M  V30 1527 H 143.142 2.63417 1.89162 0
M  V30 1528 H 142.927 3.87168 0.619951 0
M  V30 1529 H 144.417 3.85318 1.60995 0
M  V30 1530 N 144.854 0.36279 1.53368 0
M  V30 1531 C 145.817 -0.472679 2.24273 0
M  V30 1532 C 146.817 -1.012 1.24961 0
M  V30 1533 O 148.007 -0.898194 1.49259 0
M  V30 1534 C 145.139 -1.66039 2.97731 0
M  V30 1535 H 146.332 0.14773 2.99536 0
M  V30 1536 H 143.885 0.114434 1.55881 0
M  V30 1537 H 144.62 -2.31896 2.26704 0
M  V30 1538 H 144.405 -1.28066 3.70596 0
M  V30 1539 H 145.895 -2.25252 3.51641 0
M  V30 1540 N 146.332 -1.57332 0.0918853 0
M  V30 1541 C 147.557 -1.98995 -0.584442 0
M  V30 1542 C 147.982 -0.970528 -1.61128 0
M  V30 1543 O 147.34 0.0613904 -1.81196 0
M  V30 1544 C 147.388 -3.39636 -1.21161 0
M  V30 1545 O 146.492 -3.40447 -2.32744 0
M  V30 1546 H 145.833 -0.647165 -0.148572 0
M  V30 1547 H 148.363 -2.03873 0.172347 0
M  V30 1548 H 148.373 -3.7726 -1.55367 0
M  V30 1549 H 147.048 -4.13356 -0.459313 0
M  V30 1550 H 145.625 -3.14614 -2.0018 0
M  V30 1551 N 147.81 0.181792 -1.56548 0
M  V30 1552 C 149.221 0.745244 -1.71181 0
M  V30 1553 C 149.572 1.83262 -0.70068 0
M  V30 1554 O 148.697 2.15946 0.140154 0
M  V30 1555 C 149.292 1.35859 -3.10367 0
M  V30 1556 C 147.851 1.86898 -3.2672 0
M  V30 1557 C 146.998 0.743942 -2.67134 0
M  V30 1558 H 149.949 -0.0434661 -1.5864 0
M  V30 1559 H 149.97 2.22817 -3.08436 0
M  V30 1560 H 149.482 0.566948 -3.83937 0
M  V30 1561 H 147.583 2.68738 -2.5809 0
M  V30 1562 H 147.696 2.02162 -4.34359 0
M  V30 1563 H 146.06 1.16169 -2.26665 0
M  V30 1564 H 146.843 -0.035676 -3.43281 0
M  V30 1565 N 149.288 1.51039 0.449983 0
M  V30 1566 C 150.513 1.6715 1.22783 0
M  V30 1567 C 150.938 0.363081 1.84563 0
M  V30 1568 O 150.296 -0.675433 1.68249 0
M  V30 1569 C 150.344 2.77985 2.29689 0
M  V30 1570 O 149.448 2.40707 3.34864 0
M  V30 1571 H 148.789 0.557746 0.360299 0
M  V30 1572 H 151.319 1.97535 0.533005 0
M  V30 1573 H 151.329 3.01693 2.74673 0
M  V30 1574 H 150.004 3.72935 1.84098 0
M  V30 1575 H 148.581 2.27523 2.95445 0
M  V30 1576 N 150.766 -0.704594 1.40972 0
M  V30 1577 C 151.729 -1.80035 1.41845 0
M  V30 1578 C 152.729 -1.57774 0.310474 0
M  V30 1579 O 153.919 -1.64613 0.56992 0
M  V30 1580 C 151.051 -3.18284 1.22098 0
M  V30 1581 H 152.244 -1.80658 2.3938 0
M  V30 1582 H 149.797 -0.911329 1.26982 0
M  V30 1583 H 150.532 -3.23306 0.253672 0
M  V30 1584 H 150.317 -3.35843 2.02366 0
M  V30 1585 H 151.807 -3.98289 1.25522 0
M  V30 1586 N 152.244 -1.26651 -0.937939 0
M  V30 1587 C 153.492 -1.12165 -1.68118 0
M  V30 1588 C 153.813 0.334983 -1.92101 0
M  V30 1589 O 153.083 1.23583 -1.52 0
M  V30 1590 H 151.663 -0.412093 -0.623048 0
M  V30 1591 H 154.325 -1.59027 -1.12678 0
M  V30 1592 H 153.421 -1.64289 -2.6536 0
M  V30 1593 N 153.722 1.14298 -1.08507 0
M  V30 1594 C 154.969 1.85359 -0.815373 0
M  V30 1595 C 155.297 1.83001 0.658865 0
M  V30 1596 O 154.552 1.25655 1.50031 0
M  V30 1597 C 154.851 3.33547 -1.28379 0
M  V30 1598 C 154.517 3.56093 -2.76602 0
M  V30 1599 C 153.179 3.61955 -3.17084 0
M  V30 1600 C 155.531 3.64834 -3.72217 0
M  V30 1601 C 152.859 3.74082 -4.51973 0
M  V30 1602 C 155.211 3.78487 -5.06883 0
M  V30 1603 C 153.875 3.82598 -5.46969 0
M  V30 1604 H 153.145 0.678276 -0.298366 0
M  V30 1605 H 155.792 1.35002 -1.35819 0
M  V30 1606 H 154.097 3.86191 -0.660593 0
M  V30 1607 H 155.794 3.86959 -1.05186 0
M  V30 1608 H 152.384 3.52179 -2.4427 0
M  V30 1609 H 156.568 3.59595 -3.42061 0
M  V30 1610 H 151.824 3.75527 -4.82483 0
M  V30 1611 H 155.998 3.84193 -5.80834 0
M  V30 1612 H 153.625 3.91747 -6.51489 0
M  V30 1613 N 155.201 0.870884 1.31352 0
M  V30 1614 C 156.612 0.534714 1.78879 0
M  V30 1615 C 156.963 -0.948423 1.71754 0
M  V30 1616 O 156.088 -1.74055 1.28584 0
M  V30 1617 C 156.683 0.963839 3.24801 0
M  V30 1618 C 155.242 0.679311 3.70219 0
M  V30 1619 C 154.389 1.15465 2.52117 0
M  V30 1620 H 157.34 1.05651 1.18421 0
M  V30 1621 H 157.361 0.286892 3.79417 0
M  V30 1622 H 156.873 2.04332 3.29955 0
M  V30 1623 H 154.974 -0.388769 3.70566 0
M  V30 1624 H 155.087 1.25698 4.62317 0
M  V30 1625 H 153.451 0.574383 2.48139 0
M  V30 1626 H 154.234 2.24157 2.60016 0
M  V30 1627 N 156.679 -1.44442 0.630414 0
M  V30 1628 C 157.612 -2.27862 -0.124247 0
M  V30 1629 C 158.59 -1.38495 -0.851931 0
M  V30 1630 O 159.774 -1.67935 -0.856166 0
M  V30 1631 C 156.901 -3.17407 -1.18197 0
M  V30 1632 C 155.947 -4.22875 -0.554892 0
M  V30 1633 S 156.78 -5.31485 0.654489 0
M  V30 1634 C 157.936 -6.246 -0.40326 0
M  V30 1635 H 158.169 -2.91519 0.583435 0
M  V30 1636 H 155.702 -1.48618 0.418565 0
M  V30 1637 H 157.66 -3.69549 -1.78728 0
M  V30 1638 H 156.321 -2.52971 -1.86184 0
M  V30 1639 H 155.514 -4.85542 -1.35148 0
M  V30 1640 H 155.116 -3.73992 -0.0242105 0
M  V30 1641 H 157.408 -6.65375 -1.27602 0
M  V30 1642 H 158.351 -7.07851 0.187813 0
M  V30 1643 H 158.759 -5.59775 -0.728837 0
M  V30 1644 N 158.157 -0.370918 -1.53173 0
M  V30 1645 C 159.434 0.273754 -1.93675 0
M  V30 1646 C 159.814 1.65938 -1.3049 0
M  V30 1647 O 159.162 2.23698 -0.465999 0
M  V30 1648 C 159.372 0.318602 -3.47543 0
M  V30 1649 C 160.72 0.556392 -4.20939 0
M  V30 1650 O 161.744 0.399587 -3.53952 0
M  V30 1651 O 160.603 0.862133 -5.39657 0
M  V30 1652 H 157.697 0.165448 -0.810281 0
M  V30 1653 H 160.243 -0.42409 -1.64315 0
M  V30 1654 H 159.015 -0.652687 -3.85818 0
M  V30 1655 H 158.638 1.06212 -3.83151 0
M  V30 1656 N 159.635 1.57281 -0.100228 0
M  V30 1657 C 160.882 1.94537 0.562268 0
M  V30 1658 C 161.21 0.982315 1.67871 0
M  V30 1659 O 160.465 0.00280936 1.957 0
M  V30 1660 C 160.764 3.38305 1.15259 0
M  V30 1661 C 160.43 4.50618 0.159409 0
M  V30 1662 C 159.092 4.81066 -0.113741 0
M  V30 1663 C 161.444 5.18615 -0.518461 0
M  V30 1664 C 158.772 5.76835 -1.07137 0
M  V30 1665 C 161.124 6.15412 -1.46459 0
M  V30 1666 C 159.788 6.44262 -1.74592 0
M  V30 1667 H 159.058 0.711863 0.205748 0
M  V30 1668 H 161.705 1.90679 -0.17715 0
M  V30 1669 H 160.01 3.38766 1.96836 0
M  V30 1670 H 161.707 3.64435 1.67297 0
M  V30 1671 H 158.297 4.2689 0.382491 0
M  V30 1672 H 162.481 4.95264 -0.320581 0
M  V30 1673 H 157.737 5.975 -1.29628 0
M  V30 1674 H 161.911 6.67194 -1.99564 0
M  V30 1675 H 159.538 7.1828 -2.48953 0
M  V30 1676 N 161.113 -0.173488 1.56642 0
M  V30 1677 C 162.061 -1.23417 1.97157 0
M  V30 1678 C 163.055 -1.45946 0.860013 0
M  V30 1679 O 164.261 -1.46551 1.04512 0
M  V30 1680 H 160.636 -0.414818 0.62724 0
M  V30 1681 H 162.607 -0.865582 2.8557 0
M  V30 1682 C 161.356 -2.5665 2.34576 0
M  V30 1683 H 160.679 -2.40137 3.19647 0
M  V30 1684 H 162.119 -3.2956 2.6677 0
M  V30 1685 C 160.578 -3.15245 1.18836 0
M  V30 1686 O 161.108 -3.98883 0.474869 0
M  V30 1687 N 159.314 -2.74303 0.959497 0
M  V30 1688 H 158.861 -2.0639 1.54146 0
M  V30 1689 H 158.819 -3.13844 0.186932 0
M  V30 1690 N 162.591 -1.51276 -0.441967 0
M  V30 1691 C 163.837 -1.63958 -1.19355 0
M  V30 1692 C 164.17 -0.352543 -1.90973 0
M  V30 1693 O 163.445 0.647627 -1.83401 0
M  V30 1694 C 163.728 -2.83979 -2.21422 0
M  V30 1695 C 163.581 -4.22646 -1.53918 0
M  V30 1696 C 164.9 -2.99521 -3.22451 0
M  V30 1697 H 162.019 -0.596709 -0.432559 0
M  V30 1698 H 164.661 -1.83748 -0.483398 0
M  V30 1699 H 162.811 -2.67237 -2.81987 0
M  V30 1700 H 164.483 -4.51045 -0.967256 0
M  V30 1701 H 162.726 -4.25558 -0.841615 0
M  V30 1702 H 163.397 -5.02609 -2.28229 0
M  V30 1703 H 165.873 -3.14944 -2.71937 0
M  V30 1704 H 164.749 -3.85072 -3.91166 0
M  V30 1705 H 165.01 -2.11391 -3.88287 0
M  V30 1706 N 164.069 0.697108 -1.41344 0
M  V30 1707 C 165.297 1.48593 -1.43972 0
M  V30 1708 C 165.712 1.88747 -0.0445612 0
M  V30 1709 O 165.069 1.56682 0.935785 0
M  V30 1710 C 165.12 2.74946 -2.34706 0
M  V30 1711 O 164.841 2.36484 -3.68791 0
M  V30 1712 C 166.342 3.687 -2.46121 0
M  V30 1713 H 163.562 0.457964 -0.490418 0
M  V30 1714 H 166.106 0.858429 -1.8561 0
M  V30 1715 H 164.261 3.33937 -1.9638 0
M  V30 1716 H 164.675 3.17918 -4.17167 0
M  V30 1717 H 166.149 4.54145 -3.13777 0
M  V30 1718 H 166.626 4.13081 -1.49199 0
M  V30 1719 H 167.232 3.15613 -2.85076 0
M  V30 1720 N 165.547 1.27147 0.931209 0
M  V30 1721 C 166.477 1.12081 2.04842 0
M  V30 1722 C 167.458 0.0232364 1.70084 0
M  V30 1723 O 168.643 0.197085 1.93197 0
M  V30 1724 C 165.773 0.76354 3.38803 0
M  V30 1725 C 164.727 1.81396 3.87659 0
M  V30 1726 C 164.053 1.31075 5.18385 0
M  V30 1727 C 165.353 3.21739 4.11438 0
M  V30 1728 H 167.047 2.05537 2.17703 0
M  V30 1729 H 164.593 0.989603 1.04608 0
M  V30 1730 H 166.546 0.644982 4.16435 0
M  V30 1731 H 165.27 -0.206727 3.25945 0
M  V30 1732 H 163.929 1.92136 3.12217 0
M  V30 1733 H 163.577 0.330037 5.01916 0
M  V30 1734 H 163.277 2.013 5.52044 0
M  V30 1735 H 164.801 1.20506 5.98591 0
M  V30 1736 H 166.215 3.14019 4.79651 0
M  V30 1737 H 164.612 3.89644 4.56397 0
M  V30 1738 H 165.682 3.67054 3.16859 0
M  V30 1739 N 167.025 -1.13721 1.09112 0
M  V30 1740 C 168.441 -1.36914 0.820174 0
M  V30 1741 C 168.641 -1.93356 -0.567079 0
M  V30 1742 O 167.697 -2.15093 -1.32255 0
M  V30 1743 C 169.01 -2.3235 1.90877 0
M  V30 1744 C 170.558 -2.45973 1.93562 0
M  V30 1745 C 171.033 -3.44714 3.01556 0
M  V30 1746 N 172.524 -3.52263 3.00775 0
M  V30 1747 C 173.259 -4.28536 3.80978 0
M  V30 1748 N 172.755 -5.07991 4.71081 0
M  V30 1749 N 174.548 -4.23804 3.69251 0
M  V30 1750 H 166.699 -0.754348 1.98553 0
M  V30 1751 H 168.962 -0.3944 0.862063 0
M  V30 1752 H 168.668 -1.98027 2.90651 0
M  V30 1753 H 168.542 -3.32332 1.78424 0
M  V30 1754 H 170.929 -2.79584 0.944286 0
M  V30 1755 H 171.01 -1.45926 2.10093 0
M  V30 1756 H 170.654 -3.11835 4.00901 0
M  V30 1757 H 170.584 -4.44558 2.82269 0
M  V30 1758 H 173.075 -2.95567 2.35475 0
M  V30 1759 H 173.388 -5.63487 5.28869 0
M  V30 1760 H 171.733 -5.07235 4.75119 0
M  V30 1761 H 174.924 -3.60806 2.98222 0
M  V30 1762 H 175.097 -4.82995 4.31995 0
M  V30 1763 N 168.503 -0.877838 -1.30888 0
M  V30 1764 C 169.433 -0.35534 -2.3078 0
M  V30 1765 C 170.414 0.557994 -1.60687 0
M  V30 1766 O 171.599 0.473355 -1.88343 0
M  V30 1767 C 168.729 0.437221 -3.44537 0
M  V30 1768 C 167.683 -0.383715 -4.26276 0
M  V30 1769 C 167.009 0.535014 -5.32017 0
M  V30 1770 C 168.309 -1.62201 -4.96476 0
M  V30 1771 H 170.003 -1.19007 -2.74732 0
M  V30 1772 H 167.549 -0.573698 -1.32078 0
M  V30 1773 H 169.502 0.813334 -4.13477 0
M  V30 1774 H 168.226 1.30553 -2.99372 0
M  V30 1775 H 166.885 -0.741874 -3.59015 0
M  V30 1776 H 166.533 1.40083 -4.831 0
M  V30 1777 H 166.233 -0.0104211 -5.87599 0
M  V30 1778 H 167.757 0.907799 -6.03814 0
M  V30 1779 H 169.171 -1.31689 -5.5797 0
M  V30 1780 H 167.568 -2.10711 -5.61891 0
M  V30 1781 H 168.638 -2.37044 -4.23011 0
M  V30 1782 N 169.982 1.44106 -0.638065 0
M  V30 1783 C 171.398 1.56672 -0.304286 0
M  V30 1784 C 171.598 1.6244 1.19228 0
M  V30 1785 O 170.654 1.57121 1.9766 0
M  V30 1786 C 171.967 2.83503 -1.00231 0
M  V30 1787 C 173.515 2.97226 -0.981116 0
M  V30 1788 C 173.99 4.26868 -1.65974 0
M  V30 1789 N 175.481 4.33698 -1.62666 0
M  V30 1790 C 176.216 5.32745 -2.12063 0
M  V30 1791 N 175.712 6.38157 -2.6968 0
M  V30 1792 N 177.505 5.24299 -2.02651 0
M  V30 1793 H 169.656 1.38605 -1.60942 0
M  V30 1794 H 171.919 0.664661 -0.675965 0
M  V30 1795 H 171.625 2.85251 -2.0573 0
M  V30 1796 H 171.499 3.73251 -0.54439 0
M  V30 1797 H 173.886 2.95027 0.0654188 0
M  V30 1798 H 173.967 2.08808 -1.47759 0
M  V30 1799 H 173.611 4.29826 -2.70576 0
M  V30 1800 H 173.541 5.14156 -1.13804 0
M  V30 1801 H 176.032 3.58138 -1.20606 0
M  V30 1802 H 176.345 7.10029 -3.05087 0
M  V30 1803 H 174.69 6.38823 -2.73734 0
M  V30 1804 H 177.881 4.4086 -1.57353 0
M  V30 1805 H 178.054 6.01334 -2.41457 0
M  V30 1806 N 171.46 0.379036 1.52974 0
M  V30 1807 C 172.423 -0.448865 2.24762 0
M  V30 1808 C 173.423 -0.998689 1.26027 0
M  V30 1809 O 174.613 -0.882313 1.50203 0
M  V30 1810 C 171.745 -1.62872 2.99476 0
M  V30 1811 H 172.938 0.179491 2.99362 0
M  V30 1812 H 170.491 0.13096 1.5575 0
M  V30 1813 H 171.226 -2.29479 2.29151 0
M  V30 1814 H 171.011 -1.24128 3.71934 0
M  V30 1815 H 172.501 -2.2151 3.5401 0
M  V30 1816 N 172.938 -1.57226 0.108567 0
M  V30 1817 C 173.848 -2.18292 -0.859401 0
M  V30 1818 C 174.864 -1.15612 -1.30038 0
M  V30 1819 O 176.04 -1.48039 -1.36552 0
M  V30 1820 C 173.105 -2.762 -2.09558 0
M  V30 1821 C 172.166 -3.93881 -1.70752 0
M  V30 1822 C 171.399 -4.49018 -2.88477 0
M  V30 1823 O 171.622 -4.03068 -4.036 0
M  V30 1824 O 170.556 -5.39852 -2.66164 0
M  V30 1825 H 174.382 -3.01441 -0.369769 0
M  V30 1826 H 171.967 -1.48945 -0.1165 0
M  V30 1827 H 173.849 -3.13156 -2.81978 0
M  V30 1828 H 172.524 -1.96089 -2.57548 0
M  V30 1829 H 171.431 -3.61713 -0.954714 0
M  V30 1830 H 172.764 -4.75396 -1.27513 0
M  V30 1831 N 174.416 0.165178 -1.56732 0
M  V30 1832 C 175.346 1.20651 -1.99914 0
M  V30 1833 C 176.327 1.45827 -0.875705 0
M  V30 1834 O 177.512 1.57057 -1.14223 0
M  V30 1835 C 174.642 2.54401 -2.36427 0
M  V30 1836 C 173.596 2.43782 -3.51787 0
M  V30 1837 C 172.922 3.82078 -3.7406 0
M  V30 1838 C 174.222 1.93732 -4.85041 0
M  V30 1839 H 175.916 0.847534 -2.87154 0
M  V30 1840 H 173.462 0.40625 -1.38151 0
M  V30 1841 H 175.415 3.27458 -2.65234 0
M  V30 1842 H 174.139 2.92098 -1.46103 0
M  V30 1843 H 172.798 1.73178 -3.23117 0
M  V30 1844 H 172.446 4.17179 -2.81017 0
M  V30 1845 H 172.146 3.7584 -4.51684 0
M  V30 1846 H 173.67 4.56712 -4.05274 0
M  V30 1847 H 175.084 2.56569 -5.12684 0
M  V30 1848 H 173.481 1.98428 -5.66345 0
M  V30 1849 H 174.551 0.891962 -4.76626 0
M  V30 1850 N 175.894 1.51508 0.433938 0
M  V30 1851 C 177.142 1.6402 1.18075 0
M  V30 1852 C 177.463 0.360328 1.91642 0
M  V30 1853 O 176.733 -0.623945 1.85698 0
M  V30 1854 H 175.313 0.6045 0.43885 0
M  V30 1855 H 177.975 1.88452 0.497178 0
M  V30 1856 H 177.071 2.46949 1.90847 0
M  V30 1857 N 177.372 -0.689602 1.41712 0
M  V30 1858 C 178.335 -1.78521 1.43746 0
M  V30 1859 C 179.335 -1.57436 0.327191 0
M  V30 1860 O 180.525 -1.64 0.587348 0
M  V30 1861 C 177.657 -3.16971 1.25467 0
M  V30 1862 H 178.85 -1.78108 2.41283 0
M  V30 1863 H 176.403 -0.89781 1.27942 0
M  V30 1864 H 177.138 -3.23019 0.287948 0
M  V30 1865 H 176.923 -3.33678 2.05917 0
M  V30 1866 H 178.413 -3.96935 1.2974 0
M  V30 1867 N 178.85 -1.27639 -0.924453 0
M  V30 1868 C 179.78 -1.13166 -2.04244 0
M  V30 1869 C 180.761 -0.032256 -1.70069 0
M  V30 1870 O 181.946 -0.207328 -1.9309 0
M  V30 1871 C 179.076 -0.781496 -3.38393 0
M  V30 1872 C 178.03 -1.83449 -3.86692 0
M  V30 1873 C 177.356 -1.33822 -5.17683 0
M  V30 1874 C 178.656 -3.23917 -4.09726 0
M  V30 1875 H 180.35 -2.06689 -2.1661 0
M  V30 1876 H 177.896 -0.995136 -1.04082 0
M  V30 1877 H 179.849 -0.667057 -4.16087 0
M  V30 1878 H 178.573 0.189439 -3.2605 0
M  V30 1879 H 177.232 -1.93789 -3.11193 0
M  V30 1880 H 176.88 -0.35665 -5.01734 0
M  V30 1881 H 176.58 -2.04224 -5.50968 0
M  V30 1882 H 178.104 -1.23679 -5.97943 0
M  V30 1883 H 179.518 -3.16559 -4.77978 0
M  V30 1884 H 177.915 -3.92059 -4.54324 0
M  V30 1885 H 178.985 -3.68729 -3.14908 0
M  V30 1886 N 180.328 1.1314 -1.09713 0
M  V30 1887 C 181.278 2.16709 -0.708593 0
M  V30 1888 C 182.262 1.58471 0.278523 0
M  V30 1889 O 183.454 1.76779 0.088427 0
M  V30 1890 C 180.583 3.43039 -0.133923 0
M  V30 1891 C 179.669 4.08277 -1.14763 0
M  V30 1892 N 180.06 4.48637 -2.33577 0
M  V30 1893 C 178.358 4.34954 -0.986446 0
M  V30 1894 C 179.059 4.9952 -2.98085 0
M  V30 1895 N 178.035 4.94561 -2.25632 0
M  V30 1896 H 181.837 2.45672 -1.61315 0
M  V30 1897 H 179.351 1.29967 -0.973775 0
M  V30 1898 H 181.348 4.16583 0.162465 0
M  V30 1899 H 180.008 3.15549 0.765447 0
M  V30 1900 H 181.019 4.41246 -2.7115 0
M  V30 1901 H 177.696 4.17258 -0.142008 0
M  V30 1902 H 179.086 5.40521 -3.99108 0
M  V30 1903 N 181.806 0.884767 1.30421 0
M  V30 1904 C 183.031 0.517288 2.00845 0
M  V30 1905 C 183.456 -0.886779 1.65885 0
M  V30 1906 O 182.814 -1.58768 0.875354 0
M  V30 1907 C 182.862 0.698994 3.5376 0
M  V30 1908 O 181.966 -0.255208 4.1161 0
M  V30 1909 H 181.307 0.203872 0.631927 0
M  V30 1910 H 183.837 1.19225 1.66272 0
M  V30 1911 H 183.847 0.597912 4.03595 0
M  V30 1912 H 182.522 1.72271 3.78544 0
M  V30 1913 H 181.099 -0.10784 3.72744 0
M  V30 1914 N 183.284 -1.43765 0.645699 0
M  V30 1915 C 184.247 -2.29163 -0.0409488 0
M  V30 1916 C 185.247 -1.41813 -0.757996 0
M  V30 1917 O 186.437 -1.63527 -0.600382 0
M  V30 1918 C 183.569 -3.23716 -1.06869 0
M  V30 1919 H 184.762 -2.91366 0.710345 0
M  V30 1920 H 182.315 -1.5092 0.406547 0
M  V30 1921 H 183.05 -2.66393 -1.84947 0
M  V30 1922 H 182.835 -3.88105 -0.558277 0
M  V30 1923 H 184.325 -3.87831 -1.54845 0
M  V30 1924 N 184.763 -0.387143 -1.52771 0
M  V30 1925 C 186.009 0.188506 -2.02525 0
M  V30 1926 C 186.364 1.44649 -1.26864 0
M  V30 1927 O 185.657 1.88189 -0.359945 0
M  V30 1928 C 185.851 0.512209 -3.53711 0
M  V30 1929 C 185.68 -0.712855 -4.44014 0
M  V30 1930 C 184.45 -1.23147 -4.90064 0
M  V30 1931 C 186.648 -1.58453 -4.89282 0
M  V30 1932 N 184.63 -2.41431 -5.64433 0
M  V30 1933 C 186.001 -2.61381 -5.6221 0
M  V30 1934 C 188.056 -1.60488 -4.71326 0
M  V30 1935 C 186.759 -3.66227 -6.19088 0
M  V30 1936 C 188.785 -2.6424 -5.29085 0
M  V30 1937 C 188.147 -3.6589 -6.01917 0
M  V30 1938 H 184.246 0.0311236 -0.78138 0
M  V30 1939 H 186.83 -0.536548 -1.87161 0
M  V30 1940 H 185.001 1.20632 -3.69192 0
M  V30 1941 H 186.733 1.07482 -3.90166 0
M  V30 1942 H 183.488 -0.792795 -4.66917 0
M  V30 1943 H 183.912 -3.01274 -6.0627 0
M  V30 1944 H 188.554 -0.83247 -4.14524 0
M  V30 1945 H 186.272 -4.44337 -6.74974 0
M  V30 1946 H 189.858 -2.66695 -5.17074 0
M  V30 1947 H 188.738 -4.44855 -6.45813 0
M  V30 1948 N 186.241 1.57166 -0.116904 0
M  V30 1949 C 187.487 1.95412 0.542405 0
M  V30 1950 C 187.82 1.00019 1.66463 0
M  V30 1951 O 187.095 0.0370346 1.94465 0
M  V30 1952 C 187.378 3.43615 1.07708 0
M  V30 1953 C 187.231 4.49781 -0.0415868 0
M  V30 1954 C 188.55 3.93616 1.96861 0
M  V30 1955 H 185.669 0.710543 0.195696 0
M  V30 1956 H 188.311 1.89027 -0.192038 0
M  V30 1957 H 186.461 3.49187 1.70296 0
M  V30 1958 H 188.133 4.56308 -0.676793 0
M  V30 1959 H 186.376 4.28033 -0.705019 0
M  V30 1960 H 187.047 5.50733 0.373717 0
M  V30 1961 H 189.523 3.90335 1.44146 0
M  V30 1962 H 188.399 4.97838 2.3119 0
M  V30 1963 H 188.66 3.34188 2.89432 0
M  V30 1964 N 187.719 -0.156864 1.56817 0
M  V30 1965 C 188.947 -0.886316 1.86955 0
M  V30 1966 C 189.362 -1.75185 0.703975 0
M  V30 1967 O 188.719 -1.79555 -0.326552 0
M  V30 1968 C 188.77 -1.75117 3.16253 0
M  V30 1969 O 188.491 -0.920537 4.2832 0
M  V30 1970 C 189.992 -2.58905 3.59837 0
M  V30 1971 H 187.212 -0.25678 0.619923 0
M  V30 1972 H 189.756 -0.152615 2.0393 0
M  V30 1973 H 187.911 -2.43805 3.01062 0
M  V30 1974 H 188.325 -1.51337 5.02192 0
M  V30 1975 H 189.799 -3.1518 4.53172 0
M  V30 1976 H 190.276 -3.34472 2.84649 0
M  V30 1977 H 190.882 -1.95526 3.7769 0
M  V30 1978 N 189.197 -1.51736 -0.425897 0
M  V30 1979 C 190.13 -1.68574 -1.53812 0
M  V30 1980 C 191.108 -0.53328 -1.53606 0
M  V30 1981 O 192.292 -0.758555 -1.72564 0
M  V30 1982 C 189.419 -1.70977 -2.92377 0
M  V30 1983 C 188.465 -2.92324 -3.10563 0
M  V30 1984 S 189.298 -4.52952 -2.85648 0
M  V30 1985 C 190.454 -4.58117 -4.26474 0
M  V30 1986 H 190.687 -2.62647 -1.39298 0
M  V30 1987 H 188.22 -1.41564 -0.616361 0
M  V30 1988 H 190.178 -1.73047 -3.72243 0
M  V30 1989 H 188.839 -0.78061 -3.04245 0
M  V30 1990 H 188.032 -2.90439 -4.11899 0
M  V30 1991 H 187.634 -2.88055 -2.38538 0
M  V30 1992 H 189.926 -4.34462 -5.19855 0
M  V30 1993 H 190.869 -5.59983 -4.33388 0
M  V30 1994 H 191.277 -3.8732 -4.10662 0
M  V30 1995 N 190.675 0.682077 -1.42076 0
M  V30 1996 C 192.086 1.26246 -1.37546 0
M  V30 1997 C 192.437 1.96092 -0.0651481 0
M  V30 1998 O 191.562 1.99587 0.836297 0
M  V30 1999 C 192.157 2.29594 -2.49143 0
M  V30 2000 C 190.716 2.83175 -2.47969 0
M  V30 2001 C 189.863 1.57395 -2.28303 0
M  V30 2002 H 192.814 0.475937 -1.51395 0
M  V30 2003 H 192.835 3.11175 -2.18976 0
M  V30 2004 H 192.347 1.78729 -3.44496 0
M  V30 2005 H 190.448 3.3818 -1.56413 0
M  V30 2006 H 190.561 3.32687 -3.44755 0
M  V30 2007 H 188.925 1.83699 -1.76428 0
M  V30 2008 H 189.708 1.08507 -3.25701 0
M  V30 2009 N 192.153 1.28127 0.917671 0
M  V30 2010 C 193.399 1.16232 1.66918 0
M  V30 2011 C 193.754 -0.28701 1.90247 0
M  V30 2012 O 193.047 -1.20586 1.48895 0
M  V30 2013 C 193.241 1.89018 3.03327 0
M  V30 2014 C 193.07 3.4088 2.9331 0
M  V30 2015 C 191.84 4.10214 2.95047 0
M  V30 2016 C 194.038 4.36689 2.71675 0
M  V30 2017 N 192.02 5.48571 2.75577 0
M  V30 2018 C 193.391 5.62382 2.6101 0
M  V30 2019 C 195.446 4.26661 2.56641 0
M  V30 2020 C 194.149 6.79189 2.36843 0
M  V30 2021 C 196.175 5.432 2.33853 0
M  V30 2022 C 195.537 6.67855 2.23939 0
M  V30 2023 H 191.636 0.48024 0.617166 0
M  V30 2024 H 194.22 1.61727 1.08409 0
M  V30 2025 H 192.391 1.45963 3.59929 0
M  V30 2026 H 194.123 1.69541 3.67475 0
M  V30 2027 H 190.878 3.61762 3.05655 0
M  V30 2028 H 191.302 6.21287 2.68945 0
M  V30 2029 H 195.944 3.30998 2.63059 0
M  V30 2030 H 193.662 7.74926 2.29164 0
M  V30 2031 H 197.248 5.37328 2.23091 0
M  V30 2032 H 196.128 7.56511 2.06546 0
M  V30 2033 N 193.631 -1.12557 1.10312 0
M  V30 2034 C 194.878 -1.84038 0.844759 0
M  V30 2035 C 195.206 -1.84026 -0.629668 0
M  V30 2036 O 194.461 -1.28026 -1.48013 0
M  V30 2037 C 194.76 -3.31462 1.33669 0
M  V30 2038 C 194.426 -3.51647 2.82232 0
M  V30 2039 C 193.088 -3.56864 3.22802 0
M  V30 2040 C 195.44 -3.58867 3.77974 0
M  V30 2041 C 192.768 -3.66844 4.57867 0
M  V30 2042 C 195.12 -3.70375 5.1284 0
M  V30 2043 C 193.784 -3.73848 5.52986 0
M  V30 2044 H 193.054 -0.673444 0.309119 0
M  V30 2045 H 195.701 -1.32824 1.37949 0
M  V30 2046 H 194.006 -3.85091 0.721949 0
M  V30 2047 H 195.703 -3.85236 1.11329 0
M  V30 2048 H 192.293 -3.48249 2.49842 0
M  V30 2049 H 196.477 -3.54107 3.47738 0
M  V30 2050 H 191.733 -3.67804 4.88396 0
M  V30 2051 H 195.907 -3.74904 5.86873 0
M  V30 2052 H 193.534 -3.81333 6.57639 0
M  V30 2053 N 195.109 -0.891671 -1.2995 0
M  V30 2054 C 196.041 -0.320695 -2.26945 0
M  V30 2055 C 197.054 0.528497 -1.53983 0
M  V30 2056 O 198.243 0.346959 -1.75096 0
M  V30 2057 C 195.343 0.562066 -3.34207 0
M  V30 2058 C 194.516 -0.259576 -4.36629 0
M  V30 2059 C 193.575 0.554739 -5.23268 0
M  V30 2060 O 192.601 -0.0249311 -5.69195 0
M  V30 2061 N 193.803 1.8625 -5.4981 0
M  V30 2062 H 196.568 -1.15432 -2.76578 0
M  V30 2063 H 194.129 -0.755336 -1.432 0
M  V30 2064 H 196.121 1.11304 -3.89093 0
M  V30 2065 H 194.691 1.29637 -2.84452 0
M  V30 2066 H 193.911 -0.991986 -3.81514 0
M  V30 2067 H 195.199 -0.822564 -5.02107 0
M  V30 2068 H 194.597 2.35628 -5.14292 0
M  V30 2069 H 193.154 2.36078 -6.07545 0
M  V30 2070 N 196.587 1.43421 -0.653314 0
M  V30 2071 C 197.537 2.2792 0.060558 0
M  V30 2072 C 198.521 1.39906 0.794677 0
M  V30 2073 O 199.713 1.63536 0.677128 0
M  V30 2074 C 196.842 3.27603 1.0262 0
M  V30 2075 C 195.928 4.23104 0.290551 0
M  V30 2076 N 196.319 5.01031 -0.692967 0
M  V30 2077 C 194.617 4.42816 0.531984 0
M  V30 2078 C 195.318 5.70626 -1.12963 0
M  V30 2079 N 194.294 5.41617 -0.463867 0
M  V30 2080 H 198.096 2.85585 -0.694143 0
M  V30 2081 H 195.61 1.55126 -0.480602 0
M  V30 2082 H 197.607 3.86918 1.55242 0
M  V30 2083 H 196.267 2.71499 1.78096 0
M  V30 2084 H 197.278 5.0669 -1.07169 0
M  V30 2085 H 193.955 3.97782 1.26791 0
M  V30 2086 H 195.345 6.4318 -1.94343 0
M  V30 2087 N 198.065 0.39524 1.52563 0
M  V30 2088 C 199.295 -0.184675 2.05773 0
M  V30 2089 C 199.703 -1.40571 1.26635 0
M  V30 2090 O 199.046 -1.81105 0.30769 0
M  V30 2091 C 199.108 -0.613551 3.54226 0
M  V30 2092 C 198.772 0.49484 4.54313 0
M  V30 2093 C 199.769 1.3541 5.01956 0
M  V30 2094 C 197.454 0.663565 4.97898 0
M  V30 2095 C 199.448 2.36716 5.91814 0
M  V30 2096 C 197.135 1.67996 5.87555 0
M  V30 2097 C 198.133 2.53017 6.34406 0
M  V30 2098 O 197.821 3.52917 7.22291 0
M  V30 2099 H 197.553 -0.030077 0.675331 0
M  V30 2100 H 200.107 0.560708 1.97599 0
M  V30 2101 H 198.337 -1.411 3.60038 0
M  V30 2102 H 200.026 -1.11981 3.90148 0
M  V30 2103 H 200.792 1.23509 4.6901 0
M  V30 2104 H 196.671 0.0114913 4.60999 0
M  V30 2105 H 200.215 3.03113 6.28306 0
M  V30 2106 H 196.112 1.79933 6.19915 0
M  V30 2107 H 196.88 3.48996 7.40367 0
M  V30 2108 N 199.544 -1.57102 0.125237 0
M  V30 2109 C 200.96 -1.57915 -0.231322 0
M  V30 2110 C 201.16 -1.13833 -1.66266 0
M  V30 2111 O 200.216 -0.828581 -2.38518 0
M  V30 2112 C 201.529 -3.00699 0.00766489 0
M  V30 2113 C 203.077 -3.12947 -0.0577483 0
M  V30 2114 C 203.552 -4.57742 0.153626 0
M  V30 2115 N 205.043 -4.63092 0.0998073 0
M  V30 2116 C 205.778 -5.72905 0.238174 0
M  V30 2117 N 205.274 -6.91445 0.433057 0
M  V30 2118 N 207.067 -5.6182 0.177308 0
M  V30 2119 H 199.218 -1.84055 1.06007 0
M  V30 2120 H 201.481 -0.850905 0.417929 0
M  V30 2121 H 201.187 -3.3726 0.997431 0
M  V30 2122 H 201.061 -3.70236 -0.721452 0
M  V30 2123 H 203.448 -2.7624 -1.03804 0
M  V30 2124 H 203.529 -2.4594 0.70335 0
M  V30 2125 H 203.173 -4.95149 1.13092 0
M  V30 2126 H 203.103 -5.22848 -0.627534 0
M  V30 2127 H 205.594 -3.77871 -0.047051 0
M  V30 2128 H 205.907 -7.70985 0.529332 0
M  V30 2129 H 204.252 -6.93415 0.469109 0
M  V30 2130 H 207.443 -4.68093 0.0259748 0
M  V30 2131 H 207.616 -6.47357 0.288582 0
M  V30 2132 N 201.022 0.148545 -1.56898 0
M  V30 2133 C 201.97 1.20265 -1.99096 0
M  V30 2134 C 202.964 1.44559 -0.883123 0
M  V30 2135 O 204.17 1.4487 -1.0683 0
M  V30 2136 H 200.545 0.404786 -0.63376 0
M  V30 2137 H 202.516 0.82004 -2.86911 0
M  V30 2138 C 201.265 2.52886 -2.3863 0
M  V30 2139 H 200.588 2.35021 -3.23427 0
M  V30 2140 H 202.028 3.25274 -2.7198 0
M  V30 2141 C 200.487 3.13315 -1.23837 0
M  V30 2142 O 201.017 3.98077 -0.538268 0
M  V30 2143 N 199.223 2.72742 -1.00301 0
M  V30 2144 H 198.77 2.03912 -1.5741 0
M  V30 2145 H 198.728 3.13507 -0.236838 0
M  V30 2146 N 202.5 1.5196 0.417844 0
M  V30 2147 C 203.746 1.65836 1.16732 0
M  V30 2148 C 204.079 0.382881 1.90388 0
M  V30 2149 O 203.354 -0.618368 1.84408 0
M  V30 2150 C 203.637 2.87466 2.16876 0
M  V30 2151 C 203.49 4.25041 1.47174 0
M  V30 2152 C 204.809 3.04613 3.17646 0
M  V30 2153 H 201.928 0.603515 0.423011 0
M  V30 2154 H 204.57 1.84494 0.454105 0
M  V30 2155 H 202.72 2.71689 2.777 0
M  V30 2156 H 204.392 4.52527 0.895376 0
M  V30 2157 H 202.635 4.26843 0.773806 0
M  V30 2158 H 203.306 5.06176 2.20204 0
M  V30 2159 H 205.782 3.1923 2.66892 0
M  V30 2160 H 204.658 3.91247 3.8499 0
M  V30 2161 H 204.919 2.17541 3.84874 0
M  V30 2162 N 203.978 -0.674533 1.42435 0
M  V30 2163 C 205.206 -1.46283 1.46317 0
M  V30 2164 C 205.621 -1.88653 0.0745836 0
M  V30 2165 O 204.978 -1.58151 -0.91074 0
M  V30 2166 C 205.029 -2.71178 2.3905 0
M  V30 2167 O 204.75 -2.30586 3.72507 0
M  V30 2168 C 206.251 -3.64738 2.51955 0
M  V30 2169 H 203.471 -0.450104 0.497642 0
M  V30 2170 H 206.015 -0.828792 1.86953 0
M  V30 2171 H 204.17 -3.3077 2.01667 0
M  V30 2172 H 204.584 -3.11241 4.22172 0
M  V30 2173 H 206.058 -4.49096 3.20962 0
M  V30 2174 H 206.535 -4.10656 1.55752 0
M  V30 2175 H 207.141 -3.11038 2.90061 0
M  V30 2176 N 205.456 -1.28612 -0.910864 0
M  V30 2177 C 206.702 -1.16106 -1.66274 0
M  V30 2178 C 207.035 0.289113 -1.92036 0
M  V30 2179 O 206.31 1.21 -1.52281 0
M  V30 2180 C 206.593 -1.96309 -3.01885 0
M  V30 2181 C 206.446 -3.49405 -2.8326 0
M  V30 2182 C 207.765 -1.78076 -4.02463 0
M  V30 2183 H 204.884 -0.423152 -0.603417 0
M  V30 2184 H 207.526 -1.57961 -1.05586 0
M  V30 2185 H 205.676 -1.60742 -3.53687 0
M  V30 2186 H 207.348 -3.94894 -2.38446 0
M  V30 2187 H 205.591 -3.74893 -2.18261 0
M  V30 2188 H 206.262 -4.00784 -3.79574 0
M  V30 2189 H 208.738 -2.0912 -3.59733 0
M  V30 2190 H 207.614 -2.36561 -4.95308 0
M  V30 2191 H 207.875 -0.733008 -4.35981 0
M  V30 2192 N 206.934 1.1197 -1.10907 0
M  V30 2193 C 208.182 1.83225 -0.852819 0
M  V30 2194 C 208.503 1.84769 0.623341 0
M  V30 2195 O 207.773 1.3143 1.45269 0
M  V30 2196 H 206.353 0.67849 -0.312507 0
M  V30 2197 H 209.015 1.3556 -1.40033 0
M  V30 2198 H 208.111 2.87265 -1.22005 0
M  V30 2199 N 208.412 0.89855 1.29475 0
M  V30 2200 C 209.823 0.572537 1.77705 0
M  V30 2201 C 210.174 -0.911778 1.73727 0
M  V30 2202 O 209.299 -1.71288 1.32247 0
M  V30 2203 C 209.894 1.03252 3.22683 0
M  V30 2204 C 208.453 0.757687 3.68695 0
M  V30 2205 C 207.6 1.20787 2.49612 0
M  V30 2206 H 210.551 1.08139 1.16153 0
M  V30 2207 H 210.572 0.367307 3.78723 0
M  V30 2208 H 210.084 2.11285 3.25546 0
M  V30 2209 H 208.185 -0.310079 3.71308 0
M  V30 2210 H 208.298 1.35476 4.59547 0
M  V30 2211 H 206.662 0.626888 2.46865 0
M  V30 2212 H 207.445 2.29622 2.55203 0
M  V30 2213 N 209.89 -1.43072 0.660911 0
M  V30 2214 C 211.301 -1.84932 0.256348 0
M  V30 2215 C 211.652 -1.55325 -1.19868 0
M  V30 2216 O 210.777 -1.00607 -1.91591 0
M  V30 2217 C 211.372 -3.35684 0.458475 0
M  V30 2218 C 209.931 -3.76245 0.108161 0
M  V30 2219 C 209.078 -2.66749 0.757641 0
M  V30 2220 H 212.029 -1.33116 0.864051 0
M  V30 2221 H 212.05 -3.79365 -0.293683 0
M  V30 2222 H 211.562 -3.572 1.51755 0
M  V30 2223 H 209.663 -3.60338 -0.948014 0
M  V30 2224 H 209.776 -4.76058 0.538992 0
M  V30 2225 H 208.14 -2.53989 0.190185 0
M  V30 2226 H 208.923 -2.91092 1.81989 0
M  V30 2227 N 211.368 -0.403325 -1.52352 0
M  V30 2228 C 212.278 0.432009 -2.30588 0
M  V30 2229 C 213.294 1.05884 -1.38075 0
M  V30 2230 O 214.47 1.06161 -1.71148 0
M  V30 2231 C 211.535 1.53669 -3.10784 0
M  V30 2232 C 210.596 0.933525 -4.19027 0
M  V30 2233 C 209.829 1.98557 -4.9539 0
M  V30 2234 O 210.052 3.20283 -4.71991 0
M  V30 2235 O 208.986 1.59504 -5.80381 0
M  V30 2236 H 212.812 -0.205739 -3.03002 0
M  V30 2237 H 210.397 -0.166675 -1.48467 0
M  V30 2238 H 212.279 2.17814 -3.60742 0
M  V30 2239 H 210.954 2.15915 -2.41169 0
M  V30 2240 H 209.861 0.254954 -3.7323 0
M  V30 2241 H 211.194 0.35508 -4.90918 0
M  V30 2242 N 212.846 1.57033 -0.133567 0
M  V30 2243 C 213.794 2.17348 0.828412 0
M  V30 2244 C 214.788 1.12671 1.26498 0
M  V30 2245 O 215.994 1.30947 1.23502 0
M  V30 2246 H 212.369 0.695775 0.285309 0
M  V30 2247 H 214.34 2.96935 0.295372 0
M  V30 2248 C 213.089 2.79893 2.06289 0
M  V30 2249 H 212.412 3.60147 1.73592 0
M  V30 2250 H 213.852 3.25615 2.71572 0
M  V30 2251 C 212.311 1.77713 2.86216 0
M  V30 2252 O 212.841 1.23937 3.82103 0
M  V30 2253 N 211.047 1.47321 2.50489 0
M  V30 2254 H 210.594 1.91243 1.7258 0
M  V30 2255 H 210.552 0.79199 3.04261 0
M  V30 2256 N 214.325 -0.140222 1.56975 0
M  V30 2257 C 215.574 -0.850152 1.82908 0
M  V30 2258 C 215.887 -1.82028 0.715892 0
M  V30 2259 O 217.093 -2.57485 0.861016 0
M  V30 2260 C 215.549 -1.5625 3.24213 0
M  V30 2261 C 215.157 -0.63443 4.43485 0
M  V30 2262 C 216.901 -2.25881 3.59413 0
M  V30 2263 C 214.808 -1.34879 5.75814 0
M  V30 2264 H 213.738 -0.321221 0.682153 0
M  V30 2265 H 216.389 -0.102874 1.83211 0
M  V30 2266 H 214.771 -2.35565 3.18316 0
M  V30 2267 H 215.945 0.12398 4.60633 0
M  V30 2268 H 214.26 -0.0461836 4.16374 0
M  V30 2269 H 216.857 -2.79978 4.5554 0
M  V30 2270 H 217.2 -3.02693 2.85802 0
M  V30 2271 H 217.733 -1.53477 3.67001 0
M  V30 2272 H 214.472 -0.622385 6.52539 0
M  V30 2273 H 213.992 -2.07974 5.6259 0
M  V30 2274 H 215.671 -1.88784 6.18845 0
M  V30 2275 N 215.803 -1.52179 -0.40978 0
M  V30 2276 C 216.713 -1.78364 -1.52392 0
M  V30 2277 C 217.729 -0.669183 -1.60617 0
M  V30 2278 O 218.905 -0.954518 -1.77344 0
M  V30 2279 C 215.97 -1.92822 -2.88133 0
M  V30 2280 C 215.031 -3.16725 -2.898 0
M  V30 2281 C 214.264 -3.30483 -4.19067 0
M  V30 2282 O 214.487 -2.49522 -5.12928 0
M  V30 2283 O 213.421 -4.2363 -4.27576 0
M  V30 2284 H 217.247 -2.72931 -1.33201 0
M  V30 2285 H 214.832 -1.37016 -0.59557 0
M  V30 2286 H 216.714 -2.04157 -3.68643 0
M  V30 2287 H 215.389 -1.01444 -3.07393 0
M  V30 2288 H 214.296 -3.10848 -2.08146 0
M  V30 2289 H 215.629 -4.07881 -2.75489 0
M  V30 2290 N 217.281 0.66697 -1.42791 0
M  V30 2291 C 218.527 1.4291 -1.43891 0
M  V30 2292 C 218.86 1.94114 -0.0578972 0
M  V30 2293 O 218.135 1.71414 0.91911 0
M  V30 2294 C 218.418 2.62049 -2.46987 0
M  V30 2295 C 218.271 2.16426 -3.94309 0
M  V30 2296 C 219.59 3.64266 -2.46978 0
M  V30 2297 H 216.709 0.518306 -0.523954 0
M  V30 2298 H 219.351 0.757321 -1.74255 0
M  V30 2299 H 217.501 3.19361 -2.21225 0
M  V30 2300 H 219.173 1.64221 -4.31079 0
M  V30 2301 H 217.416 1.47925 -4.078 0
M  V30 2302 H 218.087 3.02038 -4.62036 0
M  V30 2303 H 220.563 3.16686 -2.69906 0
M  V30 2304 H 219.439 4.45196 -3.21079 0
M  V30 2305 H 219.7 4.15927 -1.49857 0
M  V30 2306 N 218.759 1.29093 0.90403 0
M  V30 2307 C 219.987 1.19689 1.68766 0
M  V30 2308 C 220.402 -0.243113 1.87228 0
M  V30 2309 O 219.759 -1.16326 1.40621 0
M  V30 2310 C 219.81 1.90144 3.07453 0
M  V30 2311 O 219.531 3.2852 2.89838 0
M  V30 2312 C 221.032 1.87162 4.01852 0
M  V30 2313 H 218.252 0.415035 0.527244 0
M  V30 2314 H 220.796 1.7039 1.13082 0
M  V30 2315 H 218.951 1.43289 3.59926 0
M  V30 2316 H 219.365 3.63944 3.77684 0
M  V30 2317 H 220.839 2.41032 4.96596 0
M  V30 2318 H 221.316 0.84617 4.30972 0
M  V30 2319 H 221.922 2.33741 3.5531 0
M  V30 2320 N 220.237 -1.11381 1.11499 0
M  V30 2321 C 221.648 -1.6465 0.880191 0
M  V30 2322 C 221.999 -1.87199 -0.587434 0
M  V30 2323 O 221.124 -1.60667 -1.44966 0
M  V30 2324 C 221.719 -2.99105 1.59128 0
M  V30 2325 C 220.278 -3.49279 1.40289 0
M  V30 2326 C 219.425 -2.24077 1.63354 0
M  V30 2327 H 222.376 -0.950123 1.27116 0
M  V30 2328 H 222.397 -3.66107 1.03664 0
M  V30 2329 H 221.909 -2.82661 2.65941 0
M  V30 2330 H 220.01 -3.70887 0.356888 0
M  V30 2331 H 220.123 -4.2803 2.15238 0
M  V30 2332 H 218.487 -2.31733 1.05698 0
M  V30 2333 H 219.27 -2.10175 2.71443 0
M  V30 2334 N 221.715 -0.905404 -1.28997 0
M  V30 2335 C 222.963 -0.533192 -1.9494 0
M  V30 2336 C 223.284 0.924618 -1.71685 0
M  V30 2337 O 222.554 1.65268 -1.05183 0
M  V30 2338 H 221.134 -0.194194 -0.721317 0
M  V30 2339 H 223.796 -1.15294 -1.57141 0
M  V30 2340 H 222.892 -0.72059 -3.03667 0
M  V30 2341 N 223.193 1.4272 -0.668489 0
M  V30 2342 C 224.103 2.34596 0.0139753 0
M  V30 2343 C 225.119 1.5474 0.795703 0
M  V30 2344 O 226.295 1.87334 0.739466 0
M  V30 2345 C 223.36 3.33202 0.957982 0
M  V30 2346 C 222.421 4.28957 0.17149 0
M  V30 2347 C 221.654 5.22853 1.07053 0
M  V30 2348 O 221.877 5.21531 2.31001 0
M  V30 2349 O 220.811 5.9952 0.534727 0
M  V30 2350 H 224.637 2.9448 -0.742661 0
M  V30 2351 H 222.222 1.43117 -0.428705 0
M  V30 2352 H 224.104 3.93796 1.50008 0
M  V30 2353 H 222.779 2.758 1.69458 0
M  V30 2354 H 221.686 3.71796 -0.414558 0
M  V30 2355 H 223.019 4.89383 -0.52586 0
M  V30 2356 N 224.671 0.411399 1.52136 0
M  V30 2357 C 225.919 -0.163322 2.01439 0
M  V30 2358 C 226.24 -1.45453 1.29879 0
M  V30 2359 O 225.51 -1.91225 0.4254 0
M  V30 2360 H 224.09 -0.0633447 0.744309 0
M  V30 2361 H 226.752 0.548161 1.87033 0
M  V30 2362 H 225.848 -0.357817 3.10042 0
M  V30 2363 N 226.149 -1.5696 0.141893 0
M  V30 2364 C 227.374 -2.00754 -0.520838 0
M  V30 2365 C 227.799 -1.0213 -1.57959 0
M  V30 2366 O 227.157 0.00371324 -1.813 0
M  V30 2367 C 227.205 -3.43318 -1.10294 0
M  V30 2368 O 226.309 -3.47679 -2.21795 0
M  V30 2369 H 225.65 -0.651564 -0.127908 0
M  V30 2370 H 228.18 -2.03221 0.23712 0
M  V30 2371 H 228.19 -3.82012 -1.43287 0
M  V30 2372 H 226.865 -4.14608 -0.327574 0
M  V30 2373 H 225.442 -3.20824 -1.9007 0
M  V30 2374 N 227.627 0.131896 -1.57047 0
M  V30 2375 C 228.557 1.16384 -2.02428 0
M  V30 2376 C 229.538 1.43936 -0.90644 0
M  V30 2377 O 230.723 1.54599 -1.17528 0
M  V30 2378 C 227.853 2.49328 -2.4177 0
M  V30 2379 C 226.807 2.36266 -3.56879 0
M  V30 2380 C 226.133 3.74057 -3.8208 0
M  V30 2381 C 227.433 1.834 -4.89042 0
M  V30 2382 H 229.127 0.786433 -2.88887 0
M  V30 2383 H 226.673 0.376855 -1.38981 0
M  V30 2384 H 228.626 3.21759 -2.7212 0
M  V30 2385 H 227.35 2.88934 -1.52266 0
M  V30 2386 H 226.009 1.66286 -3.26718 0
M  V30 2387 H 225.657 4.11125 -2.89803 0
M  V30 2388 H 225.357 3.66174 -4.59554 0
M  V30 2389 H 226.881 4.48012 -4.1487 0
M  V30 2390 H 228.295 2.45636 -5.18011 0
M  V30 2391 H 226.692 1.8637 -5.70426 0
M  V30 2392 H 227.762 0.790662 -4.7841 0
M  V30 2393 N 229.106 1.52395 0.401703 0
M  V30 2394 C 230.355 1.66044 1.14509 0
M  V30 2395 C 230.668 0.400216 1.91462 0
M  V30 2396 O 231.874 0.416632 2.68284 0
M  V30 2397 C 230.33 2.93388 2.0845 0
M  V30 2398 C 229.938 4.26545 1.36978 0
M  V30 2399 C 231.682 3.16402 2.83001 0
M  V30 2400 C 229.589 5.45007 2.29611 0
M  V30 2401 H 228.519 0.618562 0.431158 0
M  V30 2402 H 231.17 1.78886 0.40892 0
M  V30 2403 H 229.552 2.74263 2.8565 0
M  V30 2404 H 230.726 4.56179 0.650916 0
M  V30 2405 H 229.041 4.09692 0.74438 0
M  V30 2406 H 231.638 4.02085 3.52465 0
M  V30 2407 H 231.981 2.30943 3.46368 0
M  V30 2408 H 232.514 3.36034 2.12898 0
M  V30 2409 H 229.253 6.32835 1.70879 0
M  V30 2410 H 228.773 5.19702 2.9945 0
M  V30 2411 H 230.452 5.7838 2.89974 0
M  V30 2412 N 230.584 -0.659388 1.43143 0
M  V30 2413 C 231.833 -1.41518 1.43721 0
M  V30 2414 C 232.146 -1.95499 0.0628176 0
M  V30 2415 O 233.352 -2.71446 -0.0539683 0
M  V30 2416 C 231.808 -2.5608 2.52885 0
M  V30 2417 C 231.416 -2.08733 3.96402 0
M  V30 2418 C 233.16 -3.3349 2.62649 0
M  V30 2419 C 231.067 -3.20469 4.97045 0
M  V30 2420 H 229.997 -0.531705 0.534608 0
M  V30 2421 H 232.648 -0.712343 1.69109 0
M  V30 2422 H 231.03 -3.28805 2.20688 0
M  V30 2423 H 232.204 -1.43059 4.3803 0
M  V30 2424 H 230.519 -1.44219 3.90627 0
M  V30 2425 H 233.116 -4.16734 3.35017 0
M  V30 2426 H 233.459 -3.8111 1.67513 0
M  V30 2427 H 233.992 -2.67842 2.94118 0
M  V30 2428 H 230.731 -2.77824 5.93712 0
M  V30 2429 H 230.251 -3.84874 4.60034 0
M  V30 2430 H 231.93 -3.85698 5.19467 0
M  V30 2431 N 232.062 -1.29571 -0.897171 0
M  V30 2432 C 233.478 -1.07637 -1.17841 0
M  V30 2433 C 233.678 0.170713 -2.00776 0
M  V30 2434 O 232.734 0.867768 -2.3712 0
M  V30 2435 C 234.047 -2.3332 -1.8969 0
M  V30 2436 C 235.595 -2.38664 -2.02505 0
M  V30 2437 C 236.07 -3.64157 -2.77765 0
M  V30 2438 N 237.561 -3.64894 -2.85318 0
M  V30 2439 C 238.296 -4.58679 -3.44094 0
M  V30 2440 N 237.792 -5.62799 -4.04017 0
M  V30 2441 N 239.585 -4.46245 -3.41793 0
M  V30 2442 H 231.736 -2.09598 -0.343883 0
M  V30 2443 H 233.999 -0.923333 -0.214848 0
M  V30 2444 H 233.705 -3.24262 -1.36187 0
M  V30 2445 H 233.579 -2.41025 -2.9015 0
M  V30 2446 H 235.966 -1.48208 -2.55183 0
M  V30 2447 H 236.047 -2.34943 -1.01171 0
M  V30 2448 H 235.691 -4.54965 -2.25763 0
M  V30 2449 H 235.621 -3.65137 -3.7945 0
M  V30 2450 H 238.112 -2.89613 -2.42761 0
M  V30 2451 H 238.425 -6.3048 -4.46895 0
M  V30 2452 H 236.77 -5.66605 -4.02472 0
M  V30 2453 H 239.961 -3.64094 -2.94199 0
M  V30 2454 H 240.134 -5.19518 -3.87304 0
M  V30 2455 N 233.54 1.10788 -1.12088 0
M  V30 2456 C 234.787 1.82671 -0.873931 0
M  V30 2457 C 235.115 1.85004 0.600311 0
M  V30 2458 O 234.37 1.30365 1.45957 0
M  V30 2459 C 234.669 3.29294 -1.38926 0
M  V30 2460 C 234.335 3.47113 -2.87791 0
M  V30 2461 C 232.997 3.51684 -3.28439 0
M  V30 2462 C 235.349 3.52808 -3.83635 0
M  V30 2463 C 232.677 3.59513 -4.63646 0
M  V30 2464 C 235.029 3.62169 -5.18668 0
M  V30 2465 C 233.693 3.65003 -5.58864 0
M  V30 2466 H 232.963 0.668441 -0.319794 0
M  V30 2467 H 235.61 1.30613 -1.40045 0
M  V30 2468 H 233.915 3.83894 -0.783122 0
M  V30 2469 H 235.612 3.83416 -1.17443 0
M  V30 2470 H 232.202 3.4423 -2.5535 0
M  V30 2471 H 236.386 3.4853 -3.53328 0
M  V30 2472 H 231.642 3.59987 -4.94185 0
M  V30 2473 H 235.816 3.6552 -5.92763 0
M  V30 2474 H 233.443 3.70822 -6.63623 0
M  V30 2475 N 235.018 0.912232 1.28515 0
M  V30 2476 C 236.243 0.559774 1.99703 0
M  V30 2477 C 236.668 -0.851393 1.67729 0
M  V30 2478 O 236.026 -1.56875 0.908834 0
M  V30 2479 C 236.074 0.773874 3.52198 0
M  V30 2480 O 235.178 -0.167842 4.12058 0
M  V30 2481 H 234.519 0.21723 0.627461 0
M  V30 2482 H 237.049 1.22725 1.63706 0
M  V30 2483 H 237.059 0.683386 4.02236 0
M  V30 2484 H 235.734 1.80261 3.74805 0
M  V30 2485 H 234.311 -0.0287509 3.72889 0
M  V30 2486 N 236.496 -1.42363 0.676048 0
M  V30 2487 C 237.721 -2.06377 0.205705 0
M  V30 2488 C 238.146 -1.50463 -1.12883 0
M  V30 2489 O 237.504 -0.623619 -1.70237 0
M  V30 2490 C 237.552 -3.60277 0.152655 0
M  V30 2491 O 236.656 -4.02935 -0.87845 0
M  V30 2492 H 235.997 -0.655588 0.105359 0
M  V30 2493 H 238.527 -1.82475 0.925412 0
M  V30 2494 H 238.537 -4.07993 -0.0230675 0
M  V30 2495 H 237.212 -4.00346 1.12675 0
M  V30 2496 H 235.789 -3.66764 -0.673668 0
M  V30 2497 N 237.974 -0.419461 -1.51915 0
M  V30 2498 C 239.385 0.0477853 -1.86639 0
M  V30 2499 C 239.736 1.43531 -1.33766 0
M  V30 2500 O 238.861 2.05401 -0.68113 0
M  V30 2501 C 239.456 0.0934885 -3.38671 0
M  V30 2502 C 238.015 0.505097 -3.72996 0
M  V30 2503 C 237.162 -0.313792 -2.75519 0
M  V30 2504 H 240.113 -0.636088 -1.45395 0
M  V30 2505 H 240.134 0.906667 -3.6954 0
M  V30 2506 H 239.646 -0.916501 -3.77123 0
M  V30 2507 H 237.747 1.52135 -3.40126 0
M  V30 2508 H 237.86 0.242309 -4.78487 0
M  V30 2509 H 236.224 0.225363 -2.53701 0
M  V30 2510 H 237.007 -1.32232 -3.16812 0
M  V30 2511 N 239.452 1.56882 -0.150215 0
M  V30 2512 C 240.699 1.96228 0.500093 0
M  V30 2513 C 241.027 1.03522 1.64661 0
M  V30 2514 O 240.282 0.0650683 1.95592 0
M  V30 2515 C 240.581 3.41801 1.04437 0
M  V30 2516 C 240.247 4.50897 0.0159671 0
M  V30 2517 C 238.909 4.8046 -0.266731 0
M  V30 2518 C 241.261 5.16703 -0.683192 0
M  V30 2519 C 238.589 5.73135 -1.25434 0
M  V30 2520 C 240.941 6.10441 -1.65964 0
M  V30 2521 C 239.605 6.38382 -1.95 0
M  V30 2522 H 238.875 0.718048 0.182997 0
M  V30 2523 H 241.522 1.90019 -0.237724 0
M  V30 2524 H 239.827 3.44857 1.85959 0
M  V30 2525 H 241.524 3.69573 1.55618 0
M  V30 2526 H 238.114 4.27891 0.246485 0
M  V30 2527 H 242.298 4.93993 -0.477983 0
M  V30 2528 H 237.554 5.93074 -1.48571 0
M  V30 2529 H 241.728 6.60507 -2.20689 0
M  V30 2530 H 239.355 7.09996 -2.71679 0
M  V30 2531 N 240.93 -0.123565 1.57115 0
M  V30 2532 C 242.207 -0.862196 1.75572 0
M  V30 2533 C 242.587 -1.98279 0.724475 0
M  V30 2534 O 241.935 -2.27102 -0.252407 0
M  V30 2535 C 242.145 -1.38309 3.20424 0
M  V30 2536 C 243.493 -1.83724 3.82793 0
M  V30 2537 O 244.517 -1.47999 3.23998 0
M  V30 2538 O 243.376 -2.49685 4.86127 0
M  V30 2539 H 240.47 -0.409113 0.718718 0
M  V30 2540 H 243.016 -0.107661 1.69358 0
M  V30 2541 H 241.788 -0.578889 3.86994 0
M  V30 2542 H 241.411 -2.20046 3.31158 0
M  V30 2543 N 242.408 -1.52605 -0.393616 0
M  V30 2544 C 243.657 -1.66649 -1.13627 0
M  V30 2545 C 243.97 -0.410364 -1.91247 0
M  V30 2546 O 245.176 -0.430854 -2.68059 0
M  V30 2547 C 243.632 -2.9449 -2.06891 0
M  V30 2548 C 243.24 -4.27266 -1.34714 0
M  V30 2549 C 244.984 -3.17899 -2.81319 0
M  V30 2550 C 242.891 -5.46217 -2.26717 0
M  V30 2551 H 241.821 -0.62084 -0.427871 0
M  V30 2552 H 244.472 -1.791 -0.399428 0
M  V30 2553 H 242.854 -2.75774 -2.84191 0
M  V30 2554 H 244.028 -4.56518 -0.626714 0
M  V30 2555 H 242.343 -4.10081 -0.722643 0
M  V30 2556 H 244.94 -4.03949 -3.50328 0
M  V30 2557 H 245.283 -2.32777 -3.45139 0
M  V30 2558 H 245.816 -3.37159 -2.11113 0
M  V30 2559 H 242.555 -6.33733 -1.67521 0
M  V30 2560 H 242.075 -5.21283 -2.96689 0
M  V30 2561 H 243.754 -5.7991 -2.86903 0
M  V30 2562 N 243.887 0.651787 -1.4349 0
M  V30 2563 C 244.85 1.74647 -1.48429 0
M  V30 2564 C 245.85 1.56513 -0.368817 0
M  V30 2565 O 247.04 1.62385 -0.630623 0
M  V30 2566 C 244.172 3.13533 -1.33827 0
M  V30 2567 H 245.365 1.71649 -2.4592 0
M  V30 2568 H 242.918 0.863573 -1.30277 0
M  V30 2569 H 243.653 3.22142 -0.37349 0
M  V30 2570 H 243.438 3.28101 -2.14691 0
M  V30 2571 H 244.928 3.93356 -1.40218 0
M  V30 2572 N 245.365 1.30045 0.890287 0
M  V30 2573 C 246.642 1.09227 1.62262 0
M  V30 2574 C 247.022 -0.360305 2.08002 0
M  V30 2575 O 246.37 -1.35084 1.84295 0
M  V30 2576 C 246.58 2.08835 2.79623 0
M  V30 2577 C 247.928 2.40266 3.50082 0
M  V30 2578 O 248.952 2.07104 2.89804 0
M  V30 2579 O 247.811 2.96967 4.58773 0
M  V30 2580 H 244.905 0.419132 0.712922 0
M  V30 2581 H 247.451 1.41451 0.937529 0
M  V30 2582 H 246.223 3.06633 2.43089 0
M  V30 2583 H 245.846 1.77397 3.55832 0
M  V30 2584 N 246.843 -1.10192 1.12674 0
M  V30 2585 C 248.071 -1.85983 0.906527 0
M  V30 2586 C 248.486 -1.80783 -0.544333 0
M  V30 2587 O 247.843 -1.19834 -1.37645 0
M  V30 2588 C 247.894 -3.34281 1.37618 0
M  V30 2589 O 247.615 -3.39401 2.77017 0
M  V30 2590 C 249.116 -4.26938 1.19325 0
M  V30 2591 H 246.336 -0.587716 0.323775 0
M  V30 2592 H 248.88 -1.39284 1.49734 0
M  V30 2593 H 247.035 -3.78436 0.828539 0
M  V30 2594 H 247.449 -4.31838 2.97684 0
M  V30 2595 H 248.923 -5.29181 1.57071 0
M  V30 2596 H 249.4 -4.38995 0.134097 0
M  V30 2597 H 250.006 -3.8859 1.72852 0
M  V30 2598 N 248.321 -0.919034 -1.28029 0
M  V30 2599 C 249.546 -0.570357 -1.99403 0
M  V30 2600 C 249.971 0.842486 -1.68178 0
M  V30 2601 O 249.329 1.56391 -0.917141 0
M  V30 2602 C 249.377 -0.792541 -3.51783 0
M  V30 2603 O 248.481 0.145988 -4.12142 0
M  V30 2604 H 247.822 -0.220555 -0.6263 0
M  V30 2605 H 250.352 -1.23592 -1.63053 0
M  V30 2606 H 250.362 -0.704708 -4.01868 0
M  V30 2607 H 249.037 -1.82247 -3.73844 0
M  V30 2608 H 247.614 0.00897528 -3.72899 0
M  V30 2609 N 249.799 1.42003 -0.683588 0
M  V30 2610 C 251.027 2.05746 -0.218182 0
M  V30 2611 C 251.442 1.51396 1.12804 0
M  V30 2612 O 250.799 0.657303 1.70252 0
M  V30 2613 C 250.85 3.61171 -0.154131 0
M  V30 2614 O 250.571 4.13508 -1.44716 0
M  V30 2615 C 252.072 4.42042 0.333713 0
M  V30 2616 H 249.292 0.662888 -0.10402 0
M  V30 2617 H 251.836 1.81987 -0.9328 0
M  V30 2618 H 249.991 3.84012 0.511231 0
M  V30 2619 H 250.405 5.07453 -1.32632 0
M  V30 2620 H 251.879 5.51028 0.327423 0
M  V30 2621 H 252.356 4.17269 1.37053 0
M  V30 2622 H 252.962 4.24239 -0.300222 0
M  V30 2623 N 251.277 0.427512 1.51691 0
M  V30 2624 C 252.24 -0.377132 2.26076 0
M  V30 2625 C 253.24 -0.958089 1.29141 0
M  V30 2626 O 254.43 -0.83408 1.52934 0
M  V30 2627 C 251.562 -1.53262 3.04506 0
M  V30 2628 H 252.755 0.27464 2.9864 0
M  V30 2629 H 250.308 0.180445 1.55255 0
M  V30 2630 H 251.043 -2.22072 2.36335 0
M  V30 2631 H 250.828 -1.12232 3.75694 0
M  V30 2632 H 252.318 -2.10135 3.60878 0
M  V30 2633 N 252.755 -1.56801 0.158532 0
M  V30 2634 C 254.002 -1.9649 -0.489679 0
M  V30 2635 C 254.33 -1.04394 -1.6411 0
M  V30 2636 O 253.585 -0.0754401 -1.95555 0
M  V30 2637 C 253.884 -3.4235 -1.02623 0
M  V30 2638 C 253.55 -4.50899 0.00794526 0
M  V30 2639 C 252.212 -4.80312 0.292207 0
M  V30 2640 C 254.564 -5.16333 0.710584 0
M  V30 2641 C 251.892 -5.72461 1.28472 0
M  V30 2642 C 254.244 -6.09553 1.69199 0
M  V30 2643 C 252.908 -6.37339 1.98383 0
M  V30 2644 H 252.178 -0.719009 -0.179186 0
M  V30 2645 H 254.825 -1.8989 0.247798 0
M  V30 2646 H 253.13 -3.45838 -1.84128 0
M  V30 2647 H 254.827 -3.70393 -1.53656 0
M  V30 2648 H 251.417 -4.28015 -0.22379 0
M  V30 2649 H 255.601 -4.93732 0.504174 0
M  V30 2650 H 250.857 -5.92278 1.51714 0
M  V30 2651 H 255.031 -6.59327 2.24189 0
M  V30 2652 H 252.658 -7.08546 2.7544 0
M  V30 2653 N 254.233 0.115231 -1.57178 0
M  V30 2654 C 255.48 0.822351 -1.8505 0
M  V30 2655 C 255.808 1.79701 -0.744168 0
M  V30 2656 O 255.063 1.93909 0.26414 0
M  V30 2657 C 255.362 1.60324 -3.19423 0
M  V30 2658 C 255.028 0.772536 -4.44233 0
M  V30 2659 C 253.69 0.543468 -4.78121 0
M  V30 2660 C 256.042 0.193746 -5.2084 0
M  V30 2661 C 253.37 -0.274583 -5.86057 0
M  V30 2662 C 255.722 -0.611517 -6.29637 0
M  V30 2663 C 254.386 -0.850867 -6.62055 0
M  V30 2664 H 253.656 0.30092 -0.677147 0
M  V30 2665 H 256.303 0.0845802 -1.91313 0
M  V30 2666 H 254.608 2.41203 -3.08753 0
M  V30 2667 H 256.305 2.1544 -3.38211 0
M  V30 2668 H 252.895 0.96117 -4.17683 0
M  V30 2669 H 257.079 0.357926 -4.95008 0
M  V30 2670 H 252.335 -0.469206 -6.09597 0
M  V30 2671 H 256.509 -1.06697 -6.88178 0
M  V30 2672 H 254.136 -1.48657 -7.45523 0
M  V30 2673 N 255.711 1.52812 0.385517 0
M  V30 2674 C 256.951 1.69716 1.13911 0
M  V30 2675 C 257.315 0.42962 1.87132 0
M  V30 2676 O 258.516 0.475071 2.64569 0
M  V30 2677 C 256.787 2.90021 2.0886 0
M  V30 2678 S 258.346 3.27531 2.92009 0
M  V30 2679 H 255.164 0.59739 0.385547 0
M  V30 2680 H 257.766 1.90868 0.423061 0
M  V30 2681 H 256.47 3.80493 1.53797 0
M  V30 2682 H 256.001 2.71213 2.84969 0
M  V30 2683 H 258.016 2.77989 4.11019 0
M  V30 2684 N 257.189 -0.644168 1.43834 0
M  V30 2685 C 258.419 -1.42939 1.49171 0
M  V30 2686 C 258.827 -1.88874 0.111048 0
M  V30 2687 O 258.17 -1.60656 -0.8908 0
M  V30 2688 C 258.232 -2.69151 2.38324 0
M  V30 2689 C 257.896 -2.45097 3.85715 0
M  V30 2690 C 258.893 -2.07747 4.76589 0
M  V30 2691 C 256.578 -2.59141 4.30292 0
M  V30 2692 C 258.572 -1.8475 6.10038 0
M  V30 2693 C 256.259 -2.35759 5.63792 0
M  V30 2694 C 257.257 -1.9862 6.53482 0
M  V30 2695 O 256.945 -1.75489 7.84512 0
M  V30 2696 H 256.677 -0.445271 0.508635 0
M  V30 2697 H 259.231 -0.79621 1.8934 0
M  V30 2698 H 257.461 -3.3506 1.93058 0
M  V30 2699 H 259.15 -3.31123 2.3476 0
M  V30 2700 H 259.916 -1.96465 4.43426 0
M  V30 2701 H 255.795 -2.87022 3.60749 0
M  V30 2702 H 259.339 -1.55686 6.80006 0
M  V30 2703 H 255.236 -2.46646 5.9652 0
M  V30 2704 H 256.004 -1.89841 7.9618 0
M  V30 2705 N 258.668 -1.30515 -0.883378 0
M  V30 2706 C 259.898 -1.22182 -1.66599 0
M  V30 2707 C 260.306 0.217507 -1.87946 0
M  V30 2708 O 259.649 1.1554 -1.42815 0
M  V30 2709 C 259.711 -1.88146 -3.06335 0
M  V30 2710 C 259.375 -3.37476 -3.08154 0
M  V30 2711 C 260.372 -4.33443 -2.87094 0
M  V30 2712 C 258.057 -3.7895 -3.29701 0
M  V30 2713 C 260.051 -5.68858 -2.8754 0
M  V30 2714 C 257.738 -5.14482 -3.29776 0
M  V30 2715 C 258.736 -6.09246 -3.0872 0
M  V30 2716 O 258.424 -7.42302 -3.08615 0
M  V30 2717 H 258.156 -0.423898 -0.52658 0
M  V30 2718 H 260.71 -1.72703 -1.11188 0
M  V30 2719 H 258.94 -1.32157 -3.63416 0
M  V30 2720 H 260.629 -1.7391 -3.66756 0
M  V30 2721 H 261.395 -4.02733 -2.70243 0
M  V30 2722 H 257.274 -3.05631 -3.45124 0
M  V30 2723 H 260.818 -6.428 -2.71024 0
M  V30 2724 H 256.715 -5.44832 -3.46163 0
M  V30 2725 H 257.483 -7.5131 -3.24769 0
M  V30 2726 N 260.146 1.09593 -1.13257 0
M  V30 2727 C 261.392 1.82003 -0.89458 0
M  V30 2728 C 261.725 1.85402 0.577906 0
M  V30 2729 O 261 1.32099 1.42759 0
M  V30 2730 C 261.283 3.28237 -1.48096 0
M  V30 2731 C 261.136 3.3312 -3.02244 0
M  V30 2732 C 262.455 4.24871 -1.14774 0
M  V30 2733 H 259.574 0.66077 -0.326424 0
M  V30 2734 H 262.216 1.28389 -1.40058 0
M  V30 2735 H 260.366 3.74024 -1.05062 0
M  V30 2736 H 262.038 2.95748 -3.54021 0
M  V30 2737 H 260.281 2.72756 -3.37323 0
M  V30 2738 H 260.952 4.3613 -3.38371 0
M  V30 2739 H 263.428 3.87361 -1.51957 0
M  V30 2740 H 262.304 5.25532 -1.58452 0
M  V30 2741 H 262.565 4.42058 -0.0611849 0
M  V30 2742 N 261.624 0.925811 1.2754 0
M  V30 2743 C 262.574 0.394488 2.24561 0
M  V30 2744 C 263.558 -0.500183 1.52928 0
M  V30 2745 O 264.75 -0.337936 1.73744 0
M  V30 2746 C 261.879 -0.353328 3.41477 0
M  V30 2747 C 260.965 0.557752 4.20416 0
M  V30 2748 N 261.356 1.67674 4.77199 0
M  V30 2749 C 259.654 0.360404 4.44541 0
M  V30 2750 C 260.355 2.24324 5.36706 0
M  V30 2751 N 259.331 1.53305 5.21535 0
M  V30 2752 H 263.133 1.2489 2.66045 0
M  V30 2753 H 260.647 0.779864 1.4245 0
M  V30 2754 H 262.644 -0.7509 4.10082 0
M  V30 2755 H 261.304 -1.20469 3.01525 0
M  V30 2756 H 262.315 2.05915 4.75204 0
M  V30 2757 H 258.992 -0.450454 4.15063 0
M  V30 2758 H 260.382 3.18521 5.91603 0
M  V30 2759 N 263.102 -1.41638 0.69111 0
M  V30 2760 C 264.332 -2.0533 0.228758 0
M  V30 2761 C 264.74 -1.52089 -1.12541 0
M  V30 2762 O 264.083 -0.662145 -1.71351 0
M  V30 2763 C 264.145 -3.59349 0.10407 0
M  V30 2764 C 263.809 -4.35362 1.38956 0
M  V30 2765 C 264.806 -4.64942 2.32648 0
M  V30 2766 C 262.491 -4.74714 1.64169 0
M  V30 2767 C 264.485 -5.32828 3.49818 0
M  V30 2768 C 262.172 -5.42338 2.81625 0
M  V30 2769 C 263.17 -5.71322 3.74273 0
M  V30 2770 O 262.858 -6.37554 4.89673 0
M  V30 2771 H 262.59 -0.667796 0.104997 0
M  V30 2772 H 265.144 -1.82477 0.942938 0
M  V30 2773 H 263.374 -3.80924 -0.665839 0
M  V30 2774 H 265.063 -4.04633 -0.320519 0
M  V30 2775 H 265.829 -4.35025 2.14425 0
M  V30 2776 H 261.708 -4.51538 0.929202 0
M  V30 2777 H 265.252 -5.55368 4.22152 0
M  V30 2778 H 261.149 -5.71673 2.99768 0
M  V30 2779 H 261.917 -6.56049 4.8943 0
M  V30 2780 N 264.58 -0.43555 -1.51462 0
M  V30 2781 C 265.826 0.123979 -2.03022 0
M  V30 2782 C 266.181 1.4054 -1.31401 0
M  V30 2783 O 265.474 1.86948 -0.419634 0
M  V30 2784 C 265.668 0.39942 -3.55161 0
M  V30 2785 C 265.497 -0.853754 -4.41521 0
M  V30 2786 C 264.267 -1.38675 -4.85898 0
M  V30 2787 C 266.465 -1.73939 -4.83994 0
M  V30 2788 N 264.447 -2.59265 -5.56466 0
M  V30 2789 C 265.818 -2.79135 -5.5361 0
M  V30 2790 C 267.873 -1.75402 -4.65981 0
M  V30 2791 C 266.576 -3.85737 -6.07124 0
M  V30 2792 C 268.602 -2.80938 -5.20411 0
M  V30 2793 C 267.964 -3.84854 -5.89972 0
M  V30 2794 H 264.063 0.00624887 -0.781975 0
M  V30 2795 H 266.647 -0.59582 -1.85359 0
M  V30 2796 H 264.818 1.08825 -3.72843 0
M  V30 2797 H 266.55 0.95015 -3.93388 0
M  V30 2798 H 263.305 -0.94094 -4.64159 0
M  V30 2799 H 263.729 -3.2041 -5.96378 0
M  V30 2800 H 268.371 -0.963926 -4.11665 0
M  V30 2801 H 266.089 -4.65586 -6.60496 0
M  V30 2802 H 269.675 -2.8301 -5.08327 0
M  V30 2803 H 268.555 -4.65176 -6.31333 0
M  V30 2804 N 266.058 1.56714 -0.166846 0
M  V30 2805 C 266.968 2.21331 0.777791 0
M  V30 2806 C 267.984 1.20358 1.25658 0
M  V30 2807 O 269.16 1.53005 1.30964 0
M  V30 2808 C 266.225 2.83787 1.99163 0
M  V30 2809 C 265.286 3.99947 1.56016 0
M  V30 2810 C 264.519 4.59415 2.71613 0
M  V30 2811 O 264.742 4.17769 3.88362 0
M  V30 2812 O 263.676 5.49359 2.45945 0
M  V30 2813 H 267.502 3.02605 0.257636 0
M  V30 2814 H 265.087 1.49275 0.0611393 0
M  V30 2815 H 266.969 3.23405 2.70161 0
M  V30 2816 H 265.644 2.05513 2.50092 0
M  V30 2817 H 264.551 3.65007 0.819809 0
M  V30 2818 H 265.884 4.79801 1.09782 0
M  V30 2819 N 267.536 -0.106894 1.57237 0
M  V30 2820 C 268.483 -1.13049 2.01217 0
M  V30 2821 C 269.453 -1.40471 0.886403 0
M  V30 2822 O 270.638 -1.52133 1.15153 0
M  V30 2823 C 267.778 -2.4487 2.43172 0
M  V30 2824 C 266.891 -2.24281 3.69218 0
M  V30 2825 C 266.026 -3.49417 4.00101 0
M  V30 2826 C 265.065 -3.24038 5.19294 0
M  V30 2827 N 264.202 -4.41409 5.45988 0
M  V30 2828 H 269.042 -0.748456 2.88448 0
M  V30 2829 H 266.579 -0.358054 1.42676 0
M  V30 2830 H 268.537 -3.21786 2.65537 0
M  V30 2831 H 267.167 -2.80944 1.58967 0
M  V30 2832 H 266.219 -1.38224 3.54398 0
M  V30 2833 H 267.531 -2.01512 4.56283 0
M  V30 2834 H 266.685 -4.34746 4.2318 0
M  V30 2835 H 265.424 -3.75229 3.11535 0
M  V30 2836 H 264.429 -2.37102 4.96047 0
M  V30 2837 H 265.654 -2.99584 6.09447 0
M  V30 2838 H 263.6 -4.67319 4.60379 0
M  V30 2839 H 263.517 -4.21788 6.274 0
M  V30 2840 H 264.785 -5.27836 5.73593 0
M  V30 2841 N 269.014 -1.53014 -0.377408 0
M  V30 2842 C 270.262 -1.6829 -1.11906 0
M  V30 2843 C 270.583 -0.431206 -1.90173 0
M  V30 2844 O 269.853 0.554595 -1.87886 0
M  V30 2845 H 268.433 -0.620371 -0.416112 0
M  V30 2846 H 271.095 -1.90167 -0.426893 0
M  V30 2847 H 270.191 -2.53862 -1.8155 0
M  V30 2848 N 270.492 0.636531 -1.44174 0
M  V30 2849 C 271.74 1.39343 -1.46383 0
M  V30 2850 C 272.061 1.94766 -0.0955715 0
M  V30 2851 O 271.331 1.75452 0.871395 0
M  V30 2852 H 269.911 0.517199 -0.538994 0
M  V30 2853 H 272.573 0.74957 -1.7991 0
M  V30 2854 H 271.669 2.22746 -2.18611 0
M  V30 2855 N 271.97 1.30982 0.876444 0
M  V30 2856 C 273.219 1.19658 1.62373 0
M  V30 2857 C 273.532 -0.245636 1.94052 0
M  V30 2858 O 274.738 -0.48049 2.67214 0
M  V30 2859 C 273.194 2.09433 2.92687 0
M  V30 2860 C 272.802 3.58613 2.68516 0
M  V30 2861 C 274.546 2.06893 3.70669 0
M  V30 2862 C 272.453 4.40416 3.94699 0
M  V30 2863 H 271.383 0.444268 0.609214 0
M  V30 2864 H 274.034 1.55791 0.969605 0
M  V30 2865 H 272.416 1.66191 3.59439 0
M  V30 2866 H 273.59 4.10058 2.10212 0
M  V30 2867 H 271.905 3.63063 2.03898 0
M  V30 2868 H 274.502 2.65258 4.64265 0
M  V30 2869 H 274.845 1.05448 4.02724 0
M  V30 2870 H 275.378 2.48301 3.10792 0
M  V30 2871 H 272.117 5.42591 3.67798 0
M  V30 2872 H 271.637 3.93731 4.52477 0
M  V30 2873 H 273.316 4.52294 4.62644 0
M  V30 2874 N 273.449 -1.08991 1.13837 0
M  V30 2875 C 274.381 -2.15606 0.777612 0
M  V30 2876 C 275.394 -1.61533 -0.202739 0
M  V30 2877 O 276.583 -1.78491 0.0181055 0
M  V30 2878 C 273.683 -3.3864 0.132623 0
M  V30 2879 C 272.856 -4.22115 1.1462 0
M  V30 2880 C 271.915 -5.23564 0.526074 0
M  V30 2881 O 270.941 -5.56678 1.18735 0
M  V30 2882 N 272.143 -5.76266 -0.699866 0
M  V30 2883 H 274.908 -2.47159 1.69506 0
M  V30 2884 H 272.469 -1.24747 1.03198 0
M  V30 2885 H 274.461 -4.03626 -0.29459 0
M  V30 2886 H 273.031 -3.04938 -0.687849 0
M  V30 2887 H 272.251 -3.53199 1.75055 0
M  V30 2888 H 273.539 -4.74709 1.83109 0
M  V30 2889 H 272.937 -5.51585 -1.25581 0
M  V30 2890 H 271.494 -6.42963 -1.06968 0
M  V30 2891 N 274.927 -0.932562 -1.27047 0
M  V30 2892 C 275.859 -0.392734 -2.2581 0
M  V30 2893 C 276.872 0.479241 -1.55586 0
M  V30 2894 O 278.061 0.291078 -1.76111 0
M  V30 2895 C 275.161 0.455456 -3.35826 0
M  V30 2896 C 274.334 -0.398355 -4.35582 0
M  V30 2897 C 273.393 0.387985 -5.24768 0
M  V30 2898 O 272.419 -0.206003 -5.68827 0
M  V30 2899 N 273.621 1.68664 -5.55457 0
M  V30 2900 H 276.386 -1.24173 -2.72766 0
M  V30 2901 H 273.947 -0.800511 -1.40725 0
M  V30 2902 H 275.939 0.988692 -3.92437 0
M  V30 2903 H 274.509 1.20522 -2.88432 0
M  V30 2904 H 273.729 -1.11286 -3.78165 0
M  V30 2905 H 275.017 -0.981889 -4.99236 0
M  V30 2906 H 274.415 2.19147 -5.21528 0
M  V30 2907 H 272.972 2.1663 -6.14748 0
M  V30 2908 N 276.405 1.4127 -0.698611 0
M  V30 2909 C 277.651 2.01478 -0.231207 0
M  V30 2910 C 277.984 1.55215 1.16713 0
M  V30 2911 O 277.259 0.764672 1.78838 0
M  V30 2912 C 277.542 3.58912 -0.292281 0
M  V30 2913 C 277.395 4.15293 -1.72778 0
M  V30 2914 C 278.714 4.38736 0.346194 0
M  V30 2915 H 275.833 0.732025 -0.0854878 0
M  V30 2916 H 278.475 1.67977 -0.887906 0
M  V30 2917 H 276.625 3.87582 0.26686 0
M  V30 2918 H 278.297 3.97486 -2.341 0
M  V30 2919 H 276.54 3.7022 -2.26096 0
M  V30 2920 H 277.211 5.24452 -1.72202 0
M  V30 2921 H 279.687 4.15897 -0.130035 0
M  V30 2922 H 278.563 5.48221 0.272932 0
M  V30 2923 H 278.824 4.18425 1.42734 0
M  V30 2924 N 277.883 0.443576 1.51229 0
M  V30 2925 C 278.83 -0.364716 2.279 0
M  V30 2926 C 279.8 -1.0114 1.31757 0
M  V30 2927 O 280.985 -1.02912 1.60667 0
M  V30 2928 C 278.125 -1.45644 3.12861 0
M  V30 2929 C 277.238 -0.827269 4.24005 0
M  V30 2930 C 276.373 -1.89456 4.96266 0
M  V30 2931 C 275.412 -1.24416 5.99322 0
M  V30 2932 N 274.549 -2.25309 6.64966 0
M  V30 2933 H 279.389 0.295464 2.96532 0
M  V30 2934 H 276.926 0.157554 1.46254 0
M  V30 2935 H 278.884 -2.10076 3.6045 0
M  V30 2936 H 277.514 -2.08616 2.46331 0
M  V30 2937 H 276.566 -0.0710839 3.80334 0
M  V30 2938 H 277.878 -0.312481 4.9782 0
M  V30 2939 H 277.032 -2.61535 5.47434 0
M  V30 2940 H 275.771 -2.4431 4.22095 0
M  V30 2941 H 274.776 -0.508868 5.4744 0
M  V30 2942 H 276.001 -0.702882 6.75453 0
M  V30 2943 H 273.947 -2.79231 5.93604 0
M  V30 2944 H 273.864 -1.78739 7.34567 0
M  V30 2945 H 275.132 -2.96853 7.20763 0
M  V30 2946 N 279.361 -1.56624 0.175154 0
M  V30 2947 C 280.609 -1.96609 -0.467885 0
M  V30 2948 C 280.93 -1.06238 -1.63519 0
M  V30 2949 O 280.2 -0.129523 -1.95471 0
M  V30 2950 H 278.78 -0.726008 -0.175845 0
M  V30 2951 H 281.442 -1.93195 0.257234 0
M  V30 2952 H 280.538 -3.00989 -0.825342 0
M  V30 2953 N 280.839 0.0985539 -1.57292 0
M  V30 2954 C 282.25 0.653457 -1.74891 0
M  V30 2955 C 282.601 1.7929 -0.796838 0
M  V30 2956 O 281.726 2.16385 0.0254886 0
M  V30 2957 C 282.321 1.19216 -3.17133 0
M  V30 2958 C 280.88 1.69316 -3.36168 0
M  V30 2959 C 280.027 0.601294 -2.70702 0
M  V30 2960 H 282.978 -0.127497 -1.58187 0
M  V30 2961 H 282.999 2.06154 -3.19814 0
M  V30 2962 H 282.511 0.362635 -3.86402 0
M  V30 2963 H 280.612 2.5468 -2.71972 0
M  V30 2964 H 280.725 1.78853 -4.44464 0
M  V30 2965 H 279.089 1.0399 -2.32504 0
M  V30 2966 H 279.872 -0.217592 -3.4261 0
M  V30 2967 N 282.317 1.53212 0.369288 0
M  V30 2968 C 283.564 1.69215 1.11232 0
M  V30 2969 C 283.892 0.442048 1.8941 0
M  V30 2970 O 283.147 -0.575944 1.87033 0
M  V30 2971 C 283.446 2.89101 2.10132 0
M  V30 2972 C 283.112 4.25758 1.48463 0
M  V30 2973 C 281.774 4.6292 1.31372 0
M  V30 2974 C 284.126 5.10757 1.03811 0
M  V30 2975 C 281.454 5.82722 0.68207 0
M  V30 2976 C 283.806 6.31201 0.420487 0
M  V30 2977 C 282.47 6.67079 0.237038 0
M  V30 2978 H 281.74 0.619201 0.407027 0
M  V30 2979 H 284.387 1.87391 0.394552 0
M  V30 2980 H 282.692 2.65421 2.88199 0
M  V30 2981 H 284.389 2.98676 2.6757 0
M  V30 2982 H 280.979 3.96494 1.62758 0
M  V30 2983 H 285.163 4.82599 1.1581 0
M  V30 2984 H 280.419 6.09113 0.528316 0
M  V30 2985 H 284.593 6.96368 0.0662874 0
M  V30 2986 H 282.22 7.59774 -0.254477 0
M  V30 2987 N 283.795 -0.628877 1.44509 0
M  V30 2988 C 285.211 -0.947305 1.28446 0
M  V30 2989 C 285.411 -2.00275 0.221872 0
M  V30 2990 O 284.467 -2.49447 -0.391471 0
M  V30 2991 C 285.78 -1.40843 2.65676 0
M  V30 2992 C 287.328 -1.52379 2.73404 0
M  V30 2993 C 287.803 -2.01875 4.11109 0
M  V30 2994 N 289.294 -2.09142 4.13296 0
M  V30 2995 C 290.029 -2.48615 5.16699 0
M  V30 2996 N 289.525 -2.87209 6.30462 0
M  V30 2997 N 291.318 -2.48768 5.04054 0
M  V30 2998 H 283.469 0.0690977 2.12288 0
M  V30 2999 H 285.732 -0.0317164 0.947469 0
M  V30 3000 H 285.438 -0.707206 3.44516 0
M  V30 3001 H 285.312 -2.37902 2.92716 0
M  V30 3002 H 287.699 -2.21598 1.9488 0
M  V30 3003 H 287.78 -0.536898 2.50102 0
M  V30 3004 H 287.424 -1.3325 4.90109 0
M  V30 3005 H 287.354 -3.0144 4.31789 0
M  V30 3006 H 289.845 -1.81991 3.31191 0
M  V30 3007 H 290.158 -3.16149 7.05174 0
M  V30 3008 H 288.503 -2.84955 6.33897 0
M  V30 3009 H 291.694 -2.18009 4.14234 0
M  V30 3010 H 291.867 -2.79207 5.84763 0
M  V30 3011 N 285.273 -1.31445 -0.869486 0
M  V30 3012 C 286.498 -1.24256 -1.66058 0
M  V30 3013 C 286.923 0.188928 -1.87149 0
M  V30 3014 O 286.281 1.13522 -1.4136 0
M  V30 3015 C 286.329 -1.9924 -3.00559 0
M  V30 3016 O 285.433 -1.33007 -3.90362 0
M  V30 3017 H 284.774 -0.428973 -0.506831 0
M  V30 3018 H 287.304 -1.73521 -1.08404 0
M  V30 3019 H 287.314 -2.08854 -3.50491 0
M  V30 3020 H 285.989 -3.03342 -2.84528 0
M  V30 3021 H 284.566 -1.31848 -3.48813 0
M  V30 3022 N 286.751 1.08385 -1.14413 0
M  V30 3023 C 287.699 2.17406 -0.826888 0
M  V30 3024 C 288.693 1.6827 0.195312 0
M  V30 3025 O 289.899 1.79927 0.0513892 0
M  V30 3026 H 286.274 0.70934 -0.249681 0
M  V30 3027 H 288.245 2.41388 -1.75426 0
M  V30 3028 C 286.994 3.46215 -0.320979 0
M  V30 3029 H 286.317 3.84401 -1.0989 0
M  V30 3030 H 287.757 4.23777 -0.137549 0
M  V30 3031 C 286.216 3.23067 0.955472 0
M  V30 3032 O 286.746 3.4668 2.02918 0
M  V30 3033 N 284.952 2.7661 0.890798 0
M  V30 3034 H 284.499 2.57594 0.0168815 0
M  V30 3035 H 284.457 2.61501 1.74542 0
M  V30 3036 N 288.23 0.939286 1.26551 0
M  V30 3037 C 289.455 0.602008 1.98471 0
M  V30 3038 C 289.88 -0.815624 1.69497 0
M  V30 3039 O 289.238 -1.54912 0.941905 0
M  V30 3040 C 289.286 0.848407 3.50477 0
M  V30 3041 O 288.39 -0.0804009 4.12322 0
M  V30 3042 H 287.731 0.23049 0.622712 0
M  V30 3043 H 290.261 1.2617 1.61066 0
M  V30 3044 H 290.271 0.768553 4.00696 0
M  V30 3045 H 288.946 1.88171 3.70897 0
M  V30 3046 H 287.523 0.0503508 3.72866 0
M  V30 3047 N 289.708 -1.40897 0.706093 0
M  V30 3048 C 290.957 -2.00284 0.238574 0
M  V30 3049 C 291.27 -1.56604 -1.17194 0
M  V30 3050 O 292.476 -2.08624 -1.73748 0
M  V30 3051 C 290.932 -3.57934 0.375623 0
M  V30 3052 C 290.54 -4.10591 1.79217 0
M  V30 3053 C 292.284 -4.24488 -0.0315857 0
M  V30 3054 C 290.191 -5.60712 1.88032 0
M  V30 3055 H 289.121 -0.749144 0.0854398 0
M  V30 3056 H 291.772 -1.61251 0.875813 0
M  V30 3057 H 290.154 -3.94622 -0.330042 0
M  V30 3058 H 291.328 -3.85301 2.52745 0
M  V30 3059 H 289.643 -3.56601 2.15 0
M  V30 3060 H 292.24 -5.34698 0.0136842 0
M  V30 3061 H 292.583 -4.02261 -1.072 0
M  V30 3062 H 293.116 -3.92873 0.624181 0
M  V30 3063 H 289.855 -5.87781 2.90161 0
M  V30 3064 H 289.375 -5.87896 1.18903 0
M  V30 3065 H 291.054 -6.25658 1.64805 0
M  V30 3066 N 291.186 -0.45159 -1.50991 0
M  V30 3067 C 292.411 0.110667 -2.07105 0
M  V30 3068 C 292.836 1.3446 -1.31538 0
M  V30 3069 O 292.194 1.77743 -0.357365 0
M  V30 3070 C 292.242 0.397238 -3.58405 0
M  V30 3071 O 291.346 1.48124 -3.84881 0
M  V30 3072 H 290.687 -0.00439271 -0.663985 0
M  V30 3073 H 293.217 -0.637026 -1.9443 0
M  V30 3074 H 293.227 0.64351 -4.02893 0
M  V30 3075 H 291.902 -0.504553 -4.12828 0
M  V30 3076 H 290.479 1.22381 -3.52246 0
M  V30 3077 N 292.664 1.56529 -0.183458 0
M  V30 3078 C 293.594 2.21549 0.737456 0
M  V30 3079 C 294.575 1.17489 1.23005 0
M  V30 3080 O 295.76 1.45959 1.281 0
M  V30 3081 C 292.89 2.86575 1.96194 0
M  V30 3082 C 291.844 3.96778 1.60473 0
M  V30 3083 C 291.17 4.48911 2.90487 0
M  V30 3084 C 292.47 5.15767 0.823497 0
M  V30 3085 H 294.164 2.98761 0.195453 0
M  V30 3086 H 291.71 1.43702 0.0925686 0
M  V30 3087 H 293.663 3.30739 2.61131 0
M  V30 3088 H 292.387 2.06749 2.52828 0
M  V30 3089 H 291.046 3.53286 0.978997 0
M  V30 3090 H 290.694 3.65862 3.45186 0
M  V30 3091 H 290.394 5.23265 2.67335 0
M  V30 3092 H 291.918 4.95771 3.56432 0
M  V30 3093 H 293.332 5.56549 1.37571 0
M  V30 3094 H 291.729 5.96114 0.690551 0
M  V30 3095 H 292.799 4.84574 -0.177782 0
M  V30 3096 N 294.142 -0.090211 1.57342 0
M  V30 3097 C 295.419 -0.824761 1.77361 0
M  V30 3098 C 295.799 -1.96698 0.76637 0
M  V30 3099 O 295.147 -2.27586 -0.204179 0
M  V30 3100 C 295.357 -1.31481 3.23286 0
M  V30 3101 C 296.705 -1.75563 3.86604 0
M  V30 3102 O 297.729 -1.41093 3.27065 0
M  V30 3103 O 296.588 -2.39317 4.91314 0
M  V30 3104 H 293.682 -0.393776 0.727234 0
M  V30 3105 H 296.228 -0.0717138 1.69548 0
M  V30 3106 H 295 -0.496671 3.88135 0
M  V30 3107 H 294.623 -2.12973 3.35751 0
M  V30 3108 N 295.62 -1.53406 -0.361157 0
M  V30 3109 C 296.568 -1.80832 -1.46296 0
M  V30 3110 C 297.562 -0.677699 -1.55253 0
M  V30 3111 O 298.768 -0.860723 -1.58087 0
M  V30 3112 H 295.143 -0.572627 -0.487445 0
M  V30 3113 H 297.114 -2.73045 -1.20371 0
M  V30 3114 C 295.863 -2.01907 -2.8307 0
M  V30 3115 H 295.186 -2.88349 -2.76938 0
M  V30 3116 H 296.626 -2.25072 -3.59331 0
M  V30 3117 C 295.085 -0.799449 -3.27277 0
M  V30 3118 O 295.615 0.00971761 -4.01699 0
M  V30 3119 N 293.821 -0.621637 -2.83873 0
M  V30 3120 H 293.368 -1.28126 -2.23476 0
M  V30 3121 H 293.326 0.19298 -3.13807 0
M  V30 3122 N 297.098 0.621204 -1.44841 0
M  V30 3123 C 298.028 1.74366 -1.55303 0
M  V30 3124 C 299.009 1.65199 -0.405385 0
M  V30 3125 O 300.194 1.83807 -0.626787 0
M  V30 3126 C 297.324 3.12931 -1.50637 0
M  V30 3127 C 296.278 3.36896 -2.63979 0
M  V30 3128 C 295.604 4.75594 -2.44366 0
M  V30 3129 C 296.904 3.28483 -4.06074 0
M  V30 3130 H 298.598 1.65867 -2.49256 0
M  V30 3131 H 296.144 0.796558 -1.19962 0
M  V30 3132 H 298.097 3.9124 -1.56555 0
M  V30 3133 H 296.821 3.22237 -0.532057 0
M  V30 3134 H 295.48 2.60972 -2.57467 0
M  V30 3135 H 295.128 4.81616 -1.45105 0
M  V30 3136 H 294.828 4.92586 -3.20364 0
M  V30 3137 H 296.352 5.5612 -2.52117 0
M  V30 3138 H 297.766 3.96684 -4.13902 0
M  V30 3139 H 296.163 3.57008 -4.82354 0
M  V30 3140 H 297.233 2.26133 -4.28943 0
M  V30 3141 N 298.576 1.31904 0.862503 0
M  V30 3142 C 299.523 1.20182 1.9704 0
M  V30 3143 C 300.493 0.0858247 1.65878 0
M  V30 3144 O 301.678 0.26 1.8902 0
M  V30 3145 C 298.818 0.922797 3.32533 0
M  V30 3146 C 297.931 2.12284 3.76244 0
M  V30 3147 C 297.066 1.77996 5.00491 0
M  V30 3148 C 296.105 2.94366 5.36671 0
M  V30 3149 N 295.242 2.60223 6.52095 0
M  V30 3150 H 300.082 2.14951 2.06398 0
M  V30 3151 H 297.619 1.06917 1.01031 0
M  V30 3152 H 299.577 0.741548 4.10557 0
M  V30 3153 H 298.207 0.0119227 3.22798 0
M  V30 3154 H 297.259 2.41461 2.9394 0
M  V30 3155 H 298.571 2.99357 3.98982 0
M  V30 3156 H 297.725 1.56377 5.862 0
M  V30 3157 H 296.464 0.881252 4.79672 0
M  V30 3158 H 295.469 3.16625 4.49476 0
M  V30 3159 H 296.694 3.84957 5.59451 0
M  V30 3160 H 294.64 1.72884 6.32809 0
M  V30 3161 H 294.557 3.40827 6.74814 0
M  V30 3162 H 295.825 2.42016 7.40978 0
M  V30 3163 N 300.054 -1.07777 1.14986 0
M  V30 3164 C 301.465 -1.61766 0.932127 0
M  V30 3165 C 301.816 -1.88974 -0.527581 0
M  V30 3166 O 300.941 -1.65198 -1.39781 0
M  V30 3167 C 301.536 -2.93891 1.68563 0
M  V30 3168 C 300.095 -3.44639 1.5133 0
M  V30 3169 C 299.242 -2.18767 1.704 0
M  V30 3170 H 302.193 -0.909201 1.30074 0
M  V30 3171 H 302.214 -3.62623 1.15259 0
M  V30 3172 H 301.726 -2.74057 2.74799 0
M  V30 3173 H 299.827 -3.69564 0.474702 0
M  V30 3174 H 299.94 -4.20966 2.28746 0
M  V30 3175 H 298.304 -2.28253 1.13016 0
M  V30 3176 H 299.087 -2.01433 2.77992 0
M  V30 3177 N 301.532 -0.945985 -1.26051 0
M  V30 3178 C 302.757 -0.612525 -1.98149 0
M  V30 3179 C 303.182 0.806623 -1.69927 0
M  V30 3180 O 302.54 1.54411 -0.950108 0
M  V30 3181 C 302.588 -0.866981 -3.50023 0
M  V30 3182 O 301.692 0.0585333 -4.12358 0
M  V30 3183 H 301.033 -0.23379 -0.621481 0
M  V30 3184 H 303.563 -1.27023 -1.60395 0
M  V30 3185 H 303.573 -0.789792 -4.00283 0
M  V30 3186 H 302.248 -1.90135 -3.69894 0
M  V30 3187 H 300.825 -0.0701241 -3.72834 0
M  V30 3188 N 303.011 1.40521 -0.713556 0
M  V30 3189 C 304.427 1.54839 -0.386907 0
M  V30 3190 C 304.627 1.68532 1.1045 0
M  V30 3191 O 303.683 1.67377 1.89053 0
M  V30 3192 C 304.996 2.77792 -1.15118 0
M  V30 3193 C 306.544 2.91607 -1.13729 0
M  V30 3194 C 307.019 4.1747 -1.88368 0
M  V30 3195 N 308.51 4.24466 -1.85427 0
M  V30 3196 C 309.245 5.20755 -2.40004 0
M  V30 3197 N 308.741 6.22965 -3.03129 0
M  V30 3198 N 310.534 5.1282 -2.30158 0
M  V30 3199 H 302.685 1.29879 -1.68063 0
M  V30 3200 H 304.948 0.627896 -0.710247 0
M  V30 3201 H 304.654 2.73944 -2.20561 0
M  V30 3202 H 304.528 3.6984 -0.741477 0
M  V30 3203 H 306.915 2.94959 -0.0910608 0
M  V30 3204 H 306.996 2.00682 -1.5862 0
M  V30 3205 H 306.64 4.1488 -2.9298 0
M  V30 3206 H 306.57 5.074 -1.40898 0
M  V30 3207 H 309.061 3.51241 -1.3942 0
M  V30 3208 H 309.374 6.92859 -3.42295 0
M  V30 3209 H 307.719 6.23415 -3.07212 0
M  V30 3210 H 310.91 4.31899 -1.80501 0
M  V30 3211 H 311.083 5.87689 -2.72993 0
M  V30 3212 N 304.489 0.459591 1.5075 0
M  V30 3213 C 305.735 -0.0994966 2.02556 0
M  V30 3214 C 306.068 -1.40399 1.3417 0
M  V30 3215 O 305.343 -1.88892 0.463683 0
M  V30 3216 C 305.626 -0.295242 3.58888 0
M  V30 3217 C 305.479 1.02947 4.37861 0
M  V30 3218 C 306.798 -1.05502 4.27267 0
M  V30 3219 H 303.917 -0.034686 0.736183 0
M  V30 3220 H 306.559 0.602938 1.8018 0
M  V30 3221 H 304.709 -0.893563 3.78084 0
M  V30 3222 H 306.381 1.66348 4.30263 0
M  V30 3223 H 304.624 1.62885 4.02058 0
M  V30 3224 H 305.295 0.846281 5.45474 0
M  V30 3225 H 307.771 -0.547993 4.12476 0
M  V30 3226 H 306.647 -1.16077 5.36486 0
M  V30 3227 H 306.908 -2.08875 3.89645 0
M  V30 3228 N 305.967 -1.56429 0.191757 0
M  V30 3229 C 307.197 -2.01574 -0.452928 0
M  V30 3230 C 307.605 -1.07107 -1.55964 0
M  V30 3231 O 306.948 -0.067534 -1.83576 0
M  V30 3232 C 307.01 -3.43121 -1.07278 0
M  V30 3233 C 306.674 -4.56879 -0.105214 0
M  V30 3234 C 307.671 -5.15379 0.684149 0
M  V30 3235 C 305.356 -5.023 0.00489824 0
M  V30 3236 C 307.35 -6.17746 1.57062 0
M  V30 3237 C 305.037 -6.04511 0.894935 0
M  V30 3238 C 306.035 -6.62108 1.67637 0
M  V30 3239 O 305.723 -7.62335 2.55149 0
M  V30 3240 H 305.455 -0.665554 -0.118379 0
M  V30 3241 H 308.009 -2.03245 0.296737 0
M  V30 3242 H 306.239 -3.38425 -1.87097 0
M  V30 3243 H 307.928 -3.72093 -1.62177 0
M  V30 3244 H 308.694 -4.81157 0.609365 0
M  V30 3245 H 304.573 -4.57168 -0.593156 0
M  V30 3246 H 308.117 -6.6263 2.181 0
M  V30 3247 H 304.014 -6.38157 0.970847 0
M  V30 3248 H 304.782 -7.79741 2.48892 0
M  V30 3249 N 307.445 0.0818655 -1.57387 0
M  V30 3250 C 308.685 0.788375 -1.88584 0
M  V30 3251 C 309.049 1.75248 -0.784351 0
M  V30 3252 O 310.25 2.50334 -0.979105 0
M  V30 3253 C 308.521 1.48654 -3.25018 0
M  V30 3254 S 310.08 2.22951 -3.7794 0
M  V30 3255 H 306.898 0.262383 -0.660815 0
M  V30 3256 H 309.5 0.0448995 -1.95448 0
M  V30 3257 H 308.204 0.770919 -4.03094 0
M  V30 3258 H 307.735 2.26965 -3.21326 0
M  V30 3259 H 309.75 3.49309 -3.52417 0
M  V30 3260 N 308.923 1.53595 0.353017 0
M  V30 3261 C 309.853 1.83902 1.43883 0
M  V30 3262 C 310.834 0.693421 1.55324 0
M  V30 3263 O 312.019 0.944452 1.69687 0
M  V30 3264 C 309.149 2.04016 2.8106 0
M  V30 3265 C 308.103 3.19814 2.84434 0
M  V30 3266 C 307.429 3.25244 4.24406 0
M  V30 3267 C 308.729 4.58133 2.50822 0
M  V30 3268 H 310.423 2.74835 1.1877 0
M  V30 3269 H 307.969 1.32242 0.569917 0
M  V30 3270 H 309.922 2.238 3.57059 0
M  V30 3271 H 308.646 1.09804 3.07588 0
M  V30 3272 H 307.305 2.9987 2.10887 0
M  V30 3273 H 306.953 2.28646 4.48029 0
M  V30 3274 H 306.653 4.03054 4.27576 0
M  V30 3275 H 308.177 3.47228 5.0226 0
M  V30 3276 H 309.591 4.77995 3.16534 0
M  V30 3277 H 307.988 5.38276 2.6529 0
M  V30 3278 H 309.058 4.62387 1.46034 0
M  V30 3279 N 310.401 -0.613514 1.45168 0
M  V30 3280 C 311.333 -1.73825 1.4939 0
M  V30 3281 C 312.346 -1.58175 0.385304 0
M  V30 3282 O 313.535 -1.66165 0.652036 0
M  V30 3283 C 310.635 -3.11758 1.32891 0
M  V30 3284 C 309.808 -3.53704 2.57317 0
M  V30 3285 C 308.867 -4.70579 2.35462 0
M  V30 3286 O 307.893 -4.77996 3.09044 0
M  V30 3287 N 309.095 -5.63454 1.39644 0
M  V30 3288 H 311.86 -1.70669 2.46358 0
M  V30 3289 H 309.421 -0.79862 1.40832 0
M  V30 3290 H 311.413 -3.87692 1.1609 0
M  V30 3291 H 309.983 -3.09456 0.442218 0
M  V30 3292 H 309.203 -2.67794 2.89275 0
M  V30 3293 H 310.491 -3.78486 3.40038 0
M  V30 3294 H 309.889 -5.6017 0.789062 0
M  V30 3295 H 308.446 -6.38944 1.28816 0
M  V30 3296 N 311.879 -1.3236 -0.855495 0
M  V30 3297 C 313.125 -1.23054 -1.612 0
M  V30 3298 C 313.458 0.207404 -1.93089 0
M  V30 3299 O 312.733 1.14432 -1.57275 0
M  V30 3300 C 313.016 -2.08937 -2.93287 0
M  V30 3301 C 312.869 -3.61105 -2.68185 0
M  V30 3302 C 314.188 -1.94986 -3.94549 0
M  V30 3303 H 311.307 -0.448364 -0.584926 0
M  V30 3304 H 313.949 -1.62297 -0.987917 0
M  V30 3305 H 312.099 -1.75599 -3.46551 0
M  V30 3306 H 313.771 -4.04652 -2.21483 0
M  V30 3307 H 312.014 -3.83813 -2.02164 0
M  V30 3308 H 312.685 -4.16522 -3.62234 0
M  V30 3309 H 315.161 -2.24189 -3.5054 0
M  V30 3310 H 314.037 -2.57356 -4.84829 0
M  V30 3311 H 314.298 -0.917263 -4.3248 0
M  V30 3312 N 313.357 1.07166 -1.15556 0
M  V30 3313 C 314.289 2.14341 -0.811815 0
M  V30 3314 C 315.302 1.61835 0.177015 0
M  V30 3315 O 316.491 1.78439 -0.0464996 0
M  V30 3316 C 313.591 3.38387 -0.186481 0
M  V30 3317 C 312.764 4.20238 -1.21321 0
M  V30 3318 C 311.823 5.2266 -0.609302 0
M  V30 3319 O 310.849 5.54719 -1.27576 0
M  V30 3320 N 312.051 5.77306 0.608099 0
M  V30 3321 H 314.816 2.44431 -1.73417 0
M  V30 3322 H 312.377 1.23089 -1.0517 0
M  V30 3323 H 314.369 4.04044 0.230339 0
M  V30 3324 H 312.939 3.05994 0.639249 0
M  V30 3325 H 312.159 3.50369 -1.80652 0
M  V30 3326 H 313.447 4.71736 -1.90638 0
M  V30 3327 H 312.845 5.53513 1.1679 0
M  V30 3328 H 311.402 6.44583 0.96725 0
M  V30 3329 N 314.835 0.952656 1.25548 0
M  V30 3330 C 315.798 0.475794 2.24207 0
M  V30 3331 C 316.798 -0.419428 1.55234 0
M  V30 3332 O 317.988 -0.216994 1.72843 0
M  V30 3333 C 315.12 -0.312814 3.39462 0
M  V30 3334 H 316.313 1.34779 2.67908 0
M  V30 3335 H 313.866 0.735739 1.37901 0
M  V30 3336 H 314.601 -1.20257 3.01179 0
M  V30 3337 H 314.386 0.329404 3.90714 0
M  V30 3338 H 315.876 -0.635986 4.12729 0
M  V30 3339 N 316.313 -1.40141 0.720998 0
M  V30 3340 C 317.245 -2.29177 0.0324669 0
M  V30 3341 C 318.258 -1.46105 -0.718126 0
M  V30 3342 O 319.447 -1.69335 -0.564608 0
M  V30 3343 C 316.547 -3.24473 -0.978292 0
M  V30 3344 C 315.72 -4.36423 -0.292115 0
M  V30 3345 C 314.779 -5.12122 -1.20901 0
M  V30 3346 O 313.805 -5.64981 -0.691766 0
M  V30 3347 N 315.007 -5.21992 -2.53978 0
M  V30 3348 H 317.772 -2.88909 0.796984 0
M  V30 3349 H 315.333 -1.51569 0.569068 0
M  V30 3350 H 317.325 -3.71987 -1.59398 0
M  V30 3351 H 315.895 -2.65871 -1.64413 0
M  V30 3352 H 315.115 -3.90967 0.503847 0
M  V30 3353 H 316.403 -5.08467 0.183971 0
M  V30 3354 H 315.801 -4.8054 -2.98493 0
M  V30 3355 H 314.358 -5.72995 -3.10677 0
M  V30 3356 N 317.792 -0.46758 -1.50504 0
M  V30 3357 C 318.722 0.318381 -2.31319 0
M  V30 3358 C 319.703 0.993564 -1.38066 0
M  V30 3359 O 320.888 0.991411 -1.66987 0
M  V30 3360 C 318.018 1.40275 -3.17711 0
M  V30 3361 C 316.972 0.849373 -4.19487 0
M  V30 3362 C 316.298 2.03177 -4.94594 0
M  V30 3363 C 317.598 -0.136942 -5.2212 0
M  V30 3364 H 319.292 -0.356106 -2.97275 0
M  V30 3365 H 316.838 -0.172703 -1.42961 0
M  V30 3366 H 318.791 1.96004 -3.73042 0
M  V30 3367 H 317.515 2.10596 -2.49634 0
M  V30 3368 H 316.174 0.314076 -3.65252 0
M  V30 3369 H 315.822 2.72187 -4.22993 0
M  V30 3370 H 315.522 1.66774 -5.63436 0
M  V30 3371 H 317.046 2.59403 -5.52759 0
M  V30 3372 H 318.46 0.331056 -5.72343 0
M  V30 3373 H 316.857 -0.41507 -5.98663 0
M  V30 3374 H 317.927 -1.06398 -4.73083 0
M  V30 3375 N 319.27 1.56325 -0.20005 0
M  V30 3376 C 320.2 2.22318 0.713916 0
M  V30 3377 C 321.181 1.18788 1.21752 0
M  V30 3378 O 322.366 1.47309 1.26545 0
M  V30 3379 C 319.496 2.88639 1.93144 0
M  V30 3380 C 318.45 3.98457 1.56255 0
M  V30 3381 C 317.776 4.51967 2.85709 0
M  V30 3382 C 319.076 5.16612 0.768747 0
M  V30 3383 H 320.77 2.98952 0.163755 0
M  V30 3384 H 318.316 1.43792 0.0773219 0
M  V30 3385 H 320.269 3.33491 2.57608 0
M  V30 3386 H 318.993 2.09419 2.50621 0
M  V30 3387 H 317.652 3.54305 0.941471 0
M  V30 3388 H 317.3 3.69503 3.41287 0
M  V30 3389 H 317 5.26071 2.6177 0
M  V30 3390 H 318.524 4.99523 3.51154 0
M  V30 3391 H 319.938 5.57977 1.3166 0
M  V30 3392 H 318.335 5.96812 0.627286 0
M  V30 3393 H 319.405 4.84358 -0.229168 0
M  V30 3394 N 320.748 -0.0735177 1.57428 0
M  V30 3395 C 321.994 -0.768909 1.88307 0
M  V30 3396 C 322.349 -1.75273 0.793535 0
M  V30 3397 O 321.642 -1.90527 -0.202466 0
M  V30 3398 C 321.836 -1.51799 3.23561 0
M  V30 3399 C 321.665 -0.608217 4.45568 0
M  V30 3400 C 320.435 -0.245808 5.04702 0
M  V30 3401 C 322.633 0.0942904 5.14214 0
M  V30 3402 N 320.615 0.66987 6.10234 0
M  V30 3403 C 321.986 0.867222 6.13905 0
M  V30 3404 C 324.041 0.165943 4.97623 0
M  V30 3405 C 322.744 1.70515 6.98797 0
M  V30 3406 C 324.77 0.990837 5.83041 0
M  V30 3407 C 324.132 1.75182 6.82269 0
M  V30 3408 H 320.231 -0.25685 0.738615 0
M  V30 3409 H 322.815 -0.030499 1.94676 0
M  V30 3410 H 320.986 -2.22713 3.18203 0
M  V30 3411 H 322.718 -2.16226 3.42094 0
M  V30 3412 H 319.473 -0.598284 4.69806 0
M  V30 3413 H 319.897 1.1209 6.67656 0
M  V30 3414 H 324.539 -0.408064 4.20826 0
M  V30 3415 H 322.257 2.29013 7.7497 0
M  V30 3416 H 325.843 1.04923 5.72261 0
M  V30 3417 H 324.723 2.37983 7.47217 0
M  V30 3418 N 322.226 -1.5378 -0.344866 0
M  V30 3419 C 323.174 -1.82373 -1.4437 0
M  V30 3420 C 324.168 -0.694128 -1.54526 0
M  V30 3421 O 325.374 -0.877442 -1.57165 0
M  V30 3422 H 321.749 -0.577765 -0.481344 0
M  V30 3423 H 323.72 -2.74306 -1.17468 0
M  V30 3424 C 322.469 -2.04898 -2.80913 0
M  V30 3425 H 321.792 -2.9127 -2.73865 0
M  V30 3426 H 323.232 -2.28871 -3.56923 0
M  V30 3427 C 321.691 -0.834116 -3.26411 0
M  V30 3428 O 322.221 -0.0328885 -4.01687 0
M  V30 3429 N 320.427 -0.65171 -2.83198 0
M  V30 3430 H 319.974 -1.30489 -2.22104 0
M  V30 3431 H 319.932 0.159686 -3.13994 0
M  V30 3432 N 323.704 0.605807 -1.45491 0
M  V30 3433 C 324.651 1.7164 -1.54299 0
M  V30 3434 C 325.621 1.61486 -0.388761 0
M  V30 3435 O 326.806 1.81039 -0.602445 0
M  V30 3436 C 323.946 3.09953 -1.51734 0
M  V30 3437 C 323.059 3.309 -2.77721 0
M  V30 3438 C 322.194 4.59329 -2.66816 0
M  V30 3439 C 321.233 4.7354 -3.87848 0
M  V30 3440 N 320.37 5.9327 -3.75467 0
M  V30 3441 H 325.21 1.63449 -2.49176 0
M  V30 3442 H 322.747 0.796957 -1.23641 0
M  V30 3443 H 324.705 3.89977 -1.48235 0
M  V30 3444 H 323.335 3.17098 -0.604068 0
M  V30 3445 H 322.387 2.44639 -2.913 0
M  V30 3446 H 323.699 3.37274 -3.67488 0
M  V30 3447 H 322.853 5.4755 -2.61292 0
M  V30 3448 H 321.592 4.55355 -1.74651 0
M  V30 3449 H 320.597 3.83741 -3.93729 0
M  V30 3450 H 321.822 4.79309 -4.81082 0
M  V30 3451 H 319.768 5.90338 -2.86072 0
M  V30 3452 H 319.685 6.00811 -4.5887 0
M  V30 3453 H 320.953 6.83984 -3.73879 0
M  V30 3454 N 325.182 1.32811 0.848464 0
M  V30 3455 C 326.407 1.26882 1.6406 0
M  V30 3456 C 326.832 -0.15913 1.87426 0
M  V30 3457 O 326.19 -1.11258 1.43148 0
M  V30 3458 C 326.238 2.03997 2.97351 0
M  V30 3459 O 325.342 1.39201 3.88197 0
M  V30 3460 H 324.683 0.436982 0.499943 0
M  V30 3461 H 327.213 1.75224 1.0563 0
M  V30 3462 H 327.223 2.14403 3.47124 0
M  V30 3463 H 325.898 3.0783 2.79666 0
M  V30 3464 H 324.475 1.37381 3.46671 0
M  V30 3465 N 326.66 -1.06551 1.16123 0
M  V30 3466 C 327.608 -2.16063 0.861371 0
M  V30 3467 C 328.602 -1.6856 -0.168517 0
M  V30 3468 O 329.808 -1.79986 -0.0227579 0
M  V30 3469 H 326.183 -0.705278 0.260934 0
M  V30 3470 H 328.154 -2.38567 1.79244 0
M  V30 3471 C 326.903 -3.45661 0.376018 0
M  V30 3472 H 326.226 -3.82604 1.15992 0
M  V30 3473 H 327.666 -4.23504 0.204951 0
M  V30 3474 C 326.125 -3.24546 -0.903954 0
M  V30 3475 O 326.655 -3.49865 -1.97377 0
M  V30 3476 N 324.861 -2.77992 -0.846679 0
M  V30 3477 H 324.408 -2.57589 0.0241017 0
M  V30 3478 H 324.366 -2.64244 -1.70359 0
M  V30 3479 N 328.138 -0.959301 -1.25041 0
M  V30 3480 C 329.387 -0.612254 -1.92183 0
M  V30 3481 C 329.7 0.855347 -1.75907 0
M  V30 3482 O 330.906 1.31256 -2.37664 0
M  V30 3483 C 329.362 -1.04435 -3.44414 0
M  V30 3484 C 328.97 -2.53482 -3.69393 0
M  V30 3485 C 330.714 -0.770055 -4.17457 0
M  V30 3486 C 328.621 -2.90468 -5.15153 0
M  V30 3487 H 327.551 -0.225279 -0.719559 0
M  V30 3488 H 330.202 -1.16438 -1.41825 0
M  V30 3489 H 328.584 -0.4206 -3.9376 0
M  V30 3490 H 329.758 -3.20916 -3.30681 0
M  V30 3491 H 328.073 -2.78432 -3.0962 0
M  V30 3492 H 330.67 -1.02249 -5.24832 0
M  V30 3493 H 331.013 0.293611 -4.15263 0
M  V30 3494 H 331.546 -1.35437 -3.74034 0
M  V30 3495 H 328.285 -3.95871 -5.22462 0
M  V30 3496 H 327.805 -2.27711 -5.54894 0
M  V30 3497 H 329.484 -2.79914 -5.83315 0
M  V30 3498 N 329.616 1.39756 -0.72842 0
M  V30 3499 C 330.863 2.00645 -0.273487 0
M  V30 3500 C 331.191 1.57786 1.13727 0
M  V30 3501 O 330.446 0.794886 1.7883 0
M  V30 3502 C 330.745 3.56002 -0.315776 0
M  V30 3503 C 330.411 4.18489 -1.67863 0
M  V30 3504 C 329.073 4.3527 -2.05166 0
M  V30 3505 C 331.425 4.53219 -2.57375 0
M  V30 3506 C 328.753 4.84069 -3.31503 0
M  V30 3507 C 331.105 5.03423 -3.83077 0
M  V30 3508 C 329.769 5.18413 -4.20481 0
M  V30 3509 H 329.039 0.734211 -0.100076 0
M  V30 3510 H 331.686 1.6718 -0.933972 0
M  V30 3511 H 329.991 3.89452 0.428285 0
M  V30 3512 H 331.688 4.00963 0.0542575 0
M  V30 3513 H 328.278 4.05824 -1.37858 0
M  V30 3514 H 332.462 4.39878 -2.29827 0
M  V30 3515 H 327.718 4.93859 -3.60435 0
M  V30 3516 H 331.892 5.2927 -4.52599 0
M  V30 3517 H 329.519 5.55987 -5.18443 0
M  V30 3518 N 331.094 0.475555 1.50254 0
M  V30 3519 C 332.51 0.12997 1.5907 0
M  V30 3520 C 332.71 -1.36385 1.48328 0
M  V30 3521 O 331.766 -2.13754 1.34407 0
M  V30 3522 C 333.079 0.684139 2.92814 0
M  V30 3523 C 334.627 0.647965 3.0622 0
M  V30 3524 C 335.102 1.17975 4.42545 0
M  V30 3525 N 336.593 1.13936 4.48969 0
M  V30 3526 C 337.328 1.52129 5.52851 0
M  V30 3527 N 336.824 1.97793 6.63965 0
M  V30 3528 N 338.617 1.43704 5.4342 0
M  V30 3529 H 330.768 1.44706 1.55479 0
M  V30 3530 H 333.031 0.598691 0.735033 0
M  V30 3531 H 332.737 1.73079 3.06164 0
M  V30 3532 H 332.611 0.130204 3.76975 0
M  V30 3533 H 334.998 -0.38979 2.92514 0
M  V30 3534 H 335.079 1.23876 2.23805 0
M  V30 3535 H 334.723 2.21616 4.57 0
M  V30 3536 H 334.653 0.565138 5.23559 0
M  V30 3537 H 337.144 0.804488 3.69238 0
M  V30 3538 H 337.457 2.25072 7.39299 0
M  V30 3539 H 335.802 2.01749 6.65073 0
M  V30 3540 H 338.993 1.07867 4.55502 0
M  V30 3541 H 339.166 1.73794 6.24259 0
M  V30 3542 N 332.573 -1.56217 0.208337 0
M  V30 3543 C 333.819 -1.98242 -0.427552 0
M  V30 3544 C 334.152 -1.09554 -1.60348 0
M  V30 3545 O 333.427 -0.15035 -1.93918 0
M  V30 3546 C 333.71 -3.4931 -0.874907 0
M  V30 3547 C 333.563 -4.48773 0.303751 0
M  V30 3548 C 334.882 -4.04424 -1.73577 0
M  V30 3549 H 332.001 -0.720744 -0.153936 0
M  V30 3550 H 334.643 -1.87586 0.30192 0
M  V30 3551 H 332.793 -3.58522 -1.49648 0
M  V30 3552 H 334.465 -4.51586 0.941682 0
M  V30 3553 H 332.708 -4.23194 0.953375 0
M  V30 3554 H 333.379 -5.51976 -0.0519883 0
M  V30 3555 H 335.855 -3.98075 -1.21143 0
M  V30 3556 H 334.731 -5.1047 -2.01771 0
M  V30 3557 H 334.992 -3.50494 -2.69456 0
M  V30 3558 N 334.051 0.0651679 -1.57465 0
M  V30 3559 C 335.299 0.761555 -1.87202 0
M  V30 3560 C 335.62 1.77778 -0.801243 0
M  V30 3561 O 334.89 1.95166 0.16937 0
M  V30 3562 H 333.47 0.284251 -0.690804 0
M  V30 3563 H 336.132 0.0396827 -1.9486 0
M  V30 3564 H 335.228 1.27365 -2.84929 0
M  V30 3565 N 335.529 1.53961 0.336706 0
M  V30 3566 C 336.479 1.7881 1.41461 0
M  V30 3567 C 337.463 0.643561 1.47469 0
M  V30 3568 O 338.655 0.903166 1.52223 0
M  V30 3569 C 335.784 2.00722 2.78506 0
M  V30 3570 C 334.87 3.2126 2.76862 0
M  V30 3571 N 335.261 4.42588 2.44845 0
M  V30 3572 C 333.559 3.22568 3.08004 0
M  V30 3573 C 334.26 5.2447 2.51607 0
M  V30 3574 N 333.236 4.61344 2.87511 0
M  V30 3575 H 337.038 2.70205 1.15615 0
M  V30 3576 H 334.552 1.52978 0.545112 0
M  V30 3577 H 336.549 2.1666 3.5618 0
M  V30 3578 H 335.209 1.10573 3.05293 0
M  V30 3579 H 336.22 4.69819 2.17922 0
M  V30 3580 H 332.897 2.42409 3.39918 0
M  V30 3581 H 334.287 6.31324 2.29955 0
M  V30 3582 N 337.007 -0.598083 1.45811 0
M  V30 3583 C 337.937 -1.71873 1.58057 0
M  V30 3584 C 338.918 -1.64533 0.431615 0
M  V30 3585 O 340.103 -1.82787 0.65595 0
M  V30 3586 C 337.233 -3.10495 1.55597 0
M  V30 3587 C 336.187 -3.32654 2.69305 0
M  V30 3588 C 335.513 -4.71646 2.51902 0
M  V30 3589 C 336.813 -3.21981 4.11248 0
M  V30 3590 H 338.507 -1.61881 2.51863 0
M  V30 3591 H 336.053 -0.777372 1.21214 0
M  V30 3592 H 338.006 -3.88699 1.6276 0
M  V30 3593 H 336.73 -3.2135 0.583255 0
M  V30 3594 H 335.389 -2.56843 2.61586 0
M  V30 3595 H 335.037 -4.79246 1.52748 0
M  V30 3596 H 334.737 -4.87426 3.2816 0
M  V30 3597 H 336.261 -5.52038 2.60933 0
M  V30 3598 H 337.675 -3.90049 4.20161 0
M  V30 3599 H 336.072 -3.49289 4.87972 0
M  V30 3600 H 337.142 -2.1928 4.32486 0
M  V30 3601 N 338.485 -1.33259 -0.841409 0
M  V30 3602 C 339.71 -1.2775 -1.63385 0
M  V30 3603 C 340.135 0.149188 -1.87507 0
M  V30 3604 O 339.493 1.10498 -1.43736 0
M  V30 3605 C 339.541 -2.05571 -2.96265 0
M  V30 3606 O 338.645 -1.41257 -3.87453 0
M  V30 3607 H 337.986 -0.439627 -0.497618 0
M  V30 3608 H 340.516 -1.75782 -1.04699 0
M  V30 3609 H 340.526 -2.16241 -3.45982 0
M  V30 3610 H 339.201 -3.09309 -2.7803 0
M  V30 3611 H 337.778 -1.39217 -3.45938 0
M  V30 3612 N 339.963 1.05934 -1.16686 0
M  V30 3613 C 340.911 2.15603 -0.872817 0
M  V30 3614 C 341.905 1.68647 0.159576 0
M  V30 3615 O 343.111 1.79995 0.0132125 0
M  V30 3616 H 339.486 0.703885 -0.264671 0
M  V30 3617 H 341.457 2.37613 -1.80507 0
M  V30 3618 C 340.206 3.45457 -0.394344 0
M  V30 3619 H 339.529 3.81984 -1.18019 0
M  V30 3620 H 340.969 4.2339 -0.227408 0
M  V30 3621 C 339.428 3.25021 0.88673 0
M  V30 3622 O 339.958 3.50906 1.95519 0
M  V30 3623 N 338.164 2.78437 0.831925 0
M  V30 3624 H 337.711 2.57572 -0.0377619 0
M  V30 3625 H 337.669 2.65144 1.68956 0
M  V30 3626 N 341.441 0.965919 1.2453 0
M  V30 3627 C 342.69 0.622437 1.91856 0
M  V30 3628 C 343.003 -0.846006 1.76358 0
M  V30 3629 O 344.209 -1.29993 2.38357 0
M  V30 3630 C 342.665 1.0626 3.43856 0
M  V30 3631 C 342.273 2.55437 3.68043 0
M  V30 3632 C 344.017 0.792183 4.17043 0
M  V30 3633 C 341.924 2.93196 5.13605 0
M  V30 3634 H 340.854 0.229092 0.718354 0
M  V30 3635 H 343.505 1.17189 1.41206 0
M  V30 3636 H 341.887 0.441476 3.93531 0
M  V30 3637 H 343.061 3.22665 3.28974 0
M  V30 3638 H 341.376 2.8007 3.08139 0
M  V30 3639 H 343.973 1.05031 5.24283 0
M  V30 3640 H 344.316 -0.271584 4.15413 0
M  V30 3641 H 344.849 1.37419 3.73311 0
M  V30 3642 H 341.588 3.98636 5.20355 0
M  V30 3643 H 341.108 2.30651 5.53679 0
M  V30 3644 H 342.787 2.83004 5.81823 0
M  V30 3645 N 342.919 -1.39368 0.735821 0
M  V30 3646 C 344.144 -2.05319 0.293052 0
M  V30 3647 C 344.569 -1.55115 -1.064 0
M  V30 3648 O 343.927 -0.695261 -1.67439 0
M  V30 3649 C 343.975 -3.59305 0.305323 0
M  V30 3650 O 343.079 -4.06299 -0.706761 0
M  V30 3651 H 342.42 -0.650529 0.13307 0
M  V30 3652 H 344.95 -1.78386 1.00197 0
M  V30 3653 H 344.96 -4.07724 0.149997 0
M  V30 3654 H 343.635 -3.95207 1.29553 0
M  V30 3655 H 342.212 -3.69292 -0.517504 0
M  V30 3656 N 344.397 -0.483516 -1.5 0
M  V30 3657 C 345.637 0.0657469 -2.04294 0
M  V30 3658 C 346.001 1.35869 -1.35659 0
M  V30 3659 O 347.202 1.99111 -1.80578 0
M  V30 3660 C 345.473 0.232758 -3.56641 0
M  V30 3661 S 347.032 0.738788 -4.32536 0
M  V30 3662 H 343.85 0.0100755 -0.710929 0
M  V30 3663 H 346.452 -0.653494 -1.84254 0
M  V30 3664 H 345.156 -0.713847 -4.04144 0
M  V30 3665 H 344.687 0.977751 -3.81056 0
M  V30 3666 H 346.702 2.01048 -4.53645 0
M  V30 3667 N 345.875 1.56104 -0.216619 0
M  V30 3668 C 347.105 2.02269 0.420802 0
M  V30 3669 C 347.513 1.09575 1.5424 0
M  V30 3670 O 346.856 0.0967308 1.83445 0
M  V30 3671 C 346.918 3.44784 1.01806 0
M  V30 3672 C 346.582 4.56988 0.0325154 0
M  V30 3673 C 347.579 5.14225 -0.766055 0
M  V30 3674 C 345.264 5.02228 -0.0848092 0
M  V30 3675 C 347.258 6.15169 -1.6687 0
M  V30 3676 C 344.945 6.03011 -0.990994 0
M  V30 3677 C 345.943 6.59357 -1.78149 0
M  V30 3678 O 345.631 7.58179 -2.67245 0
M  V30 3679 H 345.363 0.667353 0.107776 0
M  V30 3680 H 347.917 2.02747 -0.329034 0
M  V30 3681 H 346.147 3.41359 1.81689 0
M  V30 3682 H 347.836 3.74626 1.56237 0
M  V30 3683 H 348.602 4.80126 -0.685836 0
M  V30 3684 H 344.481 4.58054 0.520349 0
M  V30 3685 H 348.025 6.59076 -2.28615 0
M  V30 3686 H 343.922 6.36532 -1.07225 0
M  V30 3687 H 344.69 7.75682 -2.61265 0
M  V30 3688 N 347.353 -0.0568162 1.57498 0
M  V30 3689 C 348.263 -1.08346 2.08083 0
M  V30 3690 C 349.279 -1.41439 1.01346 0
M  V30 3691 O 350.455 -1.51316 1.32912 0
M  V30 3692 C 347.52 -2.37352 2.52715 0
M  V30 3693 C 346.581 -2.11093 3.73816 0
M  V30 3694 C 345.814 -3.33949 4.1631 0
M  V30 3695 O 346.037 -4.43622 3.58547 0
M  V30 3696 O 344.971 -3.21279 5.08983 0
M  V30 3697 H 348.797 -0.683667 2.95905 0
M  V30 3698 H 346.382 -0.271965 1.46904 0
M  V30 3699 H 348.264 -3.13246 2.81877 0
M  V30 3700 H 346.939 -2.76681 1.68016 0
M  V30 3701 H 345.846 -1.32856 3.49714 0
M  V30 3702 H 347.179 -1.76637 4.59413 0
M  V30 3703 N 348.832 -1.54138 -0.328536 0
M  V30 3704 C 350.06 -1.76062 -1.08673 0
M  V30 3705 C 350.475 -0.506852 -1.81869 0
M  V30 3706 O 349.832 0.522223 -1.74869 0
M  V30 3707 C 349.883 -2.95054 -2.08866 0
M  V30 3708 O 349.604 -4.15583 -1.38644 0
M  V30 3709 C 351.105 -3.2915 -2.96943 0
M  V30 3710 H 348.325 -0.587889 -0.323461 0
M  V30 3711 H 350.869 -2.0101 -0.376175 0
M  V30 3712 H 349.024 -2.72394 -2.75464 0
M  V30 3713 H 349.438 -4.82481 -2.05699 0
M  V30 3714 H 350.912 -4.15723 -3.63151 0
M  V30 3715 H 351.389 -2.461 -3.63774 0
M  V30 3716 H 351.995 -3.53871 -2.35914 0
M  V30 3717 N 350.31 0.590341 -1.46126 0
M  V30 3718 C 351.243 1.71434 -1.50617 0
M  V30 3719 C 352.221 1.58543 -0.360948 0
M  V30 3720 O 353.405 1.79865 -0.563985 0
M  V30 3721 C 350.532 3.09422 -1.37753 0
M  V30 3722 C 349.578 3.40854 -2.5636 0
M  V30 3723 S 350.411 3.33773 -4.18755 0
M  V30 3724 C 351.567 4.74312 -4.08386 0
M  V30 3725 H 351.8 1.67364 -2.45717 0
M  V30 3726 H 349.333 0.76845 -1.33919 0
M  V30 3727 H 351.291 3.8903 -1.31018 0
M  V30 3728 H 349.952 3.10989 -0.440949 0
M  V30 3729 H 349.145 4.41368 -2.43332 0
M  V30 3730 H 348.747 2.68798 -2.60046 0
M  V30 3731 H 351.039 5.64522 -3.74595 0
M  V30 3732 H 351.982 4.92397 -5.08872 0
M  V30 3733 H 352.39 4.50803 -3.3976 0
M  V30 3734 N 351.788 1.33704 0.83433 0
M  V30 3735 C 352.751 1.24244 1.92603 0
M  V30 3736 C 353.751 0.160383 1.59998 0
M  V30 3737 O 354.941 0.412228 1.69252 0
M  V30 3738 C 352.073 0.91555 3.28376 0
M  V30 3739 H 353.266 2.21287 2.02416 0
M  V30 3740 H 350.819 1.17827 1.02696 0
M  V30 3741 H 351.554 -0.0521886 3.24258 0
M  V30 3742 H 351.339 1.69811 3.53422 0
M  V30 3743 H 352.829 0.874231 4.08347 0
M  V30 3744 N 353.266 -1.05314 1.17247 0
M  V30 3745 C 354.543 -1.75184 0.87005 0
M  V30 3746 C 354.923 -2.01481 -0.629965 0
M  V30 3747 O 354.271 -1.64988 -1.58086 0
M  V30 3748 C 354.481 -3.04594 1.70363 0
M  V30 3749 C 355.829 -3.78567 1.92281 0
M  V30 3750 O 356.853 -3.14461 1.67311 0
M  V30 3751 O 355.712 -4.93755 2.3424 0
M  V30 3752 H 352.806 -0.761729 0.322021 0
M  V30 3753 H 355.352 -1.11493 1.27935 0
M  V30 3754 H 354.124 -2.81201 2.72106 0
M  V30 3755 H 353.747 -3.76022 1.29202 0
M  V30 3756 N 354.744 -0.972509 -1.24016 0
M  V30 3757 C 355.707 -0.511403 -2.23422 0
M  V30 3758 C 356.707 0.394679 -1.55881 0
M  V30 3759 O 357.897 0.189469 -1.73167 0
M  V30 3760 C 355.029 0.258769 -3.39916 0
M  V30 3761 H 356.222 -1.39024 -2.6573 0
M  V30 3762 H 353.775 -0.757585 -1.36713 0
M  V30 3763 H 354.51 1.1545 -3.03054 0
M  V30 3764 H 354.295 -0.391522 -3.9014 0
M  V30 3765 H 355.785 0.570244 -4.13688 0
M  V30 3766 N 356.222 1.38976 -0.743202 0
M  V30 3767 C 357.447 2.05161 -0.303936 0
M  V30 3768 C 357.872 1.55677 1.05576 0
M  V30 3769 O 357.23 0.704131 1.67068 0
M  V30 3770 C 357.278 3.59138 -0.324373 0
M  V30 3771 O 356.382 4.06668 0.685204 0
M  V30 3772 H 355.723 0.649815 -0.136518 0
M  V30 3773 H 358.253 1.77852 -1.01142 0
M  V30 3774 H 358.263 4.07639 -0.171618 0
M  V30 3775 H 356.938 3.94515 -1.31647 0
M  V30 3776 H 355.515 3.69561 0.497913 0
M  V30 3777 N 357.7 0.491464 1.49741 0
M  V30 3778 C 358.928 -0.0535151 2.06831 0
M  V30 3779 C 359.343 -1.31683 1.35296 0
M  V30 3780 O 358.7 -1.77402 0.42836 0
M  V30 3781 C 358.751 -0.320835 3.60073 0
M  V30 3782 O 358.472 0.892394 4.28915 0
M  V30 3783 C 359.973 -0.910519 4.33848 0
M  V30 3784 H 357.193 0.0161909 0.670805 0
M  V30 3785 H 359.737 0.68609 1.92647 0
M  V30 3786 H 357.892 -1.0104 3.73991 0
M  V30 3787 H 358.306 0.649401 5.20464 0
M  V30 3788 H 359.78 -1.04721 5.41976 0
M  V30 3789 H 360.257 -1.90589 3.95692 0
M  V30 3790 H 360.863 -0.258712 4.24512 0
M  V30 3791 N 359.178 -1.55987 0.224894 0
M  V30 3792 C 360.088 -2.24066 -0.69511 0
M  V30 3793 C 361.104 -1.24939 -1.21104 0
M  V30 3794 O 362.28 -1.5776 -1.25195 0
M  V30 3795 C 359.345 -2.90983 -1.88493 0
M  V30 3796 C 358.406 -4.05462 -1.41064 0
M  V30 3797 C 357.639 -4.69179 -2.54375 0
M  V30 3798 O 357.862 -4.31895 -3.72589 0
M  V30 3799 O 356.796 -5.58108 -2.25386 0
M  V30 3800 H 360.622 -3.03353 -0.145149 0
M  V30 3801 H 358.207 -1.49399 -0.00569476 0
M  V30 3802 H 360.089 -3.33209 -2.57972 0
M  V30 3803 H 358.764 -2.14653 -2.42293 0
M  V30 3804 H 357.671 -3.67798 -0.683774 0
M  V30 3805 H 359.004 -4.83545 -0.918985 0
M  V30 3806 N 360.656 0.0484629 -1.57525 0
M  V30 3807 C 361.586 1.0549 -2.08313 0
M  V30 3808 C 362.567 1.38929 -0.981463 0
M  V30 3809 O 363.752 1.48151 -1.25558 0
M  V30 3810 C 360.882 2.36162 -2.54646 0
M  V30 3811 C 359.836 2.17016 -3.68901 0
M  V30 3812 C 359.162 3.53278 -4.01371 0
M  V30 3813 C 360.462 1.57219 -4.98076 0
M  V30 3814 H 362.156 0.632195 -2.92649 0
M  V30 3815 H 359.702 0.302654 -1.40784 0
M  V30 3816 H 361.655 3.06882 -2.88793 0
M  V30 3817 H 360.379 2.80456 -1.67368 0
M  V30 3818 H 359.038 1.48733 -3.35073 0
M  V30 3819 H 358.686 3.95185 -3.11188 0
M  V30 3820 H 358.386 3.41299 -4.78318 0
M  V30 3821 H 359.91 4.25391 -4.38035 0
M  V30 3822 H 361.324 2.17832 -5.30304 0
M  V30 3823 H 359.721 1.55871 -5.79503 0
M  V30 3824 H 360.791 0.535956 -4.81929 0
M  V30 3825 N 362.134 1.5431 0.320358 0
M  V30 3826 C 363.066 1.80262 1.41556 0
M  V30 3827 C 364.079 0.684723 1.477 0
M  V30 3828 O 365.268 0.961886 1.50366 0
M  V30 3829 C 362.368 1.90825 2.8007 0
M  V30 3830 C 361.541 3.21023 2.97091 0
M  V30 3831 C 360.6 3.22247 4.15985 0
M  V30 3832 O 359.626 3.95871 4.08992 0
M  V30 3833 N 360.828 2.46258 5.25678 0
M  V30 3834 H 363.593 2.74778 1.19655 0
M  V30 3835 H 361.154 1.53646 0.510358 0
M  V30 3836 H 363.146 1.89067 3.57821 0
M  V30 3837 H 361.716 1.03392 2.95006 0
M  V30 3838 H 360.936 3.35715 2.06614 0
M  V30 3839 H 362.224 4.0698 3.05361 0
M  V30 3840 H 361.622 1.86037 5.34235 0
M  V30 3841 H 360.179 2.50275 6.01835 0
M  V30 3842 N 363.613 -0.582584 1.46437 0
M  V30 3843 C 364.545 -1.70618 1.53043 0
M  V30 3844 C 365.558 -1.57322 0.418769 0
M  V30 3845 O 366.747 -1.64744 0.687136 0
M  V30 3846 C 363.847 -3.08869 1.39474 0
M  V30 3847 C 363.02 -3.48166 2.64762 0
M  V30 3848 C 362.079 -4.65478 2.4539 0
M  V30 3849 O 361.105 -4.71333 3.19114 0
M  V30 3850 N 362.307 -5.60365 1.51564 0
M  V30 3851 H 365.072 -1.65405 2.49923 0
M  V30 3852 H 362.633 -0.768567 1.42494 0
M  V30 3853 H 364.625 -3.85143 1.24287 0
M  V30 3854 H 363.195 -3.08449 0.507758 0
M  V30 3855 H 362.415 -2.61598 2.9489 0
M  V30 3856 H 363.703 -3.71188 3.4799 0
M  V30 3857 H 363.101 -5.5837 0.907705 0
M  V30 3858 H 361.658 -6.36068 1.4234 0
M  V30 3859 N 365.091 -1.34144 -0.827227 0
M  V30 3860 C 366.337 -1.26446 -1.58554 0
M  V30 3861 C 366.67 0.1664 -1.93486 0
M  V30 3862 O 365.945 1.1107 -1.59667 0
M  V30 3863 C 366.228 -2.15111 -2.8879 0
M  V30 3864 C 366.081 -3.66712 -2.60465 0
M  V30 3865 C 367.4 -2.03311 -3.90324 0
M  V30 3866 H 364.519 -0.46067 -0.575284 0
M  V30 3867 H 367.161 -1.64356 -0.953269 0
M  V30 3868 H 365.311 -1.8291 -3.42748 0
M  V30 3869 H 366.983 -4.09259 -2.1285 0
M  V30 3870 H 365.226 -3.88014 -1.93978 0
M  V30 3871 H 365.897 -4.24112 -3.53317 0
M  V30 3872 H 368.373 -2.31574 -3.45706 0
M  V30 3873 H 367.249 -2.67582 -4.79261 0
M  V30 3874 H 367.51 -1.00879 -4.30437 0
M  V30 3875 N 366.569 1.04691 -1.17803 0
M  V30 3876 C 367.818 1.77176 -0.963931 0
M  V30 3877 C 368.131 1.88888 0.508015 0
M  V30 3878 O 369.337 2.58164 0.840465 0
M  V30 3879 C 367.793 3.18518 -1.67555 0
M  V30 3880 C 367.401 3.14919 -3.18637 0
M  V30 3881 C 369.145 3.95424 -1.54402 0
M  V30 3882 C 367.052 4.51081 -3.82466 0
M  V30 3883 H 365.982 0.664116 -0.357023 0
M  V30 3884 H 368.633 1.17303 -1.4111 0
M  V30 3885 H 367.015 3.78748 -1.15613 0
M  V30 3886 H 368.189 2.64178 -3.77554 0
M  V30 3887 H 366.504 2.51512 -3.31859 0
M  V30 3888 H 369.101 4.96106 -1.99456 0
M  V30 3889 H 369.444 4.13343 -0.495329 0
M  V30 3890 H 369.977 3.41754 -2.0359 0
M  V30 3891 H 366.716 4.38368 -4.87354 0
M  V30 3892 H 366.236 5.01951 -3.28337 0
M  V30 3893 H 367.915 5.2001 -3.84965 0
M  V30 3894 N 368.047 0.979072 1.23499 0
M  V30 3895 C 368.977 0.537606 2.27227 0
M  V30 3896 C 369.958 -0.428539 1.64613 0
M  V30 3897 O 371.143 -0.322191 1.91509 0
M  V30 3898 C 368.273 -0.162052 3.46922 0
M  V30 3899 C 367.227 0.721242 4.21879 0
M  V30 3900 C 366.553 -0.110555 5.34586 0
M  V30 3901 C 367.853 2.01141 4.82016 0
M  V30 3902 H 369.547 1.40462 2.64406 0
M  V30 3903 H 367.093 0.67684 1.27102 0
M  V30 3904 H 369.046 -0.482192 4.18632 0
M  V30 3905 H 367.77 -1.06351 3.08799 0
M  V30 3906 H 366.429 1.02482 3.51984 0
M  V30 3907 H 366.077 -1.0125 4.92704 0
M  V30 3908 H 365.777 0.477325 5.85658 0
M  V30 3909 H 367.301 -0.425107 6.09118 0
M  V30 3910 H 368.715 1.75612 5.45741 0
M  V30 3911 H 367.112 2.54695 5.43369 0
M  V30 3912 H 368.182 2.69909 4.02836 0
M  V30 3913 N 369.525 -1.3858 0.750561 0
M  V30 3914 C 370.774 -1.99424 0.302172 0
M  V30 3915 C 371.087 -1.60254 -1.12152 0
M  V30 3916 O 372.293 -2.14046 -1.67023 0
M  V30 3917 C 370.749 -3.56558 0.489307 0
M  V30 3918 C 370.357 -4.04682 1.92189 0
M  V30 3919 C 372.101 -4.24374 0.103478 0
M  V30 3920 C 370.008 -5.54446 2.05775 0
M  V30 3921 H 368.938 -0.746046 0.10923 0
M  V30 3922 H 371.589 -1.58383 0.92667 0
M  V30 3923 H 369.971 -3.95472 -0.204329 0
M  V30 3924 H 371.145 -3.77065 2.64875 0
M  V30 3925 H 369.46 -3.4958 2.26236 0
M  V30 3926 H 372.057 -5.34384 0.183787 0
M  V30 3927 H 372.4 -4.05468 -0.943481 0
M  V30 3928 H 372.933 -3.90688 0.748854 0
M  V30 3929 H 369.672 -5.78252 3.08714 0
M  V30 3930 H 369.192 -5.83816 1.37546 0
M  V30 3931 H 370.871 -6.20099 1.84626 0
M  V30 3932 N 371.003 -0.499398 -1.49478 0
M  V30 3933 C 372.228 0.044722 -2.07352 0
M  V30 3934 C 372.653 1.30207 -1.35749 0
M  V30 3935 O 372.011 1.76516 -0.413732 0
M  V30 3936 C 372.059 0.283013 -3.59488 0
M  V30 3937 O 371.163 1.35804 -3.89398 0
M  V30 3938 H 370.504 -0.0255147 -0.66351 0
M  V30 3939 H 373.034 -0.698561 -1.92305 0
M  V30 3940 H 373.044 0.515007 -4.04737 0
M  V30 3941 H 371.719 -0.635636 -4.11014 0
M  V30 3942 H 370.296 1.11113 -3.55961 0
M  V30 3943 N 372.481 1.55866 -0.233164 0
M  V30 3944 C 373.727 1.98897 0.395959 0
M  V30 3945 C 374.06 1.12091 1.58585 0
M  V30 3946 O 373.335 0.181182 1.93654 0
M  V30 3947 C 373.618 3.50658 0.819224 0
M  V30 3948 C 373.471 4.48233 -0.375109 0
M  V30 3949 C 374.79 4.07135 1.67121 0
M  V30 3950 H 371.909 0.723102 0.142451 0
M  V30 3951 H 374.551 1.87082 -0.331725 0
M  V30 3952 H 372.701 3.60857 1.43925 0
M  V30 3953 H 374.373 4.50031 -1.01341 0
M  V30 3954 H 372.616 4.21624 -1.02058 0
M  V30 3955 H 373.287 5.51988 -0.0358328 0
M  V30 3956 H 375.763 3.99952 1.14795 0
M  V30 3957 H 374.639 5.13615 1.93625 0
M  V30 3958 H 374.9 3.54736 2.63846 0
M  V30 3959 N 373.959 -0.0401083 1.57549 0
M  V30 3960 C 375.207 -0.731677 1.8839 0
M  V30 3961 C 375.528 -1.76481 0.829425 0
M  V30 3962 O 374.798 -1.95411 -0.1383 0
M  V30 3963 H 373.378 -0.273225 0.695239 0
M  V30 3964 H 376.04 -0.00867725 1.94898 0
M  V30 3965 H 375.136 -1.22816 2.86919 0
M  V30 3966 N 375.437 -1.54477 -0.31217 0
M  V30 3967 C 376.665 -1.77205 -1.068 0
M  V30 3968 C 377.08 -0.526114 -1.81321 0
M  V30 3969 O 376.437 0.503647 -1.75413 0
M  V30 3970 C 376.488 -2.97253 -2.05725 0
M  V30 3971 O 376.209 -4.1703 -1.34228 0
M  V30 3972 C 377.71 -3.32281 -2.93435 0
M  V30 3973 H 374.93 -0.591287 -0.317208 0
M  V30 3974 H 377.474 -2.01398 -0.354834 0
M  V30 3975 H 375.629 -2.753 -2.72559 0
M  V30 3976 H 376.043 -4.84636 -2.00571 0
M  V30 3977 H 377.517 -4.19551 -3.58721 0
M  V30 3978 H 377.994 -2.49945 -3.61143 0
M  V30 3979 H 378.6 -3.56353 -2.32147 0
M  V30 3980 N 376.915 0.57481 -1.46744 0
M  V30 3981 C 378.162 1.33272 -1.52462 0
M  V30 3982 C 378.49 1.93669 -0.179572 0
M  V30 3983 O 377.745 1.7743 0.825664 0
M  V30 3984 C 378.044 2.476 -2.57738 0
M  V30 3985 C 377.71 2.05146 -4.01529 0
M  V30 3986 C 376.372 1.93284 -4.40676 0
M  V30 3987 C 378.724 1.72506 -4.91824 0
M  V30 3988 C 376.052 1.47049 -5.67973 0
M  V30 3989 C 378.404 1.27748 -6.19567 0
M  V30 3990 C 377.068 1.14468 -6.57612 0
M  V30 3991 H 376.338 0.487678 -0.557899 0
M  V30 3992 H 378.985 0.646456 -1.80259 0
M  V30 3993 H 377.29 3.21708 -2.23632 0
M  V30 3994 H 378.987 3.05807 -2.5939 0
M  V30 3995 H 375.577 2.15316 -3.7059 0
M  V30 3996 H 379.761 1.80552 -4.62293 0
M  V30 3997 H 375.017 1.35417 -5.96215 0
M  V30 3998 H 379.191 1.01547 -6.88957 0
M  V30 3999 H 376.818 0.78419 -7.56145 0
M  V30 4000 N 378.394 1.34581 0.820102 0
M  V30 4001 C 379.619 1.30333 1.61332 0
M  V30 4002 C 380.044 -0.119339 1.87721 0
M  V30 4003 O 379.402 -1.08197 1.45475 0
M  V30 4004 C 379.45 2.10258 2.92957 0
M  V30 4005 O 378.554 1.47404 3.85157 0
M  V30 4006 H 377.895 0.447488 0.490561 0
M  V30 4007 H 380.425 1.77425 1.01889 0
M  V30 4008 H 380.435 2.21718 3.42498 0
M  V30 4009 H 379.11 3.13693 2.73074 0
M  V30 4010 H 377.687 1.44703 3.43679 0
M  V30 4011 N 379.872 -1.04064 1.18357 0
M  V30 4012 C 380.802 -2.14001 0.934113 0
M  V30 4013 C 381.783 -1.69616 -0.128186 0
M  V30 4014 O 382.968 -1.94185 0.0244093 0
M  V30 4015 C 380.098 -3.44253 0.459066 0
M  V30 4016 C 379.052 -4.02261 1.46185 0
M  V30 4017 C 378.378 -5.27992 0.844322 0
M  V30 4018 C 379.678 -4.38432 2.83856 0
M  V30 4019 H 381.372 -2.35127 1.85352 0
M  V30 4020 H 378.918 -1.12998 0.892604 0
M  V30 4021 H 380.871 -4.20522 0.271907 0
M  V30 4022 H 379.595 -3.22813 -0.495912 0
M  V30 4023 H 378.254 -3.28074 1.63595 0
M  V30 4024 H 377.902 -5.02862 -0.117845 0
M  V30 4025 H 377.602 -5.67765 1.51384 0
M  V30 4026 H 379.126 -6.06938 0.667693 0
M  V30 4027 H 380.54 -5.05688 2.70098 0
M  V30 4028 H 378.937 -4.89254 3.47491 0
M  V30 4029 H 380.007 -3.4826 3.37406 0
M  V30 4030 N 381.35 -0.985608 -1.22978 0
M  V30 4031 C 382.28 -0.549649 -2.26939 0
M  V30 4032 C 383.261 0.419803 -1.64838 0
M  V30 4033 O 384.446 0.31203 -1.91677 0
M  V30 4034 C 381.576 0.143652 -3.47003 0
M  V30 4035 C 380.53 -0.743606 -4.21491 0
M  V30 4036 C 379.856 0.0822027 -5.34637 0
M  V30 4037 C 381.156 -2.03694 -4.80943 0
M  V30 4038 H 382.85 -1.41862 -2.63658 0
M  V30 4039 H 380.396 -0.683571 -1.26741 0
M  V30 4040 H 382.349 0.459985 -4.18882 0
M  V30 4041 H 381.073 1.04711 -3.09359 0
M  V30 4042 H 379.732 -1.04347 -3.51436 0
M  V30 4043 H 379.38 0.986359 -4.93234 0
M  V30 4044 H 379.08 -0.508377 -5.85397 0
M  V30 4045 H 380.604 0.392797 -6.09335 0
M  V30 4046 H 382.018 -1.78504 -5.44802 0
M  V30 4047 H 380.415 -2.57573 -5.42011 0
M  V30 4048 H 381.485 -2.72042 -4.01399 0
M  V30 4049 N 382.828 1.3818 -0.7579 0
M  V30 4050 C 384.053 2.04827 -0.325679 0
M  V30 4051 C 384.478 1.56788 1.03919 0
M  V30 4052 O 383.836 0.721811 1.66312 0
M  V30 4053 C 383.884 3.58774 -0.362447 0
M  V30 4054 O 382.988 4.07372 0.642033 0
M  V30 4055 H 382.329 0.64833 -0.143402 0
M  V30 4056 H 384.859 1.7677 -1.03023 0
M  V30 4057 H 384.869 4.07434 -0.214844 0
M  V30 4058 H 383.544 3.93096 -1.35824 0
M  V30 4059 H 382.121 3.70068 0.458688 0
M  V30 4060 N 384.306 0.507319 1.49211 0
M  V30 4061 C 385.552 -0.0350047 2.0277 0
M  V30 4062 C 385.885 -1.3606 1.38569 0
M  V30 4063 O 385.16 -1.87321 0.523542 0
M  V30 4064 C 385.443 -0.180916 3.59645 0
M  V30 4065 C 385.296 1.16825 4.34364 0
M  V30 4066 C 386.615 -0.918558 4.30407 0
M  V30 4067 H 383.734 -0.0112473 0.736914 0
M  V30 4068 H 386.376 0.659956 1.7817 0
M  V30 4069 H 384.526 -0.772826 3.80736 0
M  V30 4070 H 386.198 1.79952 4.24753 0
M  V30 4071 H 384.441 1.75594 3.96673 0
M  V30 4072 H 385.112 1.01939 5.42506 0
M  V30 4073 H 387.588 -0.41649 4.1401 0
M  V30 4074 H 386.464 -0.989505 5.39907 0
M  V30 4075 H 386.725 -1.96373 3.96093 0
M  V30 4076 N 385.784 -1.5574 0.241426 0
M  V30 4077 C 386.714 -2.24133 -0.654722 0
M  V30 4078 C 387.695 -1.21974 -1.1856 0
M  V30 4079 O 388.88 -1.50612 -1.22595 0
M  V30 4080 C 386.01 -2.93659 -1.85423 0
M  V30 4081 C 384.964 -4.0246 -1.45636 0
M  V30 4082 C 384.29 -4.59383 -2.73626 0
M  V30 4083 C 385.59 -5.18468 -0.631506 0
M  V30 4084 H 387.284 -2.99281 -0.0844353 0
M  V30 4085 H 384.83 -1.43947 -0.0391707 0
M  V30 4086 H 386.783 -3.40203 -2.48676 0
M  V30 4087 H 385.507 -2.15991 -2.44981 0
M  V30 4088 H 384.166 -3.56676 -0.847202 0
M  V30 4089 H 383.814 -3.78422 -3.3137 0
M  V30 4090 H 383.514 -5.32826 -2.4773 0
M  V30 4091 H 385.038 -5.08658 -3.37786 0
M  V30 4092 H 386.452 -5.61272 -1.1682 0
M  V30 4093 H 384.849 -5.98266 -0.468831 0
M  V30 4094 H 385.919 -4.8358 0.357506 0
M  V30 4095 N 387.262 0.0317525 -1.57568 0
M  V30 4096 C 388.225 1.01783 -2.0536 0
M  V30 4097 C 389.225 1.29203 -0.957253 0
M  V30 4098 O 390.415 1.24251 -1.22095 0
M  V30 4099 C 387.547 2.35137 -2.46827 0
M  V30 4100 H 388.74 0.605062 -2.93733 0
M  V30 4101 H 386.293 0.278514 -1.53799 0
M  V30 4102 H 387.028 2.81168 -1.61602 0
M  V30 4103 H 386.813 2.16566 -3.26866 0
M  V30 4104 H 388.303 3.05938 -2.84239 0
M  V30 4105 N 388.74 1.54641 0.303973 0
M  V30 4106 C 389.988 1.73437 1.0375 0
M  V30 4107 C 390.309 0.521449 1.87899 0
M  V30 4108 O 389.579 -0.46432 1.90318 0
M  V30 4109 H 388.159 0.639518 0.386039 0
M  V30 4110 H 390.821 1.91988 0.335675 0
M  V30 4111 H 389.917 2.62235 1.69231 0
M  V30 4112 N 390.218 -0.567019 1.47046 0
M  V30 4113 C 391.181 -1.65696 1.58359 0
M  V30 4114 C 392.181 -1.54097 0.459441 0
M  V30 4115 O 393.371 -1.58432 0.724225 0
M  V30 4116 C 390.503 -3.05197 1.51879 0
M  V30 4117 H 391.696 -1.57019 2.5551 0
M  V30 4118 H 389.249 -0.786148 1.3509 0
M  V30 4119 H 389.984 -3.19417 0.560673 0
M  V30 4120 H 389.769 -3.15025 2.33455 0
M  V30 4121 H 391.259 -3.84511 1.62913 0
M  V30 4122 N 391.696 -1.35014 -0.812953 0
M  V30 4123 C 392.936 -1.29289 -1.58315 0
M  V30 4124 C 393.3 0.132727 -1.91541 0
M  V30 4125 O 394.501 0.314269 -2.66957 0
M  V30 4126 C 392.772 -2.1681 -2.84127 0
M  V30 4127 S 394.331 -2.28538 -3.74588 0
M  V30 4128 H 391.149 -0.459569 -0.542511 0
M  V30 4129 H 393.751 -1.70336 -0.959467 0
M  V30 4130 H 392.455 -3.19379 -2.57731 0
M  V30 4131 H 391.986 -1.76697 -3.51485 0
M  V30 4132 H 394.001 -1.4655 -4.74065 0
M  V30 4133 N 393.175 1.03435 -1.18907 0
M  V30 4134 C 394.422 1.76743 -0.988334 0
M  V30 4135 C 394.75 1.88447 0.481441 0
M  V30 4136 O 394.005 1.39383 1.37371 0
M  V30 4137 C 394.304 3.19792 -1.59586 0
M  V30 4138 C 393.97 3.28108 -3.09283 0
M  V30 4139 C 392.632 3.30084 -3.5014 0
M  V30 4140 C 394.984 3.27696 -4.05296 0
M  V30 4141 C 392.312 3.29299 -4.85571 0
M  V30 4142 C 394.664 3.28451 -5.4065 0
M  V30 4143 C 393.328 3.28723 -5.80946 0
M  V30 4144 H 392.598 0.64675 -0.361657 0
M  V30 4145 H 395.245 1.21442 -1.48068 0
M  V30 4146 H 393.55 3.78136 -1.02568 0
M  V30 4147 H 395.247 3.75171 -1.41589 0
M  V30 4148 H 391.837 3.27294 -2.76725 0
M  V30 4149 H 396.021 3.25354 -3.74778 0
M  V30 4150 H 391.277 3.2783 -5.16079 0
M  V30 4151 H 395.451 3.27082 -6.14809 0
M  V30 4152 H 393.078 3.27868 -6.85862 0
M  V30 4153 N 394.653 0.992116 1.22453 0
M  V30 4154 C 395.9 0.667534 1.91181 0
M  V30 4155 C 396.228 -0.800317 1.77271 0
M  V30 4156 O 395.483 -1.59421 1.13505 0
M  V30 4157 C 395.782 1.01832 3.42586 0
M  V30 4158 C 395.448 2.47831 3.76684 0
M  V30 4159 C 394.11 2.87729 3.85701 0
M  V30 4160 C 396.462 3.42466 3.92895 0
M  V30 4161 C 393.79 4.21252 4.08367 0
M  V30 4162 C 396.142 4.75648 4.17064 0
M  V30 4163 C 394.806 5.15288 4.24305 0
M  V30 4164 H 394.076 0.244268 0.699581 0
M  V30 4165 H 396.723 1.24816 1.45235 0
M  V30 4166 H 395.028 0.355769 3.90181 0
M  V30 4167 H 396.725 0.745228 3.94014 0
M  V30 4168 H 393.315 2.15905 3.70247 0
M  V30 4169 H 397.499 3.12814 3.85307 0
M  V30 4170 H 392.755 4.51554 4.122 0
M  V30 4171 H 396.929 5.48924 4.2855 0
M  V30 4172 H 394.556 6.18769 4.41621 0
M  V30 4173 N 396.131 -1.37776 0.765217 0
M  V30 4174 C 397.061 -2.32945 0.160953 0
M  V30 4175 C 398.042 -1.55454 -0.690516 0
M  V30 4176 O 399.227 -1.83721 -0.629318 0
M  V30 4177 C 396.357 -3.39669 -0.724031 0
M  V30 4178 C 395.311 -4.27992 0.0256173 0
M  V30 4179 C 394.637 -5.25673 -0.978383 0
M  V30 4180 C 395.937 -5.08309 1.20082 0
M  V30 4181 H 397.631 -2.83728 0.955969 0
M  V30 4182 H 395.177 -1.36416 0.461149 0
M  V30 4183 H 397.13 -4.05219 -1.15652 0
M  V30 4184 H 395.854 -2.87396 -1.5515 0
M  V30 4185 H 394.513 -3.63964 0.438812 0
M  V30 4186 H 394.161 -4.69682 -1.80022 0
M  V30 4187 H 393.861 -5.85625 -0.481378 0
M  V30 4188 H 395.385 -5.94098 -1.40995 0
M  V30 4189 H 396.799 -5.67034 0.845307 0
M  V30 4190 H 395.196 -5.77554 1.62947 0
M  V30 4191 H 396.266 -4.41365 2.00811 0
M  V30 4192 N 397.609 -0.515225 -1.4894 0
M  V30 4193 C 398.855 0.0242508 -2.02785 0
M  V30 4194 C 399.188 1.35323 -1.39289 0
M  V30 4195 O 398.463 1.87041 -0.533469 0
M  V30 4196 C 398.746 0.16184 -3.59736 0
M  V30 4197 C 398.599 -1.19127 -4.33738 0
M  V30 4198 C 399.918 0.895719 -4.30888 0
M  V30 4199 H 397.037 0.00733914 -0.736963 0
M  V30 4200 H 399.679 -0.669395 -1.77818 0
M  V30 4201 H 397.829 0.752624 -3.8114 0
M  V30 4202 H 399.501 -1.82202 -4.23792 0
M  V30 4203 H 397.744 -1.77695 -3.95736 0
M  V30 4204 H 398.415 -1.04815 -5.41957 0
M  V30 4205 H 400.891 0.394528 -4.14225 0
M  V30 4206 H 399.767 0.960859 -5.40425 0
M  V30 4207 H 400.028 1.9427 -3.97129 0
M  V30 4208 N 399.087 1.5561 -0.249682 0
M  V30 4209 C 400.017 2.24477 0.642826 0
M  V30 4210 C 400.998 1.22601 1.17911 0
M  V30 4211 O 402.183 1.5126 1.21795 0
M  V30 4212 C 399.313 2.94638 1.83863 0
M  V30 4213 C 398.267 4.03227 1.435 0
M  V30 4214 C 397.593 4.60828 2.71186 0
M  V30 4215 C 398.893 5.18796 0.604002 0
M  V30 4216 H 400.587 2.99321 0.0685625 0
M  V30 4217 H 398.133 1.43965 0.0315363 0
M  V30 4218 H 400.086 3.41517 2.46868 0
M  V30 4219 H 398.81 2.17287 2.43832 0
M  V30 4220 H 397.469 3.57121 0.828275 0
M  V30 4221 H 397.117 3.80174 3.29358 0
M  V30 4222 H 396.817 5.34132 2.44901 0
M  V30 4223 H 398.341 5.10442 3.35084 0
M  V30 4224 H 399.755 5.61883 1.13842 0
M  V30 4225 H 398.152 5.98506 0.437097 0
M  V30 4226 H 399.222 4.83384 -0.383147 0
M  V30 4227 N 400.565 -0.0233959 1.57583 0
M  V30 4228 C 401.512 -1.02224 2.06927 0
M  V30 4229 C 402.482 -1.35575 0.959617 0
M  V30 4230 O 403.667 -1.45815 1.23055 0
M  V30 4231 C 400.807 -2.31636 2.5581 0
M  V30 4232 C 399.92 -2.04394 3.80588 0
M  V30 4233 C 399.055 -3.27717 4.18061 0
M  V30 4234 C 398.094 -2.96056 5.3574 0
M  V30 4235 N 397.231 -4.11847 5.68618 0
M  V30 4236 H 402.071 -0.594504 2.9201 0
M  V30 4237 H 399.608 -0.281921 1.44373 0
M  V30 4238 H 401.566 -3.07258 2.82221 0
M  V30 4239 H 400.196 -2.72122 1.73636 0
M  V30 4240 H 399.248 -1.19244 3.61227 0
M  V30 4241 H 400.56 -1.77042 4.66323 0
M  V30 4242 H 399.714 -4.11702 4.4563 0
M  V30 4243 H 398.453 -3.58188 3.30988 0
M  V30 4244 H 397.458 -2.10474 5.07918 0
M  V30 4245 H 398.683 -2.66857 6.24471 0
M  V30 4246 H 396.629 -4.42258 4.84504 0
M  V30 4247 H 396.546 -3.87938 6.48876 0
M  V30 4248 H 397.814 -4.96689 6.00766 0
M  V30 4249 N 402.043 -1.548 -0.295768 0
M  V30 4250 C 403.273 -1.78069 -1.04762 0
M  V30 4251 C 403.681 -0.542847 -1.81245 0
M  V30 4252 O 403.024 0.497051 -1.76848 0
M  V30 4253 C 403.086 -2.93881 -2.07061 0
M  V30 4254 C 402.75 -4.31777 -1.49725 0
M  V30 4255 C 403.747 -5.11613 -0.924581 0
M  V30 4256 C 401.432 -4.78389 -1.5313 0
M  V30 4257 C 403.426 -6.36184 -0.393594 0
M  V30 4258 C 401.113 -6.02921 -0.996447 0
M  V30 4259 C 402.111 -6.81654 -0.428569 0
M  V30 4260 O 401.799 -8.0384 0.0981593 0
M  V30 4261 H 401.531 -0.597475 -0.316226 0
M  V30 4262 H 404.085 -2.02584 -0.338973 0
M  V30 4263 H 402.315 -2.65003 -2.81621 0
M  V30 4264 H 404.004 -3.04679 -2.6819 0
M  V30 4265 H 404.77 -4.76743 -0.891136 0
M  V30 4266 H 400.649 -4.17132 -1.9627 0
M  V30 4267 H 404.193 -6.97582 0.0503014 0
M  V30 4268 H 400.09 -6.37277 -1.02706 0
M  V30 4269 H 400.858 -8.18499 -0.0146455 0
M  V30 4270 N 403.521 0.559213 -1.47345 0
M  V30 4271 C 404.937 0.884943 -1.32819 0
M  V30 4272 C 405.137 1.98988 -0.317173 0
M  V30 4273 O 404.193 2.51031 0.272011 0
M  V30 4274 C 405.506 1.28007 -2.72093 0
M  V30 4275 C 407.054 1.39161 -2.80363 0
M  V30 4276 C 407.529 1.82031 -4.20272 0
M  V30 4277 N 409.02 1.89185 -4.22804 0
M  V30 4278 C 409.755 2.2368 -5.27973 0
M  V30 4279 N 409.251 2.56802 -6.43447 0
M  V30 4280 N 411.044 2.24436 -5.15349 0
M  V30 4281 H 403.195 -0.170304 -2.11716 0
M  V30 4282 H 405.458 -0.0135247 -0.947904 0
M  V30 4283 H 405.164 0.542027 -3.47498 0
M  V30 4284 H 405.038 2.23665 -3.03733 0
M  V30 4285 H 407.425 2.12048 -2.05231 0
M  V30 4286 H 407.506 0.41696 -2.52379 0
M  V30 4287 H 407.15 1.09715 -4.95908 0
M  V30 4288 H 407.08 2.80495 -4.45679 0
M  V30 4289 H 409.571 1.65982 -3.39497 0
M  V30 4290 H 409.884 2.82144 -7.19454 0
M  V30 4291 H 408.229 2.54387 -6.46771 0
M  V30 4292 H 411.42 1.97998 -4.24163 0
M  V30 4293 H 411.593 2.50989 -5.97418 0
M  V30 4294 N 404.999 1.35443 0.805782 0
M  V30 4295 C 406.247 1.28507 1.55982 0
M  V30 4296 C 406.568 -0.140046 1.94496 0
M  V30 4297 O 405.838 -1.07666 1.63661 0
M  V30 4298 H 404.418 0.472676 0.578434 0
M  V30 4299 H 407.08 1.69555 0.961098 0
M  V30 4300 H 406.176 1.90148 2.47488 0
M  V30 4301 N 406.477 -1.02803 1.19454 0
M  V30 4302 C 407.407 -2.12999 0.956758 0
M  V30 4303 C 408.388 -1.69743 -0.110188 0
M  V30 4304 O 409.573 -1.94148 0.0450038 0
M  V30 4305 C 406.703 -3.43746 0.495553 0
M  V30 4306 C 405.657 -4.00688 1.50443 0
M  V30 4307 C 404.983 -5.27067 0.900275 0
M  V30 4308 C 406.283 -4.35397 2.8849 0
M  V30 4309 H 407.977 -2.33148 1.87836 0
M  V30 4310 H 405.523 -1.12045 0.904539 0
M  V30 4311 H 407.476 -4.2021 0.316493 0
M  V30 4312 H 406.2 -3.23321 -0.461646 0
M  V30 4313 H 404.859 -3.2632 1.67065 0
M  V30 4314 H 404.507 -5.02959 -0.064503 0
M  V30 4315 H 404.207 -5.66127 1.57397 0
M  V30 4316 H 405.731 -6.06196 0.73203 0
M  V30 4317 H 407.145 -5.02795 2.75446 0
M  V30 4318 H 405.542 -4.85541 3.52661 0
M  V30 4319 H 406.612 -3.44662 3.41081 0
M  V30 4320 N 407.956 -0.998596 -1.21925 0
M  V30 4321 C 409.205 -0.673085 -1.90138 0
M  V30 4322 C 409.518 0.79895 -1.78539 0
M  V30 4323 O 410.724 1.23628 -2.4172 0
M  V30 4324 C 409.18 -1.15339 -3.40918 0
M  V30 4325 C 408.788 -2.65106 -3.61141 0
M  V30 4326 C 410.532 -0.902476 -4.14796 0
M  V30 4327 C 408.439 -3.0671 -5.05651 0
M  V30 4328 H 407.369 -0.248057 -0.712028 0
M  V30 4329 H 410.02 -1.20891 -1.38049 0
M  V30 4330 H 408.402 -0.545658 -3.92223 0
M  V30 4331 H 409.576 -3.31274 -3.20304 0
M  V30 4332 H 407.891 -2.88142 -3.00605 0
M  V30 4333 H 410.488 -1.18895 -5.21314 0
M  V30 4334 H 410.831 0.161349 -4.15987 0
M  V30 4335 H 411.364 -1.47269 -3.69536 0
M  V30 4336 H 408.103 -4.12292 -5.09603 0
M  V30 4337 H 407.623 -2.45249 -5.47369 0
M  V30 4338 H 409.302 -2.9833 -5.74115 0
M  V30 4339 N 409.434 1.37368 -0.772513 0
M  V30 4340 C 410.381 2.30262 -0.157488 0
M  V30 4341 C 411.351 1.51137 0.688965 0
M  V30 4342 O 412.536 1.79704 0.641168 0
M  V30 4343 C 409.676 3.37611 0.715045 0
M  V30 4344 C 408.789 4.31746 -0.148098 0
M  V30 4345 C 407.924 5.26171 0.729213 0
M  V30 4346 C 406.963 6.11948 -0.136418 0
M  V30 4347 N 406.1 6.98613 0.698914 0
M  V30 4348 H 410.94 2.82277 -0.955179 0
M  V30 4349 H 408.477 1.38957 -0.482631 0
M  V30 4350 H 410.435 3.98479 1.23575 0
M  V30 4351 H 409.065 2.86959 1.47833 0
M  V30 4352 H 408.117 3.72178 -0.786613 0
M  V30 4353 H 409.429 4.92084 -0.81579 0
M  V30 4354 H 408.583 5.92247 1.31637 0
M  V30 4355 H 407.322 4.66246 1.43059 0
M  V30 4356 H 406.327 5.4485 -0.736102 0
M  V30 4357 H 407.552 6.73945 -0.835134 0
M  V30 4358 H 405.498 6.41215 1.38489 0
M  V30 4359 H 405.415 7.55948 0.0885358 0
M  V30 4360 H 406.683 7.69077 1.27044 0
M  V30 4361 N 410.912 0.523116 1.48665 0
M  V30 4362 C 412.142 -0.00961724 2.06598 0
M  V30 4363 C 412.55 -1.29333 1.38093 0
M  V30 4364 O 411.893 -1.77846 0.46007 0
M  V30 4365 C 411.955 -0.311135 3.58151 0
M  V30 4366 C 411.619 0.878092 4.48485 0
M  V30 4367 C 412.616 1.77464 4.88674 0
M  V30 4368 C 410.301 1.08315 4.90483 0
M  V30 4369 C 412.295 2.86021 5.69623 0
M  V30 4370 C 409.982 2.17187 5.71203 0
M  V30 4371 C 410.98 3.05873 6.10681 0
M  V30 4372 O 410.668 4.12862 6.89783 0
M  V30 4373 H 410.4 0.0272658 0.67545 0
M  V30 4374 H 412.954 0.726156 1.92136 0
M  V30 4375 H 411.184 -1.10079 3.70701 0
M  V30 4376 H 412.873 -0.785125 3.98234 0
M  V30 4377 H 413.639 1.62813 4.56855 0
M  V30 4378 H 409.518 0.402149 4.59243 0
M  V30 4379 H 413.062 3.55272 6.00356 0
M  V30 4380 H 408.959 2.31824 6.02435 0
M  V30 4381 H 409.727 4.10487 7.08126 0
M  V30 4382 N 412.39 -1.55475 0.257931 0
M  V30 4383 C 413.636 -2.00237 -0.357338 0
M  V30 4384 C 413.991 -1.14313 -1.54759 0
M  V30 4385 O 413.284 -0.201187 -1.90541 0
M  V30 4386 C 413.478 -3.48183 -0.806433 0
M  V30 4387 C 413.307 -4.48422 0.338758 0
M  V30 4388 C 412.077 -4.98651 0.817011 0
M  V30 4389 C 414.275 -5.00827 1.16949 0
M  V30 4390 N 412.257 -5.82658 1.93346 0
M  V30 4391 C 413.628 -5.82113 2.13413 0
M  V30 4392 C 415.683 -4.83104 1.2048 0
M  V30 4393 C 414.386 -6.47566 3.13131 0
M  V30 4394 C 416.412 -5.49343 2.19034 0
M  V30 4395 C 415.774 -6.30427 3.14232 0
M  V30 4396 H 411.873 -0.776034 -0.0964083 0
M  V30 4397 H 414.457 -1.90995 0.37803 0
M  V30 4398 H 412.628 -3.57801 -1.51107 0
M  V30 4399 H 414.36 -3.79802 -1.39758 0
M  V30 4400 H 411.115 -4.71914 0.39925 0
M  V30 4401 H 411.539 -6.29356 2.49478 0
M  V30 4402 H 416.181 -4.20036 0.482634 0
M  V30 4403 H 413.899 -7.09793 3.8629 0
M  V30 4404 H 417.485 -5.37579 2.22485 0
M  V30 4405 H 416.365 -6.80777 3.89246 0
M  V30 4406 N 413.868 0.0150385 -1.57593 0
M  V30 4407 C 415.115 0.703001 -1.89906 0
M  V30 4408 C 415.443 1.74604 -0.856944 0
M  V30 4409 O 414.698 1.95197 0.140287 0
M  V30 4410 C 414.997 1.39686 -3.28972 0
M  V30 4411 C 414.663 0.488457 -4.48246 0
M  V30 4412 C 413.325 0.2383 -4.8061 0
M  V30 4413 C 415.677 -0.137881 -5.21018 0
M  V30 4414 C 413.005 -0.646738 -5.83125 0
M  V30 4415 C 415.357 -1.0107 -6.24474 0
M  V30 4416 C 414.021 -1.27019 -6.55303 0
M  V30 4417 H 413.291 0.257246 -0.694914 0
M  V30 4418 H 415.938 -0.037259 -1.91464 0
M  V30 4419 H 414.243 2.21079 -3.23468 0
M  V30 4420 H 415.94 1.93495 -3.51227 0
M  V30 4421 H 412.53 0.693593 -4.22951 0
M  V30 4422 H 416.714 0.0423953 -4.96282 0
M  V30 4423 H 411.97 -0.855937 -6.05379 0
M  V30 4424 H 416.144 -1.50247 -6.79999 0
M  V30 4425 H 413.771 -1.95769 -7.3456 0
M  V30 4426 N 415.346 1.54954 0.287554 0
M  V30 4427 C 416.296 1.8322 1.357 0
M  V30 4428 C 417.28 0.690152 1.45347 0
M  V30 4429 O 418.472 0.951137 1.49273 0
M  V30 4430 C 415.601 2.09481 2.71979 0
M  V30 4431 C 414.687 3.29906 2.66502 0
M  V30 4432 N 415.078 4.50154 2.30641 0
M  V30 4433 C 413.376 3.32203 2.97585 0
M  V30 4434 C 414.077 5.32209 2.34794 0
M  V30 4435 N 413.053 4.70258 2.72688 0
M  V30 4436 H 416.855 2.73746 1.0696 0
M  V30 4437 H 414.369 1.54635 0.496167 0
M  V30 4438 H 416.366 2.27882 3.49107 0
M  V30 4439 H 415.026 1.2023 3.0162 0
M  V30 4440 H 416.037 4.76515 2.02865 0
M  V30 4441 H 412.714 2.53101 3.32034 0
M  V30 4442 H 414.104 6.38321 2.09753 0
M  V30 4443 N 416.824 -0.551391 1.4764 0
M  V30 4444 C 418.052 -1.33357 1.58189 0
M  V30 4445 C 418.467 -1.87342 0.234199 0
M  V30 4446 O 417.824 -1.65301 -0.77343 0
M  V30 4447 C 417.875 -2.49942 2.61173 0
M  V30 4448 O 417.596 -1.98187 3.90709 0
M  V30 4449 C 419.097 -3.42072 2.8196 0
M  V30 4450 H 416.317 -0.40631 0.533998 0
M  V30 4451 H 418.861 -0.667367 1.93304 0
M  V30 4452 H 417.016 -3.12489 2.28975 0
M  V30 4453 H 417.43 -2.74342 4.47031 0
M  V30 4454 H 418.904 -4.20278 3.57869 0
M  V30 4455 H 419.381 -3.95978 1.89995 0
M  V30 4456 H 419.987 -2.85336 3.15378 0
M  V30 4457 N 418.302 -1.35869 -0.798587 0
M  V30 4458 C 419.713 -1.26498 -1.37314 0
M  V30 4459 C 420.064 0.0991899 -1.95949 0
M  V30 4460 O 419.189 1.0004 -1.91888 0
M  V30 4461 C 419.784 -2.29054 -2.49639 0
M  V30 4462 C 418.343 -2.234 -3.02935 0
M  V30 4463 C 417.49 -2.14329 -1.75949 0
M  V30 4464 H 420.441 -1.46881 -0.600971 0
M  V30 4465 H 420.462 -1.92166 -3.28409 0
M  V30 4466 H 419.974 -3.2833 -2.06933 0
M  V30 4467 H 418.075 -1.27562 -3.50084 0
M  V30 4468 H 418.188 -3.15703 -3.60372 0
M  V30 4469 H 416.552 -1.60435 -1.9782 0
M  V30 4470 H 417.335 -3.15477 -1.35384 0
M  V30 4471 N 419.78 1.02168 -1.19998 0
M  V30 4472 C 421.191 1.57135 -1.00825 0
M  V30 4473 C 421.542 1.91276 0.436818 0
M  V30 4474 O 420.667 1.71679 1.3174 0
M  V30 4475 C 421.262 2.85514 -1.82393 0
M  V30 4476 C 419.821 3.37027 -1.67601 0
M  V30 4477 C 418.968 2.10388 -1.80644 0
M  V30 4478 H 421.919 0.846106 -1.34264 0
M  V30 4479 H 421.94 3.56711 -1.32429 0
M  V30 4480 H 421.452 2.60634 -2.87561 0
M  V30 4481 H 419.553 3.66878 -0.650485 0
M  V30 4482 H 419.666 4.09572 -2.4857 0
M  V30 4483 H 418.03 2.22601 -1.23778 0
M  V30 4484 H 418.813 1.8794 -2.87286 0
M  V30 4485 N 421.258 1.00505 1.21394 0
M  V30 4486 C 422.483 0.706367 1.95001 0
M  V30 4487 C 422.908 -0.72463 1.73582 0
M  V30 4488 O 422.266 -1.49702 1.0227 0
M  V30 4489 C 422.314 1.03299 3.45487 0
M  V30 4490 O 421.418 0.138275 4.12168 0
M  V30 4491 H 420.759 0.263175 0.609619 0
M  V30 4492 H 423.289 1.34531 1.54151 0
M  V30 4493 H 423.299 0.979872 3.96059 0
M  V30 4494 H 421.974 2.07567 3.60401 0
M  V30 4495 H 420.551 0.247928 3.72075 0
M  V30 4496 N 422.737 -1.36956 0.779787 0
M  V30 4497 C 423.986 -1.98738 0.344405 0
M  V30 4498 C 424.299 -1.62596 -1.08728 0
M  V30 4499 O 425.505 -2.1754 -1.62445 0
M  V30 4500 C 423.961 -3.5544 0.564829 0
M  V30 4501 C 423.569 -4.00514 2.0073 0
M  V30 4502 C 425.313 -4.24059 0.193471 0
M  V30 4503 C 423.22 -5.49957 2.17489 0
M  V30 4504 H 422.15 -0.743561 0.12503 0
M  V30 4505 H 424.801 -1.56381 0.960057 0
M  V30 4506 H 423.183 -3.95817 -0.120397 0
M  V30 4507 H 424.357 -3.71362 2.72814 0
M  V30 4508 H 422.672 -3.44703 2.336 0
M  V30 4509 H 425.269 -5.33874 0.297097 0
M  V30 4510 H 425.612 -4.07378 -0.857263 0
M  V30 4511 H 426.145 -3.89012 0.831556 0
M  V30 4512 H 422.884 -5.71574 3.2091 0
M  V30 4513 H 422.404 -5.80767 1.49899 0
M  V30 4514 H 424.083 -6.16043 1.97738 0
M  V30 4515 N 424.215 -0.530993 -1.48385 0
M  V30 4516 C 425.626 -0.0907905 -1.86479 0
M  V30 4517 C 425.977 1.33213 -1.44044 0
M  V30 4518 O 425.102 1.99783 -0.831615 0
M  V30 4519 C 425.697 -0.157987 -3.38431 0
M  V30 4520 C 424.256 0.227026 -3.75715 0
M  V30 4521 C 423.403 -0.5173 -2.72432 0
M  V30 4522 H 426.354 -0.742186 -1.40276 0
M  V30 4523 H 426.375 0.630053 -3.75247 0
M  V30 4524 H 425.887 -1.19372 -3.69286 0
M  V30 4525 H 423.988 1.26486 -3.50474 0
M  V30 4526 H 424.101 -0.113288 -4.78966 0
M  V30 4527 H 422.465 0.0365527 -2.54674 0
M  V30 4528 H 423.248 -1.55368 -3.0613 0
M  V30 4529 N 425.693 1.55336 -0.266172 0
M  V30 4530 C 426.623 2.25146 0.618981 0
M  V30 4531 C 427.604 1.23845 1.16604 0
M  V30 4532 O 428.789 1.52544 1.20183 0
M  V30 4533 C 425.919 2.96572 1.80728 0
M  V30 4534 C 424.873 4.04726 1.39215 0
M  V30 4535 C 424.199 4.63678 2.66283 0
M  V30 4536 C 425.499 5.19407 0.548942 0
M  V30 4537 H 427.193 2.99377 0.0368116 0
M  V30 4538 H 424.739 1.43991 0.0162651 0
M  V30 4539 H 426.692 3.44116 2.43232 0
M  V30 4540 H 425.416 2.19861 2.41514 0
M  V30 4541 H 424.075 3.57979 0.790351 0
M  V30 4542 H 423.723 3.83646 3.25308 0
M  V30 4543 H 423.423 5.367 2.39222 0
M  V30 4544 H 424.947 5.13967 3.29651 0
M  V30 4545 H 426.361 5.63059 1.07876 0
M  V30 4546 H 424.758 5.98936 0.373593 0
M  V30 4547 H 425.828 4.8295 -0.434394 0
M  V30 4548 N 427.171 -0.0066808 1.57599 0
M  V30 4549 C 428.103 -1.02827 2.04839 0
M  V30 4550 C 429.116 -1.31108 0.965113 0
M  V30 4551 O 430.305 -1.28202 1.24203 0
M  V30 4552 C 427.405 -2.36464 2.42771 0
M  V30 4553 C 426.578 -2.27219 3.73751 0
M  V30 4554 C 425.637 -3.43489 3.98625 0
M  V30 4555 O 424.663 -3.21976 4.69382 0
M  V30 4556 N 425.865 -4.66116 3.46 0
M  V30 4557 H 428.63 -0.625455 2.93101 0
M  V30 4558 H 426.191 -0.194198 1.60731 0
M  V30 4559 H 428.183 -3.13008 2.56531 0
M  V30 4560 H 426.753 -2.68512 1.60063 0
M  V30 4561 H 425.973 -1.35629 3.70133 0
M  V30 4562 H 427.261 -2.18208 4.59633 0
M  V30 4563 H 426.659 -4.86493 2.88688 0
M  V30 4564 H 425.216 -5.39949 3.65101 0
M  V30 4565 N 428.649 -1.55105 -0.279332 0
M  V30 4566 C 429.898 -1.74618 -1.00952 0
M  V30 4567 C 430.211 -0.551096 -1.87676 0
M  V30 4568 O 431.417 -0.628507 -2.64125 0
M  V30 4569 C 429.873 -3.09025 -1.84476 0
M  V30 4570 C 429.481 -4.36081 -1.0265 0
M  V30 4571 C 431.225 -3.37891 -2.56963 0
M  V30 4572 C 429.132 -5.6153 -1.85576 0
M  V30 4573 H 428.062 -0.650868 -0.38064 0
M  V30 4574 H 430.713 -1.81569 -0.265475 0
M  V30 4575 H 429.095 -2.96095 -2.62952 0
M  V30 4576 H 430.269 -4.59909 -0.286354 0
M  V30 4577 H 428.584 -4.14312 -0.416464 0
M  V30 4578 H 431.181 -4.28822 -3.19399 0
M  V30 4579 H 431.524 -2.57737 -3.26921 0
M  V30 4580 H 432.057 -3.5189 -1.85522 0
M  V30 4581 H 428.796 -6.44413 -1.2005 0
M  V30 4582 H 428.316 -5.41854 -2.57204 0
M  V30 4583 H 429.995 -5.99594 -2.43096 0
M  V30 4584 N 430.127 0.543554 -1.4793 0
M  V30 4585 C 431.037 1.67657 -1.64098 0
M  V30 4586 C 432.053 1.65934 -0.523622 0
M  V30 4587 O 433.229 1.85133 -0.792943 0
M  V30 4588 C 430.294 3.04146 -1.66421 0
M  V30 4589 C 429.355 3.16831 -2.89684 0
M  V30 4590 C 428.588 4.46809 -2.91886 0
M  V30 4591 O 428.811 5.33095 -2.02895 0
M  V30 4592 O 427.745 4.63573 -3.83906 0
M  V30 4593 H 431.571 1.56957 -2.59997 0
M  V30 4594 H 429.156 0.715116 -1.31173 0
M  V30 4595 H 431.038 3.85346 -1.70548 0
M  V30 4596 H 429.713 3.152 -0.736923 0
M  V30 4597 H 428.62 2.34977 -2.91095 0
M  V30 4598 H 429.953 3.10687 -3.81752 0
M  V30 4599 N 431.605 1.3629 0.791371 0
M  V30 4600 C 432.515 1.32606 1.93527 0
M  V30 4601 C 433.531 0.228541 1.72493 0
M  V30 4602 O 434.707 0.460571 1.96063 0
M  V30 4603 C 431.772 1.11271 3.28359 0
M  V30 4604 C 430.833 2.3048 3.62185 0
M  V30 4605 C 430.066 2.10154 4.90583 0
M  V30 4606 O 430.289 1.07572 5.60165 0
M  V30 4607 O 429.223 2.97884 5.23019 0
M  V30 4608 H 433.049 2.28909 1.99585 0
M  V30 4609 H 430.634 1.16818 0.931344 0
M  V30 4610 H 432.516 1.01283 4.09047 0
M  V30 4611 H 431.191 0.180292 3.23198 0
M  V30 4612 H 430.098 2.46036 2.81811 0
M  V30 4613 H 431.431 3.22221 3.72068 0
M  V30 4614 N 433.083 -1.0153 1.20538 0
M  V30 4615 C 434.313 -1.78487 1.04048 0
M  V30 4616 C 434.721 -1.84631 -0.413292 0
M  V30 4617 O 434.064 -1.29919 -1.29872 0
M  V30 4618 C 434.126 -3.24367 1.55003 0
M  V30 4619 C 433.79 -3.41827 3.0332 0
M  V30 4620 C 434.787 -3.30941 4.00966 0
M  V30 4621 C 432.472 -3.67602 3.42307 0
M  V30 4622 C 434.466 -3.45577 5.35589 0
M  V30 4623 C 432.153 -3.81881 4.77085 0
M  V30 4624 C 433.151 -3.70874 5.73534 0
M  V30 4625 O 432.839 -3.84714 7.05868 0
M  V30 4626 H 432.571 -0.568108 0.366373 0
M  V30 4627 H 435.125 -1.28677 1.60098 0
M  V30 4628 H 433.355 -3.75266 0.933397 0
M  V30 4629 H 435.044 -3.82963 1.34514 0
M  V30 4630 H 435.81 -3.10964 3.72191 0
M  V30 4631 H 431.689 -3.75256 2.67776 0
M  V30 4632 H 435.233 -3.36902 6.10854 0
M  V30 4633 H 431.13 -4.01359 5.0555 0
M  V30 4634 H 431.898 -4.01724 7.13134 0
M  V30 4635 N 434.561 -1.01147 -1.20859 0
M  V30 4636 C 435.491 -0.597663 -2.25722 0
M  V30 4637 C 436.472 0.384744 -1.65692 0
M  V30 4638 O 437.657 0.271303 -1.92296 0
M  V30 4639 C 434.787 0.0700149 -3.47229 0
M  V30 4640 C 433.741 -0.832843 -4.19819 0
M  V30 4641 C 433.067 -0.0312202 -5.34691 0
M  V30 4642 C 434.367 -2.1385 -4.76514 0
M  V30 4643 H 436.061 -1.47423 -2.60589 0
M  V30 4644 H 433.607 -0.710301 -1.25263 0
M  V30 4645 H 435.56 0.37103 -4.19763 0
M  V30 4646 H 434.284 0.981259 -3.11511 0
M  V30 4647 H 432.943 -1.11778 -3.49144 0
M  V30 4648 H 432.591 0.881515 -4.95215 0
M  V30 4649 H 432.291 -0.632434 -5.84187 0
M  V30 4650 H 433.815 0.26346 -6.10031 0
M  V30 4651 H 435.229 -1.9002 -5.40893 0
M  V30 4652 H 433.626 -2.69012 -5.36426 0
M  V30 4653 H 434.696 -2.80495 -3.95538 0
M  V30 4654 N 436.039 1.36541 -0.78704 0
M  V30 4655 C 436.986 2.30082 -0.181901 0
M  V30 4656 C 437.956 1.5186 0.672896 0
M  V30 4657 O 439.141 1.80374 0.622072 0
M  V30 4658 C 436.281 3.3835 0.679197 0
M  V30 4659 C 435.394 4.31565 -0.193882 0
M  V30 4660 C 434.529 5.26915 0.673364 0
M  V30 4661 C 433.568 6.11769 -0.201315 0
M  V30 4662 N 432.705 6.99315 0.624777 0
M  V30 4663 H 437.545 2.81248 -0.985064 0
M  V30 4664 H 435.082 1.38437 -0.497342 0
M  V30 4665 H 437.04 3.99767 1.19341 0
M  V30 4666 H 435.67 2.8851 1.44781 0
M  V30 4667 H 434.722 3.71323 -0.826044 0
M  V30 4668 H 436.034 4.91191 -0.867937 0
M  V30 4669 H 435.188 5.9361 1.25348 0
M  V30 4670 H 433.927 4.67737 1.38105 0
M  V30 4671 H 432.932 5.44039 -0.793849 0
M  V30 4672 H 434.157 6.73022 -0.906568 0
M  V30 4673 H 432.103 6.42648 1.3168 0
M  V30 4674 H 432.02 7.56 0.00835237 0
M  V30 4675 H 433.288 7.70382 1.18879 0
M  V30 4676 N 437.518 0.538854 1.48102 0
M  V30 4677 C 438.795 -0.0568108 1.95517 0
M  V30 4678 C 439.175 -1.50408 1.48124 0
M  V30 4679 O 438.523 -2.17133 0.711727 0
M  V30 4680 C 438.733 0.0696262 3.48931 0
M  V30 4681 C 440.081 -0.0851202 4.24515 0
M  V30 4682 O 441.105 -0.0037347 3.562 0
M  V30 4683 O 439.964 -0.257025 5.45895 0
M  V30 4684 H 437.058 -0.0743695 0.823649 0
M  V30 4685 H 439.604 0.604081 1.58584 0
M  V30 4686 H 438.376 1.07744 3.76174 0
M  V30 4687 H 437.999 -0.629714 3.92582 0
M  V30 4688 N 438.996 -1.55193 0.274407 0
M  V30 4689 C 440.407 -1.85358 -0.223488 0
M  V30 4690 C 440.758 -1.19642 -1.555 0
M  V30 4691 O 439.883 -0.484498 -2.10907 0
M  V30 4692 C 440.478 -3.36282 -0.412285 0
M  V30 4693 C 439.037 -3.66574 -0.854413 0
M  V30 4694 C 438.184 -2.7725 0.0527056 0
M  V30 4695 H 441.135 -1.50743 0.496215 0
M  V30 4696 H 441.156 -3.59349 -1.25094 0
M  V30 4697 H 440.668 -3.84083 0.556965 0
M  V30 4698 H 438.769 -3.24273 -1.83516 0
M  V30 4699 H 438.882 -4.74073 -0.692226 0
M  V30 4700 H 437.246 -2.50447 -0.463484 0
M  V30 4701 H 438.029 -3.27865 1.01783 0
M  V30 4702 N 440.474 -0.00167713 -1.576 0
M  V30 4703 C 441.702 0.693759 -1.94922 0
M  V30 4704 C 442.117 1.67215 -0.876626 0
M  V30 4705 O 441.474 1.81929 0.144279 0
M  V30 4706 C 441.525 1.42416 -3.32265 0
M  V30 4707 O 441.246 0.485014 -4.35407 0
M  V30 4708 C 442.747 2.21395 -3.84056 0
M  V30 4709 H 439.967 0.193118 -0.642609 0
M  V30 4710 H 442.511 -0.0532952 -2.04431 0
M  V30 4711 H 440.666 2.12284 -3.24059 0
M  V30 4712 H 441.08 1.00053 -5.14868 0
M  V30 4713 H 442.554 2.67996 -4.82578 0
M  V30 4714 H 443.031 3.04142 -3.16851 0
M  V30 4715 H 443.637 1.56542 -3.95443 0
M  V30 4716 N 441.952 1.55251 0.271103 0
M  V30 4717 C 442.884 1.84675 1.35749 0
M  V30 4718 C 443.897 0.731366 1.45447 0
M  V30 4719 O 445.086 1.00924 1.4723 0
M  V30 4720 C 442.186 1.99638 2.73857 0
M  V30 4721 C 441.359 3.30312 2.86727 0
M  V30 4722 C 440.418 3.35318 4.05522 0
M  V30 4723 O 439.444 4.08682 3.96191 0
M  V30 4724 N 440.646 2.62857 5.17577 0
M  V30 4725 H 443.411 2.78445 1.10853 0
M  V30 4726 H 440.972 1.55191 0.461218 0
M  V30 4727 H 442.964 2.00355 3.51625 0
M  V30 4728 H 441.534 1.12725 2.91568 0
M  V30 4729 H 440.754 3.42118 1.95829 0
M  V30 4730 H 442.042 4.16488 2.92258 0
M  V30 4731 H 441.44 2.02939 5.28046 0
M  V30 4732 H 439.997 2.69295 5.93568 0
M  V30 4733 N 443.43 -0.535701 1.48216 0
M  V30 4734 C 444.841 -1.11769 1.49548 0
M  V30 4735 C 445.192 -1.94442 0.26207 0
M  V30 4736 O 444.317 -2.06987 -0.631287 0
M  V30 4737 C 444.912 -2.03367 2.70975 0
M  V30 4738 C 443.471 -2.56795 2.75196 0
M  V30 4739 C 442.618 -1.33631 2.42977 0
M  V30 4740 H 445.569 -0.321232 1.55415 0
M  V30 4741 H 445.59 -2.87569 2.49167 0
M  V30 4742 H 445.102 -1.43169 3.60727 0
M  V30 4743 H 443.203 -3.20731 1.89638 0
M  V30 4744 H 443.316 -2.9632 3.76472 0
M  V30 4745 H 441.68 -1.6502 1.94012 0
M  V30 4746 H 442.463 -0.75194 3.34964 0
M  V30 4747 N 444.908 -1.36708 -0.784132 0
M  V30 4748 C 446.157 -1.30559 -1.53744 0
M  V30 4749 C 446.47 0.111374 -1.95283 0
M  V30 4750 O 447.676 0.29527 -2.6989 0
M  V30 4751 C 446.132 -2.29098 -2.77565 0
M  V30 4752 C 445.74 -3.76258 -2.43174 0
M  V30 4753 C 447.484 -2.31936 -3.55536 0
M  V30 4754 C 445.391 -4.6656 -3.63422 0
M  V30 4755 H 444.321 -0.48518 -0.577162 0
M  V30 4756 H 446.972 -1.62101 -0.859981 0
M  V30 4757 H 445.354 -1.90557 -3.47137 0
M  V30 4758 H 446.528 -4.23565 -1.81465 0
M  V30 4759 H 444.843 -3.76246 -1.78403 0
M  V30 4760 H 447.44 -2.9661 -4.44889 0
M  V30 4761 H 447.783 -1.3294 -3.94503 0
M  V30 4762 H 448.316 -2.6912 -2.92949 0
M  V30 4763 H 445.055 -5.66638 -3.29547 0
M  V30 4764 H 444.575 -4.23966 -4.24279 0
M  V30 4765 H 446.254 -4.8309 -4.30387 0
M  V30 4766 N 446.386 1.0089 -1.21074 0
M  V30 4767 C 447.316 2.1145 -0.990523 0
M  V30 4768 C 448.297 1.69897 0.0831699 0
M  V30 4769 O 449.482 1.94052 -0.0758853 0
M  V30 4770 C 446.612 3.42914 -0.550177 0
M  V30 4771 C 445.566 3.98244 -1.56799 0
M  V30 4772 C 444.892 5.25568 -0.984013 0
M  V30 4773 C 446.192 4.30752 -2.95381 0
M  V30 4774 H 447.886 2.3013 -1.91521 0
M  V30 4775 H 445.432 1.10592 -0.92225 0
M  V30 4776 H 447.385 4.19653 -0.383305 0
M  V30 4777 H 446.109 3.24014 0.41015 0
M  V30 4778 H 444.768 3.23621 -1.72236 0
M  V30 4779 H 444.416 5.02998 -0.0155216 0
M  V30 4780 H 444.116 5.63551 -1.66384 0
M  V30 4781 H 445.64 6.04955 -0.828378 0
M  V30 4782 H 447.054 4.98349 -2.8341 0
M  V30 4783 H 445.451 4.79869 -3.60341 0
M  V30 4784 H 446.521 3.39192 -3.46521 0
M  V30 4785 N 447.864 1.01787 1.20321 0
M  V30 4786 C 448.774 0.598898 2.26827 0
M  V30 4787 C 449.79 -0.36418 1.70146 0
M  V30 4788 O 450.966 -0.224812 2.00141 0
M  V30 4789 C 448.031 -0.0549769 3.46656 0
M  V30 4790 C 447.092 0.954205 4.18561 0
M  V30 4791 C 446.325 0.331439 5.3267 0
M  V30 4792 O 446.548 -0.86851 5.63749 0
M  V30 4793 O 445.482 1.0488 5.92692 0
M  V30 4794 H 449.308 1.48562 2.64883 0
M  V30 4795 H 446.893 0.787434 1.26964 0
M  V30 4796 H 448.775 -0.420102 4.19301 0
M  V30 4797 H 447.45 -0.915876 3.10473 0
M  V30 4798 H 446.357 1.37072 3.48083 0
M  V30 4799 H 447.69 1.78511 4.58688 0
M  V30 4800 N 449.342 -1.36122 0.79427 0
M  V30 4801 C 450.305 -2.28309 0.201889 0
M  V30 4802 C 451.305 -1.49041 -0.603603 0
M  V30 4803 O 452.495 -1.68964 -0.423888 0
M  V30 4804 C 449.627 -3.3321 -0.719978 0
M  V30 4805 H 450.82 -2.82208 1.01481 0
M  V30 4806 H 448.373 -1.45768 0.564037 0
M  V30 4807 H 449.108 -2.84475 -1.55706 0
M  V30 4808 H 448.893 -3.91835 -0.144266 0
M  V30 4809 H 450.383 -4.02044 -1.12916 0
M  V30 4810 N 450.82 -0.546701 -1.47814 0
M  V30 4811 C 451.75 0.195317 -2.32682 0
M  V30 4812 C 452.731 0.918981 -1.43139 0
M  V30 4813 O 453.916 0.901501 -1.72008 0
M  V30 4814 C 451.046 1.23237 -3.247 0
M  V30 4815 C 450 0.625818 -4.234 0
M  V30 4816 C 449.326 1.76674 -5.04669 0
M  V30 4817 C 450.626 -0.413515 -5.2066 0
M  V30 4818 H 452.32 -0.513184 -2.94969 0
M  V30 4819 H 449.866 -0.248241 -1.41844 0
M  V30 4820 H 451.819 1.75955 -3.82907 0
M  V30 4821 H 450.543 1.97067 -2.60446 0
M  V30 4822 H 449.202 0.120023 -3.66403 0
M  V30 4823 H 448.85 2.49383 -4.36826 0
M  V30 4824 H 448.55 1.36673 -5.71484 0
M  V30 4825 H 450.074 2.29738 -5.65732 0
M  V30 4826 H 451.488 0.0272042 -5.73294 0
M  V30 4827 H 449.885 -0.731825 -5.95621 0
M  V30 4828 H 450.955 -1.31325 -4.66778 0
M  V30 4829 N 452.299 1.55045 -0.282633 0
M  V30 4830 C 453.576 1.9179 0.384166 0
M  V30 4831 C 453.956 1.20778 1.73136 0
M  V30 4832 O 453.304 0.33719 2.25998 0
M  V30 4833 C 453.514 3.45149 0.517014 0
M  V30 4834 C 454.862 4.17064 0.796427 0
M  V30 4835 O 455.886 3.51084 0.601535 0
M  V30 4836 O 454.745 5.33837 1.16962 0
M  V30 4837 H 451.839 0.799483 0.211558 0
M  V30 4838 H 454.385 1.66474 -0.32934 0
M  V30 4839 H 453.157 3.88922 -0.430772 0
M  V30 4840 H 452.78 3.76443 1.2797 0
M  V30 4841 N 453.777 0.010035 1.57597 0
M  V30 4842 C 454.724 -0.978122 2.09049 0
M  V30 4843 C 455.694 -1.33509 0.988159 0
M  V30 4844 O 456.879 -1.43172 1.26121 0
M  V30 4845 C 454.019 -2.26158 2.60666 0
M  V30 4846 C 453.132 -1.96275 3.84838 0
M  V30 4847 C 452.267 -3.18776 4.24918 0
M  V30 4848 C 451.306 -2.84625 5.41899 0
M  V30 4849 N 450.443 -3.99693 5.77226 0
M  V30 4850 H 455.283 -0.532431 2.93205 0
M  V30 4851 H 452.82 -0.251234 1.44939 0
M  V30 4852 H 454.778 -3.01202 2.88675 0
M  V30 4853 H 453.408 -2.68378 1.79369 0
M  V30 4854 H 452.46 -1.11555 3.63675 0
M  V30 4855 H 453.772 -1.67111 4.69974 0
M  V30 4856 H 452.926 -4.02157 4.54262 0
M  V30 4857 H 451.665 -3.51087 3.38511 0
M  V30 4858 H 450.67 -1.99653 5.12268 0
M  V30 4859 H 451.895 -2.53551 6.29991 0
M  V30 4860 H 449.841 -4.31882 4.93776 0
M  V30 4861 H 449.758 -3.74087 6.56959 0
M  V30 4862 H 451.026 -4.83834 6.11167 0
M  V30 4863 N 455.255 -1.55392 -0.262866 0
M  V30 4864 C 456.532 -1.67204 -1.01499 0
M  V30 4865 C 456.912 -0.545186 -2.03939 0
M  V30 4866 O 456.26 0.453467 -2.23955 0
M  V30 4867 C 456.47 -3.06847 -1.6627 0
M  V30 4868 C 457.818 -3.64928 -2.17054 0
M  V30 4869 O 458.842 -3.09545 -1.76239 0
M  V30 4870 O 457.701 -4.61984 -2.91947 0
M  V30 4871 H 454.795 -0.679467 -0.471438 0
M  V30 4872 H 457.341 -1.67729 -0.257918 0
M  V30 4873 H 456.113 -3.80309 -0.920915 0
M  V30 4874 H 455.736 -3.10266 -2.48638 0
M  V30 4875 N 456.733 0.527833 -1.48498 0
M  V30 4876 C 457.958 1.313 -1.60546 0
M  V30 4877 C 458.383 1.86199 -0.26672 0
M  V30 4878 O 457.741 1.64513 0.761918 0
M  V30 4879 C 457.789 2.43818 -2.65678 0
M  V30 4880 O 456.893 3.46916 -2.22987 0
M  V30 4881 H 456.234 0.388784 -0.538277 0
M  V30 4882 H 458.764 0.634896 -1.945 0
M  V30 4883 H 458.774 2.89973 -2.87018 0
M  V30 4884 H 457.449 2.03222 -3.62869 0
M  V30 4885 H 456.026 3.06864 -2.11869 0
M  V30 4886 N 458.211 1.37122 0.776871 0
M  V30 4887 C 459.436 1.354 1.57104 0
M  V30 4888 C 459.861 -0.0595562 1.88006 0
M  V30 4889 O 459.219 -1.03514 1.48844 0
M  V30 4890 C 459.267 2.19472 2.8612 0
M  V30 4891 O 458.371 1.59582 3.80273 0
M  V30 4892 H 457.712 0.462869 0.476076 0
M  V30 4893 H 460.242 1.80577 0.961932 0
M  V30 4894 H 460.252 2.32502 3.35271 0
M  V30 4895 H 458.927 3.22222 2.62956 0
M  V30 4896 H 457.504 1.55564 3.38902 0
M  V30 4897 N 459.689 -1.00246 1.21608 0
M  V30 4898 C 461.1 -1.55511 1.03312 0
M  V30 4899 C 461.451 -1.91946 -0.406332 0
M  V30 4900 O 460.576 -1.73753 -1.28992 0
M  V30 4901 C 461.171 -2.82576 1.86913 0
M  V30 4902 C 459.73 -3.34318 1.72941 0
M  V30 4903 C 458.877 -2.07487 1.83968 0
M  V30 4904 H 461.828 -0.824638 1.35593 0
M  V30 4905 H 461.849 -3.54559 1.38087 0
M  V30 4906 H 461.361 -2.56026 2.91672 0
M  V30 4907 H 459.462 -3.65797 0.70877 0
M  V30 4908 H 459.575 -4.05566 2.55055 0
M  V30 4909 H 457.939 -2.20603 1.27304 0
M  V30 4910 H 458.722 -1.83346 2.9024 0
M  V30 4911 N 461.167 -1.02423 -1.1978 0
M  V30 4912 C 462.114 -0.601023 -2.22837 0
M  V30 4913 C 463.084 0.382801 -1.61629 0
M  V30 4914 O 464.269 0.280514 -1.88727 0
M  V30 4915 C 461.409 0.0467755 -3.45068 0
M  V30 4916 C 460.522 -0.98253 -4.20678 0
M  V30 4917 C 459.657 -0.304982 -5.30324 0
M  V30 4918 C 458.696 -1.32052 -5.97686 0
M  V30 4919 N 457.833 -0.669105 -6.98904 0
M  V30 4920 H 462.673 -1.48444 -2.58396 0
M  V30 4921 H 460.21 -0.742936 -1.2696 0
M  V30 4922 H 462.168 0.439556 -4.14878 0
M  V30 4923 H 460.798 0.893796 -3.10179 0
M  V30 4924 H 459.85 -1.49341 -3.49859 0
M  V30 4925 H 461.162 -1.75455 -4.66923 0
M  V30 4926 H 460.316 0.142893 -6.06532 0
M  V30 4927 H 459.055 0.499283 -4.85138 0
M  V30 4928 H 458.06 -1.7787 -5.20233 0
M  V30 4929 H 459.285 -2.1262 -6.44957 0
M  V30 4930 H 457.231 0.115152 -6.55899 0
M  V30 4931 H 457.148 -1.37908 -7.43315 0
M  V30 4932 H 458.416 -0.245076 -7.79115 0
M  V30 4933 N 462.645 1.35699 -0.801477 0
M  V30 4934 C 463.922 1.9324 -0.302937 0
M  V30 4935 C 464.302 1.73209 1.20672 0
M  V30 4936 O 463.65 1.09809 2.00385 0
M  V30 4937 C 463.86 3.41728 -0.708747 0
M  V30 4938 C 465.208 4.18868 -0.695328 0
M  V30 4939 O 466.232 3.5022 -0.649971 0
M  V30 4940 O 465.091 5.41342 -0.749081 0
M  V30 4941 H 462.185 0.82331 -0.0780367 0
M  V30 4942 H 464.731 1.44806 -0.884832 0
M  V30 4943 H 463.503 3.50015 -1.74944 0
M  V30 4944 H 463.126 3.97471 -0.101384 0
M  V30 4945 N 464.123 0.554532 1.47522 0
M  V30 4946 C 465.4 -0.0360704 1.95567 0
M  V30 4947 C 465.78 -1.48828 1.49711 0
M  V30 4948 O 465.128 -2.16366 0.734717 0
M  V30 4949 C 465.338 0.106631 3.48837 0
M  V30 4950 C 466.686 -0.0400899 4.24581 0
M  V30 4951 O 467.71 0.0340453 3.56184 0
M  V30 4952 O 466.569 -0.199111 5.46137 0
M  V30 4953 H 463.663 -0.0656294 0.824392 0
M  V30 4954 H 466.209 0.620867 1.57935 0
M  V30 4955 H 464.981 1.11727 3.7501 0
M  V30 4956 H 464.604 -0.58804 3.93227 0
M  V30 4957 N 465.601 -1.54893 0.290851 0
M  V30 4958 C 466.847 -2.0023 -0.321867 0
M  V30 4959 C 467.18 -1.179 -1.54316 0
M  V30 4960 O 466.455 -0.25293 -1.92848 0
M  V30 4961 C 466.738 -3.53456 -0.688515 0
M  V30 4962 C 466.591 -4.46532 0.541209 0
M  V30 4963 C 467.91 -4.13057 -1.51895 0
M  V30 4964 H 465.029 -0.727891 -0.115515 0
M  V30 4965 H 467.671 -1.85722 0.400931 0
M  V30 4966 H 465.821 -3.6595 -1.30433 0
M  V30 4967 H 467.493 -4.4596 1.17973 0
M  V30 4968 H 465.736 -4.17545 1.17636 0
M  V30 4969 H 466.407 -5.51475 0.240675 0
M  V30 4970 H 468.883 -4.03937 -0.99872 0
M  V30 4971 H 467.759 -5.20448 -1.74429 0
M  V30 4972 H 468.02 -3.64284 -2.50498 0
M  V30 4973 N 467.08 -0.0183926 -1.57589 0
M  V30 4974 C 468.326 0.657813 -1.92469 0
M  V30 4975 C 468.681 1.70349 -0.894375 0
M  V30 4976 O 467.974 1.91384 0.0910389 0
M  V30 4977 C 468.168 1.32676 -3.31861 0
M  V30 4978 C 467.997 0.347403 -4.48356 0
M  V30 4979 C 466.767 -0.0488653 -5.05276 0
M  V30 4980 C 468.965 -0.393931 -5.12789 0
M  V30 4981 N 466.947 -1.02451 -6.05291 0
M  V30 4982 C 468.318 -1.22367 -6.07804 0
M  V30 4983 C 470.373 -0.455789 -4.95809 0
M  V30 4984 C 469.076 -2.10966 -6.87667 0
M  V30 4985 C 471.102 -1.32908 -5.76272 0
M  V30 4986 C 470.464 -2.14662 -6.70894 0
M  V30 4987 H 466.563 0.21335 -0.752334 0
M  V30 4988 H 469.147 -0.0830547 -1.94523 0
M  V30 4989 H 467.318 2.03782 -3.30647 0
M  V30 4990 H 469.05 1.95913 -3.54119 0
M  V30 4991 H 465.805 0.323356 -4.72495 0
M  V30 4992 H 466.229 -1.50826 -6.59985 0
M  V30 4993 H 470.871 0.162017 -4.22489 0
M  V30 4994 H 468.589 -2.73807 -7.603 0
M  V30 4995 H 472.175 -1.38109 -5.6517 0
M  V30 4996 H 471.055 -2.81143 -7.32071 0
M  V30 4997 N 468.558 1.5553 0.254621 0
M  V30 4998 C 469.835 1.6774 1.00611 0
M  V30 4999 C 470.215 0.555993 2.03647 0
M  V30 5000 O 469.563 -0.441583 2.24193 0
M  V30 5001 C 469.773 3.07725 1.6464 0
M  V30 5002 C 471.121 3.66074 2.15116 0
M  V30 5003 O 472.145 3.10476 1.74595 0
M  V30 5004 O 471.004 4.63526 2.89493 0
M  V30 5005 H 468.098 0.681958 0.467828 0
M  V30 5006 H 470.644 1.67863 0.24902 0
M  V30 5007 H 469.416 3.80792 0.900734 0
M  V30 5008 H 469.039 3.1158 2.46989 0
M  V30 5009 N 470.036 -0.519951 1.48776 0
M  V30 5010 C 471.261 -1.30447 1.6124 0
M  V30 5011 C 471.686 -1.86055 0.276591 0
M  V30 5012 O 471.044 -1.64915 -0.753183 0
M  V30 5013 C 471.092 -2.42406 2.66967 0
M  V30 5014 O 470.196 -3.45728 2.24824 0
M  V30 5015 H 469.537 -0.385924 0.540332 0
M  V30 5016 H 472.067 -0.624572 1.94834 0
M  V30 5017 H 472.077 -2.88447 2.88552 0
M  V30 5018 H 470.752 -2.01294 3.63941 0
M  V30 5019 H 469.329 -3.05737 2.13494 0
M  V30 5020 N 471.514 -1.37532 -0.769588 0
M  V30 5021 C 472.76 -1.33057 -1.53048 0
M  V30 5022 C 473.093 0.0841865 -1.94017 0
M  V30 5023 O 472.368 1.04198 -1.64235 0
M  V30 5024 C 472.651 -2.27166 -2.79406 0
M  V30 5025 C 472.504 -3.77429 -2.44677 0
M  V30 5026 C 473.823 -2.19683 -3.81349 0
M  V30 5027 H 470.942 -0.484655 -0.555228 0
M  V30 5028 H 473.584 -1.68251 -0.882702 0
M  V30 5029 H 471.734 -1.97283 -3.34682 0
M  V30 5030 H 473.406 -4.17918 -1.953 0
M  V30 5031 H 471.649 -3.95892 -1.77346 0
M  V30 5032 H 472.32 -4.38716 -3.35011 0
M  V30 5033 H 474.796 -2.46029 -3.35573 0
M  V30 5034 H 473.672 -2.87668 -4.67481 0
M  V30 5035 H 473.933 -1.19045 -4.25771 0
M  V30 5036 N 472.992 0.995999 -1.22138 0
M  V30 5037 C 474.217 1.77601 -1.0711 0
M  V30 5038 C 474.642 1.84339 0.374264 0
M  V30 5039 O 474 1.29359 1.27028 0
M  V30 5040 C 474.048 3.18897 -1.68336 0
M  V30 5041 O 473.152 4.01663 -0.934928 0
M  V30 5042 H 472.493 0.547011 -0.376397 0
M  V30 5043 H 475.023 1.25137 -1.6187 0
M  V30 5044 H 475.033 3.69539 -1.72931 0
M  V30 5045 H 473.708 3.13308 -2.73516 0
M  V30 5046 H 472.285 3.60204 -0.964751 0
M  V30 5047 N 474.47 1.03057 1.19235 0
M  V30 5048 C 475.719 0.72326 1.88287 0
M  V30 5049 C 476.032 -0.751333 1.80594 0
M  V30 5050 O 477.238 -1.17176 2.44912 0
M  V30 5051 C 475.694 1.24338 3.3774 0
M  V30 5052 C 475.302 2.74587 3.53986 0
M  V30 5053 C 477.046 1.01213 4.12257 0
M  V30 5054 C 474.953 3.20009 4.97341 0
M  V30 5055 H 473.883 0.266848 0.705201 0
M  V30 5056 H 476.534 1.24509 1.34795 0
M  V30 5057 H 474.916 0.649457 3.90638 0
M  V30 5058 H 476.09 3.39649 3.11408 0
M  V30 5059 H 474.405 2.9601 2.9286 0
M  V30 5060 H 477.002 1.32675 5.17978 0
M  V30 5061 H 477.345 -0.051001 4.16269 0
M  V30 5062 H 477.878 1.57014 3.65501 0
M  V30 5063 H 474.617 4.25659 4.98493 0
M  V30 5064 H 474.137 2.59676 5.40674 0
M  V30 5065 H 475.816 3.13447 5.66003 0
M  V30 5066 N 475.948 -1.35272 0.808662 0
M  V30 5067 C 477.197 -1.97963 0.386483 0
M  V30 5068 C 477.51 -1.64866 -1.05255 0
M  V30 5069 O 478.716 -2.20937 -1.57794 0
M  V30 5070 C 477.172 -3.54162 0.640096 0
M  V30 5071 C 476.78 -3.96166 2.0918 0
M  V30 5072 C 478.524 -4.23553 0.283376 0
M  V30 5073 C 476.431 -5.4522 2.29106 0
M  V30 5074 H 475.361 -0.740742 0.140774 0
M  V30 5075 H 478.012 -1.5431 0.993012 0
M  V30 5076 H 476.394 -3.95983 -0.0364117 0
M  V30 5077 H 477.568 -3.65491 2.80629 0
M  V30 5078 H 475.883 -3.3967 2.40859 0
M  V30 5079 H 478.48 -5.33124 0.410273 0
M  V30 5080 H 478.823 -4.09105 -0.770659 0
M  V30 5081 H 479.356 -3.8716 0.913884 0
M  V30 5082 H 476.095 -5.64638 3.32962 0
M  V30 5083 H 475.615 -5.77457 1.62184 0
M  V30 5084 H 477.294 -6.1171 2.1076 0
M  V30 5085 N 477.426 -0.562348 -1.47226 0
M  V30 5086 C 478.651 -0.0432632 -2.07355 0
M  V30 5087 C 479.076 1.24332 -1.41149 0
M  V30 5088 O 478.434 1.74603 -0.488226 0
M  V30 5089 C 478.482 0.130288 -3.60365 0
M  V30 5090 O 477.586 1.19166 -3.94808 0
M  V30 5091 H 476.927 -0.0536334 -0.66183 0
M  V30 5092 H 479.457 -0.779495 -1.89169 0
M  V30 5093 H 479.467 0.342881 -4.06557 0
M  V30 5094 H 478.142 -0.809389 -4.07948 0
M  V30 5095 H 476.719 0.959153 -3.60354 0
M  V30 5096 N 478.904 1.54736 -0.299062 0
M  V30 5097 C 480.151 2.00101 0.310784 0
M  V30 5098 C 480.479 1.18746 1.54045 0
M  V30 5099 O 479.734 0.251198 1.94081 0
M  V30 5100 C 480.033 3.50199 0.713835 0
M  V30 5101 C 479.699 4.48997 -0.413873 0
M  V30 5102 C 478.361 4.7573 -0.723462 0
M  V30 5103 C 480.713 5.07839 -1.17257 0
M  V30 5104 C 478.041 5.5857 -1.79491 0
M  V30 5105 C 480.393 5.91844 -2.23392 0
M  V30 5106 C 479.057 6.16889 -2.54959 0
M  V30 5107 H 478.327 0.732221 0.113724 0
M  V30 5108 H 480.974 1.86888 -0.417756 0
M  V30 5109 H 479.279 3.61012 1.52243 0
M  V30 5110 H 480.976 3.82723 1.19684 0
M  V30 5111 H 477.566 4.28292 -0.162476 0
M  V30 5112 H 481.75 4.87188 -0.946651 0
M  V30 5113 H 477.006 5.76213 -2.04423 0
M  V30 5114 H 481.18 6.36465 -2.8264 0
M  V30 5115 H 478.807 6.80869 -3.38114 0
M  V30 5116 N 480.382 0.0267497 1.57577 0
M  V30 5117 C 481.793 -0.512413 1.79531 0
M  V30 5118 C 482.144 -1.72391 0.936791 0
M  V30 5119 O 481.269 -2.15903 0.146543 0
M  V30 5120 C 481.864 -0.936378 3.25603 0
M  V30 5121 C 480.423 -1.42067 3.4856 0
M  V30 5122 C 479.57 -0.384278 2.74624 0
M  V30 5123 H 482.521 0.252797 1.56674 0
M  V30 5124 H 482.542 -1.80088 3.35184 0
M  V30 5125 H 482.054 -0.0544332 3.88062 0
M  V30 5126 H 480.155 -2.32262 2.9135 0
M  V30 5127 H 480.268 -1.42968 4.57271 0
M  V30 5128 H 478.632 -0.851855 2.40032 0
M  V30 5129 H 479.415 0.489159 3.39797 0
M  V30 5130 N 481.861 -1.55662 -0.24637 0
M  V30 5131 C 482.771 -1.93495 -1.32653 0
M  V30 5132 C 483.787 -0.835462 -1.5263 0
M  V30 5133 O 484.963 -1.1369 -1.66242 0
M  V30 5134 C 482.028 -2.22242 -2.66101 0
M  V30 5135 C 481.089 -3.45625 -2.54641 0
M  V30 5136 C 480.322 -3.72991 -3.81724 0
M  V30 5137 O 480.545 -3.02421 -4.8363 0
M  V30 5138 O 479.479 -4.66515 -3.80325 0
M  V30 5139 H 483.305 -2.85498 -1.03559 0
M  V30 5140 H 480.89 -1.42551 -0.44717 0
M  V30 5141 H 482.772 -2.42037 -3.44958 0
M  V30 5142 H 481.447 -1.33417 -2.94926 0
M  V30 5143 H 480.354 -3.31136 -1.74067 0
M  V30 5144 H 481.687 -4.34754 -2.3076 0
M  V30 5145 N 483.339 0.512053 -1.4905 0
M  V30 5146 C 484.286 1.6148 -1.64902 0
M  V30 5147 C 485.256 1.58687 -0.490673 0
M  V30 5148 O 486.441 1.76842 -0.71636 0
M  V30 5149 C 483.581 2.99676 -1.71139 0
M  V30 5150 C 482.694 3.12568 -2.98203 0
M  V30 5151 C 481.829 4.4143 -2.95487 0
M  V30 5152 C 480.868 4.47916 -4.17179 0
M  V30 5153 N 480.005 5.68191 -4.12437 0
M  V30 5154 H 484.845 1.47271 -2.59066 0
M  V30 5155 H 482.382 0.716713 -1.28459 0
M  V30 5156 H 484.34 3.79761 -1.72736 0
M  V30 5157 H 482.97 3.12614 -0.804508 0
M  V30 5158 H 482.022 2.25618 -3.06269 0
M  V30 5159 H 483.334 3.1322 -3.88194 0
M  V30 5160 H 482.488 5.29825 -2.95585 0
M  V30 5161 H 481.227 4.43326 -2.03256 0
M  V30 5162 H 480.232 3.57925 -4.17337 0
M  V30 5163 H 481.457 4.47744 -5.1059 0
M  V30 5164 H 479.403 5.7095 -3.23036 0
M  V30 5165 H 479.32 5.70413 -4.96151 0
M  V30 5166 H 480.588 6.58823 -4.16621 0
M  V30 5167 N 484.817 1.37938 0.762283 0
M  V30 5168 C 485.727 1.36681 1.90671 0
M  V30 5169 C 486.743 0.265078 1.71969 0
M  V30 5170 O 487.919 0.502055 1.95042 0
M  V30 5171 C 484.984 1.18211 3.25925 0
M  V30 5172 C 484.045 2.3811 3.57214 0
M  V30 5173 C 483.278 2.20512 4.86014 0
M  V30 5174 O 483.501 1.19429 5.57757 0
M  V30 5175 O 482.435 3.08911 5.16583 0
M  V30 5176 H 486.261 2.33091 1.94685 0
M  V30 5177 H 483.846 1.18767 0.906356 0
M  V30 5178 H 485.728 1.09937 4.06807 0
M  V30 5179 H 484.403 0.248807 3.22742 0
M  V30 5180 H 483.31 2.51958 2.76529 0
M  V30 5181 H 484.643 3.30041 3.65149 0
M  V30 5182 N 486.295 -0.989507 1.22664 0
M  V30 5183 C 487.227 -2.0824 0.957542 0
M  V30 5184 C 488.24 -1.6267 -0.0651098 0
M  V30 5185 O 489.429 -1.77695 0.169312 0
M  V30 5186 C 486.529 -3.36298 0.419145 0
M  V30 5187 C 485.702 -4.10882 1.49982 0
M  V30 5188 C 484.761 -5.17221 0.967904 0
M  V30 5189 O 483.787 -5.44613 1.65487 0
M  V30 5190 N 484.989 -5.80124 -0.20896 0
M  V30 5191 H 487.754 -2.31904 1.89843 0
M  V30 5192 H 485.315 -1.15552 1.13399 0
M  V30 5193 H 487.307 -4.04671 0.0485451 0
M  V30 5194 H 485.877 -3.09671 -0.426937 0
M  V30 5195 H 485.097 -3.37092 2.04359 0
M  V30 5196 H 486.385 -4.57482 2.22682 0
M  V30 5197 H 485.783 -5.60244 -0.783818 0
M  V30 5198 H 484.34 -6.49715 -0.520913 0
M  V30 5199 N 487.773 -1.03688 -1.18687 0
M  V30 5200 C 488.683 -0.634908 -2.25845 0
M  V30 5201 C 489.699 0.337065 -1.70704 0
M  V30 5202 O 490.875 0.192943 -2.00474 0
M  V30 5203 C 487.94 -0.000180054 -3.467 0
M  V30 5204 C 487.001 -1.02067 -4.1699 0
M  V30 5205 C 486.234 -0.41614 -5.32075 0
M  V30 5206 O 486.457 0.778712 -5.65059 0
M  V30 5207 O 485.391 -1.14296 -5.90948 0
M  V30 5208 H 489.217 -1.52757 -2.62486 0
M  V30 5209 H 486.802 -0.807533 -1.25695 0
M  V30 5210 H 488.684 0.353342 -4.19916 0
M  V30 5211 H 487.359 0.866367 -3.11891 0
M  V30 5212 H 486.266 -1.42592 -3.45859 0
M  V30 5213 H 487.599 -1.85786 -4.5579 0
M  V30 5214 N 489.251 1.34841 -0.815825 0
M  V30 5215 C 490.528 1.92908 -0.323416 0
M  V30 5216 C 490.908 1.74479 1.18828 0
M  V30 5217 O 490.256 1.11928 1.99209 0
M  V30 5218 C 490.466 3.40957 -0.744952 0
M  V30 5219 C 491.814 4.18107 -0.739716 0
M  V30 5220 O 492.838 3.49511 -0.68708 0
M  V30 5221 O 491.697 5.40517 -0.806456 0
M  V30 5222 H 488.791 0.822436 -0.0867646 0
M  V30 5223 H 491.337 1.4386 -0.90014 0
M  V30 5224 H 490.109 3.4814 -1.78646 0
M  V30 5225 H 489.732 3.97341 -0.143535 0
M  V30 5226 N 490.729 0.570148 1.46925 0
M  V30 5227 C 491.975 0.0510284 2.02736 0
M  V30 5228 C 492.308 -1.3006 1.44215 0
M  V30 5229 O 491.583 -1.84932 0.602521 0
M  V30 5230 C 491.866 -0.028215 3.60089 0
M  V30 5231 C 491.719 1.35142 4.29018 0
M  V30 5232 C 493.038 -0.735181 4.33916 0
M  V30 5233 H 490.157 0.0200178 0.736728 0
M  V30 5234 H 492.799 0.73493 1.75211 0
M  V30 5235 H 490.949 -0.610648 3.83671 0
M  V30 5236 H 492.621 1.97806 4.16738 0
M  V30 5237 H 490.864 1.9226 3.88868 0
M  V30 5238 H 491.535 1.24857 5.37694 0
M  V30 5239 H 494.011 -0.240519 4.15404 0
M  V30 5240 H 492.887 -0.759622 5.43618 0
M  V30 5241 H 493.148 -1.79397 4.04066 0
M  V30 5242 N 492.207 -1.54576 0.307264 0
M  V30 5243 C 493.137 -2.26708 -0.55907 0
M  V30 5244 C 494.118 -1.26893 -1.1328 0
M  V30 5245 O 495.303 -1.55677 -1.16097 0
M  V30 5246 C 492.433 -3.01259 -1.72801 0
M  V30 5247 C 491.387 -4.08275 -1.28435 0
M  V30 5248 C 490.713 -4.70575 -2.53895 0
M  V30 5249 C 492.013 -5.2068 -0.411038 0
M  V30 5250 H 493.707 -2.9937 0.042576 0
M  V30 5251 H 491.253 -1.43983 0.0219173 0
M  V30 5252 H 493.206 -3.50444 -2.34023 0
M  V30 5253 H 491.93 -2.26187 -2.356 0
M  V30 5254 H 490.589 -3.59949 -0.695161 0
M  V30 5255 H 490.237 -3.92136 -3.15021 0
M  V30 5256 H 489.937 -5.42854 -2.24908 0
M  V30 5257 H 491.461 -5.22527 -3.15908 0
M  V30 5258 H 492.875 -5.65721 -0.929097 0
M  V30 5259 H 491.272 -5.99716 -0.214664 0
M  V30 5260 H 492.342 -4.81629 0.562287 0
M  V30 5261 N 493.685 -0.035106 -1.57561 0
M  V30 5262 C 494.617 0.973604 -2.07494 0
M  V30 5263 C 495.63 1.28504 -0.999534 0
M  V30 5264 O 496.819 1.24864 -1.27559 0
M  V30 5265 C 493.919 2.29945 -2.48955 0
M  V30 5266 C 493.092 2.1723 -3.79644 0
M  V30 5267 C 492.151 3.328 -4.07592 0
M  V30 5268 O 491.177 3.09418 -4.77754 0
M  V30 5269 N 492.379 4.56779 -3.58236 0
M  V30 5270 H 495.144 0.547525 -2.94656 0
M  V30 5271 H 492.705 0.151515 -1.61189 0
M  V30 5272 H 494.697 3.06097 -2.64739 0
M  V30 5273 H 493.267 2.64173 -1.67126 0
M  V30 5274 H 492.487 1.25768 -3.73599 0
M  V30 5275 H 493.775 2.05945 -4.65257 0
M  V30 5276 H 493.173 4.78668 -3.01485 0
M  V30 5277 H 491.73 5.30079 -3.79288 0
M  V30 5278 N 495.163 1.55791 0.238111 0
M  V30 5279 C 496.391 1.82098 0.982233 0
M  V30 5280 C 496.806 0.612025 1.78605 0
M  V30 5281 O 496.163 -0.419381 1.77616 0
M  V30 5282 C 496.214 3.0673 1.91309 0
M  V30 5283 O 495.935 4.2296 1.14179 0
M  V30 5284 C 497.436 3.45903 2.77248 0
M  V30 5285 H 494.656 0.605748 0.288635 0
M  V30 5286 H 497.2 2.02862 0.258341 0
M  V30 5287 H 495.355 2.87991 2.59114 0
M  V30 5288 H 495.769 4.93653 1.7722 0
M  V30 5289 H 497.243 4.36189 3.38295 0
M  V30 5290 H 497.72 2.66891 3.48806 0
M  V30 5291 H 498.326 3.67024 2.14881 0
M  V30 5292 N 496.642 -0.504142 1.49319 0
M  V30 5293 C 497.572 -1.61473 1.68667 0
M  V30 5294 C 498.553 -1.61455 0.535378 0
M  V30 5295 O 499.738 -1.78245 0.770868 0
M  V30 5296 C 496.868 -2.99971 1.75028 0
M  V30 5297 C 495.822 -3.14854 2.89916 0
M  V30 5298 C 495.148 -4.54671 2.81387 0
M  V30 5299 C 496.448 -2.95176 4.30893 0
M  V30 5300 H 498.142 -1.45535 2.61648 0
M  V30 5301 H 495.688 -0.698711 1.25913 0
M  V30 5302 H 497.641 -3.77562 1.8715 0
M  V30 5303 H 496.365 -3.1699 0.786441 0
M  V30 5304 H 495.024 -2.39687 2.77391 0
M  V30 5305 H 494.672 -4.68562 1.82917 0
M  V30 5306 H 494.372 -4.6557 3.58494 0
M  V30 5307 H 495.896 -5.34327 2.95512 0
M  V30 5308 H 497.31 -3.62538 4.44116 0
M  V30 5309 H 495.707 -3.17549 5.09198 0
M  V30 5310 H 496.777 -1.91332 4.45556 0
M  V30 5311 O 498.159 -1.47868 -0.649398 0
M  V30 5312 H 498.85 -1.43327 -1.30297 0
M  V30 END ATOM
M  V30 BEGIN BOND
M  V30 END BOND
M  V30 END CTAB
M  END
$$$$
