drugbank_target|P38940 Neopullulanase (DB02379)
 OpenBabel12092120283D

  0  0  0     0  0            999 V3000
M  V30 BEGIN CTAB
M  V30 COUNTS 9546 9704 0 0 0
M  V30 BEGIN ATOM
M  V30 1 H -0.908 1.98254 -0.117106 0
M  V30 2 N 0 1.576 0 0
M  V30 3 C 0.933 2.03868 1.02534 0
M  V30 4 C 1.911 0.928543 1.3348 0
M  V30 5 O 3.095 1.19667 1.45644 0
M  V30 6 C 0.222 2.43627 2.35294 0
M  V30 7 C -0.732 3.65373 2.2001 0
M  V30 8 S 0.101 5.13292 1.52614 0
M  V30 9 C 1.257 5.56322 2.86805 0
M  V30 10 H 1.49 2.90518 0.631377 0
M  V30 11 H -0.977 1.52953 0.210867 0
M  V30 12 H 0.981 2.67203 3.11629 0
M  V30 13 H -0.358 1.57376 2.7183 0
M  V30 14 H -1.165 3.90944 3.18086 0
M  V30 15 H -1.563 3.418 1.51819 0
M  V30 16 H 0.729 5.58782 3.83104 0
M  V30 17 H 1.672 6.56266 2.65933 0
M  V30 18 H 2.08 4.83886 2.90714 0
M  V30 19 N 1.4781 -0.272755 1.55222 0
M  V30 20 C 2.8941 -0.619959 1.47067 0
M  V30 21 C 3.0941 -1.895 0.684978 0
M  V30 22 O 2.1501 -2.51675 0.203931 0
M  V30 23 C 3.4631 -0.746693 2.91282 0
M  V30 24 C 5.0111 -0.840731 3.01497 0
M  V30 25 C 5.4861 -0.99924 4.46967 0
M  V30 26 N 6.9771 -1.06476 4.50796 0
M  V30 27 C 7.7121 -1.20621 5.6057 0
M  V30 28 N 7.2081 -1.31483 6.80209 0
M  V30 29 N 9.0011 -1.23733 5.48312 0
M  V30 30 H 1.1521 0.564606 2.04758 0
M  V30 31 H 3.4151 0.191177 0.928523 0
M  V30 32 H 3.1211 0.119753 3.51496 0
M  V30 33 H 2.9951 -1.6269 3.40311 0
M  V30 34 H 5.3821 -1.69764 2.41379 0
M  V30 35 H 5.4631 0.0640874 2.5572 0
M  V30 36 H 5.1071 -0.146984 5.07687 0
M  V30 37 H 5.0371 -1.91871 4.90401 0
M  V30 38 H 7.5281 -0.993196 3.64615 0
M  V30 39 H 7.8411 -1.42111 7.59621 0
M  V30 40 H 6.1861 -1.28487 6.8302 0
M  V30 41 H 9.3771 -1.14877 4.53785 0
M  V30 42 H 9.5501 -1.34412 6.33906 0
M  V30 43 N 2.9562 -1.48159 -0.537278 0
M  V30 44 C 3.9032 -1.62138 -1.64256 0
M  V30 45 C 4.8732 -0.463668 -1.59497 0
M  V30 46 O 6.0582 -0.686241 -1.78032 0
M  V30 47 C 3.1982 -1.66028 -3.02537 0
M  V30 48 C 2.3112 -2.92855 -3.17585 0
M  V30 49 C 1.4462 -2.87952 -4.46382 0
M  V30 50 C 0.4852 -4.09516 -4.54932 0
M  V30 51 N -0.3778 -4.02733 -5.75109 0
M  V30 52 H 4.4622 -2.56529 -1.51647 0
M  V30 53 H 1.9992 -1.27224 -0.738414 0
M  V30 54 H 3.9572 -1.66265 -3.82638 0
M  V30 55 H 2.5872 -0.751331 -3.13934 0
M  V30 56 H 1.6392 -3.02395 -2.30784 0
M  V30 57 H 2.9512 -3.82822 -3.19764 0
M  V30 58 H 2.1052 -2.8655 -5.34765 0
M  V30 59 H 0.8442 -1.95702 -4.46712 0
M  V30 60 H -0.1508 -4.11201 -3.64957 0
M  V30 61 H 1.0742 -5.02917 -4.56346 0
M  V30 62 H -0.9798 -3.13299 -5.76351 0
M  V30 63 H -1.0628 -4.86397 -5.78752 0
M  V30 64 H 0.2052 -4.05379 -6.65799 0
M  V30 65 N 4.4343 0.785586 -1.36625 0
M  V30 66 C 5.3443 1.92964 -1.33425 0
M  V30 67 C 6.3603 1.72394 -0.235851 0
M  V30 68 O 7.5363 1.95866 -0.468878 0
M  V30 69 C 4.6013 3.27884 -1.12662 0
M  V30 70 C 3.6623 3.61204 -2.32013 0
M  V30 71 C 2.8953 4.89687 -2.12231 0
M  V30 72 O 3.1183 5.59704 -1.09945 0
M  V30 73 O 2.0523 5.21752 -3.00098 0
M  V30 74 H 5.8783 1.98613 -2.29753 0
M  V30 75 H 3.4633 0.926384 -1.17211 0
M  V30 76 H 5.3453 4.08614 -1.03016 0
M  V30 77 H 4.0203 3.23118 -0.193991 0
M  V30 78 H 2.9273 2.80765 -2.47228 0
M  V30 79 H 4.2603 3.70698 -3.23796 0
M  V30 80 N 5.9124 1.20967 1.01018 0
M  V30 81 C 6.8754 0.965918 2.07853 0
M  V30 82 C 7.8754 -0.0610545 1.60684 0
M  V30 83 O 9.0654 0.175681 1.73312 0
M  V30 84 C 6.1974 0.455513 3.37843 0
M  V30 85 H 7.3904 1.91365 2.3091 0
M  V30 86 H 4.9434 1.02594 1.17916 0
M  V30 87 H 5.6784 -0.497381 3.20463 0
M  V30 88 H 5.4634 1.19622 3.73407 0
M  V30 89 H 6.9534 0.304667 4.16487 0
M  V30 90 N 7.3905 -1.2043 1.01659 0
M  V30 91 C 8.6395 -1.89118 0.701237 0
M  V30 92 C 8.9525 -1.79705 -0.772358 0
M  V30 93 O 10.1585 -2.43528 -1.20026 0
M  V30 94 C 8.6145 -3.39168 1.20388 0
M  V30 95 C 8.2225 -3.57166 2.70438 0
M  V30 96 C 9.9665 -4.1341 0.963953 0
M  V30 97 C 7.8735 -5.01042 3.14183 0
M  V30 98 H 6.8035 -0.708267 0.2586 0
M  V30 99 H 9.4545 -1.36239 1.22927 0
M  V30 100 H 7.8365 -3.91369 0.603824 0
M  V30 101 H 9.0105 -3.15351 3.35992 0
M  V30 102 H 7.3255 -2.96294 2.92572 0
M  V30 103 H 9.9225 -5.19491 1.26621 0
M  V30 104 H 10.2655 -4.16181 -0.099578 0
M  V30 105 H 10.7985 -3.67309 1.52738 0
M  V30 106 H 7.5375 -5.03426 4.19812 0
M  V30 107 H 7.0575 -5.43668 2.53348 0
M  V30 108 H 8.7365 -5.69623 3.0682 0
M  V30 109 N 8.8686 -0.792821 -1.36206 0
M  V30 110 C 10.0986 -0.378275 -2.03107 0
M  V30 111 C 10.5066 1.01119 -1.59911 0
M  V30 112 O 9.8496 1.66052 -0.785658 0
M  V30 113 C 9.9116 -0.366535 -3.57627 0
M  V30 114 C 9.5756 -1.70416 -4.24037 0
M  V30 115 C 10.5726 -2.6602 -4.46687 0
M  V30 116 C 8.2576 -1.98439 -4.6144 0
M  V30 117 C 10.2516 -3.8784 -5.05825 0
M  V30 118 C 7.9386 -3.20525 -5.20295 0
M  V30 119 C 8.9366 -4.15044 -5.42427 0
M  V30 120 O 8.6246 -5.34978 -6.00045 0
M  V30 121 H 8.3566 -0.153543 -0.658332 0
M  V30 122 H 10.9106 -1.07383 -1.75094 0
M  V30 123 H 9.1406 0.385539 -3.84773 0
M  V30 124 H 10.8296 0.0238088 -4.05893 0
M  V30 125 H 11.5956 -2.45658 -4.18183 0
M  V30 126 H 7.4746 -1.25686 -4.43536 0
M  V30 127 H 11.0186 -4.61628 -5.23015 0
M  V30 128 H 6.9156 -3.40764 -5.48225 0
M  V30 129 H 7.6836 -5.36088 -6.18508 0
M  V30 130 N 10.3467 1.47872 -0.545128 0
M  V30 131 C 11.2967 2.26842 0.229456 0
M  V30 132 C 12.2807 1.33626 0.896267 0
M  V30 133 O 13.4727 1.58063 0.79657 0
M  V30 134 C 10.6017 3.19089 1.26638 0
M  V30 135 C 9.6877 4.19783 0.603598 0
M  V30 136 N 10.0787 5.0479 -0.319405 0
M  V30 137 C 8.3767 4.3765 0.858989 0
M  V30 138 C 9.0777 5.77433 -0.703241 0
M  V30 139 N 8.0537 5.43566 -0.0608309 0
M  V30 140 H 11.8557 2.89947 -0.480391 0
M  V30 141 H 9.3697 1.58263 -0.364209 0
M  V30 142 H 11.3667 3.74337 1.83515 0
M  V30 143 H 10.0267 2.5754 1.97745 0
M  V30 144 H 11.0377 5.13244 -0.692889 0
M  V30 145 H 7.7147 3.87281 1.55948 0
M  V30 146 H 9.1047 6.55824 -1.46098 0
M  V30 147 N 11.8248 0.280983 1.55075 0
M  V30 148 C 13.2408 -0.0729964 1.59433 0
M  V30 149 C 13.4408 -1.5411 1.29817 0
M  V30 150 O 12.4968 -2.29086 1.06187 0
M  V30 151 C 13.8098 0.306921 2.9913 0
M  V30 152 C 15.3578 0.254023 3.11968 0
M  V30 153 C 15.8328 0.608467 4.5394 0
M  V30 154 N 17.3238 0.560241 4.59799 0
M  V30 155 C 18.0588 0.80722 5.6769 0
M  V30 156 N 17.5548 1.11912 6.83701 0
M  V30 157 N 19.3478 0.735623 5.57266 0
M  V30 158 H 11.4988 1.238 1.7259 0
M  V30 159 H 13.7618 0.500547 0.805082 0
M  V30 160 H 13.4678 1.32816 3.25657 0
M  V30 161 H 13.3418 -0.349363 3.75579 0
M  V30 162 H 15.7288 -0.75794 2.852 0
M  V30 163 H 15.8098 0.944649 2.37718 0
M  V30 164 H 15.4538 1.61814 4.81434 0
M  V30 165 H 15.3838 -0.104013 5.26497 0
M  V30 166 H 17.8748 0.329288 3.76463 0
M  V30 167 H 18.1878 1.29409 7.61888 0
M  V30 168 H 16.5328 1.15695 6.85303 0
M  V30 169 H 19.7238 0.491752 4.6551 0
M  V30 170 H 19.8968 0.931482 6.4127 0
M  V30 171 N 13.3029 -1.57598 0.00835791 0
M  V30 172 C 14.7139 -1.7892 -0.53333 0
M  V30 173 C 15.0649 -0.916609 -1.73473 0
M  V30 174 O 14.1899 -0.121336 -2.1606 0
M  V30 175 C 14.7849 -3.24488 -0.974313 0
M  V30 176 C 13.3439 -3.46878 -1.46125 0
M  V30 177 C 12.4909 -2.74157 -0.416302 0
M  V30 178 H 15.4419 -1.56958 0.234495 0
M  V30 179 H 15.4629 -3.3306 -1.83988 0
M  V30 180 H 14.9749 -3.87972 -0.099718 0
M  V30 181 H 13.0759 -2.8862 -2.35646 0
M  V30 182 H 13.1889 -4.55572 -1.48295 0
M  V30 183 H 11.5529 -2.39022 -0.87981 0
M  V30 184 H 12.3359 -3.40345 0.44947 0
M  V30 185 N 14.781 0.264519 -1.55364 0
M  V30 186 C 15.744 1.31046 -1.88042 0
M  V30 187 C 16.744 1.41943 -0.755569 0
M  V30 188 O 17.934 1.40947 -1.02369 0
M  V30 189 C 15.066 2.69067 -2.09323 0
M  V30 190 H 16.259 1.03297 -2.81549 0
M  V30 191 H 13.812 0.502989 -1.47986 0
M  V30 192 H 14.547 3.01982 -1.18226 0
M  V30 193 H 14.332 2.62542 -2.91229 0
M  V30 194 H 15.822 3.44623 -2.35848 0
M  V30 195 N 16.2591 1.48442 0.529413 0
M  V30 196 C 17.5361 1.46978 1.29062 0
M  V30 197 C 17.9161 0.181769 2.10316 0
M  V30 198 O 17.2641 -0.836481 2.12639 0
M  V30 199 C 17.4741 2.7321 2.17157 0
M  V30 200 C 18.8221 3.21562 2.77278 0
M  V30 201 O 19.8461 2.74131 2.27444 0
M  V30 202 O 18.7051 4.04094 3.67927 0
M  V30 203 H 15.7991 0.587003 0.582543 0
M  V30 204 H 18.3451 1.60676 0.546021 0
M  V30 205 H 17.1171 3.58465 1.56903 0
M  V30 206 H 16.7401 2.62235 2.98862 0
M  V30 207 N 17.7372 -0.778329 1.37039 0
M  V30 208 C 18.6852 -1.91278 1.32345 0
M  V30 209 C 19.6792 -1.68051 0.213331 0
M  V30 210 O 20.8852 -1.75922 0.38098 0
M  V30 211 H 17.2602 -0.628909 0.412283 0
M  V30 212 H 19.2312 -1.92355 2.28127 0
M  V30 213 C 17.9802 -3.28455 1.14073 0
M  V30 214 H 17.3032 -3.46901 1.98746 0
M  V30 215 H 18.7432 -4.08152 1.14837 0
M  V30 216 C 17.2022 -3.36548 -0.154015 0
M  V30 217 O 17.7322 -3.85186 -1.13993 0
M  V30 218 N 15.9382 -2.89894 -0.202475 0
M  V30 219 H 15.4852 -2.50504 0.600476 0
M  V30 220 H 15.4432 -2.9569 -1.06841 0
M  V30 221 N 19.2153 -1.21501 -1.00376 0
M  V30 222 C 20.4623 -1.03299 -1.74171 0
M  V30 223 C 20.7903 0.433326 -1.89612 0
M  V30 224 O 20.0453 1.33779 -1.42834 0
M  V30 225 C 20.3443 -1.67673 -3.15627 0
M  V30 226 C 20.0103 -3.17533 -3.2013 0
M  V30 227 C 18.6723 -3.58427 -3.21067 0
M  V30 228 C 21.0243 -4.13504 -3.17275 0
M  V30 229 C 18.3523 -4.93794 -3.16835 0
M  V30 230 C 20.7043 -5.48834 -3.14585 0
M  V30 231 C 19.3683 -5.89123 -3.13831 0
M  V30 232 H 18.6383 -0.377999 -0.637336 0
M  V30 233 H 21.2853 -1.51111 -1.17634 0
M  V30 234 H 19.5903 -1.12158 -3.75404 0
M  V30 235 H 21.2873 -1.51091 -3.71446 0
M  V30 236 H 17.8773 -2.84965 -3.20145 0
M  V30 237 H 22.0613 -3.82936 -3.15711 0
M  V30 238 H 17.3173 -5.24255 -3.1459 0
M  V30 239 H 21.4913 -6.22934 -3.1133 0
M  V30 240 H 19.1183 -6.93984 -3.10307 0
M  V30 241 N 20.6934 1.19889 -1.02296 0
M  V30 242 C 21.6564 2.21116 -0.603351 0
M  V30 243 C 22.6564 1.5738 0.329884 0
M  V30 244 O 23.8464 1.73802 0.117702 0
M  V30 245 C 20.9784 3.40696 0.117992 0
M  V30 246 H 22.1714 2.59754 -1.49893 0
M  V30 247 H 19.7244 1.33463 -0.813468 0
M  V30 248 H 20.4594 3.07569 1.0282 0
M  V30 249 H 20.2444 3.88188 -0.552511 0
M  V30 250 H 21.7344 4.15692 0.398696 0
M  V30 251 N 22.1715 0.800033 1.35784 0
M  V30 252 C 23.4015 0.389041 2.02904 0
M  V30 253 C 23.8095 -1.0027 1.60445 0
M  V30 254 O 23.1525 -1.65633 0.794453 0
M  V30 255 C 23.2145 0.385495 3.57427 0
M  V30 256 C 22.8785 1.72662 4.23127 0
M  V30 257 C 23.8755 2.68385 4.4527 0
M  V30 258 C 21.5605 2.00883 4.60381 0
M  V30 259 C 23.5545 3.90517 5.03761 0
M  V30 260 C 21.2415 3.2328 5.18588 0
M  V30 261 C 22.2395 4.17915 5.40218 0
M  V30 262 O 21.9275 5.38153 5.97199 0
M  V30 263 H 21.6595 0.157032 0.657508 0
M  V30 264 H 24.2135 1.08311 1.74522 0
M  V30 265 H 22.4435 -0.365128 3.84972 0
M  V30 266 H 24.1325 -0.00228296 4.059 0
M  V30 267 H 24.8985 2.47872 4.16874 0
M  V30 268 H 20.7775 1.28037 4.42863 0
M  V30 269 H 24.3215 4.64395 5.2056 0
M  V30 270 H 20.2185 3.43667 5.4641 0
M  V30 271 H 20.9865 5.3936 6.15656 0
M  V30 272 N 23.6496 -1.47581 0.552962 0
M  V30 273 C 24.6126 -2.28439 -0.186605 0
M  V30 274 C 25.6126 -1.36706 -0.84665 0
M  V30 275 O 26.8026 -1.59378 -0.703164 0
M  V30 276 C 23.9346 -3.16264 -1.2724 0
M  V30 277 H 25.1276 -2.95294 0.523609 0
M  V30 278 H 22.6806 -1.532 0.309745 0
M  V30 279 H 23.4156 -2.54091 -2.01514 0
M  V30 280 H 23.2006 -3.83769 -0.803968 0
M  V30 281 H 24.6906 -3.77198 -1.79196 0
M  V30 282 N 25.1277 -0.289203 -1.54924 0
M  V30 283 C 26.3577 0.325989 -2.04012 0
M  V30 284 C 26.7657 1.48961 -1.1665 0
M  V30 285 O 26.1087 1.82794 -0.1822 0
M  V30 286 C 26.1707 0.856112 -3.49158 0
M  V30 287 C 25.8347 -0.180697 -4.56643 0
M  V30 288 C 26.8317 -1.0051 -5.10092 0
M  V30 289 C 24.5167 -0.318998 -5.01286 0
M  V30 290 C 26.5107 -1.95385 -6.06715 0
M  V30 291 C 24.1977 -1.27121 -5.97732 0
M  V30 292 C 25.1957 -2.08713 -6.50329 0
M  V30 293 O 24.8837 -3.02322 -7.44887 0
M  V30 294 H 24.6157 0.0765276 -0.671654 0
M  V30 295 H 27.1697 -0.423254 -2.00992 0
M  V30 296 H 25.3997 1.65567 -3.49463 0
M  V30 297 H 27.0887 1.38591 -3.81507 0
M  V30 298 H 27.8547 -0.90906 -4.76404 0
M  V30 299 H 23.7337 0.306108 -4.59983 0
M  V30 300 H 27.2777 -2.59111 -6.47694 0
M  V30 301 H 23.1747 -1.36801 -6.30837 0
M  V30 302 H 23.9427 -2.97165 -7.6265 0
M  V30 303 N 26.6058 1.57591 -0.0167156 0
M  V30 304 C 27.8828 1.82547 0.702564 0
M  V30 305 C 28.2628 0.898018 1.91047 0
M  V30 306 O 27.6108 -0.0493456 2.28447 0
M  V30 307 C 27.8208 3.31459 1.09251 0
M  V30 308 C 29.1688 3.97622 1.48937 0
M  V30 309 O 30.1928 3.35881 1.18584 0
M  V30 310 O 29.0518 5.06415 2.05442 0
M  V30 311 H 26.1458 0.752268 0.343544 0
M  V30 312 H 28.6918 1.69644 -0.0434495 0
M  V30 313 H 27.4638 3.9061 0.23227 0
M  V30 314 H 27.0868 3.49422 1.89709 0
M  V30 315 N 28.0839 -0.256276 1.55502 0
M  V30 316 C 29.3089 -1.00766 1.81276 0
M  V30 317 C 29.7339 -1.78524 0.59252 0
M  V30 318 O 29.0919 -1.75413 -0.45827 0
M  V30 319 C 29.1399 -1.92869 3.04687 0
M  V30 320 O 28.2439 -3.019 2.80945 0
M  V30 321 H 27.5849 -0.287224 0.598664 0
M  V30 322 H 30.1149 -0.280109 2.02674 0
M  V30 323 H 30.1249 -2.34511 3.33869 0
M  V30 324 H 28.7999 -1.35689 3.93143 0
M  V30 325 H 27.3769 -2.64454 2.62904 0
M  V30 326 N 29.562 -1.4872 -0.521534 0
M  V30 327 C 30.472 -1.66569 -1.65203 0
M  V30 328 C 31.488 -0.548197 -1.65139 0
M  V30 329 O 32.664 -0.820339 -1.83936 0
M  V30 330 C 29.729 -1.70917 -3.01642 0
M  V30 331 C 28.79 -2.94356 -3.12495 0
M  V30 332 C 28.023 -2.98487 -4.42426 0
M  V30 333 O 28.246 -2.10786 -5.30024 0
M  V30 334 O 27.18 -3.90746 -4.57822 0
M  V30 335 H 31.006 -2.62298 -1.5308 0
M  V30 336 H 28.591 -1.3222 -0.695565 0
M  V30 337 H 30.473 -1.7625 -3.82771 0
M  V30 338 H 29.148 -0.783633 -3.14071 0
M  V30 339 H 28.055 -2.94552 -2.3063 0
M  V30 340 H 29.388 -3.86322 -3.04986 0
M  V30 341 N 31.0401 0.771051 -1.3745 0
M  V30 342 C 32.2681 1.56015 -1.35893 0
M  V30 343 C 32.6831 1.88718 0.0555523 0
M  V30 344 O 32.0401 1.51502 1.01752 0
M  V30 345 C 32.0911 2.87001 -2.19801 0
M  V30 346 O 31.8121 2.557 -3.55738 0
M  V30 347 C 33.3131 3.81228 -2.26231 0
M  V30 348 H 30.5331 0.483317 -0.465453 0
M  V30 349 H 33.0771 0.955611 -1.80799 0
M  V30 350 H 31.2321 3.43877 -1.78402 0
M  V30 351 H 31.6461 3.39584 -3.99729 0
M  V30 352 H 33.1201 4.70139 -2.89263 0
M  V30 353 H 33.5971 4.20409 -1.27093 0
M  V30 354 H 34.2031 3.30281 -2.67945 0
M  V30 355 N 32.5182 1.22032 0.997298 0
M  V30 356 C 33.4482 1.01065 2.10495 0
M  V30 357 C 34.4292 -0.0669542 1.69968 0
M  V30 358 O 35.6142 0.0943987 1.9397 0
M  V30 359 C 32.7442 0.582874 3.42374 0
M  V30 360 C 31.6982 1.60592 3.96729 0
M  V30 361 C 31.0242 1.03412 5.24605 0
M  V30 362 C 32.3242 2.99478 4.27914 0
M  V30 363 H 34.0182 1.93708 2.28292 0
M  V30 364 H 31.5642 0.932761 1.09707 0
M  V30 365 H 33.5172 0.423332 4.19268 0
M  V30 366 H 32.2412 -0.379213 3.24391 0
M  V30 367 H 30.9002 1.75316 3.21963 0
M  V30 368 H 30.5482 0.063518 5.0296 0
M  V30 369 H 30.2482 1.71754 5.61938 0
M  V30 370 H 31.7722 0.886066 6.04137 0
M  V30 371 H 33.1862 2.88153 4.95622 0
M  V30 372 H 31.5832 3.64903 4.76409 0
M  V30 373 H 32.6532 3.49742 3.3587 0
M  V30 374 N 33.9963 -1.19345 1.0293 0
M  V30 375 C 34.9463 -2.20472 0.58104 0
M  V30 376 C 35.9303 -1.56578 -0.370442 0
M  V30 377 O 37.1223 -1.75963 -0.191344 0
M  V30 378 C 34.2513 -3.43236 -0.066306 0
M  V30 379 C 33.3373 -4.14274 0.907642 0
M  V30 380 N 33.7283 -4.61492 2.07023 0
M  V30 381 C 32.0263 -4.39966 0.731177 0
M  V30 382 C 32.7273 -5.1605 2.68454 0
M  V30 383 N 31.7033 -5.06875 1.96414 0
M  V30 384 H 35.5053 -2.54659 1.46717 0
M  V30 385 H 33.0193 -1.35423 0.896345 0
M  V30 386 H 35.0163 -4.14927 -0.405068 0
M  V30 387 H 33.6763 -3.10549 -0.948118 0
M  V30 388 H 34.6873 -4.56304 2.44963 0
M  V30 389 H 31.3643 -4.17377 -0.101507 0
M  V30 390 H 32.7543 -5.6287 3.66915 0
M  V30 391 N 35.4744 -0.807222 -1.35358 0
M  V30 392 C 36.4044 -0.232509 -2.3234 0
M  V30 393 C 37.3854 0.642386 -1.57504 0
M  V30 394 O 38.5704 0.572526 -1.85569 0
M  V30 395 C 35.7004 0.619238 -3.41735 0
M  V30 396 C 34.6544 -0.157215 -4.27711 0
M  V30 397 C 33.9804 0.816273 -5.28433 0
M  V30 398 C 35.2804 -1.35656 -5.04376 0
M  V30 399 H 36.9744 -1.04276 -2.80654 0
M  V30 400 H 34.5204 -0.50288 -1.34934 0
M  V30 401 H 36.4734 1.03137 -4.08584 0
M  V30 402 H 35.1974 1.46239 -2.92031 0
M  V30 403 H 33.8564 -0.550525 -3.62443 0
M  V30 404 H 33.5044 1.65494 -4.74996 0
M  V30 405 H 33.2044 0.301067 -5.86828 0
M  V30 406 H 34.7284 1.22659 -5.98153 0
M  V30 407 H 36.1424 -1.01927 -5.64166 0
M  V30 408 H 34.5394 -1.8063 -5.7227 0
M  V30 409 H 35.6094 -2.14288 -4.34981 0
M  V30 410 N 36.9525 1.47285 -0.560781 0
M  V30 411 C 38.3685 1.58065 -0.22081 0
M  V30 412 C 38.5685 1.55892 1.27671 0
M  V30 413 O 37.6245 1.46422 2.0571 0
M  V30 414 C 38.9375 2.88418 -0.850625 0
M  V30 415 C 40.4855 3.02009 -0.822184 0
M  V30 416 C 40.9605 4.35066 -1.43113 0
M  V30 417 N 42.4515 4.41711 -1.39448 0
M  V30 418 C 43.1865 5.43237 -1.83525 0
M  V30 419 N 42.6825 6.51555 -2.35474 0
M  V30 420 N 44.4755 5.34304 -1.74574 0
M  V30 421 H 36.6265 1.46941 -1.53369 0
M  V30 422 H 38.8895 0.699558 -0.639783 0
M  V30 423 H 38.5955 2.95755 -1.9032 0
M  V30 424 H 38.4695 3.75612 -0.345773 0
M  V30 425 H 40.8565 2.94266 0.221714 0
M  V30 426 H 40.9375 2.16347 -1.36483 0
M  V30 427 H 40.5815 4.43565 -2.47412 0
M  V30 428 H 40.5115 5.19465 -0.863899 0
M  V30 429 H 43.0025 3.64027 -1.01452 0
M  V30 430 H 43.3155 7.25203 -2.67021 0
M  V30 431 H 41.6605 6.52435 -2.39487 0
M  V30 432 H 44.8515 4.48581 -1.33763 0
M  V30 433 H 45.0245 6.13288 -2.09242 0
M  V30 434 N 38.4306 0.297415 1.54768 0
M  V30 435 C 39.3606 -0.573494 2.26348 0
M  V30 436 C 40.3416 -1.14085 1.26169 0
M  V30 437 O 41.5266 -1.17086 1.54934 0
M  V30 438 C 38.6566 -1.74716 3.00153 0
M  V30 439 C 37.6106 -1.31032 4.07449 0
M  V30 440 C 36.9366 -2.56887 4.68949 0
M  V30 441 C 38.2366 -0.444183 5.20408 0
M  V30 442 H 39.9306 0.0235131 2.99391 0
M  V30 443 H 37.4766 0.0127488 1.43994 0
M  V30 444 H 39.4296 -2.3625 3.48947 0
M  V30 445 H 38.1536 -2.37035 2.24682 0
M  V30 446 H 36.8126 -0.718066 3.59499 0
M  V30 447 H 36.4606 -3.17512 3.90122 0
M  V30 448 H 36.1606 -2.2836 5.41411 0
M  V30 449 H 37.6846 -3.19229 5.20505 0
M  V30 450 H 39.0986 -0.9651 5.65118 0
M  V30 451 H 37.4956 -0.252846 5.99567 0
M  V30 452 H 38.5656 0.531609 4.81977 0
M  V30 453 N 39.9087 -1.5758 0.0250728 0
M  V30 454 C 41.3247 -1.56124 -0.331282 0
M  V30 455 C 41.5247 -1.03029 -1.73169 0
M  V30 456 O 40.5807 -0.675215 -2.43305 0
M  V30 457 C 41.8937 -3.00139 -0.183584 0
M  V30 458 C 43.4417 -3.11946 -0.256654 0
M  V30 459 C 43.9167 -4.57793 -0.137792 0
M  V30 460 N 45.4077 -4.6279 -0.194904 0
M  V30 461 C 46.1427 -5.7326 -0.126655 0
M  V30 462 N 45.6387 -6.928 -0.00755288 0
M  V30 463 N 47.4317 -5.61811 -0.180348 0
M  V30 464 H 39.5827 -1.90424 0.94087 0
M  V30 465 H 41.8457 -0.875761 0.362968 0
M  V30 466 H 41.5517 -3.4292 0.780927 0
M  V30 467 H 41.4257 -3.64899 -0.955448 0
M  V30 468 H 43.8127 -2.69079 -1.21162 0
M  V30 469 H 43.8937 -2.49915 0.545517 0
M  V30 470 H 43.5377 -5.01339 0.813739 0
M  V30 471 H 43.4677 -5.17798 -0.958775 0
M  V30 472 H 45.9587 -3.76807 -0.287267 0
M  V30 473 H 46.2717 -7.72791 0.0379428 0
M  V30 474 H 44.6167 -6.94995 0.0271731 0
M  V30 475 H 47.8077 -4.6731 -0.271767 0
M  V30 476 H 47.9807 -6.47882 -0.123697 0
M  V30 477 N 41.3868 0.248026 -1.55636 0
M  V30 478 C 42.6148 0.993808 -1.81469 0
M  V30 479 C 43.0298 1.78991 -0.60064 0
M  V30 480 O 42.3868 1.77345 0.430682 0
M  V30 481 C 42.4378 1.93258 -3.05506 0
M  V30 482 O 42.1588 1.16869 -4.22224 0
M  V30 483 C 43.6598 2.79444 -3.4413 0
M  V30 484 H 40.8798 0.292486 -0.603898 0
M  V30 485 H 43.4238 0.271253 -2.02693 0
M  V30 486 H 41.5788 2.60943 -2.86335 0
M  V30 487 H 41.9928 1.80359 -4.92515 0
M  V30 488 H 43.4668 3.41066 -4.34026 0
M  V30 489 H 43.9438 3.50499 -2.64665 0
M  V30 490 H 44.5498 2.17214 -3.65648 0
M  V30 491 N 42.8649 1.48995 0.513639 0
M  V30 492 C 43.8119 1.6473 1.61656 0
M  V30 493 C 44.7819 0.488984 1.58739 0
M  V30 494 O 45.9669 0.714478 1.76918 0
M  V30 495 C 43.1069 1.7082 2.99858 0
M  V30 496 C 42.2199 2.9787 3.12885 0
M  V30 497 C 41.3549 2.95017 4.41744 0
M  V30 498 C 40.3939 4.16702 4.48359 0
M  V30 499 N 39.5309 4.11832 5.68629 0
M  V30 500 H 44.3709 2.58909 1.47547 0
M  V30 501 H 41.9079 1.28382 0.71808 0
M  V30 502 H 43.8659 1.72331 3.79944 0
M  V30 503 H 42.4959 0.801181 3.12699 0
M  V30 504 H 41.5479 3.06029 2.25944 0
M  V30 505 H 42.8599 3.8786 3.13633 0
M  V30 506 H 42.0139 2.95021 5.30139 0
M  V30 507 H 40.7529 2.02784 4.43542 0
M  V30 508 H 39.7579 4.16955 3.58369 0
M  V30 509 H 40.9829 5.10113 4.48287 0
M  V30 510 H 38.9289 3.22428 5.71293 0
M  V30 511 H 38.8459 4.95543 5.7094 0
M  V30 512 H 40.1139 4.1592 6.59266 0
M  V30 513 N 44.343 -0.763751 1.37857 0
M  V30 514 C 45.29 -1.87726 1.34267 0
M  V30 515 C 46.26 -1.64807 0.206879 0
M  V30 516 O 47.445 -1.86613 0.397508 0
M  V30 517 C 44.585 -3.24896 1.16346 0
M  V30 518 C 43.698 -3.59716 2.39225 0
M  V30 519 C 42.833 -4.86137 2.14114 0
M  V30 520 C 41.872 -5.13711 3.32817 0
M  V30 521 N 41.009 -6.31323 3.07206 0
M  V30 522 H 45.849 -1.90129 2.29466 0
M  V30 523 H 43.386 -0.929433 1.14017 0
M  V30 524 H 45.344 -4.04036 1.03975 0
M  V30 525 H 43.974 -3.21847 0.247909 0
M  V30 526 H 43.026 -2.75498 2.62307 0
M  V30 527 H 44.338 -3.76027 3.27728 0
M  V30 528 H 43.492 -5.73198 1.9882 0
M  V30 529 H 42.231 -4.71945 1.22961 0
M  V30 530 H 41.236 -4.25123 3.48641 0
M  V30 531 H 42.461 -5.29807 4.24832 0
M  V30 532 H 40.407 -6.18474 2.1869 0
M  V30 533 H 40.324 -6.48087 3.89254 0
M  V30 534 H 41.592 -7.213 2.95546 0
M  V30 535 N 45.8211 -1.22559 -0.990812 0
M  V30 536 C 47.0981 -0.959875 -1.70428 0
M  V30 537 C 47.4781 0.524455 -2.04481 0
M  V30 538 O 46.8261 1.49302 -1.72977 0
M  V30 539 C 47.0361 -1.85955 -2.95333 0
M  V30 540 C 48.3841 -2.11687 -3.68068 0
M  V30 541 O 49.4081 -1.8342 -3.05345 0
M  V30 542 O 48.2671 -2.59572 -4.80921 0
M  V30 543 H 45.3611 -0.361154 -0.743974 0
M  V30 544 H 47.9071 -1.33554 -1.04697 0
M  V30 545 H 46.6791 -2.86346 -2.66687 0
M  V30 546 H 46.3021 -1.4856 -3.68803 0
M  V30 547 N 47.2992 1.18797 -1.03562 0
M  V30 548 C 48.5762 1.84469 -0.650434 0
M  V30 549 C 48.9562 1.92319 0.870433 0
M  V30 550 O 48.3042 1.44528 1.76986 0
M  V30 551 C 48.5142 3.2306 -1.32036 0
M  V30 552 C 49.8622 3.9915 -1.44792 0
M  V30 553 O 50.8862 3.32481 -1.27806 0
M  V30 554 O 49.7452 5.18587 -1.72423 0
M  V30 555 H 46.8392 0.795251 -0.226946 0
M  V30 556 H 49.3852 1.26231 -1.13419 0
M  V30 557 H 48.1572 3.1222 -2.3587 0
M  V30 558 H 47.7802 3.88949 -0.8249 0
M  V30 559 N 48.7773 0.814389 1.34928 0
M  V30 560 C 50.0263 0.394871 1.97797 0
M  V30 561 C 50.3393 -1.04555 1.65311 0
M  V30 562 O 51.5453 -1.56856 2.21604 0
M  V30 563 C 50.0013 0.655103 3.53888 0
M  V30 564 C 49.6093 2.10858 3.95276 0
M  V30 565 C 51.3533 0.301329 4.23429 0
M  V30 566 C 49.2603 2.31415 5.44244 0
M  V30 567 H 48.1903 0.143913 0.740139 0
M  V30 568 H 50.8413 0.999544 1.53888 0
M  V30 569 H 49.2233 -0.0196253 3.95995 0
M  V30 570 H 50.3973 2.82176 3.64298 0
M  V30 571 H 48.7123 2.42297 3.38646 0
M  V30 572 H 51.3093 0.432869 5.32945 0
M  V30 573 H 51.6523 -0.75331 4.09428 0
M  V30 574 H 52.1853 0.930288 3.86769 0
M  V30 575 H 48.9243 3.35353 5.63222 0
M  V30 576 H 48.4443 1.6463 5.76764 0
M  V30 577 H 50.1233 2.13352 6.10811 0
M  V30 578 N 50.2554 -1.46986 0.568584 0
M  V30 579 C 51.5324 -1.95592 -0.0174074 0
M  V30 580 C 51.9124 -1.51124 -1.47393 0
M  V30 581 O 51.2604 -0.755329 -2.15655 0
M  V30 582 C 51.4704 -3.48719 0.139913 0
M  V30 583 C 52.8184 -4.246 0.000426376 0
M  V30 584 O 53.8424 -3.56135 0.0680316 0
M  V30 585 O 52.7014 -5.46302 -0.146988 0
M  V30 586 H 49.7954 -0.82498 -0.0577599 0
M  V30 587 H 52.3414 -1.57335 0.635909 0
M  V30 588 H 51.1134 -3.73927 1.15301 0
M  V30 589 H 50.7364 -3.93771 -0.550491 0
M  V30 590 N 51.7335 -0.305618 -1.54608 0
M  V30 591 C 53.1495 0.0476228 -1.59529 0
M  V30 592 C 53.3495 1.52025 -1.32252 0
M  V30 593 O 52.4055 2.27368 -1.09818 0
M  V30 594 C 53.7185 -0.354471 -2.98603 0
M  V30 595 C 55.2665 -0.303622 -3.11524 0
M  V30 596 C 55.7415 -0.680608 -4.52915 0
M  V30 597 N 57.2325 -0.63332 -4.5885 0
M  V30 598 C 57.9675 -0.897432 -5.66334 0
M  V30 599 N 57.4635 -1.22775 -6.81834 0
M  V30 600 N 59.2565 -0.824186 -5.56025 0
M  V30 601 H 51.4075 -1.2653 -1.70599 0
M  V30 602 H 53.6705 -0.513291 -0.797017 0
M  V30 603 H 53.3765 -1.3798 -3.23503 0
M  V30 604 H 53.2505 0.289568 -3.76087 0
M  V30 605 H 55.6375 0.712472 -2.8637 0
M  V30 606 H 55.7185 -0.982348 -2.36185 0
M  V30 607 H 55.3625 -1.69453 -4.78799 0
M  V30 608 H 55.2925 0.0202385 -5.26596 0
M  V30 609 H 57.7835 -0.389138 -3.75891 0
M  V30 610 H 58.0965 -1.41513 -7.59733 0
M  V30 611 H 56.4415 -1.26583 -6.83375 0
M  V30 612 H 59.6325 -0.565748 -4.64669 0
M  V30 613 H 59.8055 -1.03338 -6.39707 0
M  V30 614 N 53.2116 1.57565 -0.0334293 0
M  V30 615 C 54.4576 1.92262 0.645226 0
M  V30 616 C 54.7906 0.910543 1.71531 0
M  V30 617 O 54.0656 -0.066099 1.94388 0
M  V30 618 C 54.3486 3.37422 1.2577 0
M  V30 619 C 54.2016 4.49369 0.196891 0
M  V30 620 C 55.5206 3.82628 2.17449 0
M  V30 621 H 52.6396 0.699171 0.233085 0
M  V30 622 H 55.2816 1.89779 -0.0915694 0
M  V30 623 H 53.4316 3.39669 1.88566 0
M  V30 624 H 55.1036 4.59254 -0.433962 0
M  V30 625 H 53.3466 4.31168 -0.477137 0
M  V30 626 H 54.0176 5.47978 0.665124 0
M  V30 627 H 56.4936 3.82145 1.64634 0
M  V30 628 H 55.3696 4.84883 2.57254 0
M  V30 629 H 55.6306 3.18376 3.0674 0
M  V30 630 N 54.6897 -0.239769 1.55765 0
M  V30 631 C 55.5997 -1.31831 1.94056 0
M  V30 632 C 56.6157 -1.52275 0.841925 0
M  V30 633 O 57.7917 -1.65759 1.14394 0
M  V30 634 C 54.8567 -2.65156 2.23368 0
M  V30 635 C 53.9177 -2.53173 3.46701 0
M  V30 636 C 53.1507 -3.8014 3.74606 0
M  V30 637 O 53.3737 -4.82343 3.04469 0
M  V30 638 O 52.3077 -3.78344 4.68123 0
M  V30 639 H 56.1337 -1.02347 2.85935 0
M  V30 640 H 53.7187 -0.441123 1.42739 0
M  V30 641 H 55.6007 -3.43929 2.43497 0
M  V30 642 H 54.2757 -2.94358 1.34666 0
M  V30 643 H 53.1827 -1.72662 3.31871 0
M  V30 644 H 54.5157 -2.28915 4.35728 0
M  V30 645 N 56.1678 -1.49265 -0.50573 0
M  V30 646 C 57.0978 -1.68495 -1.61653 0
M  V30 647 C 58.0788 -0.53366 -1.61512 0
M  V30 648 O 59.2638 -0.76897 -1.78327 0
M  V30 649 C 56.3938 -1.74709 -3.00157 0
M  V30 650 C 55.3478 -2.89581 -3.15162 0
M  V30 651 C 54.6738 -2.80903 -4.5497 0
M  V30 652 C 55.9738 -4.30578 -2.95634 0
M  V30 653 H 57.6678 -2.61493 -1.45814 0
M  V30 654 H 55.2138 -1.25838 -0.70005 0
M  V30 655 H 57.1668 -1.86748 -3.77761 0
M  V30 656 H 55.8908 -0.783067 -3.17074 0
M  V30 657 H 54.5498 -2.77136 -2.39982 0
M  V30 658 H 54.1978 -1.82419 -4.68756 0
M  V30 659 H 53.8978 -3.57999 -4.65951 0
M  V30 660 H 55.4218 -2.94944 -5.34641 0
M  V30 661 H 56.8358 -4.4373 -3.63011 0
M  V30 662 H 55.2328 -5.0886 -3.18091 0
M  V30 663 H 56.3028 -4.45352 -1.91806 0
M  V30 664 N 57.6459 0.756429 -1.3826 0
M  V30 665 C 58.5759 1.88374 -1.37976 0
M  V30 666 C 59.5569 1.68311 -0.246082 0
M  V30 667 O 60.7419 1.88944 -0.44874 0
M  V30 668 C 57.8719 3.25864 -1.20125 0
M  V30 669 C 56.8259 3.60523 -2.30666 0
M  V30 670 C 56.1519 4.9672 -1.97923 0
M  V30 671 C 57.4519 3.65692 -3.72916 0
M  V30 672 H 59.1459 1.88869 -2.32312 0
M  V30 673 H 56.6919 0.907272 -1.11824 0
M  V30 674 H 58.6449 4.0438 -1.18552 0
M  V30 675 H 57.3689 3.25841 -0.222498 0
M  V30 676 H 56.0279 2.84324 -2.3142 0
M  V30 677 H 55.6759 4.93253 -0.985393 0
M  V30 678 H 55.3759 5.20878 -2.71955 0
M  V30 679 H 56.8999 5.77618 -1.97964 0
M  V30 680 H 58.3139 4.34328 -3.74208 0
M  V30 681 H 56.7109 4.01358 -4.4613 0
M  V30 682 H 57.7809 2.65987 -4.05436 0
M  V30 683 N 59.124 1.23083 0.984299 0
M  V30 684 C 60.074 0.975749 2.06066 0
M  V30 685 C 61.058 -0.0768251 1.60716 0
M  V30 686 O 62.25 0.134805 1.76486 0
M  V30 687 C 59.379 0.564673 3.38624 0
M  V30 688 C 58.465 1.65244 3.90583 0
M  V30 689 N 58.856 2.88193 4.15666 0
M  V30 690 C 57.154 1.52612 4.19077 0
M  V30 691 C 57.855 3.58593 4.58024 0
M  V30 692 N 56.831 2.86093 4.62225 0
M  V30 693 H 60.633 1.90957 2.23411 0
M  V30 694 H 58.147 1.12963 1.16675 0
M  V30 695 H 60.144 0.36322 4.15315 0
M  V30 696 H 58.804 -0.362147 3.22674 0
M  V30 697 H 59.815 3.24537 4.03604 0
M  V30 698 H 56.492 0.666121 4.12152 0
M  V30 699 H 57.882 4.63974 4.85982 0
M  V30 700 N 60.6021 -1.18246 1.0419 0
M  V30 701 C 61.8501 -1.87886 0.744543 0
M  V30 702 C 62.1711 -1.8082 -0.730006 0
M  V30 703 O 61.4411 -1.22736 -1.52685 0
M  V30 704 H 60.0211 -0.695556 0.272417 0
M  V30 705 H 62.6831 -1.43494 1.31892 0
M  V30 706 H 61.7791 -2.9389 1.05049 0
M  V30 707 N 62.0802 -0.821533 -1.34494 0
M  V30 708 C 63.3572 -0.33159 -1.92769 0
M  V30 709 C 63.7372 1.18088 -1.74981 0
M  V30 710 O 63.0852 1.98733 -1.12772 0
M  V30 711 C 63.2952 -0.759398 -3.40638 0
M  V30 712 C 64.6432 -0.757433 -4.1779 0
M  V30 713 O 65.6672 -0.70189 -3.49216 0
M  V30 714 O 64.5262 -0.829361 -5.4017 0
M  V30 715 H 61.6202 -0.0902502 -0.822061 0
M  V30 716 H 64.1662 -0.906231 -1.43477 0
M  V30 717 H 62.9382 -1.8012 -3.47379 0
M  V30 718 H 62.5612 -0.160378 -3.97276 0
M  V30 719 N 63.5583 1.46682 -0.576371 0
M  V30 720 C 64.9693 1.86112 -0.148091 0
M  V30 721 C 65.3203 1.48073 1.2872 0
M  V30 722 O 64.4453 0.892656 1.97131 0
M  V30 723 C 65.0403 3.37786 -0.261982 0
M  V30 724 C 63.5993 3.76235 0.111384 0
M  V30 725 C 62.7463 2.70713 -0.60083 0
M  V30 726 H 65.6973 1.37927 -0.78497 0
M  V30 727 H 65.7183 3.77007 0.514364 0
M  V30 728 H 65.2303 3.6544 -1.30671 0
M  V30 729 H 63.3313 3.54198 1.15649 0
M  V30 730 H 63.4443 4.78391 -0.26052 0
M  V30 731 H 61.8083 2.54666 -0.0417783 0
M  V30 732 H 62.5913 3.01208 -1.64708 0
M  V30 733 N 65.0364 0.313813 1.54444 0
M  V30 734 C 66.2664 -0.293491 2.04505 0
M  V30 735 C 66.6744 -1.47086 1.19005 0
M  V30 736 O 66.0174 -1.82481 0.211257 0
M  V30 737 C 66.0794 -0.800455 3.50475 0
M  V30 738 C 65.7434 0.253322 4.56297 0
M  V30 739 C 66.7404 1.08612 5.08428 0
M  V30 740 C 64.4254 0.398708 5.00715 0
M  V30 741 C 66.4194 2.05013 6.0353 0
M  V30 742 C 64.1064 1.36614 5.95634 0
M  V30 743 C 65.1044 2.19033 6.46926 0
M  V30 744 O 64.7924 3.14134 7.39983 0
M  V30 745 H 64.5244 -0.0658325 0.672787 0
M  V30 746 H 67.0784 0.455177 2.00293 0
M  V30 747 H 65.3084 -1.59987 3.52053 0
M  V30 748 H 66.9974 -1.32504 3.83663 0
M  V30 749 H 67.7634 0.984736 4.74898 0
M  V30 750 H 63.6424 -0.23289 4.60411 0
M  V30 751 H 67.1864 2.69382 6.4349 0
M  V30 752 H 63.0834 1.4682 6.28581 0
M  V30 753 H 63.8514 3.0926 7.57826 0
M  V30 754 N 66.5145 -1.57545 0.0417849 0
M  V30 755 C 67.7915 -1.83642 -0.673433 0
M  V30 756 C 68.1715 -0.928298 -1.89594 0
M  V30 757 O 67.5195 0.0129955 -2.28496 0
M  V30 758 C 67.7295 -3.33155 -1.03964 0
M  V30 759 C 69.0775 -3.99941 -1.42592 0
M  V30 760 O 70.1015 -3.37725 -1.13226 0
M  V30 761 O 68.9605 -5.09619 -1.9736 0
M  V30 762 H 66.0545 -0.757638 -0.331533 0
M  V30 763 H 68.6005 -1.69554 0.070433 0
M  V30 764 H 67.3725 -3.9093 -0.170098 0
M  V30 765 H 66.9955 -3.52396 -1.84126 0
M  V30 766 N 67.9926 0.231505 -1.5589 0
M  V30 767 C 69.2386 0.954429 -1.79617 0
M  V30 768 C 69.5936 1.82367 -0.613199 0
M  V30 769 O 68.8866 1.87524 0.393094 0
M  V30 770 C 69.0806 1.83577 -3.0665 0
M  V30 771 C 68.9096 1.05334 -4.3719 0
M  V30 772 C 67.6796 0.75225 -4.99669 0
M  V30 773 C 69.8776 0.423444 -5.12554 0
M  V30 774 N 67.8596 -0.052627 -6.13877 0
M  V30 775 C 69.2306 -0.245287 -6.19515 0
M  V30 776 C 71.2856 0.335466 -4.96769 0
M  V30 777 C 69.9886 -0.993566 -7.12405 0
M  V30 778 C 72.0146 -0.399321 -5.9005 0
M  V30 779 C 71.3766 -1.05663 -6.9643 0
M  V30 780 H 67.4756 0.329846 -0.709031 0
M  V30 781 H 70.0596 0.226172 -1.93382 0
M  V30 782 H 68.2306 2.53592 -2.94186 0
M  V30 783 H 69.9626 2.49541 -3.18608 0
M  V30 784 H 66.7176 1.06783 -4.61405 0
M  V30 785 H 67.1416 -0.443609 -6.75545 0
M  V30 786 H 71.7836 0.829311 -4.14587 0
M  V30 787 H 69.5016 -1.49896 -7.94076 0
M  V30 788 H 73.0876 -0.468265 -5.79913 0
M  V30 789 H 71.9676 -1.61612 -7.67366 0
M  V30 790 N 69.4707 1.49531 0.497807 0
M  V30 791 C 70.4027 1.62559 1.61578 0
M  V30 792 C 71.4157 0.508134 1.54667 0
M  V30 793 O 72.6047 0.780309 1.60541 0
M  V30 794 C 69.7047 1.56925 3.00379 0
M  V30 795 C 68.8777 2.84257 3.3244 0
M  V30 796 C 67.9367 2.71632 4.50669 0
M  V30 797 O 66.9627 3.4557 4.52294 0
M  V30 798 N 68.1647 1.83391 5.5077 0
M  V30 799 H 70.9297 2.58981 1.50828 0
M  V30 800 H 68.4907 1.4666 0.685743 0
M  V30 801 H 70.4827 1.46129 3.77397 0
M  V30 802 H 69.0527 0.683483 3.05037 0
M  V30 803 H 68.2727 3.09381 2.44289 0
M  V30 804 H 69.5607 3.68666 3.5066 0
M  V30 805 H 68.9587 1.22583 5.52259 0
M  V30 806 H 67.5157 1.78515 6.26878 0
M  V30 807 N 70.9488 -0.749086 1.3866 0
M  V30 808 C 71.8968 -1.88428 1.36373 0
M  V30 809 C 72.8908 -1.67561 0.248929 0
M  V30 810 O 74.0968 -1.75074 0.41821 0
M  V30 811 H 70.4718 -0.620023 0.42553 0
M  V30 812 H 72.4428 -1.87473 2.32156 0
M  V30 813 C 71.1918 -3.25961 1.21014 0
M  V30 814 H 70.5148 -3.42607 2.06059 0
M  V30 815 H 71.9548 -4.05625 1.23469 0
M  V30 816 C 70.4138 -3.36799 -0.0825941 0
M  V30 817 O 70.9438 -3.87517 -1.05797 0
M  V30 818 N 69.1498 -2.90258 -0.140939 0
M  V30 819 H 68.6968 -2.49174 0.653477 0
M  V30 820 H 68.6548 -2.97889 -1.00545 0
M  V30 821 N 72.4269 -1.23603 -0.977757 0
M  V30 822 C 73.6749 -1.06759 -1.71601 0
M  V30 823 C 73.9959 0.395929 -1.90938 0
M  V30 824 O 73.2659 1.28356 -1.47992 0
M  V30 825 H 71.8459 -0.392062 -0.635843 0
M  V30 826 H 74.5079 -1.55362 -1.1768 0
M  V30 827 H 73.6039 -1.55763 -2.70452 0
M  V30 828 N 73.905 1.17692 -1.04816 0
M  V30 829 C 74.868 2.19787 -0.650117 0
M  V30 830 C 75.868 1.58044 0.296427 0
M  V30 831 O 77.058 1.74012 0.0808097 0
M  V30 832 C 74.19 3.40869 0.0456987 0
M  V30 833 H 75.383 2.56516 -1.5537 0
M  V30 834 H 72.936 1.31708 -0.841594 0
M  V30 835 H 73.671 3.09681 0.962726 0
M  V30 836 H 73.456 3.86928 -0.634727 0
M  V30 837 H 74.946 4.16445 0.310432 0
M  V30 838 N 75.3831 0.828654 1.34056 0
M  V30 839 C 76.6291 0.429279 1.98818 0
M  V30 840 C 76.9841 -0.998011 1.64492 0
M  V30 841 O 76.2771 -1.68652 0.909228 0
M  V30 842 C 76.4711 0.575226 3.52741 0
M  V30 843 C 76.3001 2.01515 4.02022 0
M  V30 844 C 75.0701 2.64825 4.30344 0
M  V30 845 C 77.2681 2.98261 4.18981 0
M  V30 846 N 75.2501 3.99998 4.65698 0
M  V30 847 C 76.6211 4.18356 4.57578 0
M  V30 848 C 78.6761 2.94802 4.01243 0
M  V30 849 C 77.3791 5.35454 4.80293 0
M  V30 850 C 79.4051 4.11121 4.25128 0
M  V30 851 C 78.7671 5.29969 4.64018 0
M  V30 852 H 74.8661 0.205304 0.754569 0
M  V30 853 H 77.4501 1.07457 1.62361 0
M  V30 854 H 75.6211 -0.0401962 3.88379 0
M  V30 855 H 77.3531 0.148292 4.04428 0
M  V30 856 H 74.1081 2.16027 4.21461 0
M  V30 857 H 74.5321 4.69653 4.87601 0
M  V30 858 H 79.1741 2.04054 3.70299 0
M  V30 859 H 76.8921 6.26755 5.10102 0
M  V30 860 H 80.4781 4.0985 4.12934 0
M  V30 861 H 79.3581 6.18479 4.82134 0
M  V30 862 N 76.8612 -1.46375 0.584142 0
M  V30 863 C 77.7932 -2.28443 -0.186119 0
M  V30 864 C 78.8062 -1.38596 -0.854115 0
M  V30 865 O 79.9952 -1.63183 -0.723438 0
M  V30 866 C 77.0952 -3.13671 -1.28311 0
M  V30 867 C 76.2682 -4.31652 -0.706758 0
M  V30 868 C 75.3272 -4.98267 -1.69163 0
M  V30 869 O 74.3532 -5.55815 -1.22712 0
M  V30 870 N 75.5552 -4.95408 -3.02575 0
M  V30 871 H 78.3202 -2.9519 0.517986 0
M  V30 872 H 75.8812 -1.56303 0.42201 0
M  V30 873 H 77.8732 -3.55101 -1.94128 0
M  V30 874 H 76.4432 -2.48989 -1.89005 0
M  V30 875 H 75.6632 -3.93989 0.128908 0
M  V30 876 H 76.9512 -5.07906 -0.301506 0
M  V30 877 H 76.3492 -4.49902 -3.42936 0
M  V30 878 H 74.9062 -5.40774 -3.63877 0
M  V30 879 N 78.3393 -0.321999 -1.54275 0
M  V30 880 C 79.5863 0.281044 -2.0054 0
M  V30 881 C 79.9143 1.52265 -1.21019 0
M  V30 882 O 79.1693 1.93687 -0.279982 0
M  V30 883 C 79.4683 0.661769 -3.5122 0
M  V30 884 C 79.1343 -0.480482 -4.48333 0
M  V30 885 C 77.7963 -0.794005 -4.74604 0
M  V30 886 C 80.1483 -1.24783 -5.06042 0
M  V30 887 C 77.4763 -1.87763 -5.55844 0
M  V30 888 C 79.8283 -2.32153 -5.88462 0
M  V30 889 C 78.4923 -2.64089 -6.13036 0
M  V30 890 H 77.7623 0.102841 -0.733829 0
M  V30 891 H 80.4093 -0.445453 -1.86247 0
M  V30 892 H 78.7143 1.46867 -3.63232 0
M  V30 893 H 80.4113 1.13989 -3.84457 0
M  V30 894 H 77.0013 -0.226039 -4.28004 0
M  V30 895 H 81.1853 -1.01887 -4.85729 0
M  V30 896 H 76.4413 -2.12954 -5.73115 0
M  V30 897 H 80.6153 -2.92057 -6.32199 0
M  V30 898 H 78.2423 -3.48185 -6.75775 0
M  V30 899 N 79.8174 1.5752 -0.0501392 0
M  V30 900 C 80.7494 2.08413 0.95376 0
M  V30 901 C 81.7624 1.01175 1.27544 0
M  V30 902 O 82.9514 1.28744 1.23641 0
M  V30 903 C 80.0514 2.51138 2.27559 0
M  V30 904 C 79.2244 3.817 2.13598 0
M  V30 905 C 78.2834 4.10749 3.28895 0
M  V30 906 O 77.3094 4.80685 3.04845 0
M  V30 907 N 78.5114 3.62579 4.5334 0
M  V30 908 H 81.2764 2.95165 0.519383 0
M  V30 909 H 78.8374 1.61327 0.136127 0
M  V30 910 H 80.8294 2.67648 3.03557 0
M  V30 911 H 79.3994 1.6964 2.62567 0
M  V30 912 H 78.6194 3.74782 1.22197 0
M  V30 913 H 79.9074 4.67201 2.01496 0
M  V30 914 H 79.3054 3.06039 4.75769 0
M  V30 915 H 77.8624 3.84329 5.26436 0
M  V30 916 N 81.2955 -0.223234 1.56011 0
M  V30 917 C 82.2285 -1.30377 1.87289 0
M  V30 918 C 83.2065 -1.45286 0.730112 0
M  V30 919 O 84.3905 -1.61126 0.978302 0
M  V30 920 C 81.5175 -2.67431 2.07843 0
M  V30 921 C 80.5635 -2.69546 3.30526 0
M  V30 922 S 81.3965 -2.23781 4.865 0
M  V30 923 C 82.5525 -3.62714 5.10088 0
M  V30 924 H 82.7855 -1.03652 2.78646 0
M  V30 925 H 80.3185 -0.425393 1.48424 0
M  V30 926 H 82.2765 -3.46336 2.20368 0
M  V30 927 H 80.9375 -2.91381 1.17285 0
M  V30 928 H 80.1305 -3.70255 3.41947 0
M  V30 929 H 79.7325 -1.98703 3.16849 0
M  V30 930 H 82.0245 -4.58391 4.98883 0
M  V30 931 H 82.9675 -3.5621 6.11981 0
M  V30 932 H 83.3755 -3.56323 4.37829 0
M  V30 933 N 82.7736 -1.49793 -0.48987 0
M  V30 934 C 83.7066 -1.61898 -1.60823 0
M  V30 935 C 84.6846 -0.467651 -1.5573 0
M  V30 936 O 85.8686 -0.684682 -1.75626 0
M  V30 937 C 82.9956 -1.58422 -2.99366 0
M  V30 938 C 82.0416 -2.78889 -3.22682 0
M  V30 939 S 82.8746 -4.40429 -3.04602 0
M  V30 940 C 84.0306 -4.39617 -4.4552 0
M  V30 941 H 84.2636 -2.56502 -1.50312 0
M  V30 942 H 81.7966 -1.38822 -0.675849 0
M  V30 943 H 83.7546 -1.57103 -3.79248 0
M  V30 944 H 82.4156 -0.650866 -3.07283 0
M  V30 945 H 81.6086 -2.72708 -4.23847 0
M  V30 946 H 81.2106 -2.77678 -2.50541 0
M  V30 947 H 83.5026 -4.12022 -5.37814 0
M  V30 948 H 84.4456 -5.41097 -4.56749 0
M  V30 949 H 84.8536 -3.69554 -4.2672 0
M  V30 950 N 84.2517 0.741722 -1.39055 0
M  V30 951 C 85.6627 1.31966 -1.32068 0
M  V30 952 C 86.0137 1.96192 0.0180797 0
M  V30 953 O 85.1387 1.95861 0.920196 0
M  V30 954 C 85.7337 2.39954 -2.39181 0
M  V30 955 C 84.2927 2.93438 -2.35735 0
M  V30 956 C 83.4397 1.66936 -2.21422 0
M  V30 957 H 86.3907 0.539721 -1.4924 0
M  V30 958 H 86.4117 3.20182 -2.05581 0
M  V30 959 H 85.9237 1.9318 -3.36605 0
M  V30 960 H 84.0247 3.4451 -1.41929 0
M  V30 961 H 84.1377 3.4701 -3.30335 0
M  V30 962 H 82.5017 1.91016 -1.68478 0
M  V30 963 H 83.2847 1.22224 -3.20806 0
M  V30 964 N 85.7298 1.2412 0.971189 0
M  V30 965 C 86.6628 0.97373 2.06382 0
M  V30 966 C 87.6408 -0.0912662 1.62344 0
M  V30 967 O 88.8248 0.0449365 1.88446 0
M  V30 968 C 85.9518 0.468746 3.35441 0
M  V30 969 C 84.9978 1.52176 3.98428 0
M  V30 970 S 85.8308 3.10203 4.36503 0
M  V30 971 C 86.9868 2.61398 5.68702 0
M  V30 972 H 87.2198 1.89893 2.28753 0
M  V30 973 H 84.7528 1.07466 1.10862 0
M  V30 974 H 86.7108 0.184012 4.10087 0
M  V30 975 H 85.3718 -0.435688 3.11064 0
M  V30 976 H 84.5648 1.11876 4.91426 0
M  V30 977 H 84.1668 1.75632 3.30196 0
M  V30 978 H 86.4588 2.03992 6.4606 0
M  V30 979 H 87.4018 3.52972 6.13854 0
M  V30 980 H 87.8098 2.01941 5.27143 0
M  V30 981 N 87.2079 -1.17134 1.05439 0
M  V30 982 C 88.6239 -1.39454 0.776201 0
M  V30 983 C 88.8239 -1.91454 -0.628307 0
M  V30 984 O 87.8799 -2.10777 -1.39031 0
M  V30 985 C 89.1929 -2.38305 1.83388 0
M  V30 986 C 90.7409 -2.52006 1.85639 0
M  V30 987 C 91.2159 -3.54133 2.90437 0
M  V30 988 N 92.7069 -3.61653 2.89415 0
M  V30 989 C 93.4419 -4.4044 3.67152 0
M  V30 990 N 92.9379 -5.22721 4.54681 0
M  V30 991 N 94.7309 -4.35337 3.55581 0
M  V30 992 H 86.8819 -0.817134 1.96053 0
M  V30 993 H 89.1449 -0.421626 0.849079 0
M  V30 994 H 88.8509 -2.07173 2.84204 0
M  V30 995 H 88.7249 -3.37841 1.67761 0
M  V30 996 H 91.1119 -2.82447 0.85486 0
M  V30 997 H 91.1929 -1.52537 2.05344 0
M  V30 998 H 90.8369 -3.24431 3.90777 0
M  V30 999 H 90.7669 -4.53313 2.67983 0
M  V30 1000 H 93.2579 -3.02909 2.25952 0
M  V30 1001 H 93.5709 -5.80027 5.10674 0
M  V30 1002 H 91.9159 -5.22093 4.58741 0
M  V30 1003 H 95.1069 -3.70112 2.86592 0
M  V30 1004 H 95.2799 -4.96494 4.1641 0
M  V30 1005 N 88.686 -0.835752 -1.33615 0
M  V30 1006 C 89.633 -0.26473 -2.29277 0
M  V30 1007 C 90.603 0.617712 -1.54187 0
M  V30 1008 O 91.788 0.556641 -1.825 0
M  V30 1009 C 88.928 0.556777 -3.40579 0
M  V30 1010 C 88.041 -0.349339 -4.30585 0
M  V30 1011 C 87.176 0.482969 -5.29 0
M  V30 1012 C 86.215 -0.421732 -6.10645 0
M  V30 1013 N 85.352 0.372262 -7.01112 0
M  V30 1014 H 90.192 -1.08582 -2.77514 0
M  V30 1015 H 87.729 -0.546927 -1.36554 0
M  V30 1016 H 89.687 1.04852 -4.03809 0
M  V30 1017 H 88.317 1.34286 -2.93542 0
M  V30 1018 H 87.369 -0.959372 -3.68104 0
M  V30 1019 H 88.681 -1.04445 -4.87742 0
M  V30 1020 H 87.835 1.03866 -5.97743 0
M  V30 1021 H 86.574 1.21153 -4.72412 0
M  V30 1022 H 85.579 -0.989464 -5.40823 0
M  V30 1023 H 86.804 -1.14861 -6.69316 0
M  V30 1024 H 84.75 1.08426 -6.46977 0
M  V30 1025 H 84.667 -0.264198 -7.55538 0
M  V30 1026 H 85.935 0.910293 -7.74167 0
M  V30 1027 N 90.1641 1.46063 -0.591896 0
M  V30 1028 C 91.3921 2.06717 -0.0868936 0
M  V30 1029 C 91.8071 1.43916 1.22203 0
M  V30 1030 O 91.1641 0.547698 1.74088 0
M  V30 1031 C 91.2151 3.6142 0.0758725 0
M  V30 1032 O 90.9361 4.21874 -1.18126 0
M  V30 1033 C 92.4371 4.39025 0.61416 0
M  V30 1034 H 89.6571 0.668162 -0.0616518 0
M  V30 1035 H 92.2011 1.8755 -0.815175 0
M  V30 1036 H 90.3561 3.79983 0.754413 0
M  V30 1037 H 90.7701 5.14861 -1.00092 0
M  V30 1038 H 92.2441 5.4783 0.677193 0
M  V30 1039 H 92.7211 4.07708 1.63312 0
M  V30 1040 H 93.3271 4.2529 -0.0298142 0
M  V30 1041 N 91.6422 0.330177 1.54103 0
M  V30 1042 C 92.8902 -0.269871 2.0029 0
M  V30 1043 C 93.2112 -1.52133 1.21986 0
M  V30 1044 O 92.4812 -1.93212 0.323438 0
M  V30 1045 H 91.0612 -0.10271 0.739905 0
M  V30 1046 H 93.7232 0.448249 1.89675 0
M  V30 1047 H 92.8192 -0.52166 3.07709 0
M  V30 1048 N 93.1203 -1.57491 0.0584922 0
M  V30 1049 C 94.3453 -1.97711 -0.62652 0
M  V30 1050 C 94.7703 -0.936132 -1.63151 0
M  V30 1051 O 94.1283 0.099811 -1.81025 0
M  V30 1052 C 94.1763 -3.36989 -1.28338 0
M  V30 1053 O 93.2803 -3.35433 -2.39913 0
M  V30 1054 H 92.6213 -0.643868 -0.162266 0
M  V30 1055 H 95.1513 -2.04193 0.129064 0
M  V30 1056 H 95.1613 -3.73879 -1.63335 0
M  V30 1057 H 93.8363 -4.12289 -0.546889 0
M  V30 1058 H 92.4133 -3.10298 -2.06809 0
M  V30 1059 N 94.5984 0.214957 -1.56127 0
M  V30 1060 C 95.8754 0.963093 -1.70247 0
M  V30 1061 C 96.2554 2.02166 -0.60764 0
M  V30 1062 O 95.6034 2.25244 0.384385 0
M  V30 1063 C 95.8134 1.56756 -3.11815 0
M  V30 1064 C 97.1614 2.0573 -3.7143 0
M  V30 1065 O 98.1854 1.66637 -3.14818 0
M  V30 1066 O 97.0444 2.77603 -4.70743 0
M  V30 1067 H 94.1384 0.450321 -0.693643 0
M  V30 1068 H 96.6844 0.206219 -1.68442 0
M  V30 1069 H 95.4564 0.803533 -3.82961 0
M  V30 1070 H 95.0794 2.3898 -3.17765 0
M  V30 1071 N 96.0765 1.50051 0.48192 0
M  V30 1072 C 96.9865 1.7089 1.60728 0
M  V30 1073 C 98.0025 0.591788 1.63627 0
M  V30 1074 O 99.1785 0.868817 1.81696 0
M  V30 1075 C 96.2435 1.78855 2.97005 0
M  V30 1076 C 95.3045 3.02537 3.04581 0
M  V30 1077 C 94.5375 3.10112 4.34357 0
M  V30 1078 O 94.7605 2.24765 5.24249 0
M  V30 1079 O 93.6945 4.02747 4.47301 0
M  V30 1080 H 97.5205 2.66264 1.46072 0
M  V30 1081 H 95.1055 1.34018 0.660264 0
M  V30 1082 H 96.9875 1.86336 3.77964 0
M  V30 1083 H 95.6625 0.866628 3.11883 0
M  V30 1084 H 94.5695 3.00563 2.22739 0
M  V30 1085 H 95.9025 3.94272 2.94636 0
M  V30 1086 N 97.5546 -0.734337 1.39446 0
M  V30 1087 C 98.4846 -1.86155 1.40955 0
M  V30 1088 C 99.4656 -1.67898 0.272827 0
M  V30 1089 O 100.651 -1.88207 0.478743 0
M  V30 1090 C 97.7806 -3.23912 1.25294 0
M  V30 1091 C 96.7346 -3.56808 2.36373 0
M  V30 1092 C 96.0606 -4.93508 2.058 0
M  V30 1093 C 97.3606 -3.59713 3.78687 0
M  V30 1094 H 99.0546 -1.8515 2.35287 0
M  V30 1095 H 96.6006 -0.889367 1.13253 0
M  V30 1096 H 98.5536 -4.02443 1.2497 0
M  V30 1097 H 97.2776 -3.25446 0.274308 0
M  V30 1098 H 95.9366 -2.80606 2.35914 0
M  V30 1099 H 95.5846 -4.91623 1.06374 0
M  V30 1100 H 95.2846 -5.16486 2.80208 0
M  V30 1101 H 96.8086 -5.74396 2.07128 0
M  V30 1102 H 98.2226 -4.2832 3.81071 0
M  V30 1103 H 96.6196 -3.94209 4.52459 0
M  V30 1104 H 97.6896 -2.59504 4.09617 0
M  V30 1105 N 99.0327 -1.24633 -0.964593 0
M  V30 1106 C 100.28 -1.08788 -1.70796 0
M  V30 1107 C 100.608 0.372783 -1.90894 0
M  V30 1108 O 99.8627 1.29167 -1.47018 0
M  V30 1109 C 100.162 -1.7763 -3.10133 0
M  V30 1110 C 99.8277 -3.27557 -3.09866 0
M  V30 1111 C 98.4897 -3.6846 -3.09501 0
M  V30 1112 C 100.842 -4.23389 -3.03959 0
M  V30 1113 C 98.1697 -5.03624 -3.00965 0
M  V30 1114 C 100.522 -5.58565 -2.96965 0
M  V30 1115 C 99.1857 -5.98809 -2.9493 0
M  V30 1116 H 98.4557 -0.398084 -0.624988 0
M  V30 1117 H 101.103 -1.54777 -1.12767 0
M  V30 1118 H 99.4077 -1.24044 -3.71645 0
M  V30 1119 H 101.105 -1.62832 -3.66451 0
M  V30 1120 H 97.6947 -2.95006 -3.10917 0
M  V30 1121 H 101.879 -3.92787 -3.03368 0
M  V30 1122 H 97.1347 -5.33998 -2.97752 0
M  V30 1123 H 101.309 -6.32523 -2.91354 0
M  V30 1124 H 98.9357 -7.03505 -2.88071 0
M  V30 1125 N 100.511 1.16574 -1.06058 0
M  V30 1126 C 101.788 1.83048 -0.689416 0
M  V30 1127 C 102.168 1.94122 0.829443 0
M  V30 1128 O 101.516 1.48249 1.7388 0
M  V30 1129 C 101.726 3.20186 -1.38859 0
M  V30 1130 C 103.074 3.95989 -1.53226 0
M  V30 1131 O 104.098 3.29696 -1.3483 0
M  V30 1132 O 102.957 5.14813 -1.83384 0
M  V30 1133 H 100.051 0.790258 -0.243764 0
M  V30 1134 H 102.597 1.23797 -1.16071 0
M  V30 1135 H 101.369 3.07146 -2.4244 0
M  V30 1136 H 100.992 3.87112 -0.907216 0
M  V30 1137 N 101.989 0.842826 1.3317 0
M  V30 1138 C 103.219 0.453397 2.01564 0
M  V30 1139 C 103.627 -0.951147 1.63554 0
M  V30 1140 O 102.97 -1.63021 0.846746 0
M  V30 1141 C 103.032 0.499013 3.5602 0
M  V30 1142 C 102.696 1.86037 4.1742 0
M  V30 1143 C 103.693 2.82416 4.36506 0
M  V30 1144 C 101.378 2.15428 4.53757 0
M  V30 1145 C 103.372 4.06346 4.91082 0
M  V30 1146 C 101.059 3.39615 5.0804 0
M  V30 1147 C 102.057 4.3489 5.26649 0
M  V30 1148 O 101.745 5.5688 5.79776 0
M  V30 1149 H 101.477 0.177871 0.652179 0
M  V30 1150 H 104.031 1.13808 1.70988 0
M  V30 1151 H 102.261 -0.242467 3.85939 0
M  V30 1152 H 103.95 0.126852 4.05702 0
M  V30 1153 H 104.716 2.6101 4.08777 0
M  V30 1154 H 100.595 1.42061 4.38565 0
M  V30 1155 H 104.139 4.80722 5.05522 0
M  V30 1156 H 100.036 3.60876 5.352 0
M  V30 1157 H 100.804 5.58674 5.98185 0
M  V30 1158 N 103.467 -1.45747 0.599634 0
M  V30 1159 C 104.713 -2.03153 0.100263 0
M  V30 1160 C 105.068 -1.46073 -1.25221 0
M  V30 1161 O 104.361 -0.622878 -1.81193 0
M  V30 1162 C 104.555 -3.57399 -0.00602758 0
M  V30 1163 C 104.384 -4.2944 1.3346 0
M  V30 1164 C 103.154 -4.6768 1.91321 0
M  V30 1165 C 105.352 -4.61905 2.2616 0
M  V30 1166 N 103.334 -5.24544 3.18946 0
M  V30 1167 C 104.705 -5.19518 3.3838 0
M  V30 1168 C 106.76 -4.43841 2.25631 0
M  V30 1169 C 105.463 -5.60972 4.50226 0
M  V30 1170 C 107.489 -4.86322 3.36518 0
M  V30 1171 C 106.851 -5.44021 4.4746 0
M  V30 1172 H 102.95 -0.777911 0.0798696 0
M  V30 1173 H 105.534 -1.77674 0.796244 0
M  V30 1174 H 103.705 -3.82556 -0.671212 0
M  V30 1175 H 105.437 -4.01457 -0.51133 0
M  V30 1176 H 102.192 -4.5098 1.44617 0
M  V30 1177 H 102.616 -5.57483 3.84112 0
M  V30 1178 H 107.258 -3.98552 1.41123 0
M  V30 1179 H 104.976 -6.0523 5.35464 0
M  V30 1180 H 108.562 -4.74084 3.37247 0
M  V30 1181 H 107.442 -5.76289 5.31846 0
M  V30 1182 N 104.945 -0.338344 -1.53925 0
M  V30 1183 C 106.192 0.259758 -2.00827 0
M  V30 1184 C 106.52 1.50973 -1.22628 0
M  V30 1185 O 105.775 1.93379 -0.300509 0
M  V30 1186 C 106.074 0.62448 -3.51902 0
M  V30 1187 C 105.74 -0.528006 -4.47798 0
M  V30 1188 C 104.402 -0.844298 -4.73735 0
M  V30 1189 C 106.754 -1.30143 -5.0469 0
M  V30 1190 C 104.082 -1.93648 -5.53821 0
M  V30 1191 C 106.434 -2.38382 -5.85967 0
M  V30 1192 C 105.098 -2.70576 -6.10201 0
M  V30 1193 H 104.368 0.0950523 -0.734878 0
M  V30 1194 H 107.015 -0.465182 -1.85764 0
M  V30 1195 H 105.32 1.43006 -3.64769 0
M  V30 1196 H 107.017 1.09905 -3.85645 0
M  V30 1197 H 103.607 -0.271421 -4.2774 0
M  V30 1198 H 107.791 -1.07033 -4.84621 0
M  V30 1199 H 103.047 -2.19021 -5.70824 0
M  V30 1200 H 107.221 -2.98746 -6.29066 0
M  V30 1201 H 104.848 -3.55333 -6.72044 0
M  V30 1202 N 106.423 1.57458 -0.0668435 0
M  V30 1203 C 107.386 2.11323 0.887422 0
M  V30 1204 C 108.386 1.03618 1.22964 0
M  V30 1205 O 109.576 1.29626 1.16373 0
M  V30 1206 C 106.708 2.61048 2.19242 0
M  V30 1207 H 107.901 2.96942 0.420194 0
M  V30 1208 H 105.454 1.55239 0.181793 0
M  V30 1209 H 106.189 1.78868 2.70512 0
M  V30 1210 H 105.974 3.39769 1.95702 0
M  V30 1211 H 107.464 3.02814 2.87565 0
M  V30 1212 N 107.901 -0.206675 1.56239 0
M  V30 1213 C 108.811 -1.27686 1.96808 0
M  V30 1214 C 109.827 -1.50455 0.874035 0
M  V30 1215 O 111.003 -1.63295 1.17884 0
M  V30 1216 C 108.068 -2.60358 2.28942 0
M  V30 1217 C 107.129 -2.45762 3.51994 0
M  V30 1218 C 106.362 -3.72108 3.82585 0
M  V30 1219 O 106.585 -4.75776 3.14631 0
M  V30 1220 O 105.519 -3.6833 4.76043 0
M  V30 1221 H 109.345 -0.962593 2.88041 0
M  V30 1222 H 106.93 -0.410746 1.43643 0
M  V30 1223 H 108.812 -3.38687 2.50737 0
M  V30 1224 H 107.487 -2.91435 1.4088 0
M  V30 1225 H 106.394 -1.65584 3.35459 0
M  V30 1226 H 107.727 -2.19621 4.40486 0
M  V30 1227 N 109.379 -1.50304 -0.473955 0
M  V30 1228 C 110.625 -1.61389 -1.22806 0
M  V30 1229 C 110.958 -0.311955 -1.91678 0
M  V30 1230 O 110.233 0.686384 -1.81986 0
M  V30 1231 C 110.516 -2.79219 -2.27396 0
M  V30 1232 C 110.369 -4.19286 -1.62848 0
M  V30 1233 C 111.688 -2.92614 -3.28732 0
M  V30 1234 H 108.807 -0.587399 -0.445119 0
M  V30 1235 H 111.449 -1.82681 -0.522265 0
M  V30 1236 H 109.599 -2.61195 -2.87592 0
M  V30 1237 H 111.271 -4.48892 -1.06271 0
M  V30 1238 H 109.514 -4.23677 -0.931693 0
M  V30 1239 H 110.185 -4.97655 -2.38838 0
M  V30 1240 H 112.661 -3.09105 -2.78556 0
M  V30 1241 H 111.537 -3.76688 -3.99246 0
M  V30 1242 H 111.798 -2.03107 -3.92683 0
M  V30 1243 N 110.857 0.726932 -1.39834 0
M  V30 1244 C 111.804 1.841 -1.39197 0
M  V30 1245 C 112.774 1.642 -0.250502 0
M  V30 1246 O 113.959 1.85494 -0.446846 0
M  V30 1247 C 111.099 3.21697 -1.24919 0
M  V30 1248 C 110.212 3.53247 -2.48678 0
M  V30 1249 C 109.347 4.80289 -2.26928 0
M  V30 1250 C 108.386 5.04707 -3.4632 0
M  V30 1251 N 107.523 6.22956 -3.23836 0
M  V30 1252 H 112.363 1.83979 -2.34427 0
M  V30 1253 H 109.9 0.898876 -1.16442 0
M  V30 1254 H 111.858 4.01137 -1.1465 0
M  V30 1255 H 110.488 3.21076 -0.333153 0
M  V30 1256 H 109.54 2.68447 -2.69519 0
M  V30 1257 H 110.852 3.67205 -3.37582 0
M  V30 1258 H 110.006 5.67725 -2.13947 0
M  V30 1259 H 108.745 4.68519 -1.35431 0
M  V30 1260 H 107.75 4.1573 -3.5979 0
M  V30 1261 H 108.975 5.18357 -4.38729 0
M  V30 1262 H 106.921 6.12459 -2.35011 0
M  V30 1263 H 106.838 6.37539 -4.063 0
M  V30 1264 H 108.106 7.1321 -3.14566 0
M  V30 1265 N 112.336 1.25143 0.95797 0
M  V30 1266 C 113.747 1.08851 1.51685 0
M  V30 1267 C 114.098 -0.33687 1.93286 0
M  V30 1268 O 113.223 -1.22644 1.7829 0
M  V30 1269 C 113.818 1.96978 2.75654 0
M  V30 1270 C 112.377 1.84881 3.27866 0
M  V30 1271 C 111.524 1.91329 2.0072 0
M  V30 1272 H 114.475 1.38478 0.77522 0
M  V30 1273 H 114.496 1.5078 3.4935 0
M  V30 1274 H 114.008 3.00712 2.45345 0
M  V30 1275 H 112.109 0.840182 3.63004 0
M  V30 1276 H 112.222 2.6951 3.96107 0
M  V30 1277 H 110.586 1.35174 2.15871 0
M  V30 1278 H 111.369 2.96661 1.72764 0
M  V30 1279 N 113.814 -1.1601 1.06675 0
M  V30 1280 C 115.225 -1.68235 0.809565 0
M  V30 1281 C 115.576 -1.8454 -0.666303 0
M  V30 1282 O 114.701 -1.54374 -1.5165 0
M  V30 1283 C 115.296 -3.05585 1.46299 0
M  V30 1284 C 113.855 -3.54915 1.25349 0
M  V30 1285 C 113.002 -2.30804 1.53703 0
M  V30 1286 H 115.953 -1.00318 1.22971 0
M  V30 1287 H 115.974 -3.70174 0.880431 0
M  V30 1288 H 115.486 -2.93686 2.53713 0
M  V30 1289 H 113.587 -3.72067 0.199261 0
M  V30 1290 H 113.7 -4.36774 1.9689 0
M  V30 1291 H 112.064 -2.36007 0.957739 0
M  V30 1292 H 112.847 -2.21499 2.62284 0
M  V30 1293 N 115.292 -0.849877 -1.32721 0
M  V30 1294 C 116.522 -0.46408 -2.0132 0
M  V30 1295 C 116.93 0.94246 -1.64056 0
M  V30 1296 O 116.273 1.6257 -0.855379 0
M  V30 1297 C 116.335 -0.517887 -3.5575 0
M  V30 1298 C 115.999 -1.88248 -4.16427 0
M  V30 1299 C 116.996 -2.84726 -4.35002 0
M  V30 1300 C 114.681 -2.17832 -4.52609 0
M  V30 1301 C 116.675 -4.08945 -4.8892 0
M  V30 1302 C 114.362 -3.42304 -5.06232 0
M  V30 1303 C 115.36 -4.37677 -5.24335 0
M  V30 1304 O 115.048 -5.59946 -5.76815 0
M  V30 1305 H 114.78 -0.181327 -0.651227 0
M  V30 1306 H 117.334 -1.14713 -1.70382 0
M  V30 1307 H 115.564 0.221997 -3.86062 0
M  V30 1308 H 117.253 -0.148366 -4.05629 0
M  V30 1309 H 118.019 -2.63174 -4.07388 0
M  V30 1310 H 113.898 -1.44385 -4.37806 0
M  V30 1311 H 117.442 -4.83396 -5.02966 0
M  V30 1312 H 113.339 -3.63709 -5.33278 0
M  V30 1313 H 114.107 -5.61838 -5.95214 0
M  V30 1314 N 116.77 1.45427 -0.607355 0
M  V30 1315 C 118.186 1.57283 -0.270985 0
M  V30 1316 C 118.386 1.59875 1.22647 0
M  V30 1317 O 117.442 1.52893 2.00948 0
M  V30 1318 C 118.755 2.85566 -0.941952 0
M  V30 1319 C 120.303 2.9924 -0.917849 0
M  V30 1320 C 120.778 4.30293 -1.56882 0
M  V30 1321 N 122.269 4.37051 -1.5343 0
M  V30 1322 C 123.004 5.37123 -2.00715 0
M  V30 1323 N 122.5 6.43734 -2.56084 0
M  V30 1324 N 124.293 5.28479 -1.91484 0
M  V30 1325 H 116.444 1.41988 -1.57966 0
M  V30 1326 H 118.707 0.67885 -0.661715 0
M  V30 1327 H 118.413 2.8955 -1.99633 0
M  V30 1328 H 118.287 3.74322 -0.465096 0
M  V30 1329 H 120.674 2.94822 0.127984 0
M  V30 1330 H 120.755 2.11895 -1.43297 0
M  V30 1331 H 120.399 4.35469 -2.61398 0
M  V30 1332 H 120.329 5.16454 -1.02873 0
M  V30 1333 H 122.82 3.60615 -1.12982 0
M  V30 1334 H 123.133 7.16341 -2.89958 0
M  V30 1335 H 121.478 6.44485 -2.60122 0
M  V30 1336 H 124.669 4.44098 -1.47967 0
M  V30 1337 H 124.842 6.0632 -2.28648 0
M  V30 1338 N 118.248 0.346503 1.53744 0
M  V30 1339 C 119.664 -0.00530975 1.59599 0
M  V30 1340 C 119.864 -1.48465 1.36236 0
M  V30 1341 O 118.92 -2.24376 1.15808 0
M  V30 1342 C 120.233 0.433516 2.97559 0
M  V30 1343 C 121.781 0.386111 3.10609 0
M  V30 1344 C 122.256 0.800451 4.50951 0
M  V30 1345 N 123.747 0.754753 4.5701 0
M  V30 1346 C 124.482 1.04727 5.63755 0
M  V30 1347 N 123.978 1.4081 6.7834 0
M  V30 1348 N 125.771 0.971316 5.53644 0
M  V30 1349 H 117.922 1.31009 1.67184 0
M  V30 1350 H 120.185 0.534242 0.783128 0
M  V30 1351 H 119.891 1.46509 3.19731 0
M  V30 1352 H 119.765 -0.189753 3.76722 0
M  V30 1353 H 122.152 -0.636295 2.88158 0
M  V30 1354 H 122.233 1.04462 2.33498 0
M  V30 1355 H 121.877 1.82088 4.74137 0
M  V30 1356 H 121.807 0.119386 5.26465 0
M  V30 1357 H 124.298 0.488662 3.74727 0
M  V30 1358 H 124.611 1.61607 7.55714 0
M  V30 1359 H 122.956 1.44657 6.79779 0
M  V30 1360 H 126.147 0.688748 4.63005 0
M  V30 1361 H 126.32 1.20263 6.36742 0
M  V30 1362 N 119.726 -1.57421 0.075193 0
M  V30 1363 C 120.656 -2.15942 -0.888324 0
M  V30 1364 C 121.637 -1.08737 -1.30806 0
M  V30 1365 O 122.822 -1.36787 -1.37851 0
M  V30 1366 C 119.952 -2.72379 -2.1547 0
M  V30 1367 C 118.906 -3.8478 -1.87425 0
M  V30 1368 C 118.232 -4.27834 -3.20721 0
M  V30 1369 C 119.532 -5.08869 -1.17684 0
M  V30 1370 H 121.226 -2.96705 -0.400799 0
M  V30 1371 H 118.772 -1.42723 -0.191342 0
M  V30 1372 H 120.725 -3.11965 -2.83295 0
M  V30 1373 H 119.449 -1.88841 -2.6647 0
M  V30 1374 H 118.108 -3.45703 -1.22004 0
M  V30 1375 H 117.756 -3.41214 -3.6957 0
M  V30 1376 H 117.456 -5.03605 -3.02746 0
M  V30 1377 H 118.98 -4.70039 -3.89738 0
M  V30 1378 H 120.394 -5.4575 -1.75584 0
M  V30 1379 H 118.791 -5.8994 -1.09956 0
M  V30 1380 H 119.861 -4.84648 -0.156453 0
M  V30 1381 N 121.204 0.198386 -1.56346 0
M  V30 1382 C 122.62 0.549085 -1.49857 0
M  V30 1383 C 122.82 1.86016 -0.774611 0
M  V30 1384 O 121.876 2.50416 -0.323776 0
M  V30 1385 C 123.189 0.606868 -2.94512 0
M  V30 1386 C 124.737 0.695925 -3.05165 0
M  V30 1387 C 125.212 0.784848 -4.51225 0
M  V30 1388 N 126.703 0.848463 -4.55363 0
M  V30 1389 C 127.438 0.937378 -5.65686 0
M  V30 1390 N 126.934 0.9888 -6.85707 0
M  V30 1391 N 128.727 0.974312 -5.53592 0
M  V30 1392 H 120.878 -0.661655 -2.01831 0
M  V30 1393 H 123.141 -0.235261 -0.918344 0
M  V30 1394 H 122.847 -0.28732 -3.50524 0
M  V30 1395 H 122.721 1.46268 -3.47686 0
M  V30 1396 H 125.108 1.58055 -2.49204 0
M  V30 1397 H 125.189 -0.186022 -2.55123 0
M  V30 1398 H 124.833 -0.0954072 -5.0781 0
M  V30 1399 H 124.763 1.68255 -4.98997 0
M  V30 1400 H 127.254 0.818103 -3.68938 0
M  V30 1401 H 127.567 1.05707 -7.65536 0
M  V30 1402 H 125.912 0.957534 -6.88372 0
M  V30 1403 H 129.103 0.930954 -4.58749 0
M  V30 1404 H 129.276 1.04015 -6.39597 0
M  V30 1405 N 122.682 1.50554 0.465978 0
M  V30 1406 C 123.912 1.65323 1.23903 0
M  V30 1407 C 124.32 0.338051 1.86155 0
M  V30 1408 O 123.663 -0.690518 1.70228 0
M  V30 1409 C 123.725 2.69048 2.3844 0
M  V30 1410 C 123.389 4.12462 1.96784 0
M  V30 1411 C 124.386 4.98168 1.48745 0
M  V30 1412 C 122.071 4.58407 2.05349 0
M  V30 1413 C 124.065 6.27868 1.0982 0
M  V30 1414 C 121.752 5.88112 1.66035 0
M  V30 1415 C 122.75 6.72668 1.18349 0
M  V30 1416 O 122.438 7.99951 0.795825 0
M  V30 1417 H 122.17 0.558629 0.38067 0
M  V30 1418 H 124.724 1.97561 0.562022 0
M  V30 1419 H 122.954 2.32062 3.09328 0
M  V30 1420 H 124.643 2.72985 3.0039 0
M  V30 1421 H 125.409 4.63885 1.41546 0
M  V30 1422 H 121.288 3.92735 2.41414 0
M  V30 1423 H 124.832 6.93819 0.725293 0
M  V30 1424 H 120.729 6.21914 1.72895 0
M  V30 1425 H 121.497 8.13265 0.924222 0
M  V30 1426 N 124.16 -0.719506 1.40217 0
M  V30 1427 C 125.408 -1.47641 1.3801 0
M  V30 1428 C 125.729 -1.94992 -0.018145 0
M  V30 1429 O 124.999 -1.70073 -0.972207 0
M  V30 1430 H 123.579 -0.547744 0.507923 0
M  V30 1431 H 126.241 -0.853187 1.75233 0
M  V30 1432 H 125.337 -2.35112 2.05253 0
M  V30 1433 N 125.638 -1.25649 -0.95132 0
M  V30 1434 C 126.885 -1.10594 -1.69633 0
M  V30 1435 C 127.213 0.352515 -1.91279 0
M  V30 1436 O 126.468 1.27601 -1.4838 0
M  V30 1437 C 126.767 -1.80909 -3.08231 0
M  V30 1438 C 126.433 -3.30825 -3.06375 0
M  V30 1439 C 125.095 -3.71722 -3.05576 0
M  V30 1440 C 127.447 -4.26589 -2.99452 0
M  V30 1441 C 124.775 -5.06788 -2.95606 0
M  V30 1442 C 127.127 -5.61683 -2.91024 0
M  V30 1443 C 125.791 -6.01904 -2.88562 0
M  V30 1444 H 125.061 -0.404691 -0.620731 0
M  V30 1445 H 127.708 -1.55964 -1.11119 0
M  V30 1446 H 126.013 -1.27979 -3.70309 0
M  V30 1447 H 127.71 -1.6671 -3.64704 0
M  V30 1448 H 124.3 -2.98287 -3.07771 0
M  V30 1449 H 128.484 -3.95982 -2.99185 0
M  V30 1450 H 123.74 -5.37126 -2.92071 0
M  V30 1451 H 127.914 -6.35578 -2.84629 0
M  V30 1452 H 125.541 -7.06521 -2.80593 0
M  V30 1453 N 127.117 1.15442 -1.07289 0
M  V30 1454 C 128.363 1.86489 -0.796846 0
M  V30 1455 C 128.696 1.82078 0.675371 0
M  V30 1456 O 127.971 1.24346 1.4956 0
M  V30 1457 C 128.254 3.35626 -1.30489 0
M  V30 1458 C 128.107 3.48673 -2.84161 0
M  V30 1459 C 129.426 4.30357 -0.920907 0
M  V30 1460 H 126.545 0.677144 -0.290939 0
M  V30 1461 H 129.187 1.35633 -1.33056 0
M  V30 1462 H 127.337 3.79068 -0.850883 0
M  V30 1463 H 129.009 3.14099 -3.37846 0
M  V30 1464 H 127.252 2.90253 -3.22391 0
M  V30 1465 H 127.923 4.53453 -3.14777 0
M  V30 1466 H 130.399 3.94871 -1.3121 0
M  V30 1467 H 129.275 5.33193 -1.30372 0
M  V30 1468 H 129.536 4.4176 0.173226 0
M  V30 1469 N 128.595 0.856903 1.32268 0
M  V30 1470 C 129.525 0.31858 2.31316 0
M  V30 1471 C 130.506 -0.583487 1.59779 0
M  V30 1472 O 131.691 -0.503259 1.87566 0
M  V30 1473 C 128.821 -0.491979 3.43798 0
M  V30 1474 C 127.775 0.315849 4.26833 0
M  V30 1475 C 127.101 -0.619586 5.31098 0
M  V30 1476 C 128.401 1.54282 4.98993 0
M  V30 1477 H 130.095 1.14621 2.76591 0
M  V30 1478 H 127.641 0.552613 1.32974 0
M  V30 1479 H 129.594 -0.879012 4.1213 0
M  V30 1480 H 128.318 -1.35299 2.97257 0
M  V30 1481 H 126.977 0.684664 3.6015 0
M  V30 1482 H 126.625 -1.47751 4.8081 0
M  V30 1483 H 126.325 -0.0830621 5.87541 0
M  V30 1484 H 127.849 -1.00375 6.02293 0
M  V30 1485 H 129.263 1.22796 5.59995 0
M  V30 1486 H 127.66 2.01745 5.65172 0
M  V30 1487 H 128.73 2.30285 4.26728 0
M  V30 1488 N 130.073 -1.45103 0.615059 0
M  V30 1489 C 131.303 -2.06254 0.119596 0
M  V30 1490 C 131.711 -1.4591 -1.20445 0
M  V30 1491 O 131.054 -0.570384 -1.7462 0
M  V30 1492 C 131.116 -3.59396 -0.0865591 0
M  V30 1493 C 130.78 -4.42116 1.15683 0
M  V30 1494 C 131.777 -4.7662 2.07676 0
M  V30 1495 C 129.462 -4.82749 1.38775 0
M  V30 1496 C 131.456 -5.50622 3.21082 0
M  V30 1497 C 129.143 -5.56504 2.52481 0
M  V30 1498 C 130.141 -5.90358 3.43463 0
M  V30 1499 O 129.829 -6.62615 4.55189 0
M  V30 1500 H 129.561 -0.672423 0.0694512 0
M  V30 1501 H 132.115 -1.87219 0.844885 0
M  V30 1502 H 130.345 -3.76859 -0.866823 0
M  V30 1503 H 132.034 -4.02365 -0.534555 0
M  V30 1504 H 132.8 -4.4578 1.91063 0
M  V30 1505 H 128.679 -4.55829 0.688545 0
M  V30 1506 H 132.223 -5.76965 3.92119 0
M  V30 1507 H 128.12 -5.86759 2.69043 0
M  V30 1508 H 128.888 -6.81071 4.53966 0
M  V30 1509 N 131.551 -0.354651 -1.53558 0
M  V30 1510 C 132.776 0.242153 -2.05981 0
M  V30 1511 C 133.201 1.42553 -1.2272 0
M  V30 1512 O 132.559 1.79656 -0.243604 0
M  V30 1513 C 132.607 0.624367 -3.55154 0
M  V30 1514 O 131.711 1.72301 -3.74681 0
M  V30 1515 H 131.052 0.0378432 -0.662921 0
M  V30 1516 H 133.582 -0.512087 -1.98088 0
M  V30 1517 H 133.592 0.898433 -3.97985 0
M  V30 1518 H 132.267 -0.240989 -4.15201 0
M  V30 1519 H 130.844 1.44535 -3.4375 0
M  V30 1520 N 133.029 1.57378 -0.0835403 0
M  V30 1521 C 134.277 1.93547 0.581718 0
M  V30 1522 C 134.598 0.96524 1.69435 0
M  V30 1523 O 133.868 0.0153369 1.95894 0
M  V30 1524 H 132.448 0.714521 0.217874 0
M  V30 1525 H 135.11 1.94366 -0.144158 0
M  V30 1526 H 134.206 2.95665 0.999423 0
M  V30 1527 N 134.507 -0.190092 1.56449 0
M  V30 1528 C 135.417 -1.25591 1.98152 0
M  V30 1529 C 136.433 -1.49519 0.889944 0
M  V30 1530 O 137.609 -1.62036 1.19609 0
M  V30 1531 C 134.674 -2.57916 2.3169 0
M  V30 1532 C 133.735 -2.42015 3.5458 0
M  V30 1533 C 132.968 -3.6803 3.8651 0
M  V30 1534 O 133.191 -4.72413 3.1966 0
M  V30 1535 O 132.125 -3.6326 4.79923 0
M  V30 1536 H 135.951 -0.931988 2.89046 0
M  V30 1537 H 133.536 -0.395488 1.4407 0
M  V30 1538 H 135.418 -3.36008 2.54316 0
M  V30 1539 H 134.093 -2.89925 1.43963 0
M  V30 1540 H 133 -1.62017 3.37196 0
M  V30 1541 H 134.333 -2.14937 4.4279 0
M  V30 1542 N 135.985 -1.50799 -0.457987 0
M  V30 1543 C 136.895 -1.73426 -1.57989 0
M  V30 1544 C 137.911 -0.617745 -1.62665 0
M  V30 1545 O 139.087 -0.897614 -1.80291 0
M  V30 1546 C 136.152 -1.83557 -2.94122 0
M  V30 1547 C 135.213 -3.07345 -2.99729 0
M  V30 1548 C 134.446 -3.16983 -4.29368 0
M  V30 1549 O 134.669 -2.33077 -5.20607 0
M  V30 1550 O 133.603 -4.09812 -4.40837 0
M  V30 1551 H 137.429 -2.68555 -1.41817 0
M  V30 1552 H 135.014 -1.35052 -0.638859 0
M  V30 1553 H 136.896 -1.92326 -3.74952 0
M  V30 1554 H 135.571 -0.916137 -3.10465 0
M  V30 1555 H 134.478 -3.04068 -2.1793 0
M  V30 1556 H 135.811 -3.9891 -2.88326 0
M  V30 1557 N 137.463 0.71206 -1.40597 0
M  V30 1558 C 138.41 1.82613 -1.41142 0
M  V30 1559 C 139.38 1.63925 -0.267903 0
M  V30 1560 O 140.565 1.85009 -0.466495 0
M  V30 1561 C 137.705 3.20354 -1.28324 0
M  V30 1562 C 136.818 3.50589 -2.52411 0
M  V30 1563 C 135.953 4.77855 -2.32009 0
M  V30 1564 C 134.992 5.01005 -3.51654 0
M  V30 1565 N 134.129 6.19487 -3.30425 0
M  V30 1566 H 138.969 1.81482 -2.36365 0
M  V30 1567 H 136.506 0.886475 -1.17388 0
M  V30 1568 H 138.464 3.99899 -1.18899 0
M  V30 1569 H 137.094 3.20705 -0.367189 0
M  V30 1570 H 136.146 2.65573 -2.72351 0
M  V30 1571 H 137.458 3.63604 -3.41458 0
M  V30 1572 H 136.612 5.65424 -2.19956 0
M  V30 1573 H 135.351 4.67056 -1.40392 0
M  V30 1574 H 134.356 4.1189 -3.64179 0
M  V30 1575 H 135.581 5.13674 -4.44202 0
M  V30 1576 H 133.527 6.09932 -2.41494 0
M  V30 1577 H 133.444 6.33194 -4.13039 0
M  V30 1578 H 134.712 7.09834 -3.22113 0
M  V30 1579 N 138.941 1.26152 0.944643 0
M  V30 1580 C 139.871 1.09902 2.06019 0
M  V30 1581 C 140.852 0.00519538 1.70099 0
M  V30 1582 O 142.037 0.176583 1.93396 0
M  V30 1583 C 139.167 0.727562 3.39594 0
M  V30 1584 C 138.121 1.77274 3.89561 0
M  V30 1585 C 137.447 1.25569 5.19747 0
M  V30 1586 C 138.747 3.17357 4.14827 0
M  V30 1587 H 140.441 2.03217 2.19871 0
M  V30 1588 H 137.987 0.978452 1.05652 0
M  V30 1589 H 139.94 0.600777 4.17095 0
M  V30 1590 H 138.664 -0.241287 3.25707 0
M  V30 1591 H 137.323 1.88814 3.14237 0
M  V30 1592 H 136.971 0.276783 5.02238 0
M  V30 1593 H 136.671 1.95433 5.54148 0
M  V30 1594 H 138.195 1.1415 5.99835 0
M  V30 1595 H 139.609 3.08914 4.82954 0
M  V30 1596 H 138.006 3.84781 4.60504 0
M  V30 1597 H 139.076 3.63673 3.20734 0
M  V30 1598 N 140.419 -1.14872 1.07899 0
M  V30 1599 C 141.665 -1.86064 0.806725 0
M  V30 1600 C 141.998 -1.82434 -0.665706 0
M  V30 1601 O 141.273 -1.25138 -1.48899 0
M  V30 1602 C 141.556 -3.34929 1.32267 0
M  V30 1603 C 141.409 -3.47161 2.86006 0
M  V30 1604 C 142.728 -4.29863 0.943717 0
M  V30 1605 H 139.847 -0.675591 0.294526 0
M  V30 1606 H 142.489 -1.34925 1.33773 0
M  V30 1607 H 140.639 -3.78611 0.870974 0
M  V30 1608 H 142.311 -3.12302 3.39507 0
M  V30 1609 H 140.554 -2.88539 3.23925 0
M  V30 1610 H 141.225 -4.51777 3.17177 0
M  V30 1611 H 143.701 -3.9417 1.33302 0
M  V30 1612 H 142.577 -5.32494 1.33198 0
M  V30 1613 H 142.838 -4.41846 -0.149796 0
M  V30 1614 N 141.898 -0.863906 -1.31812 0
M  V30 1615 C 143.128 -0.485406 -2.00817 0
M  V30 1616 C 143.536 0.925007 -1.65046 0
M  V30 1617 O 142.879 1.61653 -0.872574 0
M  V30 1618 C 142.941 -0.555589 -3.55181 0
M  V30 1619 C 142.605 -1.92654 -4.14407 0
M  V30 1620 C 143.602 -2.89324 -4.31958 0
M  V30 1621 C 141.287 -2.2262 -4.50273 0
M  V30 1622 C 143.281 -4.14108 -4.84555 0
M  V30 1623 C 140.968 -3.47654 -5.02573 0
M  V30 1624 C 141.966 -4.43214 -5.19664 0
M  V30 1625 O 141.654 -5.66033 -5.70843 0
M  V30 1626 H 141.386 -0.188224 -0.649267 0
M  V30 1627 H 143.94 -1.16514 -1.69156 0
M  V30 1628 H 142.17 0.181037 -3.86276 0
M  V30 1629 H 143.859 -0.19138 -4.05449 0
M  V30 1630 H 144.625 -2.6748 -4.04573 0
M  V30 1631 H 140.504 -1.4902 -4.3625 0
M  V30 1632 H 144.048 -4.88703 -4.9781 0
M  V30 1633 H 139.945 -3.69345 -5.29391 0
M  V30 1634 H 140.713 -5.6812 -5.89222 0
M  V30 1635 N 143.376 1.44774 -0.622745 0
M  V30 1636 C 144.604 2.06487 -0.130722 0
M  V30 1637 C 145.019 1.46476 1.19123 0
M  V30 1638 O 144.376 0.584502 1.72887 0
M  V30 1639 C 144.427 3.615 -0.000807207 0
M  V30 1640 O 144.148 4.19274 -1.27048 0
M  V30 1641 C 145.649 4.40229 0.520898 0
M  V30 1642 H 142.869 0.666704 -0.0758106 0
M  V30 1643 H 145.413 1.85779 -0.854774 0
M  V30 1644 H 143.568 3.81498 0.673643 0
M  V30 1645 H 143.982 5.12622 -1.1099 0
M  V30 1646 H 145.456 5.49144 0.560838 0
M  V30 1647 H 145.933 4.1108 1.54627 0
M  V30 1648 H 146.539 4.25131 -0.120018 0
M  V30 1649 N 144.854 0.36279 1.53368 0
M  V30 1650 C 145.764 -0.492994 2.29362 0
M  V30 1651 C 146.78 -1.09507 1.35219 0
M  V30 1652 O 147.956 -1.10662 1.68273 0
M  V30 1653 C 145.021 -1.61855 3.066 0
M  V30 1654 C 144.082 -1.04429 4.16405 0
M  V30 1655 C 143.315 -2.11621 4.89951 0
M  V30 1656 O 143.538 -3.32684 4.63333 0
M  V30 1657 O 142.472 -1.74835 5.75948 0
M  V30 1658 H 146.298 0.125331 3.03441 0
M  V30 1659 H 143.883 0.127253 1.48857 0
M  V30 1660 H 145.765 -2.27302 3.54841 0
M  V30 1661 H 144.44 -2.22233 2.3536 0
M  V30 1662 H 143.347 -0.353819 3.72423 0
M  V30 1663 H 144.68 -0.485113 4.89804 0
M  V30 1664 N 146.332 -1.57332 0.0918853 0
M  V30 1665 C 147.279 -2.13847 -0.868211 0
M  V30 1666 C 148.249 -1.05618 -1.28196 0
M  V30 1667 O 149.434 -1.33387 -1.36427 0
M  V30 1668 C 146.574 -2.72062 -2.12312 0
M  V30 1669 C 145.687 -3.94514 -1.7602 0
M  V30 1670 C 144.822 -4.40903 -2.96273 0
M  V30 1671 C 143.861 -5.55953 -2.56092 0
M  V30 1672 N 142.998 -5.97209 -3.69169 0
M  V30 1673 H 147.838 -2.95575 -0.379406 0
M  V30 1674 H 145.375 -1.46048 -0.175606 0
M  V30 1675 H 147.333 -3.03931 -2.858 0
M  V30 1676 H 145.963 -1.93068 -2.58698 0
M  V30 1677 H 145.015 -3.68979 -0.925135 0
M  V30 1678 H 146.327 -4.7802 -1.42472 0
M  V30 1679 H 145.481 -4.74539 -3.78018 0
M  V30 1680 H 144.22 -3.56291 -3.33029 0
M  V30 1681 H 143.225 -5.21948 -1.72773 0
M  V30 1682 H 144.45 -6.42311 -2.20484 0
M  V30 1683 H 142.396 -5.15543 -4.05649 0
M  V30 1684 H 142.313 -6.75504 -3.39456 0
M  V30 1685 H 143.581 -6.35475 -4.51434 0
M  V30 1686 N 147.81 0.181792 -1.56548 0
M  V30 1687 C 149.058 0.89832 -1.81038 0
M  V30 1688 C 149.379 1.83232 -0.667164 0
M  V30 1689 O 148.649 1.93372 0.313673 0
M  V30 1690 H 147.229 0.33471 -0.667816 0
M  V30 1691 H 149.891 0.184116 -1.94028 0
M  V30 1692 H 148.987 1.4815 -2.74696 0
M  V30 1693 N 149.288 1.51039 0.449983 0
M  V30 1694 C 150.535 1.63081 1.20045 0
M  V30 1695 C 150.863 0.341024 1.91487 0
M  V30 1696 O 150.118 -0.674276 1.83717 0
M  V30 1697 C 150.417 2.77556 2.25161 0
M  V30 1698 C 150.083 4.17289 1.70823 0
M  V30 1699 C 148.745 4.55305 1.55725 0
M  V30 1700 C 151.097 5.04536 1.3074 0
M  V30 1701 C 148.425 5.78287 0.989999 0
M  V30 1702 C 150.777 6.28085 0.754482 0
M  V30 1703 C 149.441 6.64885 0.590308 0
M  V30 1704 H 148.711 0.596755 0.439277 0
M  V30 1705 H 151.358 1.85037 0.49333 0
M  V30 1706 H 149.663 2.49771 3.01863 0
M  V30 1707 H 151.36 2.84073 2.83026 0
M  V30 1708 H 147.95 3.8731 1.83546 0
M  V30 1709 H 152.134 4.75782 1.41229 0
M  V30 1710 H 147.39 6.05456 0.850451 0
M  V30 1711 H 151.564 6.95038 0.435324 0
M  V30 1712 H 149.191 7.60055 0.14862 0
M  V30 1713 N 150.766 -0.704594 1.40972 0
M  V30 1714 C 151.996 -1.49138 1.42974 0
M  V30 1715 C 152.404 -1.89175 0.0308406 0
M  V30 1716 O 151.747 -1.56734 -0.958138 0
M  V30 1717 C 151.809 -2.79016 2.26694 0
M  V30 1718 C 151.473 -2.61236 3.74973 0
M  V30 1719 C 152.47 -2.27773 4.67349 0
M  V30 1720 C 150.155 -2.77158 4.18914 0
M  V30 1721 C 152.149 -2.10457 6.01653 0
M  V30 1722 C 149.836 -2.59459 5.53285 0
M  V30 1723 C 150.834 -2.26158 6.4447 0
M  V30 1724 O 150.522 -2.08605 7.76363 0
M  V30 1725 H 150.254 -0.466443 0.489292 0
M  V30 1726 H 152.808 -0.8758 1.85793 0
M  V30 1727 H 151.038 -3.42947 1.78673 0
M  V30 1728 H 152.727 -3.40782 2.20504 0
M  V30 1729 H 153.493 -2.15095 4.34694 0
M  V30 1730 H 149.372 -3.02064 3.48251 0
M  V30 1731 H 152.916 -1.84387 6.72791 0
M  V30 1732 H 148.813 -2.71725 5.85522 0
M  V30 1733 H 149.581 -2.23439 7.87412 0
M  V30 1734 N 152.244 -1.26651 -0.937939 0
M  V30 1735 C 153.491 -1.12387 -1.6845 0
M  V30 1736 C 153.819 0.332208 -1.91642 0
M  V30 1737 O 153.074 1.2602 -1.49725 0
M  V30 1738 C 153.373 -1.84168 -3.06295 0
M  V30 1739 C 153.039 -3.34056 -3.02849 0
M  V30 1740 C 151.701 -3.74942 -3.01616 0
M  V30 1741 C 154.053 -4.29741 -2.9491 0
M  V30 1742 C 151.381 -5.09894 -2.90215 0
M  V30 1743 C 153.733 -5.64738 -2.8505 0
M  V30 1744 C 152.397 -6.0493 -2.82162 0
M  V30 1745 H 151.667 -0.411252 -0.616403 0
M  V30 1746 H 154.314 -1.57134 -1.09459 0
M  V30 1747 H 152.619 -1.319 -3.6893 0
M  V30 1748 H 154.316 -1.70569 -3.62915 0
M  V30 1749 H 150.906 -3.01534 -3.0459 0
M  V30 1750 H 155.09 -3.99133 -2.94969 0
M  V30 1751 H 150.346 -5.40194 -2.86358 0
M  V30 1752 H 154.52 -6.38561 -2.77872 0
M  V30 1753 H 152.147 -7.09457 -2.73084 0
M  V30 1754 N 153.722 1.14298 -1.08507 0
M  V30 1755 C 154.632 2.23027 -0.727753 0
M  V30 1756 C 155.648 1.71952 0.26619 0
M  V30 1757 O 156.824 2.011 0.109882 0
M  V30 1758 C 153.889 3.46403 -0.143541 0
M  V30 1759 C 152.95 4.12413 -1.19223 0
M  V30 1760 C 152.183 5.29899 -0.635798 0
M  V30 1761 O 152.406 5.67796 0.544393 0
M  V30 1762 O 151.34 5.85717 -1.38634 0
M  V30 1763 H 155.166 2.55945 -1.63481 0
M  V30 1764 H 152.751 1.22248 -0.858817 0
M  V30 1765 H 154.633 4.21018 0.179404 0
M  V30 1766 H 153.308 3.15206 0.736659 0
M  V30 1767 H 152.215 3.39667 -1.56772 0
M  V30 1768 H 153.548 4.47718 -2.04474 0
M  V30 1769 N 155.201 0.870884 1.31352 0
M  V30 1770 C 156.447 0.482987 1.96965 0
M  V30 1771 C 156.78 -0.962462 1.68672 0
M  V30 1772 O 156.055 -1.6779 0.98371 0
M  V30 1773 C 156.338 0.741752 3.52378 0
M  V30 1774 C 156.191 2.2368 3.9024 0
M  V30 1775 C 157.51 0.208838 4.39604 0
M  V30 1776 H 154.629 0.176955 0.715441 0
M  V30 1777 H 157.271 1.09229 1.55464 0
M  V30 1778 H 155.421 0.223149 3.87859 0
M  V30 1779 H 157.093 2.82273 3.64856 0
M  V30 1780 H 155.336 2.70901 3.38814 0
M  V30 1781 H 156.007 2.3685 4.98604 0
M  V30 1782 H 158.483 0.652529 4.10952 0
M  V30 1783 H 157.359 0.419336 5.47296 0
M  V30 1784 H 157.62 -0.889275 4.33064 0
M  V30 1785 N 156.679 -1.44442 0.630414 0
M  V30 1786 C 158.09 -1.85434 0.217063 0
M  V30 1787 C 158.441 -1.52748 -1.23136 0
M  V30 1788 O 157.566 -0.965205 -1.93682 0
M  V30 1789 C 158.161 -3.36581 0.387168 0
M  V30 1790 C 156.72 -3.76389 0.0283297 0
M  V30 1791 C 155.867 -2.68296 0.700889 0
M  V30 1792 H 158.818 -1.34919 0.83562 0
M  V30 1793 H 158.839 -3.78657 -0.374086 0
M  V30 1794 H 158.351 -3.60339 1.44144 0
M  V30 1795 H 156.452 -3.58246 -1.02423 0
M  V30 1796 H 156.565 -4.77095 0.437892 0
M  V30 1797 H 154.929 -2.54335 0.136267 0
M  V30 1798 H 155.712 -2.94887 1.75774 0
M  V30 1799 N 158.157 -0.370918 -1.53173 0
M  V30 1800 C 159.385 0.217704 -2.05751 0
M  V30 1801 C 159.8 1.42018 -1.24404 0
M  V30 1802 O 159.157 1.80245 -0.286033 0
M  V30 1803 C 159.208 0.605954 -3.56385 0
M  V30 1804 O 158.929 -0.548734 -4.3465 0
M  V30 1805 C 160.43 1.2524 -4.25241 0
M  V30 1806 H 157.65 0.0371659 -0.66997 0
M  V30 1807 H 160.194 -0.530832 -1.9749 0
M  V30 1808 H 158.349 1.3044 -3.6478 0
M  V30 1809 H 158.763 -0.23376 -5.23979 0
M  V30 1810 H 160.237 1.47458 -5.3194 0
M  V30 1811 H 160.714 2.2143 -3.79296 0
M  V30 1812 H 161.32 0.595233 -4.21114 0
M  V30 1813 N 159.635 1.57281 -0.100228 0
M  V30 1814 C 160.912 1.86014 0.604812 0
M  V30 1815 C 161.292 0.998025 1.86018 0
M  V30 1816 O 160.64 0.0718184 2.28387 0
M  V30 1817 C 160.85 3.36784 0.915278 0
M  V30 1818 C 162.198 4.04957 1.27651 0
M  V30 1819 O 163.222 3.41695 1.00613 0
M  V30 1820 O 162.081 5.16593 1.7831 0
M  V30 1821 H 159.175 0.76942 0.303185 0
M  V30 1822 H 161.721 1.69176 -0.133313 0
M  V30 1823 H 160.493 3.91292 0.0248896 0
M  V30 1824 H 160.116 3.58987 1.70921 0
M  V30 1825 N 161.113 -0.173488 1.56642 0
M  V30 1826 C 162.39 -0.917617 1.7274 0
M  V30 1827 C 162.77 -2.00484 0.661027 0
M  V30 1828 O 162.118 -2.26184 -0.32453 0
M  V30 1829 C 162.328 -1.48433 3.15862 0
M  V30 1830 C 163.676 -1.95809 3.76754 0
M  V30 1831 O 164.7 -1.58231 3.19126 0
M  V30 1832 O 163.559 -2.65024 4.77938 0
M  V30 1833 H 160.653 -0.431772 0.705338 0
M  V30 1834 H 163.199 -0.161487 1.6893 0
M  V30 1835 H 161.971 -0.701715 3.84957 0
M  V30 1836 H 161.594 -2.30471 3.23989 0
M  V30 1837 N 162.591 -1.51276 -0.441967 0
M  V30 1838 C 163.819 -1.67516 -1.21434 0
M  V30 1839 C 164.234 -0.37055 -1.85128 0
M  V30 1840 O 163.591 0.650498 -1.70513 0
M  V30 1841 C 163.642 -2.78748 -2.30177 0
M  V30 1842 O 163.363 -4.04154 -1.69089 0
M  V30 1843 C 164.864 -3.06217 -3.20541 0
M  V30 1844 H 162.084 -0.562276 -0.366178 0
M  V30 1845 H 164.628 -1.97666 -0.524244 0
M  V30 1846 H 162.783 -2.5121 -2.94911 0
M  V30 1847 H 163.197 -4.65894 -2.40922 0
M  V30 1848 H 164.671 -3.8764 -3.92987 0
M  V30 1849 H 165.148 -2.18439 -3.81026 0
M  V30 1850 H 165.754 -3.35397 -2.61513 0
M  V30 1851 N 164.069 0.697108 -1.41344 0
M  V30 1852 C 165.032 1.79281 -1.42797 0
M  V30 1853 C 166.032 1.57607 -0.318837 0
M  V30 1854 O 167.222 1.64309 -0.578642 0
M  V30 1855 C 164.354 3.17632 -1.23785 0
M  V30 1856 H 165.547 1.79385 -2.40335 0
M  V30 1857 H 163.1 0.904582 -1.27464 0
M  V30 1858 H 163.835 3.23167 -0.270814 0
M  V30 1859 H 163.62 3.34765 -2.04144 0
M  V30 1860 H 165.11 3.97617 -1.27633 0
M  V30 1861 N 165.547 1.27147 0.931209 0
M  V30 1862 C 166.777 1.15914 1.71019 0
M  V30 1863 C 167.185 -0.287112 1.87009 0
M  V30 1864 O 166.528 -1.20761 1.38429 0
M  V30 1865 C 166.59 1.76647 3.13107 0
M  V30 1866 C 166.254 3.25807 3.20467 0
M  V30 1867 C 167.251 4.22489 3.02983 0
M  V30 1868 C 164.936 3.66452 3.43538 0
M  V30 1869 C 166.93 5.57794 3.08454 0
M  V30 1870 C 164.617 5.01888 3.48643 0
M  V30 1871 C 165.615 5.97369 3.31119 0
M  V30 1872 O 165.303 7.30337 3.35952 0
M  V30 1873 H 165.035 0.404062 0.54195 0
M  V30 1874 H 167.589 1.68457 1.17521 0
M  V30 1875 H 165.819 1.18578 3.68071 0
M  V30 1876 H 167.508 1.60179 3.72958 0
M  V30 1877 H 168.274 3.92425 2.85004 0
M  V30 1878 H 164.153 2.92611 3.5623 0
M  V30 1879 H 167.697 6.32298 2.94694 0
M  V30 1880 H 163.594 5.31609 3.66145 0
M  V30 1881 H 164.362 7.38739 3.5243 0
M  V30 1882 N 167.025 -1.13721 1.09112 0
M  V30 1883 C 168.255 -1.88499 0.845671 0
M  V30 1884 C 168.663 -1.79218 -0.606432 0
M  V30 1885 O 168.006 -1.1544 -1.42896 0
M  V30 1886 C 168.068 -3.38954 1.19793 0
M  V30 1887 C 167.732 -3.72018 2.65428 0
M  V30 1888 C 168.729 -3.7153 3.63677 0
M  V30 1889 C 166.414 -4.01775 3.01467 0
M  V30 1890 C 168.408 -4.00336 4.95994 0
M  V30 1891 C 166.095 -4.30243 4.33975 0
M  V30 1892 C 167.093 -4.29508 5.31048 0
M  V30 1893 O 166.781 -4.5728 6.61173 0
M  V30 1894 H 166.513 -0.603702 0.304171 0
M  V30 1895 H 169.067 -1.44903 1.45576 0
M  V30 1896 H 167.297 -3.83039 0.530871 0
M  V30 1897 H 168.986 -3.95052 0.932146 0
M  V30 1898 H 169.752 -3.4862 3.37179 0
M  V30 1899 H 165.631 -4.01496 2.26544 0
M  V30 1900 H 169.175 -3.99678 5.71755 0
M  V30 1901 H 165.072 -4.52625 4.60219 0
M  V30 1902 H 165.84 -4.74964 6.66597 0
M  V30 1903 N 168.503 -0.877838 -1.30888 0
M  V30 1904 C 169.75 -0.492696 -1.96415 0
M  V30 1905 C 170.078 0.956671 -1.69346 0
M  V30 1906 O 169.333 1.68993 -0.986913 0
M  V30 1907 C 169.632 -0.705748 -3.50363 0
M  V30 1908 C 169.298 -2.1291 -3.97467 0
M  V30 1909 C 167.96 -2.51834 -4.1004 0
M  V30 1910 C 170.312 -3.05702 -4.22132 0
M  V30 1911 C 167.64 -3.82775 -4.44635 0
M  V30 1912 C 169.992 -4.36166 -4.58194 0
M  V30 1913 C 168.656 -4.74993 -4.68975 0
M  V30 1914 H 167.926 -0.18029 -0.718733 0
M  V30 1915 H 170.573 -1.11233 -1.55883 0
M  V30 1916 H 168.878 -0.00303058 -3.918 0
M  V30 1917 H 170.575 -0.387456 -3.99124 0
M  V30 1918 H 167.165 -1.81694 -3.88182 0
M  V30 1919 H 171.349 -2.76853 -4.11906 0
M  V30 1920 H 166.605 -4.12609 -4.51181 0
M  V30 1921 H 170.779 -5.08111 -4.76231 0
M  V30 1922 H 168.406 -5.76495 -4.95537 0
M  V30 1923 N 169.982 1.44106 -0.638065 0
M  V30 1924 C 171.222 2.03858 -0.148733 0
M  V30 1925 C 171.586 1.49153 1.20903 0
M  V30 1926 O 172.787 2.00452 1.79088 0
M  V30 1927 C 171.058 3.57117 -0.142314 0
M  V30 1928 S 172.617 4.37897 0.281385 0
M  V30 1929 H 169.435 0.708069 -0.0644912 0
M  V30 1930 H 172.037 1.7639 -0.843009 0
M  V30 1931 H 170.741 3.94436 -1.13349 0
M  V30 1932 H 170.272 3.89205 0.572988 0
M  V30 1933 H 172.287 4.72218 1.52395 0
M  V30 1934 N 171.46 0.379036 1.52974 0
M  V30 1935 C 172.707 -0.206421 2.01445 0
M  V30 1936 C 173.035 -1.47668 1.26587 0
M  V30 1937 O 172.29 -1.92514 0.351675 0
M  V30 1938 C 172.589 -0.53096 3.53434 0
M  V30 1939 C 172.255 0.646546 4.46241 0
M  V30 1940 C 170.917 0.969604 4.7133 0
M  V30 1941 C 173.269 1.43479 5.01062 0
M  V30 1942 C 170.597 2.08263 5.48492 0
M  V30 1943 C 172.949 2.53834 5.7944 0
M  V30 1944 C 171.613 2.86659 6.02812 0
M  V30 1945 H 170.883 -0.0755349 0.73714 0
M  V30 1946 H 173.53 0.514271 1.84465 0
M  V30 1947 H 171.835 -1.33285 3.68432 0
M  V30 1948 H 173.532 -0.996417 3.88423 0
M  V30 1949 H 170.122 0.384734 4.2687 0
M  V30 1950 H 174.306 1.19844 4.81613 0
M  V30 1951 H 169.562 2.34078 5.64816 0
M  V30 1952 H 173.736 3.15319 6.20924 0
M  V30 1953 H 171.363 3.73026 6.62387 0
M  V30 1954 N 172.938 -1.57226 0.108567 0
M  V30 1955 C 174.349 -1.8195 -0.418464 0
M  V30 1956 C 174.7 -1.02508 -1.67292 0
M  V30 1957 O 173.825 -0.258496 -2.14851 0
M  V30 1958 C 174.42 -3.30028 -0.765979 0
M  V30 1959 C 172.979 -3.55469 -1.23769 0
M  V30 1960 C 172.126 -2.7625 -0.241106 0
M  V30 1961 H 175.077 -1.55149 0.33384 0
M  V30 1962 H 175.098 -3.44086 -1.62434 0
M  V30 1963 H 174.61 -3.87821 0.147219 0
M  V30 1964 H 172.711 -3.03022 -2.16814 0
M  V30 1965 H 172.824 -4.6408 -1.19022 0
M  V30 1966 H 171.188 -2.44133 -0.72602 0
M  V30 1967 H 171.971 -3.36797 0.665007 0
M  V30 1968 N 174.416 0.165178 -1.56732 0
M  V30 1969 C 175.663 0.880807 -1.8234 0
M  V30 1970 C 175.991 1.81977 -0.686621 0
M  V30 1971 O 175.246 1.92971 0.325697 0
M  V30 1972 C 175.545 1.70405 -3.1416 0
M  V30 1973 C 175.211 0.913475 -4.4155 0
M  V30 1974 C 173.873 0.695303 -4.7615 0
M  V30 1975 C 176.225 0.359349 -5.1996 0
M  V30 1976 C 173.553 -0.0879947 -5.86634 0
M  V30 1977 C 175.905 -0.410893 -6.31264 0
M  V30 1978 C 174.569 -0.639808 -6.64427 0
M  V30 1979 H 173.839 0.32231 -0.667231 0
M  V30 1980 H 176.486 0.145402 -1.90947 0
M  V30 1981 H 174.791 2.50903 -3.00923 0
M  V30 1982 H 176.488 2.26091 -3.31186 0
M  V30 1983 H 173.078 1.09357 -4.14414 0
M  V30 1984 H 177.262 0.515228 -4.93618 0
M  V30 1985 H 172.518 -0.27503 -6.10781 0
M  V30 1986 H 176.692 -0.847494 -6.91224 0
M  V30 1987 H 174.319 -1.24864 -7.49875 0
M  V30 1988 N 175.894 1.51508 0.433938 0
M  V30 1989 C 176.824 1.76016 1.53429 0
M  V30 1990 C 177.805 0.610112 1.58782 0
M  V30 1991 O 178.99 0.853177 1.74455 0
M  V30 1992 C 176.12 1.88831 2.9148 0
M  V30 1993 C 175.074 3.04288 3.00987 0
M  V30 1994 C 174.4 3.0229 4.4105 0
M  V30 1995 C 175.7 4.44193 2.74754 0
M  V30 1996 H 177.394 2.68152 1.33171 0
M  V30 1997 H 174.94 1.29035 0.639214 0
M  V30 1998 H 176.893 2.04559 3.6842 0
M  V30 1999 H 175.617 0.933455 3.12976 0
M  V30 2000 H 174.276 2.8827 2.26486 0
M  V30 2001 H 173.924 2.04576 4.59519 0
M  V30 2002 H 173.624 3.79822 4.4834 0
M  V30 2003 H 175.148 3.20116 5.1996 0
M  V30 2004 H 176.562 4.60544 3.41426 0
M  V30 2005 H 174.959 5.23457 2.9345 0
M  V30 2006 H 176.029 4.53996 1.70339 0
M  V30 2007 N 177.372 -0.689602 1.41712 0
M  V30 2008 C 178.322 -1.79571 1.40493 0
M  V30 2009 C 179.306 -1.58473 0.278409 0
M  V30 2010 O 180.498 -1.69204 0.519532 0
M  V30 2011 C 177.627 -3.17923 1.29536 0
M  V30 2012 C 176.713 -3.44695 2.47075 0
M  V30 2013 N 177.104 -3.42132 3.72531 0
M  V30 2014 C 175.402 -3.75269 2.41017 0
M  V30 2015 C 176.103 -3.67976 4.50521 0
M  V30 2016 N 175.079 -3.88014 3.80718 0
M  V30 2017 H 178.881 -1.75961 2.35404 0
M  V30 2018 H 176.395 -0.889839 1.35851 0
M  V30 2019 H 178.392 -3.97167 1.26745 0
M  V30 2020 H 177.052 -3.22741 0.356153 0
M  V30 2021 H 178.063 -3.22375 4.05333 0
M  V30 2022 H 174.74 -3.87421 1.55599 0
M  V30 2023 H 176.13 -3.7208 5.59469 0
M  V30 2024 N 178.85 -1.27639 -0.924453 0
M  V30 2025 C 180.266 -1.05113 -1.20097 0
M  V30 2026 C 180.466 0.213262 -2.00368 0
M  V30 2027 O 179.522 0.91787 -2.35226 0
M  V30 2028 C 180.835 -2.29244 -1.94596 0
M  V30 2029 C 182.383 -2.34315 -2.07522 0
M  V30 2030 C 182.858 -3.58183 -2.85427 0
M  V30 2031 N 184.349 -3.5876 -2.92994 0
M  V30 2032 C 185.084 -4.51277 -3.53746 0
M  V30 2033 N 184.58 -5.54102 -4.15863 0
M  V30 2034 N 186.373 -4.38894 -3.51181 0
M  V30 2035 H 178.524 -2.08821 -0.388264 0
M  V30 2036 H 180.787 -0.918568 -0.234385 0
M  V30 2037 H 180.493 -3.21301 -1.43034 0
M  V30 2038 H 180.367 -2.34816 -2.95197 0
M  V30 2039 H 182.754 -1.42762 -2.58269 0
M  V30 2040 H 182.835 -2.32744 -1.06131 0
M  V30 2041 H 182.479 -4.50074 -2.35363 0
M  V30 2042 H 182.409 -3.57006 -3.8711 0
M  V30 2043 H 184.9 -2.84398 -2.4885 0
M  V30 2044 H 185.213 -6.20859 -4.60168 0
M  V30 2045 H 183.558 -5.57941 -4.144 0
M  V30 2046 H 186.749 -3.57772 -3.01856 0
M  V30 2047 H 186.922 -5.11186 -3.98237 0
M  V30 2048 N 180.328 1.1314 -1.09713 0
M  V30 2049 C 181.574 1.84757 -0.836224 0
M  V30 2050 C 181.907 1.8347 0.636598 0
M  V30 2051 O 181.182 1.27491 1.46889 0
M  V30 2052 C 181.465 3.32782 -1.37578 0
M  V30 2053 C 181.318 3.42567 -2.91493 0
M  V30 2054 C 182.637 4.28307 -1.01198 0
M  V30 2055 H 179.756 0.67082 -0.305236 0
M  V30 2056 H 182.398 1.3278 -1.35903 0
M  V30 2057 H 180.548 3.77177 -0.931097 0
M  V30 2058 H 182.22 3.06862 -3.44432 0
M  V30 2059 H 180.463 2.83349 -3.28475 0
M  V30 2060 H 181.134 4.46674 -3.24324 0
M  V30 2061 H 183.61 3.91999 -1.39556 0
M  V30 2062 H 182.486 5.30307 -1.41653 0
M  V30 2063 H 182.747 4.42029 0.0794833 0
M  V30 2064 N 181.806 0.884767 1.30421 0
M  V30 2065 C 183.083 0.423185 1.90967 0
M  V30 2066 C 183.463 -1.09605 1.80416 0
M  V30 2067 O 182.811 -1.93126 1.22125 0
M  V30 2068 C 183.021 0.921056 3.36627 0
M  V30 2069 C 184.369 0.955903 4.137 0
M  V30 2070 O 185.393 0.867706 3.4547 0
M  V30 2071 O 184.252 1.08614 5.35598 0
M  V30 2072 H 181.346 0.129369 0.816819 0
M  V30 2073 H 183.892 0.973653 1.3899 0
M  V30 2074 H 182.664 1.96489 3.3839 0
M  V30 2075 H 182.287 0.349741 3.96059 0
M  V30 2076 N 183.284 -1.43765 0.645699 0
M  V30 2077 C 184.214 -2.33471 -0.0370477 0
M  V30 2078 C 185.195 -1.49042 -0.819779 0
M  V30 2079 O 186.38 -1.77726 -0.782758 0
M  V30 2080 C 183.51 -3.32311 -1.0093 0
M  V30 2081 C 182.464 -4.2667 -0.337201 0
M  V30 2082 C 181.79 -5.1549 -1.42037 0
M  V30 2083 C 183.09 -5.16657 0.765706 0
M  V30 2084 H 184.784 -2.90809 0.712069 0
M  V30 2085 H 182.33 -1.39834 0.343876 0
M  V30 2086 H 184.283 -3.9396 -1.49578 0
M  V30 2087 H 183.007 -2.73213 -1.78948 0
M  V30 2088 H 181.666 -3.66374 0.128771 0
M  V30 2089 H 181.314 -4.52735 -2.1918 0
M  V30 2090 H 181.014 -5.79438 -0.975966 0
M  V30 2091 H 182.538 -5.80012 -1.90838 0
M  V30 2092 H 183.952 -5.72158 0.361702 0
M  V30 2093 H 182.349 -5.89286 1.13413 0
M  V30 2094 H 183.419 -4.56796 1.62683 0
M  V30 2095 N 184.763 -0.387143 -1.52771 0
M  V30 2096 C 186.01 0.195735 -2.01552 0
M  V30 2097 C 186.338 1.46995 -1.27369 0
M  V30 2098 O 185.593 1.92325 -0.361879 0
M  V30 2099 C 185.892 0.512209 -3.53711 0
M  V30 2100 C 185.558 -0.670202 -4.45891 0
M  V30 2101 C 184.22 -0.994586 -4.70809 0
M  V30 2102 C 186.572 -1.46134 -5.00294 0
M  V30 2103 C 183.9 -2.11169 -5.4738 0
M  V30 2104 C 186.252 -2.56903 -5.78086 0
M  V30 2105 C 184.916 -2.89852 -6.01284 0
M  V30 2106 H 184.186 0.0716246 -0.73753 0
M  V30 2107 H 186.833 -0.524046 -1.8419 0
M  V30 2108 H 185.138 1.31329 -3.69134 0
M  V30 2109 H 186.835 0.975804 -3.88946 0
M  V30 2110 H 183.425 -0.407366 -4.2666 0
M  V30 2111 H 187.609 -1.22397 -4.80971 0
M  V30 2112 H 182.865 -2.3707 -5.63567 0
M  V30 2113 H 187.039 -3.18608 -6.19243 0
M  V30 2114 H 184.666 -3.76533 -6.60399 0
M  V30 2115 N 186.241 1.57166 -0.116904 0
M  V30 2116 C 187.151 2.18745 0.847812 0
M  V30 2117 C 188.167 1.163 1.29423 0
M  V30 2118 O 189.343 1.48761 1.35765 0
M  V30 2119 C 186.408 2.77307 2.0809 0
M  V30 2120 C 185.469 3.94781 1.68661 0
M  V30 2121 C 184.702 4.50541 2.86091 0
M  V30 2122 O 184.925 4.05202 4.01456 0
M  V30 2123 O 183.859 5.41256 2.63298 0
M  V30 2124 H 187.685 3.01632 0.353778 0
M  V30 2125 H 185.27 1.49005 0.108599 0
M  V30 2126 H 187.152 3.14647 2.80313 0
M  V30 2127 H 185.827 1.97452 2.56504 0
M  V30 2128 H 184.734 3.62214 0.935518 0
M  V30 2129 H 186.067 4.76065 1.24991 0
M  V30 2130 N 187.719 -0.156864 1.56817 0
M  V30 2131 C 188.682 -1.17781 1.96622 0
M  V30 2132 C 189.682 -1.36401 0.851555 0
M  V30 2133 O 190.872 -1.33561 1.11836 0
M  V30 2134 C 188.004 -2.54008 2.27361 0
M  V30 2135 H 189.197 -0.836564 2.87996 0
M  V30 2136 H 186.75 -0.39985 1.51099 0
M  V30 2137 H 187.485 -2.9312 1.38748 0
M  V30 2138 H 187.27 -2.41856 3.08623 0
M  V30 2139 H 188.76 -3.27558 2.59029 0
M  V30 2140 N 189.197 -1.51736 -0.425897 0
M  V30 2141 C 190.608 -1.5732 -1.00536 0
M  V30 2142 C 190.959 -0.403537 -1.92005 0
M  V30 2143 O 190.084 0.478256 -2.11049 0
M  V30 2144 C 190.679 -2.85119 -1.8301 0
M  V30 2145 C 189.238 -2.93236 -2.35987 0
M  V30 2146 C 188.385 -2.52098 -1.15508 0
M  V30 2147 H 191.336 -1.57348 -0.206739 0
M  V30 2148 H 191.357 -2.69526 -2.68581 0
M  V30 2149 H 190.869 -3.7023 -1.16411 0
M  V30 2150 H 188.97 -2.12581 -3.06007 0
M  V30 2151 H 189.083 -3.9713 -2.68001 0
M  V30 2152 H 187.447 -2.05558 -1.50393 0
M  V30 2153 H 188.23 -3.39565 -0.505014 0
M  V30 2154 N 190.675 0.682077 -1.42076 0
M  V30 2155 C 191.952 1.43755 -1.32642 0
M  V30 2156 C 192.332 2.11063 0.0396611 0
M  V30 2157 O 191.68 2.02701 1.05474 0
M  V30 2158 C 191.89 2.44596 -2.48946 0
M  V30 2159 C 193.238 3.09454 -2.9073 0
M  V30 2160 O 194.262 2.54922 -2.48783 0
M  V30 2161 O 193.121 4.08253 -3.63307 0
M  V30 2162 H 190.215 0.640857 -0.522715 0
M  V30 2163 H 192.761 0.711415 -1.54068 0
M  V30 2164 H 191.533 1.93609 -3.40046 0
M  V30 2165 H 191.156 3.24701 -2.29467 0
M  V30 2166 N 192.153 1.28127 0.917671 0
M  V30 2167 C 193.399 1.16232 1.66918 0
M  V30 2168 C 193.754 -0.28701 1.90247 0
M  V30 2169 O 193.047 -1.20586 1.48895 0
M  V30 2170 C 193.241 1.89018 3.03327 0
M  V30 2171 C 193.07 3.4088 2.9331 0
M  V30 2172 C 191.84 4.10214 2.95047 0
M  V30 2173 C 194.038 4.36689 2.71675 0
M  V30 2174 N 192.02 5.48571 2.75577 0
M  V30 2175 C 193.391 5.62382 2.6101 0
M  V30 2176 C 195.446 4.26661 2.56641 0
M  V30 2177 C 194.149 6.79189 2.36843 0
M  V30 2178 C 196.175 5.432 2.33853 0
M  V30 2179 C 195.537 6.67855 2.23939 0
M  V30 2180 H 191.636 0.48024 0.617166 0
M  V30 2181 H 194.22 1.61727 1.08409 0
M  V30 2182 H 192.391 1.45963 3.59929 0
M  V30 2183 H 194.123 1.69541 3.67475 0
M  V30 2184 H 190.878 3.61762 3.05655 0
M  V30 2185 H 191.302 6.21287 2.68945 0
M  V30 2186 H 195.944 3.30998 2.63059 0
M  V30 2187 H 193.662 7.74926 2.29164 0
M  V30 2188 H 197.248 5.37328 2.23091 0
M  V30 2189 H 196.128 7.56511 2.06546 0
M  V30 2190 N 193.631 -1.12557 1.10312 0
M  V30 2191 C 194.877 -1.84311 0.846011 0
M  V30 2192 C 195.21 -1.83805 -0.626859 0
M  V30 2193 O 194.485 -1.28268 -1.46211 0
M  V30 2194 C 194.768 -3.32048 1.39341 0
M  V30 2195 C 194.621 -3.41016 2.93305 0
M  V30 2196 C 195.94 -4.27764 1.03468 0
M  V30 2197 H 193.059 -0.669192 0.30879 0
M  V30 2198 H 195.701 -1.32057 1.36605 0
M  V30 2199 H 193.851 -3.76678 0.951087 0
M  V30 2200 H 195.523 -3.05031 3.46055 0
M  V30 2201 H 193.766 -2.81603 3.29973 0
M  V30 2202 H 194.437 -4.44948 3.26689 0
M  V30 2203 H 196.913 -3.91253 1.41633 0
M  V30 2204 H 195.789 -5.29549 1.44463 0
M  V30 2205 H 196.05 -4.42064 -0.0560404 0
M  V30 2206 N 195.109 -0.891671 -1.2995 0
M  V30 2207 C 196.056 -0.361736 -2.27948 0
M  V30 2208 C 197.026 0.551761 -1.56668 0
M  V30 2209 O 198.211 0.478736 -1.84696 0
M  V30 2210 C 195.351 0.411825 -3.42634 0
M  V30 2211 C 194.464 -0.531651 -4.28716 0
M  V30 2212 C 193.599 0.258167 -5.30572 0
M  V30 2213 C 192.638 -0.680349 -6.08307 0
M  V30 2214 N 191.775 0.0745613 -7.0206 0
M  V30 2215 H 196.615 -1.20254 -2.72659 0
M  V30 2216 H 194.152 -0.604352 -1.34112 0
M  V30 2217 H 196.11 0.876304 -4.07893 0
M  V30 2218 H 194.74 1.21715 -2.98974 0
M  V30 2219 H 193.792 -1.11463 -3.63703 0
M  V30 2220 H 195.104 -1.25038 -4.82874 0
M  V30 2221 H 194.258 0.784204 -6.0161 0
M  V30 2222 H 192.997 1.01008 -4.77126 0
M  V30 2223 H 192.002 -1.21796 -5.3614 0
M  V30 2224 H 193.227 -1.43145 -6.63842 0
M  V30 2225 H 191.173 0.808883 -6.50994 0
M  V30 2226 H 191.09 -0.584409 -7.53738 0
M  V30 2227 H 192.358 0.581123 -7.77331 0
M  V30 2228 N 196.587 1.43421 -0.653314 0
M  V30 2229 C 197.864 1.95361 -0.0966581 0
M  V30 2230 C 198.244 1.59461 1.38331 0
M  V30 2231 O 197.592 0.879777 2.10884 0
M  V30 2232 C 197.802 3.47311 -0.342988 0
M  V30 2233 C 199.15 4.23875 -0.24798 0
M  V30 2234 O 200.174 3.55133 -0.275553 0
M  V30 2235 O 199.033 5.4623 -0.171771 0
M  V30 2236 H 196.127 0.826945 0.00956291 0
M  V30 2237 H 198.673 1.5336 -0.726558 0
M  V30 2238 H 197.445 3.66569 -1.36906 0
M  V30 2239 H 197.068 3.9631 0.319975 0
M  V30 2240 N 198.065 0.39524 1.52563 0
M  V30 2241 C 199.293 -0.184943 2.06072 0
M  V30 2242 C 199.708 -1.40021 1.26647 0
M  V30 2243 O 199.065 -1.79767 0.314672 0
M  V30 2244 C 199.116 -0.549179 3.57304 0
M  V30 2245 O 198.837 0.617813 4.33722 0
M  V30 2246 C 200.338 -1.18459 4.2718 0
M  V30 2247 H 197.558 -0.0265025 0.670476 0
M  V30 2248 H 200.102 0.562184 1.96621 0
M  V30 2249 H 198.257 -1.2462 3.66809 0
M  V30 2250 H 198.671 0.317091 5.23541 0
M  V30 2251 H 200.145 -1.38976 5.34219 0
M  V30 2252 H 200.622 -2.15368 3.82771 0
M  V30 2253 H 201.228 -0.528163 4.22008 0
M  V30 2254 N 199.544 -1.57102 0.125237 0
M  V30 2255 C 200.79 -1.95697 -0.532035 0
M  V30 2256 C 201.123 -1.009 -1.6593 0
M  V30 2257 O 200.398 -0.047347 -1.94442 0
M  V30 2258 C 200.681 -3.44181 -1.05884 0
M  V30 2259 C 200.534 -4.49752 0.0654392 0
M  V30 2260 C 201.853 -3.94655 -1.9477 0
M  V30 2261 H 198.972 -0.711571 -0.191925 0
M  V30 2262 H 201.614 -1.88923 0.20206 0
M  V30 2263 H 199.764 -3.50085 -1.68442 0
M  V30 2264 H 201.436 -4.55943 0.700982 0
M  V30 2265 H 199.679 -4.27653 0.727709 0
M  V30 2266 H 200.35 -5.50924 -0.344505 0
M  V30 2267 H 202.826 -3.91094 -1.42074 0
M  V30 2268 H 201.702 -4.99057 -2.28546 0
M  V30 2269 H 201.963 -3.35718 -2.87656 0
M  V30 2270 N 201.022 0.148545 -1.56898 0
M  V30 2271 C 202.268 0.857877 -1.84424 0
M  V30 2272 C 202.623 1.7886 -0.709006 0
M  V30 2273 O 201.916 1.89344 0.293139 0
M  V30 2274 C 202.11 1.67064 -3.1595 0
M  V30 2275 C 201.939 0.82011 -4.42159 0
M  V30 2276 C 200.709 0.486328 -5.02954 0
M  V30 2277 C 202.907 0.151155 -5.14078 0
M  V30 2278 N 200.889 -0.377956 -6.12735 0
M  V30 2279 C 202.26 -0.573333 -6.17343 0
M  V30 2280 C 204.315 0.0716685 -4.97848 0
M  V30 2281 C 203.018 -1.3698 -7.06137 0
M  V30 2282 C 205.044 -0.711532 -5.87104 0
M  V30 2283 C 204.406 -1.42431 -6.8985 0
M  V30 2284 H 200.505 0.291798 -0.725519 0
M  V30 2285 H 203.089 0.123347 -1.94309 0
M  V30 2286 H 201.26 2.37642 -3.07215 0
M  V30 2287 H 202.992 2.32302 -3.31388 0
M  V30 2288 H 199.747 0.821753 -4.66416 0
M  V30 2289 H 200.171 -0.801077 -6.72244 0
M  V30 2290 H 204.813 0.608381 -4.184 0
M  V30 2291 H 202.531 -1.91778 -7.85014 0
M  V30 2292 H 206.117 -0.775005 -5.76615 0
M  V30 2293 H 204.997 -2.02061 -7.57721 0
M  V30 2294 N 202.5 1.5196 0.417844 0
M  V30 2295 C 203.73 1.69181 1.18581 0
M  V30 2296 C 204.138 0.397104 1.84986 0
M  V30 2297 O 203.481 -0.636011 1.72339 0
M  V30 2298 C 203.543 2.76497 2.29759 0
M  V30 2299 C 203.207 4.18514 1.83563 0
M  V30 2300 C 204.204 5.02648 1.32821 0
M  V30 2301 C 201.889 4.64708 1.90661 0
M  V30 2302 C 203.883 6.31044 0.897894 0
M  V30 2303 C 201.57 5.93096 1.47241 0
M  V30 2304 C 202.568 6.76093 0.968891 0
M  V30 2305 O 202.256 8.02078 0.540924 0
M  V30 2306 H 201.988 0.570457 0.362705 0
M  V30 2307 H 204.542 1.99249 0.498885 0
M  V30 2308 H 202.772 2.41786 3.01789 0
M  V30 2309 H 204.461 2.82403 2.91553 0
M  V30 2310 H 205.227 4.68154 1.26716 0
M  V30 2311 H 201.106 4.00216 2.28797 0
M  V30 2312 H 204.65 6.95776 0.504192 0
M  V30 2313 H 200.547 6.271 1.53022 0
M  V30 2314 H 201.315 8.15794 0.66502 0
M  V30 2315 N 203.978 -0.674533 1.42435 0
M  V30 2316 C 204.91 -1.80005 1.41883 0
M  V30 2317 C 205.923 -1.59667 0.31787 0
M  V30 2318 O 207.112 -1.68781 0.580973 0
M  V30 2319 C 204.212 -3.17114 1.19549 0
M  V30 2320 C 203.385 -3.64299 2.42084 0
M  V30 2321 C 202.444 -4.80142 2.15291 0
M  V30 2322 O 201.47 -4.90673 2.88493 0
M  V30 2323 N 202.672 -5.68869 1.1562 0
M  V30 2324 H 205.437 -1.80964 2.38898 0
M  V30 2325 H 202.998 -0.857633 1.37318 0
M  V30 2326 H 204.99 -3.92267 0.995417 0
M  V30 2327 H 203.56 -3.11053 0.310569 0
M  V30 2328 H 202.78 -2.79822 2.77657 0
M  V30 2329 H 204.068 -3.92567 3.23679 0
M  V30 2330 H 203.466 -5.63012 0.550765 0
M  V30 2331 H 202.023 -6.43833 1.016 0
M  V30 2332 N 205.456 -1.28612 -0.910864 0
M  V30 2333 C 206.705 -1.15311 -1.65488 0
M  V30 2334 C 207.018 0.296999 -1.93332 0
M  V30 2335 O 208.224 0.551168 -2.65847 0
M  V30 2336 C 206.68 -2.01599 -2.98137 0
M  V30 2337 C 206.288 -3.51367 -2.7793 0
M  V30 2338 C 208.032 -1.96993 -3.76024 0
M  V30 2339 C 205.939 -4.29797 -4.06237 0
M  V30 2340 H 204.869 -0.42796 -0.620779 0
M  V30 2341 H 207.52 -1.53166 -1.01057 0
M  V30 2342 H 205.902 -1.56603 -3.63719 0
M  V30 2343 H 207.076 -4.0434 -2.21011 0
M  V30 2344 H 205.391 -3.57529 -2.13452 0
M  V30 2345 H 207.988 -2.52856 -4.71135 0
M  V30 2346 H 208.331 -0.94733 -4.05378 0
M  V30 2347 H 208.864 -2.39973 -3.17266 0
M  V30 2348 H 205.603 -5.32648 -3.82055 0
M  V30 2349 H 205.123 -3.81596 -4.62757 0
M  V30 2350 H 206.802 -4.39869 -4.74473 0
M  V30 2351 N 206.934 1.1197 -1.10907 0
M  V30 2352 C 208.181 1.83588 -0.854507 0
M  V30 2353 C 208.509 1.84357 0.6199 0
M  V30 2354 O 207.764 1.28809 1.47332 0
M  V30 2355 C 208.063 3.30749 -1.35425 0
M  V30 2356 C 207.729 3.50146 -2.84093 0
M  V30 2357 C 206.391 3.55148 -3.2469 0
M  V30 2358 C 208.743 3.56857 -3.79872 0
M  V30 2359 C 206.071 3.6441 -4.59806 0
M  V30 2360 C 208.423 3.6765 -5.14797 0
M  V30 2361 C 207.087 3.7091 -5.54961 0
M  V30 2362 H 206.357 0.671795 -0.312686 0
M  V30 2363 H 209.004 1.32091 -1.38652 0
M  V30 2364 H 207.309 3.84703 -0.742361 0
M  V30 2365 H 209.006 3.8464 -1.1337 0
M  V30 2366 H 205.596 3.46919 -2.51685 0
M  V30 2367 H 209.78 3.52258 -3.49611 0
M  V30 2368 H 205.036 3.65208 -4.9034 0
M  V30 2369 H 209.21 3.71786 -5.88853 0
M  V30 2370 H 206.837 3.7784 -6.59652 0
M  V30 2371 N 208.412 0.89855 1.29475 0
M  V30 2372 C 209.823 0.572537 1.77705 0
M  V30 2373 C 210.174 -0.911778 1.73727 0
M  V30 2374 O 209.299 -1.71288 1.32247 0
M  V30 2375 C 209.894 1.03252 3.22683 0
M  V30 2376 C 208.453 0.757687 3.68695 0
M  V30 2377 C 207.6 1.20787 2.49612 0
M  V30 2378 H 210.551 1.08139 1.16153 0
M  V30 2379 H 210.572 0.367307 3.78723 0
M  V30 2380 H 210.084 2.11285 3.25546 0
M  V30 2381 H 208.185 -0.310079 3.71308 0
M  V30 2382 H 208.298 1.35476 4.59547 0
M  V30 2383 H 206.662 0.626888 2.46865 0
M  V30 2384 H 207.445 2.29622 2.55203 0
M  V30 2385 N 209.89 -1.43072 0.660911 0
M  V30 2386 C 210.8 -2.34585 -0.0264163 0
M  V30 2387 C 211.816 -1.54316 -0.803898 0
M  V30 2388 O 212.992 -1.86939 -0.749391 0
M  V30 2389 C 210.057 -3.32689 -0.975639 0
M  V30 2390 C 209.118 -4.2886 -0.194236 0
M  V30 2391 C 208.351 -5.22278 -1.09825 0
M  V30 2392 O 208.574 -5.20299 -2.33763 0
M  V30 2393 O 207.508 -5.99228 -0.566513 0
M  V30 2394 H 211.334 -2.94869 0.727034 0
M  V30 2395 H 208.919 -1.43342 0.42111 0
M  V30 2396 H 210.801 -3.92995 -1.52094 0
M  V30 2397 H 209.476 -2.74898 -1.70918 0
M  V30 2398 H 208.383 -3.72011 0.394835 0
M  V30 2399 H 209.716 -4.89655 0.499899 0
M  V30 2400 N 211.368 -0.403325 -1.52352 0
M  V30 2401 C 212.784 -0.0539281 -1.59509 0
M  V30 2402 C 212.984 1.43307 -1.41652 0
M  V30 2403 O 212.04 2.19924 -1.24056 0
M  V30 2404 C 213.353 -0.543654 -2.95745 0
M  V30 2405 C 214.901 -0.501125 -3.08962 0
M  V30 2406 C 215.376 -0.967267 -4.47669 0
M  V30 2407 N 216.867 -0.923849 -4.53893 0
M  V30 2408 C 217.602 -1.25578 -5.5948 0
M  V30 2409 N 217.098 -1.65889 -6.72646 0
M  V30 2410 N 218.891 -1.17613 -5.49658 0
M  V30 2411 H 211.042 -1.37123 -1.62206 0
M  V30 2412 H 213.305 -0.56294 -0.76276 0
M  V30 2413 H 213.011 -1.58275 -3.14073 0
M  V30 2414 H 212.885 0.0498042 -3.77167 0
M  V30 2415 H 215.272 0.528909 -2.90321 0
M  V30 2416 H 215.353 -1.13056 -2.2946 0
M  V30 2417 H 214.997 -1.9956 -4.67053 0
M  V30 2418 H 214.927 -0.314698 -5.25659 0
M  V30 2419 H 217.418 -0.627403 -3.72655 0
M  V30 2420 H 217.731 -1.89543 -7.49195 0
M  V30 2421 H 216.076 -1.69787 -6.73942 0
M  V30 2422 H 219.267 -0.860115 -4.6013 0
M  V30 2423 H 219.44 -1.43812 -6.3184 0
M  V30 2424 N 212.846 1.57033 -0.133567 0
M  V30 2425 C 214.093 1.95686 0.520877 0
M  V30 2426 C 214.421 1.0177 1.6575 0
M  V30 2427 O 213.676 0.0443195 1.9565 0
M  V30 2428 C 213.975 3.40674 1.08057 0
M  V30 2429 C 213.641 4.50855 0.0637899 0
M  V30 2430 C 212.303 4.80716 -0.215757 0
M  V30 2431 C 214.655 5.17398 -0.62835 0
M  V30 2432 C 211.983 5.74433 -1.19348 0
M  V30 2433 C 214.335 6.12167 -1.5948 0
M  V30 2434 C 212.999 6.40414 -1.88218 0
M  V30 2435 H 212.269 0.716067 0.190602 0
M  V30 2436 H 214.916 1.9026 -0.217556 0
M  V30 2437 H 213.221 3.42865 1.89606 0
M  V30 2438 H 214.918 3.67902 1.59529 0
M  V30 2439 H 211.508 4.27605 0.291855 0
M  V30 2440 H 215.692 4.94472 -0.425562 0
M  V30 2441 H 210.948 5.94616 -1.42272 0
M  V30 2442 H 215.122 6.6281 -2.13671 0
M  V30 2443 H 212.749 7.12838 -2.64133 0
M  V30 2444 N 214.325 -0.140222 1.56975 0
M  V30 2445 C 215.288 -1.15689 1.97861 0
M  V30 2446 C 216.288 -1.3549 0.865974 0
M  V30 2447 O 217.478 -1.32367 1.13246 0
M  V30 2448 C 214.61 -2.51582 2.30042 0
M  V30 2449 H 215.803 -0.805971 2.88867 0
M  V30 2450 H 213.356 -0.383801 1.51515 0
M  V30 2451 H 214.091 -2.91632 1.41849 0
M  V30 2452 H 213.876 -2.38569 3.11171 0
M  V30 2453 H 215.366 -3.24792 2.62488 0
M  V30 2454 N 215.803 -1.52179 -0.40978 0
M  V30 2455 C 216.751 -1.76086 -1.51975 0
M  V30 2456 C 217.745 -0.627964 -1.57331 0
M  V30 2457 O 218.951 -0.809993 -1.60745 0
M  V30 2458 H 215.326 -0.556829 -0.505416 0
M  V30 2459 H 217.297 -2.69077 -1.28996 0
M  V30 2460 C 216.046 -1.92799 -2.8935 0
M  V30 2461 H 215.369 -2.79392 -2.85972 0
M  V30 2462 H 216.809 -2.13527 -3.66309 0
M  V30 2463 C 215.268 -0.694923 -3.29655 0
M  V30 2464 O 215.798 0.13751 -4.01465 0
M  V30 2465 N 214.004 -0.53101 -2.85707 0
M  V30 2466 H 213.551 -1.20952 -2.27439 0
M  V30 2467 H 213.509 0.292718 -3.13034 0
M  V30 2468 N 217.281 0.66697 -1.42791 0
M  V30 2469 C 218.529 1.42417 -1.43394 0
M  V30 2470 C 218.85 1.94925 -0.0542373 0
M  V30 2471 O 218.12 1.73564 0.908415 0
M  V30 2472 H 216.7 0.528515 -0.527902 0
M  V30 2473 H 219.362 0.787562 -1.78279 0
M  V30 2474 H 218.458 2.27333 -2.13837 0
M  V30 2475 N 218.759 1.29093 0.90403 0
M  V30 2476 C 219.707 1.13727 2.02901 0
M  V30 2477 C 220.701 0.0539853 1.69314 0
M  V30 2478 O 221.907 0.213469 1.7873 0
M  V30 2479 H 218.282 0.35117 0.664969 0
M  V30 2480 H 220.253 2.08982 2.13001 0
M  V30 2481 C 219.002 0.826066 3.37745 0
M  V30 2482 H 218.325 1.65164 3.64089 0
M  V30 2483 H 219.765 0.758559 4.17159 0
M  V30 2484 C 218.224 -0.470541 3.33598 0
M  V30 2485 O 218.754 -1.49792 3.72727 0
M  V30 2486 N 216.96 -0.474812 2.86695 0
M  V30 2487 H 216.507 0.361692 2.55048 0
M  V30 2488 H 216.465 -1.34236 2.84303 0
M  V30 2489 N 220.237 -1.11381 1.11499 0
M  V30 2490 C 221.648 -1.6465 0.880191 0
M  V30 2491 C 221.999 -1.87199 -0.587434 0
M  V30 2492 O 221.124 -1.60667 -1.44966 0
M  V30 2493 C 221.719 -2.99105 1.59128 0
M  V30 2494 C 220.278 -3.49279 1.40289 0
M  V30 2495 C 219.425 -2.24077 1.63354 0
M  V30 2496 H 222.376 -0.950123 1.27116 0
M  V30 2497 H 222.397 -3.66107 1.03664 0
M  V30 2498 H 221.909 -2.82661 2.65941 0
M  V30 2499 H 220.01 -3.70887 0.356888 0
M  V30 2500 H 220.123 -4.2803 2.15238 0
M  V30 2501 H 218.487 -2.31733 1.05698 0
M  V30 2502 H 219.27 -2.10175 2.71443 0
M  V30 2503 N 221.715 -0.905404 -1.28997 0
M  V30 2504 C 222.94 -0.549175 -1.99997 0
M  V30 2505 C 223.365 0.860276 -1.67275 0
M  V30 2506 O 222.723 1.57355 -0.900502 0
M  V30 2507 C 222.771 -0.755185 -3.52604 0
M  V30 2508 O 221.875 0.189692 -4.11964 0
M  V30 2509 H 221.216 -0.213899 -0.628604 0
M  V30 2510 H 223.746 -1.21856 -1.64354 0
M  V30 2511 H 223.756 -0.662045 -4.02593 0
M  V30 2512 H 222.431 -1.78271 -3.75755 0
M  V30 2513 H 221.008 0.0485257 -3.72868 0
M  V30 2514 N 223.193 1.4272 -0.668489 0
M  V30 2515 C 224.442 2.00846 -0.185389 0
M  V30 2516 C 224.755 1.53442 1.21305 0
M  V30 2517 O 225.961 2.03944 1.79218 0
M  V30 2518 C 224.417 3.58805 -0.280591 0
M  V30 2519 C 224.025 4.15198 -1.68268 0
M  V30 2520 C 225.769 4.24255 0.14412 0
M  V30 2521 C 223.676 5.655 -1.73099 0
M  V30 2522 H 222.606 0.751145 -0.0655475 0
M  V30 2523 H 225.257 1.63516 -0.832752 0
M  V30 2524 H 223.639 3.93608 0.434553 0
M  V30 2525 H 224.813 3.91866 -2.42441 0
M  V30 2526 H 223.128 3.62176 -2.05469 0
M  V30 2527 H 225.725 5.34547 0.128086 0
M  V30 2528 H 226.068 3.99277 1.17827 0
M  V30 2529 H 226.601 3.94389 -0.519798 0
M  V30 2530 H 223.34 5.95268 -2.74475 0
M  V30 2531 H 222.86 5.90842 -1.03274 0
M  V30 2532 H 224.539 6.29808 -1.48158 0
M  V30 2533 N 224.671 0.411399 1.52136 0
M  V30 2534 C 225.896 -0.165538 2.06738 0
M  V30 2535 C 226.321 -1.379 1.27926 0
M  V30 2536 O 225.679 -1.78628 0.310114 0
M  V30 2537 C 225.727 -0.492124 3.57226 0
M  V30 2538 O 224.831 -1.58276 3.80818 0
M  V30 2539 H 224.172 -0.0132132 0.663869 0
M  V30 2540 H 226.702 0.585253 1.96051 0
M  V30 2541 H 226.712 -0.750104 4.01045 0
M  V30 2542 H 225.387 0.394922 4.14021 0
M  V30 2543 H 223.964 -1.31677 3.48877 0
M  V30 2544 N 226.149 -1.5696 0.141893 0
M  V30 2545 C 227.56 -1.82797 -0.379776 0
M  V30 2546 C 227.911 -1.06033 -1.6508 0
M  V30 2547 O 227.036 -0.304011 -2.14254 0
M  V30 2548 C 227.631 -3.31578 -0.695802 0
M  V30 2549 C 226.19 -3.58014 -1.16201 0
M  V30 2550 C 225.337 -2.76699 -0.182455 0
M  V30 2551 H 228.288 -1.54406 0.366675 0
M  V30 2552 H 228.309 -3.47454 -1.55099 0
M  V30 2553 H 227.821 -3.87421 0.229449 0
M  V30 2554 H 225.922 -3.07553 -2.10338 0
M  V30 2555 H 226.035 -4.66501 -1.09151 0
M  V30 2556 H 224.399 -2.45618 -0.674072 0
M  V30 2557 H 225.182 -3.35311 0.736297 0
M  V30 2558 N 227.627 0.131896 -1.57047 0
M  V30 2559 C 228.537 1.1815 -2.02676 0
M  V30 2560 C 229.553 1.46113 -0.944824 0
M  V30 2561 O 230.729 1.57485 -1.25541 0
M  V30 2562 C 227.794 2.49139 -2.41103 0
M  V30 2563 C 226.855 2.28688 -3.63318 0
M  V30 2564 C 226.088 3.53431 -3.99903 0
M  V30 2565 O 226.311 4.60223 -3.36973 0
M  V30 2566 O 225.245 3.45198 -4.93074 0
M  V30 2567 H 229.071 0.824069 -2.92306 0
M  V30 2568 H 226.656 0.341745 -1.45439 0
M  V30 2569 H 228.538 3.26338 -2.66611 0
M  V30 2570 H 227.213 2.84382 -1.54624 0
M  V30 2571 H 226.12 1.4939 -3.42977 0
M  V30 2572 H 227.453 1.98355 -4.50462 0
M  V30 2573 N 229.106 1.52395 0.401703 0
M  V30 2574 C 230.354 1.66488 1.14569 0
M  V30 2575 C 230.675 0.400897 1.90835 0
M  V30 2576 O 229.945 -0.584415 1.8698 0
M  V30 2577 H 228.525 0.613672 0.425929 0
M  V30 2578 H 231.187 1.89464 0.457093 0
M  V30 2579 H 230.283 2.50942 1.85566 0
M  V30 2580 N 230.584 -0.659388 1.43143 0
M  V30 2581 C 231.809 -1.45221 1.48073 0
M  V30 2582 C 232.234 -1.87845 0.097995 0
M  V30 2583 O 231.592 -1.56985 -0.90694 0
M  V30 2584 C 231.64 -2.66748 2.42647 0
M  V30 2585 O 230.744 -3.65583 1.90848 0
M  V30 2586 H 230.085 -0.435669 0.501088 0
M  V30 2587 H 232.615 -0.807432 1.87994 0
M  V30 2588 H 232.625 -3.14637 2.59745 0
M  V30 2589 H 231.3 -2.35067 3.43098 0
M  V30 2590 H 229.877 -3.24693 1.83381 0
M  V30 2591 N 232.062 -1.29571 -0.897171 0
M  V30 2592 C 233.478 -1.07637 -1.17841 0
M  V30 2593 C 233.678 0.170713 -2.00776 0
M  V30 2594 O 232.734 0.867768 -2.3712 0
M  V30 2595 C 234.047 -2.3332 -1.8969 0
M  V30 2596 C 235.595 -2.38664 -2.02505 0
M  V30 2597 C 236.07 -3.64157 -2.77765 0
M  V30 2598 N 237.561 -3.64894 -2.85318 0
M  V30 2599 C 238.296 -4.58679 -3.44094 0
M  V30 2600 N 237.792 -5.62799 -4.04017 0
M  V30 2601 N 239.585 -4.46245 -3.41793 0
M  V30 2602 H 231.736 -2.09598 -0.343883 0
M  V30 2603 H 233.999 -0.923333 -0.214848 0
M  V30 2604 H 233.705 -3.24262 -1.36187 0
M  V30 2605 H 233.579 -2.41025 -2.9015 0
M  V30 2606 H 235.966 -1.48208 -2.55183 0
M  V30 2607 H 236.047 -2.34943 -1.01171 0
M  V30 2608 H 235.691 -4.54965 -2.25763 0
M  V30 2609 H 235.621 -3.65137 -3.7945 0
M  V30 2610 H 238.112 -2.89613 -2.42761 0
M  V30 2611 H 238.425 -6.3048 -4.46895 0
M  V30 2612 H 236.77 -5.66605 -4.02472 0
M  V30 2613 H 239.961 -3.64094 -2.94199 0
M  V30 2614 H 240.134 -5.19518 -3.87304 0
M  V30 2615 N 233.54 1.10788 -1.12088 0
M  V30 2616 C 234.951 1.64181 -0.88891 0
M  V30 2617 C 235.302 1.87508 0.577498 0
M  V30 2618 O 234.427 1.61434 1.44112 0
M  V30 2619 C 235.022 2.98257 -1.60712 0
M  V30 2620 C 233.581 3.4853 -1.42139 0
M  V30 2621 C 232.728 2.23208 -1.6454 0
M  V30 2622 H 235.679 0.943368 -1.27618 0
M  V30 2623 H 235.7 3.65552 -1.05604 0
M  V30 2624 H 235.212 2.81246 -2.67436 0
M  V30 2625 H 233.313 3.70692 -0.376552 0
M  V30 2626 H 233.426 4.26882 -2.17505 0
M  V30 2627 H 231.79 2.31169 -1.06925 0
M  V30 2628 H 232.573 2.08733 -2.72554 0
M  V30 2629 N 235.018 0.912232 1.28515 0
M  V30 2630 C 236.264 0.554851 1.95686 0
M  V30 2631 C 236.619 -0.89138 1.70506 0
M  V30 2632 O 235.912 -1.62529 1.01464 0
M  V30 2633 C 236.106 0.798392 3.48368 0
M  V30 2634 C 235.935 2.26674 3.88393 0
M  V30 2635 C 234.705 2.91657 4.12631 0
M  V30 2636 C 236.903 3.24303 3.99164 0
M  V30 2637 N 234.885 4.28805 4.39317 0
M  V30 2638 C 236.256 4.4661 4.30046 0
M  V30 2639 C 238.311 3.19723 3.81683 0
M  V30 2640 C 237.014 5.64915 4.45268 0
M  V30 2641 C 239.04 4.37325 3.98121 0
M  V30 2642 C 238.402 5.58406 4.29375 0
M  V30 2643 H 234.501 0.252876 0.739985 0
M  V30 2644 H 237.085 1.17565 1.55199 0
M  V30 2645 H 235.256 0.20688 3.87849 0
M  V30 2646 H 236.988 0.405193 4.02666 0
M  V30 2647 H 233.743 2.42393 4.06869 0
M  V30 2648 H 234.167 4.99712 4.56746 0
M  V30 2649 H 238.809 2.27191 3.56573 0
M  V30 2650 H 236.527 6.57927 4.6921 0
M  V30 2651 H 240.113 4.35282 3.86033 0
M  V30 2652 H 238.993 6.47889 4.41825 0
M  V30 2653 N 236.496 -1.42363 0.676048 0
M  V30 2654 C 237.744 -2.01123 0.198437 0
M  V30 2655 C 238.065 -1.53731 -1.19966 0
M  V30 2656 O 237.335 -0.759518 -1.80577 0
M  V30 2657 H 235.915 -0.743678 0.0703721 0
M  V30 2658 H 238.577 -1.74263 0.872837 0
M  V30 2659 H 237.673 -3.11454 0.200686 0
M  V30 2660 N 237.974 -0.419461 -1.51915 0
M  V30 2661 C 239.199 0.154572 -2.06823 0
M  V30 2662 C 239.624 1.3722 -1.28656 0
M  V30 2663 O 238.982 1.78461 -0.319583 0
M  V30 2664 C 239.03 0.473172 -3.57482 0
M  V30 2665 O 238.134 1.56255 -3.81652 0
M  V30 2666 H 237.475 0.0096924 -0.663929 0
M  V30 2667 H 240.005 -0.595642 -1.95738 0
M  V30 2668 H 240.015 0.728825 -4.01438 0
M  V30 2669 H 238.69 -0.416873 -4.13805 0
M  V30 2670 H 237.267 1.29825 -3.49571 0
M  V30 2671 N 239.452 1.56882 -0.150215 0
M  V30 2672 C 240.362 2.20494 0.801222 0
M  V30 2673 C 241.378 1.19019 1.26927 0
M  V30 2674 O 242.554 1.51607 1.32579 0
M  V30 2675 C 239.619 2.81659 2.02161 0
M  V30 2676 C 238.68 3.9827 1.60249 0
M  V30 2677 C 237.913 4.56508 2.7647 0
M  V30 2678 O 238.136 4.13627 3.92771 0
M  V30 2679 O 237.07 5.46719 2.51757 0
M  V30 2680 H 240.896 3.02315 0.289717 0
M  V30 2681 H 238.481 1.49202 0.0769684 0
M  V30 2682 H 240.363 3.20522 2.73576 0
M  V30 2683 H 239.038 2.02849 2.52258 0
M  V30 2684 H 237.945 3.64117 0.858477 0
M  V30 2685 H 239.278 4.78609 1.14864 0
M  V30 2686 N 240.93 -0.123565 1.57115 0
M  V30 2687 C 242.207 -0.862196 1.75572 0
M  V30 2688 C 242.587 -1.98279 0.724475 0
M  V30 2689 O 241.935 -2.27102 -0.252407 0
M  V30 2690 C 242.145 -1.38309 3.20424 0
M  V30 2691 C 243.493 -1.83724 3.82793 0
M  V30 2692 O 244.517 -1.47999 3.23998 0
M  V30 2693 O 243.376 -2.49685 4.86127 0
M  V30 2694 H 240.47 -0.409113 0.718718 0
M  V30 2695 H 243.016 -0.107661 1.69358 0
M  V30 2696 H 241.788 -0.578889 3.86994 0
M  V30 2697 H 241.411 -2.20046 3.31158 0
M  V30 2698 N 242.408 -1.52605 -0.393616 0
M  V30 2699 C 243.819 -1.59417 -0.971761 0
M  V30 2700 C 244.17 -0.444173 -1.91106 0
M  V30 2701 O 243.295 0.433382 -2.12016 0
M  V30 2702 C 243.89 -2.88936 -1.76921 0
M  V30 2703 C 242.449 -2.98175 -2.29714 0
M  V30 2704 C 241.596 -2.54491 -1.10135 0
M  V30 2705 H 244.547 -1.57751 -0.173317 0
M  V30 2706 H 244.568 -2.75163 -2.62804 0
M  V30 2707 H 244.08 -3.72616 -1.08532 0
M  V30 2708 H 242.181 -2.19024 -3.01429 0
M  V30 2709 H 242.294 -4.02726 -2.59517 0
M  V30 2710 H 240.658 -2.08702 -1.45999 0
M  V30 2711 H 241.441 -3.4056 -0.432874 0
M  V30 2712 N 243.887 0.651787 -1.4349 0
M  V30 2713 C 245.115 1.43937 -1.48626 0
M  V30 2714 C 245.53 1.8851 -0.104587 0
M  V30 2715 O 244.887 1.5958 0.885464 0
M  V30 2716 C 244.938 2.6734 -2.43334 0
M  V30 2717 O 244.659 2.24631 -3.76128 0
M  V30 2718 C 246.16 3.60683 -2.57726 0
M  V30 2719 H 243.38 0.44213 -0.504739 0
M  V30 2720 H 245.924 0.798944 -1.88248 0
M  V30 2721 H 244.079 3.2752 -2.06904 0
M  V30 2722 H 244.493 3.04485 -4.2707 0
M  V30 2723 H 245.967 4.43933 -3.28067 0
M  V30 2724 H 246.444 4.08126 -1.62265 0
M  V30 2725 H 247.05 3.06384 -2.94973 0
M  V30 2726 N 245.365 1.30045 0.890287 0
M  V30 2727 C 246.776 1.16738 1.45702 0
M  V30 2728 C 247.127 -0.233939 1.948 0
M  V30 2729 O 246.252 -1.13021 1.84541 0
M  V30 2730 C 246.847 2.11313 2.64825 0
M  V30 2731 C 245.406 2.02001 3.17604 0
M  V30 2732 C 244.553 2.01699 1.90296 0
M  V30 2733 H 247.504 1.42392 0.700726 0
M  V30 2734 H 247.525 1.69086 3.40867 0
M  V30 2735 H 247.037 3.13294 2.2906 0
M  V30 2736 H 245.138 1.03142 3.5804 0
M  V30 2737 H 245.251 2.90128 3.81264 0
M  V30 2738 H 243.615 1.46427 2.08402 0
M  V30 2739 H 244.398 3.05402 1.56795 0
M  V30 2740 N 246.843 -1.10192 1.12674 0
M  V30 2741 C 248.071 -1.85983 0.906527 0
M  V30 2742 C 248.486 -1.80783 -0.544333 0
M  V30 2743 O 247.843 -1.19834 -1.37645 0
M  V30 2744 C 247.894 -3.34281 1.37618 0
M  V30 2745 O 247.615 -3.39401 2.77017 0
M  V30 2746 C 249.116 -4.26938 1.19325 0
M  V30 2747 H 246.336 -0.587716 0.323775 0
M  V30 2748 H 248.88 -1.39284 1.49734 0
M  V30 2749 H 247.035 -3.78436 0.828539 0
M  V30 2750 H 247.449 -4.31838 2.97684 0
M  V30 2751 H 248.923 -5.29181 1.57071 0
M  V30 2752 H 249.4 -4.38995 0.134097 0
M  V30 2753 H 250.006 -3.8859 1.72852 0
M  V30 2754 N 248.321 -0.919034 -1.28029 0
M  V30 2755 C 249.546 -0.570357 -1.99403 0
M  V30 2756 C 249.971 0.842486 -1.68178 0
M  V30 2757 O 249.329 1.56391 -0.917141 0
M  V30 2758 C 249.377 -0.792541 -3.51783 0
M  V30 2759 O 248.481 0.145988 -4.12142 0
M  V30 2760 H 247.822 -0.220555 -0.6263 0
M  V30 2761 H 250.352 -1.23592 -1.63053 0
M  V30 2762 H 250.362 -0.704708 -4.01868 0
M  V30 2763 H 249.037 -1.82247 -3.73844 0
M  V30 2764 H 247.614 0.00897528 -3.72899 0
M  V30 2765 N 249.799 1.42003 -0.683588 0
M  V30 2766 C 251.046 2.01413 -0.209514 0
M  V30 2767 C 251.374 1.54088 1.1869 0
M  V30 2768 O 250.629 0.737591 1.81268 0
M  V30 2769 C 250.928 3.56827 -0.202357 0
M  V30 2770 C 250.594 4.23617 -1.54464 0
M  V30 2771 C 249.256 4.41577 -1.91215 0
M  V30 2772 C 251.608 4.61178 -2.42826 0
M  V30 2773 C 248.936 4.9437 -3.15935 0
M  V30 2774 C 251.288 5.15355 -3.66867 0
M  V30 2775 C 249.952 5.31528 -4.03776 0
M  V30 2776 H 249.222 0.737023 -0.0766668 0
M  V30 2777 H 251.869 1.70067 -0.880312 0
M  V30 2778 H 250.174 3.87892 0.551969 0
M  V30 2779 H 251.871 4.00588 0.181793 0
M  V30 2780 H 248.461 4.10004 -1.24877 0
M  V30 2781 H 252.645 4.46968 -2.15717 0
M  V30 2782 H 247.901 5.05076 -3.44541 0
M  V30 2783 H 252.075 5.43402 -4.35531 0
M  V30 2784 H 249.702 5.72199 -5.00492 0
M  V30 2785 N 251.277 0.427512 1.51691 0
M  V30 2786 C 252.524 -0.142229 2.02 0
M  V30 2787 C 252.852 -1.43566 1.31221 0
M  V30 2788 O 252.107 -1.91298 0.412744 0
M  V30 2789 C 252.406 -0.418249 3.54944 0
M  V30 2790 C 252.072 0.788187 4.43958 0
M  V30 2791 C 250.734 1.11906 4.68007 0
M  V30 2792 C 253.086 1.59347 4.96244 0
M  V30 2793 C 250.414 2.25608 5.41588 0
M  V30 2794 C 252.766 2.7214 5.71072 0
M  V30 2795 C 251.43 3.05692 5.93387 0
M  V30 2796 H 250.7 -0.0520451 0.73917 0
M  V30 2797 H 253.347 0.572697 1.82736 0
M  V30 2798 H 251.652 -1.21496 3.72486 0
M  V30 2799 H 253.349 -0.872339 3.91397 0
M  V30 2800 H 249.939 0.520344 4.2543 0
M  V30 2801 H 254.123 1.35106 4.77556 0
M  V30 2802 H 249.379 2.51929 5.57083 0
M  V30 2803 H 253.553 3.34914 6.10578 0
M  V30 2804 H 251.18 3.9391 6.50184 0
M  V30 2805 N 252.755 -1.56801 0.158532 0
M  V30 2806 C 254.003 -1.96102 -0.488712 0
M  V30 2807 C 254.324 -1.04498 -1.64636 0
M  V30 2808 O 253.594 -0.108783 -1.95598 0
M  V30 2809 H 252.174 -0.724102 -0.183535 0
M  V30 2810 H 254.836 -1.93457 0.236728 0
M  V30 2811 H 253.932 -3.00097 -0.857219 0
M  V30 2812 N 254.233 0.115231 -1.57178 0
M  V30 2813 C 255.481 0.820727 -1.84685 0
M  V30 2814 C 255.802 1.80237 -0.744279 0
M  V30 2815 O 255.072 1.94529 0.231375 0
M  V30 2816 H 253.652 0.306084 -0.681411 0
M  V30 2817 H 256.314 0.101656 -1.94635 0
M  V30 2818 H 255.41 1.36366 -2.80733 0
M  V30 2819 N 255.711 1.52812 0.385517 0
M  V30 2820 C 256.988 1.5861 1.14465 0
M  V30 2821 C 257.368 0.381402 2.07626 0
M  V30 2822 O 256.716 -0.629999 2.19643 0
M  V30 2823 C 256.926 2.92664 1.90128 0
M  V30 2824 C 258.274 3.46526 2.45367 0
M  V30 2825 O 259.298 2.94562 2.0028 0
M  V30 2826 O 258.157 4.37323 3.27736 0
M  V30 2827 H 255.251 0.639855 0.523941 0
M  V30 2828 H 257.797 1.65149 0.390389 0
M  V30 2829 H 256.569 3.71788 1.22022 0
M  V30 2830 H 256.192 2.89527 2.72507 0
M  V30 2831 N 257.189 -0.644168 1.43834 0
M  V30 2832 C 258.119 -1.76814 1.52509 0
M  V30 2833 C 259.1 -1.65823 0.379052 0
M  V30 2834 O 260.285 -1.84781 0.597466 0
M  V30 2835 C 257.415 -3.15288 1.4564 0
M  V30 2836 C 256.369 -3.41053 2.58586 0
M  V30 2837 C 255.695 -4.79421 2.36769 0
M  V30 2838 C 256.995 -3.34902 4.00797 0
M  V30 2839 H 258.689 -1.69812 2.46586 0
M  V30 2840 H 256.235 -0.815542 1.1868 0
M  V30 2841 H 258.188 -3.93681 1.50311 0
M  V30 2842 H 256.912 -3.23043 0.480725 0
M  V30 2843 H 255.571 -2.65035 2.53282 0
M  V30 2844 H 255.219 -4.83863 1.37424 0
M  V30 2845 H 254.919 -4.9762 3.12487 0
M  V30 2846 H 256.443 -5.6006 2.43238 0
M  V30 2847 H 257.857 -4.03218 4.07539 0
M  V30 2848 H 256.254 -3.64637 4.76613 0
M  V30 2849 H 257.324 -2.32928 4.25291 0
M  V30 2850 N 258.668 -1.30515 -0.883378 0
M  V30 2851 C 259.6 -1.12846 -1.99496 0
M  V30 2852 C 260.613 -0.0712571 -1.62644 0
M  V30 2853 O 261.802 -0.317432 -1.75655 0
M  V30 2854 C 258.902 -0.699123 -3.3161 0
M  V30 2855 C 258.075 -1.83842 -3.96889 0
M  V30 2856 C 257.134 -1.39737 -5.07307 0
M  V30 2857 O 256.16 -2.10485 -5.28852 0
M  V30 2858 N 257.362 -0.277279 -5.79837 0
M  V30 2859 H 260.127 -2.08585 -2.15203 0
M  V30 2860 H 257.688 -1.22672 -1.05656 0
M  V30 2861 H 259.68 -0.387044 -4.02845 0
M  V30 2862 H 258.25 0.166276 -3.12157 0
M  V30 2863 H 257.47 -2.31853 -3.18807 0
M  V30 2864 H 258.758 -2.60187 -4.37241 0
M  V30 2865 H 258.156 0.3122 -5.64838 0
M  V30 2866 H 256.713 -0.0246623 -6.51795 0
M  V30 2867 N 260.146 1.09593 -1.13257 0
M  V30 2868 C 261.394 1.81375 -0.891492 0
M  V30 2869 C 261.715 1.86049 0.584009 0
M  V30 2870 O 260.985 1.34481 1.42449 0
M  V30 2871 H 259.565 0.671708 -0.326828 0
M  V30 2872 H 262.227 1.3256 -1.42877 0
M  V30 2873 H 261.323 2.84612 -1.28071 0
M  V30 2874 N 261.624 0.925811 1.2754 0
M  V30 2875 C 262.873 0.561084 1.93739 0
M  V30 2876 C 263.186 -0.901685 1.73577 0
M  V30 2877 O 264.392 -1.37511 2.34101 0
M  V30 2878 C 262.848 0.952668 3.47062 0
M  V30 2879 C 262.456 2.43599 3.75983 0
M  V30 2880 C 264.2 0.659103 4.19352 0
M  V30 2881 C 262.107 2.76707 5.22673 0
M  V30 2882 H 261.037 0.206122 0.725279 0
M  V30 2883 H 263.688 1.12637 1.44863 0
M  V30 2884 H 262.07 0.316053 3.94737 0
M  V30 2885 H 263.244 3.12035 3.39073 0
M  V30 2886 H 261.559 2.70125 3.16893 0
M  V30 2887 H 264.156 0.882985 5.27359 0
M  V30 2888 H 264.499 -0.403607 4.14339 0
M  V30 2889 H 265.032 1.25473 3.77494 0
M  V30 2890 H 261.771 3.8188 5.32774 0
M  V30 2891 H 261.291 2.12919 5.60737 0
M  V30 2892 H 262.97 2.6435 5.90532 0
M  V30 2893 N 263.102 -1.41638 0.69111 0
M  V30 2894 C 264.351 -2.00526 0.217318 0
M  V30 2895 C 264.664 -1.55353 -1.18848 0
M  V30 2896 O 265.87 -2.06769 -1.75951 0
M  V30 2897 C 264.326 -3.58313 0.337639 0
M  V30 2898 C 263.934 -4.12469 1.74852 0
M  V30 2899 C 265.678 -4.24431 -0.0766066 0
M  V30 2900 C 263.585 -5.62675 1.82074 0
M  V30 2901 H 262.515 -0.750008 0.0774893 0
M  V30 2902 H 265.166 -1.6217 0.858661 0
M  V30 2903 H 263.548 -3.9425 -0.371879 0
M  V30 2904 H 264.722 -3.8796 2.48644 0
M  V30 2905 H 263.037 -3.58861 2.11205 0
M  V30 2906 H 265.634 -5.34683 -0.0430284 0
M  V30 2907 H 265.977 -4.01101 -1.1146 0
M  V30 2908 H 266.51 -3.93512 0.582476 0
M  V30 2909 H 263.249 -5.90826 2.83911 0
M  V30 2910 H 262.769 -5.89124 1.12661 0
M  V30 2911 H 264.448 -6.27371 1.58159 0
M  V30 2912 N 264.58 -0.43555 -1.51462 0
M  V30 2913 C 265.857 0.191364 -1.94662 0
M  V30 2914 C 266.237 1.60254 -1.37411 0
M  V30 2915 O 265.585 2.2152 -0.560458 0
M  V30 2916 C 265.795 0.17091 -3.48581 0
M  V30 2917 C 267.143 0.377357 -4.2292 0
M  V30 2918 O 268.167 0.249104 -3.55328 0
M  V30 2919 O 267.026 0.63247 -5.42828 0
M  V30 2920 H 264.12 0.130932 -0.816569 0
M  V30 2921 H 266.666 -0.4934 -1.62369 0
M  V30 2922 H 265.438 -0.815738 -3.82703 0
M  V30 2923 H 265.061 0.898659 -3.87311 0
M  V30 2924 N 266.058 1.56714 -0.166846 0
M  V30 2925 C 267.008 2.14338 0.777382 0
M  V30 2926 C 267.992 1.07642 1.19591 0
M  V30 2927 O 269.184 1.33775 1.15902 0
M  V30 2928 C 266.313 2.78417 2.00846 0
M  V30 2929 C 265.399 3.92264 1.61212 0
M  V30 2930 N 265.79 4.97268 0.925104 0
M  V30 2931 C 264.088 4.03342 1.90346 0
M  V30 2932 C 264.789 5.77093 0.730627 0
M  V30 2933 N 263.765 5.2854 1.27067 0
M  V30 2934 H 267.567 2.9289 0.243466 0
M  V30 2935 H 265.081 1.62364 0.0339954 0
M  V30 2936 H 267.078 3.18073 2.69509 0
M  V30 2937 H 265.738 2.01344 2.54736 0
M  V30 2938 H 266.749 5.14601 0.583646 0
M  V30 2939 H 263.426 3.37368 2.45946 0
M  V30 2940 H 264.816 6.71638 0.187668 0
M  V30 2941 N 267.536 -0.106894 1.57237 0
M  V30 2942 C 268.466 -1.13148 2.04254 0
M  V30 2943 C 269.447 -1.42476 0.929224 0
M  V30 2944 O 270.632 -1.52709 1.19973 0
M  V30 2945 C 267.762 -2.4545 2.45706 0
M  V30 2946 C 266.716 -2.30558 3.60592 0
M  V30 2947 C 266.042 -3.67931 3.87983 0
M  V30 2948 C 267.342 -1.75597 4.91897 0
M  V30 2949 H 269.036 -0.740374 2.90101 0
M  V30 2950 H 266.582 -0.354696 1.39563 0
M  V30 2951 H 268.535 -3.17389 2.77205 0
M  V30 2952 H 267.259 -2.86475 1.56843 0
M  V30 2953 H 265.918 -1.61067 3.29322 0
M  V30 2954 H 265.566 -4.06462 2.96306 0
M  V30 2955 H 265.266 -3.58817 4.65322 0
M  V30 2956 H 266.79 -4.41356 4.21945 0
M  V30 2957 H 268.204 -2.37364 5.21854 0
M  V30 2958 H 266.601 -1.77272 5.73319 0
M  V30 2959 H 267.671 -0.714451 4.79608 0
M  V30 2960 N 269.014 -1.53014 -0.377408 0
M  V30 2961 C 270.291 -1.59215 -1.13622 0
M  V30 2962 C 270.671 -0.392407 -2.07421 0
M  V30 2963 O 270.019 0.618342 -2.19975 0
M  V30 2964 C 270.229 -2.93669 -1.88573 0
M  V30 2965 C 271.577 -3.47822 -2.43526 0
M  V30 2966 O 272.601 -2.9562 -1.98715 0
M  V30 2967 O 271.46 -4.39055 -3.25412 0
M  V30 2968 H 268.554 -0.642625 -0.52054 0
M  V30 2969 H 271.1 -1.65353 -0.381625 0
M  V30 2970 H 269.872 -3.7243 -1.20048 0
M  V30 2971 H 269.495 -2.90968 -2.70968 0
M  V30 2972 N 270.492 0.636531 -1.44174 0
M  V30 2973 C 271.722 1.42146 -1.49927 0
M  V30 2974 C 272.13 1.88812 -0.121063 0
M  V30 2975 O 271.473 1.61126 0.882267 0
M  V30 2976 C 271.535 2.67883 -2.39748 0
M  V30 2977 C 271.199 2.43048 -3.8701 0
M  V30 2978 C 272.196 2.05216 -4.77684 0
M  V30 2979 C 269.881 2.56856 -4.3166 0
M  V30 2980 C 271.875 1.81512 -6.11009 0
M  V30 2981 C 269.562 2.32766 -5.65034 0
M  V30 2982 C 270.56 1.95152 -6.54526 0
M  V30 2983 O 270.248 1.71326 -7.85431 0
M  V30 2984 H 269.98 0.442567 -0.51099 0
M  V30 2985 H 272.534 0.786158 -1.8976 0
M  V30 2986 H 270.764 3.34032 -1.94832 0
M  V30 2987 H 272.453 3.29874 -2.36513 0
M  V30 2988 H 273.219 1.94111 -4.44462 0
M  V30 2989 H 269.098 2.85104 -3.62266 0
M  V30 2990 H 272.642 1.52077 -6.80822 0
M  V30 2991 H 268.539 2.43479 -5.97819 0
M  V30 2992 H 269.307 1.85616 -7.97176 0
M  V30 2993 N 271.97 1.30982 0.876444 0
M  V30 2994 C 272.9 1.20668 1.99903 0
M  V30 2995 C 273.881 0.095354 1.69833 0
M  V30 2996 O 275.066 0.27885 1.92188 0
M  V30 2997 C 272.196 0.90655 3.3526 0
M  V30 2998 C 271.15 1.97675 3.79617 0
M  V30 2999 C 270.476 1.52943 5.1236 0
M  V30 3000 C 271.776 3.389 3.97422 0
M  V30 3001 H 273.47 2.14586 2.0879 0
M  V30 3002 H 271.016 1.03308 1.00317 0
M  V30 3003 H 272.969 0.821025 4.13324 0
M  V30 3004 H 271.693 -0.0682969 3.26529 0
M  V30 3005 H 270.352 2.05205 3.03787 0
M  V30 3006 H 270 0.54262 5.00065 0
M  V30 3007 H 269.7 2.24532 5.43009 0
M  V30 3008 H 271.224 1.45786 5.92941 0
M  V30 3009 H 272.638 3.34081 4.659 0
M  V30 3010 H 271.035 4.0865 4.3946 0
M  V30 3011 H 272.105 3.80163 3.01006 0
M  V30 3012 N 273.449 -1.08991 1.13837 0
M  V30 3013 C 274.695 -1.81526 0.90422 0
M  V30 3014 C 275.028 -1.85706 -0.568066 0
M  V30 3015 O 274.303 -1.32855 -1.42056 0
M  V30 3016 C 274.586 -3.27447 1.49835 0
M  V30 3017 C 274.439 -3.31512 3.04006 0
M  V30 3018 C 275.758 -4.24256 1.17025 0
M  V30 3019 H 272.877 -0.659029 0.329923 0
M  V30 3020 H 275.519 -1.27644 1.40737 0
M  V30 3021 H 273.669 -3.73462 1.07044 0
M  V30 3022 H 275.341 -2.93867 3.55584 0
M  V30 3023 H 273.584 -2.70963 3.38765 0
M  V30 3024 H 274.255 -4.34329 3.40679 0
M  V30 3025 H 276.731 -3.86549 1.54009 0
M  V30 3026 H 275.607 -5.24684 1.61237 0
M  V30 3027 H 275.868 -4.42019 0.0846274 0
M  V30 3028 N 274.927 -0.932562 -1.27047 0
M  V30 3029 C 276.204 -0.49377 -1.89265 0
M  V30 3030 C 276.584 1.02833 -1.8436 0
M  V30 3031 O 275.932 1.88461 -1.29209 0
M  V30 3032 C 276.142 -1.04536 -3.32976 0
M  V30 3033 C 277.49 -1.10879 -4.09867 0
M  V30 3034 O 278.514 -0.995327 -3.42011 0
M  V30 3035 O 277.373 -1.28417 -5.31198 0
M  V30 3036 H 274.467 -0.159596 -0.811454 0
M  V30 3037 H 277.013 -1.02457 -1.3528 0
M  V30 3038 H 275.785 -2.08913 -3.30864 0
M  V30 3039 H 275.408 -0.496494 -3.94488 0
M  V30 3040 N 276.405 1.4127 -0.698611 0
M  V30 3041 C 277.335 2.33447 -0.049629 0
M  V30 3042 C 278.316 1.51982 0.763898 0
M  V30 3043 O 279.501 1.80509 0.716257 0
M  V30 3044 C 276.631 3.35828 0.885267 0
M  V30 3045 C 275.585 4.27627 0.178613 0
M  V30 3046 C 274.911 5.20406 1.22807 0
M  V30 3047 C 276.211 5.13459 -0.956933 0
M  V30 3048 H 277.905 2.87966 -0.81951 0
M  V30 3049 H 275.451 1.38461 -0.395538 0
M  V30 3050 H 277.404 3.9924 1.34854 0
M  V30 3051 H 276.128 2.79666 1.68685 0
M  V30 3052 H 274.787 3.65643 -0.26466 0
M  V30 3053 H 274.435 4.60558 2.02226 0
M  V30 3054 H 274.135 5.82661 0.760239 0
M  V30 3055 H 275.659 5.86695 1.69179 0
M  V30 3056 H 277.073 5.70421 -0.573805 0
M  V30 3057 H 275.47 5.8467 -1.35205 0
M  V30 3058 H 276.54 4.50443 -1.79524 0
M  V30 3059 N 277.883 0.443576 1.51229 0
M  V30 3060 C 279.131 -0.120557 2.0174 0
M  V30 3061 C 279.452 -1.42665 1.32935 0
M  V30 3062 O 278.722 -1.9028 0.465866 0
M  V30 3063 H 277.302 -0.0475426 0.745486 0
M  V30 3064 H 279.964 0.587711 1.85828 0
M  V30 3065 H 279.06 -0.291972 3.10731 0
M  V30 3066 N 279.361 -1.56624 0.175154 0
M  V30 3067 C 280.61 -1.96173 -0.468921 0
M  V30 3068 C 280.923 -1.06401 -1.64128 0
M  V30 3069 O 282.129 -1.35648 -2.35185 0
M  V30 3070 C 280.585 -3.48833 -0.885633 0
M  V30 3071 C 280.193 -4.47237 0.261343 0
M  V30 3072 C 281.937 -3.97194 -1.49791 0
M  V30 3073 C 279.844 -5.9114 -0.175214 0
M  V30 3074 H 278.774 -0.732455 -0.178958 0
M  V30 3075 H 281.425 -1.81591 0.263997 0
M  V30 3076 H 279.807 -3.58848 -1.67464 0
M  V30 3077 H 280.981 -4.4894 1.03871 0
M  V30 3078 H 279.296 -4.08956 0.783827 0
M  V30 3079 H 281.893 -5.02167 -1.83665 0
M  V30 3080 H 282.236 -3.40351 -2.39722 0
M  V30 3081 H 282.769 -3.90212 -0.773267 0
M  V30 3082 H 279.508 -6.51865 0.689414 0
M  V30 3083 H 279.028 -5.92735 -0.91786 0
M  V30 3084 H 280.707 -6.44044 -0.617792 0
M  V30 3085 N 280.839 0.0985539 -1.57292 0
M  V30 3086 C 282.067 0.816318 -1.90115 0
M  V30 3087 C 282.482 1.72451 -0.768509 0
M  V30 3088 O 281.839 1.80643 0.259687 0
M  V30 3089 C 281.89 1.63259 -3.22535 0
M  V30 3090 O 281.611 0.760934 -4.31441 0
M  V30 3091 C 283.112 2.45372 -3.69199 0
M  V30 3092 H 280.332 0.233595 -0.629027 0
M  V30 3093 H 282.876 0.0768229 -2.04356 0
M  V30 3094 H 281.031 2.32463 -3.09903 0
M  V30 3095 H 281.445 1.32595 -5.07463 0
M  V30 3096 H 282.919 2.98144 -4.64558 0
M  V30 3097 H 283.396 3.23677 -2.96867 0
M  V30 3098 H 284.002 1.81373 -3.84687 0
M  V30 3099 N 282.317 1.53212 0.369288 0
M  V30 3100 C 283.565 1.68881 1.11012 0
M  V30 3101 C 283.886 0.441285 1.89941 0
M  V30 3102 O 283.156 -0.544623 1.88177 0
M  V30 3103 H 281.736 0.622569 0.412816 0
M  V30 3104 H 284.398 1.90391 0.416802 0
M  V30 3105 H 283.494 2.54822 1.80201 0
M  V30 3106 N 283.795 -0.628877 1.44509 0
M  V30 3107 C 285.044 -1.38437 1.4669 0
M  V30 3108 C 285.357 -1.95322 0.104272 0
M  V30 3109 O 286.563 -2.715 0.00362163 0
M  V30 3110 C 285.019 -2.50659 2.5826 0
M  V30 3111 C 284.627 -2.00277 4.0074 0
M  V30 3112 C 286.371 -3.27844 2.69664 0
M  V30 3113 C 284.278 -3.09854 5.0373 0
M  V30 3114 H 283.208 -0.520245 0.545766 0
M  V30 3115 H 285.859 -0.676313 1.70582 0
M  V30 3116 H 284.241 -3.2405 2.27612 0
M  V30 3117 H 285.415 -1.33736 4.40966 0
M  V30 3118 H 283.73 -1.35901 3.93599 0
M  V30 3119 H 286.327 -4.09534 3.43781 0
M  V30 3120 H 286.67 -3.77471 1.75559 0
M  V30 3121 H 287.203 -2.61543 2.99733 0
M  V30 3122 H 283.942 -2.65168 5.99472 0
M  V30 3123 H 283.462 -3.7503 4.68095 0
M  V30 3124 H 285.141 -3.74592 5.27532 0
M  V30 3125 N 285.273 -1.31445 -0.869486 0
M  V30 3126 C 286.503 -1.23942 -1.65294 0
M  V30 3127 C 286.911 0.197561 -1.88166 0
M  V30 3128 O 286.254 1.14019 -1.44033 0
M  V30 3129 C 286.316 -1.91385 -3.04322 0
M  V30 3130 C 285.98 -3.40726 -3.04557 0
M  V30 3131 C 286.977 -4.36464 -2.82481 0
M  V30 3132 C 284.662 -3.82425 -3.25663 0
M  V30 3133 C 286.656 -5.71876 -2.8149 0
M  V30 3134 C 284.343 -5.1795 -3.243 0
M  V30 3135 C 285.341 -6.12486 -3.02241 0
M  V30 3136 O 285.029 -7.45534 -3.00724 0
M  V30 3137 H 284.761 -0.429459 -0.522054 0
M  V30 3138 H 287.315 -1.73873 -1.0935 0
M  V30 3139 H 285.545 -1.36004 -3.61994 0
M  V30 3140 H 287.234 -1.77791 -3.64891 0
M  V30 3141 H 288 -4.05576 -2.65956 0
M  V30 3142 H 283.879 -3.09274 -3.41863 0
M  V30 3143 H 287.423 -6.45638 -2.64191 0
M  V30 3144 H 283.32 -5.48473 -3.40365 0
M  V30 3145 H 284.088 -7.54713 -3.16782 0
M  V30 3146 N 286.751 1.08385 -1.14413 0
M  V30 3147 C 287.681 2.17321 -0.854044 0
M  V30 3148 C 288.662 1.69024 0.191049 0
M  V30 3149 O 289.847 1.94141 0.0476779 0
M  V30 3150 C 286.977 3.45719 -0.330983 0
M  V30 3151 C 285.931 4.07409 -1.31155 0
M  V30 3152 C 285.257 5.30762 -0.64778 0
M  V30 3153 C 286.557 4.48665 -2.67388 0
M  V30 3154 H 288.251 2.41845 -1.76498 0
M  V30 3155 H 285.797 1.16233 -0.850051 0
M  V30 3156 H 287.75 4.21241 -0.115645 0
M  V30 3157 H 286.474 3.2075 0.615381 0
M  V30 3158 H 285.133 3.33919 -1.51306 0
M  V30 3159 H 284.781 5.02078 0.304398 0
M  V30 3160 H 284.481 5.72992 -1.30207 0
M  V30 3161 H 286.005 6.08998 -0.441972 0
M  V30 3162 H 287.419 5.15364 -2.51143 0
M  V30 3163 H 285.816 5.01814 -3.29093 0
M  V30 3164 H 286.886 3.60543 -3.24248 0
M  V30 3165 N 288.23 0.939286 1.26551 0
M  V30 3166 C 289.458 0.602536 1.97932 0
M  V30 3167 C 289.873 -0.82206 1.69964 0
M  V30 3168 O 289.23 -1.54789 0.966784 0
M  V30 3169 C 289.281 0.832946 3.51773 0
M  V30 3170 O 289.002 2.20151 3.78768 0
M  V30 3171 C 290.503 0.506483 4.40397 0
M  V30 3172 H 287.723 0.227248 0.631347 0
M  V30 3173 H 290.267 1.25948 1.61113 0
M  V30 3174 H 288.422 0.222644 3.8676 0
M  V30 3175 H 288.836 2.26013 4.73306 0
M  V30 3176 H 290.31 0.718333 5.47306 0
M  V30 3177 H 290.787 -0.558451 4.35635 0
M  V30 3178 H 291.393 1.09543 4.10951 0
M  V30 3179 N 289.708 -1.40897 0.706093 0
M  V30 3180 C 291.119 -1.84023 0.315052 0
M  V30 3181 C 291.47 -1.5906 -1.14866 0
M  V30 3182 O 290.595 -1.06651 -1.88293 0
M  V30 3183 C 291.19 -3.34055 0.565038 0
M  V30 3184 C 289.749 -3.7571 0.227806 0
M  V30 3185 C 288.896 -2.64204 0.842122 0
M  V30 3186 H 291.847 -1.303 0.905963 0
M  V30 3187 H 291.868 -3.80107 -0.172843 0
M  V30 3188 H 291.38 -3.52192 1.63042 0
M  V30 3189 H 289.481 -3.63172 -0.832895 0
M  V30 3190 H 289.594 -4.74103 0.690174 0
M  V30 3191 H 287.958 -2.53255 0.270893 0
M  V30 3192 H 288.741 -2.85155 1.91158 0
M  V30 3193 N 291.186 -0.45159 -1.50991 0
M  V30 3194 C 292.435 0.111653 -2.01391 0
M  V30 3195 C 292.748 1.42529 -1.33959 0
M  V30 3196 O 293.954 2.07232 -1.75405 0
M  V30 3197 C 292.41 0.249514 -3.59034 0
M  V30 3198 C 292.018 -1.05453 -4.35412 0
M  V30 3199 C 293.762 0.765762 -4.17536 0
M  V30 3200 C 291.669 -0.881529 -5.84793 0
M  V30 3201 H 290.599 0.0455022 -0.752626 0
M  V30 3202 H 293.25 -0.583524 -1.73975 0
M  V30 3203 H 291.632 1.00803 -3.82955 0
M  V30 3204 H 292.806 -1.82248 -4.23229 0
M  V30 3205 H 291.121 -1.50039 -3.88429 0
M  V30 3206 H 293.718 0.911913 -5.26866 0
M  V30 3207 H 294.061 1.75201 -3.77638 0
M  V30 3208 H 294.594 0.0651744 -3.97747 0
M  V30 3209 H 291.333 -1.84057 -6.29129 0
M  V30 3210 H 290.853 -0.153625 -5.99603 0
M  V30 3211 H 292.532 -0.540363 -6.4474 0
M  V30 3212 N 292.664 1.56529 -0.183458 0
M  V30 3213 C 293.911 1.97244 0.458357 0
M  V30 3214 C 294.239 1.06992 1.62428 0
M  V30 3215 O 293.494 0.106542 1.9541 0
M  V30 3216 C 293.793 3.43939 0.971637 0
M  V30 3217 C 293.459 4.5083 -0.0796784 0
M  V30 3218 C 292.121 4.79786 -0.368584 0
M  V30 3219 C 294.473 5.15138 -0.792638 0
M  V30 3220 C 291.801 5.70345 -1.37563 0
M  V30 3221 C 294.153 6.06784 -1.78875 0
M  V30 3222 C 292.817 6.34102 -2.08497 0
M  V30 3223 H 292.087 0.721768 0.167725 0
M  V30 3224 H 294.734 1.89472 -0.277976 0
M  V30 3225 H 293.039 3.48724 1.78602 0
M  V30 3226 H 294.736 3.72791 1.47744 0
M  V30 3227 H 291.326 4.28317 0.155668 0
M  V30 3228 H 295.51 4.92868 -0.582659 0
M  V30 3229 H 290.766 5.89789 -1.61118 0
M  V30 3230 H 294.94 6.55677 -2.3465 0
M  V30 3231 H 292.567 7.04074 -2.86678 0
M  V30 3232 N 294.142 -0.090211 1.57342 0
M  V30 3233 C 295.558 -0.444547 1.53284 0
M  V30 3234 C 295.758 -1.80238 0.900914 0
M  V30 3235 O 294.814 -2.4759 0.495513 0
M  V30 3236 C 296.127 -0.402543 2.97993 0
M  V30 3237 C 297.675 -0.48405 3.09234 0
M  V30 3238 C 298.15 -0.472144 4.5556 0
M  V30 3239 N 299.641 -0.532757 4.60126 0
M  V30 3240 C 300.376 -0.545462 5.708 0
M  V30 3241 N 299.872 -0.514082 6.9089 0
M  V30 3242 N 301.665 -0.59064 5.58988 0
M  V30 3243 H 293.816 0.799121 1.96794 0
M  V30 3244 H 296.079 0.297965 0.899956 0
M  V30 3245 H 295.785 0.528106 3.47712 0
M  V30 3246 H 295.659 -1.21969 3.56936 0
M  V30 3247 H 298.046 -1.40512 2.595 0
M  V30 3248 H 298.127 0.361328 2.53235 0
M  V30 3249 H 297.771 0.445 5.05947 0
M  V30 3250 H 297.701 -1.3348 5.09402 0
M  V30 3251 H 300.192 -0.562006 3.73698 0
M  V30 3252 H 300.505 -0.527195 7.71 0
M  V30 3253 H 298.85 -0.481054 6.93333 0
M  V30 3254 H 302.041 -0.61272 4.64073 0
M  V30 3255 H 302.214 -0.597073 6.45243 0
M  V30 3256 N 295.62 -1.53406 -0.361157 0
M  V30 3257 C 296.845 -1.74024 -1.12829 0
M  V30 3258 C 297.27 -0.470069 -1.82132 0
M  V30 3259 O 296.628 0.57619 -1.719 0
M  V30 3260 C 296.676 -2.90903 -2.13091 0
M  V30 3261 O 295.78 -2.59821 -3.20261 0
M  V30 3262 H 295.121 -0.577804 -0.327168 0
M  V30 3263 H 297.651 -2.00307 -0.41693 0
M  V30 3264 H 297.661 -3.17194 -2.56616 0
M  V30 3265 H 296.336 -3.83034 -1.62042 0
M  V30 3266 H 294.913 -2.44362 -2.81677 0
M  V30 3267 N 297.098 0.621204 -1.44841 0
M  V30 3268 C 298.509 1.20298 -1.42777 0
M  V30 3269 C 298.86 1.95639 -0.148259 0
M  V30 3270 O 297.985 2.02955 0.750892 0
M  V30 3271 C 298.58 2.1882 -2.58657 0
M  V30 3272 C 297.139 2.72403 -2.59756 0
M  V30 3273 C 296.286 1.4757 -2.34773 0
M  V30 3274 H 299.237 0.411297 -1.53278 0
M  V30 3275 H 299.258 3.01607 -2.31977 0
M  V30 3276 H 298.77 1.63957 -3.51766 0
M  V30 3277 H 296.871 3.31242 -1.70615 0
M  V30 3278 H 296.984 3.17765 -3.58556 0
M  V30 3279 H 295.348 1.76051 -1.8406 0
M  V30 3280 H 296.131 0.945954 -3.3001 0
M  V30 3281 N 298.576 1.31904 0.862503 0
M  V30 3282 C 299.801 1.25135 1.65397 0
M  V30 3283 C 300.226 -0.179 1.87246 0
M  V30 3284 O 299.584 -1.1277 1.4196 0
M  V30 3285 C 299.632 2.00832 2.99498 0
M  V30 3286 O 298.736 1.35075 3.89652 0
M  V30 3287 H 298.077 0.431655 0.504549 0
M  V30 3288 H 300.607 1.74094 1.07483 0
M  V30 3289 H 300.617 2.10709 3.49379 0
M  V30 3290 H 299.292 3.04847 2.82916 0
M  V30 3291 H 297.869 1.33696 3.48109 0
M  V30 3292 N 300.054 -1.07777 1.14986 0
M  V30 3293 C 301.002 -2.16964 0.838406 0
M  V30 3294 C 301.996 -1.68372 -0.186386 0
M  V30 3295 O 303.202 -1.79951 -0.0418465 0
M  V30 3296 H 299.577 -0.708006 0.253439 0
M  V30 3297 H 301.548 -2.40454 1.76704 0
M  V30 3298 C 300.297 -3.4604 0.339335 0
M  V30 3299 H 299.62 -3.83813 1.11927 0
M  V30 3300 H 301.06 -4.23698 0.160021 0
M  V30 3301 C 299.519 -3.23569 -0.938325 0
M  V30 3302 O 300.049 -3.47752 -2.01077 0
M  V30 3303 N 298.255 -2.77079 -0.876117 0
M  V30 3304 H 297.802 -2.576 -0.00322037 0
M  V30 3305 H 297.76 -2.62422 -1.73153 0
M  V30 3306 N 301.532 -0.945985 -1.26051 0
M  V30 3307 C 302.482 -0.430164 -2.23905 0
M  V30 3308 C 303.466 0.47579 -1.53704 0
M  V30 3309 O 304.658 0.310252 -1.7426 0
M  V30 3310 C 301.787 0.298957 -3.41996 0
M  V30 3311 C 300.873 -0.624566 -4.19476 0
M  V30 3312 N 301.264 -1.75245 -4.74471 0
M  V30 3313 C 299.562 -0.431082 -4.43912 0
M  V30 3314 C 300.263 -2.32834 -5.3307 0
M  V30 3315 N 299.239 -1.61583 -5.1903 0
M  V30 3316 H 303.041 -1.29107 -2.64024 0
M  V30 3317 H 300.555 -0.802428 -1.41191 0
M  V30 3318 H 302.552 0.685565 -4.11225 0
M  V30 3319 H 301.212 1.15657 -3.03403 0
M  V30 3320 H 302.223 -2.13449 -4.71868 0
M  V30 3321 H 298.9 0.384364 -4.15727 0
M  V30 3322 H 300.29 -3.27893 -5.86461 0
M  V30 3323 N 303.011 1.40521 -0.713556 0
M  V30 3324 C 303.958 2.30723 -0.059684 0
M  V30 3325 C 304.928 1.48079 0.752448 0
M  V30 3326 O 306.113 1.76823 0.71681 0
M  V30 3327 C 303.253 3.34274 0.857594 0
M  V30 3328 C 302.366 4.31986 0.0351536 0
M  V30 3329 C 301.501 5.22605 0.951724 0
M  V30 3330 C 300.54 6.11976 0.123253 0
M  V30 3331 N 299.677 6.9502 0.99459 0
M  V30 3332 H 304.517 2.86074 -0.834596 0
M  V30 3333 H 302.054 1.40879 -0.42326 0
M  V30 3334 H 304.012 3.92879 1.40364 0
M  V30 3335 H 302.642 2.8043 1.59871 0
M  V30 3336 H 301.694 3.7518 -0.628052 0
M  V30 3337 H 303.006 4.95101 -0.606347 0
M  V30 3338 H 302.16 5.86131 1.56638 0
M  V30 3339 H 300.899 4.59759 1.62705 0
M  V30 3340 H 299.904 5.47482 -0.50435 0
M  V30 3341 H 301.129 6.76881 -0.548539 0
M  V30 3342 H 299.075 6.34764 1.6556 0
M  V30 3343 H 298.992 7.54892 0.40908 0
M  V30 3344 H 300.26 7.62997 1.59549 0
M  V30 3345 N 304.489 0.459591 1.5075 0
M  V30 3346 C 305.719 -0.0972338 2.06371 0
M  V30 3347 C 306.127 -1.35074 1.32483 0
M  V30 3348 O 305.47 -1.79637 0.384226 0
M  V30 3349 C 305.532 -0.462759 3.56509 0
M  V30 3350 C 305.196 0.687084 4.51805 0
M  V30 3351 C 306.193 1.56578 4.95761 0
M  V30 3352 C 303.878 0.874144 4.94635 0
M  V30 3353 C 305.872 2.61604 5.81242 0
M  V30 3354 C 303.559 1.92765 5.79901 0
M  V30 3355 C 304.557 2.79697 6.23104 0
M  V30 3356 O 304.245 3.83235 7.06673 0
M  V30 3357 H 303.977 -0.00140687 0.675999 0
M  V30 3358 H 306.531 0.644011 1.95043 0
M  V30 3359 H 304.761 -1.25703 3.65699 0
M  V30 3360 H 306.45 -0.953323 3.94546 0
M  V30 3361 H 307.216 1.4329 4.6335 0
M  V30 3362 H 303.095 0.207006 4.60535 0
M  V30 3363 H 306.639 3.29489 6.14884 0
M  V30 3364 H 302.536 2.06064 6.11725 0
M  V30 3365 H 303.304 3.80084 7.24899 0
M  V30 3366 N 305.967 -1.56429 0.191757 0
M  V30 3367 C 307.244 -1.89224 -0.495332 0
M  V30 3368 C 307.624 -1.10478 -1.79883 0
M  V30 3369 O 306.972 -0.204852 -2.2758 0
M  V30 3370 C 307.182 -3.41548 -0.717367 0
M  V30 3371 C 308.53 -4.11711 -1.03823 0
M  V30 3372 O 309.554 -3.4698 -0.805204 0
M  V30 3373 O 308.413 -5.2611 -1.47887 0
M  V30 3374 H 305.507 -0.785788 -0.25781 0
M  V30 3375 H 308.053 -1.68111 0.231721 0
M  V30 3376 H 306.825 -3.90772 0.203287 0
M  V30 3377 H 306.448 -3.68342 -1.497 0
M  V30 3378 N 307.445 0.0818655 -1.57387 0
M  V30 3379 C 308.673 0.796108 -1.9097 0
M  V30 3380 C 309.088 1.71626 -0.786757 0
M  V30 3381 O 308.445 1.80908 0.240513 0
M  V30 3382 C 308.496 1.59829 -3.24248 0
M  V30 3383 O 308.217 0.715131 -4.32224 0
M  V30 3384 C 309.718 2.41442 -3.7178 0
M  V30 3385 H 306.938 0.22691 -0.631469 0
M  V30 3386 H 309.482 0.0551439 -2.04426 0
M  V30 3387 H 307.637 2.29163 -3.12351 0
M  V30 3388 H 308.051 1.27205 -5.08841 0
M  V30 3389 H 309.525 2.932 -4.67694 0
M  V30 3390 H 310.002 3.2051 -3.00283 0
M  V30 3391 H 310.608 1.77283 -3.86589 0
M  V30 3392 N 308.923 1.53595 0.353017 0
M  V30 3393 C 309.886 1.80232 1.41594 0
M  V30 3394 C 310.886 0.673081 1.46035 0
M  V30 3395 O 312.076 0.941335 1.46576 0
M  V30 3396 C 309.208 1.93578 2.80607 0
M  V30 3397 H 310.401 2.75174 1.19244 0
M  V30 3398 H 307.954 1.44864 0.586872 0
M  V30 3399 H 308.689 1.00746 3.08254 0
M  V30 3400 H 308.474 2.75724 2.78781 0
M  V30 3401 H 309.964 2.15735 3.57558 0
M  V30 3402 N 310.401 -0.613514 1.45168 0
M  V30 3403 C 311.678 -1.37263 1.39349 0
M  V30 3404 C 312.058 -2.11012 0.0610848 0
M  V30 3405 O 311.406 -2.07502 -0.956825 0
M  V30 3406 C 311.616 -2.3244 2.60332 0
M  V30 3407 C 312.964 -2.9523 3.05163 0
M  V30 3408 O 313.988 -2.42762 2.60663 0
M  V30 3409 O 312.847 -3.90454 3.82372 0
M  V30 3410 H 309.941 -0.615188 0.552696 0
M  V30 3411 H 312.487 -0.637097 1.57287 0
M  V30 3412 H 311.259 -1.77164 3.48896 0
M  V30 3413 H 310.882 -3.13383 2.44698 0
M  V30 3414 N 311.879 -1.3236 -0.855495 0
M  V30 3415 C 313.109 -1.25688 -1.6397 0
M  V30 3416 C 313.517 0.177592 -1.88365 0
M  V30 3417 O 312.86 1.12485 -1.45234 0
M  V30 3418 C 312.922 -1.94602 -3.02275 0
M  V30 3419 C 312.586 -3.43937 -3.00926 0
M  V30 3420 C 313.583 -4.39435 -2.77835 0
M  V30 3421 C 311.268 -3.85858 -3.21588 0
M  V30 3422 C 313.262 -5.74829 -2.75409 0
M  V30 3423 C 310.949 -5.21361 -3.18789 0
M  V30 3424 C 311.947 -6.15658 -2.95727 0
M  V30 3425 O 311.635 -7.48681 -2.928 0
M  V30 3426 H 311.367 -0.434972 -0.51747 0
M  V30 3427 H 313.921 -1.75023 -1.075 0
M  V30 3428 H 312.151 -1.39836 -3.60531 0
M  V30 3429 H 313.84 -1.81651 -3.62985 0
M  V30 3430 H 314.606 -4.08374 -2.6164 0
M  V30 3431 H 310.485 -3.12883 -3.38564 0
M  V30 3432 H 314.029 -6.48404 -2.57328 0
M  V30 3433 H 309.926 -5.52052 -3.34528 0
M  V30 3434 H 310.694 -7.5803 -3.0876 0
M  V30 3435 N 313.357 1.07166 -1.15556 0
M  V30 3436 C 314.604 1.79798 -0.931604 0
M  V30 3437 C 314.932 1.8682 0.54115 0
M  V30 3438 O 314.187 1.34942 1.41736 0
M  V30 3439 C 314.486 3.24707 -1.49332 0
M  V30 3440 C 314.152 3.37781 -2.98688 0
M  V30 3441 C 312.814 3.41057 -3.39461 0
M  V30 3442 C 315.166 3.40424 -3.94665 0
M  V30 3443 C 312.494 3.4458 -4.74849 0
M  V30 3444 C 314.846 3.45485 -5.29927 0
M  V30 3445 C 313.51 3.47039 -5.70193 0
M  V30 3446 H 312.78 0.657928 -0.340898 0
M  V30 3447 H 315.427 1.26091 -1.44129 0
M  V30 3448 H 313.732 3.81208 -0.904859 0
M  V30 3449 H 315.429 3.79486 -1.29582 0
M  V30 3450 H 312.019 3.35932 -2.66172 0
M  V30 3451 H 316.203 3.37113 -3.64237 0
M  V30 3452 H 311.459 3.44083 -5.05388 0
M  V30 3453 H 315.633 3.46476 -6.04092 0
M  V30 3454 H 313.26 3.49522 -6.75084 0
M  V30 3455 N 314.835 0.952656 1.25548 0
M  V30 3456 C 315.745 0.47782 2.29682 0
M  V30 3457 C 316.761 -0.453859 1.67977 0
M  V30 3458 O 317.937 -0.330587 1.98668 0
M  V30 3459 C 315.002 -0.238655 3.45878 0
M  V30 3460 C 314.063 0.730994 4.23031 0
M  V30 3461 C 313.296 0.0486165 5.33678 0
M  V30 3462 O 313.519 -1.16612 5.58353 0
M  V30 3463 O 312.453 0.733152 5.97418 0
M  V30 3464 H 316.279 1.34312 2.72386 0
M  V30 3465 H 313.864 0.719026 1.30959 0
M  V30 3466 H 315.746 -0.641774 4.16484 0
M  V30 3467 H 314.421 -1.07916 3.05181 0
M  V30 3468 H 313.328 1.18428 3.5486 0
M  V30 3469 H 314.661 1.53946 4.67506 0
M  V30 3470 N 316.313 -1.40141 0.720998 0
M  V30 3471 C 317.559 -2.01084 0.263231 0
M  V30 3472 C 317.892 -1.57052 -1.14229 0
M  V30 3473 O 317.167 -0.793027 -1.77599 0
M  V30 3474 C 317.45 -3.58401 0.349344 0
M  V30 3475 C 317.303 -4.12491 1.79363 0
M  V30 3476 C 318.622 -4.39231 -0.276351 0
M  V30 3477 H 315.741 -0.730572 0.0971228 0
M  V30 3478 H 318.383 -1.66543 0.914518 0
M  V30 3479 H 316.533 -3.87958 -0.205165 0
M  V30 3480 H 318.205 -3.93711 2.40394 0
M  V30 3481 H 316.448 -3.66576 2.31958 0
M  V30 3482 H 317.119 -5.21646 1.80524 0
M  V30 3483 H 319.595 -4.15637 0.196184 0
M  V30 3484 H 318.471 -5.48586 -0.185681 0
M  V30 3485 H 318.732 -4.20643 -1.36059 0
M  V30 3486 N 317.792 -0.46758 -1.50504 0
M  V30 3487 C 319.069 0.15003 -1.95024 0
M  V30 3488 C 319.449 1.57304 -1.40779 0
M  V30 3489 O 318.797 2.20281 -0.607319 0
M  V30 3490 C 319.007 0.0969324 -3.48865 0
M  V30 3491 C 320.355 0.287565 -4.23625 0
M  V30 3492 O 321.379 0.173678 -3.55776 0
M  V30 3493 O 320.238 0.517186 -5.44047 0
M  V30 3494 H 317.332 0.113582 -0.819163 0
M  V30 3495 H 319.878 -0.52773 -1.61286 0
M  V30 3496 H 318.65 -0.896732 -3.80886 0
M  V30 3497 H 318.273 0.816303 -3.8913 0
M  V30 3498 N 319.27 1.56325 -0.20005 0
M  V30 3499 C 320.681 1.8408 0.31167 0
M  V30 3500 C 321.032 1.12087 1.61031 0
M  V30 3501 O 320.157 0.38332 2.12978 0
M  V30 3502 C 320.752 3.33932 0.57226 0
M  V30 3503 C 319.311 3.6208 1.02834 0
M  V30 3504 C 318.458 2.77186 0.079634 0
M  V30 3505 H 321.409 1.52939 -0.423729 0
M  V30 3506 H 321.43 3.52971 1.42096 0
M  V30 3507 H 320.942 3.86303 -0.37308 0
M  V30 3508 H 319.043 3.15147 1.98778 0
M  V30 3509 H 319.156 4.7023 0.917624 0
M  V30 3510 H 317.52 2.47951 0.582448 0
M  V30 3511 H 318.303 3.32347 -0.860238 0
M  V30 3512 N 320.748 -0.0735177 1.57428 0
M  V30 3513 C 321.698 -1.09442 2.00016 0
M  V30 3514 C 322.682 -1.34575 0.881947 0
M  V30 3515 O 323.874 -1.34905 1.14585 0
M  V30 3516 C 321.003 -2.40865 2.4462 0
M  V30 3517 C 320.089 -2.19014 3.63172 0
M  V30 3518 N 320.48 -1.67087 4.77405 0
M  V30 3519 C 318.778 -2.49494 3.69688 0
M  V30 3520 C 319.479 -1.6001 5.5926 0
M  V30 3521 N 318.455 -2.05999 5.03056 0
M  V30 3522 H 322.257 -0.686227 2.85776 0
M  V30 3523 H 319.771 -0.280617 1.59957 0
M  V30 3524 H 321.768 -3.14763 2.73368 0
M  V30 3525 H 320.428 -2.82403 1.60246 0
M  V30 3526 H 321.439 -1.35975 4.99731 0
M  V30 3527 H 318.116 -2.94409 2.96023 0
M  V30 3528 H 319.506 -1.2073 6.60964 0
M  V30 3529 N 322.226 -1.5378 -0.344866 0
M  V30 3530 C 323.473 -1.70963 -1.08526 0
M  V30 3531 C 323.801 -0.472126 -1.88683 0
M  V30 3532 O 323.056 0.546116 -1.87926 0
M  V30 3533 C 323.355 -2.92407 -2.05506 0
M  V30 3534 C 323.021 -4.28066 -1.41671 0
M  V30 3535 C 321.683 -4.64951 -1.2399 0
M  V30 3536 C 324.035 -5.12344 -0.956726 0
M  V30 3537 C 321.363 -5.83733 -0.589277 0
M  V30 3538 C 323.715 -6.3179 -0.320015 0
M  V30 3539 C 322.379 -6.67372 -0.130881 0
M  V30 3540 H 321.649 -0.625598 -0.397124 0
M  V30 3541 H 324.296 -1.87995 -0.36469 0
M  V30 3542 H 322.601 -2.69973 -2.8394 0
M  V30 3543 H 324.298 -3.02895 -2.62784 0
M  V30 3544 H 320.888 -3.99034 -1.56429 0
M  V30 3545 H 325.072 -4.8438 -1.08118 0
M  V30 3546 H 320.328 -6.09877 -0.431344 0
M  V30 3547 H 324.502 -6.96386 0.0445072 0
M  V30 3548 H 322.129 -7.59273 0.375318 0
M  V30 3549 N 323.704 0.605807 -1.45491 0
M  V30 3550 C 324.952 1.36207 -1.49305 0
M  V30 3551 C 325.273 1.94519 -0.136863 0
M  V30 3552 O 324.543 1.77261 0.833983 0
M  V30 3553 H 323.123 0.50565 -0.549843 0
M  V30 3554 H 325.785 0.711239 -1.81459 0
M  V30 3555 H 324.881 2.18058 -2.23287 0
M  V30 3556 N 325.182 1.32811 0.848464 0
M  V30 3557 C 326.459 1.14334 1.58704 0
M  V30 3558 C 326.839 -0.293948 2.09043 0
M  V30 3559 O 326.187 -1.29153 1.88499 0
M  V30 3560 C 326.397 2.17626 2.72837 0
M  V30 3561 C 327.745 2.51282 3.42261 0
M  V30 3562 O 328.769 2.16219 2.83068 0
M  V30 3563 O 327.628 3.11413 4.49093 0
M  V30 3564 H 324.722 0.441601 0.699226 0
M  V30 3565 H 327.268 1.44362 0.892053 0
M  V30 3566 H 326.04 3.14211 2.3321 0
M  V30 3567 H 325.663 1.88628 3.50008 0
M  V30 3568 N 326.66 -1.06551 1.16123 0
M  V30 3569 C 327.607 -2.13961 0.865414 0
M  V30 3570 C 328.577 -1.65066 -0.185055 0
M  V30 3571 O 329.762 -1.90732 -0.05083 0
M  V30 3572 C 326.902 -3.43113 0.369776 0
M  V30 3573 C 326.015 -4.05756 1.48276 0
M  V30 3574 C 325.15 -5.22773 0.942414 0
M  V30 3575 C 324.189 -5.77395 2.03179 0
M  V30 3576 N 323.326 -6.85731 1.50721 0
M  V30 3577 H 328.166 -2.38605 1.78527 0
M  V30 3578 H 325.703 -1.17072 0.890646 0
M  V30 3579 H 327.661 -4.17151 0.0640643 0
M  V30 3580 H 326.291 -3.18695 -0.513143 0
M  V30 3581 H 325.343 -3.29292 1.9045 0
M  V30 3582 H 326.655 -4.42351 2.30493 0
M  V30 3583 H 325.809 -6.03827 0.589729 0
M  V30 3584 H 324.548 -4.87618 0.0895191 0
M  V30 3585 H 323.553 -4.94981 2.3932 0
M  V30 3586 H 324.778 -6.14603 2.8886 0
M  V30 3587 H 322.724 -6.52499 0.676811 0
M  V30 3588 H 322.641 -7.21254 2.26557 0
M  V30 3589 H 323.909 -7.7047 1.18303 0
M  V30 3590 N 328.138 -0.959301 -1.25041 0
M  V30 3591 C 329.048 -0.489994 -2.29426 0
M  V30 3592 C 330.064 0.444944 -1.68215 0
M  V30 3593 O 331.24 0.320046 -1.98841 0
M  V30 3594 C 328.305 0.220309 -3.45999 0
M  V30 3595 C 327.366 -0.753418 -4.22637 0
M  V30 3596 C 326.599 -0.076918 -5.33645 0
M  V30 3597 O 326.822 1.13649 -5.58963 0
M  V30 3598 O 325.756 -0.764824 -5.97021 0
M  V30 3599 H 329.582 -1.35755 -2.71669 0
M  V30 3600 H 327.167 -0.725961 -1.30576 0
M  V30 3601 H 329.049 0.619677 -4.16819 0
M  V30 3602 H 327.724 1.06296 -3.0575 0
M  V30 3603 H 326.631 -1.20308 -3.54227 0
M  V30 3604 H 327.964 -1.56423 -4.66683 0
M  V30 3605 N 329.616 1.39756 -0.72842 0
M  V30 3606 C 330.844 2.04948 -0.283528 0
M  V30 3607 C 331.259 1.54908 1.0793 0
M  V30 3608 O 330.616 0.711135 1.68075 0
M  V30 3609 C 330.667 3.60498 -0.268957 0
M  V30 3610 O 330.388 4.08695 -1.57798 0
M  V30 3611 C 331.889 4.4288 0.192912 0
M  V30 3612 H 329.109 0.659243 -0.125056 0
M  V30 3613 H 331.653 1.78927 -0.990226 0
M  V30 3614 H 329.808 3.85444 0.388801 0
M  V30 3615 H 330.222 5.02977 -1.48709 0
M  V30 3616 H 331.696 5.51791 0.151952 0
M  V30 3617 H 332.173 4.21418 1.23708 0
M  V30 3618 H 332.779 4.23069 -0.435039 0
M  V30 3619 N 331.094 0.475555 1.50254 0
M  V30 3620 C 332.024 -0.30611 2.31485 0
M  V30 3621 C 333.005 -0.986228 1.38591 0
M  V30 3622 O 334.19 -0.982541 1.67511 0
M  V30 3623 C 331.32 -1.38588 3.1845 0
M  V30 3624 C 330.274 -0.827115 4.19932 0
M  V30 3625 C 329.6 -2.00551 4.95665 0
M  V30 3626 C 330.9 0.16463 5.2204 0
M  V30 3627 H 332.594 0.371866 2.97082 0
M  V30 3628 H 330.14 0.180282 1.42867 0
M  V30 3629 H 332.093 -1.94023 3.74076 0
M  V30 3630 H 330.817 -2.09269 2.50747 0
M  V30 3631 H 329.476 -0.294702 3.65414 0
M  V30 3632 H 329.124 -2.6994 4.2443 0
M  V30 3633 H 328.824 -1.63784 5.64313 0
M  V30 3634 H 330.348 -2.56468 5.54127 0
M  V30 3635 H 331.762 -0.300699 5.72511 0
M  V30 3636 H 330.159 0.446813 5.98434 0
M  V30 3637 H 331.229 1.08905 4.72512 0
M  V30 3638 N 332.573 -1.56217 0.208337 0
M  V30 3639 C 333.52 -2.19699 -0.707192 0
M  V30 3640 C 334.49 -1.14836 -1.20008 0
M  V30 3641 O 335.675 -1.4314 -1.26157 0
M  V30 3642 C 332.815 -2.87061 -1.91546 0
M  V30 3643 C 331.928 -4.06483 -1.46271 0
M  V30 3644 C 331.063 -4.61665 -2.62752 0
M  V30 3645 C 330.102 -5.73417 -2.14147 0
M  V30 3646 N 329.239 -6.22948 -3.23853 0
M  V30 3647 H 334.079 -2.97575 -0.159111 0
M  V30 3648 H 331.616 -1.46948 -0.0667874 0
M  V30 3649 H 333.574 -3.24294 -2.62468 0
M  V30 3650 H 332.204 -2.11725 -2.43664 0
M  V30 3651 H 331.256 -3.74825 -0.648886 0
M  V30 3652 H 332.568 -4.87271 -1.06622 0
M  V30 3653 H 331.722 -5.01272 -3.41776 0
M  V30 3654 H 330.461 -3.80013 -3.05682 0
M  V30 3655 H 329.466 -5.33326 -1.33581 0
M  V30 3656 H 330.691 -6.56897 -1.72232 0
M  V30 3657 H 328.637 -5.44213 -3.6629 0
M  V30 3658 H 328.554 -6.98823 -2.88414 0
M  V30 3659 H 329.822 -6.6721 -4.03052 0
M  V30 3660 N 334.051 0.0651679 -1.57465 0
M  V30 3661 C 335.279 0.775808 -1.91804 0
M  V30 3662 C 335.694 1.70782 -0.804916 0
M  V30 3663 O 335.051 1.81153 0.221311 0
M  V30 3664 C 335.102 1.56381 -3.25925 0
M  V30 3665 O 334.823 0.669248 -4.32958 0
M  V30 3666 C 336.324 2.37485 -3.7432 0
M  V30 3667 H 333.544 0.2202 -0.63384 0
M  V30 3668 H 336.088 0.0334587 -2.04473 0
M  V30 3669 H 334.243 2.25837 -3.14764 0
M  V30 3670 H 334.657 1.21801 -5.10162 0
M  V30 3671 H 336.131 2.88223 -4.70778 0
M  V30 3672 H 336.608 3.17307 -3.03666 0
M  V30 3673 H 337.214 1.73173 -3.88447 0
M  V30 3674 N 335.529 1.53961 0.336706 0
M  V30 3675 C 336.459 1.85417 1.41925 0
M  V30 3676 C 337.44 0.709856 1.5458 0
M  V30 3677 O 338.625 0.962396 1.68676 0
M  V30 3678 C 335.755 2.06985 2.78881 0
M  V30 3679 C 334.709 3.22813 2.81026 0
M  V30 3680 C 334.035 3.29727 4.20932 0
M  V30 3681 C 335.335 4.60767 2.45949 0
M  V30 3682 H 337.029 2.76079 1.15848 0
M  V30 3683 H 334.575 1.32839 0.555859 0
M  V30 3684 H 336.528 2.27575 3.54665 0
M  V30 3685 H 335.252 1.13061 3.06406 0
M  V30 3686 H 333.911 3.0209 2.07695 0
M  V30 3687 H 333.559 2.33385 4.45579 0
M  V30 3688 H 333.259 4.07566 4.23277 0
M  V30 3689 H 334.783 3.52536 4.98549 0
M  V30 3690 H 336.197 4.81325 3.11446 0
M  V30 3691 H 334.594 5.4106 2.59566 0
M  V30 3692 H 335.664 4.6391 1.41122 0
M  V30 3693 N 337.007 -0.598083 1.45811 0
M  V30 3694 C 338.256 -1.35295 1.49594 0
M  V30 3695 C 338.569 -1.95057 0.145679 0
M  V30 3696 O 339.775 -2.71431 0.0612099 0
M  V30 3697 C 338.231 -2.45124 2.63519 0
M  V30 3698 C 337.839 -1.91732 4.04899 0
M  V30 3699 C 339.583 -3.2205 2.76558 0
M  V30 3700 C 337.49 -2.991 5.1019 0
M  V30 3701 H 336.42 -0.508552 0.556679 0
M  V30 3702 H 339.071 -0.639977 1.71978 0
M  V30 3703 H 337.453 -3.19149 2.34435 0
M  V30 3704 H 338.627 -1.24352 4.43704 0
M  V30 3705 H 336.942 -1.27522 3.96393 0
M  V30 3706 H 339.539 -4.0215 3.52391 0
M  V30 3707 H 339.882 -3.73663 1.83526 0
M  V30 3708 H 340.415 -2.55127 3.05213 0
M  V30 3709 H 337.154 -2.52393 6.04961 0
M  V30 3710 H 336.674 -3.65017 4.75944 0
M  V30 3711 H 338.353 -3.63318 5.35359 0
M  V30 3712 N 338.485 -1.33259 -0.841409 0
M  V30 3713 C 339.762 -1.15174 -1.58096 0
M  V30 3714 C 340.142 0.282858 -2.09196 0
M  V30 3715 O 339.49 1.28151 -1.89181 0
M  V30 3716 C 339.7 -2.1907 -2.71679 0
M  V30 3717 C 341.048 -2.53093 -3.40924 0
M  V30 3718 O 342.072 -2.17717 -2.81918 0
M  V30 3719 O 340.931 -3.1379 -4.47435 0
M  V30 3720 H 338.025 -0.445303 -0.696875 0
M  V30 3721 H 340.571 -1.44833 -0.884385 0
M  V30 3722 H 339.343 -3.15443 -2.31541 0
M  V30 3723 H 338.966 -1.90481 -3.49002 0
M  V30 3724 N 339.963 1.05934 -1.16686 0
M  V30 3725 C 341.379 1.30938 -0.912542 0
M  V30 3726 C 341.579 1.96803 0.432533 0
M  V30 3727 O 340.635 2.23693 1.17123 0
M  V30 3728 C 341.948 2.18649 -2.06429 0
M  V30 3729 C 343.496 2.32055 -2.10047 0
M  V30 3730 C 343.971 3.23122 -3.24586 0
M  V30 3731 N 345.462 3.30706 -3.24327 0
M  V30 3732 C 346.197 4.01273 -4.09594 0
M  V30 3733 N 345.693 4.74332 -5.04956 0
M  V30 3734 N 347.486 3.97361 -3.97569 0
M  V30 3735 H 339.637 0.615777 -2.03278 0
M  V30 3736 H 341.9 0.334077 -0.887185 0
M  V30 3737 H 341.606 1.77534 -3.03603 0
M  V30 3738 H 341.48 3.19252 -2.00894 0
M  V30 3739 H 343.867 2.72415 -1.13464 0
M  V30 3740 H 343.948 1.31107 -2.19647 0
M  V30 3741 H 343.592 2.83477 -4.2143 0
M  V30 3742 H 343.522 4.24057 -3.12223 0
M  V30 3743 H 346.013 2.78644 -2.55276 0
M  V30 3744 H 346.326 5.25716 -5.6643 0
M  V30 3745 H 344.671 4.733 -5.08933 0
M  V30 3746 H 347.862 3.39405 -3.22369 0
M  V30 3747 H 348.035 4.52089 -4.64241 0
M  V30 3748 N 341.441 0.965919 1.2453 0
M  V30 3749 C 342.681 0.634656 1.94297 0
M  V30 3750 C 343.045 -0.814822 1.73852 0
M  V30 3751 O 344.246 -1.25622 2.3764 0
M  V30 3752 C 342.517 0.99702 3.43212 0
M  V30 3753 S 344.076 0.780038 4.31811 0
M  V30 3754 H 340.894 0.232893 0.671775 0
M  V30 3755 H 343.496 1.24249 1.50938 0
M  V30 3756 H 342.2 2.04886 3.55598 0
M  V30 3757 H 341.731 0.379888 3.91562 0
M  V30 3758 H 343.746 -0.343512 4.9501 0
M  V30 3759 N 342.919 -1.39368 0.735821 0
M  V30 3760 C 343.869 -2.27885 0.0724287 0
M  V30 3761 C 344.853 -1.44301 -0.711756 0
M  V30 3762 O 346.045 -1.67206 -0.58063 0
M  V30 3763 C 343.174 -3.33029 -0.833454 0
M  V30 3764 C 342.26 -4.24078 -0.0433749 0
M  V30 3765 N 342.651 -4.96138 0.983903 0
M  V30 3766 C 340.949 -4.45164 -0.272905 0
M  V30 3767 C 341.65 -5.63069 1.4604 0
M  V30 3768 N 340.626 -5.37991 0.778857 0
M  V30 3769 H 344.428 -2.81052 0.859467 0
M  V30 3770 H 341.942 -1.5206 0.570227 0
M  V30 3771 H 343.939 -3.95311 -1.32419 0
M  V30 3772 H 342.599 -2.81421 -1.61964 0
M  V30 3773 H 343.61 -4.9958 1.36528 0
M  V30 3774 H 340.287 -4.04497 -1.03383 0
M  V30 3775 H 341.677 -6.30755 2.31511 0
M  V30 3776 N 344.397 -0.483516 -1.5 0
M  V30 3777 C 345.307 0.309172 -2.32554 0
M  V30 3778 C 346.323 0.984159 -1.43493 0
M  V30 3779 O 347.499 0.969399 -1.76535 0
M  V30 3780 C 344.564 1.36979 -3.18493 0
M  V30 3781 C 343.625 0.710095 -4.23387 0
M  V30 3782 C 342.858 1.72018 -5.05218 0
M  V30 3783 O 343.081 2.94813 -4.88305 0
M  V30 3784 O 342.015 1.28515 -5.8802 0
M  V30 3785 H 345.841 -0.366064 -3.01486 0
M  V30 3786 H 343.426 -0.24514 -1.47375 0
M  V30 3787 H 345.308 1.98385 -3.71781 0
M  V30 3788 H 343.983 2.02828 -2.52275 0
M  V30 3789 H 342.89 0.0567539 -3.74057 0
M  V30 3790 H 344.223 0.0943557 -4.9211 0
M  V30 3791 N 345.875 1.56104 -0.216619 0
M  V30 3792 C 346.822 2.2007 0.695531 0
M  V30 3793 C 347.792 1.15471 1.19397 0
M  V30 3794 O 348.977 1.43807 1.25396 0
M  V30 3795 C 346.117 2.88073 1.90021 0
M  V30 3796 C 345.23 4.07253 1.44113 0
M  V30 3797 C 344.365 4.63052 2.603 0
M  V30 3798 C 343.404 5.74545 2.11103 0
M  V30 3799 N 342.541 6.24656 3.20545 0
M  V30 3800 H 347.381 2.97655 0.143327 0
M  V30 3801 H 344.918 1.46982 0.0589934 0
M  V30 3802 H 346.876 3.25681 2.60745 0
M  V30 3803 H 345.506 2.13015 2.42538 0
M  V30 3804 H 344.558 3.75164 0.628999 0
M  V30 3805 H 345.87 4.8783 1.04036 0
M  V30 3806 H 345.024 5.03078 3.39113 0
M  V30 3807 H 343.763 3.81628 3.03663 0
M  V30 3808 H 342.768 5.34027 1.3075 0
M  V30 3809 H 343.993 6.57801 1.68746 0
M  V30 3810 H 341.939 5.46148 3.63399 0
M  V30 3811 H 341.856 7.00343 2.84704 0
M  V30 3812 H 343.124 6.69338 3.99508 0
M  V30 3813 N 347.353 -0.0568162 1.57498 0
M  V30 3814 C 348.601 -0.751617 1.87604 0
M  V30 3815 C 348.922 -1.77351 0.81066 0
M  V30 3816 O 348.192 -1.95254 -0.159018 0
M  V30 3817 H 346.772 -0.280583 0.692302 0
M  V30 3818 H 349.434 -0.0293483 1.94878 0
M  V30 3819 H 348.53 -1.25852 2.856 0
M  V30 3820 N 348.832 -1.54138 -0.328536 0
M  V30 3821 C 350.081 -1.71318 -1.06456 0
M  V30 3822 C 350.394 -0.491109 -1.89334 0
M  V30 3823 O 351.6 -0.54416 -2.65991 0
M  V30 3824 C 350.056 -3.03 -1.94214 0
M  V30 3825 C 349.664 -4.32595 -1.16471 0
M  V30 3826 C 351.408 -3.29544 -2.67583 0
M  V30 3827 C 349.315 -5.55341 -2.03347 0
M  V30 3828 H 348.245 -0.638429 -0.401155 0
M  V30 3829 H 350.896 -1.80633 -0.323106 0
M  V30 3830 H 349.278 -2.87579 -2.72239 0
M  V30 3831 H 350.452 -4.58766 -0.432525 0
M  V30 3832 H 348.767 -4.12777 -0.548063 0
M  V30 3833 H 351.364 -4.18444 -3.3288 0
M  V30 3834 H 351.707 -2.47206 -3.34955 0
M  V30 3835 H 352.24 -3.45809 -1.96623 0
M  V30 3836 H 348.979 -6.40268 -1.40491 0
M  V30 3837 H 348.499 -5.33397 -2.74313 0
M  V30 3838 H 350.178 -5.91557 -2.62049 0
M  V30 3839 N 350.31 0.590341 -1.46126 0
M  V30 3840 C 351.726 0.912917 -1.30912 0
M  V30 3841 C 351.926 1.99616 -0.274893 0
M  V30 3842 O 350.982 2.50397 0.325197 0
M  V30 3843 C 352.295 1.3375 -2.69317 0
M  V30 3844 C 353.843 1.45077 -2.77348 0
M  V30 3845 C 354.318 1.90904 -4.16317 0
M  V30 3846 N 355.809 1.9811 -4.18696 0
M  V30 3847 C 356.544 2.34828 -5.23109 0
M  V30 3848 N 356.04 2.70393 -6.37856 0
M  V30 3849 N 357.833 2.35317 -5.10473 0
M  V30 3850 H 349.984 -0.125358 -2.1203 0
M  V30 3851 H 352.247 0.00658481 -0.947977 0
M  V30 3852 H 351.953 0.615614 -3.4627 0
M  V30 3853 H 351.827 2.30058 -2.9892 0
M  V30 3854 H 354.214 2.16353 -2.00687 0
M  V30 3855 H 354.295 0.4704 -2.51438 0
M  V30 3856 H 353.939 1.20209 -4.9347 0
M  V30 3857 H 353.869 2.89886 -4.39629 0
M  V30 3858 H 356.36 1.73146 -3.359 0
M  V30 3859 H 356.673 2.97341 -7.13308 0
M  V30 3860 H 355.018 2.68048 -6.41229 0
M  V30 3861 H 358.209 2.0695 -4.19868 0
M  V30 3862 H 358.382 2.63605 -5.9196 0
M  V30 3863 N 351.788 1.33704 0.83433 0
M  V30 3864 C 353.034 1.25603 1.59222 0
M  V30 3865 C 353.367 -0.176659 1.93395 0
M  V30 3866 O 352.642 -1.11915 1.59076 0
M  V30 3867 C 352.925 2.13576 2.89926 0
M  V30 3868 C 352.778 3.65326 2.62406 0
M  V30 3869 C 354.097 2.01238 3.91397 0
M  V30 3870 H 351.216 0.457613 0.577719 0
M  V30 3871 H 353.858 1.63848 0.961972 0
M  V30 3872 H 352.008 1.8109 3.43713 0
M  V30 3873 H 353.68 4.08124 2.15017 0
M  V30 3874 H 351.923 3.8698 1.96033 0
M  V30 3875 H 352.594 4.22232 3.55562 0
M  V30 3876 H 355.07 2.29738 3.46929 0
M  V30 3877 H 353.946 2.65036 4.80673 0
M  V30 3878 H 354.207 0.985951 4.30966 0
M  V30 3879 N 353.266 -1.05314 1.17247 0
M  V30 3880 C 354.199 -2.12512 0.831507 0
M  V30 3881 C 355.177 -1.61351 -0.201168 0
M  V30 3882 O 356.361 -1.88317 -0.0829831 0
M  V30 3883 C 353.488 -3.37848 0.24015 0
M  V30 3884 C 352.534 -4.07832 1.24801 0
M  V30 3885 S 353.367 -4.56537 2.79882 0
M  V30 3886 C 354.523 -5.85122 2.22223 0
M  V30 3887 H 354.756 -2.41106 1.7394 0
M  V30 3888 H 352.289 -1.17896 0.996988 0
M  V30 3889 H 354.247 -4.10391 -0.0945588 0
M  V30 3890 H 352.908 -3.07392 -0.645668 0
M  V30 3891 H 352.101 -4.97883 0.78287 0
M  V30 3892 H 351.703 -3.41348 1.52831 0
M  V30 3893 H 353.995 -6.58408 1.59703 0
M  V30 3894 H 354.938 -6.36381 3.10523 0
M  V30 3895 H 355.346 -5.39626 1.65722 0
M  V30 3896 N 354.744 -0.972509 -1.24016 0
M  V30 3897 C 355.674 -0.525548 -2.27509 0
M  V30 3898 C 356.655 0.437262 -1.64384 0
M  V30 3899 O 357.84 0.332343 -1.91335 0
M  V30 3900 C 354.97 0.180448 -3.46831 0
M  V30 3901 C 353.924 -0.698859 -4.22256 0
M  V30 3902 C 353.25 0.138903 -5.3452 0
M  V30 3903 C 354.55 -1.98582 -4.83076 0
M  V30 3904 H 356.244 -1.39058 -2.65148 0
M  V30 3905 H 353.79 -0.67009 -1.27459 0
M  V30 3906 H 355.743 0.504387 -4.18371 0
M  V30 3907 H 354.467 1.07987 -3.08231 0
M  V30 3908 H 353.126 -1.00614 -3.52523 0
M  V30 3909 H 352.774 1.03862 -4.9216 0
M  V30 3910 H 352.474 -0.446259 -5.85903 0
M  V30 3911 H 353.998 0.457404 -6.08884 0
M  V30 3912 H 355.412 -1.72715 -5.46665 0
M  V30 3913 H 353.809 -2.5181 -5.44713 0
M  V30 3914 H 354.879 -2.67769 -4.04262 0
M  V30 3915 N 356.222 1.38976 -0.743202 0
M  V30 3916 C 357.499 1.94351 -0.220705 0
M  V30 3917 C 357.879 1.67935 1.2791 0
M  V30 3918 O 357.227 1.01211 2.04862 0
M  V30 3919 C 357.437 3.44426 -0.563171 0
M  V30 3920 C 358.785 4.2144 -0.517046 0
M  V30 3921 O 359.809 3.52661 -0.500846 0
M  V30 3922 O 358.668 5.44032 -0.518806 0
M  V30 3923 H 355.762 0.825879 -0.043047 0
M  V30 3924 H 358.308 1.48429 -0.822618 0
M  V30 3925 H 357.08 3.5712 -1.59941 0
M  V30 3926 H 356.703 3.97543 0.0672883 0
M  V30 3927 N 357.7 0.491464 1.49741 0
M  V30 3928 C 358.663 -0.280906 2.27472 0
M  V30 3929 C 359.663 -0.902454 1.33088 0
M  V30 3930 O 360.853 -0.768465 1.56334 0
M  V30 3931 C 357.985 -1.40209 3.10732 0
M  V30 3932 H 359.178 0.401056 2.97206 0
M  V30 3933 H 356.731 0.246131 1.5435 0
M  V30 3934 H 357.466 -2.11849 2.45541 0
M  V30 3935 H 357.251 -0.961969 3.80117 0
M  V30 3936 H 358.741 -1.9464 3.69466 0
M  V30 3937 N 359.178 -1.55987 0.224894 0
M  V30 3938 C 360.424 -1.98684 -0.406502 0
M  V30 3939 C 360.757 -1.11248 -1.59177 0
M  V30 3940 O 360.032 -0.170909 -1.93748 0
M  V30 3941 C 360.315 -3.50218 -0.837808 0
M  V30 3942 C 360.168 -4.48426 0.351332 0
M  V30 3943 C 361.487 -4.06243 -1.69278 0
M  V30 3944 H 358.606 -0.722337 -0.146283 0
M  V30 3945 H 361.248 -1.87255 0.321799 0
M  V30 3946 H 359.398 -3.60089 -1.45837 0
M  V30 3947 H 361.07 -4.50562 0.989526 0
M  V30 3948 H 359.313 -4.22159 0.998207 0
M  V30 3949 H 359.984 -5.52 0.00655905 0
M  V30 3950 H 362.46 -3.99337 -1.16914 0
M  V30 3951 H 361.336 -5.12581 -1.96346 0
M  V30 3952 H 361.597 -3.53332 -2.65723 0
M  V30 3953 N 360.656 0.0484629 -1.57525 0
M  V30 3954 C 361.903 0.743125 -1.88372 0
M  V30 3955 C 362.231 1.76383 -0.819715 0
M  V30 3956 O 361.486 1.94855 0.181659 0
M  V30 3957 C 361.785 1.46632 -3.25935 0
M  V30 3958 C 361.451 0.583427 -4.4711 0
M  V30 3959 C 360.113 0.340191 -4.79996 0
M  V30 3960 C 362.465 -0.0273345 -5.21193 0
M  V30 3961 C 359.793 -0.522903 -5.84365 0
M  V30 3962 C 362.145 -0.878017 -6.26477 0
M  V30 3963 C 360.809 -1.1309 -6.5785 0
M  V30 3964 H 360.079 0.271929 -0.689301 0
M  V30 3965 H 362.726 0.00336166 -1.915 0
M  V30 3966 H 361.031 2.2789 -3.18706 0
M  V30 3967 H 362.728 2.00902 -3.47044 0
M  V30 3968 H 359.318 0.783151 -4.21384 0
M  V30 3969 H 363.502 0.147654 -4.9608 0
M  V30 3970 H 358.758 -0.727335 -6.07058 0
M  V30 3971 H 362.932 -1.35789 -6.83033 0
M  V30 3972 H 360.559 -1.80144 -7.38547 0
M  V30 3973 N 362.134 1.5431 0.320358 0
M  V30 3974 C 363.082 1.84647 1.4145 0
M  V30 3975 C 364.076 0.718624 1.53402 0
M  V30 3976 O 365.282 0.902335 1.5575 0
M  V30 3977 H 361.657 0.585349 0.472091 0
M  V30 3978 H 363.628 2.7614 1.13089 0
M  V30 3979 C 362.377 2.09341 2.77617 0
M  V30 3980 H 361.7 2.9559 2.69196 0
M  V30 3981 H 363.14 2.3452 3.53237 0
M  V30 3982 C 361.599 0.885939 3.25043 0
M  V30 3983 O 362.129 0.0967891 4.01583 0
M  V30 3984 N 360.335 0.696682 2.82125 0
M  V30 3985 H 359.882 1.34006 2.2 0
M  V30 3986 H 359.84 -0.109712 3.14209 0
M  V30 3987 N 363.613 -0.582584 1.46437 0
M  V30 3988 C 364.563 -1.68654 1.53426 0
M  V30 3989 C 365.547 -1.55971 0.395194 0
M  V30 3990 O 366.739 -1.64884 0.643612 0
M  V30 3991 C 363.868 -3.07439 1.52762 0
M  V30 3992 C 362.954 -3.25418 2.71963 0
M  V30 3993 N 363.345 -3.13556 3.96883 0
M  V30 3994 C 361.643 -3.56357 2.68189 0
M  V30 3995 C 362.344 -3.33543 4.76575 0
M  V30 3996 N 361.32 -3.58704 4.08451 0
M  V30 3997 H 365.122 -1.58014 2.47808 0
M  V30 3998 H 362.636 -0.786617 1.42078 0
M  V30 3999 H 364.633 -3.86671 1.55857 0
M  V30 4000 H 363.293 -3.1921 0.594573 0
M  V30 4001 H 364.304 -2.9142 4.28129 0
M  V30 4002 H 360.981 -3.74812 1.83908 0
M  V30 4003 H 362.371 -3.29555 5.85528 0
M  V30 4004 N 365.091 -1.34144 -0.827227 0
M  V30 4005 C 366.331 -1.27603 -1.59677 0
M  V30 4006 C 366.695 0.153035 -1.91389 0
M  V30 4007 O 367.896 0.342566 -2.66608 0
M  V30 4008 C 366.167 -2.13784 -2.86411 0
M  V30 4009 S 367.726 -2.24552 -3.76991 0
M  V30 4010 H 364.544 -0.453789 -0.547354 0
M  V30 4011 H 367.146 -1.69309 -0.977479 0
M  V30 4012 H 365.85 -3.16627 -2.61104 0
M  V30 4013 H 365.381 -1.72959 -3.5334 0
M  V30 4014 H 367.396 -1.41514 -4.75593 0
M  V30 4015 N 366.569 1.04691 -1.17803 0
M  V30 4016 C 367.817 1.7743 -0.967617 0
M  V30 4017 C 368.138 1.88359 0.504574 0
M  V30 4018 O 367.408 1.40402 1.36617 0
M  V30 4019 H 365.988 0.657242 -0.355024 0
M  V30 4020 H 368.65 1.2638 -1.48371 0
M  V30 4021 H 367.746 2.78924 -1.40027 0
M  V30 4022 N 368.047 0.979072 1.23499 0
M  V30 4023 C 369.277 0.664237 1.95631 0
M  V30 4024 C 369.685 -0.772653 1.72704 0
M  V30 4025 O 369.028 -1.53141 1.01457 0
M  V30 4026 C 369.09 0.873115 3.48736 0
M  V30 4027 C 368.754 2.29182 3.95379 0
M  V30 4028 C 369.751 3.2704 4.04155 0
M  V30 4029 C 367.436 2.62256 4.28401 0
M  V30 4030 C 369.43 4.56052 4.45304 0
M  V30 4031 C 367.117 3.91491 4.69231 0
M  V30 4032 C 368.115 4.88201 4.77649 0
M  V30 4033 O 367.803 6.15129 5.17563 0
M  V30 4034 H 367.535 0.245915 0.629684 0
M  V30 4035 H 370.089 1.3127 1.57979 0
M  V30 4036 H 368.319 0.167476 3.86337 0
M  V30 4037 H 370.008 0.555642 4.02079 0
M  V30 4038 H 370.774 3.02819 3.78848 0
M  V30 4039 H 366.653 1.87692 4.21061 0
M  V30 4040 H 370.197 5.31538 4.51789 0
M  V30 4041 H 366.094 4.15508 4.93987 0
M  V30 4042 H 366.862 6.18862 5.35679 0
M  V30 4043 N 369.525 -1.3858 0.750561 0
M  V30 4044 C 370.435 -2.34278 0.122825 0
M  V30 4045 C 371.451 -1.59116 -0.704131 0
M  V30 4046 O 372.627 -1.91326 -0.628987 0
M  V30 4047 C 369.692 -3.38221 -0.762086 0
M  V30 4048 C 368.753 -4.29227 0.078896 0
M  V30 4049 C 367.986 -5.28205 -0.763874 0
M  V30 4050 O 368.209 -5.34112 -2.00201 0
M  V30 4051 O 367.143 -6.01618 -0.18428 0
M  V30 4052 H 370.969 -2.89649 0.913088 0
M  V30 4053 H 368.554 -1.40374 0.511417 0
M  V30 4054 H 370.436 -4.01872 -1.26793 0
M  V30 4055 H 369.111 -2.85211 -1.5309 0
M  V30 4056 H 368.018 -3.68747 0.630621 0
M  V30 4057 H 369.351 -4.85484 0.810289 0
M  V30 4058 N 371.003 -0.499398 -1.49478 0
M  V30 4059 C 372.25 0.0456899 -2.02448 0
M  V30 4060 C 372.578 1.37142 -1.37921 0
M  V30 4061 O 371.833 1.89111 -0.503544 0
M  V30 4062 C 372.132 0.248424 -3.56536 0
M  V30 4063 C 371.798 -0.999107 -4.39692 0
M  V30 4064 C 370.46 -1.34108 -4.62135 0
M  V30 4065 C 372.812 -1.82842 -4.88076 0
M  V30 4066 C 370.14 -2.51191 -5.30208 0
M  V30 4067 C 372.492 -2.99076 -5.57437 0
M  V30 4068 C 371.156 -3.33655 -5.78127 0
M  V30 4069 H 370.426 0.0167191 -0.740811 0
M  V30 4070 H 373.073 -0.65923 -1.79795 0
M  V30 4071 H 371.378 1.03586 -3.77859 0
M  V30 4072 H 373.075 0.684605 -3.95113 0
M  V30 4073 H 369.665 -0.722729 -4.22463 0
M  V30 4074 H 373.849 -1.57737 -4.70566 0
M  V30 4075 H 369.105 -2.78221 -5.44429 0
M  V30 4076 H 373.279 -3.63664 -5.93904 0
M  V30 4077 H 370.906 -4.24483 -6.30649 0
M  V30 4078 N 372.481 1.55866 -0.233164 0
M  V30 4079 C 373.444 2.1953 0.658715 0
M  V30 4080 C 374.444 1.16053 1.11303 0
M  V30 4081 O 375.634 1.41218 1.01996 0
M  V30 4082 C 372.766 2.82791 1.90373 0
M  V30 4083 H 373.959 2.99721 0.10347 0
M  V30 4084 H 371.512 1.56291 0.0164245 0
M  V30 4085 H 372.247 2.06501 2.50056 0
M  V30 4086 H 372.032 3.58578 1.58632 0
M  V30 4087 H 373.522 3.31556 2.53891 0
M  V30 4088 N 373.959 -0.0401083 1.57549 0
M  V30 4089 C 375.37 -0.588097 1.77196 0
M  V30 4090 C 375.721 -1.76209 0.862832 0
M  V30 4091 O 374.846 -2.16331 0.0548389 0
M  V30 4092 C 375.441 -1.07363 3.21339 0
M  V30 4093 C 374 -1.56723 3.42221 0
M  V30 4094 C 373.147 -0.50041 2.72747 0
M  V30 4095 H 376.098 0.186119 1.57605 0
M  V30 4096 H 376.119 -1.94143 3.27244 0
M  V30 4097 H 375.631 -0.218975 3.87482 0
M  V30 4098 H 373.732 -2.4441 2.81237 0
M  V30 4099 H 373.845 -1.62234 4.50796 0
M  V30 4100 H 372.209 -0.952894 2.36203 0
M  V30 4101 H 372.992 0.344599 3.41566 0
M  V30 4102 N 375.437 -1.54477 -0.31217 0
M  V30 4103 C 376.684 -1.73227 -1.04875 0
M  V30 4104 C 377.012 -0.512042 -1.87639 0
M  V30 4105 O 376.267 0.506131 -1.89042 0
M  V30 4106 C 376.566 -2.967 -1.99258 0
M  V30 4107 C 376.232 -4.30974 -1.32559 0
M  V30 4108 C 374.894 -4.67477 -1.141 0
M  V30 4109 C 377.246 -5.14258 -0.847835 0
M  V30 4110 C 374.574 -5.84852 -0.465326 0
M  V30 4111 C 376.926 -6.32327 -0.185931 0
M  V30 4112 C 375.59 -6.67499 0.0107077 0
M  V30 4113 H 374.86 -0.633881 -0.383765 0
M  V30 4114 H 377.507 -1.88727 -0.324731 0
M  V30 4115 H 375.812 -2.75935 -2.7815 0
M  V30 4116 H 377.509 -3.08401 -2.563 0
M  V30 4117 H 374.099 -4.02262 -1.4793 0
M  V30 4118 H 378.283 -4.86565 -0.978192 0
M  V30 4119 H 373.539 -6.10654 -0.301883 0
M  V30 4120 H 377.713 -6.96135 0.192211 0
M  V30 4121 H 375.34 -7.58306 0.536287 0
M  V30 4122 N 376.915 0.57481 -1.46744 0
M  V30 4123 C 377.847 1.69804 -1.53946 0
M  V30 4124 C 378.86 1.57098 -0.427106 0
M  V30 4125 O 380.049 1.64378 -0.695863 0
M  V30 4126 C 377.149 3.08125 -1.4111 0
M  V30 4127 C 376.322 3.46757 -2.66605 0
M  V30 4128 C 375.381 4.6417 -2.47855 0
M  V30 4129 O 374.407 4.69634 -3.21609 0
M  V30 4130 N 375.609 5.59553 -1.54534 0
M  V30 4131 H 378.374 1.64077 -2.50796 0
M  V30 4132 H 375.935 0.761 -1.429 0
M  V30 4133 H 377.927 3.84478 -1.26328 0
M  V30 4134 H 376.497 3.08175 -0.524109 0
M  V30 4135 H 375.717 2.6003 -2.96274 0
M  V30 4136 H 377.005 3.69337 -3.49954 0
M  V30 4137 H 376.403 5.57881 -0.937304 0
M  V30 4138 H 374.96 6.35304 -1.45711 0
M  V30 4139 N 378.394 1.34581 0.820102 0
M  V30 4140 C 379.671 1.17675 1.56244 0
M  V30 4141 C 380.051 -0.249541 2.0962 0
M  V30 4142 O 379.399 -1.25125 1.91196 0
M  V30 4143 C 379.609 2.23364 2.6816 0
M  V30 4144 C 380.957 2.58485 3.36854 0
M  V30 4145 O 381.981 2.22175 2.78418 0
M  V30 4146 O 380.84 3.20868 4.42386 0
M  V30 4147 H 377.934 0.456333 0.689702 0
M  V30 4148 H 380.48 1.46222 0.861231 0
M  V30 4149 H 379.252 3.19087 2.26493 0
M  V30 4150 H 378.875 1.96009 3.45928 0
M  V30 4151 N 379.872 -1.04064 1.18357 0
M  V30 4152 C 381.118 -1.77528 0.980397 0
M  V30 4153 C 381.451 -1.87948 -0.48879 0
M  V30 4154 O 380.726 -1.3876 -1.36293 0
M  V30 4155 C 381.009 -3.20797 1.63588 0
M  V30 4156 C 380.862 -3.1832 3.17793 0
M  V30 4157 C 382.181 -4.18911 1.34914 0
M  V30 4158 H 379.3 -0.644443 0.357578 0
M  V30 4159 H 381.942 -1.2156 1.46024 0
M  V30 4160 H 380.092 -3.68586 1.22788 0
M  V30 4161 H 381.764 -2.78521 3.67728 0
M  V30 4162 H 380.007 -2.56351 3.49952 0
M  V30 4163 H 380.678 -4.19489 3.58794 0
M  V30 4164 H 383.154 -3.7967 1.70265 0
M  V30 4165 H 382.03 -5.17374 1.83346 0
M  V30 4166 H 382.291 -4.41262 0.272027 0
M  V30 4167 N 381.35 -0.985608 -1.22978 0
M  V30 4168 C 382.596 -0.667998 -1.92118 0
M  V30 4169 C 382.951 0.790454 -1.75413 0
M  V30 4170 O 382.244 1.56336 -1.10768 0
M  V30 4171 C 382.438 -1.00014 -3.43121 0
M  V30 4172 C 382.267 -2.48933 -3.74516 0
M  V30 4173 C 381.037 -3.15218 -3.94925 0
M  V30 4174 C 383.235 -3.47024 -3.79577 0
M  V30 4175 N 381.217 -4.53689 -4.13569 0
M  V30 4176 C 382.588 -4.70923 -4.03276 0
M  V30 4177 C 384.643 -3.41432 -3.62393 0
M  V30 4178 C 383.346 -5.89914 -4.11574 0
M  V30 4179 C 385.372 -4.59793 -3.71947 0
M  V30 4180 C 384.734 -5.82489 -3.96088 0
M  V30 4181 H 380.833 -0.295589 -0.723983 0
M  V30 4182 H 383.417 -1.26413 -1.4808 0
M  V30 4183 H 381.588 -0.432655 -3.85983 0
M  V30 4184 H 383.32 -0.63927 -3.99619 0
M  V30 4185 H 380.075 -2.65702 -3.92045 0
M  V30 4186 H 380.499 -5.25492 -4.26834 0
M  V30 4187 H 385.141 -2.47594 -3.4272 0
M  V30 4188 H 382.859 -6.84164 -4.30053 0
M  V30 4189 H 386.445 -4.57048 -3.59998 0
M  V30 4190 H 385.325 -6.72546 -4.033 0
M  V30 4191 N 382.828 1.3818 -0.7579 0
M  V30 4192 C 383.775 2.30416 -0.133057 0
M  V30 4193 C 384.745 1.50398 0.704957 0
M  V30 4194 O 385.93 1.79014 0.660192 0
M  V30 4195 C 383.07 3.36834 0.750813 0
M  V30 4196 C 382.183 4.31879 -0.102297 0
M  V30 4197 C 381.318 5.25368 0.784979 0
M  V30 4198 C 380.357 6.12058 -0.0715046 0
M  V30 4199 N 379.494 6.97832 0.772972 0
M  V30 4200 H 384.334 2.83274 -0.925186 0
M  V30 4201 H 381.871 1.39461 -0.467866 0
M  V30 4202 H 383.829 3.97145 1.27794 0
M  V30 4203 H 382.459 2.85374 1.50868 0
M  V30 4204 H 381.511 3.72991 -0.747095 0
M  V30 4205 H 382.823 4.92921 -0.763552 0
M  V30 4206 H 381.977 5.90818 1.37911 0
M  V30 4207 H 380.716 4.64703 1.47996 0
M  V30 4208 H 379.721 5.456 -0.678272 0
M  V30 4209 H 380.946 6.74793 -0.763606 0
M  V30 4210 H 378.892 6.3971 1.45282 0
M  V30 4211 H 378.809 7.55812 0.168709 0
M  V30 4212 H 380.077 7.67687 1.35194 0
M  V30 4213 N 384.306 0.507319 1.49211 0
M  V30 4214 C 385.254 -0.281364 2.30892 0
M  V30 4215 C 386.248 -0.95687 1.39787 0
M  V30 4216 O 387.454 -0.883838 1.56807 0
M  V30 4217 H 383.829 -0.109597 0.743971 0
M  V30 4218 H 385.8 0.42744 2.95323 0
M  V30 4219 C 384.549 -1.32918 3.21291 0
M  V30 4220 H 383.872 -0.818799 3.91326 0
M  V30 4221 H 385.312 -1.85288 3.81372 0
M  V30 4222 C 383.771 -2.35074 2.41333 0
M  V30 4223 O 384.301 -3.4108 2.12197 0
M  V30 4224 N 382.507 -2.07705 2.03241 0
M  V30 4225 H 382.054 -1.2152 2.27136 0
M  V30 4226 H 382.012 -2.76283 1.50051 0
M  V30 4227 N 385.784 -1.5574 0.241426 0
M  V30 4228 C 387.032 -1.98417 -0.384075 0
M  V30 4229 C 387.353 -1.13078 -1.58866 0
M  V30 4230 O 386.623 -0.212312 -1.94746 0
M  V30 4231 H 385.203 -0.732813 -0.144894 0
M  V30 4232 H 387.865 -1.9193 0.338943 0
M  V30 4233 H 386.961 -3.04219 -0.696939 0
M  V30 4234 N 387.262 0.0317525 -1.57568 0
M  V30 4235 C 388.172 1.05021 -2.0978 0
M  V30 4236 C 389.188 1.39809 -1.03583 0
M  V30 4237 O 390.364 1.49182 -1.35302 0
M  V30 4238 C 387.429 2.33301 -2.56459 0
M  V30 4239 C 386.49 2.0512 -3.77127 0
M  V30 4240 C 385.723 3.27283 -4.2157 0
M  V30 4241 O 385.946 4.37861 -3.65559 0
M  V30 4242 O 384.88 3.13141 -5.14029 0
M  V30 4243 H 388.706 0.636505 -2.96955 0
M  V30 4244 H 386.291 0.248559 -1.47318 0
M  V30 4245 H 388.173 3.08722 -2.86825 0
M  V30 4246 H 386.848 2.73973 -1.72397 0
M  V30 4247 H 385.755 1.27276 -3.51784 0
M  V30 4248 H 387.088 1.69305 -4.62165 0
M  V30 4249 N 388.74 1.54641 0.303973 0
M  V30 4250 C 389.965 1.78092 1.06292 0
M  V30 4251 C 390.39 0.537342 1.80262 0
M  V30 4252 O 389.748 -0.511993 1.7392 0
M  V30 4253 C 389.796 2.98612 2.02147 0
M  V30 4254 O 388.9 2.71528 3.10397 0
M  V30 4255 H 388.241 0.589548 0.305497 0
M  V30 4256 H 390.771 2.01716 0.3423 0
M  V30 4257 H 390.781 3.265 2.44667 0
M  V30 4258 H 389.456 3.88785 1.47714 0
M  V30 4259 H 388.033 2.54648 2.72413 0
M  V30 4260 N 390.218 -0.567019 1.47046 0
M  V30 4261 C 391.443 -1.3551 1.57009 0
M  V30 4262 C 391.868 -1.86841 0.217259 0
M  V30 4263 O 391.226 -1.62435 -0.805268 0
M  V30 4264 C 391.274 -2.50777 2.5912 0
M  V30 4265 O 390.378 -3.52706 2.13711 0
M  V30 4266 H 389.719 -0.402919 0.52778 0
M  V30 4267 H 392.249 -0.686241 1.92748 0
M  V30 4268 H 392.259 -2.97481 2.79229 0
M  V30 4269 H 390.934 -2.12771 3.57353 0
M  V30 4270 H 389.511 -3.12374 2.03659 0
M  V30 4271 N 391.696 -1.35014 -0.812953 0
M  V30 4272 C 392.643 -1.27412 -1.92444 0
M  V30 4273 C 393.613 -0.14733 -1.65445 0
M  V30 4274 O 394.798 -0.329974 -1.87925 0
M  V30 4275 C 391.938 -1.04558 -3.28879 0
M  V30 4276 C 391.051 -2.26101 -3.68106 0
M  V30 4277 C 390.186 -1.96449 -4.9354 0
M  V30 4278 C 389.225 -3.14081 -5.25376 0
M  V30 4279 N 388.362 -2.84246 -6.41988 0
M  V30 4280 H 393.202 -2.22463 -1.98278 0
M  V30 4281 H 390.739 -1.10593 -0.969933 0
M  V30 4282 H 392.697 -0.893413 -4.07522 0
M  V30 4283 H 391.327 -0.131719 -3.22531 0
M  V30 4284 H 390.379 -2.52204 -2.84775 0
M  V30 4285 H 391.691 -3.13959 -3.87597 0
M  V30 4286 H 390.845 -1.78026 -5.79993 0
M  V30 4287 H 389.584 -1.05867 -4.76071 0
M  V30 4288 H 388.589 -3.33089 -4.37415 0
M  V30 4289 H 389.814 -4.05455 -5.44778 0
M  V30 4290 H 387.76 -1.96252 -6.25956 0
M  V30 4291 H 387.677 -3.65637 -6.61699 0
M  V30 4292 H 388.945 -2.6935 -7.31485 0
M  V30 4293 N 393.175 1.03435 -1.18907 0
M  V30 4294 C 394.405 1.8012 -1.01195 0
M  V30 4295 C 394.813 1.8395 0.442613 0
M  V30 4296 O 394.156 1.27836 1.31923 0
M  V30 4297 C 394.218 3.26792 -1.49823 0
M  V30 4298 C 393.882 3.46609 -2.97844 0
M  V30 4299 C 394.879 3.37278 -3.95651 0
M  V30 4300 C 392.564 3.73001 -3.36416 0
M  V30 4301 C 394.558 3.54054 -5.30023 0
M  V30 4302 C 392.245 3.89423 -4.70949 0
M  V30 4303 C 393.243 3.79951 -5.67562 0
M  V30 4304 O 392.931 3.95895 -6.99659 0
M  V30 4305 H 392.663 0.573865 -0.357289 0
M  V30 4306 H 395.217 1.31207 -1.58031 0
M  V30 4307 H 393.447 3.76703 -0.873578 0
M  V30 4308 H 395.136 3.85055 -1.28404 0
M  V30 4309 H 395.902 3.16846 -3.67197 0
M  V30 4310 H 391.781 3.79469 -2.61772 0
M  V30 4311 H 395.325 3.46577 -6.05417 0
M  V30 4312 H 391.222 4.09351 -4.99101 0
M  V30 4313 H 391.99 4.13019 -7.06653 0
M  V30 4314 N 394.653 0.992116 1.22453 0
M  V30 4315 C 395.6 0.541731 2.24352 0
M  V30 4316 C 396.57 -0.425519 1.60557 0
M  V30 4317 O 397.755 -0.330453 1.87917 0
M  V30 4318 C 394.895 -0.138248 3.44823 0
M  V30 4319 C 394.008 0.870649 4.23136 0
M  V30 4320 C 393.143 0.164269 5.30946 0
M  V30 4321 C 392.182 1.16159 6.00977 0
M  V30 4322 N 391.319 0.483568 7.00433 0
M  V30 4323 H 396.159 1.41541 2.62241 0
M  V30 4324 H 393.696 0.709013 1.28885 0
M  V30 4325 H 395.654 -0.5494 4.13567 0
M  V30 4326 H 394.284 -0.975721 3.077 0
M  V30 4327 H 393.336 1.40013 3.53696 0
M  V30 4328 H 394.648 1.63014 4.7141 0
M  V30 4329 H 393.802 -0.303653 6.0594 0
M  V30 4330 H 392.541 -0.627733 4.83643 0
M  V30 4331 H 391.546 1.64015 5.24766 0
M  V30 4332 H 392.771 1.95445 6.50368 0
M  V30 4333 H 390.717 -0.289012 6.55363 0
M  V30 4334 H 390.634 1.18152 7.4671 0
M  V30 4335 H 391.902 0.0384219 7.79491 0
M  V30 4336 N 396.131 -1.37776 0.765217 0
M  V30 4337 C 397.408 -1.93975 0.251596 0
M  V30 4338 C 397.788 -1.69949 -1.25222 0
M  V30 4339 O 397.136 -1.04457 -2.03226 0
M  V30 4340 C 397.346 -3.43487 0.617895 0
M  V30 4341 C 398.694 -4.20564 0.584029 0
M  V30 4342 O 399.718 -3.5182 0.556888 0
M  V30 4343 O 398.577 -5.43138 0.605291 0
M  V30 4344 H 395.671 -0.82509 0.0561806 0
M  V30 4345 H 398.217 -1.47101 0.846128 0
M  V30 4346 H 396.989 -3.5453 1.65602 0
M  V30 4347 H 396.612 -3.976 -0.00403411 0
M  V30 4348 N 397.609 -0.515225 -1.4894 0
M  V30 4349 C 398.855 0.016187 -2.03394 0
M  V30 4350 C 399.21 1.33377 -1.38666 0
M  V30 4351 O 398.503 1.84461 -0.518141 0
M  V30 4352 C 398.697 0.210595 -3.56779 0
M  V30 4353 C 398.526 -1.08659 -4.36375 0
M  V30 4354 C 397.296 -1.64237 -4.77864 0
M  V30 4355 C 399.494 -1.9935 -4.74093 0
M  V30 4356 N 397.476 -2.88398 -5.41941 0
M  V30 4357 C 398.847 -3.08088 -5.38035 0
M  V30 4358 C 400.902 -1.99856 -4.56029 0
M  V30 4359 C 399.605 -4.17377 -5.85823 0
M  V30 4360 C 401.631 -3.08129 -5.04787 0
M  V30 4361 C 400.993 -4.15586 -5.68742 0
M  V30 4362 H 397.092 -0.0352107 -0.781207 0
M  V30 4363 H 399.676 -0.693237 -1.8194 0
M  V30 4364 H 397.847 0.889088 -3.78087 0
M  V30 4365 H 399.579 0.740287 -3.97872 0
M  V30 4366 H 396.334 -1.18566 -4.58518 0
M  V30 4367 H 396.758 -3.51572 -5.78555 0
M  V30 4368 H 401.4 -1.18079 -4.05977 0
M  V30 4369 H 399.118 -4.99943 -6.34888 0
M  V30 4370 H 402.704 -3.09557 -4.92611 0
M  V30 4371 H 401.584 -4.97987 -6.05787 0
M  V30 4372 N 399.087 1.5561 -0.249682 0
M  V30 4373 C 400.334 1.99011 0.374287 0
M  V30 4374 C 400.662 1.13785 1.57744 0
M  V30 4375 O 399.917 0.189326 1.94782 0
M  V30 4376 C 400.216 3.4775 0.824887 0
M  V30 4377 C 399.882 4.50086 -0.270819 0
M  V30 4378 C 398.544 4.77791 -0.571746 0
M  V30 4379 C 400.896 5.11312 -1.01041 0
M  V30 4380 C 398.224 5.63997 -1.61629 0
M  V30 4381 C 400.576 5.98651 -2.0445 0
M  V30 4382 C 399.24 6.24688 -2.35204 0
M  V30 4383 H 398.51 0.728233 0.136961 0
M  V30 4384 H 401.157 1.88122 -0.358087 0
M  V30 4385 H 399.462 3.55985 1.63651 0
M  V30 4386 H 401.159 3.78721 1.31799 0
M  V30 4387 H 397.749 4.28592 -0.026136 0
M  V30 4388 H 401.933 4.89953 -0.791177 0
M  V30 4389 H 397.189 5.82425 -1.85988 0
M  V30 4390 H 401.363 6.45135 -2.62248 0
M  V30 4391 H 398.99 6.91281 -3.16282 0
M  V30 4392 N 400.565 -0.0233959 1.57583 0
M  V30 4393 C 401.515 -1.03023 2.03397 0
M  V30 4394 C 402.499 -1.31701 0.924315 0
M  V30 4395 O 403.691 -1.31191 1.18819 0
M  V30 4396 C 400.82 -2.32961 2.52159 0
M  V30 4397 C 399.906 -2.07349 3.69956 0
M  V30 4398 N 400.297 -1.51814 4.82479 0
M  V30 4399 C 398.595 -2.37606 3.77438 0
M  V30 4400 C 399.296 -1.42136 5.64068 0
M  V30 4401 N 398.272 -1.89891 5.09355 0
M  V30 4402 H 402.074 -0.594962 2.87815 0
M  V30 4403 H 399.588 -0.229586 1.60769 0
M  V30 4404 H 401.585 -3.05906 2.83244 0
M  V30 4405 H 400.245 -2.77162 1.69149 0
M  V30 4406 H 401.256 -1.20008 5.03804 0
M  V30 4407 H 397.933 -2.84842 3.05239 0
M  V30 4408 H 399.323 -0.996405 6.64471 0
M  V30 4409 N 402.043 -1.548 -0.295768 0
M  V30 4410 C 403.292 -1.73538 -1.02798 0
M  V30 4411 C 403.605 -0.531159 -1.8825 0
M  V30 4412 O 404.811 -0.600458 -2.64777 0
M  V30 4413 C 403.267 -3.07051 -1.87744 0
M  V30 4414 C 402.875 -4.34968 -1.07269 0
M  V30 4415 C 404.619 -3.35146 -2.60533 0
M  V30 4416 C 402.526 -5.5953 -1.91521 0
M  V30 4417 H 401.456 -0.646794 -0.387522 0
M  V30 4418 H 404.107 -1.81278 -0.284718 0
M  V30 4419 H 402.489 -2.93289 -2.66078 0
M  V30 4420 H 403.663 -4.5958 -0.335117 0
M  V30 4421 H 401.978 -4.13847 -0.460384 0
M  V30 4422 H 404.575 -4.2541 -3.23929 0
M  V30 4423 H 404.918 -2.54255 -3.29636 0
M  V30 4424 H 405.451 -3.49902 -1.89244 0
M  V30 4425 H 402.19 -6.43103 -1.26878 0
M  V30 4426 H 401.71 -5.39096 -2.62937 0
M  V30 4427 H 403.389 -5.96982 -2.49442 0
M  V30 4428 N 403.521 0.559213 -1.47345 0
M  V30 4429 C 404.471 1.66192 -1.5609 0
M  V30 4430 C 405.455 1.55323 -0.419957 0
M  V30 4431 O 406.647 1.63839 -0.669762 0
M  V30 4432 C 403.776 3.0497 -1.57634 0
M  V30 4433 C 402.862 3.2105 -2.77106 0
M  V30 4434 N 403.253 3.07203 -4.01821 0
M  V30 4435 C 401.551 3.52046 -2.73825 0
M  V30 4436 C 402.252 3.25919 -4.81821 0
M  V30 4437 N 401.228 3.52161 -4.14106 0
M  V30 4438 H 405.03 1.54052 -2.5029 0
M  V30 4439 H 402.544 0.763914 -1.43311 0
M  V30 4440 H 404.541 3.84142 -1.61989 0
M  V30 4441 H 403.201 3.18224 -0.645281 0
M  V30 4442 H 404.212 2.84572 -4.32711 0
M  V30 4443 H 400.889 3.71839 -1.89848 0
M  V30 4444 H 402.279 3.20198 -5.90697 0
M  V30 4445 N 404.999 1.35443 0.805782 0
M  V30 4446 C 405.909 1.30546 1.94923 0
M  V30 4447 C 406.925 0.210233 1.72725 0
M  V30 4448 O 408.101 0.43975 1.9654 0
M  V30 4449 C 405.166 1.07782 3.29521 0
M  V30 4450 C 404.227 2.26625 3.64609 0
M  V30 4451 C 403.46 2.04938 4.92784 0
M  V30 4452 O 403.683 1.01624 5.61274 0
M  V30 4453 O 402.617 2.9232 5.26149 0
M  V30 4454 H 406.443 2.26779 2.02002 0
M  V30 4455 H 404.028 1.15823 0.943682 0
M  V30 4456 H 405.91 0.969392 4.10098 0
M  V30 4457 H 404.585 0.146003 3.23371 0
M  V30 4458 H 403.492 2.43033 2.84404 0
M  V30 4459 H 404.825 3.18257 3.75464 0
M  V30 4460 N 406.477 -1.02803 1.19454 0
M  V30 4461 C 407.724 -1.76217 0.997693 0
M  V30 4462 C 408.052 -1.887 -0.47144 0
M  V30 4463 O 407.307 -1.4011 -1.3663 0
M  V30 4464 C 407.606 -3.18941 1.6128 0
M  V30 4465 C 407.272 -3.26463 3.11019 0
M  V30 4466 C 405.934 -3.28223 3.51885 0
M  V30 4467 C 408.286 -3.25542 4.07028 0
M  V30 4468 C 405.614 -3.26719 4.8731 0
M  V30 4469 C 407.966 -3.25579 5.42385 0
M  V30 4470 C 406.63 -3.25637 5.82681 0
M  V30 4471 H 405.9 -0.644823 0.365082 0
M  V30 4472 H 408.547 -1.20655 1.4871 0
M  V30 4473 H 406.852 -3.77587 1.04572 0
M  V30 4474 H 408.549 -3.74415 1.43577 0
M  V30 4475 H 405.139 -3.25822 2.78457 0
M  V30 4476 H 409.323 -3.23362 3.76498 0
M  V30 4477 H 404.579 -3.25089 5.1781 0
M  V30 4478 H 408.753 -3.23817 6.16535 0
M  V30 4479 H 406.38 -3.24226 6.87591 0
M  V30 4480 N 407.956 -0.998596 -1.21925 0
M  V30 4481 C 409.367 -0.711939 -1.72593 0
M  V30 4482 C 409.718 0.770842 -1.80423 0
M  V30 4483 O 408.843 1.60237 -1.4544 0
M  V30 4484 C 409.438 -1.28567 -3.13458 0
M  V30 4485 C 407.997 -1.04828 -3.61508 0
M  V30 4486 C 407.144 -1.4024 -2.39224 0
M  V30 4487 H 410.095 -1.17027 -1.07193 0
M  V30 4488 H 410.116 -0.667098 -3.74607 0
M  V30 4489 H 409.628 -2.36486 -3.07727 0
M  V30 4490 H 407.729 0.0140383 -3.72597 0
M  V30 4491 H 407.842 -1.71566 -4.47328 0
M  V30 4492 H 406.206 -0.821077 -2.41103 0
M  V30 4493 H 406.989 -2.49176 -2.36149 0
M  V30 4494 N 409.434 1.37368 -0.772513 0
M  V30 4495 C 410.364 2.32856 -0.173304 0
M  V30 4496 C 411.345 1.55818 0.682262 0
M  V30 4497 O 412.53 1.84052 0.619566 0
M  V30 4498 C 409.66 3.40048 0.706007 0
M  V30 4499 C 408.614 4.27973 -0.0483144 0
M  V30 4500 C 407.94 5.26184 0.950491 0
M  V30 4501 C 409.24 5.07665 -1.22776 0
M  V30 4502 H 410.934 2.83217 -0.971002 0
M  V30 4503 H 408.48 1.3617 -0.468377 0
M  V30 4504 H 410.433 4.05827 1.13501 0
M  V30 4505 H 409.157 2.88214 1.53623 0
M  V30 4506 H 407.816 3.63726 -0.458107 0
M  V30 4507 H 407.464 4.7063 1.77529 0
M  V30 4508 H 407.164 5.85872 0.450314 0
M  V30 4509 H 408.688 5.94838 1.37842 0
M  V30 4510 H 410.102 5.66578 -0.875366 0
M  V30 4511 H 408.499 5.76681 -1.66007 0
M  V30 4512 H 409.569 4.40294 -2.03149 0
M  V30 4513 N 410.912 0.523116 1.48665 0
M  V30 4514 C 411.844 -0.280421 2.27478 0
M  V30 4515 C 412.857 -0.910694 1.34945 0
M  V30 4516 O 414.046 -0.790295 1.60052 0
M  V30 4517 C 411.146 -1.41171 3.08097 0
M  V30 4518 C 410.319 -0.884642 4.28361 0
M  V30 4519 C 409.378 -1.89622 4.90846 0
M  V30 4520 O 408.404 -1.4559 5.50265 0
M  V30 4521 N 409.606 -3.22801 4.82472 0
M  V30 4522 H 412.371 0.395481 2.97079 0
M  V30 4523 H 409.932 0.357018 1.57915 0
M  V30 4524 H 411.924 -2.08645 3.4677 0
M  V30 4525 H 410.494 -1.99139 2.40961 0
M  V30 4526 H 409.714 -0.0341177 3.94185 0
M  V30 4527 H 411.002 -0.511268 5.06225 0
M  V30 4528 H 410.4 -3.61246 4.35336 0
M  V30 4529 H 408.957 -3.85927 5.25265 0
M  V30 4530 N 412.39 -1.55475 0.257931 0
M  V30 4531 C 413.618 -2.03609 -0.367559 0
M  V30 4532 C 414.033 -1.13687 -1.50734 0
M  V30 4533 O 413.39 -0.153479 -1.81853 0
M  V30 4534 C 413.441 -3.51001 -0.864908 0
M  V30 4535 O 413.162 -4.37499 0.229465 0
M  V30 4536 C 414.663 -4.14946 -1.55997 0
M  V30 4537 H 411.883 -0.665459 -0.0860521 0
M  V30 4538 H 414.427 -2.00843 0.385014 0
M  V30 4539 H 412.582 -3.54266 -1.56762 0
M  V30 4540 H 412.996 -5.24286 -0.14998 0
M  V30 4541 H 414.47 -5.19735 -1.85956 0
M  V30 4542 H 414.947 -3.6209 -2.4857 0
M  V30 4543 H 415.553 -4.15635 -0.901543 0
M  V30 4544 N 413.868 0.0150385 -1.57593 0
M  V30 4545 C 414.778 1.02791 -2.10882 0
M  V30 4546 C 415.794 1.38702 -1.0506 0
M  V30 4547 O 416.97 1.47739 -1.36877 0
M  V30 4548 C 414.035 2.30568 -2.58919 0
M  V30 4549 C 413.096 2.01108 -3.79281 0
M  V30 4550 C 412.329 3.22794 -4.25018 0
M  V30 4551 O 412.552 4.33959 -3.70183 0
M  V30 4552 O 411.486 3.07672 -5.17322 0
M  V30 4553 H 415.312 0.604973 -2.97613 0
M  V30 4554 H 412.897 0.23292 -1.47573 0
M  V30 4555 H 414.779 3.05662 -2.90084 0
M  V30 4556 H 413.454 2.72129 -1.75293 0
M  V30 4557 H 412.361 1.23537 -3.53114 0
M  V30 4558 H 413.694 1.64394 -4.63935 0
M  V30 4559 N 415.346 1.54954 0.287554 0
M  V30 4560 C 416.757 1.65732 0.859634 0
M  V30 4561 C 417.108 0.574767 1.87592 0
M  V30 4562 O 416.233 -0.286299 2.14498 0
M  V30 4563 C 416.828 3.00438 1.56597 0
M  V30 4564 C 415.387 3.13292 2.08627 0
M  V30 4565 C 414.534 2.61473 0.923416 0
M  V30 4566 H 417.485 1.5857 0.0642338 0
M  V30 4567 H 417.506 2.92613 2.43224 0
M  V30 4568 H 417.018 3.79207 0.826053 0
M  V30 4569 H 415.119 2.39268 2.85625 0
M  V30 4570 H 415.232 4.19647 2.31157 0
M  V30 4571 H 413.596 2.18264 1.31275 0
M  V30 4572 H 414.379 3.42733 0.197241 0
M  V30 4573 N 416.824 -0.551391 1.4764 0
M  V30 4574 C 418.24 -0.877887 1.33287 0
M  V30 4575 C 418.44 -1.98817 0.327721 0
M  V30 4576 O 417.496 -2.51171 -0.258695 0
M  V30 4577 C 418.809 -1.26563 2.72768 0
M  V30 4578 C 420.357 -1.37673 2.81097 0
M  V30 4579 C 420.832 -1.79799 4.21232 0
M  V30 4580 N 422.323 -1.8694 4.23802 0
M  V30 4581 C 423.058 -2.20876 5.29151 0
M  V30 4582 N 422.554 -2.53386 6.448 0
M  V30 4583 N 424.347 -2.217 5.16532 0
M  V30 4584 H 416.498 0.18153 2.11623 0
M  V30 4585 H 418.761 0.0185514 0.947818 0
M  V30 4586 H 418.467 -0.523591 3.47781 0
M  V30 4587 H 418.341 -2.22052 3.04915 0
M  V30 4588 H 420.728 -2.10956 2.06353 0
M  V30 4589 H 420.809 -0.40357 2.52596 0
M  V30 4590 H 420.453 -1.07083 4.96483 0
M  V30 4591 H 420.383 -2.78128 4.4716 0
M  V30 4592 H 422.874 -1.64179 3.40373 0
M  V30 4593 H 423.187 -2.78325 7.20941 0
M  V30 4594 H 421.532 -2.50953 6.48111 0
M  V30 4595 H 424.723 -1.95745 4.25207 0
M  V30 4596 H 424.896 -2.47818 5.98741 0
M  V30 4597 N 418.302 -1.35869 -0.798587 0
M  V30 4598 C 419.713 -1.26498 -1.37314 0
M  V30 4599 C 420.064 0.0991899 -1.95949 0
M  V30 4600 O 419.189 1.0004 -1.91888 0
M  V30 4601 C 419.784 -2.29054 -2.49639 0
M  V30 4602 C 418.343 -2.234 -3.02935 0
M  V30 4603 C 417.49 -2.14329 -1.75949 0
M  V30 4604 H 420.441 -1.46881 -0.600971 0
M  V30 4605 H 420.462 -1.92166 -3.28409 0
M  V30 4606 H 419.974 -3.2833 -2.06933 0
M  V30 4607 H 418.075 -1.27562 -3.50084 0
M  V30 4608 H 418.188 -3.15703 -3.60372 0
M  V30 4609 H 416.552 -1.60435 -1.9782 0
M  V30 4610 H 417.335 -3.15477 -1.35384 0
M  V30 4611 N 419.78 1.02168 -1.19998 0
M  V30 4612 C 420.728 2.12717 -0.940967 0
M  V30 4613 C 421.722 1.69069 0.105841 0
M  V30 4614 O 422.928 1.79946 -0.0440583 0
M  V30 4615 H 419.303 0.695108 -0.28693 0
M  V30 4616 H 421.274 2.3175 -1.87975 0
M  V30 4617 C 420.023 3.44027 -0.504049 0
M  V30 4618 H 419.346 3.78036 -1.30112 0
M  V30 4619 H 420.786 4.22452 -0.361991 0
M  V30 4620 C 419.245 3.27678 0.782878 0
M  V30 4621 O 419.775 3.56949 1.84256 0
M  V30 4622 N 417.981 2.80943 0.742921 0
M  V30 4623 H 417.528 2.57322 -0.119687 0
M  V30 4624 H 417.486 2.70385 1.60435 0
M  V30 4625 N 421.258 1.00505 1.21394 0
M  V30 4626 C 422.488 0.705584 1.94178 0
M  V30 4627 C 422.896 -0.735846 1.74304 0
M  V30 4628 O 422.239 -1.50954 1.04683 0
M  V30 4629 C 422.301 0.94689 3.46806 0
M  V30 4630 C 421.965 2.37517 3.90429 0
M  V30 4631 C 422.962 3.35539 3.97127 0
M  V30 4632 C 420.647 2.71284 4.22742 0
M  V30 4633 C 422.641 4.65395 4.3553 0
M  V30 4634 C 420.328 4.01356 4.60822 0
M  V30 4635 C 421.326 4.98223 4.67186 0
M  V30 4636 O 421.014 6.25969 5.04399 0
M  V30 4637 H 420.746 0.259216 0.624326 0
M  V30 4638 H 423.3 1.34592 1.55159 0
M  V30 4639 H 421.53 0.249386 3.85895 0
M  V30 4640 H 423.219 0.640804 4.0081 0
M  V30 4641 H 423.985 3.10786 3.7234 0
M  V30 4642 H 419.864 1.96581 4.16985 0
M  V30 4643 H 423.408 5.41002 4.40412 0
M  V30 4644 H 419.305 4.25893 4.85063 0
M  V30 4645 H 420.073 6.30085 5.22431 0
M  V30 4646 N 422.737 -1.36956 0.779787 0
M  V30 4647 C 424.014 -1.93697 0.272156 0
M  V30 4648 C 424.394 -1.71267 -1.23413 0
M  V30 4649 O 423.742 -1.06607 -2.02107 0
M  V30 4650 C 423.952 -3.42812 0.654291 0
M  V30 4651 C 425.3 -4.19921 0.628602 0
M  V30 4652 O 426.324 -3.51209 0.594172 0
M  V30 4653 O 425.183 -5.42465 0.662864 0
M  V30 4654 H 422.277 -0.824447 0.0649286 0
M  V30 4655 H 424.823 -1.46196 0.861682 0
M  V30 4656 H 423.595 -3.52754 1.69353 0
M  V30 4657 H 423.218 -3.97582 0.0381369 0
M  V30 4658 N 424.215 -0.530993 -1.48385 0
M  V30 4659 C 425.443 -0.00134122 -2.069 0
M  V30 4660 C 425.858 1.2805 -1.3874 0
M  V30 4661 O 425.215 1.76204 -0.475244 0
M  V30 4662 C 425.266 0.225256 -3.60798 0
M  V30 4663 O 424.987 -1.0058 -4.26398 0
M  V30 4664 C 426.488 0.795172 -4.3611 0
M  V30 4665 H 423.708 -0.0339704 -0.67014 0
M  V30 4666 H 426.252 -0.736926 -1.90761 0
M  V30 4667 H 424.407 0.910891 -3.76539 0
M  V30 4668 H 424.821 -0.787165 -5.1856 0
M  V30 4669 H 426.295 0.903143 -5.44562 0
M  V30 4670 H 426.772 1.80031 -4.00606 0
M  V30 4671 H 427.378 0.146069 -4.25049 0
M  V30 4672 N 425.693 1.55336 -0.266172 0
M  V30 4673 C 426.94 1.99397 0.353158 0
M  V30 4674 C 427.268 1.15451 1.56529 0
M  V30 4675 O 426.523 0.209974 1.9457 0
M  V30 4676 C 426.822 3.48606 0.787957 0
M  V30 4677 C 426.488 4.49773 -0.318541 0
M  V30 4678 C 425.15 4.77158 -0.62239 0
M  V30 4679 C 427.502 5.10212 -1.06459 0
M  V30 4680 C 424.83 5.62251 -1.67602 0
M  V30 4681 C 427.182 5.96449 -2.10788 0
M  V30 4682 C 425.846 6.22158 -2.41817 0
M  V30 4683 H 425.116 0.729644 0.12923 0
M  V30 4684 H 427.763 1.87732 -0.37802 0
M  V30 4685 H 426.068 3.57701 1.59866 0
M  V30 4686 H 427.765 3.80098 1.27775 0
M  V30 4687 H 424.355 4.2854 -0.0715925 0
M  V30 4688 H 428.539 4.89086 -0.843098 0
M  V30 4689 H 423.795 5.80419 -1.92155 0
M  V30 4690 H 427.969 6.42317 -2.69076 0
M  V30 4691 H 425.596 6.87888 -3.23596 0
M  V30 4692 N 427.171 -0.0066808 1.57599 0
M  V30 4693 C 428.587 -0.36267 1.55425 0
M  V30 4694 C 428.787 -1.75209 0.995187 0
M  V30 4695 O 427.843 -2.44616 0.626058 0
M  V30 4696 C 429.156 -0.244017 2.99708 0
M  V30 4697 C 430.704 -0.319451 3.11366 0
M  V30 4698 C 431.179 -0.229998 4.57422 0
M  V30 4699 N 432.67 -0.288105 4.62303 0
M  V30 4700 C 433.405 -0.242127 5.72889 0
M  V30 4701 N 432.901 -0.147133 6.92644 0
M  V30 4702 N 434.694 -0.293502 5.61333 0
M  V30 4703 H 426.845 0.902314 1.92281 0
M  V30 4704 H 429.108 0.34525 0.882896 0
M  V30 4705 H 428.814 0.711678 3.44424 0
M  V30 4706 H 428.688 -1.02877 3.629 0
M  V30 4707 H 431.075 -1.26559 2.66584 0
M  V30 4708 H 431.156 0.495055 2.50964 0
M  V30 4709 H 430.8 0.712566 5.02877 0
M  V30 4710 H 430.73 -1.0629 5.15761 0
M  V30 4711 H 433.221 -0.363126 3.76151 0
M  V30 4712 H 433.534 -0.117763 7.7271 0
M  V30 4713 H 431.879 -0.112857 6.94908 0
M  V30 4714 H 435.07 -0.365864 4.66668 0
M  V30 4715 H 435.243 -0.254204 6.47501 0
M  V30 4716 N 428.649 -1.55105 -0.279332 0
M  V30 4717 C 429.896 -1.75412 -1.01177 0
M  V30 4718 C 430.224 -0.551728 -1.86511 0
M  V30 4719 O 429.479 0.465919 -1.90073 0
M  V30 4720 C 429.778 -3.0086 -1.92919 0
M  V30 4721 C 429.444 -4.33689 -1.23387 0
M  V30 4722 C 428.106 -4.69792 -1.04159 0
M  V30 4723 C 430.458 -5.15941 -0.738562 0
M  V30 4724 C 427.786 -5.85707 -0.341166 0
M  V30 4725 C 430.138 -6.32579 -0.0517636 0
M  V30 4726 C 428.802 -6.67326 0.152292 0
M  V30 4727 H 428.072 -0.641879 -0.370233 0
M  V30 4728 H 430.719 -1.89373 -0.284627 0
M  V30 4729 H 429.024 -2.81773 -2.72234 0
M  V30 4730 H 430.721 -3.13768 -2.49701 0
M  V30 4731 H 427.311 -4.05309 -1.39364 0
M  V30 4732 H 431.495 -4.8853 -0.874764 0
M  V30 4733 H 426.751 -6.11157 -0.172287 0
M  V30 4734 H 430.925 -6.9557 0.339828 0
M  V30 4735 H 428.552 -7.56998 0.697014 0
M  V30 4736 N 430.127 0.543554 -1.4793 0
M  V30 4737 C 431.373 1.30201 -1.55485 0
M  V30 4738 C 431.706 1.92925 -0.222201 0
M  V30 4739 O 430.981 1.78586 0.77053 0
M  V30 4740 C 431.264 2.40174 -2.68307 0
M  V30 4741 C 431.117 1.8223 -4.11233 0
M  V30 4742 C 432.436 3.42024 -2.76961 0
M  V30 4743 H 429.555 0.472036 -0.565996 0
M  V30 4744 H 432.197 0.606914 -1.80046 0
M  V30 4745 H 430.347 2.99463 -2.47495 0
M  V30 4746 H 432.019 1.27096 -4.43446 0
M  V30 4747 H 430.262 1.12832 -4.18869 0
M  V30 4748 H 430.933 2.61793 -4.85972 0
M  V30 4749 H 433.409 2.92672 -2.95774 0
M  V30 4750 H 432.285 4.16383 -3.57654 0
M  V30 4751 H 432.546 4.0173 -1.84568 0
M  V30 4752 N 431.605 1.3629 0.791371 0
M  V30 4753 C 433.016 1.27225 1.36641 0
M  V30 4754 C 433.367 -0.0887968 1.95999 0
M  V30 4755 O 432.492 -0.990207 1.92416 0
M  V30 4756 C 433.087 2.30375 2.48421 0
M  V30 4757 C 431.646 2.25004 3.01746 0
M  V30 4758 C 430.793 2.15259 1.7481 0
M  V30 4759 H 433.744 1.47198 0.593173 0
M  V30 4760 H 433.765 1.93905 3.27385 0
M  V30 4761 H 433.277 3.29422 2.05189 0
M  V30 4762 H 431.378 1.29417 3.49403 0
M  V30 4763 H 431.491 3.1761 3.58693 0
M  V30 4764 H 429.855 1.61482 1.96966 0
M  V30 4765 H 430.638 3.16191 1.33709 0
M  V30 4766 N 433.083 -1.0153 1.20538 0
M  V30 4767 C 434.015 -2.10224 0.913155 0
M  V30 4768 C 435.028 -1.62495 -0.0995998 0
M  V30 4769 O 436.217 -1.78014 0.131582 0
M  V30 4770 C 433.317 -3.37111 0.347717 0
M  V30 4771 C 432.49 -4.13971 1.41233 0
M  V30 4772 C 431.549 -5.19158 0.857976 0
M  V30 4773 O 430.575 -5.48 1.53897 0
M  V30 4774 N 431.777 -5.7955 -0.331966 0
M  V30 4775 H 434.542 -2.35879 1.84881 0
M  V30 4776 H 432.103 -1.17931 1.10923 0
M  V30 4777 H 434.095 -4.04683 -0.0373026 0
M  V30 4778 H 432.665 -3.08696 -0.492527 0
M  V30 4779 H 431.885 -3.41351 1.97163 0
M  V30 4780 H 433.173 -4.62103 2.12928 0
M  V30 4781 H 432.571 -5.58455 -0.902478 0
M  V30 4782 H 431.128 -6.48464 -0.65861 0
M  V30 4783 N 434.561 -1.01147 -1.20859 0
M  V30 4784 C 435.494 -0.522108 -2.22147 0
M  V30 4785 C 436.472 0.427686 -1.56874 0
M  V30 4786 O 437.656 0.34889 -1.85243 0
M  V30 4787 C 434.783 0.240819 -3.37843 0
M  V30 4788 C 433.829 -0.657752 -4.21398 0
M  V30 4789 S 434.662 -2.12393 -4.91578 0
M  V30 4790 C 435.818 -1.37102 -6.10699 0
M  V30 4791 H 436.051 -1.38035 -2.63313 0
M  V30 4792 H 433.584 -0.819941 -1.30829 0
M  V30 4793 H 435.542 0.674908 -4.04914 0
M  V30 4794 H 434.203 1.07457 -2.95147 0
M  V30 4795 H 433.396 -0.0697456 -5.03952 0
M  V30 4796 H 432.998 -1.0294 -3.59555 0
M  V30 4797 H 435.29 -0.648315 -6.74391 0
M  V30 4798 H 436.233 -2.17252 -6.73949 0
M  V30 4799 H 436.641 -0.876154 -5.57659 0
M  V30 4800 N 436.039 1.36541 -0.78704 0
M  V30 4801 C 437.45 1.81873 -0.421807 0
M  V30 4802 C 437.801 1.65487 1.05397 0
M  V30 4803 O 436.926 1.17448 1.81755 0
M  V30 4804 C 437.521 3.30192 -0.758841 0
M  V30 4805 C 436.08 3.73743 -0.446468 0
M  V30 4806 C 435.227 2.58844 -0.994728 0
M  V30 4807 H 438.178 1.24796 -0.98039 0
M  V30 4808 H 438.199 3.80468 -0.0490648 0
M  V30 4809 H 437.711 3.42087 -1.83299 0
M  V30 4810 H 435.812 3.6741 0.619739 0
M  V30 4811 H 435.925 4.69272 -0.965415 0
M  V30 4812 H 434.289 2.51245 -0.418087 0
M  V30 4813 H 435.072 2.73525 -2.07458 0
M  V30 4814 N 437.518 0.538854 1.48102 0
M  V30 4815 C 438.465 -0.219042 2.29758 0
M  V30 4816 C 439.435 -0.925562 1.37922 0
M  V30 4817 O 440.62 -0.924855 1.66886 0
M  V30 4818 C 437.76 -1.25452 3.2149 0
M  V30 4819 C 436.873 -0.555943 4.28408 0
M  V30 4820 C 436.008 -1.57512 5.0731 0
M  V30 4821 C 435.047 -0.860498 6.06021 0
M  V30 4822 N 434.184 -1.82564 6.77949 0
M  V30 4823 H 439.024 0.483449 2.94052 0
M  V30 4824 H 436.561 0.250247 1.44956 0
M  V30 4825 H 438.519 -1.86727 3.7308 0
M  V30 4826 H 437.149 -1.92528 2.591 0
M  V30 4827 H 436.201 0.170938 3.80016 0
M  V30 4828 H 437.513 0.00474616 4.988 0
M  V30 4829 H 436.667 -2.26191 5.62959 0
M  V30 4830 H 435.406 -2.16972 4.36778 0
M  V30 4831 H 434.411 -0.159686 5.49568 0
M  V30 4832 H 435.636 -0.271897 6.78555 0
M  V30 4833 H 433.582 -2.40915 6.10161 0
M  V30 4834 H 433.499 -1.31662 7.44447 0
M  V30 4835 H 434.767 -2.50414 7.38182 0
M  V30 4836 N 438.996 -1.55193 0.274407 0
M  V30 4837 C 439.926 -2.25471 -0.607032 0
M  V30 4838 C 440.907 -1.24461 -1.15946 0
M  V30 4839 O 442.092 -1.53179 -1.19373 0
M  V30 4840 C 439.222 -2.97526 -1.79153 0
M  V30 4841 C 438.176 -4.05459 -1.37067 0
M  V30 4842 C 437.502 -4.65084 -2.6382 0
M  V30 4843 C 438.802 -5.19691 -0.521389 0
M  V30 4844 H 440.496 -2.99393 -0.0209343 0
M  V30 4845 H 438.042 -1.43997 -0.00862866 0
M  V30 4846 H 439.995 -3.45402 -2.41404 0
M  V30 4847 H 438.719 -2.21138 -2.40344 0
M  V30 4848 H 437.378 -3.58393 -0.771355 0
M  V30 4849 H 437.026 -3.85365 -3.23268 0
M  V30 4850 H 436.726 -5.37961 -2.36372 0
M  V30 4851 H 438.25 -5.15708 -3.26921 0
M  V30 4852 H 439.664 -5.63623 -1.04889 0
M  V30 4853 H 438.061 -5.99126 -0.341825 0
M  V30 4854 H 439.131 -4.82713 0.46 0
M  V30 4855 N 440.474 -0.00167713 -1.576 0
M  V30 4856 C 441.422 1.0074 -2.09652 0
M  V30 4857 C 442.416 1.35483 -1.01689 0
M  V30 4858 O 443.622 1.34028 -1.20152 0
M  V30 4859 H 439.997 0.342537 -0.669457 0
M  V30 4860 H 441.968 0.542841 -2.93421 0
M  V30 4861 C 440.717 2.2899 -2.61647 0
M  V30 4862 H 440.04 2.03124 -3.44355 0
M  V30 4863 H 441.48 2.9787 -3.01744 0
M  V30 4864 C 439.939 3.00085 -1.53136 0
M  V30 4865 O 440.469 3.91135 -0.91524 0
M  V30 4866 N 438.675 2.6194 -1.25841 0
M  V30 4867 H 438.222 1.8798 -1.76129 0
M  V30 4868 H 438.18 3.09822 -0.534576 0
M  V30 4869 N 441.952 1.55251 0.271103 0
M  V30 4870 C 443.18 1.79974 1.02064 0
M  V30 4871 C 443.595 0.574003 1.79863 0
M  V30 4872 O 442.952 -0.456962 1.76686 0
M  V30 4873 C 443.003 3.02603 1.97772 0
M  V30 4874 O 442.724 4.20443 1.23124 0
M  V30 4875 C 444.225 3.39944 2.84522 0
M  V30 4876 H 441.445 0.599489 0.301419 0
M  V30 4877 H 443.989 2.02268 0.301313 0
M  V30 4878 H 442.144 2.8243 2.65165 0
M  V30 4879 H 442.558 4.89783 1.87651 0
M  V30 4880 H 444.032 4.28915 3.47471 0
M  V30 4881 H 444.509 2.59432 3.54389 0
M  V30 4882 H 445.115 3.62383 2.22618 0
M  V30 4883 N 443.43 -0.535701 1.48216 0
M  V30 4884 C 444.393 -1.623 1.61838 0
M  V30 4885 C 445.393 -1.53087 0.492024 0
M  V30 4886 O 446.583 -1.5686 0.757668 0
M  V30 4887 C 443.715 -3.01907 1.58319 0
M  V30 4888 H 444.908 -1.51564 2.58783 0
M  V30 4889 H 442.461 -0.757317 1.36727 0
M  V30 4890 H 443.196 -3.18155 0.628299 0
M  V30 4891 H 442.981 -3.10003 2.40085 0
M  V30 4892 H 444.471 -3.80969 1.71033 0
M  V30 4893 N 444.908 -1.36708 -0.784132 0
M  V30 4894 C 445.856 -1.31533 -1.91838 0
M  V30 4895 C 446.85 -0.206205 -1.6814 0
M  V30 4896 O 448.056 -0.373519 -1.76082 0
M  V30 4897 H 444.431 -0.409613 -0.630651 0
M  V30 4898 H 446.402 -2.2731 -1.9332 0
M  V30 4899 C 445.151 -1.12679 -3.28936 0
M  V30 4900 H 444.474 -1.97274 -3.4774 0
M  V30 4901 H 445.914 -1.13106 -4.08636 0
M  V30 4902 C 444.373 0.168281 -3.36479 0
M  V30 4903 O 444.903 1.15625 -3.84699 0
M  V30 4904 N 443.109 0.214762 -2.89805 0
M  V30 4905 H 442.656 -0.589852 -2.50756 0
M  V30 4906 H 442.614 1.08094 -2.95234 0
M  V30 4907 N 446.386 1.0089 -1.21074 0
M  V30 4908 C 447.797 1.56056 -1.02486 0
M  V30 4909 C 448.148 1.91728 0.416506 0
M  V30 4910 O 447.273 1.73066 1.29912 0
M  V30 4911 C 447.868 2.83563 -1.85411 0
M  V30 4912 C 446.427 3.3523 -1.71166 0
M  V30 4913 C 445.574 2.0846 -1.82865 0
M  V30 4914 H 448.525 0.831818 -1.35154 0
M  V30 4915 H 448.546 3.55286 -1.36205 0
M  V30 4916 H 448.058 2.57569 -2.9031 0
M  V30 4917 H 446.159 3.66167 -0.689361 0
M  V30 4918 H 446.272 4.06913 -2.52901 0
M  V30 4919 H 444.636 2.21275 -1.26132 0
M  V30 4920 H 445.419 1.84883 -2.89263 0
M  V30 4921 N 447.864 1.01787 1.20321 0
M  V30 4922 C 448.774 0.598898 2.26827 0
M  V30 4923 C 449.79 -0.36418 1.70146 0
M  V30 4924 O 450.966 -0.224812 2.00141 0
M  V30 4925 C 448.031 -0.0549769 3.46656 0
M  V30 4926 C 447.092 0.954205 4.18561 0
M  V30 4927 C 446.325 0.331439 5.3267 0
M  V30 4928 O 446.548 -0.86851 5.63749 0
M  V30 4929 O 445.482 1.0488 5.92692 0
M  V30 4930 H 449.308 1.48562 2.64883 0
M  V30 4931 H 446.893 0.787434 1.26964 0
M  V30 4932 H 448.775 -0.420102 4.19301 0
M  V30 4933 H 447.45 -0.915876 3.10473 0
M  V30 4934 H 446.357 1.37072 3.48083 0
M  V30 4935 H 447.69 1.78511 4.58688 0
M  V30 4936 N 449.342 -1.36122 0.79427 0
M  V30 4937 C 450.588 -1.99406 0.369452 0
M  V30 4938 C 450.921 -1.62886 -1.05743 0
M  V30 4939 O 450.196 -0.886053 -1.73145 0
M  V30 4940 C 450.479 -3.56046 0.538833 0
M  V30 4941 C 450.332 -4.02404 2.00976 0
M  V30 4942 C 451.651 -4.40079 -0.0431359 0
M  V30 4943 H 448.77 -0.724397 0.135712 0
M  V30 4944 H 451.412 -1.61461 1.00151 0
M  V30 4945 H 449.562 -3.885 0.000771004 0
M  V30 4946 H 451.234 -3.80415 2.60926 0
M  V30 4947 H 449.477 -3.53765 2.51063 0
M  V30 4948 H 450.148 -5.11344 2.07922 0
M  V30 4949 H 452.624 -4.14013 0.416228 0
M  V30 4950 H 451.5 -5.48799 0.105374 0
M  V30 4951 H 451.761 -4.27264 -1.13571 0
M  V30 4952 N 450.82 -0.546701 -1.47814 0
M  V30 4953 C 451.767 0.206854 -2.29871 0
M  V30 4954 C 452.737 0.918235 -1.38411 0
M  V30 4955 O 453.922 0.915991 -1.67375 0
M  V30 4956 C 451.062 1.23746 -3.22151 0
M  V30 4957 C 450.175 0.533216 -4.28697 0
M  V30 4958 C 449.31 1.5482 -5.08138 0
M  V30 4959 C 448.349 0.828347 -6.06469 0
M  V30 4960 N 447.486 1.78966 -6.78908 0
M  V30 4961 H 452.326 -0.499037 -2.93792 0
M  V30 4962 H 449.863 -0.25793 -1.44821 0
M  V30 4963 H 451.821 1.84746 -3.74065 0
M  V30 4964 H 450.451 1.91151 -2.60117 0
M  V30 4965 H 449.503 -0.191089 -3.7992 0
M  V30 4966 H 450.815 -0.0311987 -4.9879 0
M  V30 4967 H 449.969 2.23202 -5.6415 0
M  V30 4968 H 448.708 2.14652 -4.37922 0
M  V30 4969 H 447.713 0.130539 -5.49645 0
M  V30 4970 H 448.938 0.235907 -6.7869 0
M  V30 4971 H 446.884 2.37675 -6.1143 0
M  V30 4972 H 446.801 1.27712 -7.45135 0
M  V30 4973 H 448.069 2.46496 -7.395 0
M  V30 4974 N 452.299 1.55045 -0.282633 0
M  V30 4975 C 453.715 1.59441 0.0712997 0
M  V30 4976 C 453.915 1.2998 1.53972 0
M  V30 4977 O 452.971 1.06431 2.28973 0
M  V30 4978 C 454.284 2.99097 -0.310104 0
M  V30 4979 C 455.832 3.1194 -0.257343 0
M  V30 4980 C 456.307 4.53875 -0.613297 0
M  V30 4981 N 457.798 4.5974 -0.565134 0
M  V30 4982 C 458.533 5.67603 -0.81326 0
M  V30 4983 N 458.029 6.83582 -1.1264 0
M  V30 4984 N 459.822 5.57187 -0.741553 0
M  V30 4985 H 451.973 1.72458 -1.23984 0
M  V30 4986 H 454.236 0.804549 -0.501403 0
M  V30 4987 H 453.942 3.25516 -1.33163 0
M  V30 4988 H 453.816 3.75616 0.345366 0
M  V30 4989 H 456.203 2.85281 0.754905 0
M  V30 4990 H 456.284 2.37618 -0.947178 0
M  V30 4991 H 455.928 4.81261 -1.62327 0
M  V30 4992 H 455.858 5.26508 0.09841 0
M  V30 4993 H 458.349 3.76427 -0.333294 0
M  V30 4994 H 458.662 7.6175 -1.30219 0
M  V30 4995 H 457.007 6.85179 -1.16425 0
M  V30 4996 H 460.198 4.65457 -0.496705 0
M  V30 4997 H 460.371 6.41171 -0.938306 0
M  V30 4998 N 453.777 0.010035 1.57597 0
M  V30 4999 C 455.007 -0.682422 1.95004 0
M  V30 5000 C 455.415 -1.67278 0.884014 0
M  V30 5001 O 454.758 -1.83129 -0.144672 0
M  V30 5002 C 454.82 -1.46141 3.28456 0
M  V30 5003 C 454.484 -0.631523 4.52615 0
M  V30 5004 C 455.481 0.0850905 5.1983 0
M  V30 5005 C 453.166 -0.574539 4.99003 0
M  V30 5006 C 455.16 0.847566 6.3174 0
M  V30 5007 C 452.847 0.191655 6.10799 0
M  V30 5008 C 453.845 0.901432 6.77025 0
M  V30 5009 O 453.533 1.65511 7.86677 0
M  V30 5010 H 453.265 -0.194361 0.647456 0
M  V30 5011 H 455.819 0.060312 2.05311 0
M  V30 5012 H 454.049 -2.24885 3.14585 0
M  V30 5013 H 455.738 -2.04016 3.50902 0
M  V30 5014 H 456.504 0.0502812 4.84974 0
M  V30 5015 H 452.383 -1.11654 4.47274 0
M  V30 5016 H 455.927 1.4021 6.83364 0
M  V30 5017 H 451.824 0.228249 6.45096 0
M  V30 5018 H 452.592 1.57287 8.03245 0
M  V30 5019 N 455.255 -1.55392 -0.262866 0
M  V30 5020 C 456.185 -1.91978 -1.32917 0
M  V30 5021 C 457.166 -0.7828 -1.51017 0
M  V30 5022 O 458.351 -1.04178 -1.63892 0
M  V30 5023 C 455.481 -2.20055 -2.68687 0
M  V30 5024 C 454.435 -3.35854 -2.65304 0
M  V30 5025 C 453.761 -3.49435 -4.04721 0
M  V30 5026 C 455.061 -4.71977 -2.23685 0
M  V30 5027 H 456.755 -2.81292 -1.02544 0
M  V30 5028 H 454.301 -1.3534 -0.491846 0
M  V30 5029 H 456.254 -2.44237 -3.43404 0
M  V30 5030 H 454.978 -1.27551 -3.00663 0
M  V30 5031 H 453.637 -3.11655 -1.93045 0
M  V30 5032 H 453.285 -2.54379 -4.33936 0
M  V30 5033 H 452.985 -4.27297 -4.0335 0
M  V30 5034 H 454.509 -3.7592 -4.81161 0
M  V30 5035 H 455.923 -4.95637 -2.88127 0
M  V30 5036 H 454.32 -5.52828 -2.33456 0
M  V30 5037 H 455.39 -4.70115 -1.18827 0
M  V30 5038 N 456.733 0.527833 -1.48498 0
M  V30 5039 C 457.663 1.64136 -1.66077 0
M  V30 5040 C 458.644 1.62286 -0.509625 0
M  V30 5041 O 459.829 1.79449 -0.742413 0
M  V30 5042 C 456.959 3.02717 -1.70234 0
M  V30 5043 C 455.913 3.19426 -2.8487 0
M  V30 5044 C 455.239 4.5909 -2.74118 0
M  V30 5045 C 456.539 3.01993 -4.26142 0
M  V30 5046 H 458.233 1.4968 -2.593 0
M  V30 5047 H 455.779 0.718654 -1.24785 0
M  V30 5048 H 457.732 3.80491 -1.8112 0
M  V30 5049 H 456.456 3.18201 -0.735911 0
M  V30 5050 H 455.115 2.4407 -2.73542 0
M  V30 5051 H 454.763 4.71413 -1.7544 0
M  V30 5052 H 454.463 4.71214 -3.51042 0
M  V30 5053 H 455.987 5.3896 -2.86974 0
M  V30 5054 H 457.401 3.69558 -4.38292 0
M  V30 5055 H 455.798 3.2561 -5.04082 0
M  V30 5056 H 456.868 1.98396 -4.42456 0
M  V30 5057 N 458.211 1.37122 0.776871 0
M  V30 5058 C 459.488 1.22586 1.52421 0
M  V30 5059 C 459.868 -0.182726 2.10308 0
M  V30 5060 O 459.216 -1.18979 1.9508 0
M  V30 5061 C 459.426 2.31782 2.60918 0
M  V30 5062 C 460.774 2.69071 3.2846 0
M  V30 5063 O 461.798 2.3092 2.71209 0
M  V30 5064 O 460.657 3.3478 4.31954 0
M  V30 5065 H 457.751 0.478045 0.674835 0
M  V30 5066 H 460.297 1.48888 0.814275 0
M  V30 5067 H 459.069 3.26131 2.16227 0
M  V30 5068 H 458.692 2.06916 3.39517 0
M  V30 5069 N 459.689 -1.00246 1.21608 0
M  V30 5070 C 460.935 -1.74319 1.03638 0
M  V30 5071 C 461.268 -1.89408 -0.428749 0
M  V30 5072 O 460.543 -1.43026 -1.3181 0
M  V30 5073 C 460.826 -3.15431 1.73711 0
M  V30 5074 C 460.679 -3.08049 3.27759 0
M  V30 5075 C 461.998 -4.14407 1.48173 0
M  V30 5076 H 459.117 -0.632741 0.377899 0
M  V30 5077 H 461.759 -1.16853 1.49818 0
M  V30 5078 H 459.909 -3.64493 1.34452 0
M  V30 5079 H 461.581 -2.66681 3.76403 0
M  V30 5080 H 459.824 -2.45088 3.57931 0
M  V30 5081 H 460.495 -4.07862 3.71958 0
M  V30 5082 H 462.971 -3.74061 1.82258 0
M  V30 5083 H 461.847 -5.11279 1.99713 0
M  V30 5084 H 462.108 -4.40174 0.412273 0
M  V30 5085 N 461.167 -1.02423 -1.1978 0
M  V30 5086 C 462.13 -0.605703 -2.21052 0
M  V30 5087 C 463.13 0.328209 -1.57415 0
M  V30 5088 O 464.32 0.115853 -1.73814 0
M  V30 5089 C 461.452 0.114366 -3.40708 0
M  V30 5090 H 462.645 -1.5017 -2.59594 0
M  V30 5091 H 460.198 -0.814888 -1.33376 0
M  V30 5092 H 460.933 1.02492 -3.07678 0
M  V30 5093 H 460.718 -0.556641 -3.88129 0
M  V30 5094 H 462.208 0.394272 -4.15735 0
M  V30 5095 N 462.645 1.35699 -0.801477 0
M  V30 5096 C 463.873 2.03157 -0.391768 0
M  V30 5097 C 464.288 1.60412 0.995668 0
M  V30 5098 O 463.645 0.799228 1.64069 0
M  V30 5099 C 463.696 3.58566 -0.459671 0
M  V30 5100 O 463.417 3.99756 -1.7924 0
M  V30 5101 C 464.918 4.4328 -0.0421205 0
M  V30 5102 H 462.138 0.651688 -0.159825 0
M  V30 5103 H 464.682 1.73426 -1.08368 0
M  V30 5104 H 462.837 3.86963 0.183939 0
M  V30 5105 H 463.251 4.94387 -1.75162 0
M  V30 5106 H 464.725 5.51821 -0.140754 0
M  V30 5107 H 465.202 4.27383 1.01196 0
M  V30 5108 H 465.808 4.20168 -0.658687 0
M  V30 5109 N 464.123 0.554532 1.47522 0
M  V30 5110 C 465.353 0.0342074 2.06572 0
M  V30 5111 C 465.761 -1.26375 1.40805 0
M  V30 5112 O 465.104 -1.7683 0.49769 0
M  V30 5113 C 465.166 -0.235096 3.5873 0
M  V30 5114 C 464.83 0.973024 4.46521 0
M  V30 5115 C 465.827 1.8779 4.848 0
M  V30 5116 C 463.512 1.18694 4.88075 0
M  V30 5117 C 465.506 2.98039 5.63428 0
M  V30 5118 C 463.193 2.29254 5.66468 0
M  V30 5119 C 464.191 3.18757 6.04055 0
M  V30 5120 O 463.879 4.27401 6.8087 0
M  V30 5121 H 463.611 0.041587 0.67472 0
M  V30 5122 H 466.165 0.766748 1.90552 0
M  V30 5123 H 464.395 -1.02191 3.72953 0
M  V30 5124 H 466.084 -0.700477 3.9981 0
M  V30 5125 H 466.85 1.72467 4.53299 0
M  V30 5126 H 462.729 0.49947 4.58286 0
M  V30 5127 H 466.273 3.67926 5.92685 0
M  V30 5128 H 462.17 2.4455 5.97382 0
M  V30 5129 H 462.938 4.25415 6.9926 0
M  V30 5130 N 465.601 -1.54893 0.290851 0
M  V30 5131 C 466.847 -2.00949 -0.314784 0
M  V30 5132 C 467.202 -1.1757 -1.52299 0
M  V30 5133 O 466.495 -0.241558 -1.90071 0
M  V30 5134 C 466.689 -3.49815 -0.732397 0
M  V30 5135 C 466.518 -4.47603 0.433799 0
M  V30 5136 C 465.288 -4.96806 0.922599 0
M  V30 5137 C 467.486 -4.98233 1.27546 0
M  V30 5138 N 465.468 -5.78426 2.05662 0
M  V30 5139 C 466.839 -5.77455 2.25712 0
M  V30 5140 C 468.894 -4.80439 1.307 0
M  V30 5141 C 467.597 -6.40778 3.26796 0
M  V30 5142 C 469.623 -5.44574 2.30637 0
M  V30 5143 C 468.985 -6.23619 3.27533 0
M  V30 5144 H 465.084 -0.777905 -0.0799257 0
M  V30 5145 H 467.668 -1.9015 0.418458 0
M  V30 5146 H 465.839 -3.60925 -1.43483 0
M  V30 5147 H 467.571 -3.82681 -1.31671 0
M  V30 5148 H 464.326 -4.70961 0.49926 0
M  V30 5149 H 464.75 -6.23923 2.62772 0
M  V30 5150 H 469.392 -4.18918 0.571622 0
M  V30 5151 H 467.11 -7.01439 4.01258 0
M  V30 5152 H 470.696 -5.32739 2.33838 0
M  V30 5153 H 469.576 -6.72367 4.03599 0
M  V30 5154 N 467.08 -0.0183926 -1.57589 0
M  V30 5155 C 468.329 0.66185 -1.90532 0
M  V30 5156 C 468.642 1.73904 -0.895366 0
M  V30 5157 O 469.848 2.47518 -1.11566 0
M  V30 5158 C 468.304 1.22844 -3.38286 0
M  V30 5159 C 467.912 0.185103 -4.47617 0
M  V30 5160 C 469.656 1.88581 -3.80312 0
M  V30 5161 C 467.563 0.762723 -5.86461 0
M  V30 5162 H 466.493 0.250972 -0.711006 0
M  V30 5163 H 469.144 -0.0819435 -1.83317 0
M  V30 5164 H 467.526 2.0235 -3.40398 0
M  V30 5165 H 468.7 -0.58671 -4.5705 0
M  V30 5166 H 467.015 -0.372889 -4.14727 0
M  V30 5167 H 469.612 2.32735 -4.81392 0
M  V30 5168 H 469.955 2.72408 -3.14801 0
M  V30 5169 H 470.488 1.15782 -3.80578 0
M  V30 5170 H 467.227 -0.0371713 -6.55489 0
M  V30 5171 H 466.747 1.50327 -5.80656 0
M  V30 5172 H 468.426 1.25576 -6.34697 0
M  V30 5173 N 468.558 1.5553 0.254621 0
M  V30 5174 C 469.974 1.4778 0.602753 0
M  V30 5175 C 470.174 0.707047 1.88688 0
M  V30 5176 O 469.23 0.233288 2.5142 0
M  V30 5177 C 470.543 2.92133 0.712648 0
M  V30 5178 C 472.091 3.02458 0.805488 0
M  V30 5179 C 472.566 4.48102 0.947009 0
M  V30 5180 N 474.057 4.52008 1.01207 0
M  V30 5181 C 474.792 5.61939 1.1407 0
M  V30 5182 N 474.288 6.81697 1.23536 0
M  V30 5183 N 476.081 5.49719 1.17325 0
M  V30 5184 H 468.232 2.04085 -0.588463 0
M  V30 5185 H 470.495 0.926229 -0.202001 0
M  V30 5186 H 470.201 3.51332 -0.160766 0
M  V30 5187 H 470.075 3.42187 1.58707 0
M  V30 5188 H 472.462 2.43344 1.66936 0
M  V30 5189 H 472.543 2.55627 -0.0939266 0
M  V30 5190 H 472.187 5.07824 0.087725 0
M  V30 5191 H 472.117 4.92607 1.86135 0
M  V30 5192 H 474.608 3.65749 0.950577 0
M  V30 5193 H 474.921 7.61228 1.33236 0
M  V30 5194 H 473.266 6.84473 1.20508 0
M  V30 5195 H 476.457 4.55095 1.09573 0
M  V30 5196 H 476.63 6.35432 1.27005 0
M  V30 5197 N 470.036 -0.519951 1.48776 0
M  V30 5198 C 470.946 -1.65025 1.66745 0
M  V30 5199 C 471.962 -1.6508 0.549954 0
M  V30 5200 O 473.138 -1.83848 0.822295 0
M  V30 5201 C 470.203 -3.0146 1.71238 0
M  V30 5202 C 469.264 -3.12182 2.94688 0
M  V30 5203 C 468.497 -4.42109 2.98958 0
M  V30 5204 O 468.72 -5.29799 2.1135 0
M  V30 5205 O 467.654 -4.57406 3.91233 0
M  V30 5206 H 471.48 -1.52801 2.62461 0
M  V30 5207 H 469.065 -0.694157 1.32294 0
M  V30 5208 H 470.947 -3.82584 1.76657 0
M  V30 5209 H 469.622 -3.13988 0.786975 0
M  V30 5210 H 468.529 -2.30316 2.94797 0
M  V30 5211 H 469.862 -3.04574 3.86646 0
M  V30 5212 N 471.514 -1.37532 -0.769588 0
M  V30 5213 C 472.761 -1.3286 -1.52822 0
M  V30 5214 C 473.089 0.0862597 -1.94309 0
M  V30 5215 O 472.344 1.05995 -1.6451 0
M  V30 5216 C 472.643 -2.21558 -2.8044 0
M  V30 5217 C 472.309 -3.69796 -2.57996 0
M  V30 5218 C 470.971 -4.10194 -2.51583 0
M  V30 5219 C 473.323 -4.63699 -2.37976 0
M  V30 5220 C 470.651 -5.42608 -2.23144 0
M  V30 5221 C 473.003 -5.96353 -2.1106 0
M  V30 5222 C 471.667 -6.35853 -2.03093 0
M  V30 5223 H 470.937 -0.486168 -0.559215 0
M  V30 5224 H 473.584 -1.69757 -0.886277 0
M  V30 5225 H 471.889 -1.77663 -3.49204 0
M  V30 5226 H 473.586 -2.15256 -3.38328 0
M  V30 5227 H 470.176 -3.37759 -2.63851 0
M  V30 5228 H 474.36 -4.33346 -2.41919 0
M  V30 5229 H 469.616 -5.72173 -2.15472 0
M  V30 5230 H 473.79 -6.68667 -1.94568 0
M  V30 5231 H 471.417 -7.38382 -1.8082 0
M  V30 5232 N 472.992 0.995999 -1.22138 0
M  V30 5233 C 474.269 1.70834 -0.952642 0
M  V30 5234 C 474.649 2.04257 0.533119 0
M  V30 5235 O 473.997 1.72343 1.50034 0
M  V30 5236 C 474.207 2.96119 -1.84701 0
M  V30 5237 C 475.555 3.68962 -2.10124 0
M  V30 5238 O 476.579 3.0612 -1.82124 0
M  V30 5239 O 475.438 4.82017 -2.57531 0
M  V30 5240 H 472.532 0.745498 -0.357997 0
M  V30 5241 H 475.078 1.05262 -1.33109 0
M  V30 5242 H 473.85 2.67898 -2.85213 0
M  V30 5243 H 473.473 3.6943 -1.46995 0
M  V30 5244 N 474.47 1.03057 1.19235 0
M  V30 5245 C 475.719 0.72326 1.88287 0
M  V30 5246 C 476.032 -0.751333 1.80594 0
M  V30 5247 O 477.238 -1.17176 2.44912 0
M  V30 5248 C 475.694 1.24338 3.3774 0
M  V30 5249 C 475.302 2.74587 3.53986 0
M  V30 5250 C 477.046 1.01213 4.12257 0
M  V30 5251 C 474.953 3.20009 4.97341 0
M  V30 5252 H 473.883 0.266848 0.705201 0
M  V30 5253 H 476.534 1.24509 1.34795 0
M  V30 5254 H 474.916 0.649457 3.90638 0
M  V30 5255 H 476.09 3.39649 3.11408 0
M  V30 5256 H 474.405 2.9601 2.9286 0
M  V30 5257 H 477.002 1.32675 5.17978 0
M  V30 5258 H 477.345 -0.051001 4.16269 0
M  V30 5259 H 477.878 1.57014 3.65501 0
M  V30 5260 H 474.617 4.25659 4.98493 0
M  V30 5261 H 474.137 2.59676 5.40674 0
M  V30 5262 H 475.816 3.13447 5.66003 0
M  V30 5263 N 475.948 -1.35272 0.808662 0
M  V30 5264 C 477.225 -1.93077 0.313181 0
M  V30 5265 C 477.605 -1.73847 -1.19752 0
M  V30 5266 O 476.953 -1.1087 -1.998 0
M  V30 5267 C 477.163 -3.41347 0.726859 0
M  V30 5268 C 478.511 -4.18493 0.717532 0
M  V30 5269 O 479.535 -3.4987 0.668535 0
M  V30 5270 O 478.394 -5.40937 0.777779 0
M  V30 5271 H 475.488 -0.822885 0.0824018 0
M  V30 5272 H 478.034 -1.44335 0.892499 0
M  V30 5273 H 476.806 -3.49082 1.76797 0
M  V30 5274 H 476.429 -3.97411 0.122461 0
M  V30 5275 N 477.426 -0.562348 -1.47226 0
M  V30 5276 C 478.674 -0.0401371 -2.0206 0
M  V30 5277 C 478.995 1.3165 -1.43852 0
M  V30 5278 O 478.265 1.85976 -0.615599 0
M  V30 5279 H 476.845 -0.0118479 -0.746906 0
M  V30 5280 H 479.507 -0.73352 -1.8057 0
M  V30 5281 H 478.603 0.0441254 -3.12069 0
M  V30 5282 N 478.904 1.54736 -0.299062 0
M  V30 5283 C 480.15 2.01114 0.304123 0
M  V30 5284 C 480.505 1.18376 1.51674 0
M  V30 5285 O 479.798 0.251635 1.8994 0
M  V30 5286 C 479.992 3.50199 0.713835 0
M  V30 5287 C 479.821 4.47366 -0.457531 0
M  V30 5288 C 478.591 4.9631 -0.948933 0
M  V30 5289 C 480.789 4.9755 -1.30186 0
M  V30 5290 N 478.771 5.77327 -2.08726 0
M  V30 5291 C 480.142 5.7625 -2.28771 0
M  V30 5292 C 482.197 4.79739 -1.33246 0
M  V30 5293 C 480.9 6.39036 -3.3019 0
M  V30 5294 C 482.926 5.43343 -2.33521 0
M  V30 5295 C 482.288 6.21874 -3.30836 0
M  V30 5296 H 478.387 0.778318 0.0757992 0
M  V30 5297 H 480.971 1.89925 -0.428536 0
M  V30 5298 H 479.142 3.61681 1.41567 0
M  V30 5299 H 480.874 3.83374 1.29639 0
M  V30 5300 H 477.629 4.7069 -0.52423 0
M  V30 5301 H 478.053 6.22521 -2.66077 0
M  V30 5302 H 482.695 4.18609 -0.59383 0
M  V30 5303 H 480.413 6.99302 -4.04973 0
M  V30 5304 H 483.999 5.31492 -2.3666 0
M  V30 5305 H 482.879 6.70217 -4.07159 0
M  V30 5306 N 480.382 0.0267497 1.57577 0
M  V30 5307 C 481.798 -0.32962 1.56159 0
M  V30 5308 C 481.998 -1.73059 1.03213 0
M  V30 5309 O 481.054 -2.43233 0.677804 0
M  V30 5310 C 482.367 -0.18039 3.00158 0
M  V30 5311 C 483.915 -0.253334 3.11973 0
M  V30 5312 C 484.39 -0.132921 4.57807 0
M  V30 5313 N 485.881 -0.189979 4.6281 0
M  V30 5314 C 486.616 -0.120554 5.73273 0
M  V30 5315 N 486.112 -0.000180315 6.928 0
M  V30 5316 N 487.905 -0.174369 5.61829 0
M  V30 5317 H 480.056 0.942896 1.90324 0
M  V30 5318 H 482.319 0.3639 0.875375 0
M  V30 5319 H 482.025 0.784576 3.42837 0
M  V30 5320 H 481.899 -0.951565 3.65 0
M  V30 5321 H 484.286 -1.20876 2.69208 0
M  V30 5322 H 484.367 0.548177 2.49857 0
M  V30 5323 H 484.011 0.819073 5.01252 0
M  V30 5324 H 483.941 -0.953264 5.179 0
M  V30 5325 H 486.432 -0.283257 3.76837 0
M  V30 5326 H 486.745 0.0461666 7.72786 0
M  V30 5327 H 485.09 0.034569 6.94991 0
M  V30 5328 H 488.281 -0.266794 4.67339 0
M  V30 5329 H 488.454 -0.116802 6.47895 0
M  V30 5330 N 481.861 -1.55662 -0.24637 0
M  V30 5331 C 482.791 -1.93377 -1.30873 0
M  V30 5332 C 483.772 -0.798773 -1.50179 0
M  V30 5333 O 484.957 -1.0591 -1.62778 0
M  V30 5334 C 482.087 -2.22893 -2.66338 0
M  V30 5335 C 481.041 -3.38649 -2.61727 0
M  V30 5336 C 480.367 -3.53708 -4.00992 0
M  V30 5337 C 481.667 -4.74323 -2.18666 0
M  V30 5338 H 483.361 -2.82363 -0.995552 0
M  V30 5339 H 480.907 -1.35854 -0.477464 0
M  V30 5340 H 482.86 -2.47866 -3.40794 0
M  V30 5341 H 481.584 -1.30733 -2.99293 0
M  V30 5342 H 480.243 -3.13685 -1.89729 0
M  V30 5343 H 479.891 -2.58967 -4.31214 0
M  V30 5344 H 479.591 -4.31551 -3.98795 0
M  V30 5345 H 481.115 -3.81003 -4.77147 0
M  V30 5346 H 482.529 -4.98665 -2.82854 0
M  V30 5347 H 480.926 -5.55273 -2.27579 0
M  V30 5348 H 481.996 -4.71349 -1.13834 0
M  V30 5349 N 483.339 0.512053 -1.4905 0
M  V30 5350 C 484.616 1.27337 -1.48474 0
M  V30 5351 C 484.996 2.1009 -0.206301 0
M  V30 5352 O 484.344 2.136 0.811609 0
M  V30 5353 C 484.554 2.13954 -2.75726 0
M  V30 5354 C 485.902 2.73507 -3.24776 0
M  V30 5355 O 486.926 2.24229 -2.76767 0
M  V30 5356 O 485.785 3.63186 -4.08361 0
M  V30 5357 H 482.879 0.575652 -0.593762 0
M  V30 5358 H 485.425 0.527232 -1.61302 0
M  V30 5359 H 484.197 1.52709 -3.60272 0
M  V30 5360 H 483.82 2.95782 -2.65705 0
M  V30 5361 N 484.817 1.37938 0.762283 0
M  V30 5362 C 486.063 1.33866 1.52341 0
M  V30 5363 C 486.396 -0.0738961 1.94059 0
M  V30 5364 O 485.671 -1.03326 1.64785 0
M  V30 5365 C 485.954 2.28644 2.78197 0
M  V30 5366 C 485.807 3.78722 2.42672 0
M  V30 5367 C 487.126 2.21702 3.80179 0
M  V30 5368 H 484.245 0.487593 0.55265 0
M  V30 5369 H 486.887 1.68717 0.873767 0
M  V30 5370 H 485.037 1.99055 3.33631 0
M  V30 5371 H 486.709 4.18948 1.93081 0
M  V30 5372 H 484.952 3.96827 1.75244 0
M  V30 5373 H 485.623 4.40486 3.3268 0
M  V30 5374 H 488.099 2.47805 3.34263 0
M  V30 5375 H 486.975 2.90143 4.65949 0
M  V30 5376 H 487.236 1.21301 4.25133 0
M  V30 5377 N 486.295 -0.989507 1.22664 0
M  V30 5378 C 487.258 -2.06183 1.00106 0
M  V30 5379 C 488.258 -1.60765 -0.0337726 0
M  V30 5380 O 489.448 -1.72989 0.205072 0
M  V30 5381 C 486.58 -3.37021 0.51279 0
M  V30 5382 H 487.773 -2.27629 1.95256 0
M  V30 5383 H 485.326 -1.16158 1.0458 0
M  V30 5384 H 486.061 -3.21261 -0.442917 0
M  V30 5385 H 485.846 -3.71323 1.25942 0
M  V30 5386 H 487.336 -4.1591 0.375315 0
M  V30 5387 N 487.773 -1.03688 -1.18687 0
M  V30 5388 C 488.721 -0.618292 -2.24232 0
M  V30 5389 C 489.715 0.353045 -1.6568 0
M  V30 5390 O 490.921 0.220749 -1.78641 0
M  V30 5391 H 487.296 -0.181711 -0.729716 0
M  V30 5392 H 489.267 -1.51893 -2.56848 0
M  V30 5393 C 488.016 0.00677342 -3.47699 0
M  V30 5394 H 487.339 -0.731692 -3.93047 0
M  V30 5395 H 488.779 0.262492 -4.23187 0
M  V30 5396 C 487.238 1.25572 -3.12623 0
M  V30 5397 O 487.768 2.34691 -3.26011 0
M  V30 5398 N 485.974 1.14755 -2.66982 0
M  V30 5399 H 485.521 0.259601 -2.56289 0
M  V30 5400 H 485.479 1.98412 -2.43885 0
M  V30 5401 N 489.251 1.34841 -0.815825 0
M  V30 5402 C 490.161 2.33425 -0.234462 0
M  V30 5403 C 491.177 1.62295 0.627413 0
M  V30 5404 O 492.353 1.94109 0.536987 0
M  V30 5405 C 489.418 3.41471 0.599849 0
M  V30 5406 C 488.479 4.28362 -0.283596 0
M  V30 5407 C 487.712 5.31248 0.51099 0
M  V30 5408 O 487.935 5.43056 1.7449 0
M  V30 5409 O 486.869 6.01812 -0.10297 0
M  V30 5410 H 490.695 2.84962 -1.05024 0
M  V30 5411 H 488.28 1.37774 -0.577809 0
M  V30 5412 H 490.162 4.07464 1.07475 0
M  V30 5413 H 488.837 2.9219 1.39308 0
M  V30 5414 H 487.744 3.65318 -0.805836 0
M  V30 5415 H 489.077 4.81066 -1.041 0
M  V30 5416 N 490.729 0.570148 1.46925 0
M  V30 5417 C 491.978 0.0487352 2.01641 0
M  V30 5418 C 492.291 -1.31433 1.44861 0
M  V30 5419 O 493.497 -1.92638 1.91318 0
M  V30 5420 C 491.953 0.0365817 3.59881 0
M  V30 5421 C 491.561 1.39719 4.25655 0
M  V30 5422 C 493.305 -0.431545 4.22301 0
M  V30 5423 C 491.212 1.34345 5.75939 0
M  V30 5424 H 490.142 0.0144492 0.753862 0
M  V30 5425 H 492.793 0.719928 1.68788 0
M  V30 5426 H 491.175 -0.700522 3.89755 0
M  V30 5427 H 492.349 2.15303 4.07408 0
M  V30 5428 H 490.664 1.80431 3.75278 0
M  V30 5429 H 493.261 -0.490354 5.32447 0
M  V30 5430 H 493.604 -1.44638 3.90366 0
M  V30 5431 H 494.137 0.251102 3.97007 0
M  V30 5432 H 490.876 2.33469 6.12513 0
M  V30 5433 H 490.396 0.629615 5.96486 0
M  V30 5434 H 492.075 1.051 6.38407 0
M  V30 5435 N 492.207 -1.54576 0.307264 0
M  V30 5436 C 493.484 -1.92377 -0.353605 0
M  V30 5437 C 493.864 -1.23517 -1.71192 0
M  V30 5438 O 493.212 -0.373101 -2.25433 0
M  V30 5439 C 493.422 -3.45928 -0.462039 0
M  V30 5440 C 494.77 -4.18278 -0.729975 0
M  V30 5441 O 495.794 -3.51997 -0.545605 0
M  V30 5442 O 494.653 -5.3563 -1.08454 0
M  V30 5443 H 491.747 -0.802747 -0.198812 0
M  V30 5444 H 494.293 -1.65929 0.355783 0
M  V30 5445 H 493.065 -3.88187 0.492592 0
M  V30 5446 H 492.688 -3.78431 -1.21965 0
M  V30 5447 N 493.685 -0.035106 -1.57561 0
M  V30 5448 C 494.635 0.954034 -2.0708 0
M  V30 5449 C 495.619 1.2818 -0.972558 0
M  V30 5450 O 496.811 1.26691 -1.23606 0
M  V30 5451 C 493.94 2.23442 -2.60631 0
M  V30 5452 C 493.026 1.93475 -3.77396 0
M  V30 5453 N 493.417 1.33802 -4.87781 0
M  V30 5454 C 491.715 2.23434 -3.85996 0
M  V30 5455 C 492.416 1.21103 -5.68954 0
M  V30 5456 N 491.392 1.70855 -5.16052 0
M  V30 5457 H 495.194 0.487731 -2.89825 0
M  V30 5458 H 492.708 0.169759 -1.6151 0
M  V30 5459 H 494.705 2.95183 -2.94402 0
M  V30 5460 H 493.365 2.70693 -1.79319 0
M  V30 5461 H 494.376 1.01227 -5.07911 0
M  V30 5462 H 491.053 2.73317 -3.15601 0
M  V30 5463 H 492.443 0.749105 -6.67711 0
M  V30 5464 N 495.163 1.55791 0.238111 0
M  V30 5465 C 496.073 1.94196 1.31625 0
M  V30 5466 C 497.089 0.843545 1.52185 0
M  V30 5467 O 498.265 1.1457 1.65637 0
M  V30 5468 C 495.33 2.2365 2.64918 0
M  V30 5469 C 494.391 3.46971 2.52804 0
M  V30 5470 C 493.624 3.7501 3.79741 0
M  V30 5471 O 493.847 3.04982 4.82019 0
M  V30 5472 O 492.781 4.68525 3.77846 0
M  V30 5473 H 496.607 2.86044 1.02043 0
M  V30 5474 H 494.192 1.42786 0.439603 0
M  V30 5475 H 496.074 2.43863 3.4367 0
M  V30 5476 H 494.749 1.34979 2.94215 0
M  V30 5477 H 493.656 3.32055 1.72309 0
M  V30 5478 H 494.989 4.35971 2.28451 0
M  V30 5479 N 496.642 -0.504142 1.49319 0
M  V30 5480 C 497.889 -1.25846 1.58647 0
M  V30 5481 C 498.217 -1.92592 0.27177 0
M  V30 5482 O 497.472 -1.81167 -0.74007 0
M  V30 5483 C 497.771 -2.35021 2.69258 0
M  V30 5484 C 497.437 -1.85755 4.1086 0
M  V30 5485 C 496.099 -1.72038 4.49395 0
M  V30 5486 C 498.451 -1.48844 4.99495 0
M  V30 5487 C 495.779 -1.19783 5.74342 0
M  V30 5488 C 498.131 -0.980422 6.24956 0
M  V30 5489 C 496.795 -0.829622 6.62324 0
M  V30 5490 H 496.065 -0.460505 0.580531 0
M  V30 5491 H 498.712 -0.559716 1.83138 0
M  V30 5492 H 497.017 -3.10672 2.38726 0
M  V30 5493 H 498.714 -2.93083 2.73685 0
M  V30 5494 H 495.304 -1.9739 3.80441 0
M  V30 5495 H 499.488 -1.5829 4.70381 0
M  V30 5496 H 494.744 -1.06817 6.01997 0
M  V30 5497 H 498.918 -0.685608 6.93017 0
M  V30 5498 H 496.545 -0.42253 7.59025 0
M  V30 5499 N 498.12 -1.38341 -0.754957 0
M  V30 5500 C 499.366 -1.35678 -1.51536 0
M  V30 5501 C 499.721 0.0533985 -1.92326 0
M  V30 5502 O 499.014 1.01573 -1.6246 0
M  V30 5503 C 499.208 -2.2452 -2.78075 0
M  V30 5504 C 499.037 -3.74035 -2.49655 0
M  V30 5505 C 497.807 -4.43066 -2.42942 0
M  V30 5506 C 500.005 -4.665 -2.16523 0
M  V30 5507 N 497.987 -5.78026 -2.06783 0
M  V30 5508 C 499.358 -5.89962 -1.90644 0
M  V30 5509 C 501.413 -4.54718 -2.02821 0
M  V30 5510 C 500.116 -7.0296 -1.52444 0
M  V30 5511 C 502.142 -5.67618 -1.66023 0
M  V30 5512 C 501.504 -6.90141 -1.41015 0
M  V30 5513 H 497.603 -0.551764 -0.554148 0
M  V30 5514 H 500.187 -1.73716 -0.879258 0
M  V30 5515 H 498.358 -1.88673 -3.39496 0
M  V30 5516 H 500.09 -2.12993 -3.44116 0
M  V30 5517 H 496.845 -3.96264 -2.59367 0
M  V30 5518 H 497.269 -6.49394 -1.91353 0
M  V30 5519 H 501.911 -3.60546 -2.20831 0
M  V30 5520 H 499.629 -7.97051 -1.33174 0
M  V30 5521 H 503.215 -5.6048 -1.56055 0
M  V30 5522 H 502.095 -7.76021 -1.12965 0
M  V30 5523 N 499.598 0.982988 -1.23187 0
M  V30 5524 C 501.014 1.2487 -0.993967 0
M  V30 5525 C 501.214 1.99155 0.306498 0
M  V30 5526 O 500.27 2.30688 1.0266 0
M  V30 5527 C 501.583 2.05078 -2.19917 0
M  V30 5528 C 503.131 2.18227 -2.2438 0
M  V30 5529 C 503.606 3.01825 -3.44479 0
M  V30 5530 N 505.097 3.09411 -3.44702 0
M  V30 5531 C 505.832 3.74412 -4.34285 0
M  V30 5532 N 505.328 4.41259 -5.341 0
M  V30 5533 N 507.121 3.71273 -4.22035 0
M  V30 5534 H 499.272 0.485253 -2.06783 0
M  V30 5535 H 501.535 0.276979 -0.906635 0
M  V30 5536 H 501.241 1.57867 -3.14279 0
M  V30 5537 H 501.115 3.05829 -2.2079 0
M  V30 5538 H 503.502 2.64648 -1.30559 0
M  V30 5539 H 503.583 1.16873 -2.2754 0
M  V30 5540 H 503.227 2.56102 -4.38605 0
M  V30 5541 H 503.157 4.03342 -3.38559 0
M  V30 5542 H 505.648 2.61845 -2.7248 0
M  V30 5543 H 505.961 4.88629 -5.98717 0
M  V30 5544 H 504.306 4.39975 -5.38002 0
M  V30 5545 H 507.497 3.18217 -3.43301 0
M  V30 5546 H 507.67 4.21649 -4.92053 0
M  V30 5547 N 501.076 1.04316 1.18135 0
M  V30 5548 C 501.986 0.646876 2.25505 0
M  V30 5549 C 503.002 -0.328008 1.7088 0
M  V30 5550 O 504.178 -0.182309 2.00573 0
M  V30 5551 C 501.243 0.0185664 3.46695 0
M  V30 5552 C 500.304 1.04277 4.16443 0
M  V30 5553 C 499.537 0.444352 5.31847 0
M  V30 5554 O 499.76 -0.748735 5.65465 0
M  V30 5555 O 498.694 1.17428 5.90334 0
M  V30 5556 H 502.52 1.54147 2.61672 0
M  V30 5557 H 500.105 0.814188 1.25265 0
M  V30 5558 H 501.987 -0.331068 4.20097 0
M  V30 5559 H 500.662 -0.849814 3.12346 0
M  V30 5560 H 499.569 1.44425 3.45098 0
M  V30 5561 H 500.902 1.882 4.54798 0
M  V30 5562 N 502.554 -1.34406 0.822964 0
M  V30 5563 C 503.801 -1.98284 0.411057 0
M  V30 5564 C 504.129 -1.65245 -1.02588 0
M  V30 5565 O 503.384 -0.91619 -1.72929 0
M  V30 5566 C 503.683 -3.52981 0.560268 0
M  V30 5567 C 503.349 -4.05931 1.96293 0
M  V30 5568 C 502.011 -4.20103 2.34664 0
M  V30 5569 C 504.363 -4.34412 2.87985 0
M  V30 5570 C 501.691 -4.60082 3.64062 0
M  V30 5571 C 504.043 -4.75838 4.16847 0
M  V30 5572 C 502.707 -4.88215 4.55195 0
M  V30 5573 H 501.977 -0.725573 0.150416 0
M  V30 5574 H 504.624 -1.60349 1.04692 0
M  V30 5575 H 502.929 -3.91477 -0.158982 0
M  V30 5576 H 504.626 -4.00385 0.222087 0
M  V30 5577 H 501.216 -3.95363 1.65487 0
M  V30 5578 H 505.4 -4.23001 2.59584 0
M  V30 5579 H 500.656 -4.67856 3.93599 0
M  V30 5580 H 504.83 -4.96834 4.87984 0
M  V30 5581 H 502.457 -5.18952 5.55512 0
M  V30 5582 N 504.032 -0.577932 -1.46621 0
M  V30 5583 C 505.448 -0.239242 -1.57797 0
M  V30 5584 C 505.648 1.25843 -1.57371 0
M  V30 5585 O 504.704 2.03988 -1.48813 0
M  V30 5586 C 506.017 -0.884227 -2.87405 0
M  V30 5587 C 507.565 -0.857373 -3.01028 0
M  V30 5588 C 508.04 -1.48181 -4.33366 0
M  V30 5589 N 509.531 -1.44593 -4.40053 0
M  V30 5590 C 510.266 -1.89852 -5.41058 0
M  V30 5591 N 509.762 -2.43062 -6.48762 0
M  V30 5592 N 511.555 -1.80797 -5.3223 0
M  V30 5593 H 503.706 -1.55073 -1.45142 0
M  V30 5594 H 505.969 -0.647903 -0.692044 0
M  V30 5595 H 505.675 -1.93759 -2.93514 0
M  V30 5596 H 505.549 -0.389585 -3.75183 0
M  V30 5597 H 507.936 0.187357 -2.94505 0
M  V30 5598 H 508.017 -1.38999 -2.14739 0
M  V30 5599 H 507.661 -2.52572 -4.40647 0
M  V30 5600 H 507.591 -0.924464 -5.18422 0
M  V30 5601 H 510.082 -1.05694 -3.62819 0
M  V30 5602 H 510.395 -2.75466 -7.22038 0
M  V30 5603 H 508.74 -2.47085 -6.49595 0
M  V30 5604 H 511.931 -1.38989 -4.46989 0
M  V30 5605 H 512.104 -2.16385 -6.10804 0
M  V30 5606 N 505.51 1.54411 -0.315457 0
M  V30 5607 C 506.442 2.21527 0.588067 0
M  V30 5608 C 507.455 1.21263 1.08624 0
M  V30 5609 O 508.644 1.47777 1.00121 0
M  V30 5610 C 505.744 2.85963 1.81875 0
M  V30 5611 C 504.917 4.12291 1.46063 0
M  V30 5612 C 503.976 4.60396 2.54799 0
M  V30 5613 O 503.002 5.25265 2.19283 0
M  V30 5614 N 504.204 4.33935 3.85591 0
M  V30 5615 H 506.969 2.99697 0.013414 0
M  V30 5616 H 504.53 1.61308 -0.138295 0
M  V30 5617 H 506.522 3.15071 2.53993 0
M  V30 5618 H 505.092 2.11548 2.30144 0
M  V30 5619 H 504.312 3.90036 0.571445 0
M  V30 5620 H 505.6 4.9452 1.19695 0
M  V30 5621 H 504.998 3.81996 4.17248 0
M  V30 5622 H 503.555 4.67718 4.53964 0
M  V30 5623 N 506.988 0.0434614 1.5754 0
M  V30 5624 C 507.898 -0.94893 2.14552 0
M  V30 5625 C 508.914 -1.34707 1.10136 0
M  V30 5626 O 510.09 -1.42557 1.42266 0
M  V30 5627 C 507.155 -2.208 2.67298 0
M  V30 5628 C 506.216 -1.86893 3.86484 0
M  V30 5629 C 505.449 -3.06797 4.36705 0
M  V30 5630 O 505.672 -4.19921 3.86034 0
M  V30 5631 O 504.606 -2.8826 5.28384 0
M  V30 5632 H 508.432 -0.494099 2.99654 0
M  V30 5633 H 506.017 -0.177989 1.48336 0
M  V30 5634 H 507.899 -2.94686 3.01228 0
M  V30 5635 H 506.574 -2.65436 1.85272 0
M  V30 5636 H 505.481 -1.10347 3.57455 0
M  V30 5637 H 506.814 -1.47062 4.69716 0
M  V30 5638 N 508.466 -1.55915 -0.229846 0
M  V30 5639 C 509.712 -1.78807 -0.956868 0
M  V30 5640 C 510.045 -0.611687 -1.84315 0
M  V30 5641 O 509.32 0.389398 -1.90562 0
M  V30 5642 C 509.603 -3.11718 -1.80288 0
M  V30 5643 C 509.456 -4.3979 -0.943649 0
M  V30 5644 C 510.775 -3.40999 -2.78222 0
M  V30 5645 H 507.894 -0.6505 -0.346437 0
M  V30 5646 H 510.536 -1.88648 -0.226252 0
M  V30 5647 H 508.686 -3.03459 -2.42579 0
M  V30 5648 H 510.358 -4.60059 -0.338121 0
M  V30 5649 H 508.601 -4.33086 -0.248705 0
M  V30 5650 H 509.272 -5.29208 -1.5698 0
M  V30 5651 H 511.748 -3.49332 -2.26067 0
M  V30 5652 H 510.624 -4.35183 -3.34526 0
M  V30 5653 H 510.885 -2.62754 -3.55546 0
M  V30 5654 N 509.944 0.496216 -1.49584 0
M  V30 5655 C 510.891 1.59722 -1.66606 0
M  V30 5656 C 511.861 1.58158 -0.507477 0
M  V30 5657 O 513.046 1.76072 -0.735076 0
M  V30 5658 C 510.186 2.97844 -1.74308 0
M  V30 5659 C 509.299 3.09388 -3.01502 0
M  V30 5660 C 508.434 4.38271 -3.00153 0
M  V30 5661 C 507.473 4.43466 -4.21906 0
M  V30 5662 N 506.61 5.63784 -4.1844 0
M  V30 5663 H 511.45 1.44515 -2.60613 0
M  V30 5664 H 508.987 0.703048 -1.29212 0
M  V30 5665 H 510.945 3.77907 -1.76754 0
M  V30 5666 H 509.575 3.11743 -0.837619 0
M  V30 5667 H 508.627 2.22357 -3.08645 0
M  V30 5668 H 509.939 3.09085 -3.91494 0
M  V30 5669 H 509.093 5.2666 -3.01188 0
M  V30 5670 H 507.832 4.41146 -2.07947 0
M  V30 5671 H 506.837 3.53478 -4.21109 0
M  V30 5672 H 508.062 4.42303 -5.1531 0
M  V30 5673 H 506.008 5.67491 -3.29074 0
M  V30 5674 H 505.925 5.65118 -5.02173 0
M  V30 5675 H 507.193 6.54367 -4.23585 0
M  V30 5676 N 511.423 1.38739 0.74761 0
M  V30 5677 C 512.386 1.36241 1.84312 0
M  V30 5678 C 513.386 0.261811 1.58654 0
M  V30 5679 O 514.576 0.519031 1.66288 0
M  V30 5680 C 511.708 1.12253 3.21888 0
M  V30 5681 H 512.901 2.33712 1.87933 0
M  V30 5682 H 510.454 1.2412 0.949946 0
M  V30 5683 H 511.189 0.154133 3.23934 0
M  V30 5684 H 510.974 1.91943 3.41907 0
M  V30 5685 H 512.464 1.13215 4.0196 0
M  V30 5686 N 512.901 -0.976442 1.23707 0
M  V30 5687 C 513.831 -2.08749 1.04624 0
M  V30 5688 C 514.812 -1.70057 -0.0380956 0
M  V30 5689 O 515.997 -1.93782 0.127308 0
M  V30 5690 C 513.127 -3.41335 0.640902 0
M  V30 5691 C 512.081 -3.93947 1.67302 0
M  V30 5692 C 511.407 -5.22774 1.12301 0
M  V30 5693 C 512.707 -4.22769 3.06697 0
M  V30 5694 H 514.401 -2.24972 1.97555 0
M  V30 5695 H 511.947 -1.08108 0.951247 0
M  V30 5696 H 513.9 -4.18489 0.494434 0
M  V30 5697 H 512.624 -3.24988 -0.324099 0
M  V30 5698 H 511.283 -3.18941 1.80755 0
M  V30 5699 H 510.931 -5.0278 0.148877 0
M  V30 5700 H 510.631 -5.58942 1.81267 0
M  V30 5701 H 512.155 -6.02546 0.988479 0
M  V30 5702 H 513.569 -4.90659 2.96524 0
M  V30 5703 H 511.966 -4.70147 3.72937 0
M  V30 5704 H 513.036 -3.29885 3.55392 0
M  V30 5705 N 514.379 -1.04941 -1.1758 0
M  V30 5706 C 515.326 -0.648155 -2.21512 0
M  V30 5707 C 516.296 0.348431 -1.62404 0
M  V30 5708 O 517.481 0.240419 -1.89279 0
M  V30 5709 C 514.621 -0.0264291 -3.4509 0
M  V30 5710 C 513.734 -1.07154 -4.185 0
M  V30 5711 C 512.869 -0.417403 -5.29558 0
M  V30 5712 C 511.908 -1.447 -5.94751 0
M  V30 5713 N 511.045 -0.817203 -6.97328 0
M  V30 5714 H 515.885 -1.53891 -2.55189 0
M  V30 5715 H 513.422 -0.769699 -1.25356 0
M  V30 5716 H 515.38 0.351456 -4.15717 0
M  V30 5717 H 514.01 0.827802 -3.12005 0
M  V30 5718 H 513.062 -1.56728 -3.46613 0
M  V30 5719 H 514.374 -1.8532 -4.63096 0
M  V30 5720 H 513.528 0.0142061 -6.06698 0
M  V30 5721 H 512.267 0.396265 -4.86087 0
M  V30 5722 H 511.272 -1.88865 -5.16343 0
M  V30 5723 H 512.497 -2.26252 -6.40302 0
M  V30 5724 H 510.443 -0.0239995 -6.55996 0
M  V30 5725 H 510.36 -1.53644 -7.40223 0
M  V30 5726 H 511.628 -0.410283 -7.7842 0
M  V30 5727 N 515.857 1.33968 -0.830081 0
M  V30 5728 C 517.268 1.80439 -0.479455 0
M  V30 5729 C 517.619 1.68756 1.00079 0
M  V30 5730 O 516.744 1.23171 1.77927 0
M  V30 5731 C 517.339 3.27611 -0.863505 0
M  V30 5732 C 515.898 3.72133 -0.565145 0
M  V30 5733 C 515.045 2.55549 -1.07657 0
M  V30 5734 H 517.996 1.21614 -1.0196 0
M  V30 5735 H 518.017 3.8012 -0.170083 0
M  V30 5736 H 517.529 3.36082 -1.94089 0
M  V30 5737 H 515.63 3.69196 0.502536 0
M  V30 5738 H 515.743 4.65963 -1.11422 0
M  V30 5739 H 514.107 2.49788 -0.497807 0
M  V30 5740 H 514.89 2.66786 -2.16055 0
M  V30 5741 N 517.335 0.585699 1.46312 0
M  V30 5742 C 518.612 0.00542031 1.95599 0
M  V30 5743 C 518.992 -1.45619 1.52834 0
M  V30 5744 O 518.34 -2.14759 0.780446 0
M  V30 5745 C 518.55 0.180601 3.48532 0
M  V30 5746 C 519.898 0.049979 4.24571 0
M  V30 5747 O 520.922 0.109589 3.56031 0
M  V30 5748 O 519.781 -0.0832226 5.46437 0
M  V30 5749 H 516.875 -0.0481281 0.825598 0
M  V30 5750 H 519.421 0.654227 1.56582 0
M  V30 5751 H 518.193 1.19657 3.72556 0
M  V30 5752 H 517.816 -0.504498 3.94386 0
M  V30 5753 N 518.813 -1.54241 0.323641 0
M  V30 5754 C 520.059 -2.00867 -0.279323 0
M  V30 5755 C 520.392 -1.21146 -1.5178 0
M  V30 5756 O 519.667 -0.29378 -1.92269 0
M  V30 5757 C 519.95 -3.54837 -0.613387 0
M  V30 5758 C 519.803 -4.45284 0.635803 0
M  V30 5759 C 521.122 -4.16186 -1.43099 0
M  V30 5760 H 518.241 -0.730177 -0.100049 0
M  V30 5761 H 520.883 -1.84829 0.440235 0
M  V30 5762 H 519.033 -3.68634 -1.22641 0
M  V30 5763 H 520.705 -4.43357 1.27406 0
M  V30 5764 H 518.948 -4.14956 1.26466 0
M  V30 5765 H 519.619 -5.5084 0.357597 0
M  V30 5766 H 522.095 -4.05964 -0.912814 0
M  V30 5767 H 520.971 -5.24031 -1.6335 0
M  V30 5768 H 521.232 -3.69516 -2.42715 0
M  V30 5769 N 520.291 -0.0518155 -1.57515 0
M  V30 5770 C 521.521 0.63048 -1.96745 0
M  V30 5771 C 521.929 1.64875 -0.928054 0
M  V30 5772 O 521.272 1.83449 0.0960678 0
M  V30 5773 C 521.334 1.37381 -3.32215 0
M  V30 5774 C 520.998 0.511298 -4.54131 0
M  V30 5775 C 521.995 -0.222884 -5.19422 0
M  V30 5776 C 519.68 0.442035 -5.00351 0
M  V30 5777 C 521.674 -1.01476 -6.2927 0
M  V30 5778 C 519.361 -0.35353 -6.10077 0
M  V30 5779 C 520.359 -1.08062 -6.74397 0
M  V30 5780 O 520.047 -1.8631 -7.82013 0
M  V30 5781 H 519.779 0.177126 -0.652382 0
M  V30 5782 H 522.333 -0.114726 -2.05079 0
M  V30 5783 H 520.563 2.16466 -3.20436 0
M  V30 5784 H 522.252 1.9464 -3.56188 0
M  V30 5785 H 523.018 -0.178846 -4.8467 0
M  V30 5786 H 518.897 0.997562 -4.50077 0
M  V30 5787 H 522.441 -1.58279 -6.79407 0
M  V30 5788 H 518.338 -0.399205 -6.44264 0
M  V30 5789 H 519.106 -1.78528 -7.98793 0
M  V30 5790 N 521.769 1.56035 0.221574 0
M  V30 5791 C 523.018 1.78245 0.944016 0
M  V30 5792 C 523.331 0.620371 1.85501 0
M  V30 5793 O 524.537 0.726103 2.6161 0
M  V30 5794 C 522.993 3.15659 1.7288 0
M  V30 5795 C 522.601 4.39591 0.863942 0
M  V30 5796 C 524.345 3.47195 2.44246 0
M  V30 5797 C 522.252 5.6803 1.64607 0
M  V30 5798 H 521.182 0.664547 0.356222 0
M  V30 5799 H 523.833 1.8243 0.197904 0
M  V30 5800 H 522.215 3.0565 2.51781 0
M  V30 5801 H 523.389 4.60655 0.115464 0
M  V30 5802 H 521.704 4.15572 0.262407 0
M  V30 5803 H 524.301 4.40381 3.03263 0
M  V30 5804 H 524.644 2.69693 3.1713 0
M  V30 5805 H 525.177 3.58533 1.72334 0
M  V30 5806 H 521.916 6.48425 0.960507 0
M  V30 5807 H 521.436 5.51027 2.36917 0
M  V30 5808 H 523.115 6.08203 2.20675 0
M  V30 5809 N 523.247 -0.488276 1.49845 0
M  V30 5810 C 524.177 -1.59675 1.70371 0
M  V30 5811 C 525.158 -1.60878 0.552473 0
M  V30 5812 O 526.343 -1.77417 0.78973 0
M  V30 5813 C 523.473 -2.98098 1.782 0
M  V30 5814 C 522.427 -3.11761 2.93239 0
M  V30 5815 C 521.753 -4.51661 2.86193 0
M  V30 5816 C 523.053 -2.90589 4.33999 0
M  V30 5817 H 524.747 -1.42752 2.63177 0
M  V30 5818 H 522.293 -0.685317 1.26647 0
M  V30 5819 H 524.246 -3.75555 1.91144 0
M  V30 5820 H 522.97 -3.16138 0.820018 0
M  V30 5821 H 521.629 -2.36732 2.79917 0
M  V30 5822 H 521.277 -4.66595 1.87877 0
M  V30 5823 H 520.977 -4.61742 3.63412 0
M  V30 5824 H 522.501 -5.31162 3.01163 0
M  V30 5825 H 523.915 -3.57807 4.47936 0
M  V30 5826 H 522.312 -3.1213 5.12538 0
M  V30 5827 H 523.382 -1.86595 4.4756 0
M  V30 5828 N 524.725 -1.39134 -0.740242 0
M  V30 5829 C 525.973 -1.35803 -1.49673 0
M  V30 5830 C 526.294 0.0470897 -1.94943 0
M  V30 5831 O 525.564 0.997347 -1.68611 0
M  V30 5832 H 524.144 -0.499736 -0.555224 0
M  V30 5833 H 526.806 -1.73947 -0.879107 0
M  V30 5834 H 525.902 -2.0174 -2.38133 0
M  V30 5835 N 526.204 0.969867 -1.24223 0
M  V30 5836 C 527.114 2.09806 -1.0497 0
M  V30 5837 C 528.13 1.73998 0.00886455 0
M  V30 5838 O 529.306 2.00513 -0.188848 0
M  V30 5839 C 526.371 3.40467 -0.654452 0
M  V30 5840 C 525.432 3.90236 -1.78926 0
M  V30 5841 C 524.665 5.14662 -1.41277 0
M  V30 5842 O 524.888 5.69602 -0.301632 0
M  V30 5843 O 523.822 5.58761 -2.23763 0
M  V30 5844 H 527.648 2.28942 -1.99548 0
M  V30 5845 H 525.233 1.08197 -1.03023 0
M  V30 5846 H 527.115 4.19039 -0.445452 0
M  V30 5847 H 525.79 3.22636 0.262216 0
M  V30 5848 H 524.697 3.12735 -2.05299 0
M  V30 5849 H 526.03 4.1254 -2.68462 0
M  V30 5850 N 527.682 1.05563 1.17022 0
M  V30 5851 C 528.931 0.763036 1.8671 0
M  V30 5852 C 529.244 -0.712857 1.82147 0
M  V30 5853 O 530.45 -1.11955 2.47343 0
M  V30 5854 C 528.906 1.31474 3.35026 0
M  V30 5855 C 528.514 2.82034 3.48081 0
M  V30 5856 C 530.258 1.09935 4.10018 0
M  V30 5857 C 528.165 3.30486 4.90442 0
M  V30 5858 H 527.095 0.281747 0.699382 0
M  V30 5859 H 529.746 1.2734 1.32124 0
M  V30 5860 H 528.128 0.732171 3.89173 0
M  V30 5861 H 529.302 3.46178 3.04133 0
M  V30 5862 H 527.617 3.02156 2.86515 0
M  V30 5863 H 530.214 1.43632 5.15048 0
M  V30 5864 H 530.557 0.0373072 4.16283 0
M  V30 5865 H 531.09 1.64732 3.62089 0
M  V30 5866 H 527.829 4.36137 4.89352 0
M  V30 5867 H 527.349 2.71086 5.35044 0
M  V30 5868 H 529.028 3.25382 5.59227 0
M  V30 5869 N 529.16 -1.33526 0.837174 0
M  V30 5870 C 530.406 -1.98541 0.44193 0
M  V30 5871 C 530.761 -1.65124 -0.987517 0
M  V30 5872 O 530.054 -0.919948 -1.6807 0
M  V30 5873 C 530.248 -3.52367 0.597675 0
M  V30 5874 C 530.077 -4.00731 2.04071 0
M  V30 5875 C 528.847 -4.28649 2.67559 0
M  V30 5876 C 531.045 -4.17073 3.00923 0
M  V30 5877 N 529.027 -4.63142 4.02955 0
M  V30 5878 C 530.398 -4.54905 4.21261 0
M  V30 5879 C 532.453 -3.99358 2.97351 0
M  V30 5880 C 531.156 -4.76874 5.38501 0
M  V30 5881 C 533.182 -4.22501 4.1382 0
M  V30 5882 C 532.544 -4.60634 5.32912 0
M  V30 5883 H 528.643 -0.753246 0.210105 0
M  V30 5884 H 531.227 -1.61674 1.08488 0
M  V30 5885 H 529.398 -3.88397 -0.0154658 0
M  V30 5886 H 531.13 -4.04326 0.17404 0
M  V30 5887 H 527.885 -4.20077 2.18706 0
M  V30 5888 H 528.309 -4.84601 4.72748 0
M  V30 5889 H 532.951 -3.68993 2.06408 0
M  V30 5890 H 530.669 -5.06101 6.2999 0
M  V30 5891 H 534.255 -4.10316 4.12471 0
M  V30 5892 H 533.135 -4.78187 6.21536 0
M  V30 5893 N 530.638 -0.59345 -1.46 0
M  V30 5894 C 531.588 0.154751 -2.27474 0
M  V30 5895 C 532.572 0.851849 -1.365 0
M  V30 5896 O 533.764 0.744171 -1.60596 0
M  V30 5897 C 530.893 1.16079 -3.2308 0
M  V30 5898 C 529.979 0.465256 -4.2154 0
M  V30 5899 N 530.37 -0.485197 -5.03467 0
M  V30 5900 C 528.668 0.714634 -4.40237 0
M  V30 5901 C 529.369 -0.892709 -5.74809 0
M  V30 5902 N 528.345 -0.239511 -5.43072 0
M  V30 5903 H 532.147 -0.57546 -2.88211 0
M  V30 5904 H 529.661 -0.416046 -1.5698 0
M  V30 5905 H 531.658 1.71108 -3.80168 0
M  V30 5906 H 530.318 1.89171 -2.63903 0
M  V30 5907 H 531.329 -0.861258 -5.10689 0
M  V30 5908 H 528.006 1.43131 -3.92199 0
M  V30 5909 H 529.396 -1.67581 -6.50666 0
M  V30 5910 N 532.116 1.54067 -0.331816 0
M  V30 5911 C 533.393 1.92915 0.322955 0
M  V30 5912 C 533.773 1.26225 1.69205 0
M  V30 5913 O 533.121 0.408919 2.24811 0
M  V30 5914 C 533.331 3.46619 0.406946 0
M  V30 5915 C 534.679 4.19386 0.663339 0
M  V30 5916 O 535.703 3.5282 0.489536 0
M  V30 5917 O 534.562 5.37288 0.999193 0
M  V30 5918 H 531.656 0.805808 0.186016 0
M  V30 5919 H 534.202 1.65342 -0.382135 0
M  V30 5920 H 532.974 3.87354 -0.554287 0
M  V30 5921 H 532.597 3.80324 1.15929 0
M  V30 5922 N 533.594 0.0601682 1.57485 0
M  V30 5923 C 534.557 -0.896373 2.10945 0
M  V30 5924 C 535.557 -1.23402 1.03095 0
M  V30 5925 O 536.747 -1.16921 1.29132 0
M  V30 5926 C 533.879 -2.20346 2.60116 0
M  V30 5927 H 535.072 -0.432778 2.96761 0
M  V30 5928 H 532.625 -0.188372 1.55161 0
M  V30 5929 H 533.36 -2.71268 1.7772 0
M  V30 5930 H 533.145 -1.9714 3.38937 0
M  V30 5931 H 534.635 -2.88846 3.01592 0
M  V30 5932 N 535.072 -1.5615 -0.213296 0
M  V30 5933 C 536.005 -1.88115 -1.29182 0
M  V30 5934 C 536.983 -0.739348 -1.44819 0
M  V30 5935 O 538.167 -0.988541 -1.605 0
M  V30 5936 C 535.294 -2.09541 -2.66102 0
M  V30 5937 C 534.34 -3.32236 -2.67436 0
M  V30 5938 S 535.173 -4.87915 -2.20679 0
M  V30 5939 C 536.329 -5.12387 -3.59458 0
M  V30 5940 H 536.562 -2.793 -1.01876 0
M  V30 5941 H 534.095 -1.48692 -0.415934 0
M  V30 5942 H 536.053 -2.22568 -3.44925 0
M  V30 5943 H 534.714 -1.19138 -2.90628 0
M  V30 5944 H 533.907 -3.44297 -3.6807 0
M  V30 5945 H 533.509 -3.18108 -1.96681 0
M  V30 5946 H 535.801 -5.01791 -4.55205 0
M  V30 5947 H 536.744 -6.14236 -3.52306 0
M  V30 5948 H 537.152 -4.40089 -3.53528 0
M  V30 5949 N 536.55 0.480323 -1.50102 0
M  V30 5950 C 537.961 1.06142 -1.53593 0
M  V30 5951 C 538.312 1.93335 -0.334055 0
M  V30 5952 O 537.437 2.09188 0.55403 0
M  V30 5953 C 538.032 1.9317 -2.78336 0
M  V30 5954 C 536.591 2.46405 -2.84538 0
M  V30 5955 C 535.738 1.24521 -2.4777 0
M  V30 5956 H 538.689 0.26333 -1.565 0
M  V30 5957 H 538.71 2.78123 -2.59669 0
M  V30 5958 H 538.222 1.29683 -3.65792 0
M  V30 5959 H 536.323 3.13472 -2.01411 0
M  V30 5960 H 536.436 2.82143 -3.87211 0
M  V30 5961 H 534.8 1.57706 -2.00003 0
M  V30 5962 H 535.583 0.627102 -3.37524 0
M  V30 5963 N 538.028 1.39524 0.732853 0
M  V30 5964 C 539.274 1.38072 1.49358 0
M  V30 5965 C 539.629 -0.0227943 1.92386 0
M  V30 5966 O 538.922 -0.98976 1.64056 0
M  V30 5967 C 539.116 2.28916 2.74468 0
M  V30 5968 C 538.945 3.7796 2.43673 0
M  V30 5969 C 537.715 4.46874 2.35863 0
M  V30 5970 C 539.913 4.69886 2.09074 0
M  V30 5971 N 537.895 5.81242 1.97561 0
M  V30 5972 C 539.266 5.9292 1.81234 0
M  V30 5973 C 541.321 4.57887 1.95561 0
M  V30 5974 C 540.024 7.05297 1.41242 0
M  V30 5975 C 542.05 5.70187 1.56972 0
M  V30 5976 C 541.412 6.92297 1.30018 0
M  V30 5977 H 537.511 0.56051 0.5453 0
M  V30 5978 H 540.095 1.75093 0.85151 0
M  V30 5979 H 538.266 1.9405 3.36451 0
M  V30 5980 H 539.998 2.18441 3.40684 0
M  V30 5981 H 536.753 4.00341 2.5303 0
M  V30 5982 H 537.177 6.52356 1.80997 0
M  V30 5983 H 541.819 3.64014 2.15067 0
M  V30 5984 H 539.537 7.99069 1.20476 0
M  V30 5985 H 543.123 5.62892 1.47119 0
M  V30 5986 H 542.003 7.7772 1.00605 0
M  V30 5987 N 539.506 -0.963266 1.24736 0
M  V30 5988 C 540.436 -2.07628 1.06832 0
M  V30 5989 C 541.417 -1.70088 -0.0200566 0
M  V30 5990 O 542.602 -1.93636 0.147854 0
M  V30 5991 C 539.732 -3.40636 0.677069 0
M  V30 5992 C 538.686 -3.9215 1.71471 0
M  V30 5993 C 538.012 -5.21553 1.1784 0
M  V30 5994 C 539.312 -4.19493 3.11164 0
M  V30 5995 H 541.006 -2.22864 1.9993 0
M  V30 5996 H 538.552 -1.07093 0.96266 0
M  V30 5997 H 540.505 -4.17941 0.538792 0
M  V30 5998 H 539.229 -3.25313 -0.289612 0
M  V30 5999 H 537.888 -3.17005 1.84128 0
M  V30 6000 H 537.536 -5.02593 0.202195 0
M  V30 6001 H 537.236 -5.56988 1.87185 0
M  V30 6002 H 538.76 -6.01463 1.05233 0
M  V30 6003 H 540.174 -4.87487 3.01711 0
M  V30 6004 H 538.571 -4.66165 3.77902 0
M  V30 6005 H 539.641 -3.26097 3.58871 0
M  V30 6006 N 540.985 -1.06182 -1.16461 0
M  V30 6007 C 542.401 -0.785065 -1.38956 0
M  V30 6008 C 542.601 0.616103 -1.9185 0
M  V30 6009 O 541.657 1.37686 -2.11657 0
M  V30 6010 C 542.97 -1.84902 -2.37132 0
M  V30 6011 C 544.518 -1.8724 -2.50819 0
M  V30 6012 C 544.993 -2.92686 -3.52277 0
M  V30 6013 N 546.484 -2.91712 -3.59803 0
M  V30 6014 C 547.219 -3.69949 -4.38093 0
M  V30 6015 N 546.715 -4.58 -5.19815 0
M  V30 6016 N 548.508 -3.58346 -4.33064 0
M  V30 6017 H 540.659 -1.96569 -0.804634 0
M  V30 6018 H 542.922 -0.851747 -0.416211 0
M  V30 6019 H 542.628 -2.85518 -2.0536 0
M  V30 6020 H 542.502 -1.69908 -3.36766 0
M  V30 6021 H 544.889 -0.872827 -2.81897 0
M  V30 6022 H 544.97 -2.06311 -1.51226 0
M  V30 6023 H 544.614 -3.92835 -3.21937 0
M  V30 6024 H 544.544 -2.70864 -4.51598 0
M  V30 6025 H 547.035 -2.27876 -3.01464 0
M  V30 6026 H 547.348 -5.14357 -5.76764 0
M  V30 6027 H 545.693 -4.62056 -5.19162 0
M  V30 6028 H 548.884 -2.88943 -3.68279 0
M  V30 6029 H 549.057 -4.19563 -4.93833 0
M  V30 6030 N 542.463 1.3308 -0.844243 0
M  V30 6031 C 543.711 1.97215 -0.441676 0
M  V30 6032 C 544.032 1.67185 1.0037 0
M  V30 6033 O 543.302 0.973588 1.69994 0
M  V30 6034 H 541.882 0.72959 -0.160335 0
M  V30 6035 H 544.544 1.62348 -1.07838 0
M  V30 6036 H 543.64 3.06698 -0.57815 0
M  V30 6037 N 543.941 0.601185 1.45683 0
M  V30 6038 C 545.218 0.0261659 1.95582 0
M  V30 6039 C 545.598 -1.4399 1.5437 0
M  V30 6040 O 544.946 -2.13919 0.80318 0
M  V30 6041 C 545.156 0.217557 3.48321 0
M  V30 6042 C 546.504 0.0950076 4.24494 0
M  V30 6043 O 547.528 0.147345 3.55895 0
M  V30 6044 O 546.387 -0.025261 5.46494 0
M  V30 6045 H 543.481 -0.0393688 0.826062 0
M  V30 6046 H 546.027 0.670798 1.55879 0
M  V30 6047 H 544.799 1.23601 3.71266 0
M  V30 6048 H 544.422 -0.46264 3.94899 0
M  V30 6049 N 545.419 -1.53889 0.339982 0
M  V30 6050 C 546.351 -2.22435 -0.55275 0
M  V30 6051 C 547.364 -1.22975 -1.06681 0
M  V30 6052 O 548.553 -1.49351 -0.977575 0
M  V30 6053 C 545.653 -2.8882 -1.77302 0
M  V30 6054 C 544.826 -4.14563 -1.39486 0
M  V30 6055 C 543.885 -4.64391 -2.47442 0
M  V30 6056 O 542.911 -5.28687 -2.10899 0
M  V30 6057 N 544.113 -4.40015 -3.78639 0
M  V30 6058 H 546.878 -2.9968 0.0342669 0
M  V30 6059 H 544.439 -1.61068 0.16394 0
M  V30 6060 H 546.431 -3.19072 -2.48948 0
M  V30 6061 H 545.001 -2.15182 -2.26749 0
M  V30 6062 H 544.221 -3.90896 -0.509321 0
M  V30 6063 H 545.509 -4.96362 -1.11813 0
M  V30 6064 H 544.907 -3.88586 -4.11118 0
M  V30 6065 H 543.464 -4.74881 -4.46465 0
M  V30 6066 N 546.897 -0.0685191 -1.57451 0
M  V30 6067 C 548.144 0.601348 -1.93365 0
M  V30 6068 C 548.472 1.69816 -0.948294 0
M  V30 6069 O 547.727 1.95666 0.0366199 0
M  V30 6070 C 548.026 1.22051 -3.35914 0
M  V30 6071 C 547.692 0.250165 -4.50205 0
M  V30 6072 C 546.354 -0.0167954 -4.81197 0
M  V30 6073 C 548.706 -0.413867 -5.19554 0
M  V30 6074 C 546.034 -0.95493 -5.78876 0
M  V30 6075 C 548.386 -1.3403 -6.18238 0
M  V30 6076 C 547.05 -1.61576 -6.47649 0
M  V30 6077 H 546.32 0.220049 -0.707573 0
M  V30 6078 H 548.967 -0.138697 -1.90997 0
M  V30 6079 H 547.272 2.03622 -3.34732 0
M  V30 6080 H 548.969 1.74605 -3.6099 0
M  V30 6081 H 545.559 0.468421 -4.26033 0
M  V30 6082 H 549.743 -0.220733 -4.95809 0
M  V30 6083 H 544.999 -1.17563 -5.99991 0
M  V30 6084 H 549.173 -1.86081 -6.71079 0
M  V30 6085 H 546.8 -2.34431 -7.2315 0
M  V30 6086 N 548.375 1.56261 0.205012 0
M  V30 6087 C 549.652 1.70856 0.952233 0
M  V30 6088 C 550.032 0.620501 2.01775 0
M  V30 6089 O 549.38 -0.370035 2.25484 0
M  V30 6090 C 549.59 3.12807 1.54767 0
M  V30 6091 C 550.938 3.72733 2.0336 0
M  V30 6092 O 551.962 3.15873 1.64629 0
M  V30 6093 O 550.821 4.72501 2.746 0
M  V30 6094 H 547.915 0.696496 0.445895 0
M  V30 6095 H 550.461 1.6857 0.195489 0
M  V30 6096 H 549.233 3.83465 0.779132 0
M  V30 6097 H 548.856 3.1928 2.36951 0
M  V30 6098 N 549.853 -0.472356 1.50355 0
M  V30 6099 C 550.816 -1.5529 1.68576 0
M  V30 6100 C 551.816 -1.50863 0.556511 0
M  V30 6101 O 553.006 -1.53505 0.823516 0
M  V30 6102 C 550.138 -2.94921 1.70981 0
M  V30 6103 H 551.331 -1.40451 2.64978 0
M  V30 6104 H 548.884 -0.698645 1.39816 0
M  V30 6105 H 549.619 -3.15204 0.762675 0
M  V30 6106 H 549.404 -2.99541 2.53017 0
M  V30 6107 H 550.894 -3.73372 1.87037 0
M  V30 6108 N 551.331 -1.39911 -0.725443 0
M  V30 6109 C 552.577 -1.37858 -1.48738 0
M  V30 6110 C 552.91 0.0224187 -1.94187 0
M  V30 6111 O 552.185 0.989204 -1.67466 0
M  V30 6112 C 552.468 -2.3594 -2.72038 0
M  V30 6113 C 552.321 -3.85023 -2.32546 0
M  V30 6114 C 553.64 -2.31704 -3.74167 0
M  V30 6115 H 550.759 -0.502074 -0.539528 0
M  V30 6116 H 553.401 -1.70974 -0.828728 0
M  V30 6117 H 551.551 -2.0783 -3.28236 0
M  V30 6118 H 553.223 -4.2392 -1.81905 0
M  V30 6119 H 551.466 -4.01334 -1.64661 0
M  V30 6120 H 552.137 -4.49152 -3.20884 0
M  V30 6121 H 554.613 -2.5658 -3.27576 0
M  V30 6122 H 553.489 -3.02395 -4.58092 0
M  V30 6123 H 553.75 -1.3253 -4.21768 0
M  V30 6124 N 552.809 0.956637 -1.25245 0
M  V30 6125 C 553.742 2.05232 -0.99775 0
M  V30 6126 C 554.72 1.62439 0.0723137 0
M  V30 6127 O 555.904 1.88381 -0.066926 0
M  V30 6128 C 553.031 3.34871 -0.507861 0
M  V30 6129 C 552.077 3.96625 -1.56815 0
M  V30 6130 S 552.91 4.32853 -3.15276 0
M  V30 6131 C 554.066 5.65613 -2.68017 0
M  V30 6132 H 554.299 2.26521 -1.9255 0
M  V30 6133 H 551.832 1.09601 -1.08752 0
M  V30 6134 H 553.79 4.09845 -0.231858 0
M  V30 6135 H 552.451 3.11551 0.399356 0
M  V30 6136 H 551.644 4.90087 -1.17604 0
M  V30 6137 H 551.246 3.28124 -1.79473 0
M  V30 6138 H 553.538 6.43635 -2.11518 0
M  V30 6139 H 554.481 6.09693 -3.60112 0
M  V30 6140 H 554.889 5.24751 -2.0808 0
M  V30 6141 N 554.287 1.06798 1.15896 0
M  V30 6142 C 555.235 0.677525 2.22514 0
M  V30 6143 C 556.229 -0.308994 1.66558 0
M  V30 6144 O 557.435 -0.173308 1.79164 0
M  V30 6145 H 553.81 0.200994 0.724642 0
M  V30 6146 H 555.781 1.5865 2.52731 0
M  V30 6147 C 554.53 0.0854153 3.47595 0
M  V30 6148 H 553.853 0.835645 3.90969 0
M  V30 6149 H 555.293 -0.150199 4.23734 0
M  V30 6150 C 553.752 -1.1724 3.15843 0
M  V30 6151 O 554.282 -2.25965 3.32119 0
M  V30 6152 N 552.488 -1.07636 2.69931 0
M  V30 6153 H 552.035 -0.191559 2.56887 0
M  V30 6154 H 551.993 -1.91876 2.4906 0
M  V30 6155 N 555.766 -1.3263 0.851289 0
M  V30 6156 C 556.996 -2.01271 0.466222 0
M  V30 6157 C 557.404 -1.64156 -0.940714 0
M  V30 6158 O 556.747 -0.857109 -1.62479 0
M  V30 6159 C 556.809 -3.55695 0.521672 0
M  V30 6160 C 556.473 -4.16227 1.88691 0
M  V30 6161 C 557.47 -4.34699 2.85189 0
M  V30 6162 C 555.155 -4.52377 2.18313 0
M  V30 6163 C 557.149 -4.88484 4.09465 0
M  V30 6164 C 554.836 -5.05868 3.42843 0
M  V30 6165 C 555.834 -5.23869 4.38235 0
M  V30 6166 O 555.522 -5.76218 5.6056 0
M  V30 6167 H 555.254 -0.651034 0.18202 0
M  V30 6168 H 557.808 -1.7026 1.14894 0
M  V30 6169 H 556.038 -3.86086 -0.217888 0
M  V30 6170 H 557.727 -4.05613 0.152682 0
M  V30 6171 H 558.493 -4.07107 2.63607 0
M  V30 6172 H 554.372 -4.37652 1.44851 0
M  V30 6173 H 557.916 -5.02451 4.83931 0
M  V30 6174 H 553.813 -5.32891 3.64277 0
M  V30 6175 H 554.581 -5.94616 5.62471 0
M  V30 6176 N 557.244 -0.608902 -1.45362 0
M  V30 6177 C 558.655 -0.189511 -1.85736 0
M  V30 6178 C 559.006 1.2539 -1.50903 0
M  V30 6179 O 558.131 1.95094 -0.936347 0
M  V30 6180 C 558.726 -0.33716 -3.37118 0
M  V30 6181 C 557.285 0.0275487 -3.7639 0
M  V30 6182 C 556.432 -0.660983 -2.69307 0
M  V30 6183 H 559.383 -0.815499 -1.36144 0
M  V30 6184 H 559.404 0.430257 -3.7806 0
M  V30 6185 H 558.916 -1.38779 -3.62439 0
M  V30 6186 H 557.017 1.0773 -3.56686 0
M  V30 6187 H 557.13 -0.367018 -4.77692 0
M  V30 6188 H 555.494 -0.0984958 -2.54509 0
M  V30 6189 H 556.277 -1.71377 -2.97464 0
M  V30 6190 N 558.722 1.53707 -0.348139 0
M  V30 6191 C 559.969 2.00988 0.246966 0
M  V30 6192 C 560.297 1.23586 1.50189 0
M  V30 6193 O 559.552 0.312817 1.93184 0
M  V30 6194 C 559.851 3.52292 0.602061 0
M  V30 6195 C 559.517 4.47453 -0.556509 0
M  V30 6196 C 558.179 4.73188 -0.874446 0
M  V30 6197 C 560.531 5.03851 -1.33354 0
M  V30 6198 C 557.859 5.52577 -1.9717 0
M  V30 6199 C 560.211 5.84437 -2.42108 0
M  V30 6200 C 558.875 6.08465 -2.74456 0
M  V30 6201 H 558.145 0.735469 0.0903712 0
M  V30 6202 H 560.792 1.85464 -0.477001 0
M  V30 6203 H 559.097 3.65672 1.40681 0
M  V30 6204 H 560.794 3.86337 1.07447 0
M  V30 6205 H 557.384 4.27558 -0.298652 0
M  V30 6206 H 561.568 4.8393 -1.10117 0
M  V30 6207 H 556.824 5.69418 -2.22651 0
M  V30 6208 H 560.998 6.27151 -3.02745 0
M  V30 6209 H 558.625 6.69768 -3.59604 0
M  V30 6210 N 560.2 0.0768682 1.57412 0
M  V30 6211 C 561.428 -0.59997 1.9801 0
M  V30 6212 C 561.843 -1.62842 0.955408 0
M  V30 6213 O 561.2 -1.8241 -0.057314 0
M  V30 6214 C 561.251 -1.26401 3.38681 0
M  V30 6215 O 560.972 -0.276723 4.37225 0
M  V30 6216 C 562.473 -2.0282 3.94182 0
M  V30 6217 H 559.693 -0.162239 0.651091 0
M  V30 6218 H 562.237 0.150771 2.03943 0
M  V30 6219 H 560.392 -1.96581 3.33819 0
M  V30 6220 H 560.806 -0.753744 5.19056 0
M  V30 6221 H 562.28 -2.44667 4.94815 0
M  V30 6222 H 562.757 -2.88678 3.31001 0
M  V30 6223 H 563.363 -1.37496 4.02461 0
M  V30 6224 N 561.678 -1.56367 -0.196722 0
M  V30 6225 C 562.955 -1.71359 -0.943159 0
M  V30 6226 C 563.335 -0.631192 -2.01443 0
M  V30 6227 O 562.683 0.358071 -2.25677 0
M  V30 6228 C 562.893 -3.13623 -1.53106 0
M  V30 6229 C 564.241 -3.73806 -2.01381 0
M  V30 6230 O 565.265 -3.16742 -1.62951 0
M  V30 6231 O 564.124 -4.73951 -2.7209 0
M  V30 6232 H 561.218 -0.698851 -0.442195 0
M  V30 6233 H 563.764 -1.68672 -0.186547 0
M  V30 6234 H 562.536 -3.83873 -0.758785 0
M  V30 6235 H 562.159 -3.20532 -2.35255 0
M  V30 6236 N 563.156 0.464375 -1.50603 0
M  V30 6237 C 564.404 1.21356 -1.61608 0
M  V30 6238 C 564.725 1.92329 -0.321643 0
M  V30 6239 O 563.995 1.84403 0.661232 0
M  V30 6240 H 562.575 0.45094 -0.595535 0
M  V30 6241 H 565.237 0.535046 -1.87412 0
M  V30 6242 H 564.333 1.95783 -2.43054 0
M  V30 6243 N 564.634 1.40294 0.718013 0
M  V30 6244 C 565.88 1.38645 1.48005 0
M  V30 6245 C 566.213 -0.0121202 1.94196 0
M  V30 6246 O 565.488 -0.980309 1.67989 0
M  V30 6247 C 565.771 2.37379 2.70782 0
M  V30 6248 C 565.624 3.8625 2.30501 0
M  V30 6249 C 566.943 2.33685 3.72933 0
M  V30 6250 H 564.062 0.504928 0.536858 0
M  V30 6251 H 566.704 1.71411 0.819649 0
M  V30 6252 H 564.854 2.09568 3.27129 0
M  V30 6253 H 566.526 4.24879 1.79655 0
M  V30 6254 H 564.769 4.02202 1.6253 0
M  V30 6255 H 565.44 4.50847 3.18498 0
M  V30 6256 H 567.916 2.58314 3.2621 0
M  V30 6257 H 566.792 3.0482 4.56482 0
M  V30 6258 H 567.053 1.34765 4.21059 0
M  V30 6259 N 566.112 -0.949982 1.2575 0
M  V30 6260 C 567.042 -2.06483 1.09028 0
M  V30 6261 C 568.023 -1.701 -0.00201532 0
M  V30 6262 O 569.208 -1.93469 0.168383 0
M  V30 6263 C 566.338 -3.39899 0.71316 0
M  V30 6264 C 565.292 -3.90309 1.75621 0
M  V30 6265 C 564.618 -5.20274 1.23365 0
M  V30 6266 C 565.918 -4.16169 3.15596 0
M  V30 6267 H 567.612 -2.20731 2.02283 0
M  V30 6268 H 565.158 -1.06066 0.973964 0
M  V30 6269 H 567.111 -4.17346 0.58309 0
M  V30 6270 H 565.835 -3.25602 -0.255091 0
M  V30 6271 H 564.494 -3.15035 1.8748 0
M  V30 6272 H 564.142 -5.02351 0.255491 0
M  V30 6273 H 563.842 -5.54971 1.93082 0
M  V30 6274 H 565.366 -6.00314 1.11607 0
M  V30 6275 H 566.78 -4.84259 3.06864 0
M  V30 6276 H 565.177 -4.62131 3.82825 0
M  V30 6277 H 566.247 -3.22273 3.6231 0
M  V30 6278 N 567.59 -1.07411 -1.15328 0
M  V30 6279 C 569.006 -0.799759 -1.38116 0
M  V30 6280 C 569.206 0.59572 -1.92493 0
M  V30 6281 O 568.262 1.35433 -2.13106 0
M  V30 6282 C 569.575 -1.87407 -2.35158 0
M  V30 6283 C 571.123 -1.89889 -2.48819 0
M  V30 6284 C 571.598 -2.96406 -3.49153 0
M  V30 6285 N 573.089 -2.95512 -3.56689 0
M  V30 6286 C 573.824 -3.74575 -4.34144 0
M  V30 6287 N 573.32 -4.63488 -5.14928 0
M  V30 6288 N 575.113 -3.62919 -4.29239 0
M  V30 6289 H 567.264 -1.97411 -0.78374 0
M  V30 6290 H 569.527 -0.856113 -0.407154 0
M  V30 6291 H 569.233 -2.8768 -2.0232 0
M  V30 6292 H 569.107 -1.73471 -3.34944 0
M  V30 6293 H 571.494 -0.902677 -2.80955 0
M  V30 6294 H 571.575 -2.07904 -1.49029 0
M  V30 6295 H 571.219 -3.96227 -3.17752 0
M  V30 6296 H 571.149 -2.75638 -4.48699 0
M  V30 6297 H 573.64 -2.31061 -2.99031 0
M  V30 6298 H 573.953 -5.20445 -5.71276 0
M  V30 6299 H 572.298 -4.67537 -5.14232 0
M  V30 6300 H 575.489 -2.92833 -3.65194 0
M  V30 6301 H 575.662 -4.24777 -4.89355 0
M  V30 6302 N 569.068 1.32177 -0.85831 0
M  V30 6303 C 570.315 1.97125 -0.463484 0
M  V30 6304 C 570.643 1.67907 0.981705 0
M  V30 6305 O 569.898 0.961717 1.70439 0
M  V30 6306 C 570.197 3.51372 -0.653658 0
M  V30 6307 C 569.863 4.00584 -2.06987 0
M  V30 6308 C 568.525 4.13733 -2.4572 0
M  V30 6309 C 570.877 4.26624 -2.99402 0
M  V30 6310 C 568.205 4.50268 -3.76132 0
M  V30 6311 C 570.557 4.64618 -4.29316 0
M  V30 6312 C 569.221 4.75975 -4.67979 0
M  V30 6313 H 568.491 0.72133 -0.169601 0
M  V30 6314 H 571.138 1.57517 -1.08907 0
M  V30 6315 H 569.443 3.91761 0.0551328 0
M  V30 6316 H 571.14 3.99655 -0.328163 0
M  V30 6317 H 567.73 3.90837 -1.75911 0
M  V30 6318 H 571.914 4.1597 -2.70708 0
M  V30 6319 H 567.17 4.57256 -4.05865 0
M  V30 6320 H 571.344 4.83722 -5.00985 0
M  V30 6321 H 568.971 5.04041 -5.69076 0
M  V30 6322 N 570.547 0.616602 1.45037 0
M  V30 6323 C 571.794 0.115331 2.02171 0
M  V30 6324 C 572.122 -1.25748 1.48383 0
M  V30 6325 O 571.377 -1.84511 0.652229 0
M  V30 6326 C 571.676 0.0356829 3.57382 0
M  V30 6327 C 571.342 1.34535 4.30362 0
M  V30 6328 C 570.004 1.70408 4.50016 0
M  V30 6329 C 572.356 2.21049 4.72003 0
M  V30 6330 C 569.684 2.92529 5.0857 0
M  V30 6331 C 572.036 3.42427 5.31908 0
M  V30 6332 C 570.7 3.78541 5.49784 0
M  V30 6333 H 569.97 0.0422024 0.739797 0
M  V30 6334 H 572.617 0.80002 1.73988 0
M  V30 6335 H 570.922 -0.732314 3.84895 0
M  V30 6336 H 572.619 -0.368463 3.99304 0
M  V30 6337 H 569.209 1.05615 4.15383 0
M  V30 6338 H 573.393 1.94632 4.56544 0
M  V30 6339 H 568.649 3.20605 5.20598 0
M  V30 6340 H 572.823 4.09709 5.63127 0
M  V30 6341 H 570.45 4.73255 5.94923 0
M  V30 6342 N 572.025 -1.5352 0.356285 0
M  V30 6343 C 572.988 -2.24071 -0.482182 0
M  V30 6344 C 573.988 -1.24531 -1.01729 0
M  V30 6345 O 575.178 -1.48876 -0.904513 0
M  V30 6346 C 572.31 -2.97025 -1.67299 0
M  V30 6347 H 573.503 -2.99596 0.135031 0
M  V30 6348 H 571.056 -1.55928 0.107825 0
M  V30 6349 H 571.791 -2.25719 -2.32855 0
M  V30 6350 H 571.576 -3.7005 -1.29636 0
M  V30 6351 H 573.066 -3.50683 -2.26741 0
M  V30 6352 N 573.503 -0.0852151 -1.57369 0
M  V30 6353 C 574.45 0.877268 -2.13478 0
M  V30 6354 C 575.42 1.28642 -1.05073 0
M  V30 6355 O 576.605 1.36992 -1.32808 0
M  V30 6356 C 573.745 2.13464 -2.71159 0
M  V30 6357 C 572.858 1.77691 -3.93764 0
M  V30 6358 C 571.993 2.98139 -4.39643 0
M  V30 6359 C 571.032 2.58447 -5.54862 0
M  V30 6360 N 570.169 3.71698 -5.95639 0
M  V30 6361 H 575.009 0.391933 -2.95411 0
M  V30 6362 H 572.546 0.181796 -1.45972 0
M  V30 6363 H 574.504 2.87086 -3.02717 0
M  V30 6364 H 573.134 2.59514 -1.91969 0
M  V30 6365 H 572.186 0.940768 -3.68583 0
M  V30 6366 H 573.498 1.44497 -4.77412 0
M  V30 6367 H 572.652 3.80026 -4.72933 0
M  V30 6368 H 571.391 3.34536 -3.54876 0
M  V30 6369 H 570.396 1.74984 -5.21211 0
M  V30 6370 H 571.621 2.23205 -6.41371 0
M  V30 6371 H 569.567 4.07831 -5.13819 0
M  V30 6372 H 569.484 3.42317 -6.74059 0
M  V30 6373 H 570.752 4.54123 -6.33555 0
M  V30 6374 N 574.981 1.5647 0.188427 0
M  V30 6375 C 575.891 1.98285 1.2538 0
M  V30 6376 C 576.907 0.891535 1.49424 0
M  V30 6377 O 578.083 1.19782 1.61908 0
M  V30 6378 C 575.148 2.31965 2.57669 0
M  V30 6379 C 574.209 3.54838 2.41638 0
M  V30 6380 C 573.442 3.86901 3.67618 0
M  V30 6381 O 573.665 3.20163 4.72072 0
M  V30 6382 O 572.599 4.80309 3.62749 0
M  V30 6383 H 576.425 2.89145 0.928912 0
M  V30 6384 H 574.01 1.44112 0.393955 0
M  V30 6385 H 575.892 2.54673 3.35737 0
M  V30 6386 H 574.567 1.44271 2.89771 0
M  V30 6387 H 573.474 3.37369 1.61658 0
M  V30 6388 H 574.807 4.43019 2.14465 0
M  V30 6389 N 576.459 -0.456382 1.50847 0
M  V30 6390 C 577.369 -1.57805 1.73594 0
M  V30 6391 C 578.385 -1.62599 0.619476 0
M  V30 6392 O 579.561 -1.80195 0.899532 0
M  V30 6393 C 576.626 -2.93926 1.8387 0
M  V30 6394 C 575.687 -2.99402 3.07663 0
M  V30 6395 C 574.92 -4.29031 3.1744 0
M  V30 6396 O 575.143 -5.20358 2.33631 0
M  V30 6397 O 574.077 -4.40401 4.10281 0
M  V30 6398 H 577.903 -1.41531 2.68705 0
M  V30 6399 H 575.488 -0.637422 1.3512 0
M  V30 6400 H 577.37 -3.74747 1.92725 0
M  V30 6401 H 576.045 -3.10368 0.91944 0
M  V30 6402 H 574.952 -2.17606 3.043 0
M  V30 6403 H 576.285 -2.87901 3.99216 0
M  V30 6404 N 577.937 -1.40673 -0.710563 0
M  V30 6405 C 579.186 -1.38525 -1.46607 0
M  V30 6406 C 579.499 0.0077024 -1.95598 0
M  V30 6407 O 580.705 0.151792 -2.71075 0
M  V30 6408 C 579.161 -2.43489 -2.6503 0
M  V30 6409 C 578.769 -3.88619 -2.22888 0
M  V30 6410 C 580.513 -2.50456 -3.42742 0
M  V30 6411 C 578.42 -4.85168 -3.3818 0
M  V30 6412 H 577.35 -0.515092 -0.550632 0
M  V30 6413 H 580.001 -1.66431 -0.772846 0
M  V30 6414 H 578.383 -2.0869 -3.36548 0
M  V30 6415 H 579.557 -4.32588 -1.58758 0
M  V30 6416 H 577.872 -3.85174 -1.58208 0
M  V30 6417 H 580.469 -3.19776 -4.28541 0
M  V30 6418 H 580.812 -1.53665 -3.86902 0
M  V30 6419 H 581.345 -2.84271 -2.78271 0
M  V30 6420 H 578.084 -5.8331 -2.99047 0
M  V30 6421 H 577.604 -4.4586 -4.01209 0
M  V30 6422 H 579.283 -5.05225 -4.04174 0
M  V30 6423 N 579.415 0.9433 -1.26252 0
M  V30 6424 C 580.64 1.72898 -1.14547 0
M  V30 6425 C 581.065 1.85761 0.295743 0
M  V30 6426 O 580.423 1.3463 1.21427 0
M  V30 6427 C 580.471 3.11471 -1.8171 0
M  V30 6428 O 579.575 3.97336 -1.10445 0
M  V30 6429 H 578.916 0.530555 -0.399259 0
M  V30 6430 H 581.446 1.18159 -1.67032 0
M  V30 6431 H 581.456 3.61872 -1.88449 0
M  V30 6432 H 580.131 3.01425 -2.86558 0
M  V30 6433 H 578.708 3.55788 -1.11666 0
M  V30 6434 N 580.893 1.08022 1.14757 0
M  V30 6435 C 581.856 0.71048 2.1791 0
M  V30 6436 C 582.856 -0.252731 1.58801 0
M  V30 6437 O 584.046 -0.0327915 1.74169 0
M  V30 6438 C 581.178 0.0483203 3.40866 0
M  V30 6439 H 582.371 1.62384 2.52134 0
M  V30 6440 H 579.924 0.877595 1.29337 0
M  V30 6441 H 580.659 -0.876959 3.12218 0
M  V30 6442 H 580.444 0.741189 3.85031 0
M  V30 6443 H 581.934 -0.195471 4.17142 0
M  V30 6444 N 582.371 -1.3172 0.865308 0
M  V30 6445 C 583.787 -1.4958 0.556596 0
M  V30 6446 C 583.987 -1.79763 -0.910353 0
M  V30 6447 O 583.043 -1.87351 -1.6928 0
M  V30 6448 C 584.356 -2.63277 1.45279 0
M  V30 6449 C 585.904 -2.77161 1.45433 0
M  V30 6450 C 586.379 -3.93949 2.33598 0
M  V30 6451 N 587.87 -4.01228 2.31453 0
M  V30 6452 C 588.605 -4.90855 2.96393 0
M  V30 6453 N 588.101 -5.85416 3.70486 0
M  V30 6454 N 589.894 -4.84063 2.85726 0
M  V30 6455 H 582.045 -1.10396 1.81456 0
M  V30 6456 H 584.308 -0.54507 0.775631 0
M  V30 6457 H 584.014 -2.47734 2.49641 0
M  V30 6458 H 583.888 -3.59309 1.14792 0
M  V30 6459 H 586.275 -2.9212 0.41831 0
M  V30 6460 H 586.356 -1.8181 1.79941 0
M  V30 6461 H 586 -3.79748 3.37274 0
M  V30 6462 H 585.93 -4.88598 1.96417 0
M  V30 6463 H 588.421 -3.3357 1.77593 0
M  V30 6464 H 588.734 -6.50525 4.17178 0
M  V30 6465 H 587.079 -5.85409 3.74594 0
M  V30 6466 H 590.27 -4.09163 2.27384 0
M  V30 6467 H 590.443 -5.53708 3.36617 0
M  V30 6468 N 583.85 -0.624285 -1.44708 0
M  V30 6469 C 584.782 0.12305 -2.28869 0
M  V30 6470 C 585.795 0.81557 -1.40898 0
M  V30 6471 O 586.984 0.678162 -1.65116 0
M  V30 6472 C 584.084 1.19612 -3.1709 0
M  V30 6473 C 583.257 0.587452 -4.33437 0
M  V30 6474 C 582.316 1.55358 -5.02743 0
M  V30 6475 O 581.341 1.07338 -5.58988 0
M  V30 6476 N 582.543 2.88798 -5.03563 0
M  V30 6477 H 585.308 -0.599193 -2.93649 0
M  V30 6478 H 582.87 -0.464954 -1.5508 0
M  V30 6479 H 584.861 1.84261 -3.60319 0
M  V30 6480 H 583.432 1.82067 -2.54107 0
M  V30 6481 H 582.652 -0.237509 -3.93484 0
M  V30 6482 H 583.94 0.161326 -5.08544 0
M  V30 6483 H 583.338 3.30399 -4.59188 0
M  V30 6484 H 581.894 3.48826 -5.50603 0
M  V30 6485 N 585.328 1.53329 -0.364422 0
M  V30 6486 C 586.575 2.01239 0.225634 0
M  V30 6487 C 586.903 1.25172 1.48869 0
M  V30 6488 O 586.158 0.333289 1.92841 0
M  V30 6489 C 586.457 3.52911 0.564661 0
M  V30 6490 C 586.123 4.46837 -0.603936 0
M  V30 6491 C 584.785 4.72234 -0.924585 0
M  V30 6492 C 587.137 5.02409 -1.38691 0
M  V30 6493 C 584.465 5.50454 -2.0302 0
M  V30 6494 C 586.817 5.81836 -2.48293 0
M  V30 6495 C 585.481 6.0552 -2.80894 0
M  V30 6496 H 584.751 0.736386 0.0825654 0
M  V30 6497 H 587.398 1.84948 -0.496645 0
M  V30 6498 H 585.703 3.67144 1.36794 0
M  V30 6499 H 587.4 3.87455 1.03344 0
M  V30 6500 H 583.99 4.27217 -0.343983 0
M  V30 6501 H 588.174 4.82735 -1.15243 0
M  V30 6502 H 583.43 5.67024 -2.28678 0
M  V30 6503 H 587.604 6.23905 -3.0938 0
M  V30 6504 H 585.231 6.65916 -3.66688 0
M  V30 6505 N 586.806 0.0935595 1.57322 0
M  V30 6506 C 587.769 -0.851426 2.12799 0
M  V30 6507 C 588.769 -1.21187 1.0569 0
M  V30 6508 O 589.959 -1.14156 1.31583 0
M  V30 6509 C 587.091 -2.14779 2.64731 0
M  V30 6510 H 588.284 -0.369733 2.97612 0
M  V30 6511 H 585.837 -0.155417 1.55525 0
M  V30 6512 H 586.572 -2.67437 1.83434 0
M  V30 6513 H 586.357 -1.89907 3.43042 0
M  V30 6514 H 587.847 -2.82383 3.07651 0
M  V30 6515 N 588.284 -1.56567 -0.180126 0
M  V30 6516 C 589.232 -1.96632 -1.24251 0
M  V30 6517 C 590.226 -0.853818 -1.46309 0
M  V30 6518 O 591.432 -1.0389 -1.46993 0
M  V30 6519 H 587.807 -0.625476 -0.417473 0
M  V30 6520 H 589.778 -2.85201 -0.877679 0
M  V30 6521 C 588.527 -2.33486 -2.57642 0
M  V30 6522 H 587.85 -3.18626 -2.4149 0
M  V30 6523 H 589.29 -2.65371 -3.30688 0
M  V30 6524 C 587.749 -1.17499 -3.15746 0
M  V30 6525 O 588.279 -0.457956 -3.99081 0
M  V30 6526 N 586.485 -0.94786 -2.74707 0
M  V30 6527 H 586.032 -1.53269 -2.07042 0
M  V30 6528 H 585.99 -0.173626 -3.1392 0
M  V30 6529 N 589.762 0.448376 -1.51087 0
M  V30 6530 C 590.694 1.56146 -1.67783 0
M  V30 6531 C 591.707 1.52913 -0.55871 0
M  V30 6532 O 592.896 1.57889 -0.83267 0
M  V30 6533 C 589.996 2.95057 -1.66716 0
M  V30 6534 C 589.169 3.22915 -2.95033 0
M  V30 6535 C 588.228 4.41495 -2.86302 0
M  V30 6536 O 587.254 4.40688 -3.60254 0
M  V30 6537 N 588.456 5.44443 -2.014 0
M  V30 6538 H 591.221 1.42232 -2.638 0
M  V30 6539 H 588.782 0.637153 -1.48835 0
M  V30 6540 H 590.774 3.72388 -1.58458 0
M  V30 6541 H 589.344 3.02624 -0.783403 0
M  V30 6542 H 588.564 2.33985 -3.17245 0
M  V30 6543 H 589.852 3.38349 -3.79996 0
M  V30 6544 H 589.25 5.4793 -1.40674 0
M  V30 6545 H 587.807 6.2067 -1.99029 0
M  V30 6546 N 591.24 1.41047 0.703093 0
M  V30 6547 C 592.173 1.36713 1.82715 0
M  V30 6548 C 593.151 0.235533 1.60885 0
M  V30 6549 O 594.335 0.421227 1.83733 0
M  V30 6550 C 591.462 1.13069 3.1927 0
M  V30 6551 C 590.508 2.28846 3.59905 0
M  V30 6552 S 591.341 3.91297 3.65578 0
M  V30 6553 C 592.497 3.69941 5.04871 0
M  V30 6554 H 592.73 2.31838 1.86114 0
M  V30 6555 H 590.263 1.27481 0.871083 0
M  V30 6556 H 592.221 1.00113 3.98105 0
M  V30 6557 H 590.882 0.195763 3.13489 0
M  V30 6558 H 590.075 2.07977 4.59088 0
M  V30 6559 H 589.677 2.3817 2.88359 0
M  V30 6560 H 591.969 3.29181 5.92154 0
M  V30 6561 H 592.912 4.68699 5.30779 0
M  V30 6562 H 593.32 3.03369 4.76054 0
M  V30 6563 N 592.718 -0.936591 1.26751 0
M  V30 6564 C 593.651 -2.03619 1.03027 0
M  V30 6565 C 594.629 -1.62534 -0.0464619 0
M  V30 6566 O 595.813 -1.88251 0.0968873 0
M  V30 6567 C 592.94 -3.3402 0.561072 0
M  V30 6568 C 591.986 -3.9408 1.63105 0
M  V30 6569 S 592.819 -4.27782 3.22122 0
M  V30 6570 C 593.975 -5.61277 2.76982 0
M  V30 6571 H 594.208 -2.23429 1.96129 0
M  V30 6572 H 591.741 -1.07857 1.10482 0
M  V30 6573 H 593.699 -4.09424 0.297031 0
M  V30 6574 H 592.36 -3.12147 -0.349741 0
M  V30 6575 H 591.553 -4.88154 1.25386 0
M  V30 6576 H 591.155 -3.25227 1.84671 0
M  V30 6577 H 593.447 -6.40189 2.21731 0
M  V30 6578 H 594.39 -6.03887 3.69766 0
M  V30 6579 H 594.798 -5.21374 2.16402 0
M  V30 6580 N 594.196 -1.08629 -1.14182 0
M  V30 6581 C 595.146 -0.687882 -2.17376 0
M  V30 6582 C 596.13 0.293632 -1.58198 0
M  V30 6583 O 597.322 0.105292 -1.76687 0
M  V30 6584 C 594.451 -0.101184 -3.43151 0
M  V30 6585 C 593.537 -1.10862 -4.09354 0
M  V30 6586 N 593.928 -2.29285 -4.50846 0
M  V30 6587 C 592.226 -0.944897 -4.35876 0
M  V30 6588 C 592.927 -2.93305 -5.02342 0
M  V30 6589 N 591.903 -2.20903 -4.96692 0
M  V30 6590 H 595.705 -1.58963 -2.472 0
M  V30 6591 H 593.219 -0.961329 -1.3089 0
M  V30 6592 H 595.216 0.202209 -4.16409 0
M  V30 6593 H 593.876 0.795522 -3.14804 0
M  V30 6594 H 594.887 -2.66927 -4.43813 0
M  V30 6595 H 591.564 -0.102186 -4.17375 0
M  V30 6596 H 592.954 -3.93932 -5.44304 0
M  V30 6597 N 595.674 1.31259 -0.872281 0
M  V30 6598 C 596.92 1.96913 -0.485083 0
M  V30 6599 C 597.253 1.68774 0.960667 0
M  V30 6600 O 596.528 0.985495 1.67685 0
M  V30 6601 C 596.811 3.52299 -0.745502 0
M  V30 6602 C 596.664 3.90002 -2.24095 0
M  V30 6603 C 597.983 4.39582 -0.213516 0
M  V30 6604 H 595.102 0.715252 -0.177716 0
M  V30 6605 H 597.744 1.55347 -1.09395 0
M  V30 6606 H 595.894 3.87835 -0.227276 0
M  V30 6607 H 597.566 3.64555 -2.82661 0
M  V30 6608 H 595.809 3.38526 -2.71261 0
M  V30 6609 H 596.48 4.98352 -2.37381 0
M  V30 6610 H 598.956 4.10882 -0.656902 0
M  V30 6611 H 597.832 5.47251 -0.42516 0
M  V30 6612 H 598.093 4.33158 0.884666 0
M  V30 6613 N 597.152 0.631951 1.44375 0
M  V30 6614 C 598.082 -0.0593243 2.33425 0
M  V30 6615 C 599.063 -0.833964 1.48253 0
M  V30 6616 O 600.248 -0.799682 1.76971 0
M  V30 6617 C 597.378 -1.04096 3.31333 0
M  V30 6618 C 596.332 -0.377899 4.26328 0
M  V30 6619 C 595.658 -1.4695 5.14111 0
M  V30 6620 C 596.958 0.716371 5.17364 0
M  V30 6621 H 598.652 0.684287 2.91475 0
M  V30 6622 H 596.198 0.330518 1.40156 0
M  V30 6623 H 598.151 -1.53331 3.92514 0
M  V30 6624 H 596.875 -1.81547 2.71493 0
M  V30 6625 H 595.534 0.0938054 3.6648 0
M  V30 6626 H 595.182 -2.2349 4.50623 0
M  V30 6627 H 594.882 -1.03121 5.78481 0
M  V30 6628 H 596.406 -1.96363 5.78164 0
M  V30 6629 H 597.82 0.307089 5.72477 0
M  V30 6630 H 596.217 1.07784 5.90341 0
M  V30 6631 H 597.287 1.58316 4.58327 0
M  V30 6632 N 598.631 -1.53133 0.372548 0
M  V30 6633 C 599.581 -2.22733 -0.487218 0
M  V30 6634 C 600.565 -1.22506 -1.04312 0
M  V30 6635 O 601.757 -1.47923 -0.972005 0
M  V30 6636 C 598.886 -3.02524 -1.62278 0
M  V30 6637 C 597.972 -4.10133 -1.07943 0
M  V30 6638 N 598.363 -5.05133 -0.259629 0
M  V30 6639 C 596.661 -4.24964 -1.35356 0
M  V30 6640 C 597.362 -5.81687 0.0386656 0
M  V30 6641 N 596.338 -5.40699 -0.560827 0
M  V30 6642 H 600.14 -2.93538 0.145853 0
M  V30 6643 H 597.654 -1.61389 0.180938 0
M  V30 6644 H 599.651 -3.50909 -2.25096 0
M  V30 6645 H 598.311 -2.33252 -2.25884 0
M  V30 6646 H 599.322 -5.178 0.101746 0
M  V30 6647 H 595.999 -3.66919 -1.9919 0
M  V30 6648 H 597.389 -6.68224 0.701841 0
M  V30 6649 N 600.109 -0.101901 -1.5727 0
M  V30 6650 C 601.334 0.571759 -1.99363 0
M  V30 6651 C 601.759 1.60507 -0.980768 0
M  V30 6652 O 601.117 1.81231 0.0498517 0
M  V30 6653 C 601.165 1.18996 -3.404 0
M  V30 6654 O 600.269 2.30572 -3.41922 0
M  V30 6655 H 599.61 0.144449 -0.648098 0
M  V30 6656 H 602.14 -0.185325 -2.03759 0
M  V30 6657 H 602.15 1.52962 -3.78241 0
M  V30 6658 H 600.825 0.432984 -4.1364 0
M  V30 6659 H 599.402 1.98173 -3.15883 0
M  V30 6660 N 601.587 1.56661 0.17182 0
M  V30 6661 C 602.817 1.85831 0.902804 0
M  V30 6662 C 603.225 0.685157 1.76358 0
M  V30 6663 O 602.568 -0.354947 1.80238 0
M  V30 6664 C 602.63 3.09406 1.83053 0
M  V30 6665 C 602.294 4.4231 1.1494 0
M  V30 6666 C 603.291 5.17342 0.515104 0
M  V30 6667 C 600.976 4.89045 1.14631 0
M  V30 6668 C 602.97 6.37299 -0.113194 0
M  V30 6669 C 600.657 6.08933 0.514184 0
M  V30 6670 C 601.655 6.82904 -0.114463 0
M  V30 6671 O 601.343 8.00518 -0.736622 0
M  V30 6672 H 601.075 0.620715 0.267748 0
M  V30 6673 H 603.629 2.04637 0.176918 0
M  V30 6674 H 601.859 2.86544 2.59672 0
M  V30 6675 H 603.548 3.25027 2.4313 0
M  V30 6676 H 604.314 4.82317 0.509474 0
M  V30 6677 H 600.193 4.31409 1.62502 0
M  V30 6678 H 603.737 6.94976 -0.604477 0
M  V30 6679 H 599.634 6.43423 0.517395 0
M  V30 6680 H 600.402 8.16027 -0.635822 0
M  V30 6681 N 603.065 -0.440357 1.51323 0
M  V30 6682 C 604.476 -1.02032 1.56353 0
M  V30 6683 C 604.827 -1.92382 0.385197 0
M  V30 6684 O 603.952 -2.10583 -0.498373 0
M  V30 6685 C 604.547 -1.85723 2.83359 0
M  V30 6686 C 603.106 -2.38774 2.90971 0
M  V30 6687 C 602.253 -1.17908 2.50984 0
M  V30 6688 H 605.204 -0.221744 1.57143 0
M  V30 6689 H 605.225 -2.71141 2.66951 0
M  V30 6690 H 604.737 -1.19939 3.69102 0
M  V30 6691 H 602.838 -3.08021 2.09651 0
M  V30 6692 H 602.951 -2.71778 3.94555 0
M  V30 6693 H 601.315 -1.52347 2.04114 0
M  V30 6694 H 602.098 -0.537393 3.39068 0
M  V30 6695 N 604.543 -1.41418 -0.695603 0
M  V30 6696 C 605.491 -1.43467 -1.83084 0
M  V30 6697 C 606.485 -0.312719 -1.66489 0
M  V30 6698 O 607.691 -0.484744 -1.7335 0
M  V30 6699 H 604.066 -0.448891 -0.603325 0
M  V30 6700 H 606.037 -2.39144 -1.78473 0
M  V30 6701 C 604.786 -1.3337 -3.21104 0
M  V30 6702 H 604.109 -2.18989 -3.3449 0
M  V30 6703 H 605.549 -1.38865 -4.00615 0
M  V30 6704 C 604.008 -0.0460484 -3.36869 0
M  V30 6705 O 604.538 0.909258 -3.91274 0
M  V30 6706 N 602.744 0.0300222 -2.90584 0
M  V30 6707 H 602.291 -0.748129 -2.46497 0
M  V30 6708 H 602.249 0.890991 -3.01511 0
M  V30 6709 N 606.021 0.929856 -1.27246 0
M  V30 6710 C 606.969 2.05151 -1.09616 0
M  V30 6711 C 607.963 1.69388 -0.0198617 0
M  V30 6712 O 609.169 1.79124 -0.177417 0
M  V30 6713 H 605.544 0.671909 -0.337701 0
M  V30 6714 H 607.515 2.17168 -2.04648 0
M  V30 6715 C 606.264 3.3934 -0.757851 0
M  V30 6716 H 605.587 3.67343 -1.57795 0
M  V30 6717 H 607.027 4.18603 -0.674358 0
M  V30 6718 C 605.486 3.32582 0.537658 0
M  V30 6719 O 606.016 3.69633 1.57271 0
M  V30 6720 N 604.222 2.8568 0.532478 0
M  V30 6721 H 603.769 2.55725 -0.310233 0
M  V30 6722 H 603.727 2.81541 1.39936 0
M  V30 6723 N 607.499 1.09233 1.13605 0
M  V30 6724 C 608.745 0.828385 1.8511 0
M  V30 6725 C 609.078 -0.64437 1.83198 0
M  V30 6726 O 608.353 -1.47428 1.26867 0
M  V30 6727 C 608.636 1.36167 3.33363 0
M  V30 6728 C 608.489 2.90038 3.438 0
M  V30 6729 C 609.808 0.993819 4.28732 0
M  V30 6730 H 606.927 0.30239 0.672108 0
M  V30 6731 H 609.569 1.35339 1.33355 0
M  V30 6732 H 607.719 0.9151 3.77569 0
M  V30 6733 H 609.391 3.43128 3.08319 0
M  V30 6734 H 607.634 3.27271 2.84739 0
M  V30 6735 H 608.305 3.22428 4.48045 0
M  V30 6736 H 610.781 1.37893 3.92587 0
M  V30 6737 H 609.657 1.39403 5.30903 0
M  V30 6738 H 609.918 -0.0982206 4.41991 0
M  V30 6739 N 608.977 -1.30795 0.87923 0
M  V30 6740 C 609.925 -2.30231 0.331112 0
M  V30 6741 C 610.919 -1.59918 -0.558794 0
M  V30 6742 O 612.125 -1.74441 -0.443866 0
M  V30 6743 H 608.5 -0.746785 0.088409 0
M  V30 6744 H 610.471 -2.73925 1.18353 0
M  V30 6745 C 609.22 -3.44848 -0.444401 0
M  V30 6746 H 608.543 -3.99131 0.231106 0
M  V30 6747 H 609.983 -4.16516 -0.793109 0
M  V30 6748 C 608.442 -2.94329 -1.63926 0
M  V30 6749 O 608.972 -2.93875 -2.73862 0
M  V30 6750 N 607.178 -2.50413 -1.4745 0
M  V30 6751 H 606.725 -2.50982 -0.58015 0
M  V30 6752 H 606.683 -2.16969 -2.27534 0
M  V30 6753 N 610.455 -0.639598 -1.44038 0
M  V30 6754 C 611.365 0.0612377 -2.3452 0
M  V30 6755 C 612.381 0.826717 -1.53106 0
M  V30 6756 O 613.557 0.777059 -1.85806 0
M  V30 6757 C 610.622 1.02492 -3.31204 0
M  V30 6758 C 609.683 0.25788 -4.28525 0
M  V30 6759 C 608.916 1.17566 -5.2059 0
M  V30 6760 O 609.139 2.41461 -5.16771 0
M  V30 6761 O 608.073 0.655407 -5.98321 0
M  V30 6762 H 611.899 -0.68318 -2.95916 0
M  V30 6763 H 609.484 -0.399784 -1.43952 0
M  V30 6764 H 611.366 1.57911 -3.90694 0
M  V30 6765 H 610.041 1.7498 -2.7233 0
M  V30 6766 H 608.948 -0.339566 -3.72556 0
M  V30 6767 H 610.281 -0.427154 -4.90343 0
M  V30 6768 N 611.933 1.52934 -0.380664 0
M  V30 6769 C 612.896 2.24809 0.446473 0
M  V30 6770 C 613.896 1.26133 0.997347 0
M  V30 6771 O 615.086 1.50297 0.880714 0
M  V30 6772 C 612.218 2.99649 1.62553 0
M  V30 6773 H 613.411 2.99343 -0.182677 0
M  V30 6774 H 610.964 1.55736 -0.132618 0
M  V30 6775 H 611.699 2.29395 2.29235 0
M  V30 6776 H 611.484 3.72066 1.23732 0
M  V30 6777 H 612.974 3.54246 2.21133 0
M  V30 6778 N 613.412 0.11024 1.57214 0
M  V30 6779 C 614.375 -0.828808 2.1369 0
M  V30 6780 C 615.375 -1.20059 1.06969 0
M  V30 6781 O 616.565 -1.12754 1.32786 0
M  V30 6782 C 613.697 -2.11959 2.66994 0
M  V30 6783 H 614.89 -0.338146 2.97988 0
M  V30 6784 H 612.443 -0.138913 1.55681 0
M  V30 6785 H 613.178 -2.65476 1.8626 0
M  V30 6786 H 612.963 -1.86258 3.45037 0
M  V30 6787 H 614.453 -2.79105 3.10629 0
M  V30 6788 N 614.89 -1.56749 -0.16351 0
M  V30 6789 C 616.137 -1.82434 -0.878866 0
M  V30 6790 C 616.465 -0.688557 -1.81904 0
M  V30 6791 O 615.72 0.323644 -1.93005 0
M  V30 6792 C 616.019 -3.14342 -1.70071 0
M  V30 6793 C 615.685 -4.41647 -0.908775 0
M  V30 6794 C 614.347 -4.76224 -0.690236 0
M  V30 6795 C 616.699 -5.19998 -0.353815 0
M  V30 6796 C 614.027 -5.86624 0.0942374 0
M  V30 6797 C 616.379 -6.3122 0.41761 0
M  V30 6798 C 615.043 -6.64358 0.646879 0
M  V30 6799 H 614.313 -0.667574 -0.3216 0
M  V30 6800 H 616.96 -1.90963 -0.14337 0
M  V30 6801 H 615.265 -3.0119 -2.50583 0
M  V30 6802 H 616.962 -3.31426 -2.25738 0
M  V30 6803 H 613.552 -4.1453 -1.08916 0
M  V30 6804 H 617.736 -4.93673 -0.509975 0
M  V30 6805 H 612.992 -6.10751 0.281529 0
M  V30 6806 H 617.166 -6.91133 0.854849 0
M  V30 6807 H 614.793 -7.49742 1.25662 0
M  V30 6808 N 616.368 0.432326 -1.51554 0
M  V30 6809 C 617.316 1.54572 -1.73811 0
M  V30 6810 C 618.31 1.58246 -0.604539 0
M  V30 6811 O 619.516 1.6193 -0.786041 0
M  V30 6812 H 615.891 0.513626 -0.549265 0
M  V30 6813 H 617.862 1.32977 -2.67132 0
M  V30 6814 C 616.611 2.92181 -1.88483 0
M  V30 6815 H 615.934 2.90088 -2.75116 0
M  V30 6816 H 617.374 3.69439 -2.08065 0
M  V30 6817 C 615.833 3.3065 -0.645909 0
M  V30 6818 O 616.363 4.01216 0.197093 0
M  V30 6819 N 614.569 2.86464 -0.488538 0
M  V30 6820 H 614.116 2.29209 -1.17562 0
M  V30 6821 H 614.074 3.12565 0.339156 0
M  V30 6822 N 617.846 1.41785 0.688094 0
M  V30 6823 C 618.776 1.47 1.8142 0
M  V30 6824 C 619.757 0.327881 1.6691 0
M  V30 6825 O 620.942 0.540362 1.86531 0
M  V30 6826 C 618.072 1.35876 3.19617 0
M  V30 6827 C 617.026 2.47976 3.48844 0
M  V30 6828 C 616.352 2.21915 4.86475 0
M  V30 6829 C 617.652 3.90309 3.47068 0
M  V30 6830 H 619.346 2.41247 1.77314 0
M  V30 6831 H 616.892 1.16116 0.851651 0
M  V30 6832 H 618.845 1.38134 3.98117 0
M  V30 6833 H 617.569 0.38116 3.24368 0
M  V30 6834 H 616.228 2.45013 2.72698 0
M  V30 6835 H 615.876 1.2248 4.8786 0
M  V30 6836 H 615.576 2.97037 5.06994 0
M  V30 6837 H 617.1 2.25901 5.67275 0
M  V30 6838 H 618.514 3.94947 4.1556 0
M  V30 6839 H 616.911 4.65175 3.7912 0
M  V30 6840 H 617.981 4.17927 2.45896 0
M  V30 6841 N 619.324 -0.923095 1.27737 0
M  V30 6842 C 620.254 -2.04124 1.13383 0
M  V30 6843 C 621.235 -1.70066 0.0340658 0
M  V30 6844 O 622.42 -1.93068 0.209383 0
M  V30 6845 C 619.55 -3.3831 0.785097 0
M  V30 6846 C 618.504 -3.86496 1.8386 0
M  V30 6847 C 617.83 -5.1754 1.34373 0
M  V30 6848 C 619.13 -4.09381 3.24353 0
M  V30 6849 H 620.824 -2.1639 2.06919 0
M  V30 6850 H 618.37 -1.03976 0.996243 0
M  V30 6851 H 620.323 -4.16016 0.671485 0
M  V30 6852 H 619.047 -3.2607 -0.185969 0
M  V30 6853 H 617.706 -3.10987 1.9412 0
M  V30 6854 H 617.354 -5.01696 0.361989 0
M  V30 6855 H 617.054 -5.50751 2.04811 0
M  V30 6856 H 618.578 -5.97811 1.24315 0
M  V30 6857 H 619.992 -4.77641 3.17067 0
M  V30 6858 H 618.389 -4.53906 3.92542 0
M  V30 6859 H 619.459 -3.14515 3.69064 0
M  V30 6860 N 620.802 -1.09834 -1.13024 0
M  V30 6861 C 622.05 -0.835297 -1.8403 0
M  V30 6862 C 622.371 0.640944 -1.84165 0
M  V30 6863 O 621.641 1.46517 -1.30037 0
M  V30 6864 H 620.221 -0.306018 -0.681441 0
M  V30 6865 H 622.883 -1.38734 -1.36891 0
M  V30 6866 H 621.979 -1.19258 -2.88416 0
M  V30 6867 N 622.28 1.30327 -0.886154 0
M  V30 6868 C 623.505 2.0079 -0.519425 0
M  V30 6869 C 623.93 1.65979 0.885013 0
M  V30 6870 O 623.288 0.877043 1.58675 0
M  V30 6871 C 623.336 3.53686 -0.702758 0
M  V30 6872 O 622.44 4.11637 0.250828 0
M  V30 6873 H 621.781 0.63171 -0.204544 0
M  V30 6874 H 624.311 1.66145 -1.19402 0
M  V30 6875 H 624.321 4.03531 -0.602207 0
M  V30 6876 H 622.996 3.78361 -1.72673 0
M  V30 6877 H 621.573 3.72755 0.103873 0
M  V30 6878 N 623.758 0.647228 1.43697 0
M  V30 6879 C 624.708 -0.0702191 2.27892 0
M  V30 6880 C 625.692 -0.800601 1.39568 0
M  V30 6881 O 626.884 -0.684055 1.63247 0
M  V30 6882 C 624.013 -1.04008 3.27165 0
M  V30 6883 C 623.099 -0.308484 4.22977 0
M  V30 6884 N 623.49 0.671721 5.0132 0
M  V30 6885 C 621.788 -0.550751 4.42586 0
M  V30 6886 C 622.489 1.10543 5.711 0
M  V30 6887 N 621.465 0.440903 5.41809 0
M  V30 6888 H 625.267 0.682031 2.85877 0
M  V30 6889 H 622.781 0.474022 1.55328 0
M  V30 6890 H 624.778 -1.56881 3.86256 0
M  V30 6891 H 623.438 -1.79246 2.70742 0
M  V30 6892 H 624.449 1.0502 5.0714 0
M  V30 6893 H 621.126 -1.28476 3.97241 0
M  V30 6894 H 622.516 1.91614 6.43998 0
M  V30 6895 N 625.236 -1.5273 0.388769 0
M  V30 6896 C 626.513 -1.93981 -0.251133 0
M  V30 6897 C 626.893 -1.32418 -1.64404 0
M  V30 6898 O 626.241 -0.492074 -2.23139 0
M  V30 6899 C 626.451 -3.47891 -0.27802 0
M  V30 6900 C 627.799 -4.21559 -0.507229 0
M  V30 6901 O 628.823 -3.54394 -0.358252 0
M  V30 6902 O 627.682 -5.40626 -0.799094 0
M  V30 6903 H 624.776 -0.812157 -0.15598 0
M  V30 6904 H 627.322 -1.63809 0.443237 0
M  V30 6905 H 626.094 -3.8503 0.697669 0
M  V30 6906 H 625.717 -3.84364 -1.01733 0
M  V30 6907 N 626.714 -0.118576 -1.57153 0
M  V30 6908 C 627.942 0.54726 -1.99531 0
M  V30 6909 C 628.357 1.60251 -0.998246 0
M  V30 6910 O 627.714 1.82498 0.00893106 0
M  V30 6911 C 627.765 1.17378 -3.41913 0
M  V30 6912 O 627.486 0.160703 -4.37805 0
M  V30 6913 C 628.987 1.92297 -3.9942 0
M  V30 6914 H 626.207 0.144919 -0.655164 0
M  V30 6915 H 628.751 -0.20479 -2.03472 0
M  V30 6916 H 626.906 1.87661 -3.38913 0
M  V30 6917 H 627.32 0.61586 -5.20872 0
M  V30 6918 H 628.794 2.31462 -5.01128 0
M  V30 6919 H 629.271 2.79801 -3.38538 0
M  V30 6920 H 629.877 1.26777 -4.05965 0
M  V30 6921 N 628.193 1.56834 0.155195 0
M  V30 6922 C 629.418 1.87412 0.888337 0
M  V30 6923 C 629.843 0.70671 1.74319 0
M  V30 6924 O 629.201 -0.343892 1.78009 0
M  V30 6925 C 629.249 3.1652 1.72765 0
M  V30 6926 O 628.353 2.99877 2.83103 0
M  V30 6927 H 627.694 0.615983 0.247914 0
M  V30 6928 H 630.224 2.04061 0.148478 0
M  V30 6929 H 630.234 3.48334 2.12433 0
M  V30 6930 H 628.909 4.01094 1.09985 0
M  V30 6931 H 627.486 2.79453 2.46902 0
M  V30 6932 N 629.671 -0.424282 1.51781 0
M  V30 6933 C 631.087 -0.761768 1.40247 0
M  V30 6934 C 631.287 -1.95324 0.495041 0
M  V30 6935 O 630.343 -2.5246 -0.0448949 0
M  V30 6936 C 631.656 -1.0299 2.82513 0
M  V30 6937 C 633.204 -1.13354 2.91753 0
M  V30 6938 C 633.679 -1.43453 4.34954 0
M  V30 6939 N 635.17 -1.5035 4.3812 0
M  V30 6940 C 635.905 -1.75236 5.45967 0
M  V30 6941 N 635.401 -1.97827 6.63955 0
M  V30 6942 N 637.194 -1.77126 5.33463 0
M  V30 6943 H 629.345 0.360228 2.09323 0
M  V30 6944 H 631.608 0.0988128 0.942836 0
M  V30 6945 H 631.314 -0.226961 3.50967 0
M  V30 6946 H 631.188 -1.95411 3.22637 0
M  V30 6947 H 633.575 -1.92709 2.23489 0
M  V30 6948 H 633.656 -0.188041 2.55108 0
M  V30 6949 H 633.3 -0.646209 5.03772 0
M  V30 6950 H 633.23 -2.3923 4.69123 0
M  V30 6951 H 635.721 -1.34742 3.53062 0
M  V30 6952 H 636.034 -2.16223 7.41935 0
M  V30 6953 H 634.379 -1.95123 6.67047 0
M  V30 6954 H 637.57 -1.59005 4.40267 0
M  V30 6955 H 637.743 -1.96182 6.17589 0
M  V30 6956 N 631.149 -1.42148 -0.680565 0
M  V30 6957 C 632.398 -1.41604 -1.43636 0
M  V30 6958 C 632.711 -0.0337887 -1.95571 0
M  V30 6959 O 633.917 0.0942588 -2.71336 0
M  V30 6960 C 632.373 -2.49056 -2.59806 0
M  V30 6961 C 631.981 -3.9326 -2.14594 0
M  V30 6962 C 633.725 -2.5767 -3.37352 0
M  V30 6963 C 631.632 -4.92232 -3.27813 0
M  V30 6964 H 630.562 -0.526656 -0.539583 0
M  V30 6965 H 633.213 -1.68033 -0.737369 0
M  V30 6966 H 631.595 -2.15782 -3.32045 0
M  V30 6967 H 632.769 -4.35858 -1.49546 0
M  V30 6968 H 631.084 -3.88443 -1.50002 0
M  V30 6969 H 633.681 -3.28794 -4.21662 0
M  V30 6970 H 634.024 -1.61837 -3.83555 0
M  V30 6971 H 634.557 -2.90109 -2.72179 0
M  V30 6972 H 631.296 -5.89522 -2.86607 0
M  V30 6973 H 630.816 -4.5427 -3.91661 0
M  V30 6974 H 632.495 -5.13684 -3.93367 0
M  V30 6975 N 632.627 0.916307 -1.28225 0
M  V30 6976 C 633.557 2.0352 -1.14464 0
M  V30 6977 C 634.538 1.70045 -0.0430844 0
M  V30 6978 O 635.723 1.92954 -0.219619 0
M  V30 6979 C 632.853 3.37889 -0.803027 0
M  V30 6980 C 631.807 3.85516 -1.85908 0
M  V30 6981 C 631.133 5.1682 -1.37116 0
M  V30 6982 C 632.433 4.07655 -3.26519 0
M  V30 6983 H 634.127 2.1529 -2.08064 0
M  V30 6984 H 631.673 1.03446 -1.00174 0
M  V30 6985 H 633.626 4.15654 -0.693537 0
M  V30 6986 H 632.35 3.26164 0.168674 0
M  V30 6987 H 631.009 3.09953 -1.95767 0
M  V30 6988 H 630.657 5.01497 -0.38859 0
M  V30 6989 H 630.357 5.49657 -2.07728 0
M  V30 6990 H 631.881 5.97143 -1.27484 0
M  V30 6991 H 633.295 4.75953 -3.19596 0
M  V30 6992 H 631.692 4.51818 -3.94943 0
M  V30 6993 H 632.762 3.12553 -3.70727 0
M  V30 6994 N 634.105 1.10431 1.1244 0
M  V30 6995 C 635.333 0.868872 1.87772 0
M  V30 6996 C 635.748 -0.580645 1.7965 0
M  V30 6997 O 635.105 -1.40031 1.17036 0
M  V30 6998 C 635.156 1.30855 3.36986 0
M  V30 6999 O 634.877 2.70123 3.44914 0
M  V30 7000 C 636.378 1.107 4.29256 0
M  V30 7001 H 633.598 0.311868 0.59412 0
M  V30 7002 H 636.142 1.46897 1.42273 0
M  V30 7003 H 634.297 0.752126 3.80029 0
M  V30 7004 H 634.711 2.88923 4.37748 0
M  V30 7005 H 636.185 1.46378 5.32238 0
M  V30 7006 H 636.662 0.0456228 4.39176 0
M  V30 7007 H 637.268 1.64988 3.91994 0
M  V30 7008 N 635.583 -1.29855 0.893053 0
M  V30 7009 C 636.829 -1.96116 0.516349 0
M  V30 7010 C 637.162 -1.70281 -0.933695 0
M  V30 7011 O 636.437 -1.01205 -1.66096 0
M  V30 7012 C 636.72 -3.51068 0.801455 0
M  V30 7013 C 636.573 -3.86387 2.30272 0
M  V30 7014 C 637.892 -4.39186 0.283423 0
M  V30 7015 H 635.011 -0.712335 0.189072 0
M  V30 7016 H 637.653 -1.53587 1.11852 0
M  V30 7017 H 635.803 -3.87424 0.288949 0
M  V30 7018 H 637.475 -3.60012 2.88425 0
M  V30 7019 H 635.718 -3.34167 2.76613 0
M  V30 7020 H 636.389 -4.94512 2.45279 0
M  V30 7021 H 638.865 -4.09785 0.722187 0
M  V30 7022 H 637.741 -5.46505 0.512169 0
M  V30 7023 H 638.002 -4.34511 -0.815643 0
M  V30 7024 N 637.061 -0.65484 -1.43351 0
M  V30 7025 C 638.301 -0.172514 -2.03671 0
M  V30 7026 C 638.665 1.19154 -1.50553 0
M  V30 7027 O 639.866 1.76737 -2.02528 0
M  V30 7028 C 638.137 -0.183982 -3.56926 0
M  V30 7029 S 639.696 0.230262 -4.38195 0
M  V30 7030 H 636.514 -0.0727503 -0.707268 0
M  V30 7031 H 639.116 -0.863537 -1.75395 0
M  V30 7032 H 637.82 -1.17945 -3.93087 0
M  V30 7033 H 637.351 0.527527 -3.89847 0
M  V30 7034 H 639.366 1.46874 -4.73965 0
M  V30 7035 N 638.539 1.52521 -0.396863 0
M  V30 7036 C 639.787 2.01274 0.182536 0
M  V30 7037 C 640.108 1.28485 1.46685 0
M  V30 7038 O 639.378 0.407134 1.91623 0
M  V30 7039 H 637.958 0.743671 0.0704442 0
M  V30 7040 H 640.62 1.87547 -0.530289 0
M  V30 7041 H 639.716 3.09687 0.387385 0
M  V30 7042 N 640.017 0.126909 1.57088 0
M  V30 7043 C 641.265 -0.528123 1.95078 0
M  V30 7044 C 641.586 -1.66708 1.0116 0
M  V30 7045 O 640.856 -1.95777 0.0693527 0
M  V30 7046 H 639.436 -0.198087 0.720257 0
M  V30 7047 H 642.098 0.197703 1.93895 0
M  V30 7048 H 641.194 -0.917507 2.98309 0
M  V30 7049 N 641.495 -1.56914 -0.146875 0
M  V30 7050 C 642.772 -1.74273 -0.888165 0
M  V30 7051 C 643.152 -0.69496 -1.99333 0
M  V30 7052 O 642.5 0.286093 -2.26702 0
M  V30 7053 C 642.71 -3.18336 -1.43051 0
M  V30 7054 C 644.058 -3.80024 -1.89387 0
M  V30 7055 O 645.082 -3.21765 -1.52792 0
M  V30 7056 O 643.941 -4.82367 -2.56874 0
M  V30 7057 H 641.035 -0.712565 -0.419738 0
M  V30 7058 H 643.581 -1.6918 -0.132791 0
M  V30 7059 H 642.353 -3.86092 -0.636274 0
M  V30 7060 H 641.976 -3.27854 -2.24938 0
M  V30 7061 N 642.974 0.416227 -1.52004 0
M  V30 7062 C 644.223 1.16088 -1.64944 0
M  V30 7063 C 644.536 1.91835 -0.381928 0
M  V30 7064 O 645.742 2.6867 -0.391013 0
M  V30 7065 C 644.198 2.1124 -2.91386 0
M  V30 7066 C 643.806 1.41042 -4.25219 0
M  V30 7067 C 645.55 2.86008 -3.13688 0
M  V30 7068 C 643.457 2.34801 -5.42791 0
M  V30 7069 H 642.387 0.437041 -0.61442 0
M  V30 7070 H 645.038 0.425971 -1.78487 0
M  V30 7071 H 643.42 2.88254 -2.71525 0
M  V30 7072 H 644.594 0.694416 -4.55538 0
M  V30 7073 H 642.909 0.78344 -4.08964 0
M  V30 7074 H 645.506 3.56286 -3.98703 0
M  V30 7075 H 645.849 3.48556 -2.27628 0
M  V30 7076 H 646.382 2.16095 -3.33988 0
M  V30 7077 H 643.121 1.7691 -6.31176 0
M  V30 7078 H 642.641 3.04395 -5.16821 0
M  V30 7079 H 644.32 2.9548 -5.75587 0
M  V30 7080 N 644.452 1.42507 0.673017 0
M  V30 7081 C 645.868 1.25472 0.986355 0
M  V30 7082 C 646.068 0.160181 2.00862 0
M  V30 7083 O 645.124 -0.467993 2.48125 0
M  V30 7084 C 646.437 2.61219 1.48947 0
M  V30 7085 C 647.985 2.68589 1.60715 0
M  V30 7086 C 648.46 4.04707 2.14422 0
M  V30 7087 N 649.951 4.0667 2.21752 0
M  V30 7088 C 650.686 5.0881 2.64386 0
M  V30 7089 N 650.182 6.21332 3.0646 0
M  V30 7090 N 651.975 4.96166 2.64151 0
M  V30 7091 H 644.126 2.124 -0.00378532 0
M  V30 7092 H 646.389 0.946046 0.0608367 0
M  V30 7093 H 646.095 3.42179 0.812812 0
M  V30 7094 H 645.969 2.85261 2.46791 0
M  V30 7095 H 648.356 1.87974 2.27486 0
M  V30 7096 H 648.437 2.48333 0.613552 0
M  V30 7097 H 648.081 4.8578 1.48258 0
M  V30 7098 H 648.011 4.22315 3.14575 0
M  V30 7099 H 650.502 3.25438 1.92089 0
M  V30 7100 H 650.815 6.95118 3.37684 0
M  V30 7101 H 649.16 6.24835 3.04313 0
M  V30 7102 H 652.351 4.07334 2.30644 0
M  V30 7103 H 652.524 5.759 2.97057 0
M  V30 7104 N 645.93 -0.909495 1.28709 0
M  V30 7105 C 646.877 -2.01245 1.13 0
M  V30 7106 C 647.847 -1.6608 0.0259684 0
M  V30 7107 O 649.032 -1.89835 0.191687 0
M  V30 7108 C 646.172 -3.35644 0.802315 0
M  V30 7109 C 645.285 -3.83653 1.98582 0
M  V30 7110 C 644.42 -5.06582 1.59837 0
M  V30 7111 C 643.459 -5.46934 2.74827 0
M  V30 7112 N 642.596 -6.61053 2.36546 0
M  V30 7113 H 647.436 -2.14013 2.0737 0
M  V30 7114 H 644.973 -1.0482 1.03205 0
M  V30 7115 H 646.931 -4.12963 0.593057 0
M  V30 7116 H 645.561 -3.22631 -0.104457 0
M  V30 7117 H 644.613 -3.02454 2.30708 0
M  V30 7118 H 645.925 -4.09515 2.84779 0
M  V30 7119 H 645.079 -5.91457 1.35143 0
M  V30 7120 H 643.818 -4.82537 0.707753 0
M  V30 7121 H 642.823 -4.60599 3.00215 0
M  V30 7122 H 644.048 -5.72965 3.64538 0
M  V30 7123 H 641.994 -6.3863 1.49959 0
M  V30 7124 H 641.911 -6.86662 3.16277 0
M  V30 7125 H 643.179 -7.49221 2.15146 0
M  V30 7126 N 647.408 -1.11026 -1.11852 0
M  V30 7127 C 648.654 -0.857729 -1.83768 0
M  V30 7128 C 648.987 0.615143 -1.842 0
M  V30 7129 O 648.262 1.45391 -1.29196 0
M  V30 7130 C 648.545 -1.41453 -3.31154 0
M  V30 7131 C 648.398 -2.95471 -3.39142 0
M  V30 7132 C 649.717 -1.0619 -4.27097 0
M  V30 7133 H 646.836 -0.313044 -0.667212 0
M  V30 7134 H 649.478 -1.37443 -1.31185 0
M  V30 7135 H 647.628 -0.975052 -3.76065 0
M  V30 7136 H 649.3 -3.4799 -3.02821 0
M  V30 7137 H 647.543 -3.31759 -2.79497 0
M  V30 7138 H 648.214 -3.29515 -4.42859 0
M  V30 7139 H 650.69 -1.44122 -3.90344 0
M  V30 7140 H 649.566 -1.47832 -5.28618 0
M  V30 7141 H 649.827 0.0278912 -4.42091 0
M  V30 7142 N 648.886 1.2938 -0.899927 0
M  V30 7143 C 649.833 2.27713 -0.376243 0
M  V30 7144 C 650.803 1.57016 0.541774 0
M  V30 7145 O 651.988 1.84997 0.466966 0
M  V30 7146 C 649.128 3.42889 0.39 0
M  V30 7147 C 648.241 4.28369 -0.558938 0
M  V30 7148 C 647.376 5.30726 0.224379 0
M  V30 7149 C 646.415 6.07862 -0.719068 0
M  V30 7150 N 645.552 7.02094 0.0298569 0
M  V30 7151 H 650.392 2.71888 -1.21988 0
M  V30 7152 H 647.929 1.33724 -0.612879 0
M  V30 7153 H 649.887 4.08443 0.850314 0
M  V30 7154 H 648.517 2.99743 1.19809 0
M  V30 7155 H 647.569 3.62986 -1.13777 0
M  V30 7156 H 648.881 4.82068 -1.2811 0
M  V30 7157 H 648.035 6.02098 0.745881 0
M  V30 7158 H 646.774 4.77759 0.979674 0
M  V30 7159 H 645.779 5.35353 -1.25207 0
M  V30 7160 H 647.004 6.62917 -1.4737 0
M  V30 7161 H 644.95 6.51496 0.767415 0
M  V30 7162 H 644.867 7.5335 -0.632391 0
M  V30 7163 H 646.135 7.77685 0.531615 0
M  V30 7164 N 650.364 0.662433 1.43002 0
M  V30 7165 C 651.294 -0.00979809 2.33498 0
M  V30 7166 C 652.275 -0.802329 1.49989 0
M  V30 7167 O 653.46 -0.761964 1.78627 0
M  V30 7168 C 650.59 -0.970446 3.33466 0
M  V30 7169 C 649.544 -0.287383 4.27034 0
M  V30 7170 C 648.87 -1.36012 5.17112 0
M  V30 7171 C 650.17 0.82595 5.15728 0
M  V30 7172 H 651.864 0.745959 2.89958 0
M  V30 7173 H 649.41 0.360172 1.39423 0
M  V30 7174 H 651.363 -1.44971 3.95679 0
M  V30 7175 H 650.087 -1.75748 2.75282 0
M  V30 7176 H 648.746 0.17152 3.66199 0
M  V30 7177 H 648.394 -2.13882 4.55262 0
M  V30 7178 H 648.094 -0.908276 5.80538 0
M  V30 7179 H 649.618 -1.84056 5.82199 0
M  V30 7180 H 651.032 0.42845 5.71697 0
M  V30 7181 H 649.429 1.20282 5.87922 0
M  V30 7182 H 650.499 1.68003 4.54866 0
M  V30 7183 N 651.842 -1.52309 0.404946 0
M  V30 7184 C 652.772 -2.29805 -0.41376 0
M  V30 7185 C 653.753 -1.3384 -1.0498 0
M  V30 7186 O 654.938 -1.62745 -1.05961 0
M  V30 7187 C 652.068 -3.11639 -1.53292 0
M  V30 7188 C 651.022 -4.15616 -1.02211 0
M  V30 7189 C 650.348 -4.8577 -2.23455 0
M  V30 7190 C 651.648 -5.2224 -0.0790725 0
M  V30 7191 H 653.342 -2.98493 0.232878 0
M  V30 7192 H 650.888 -1.43552 0.113441 0
M  V30 7193 H 652.841 -3.64618 -2.11262 0
M  V30 7194 H 651.565 -2.40712 -2.20738 0
M  V30 7195 H 650.224 -3.63641 -0.46484 0
M  V30 7196 H 649.872 -4.11376 -2.89445 0
M  V30 7197 H 649.572 -5.56058 -1.89929 0
M  V30 7198 H 651.096 -5.4156 -2.82038 0
M  V30 7199 H 652.51 -5.70485 -0.567438 0
M  V30 7200 H 650.907 -5.99867 0.167167 0
M  V30 7201 H 651.977 -4.77078 0.867447 0
M  V30 7202 N 653.32 -0.135238 -1.57019 0
M  V30 7203 C 654.567 0.518794 -1.95742 0
M  V30 7204 C 654.895 1.65642 -1.01947 0
M  V30 7205 O 654.15 1.95645 -0.0464016 0
M  V30 7206 C 654.449 1.07694 -3.40788 0
M  V30 7207 C 654.115 0.058992 -4.50861 0
M  V30 7208 C 652.777 -0.220872 -4.80693 0
M  V30 7209 C 655.129 -0.633856 -5.17331 0
M  V30 7210 C 652.457 -1.19959 -5.74305 0
M  V30 7211 C 654.809 -1.60131 -6.11997 0
M  V30 7212 C 653.473 -1.889 -6.40213 0
M  V30 7213 H 652.743 0.18984 -0.716269 0
M  V30 7214 H 655.39 -0.219581 -1.90237 0
M  V30 7215 H 653.695 1.89241 -3.43067 0
M  V30 7216 H 655.392 1.59137 -3.68071 0
M  V30 7217 H 651.982 0.287304 -4.27636 0
M  V30 7218 H 656.166 -0.430823 -4.94427 0
M  V30 7219 H 651.422 -1.42905 -5.94465 0
M  V30 7220 H 655.596 -2.14376 -6.62583 0
M  V30 7221 H 653.223 -2.64891 -7.12556 0
M  V30 7222 N 654.798 1.5699 0.138552 0
M  V30 7223 C 655.728 2.01933 1.17241 0
M  V30 7224 C 656.709 0.90033 1.44319 0
M  V30 7225 O 657.894 1.16872 1.55095 0
M  V30 7226 C 655.024 2.40711 2.50351 0
M  V30 7227 C 653.978 3.55874 2.37776 0
M  V30 7228 C 653.304 3.80491 3.75674 0
M  V30 7229 C 654.604 4.8826 1.85472 0
M  V30 7230 H 656.298 2.88551 0.798672 0
M  V30 7231 H 653.844 1.3882 0.382743 0
M  V30 7232 H 655.797 2.70754 3.22909 0
M  V30 7233 H 654.521 1.5104 2.89576 0
M  V30 7234 H 653.18 3.2601 1.67669 0
M  V30 7235 H 652.828 2.88057 4.12349 0
M  V30 7236 H 652.528 4.57998 3.68119 0
M  V30 7237 H 654.052 4.12967 4.49767 0
M  V30 7238 H 655.466 5.16965 2.4783 0
M  V30 7239 H 653.863 5.69631 1.88787 0
M  V30 7240 H 654.933 4.78071 0.810935 0
M  V30 7241 N 656.276 -0.40816 1.52223 0
M  V30 7242 C 657.523 -1.15502 1.66329 0
M  V30 7243 C 657.851 -1.90474 0.393701 0
M  V30 7244 O 657.106 -1.85507 -0.623356 0
M  V30 7245 C 657.405 -2.17422 2.83659 0
M  V30 7246 C 657.071 -1.5925 4.21841 0
M  V30 7247 C 655.733 -1.4311 4.59427 0
M  V30 7248 C 658.085 -1.16776 5.0795 0
M  V30 7249 C 655.413 -0.830148 5.80797 0
M  V30 7250 C 657.765 -0.580988 6.29926 0
M  V30 7251 C 656.429 -0.406729 6.6626 0
M  V30 7252 H 655.699 -0.422653 0.608642 0
M  V30 7253 H 658.346 -0.442114 1.86327 0
M  V30 7254 H 656.651 -2.94861 2.58001 0
M  V30 7255 H 658.348 -2.75084 2.9177 0
M  V30 7256 H 654.938 -1.72796 3.92224 0
M  V30 7257 H 659.122 -1.28055 4.79495 0
M  V30 7258 H 654.378 -0.68316 6.07571 0
M  V30 7259 H 658.552 -0.243488 6.95974 0
M  V30 7260 H 656.179 0.0610366 7.60175 0
M  V30 7261 N 657.755 -1.42862 -0.66545 0
M  V30 7262 C 658.687 -1.43026 -1.79098 0
M  V30 7263 C 659.7 -0.32803 -1.59461 0
M  V30 7264 O 660.889 -0.591709 -1.68407 0
M  V30 7265 C 657.989 -1.21566 -3.16346 0
M  V30 7266 C 657.162 -2.44399 -3.62751 0
M  V30 7267 C 656.221 -2.18344 -4.78761 0
M  V30 7268 O 655.247 -2.91611 -4.88827 0
M  V30 7269 N 656.449 -1.1924 -5.68122 0
M  V30 7270 H 659.214 -2.40045 -1.79439 0
M  V30 7271 H 656.775 -1.37861 -0.848872 0
M  V30 7272 H 658.767 -1.02037 -3.91625 0
M  V30 7273 H 657.337 -0.330368 -3.10849 0
M  V30 7274 H 656.557 -2.79433 -2.78048 0
M  V30 7275 H 657.845 -3.26173 -3.90498 0
M  V30 7276 H 657.243 -0.586603 -5.6265 0
M  V30 7277 H 655.8 -1.05698 -6.43173 0
M  V30 7278 N 659.233 0.902656 -1.29189 0
M  V30 7279 C 660.163 2.02294 -1.16616 0
M  V30 7280 C 661.144 1.6999 -0.0611175 0
M  V30 7281 O 662.329 1.9271 -0.240072 0
M  V30 7282 C 659.459 3.37018 -0.83882 0
M  V30 7283 C 658.413 3.83522 -1.89986 0
M  V30 7284 C 657.739 5.15337 -1.42589 0
M  V30 7285 C 659.039 4.04169 -3.30824 0
M  V30 7286 H 660.733 2.13071 -2.10336 0
M  V30 7287 H 658.279 1.02378 -1.01266 0
M  V30 7288 H 660.232 4.14895 -0.737584 0
M  V30 7289 H 658.956 3.26325 0.134071 0
M  V30 7290 H 657.615 3.07859 -1.99043 0
M  V30 7291 H 657.263 5.01056 -0.441759 0
M  V30 7292 H 656.963 5.47423 -2.13547 0
M  V30 7293 H 658.487 5.95758 -1.3381 0
M  V30 7294 H 659.901 4.72537 -3.24626 0
M  V30 7295 H 658.298 4.47604 -3.99713 0
M  V30 7296 H 659.368 3.08604 -3.74021 0
M  V30 7297 N 660.711 1.11618 1.11262 0
M  V30 7298 C 661.939 0.888739 1.8684 0
M  V30 7299 C 662.354 -0.561558 1.80255 0
M  V30 7300 O 661.711 -1.38782 1.18515 0
M  V30 7301 C 661.762 1.34422 3.35579 0
M  V30 7302 O 661.483 2.73766 3.42029 0
M  V30 7303 C 662.984 1.15246 4.28058 0
M  V30 7304 H 660.204 0.318152 0.590779 0
M  V30 7305 H 662.748 1.48398 1.40707 0
M  V30 7306 H 660.903 0.79239 3.7921 0
M  V30 7307 H 661.317 2.9355 4.34659 0
M  V30 7308 H 662.791 1.52015 5.30656 0
M  V30 7309 H 663.268 0.0922007 4.39103 0
M  V30 7310 H 663.874 1.69136 3.90222 0
M  V30 7311 N 662.189 -1.289 0.906776 0
M  V30 7312 C 663.436 -1.95269 0.536326 0
M  V30 7313 C 663.764 -1.71435 -0.918711 0
M  V30 7314 O 663.019 -1.02431 -1.66752 0
M  V30 7315 C 663.318 -3.48704 0.783617 0
M  V30 7316 C 662.984 -3.92626 2.21711 0
M  V30 7317 C 661.646 -4.04329 2.60906 0
M  V30 7318 C 663.998 -4.15218 3.15029 0
M  V30 7319 C 661.326 -4.35998 3.92584 0
M  V30 7320 C 663.678 -4.48365 4.46264 0
M  V30 7321 C 662.342 -4.58278 4.85322 0
M  V30 7322 H 661.612 -0.714538 0.196256 0
M  V30 7323 H 664.259 -1.53366 1.14678 0
M  V30 7324 H 662.564 -3.91696 0.0903048 0
M  V30 7325 H 664.261 -3.98162 0.476267 0
M  V30 7326 H 660.851 -3.84038 1.90296 0
M  V30 7327 H 665.035 -4.05636 2.8596 0
M  V30 7328 H 660.291 -4.41878 4.22557 0
M  V30 7329 H 664.465 -4.64795 5.18593 0
M  V30 7330 H 662.092 -4.82573 5.87391 0
M  V30 7331 N 663.667 -0.670007 -1.42649 0
M  V30 7332 C 664.895 -0.19854 -2.05945 0
M  V30 7333 C 665.31 1.14243 -1.50313 0
M  V30 7334 O 664.667 1.70872 -0.641027 0
M  V30 7335 C 664.718 -0.11966 -3.61302 0
M  V30 7336 O 664.439 -1.40764 -4.1487 0
M  V30 7337 C 665.94 0.375878 -4.41704 0
M  V30 7338 H 663.16 -0.0976894 -0.663851 0
M  V30 7339 H 665.704 -0.915392 -1.82868 0
M  V30 7340 H 663.859 0.547851 -3.83507 0
M  V30 7341 H 664.273 -1.27784 -5.08696 0
M  V30 7342 H 665.747 0.379988 -5.50691 0
M  V30 7343 H 666.224 1.41028 -4.15942 0
M  V30 7344 H 666.83 -0.259727 -4.24506 0
M  V30 7345 N 665.145 1.52092 -0.413018 0
M  V30 7346 C 666.393 2.01456 0.161178 0
M  V30 7347 C 666.714 1.30034 1.45314 0
M  V30 7348 O 665.984 0.427435 1.9118 0
M  V30 7349 H 664.564 0.744376 0.0625526 0
M  V30 7350 H 667.226 1.86974 -0.550151 0
M  V30 7351 H 666.322 3.1008 0.354517 0
M  V30 7352 N 666.623 0.143563 1.56945 0
M  V30 7353 C 667.848 -0.518701 2.00809 0
M  V30 7354 C 668.273 -1.5785 1.02298 0
M  V30 7355 O 667.631 -1.813 -0.0017839 0
M  V30 7356 C 667.679 -1.09929 3.43436 0
M  V30 7357 O 666.783 -2.21425 3.47915 0
M  V30 7358 H 666.124 -0.127215 0.6517 0
M  V30 7359 H 668.654 0.239283 2.03196 0
M  V30 7360 H 668.664 -1.4288 3.82164 0
M  V30 7361 H 667.339 -0.323162 4.14643 0
M  V30 7362 H 665.916 -1.89728 3.21026 0
M  V30 7363 N 668.101 -1.57061 -0.130224 0
M  V30 7364 C 669.512 -1.73539 -0.68856 0
M  V30 7365 C 669.863 -0.760554 -1.80859 0
M  V30 7366 O 668.988 0.0690796 -2.1629 0
M  V30 7367 C 669.583 -3.14666 -1.25581 0
M  V30 7368 C 668.142 -3.32689 -1.76055 0
M  V30 7369 C 667.289 -2.69436 -0.655712 0
M  V30 7370 H 670.24 -1.58412 0.0956002 0
M  V30 7371 H 670.261 -3.15595 -2.12556 0
M  V30 7372 H 669.773 -3.85593 -0.440412 0
M  V30 7373 H 667.874 -2.66786 -2.60108 0
M  V30 7374 H 667.987 -4.4077 -1.87772 0
M  V30 7375 H 666.351 -2.30362 -1.08654 0
M  V30 7376 H 667.134 -3.42979 0.14852 0
M  V30 7377 N 669.579 0.400081 -1.52437 0
M  V30 7378 C 670.819 1.15526 -1.68622 0
M  V30 7379 C 671.183 1.87533 -0.411744 0
M  V30 7380 O 672.384 2.6501 -0.449804 0
M  V30 7381 C 670.655 2.11618 -2.88015 0
M  V30 7382 S 672.214 2.95121 -3.24729 0
M  V30 7383 H 669.032 0.39123 -0.593683 0
M  V30 7384 H 671.634 0.441255 -1.90455 0
M  V30 7385 H 670.338 1.5742 -3.79008 0
M  V30 7386 H 669.869 2.87544 -2.68481 0
M  V30 7387 H 671.884 4.13653 -2.74055 0
M  V30 7388 N 671.057 1.43213 0.657864 0
M  V30 7389 C 672.306 1.43871 1.41365 0
M  V30 7390 C 672.619 0.064898 1.95492 0
M  V30 7391 O 673.825 -0.0510796 2.71452 0
M  V30 7392 C 672.281 2.53158 2.55811 0
M  V30 7393 C 671.889 3.96624 2.08311 0
M  V30 7394 C 673.633 2.63004 3.3321 0
M  V30 7395 C 671.54 4.97385 3.1994 0
M  V30 7396 H 670.47 0.535174 0.531136 0
M  V30 7397 H 673.121 1.69185 0.710543 0
M  V30 7398 H 671.503 2.21037 3.2857 0
M  V30 7399 H 672.677 4.38182 1.42593 0
M  V30 7400 H 670.992 3.90781 1.43804 0
M  V30 7401 H 673.589 3.3546 4.16378 0
M  V30 7402 H 673.932 1.67918 3.80932 0
M  V30 7403 H 674.465 2.94403 2.67529 0
M  V30 7404 H 671.204 5.94007 2.77192 0
M  V30 7405 H 670.724 4.60444 3.84385 0
M  V30 7406 H 672.403 5.19877 3.85145 0
M  V30 7407 N 672.536 -0.895792 1.29666 0
M  V30 7408 C 673.766 -1.67757 1.20586 0
M  V30 7409 C 674.174 -1.87729 -0.235432 0
M  V30 7410 O 673.517 -1.41706 -1.16898 0
M  V30 7411 C 673.579 -3.08117 1.85215 0
M  V30 7412 C 673.243 -3.1136 3.3452 0
M  V30 7413 C 674.24 -2.91217 4.30684 0
M  V30 7414 C 671.925 -3.33302 3.75786 0
M  V30 7415 C 673.919 -2.92955 5.66089 0
M  V30 7416 C 671.606 -3.3467 5.11311 0
M  V30 7417 C 672.604 -3.14519 6.06273 0
M  V30 7418 O 672.292 -3.15684 7.39323 0
M  V30 7419 H 672.024 -0.530601 0.418854 0
M  V30 7420 H 674.578 -1.12831 1.71634 0
M  V30 7421 H 672.808 -3.64661 1.28683 0
M  V30 7422 H 674.497 -3.68399 1.70403 0
M  V30 7423 H 675.263 -2.74074 4.00136 0
M  V30 7424 H 671.142 -3.48025 3.02324 0
M  V30 7425 H 674.686 -2.77145 6.40185 0
M  V30 7426 H 670.583 -3.51346 5.41504 0
M  V30 7427 H 671.351 -3.31924 7.48177 0
M  V30 7428 N 674.014 -1.12206 -1.10668 0
M  V30 7429 C 675.244 -0.897332 -1.86095 0
M  V30 7430 C 675.652 0.556778 -1.80822 0
M  V30 7431 O 674.995 1.39658 -1.19337 0
M  V30 7432 C 675.057 -1.29095 -3.35522 0
M  V30 7433 C 674.721 -2.75586 -3.64556 0
M  V30 7434 C 675.718 -3.73785 -3.6136 0
M  V30 7435 C 673.403 -3.12432 -3.93309 0
M  V30 7436 C 675.397 -5.06845 -3.86506 0
M  V30 7437 C 673.084 -4.45675 -4.18111 0
M  V30 7438 C 674.082 -5.42691 -4.147 0
M  V30 7439 O 673.77 -6.73532 -4.38873 0
M  V30 7440 H 673.502 -0.320704 -0.595084 0
M  V30 7441 H 676.056 -1.49517 -1.40833 0
M  V30 7442 H 674.286 -0.636299 -3.81429 0
M  V30 7443 H 675.975 -1.04073 -3.92331 0
M  V30 7444 H 676.741 -3.46664 -3.39189 0
M  V30 7445 H 672.62 -2.3753 -3.95096 0
M  V30 7446 H 676.164 -5.82559 -3.83758 0
M  V30 7447 H 672.061 -4.72526 -4.39761 0
M  V30 7448 H 672.829 -6.79442 -4.564 0
M  V30 7449 N 675.492 1.28418 -0.913599 0
M  V30 7450 C 676.74 1.94596 -0.545594 0
M  V30 7451 C 677.061 1.7227 0.913668 0
M  V30 7452 O 676.331 1.06233 1.64595 0
M  V30 7453 H 674.911 0.720065 -0.198783 0
M  V30 7454 H 677.573 1.56404 -1.16292 0
M  V30 7455 H 676.669 3.03202 -0.739911 0
M  V30 7456 N 676.97 0.677563 1.42291 0
M  V30 7457 C 678.247 0.129803 1.95169 0
M  V30 7458 C 678.627 -1.35605 1.61786 0
M  V30 7459 O 677.975 -2.09361 0.915444 0
M  V30 7460 C 678.185 0.401889 3.46678 0
M  V30 7461 C 679.533 0.319889 4.23393 0
M  V30 7462 O 680.557 0.33579 3.54614 0
M  V30 7463 O 679.416 0.264459 5.4586 0
M  V30 7464 H 676.51 0.00447433 0.826988 0
M  V30 7465 H 679.056 0.752483 1.52105 0
M  V30 7466 H 677.828 1.43108 3.64192 0
M  V30 7467 H 677.451 -0.252662 3.96796 0
M  V30 7468 N 678.448 -1.51871 0.421078 0
M  V30 7469 C 679.358 -2.31077 -0.405069 0
M  V30 7470 C 680.374 -1.39301 -1.04265 0
M  V30 7471 O 681.55 -1.72376 -1.04157 0
M  V30 7472 C 678.615 -3.12556 -1.50032 0
M  V30 7473 C 677.676 -4.20088 -0.884559 0
M  V30 7474 C 676.909 -4.97673 -1.92762 0
M  V30 7475 O 677.132 -4.75696 -3.14753 0
M  V30 7476 O 676.066 -5.82203 -1.52719 0
M  V30 7477 H 679.892 -3.02742 0.241086 0
M  V30 7478 H 677.477 -1.48263 0.183991 0
M  V30 7479 H 679.359 -3.6326 -2.13589 0
M  V30 7480 H 678.034 -2.43672 -2.13086 0
M  V30 7481 H 676.941 -3.73502 -0.211379 0
M  V30 7482 H 678.274 -4.91298 -0.297763 0
M  V30 7483 N 679.926 -0.151884 -1.56866 0
M  V30 7484 C 681.175 0.497992 -1.95456 0
M  V30 7485 C 681.488 1.6569 -1.03953 0
M  V30 7486 O 682.694 2.37173 -1.32142 0
M  V30 7487 C 681.15 0.93732 -3.4748 0
M  V30 7488 C 680.758 -0.194921 -4.47576 0
M  V30 7489 C 682.502 1.55671 -3.94926 0
M  V30 7490 C 680.409 0.26295 -5.90815 0
M  V30 7491 H 679.339 0.189811 -0.729717 0
M  V30 7492 H 681.99 -0.237011 -1.81963 0
M  V30 7493 H 680.372 1.72773 -3.56322 0
M  V30 7494 H 681.546 -0.971951 -4.50433 0
M  V30 7495 H 679.861 -0.72303 -4.10075 0
M  V30 7496 H 682.458 1.91099 -4.99385 0
M  V30 7497 H 682.801 2.44748 -3.36755 0
M  V30 7498 H 683.334 0.831109 -3.89021 0
M  V30 7499 H 680.073 -0.592568 -6.52816 0
M  V30 7500 H 679.593 1.00575 -5.91308 0
M  V30 7501 H 681.272 0.713333 -6.43056 0
M  V30 7502 N 681.404 1.57128 0.121893 0
M  V30 7503 C 682.652 1.84335 0.828548 0
M  V30 7504 C 682.973 0.736632 1.80551 0
M  V30 7505 O 682.243 -0.23962 1.94429 0
M  V30 7506 H 680.823 0.680108 0.30897 0
M  V30 7507 H 683.485 1.9459 0.109906 0
M  V30 7508 H 682.581 2.80152 1.37554 0
M  V30 7509 N 682.882 -0.391992 1.52647 0
M  V30 7510 C 683.815 -1.50019 1.71958 0
M  V30 7511 C 684.793 -1.5238 0.567365 0
M  V30 7512 O 685.977 -1.70831 0.796806 0
M  V30 7513 C 683.104 -2.88496 1.77447 0
M  V30 7514 C 682.15 -3.03974 2.99169 0
M  V30 7515 S 682.983 -2.75487 4.59203 0
M  V30 7516 C 684.139 -4.16163 4.67503 0
M  V30 7517 H 684.372 -1.33413 2.65685 0
M  V30 7518 H 681.905 -0.584674 1.42902 0
M  V30 7519 H 683.863 -3.68296 1.81296 0
M  V30 7520 H 682.524 -3.02431 0.848188 0
M  V30 7521 H 681.717 -4.05328 2.99542 0
M  V30 7522 H 681.319 -2.32062 2.93297 0
M  V30 7523 H 683.611 -5.10048 4.45934 0
M  V30 7524 H 684.554 -4.20806 5.69498 0
M  V30 7525 H 684.962 -4.01933 3.96371 0
M  V30 7526 N 684.36 -1.4356 -0.65026 0
M  V30 7527 C 685.588 -1.48779 -1.43779 0
M  V30 7528 C 686.003 -0.106593 -1.88499 0
M  V30 7529 O 685.36 0.883766 -1.59674 0
M  V30 7530 C 685.411 -2.43618 -2.67081 0
M  V30 7531 O 685.132 -3.76367 -2.24231 0
M  V30 7532 C 686.633 -2.5811 -3.60409 0
M  V30 7533 H 683.853 -0.50521 -0.441593 0
M  V30 7534 H 686.397 -1.88332 -0.796941 0
M  V30 7535 H 684.552 -2.07253 -3.273 0
M  V30 7536 H 684.966 -4.27394 -3.0403 0
M  V30 7537 H 686.44 -3.28539 -4.43583 0
M  V30 7538 H 686.917 -1.627 -4.07953 0
M  V30 7539 H 687.523 -2.95298 -3.0607 0
M  V30 7540 N 685.838 0.888903 -1.30139 0
M  V30 7541 C 687.086 1.63713 -1.18501 0
M  V30 7542 C 687.407 1.9324 0.261399 0
M  V30 7543 O 686.677 1.56608 1.17689 0
M  V30 7544 H 685.257 0.606861 -0.435579 0
M  V30 7545 H 687.919 1.06525 -1.63213 0
M  V30 7546 H 687.015 2.58894 -1.743 0
M  V30 7547 N 687.317 1.12792 1.10072 0
M  V30 7548 C 688.565 0.883796 1.81751 0
M  V30 7549 C 688.886 -0.591891 1.858 0
M  V30 7550 O 688.156 -1.43017 1.33876 0
M  V30 7551 H 686.736 0.323978 0.673088 0
M  V30 7552 H 689.398 1.42314 1.33164 0
M  V30 7553 H 688.494 1.26863 2.85153 0
M  V30 7554 N 688.795 -1.27931 0.920396 0
M  V30 7555 C 689.743 -2.29061 0.404191 0
M  V30 7556 C 690.737 -1.61615 -0.507634 0
M  V30 7557 O 691.943 -1.75765 -0.388144 0
M  V30 7558 H 688.318 -0.743594 0.112123 0
M  V30 7559 H 690.289 -2.70021 1.27008 0
M  V30 7560 C 689.038 -3.46088 -0.334466 0
M  V30 7561 H 688.361 -3.98194 0.35797 0
M  V30 7562 H 689.801 -4.18829 -0.660196 0
M  V30 7563 C 688.26 -2.99396 -1.54479 0
M  V30 7564 O 688.79 -3.02439 -2.64374 0
M  V30 7565 N 686.996 -2.54978 -1.39408 0
M  V30 7566 H 686.543 -2.52701 -0.500009 0
M  V30 7567 H 686.501 -2.24098 -2.20516 0
M  V30 7568 N 690.273 -0.685099 -1.4193 0
M  V30 7569 C 691.55 -0.140152 -1.95097 0
M  V30 7570 C 691.93 1.34745 -1.62502 0
M  V30 7571 O 691.278 2.08872 -0.926534 0
M  V30 7572 C 691.488 -0.420268 -3.4646 0
M  V30 7573 C 692.836 -0.342338 -4.23218 0
M  V30 7574 O 693.86 -0.354592 -3.54431 0
M  V30 7575 O 692.719 -0.293404 -5.45712 0
M  V30 7576 H 689.813 -0.00885998 -0.826953 0
M  V30 7577 H 692.359 -0.760539 -1.51703 0
M  V30 7578 H 691.131 -1.45037 -3.63428 0
M  V30 7579 H 690.754 0.231616 -3.96925 0
M  V30 7580 N 691.751 1.51645 -0.429126 0
M  V30 7581 C 693.162 1.86665 0.0359003 0
M  V30 7582 C 693.513 1.34677 1.42676 0
M  V30 7583 O 692.638 0.694195 2.04963 0
M  V30 7584 C 693.233 3.38724 0.0719221 0
M  V30 7585 C 691.792 3.7331 0.481336 0
M  V30 7586 C 690.939 2.75313 -0.331329 0
M  V30 7587 H 693.89 1.44987 -0.645333 0
M  V30 7588 H 693.911 3.7011 0.883118 0
M  V30 7589 H 693.423 3.76532 -0.940495 0
M  V30 7590 H 691.524 3.41088 1.49966 0
M  V30 7591 H 691.637 4.78631 0.211837 0
M  V30 7592 H 690.001 2.53839 0.209204 0
M  V30 7593 H 690.784 3.15963 -1.34247 0
M  V30 7594 N 693.229 0.160201 1.56784 0
M  V30 7595 C 694.139 -0.787167 2.21 0
M  V30 7596 C 695.155 -1.26167 1.19825 0
M  V30 7597 O 696.331 -1.31611 1.52448 0
M  V30 7598 C 693.396 -2.00364 2.8294 0
M  V30 7599 C 692.457 -1.5771 3.99282 0
M  V30 7600 C 691.69 -2.73558 4.58259 0
M  V30 7601 O 691.913 -3.90129 4.16119 0
M  V30 7602 O 690.847 -2.48271 5.48311 0
M  V30 7603 H 694.673 -0.270462 3.02493 0
M  V30 7604 H 692.258 -0.0674666 1.49248 0
M  V30 7605 H 694.14 -2.71529 3.22257 0
M  V30 7606 H 692.815 -2.50961 2.04451 0
M  V30 7607 H 691.722 -0.835274 3.64656 0
M  V30 7608 H 693.055 -1.11815 4.79331 0
M  V30 7609 N 694.707 -1.5719 -0.113559 0
M  V30 7610 C 695.947 -1.86958 -0.82621 0
M  V30 7611 C 696.311 -0.748884 -1.76793 0
M  V30 7612 O 697.512 -0.92847 -2.52256 0
M  V30 7613 C 695.783 -3.21957 -1.55173 0
M  V30 7614 S 697.342 -3.73371 -2.3052 0
M  V30 7615 H 694.16 -0.655394 -0.275643 0
M  V30 7616 H 696.762 -1.95318 -0.0842684 0
M  V30 7617 H 695.466 -4.01459 -0.851977 0
M  V30 7618 H 694.997 -3.16688 -2.33393 0
M  V30 7619 H 697.012 -3.45308 -3.56338 0
M  V30 7620 N 696.185 0.383891 -1.52853 0
M  V30 7621 C 697.601 0.724316 -1.42218 0
M  V30 7622 C 697.801 1.93943 -0.546654 0
M  V30 7623 O 696.857 2.5249 -0.0220562 0
M  V30 7624 C 698.17 0.954635 -2.85144 0
M  V30 7625 C 699.718 1.05579 -2.94656 0
M  V30 7626 C 700.193 1.3187 -4.38605 0
M  V30 7627 N 701.684 1.38681 -4.41952 0
M  V30 7628 C 702.419 1.60699 -5.50421 0
M  V30 7629 N 701.915 1.80154 -6.68967 0
M  V30 7630 N 703.708 1.6292 -5.37972 0
M  V30 7631 H 695.859 -0.4156 -2.08294 0
M  V30 7632 H 698.122 -0.123776 -0.939885 0
M  V30 7633 H 697.828 0.133829 -3.51445 0
M  V30 7634 H 697.702 1.86788 -3.27704 0
M  V30 7635 H 700.089 1.86716 -2.2852 0
M  V30 7636 H 700.17 0.120338 -2.55517 0
M  V30 7637 H 699.814 0.512416 -5.05309 0
M  V30 7638 H 699.744 2.26708 -4.75301 0
M  V30 7639 H 702.235 1.25334 -3.56511 0
M  V30 7640 H 702.548 1.96476 -7.47407 0
M  V30 7641 H 700.893 1.77368 -6.71986 0
M  V30 7642 H 704.084 1.47276 -4.44328 0
M  V30 7643 H 704.257 1.79739 -6.22574 0
M  V30 7644 N 697.663 1.43903 0.642637 0
M  V30 7645 C 698.61 1.49881 1.75512 0
M  V30 7646 C 699.58 0.347538 1.62423 0
M  V30 7647 O 700.765 0.556177 1.82514 0
M  V30 7648 C 697.905 1.43797 3.13714 0
M  V30 7649 C 697.018 2.6921 3.37861 0
M  V30 7650 C 696.153 2.5504 4.6597 0
M  V30 7651 C 695.192 3.75671 4.83257 0
M  V30 7652 N 694.329 3.60247 6.02633 0
M  V30 7653 H 699.169 2.44935 1.69737 0
M  V30 7654 H 696.706 1.21572 0.828165 0
M  V30 7655 H 698.664 1.38262 3.93624 0
M  V30 7656 H 697.294 0.523173 3.18532 0
M  V30 7657 H 696.346 2.8498 2.51973 0
M  V30 7658 H 697.658 3.58786 3.46517 0
M  V30 7659 H 696.812 2.47273 5.54023 0
M  V30 7660 H 695.551 1.63006 4.59653 0
M  V30 7661 H 694.556 3.83836 3.93637 0
M  V30 7662 H 695.781 4.68728 4.91397 0
M  V30 7663 H 693.727 2.70955 5.97427 0
M  V30 7664 H 693.644 4.43431 6.12295 0
M  V30 7665 H 694.912 3.56351 6.93278 0
M  V30 7666 N 699.141 -0.881989 1.30609 0
M  V30 7667 C 700.381 -1.64817 1.20891 0
M  V30 7668 C 700.745 -1.90593 -0.232043 0
M  V30 7669 O 701.946 -2.64964 -0.452516 0
M  V30 7670 C 700.217 -2.95006 2.01758 0
M  V30 7671 S 701.776 -3.85953 2.08771 0
M  V30 7672 H 698.594 -0.565651 0.430767 0
M  V30 7673 H 701.196 -1.04665 1.65122 0
M  V30 7674 H 699.9 -2.73973 3.0556 0
M  V30 7675 H 699.431 -3.60189 1.582 0
M  V30 7676 H 701.446 -4.81037 1.21727 0
M  V30 7677 N 700.619 -1.13374 -1.09472 0
M  V30 7678 C 701.552 -0.754354 -2.15371 0
M  V30 7679 C 702.53 0.259205 -1.60521 0
M  V30 7680 O 703.714 0.150819 -1.87896 0
M  V30 7681 C 700.841 -0.118197 -3.38494 0
M  V30 7682 C 699.887 -1.10017 -4.12066 0
M  V30 7683 S 700.72 -2.63242 -4.6633 0
M  V30 7684 C 701.876 -2.00984 -5.92753 0
M  V30 7685 H 702.109 -1.65135 -2.4722 0
M  V30 7686 H 699.642 -0.953838 -1.21414 0
M  V30 7687 H 701.6 0.242447 -4.09783 0
M  V30 7688 H 700.261 0.756065 -3.04865 0
M  V30 7689 H 699.454 -0.60287 -5.00381 0
M  V30 7690 H 699.056 -1.40426 -3.46636 0
M  V30 7691 H 701.348 -1.35863 -6.63738 0
M  V30 7692 H 702.291 -2.8738 -6.47162 0
M  V30 7693 H 702.699 -1.46161 -5.4525 0
M  V30 7694 N 702.098 1.27442 -0.927168 0
M  V30 7695 C 703.344 1.94679 -0.568164 0
M  V30 7696 C 703.677 1.72697 0.888219 0
M  V30 7697 O 702.952 1.05573 1.63354 0
M  V30 7698 C 703.235 3.4882 -0.894253 0
M  V30 7699 C 703.088 3.80146 -2.40435 0
M  V30 7700 C 704.407 4.38281 -0.399766 0
M  V30 7701 H 701.526 0.707071 -0.207892 0
M  V30 7702 H 704.168 1.50568 -1.15885 0
M  V30 7703 H 702.318 3.86522 -0.391566 0
M  V30 7704 H 703.99 3.52238 -2.97869 0
M  V30 7705 H 702.233 3.26716 -2.85375 0
M  V30 7706 H 702.904 4.87835 -2.58304 0
M  V30 7707 H 705.38 4.07726 -0.83058 0
M  V30 7708 H 704.256 5.44955 -0.656885 0
M  V30 7709 H 704.517 4.36521 0.700153 0
M  V30 7710 N 703.576 0.692616 1.41565 0
M  V30 7711 C 704.822 0.231408 2.02079 0
M  V30 7712 C 705.177 -1.15514 1.53864 0
M  V30 7713 O 704.47 -1.76786 0.73873 0
M  V30 7714 C 704.664 0.225073 3.56691 0
M  V30 7715 C 704.493 1.60947 4.19912 0
M  V30 7716 C 703.263 2.2116 4.54331 0
M  V30 7717 C 705.461 2.55553 4.46315 0
M  V30 7718 N 703.443 3.52195 5.02824 0
M  V30 7719 C 704.814 3.71263 4.96552 0
M  V30 7720 C 706.869 2.53857 4.28323 0
M  V30 7721 C 705.572 4.85555 5.30687 0
M  V30 7722 C 707.598 3.67259 4.63546 0
M  V30 7723 C 706.96 4.81699 5.13951 0
M  V30 7724 H 703.059 0.130001 0.771119 0
M  V30 7725 H 705.643 0.909459 1.72154 0
M  V30 7726 H 703.814 -0.422453 3.86096 0
M  V30 7727 H 705.546 -0.250685 4.03923 0
M  V30 7728 H 702.301 1.73474 4.40685 0
M  V30 7729 H 702.725 4.19354 5.3148 0
M  V30 7730 H 707.367 1.66598 3.88594 0
M  V30 7731 H 705.085 5.73477 5.69341 0
M  V30 7732 H 708.671 3.67195 4.51286 0
M  V30 7733 H 707.551 5.67995 5.40695 0
M  V30 7734 N 705.054 -1.51416 0.437162 0
M  V30 7735 C 706.331 -1.94682 -0.189292 0
M  V30 7736 C 706.711 -1.37581 -1.60108 0
M  V30 7737 O 706.059 -0.562815 -2.2146 0
M  V30 7738 C 706.269 -3.48599 -0.167201 0
M  V30 7739 C 707.617 -4.2296 -0.372856 0
M  V30 7740 O 708.641 -3.55354 -0.245323 0
M  V30 7741 O 707.5 -5.42895 -0.626693 0
M  V30 7742 H 704.594 -0.816708 -0.130063 0
M  V30 7743 H 707.14 -1.62316 0.495128 0
M  V30 7744 H 705.912 -3.82616 0.81981 0
M  V30 7745 H 705.535 -3.87406 -0.894537 0
M  V30 7746 N 706.532 -0.168513 -1.56696 0
M  V30 7747 C 707.943 0.348694 -1.83415 0
M  V30 7748 C 708.294 1.63257 -1.0882 0
M  V30 7749 O 707.419 2.13707 -0.340333 0
M  V30 7750 C 708.014 0.639423 -3.32711 0
M  V30 7751 C 706.573 1.10108 -3.59935 0
M  V30 7752 C 705.72 0.135464 -2.76969 0
M  V30 7753 H 708.671 -0.392829 -1.53761 0
M  V30 7754 H 708.692 1.49179 -3.50037 0
M  V30 7755 H 708.204 -0.295173 -3.86976 0
M  V30 7756 H 706.305 2.05088 -3.11079 0
M  V30 7757 H 706.418 1.01218 -4.68286 0
M  V30 7758 H 704.782 0.632286 -2.46727 0
M  V30 7759 H 705.565 -0.793104 -3.34013 0
M  V30 7760 N 708.01 1.57248 0.105221 0
M  V30 7761 C 708.943 1.96567 1.15916 0
M  V30 7762 C 709.921 0.837355 1.39381 0
M  V30 7763 O 711.105 1.09676 1.53308 0
M  V30 7764 C 708.232 2.27375 2.51035 0
M  V30 7765 C 707.278 3.49869 2.43913 0
M  V30 7766 S 708.111 5.01958 1.86543 0
M  V30 7767 C 709.267 5.35932 3.23307 0
M  V30 7768 H 709.5 2.85655 0.823931 0
M  V30 7769 H 707.033 1.51204 0.312515 0
M  V30 7770 H 708.991 2.45801 3.28774 0
M  V30 7771 H 707.652 1.38876 2.81731 0
M  V30 7772 H 706.845 3.68835 3.43477 0
M  V30 7773 H 706.447 3.30901 1.743 0
M  V30 7774 H 708.739 5.31958 4.19556 0
M  V30 7775 H 709.682 6.37047 3.09155 0
M  V30 7776 H 710.09 4.63397 3.22372 0
M  V30 7777 N 709.488 -0.375779 1.53054 0
M  V30 7778 C 710.42 -1.47963 1.75042 0
M  V30 7779 C 711.433 -1.50073 0.631031 0
M  V30 7780 O 712.622 -1.53736 0.907052 0
M  V30 7781 C 709.722 -2.86767 1.80604 0
M  V30 7782 C 708.895 -3.08471 3.10104 0
M  V30 7783 C 707.954 -4.27332 3.07041 0
M  V30 7784 O 706.98 -4.22998 3.80869 0
M  V30 7785 N 708.182 -5.34214 2.27147 0
M  V30 7786 H 710.947 -1.29484 2.70285 0
M  V30 7787 H 708.508 -0.565416 1.51706 0
M  V30 7788 H 710.5 -3.64404 1.76045 0
M  V30 7789 H 709.07 -2.98542 0.926897 0
M  V30 7790 H 708.29 -2.18583 3.28048 0
M  V30 7791 H 709.578 -3.19834 3.95706 0
M  V30 7792 H 708.976 -5.40594 1.66656 0
M  V30 7793 H 707.533 -6.10467 2.28415 0
M  V30 7794 N 710.966 -1.44241 -0.634997 0
M  V30 7795 C 711.898 -1.46793 -1.76024 0
M  V30 7796 C 712.911 -0.361781 -1.58729 0
M  V30 7797 O 714.1 -0.627297 -1.67114 0
M  V30 7798 C 711.2 -1.28248 -3.13697 0
M  V30 7799 C 710.373 -2.52038 -3.57485 0
M  V30 7800 C 709.432 -2.2845 -4.74022 0
M  V30 7801 O 708.458 -3.01915 -4.82531 0
M  V30 7802 N 709.66 -1.31264 -5.65464 0
M  V30 7803 H 712.425 -2.43797 -1.74307 0
M  V30 7804 H 709.986 -1.39631 -0.819438 0
M  V30 7805 H 711.978 -1.10321 -3.89373 0
M  V30 7806 H 710.548 -0.39623 -3.10079 0
M  V30 7807 H 709.768 -2.85268 -2.72059 0
M  V30 7808 H 711.056 -3.34382 -3.83492 0
M  V30 7809 H 710.454 -0.705817 -5.6128 0
M  V30 7810 H 709.011 -1.19316 -6.40786 0
M  V30 7811 N 712.444 0.87505 -1.31075 0
M  V30 7812 C 713.392 2.00317 -1.18219 0
M  V30 7813 C 714.386 1.69152 -0.0916872 0
M  V30 7814 O 715.592 1.7821 -0.253229 0
M  V30 7815 H 711.967 0.656981 -0.365895 0
M  V30 7816 H 713.938 2.08293 -2.13674 0
M  V30 7817 C 712.687 3.35821 -0.901095 0
M  V30 7818 H 712.01 3.6032 -1.73233 0
M  V30 7819 H 713.45 4.15366 -0.851295 0
M  V30 7820 C 711.909 3.34563 0.396114 0
M  V30 7821 O 712.439 3.75971 1.41452 0
M  V30 7822 N 710.645 2.87681 0.410832 0
M  V30 7823 H 710.192 2.54179 -0.418415 0
M  V30 7824 H 710.15 2.87223 1.27869 0
M  V30 7825 N 713.922 1.13953 1.08869 0
M  V30 7826 C 714.869 0.82213 2.15661 0
M  V30 7827 C 715.839 -0.218274 1.6466 0
M  V30 7828 O 717.024 -0.0892475 1.90591 0
M  V30 7829 C 714.164 0.300572 3.43789 0
M  V30 7830 C 713.277 1.40071 4.08661 0
M  V30 7831 C 712.412 0.836897 5.24566 0
M  V30 7832 C 711.451 1.91504 5.81371 0
M  V30 7833 N 710.588 1.36875 6.88629 0
M  V30 7834 H 715.428 1.73683 2.42153 0
M  V30 7835 H 712.965 0.866879 1.18843 0
M  V30 7836 H 714.923 -0.0199943 4.17195 0
M  V30 7837 H 713.553 -0.577248 3.17597 0
M  V30 7838 H 712.605 1.83776 3.33062 0
M  V30 7839 H 713.917 2.21534 4.46905 0
M  V30 7840 H 713.071 0.467953 6.04893 0
M  V30 7841 H 711.81 -0.00874207 4.87699 0
M  V30 7842 H 710.815 2.29299 4.99702 0
M  V30 7843 H 712.04 2.76419 6.20298 0
M  V30 7844 H 709.986 0.545211 6.5373 0
M  V30 7845 H 709.903 2.1198 7.25672 0
M  V30 7846 H 711.171 1.02756 7.72698 0
M  V30 7847 N 715.4 -1.26948 0.933913 0
M  V30 7848 C 716.31 -2.30366 0.443671 0
M  V30 7849 C 717.326 -1.67284 -0.478745 0
M  V30 7850 O 718.502 -1.98156 -0.360043 0
M  V30 7851 C 715.567 -3.45485 -0.289974 0
M  V30 7852 C 714.628 -4.24069 0.668114 0
M  V30 7853 C 713.861 -5.33691 -0.0306138 0
M  V30 7854 O 714.084 -5.5656 -1.24888 0
M  V30 7855 O 713.018 -5.98441 0.644384 0
M  V30 7856 H 716.844 -2.74349 1.30254 0
M  V30 7857 H 714.429 -1.32012 0.699506 0
M  V30 7858 H 716.311 -4.15486 -0.70353 0
M  V30 7859 H 714.986 -3.03546 -1.12435 0
M  V30 7860 H 713.893 -3.56579 1.13147 0
M  V30 7861 H 715.226 -4.69739 1.46989 0
M  V30 7862 N 716.879 -0.700114 -1.41195 0
M  V30 7863 C 717.809 -0.0521132 -2.33442 0
M  V30 7864 C 718.79 0.76228 -1.52063 0
M  V30 7865 O 719.975 0.714336 -1.80585 0
M  V30 7866 C 717.105 0.881693 -3.35922 0
M  V30 7867 C 716.059 0.174062 -4.27646 0
M  V30 7868 C 715.385 1.22254 -5.20536 0
M  V30 7869 C 716.685 -0.962396 -5.13357 0
M  V30 7870 H 718.379 -0.822574 -2.87879 0
M  V30 7871 H 715.925 -0.397011 -1.38419 0
M  V30 7872 H 717.878 1.34429 -3.99383 0
M  V30 7873 H 716.602 1.68387 -2.79845 0
M  V30 7874 H 715.261 -0.268551 -3.65615 0
M  V30 7875 H 714.909 2.01736 -4.60773 0
M  V30 7876 H 714.609 0.754038 -5.82742 0
M  V30 7877 H 716.133 1.68555 -5.86874 0
M  V30 7878 H 717.547 -0.579875 -5.7036 0
M  V30 7879 H 715.944 -1.35828 -5.84526 0
M  V30 7880 H 717.014 -1.80003 -4.50252 0
M  V30 7881 N 718.357 1.51182 -0.445186 0
M  V30 7882 C 719.307 2.24804 0.380394 0
M  V30 7883 C 720.291 1.27344 0.983482 0
M  V30 7884 O 721.483 1.52392 0.900322 0
M  V30 7885 C 718.612 3.09922 1.4766 0
M  V30 7886 C 717.698 4.14816 0.882517 0
M  V30 7887 N 718.089 5.05797 0.0183278 0
M  V30 7888 C 716.387 4.30938 1.14927 0
M  V30 7889 C 717.088 5.8084 -0.316152 0
M  V30 7890 N 716.064 5.42759 0.302214 0
M  V30 7891 H 719.866 2.92508 -0.285737 0
M  V30 7892 H 717.38 1.60342 -0.257733 0
M  V30 7893 H 719.377 3.61249 2.08098 0
M  V30 7894 H 718.037 2.43763 2.14498 0
M  V30 7895 H 719.048 5.16725 -0.348679 0
M  V30 7896 H 715.725 3.76005 1.81457 0
M  V30 7897 H 717.115 6.64115 -1.01986 0
M  V30 7898 N 719.835 0.176821 1.56605 0
M  V30 7899 C 720.767 -0.782836 2.15417 0
M  V30 7900 C 721.78 -1.18982 1.11117 0
M  V30 7901 O 722.969 -1.12872 1.38283 0
M  V30 7902 C 720.069 -2.06596 2.68647 0
M  V30 7903 C 719.242 -1.82167 3.9766 0
M  V30 7904 C 718.301 -2.94751 4.35899 0
M  V30 7905 O 717.327 -2.65148 5.03672 0
M  V30 7906 N 718.529 -4.2267 3.97907 0
M  V30 7907 H 721.294 -0.280012 2.98389 0
M  V30 7908 H 718.855 -0.00577529 1.61899 0
M  V30 7909 H 720.847 -2.81018 2.91223 0
M  V30 7910 H 719.417 -2.48054 1.90232 0
M  V30 7911 H 718.637 -0.916208 3.83405 0
M  V30 7912 H 719.925 -1.6322 4.81909 0
M  V30 7913 H 719.323 -4.4958 3.43357 0
M  V30 7914 H 717.88 -4.93778 4.25472 0
M  V30 7915 N 721.313 -1.57302 -0.09688 0
M  V30 7916 C 722.263 -1.98369 -1.12399 0
M  V30 7917 C 723.247 -0.861872 -1.3587 0
M  V30 7918 O 724.439 -1.1257 -1.36591 0
M  V30 7919 C 721.568 -2.41017 -2.4447 0
M  V30 7920 C 720.654 -3.59881 -2.24381 0
M  V30 7921 N 721.045 -4.74872 -1.74155 0
M  V30 7922 C 719.343 -3.65943 -2.54954 0
M  V30 7923 C 720.044 -5.56823 -1.68294 0
M  V30 7924 N 719.02 -4.99942 -2.13444 0
M  V30 7925 H 722.822 -2.84726 -0.728575 0
M  V30 7926 H 720.336 -1.59523 -0.304332 0
M  V30 7927 H 722.333 -2.68665 -3.18786 0
M  V30 7928 H 720.993 -1.56036 -2.84751 0
M  V30 7929 H 722.004 -4.97657 -1.43379 0
M  V30 7930 H 718.681 -2.9162 -2.98771 0
M  V30 7931 H 720.071 -6.59099 -1.30528 0
M  V30 7932 N 722.791 0.367657 -1.53252 0
M  V30 7933 C 724.037 1.11216 -1.69584 0
M  V30 7934 C 724.37 1.89026 -0.445269 0
M  V30 7935 O 723.645 1.86342 0.557404 0
M  V30 7936 C 723.928 2.07308 -2.94441 0
M  V30 7937 C 723.781 1.3312 -4.2965 0
M  V30 7938 C 725.1 3.07459 -3.14892 0
M  V30 7939 H 722.219 0.40294 -0.617096 0
M  V30 7940 H 724.861 0.393201 -1.85887 0
M  V30 7941 H 723.011 2.68617 -2.80673 0
M  V30 7942 H 724.683 0.746111 -4.55226 0
M  V30 7943 H 722.926 0.633051 -4.29156 0
M  V30 7944 H 723.597 2.03443 -5.13142 0
M  V30 7945 H 726.073 2.56252 -3.27832 0
M  V30 7946 H 724.949 3.71919 -4.03693 0
M  V30 7947 H 725.21 3.77514 -2.30077 0
M  V30 7948 N 724.269 1.44576 0.627338 0
M  V30 7949 C 725.216 1.51734 1.73912 0
M  V30 7950 C 726.186 0.364745 1.62046 0
M  V30 7951 O 727.371 0.575503 1.81914 0
M  V30 7952 C 724.511 1.47116 3.12171 0
M  V30 7953 C 723.624 2.72778 3.34986 0
M  V30 7954 C 722.759 2.59968 4.63239 0
M  V30 7955 C 721.798 3.80776 4.79245 0
M  V30 7956 N 720.935 3.66618 5.98778 0
M  V30 7957 H 725.775 2.46722 1.6713 0
M  V30 7958 H 723.312 1.22444 0.815224 0
M  V30 7959 H 725.27 1.42429 3.92135 0
M  V30 7960 H 723.9 0.556928 3.17959 0
M  V30 7961 H 722.952 2.87637 2.48936 0
M  V30 7962 H 724.264 3.62441 3.42692 0
M  V30 7963 H 723.418 2.53135 5.51369 0
M  V30 7964 H 722.157 1.67872 4.57898 0
M  V30 7965 H 721.162 3.87989 3.89544 0
M  V30 7966 H 722.387 4.73913 4.86398 0
M  V30 7967 H 720.333 2.77277 5.9452 0
M  V30 7968 H 720.25 4.499 6.07557 0
M  V30 7969 H 721.518 3.63684 6.89459 0
M  V30 7970 N 725.747 -0.868086 1.31537 0
M  V30 7971 C 726.679 -1.98165 1.15166 0
M  V30 7972 C 727.692 -1.6255 0.0902335 0
M  V30 7973 O 728.881 -1.75272 0.33791 0
M  V30 7974 C 725.981 -3.30772 0.737776 0
M  V30 7975 C 725.154 -3.94716 1.88462 0
M  V30 7976 C 724.213 -5.05641 1.45648 0
M  V30 7977 O 723.239 -5.2636 2.16642 0
M  V30 7978 N 724.441 -5.79474 0.34493 0
M  V30 7979 H 727.206 -2.12754 2.11083 0
M  V30 7980 H 724.767 -1.04217 1.23897 0
M  V30 7981 H 726.759 -4.02366 0.434032 0
M  V30 7982 H 725.329 -3.1233 -0.129834 0
M  V30 7983 H 724.549 -3.16079 2.35558 0
M  V30 7984 H 725.837 -4.34175 2.65273 0
M  V30 7985 H 725.235 -5.65164 -0.246259 0
M  V30 7986 H 723.792 -6.51722 0.100728 0
M  V30 7987 N 727.225 -1.14528 -1.08264 0
M  V30 7988 C 728.155 -0.856356 -2.1723 0
M  V30 7989 C 729.136 0.189251 -1.69044 0
M  V30 7990 O 730.321 0.0456119 -1.94146 0
M  V30 7991 C 727.451 -0.334662 -3.45684 0
M  V30 7992 C 726.405 -1.31588 -4.0727 0
M  V30 7993 C 725.731 -0.653428 -5.30692 0
M  V30 7994 C 727.031 -2.67866 -4.48381 0
M  V30 7995 H 728.725 -1.76755 -2.41657 0
M  V30 7996 H 726.271 -0.851287 -1.16143 0
M  V30 7997 H 728.224 -0.120128 -4.21229 0
M  V30 7998 H 726.948 0.611967 -3.20815 0
M  V30 7999 H 725.607 -1.51661 -3.33758 0
M  V30 8000 H 725.255 0.299054 -5.0211 0
M  V30 8001 H 724.955 -1.30817 -5.72853 0
M  V30 8002 H 726.479 -0.448453 -6.08951 0
M  V30 8003 H 727.893 -2.51692 -5.15096 0
M  V30 8004 H 726.29 -3.29627 -5.01464 0
M  V30 8005 H 727.36 -3.24632 -3.60198 0
M  V30 8006 N 728.703 1.26451 -0.940633 0
M  V30 8007 C 729.952 1.93071 -0.583656 0
M  V30 8008 C 730.265 1.74618 0.881366 0
M  V30 8009 O 731.471 2.35689 1.34769 0
M  V30 8010 C 729.927 3.45927 -0.993106 0
M  V30 8011 C 729.535 3.73115 -2.4797 0
M  V30 8012 C 731.279 4.18554 -0.707998 0
M  V30 8013 C 729.186 5.19408 -2.82788 0
M  V30 8014 H 728.116 0.722824 -0.214572 0
M  V30 8015 H 730.767 1.43538 -1.1432 0
M  V30 8016 H 729.149 3.94341 -0.362099 0
M  V30 8017 H 730.323 3.35408 -3.15971 0
M  V30 8018 H 728.638 3.13719 -2.73805 0
M  V30 8019 H 731.235 5.26293 -0.94447 0
M  V30 8020 H 731.578 4.14782 0.355225 0
M  V30 8021 H 732.111 3.76003 -1.2987 0
M  V30 8022 H 728.85 5.28281 -3.88071 0
M  V30 8023 H 728.37 5.58214 -2.19449 0
M  V30 8024 H 730.049 5.87407 -2.71224 0
M  V30 8025 N 730.181 0.707592 1.40822 0
M  V30 8026 C 731.144 0.0587224 2.29125 0
M  V30 8027 C 732.144 -0.695624 1.44975 0
M  V30 8028 O 733.334 -0.528718 1.65983 0
M  V30 8029 C 730.466 -0.926939 3.28056 0
M  V30 8030 H 731.659 0.836349 2.88002 0
M  V30 8031 H 729.212 0.471778 1.4901 0
M  V30 8032 H 729.947 -1.7319 2.74182 0
M  V30 8033 H 729.732 -0.389015 3.90165 0
M  V30 8034 H 731.222 -1.37837 3.94196 0
M  V30 8035 N 731.66 -1.50943 0.453197 0
M  V30 8036 C 732.59 -2.31005 -0.34044 0
M  V30 8037 C 733.571 -1.37112 -1.00669 0
M  V30 8038 O 734.756 -1.66033 -1.0073 0
M  V30 8039 C 731.886 -3.16358 -1.433 0
M  V30 8040 C 730.84 -4.18658 -0.889363 0
M  V30 8041 C 730.166 -4.92633 -2.07887 0
M  V30 8042 C 731.466 -5.22227 0.0871142 0
M  V30 8043 H 733.16 -2.97601 0.327723 0
M  V30 8044 H 730.706 -1.43119 0.159054 0
M  V30 8045 H 732.659 -3.71155 -1.99555 0
M  V30 8046 H 731.383 -2.47613 -2.12968 0
M  V30 8047 H 730.042 -3.64936 -0.348915 0
M  V30 8048 H 729.69 -4.20376 -2.76211 0
M  V30 8049 H 729.39 -5.61819 -1.72143 0
M  V30 8050 H 730.914 -5.50258 -2.64666 0
M  V30 8051 H 732.328 -5.72001 -0.385656 0
M  V30 8052 H 730.725 -5.99032 0.357926 0
M  V30 8053 H 731.795 -4.74077 1.01879 0
M  V30 8054 N 733.138 -0.185124 -1.56509 0
M  V30 8055 C 734.554 0.170865 -1.58683 0
M  V30 8056 C 734.754 1.61799 -1.20098 0
M  V30 8057 O 733.81 2.35181 -0.919038 0
M  V30 8058 C 735.123 -0.122459 -3.00451 0
M  V30 8059 C 736.671 -0.0617699 -3.12939 0
M  V30 8060 C 737.146 -0.328269 -4.56822 0
M  V30 8061 N 738.637 -0.276533 -4.62374 0
M  V30 8062 C 739.372 -0.456722 -5.71578 0
M  V30 8063 N 738.868 -0.69672 -6.89288 0
M  V30 8064 N 740.661 -0.391669 -5.60734 0
M  V30 8065 H 732.812 -1.12956 -1.79874 0
M  V30 8066 H 735.075 -0.45011 -0.834329 0
M  V30 8067 H 734.781 -1.12546 -3.33206 0
M  V30 8068 H 734.655 0.579578 -3.72721 0
M  V30 8069 H 737.042 0.931826 -2.80002 0
M  V30 8070 H 737.123 -0.796732 -2.43076 0
M  V30 8071 H 736.767 -1.31914 -4.9047 0
M  V30 8072 H 736.697 0.427465 -5.24862 0
M  V30 8073 H 739.188 -0.0972458 -3.77775 0
M  V30 8074 H 739.501 -0.823291 -7.68402 0
M  V30 8075 H 737.846 -0.733497 -6.91119 0
M  V30 8076 H 741.037 -0.204663 -4.67652 0
M  V30 8077 H 741.21 -0.535518 -6.45783 0
M  V30 8078 N 734.616 1.57351 0.0885366 0
M  V30 8079 C 735.563 2.02523 1.10693 0
M  V30 8080 C 736.533 0.902736 1.39427 0
M  V30 8081 O 737.718 1.16921 1.50779 0
M  V30 8082 C 734.858 2.46013 2.42016 0
M  V30 8083 C 733.971 3.7181 2.19957 0
M  V30 8084 C 733.106 4.04152 3.44724 0
M  V30 8085 C 732.145 5.2304 3.17956 0
M  V30 8086 N 731.282 5.51102 4.35007 0
M  V30 8087 H 736.122 2.89302 0.714742 0
M  V30 8088 H 733.659 1.43084 0.341378 0
M  V30 8089 H 735.617 2.69274 3.18665 0
M  V30 8090 H 734.247 1.62235 2.79069 0
M  V30 8091 H 733.299 3.55987 1.34079 0
M  V30 8092 H 734.611 4.58604 1.96173 0
M  V30 8093 H 733.765 4.28225 4.29777 0
M  V30 8094 H 732.504 3.15893 3.71568 0
M  V30 8095 H 731.509 4.98781 2.31296 0
M  V30 8096 H 732.734 6.12902 2.92451 0
M  V30 8097 H 730.68 4.65802 4.61914 0
M  V30 8098 H 730.597 6.3228 4.14437 0
M  V30 8099 H 731.865 5.79714 5.21106 0
M  V30 8100 N 736.094 -0.359525 1.53444 0
M  V30 8101 C 737.026 -1.46098 1.76602 0
M  V30 8102 C 738.039 -1.49395 0.646912 0
M  V30 8103 O 739.228 -1.52765 0.923307 0
M  V30 8104 C 736.328 -2.84836 1.83635 0
M  V30 8105 C 735.501 -3.05164 3.13358 0
M  V30 8106 C 734.56 -4.24051 3.11556 0
M  V30 8107 O 733.586 -4.18935 3.85334 0
M  V30 8108 N 734.788 -5.31775 2.328 0
M  V30 8109 H 737.553 -1.2661 2.71643 0
M  V30 8110 H 735.114 -0.549294 1.52297 0
M  V30 8111 H 737.106 -3.62516 1.799 0
M  V30 8112 H 735.676 -2.97542 0.958509 0
M  V30 8113 H 734.896 -2.15091 3.30348 0
M  V30 8114 H 736.184 -3.15619 3.99076 0
M  V30 8115 H 735.582 -5.38796 1.7238 0
M  V30 8116 H 734.139 -6.0801 2.34877 0
M  V30 8117 N 737.572 -1.44907 -0.619662 0
M  V30 8118 C 738.802 -1.51575 -1.40387 0
M  V30 8119 C 739.21 -0.14309 -1.88658 0
M  V30 8120 O 738.553 0.863403 -1.62145 0
M  V30 8121 C 738.615 -2.42858 -2.65067 0
M  V30 8122 C 738.279 -3.8982 -2.38515 0
M  V30 8123 C 739.276 -4.80047 -1.99627 0
M  V30 8124 C 736.961 -4.34628 -2.51801 0
M  V30 8125 C 738.955 -6.13086 -1.74369 0
M  V30 8126 C 736.642 -5.67712 -2.26156 0
M  V30 8127 C 737.64 -6.56759 -1.875 0
M  V30 8128 O 737.328 -7.87377 -1.62148 0
M  V30 8129 H 737.06 -0.51612 -0.436573 0
M  V30 8130 H 739.614 -1.90664 -0.763959 0
M  V30 8131 H 737.844 -1.98717 -3.31735 0
M  V30 8132 H 739.533 -2.40346 -3.27091 0
M  V30 8133 H 740.299 -4.46697 -1.8891 0
M  V30 8134 H 736.178 -3.65568 -2.80857 0
M  V30 8135 H 739.722 -6.8255 -1.44122 0
M  V30 8136 H 735.619 -6.0062 -2.36486 0
M  V30 8137 H 736.387 -7.99288 -1.763 0
M  V30 8138 N 739.05 0.861098 -1.31996 0
M  V30 8139 C 740.466 1.14827 -1.10846 0
M  V30 8140 C 740.666 2.0117 0.11528 0
M  V30 8141 O 739.722 2.39423 0.802048 0
M  V30 8142 C 741.035 1.83183 -2.38462 0
M  V30 8143 C 742.583 1.95847 -2.44158 0
M  V30 8144 C 743.058 2.67617 -3.71679 0
M  V30 8145 N 744.549 2.75147 -3.72624 0
M  V30 8146 C 745.284 3.31314 -4.67994 0
M  V30 8147 N 744.78 3.88343 -5.73726 0
M  V30 8148 N 746.573 3.29356 -4.55501 0
M  V30 8149 H 738.724 0.285951 -2.10466 0
M  V30 8150 H 740.987 0.189303 -0.928907 0
M  V30 8151 H 740.693 1.27193 -3.27895 0
M  V30 8152 H 740.567 2.83393 -2.48935 0
M  V30 8153 H 742.954 2.50999 -1.55189 0
M  V30 8154 H 743.035 0.94653 -2.37644 0
M  V30 8155 H 742.679 2.13131 -4.61018 0
M  V30 8156 H 742.609 3.69237 -3.75462 0
M  V30 8157 H 745.1 2.34682 -2.96197 0
M  V30 8158 H 745.413 4.29338 -6.42564 0
M  V30 8159 H 743.758 3.86693 -5.77489 0
M  V30 8160 H 746.949 2.84047 -3.72069 0
M  V30 8161 H 747.122 3.7283 -5.30001 0
M  V30 8162 N 740.528 1.15101 1.07655 0
M  V30 8163 C 741.753 0.948177 1.84457 0
M  V30 8164 C 742.178 -0.498432 1.81376 0
M  V30 8165 O 741.536 -1.35509 1.20445 0
M  V30 8166 C 741.584 1.46318 3.29581 0
M  V30 8167 O 740.688 0.660342 4.07079 0
M  V30 8168 H 740.029 0.338428 0.571281 0
M  V30 8169 H 742.559 1.5301 1.35828 0
M  V30 8170 H 742.569 1.47468 3.80417 0
M  V30 8171 H 741.244 2.51635 3.31138 0
M  V30 8172 H 739.821 0.718216 3.65918 0
M  V30 8173 N 742.006 -1.2595 0.947325 0
M  V30 8174 C 742.936 -2.28521 0.479604 0
M  V30 8175 C 743.917 -1.63469 -0.470293 0
M  V30 8176 O 745.102 -1.90627 -0.370824 0
M  V30 8177 C 742.232 -3.46397 -0.250289 0
M  V30 8178 C 741.186 -4.23578 0.613643 0
M  V30 8179 C 740.512 -5.34131 -0.246568 0
M  V30 8180 C 741.812 -4.86979 1.88809 0
M  V30 8181 H 743.506 -2.67895 1.33688 0
M  V30 8182 H 741.052 -1.28783 0.644274 0
M  V30 8183 H 743.005 -4.17269 -0.588576 0
M  V30 8184 H 741.729 -3.05993 -1.14175 0
M  V30 8185 H 740.388 -3.54478 0.93491 0
M  V30 8186 H 740.036 -4.89968 -1.13756 0
M  V30 8187 H 739.736 -5.86683 0.328123 0
M  V30 8188 H 741.26 -6.07839 -0.579986 0
M  V30 8189 H 742.674 -5.50034 1.61666 0
M  V30 8190 H 741.071 -5.49675 2.40784 0
M  V30 8191 H 742.141 -4.09575 2.5957 0
M  V30 8192 N 743.484 -0.715051 -1.40445 0
M  V30 8193 C 744.9 -0.388555 -1.54798 0
M  V30 8194 C 745.1 1.10271 -1.68649 0
M  V30 8195 O 744.156 1.88875 -1.67578 0
M  V30 8196 C 745.469 -1.15414 -2.77669 0
M  V30 8197 C 747.017 -1.14039 -2.91486 0
M  V30 8198 C 747.492 -1.88812 -4.1727 0
M  V30 8199 N 748.983 -1.85878 -4.24268 0
M  V30 8200 C 749.718 -2.40558 -5.20499 0
M  V30 8201 N 749.214 -3.03791 -6.22642 0
M  V30 8202 N 751.007 -2.30703 -5.12574 0
M  V30 8203 H 743.158 -1.68201 -1.297 0
M  V30 8204 H 745.421 -0.710915 -0.627139 0
M  V30 8205 H 745.127 -2.20853 -2.7371 0
M  V30 8206 H 745.001 -0.745412 -3.69761 0
M  V30 8207 H 747.388 -0.0941996 -2.9495 0
M  V30 8208 H 747.469 -1.58834 -2.00513 0
M  V30 8209 H 747.113 -2.93422 -4.14568 0
M  V30 8210 H 747.043 -1.41438 -5.0725 0
M  V30 8211 H 749.534 -1.39794 -3.51093 0
M  V30 8212 H 749.847 -3.43032 -6.92495 0
M  V30 8213 H 748.192 -3.07875 -6.23087 0
M  V30 8214 H 751.383 -1.80961 -4.31707 0
M  V30 8215 H 751.556 -2.73618 -5.87398 0
M  V30 8216 N 744.962 1.50701 -0.461195 0
M  V30 8217 C 746.378 1.59187 -0.114786 0
M  V30 8218 C 746.578 1.4702 1.37794 0
M  V30 8219 O 745.634 1.32361 2.15027 0
M  V30 8220 C 746.947 2.93453 -0.656167 0
M  V30 8221 C 748.495 3.06824 -0.618715 0
M  V30 8222 C 748.97 4.4365 -1.13747 0
M  V30 8223 N 750.461 4.50035 -1.09646 0
M  V30 8224 C 751.196 5.54278 -1.46846 0
M  V30 8225 N 750.692 6.65822 -1.91448 0
M  V30 8226 N 752.485 5.44767 -1.38512 0
M  V30 8227 H 744.636 1.56853 -1.43216 0
M  V30 8228 H 746.899 0.740712 -0.59165 0
M  V30 8229 H 746.605 3.07802 -1.7015 0
M  V30 8230 H 746.479 3.77082 -0.0942261 0
M  V30 8231 H 748.866 2.92129 0.417685 0
M  V30 8232 H 748.947 2.24976 -1.21734 0
M  V30 8233 H 748.591 4.59093 -2.17245 0
M  V30 8234 H 748.521 5.24074 -0.515153 0
M  V30 8235 H 751.012 3.69988 -0.769217 0
M  V30 8236 H 751.325 7.41413 -2.18007 0
M  V30 8237 H 749.67 6.66968 -1.95393 0
M  V30 8238 H 752.861 4.56511 -1.03516 0
M  V30 8239 H 753.034 6.25889 -1.6783 0
M  V30 8240 N 746.441 0.193421 1.56409 0
M  V30 8241 C 747.689 -0.444908 1.97142 0
M  V30 8242 C 748.01 -1.62268 1.08139 0
M  V30 8243 O 747.28 -1.95307 0.152326 0
M  V30 8244 H 745.86 -0.16736 0.728011 0
M  V30 8245 H 748.522 0.279763 1.92882 0
M  V30 8246 H 747.618 -0.790159 3.01932 0
M  V30 8247 N 747.919 -1.57396 -0.0801906 0
M  V30 8248 C 748.829 -2.06451 -1.11423 0
M  V30 8249 C 749.845 -0.992352 -1.42928 0
M  V30 8250 O 751.021 -1.30651 -1.53272 0
M  V30 8251 C 748.086 -2.49164 -2.41077 0
M  V30 8252 C 747.147 -3.70641 -2.16619 0
M  V30 8253 C 746.38 -4.11307 -3.40092 0
M  V30 8254 O 746.603 -3.51922 -4.48895 0
M  V30 8255 O 745.537 -5.04157 -3.288 0
M  V30 8256 H 749.363 -2.94857 -0.727519 0
M  V30 8257 H 746.948 -1.46484 -0.293743 0
M  V30 8258 H 748.83 -2.77196 -3.17396 0
M  V30 8259 H 747.505 -1.6389 -2.79145 0
M  V30 8260 H 746.412 -3.47703 -1.38033 0
M  V30 8261 H 747.745 -4.5674 -1.83437 0
M  V30 8262 N 749.397 0.351382 -1.53633 0
M  V30 8263 C 750.646 1.08988 -1.69719 0
M  V30 8264 C 750.959 1.90043 -0.462948 0
M  V30 8265 O 752.165 2.66769 -0.504613 0
M  V30 8266 C 750.621 1.98691 -3.00083 0
M  V30 8267 C 750.229 1.22881 -4.30818 0
M  V30 8268 C 751.973 2.72446 -3.25536 0
M  V30 8269 C 749.88 2.11568 -5.52262 0
M  V30 8270 H 748.81 0.410588 -0.632403 0
M  V30 8271 H 751.461 0.349886 -1.80133 0
M  V30 8272 H 749.843 2.76478 -2.83506 0
M  V30 8273 H 751.017 0.500582 -4.58073 0
M  V30 8274 H 749.332 0.60928 -4.11918 0
M  V30 8275 H 751.929 3.39055 -4.13456 0
M  V30 8276 H 752.272 3.38588 -2.42206 0
M  V30 8277 H 752.805 2.01735 -3.42852 0
M  V30 8278 H 749.544 1.4998 -6.38111 0
M  V30 8279 H 749.064 2.82201 -5.29266 0
M  V30 8280 H 750.743 2.70802 -5.87601 0
M  V30 8281 N 750.875 1.45233 0.611969 0
M  V30 8282 C 752.1 1.52767 1.40274 0
M  V30 8283 C 752.525 0.159701 1.87421 0
M  V30 8284 O 751.883 -0.854837 1.59882 0
M  V30 8285 C 751.931 2.51286 2.58626 0
M  V30 8286 O 751.035 2.02764 3.59111 0
M  V30 8287 H 750.376 0.515141 0.418958 0
M  V30 8288 H 752.906 1.90547 0.745188 0
M  V30 8289 H 752.916 2.69949 3.05927 0
M  V30 8290 H 751.591 3.50641 2.23659 0
M  V30 8291 H 750.168 1.93957 3.18489 0
M  V30 8292 N 752.353 -0.854086 1.3245 0
M  V30 8293 C 753.6 -1.60831 1.23043 0
M  V30 8294 C 753.928 -1.93389 -0.2076 0
M  V30 8295 O 753.183 -1.5756 -1.16075 0
M  V30 8296 C 753.482 -2.93746 2.03587 0
M  V30 8297 C 753.148 -2.80615 3.52939 0
M  V30 8298 C 751.81 -2.76742 3.93659 0
M  V30 8299 C 754.162 -2.66507 4.4791 0
M  V30 8300 C 751.49 -2.56638 5.27592 0
M  V30 8301 C 753.842 -2.47939 5.81987 0
M  V30 8302 C 752.506 -2.42458 6.21909 0
M  V30 8303 H 751.776 -0.588523 0.450247 0
M  V30 8304 H 754.423 -0.990699 1.63882 0
M  V30 8305 H 752.728 -3.5963 1.55478 0
M  V30 8306 H 754.425 -3.51127 1.93677 0
M  V30 8307 H 751.015 -2.84456 3.20598 0
M  V30 8308 H 755.199 -2.68544 4.1737 0
M  V30 8309 H 750.455 -2.50831 5.57579 0
M  V30 8310 H 754.629 -2.36002 6.55192 0
M  V30 8311 H 752.256 -2.2664 7.2563 0
M  V30 8312 N 753.831 -1.1567 -1.07043 0
M  V30 8313 C 754.761 -0.879348 -2.16309 0
M  V30 8314 C 755.742 0.171311 -1.69235 0
M  V30 8315 O 756.927 0.0250175 -1.94184 0
M  V30 8316 C 754.057 -0.371307 -3.45309 0
M  V30 8317 C 753.011 -1.359 -4.05851 0
M  V30 8318 C 752.337 -0.709678 -5.29969 0
M  V30 8319 C 753.637 -2.72606 -4.45514 0
M  V30 8320 H 755.331 -1.79308 -2.39768 0
M  V30 8321 H 752.877 -0.863558 -1.15233 0
M  V30 8322 H 754.83 -0.164798 -4.21078 0
M  V30 8323 H 753.554 0.577906 -3.21446 0
M  V30 8324 H 752.213 -1.55193 -3.32131 0
M  V30 8325 H 751.861 0.245782 -5.02399 0
M  V30 8326 H 751.561 -1.36886 -5.71433 0
M  V30 8327 H 753.085 -0.513015 -6.08441 0
M  V30 8328 H 754.499 -2.57141 -5.12398 0
M  V30 8329 H 752.896 -3.34927 -4.97939 0
M  V30 8330 H 753.966 -3.28434 -3.56734 0
M  V30 8331 N 755.309 1.25446 -0.953992 0
M  V30 8332 C 756.259 2.23627 -0.444413 0
M  V30 8333 C 757.243 1.54004 0.465993 0
M  V30 8334 O 758.435 1.74454 0.29915 0
M  V30 8335 C 755.564 3.42179 0.277175 0
M  V30 8336 C 754.65 4.1907 -0.651263 0
M  V30 8337 N 755.041 4.73346 -1.78262 0
M  V30 8338 C 753.339 4.43628 -0.459338 0
M  V30 8339 C 754.04 5.31576 -2.36224 0
M  V30 8340 N 753.016 5.17991 -1.64884 0
M  V30 8341 H 756.818 2.63197 -1.30785 0
M  V30 8342 H 754.332 1.40677 -0.811402 0
M  V30 8343 H 756.329 4.11653 0.659367 0
M  V30 8344 H 754.989 3.04134 1.13723 0
M  V30 8345 H 756 4.705 -2.1645 0
M  V30 8346 H 752.677 4.15963 0.357885 0
M  V30 8347 H 754.067 5.84361 -3.3162 0
M  V30 8348 N 756.787 0.722489 1.40064 0
M  V30 8349 C 757.75 0.0830209 2.2905 0
M  V30 8350 C 758.75 -0.680208 1.45705 0
M  V30 8351 O 759.94 -0.511084 1.66534 0
M  V30 8352 C 757.072 -0.892092 3.29021 0
M  V30 8353 H 758.265 0.866848 2.87099 0
M  V30 8354 H 755.818 0.487556 1.48501 0
M  V30 8355 H 756.553 -1.70273 2.76003 0
M  V30 8356 H 756.338 -0.34761 3.90556 0
M  V30 8357 H 757.828 -1.33648 3.95636 0
M  V30 8358 N 758.265 -1.50454 0.469181 0
M  V30 8359 C 759.542 -1.9504 -0.147955 0
M  V30 8360 C 759.922 -1.40946 -1.57154 0
M  V30 8361 O 759.27 -0.609663 -2.20217 0
M  V30 8362 C 759.48 -3.48875 -0.0932198 0
M  V30 8363 C 760.828 -4.23655 -0.283056 0
M  V30 8364 O 761.852 -3.55795 -0.169892 0
M  V30 8365 O 760.711 -5.44102 -0.511396 0
M  V30 8366 H 757.805 -0.819283 -0.11271 0
M  V30 8367 H 760.351 -1.6123 0.529446 0
M  V30 8368 H 759.123 -3.80791 0.900784 0
M  V30 8369 H 758.746 -3.89217 -0.812161 0
M  V30 8370 N 759.743 -0.201713 -1.56304 0
M  V30 8371 C 761.02 0.483273 -1.89536 0
M  V30 8372 C 761.4 1.79176 -1.11621 0
M  V30 8373 O 760.748 2.27445 -0.219339 0
M  V30 8374 C 760.958 0.695604 -3.41998 0
M  V30 8375 C 762.306 1.012 -4.12364 0
M  V30 8376 O 763.33 0.783094 -3.47485 0
M  V30 8377 O 762.189 1.44534 -5.27041 0
M  V30 8378 H 759.283 0.252801 -0.787414 0
M  V30 8379 H 761.829 -0.24242 -1.6796 0
M  V30 8380 H 760.601 -0.228165 -3.90634 0
M  V30 8381 H 760.224 1.47351 -3.69288 0
M  V30 8382 N 761.222 1.57436 0.0718424 0
M  V30 8383 C 762.132 2.07039 1.10326 0
M  V30 8384 C 763.148 0.999918 1.424 0
M  V30 8385 O 764.324 1.31462 1.52577 0
M  V30 8386 C 761.389 2.50439 2.39752 0
M  V30 8387 C 760.45 3.71784 2.14651 0
M  V30 8388 C 759.683 4.13104 3.37906 0
M  V30 8389 O 759.906 3.54298 4.47023 0
M  V30 8390 O 758.84 5.05894 3.26121 0
M  V30 8391 H 762.666 2.95239 0.711872 0
M  V30 8392 H 760.251 1.46638 0.28597 0
M  V30 8393 H 762.133 2.78876 3.15921 0
M  V30 8394 H 760.808 1.65368 2.78271 0
M  V30 8395 H 759.715 3.48431 1.36187 0
M  V30 8396 H 761.048 4.57707 1.81012 0
M  V30 8397 N 762.7 -0.34323 1.53817 0
M  V30 8398 C 763.633 -1.44472 1.76644 0
M  V30 8399 C 764.611 -1.50498 0.615556 0
M  V30 8400 O 765.795 -1.6821 0.850751 0
M  V30 8401 C 762.922 -2.82705 1.86536 0
M  V30 8402 C 761.968 -2.94302 3.08688 0
M  V30 8403 S 762.801 -2.60739 4.67735 0
M  V30 8404 C 763.957 -4.01079 4.80506 0
M  V30 8405 H 764.19 -1.24893 2.69794 0
M  V30 8406 H 761.723 -0.538915 1.4469 0
M  V30 8407 H 763.681 -3.62342 1.92921 0
M  V30 8408 H 762.342 -2.9958 0.943975 0
M  V30 8409 H 761.535 -3.95593 3.12286 0
M  V30 8410 H 761.137 -2.22614 3.00531 0
M  V30 8411 H 763.429 -4.95603 4.61935 0
M  V30 8412 H 764.372 -4.02475 5.82597 0
M  V30 8413 H 764.78 -3.89119 4.08958 0
M  V30 8414 N 764.178 -1.45556 -0.604258 0
M  V30 8415 C 765.126 -1.5482 -1.7359 0
M  V30 8416 C 766.12 -0.417966 -1.64163 0
M  V30 8417 O 767.326 -0.594007 -1.69916 0
M  V30 8418 H 763.701 -0.486352 -0.573556 0
M  V30 8419 H 765.672 -2.5001 -1.62903 0
M  V30 8420 C 764.421 -1.53521 -3.11972 0
M  V30 8421 H 763.744 -2.39818 -3.19886 0
M  V30 8422 H 765.184 -1.64061 -3.90973 0
M  V30 8423 C 763.643 -0.260191 -3.35894 0
M  V30 8424 O 764.173 0.658582 -3.96265 0
M  V30 8425 N 762.379 -0.154839 -2.90187 0
M  V30 8426 H 761.926 -0.903378 -2.4124 0
M  V30 8427 H 761.884 0.697437 -3.06567 0
M  V30 8428 N 765.656 0.84705 -1.32902 0
M  V30 8429 C 766.886 1.63166 -1.26729 0
M  V30 8430 C 767.294 1.88474 0.165595 0
M  V30 8431 O 766.637 1.45947 1.11558 0
M  V30 8432 C 766.699 3.0103 -1.96522 0
M  V30 8433 C 766.363 2.9873 -3.45846 0
M  V30 8434 C 767.36 2.75032 -4.41196 0
M  V30 8435 C 765.045 3.19125 -3.87898 0
M  V30 8436 C 767.039 2.71743 -5.76571 0
M  V30 8437 C 764.726 3.15462 -5.2338 0
M  V30 8438 C 765.724 2.91801 -6.17528 0
M  V30 8439 O 765.412 2.88027 -7.5053 0
M  V30 8440 H 765.144 0.51469 -0.438258 0
M  V30 8441 H 767.698 1.06383 -1.75704 0
M  V30 8442 H 765.928 3.59634 -1.42128 0
M  V30 8443 H 767.617 3.61821 -1.83958 0
M  V30 8444 H 768.383 2.59034 -4.10032 0
M  V30 8445 H 764.262 3.36565 -3.15032 0
M  V30 8446 H 767.806 2.53194 -6.5003 0
M  V30 8447 H 763.703 3.31006 -5.54171 0
M  V30 8448 H 764.471 3.03927 -7.59981 0
M  V30 8449 N 767.134 1.16236 1.06428 0
M  V30 8450 C 768.064 0.890807 2.1584 0
M  V30 8451 C 769.045 -0.162333 1.69324 0
M  V30 8452 O 770.23 -0.0147191 1.94194 0
M  V30 8453 C 767.36 0.389615 3.45108 0
M  V30 8454 C 766.314 1.38051 4.05125 0
M  V30 8455 C 765.64 0.737773 5.29586 0
M  V30 8456 C 766.94 2.74965 4.44062 0
M  V30 8457 H 768.634 1.80577 2.38814 0
M  V30 8458 H 766.18 0.869657 1.14774 0
M  V30 8459 H 768.133 0.187127 4.20984 0
M  V30 8460 H 766.857 -0.560851 3.21748 0
M  V30 8461 H 765.516 1.56952 3.31303 0
M  V30 8462 H 765.164 -0.219135 5.02522 0
M  V30 8463 H 764.864 1.39914 5.70699 0
M  V30 8464 H 766.388 0.545275 6.0816 0
M  V30 8465 H 767.802 2.59855 5.11027 0
M  V30 8466 H 766.199 3.37563 4.96156 0
M  V30 8467 H 767.269 3.30321 3.54987 0
M  V30 8468 N 768.612 -1.24939 0.960631 0
M  V30 8469 C 769.861 -1.92118 0.614298 0
M  V30 8470 C 770.174 -1.75998 -0.853474 0
M  V30 8471 O 771.38 -2.37804 -1.31003 0
M  V30 8472 C 769.836 -3.44303 1.04801 0
M  V30 8473 C 769.444 -3.69123 2.53875 0
M  V30 8474 C 771.188 -4.17375 0.774497 0
M  V30 8475 C 769.095 -5.14843 2.91016 0
M  V30 8476 H 768.025 -0.719319 0.226045 0
M  V30 8477 H 770.676 -1.41701 1.16589 0
M  V30 8478 H 769.058 -3.93715 0.42479 0
M  V30 8479 H 770.232 -3.30339 3.21267 0
M  V30 8480 H 768.547 -3.09323 2.78762 0
M  V30 8481 H 771.144 -5.24723 1.02808 0
M  V30 8482 H 771.487 -4.15294 -0.289192 0
M  V30 8483 H 772.02 -3.7389 1.35835 0
M  V30 8484 H 768.759 -5.2204 3.96427 0
M  V30 8485 H 768.279 -5.54652 2.28302 0
M  V30 8486 H 769.958 -5.83017 2.80535 0
M  V30 8487 N 770.09 -0.729906 -1.39679 0
M  V30 8488 C 771.32 -0.285295 -2.04621 0
M  V30 8489 C 771.728 1.08304 -1.55135 0
M  V30 8490 O 771.071 1.6946 -0.709146 0
M  V30 8491 C 771.133 -0.203129 -3.58926 0
M  V30 8492 C 770.797 -1.50909 -4.31365 0
M  V30 8493 C 771.794 -2.45381 -4.58349 0
M  V30 8494 C 769.479 -1.77198 -4.70007 0
M  V30 8495 C 771.473 -3.64379 -5.22979 0
M  V30 8496 C 769.16 -2.96474 -5.34365 0
M  V30 8497 C 770.158 -3.89886 -5.60783 0
M  V30 8498 O 769.846 -5.07069 -6.23808 0
M  V30 8499 H 769.578 -0.123373 -0.664647 0
M  V30 8500 H 772.132 -0.992901 -1.79807 0
M  V30 8501 H 770.362 0.560538 -3.82616 0
M  V30 8502 H 772.051 0.208811 -4.05363 0
M  V30 8503 H 772.817 -2.2634 -4.28947 0
M  V30 8504 H 768.696 -1.05337 -4.48804 0
M  V30 8505 H 772.24 -4.37307 -5.43515 0
M  V30 8506 H 768.137 -3.15419 -5.63188 0
M  V30 8507 H 768.905 -5.07335 -6.42303 0
M  V30 8508 N 771.568 1.50203 -0.477153 0
M  V30 8509 C 772.515 2.28656 0.31386 0
M  V30 8510 C 773.485 1.33977 0.981802 0
M  V30 8511 O 774.67 1.62919 0.993072 0
M  V30 8512 C 771.81 3.16027 1.38639 0
M  V30 8513 C 770.923 4.25743 0.732615 0
M  V30 8514 C 770.058 5.00363 1.78355 0
M  V30 8515 C 769.097 6.01945 1.11035 0
M  V30 8516 N 768.234 6.6982 2.10441 0
M  V30 8517 H 773.074 2.958 -0.361445 0
M  V30 8518 H 770.611 1.45867 -0.190093 0
M  V30 8519 H 772.569 3.6504 2.01994 0
M  V30 8520 H 771.199 2.50917 2.03077 0
M  V30 8521 H 770.251 3.80398 -0.0136546 0
M  V30 8522 H 771.563 4.98393 0.201513 0
M  V30 8523 H 770.717 5.53124 2.49276 0
M  V30 8524 H 769.456 4.27432 2.34847 0
M  V30 8525 H 768.461 5.48438 0.386797 0
M  V30 8526 H 769.686 6.76851 0.552248 0
M  V30 8527 H 767.632 5.99677 2.65939 0
M  V30 8528 H 767.549 7.38366 1.62332 0
M  V30 8529 H 768.817 7.27196 2.80724 0
M  V30 8530 N 773.046 0.209999 1.56195 0
M  V30 8531 C 773.993 -0.704854 2.19774 0
M  V30 8532 C 774.963 -1.19886 1.14964 0
M  V30 8533 O 776.148 -1.26005 1.43274 0
M  V30 8534 C 773.288 -1.91241 2.87265 0
M  V30 8535 C 772.401 -1.45838 4.06639 0
M  V30 8536 C 771.536 -2.6226 4.61945 0
M  V30 8537 C 770.575 -2.13537 5.73645 0
M  V30 8538 N 769.712 -3.2319 6.23292 0
M  V30 8539 H 774.552 -0.155944 2.97592 0
M  V30 8540 H 772.089 -0.0652235 1.46955 0
M  V30 8541 H 774.047 -2.62123 3.24573 0
M  V30 8542 H 772.677 -2.43439 2.11985 0
M  V30 8543 H 771.729 -0.644897 3.74894 0
M  V30 8544 H 773.041 -1.06103 4.87384 0
M  V30 8545 H 772.195 -3.41243 5.01636 0
M  V30 8546 H 770.934 -3.05278 3.80338 0
M  V30 8547 H 769.939 -1.33013 5.33468 0
M  V30 8548 H 771.164 -1.71533 6.57079 0
M  V30 8549 H 769.11 -3.65711 5.44602 0
M  V30 8550 H 769.027 -2.8767 6.99129 0
M  V30 8551 H 770.295 -4.02342 6.67639 0
M  V30 8552 N 774.524 -1.57472 -0.0634922 0
M  V30 8553 C 775.752 -1.91887 -0.773767 0
M  V30 8554 C 776.167 -0.806733 -1.70696 0
M  V30 8555 O 775.524 0.219383 -1.81177 0
M  V30 8556 C 775.575 -3.26092 -1.56034 0
M  V30 8557 O 775.296 -4.33029 -0.66464 0
M  V30 8558 C 776.797 -3.74573 -2.37087 0
M  V30 8559 H 774.017 -0.634074 -0.219525 0
M  V30 8560 H 776.561 -2.04476 -0.0312828 0
M  V30 8561 H 774.716 -3.15004 -2.25502 0
M  V30 8562 H 775.13 -5.10291 -1.21258 0
M  V30 8563 H 776.604 -4.71084 -2.87722 0
M  V30 8564 H 777.081 -3.04003 -3.16984 0
M  V30 8565 H 777.687 -3.88631 -1.72759 0
M  V30 8566 N 776.003 0.335068 -1.53997 0
M  V30 8567 C 777.28 1.09188 -1.62288 0
M  V30 8568 C 777.66 2.0626 -0.449458 0
M  V30 8569 O 777.008 2.21596 0.557444 0
M  V30 8570 C 777.218 1.80403 -2.98757 0
M  V30 8571 C 778.566 2.33841 -3.54406 0
M  V30 8572 O 779.59 1.90487 -3.00987 0
M  V30 8573 O 778.449 3.1318 -4.47862 0
M  V30 8574 H 775.543 0.502621 -0.656736 0
M  V30 8575 H 778.089 0.33588 -1.66343 0
M  V30 8576 H 776.861 1.09732 -3.75599 0
M  V30 8577 H 776.484 2.62841 -2.9833 0
M  V30 8578 N 777.481 1.45874 0.596531 0
M  V30 8579 C 778.729 1.5017 1.35253 0
M  V30 8580 C 779.05 0.149246 1.94428 0
M  V30 8581 O 778.32 -0.82268 1.77789 0
M  V30 8582 H 776.9 0.553052 0.502138 0
M  V30 8583 H 779.562 1.81908 0.699671 0
M  V30 8584 H 778.658 2.24671 2.16632 0
M  V30 8585 N 778.959 -0.83999 1.33349 0
M  V30 8586 C 780.236 -1.57973 1.15342 0
M  V30 8587 C 780.616 -2.09226 -0.280632 0
M  V30 8588 O 779.964 -1.89317 -1.2795 0
M  V30 8589 C 780.174 -2.71446 2.19359 0
M  V30 8590 C 781.522 -3.40654 2.53456 0
M  V30 8591 O 782.546 -2.81686 2.18017 0
M  V30 8592 O 781.405 -4.47101 3.14266 0
M  V30 8593 H 778.499 -0.6964 0.446044 0
M  V30 8594 H 781.045 -0.882843 1.44927 0
M  V30 8595 H 779.817 -2.31205 3.1569 0
M  V30 8596 H 779.44 -3.488 1.90852 0
M  V30 8597 N 780.437 -1.16799 -1.0581 0
M  V30 8598 C 781.347 -0.893492 -2.16919 0
M  V30 8599 C 782.363 0.136061 -1.73467 0
M  V30 8600 O 783.539 -0.0417348 -2.01357 0
M  V30 8601 C 780.604 -0.403763 -3.44341 0
M  V30 8602 C 779.665 -1.49914 -4.02274 0
M  V30 8603 C 778.898 -1.03269 -5.23614 0
M  V30 8604 O 779.121 0.115647 -5.70283 0
M  V30 8605 O 778.055 -1.8231 -5.73626 0
M  V30 8606 H 781.881 -1.82274 -2.42919 0
M  V30 8607 H 779.466 -0.948361 -1.1544 0
M  V30 8608 H 781.348 -0.137874 -4.21174 0
M  V30 8609 H 780.023 0.497413 -3.19855 0
M  V30 8610 H 778.93 -1.81883 -3.26909 0
M  V30 8611 H 780.263 -2.3758 -4.31064 0
M  V30 8612 N 781.915 1.24427 -0.967243 0
M  V30 8613 C 783.143 1.96541 -0.646477 0
M  V30 8614 C 783.558 1.71753 0.783996 0
M  V30 8615 O 782.915 1.00102 1.52597 0
M  V30 8616 C 782.966 3.4983 -0.911098 0
M  V30 8617 O 782.687 3.7377 -2.28534 0
M  V30 8618 C 784.188 4.3916 -0.604458 0
M  V30 8619 H 781.408 0.626129 -0.241255 0
M  V30 8620 H 783.952 1.58268 -1.29505 0
M  V30 8621 H 782.107 3.86168 -0.308741 0
M  V30 8622 H 782.521 4.68154 -2.365 0
M  V30 8623 H 783.995 5.4557 -0.840069 0
M  V30 8624 H 784.472 4.36771 0.461273 0
M  V30 8625 H 785.078 4.08409 -1.1867 0
M  V30 8626 N 783.393 0.737304 1.3929 0
M  V30 8627 C 784.639 0.286681 2.00763 0
M  V30 8628 C 784.972 -1.12388 1.58375 0
M  V30 8629 O 784.247 -1.76661 0.813699 0
M  V30 8630 C 784.53 0.391147 3.57969 0
M  V30 8631 C 784.383 1.84165 4.1037 0
M  V30 8632 C 785.702 -0.225072 4.39524 0
M  V30 8633 H 782.821 0.105642 0.729389 0
M  V30 8634 H 785.463 0.933892 1.65464 0
M  V30 8635 H 783.613 -0.159875 3.88171 0
M  V30 8636 H 785.285 2.44972 3.90879 0
M  V30 8637 H 783.528 2.3622 3.63844 0
M  V30 8638 H 784.199 1.866 5.19504 0
M  V30 8639 H 786.675 0.244677 4.1538 0
M  V30 8640 H 785.551 -0.121646 5.48765 0
M  V30 8641 H 785.812 -1.31141 4.22202 0
M  V30 8642 N 784.871 -1.49948 0.485112 0
M  V30 8643 C 785.801 -2.31675 -0.291364 0
M  V30 8644 C 786.782 -1.39216 -0.977383 0
M  V30 8645 O 787.967 -1.68133 -0.971855 0
M  V30 8646 C 785.097 -3.19326 -1.36558 0
M  V30 8647 C 784.051 -4.2045 -0.800359 0
M  V30 8648 C 783.377 -4.96931 -1.97391 0
M  V30 8649 C 784.677 -5.21925 0.197867 0
M  V30 8650 H 786.371 -2.96839 0.390775 0
M  V30 8651 H 783.917 -1.42749 0.189375 0
M  V30 8652 H 785.87 -3.75304 -1.91638 0
M  V30 8653 H 784.594 -2.52074 -2.07668 0
M  V30 8654 H 783.253 -3.65594 -0.271428 0
M  V30 8655 H 782.901 -4.26141 -2.67232 0
M  V30 8656 H 782.601 -5.65344 -1.60187 0
M  V30 8657 H 784.125 -5.55749 -2.52935 0
M  V30 8658 H 785.539 -5.72691 -0.264239 0
M  V30 8659 H 783.936 -5.98138 0.484908 0
M  V30 8660 H 785.006 -4.71809 1.11912 0
M  V30 8661 N 786.349 -0.21828 -1.56081 0
M  V30 8662 C 787.595 0.414921 -1.9851 0
M  V30 8663 C 787.928 1.59648 -1.10573 0
M  V30 8664 O 787.203 1.93818 -0.162695 0
M  V30 8665 C 787.486 0.852647 -3.4986 0
M  V30 8666 C 787.339 -0.33232 -4.48571 0
M  V30 8667 C 788.658 1.70998 -4.05521 0
M  V30 8668 H 785.777 0.149344 -0.72171 0
M  V30 8669 H 788.419 -0.313858 -1.8739 0
M  V30 8670 H 786.569 1.47362 -3.59467 0
M  V30 8671 H 788.241 -0.970418 -4.50977 0
M  V30 8672 H 786.484 -0.980302 -4.22578 0
M  V30 8673 H 787.155 0.0168407 -5.51997 0
M  V30 8674 H 789.631 1.18606 -3.98838 0
M  V30 8675 H 788.507 1.98517 -5.11744 0
M  V30 8676 H 788.768 2.67219 -3.52202 0
M  V30 8677 N 787.827 1.57504 0.0551401 0
M  V30 8678 C 789.076 1.87237 0.750009 0
M  V30 8679 C 789.389 0.813268 1.77891 0
M  V30 8680 O 790.595 0.99898 2.52453 0
M  V30 8681 C 789.051 3.32187 1.38491 0
M  V30 8682 C 788.659 4.46267 0.393707 0
M  V30 8683 C 790.403 3.71101 2.06117 0
M  V30 8684 C 788.31 5.82265 1.03547 0
M  V30 8685 H 787.24 0.698524 0.283866 0
M  V30 8686 H 789.891 1.835 0.00365997 0
M  V30 8687 H 788.273 3.30588 2.18008 0
M  V30 8688 H 789.447 4.59289 -0.372865 0
M  V30 8689 H 787.762 4.16015 -0.17902 0
M  V30 8690 H 790.359 4.70012 2.54937 0
M  V30 8691 H 790.702 3.01751 2.86796 0
M  V30 8692 H 791.235 3.74762 1.33409 0
M  V30 8693 H 787.974 6.54949 0.268644 0
M  V30 8694 H 787.494 5.73012 1.7725 0
M  V30 8695 H 789.173 6.28148 1.55047 0
M  V30 8696 N 789.305 -0.326896 1.54172 0
M  V30 8697 C 790.554 -1.06274 1.71431 0
M  V30 8698 C 790.867 -1.89282 0.493123 0
M  V30 8699 O 792.073 -2.65933 0.54699 0
M  V30 8700 C 790.529 -1.93892 3.03206 0
M  V30 8701 C 790.137 -1.16011 4.32719 0
M  V30 8702 C 791.881 -2.67232 3.29829 0
M  V30 8703 C 789.788 -2.02755 5.55558 0
M  V30 8704 H 788.718 -0.400475 0.638855 0
M  V30 8705 H 791.369 -0.321184 1.80667 0
M  V30 8706 H 789.751 -2.71933 2.87869 0
M  V30 8707 H 790.925 -0.427643 4.58811 0
M  V30 8708 H 789.24 -0.54367 4.12836 0
M  V30 8709 H 791.837 -3.32434 4.18798 0
M  V30 8710 H 792.18 -3.34692 2.47562 0
M  V30 8711 H 792.713 -1.96255 3.46018 0
M  V30 8712 H 789.452 -1.3981 6.40417 0
M  V30 8713 H 788.972 -2.73745 5.33689 0
M  V30 8714 H 790.651 -2.61419 5.91835 0
M  V30 8715 N 790.784 -1.46188 -0.588786 0
M  V30 8716 C 791.732 -1.56653 -1.71938 0
M  V30 8717 C 792.726 -0.435354 -1.6371 0
M  V30 8718 O 793.932 -0.611996 -1.69277 0
M  V30 8719 H 790.307 -0.492408 -0.568365 0
M  V30 8720 H 792.278 -2.51724 -1.60242 0
M  V30 8721 C 791.027 -1.56822 -3.10326 0
M  V30 8722 H 790.35 -2.43198 -3.17325 0
M  V30 8723 H 791.79 -1.68199 -3.89211 0
M  V30 8724 C 790.249 -0.295802 -3.35599 0
M  V30 8725 O 790.779 0.616515 -3.96941 0
M  V30 8726 N 788.985 -0.185609 -2.90007 0
M  V30 8727 H 788.532 -0.928914 -2.40269 0
M  V30 8728 H 788.49 0.664883 -3.07289 0
M  V30 8729 N 792.262 0.832906 -1.33792 0
M  V30 8730 C 793.678 1.1245 -1.13257 0
M  V30 8731 C 793.878 2.01369 0.0725832 0
M  V30 8732 O 792.934 2.41071 0.751082 0
M  V30 8733 C 794.247 1.78084 -2.42294 0
M  V30 8734 C 795.795 1.90624 -2.48257 0
M  V30 8735 C 796.27 2.59673 -3.77271 0
M  V30 8736 N 797.761 2.67181 -3.78376 0
M  V30 8737 C 798.496 3.21313 -4.74916 0
M  V30 8738 N 797.992 3.76086 -5.81835 0
M  V30 8739 N 799.785 3.19621 -4.62384 0
M  V30 8740 H 791.936 0.241244 -2.11026 0
M  V30 8741 H 794.199 0.169557 -0.932713 0
M  V30 8742 H 793.905 1.20209 -3.30519 0
M  V30 8743 H 793.779 2.78049 -2.5489 0
M  V30 8744 H 796.166 2.4765 -1.60478 0
M  V30 8745 H 796.247 0.89591 -2.39598 0
M  V30 8746 H 795.891 2.03304 -4.65435 0
M  V30 8747 H 795.821 3.61189 -3.8321 0
M  V30 8748 H 798.312 2.28346 -3.01108 0
M  V30 8749 H 798.625 4.15612 -6.51526 0
M  V30 8750 H 796.97 3.74357 -5.85561 0
M  V30 8751 H 800.161 2.76091 -3.7801 0
M  V30 8752 H 800.334 3.61504 -5.37791 0
M  V30 8753 N 793.74 1.17359 1.05189 0
M  V30 8754 C 794.965 0.98709 1.82404 0
M  V30 8755 C 795.39 -0.459848 1.82392 0
M  V30 8756 O 794.748 -1.32924 1.23292 0
M  V30 8757 C 794.796 1.53276 3.26403 0
M  V30 8758 O 793.9 0.746541 4.05587 0
M  V30 8759 H 793.241 0.35047 0.563974 0
M  V30 8760 H 795.771 1.55856 1.32552 0
M  V30 8761 H 795.781 1.55504 3.77203 0
M  V30 8762 H 794.456 2.58603 3.25726 0
M  V30 8763 H 793.033 0.795671 3.64312 0
M  V30 8764 N 795.218 -1.23913 0.973828 0
M  V30 8765 C 796.495 -1.87539 0.555729 0
M  V30 8766 C 796.875 -1.87641 -0.967162 0
M  V30 8767 O 796.223 -1.35335 -1.84111 0
M  V30 8768 C 796.433 -3.29359 1.15427 0
M  V30 8769 C 797.781 -4.06 1.24294 0
M  V30 8770 O 798.805 -3.38554 1.10723 0
M  V30 8771 O 797.664 -5.26689 1.45813 0
M  V30 8772 H 794.758 -0.805769 0.186188 0
M  V30 8773 H 797.304 -1.31838 1.06849 0
M  V30 8774 H 796.076 -3.23817 2.19678 0
M  V30 8775 H 795.699 -3.92642 0.625925 0
M  V30 8776 N 796.696 -0.74468 -1.38897 0
M  V30 8777 C 797.628 -0.0713608 -2.29089 0
M  V30 8778 C 798.641 0.693224 -1.47303 0
M  V30 8779 O 799.83 0.535785 -1.70269 0
M  V30 8780 C 796.93 0.923078 -3.26087 0
M  V30 8781 C 796.103 0.217998 -4.36856 0
M  V30 8782 C 795.162 1.12192 -5.14101 0
M  V30 8783 O 794.188 0.595771 -5.66073 0
M  V30 8784 N 795.39 2.45082 -5.26227 0
M  V30 8785 H 798.155 -0.845906 -2.87514 0
M  V30 8786 H 795.716 -0.594712 -1.50581 0
M  V30 8787 H 797.708 1.53061 -3.74639 0
M  V30 8788 H 796.278 1.59876 -2.68623 0
M  V30 8789 H 795.498 -0.570134 -3.90055 0
M  V30 8790 H 796.786 -0.270248 -5.08082 0
M  V30 8791 H 796.184 2.90294 -4.85537 0
M  V30 8792 H 794.741 3.00907 -5.78185 0
M  V30 8793 N 798.174 1.49689 -0.493057 0
M  V30 8794 C 799.121 2.28976 0.28959 0
M  V30 8795 C 800.091 1.35011 0.967536 0
M  V30 8796 O 801.276 1.63964 0.975736 0
M  V30 8797 C 798.416 3.1748 1.35279 0
M  V30 8798 C 797.529 4.26496 0.687418 0
M  V30 8799 C 796.664 5.02226 1.73038 0
M  V30 8800 C 795.703 6.03089 1.04645 0
M  V30 8801 N 794.84 6.72014 2.03325 0
M  V30 8802 H 799.68 2.954 -0.392798 0
M  V30 8803 H 797.217 1.45657 -0.205554 0
M  V30 8804 H 799.175 3.67162 1.98111 0
M  V30 8805 H 797.805 2.53057 2.00405 0
M  V30 8806 H 796.857 3.80362 -0.0540001 0
M  V30 8807 H 798.169 4.98578 0.14864 0
M  V30 8808 H 797.323 5.55737 2.43395 0
M  V30 8809 H 796.062 4.29899 2.303 0
M  V30 8810 H 795.067 5.48817 0.328606 0
M  V30 8811 H 796.292 6.77398 0.480428 0
M  V30 8812 H 794.238 6.02464 2.59564 0
M  V30 8813 H 794.155 7.40046 1.54492 0
M  V30 8814 H 795.423 7.30133 2.72995 0
M  V30 8815 N 799.652 0.226554 1.55963 0
M  V30 8816 C 800.615 -0.668015 2.19249 0
M  V30 8817 C 801.615 -1.11794 1.1558 0
M  V30 8818 O 802.805 -1.02593 1.40784 0
M  V30 8819 C 799.937 -1.91571 2.81981 0
M  V30 8820 H 801.13 -0.116175 2.99675 0
M  V30 8821 H 798.683 -0.0230497 1.56283 0
M  V30 8822 H 799.418 -2.50929 2.05439 0
M  V30 8823 H 799.203 -1.6015 3.57903 0
M  V30 8824 H 800.693 -2.55294 3.30477 0
M  V30 8825 N 801.13 -1.57531 -0.0467866 0
M  V30 8826 C 802.407 -1.79568 -0.775536 0
M  V30 8827 C 802.787 -0.820322 -1.94509 0
M  V30 8828 O 802.135 0.14134 -2.28062 0
M  V30 8829 C 802.345 -3.26789 -1.22516 0
M  V30 8830 C 803.693 -3.91299 -1.64835 0
M  V30 8831 O 804.717 -3.30831 -1.3202 0
M  V30 8832 O 803.576 -4.97727 -2.25677 0
M  V30 8833 H 800.67 -0.737817 -0.373572 0
M  V30 8834 H 803.216 -1.69682 -0.0249302 0
M  V30 8835 H 801.988 -3.89357 -0.389446 0
M  V30 8836 H 801.611 -3.41496 -2.03633 0
M  V30 8837 N 802.608 0.318715 -1.54344 0
M  V30 8838 C 803.857 1.05363 -1.71993 0
M  V30 8839 C 804.17 1.89018 -0.503155 0
M  V30 8840 O 805.376 2.65639 -0.561085 0
M  V30 8841 C 803.832 1.92281 -3.0423 0
M  V30 8842 C 803.44 1.13715 -4.33328 0
M  V30 8843 C 805.184 2.65479 -3.31242 0
M  V30 8844 C 803.091 1.99806 -5.56625 0
M  V30 8845 H 802.021 0.397081 -0.64097 0
M  V30 8846 H 804.672 0.311598 -1.80835 0
M  V30 8847 H 803.054 2.70402 -2.89307 0
M  V30 8848 H 804.228 0.403305 -4.59032 0
M  V30 8849 H 802.543 0.521769 -4.13118 0
M  V30 8850 H 805.14 3.30209 -4.20555 0
M  V30 8851 H 805.483 3.33374 -2.49334 0
M  V30 8852 H 806.016 1.94417 -3.47054 0
M  V30 8853 H 802.755 1.36411 -6.41149 0
M  V30 8854 H 802.275 2.70911 -5.35133 0
M  V30 8855 H 803.954 2.58277 -5.93213 0
M  V30 8856 N 804.086 1.46499 0.581025 0
M  V30 8857 C 805.497 1.4604 1.16315 0
M  V30 8858 C 805.848 0.202154 1.95156 0
M  V30 8859 O 804.973 -0.694638 2.04948 0
M  V30 8860 C 805.568 2.64593 2.11604 0
M  V30 8861 C 804.127 2.6717 2.65136 0
M  V30 8862 C 803.274 2.38753 1.4104 0
M  V30 8863 H 806.225 1.54354 0.368871 0
M  V30 8864 H 806.246 2.40207 2.95095 0
M  V30 8865 H 805.758 3.56154 1.54194 0
M  V30 8866 H 803.859 1.79685 3.26411 0
M  V30 8867 H 803.972 3.67182 3.07757 0
M  V30 8868 H 802.336 1.88845 1.70908 0
M  V30 8869 H 803.119 3.32493 0.854588 0
M  V30 8870 N 805.565 -0.825799 1.34232 0
M  V30 8871 C 806.814 -1.57686 1.2577 0
M  V30 8872 C 807.127 -1.94848 -0.171372 0
M  V30 8873 O 808.333 -2.68854 -0.378123 0
M  V30 8874 C 806.789 -2.84478 2.20454 0
M  V30 8875 C 806.397 -2.54629 3.68603 0
M  V30 8876 C 808.141 -3.625 2.20893 0
M  V30 8877 C 806.048 -3.77597 4.55164 0
M  V30 8878 H 804.978 -0.591809 0.467203 0
M  V30 8879 H 807.629 -0.909421 1.59379 0
M  V30 8880 H 806.011 -3.52832 1.79793 0
M  V30 8881 H 807.185 -1.94404 4.17784 0
M  V30 8882 H 805.5 -1.89888 3.70582 0
M  V30 8883 H 808.097 -4.538 2.82789 0
M  V30 8884 H 808.44 -3.98404 1.20746 0
M  V30 8885 H 808.973 -3.01086 2.59985 0
M  V30 8886 H 805.712 -3.46815 5.56237 0
M  V30 8887 H 805.232 -4.37116 4.10719 0
M  V30 8888 H 806.911 -4.45039 4.69627 0
M  V30 8889 N 807.043 -1.17915 -1.04565 0
M  V30 8890 C 808.454 -0.976383 -1.59134 0
M  V30 8891 C 808.805 0.475267 -1.90357 0
M  V30 8892 O 807.93 1.35172 -1.6899 0
M  V30 8893 C 808.525 -1.76604 -2.89131 0
M  V30 8894 C 807.084 -1.60777 -3.40335 0
M  V30 8895 C 806.231 -1.76369 -2.13985 0
M  V30 8896 H 809.182 -1.32532 -0.872985 0
M  V30 8897 H 809.203 -1.25215 -3.59307 0
M  V30 8898 H 808.715 -2.82252 -2.66375 0
M  V30 8899 H 806.816 -0.576436 -3.68114 0
M  V30 8900 H 806.929 -2.40268 -4.14497 0
M  V30 8901 H 805.293 -1.19268 -2.25049 0
M  V30 8902 H 806.076 -2.83441 -1.9369 0
M  V30 8903 N 808.521 1.23394 -0.980386 0
M  V30 8904 C 809.451 2.2717 -0.540024 0
M  V30 8905 C 810.432 1.64659 0.426787 0
M  V30 8906 O 811.617 1.91543 0.320153 0
M  V30 8907 C 808.747 3.46939 0.15836 0
M  V30 8908 C 807.701 4.21802 -0.725732 0
M  V30 8909 C 807.027 5.34597 0.104866 0
M  V30 8910 C 808.327 4.81802 -2.01654 0
M  V30 8911 H 810.021 2.64257 -1.40743 0
M  V30 8912 H 807.567 1.2703 -0.678193 0
M  V30 8913 H 809.52 4.18683 0.477737 0
M  V30 8914 H 808.244 3.08912 1.06022 0
M  V30 8915 H 806.903 3.51875 -1.02857 0
M  V30 8916 H 806.551 4.92812 1.00726 0
M  V30 8917 H 806.251 5.85607 -0.483557 0
M  V30 8918 H 807.775 6.09163 0.418624 0
M  V30 8919 H 809.189 5.45554 -1.76193 0
M  V30 8920 H 807.586 5.43098 -2.55273 0
M  V30 8921 H 808.656 4.02549 -2.70338 0
M  V30 8922 N 809.999 0.752036 1.385 0
M  V30 8923 C 811.276 0.233075 1.94206 0
M  V30 8924 C 811.656 -1.26838 1.68746 0
M  V30 8925 O 811.004 -2.04214 1.02513 0
M  V30 8926 C 811.214 0.58509 3.44061 0
M  V30 8927 C 812.562 0.543871 4.21102 0
M  V30 8928 O 813.586 0.523291 3.52335 0
M  V30 8929 O 812.445 0.553436 5.4369 0
M  V30 8930 H 809.539 0.0483049 0.825588 0
M  V30 8931 H 812.085 0.832053 1.47902 0
M  V30 8932 H 810.857 1.62212 3.56094 0
M  V30 8933 H 810.48 -0.0419738 3.97578 0
M  V30 8934 N 811.477 -1.49425 0.500989 0
M  V30 8935 C 812.44 -2.27646 -0.266416 0
M  V30 8936 C 813.44 -1.3366 -0.893961 0
M  V30 8937 O 814.63 -1.5682 -0.758495 0
M  V30 8938 C 811.762 -3.11618 -1.38227 0
M  V30 8939 H 812.955 -2.96945 0.419973 0
M  V30 8940 H 810.508 -1.5419 0.255954 0
M  V30 8941 H 811.243 -2.46885 -2.10281 0
M  V30 8942 H 811.028 -3.80721 -0.937746 0
M  V30 8943 H 812.518 -3.70698 -1.92283 0
M  V30 8944 N 812.955 -0.234822 -1.55841 0
M  V30 8945 C 814.371 0.120295 -1.59146 0
M  V30 8946 C 814.571 1.57896 -1.25184 0
M  V30 8947 O 813.627 2.32138 -0.993393 0
M  V30 8948 C 814.94 -0.217984 -2.99909 0
M  V30 8949 C 816.488 -0.161298 -3.12584 0
M  V30 8950 C 816.963 -0.473438 -4.55546 0
M  V30 8951 N 818.454 -0.423494 -4.6126 0
M  V30 8952 C 819.189 -0.638334 -5.69836 0
M  V30 8953 N 818.685 -0.915659 -6.86722 0
M  V30 8954 N 820.478 -0.569864 -5.59204 0
M  V30 8955 H 812.629 -1.18622 -1.76189 0
M  V30 8956 H 814.892 -0.476426 -0.819587 0
M  V30 8957 H 814.598 -1.2309 -3.29457 0
M  V30 8958 H 814.472 0.460707 -3.74376 0
M  V30 8959 H 816.859 0.842274 -2.82825 0
M  V30 8960 H 816.94 -0.873661 -2.40418 0
M  V30 8961 H 816.584 -1.47451 -4.86025 0
M  V30 8962 H 816.514 0.260268 -5.25956 0
M  V30 8963 H 819.005 -0.217383 -3.77274 0
M  V30 8964 H 819.318 -1.06734 -7.65394 0
M  V30 8965 H 817.663 -0.953 -6.88435 0
M  V30 8966 H 820.854 -0.35334 -4.66765 0
M  V30 8967 H 821.027 -0.740698 -6.43753 0
M  V30 8968 N 814.433 1.57553 0.0384317 0
M  V30 8969 C 815.681 1.88468 0.729672 0
M  V30 8970 C 816.002 0.831302 1.76393 0
M  V30 8971 O 815.272 -0.13622 1.95426 0
M  V30 8972 H 813.852 0.695529 0.272485 0
M  V30 8973 H 816.514 1.94899 0.0066032 0
M  V30 8974 H 815.61 2.8705 1.22511 0
M  V30 8975 N 815.911 -0.310526 1.54511 0
M  V30 8976 C 817.139 -1.06611 1.77318 0
M  V30 8977 C 817.554 -1.81265 0.528043 0
M  V30 8978 O 816.911 -1.75466 -0.50178 0
M  V30 8979 C 816.962 -2.05409 2.97472 0
M  V30 8980 O 816.683 -1.33785 4.17173 0
M  V30 8981 C 818.184 -2.93082 3.32593 0
M  V30 8982 H 815.404 -0.316578 0.591624 0
M  V30 8983 H 817.948 -0.352691 2.01436 0
M  V30 8984 H 816.103 -2.72266 2.7559 0
M  V30 8985 H 816.517 -2.00055 4.84849 0
M  V30 8986 H 817.991 -3.58274 4.19933 0
M  V30 8987 H 818.468 -3.60877 2.50329 0
M  V30 8988 H 819.074 -2.31768 3.566 0
M  V30 8989 N 817.389 -1.46805 -0.573248 0
M  V30 8990 C 818.635 -1.53816 -1.33088 0
M  V30 8991 C 818.99 -0.191162 -1.91448 0
M  V30 8992 O 818.283 0.801299 -1.7404 0
M  V30 8993 C 818.477 -2.58001 -2.47326 0
M  V30 8994 C 818.306 -4.027 -2.00157 0
M  V30 8995 C 817.076 -4.70319 -1.84737 0
M  V30 8996 C 819.274 -4.90211 -1.55557 0
M  V30 8997 N 817.256 -5.99598 -1.31739 0
M  V30 8998 C 818.627 -6.09389 -1.14215 0
M  V30 8999 C 820.682 -4.76784 -1.43461 0
M  V30 9000 C 819.385 -7.16625 -0.619809 0
M  V30 9001 C 821.411 -5.84101 -0.926297 0
M  V30 9002 C 820.773 -7.02458 -0.522715 0
M  V30 9003 H 816.872 -0.617642 -0.479627 0
M  V30 9004 H 819.456 -1.83471 -0.65164 0
M  V30 9005 H 817.627 -2.3024 -3.128 0
M  V30 9006 H 819.359 -2.54951 -3.14296 0
M  V30 9007 H 816.114 -4.25982 -2.06969 0
M  V30 9008 H 816.538 -6.68431 -1.07374 0
M  V30 9009 H 821.18 -3.85661 -1.73279 0
M  V30 9010 H 818.898 -8.07508 -0.309228 0
M  V30 9011 H 822.484 -5.75755 -0.836485 0
M  V30 9012 H 821.364 -7.84083 -0.135467 0
M  V30 9013 N 818.867 0.818669 -1.34668 0
M  V30 9014 C 819.797 1.94468 -1.29245 0
M  V30 9015 C 820.778 1.69257 -0.169101 0
M  V30 9016 O 821.963 1.90794 -0.362143 0
M  V30 9017 C 819.093 3.31001 -1.05145 0
M  V30 9018 C 818.047 3.70663 -2.13992 0
M  V30 9019 C 817.373 5.05226 -1.75074 0
M  V30 9020 C 818.673 3.82312 -3.55858 0
M  V30 9021 H 820.367 1.99263 -2.2346 0
M  V30 9022 H 817.913 0.957304 -1.07572 0
M  V30 9023 H 819.866 4.09364 -0.999949 0
M  V30 9024 H 818.59 3.26517 -0.0737312 0
M  V30 9025 H 817.249 2.94578 -2.18219 0
M  V30 9026 H 816.897 4.97233 -0.759518 0
M  V30 9027 H 816.597 5.32734 -2.47928 0
M  V30 9028 H 818.121 5.86042 -1.71427 0
M  V30 9029 H 819.535 4.50935 -3.5402 0
M  V30 9030 H 817.932 4.21278 -4.2737 0
M  V30 9031 H 819.002 2.84193 -3.9289 0
M  V30 9032 N 820.346 1.18468 1.03938 0
M  V30 9033 C 821.592 0.982286 1.77423 0
M  V30 9034 C 821.925 -0.48679 1.88 0
M  V30 9035 O 821.2 -1.36146 1.38905 0
M  V30 9036 C 821.483 1.63929 3.20623 0
M  V30 9037 C 821.336 3.18132 3.17982 0
M  V30 9038 C 822.655 1.3536 4.18767 0
M  V30 9039 H 819.774 0.358264 0.644062 0
M  V30 9040 H 822.416 1.46154 1.21405 0
M  V30 9041 H 820.566 1.2318 3.68455 0
M  V30 9042 H 822.238 3.68024 2.78129 0
M  V30 9043 H 820.481 3.50225 2.55978 0
M  V30 9044 H 821.152 3.5924 4.19107 0
M  V30 9045 H 823.628 1.70669 3.79488 0
M  V30 9046 H 822.504 1.83896 5.17178 0
M  V30 9047 H 822.765 0.276722 4.41233 0
M  V30 9048 N 821.824 -1.22873 0.986916 0
M  V30 9049 C 822.772 -2.26597 0.525043 0
M  V30 9050 C 823.766 -1.64079 -0.421252 0
M  V30 9051 O 824.972 -1.77576 -0.294429 0
M  V30 9052 H 821.347 -0.736606 0.151381 0
M  V30 9053 H 823.318 -2.62909 1.41142 0
M  V30 9054 C 822.067 -3.47374 -0.150542 0
M  V30 9055 H 821.39 -3.95737 0.568541 0
M  V30 9056 H 822.83 -4.21739 -0.437256 0
M  V30 9057 C 821.289 -3.07163 -1.38392 0
M  V30 9058 O 821.819 -3.16028 -2.47971 0
M  V30 9059 N 820.025 -2.62009 -1.25697 0
M  V30 9060 H 819.572 -2.54996 -0.365355 0
M  V30 9061 H 819.53 -2.35472 -2.08327 0
M  V30 9062 N 823.302 -0.75937 -1.38099 0
M  V30 9063 C 824.232 -0.151077 -2.33011 0
M  V30 9064 C 825.213 0.697099 -1.5516 0
M  V30 9065 O 826.398 0.637101 -1.83452 0
M  V30 9066 C 823.528 0.738423 -3.39359 0
M  V30 9067 C 822.482 -0.0074741 -4.27999 0
M  V30 9068 C 821.808 1.00066 -5.25253 0
M  V30 9069 C 823.108 -1.17926 -5.08813 0
M  V30 9070 H 824.802 -0.943933 -2.84131 0
M  V30 9071 H 822.348 -0.455362 -1.36611 0
M  V30 9072 H 824.301 1.17369 -4.04725 0
M  V30 9073 H 823.025 1.56366 -2.86735 0
M  V30 9074 H 821.684 -0.423379 -3.64147 0
M  V30 9075 H 821.332 1.82012 -4.68914 0
M  V30 9076 H 821.032 0.506199 -5.85416 0
M  V30 9077 H 822.556 1.43512 -5.93495 0
M  V30 9078 H 823.97 -0.821262 -5.67387 0
M  V30 9079 H 822.367 -1.60497 -5.78239 0
M  V30 9080 H 823.437 -1.98938 -4.42212 0
M  V30 9081 N 824.78 1.49157 -0.508906 0
M  V30 9082 C 825.71 2.32109 0.254469 0
M  V30 9083 C 826.691 1.40754 0.955111 0
M  V30 9084 O 827.876 1.69658 0.944983 0
M  V30 9085 C 825.006 3.21458 1.3146 0
M  V30 9086 C 823.96 4.2167 0.733368 0
M  V30 9087 C 823.286 5.00009 1.8946 0
M  V30 9088 C 824.586 5.21544 -0.280875 0
M  V30 9089 H 826.28 2.9618 -0.43795 0
M  V30 9090 H 823.826 1.4243 -0.212062 0
M  V30 9091 H 825.779 3.78305 1.85643 0
M  V30 9092 H 824.503 2.55346 2.03632 0
M  V30 9093 H 823.162 3.65979 0.213231 0
M  V30 9094 H 822.81 4.30338 2.60419 0
M  V30 9095 H 822.51 5.67821 1.51173 0
M  V30 9096 H 824.034 5.59702 2.44061 0
M  V30 9097 H 825.448 5.73039 0.173095 0
M  V30 9098 H 823.845 5.97291 -0.580006 0
M  V30 9099 H 824.915 4.69969 -1.19404 0
M  V30 9100 N 826.258 0.243083 1.55714 0
M  V30 9101 C 827.486 -0.386971 2.03249 0
M  V30 9102 C 827.901 -1.51812 1.12243 0
M  V30 9103 O 827.258 -1.81992 0.136119 0
M  V30 9104 C 827.309 -0.898361 3.5016 0
M  V30 9105 O 827.03 0.187708 4.37698 0
M  V30 9106 C 828.531 -1.59949 4.13438 0
M  V30 9107 H 825.751 -0.0923981 0.664608 0
M  V30 9108 H 828.295 0.365832 2.01201 0
M  V30 9109 H 826.45 -1.60136 3.52754 0
M  V30 9110 H 826.864 -0.200001 5.24119 0
M  V30 9111 H 828.338 -1.90907 5.17937 0
M  V30 9112 H 828.815 -2.52014 3.59702 0
M  V30 9113 H 829.421 -0.941163 4.14756 0
M  V30 9114 N 827.736 -1.57571 -0.0300757 0
M  V30 9115 C 828.984 -1.88852 -0.719666 0
M  V30 9116 C 829.305 -0.840645 -1.75949 0
M  V30 9117 O 828.575 0.125854 -1.95495 0
M  V30 9118 H 827.155 -0.696965 -0.268792 0
M  V30 9119 H 829.817 -1.949 0.00373285 0
M  V30 9120 H 828.913 -2.87695 -1.20987 0
M  V30 9121 N 829.214 0.302327 -1.54673 0
M  V30 9122 C 830.124 1.39542 -1.88587 0
M  V30 9123 C 831.14 1.55543 -0.779895 0
M  V30 9124 O 832.316 1.70233 -1.07623 0
M  V30 9125 C 829.381 2.7394 -2.12504 0
M  V30 9126 C 828.442 2.66935 -3.3622 0
M  V30 9127 C 827.675 3.94923 -3.58987 0
M  V30 9128 O 827.898 4.94218 -2.84789 0
M  V30 9129 O 826.832 3.96896 -4.52501 0
M  V30 9130 H 830.658 1.13784 -2.81579 0
M  V30 9131 H 828.243 0.49827 -1.40846 0
M  V30 9132 H 830.125 3.5346 -2.29443 0
M  V30 9133 H 828.8 2.99544 -1.22698 0
M  V30 9134 H 827.707 1.85892 -3.24646 0
M  V30 9135 H 829.04 2.46283 -4.26152 0
M  V30 9136 N 830.692 1.47107 0.565454 0
M  V30 9137 C 832.108 1.32443 0.890566 0
M  V30 9138 C 832.308 0.308735 1.99121 0
M  V30 9139 O 831.364 -0.28265 2.50913 0
M  V30 9140 C 832.677 2.71548 1.2916 0
M  V30 9141 C 834.225 2.7977 1.40349 0
M  V30 9142 C 834.7 4.19497 1.83811 0
M  V30 9143 N 836.191 4.21998 1.90975 0
M  V30 9144 C 836.926 5.2702 2.25916 0
M  V30 9145 N 836.422 6.42353 2.59527 0
M  V30 9146 N 838.215 5.14393 2.26619 0
M  V30 9147 H 830.366 2.11786 -0.161328 0
M  V30 9148 H 832.629 0.947952 -0.00950631 0
M  V30 9149 H 832.335 3.47265 0.556753 0
M  V30 9150 H 832.209 3.02782 2.24951 0
M  V30 9151 H 834.596 2.0433 2.12916 0
M  V30 9152 H 834.677 2.522 0.427655 0
M  V30 9153 H 834.321 4.95439 1.11816 0
M  V30 9154 H 834.251 4.44486 2.82382 0
M  V30 9155 H 836.742 3.38791 1.6742 0
M  V30 9156 H 837.055 7.18252 2.85191 0
M  V30 9157 H 835.4 6.45687 2.57126 0
M  V30 9158 H 838.591 4.2332 1.99794 0
M  V30 9159 H 838.764 5.96349 2.5352 0
M  V30 9160 N 832.17 -0.811516 1.35101 0
M  V30 9161 C 833.417 -1.56835 1.28098 0
M  V30 9162 C 833.745 -1.93951 -0.14597 0
M  V30 9163 O 833 -1.61173 -1.11004 0
M  V30 9164 C 833.299 -2.87121 2.1283 0
M  V30 9165 C 832.965 -2.69245 3.61688 0
M  V30 9166 C 831.627 -2.64078 4.02264 0
M  V30 9167 C 833.979 -2.52122 4.56162 0
M  V30 9168 C 831.307 -2.39724 5.3549 0
M  V30 9169 C 833.659 -2.29298 5.89581 0
M  V30 9170 C 832.323 -2.2255 6.29307 0
M  V30 9171 H 831.593 -0.5739 0.468742 0
M  V30 9172 H 834.24 -0.93806 1.66951 0
M  V30 9173 H 832.545 -3.54502 1.66841 0
M  V30 9174 H 834.242 -3.44788 2.0475 0
M  V30 9175 H 830.832 -2.74112 3.29485 0
M  V30 9176 H 835.016 -2.5513 4.25702 0
M  V30 9177 H 830.272 -2.32965 5.65276 0
M  V30 9178 H 834.446 -2.15038 6.62368 0
M  V30 9179 H 832.073 -2.0344 7.32473 0
M  V30 9180 N 833.648 -1.19017 -1.03309 0
M  V30 9181 C 834.611 -0.926076 -2.09658 0
M  V30 9182 C 835.611 0.0917077 -1.60538 0
M  V30 9183 O 836.801 -0.142574 -1.73616 0
M  V30 9184 C 833.933 -0.390958 -3.38651 0
M  V30 9185 H 835.126 -1.86923 -2.3452 0
M  V30 9186 H 832.679 -1.00325 -1.19853 0
M  V30 9187 H 833.414 0.558446 -3.19456 0
M  V30 9188 H 833.199 -1.12474 -3.75622 0
M  V30 9189 H 834.689 -0.225131 -4.16993 0
M  V30 9190 N 835.127 1.22348 -0.993418 0
M  V30 9191 C 836.09 2.22522 -0.549251 0
M  V30 9192 C 837.09 1.56529 0.368164 0
M  V30 9193 O 838.28 1.73463 0.16005 0
M  V30 9194 C 835.412 3.40307 0.201037 0
M  V30 9195 H 836.605 2.63332 -1.43515 0
M  V30 9196 H 834.158 1.35407 -0.78068 0
M  V30 9197 H 834.893 3.0497 1.10289 0
M  V30 9198 H 834.678 3.8942 -0.457685 0
M  V30 9199 H 836.168 4.14597 0.499946 0
M  V30 9200 N 836.605 0.766683 1.37694 0
M  V30 9201 C 837.515 0.150158 2.34119 0
M  V30 9202 C 838.531 -0.685513 1.59927 0
M  V30 9203 O 839.707 -0.606616 1.92047 0
M  V30 9204 C 836.772 -0.722562 3.39087 0
M  V30 9205 C 835.833 0.128983 4.29106 0
M  V30 9206 C 835.066 -0.702178 5.29061 0
M  V30 9207 O 835.289 -1.93954 5.36412 0
M  V30 9208 O 834.223 -0.114056 6.01792 0
M  V30 9209 H 838.049 0.946829 2.88563 0
M  V30 9210 H 835.634 0.527765 1.39768 0
M  V30 9211 H 837.516 -1.22095 4.03325 0
M  V30 9212 H 836.191 -1.49751 2.86978 0
M  V30 9213 H 835.098 0.673612 3.67985 0
M  V30 9214 H 836.431 0.866892 4.84506 0
M  V30 9215 N 838.083 -1.48885 0.516809 0
M  V30 9216 C 839.046 -2.27916 -0.242256 0
M  V30 9217 C 840.046 -1.34601 -0.879735 0
M  V30 9218 O 841.236 -1.57616 -0.74182 0
M  V30 9219 C 838.368 -3.13067 -1.34914 0
M  V30 9220 H 839.561 -2.96483 0.451444 0
M  V30 9221 H 837.114 -1.5391 0.272294 0
M  V30 9222 H 837.849 -2.49102 -2.07651 0
M  V30 9223 H 837.634 -3.81695 -0.897313 0
M  V30 9224 H 839.124 -3.72716 -1.88341 0
M  V30 9225 N 839.561 -0.251338 -1.55583 0
M  V30 9226 C 840.471 0.656978 -2.25213 0
M  V30 9227 C 841.487 1.18966 -1.26977 0
M  V30 9228 O 842.663 1.22499 -1.59862 0
M  V30 9229 C 839.728 1.83527 -2.94141 0
M  V30 9230 C 838.789 1.34162 -4.07798 0
M  V30 9231 C 838.022 2.46375 -4.73429 0
M  V30 9232 O 838.245 3.65205 -4.38157 0
M  V30 9233 O 837.179 2.15881 -5.61853 0
M  V30 9234 H 841.005 0.0936395 -3.03556 0
M  V30 9235 H 838.59 -0.0196638 -1.49387 0
M  V30 9236 H 840.472 2.52279 -3.3754 0
M  V30 9237 H 839.147 2.38614 -2.18735 0
M  V30 9238 H 838.054 0.621249 -3.68906 0
M  V30 9239 H 839.387 0.836779 -4.85035 0
M  V30 9240 N 841.039 1.57585 0.0217189 0
M  V30 9241 C 842.267 1.93871 0.722619 0
M  V30 9242 C 842.682 0.851706 1.68498 0
M  V30 9243 O 842.039 -0.17127 1.81695 0
M  V30 9244 C 842.09 3.30114 1.47333 0
M  V30 9245 O 841.811 4.34639 0.549597 0
M  V30 9246 C 843.312 3.80727 2.27072 0
M  V30 9247 H 840.532 0.639671 0.202637 0
M  V30 9248 H 843.076 2.04487 -0.0229414 0
M  V30 9249 H 841.231 3.20872 2.17071 0
M  V30 9250 H 841.645 5.13326 1.07686 0
M  V30 9251 H 843.119 4.78547 2.75131 0
M  V30 9252 H 843.596 3.12301 3.08812 0
M  V30 9253 H 844.202 3.93075 1.62395 0
M  V30 9254 N 842.517 -0.29412 1.54831 0
M  V30 9255 C 843.447 -1.36757 1.89261 0
M  V30 9256 C 844.428 -1.52564 0.752214 0
M  V30 9257 O 845.613 -1.65958 1.00855 0
M  V30 9258 C 842.743 -2.73066 2.14597 0
M  V30 9259 C 841.697 -2.72017 3.3044 0
M  V30 9260 C 841.023 -4.11679 3.4121 0
M  V30 9261 C 842.323 -2.33149 4.67375 0
M  V30 9262 H 844.017 -1.08191 2.79169 0
M  V30 9263 H 841.563 -0.519014 1.34321 0
M  V30 9264 H 843.516 -3.48255 2.37269 0
M  V30 9265 H 842.24 -3.03172 1.21467 0
M  V30 9266 H 840.899 -1.99285 3.07703 0
M  V30 9267 H 840.547 -4.38973 2.45584 0
M  V30 9268 H 840.247 -4.11877 4.19084 0
M  V30 9269 H 841.771 -4.88637 3.6615 0
M  V30 9270 H 843.185 -2.98054 4.89731 0
M  V30 9271 H 841.582 -2.44546 5.48012 0
M  V30 9272 H 842.652 -1.28275 4.67626 0
M  V30 9273 N 843.995 -1.47404 -0.557645 0
M  V30 9274 C 845.235 -1.55585 -1.32562 0
M  V30 9275 C 845.599 -0.212926 -1.90816 0
M  V30 9276 O 846.8 -0.169574 -2.68265 0
M  V30 9277 C 845.071 -2.64249 -2.40639 0
M  V30 9278 S 846.63 -2.9201 -3.2753 0
M  V30 9279 H 843.448 -0.549409 -0.451298 0
M  V30 9280 H 846.05 -1.84782 -0.638438 0
M  V30 9281 H 844.754 -3.60421 -1.96277 0
M  V30 9282 H 844.285 -2.36866 -3.14099 0
M  V30 9283 H 846.3 -2.29191 -4.40098 0
M  V30 9284 N 845.473 0.80434 -1.35529 0
M  V30 9285 C 846.701 1.59283 -1.32048 0
M  V30 9286 C 847.116 1.88527 0.101556 0
M  V30 9287 O 846.473 1.48975 1.05417 0
M  V30 9288 C 846.524 2.92276 -2.12737 0
M  V30 9289 O 846.245 2.64299 -3.49396 0
M  V30 9290 C 847.746 3.86631 -2.16867 0
M  V30 9291 H 844.966 0.494523 -0.453528 0
M  V30 9292 H 847.51 0.999415 -1.78415 0
M  V30 9293 H 845.665 3.48125 -1.69964 0
M  V30 9294 H 846.079 3.4923 -3.91329 0
M  V30 9295 H 847.553 4.77053 -2.77712 0
M  V30 9296 H 848.03 4.23384 -1.16803 0
M  V30 9297 H 848.636 3.36717 -2.59811 0
M  V30 9298 N 846.951 1.19563 1.02676 0
M  V30 9299 C 848.176 1.02556 1.80269 0
M  V30 9300 C 848.601 -0.421056 1.83327 0
M  V30 9301 O 847.959 -1.30279 1.26084 0
M  V30 9302 C 848.007 1.60165 3.23078 0
M  V30 9303 O 847.111 0.832404 4.03912 0
M  V30 9304 H 846.452 0.362354 0.556413 0
M  V30 9305 H 848.982 1.58633 1.29216 0
M  V30 9306 H 848.992 1.6347 3.7382 0
M  V30 9307 H 847.667 2.65454 3.20167 0
M  V30 9308 H 846.244 0.872768 3.62543 0
M  V30 9309 N 848.429 -1.21819 0.999893 0
M  V30 9310 C 849.359 -2.26282 0.576096 0
M  V30 9311 C 850.34 -1.65317 -0.400537 0
M  V30 9312 O 851.525 -1.92028 -0.28964 0
M  V30 9313 C 848.655 -3.47147 -0.103145 0
M  V30 9314 C 847.609 -4.20594 0.792745 0
M  V30 9315 C 846.935 -5.34696 -0.0198026 0
M  V30 9316 C 848.235 -4.78533 2.09293 0
M  V30 9317 H 849.929 -2.61984 1.4493 0
M  V30 9318 H 847.475 -1.25935 0.698316 0
M  V30 9319 H 849.428 -4.1939 -0.411068 0
M  V30 9320 H 848.152 -3.1056 -1.01094 0
M  V30 9321 H 846.811 -3.50194 1.08442 0
M  V30 9322 H 846.459 -4.94352 -0.928729 0
M  V30 9323 H 846.159 -5.84764 0.576661 0
M  V30 9324 H 847.683 -6.09752 -0.321659 0
M  V30 9325 H 849.097 -5.42682 1.8485 0
M  V30 9326 H 847.494 -5.38968 2.63881 0
M  V30 9327 H 848.564 -3.98197 2.76708 0
M  V30 9328 N 849.908 -0.773975 -1.37286 0
M  V30 9329 C 851.319 -0.404433 -1.82267 0
M  V30 9330 C 851.67 1.06971 -1.64474 0
M  V30 9331 O 850.795 1.82867 -1.15708 0
M  V30 9332 C 851.39 -0.727298 -3.30902 0
M  V30 9333 C 849.949 -0.410784 -3.74152 0
M  V30 9334 C 849.096 -0.969983 -2.59782 0
M  V30 9335 H 852.047 -0.968437 -1.25726 0
M  V30 9336 H 852.068 -0.0127575 -3.80498 0
M  V30 9337 H 851.58 -1.80026 -3.4382 0
M  V30 9338 H 849.681 0.65477 -3.66802 0
M  V30 9339 H 849.794 -0.920592 -4.70172 0
M  V30 9340 H 848.158 -0.394094 -2.51633 0
M  V30 9341 H 848.941 -2.04839 -2.75492 0
M  V30 9342 N 851.386 1.48609 -0.524698 0
M  V30 9343 C 852.797 1.86516 -0.0828846 0
M  V30 9344 C 853.148 1.43478 1.33822 0
M  V30 9345 O 852.273 0.823139 2.00133 0
M  V30 9346 C 852.868 3.38495 -0.143639 0
M  V30 9347 C 851.427 3.75615 0.242951 0
M  V30 9348 C 850.574 2.72649 -0.505747 0
M  V30 9349 H 853.525 1.40589 -0.736233 0
M  V30 9350 H 853.546 3.74977 0.645955 0
M  V30 9351 H 853.058 3.69789 -1.17805 0
M  V30 9352 H 851.159 3.49935 1.27971 0
M  V30 9353 H 851.272 4.7901 -0.0929834 0
M  V30 9354 H 849.636 2.54656 0.0473482 0
M  V30 9355 H 850.419 3.06786 -1.54069 0
M  V30 9356 N 852.864 0.259585 1.55447 0
M  V30 9357 C 854.094 -0.364863 2.03353 0
M  V30 9358 C 854.502 -1.5116 1.13786 0
M  V30 9359 O 853.845 -1.83109 0.147283 0
M  V30 9360 C 853.907 -0.922587 3.4746 0
M  V30 9361 C 853.571 0.0935207 4.56904 0
M  V30 9362 C 854.568 0.907571 5.11917 0
M  V30 9363 C 852.253 0.223276 5.01804 0
M  V30 9364 C 854.247 1.83771 6.10333 0
M  V30 9365 C 851.934 1.15691 6.00049 0
M  V30 9366 C 852.932 1.96264 6.54194 0
M  V30 9367 O 852.62 2.88052 7.50521 0
M  V30 9368 H 852.352 -0.0893313 0.670072 0
M  V30 9369 H 854.906 0.384821 2.01763 0
M  V30 9370 H 853.136 -1.72206 3.4624 0
M  V30 9371 H 854.825 -1.45846 3.78792 0
M  V30 9372 H 855.591 0.817979 4.78052 0
M  V30 9373 H 851.47 -0.393834 4.59315 0
M  V30 9374 H 855.014 2.46703 6.52521 0
M  V30 9375 H 850.911 1.24738 6.33333 0
M  V30 9376 H 851.679 2.82557 7.68182 0
M  V30 9377 N 854.342 -1.57594 -0.0133615 0
M  V30 9378 C 855.59 -1.89605 -0.699596 0
M  V30 9379 C 855.911 -0.85926 -1.75048 0
M  V30 9380 O 855.181 0.105112 -1.95618 0
M  V30 9381 H 853.761 -0.699776 -0.261385 0
M  V30 9382 H 856.423 -1.94885 0.0244044 0
M  V30 9383 H 855.519 -2.88962 -1.17928 0
M  V30 9384 N 855.82 0.285905 -1.54985 0
M  V30 9385 C 857.067 1.0192 -1.74982 0
M  V30 9386 C 857.395 1.86743 -0.543816 0
M  V30 9387 O 856.65 1.89874 0.473972 0
M  V30 9388 C 856.949 1.94193 -3.0004 0
M  V30 9389 C 856.615 1.25225 -4.33162 0
M  V30 9390 C 855.277 1.06149 -4.69346 0
M  V30 9391 C 857.629 0.760427 -5.15623 0
M  V30 9392 C 854.957 0.365991 -5.85557 0
M  V30 9393 C 857.309 0.0785787 -6.32551 0
M  V30 9394 C 855.973 -0.124002 -6.67385 0
M  V30 9395 H 855.243 0.372951 -0.640304 0
M  V30 9396 H 857.89 0.292652 -1.89251 0
M  V30 9397 H 856.195 2.73426 -2.80616 0
M  V30 9398 H 857.892 2.51029 -3.12707 0
M  V30 9399 H 854.482 1.41081 -4.04715 0
M  V30 9400 H 858.666 0.895466 -4.88155 0
M  V30 9401 H 853.922 0.198193 -6.11079 0
M  V30 9402 H 858.096 -0.310339 -6.95708 0
M  V30 9403 H 855.723 -0.664918 -7.57287 0
M  V30 9404 N 857.298 1.47698 0.54982 0
M  V30 9405 C 858.544 1.54931 1.30859 0
M  V30 9406 C 858.877 0.214021 1.93017 0
M  V30 9407 O 858.152 -0.778093 1.78258 0
M  V30 9408 C 858.435 2.67286 2.41309 0
M  V30 9409 C 858.288 4.10457 1.83971 0
M  V30 9410 C 859.607 2.75509 3.43195 0
M  V30 9411 H 856.726 0.56399 0.474431 0
M  V30 9412 H 859.368 1.79787 0.614541 0
M  V30 9413 H 857.518 2.46224 3.0051 0
M  V30 9414 H 859.19 4.42903 1.28974 0
M  V30 9415 H 857.433 4.18387 1.14606 0
M  V30 9416 H 858.104 4.84857 2.63851 0
M  V30 9417 H 860.58 2.94531 2.93923 0
M  V30 9418 H 859.456 3.55886 4.17895 0
M  V30 9419 H 859.717 1.82863 4.02509 0
M  V30 9420 N 858.776 -0.797141 1.35954 0
M  V30 9421 C 859.706 -1.92387 1.32323 0
M  V30 9422 C 860.687 -1.68967 0.196007 0
M  V30 9423 O 861.872 -1.90193 0.39245 0
M  V30 9424 C 859.002 -3.29286 1.10398 0
M  V30 9425 C 857.956 -3.67212 2.19862 0
M  V30 9426 C 857.282 -5.02377 1.8309 0
M  V30 9427 C 858.582 -3.76602 3.61896 0
M  V30 9428 H 860.276 -1.95683 2.26602 0
M  V30 9429 H 857.822 -0.94007 1.09081 0
M  V30 9430 H 859.775 -4.07721 1.06495 0
M  V30 9431 H 858.499 -3.26358 0.125668 0
M  V30 9432 H 857.158 -2.91069 2.22878 0
M  V30 9433 H 856.806 -4.95961 0.838527 0
M  V30 9434 H 856.506 -5.28722 2.56372 0
M  V30 9435 H 858.03 -5.8324 1.80729 0
M  V30 9436 H 859.444 -4.45246 3.6115 0
M  V30 9437 H 857.841 -4.14425 4.34018 0
M  V30 9438 H 858.911 -2.77906 3.97361 0
M  V30 9439 N 860.254 -1.20106 -1.0204 0
M  V30 9440 C 861.484 -1.0329 -1.78927 0
M  V30 9441 C 861.892 0.421115 -1.84454 0
M  V30 9442 O 861.235 1.30422 -1.29367 0
M  V30 9443 C 861.297 -1.53627 -3.25021 0
M  V30 9444 C 860.961 -3.01869 -3.4311 0
M  V30 9445 C 861.958 -3.9956 -3.32638 0
M  V30 9446 C 859.643 -3.40746 -3.6905 0
M  V30 9447 C 861.637 -5.34119 -3.47844 0
M  V30 9448 C 859.324 -4.75462 -3.839 0
M  V30 9449 C 860.322 -5.71957 -3.73302 0
M  V30 9450 O 860.01 -7.04231 -3.87703 0
M  V30 9451 H 859.742 -0.363962 -0.569656 0
M  V30 9452 H 862.296 -1.59551 -1.29354 0
M  V30 9453 H 860.526 -0.917481 -3.75658 0
M  V30 9454 H 862.215 -1.32889 -3.8353 0
M  V30 9455 H 862.981 -3.70869 -3.12539 0
M  V30 9456 H 858.86 -2.66182 -3.76388 0
M  V30 9457 H 862.404 -6.09421 -3.39488 0
M  V30 9458 H 858.301 -5.03844 -4.03499 0
M  V30 9459 H 859.069 -7.11425 -4.04744 0
M  V30 9460 N 861.732 1.21287 -1.00634 0
M  V30 9461 C 862.695 2.21927 -0.572821 0
M  V30 9462 C 863.695 1.5691 0.351541 0
M  V30 9463 O 864.885 1.73623 0.141643 0
M  V30 9464 C 862.017 3.40501 0.164932 0
M  V30 9465 H 863.21 2.61795 -1.463 0
M  V30 9466 H 860.763 1.34571 -0.794998 0
M  V30 9467 H 861.498 3.06123 1.07049 0
M  V30 9468 H 861.283 3.88912 -0.498962 0
M  V30 9469 H 862.773 4.15103 0.455945 0
M  V30 9470 N 863.21 0.781244 1.36873 0
M  V30 9471 C 864.459 0.34652 1.98701 0
M  V30 9472 C 864.772 -1.08555 1.62712 0
M  V30 9473 O 865.978 -1.62213 2.17713 0
M  V30 9474 C 864.434 0.568611 3.5538 0
M  V30 9475 C 864.042 2.01156 4.003 0
M  V30 9476 C 865.786 0.197983 4.24038 0
M  V30 9477 C 863.693 2.18074 5.49725 0
M  V30 9478 H 862.623 0.125821 0.743428 0
M  V30 9479 H 865.274 0.961721 1.56279 0
M  V30 9480 H 863.656 -0.116185 3.9583 0
M  V30 9481 H 864.83 2.73209 3.71071 0
M  V30 9482 H 863.145 2.33967 3.44454 0
M  V30 9483 H 865.742 0.302778 5.33842 0
M  V30 9484 H 866.085 -0.852927 4.07469 0
M  V30 9485 H 866.618 0.835696 3.88923 0
M  V30 9486 H 863.357 3.21519 5.71232 0
M  V30 9487 H 862.877 1.50517 5.80607 0
M  V30 9488 H 864.556 1.98393 6.15832 0
M  V30 9489 N 864.689 -1.48329 0.532571 0
M  V30 9490 C 865.599 -2.33445 -0.232546 0
M  V30 9491 C 866.615 -1.46651 -0.93645 0
M  V30 9492 O 867.791 -1.79627 -0.910834 0
M  V30 9493 C 864.856 -3.22824 -1.26434 0
M  V30 9494 C 863.917 -4.25492 -0.570511 0
M  V30 9495 C 863.15 -5.10601 -1.55315 0
M  V30 9496 O 863.373 -4.97733 -2.78599 0
M  V30 9497 O 862.307 -5.91927 -1.09112 0
M  V30 9498 H 866.133 -3.00119 0.464988 0
M  V30 9499 H 863.718 -1.46489 0.293462 0
M  V30 9500 H 865.6 -3.78103 -1.86055 0
M  V30 9501 H 864.275 -2.58807 -1.94424 0
M  V30 9502 H 863.182 -3.74041 0.0662587 0
M  V30 9503 H 864.515 -4.92154 0.0674904 0
M  V30 9504 N 866.167 -0.267825 -1.55308 0
M  V30 9505 C 867.117 0.637168 -2.18916 0
M  V30 9506 C 868.101 1.12381 -1.15149 0
M  V30 9507 O 869.293 1.0701 -1.40989 0
M  V30 9508 C 866.422 1.82423 -2.90821 0
M  V30 9509 C 865.508 1.35512 -4.01867 0
M  V30 9510 N 865.899 0.601644 -5.02209 0
M  V30 9511 C 864.197 1.63868 -4.14805 0
M  V30 9512 C 864.898 0.35596 -5.8061 0
M  V30 9513 N 863.874 0.926271 -5.3565 0
M  V30 9514 H 867.676 0.0535787 -2.93851 0
M  V30 9515 H 865.19 -0.0710577 -1.62244 0
M  V30 9516 H 867.187 2.48379 -3.34834 0
M  V30 9517 H 865.847 2.41185 -2.17394 0
M  V30 9518 H 866.858 0.249693 -5.17298 0
M  V30 9519 H 863.535 2.23618 -3.52564 0
M  V30 9520 H 864.925 -0.246994 -6.71446 0
M  V30 9521 N 867.645 1.57599 0.00500368 0
M  V30 9522 C 868.891 1.91471 0.686313 0
M  V30 9523 C 869.246 0.868988 1.71658 0
M  V30 9524 O 868.539 -0.11944 1.91227 0
M  V30 9525 C 868.733 3.29855 1.37588 0
M  V30 9526 C 868.562 4.47791 0.413924 0
M  V30 9527 C 867.332 5.05293 0.0261488 0
M  V30 9528 C 869.53 5.13317 -0.317764 0
M  V30 9529 N 867.512 6.06745 -0.934545 0
M  V30 9530 C 868.883 6.09554 -1.13331 0
M  V30 9531 C 870.938 4.96431 -0.382136 0
M  V30 9532 C 869.641 6.90723 -2.00735 0
M  V30 9533 C 871.667 5.78182 -1.24339 0
M  V30 9534 C 871.029 6.74007 -2.04679 0
M  V30 9535 H 867.128 0.749083 0.224495 0
M  V30 9536 H 869.712 1.94625 -0.0541684 0
M  V30 9537 H 867.883 3.27585 2.08668 0
M  V30 9538 H 869.615 3.51171 2.01149 0
M  V30 9539 H 866.37 4.71963 0.393462 0
M  V30 9540 H 866.794 6.62152 -1.41012 0
M  V30 9541 H 871.436 4.22202 0.224718 0
M  V30 9542 H 869.154 7.64281 -2.6249 0
M  V30 9543 H 872.74 5.67158 -1.29704 0
M  V30 9544 H 871.62 7.36164 -2.70244 0
M  V30 9545 O 869.162 -0.147371 1.60826 0
M  V30 9546 H 869.853 -0.78165 1.77228 0
M  V30 END ATOM
M  V30 BEGIN BOND
M  V30 END BOND
M  V30 END CTAB
M  END
$$$$
