drugbank_target|P38936 Cyclin-dependent kinase inhibitor 1 (DB01169)
 OpenBabel12092121063D

  0  0  0     0  0            999 V3000
M  V30 BEGIN CTAB
M  V30 COUNTS 2510 2536 0 0 0
M  V30 BEGIN ATOM
M  V30 1 H -0.908 1.98254 -0.117106 0
M  V30 2 N 0 1.576 0 0
M  V30 3 C 0.933 2.03868 1.02534 0
M  V30 4 C 1.911 0.928543 1.3348 0
M  V30 5 O 3.095 1.19667 1.45644 0
M  V30 6 C 0.222 2.43627 2.35294 0
M  V30 7 C -0.732 3.65373 2.2001 0
M  V30 8 S 0.101 5.13292 1.52614 0
M  V30 9 C 1.257 5.56322 2.86805 0
M  V30 10 H 1.49 2.90518 0.631377 0
M  V30 11 H -0.977 1.52953 0.210867 0
M  V30 12 H 0.981 2.67203 3.11629 0
M  V30 13 H -0.358 1.57376 2.7183 0
M  V30 14 H -1.165 3.90944 3.18086 0
M  V30 15 H -1.563 3.418 1.51819 0
M  V30 16 H 0.729 5.58782 3.83104 0
M  V30 17 H 1.672 6.56266 2.65933 0
M  V30 18 H 2.08 4.83886 2.90714 0
M  V30 19 N 1.4781 -0.272755 1.55222 0
M  V30 20 C 2.7031 -1.02683 1.80197 0
M  V30 21 C 3.1281 -1.79142 0.573551 0
M  V30 22 O 2.4861 -1.74917 -0.476849 0
M  V30 23 C 2.5341 -1.9609 3.02624 0
M  V30 24 O 1.6381 -3.04863 2.77727 0
M  V30 25 H 0.9791 -0.293557 0.595584 0
M  V30 26 H 3.5091 -0.30159 2.02365 0
M  V30 27 H 3.5191 -2.38039 3.31363 0
M  V30 28 H 2.1941 -1.39851 3.91682 0
M  V30 29 H 0.7711 -2.67228 2.60084 0
M  V30 30 N 2.9562 -1.48159 -0.537278 0
M  V30 31 C 3.8662 -1.64807 -1.6696 0
M  V30 32 C 4.8822 -0.530651 -1.65711 0
M  V30 33 O 6.0582 -0.800784 -1.84796 0
M  V30 34 C 3.1232 -1.67708 -3.03438 0
M  V30 35 C 2.1842 -2.91025 -3.156 0
M  V30 36 C 1.4172 -2.93778 -4.45567 0
M  V30 37 O 1.6402 -2.05153 -5.3223 0
M  V30 38 O 0.5742 -3.85868 -4.61941 0
M  V30 39 H 4.4002 -2.6066 -1.55853 0
M  V30 40 H 1.9852 -1.31475 -0.709549 0
M  V30 41 H 3.8672 -1.7218 -3.84619 0
M  V30 42 H 2.5422 -0.750278 -3.14885 0
M  V30 43 H 1.4492 -2.92089 -2.33741 0
M  V30 44 H 2.7822 -3.83065 -3.09066 0
M  V30 45 N 4.4343 0.785586 -1.36625 0
M  V30 46 C 5.8453 1.36101 -1.27803 0
M  V30 47 C 6.1963 1.96035 0.0804875 0
M  V30 48 O 5.3213 1.92834 0.982042 0
M  V30 49 C 5.9163 2.47442 -2.31426 0
M  V30 50 C 4.4753 3.00789 -2.26281 0
M  V30 51 C 3.6223 1.73896 -2.15999 0
M  V30 52 H 6.5733 0.586928 -1.47448 0
M  V30 53 H 6.5943 3.2656 -1.95291 0
M  V30 54 H 6.1063 2.03791 -3.30289 0
M  V30 55 H 4.2073 3.48851 -1.30896 0
M  V30 56 H 4.3203 3.57343 -3.19128 0
M  V30 57 H 2.6843 1.9628 -1.62316 0
M  V30 58 H 3.4673 1.32368 -3.16755 0
M  V30 59 N 5.9124 1.20967 1.01018 0
M  V30 60 C 6.8754 0.965918 2.07853 0
M  V30 61 C 7.8754 -0.0610545 1.60684 0
M  V30 62 O 9.0654 0.175681 1.73312 0
M  V30 63 C 6.1974 0.455513 3.37843 0
M  V30 64 H 7.3904 1.91365 2.3091 0
M  V30 65 H 4.9434 1.02594 1.17916 0
M  V30 66 H 5.6784 -0.497381 3.20463 0
M  V30 67 H 5.4634 1.19622 3.73407 0
M  V30 68 H 6.9534 0.304667 4.16487 0
M  V30 69 N 7.3905 -1.2043 1.01659 0
M  V30 70 C 8.6385 -1.89423 0.704522 0
M  V30 71 C 8.9595 -1.79231 -0.768197 0
M  V30 72 O 8.2295 -1.1947 -1.55254 0
M  V30 73 H 6.8095 -0.701178 0.257602 0
M  V30 74 H 9.4715 -1.4626 1.28818 0
M  V30 75 H 8.5675 -2.96052 0.987916 0
M  V30 76 N 8.8686 -0.792821 -1.36206 0
M  V30 77 C 10.1456 -0.290627 -1.93429 0
M  V30 78 C 10.5256 1.21773 -1.72437 0
M  V30 79 O 9.8736 2.0108 -1.08531 0
M  V30 80 C 10.0836 -0.686973 -3.42172 0
M  V30 81 C 11.4316 -0.668643 -4.19302 0
M  V30 82 O 12.4556 -0.627658 -3.50626 0
M  V30 83 O 11.3146 -0.714597 -5.41808 0
M  V30 84 H 8.4086 -0.0727927 -0.82379 0
M  V30 85 H 10.9546 -0.875593 -1.45367 0
M  V30 86 H 9.7266 -1.72711 -3.51122 0
M  V30 87 H 9.3496 -0.0760733 -3.97527 0
M  V30 88 N 10.3467 1.47872 -0.545128 0
M  V30 89 C 11.5927 2.02793 -0.0166104 0
M  V30 90 C 11.9257 1.41987 1.32489 0
M  V30 91 O 11.2007 0.571045 1.85928 0
M  V30 92 C 11.4837 3.59989 0.0893294 0
M  V30 93 C 11.3367 4.3125 -1.27841 0
M  V30 94 C 12.6557 4.32606 0.808724 0
M  V30 95 H 9.7747 0.736962 -0.00751035 0
M  V30 96 H 12.4167 1.76433 -0.705085 0
M  V30 97 H 10.5667 3.82579 0.675681 0
M  V30 98 H 12.2387 4.20035 -1.90704 0
M  V30 99 H 10.4817 3.92076 -1.85632 0
M  V30 100 H 11.1527 5.39736 -1.15713 0
M  V30 101 H 13.6287 4.14936 0.310992 0
M  V30 102 H 12.5047 5.42251 0.851782 0
M  V30 103 H 12.7657 4.00963 1.86229 0
M  V30 104 N 11.8248 0.280983 1.55075 0
M  V30 105 C 13.2408 -0.0729964 1.59433 0
M  V30 106 C 13.4408 -1.5411 1.29817 0
M  V30 107 O 12.4968 -2.29086 1.06187 0
M  V30 108 C 13.8098 0.306921 2.9913 0
M  V30 109 C 15.3578 0.254023 3.11968 0
M  V30 110 C 15.8328 0.608467 4.5394 0
M  V30 111 N 17.3238 0.560241 4.59799 0
M  V30 112 C 18.0588 0.80722 5.6769 0
M  V30 113 N 17.5548 1.11912 6.83701 0
M  V30 114 N 19.3478 0.735623 5.57266 0
M  V30 115 H 11.4988 1.238 1.7259 0
M  V30 116 H 13.7618 0.500547 0.805082 0
M  V30 117 H 13.4678 1.32816 3.25657 0
M  V30 118 H 13.3418 -0.349363 3.75579 0
M  V30 119 H 15.7288 -0.75794 2.852 0
M  V30 120 H 15.8098 0.944649 2.37718 0
M  V30 121 H 15.4538 1.61814 4.81434 0
M  V30 122 H 15.3838 -0.104013 5.26497 0
M  V30 123 H 17.8748 0.329288 3.76463 0
M  V30 124 H 18.1878 1.29409 7.61888 0
M  V30 125 H 16.5328 1.15695 6.85303 0
M  V30 126 H 19.7238 0.491752 4.6551 0
M  V30 127 H 19.8968 0.931482 6.4127 0
M  V30 128 N 13.3029 -1.57598 0.00835791 0
M  V30 129 C 14.2349 -2.05811 -1.00868 0
M  V30 130 C 15.2479 -0.977579 -1.30182 0
M  V30 131 O 16.4369 -1.25421 -1.27011 0
M  V30 132 C 13.5369 -2.45016 -2.34137 0
M  V30 133 C 12.7099 -3.75903 -2.23643 0
M  V30 134 C 11.7689 -4.01884 -3.3967 0
M  V30 135 O 10.7949 -4.72433 -3.17483 0
M  V30 136 N 11.9969 -3.50432 -4.62793 0
M  V30 137 H 14.7619 -2.93684 -0.597458 0
M  V30 138 H 12.3229 -1.60909 -0.178852 0
M  V30 139 H 14.3149 -2.59506 -3.10546 0
M  V30 140 H 12.8849 -1.62618 -2.66972 0
M  V30 141 H 12.1049 -3.7141 -1.32091 0
M  V30 142 H 13.3929 -4.61695 -2.13812 0
M  V30 143 H 12.7909 -2.93317 -4.83716 0
M  V30 144 H 11.3479 -3.70236 -5.3644 0
M  V30 145 N 14.781 0.264519 -1.55364 0
M  V30 146 C 15.729 1.34702 -1.89626 0
M  V30 147 C 16.723 1.50712 -0.773459 0
M  V30 148 O 17.929 1.52395 -0.957897 0
M  V30 149 H 14.304 0.450682 -0.601988 0
M  V30 150 H 16.275 1.0306 -2.80038 0
M  V30 151 C 15.024 2.6989 -2.19214 0
M  V30 152 H 14.347 2.58365 -3.05103 0
M  V30 153 H 15.787 3.44553 -2.47102 0
M  V30 154 C 14.246 3.21637 -1.00254 0
M  V30 155 O 14.776 4.00973 -0.241501 0
M  V30 156 N 12.982 2.7943 -0.797938 0
M  V30 157 H 12.529 2.15026 -1.4185 0
M  V30 158 H 12.487 3.144 -0.00363422 0
M  V30 159 N 16.2591 1.48442 0.529413 0
M  V30 160 C 17.6701 1.5002 1.11134 0
M  V30 161 C 18.0211 0.27031 1.94329 0
M  V30 162 O 17.1461 -0.622507 2.07253 0
M  V30 163 C 17.7411 2.71834 2.02217 0
M  V30 164 C 16.3001 2.76283 2.55627 0
M  V30 165 C 15.4471 2.43542 1.326 0
M  V30 166 H 18.3981 1.5555 0.314641 0
M  V30 167 H 18.4191 2.50384 2.8651 0
M  V30 168 H 17.9311 3.61331 1.41639 0
M  V30 169 H 16.0321 1.90995 3.19924 0
M  V30 170 H 16.1451 3.77725 2.94721 0
M  V30 171 H 14.5091 1.94709 1.64196 0
M  V30 172 H 15.2921 3.3528 0.737734 0
M  V30 173 N 17.7372 -0.778329 1.37039 0
M  V30 174 C 18.9772 -1.54973 1.33276 0
M  V30 175 C 19.3412 -1.91816 -0.0839376 0
M  V30 176 O 20.5422 -2.6767 -0.246228 0
M  V30 177 C 18.8132 -2.78517 2.23971 0
M  V30 178 S 20.3722 -3.6865 2.37997 0
M  V30 179 H 17.1902 -0.530639 0.473226 0
M  V30 180 H 19.7922 -0.915806 1.72723 0
M  V30 181 H 18.4962 -2.4952 3.25835 0
M  V30 182 H 18.0272 -3.46875 1.85584 0
M  V30 183 H 20.0422 -4.70182 1.58567 0
M  V30 184 N 19.2153 -1.21501 -1.00376 0
M  V30 185 C 20.4633 -1.03095 -1.73827 0
M  V30 186 C 20.7843 0.436341 -1.90055 0
M  V30 187 O 20.0543 1.31466 -1.45236 0
M  V30 188 H 18.6343 -0.378487 -0.644016 0
M  V30 189 H 21.2963 -1.52831 -1.20949 0
M  V30 190 H 20.3923 -1.49991 -2.73695 0
M  V30 191 N 20.6934 1.19889 -1.02296 0
M  V30 192 C 21.9184 1.9393 -0.735237 0
M  V30 193 C 22.3434 1.74639 0.698782 0
M  V30 194 O 21.7014 1.04481 1.48167 0
M  V30 195 C 21.7494 3.43916 -1.08417 0
M  V30 196 O 20.8534 4.11917 -0.199446 0
M  V30 197 H 20.1944 0.605645 -0.272196 0
M  V30 198 H 22.7244 1.52137 -1.36804 0
M  V30 199 H 22.7344 3.9456 -1.03856 0
M  V30 200 H 21.4094 3.5728 -2.12894 0
M  V30 201 H 19.9864 3.71666 -0.303136 0
M  V30 202 N 22.1715 0.800033 1.35784 0
M  V30 203 C 23.1185 0.203848 2.29898 0
M  V30 204 C 24.0885 -0.658375 1.52495 0
M  V30 205 O 25.2735 -0.604832 1.8096 0
M  V30 206 C 22.4135 -0.64688 3.38983 0
M  V30 207 C 21.5265 0.235054 4.3136 0
M  V30 208 C 20.6615 -0.623054 5.27533 0
M  V30 209 C 19.7005 0.259682 6.11549 0
M  V30 210 N 18.8375 -0.558019 6.99879 0
M  V30 211 H 23.6775 1.01186 2.80295 0
M  V30 212 H 21.2145 0.51053 1.37957 0
M  V30 213 H 23.1725 -1.15521 4.00887 0
M  V30 214 H 21.8025 -1.42021 2.89879 0
M  V30 215 H 20.8545 0.861438 3.70518 0
M  V30 216 H 22.1665 0.914768 4.9034 0
M  V30 217 H 21.3205 -1.19678 5.94779 0
M  V30 218 H 20.0595 -1.33636 4.69034 0
M  V30 219 H 19.0645 0.845726 5.43256 0
M  V30 220 H 20.2895 0.970748 6.72126 0
M  V30 221 H 18.2355 -1.25542 6.43875 0
M  V30 222 H 18.1525 0.0637872 7.55973 0
M  V30 223 H 19.4205 -1.11523 7.71481 0
M  V30 224 N 23.6496 -1.47581 0.552962 0
M  V30 225 C 24.6126 -2.28439 -0.186605 0
M  V30 226 C 25.6126 -1.36706 -0.84665 0
M  V30 227 O 26.8026 -1.59378 -0.703164 0
M  V30 228 C 23.9346 -3.16264 -1.2724 0
M  V30 229 H 25.1276 -2.95294 0.523609 0
M  V30 230 H 22.6806 -1.532 0.309745 0
M  V30 231 H 23.4156 -2.54091 -2.01514 0
M  V30 232 H 23.2006 -3.83769 -0.803968 0
M  V30 233 H 24.6906 -3.77198 -1.79196 0
M  V30 234 N 25.1277 -0.289203 -1.54924 0
M  V30 235 C 26.3677 0.324536 -2.01807 0
M  V30 236 C 26.7317 1.5199 -1.17316 0
M  V30 237 O 27.9327 2.20422 -1.53843 0
M  V30 238 C 26.2037 0.683578 -3.50802 0
M  V30 239 S 27.7627 1.28185 -4.19659 0
M  V30 240 H 24.5807 0.100236 -0.703899 0
M  V30 241 H 27.1827 -0.414325 -1.91059 0
M  V30 242 H 25.8867 -0.195073 -4.09936 0
M  V30 243 H 25.4177 1.45354 -3.65562 0
M  V30 244 H 27.4327 2.57006 -4.24456 0
M  V30 245 N 26.6058 1.57591 -0.0167156 0
M  V30 246 C 28.0218 1.55946 0.339557 0
M  V30 247 C 28.2218 1.02109 1.73713 0
M  V30 248 O 27.2778 0.662303 2.43659 0
M  V30 249 C 28.5908 3.00037 0.199499 0
M  V30 250 C 30.1388 3.11805 0.273193 0
M  V30 251 C 30.6138 4.57713 0.162068 0
M  V30 252 N 32.1048 4.6268 0.219444 0
M  V30 253 C 32.8398 5.73185 0.157054 0
M  V30 254 N 32.3358 6.92786 0.0442936 0
M  V30 255 N 34.1288 5.61707 0.21014 0
M  V30 256 H 26.2798 1.90921 -0.930758 0
M  V30 257 H 28.5428 0.877674 -0.358319 0
M  V30 258 H 28.2488 3.4333 -0.76273 0
M  V30 259 H 28.1228 3.64387 0.974786 0
M  V30 260 H 30.5098 2.68433 1.22587 0
M  V30 261 H 30.5908 2.50201 -0.532256 0
M  V30 262 H 30.2348 5.01763 -0.78714 0
M  V30 263 H 30.1648 5.17283 0.986222 0
M  V30 264 H 32.6558 3.76649 0.307246 0
M  V30 265 H 32.9688 7.728 0.00304069 0
M  V30 266 H 31.3138 6.94999 0.00968457 0
M  V30 267 H 34.5048 4.6716 0.296546 0
M  V30 268 H 34.6778 6.47807 0.158054 0
M  V30 269 N 28.0839 -0.256276 1.55502 0
M  V30 270 C 29.4999 -0.604325 1.47716 0
M  V30 271 C 29.6999 -1.88763 0.705039 0
M  V30 272 O 28.7559 -2.51445 0.230613 0
M  V30 273 C 30.0689 -0.715756 2.92057 0
M  V30 274 C 31.6169 -0.808706 3.02372 0
M  V30 275 C 32.0919 -0.951777 4.48001 0
M  V30 276 N 33.5829 -1.01688 4.519 0
M  V30 277 C 34.3179 -1.14668 5.61817 0
M  V30 278 N 33.8139 -1.24261 6.81565 0
M  V30 279 N 35.6069 -1.1791 5.49594 0
M  V30 280 H 27.7579 0.586291 2.04148 0
M  V30 281 H 30.0209 0.201015 0.926443 0
M  V30 282 H 29.7269 0.157027 3.51349 0
M  V30 283 H 29.6009 -1.59071 3.42018 0
M  V30 284 H 31.9879 -1.67195 2.43166 0
M  V30 285 H 32.0689 0.0912063 2.55637 0
M  V30 286 H 31.7129 -0.0931291 5.07815 0
M  V30 287 H 31.6429 -1.86659 4.92408 0
M  V30 288 H 34.1339 -0.954468 3.65648 0
M  V30 289 H 34.4469 -1.34046 7.61086 0
M  V30 290 H 32.7919 -1.21236 6.84344 0
M  V30 291 H 35.9829 -1.10057 4.54978 0
M  V30 292 H 36.1559 -1.27681 6.35296 0
M  V30 293 N 29.562 -1.4872 -0.521534 0
M  V30 294 C 30.492 -1.66771 -1.63431 0
M  V30 295 C 31.473 -0.516499 -1.62069 0
M  V30 296 O 32.658 -0.750013 -1.79132 0
M  V30 297 C 29.788 -1.71515 -3.01993 0
M  V30 298 C 28.742 -2.86222 -3.18216 0
M  V30 299 C 28.068 -2.76061 -4.57924 0
M  V30 300 C 29.368 -4.27419 -3.00184 0
M  V30 301 H 31.062 -2.59932 -1.48579 0
M  V30 302 H 28.608 -1.25089 -0.713358 0
M  V30 303 H 30.561 -1.82731 -3.7972 0
M  V30 304 H 29.285 -0.749393 -3.17886 0
M  V30 305 H 27.944 -2.74575 -2.42908 0
M  V30 306 H 27.592 -1.77437 -4.70665 0
M  V30 307 H 27.292 -3.53037 -4.69722 0
M  V30 308 H 28.816 -2.89256 -5.37739 0
M  V30 309 H 30.23 -4.39855 -3.67697 0
M  V30 310 H 28.627 -5.05458 -3.2347 0
M  V30 311 H 29.697 -4.43293 -1.96518 0
M  V30 312 N 31.0401 0.771051 -1.3745 0
M  V30 313 C 32.2871 1.52963 -1.32697 0
M  V30 314 C 32.6151 1.94299 0.0883274 0
M  V30 315 O 31.8701 1.64397 1.0617 0
M  V30 316 C 32.1691 2.80676 -2.2126 0
M  V30 317 C 31.8351 2.58389 -3.69521 0
M  V30 318 C 30.4971 2.52019 -4.09927 0
M  V30 319 C 32.8491 2.38469 -4.63446 0
M  V30 320 C 30.1771 2.23721 -5.42371 0
M  V30 321 C 32.5291 2.11694 -5.96128 0
M  V30 322 C 31.1931 2.03769 -6.35637 0
M  V30 323 H 30.4631 0.559732 -0.485573 0
M  V30 324 H 33.1101 0.888083 -1.69662 0
M  V30 325 H 31.4151 3.49392 -1.77291 0
M  V30 326 H 33.1121 3.38557 -2.14895 0
M  V30 327 H 29.7021 2.6421 -3.37478 0
M  V30 328 H 33.8861 2.4238 -4.33089 0
M  V30 329 H 29.1421 2.16081 -5.71943 0
M  V30 330 H 33.3161 1.9528 -6.6846 0
M  V30 331 H 30.9431 1.81606 -7.38189 0
M  V30 332 N 32.5182 1.22032 0.997298 0
M  V30 333 C 33.7662 1.04016 1.73278 0
M  V30 334 C 34.0872 -0.426255 1.90284 0
M  V30 335 O 33.3572 -1.30694 1.45931 0
M  V30 336 H 31.9372 0.381897 0.642 0
M  V30 337 H 34.5992 1.5347 1.20137 0
M  V30 338 H 33.6952 1.51441 2.72896 0
M  V30 339 N 33.9963 -1.19345 1.0293 0
M  V30 340 C 35.4073 -1.70725 0.755633 0
M  V30 341 C 35.7583 -1.82326 -0.724676 0
M  V30 342 O 34.8833 -1.49471 -1.56484 0
M  V30 343 C 35.4783 -3.10084 1.36503 0
M  V30 344 C 34.0373 -3.58723 1.13994 0
M  V30 345 C 33.1843 -2.35577 1.46283 0
M  V30 346 H 36.1353 -1.0418 1.19718 0
M  V30 347 H 36.1563 -3.72787 0.762217 0
M  V30 348 H 35.6683 -3.01609 2.44241 0
M  V30 349 H 33.7693 -3.72512 0.0807901 0
M  V30 350 H 33.8823 -4.42816 1.82894 0
M  V30 351 H 32.2463 -2.38935 0.88217 0
M  V30 352 H 33.0293 -2.29731 2.55105 0
M  V30 353 N 35.4744 -0.807222 -1.35358 0
M  V30 354 C 36.7204 -0.388463 -1.99045 0
M  V30 355 C 37.0534 1.04184 -1.63888 0
M  V30 356 O 36.3284 1.72292 -0.902535 0
M  V30 357 C 36.6114 -0.572783 -3.55515 0
M  V30 358 C 36.4644 -2.04807 -4.00468 0
M  V30 359 C 37.7834 0.00114064 -4.401 0
M  V30 360 H 34.9024 -0.142619 -0.723069 0
M  V30 361 H 37.5444 -1.01687 -1.60498 0
M  V30 362 H 35.6944 -0.0378425 -3.88482 0
M  V30 363 H 37.3664 -2.64544 -3.77908 0
M  V30 364 H 35.6094 -2.54427 -3.51353 0
M  V30 365 H 36.2804 -2.12792 -5.09337 0
M  V30 366 H 38.7564 -0.455716 -4.13597 0
M  V30 367 H 37.6324 -0.157737 -5.48673 0
M  V30 368 H 37.8934 1.09488 -4.28328 0
M  V30 369 N 36.9525 1.47285 -0.560781 0
M  V30 370 C 38.2295 1.9558 0.0277798 0
M  V30 371 C 38.6095 1.5034 1.48192 0
M  V30 372 O 37.9575 0.743882 2.16052 0
M  V30 373 C 38.1675 3.48789 -0.121418 0
M  V30 374 C 39.5155 4.24594 0.0220912 0
M  V30 375 O 40.5395 3.56166 -0.0491439 0
M  V30 376 O 39.3985 5.46217 0.175958 0
M  V30 377 H 36.4925 0.824663 0.0621342 0
M  V30 378 H 39.0385 1.5767 -0.627556 0
M  V30 379 H 37.8105 3.74533 -1.13316 0
M  V30 380 H 37.4335 3.93473 0.571366 0
M  V30 381 N 38.4306 0.297415 1.54768 0
M  V30 382 C 39.6556 -0.318435 2.04941 0
M  V30 383 C 40.0806 -1.4701 1.17345 0
M  V30 384 O 39.4386 -1.80436 0.176758 0
M  V30 385 C 39.4866 -0.755749 3.52592 0
M  V30 386 O 38.5906 -1.86088 3.68028 0
M  V30 387 H 37.9316 -0.062421 0.661059 0
M  V30 388 H 40.4616 0.438215 1.99852 0
M  V30 389 H 40.4716 -1.04552 3.94376 0
M  V30 390 H 39.1466 0.0867233 4.1581 0
M  V30 391 H 37.7236 -1.57193 3.38149 0
M  V30 392 N 39.9087 -1.5758 0.0250728 0
M  V30 393 C 40.8187 -2.1343 -0.973905 0
M  V30 394 C 41.8347 -1.08556 -1.35984 0
M  V30 395 O 43.0107 -1.40592 -1.44207 0
M  V30 396 C 40.0757 -2.64703 -2.23904 0
M  V30 397 C 39.1367 -3.84276 -1.91391 0
M  V30 398 C 38.3697 -4.33095 -3.11873 0
M  V30 399 O 38.5927 -3.81107 -4.24398 0
M  V30 400 O 37.5267 -5.24984 -2.94406 0
M  V30 401 H 41.3527 -2.99057 -0.529036 0
M  V30 402 H 38.9377 -1.48118 -0.195288 0
M  V30 403 H 40.8197 -2.97769 -2.98181 0
M  V30 404 H 39.4947 -1.82161 -2.6758 0
M  V30 405 H 38.4017 -3.56143 -1.14511 0
M  V30 406 H 39.7347 -4.67968 -1.52534 0
M  V30 407 N 41.3868 0.248026 -1.55636 0
M  V30 408 C 42.3188 1.32993 -1.8667 0
M  V30 409 C 43.3318 1.44345 -0.752877 0
M  V30 410 O 44.5208 1.45715 -1.03098 0
M  V30 411 C 41.6208 2.70863 -2.03682 0
M  V30 412 C 40.7938 2.81792 -3.34532 0
M  V30 413 C 39.8528 4.005 -3.41301 0
M  V30 414 O 38.8788 3.9008 -4.14519 0
M  V30 415 N 40.0808 5.13618 -2.70512 0
M  V30 416 H 42.8458 1.06707 -2.8006 0
M  V30 417 H 40.4068 0.438129 -1.55859 0
M  V30 418 H 42.3988 3.48612 -2.05553 0
M  V30 419 H 40.9688 2.89862 -1.17041 0
M  V30 420 H 40.1888 1.90729 -3.44987 0
M  V30 421 H 41.4768 2.86043 -4.20781 0
M  V30 422 H 40.8748 5.24975 -2.10755 0
M  V30 423 H 39.4318 5.89505 -2.78077 0
M  V30 424 N 42.8649 1.48995 0.513639 0
M  V30 425 C 43.7949 1.67636 1.62544 0
M  V30 426 C 44.7759 0.525087 1.61793 0
M  V30 427 O 45.9609 0.759502 1.78732 0
M  V30 428 C 43.0909 1.73114 3.01079 0
M  V30 429 C 42.0449 2.87905 3.16693 0
M  V30 430 C 41.3709 2.78486 4.56453 0
M  V30 431 C 42.6709 4.29005 2.97913 0
M  V30 432 H 44.3649 2.60716 1.47198 0
M  V30 433 H 41.9109 1.25465 0.706714 0
M  V30 434 H 43.8639 1.84742 3.78746 0
M  V30 435 H 42.5879 0.766241 3.17484 0
M  V30 436 H 41.2469 2.75859 2.41448 0
M  V30 437 H 40.8949 1.7993 4.69717 0
M  V30 438 H 40.5949 3.55523 4.67843 0
M  V30 439 H 42.1189 2.92104 5.36197 0
M  V30 440 H 43.5329 4.41798 3.65359 0
M  V30 441 H 41.9299 5.07166 3.20785 0
M  V30 442 H 42.9999 4.44329 1.94165 0
M  V30 443 N 44.343 -0.763751 1.37857 0
M  V30 444 C 45.568 -1.55805 1.36893 0
M  V30 445 C 45.993 -1.88054 -0.0416135 0
M  V30 446 O 45.351 -1.49825 -1.02089 0
M  V30 447 C 45.399 -2.84012 2.22192 0
M  V30 448 O 44.503 -3.78732 1.63204 0
M  V30 449 H 43.844 -0.471638 0.46739 0
M  V30 450 H 46.374 -0.944657 1.81487 0
M  V30 451 H 46.384 -3.33037 2.35691 0
M  V30 452 H 45.059 -2.59869 3.24716 0
M  V30 453 H 43.636 -3.37402 1.58791 0
M  V30 454 N 45.8211 -1.22559 -0.990812 0
M  V30 455 C 47.2371 -0.985996 -1.255 0
M  V30 456 C 47.4371 0.319173 -1.98956 0
M  V30 457 O 46.4931 1.04127 -2.3003 0
M  V30 458 C 47.8061 -2.18607 -2.06474 0
M  V30 459 C 49.3541 -2.22985 -2.19651 0
M  V30 460 C 49.8291 -3.4255 -3.04012 0
M  V30 461 N 51.3201 -3.42725 -3.11599 0
M  V30 462 C 52.0551 -4.31892 -3.7717 0
M  V30 463 N 51.5511 -5.31279 -4.44651 0
M  V30 464 N 53.3441 -4.19662 -3.73952 0
M  V30 465 H 45.4951 -2.06469 -0.49841 0
M  V30 466 H 47.7581 -0.904853 -0.282747 0
M  V30 467 H 47.4641 -3.13267 -1.59865 0
M  V30 468 H 47.3381 -2.18838 -3.07229 0
M  V30 469 H 49.7251 -1.28871 -2.65474 0
M  V30 470 H 49.8061 -2.26791 -1.18319 0
M  V30 471 H 49.4501 -4.36965 -2.58889 0
M  V30 472 H 49.3801 -3.35984 -4.0549 0
M  V30 473 H 51.8711 -2.70807 -2.63575 0
M  V30 474 H 52.1841 -5.95593 -4.92431 0
M  V30 475 H 50.5291 -5.3519 -4.43392 0
M  V30 476 H 53.7201 -3.41268 -3.20396 0
M  V30 477 H 53.8931 -4.89358 -4.24774 0
M  V30 478 N 47.2992 1.18797 -1.03562 0
M  V30 479 C 48.5762 1.84469 -0.650434 0
M  V30 480 C 48.9562 1.92319 0.870433 0
M  V30 481 O 48.3042 1.44528 1.76986 0
M  V30 482 C 48.5142 3.2306 -1.32036 0
M  V30 483 C 49.8622 3.9915 -1.44792 0
M  V30 484 O 50.8862 3.32481 -1.27806 0
M  V30 485 O 49.7452 5.18587 -1.72423 0
M  V30 486 H 46.8392 0.795251 -0.226946 0
M  V30 487 H 49.3852 1.26231 -1.13419 0
M  V30 488 H 48.1572 3.1222 -2.3587 0
M  V30 489 H 47.7802 3.88949 -0.8249 0
M  V30 490 N 48.7773 0.814389 1.34928 0
M  V30 491 C 50.0173 0.404165 2.00364 0
M  V30 492 C 50.3813 -1.01166 1.63185 0
M  V30 493 O 51.5823 -1.52431 2.21401 0
M  V30 494 C 49.8533 0.590718 3.52484 0
M  V30 495 S 51.4123 0.272075 4.37956 0
M  V30 496 H 48.2303 0.15311 0.694319 0
M  V30 497 H 50.8323 1.05834 1.64376 0
M  V30 498 H 49.5363 1.62099 3.77031 0
M  V30 499 H 49.0673 -0.0785013 3.93322 0
M  V30 500 H 51.0823 -0.917405 4.87645 0
M  V30 501 N 50.2554 -1.46986 0.568584 0
M  V30 502 C 51.5324 -1.95592 -0.0174074 0
M  V30 503 C 51.9124 -1.51124 -1.47393 0
M  V30 504 O 51.2604 -0.755329 -2.15655 0
M  V30 505 C 51.4704 -3.48719 0.139913 0
M  V30 506 C 52.8184 -4.246 0.000426376 0
M  V30 507 O 53.8424 -3.56135 0.0680316 0
M  V30 508 O 52.7014 -5.46302 -0.146988 0
M  V30 509 H 49.7954 -0.82498 -0.0577599 0
M  V30 510 H 52.3414 -1.57335 0.635909 0
M  V30 511 H 51.1134 -3.73927 1.15301 0
M  V30 512 H 50.7364 -3.93771 -0.550491 0
M  V30 513 N 51.7335 -0.305618 -1.54608 0
M  V30 514 C 52.6965 0.555591 -2.22364 0
M  V30 515 C 53.6965 1.05768 -1.21119 0
M  V30 516 O 54.8865 0.952972 -1.45822 0
M  V30 517 C 52.0185 1.76974 -2.91364 0
M  V30 518 H 53.2115 -0.0364572 -2.99878 0
M  V30 519 H 50.7645 -0.0565007 -1.56198 0
M  V30 520 H 51.4995 2.40151 -2.17941 0
M  V30 521 H 51.2845 1.41732 -3.65588 0
M  V30 522 H 52.7745 2.38148 -3.43038 0
M  V30 523 N 53.2116 1.57565 -0.0334293 0
M  V30 524 C 54.1416 2.13511 0.945265 0
M  V30 525 C 55.1226 1.05231 1.33643 0
M  V30 526 O 56.3076 1.33084 1.41429 0
M  V30 527 C 53.4376 2.6657 2.22616 0
M  V30 528 C 52.3916 3.79676 1.97561 0
M  V30 529 C 51.7176 4.1918 3.31952 0
M  V30 530 C 53.0176 5.0557 1.31135 0
M  V30 531 H 54.7116 2.95538 0.479325 0
M  V30 532 H 52.2576 1.42166 0.229115 0
M  V30 533 H 54.2106 3.04344 2.91466 0
M  V30 534 H 52.9346 1.8171 2.71384 0
M  V30 535 H 51.5936 3.42347 1.31127 0
M  V30 536 H 51.2416 3.31296 3.78487 0
M  V30 537 H 50.9416 4.95402 3.15992 0
M  V30 538 H 52.4656 4.59541 4.02063 0
M  V30 539 H 53.8796 5.40903 1.89992 0
M  V30 540 H 52.2766 5.86818 1.25559 0
M  V30 541 H 53.3466 4.84062 0.284894 0
M  V30 542 N 54.6897 -0.239769 1.55765 0
M  V30 543 C 55.6227 -1.32356 1.85895 0
M  V30 544 C 56.6007 -1.46053 0.714662 0
M  V30 545 O 57.7847 -1.62154 0.961157 0
M  V30 546 C 54.9117 -2.6962 2.04994 0
M  V30 547 C 53.9577 -2.73036 3.27648 0
M  V30 548 S 54.7907 -2.28929 4.84099 0
M  V30 549 C 55.9467 -3.68103 5.06212 0
M  V30 550 H 56.1797 -1.06601 2.77531 0
M  V30 551 H 53.7127 -0.441112 1.47965 0
M  V30 552 H 55.6707 -3.48653 2.16682 0
M  V30 553 H 54.3317 -2.92609 1.14188 0
M  V30 554 H 53.5247 -3.7386 3.38 0
M  V30 555 H 53.1267 -2.02052 3.14723 0
M  V30 556 H 55.4187 -4.63656 4.93993 0
M  V30 557 H 56.3617 -3.6268 6.08168 0
M  V30 558 H 56.7697 -3.60947 4.34025 0
M  V30 559 N 56.1678 -1.49265 -0.50573 0
M  V30 560 C 57.1308 -1.65075 -1.59006 0
M  V30 561 C 58.1308 -0.522768 -1.52065 0
M  V30 562 O 59.3208 -0.789117 -1.55302 0
M  V30 563 C 56.4528 -1.64369 -2.98656 0
M  V30 564 H 57.6458 -2.61784 -1.46319 0
M  V30 565 H 55.1988 -1.38226 -0.729616 0
M  V30 566 H 55.9338 -0.692272 -3.16825 0
M  V30 567 H 55.7188 -2.46282 -3.05103 0
M  V30 568 H 57.2088 -1.78674 -3.77446 0
M  V30 569 N 57.6459 0.756429 -1.3826 0
M  V30 570 C 58.8939 1.51248 -1.34047 0
M  V30 571 C 59.2149 1.94875 0.0698372 0
M  V30 572 O 58.4849 1.67436 1.01696 0
M  V30 573 H 57.0649 0.561018 -0.493222 0
M  V30 574 H 59.7269 0.899347 -1.7291 0
M  V30 575 H 58.8229 2.40472 -1.98947 0
M  V30 576 N 59.124 1.23083 0.984299 0
M  V30 577 C 60.364 1.07226 1.74017 0
M  V30 578 C 60.728 -0.384766 1.88105 0
M  V30 579 O 61.929 -0.664411 2.60459 0
M  V30 580 C 60.2 1.77348 3.10294 0
M  V30 581 S 61.759 1.77014 4.01512 0
M  V30 582 H 58.577 0.383819 0.598502 0
M  V30 583 H 61.179 1.56158 1.17622 0
M  V30 584 H 59.883 2.82506 2.97689 0
M  V30 585 H 59.414 1.28682 3.71759 0
M  V30 586 H 61.429 0.825956 4.89277 0
M  V30 587 N 60.6021 -1.18246 1.0419 0
M  V30 588 C 61.8511 -1.87588 0.741194 0
M  V30 589 C 62.1641 -1.81303 -0.734066 0
M  V30 590 O 63.3701 -2.46019 -1.14834 0
M  V30 591 C 61.8261 -3.36538 1.27555 0
M  V30 592 C 61.4341 -3.51349 2.77953 0
M  V30 593 C 63.1781 -4.11273 1.05143 0
M  V30 594 C 61.0851 -4.94265 3.2474 0
M  V30 595 H 60.0151 -0.702622 0.273565 0
M  V30 596 H 62.6661 -1.33601 1.25789 0
M  V30 597 H 61.0481 -3.9 0.686703 0
M  V30 598 H 62.2221 -3.08153 3.42605 0
M  V30 599 H 60.5371 -2.90022 2.98791 0
M  V30 600 H 63.1341 -5.16689 1.37611 0
M  V30 601 H 63.4771 -4.16298 -0.0112774 0
M  V30 602 H 64.0101 -3.63987 1.60495 0
M  V30 603 H 60.7491 -4.94408 4.30396 0
M  V30 604 H 60.2691 -5.38172 2.64823 0
M  V30 605 H 61.9481 -5.62987 3.18834 0
M  V30 606 N 62.0802 -0.821533 -1.34494 0
M  V30 607 C 63.0122 -0.199946 -2.28326 0
M  V30 608 C 64.0252 0.609377 -1.50965 0
M  V30 609 O 65.2142 0.439285 -1.7301 0
M  V30 610 C 62.3142 0.738431 -3.30757 0
M  V30 611 C 61.4872 -0.0277632 -4.37391 0
M  V30 612 C 60.5462 0.831332 -5.19591 0
M  V30 613 O 59.5722 0.276822 -5.68526 0
M  V30 614 N 60.7742 2.15132 -5.39165 0
M  V30 615 H 63.5392 -1.00609 -2.82308 0
M  V30 616 H 61.1002 -0.678366 -1.47003 0
M  V30 617 H 63.0922 1.31773 -3.82646 0
M  V30 618 H 61.6622 1.44533 -2.7718 0
M  V30 619 H 60.8822 -0.788359 -3.86236 0
M  V30 620 H 62.1702 -0.555251 -5.05761 0
M  V30 621 H 61.5682 2.62559 -5.01078 0
M  V30 622 H 60.1252 2.6795 -5.94177 0
M  V30 623 N 63.5583 1.46682 -0.576371 0
M  V30 624 C 64.4683 2.34032 0.163141 0
M  V30 625 C 65.4843 1.49367 0.892501 0
M  V30 626 O 66.6603 1.82252 0.857106 0
M  V30 627 C 63.7253 3.26435 1.16795 0
M  V30 628 C 62.7863 4.26998 0.443944 0
M  V30 629 C 62.0193 5.14986 1.40088 0
M  V30 630 O 62.2423 5.05785 2.637 0
M  V30 631 O 61.1763 5.94906 0.914917 0
M  V30 632 H 65.0023 2.98607 -0.55388 0
M  V30 633 H 62.5873 1.45554 -0.336821 0
M  V30 634 H 64.4693 3.83459 1.74748 0
M  V30 635 H 63.1443 2.64465 1.86655 0
M  V30 636 H 62.0513 3.7368 -0.177271 0
M  V30 637 H 63.3843 4.91736 -0.213566 0
M  V30 638 N 65.0364 0.313813 1.54444 0
M  V30 639 C 65.9994 -0.54379 2.22656 0
M  V30 640 C 66.9994 -1.05124 1.21678 0
M  V30 641 O 68.1894 -0.945225 1.46325 0
M  V30 642 C 65.3214 -1.75427 2.92298 0
M  V30 643 H 66.5144 0.0523599 2.99854 0
M  V30 644 H 64.0674 0.0647834 1.56166 0
M  V30 645 H 64.8024 -2.38991 2.19211 0
M  V30 646 H 64.5874 -1.39791 3.66334 0
M  V30 647 H 66.0774 -2.36325 3.44297 0
M  V30 648 N 66.5145 -1.57545 0.0417849 0
M  V30 649 C 67.9305 -1.56467 -0.314704 0
M  V30 650 C 68.1305 -1.04859 -1.72066 0
M  V30 651 O 67.1865 -0.700983 -2.42575 0
M  V30 652 C 68.4995 -3.00317 -0.15174 0
M  V30 653 C 70.0475 -3.12201 -0.223553 0
M  V30 654 C 70.5225 -4.57913 -0.0892295 0
M  V30 655 N 72.0135 -4.6297 -0.145808 0
M  V30 656 C 72.7485 -5.73362 -0.0658459 0
M  V30 657 N 72.2445 -6.92769 0.0659282 0
M  V30 658 N 74.0375 -5.6197 -0.12075 0
M  V30 659 H 66.1885 -1.89416 0.961014 0
M  V30 660 H 68.4515 -0.871862 0.372237 0
M  V30 661 H 68.1575 -3.42073 0.817254 0
M  V30 662 H 68.0315 -3.65892 -0.916692 0
M  V30 663 H 70.4185 -2.70349 -1.18301 0
M  V30 664 H 70.4995 -2.49323 0.571994 0
M  V30 665 H 70.1435 -5.00448 0.866867 0
M  V30 666 H 70.0735 -5.18786 -0.903802 0
M  V30 667 H 72.5645 -3.7709 -0.247286 0
M  V30 668 H 72.8775 -7.72707 0.119905 0
M  V30 669 H 71.2225 -6.94927 0.100885 0
M  V30 670 H 74.4135 -4.67572 -0.222187 0
M  V30 671 H 74.5865 -6.47977 -0.0549735 0
M  V30 672 N 67.9926 0.231505 -1.5589 0
M  V30 673 C 68.9026 1.308 -1.94752 0
M  V30 674 C 69.9186 1.51826 -0.849989 0
M  V30 675 O 71.0946 1.6515 -1.15271 0
M  V30 676 C 68.1596 2.63968 -2.24771 0
M  V30 677 C 67.2206 2.51331 -3.48039 0
M  V30 678 C 66.4536 3.78148 -3.76616 0
M  V30 679 O 66.6766 4.80722 -3.07022 0
M  V30 680 O 65.6106 3.75857 -4.70123 0
M  V30 681 H 69.4366 1.0083 -2.86474 0
M  V30 682 H 67.0216 0.433547 -1.42971 0
M  V30 683 H 68.9036 3.42633 -2.45318 0
M  V30 684 H 67.5786 2.9364 -1.36225 0
M  V30 685 H 66.4856 1.709 -3.32782 0
M  V30 686 H 67.8186 2.26601 -4.36936 0
M  V30 687 N 69.4707 1.49531 0.497807 0
M  V30 688 C 70.8867 1.36365 0.829266 0
M  V30 689 C 71.0867 0.399184 1.97506 0
M  V30 690 O 70.1427 -0.167977 2.51941 0
M  V30 691 C 71.4557 2.77153 1.16647 0
M  V30 692 C 73.0037 2.85877 1.27449 0
M  V30 693 C 73.4787 4.2744 1.64497 0
M  V30 694 N 74.9697 4.30265 1.7154 0
M  V30 695 C 75.7047 5.3677 2.01656 0
M  V30 696 N 75.2007 6.53516 2.29976 0
M  V30 697 N 76.9937 5.24189 2.02934 0
M  V30 698 H 69.1447 2.10831 -0.257703 0
M  V30 699 H 71.4077 0.946534 -0.0527091 0
M  V30 700 H 71.1137 3.49442 0.397872 0
M  V30 701 H 70.9877 3.12722 2.10915 0
M  V30 702 H 73.3747 2.13824 2.0338 0
M  V30 703 H 73.4557 2.53887 0.312244 0
M  V30 704 H 73.0997 5.00021 0.891151 0
M  V30 705 H 73.0297 4.56896 2.61827 0
M  V30 706 H 75.5207 3.4607 1.51802 0
M  V30 707 H 75.8337 7.30506 2.52153 0
M  V30 708 H 74.1787 6.56737 2.27425 0
M  V30 709 H 77.3697 4.31988 1.80289 0
M  V30 710 H 77.5427 6.07286 2.26071 0
M  V30 711 N 70.9488 -0.749086 1.3866 0
M  V30 712 C 72.1948 -1.50959 1.36319 0
M  V30 713 C 72.5498 -1.92347 -0.0452451 0
M  V30 714 O 71.8428 -1.6289 -1.00884 0
M  V30 715 C 72.0368 -2.7712 2.25697 0
M  V30 716 C 71.8658 -2.48067 3.7509 0
M  V30 717 C 70.6358 -2.41062 4.44091 0
M  V30 718 C 72.8338 -2.14544 4.67414 0
M  V30 719 N 70.8158 -2.04331 5.78897 0
M  V30 720 C 72.1868 -1.88141 5.90765 0
M  V30 721 C 74.2418 -2.00892 4.55573 0
M  V30 722 C 72.9448 -1.49463 7.036 0
M  V30 723 C 74.9708 -1.63616 5.68317 0
M  V30 724 C 74.3328 -1.38088 6.90732 0
M  V30 725 H 70.4318 -0.551804 0.554108 0
M  V30 726 H 73.0158 -0.871886 1.74087 0
M  V30 727 H 71.1868 -3.38693 1.9011 0
M  V30 728 H 72.9188 -3.4321 2.1445 0
M  V30 729 H 69.6738 -2.57685 3.9736 0
M  V30 730 H 70.0978 -1.88598 6.502 0
M  V30 731 H 74.7398 -2.19301 3.61479 0
M  V30 732 H 72.4578 -1.29794 7.97608 0
M  V30 733 H 76.0438 -1.53678 5.61137 0
M  V30 734 H 74.9238 -1.09674 7.76493 0
M  V30 735 N 72.4269 -1.23603 -0.977757 0
M  V30 736 C 73.3749 -1.01704 -2.09187 0
M  V30 737 C 74.3689 0.0448214 -1.69341 0
M  V30 738 O 75.5749 -0.108902 -1.7967 0
M  V30 739 H 71.9499 -0.311803 -0.684312 0
M  V30 740 H 73.9209 -1.96207 -2.24823 0
M  V30 741 C 72.6699 -0.627746 -3.41986 0
M  V30 742 H 71.9929 -1.43656 -3.73099 0
M  V30 743 H 73.4329 -0.514053 -4.20872 0
M  V30 744 C 71.8919 0.664238 -3.30287 0
M  V30 745 O 72.4219 1.71268 -3.6336 0
M  V30 746 N 70.6279 0.641156 -2.83439 0
M  V30 747 H 70.1749 -0.212376 -2.56723 0
M  V30 748 H 70.1329 1.50583 -2.75993 0
M  V30 749 N 73.905 1.17692 -1.04816 0
M  V30 750 C 75.152 1.87859 -0.75599 0
M  V30 751 C 75.48 1.80812 0.716752 0
M  V30 752 O 74.735 1.20819 1.53952 0
M  V30 753 C 75.034 3.37462 -1.17703 0
M  V30 754 C 74.7 3.64713 -2.65133 0
M  V30 755 C 73.362 3.71859 -3.05408 0
M  V30 756 C 75.714 3.76492 -3.60421 0
M  V30 757 C 73.042 3.88271 -4.39843 0
M  V30 758 C 75.394 3.94421 -4.94585 0
M  V30 759 C 74.058 3.99806 -5.3452 0
M  V30 760 H 73.328 0.687425 -0.276636 0
M  V30 761 H 75.975 1.39255 -1.31455 0
M  V30 762 H 74.28 3.88097 -0.537395 0
M  V30 763 H 75.977 3.90109 -0.928218 0
M  V30 764 H 72.567 3.59772 -2.32942 0
M  V30 765 H 76.751 3.70295 -3.30447 0
M  V30 766 H 72.007 3.90687 -4.70291 0
M  V30 767 H 76.181 4.02477 -5.68318 0
M  V30 768 H 73.808 4.12276 -6.38696 0
M  V30 769 N 75.3831 0.828654 1.34056 0
M  V30 770 C 76.6601 0.341809 1.9259 0
M  V30 771 C 77.0401 -1.17158 1.75605 0
M  V30 772 O 76.3881 -1.98132 1.13824 0
M  V30 773 C 76.5981 0.777453 3.4023 0
M  V30 774 C 77.9461 0.779579 4.17382 0
M  V30 775 O 78.9701 0.7204 3.48839 0
M  V30 776 O 77.8291 0.857996 5.39723 0
M  V30 777 H 74.9231 0.0946085 0.821571 0
M  V30 778 H 77.4691 0.913827 1.42994 0
M  V30 779 H 76.2411 1.8196 3.46419 0
M  V30 780 H 75.8641 0.181444 3.97186 0
M  V30 781 N 76.8612 -1.46375 0.584142 0
M  V30 782 C 78.1082 -2.02378 0.0702675 0
M  V30 783 C 78.4362 -1.45545 -1.29023 0
M  V30 784 O 77.6912 -0.610967 -1.85918 0
M  V30 785 C 77.9902 -3.57373 -0.0439342 0
M  V30 786 C 77.6562 -4.33252 1.24915 0
M  V30 787 C 76.3182 -4.53701 1.60341 0
M  V30 788 C 78.6702 -4.7681 2.1048 0
M  V30 789 C 75.9982 -5.1496 2.81128 0
M  V30 790 C 78.3502 -5.39404 3.30494 0
M  V30 791 C 77.0142 -5.5808 3.66201 0
M  V30 792 H 76.2842 -0.740554 0.0257127 0
M  V30 793 H 78.9312 -1.75727 0.761065 0
M  V30 794 H 77.2362 -3.83169 -0.817869 0
M  V30 795 H 78.9332 -3.98384 -0.457318 0
M  V30 796 H 75.5232 -4.17633 0.963364 0
M  V30 797 H 79.7072 -4.60766 1.84414 0
M  V30 798 H 74.9632 -5.27611 3.08928 0
M  V30 799 H 79.1372 -5.72114 3.97063 0
M  V30 800 H 76.7642 -6.05318 4.59885 0
M  V30 801 N 78.3393 -0.321999 -1.54275 0
M  V30 802 C 79.5853 0.281461 -2.00837 0
M  V30 803 C 79.9183 1.51909 -1.20985 0
M  V30 804 O 79.1933 1.923 -0.291733 0
M  V30 805 C 79.4763 0.617162 -3.54772 0
M  V30 806 C 79.3293 -0.631064 -4.45351 0
M  V30 807 C 80.6483 1.43542 -4.16033 0
M  V30 808 H 77.7673 0.100826 -0.730071 0
M  V30 809 H 80.4093 -0.438268 -1.84876 0
M  V30 810 H 78.5593 1.23034 -3.68504 0
M  V30 811 H 80.2313 -1.26934 -4.43492 0
M  V30 812 H 78.4743 -1.26025 -4.15091 0
M  V30 813 H 79.1453 -0.351735 -5.50878 0
M  V30 814 H 81.6213 0.917134 -4.05867 0
M  V30 815 H 80.4973 1.63907 -5.23856 0
M  V30 816 H 80.7583 2.43108 -3.69257 0
M  V30 817 N 79.8174 1.5752 -0.0501392 0
M  V30 818 C 81.0454 1.96963 0.633492 0
M  V30 819 C 81.4604 0.927631 1.6444 0
M  V30 820 O 80.8174 -0.0882665 1.82286 0
M  V30 821 C 80.8684 3.36487 1.32132 0
M  V30 822 O 80.5894 4.36693 0.350894 0
M  V30 823 C 82.0904 3.90682 2.09481 0
M  V30 824 H 79.3104 0.648244 0.173266 0
M  V30 825 H 81.8544 2.0417 -0.116134 0
M  V30 826 H 80.0094 3.30434 2.02218 0
M  V30 827 H 80.4234 5.17702 0.841735 0
M  V30 828 H 81.8974 4.90591 2.5303 0
M  V30 829 H 82.3744 3.26053 2.94255 0
M  V30 830 H 82.9804 4.00069 1.44307 0
M  V30 831 N 81.2955 -0.223234 1.56011 0
M  V30 832 C 82.2055 -1.29766 1.95443 0
M  V30 833 C 83.2215 -1.51373 0.858028 0
M  V30 834 O 84.3975 -1.64536 1.16146 0
M  V30 835 C 81.4625 -2.62772 2.26167 0
M  V30 836 C 80.5235 -2.49482 3.49367 0
M  V30 837 C 79.7565 -3.76145 3.78616 0
M  V30 838 O 79.9795 -4.79087 3.09568 0
M  V30 839 O 78.9135 -3.73358 4.72109 0
M  V30 840 H 82.7395 -0.99309 2.87004 0
M  V30 841 H 80.3245 -0.425958 1.43199 0
M  V30 842 H 82.2065 -3.41327 2.47131 0
M  V30 843 H 80.8815 -2.92913 1.37781 0
M  V30 844 H 79.7885 -1.69133 3.33684 0
M  V30 845 H 81.1215 -2.2428 4.38131 0
M  V30 846 N 82.7736 -1.49793 -0.48987 0
M  V30 847 C 84.0016 -1.63568 -1.26701 0
M  V30 848 C 84.4166 -0.311465 -1.86213 0
M  V30 849 O 83.7736 0.704416 -1.68357 0
M  V30 850 C 83.8246 -2.71284 -2.38929 0
M  V30 851 O 83.5456 -3.9857 -1.81861 0
M  V30 852 C 85.0466 -2.95864 -3.3012 0
M  V30 853 H 82.2666 -0.550342 -0.383881 0
M  V30 854 H 84.8106 -1.95898 -0.586864 0
M  V30 855 H 82.9656 -2.417 -3.02753 0
M  V30 856 H 83.3796 -4.57993 -2.55622 0
M  V30 857 H 84.8536 -3.74941 -4.05121 0
M  V30 858 H 85.3306 -2.06206 -3.87783 0
M  V30 859 H 85.9366 -3.26907 -2.72051 0
M  V30 860 N 84.2517 0.741722 -1.39055 0
M  V30 861 C 85.6627 1.31966 -1.32068 0
M  V30 862 C 86.0137 1.96192 0.0180797 0
M  V30 863 O 85.1387 1.95861 0.920196 0
M  V30 864 C 85.7337 2.39954 -2.39181 0
M  V30 865 C 84.2927 2.93438 -2.35735 0
M  V30 866 C 83.4397 1.66936 -2.21422 0
M  V30 867 H 86.3907 0.539721 -1.4924 0
M  V30 868 H 86.4117 3.20182 -2.05581 0
M  V30 869 H 85.9237 1.9318 -3.36605 0
M  V30 870 H 84.0247 3.4451 -1.41929 0
M  V30 871 H 84.1377 3.4701 -3.30335 0
M  V30 872 H 82.5017 1.91016 -1.68478 0
M  V30 873 H 83.2847 1.22224 -3.20806 0
M  V30 874 N 85.7298 1.2412 0.971189 0
M  V30 875 C 86.6598 1.05508 2.08304 0
M  V30 876 C 87.6408 -0.0308864 1.70072 0
M  V30 877 O 88.8258 0.135521 1.93727 0
M  V30 878 C 85.9558 0.655365 3.4106 0
M  V30 879 C 84.9098 1.68971 3.93234 0
M  V30 880 C 84.2358 1.14516 5.22293 0
M  V30 881 C 85.5358 3.08487 4.21465 0
M  V30 882 H 87.2298 1.98507 2.24132 0
M  V30 883 H 84.7758 0.955821 1.07704 0
M  V30 884 H 86.7288 0.51217 4.18276 0
M  V30 885 H 85.4528 -0.31032 3.25122 0
M  V30 886 H 84.1118 1.82106 3.18171 0
M  V30 887 H 83.7598 0.170189 5.02712 0
M  V30 888 H 83.4598 1.83635 5.58168 0
M  V30 889 H 84.9838 1.01401 6.02121 0
M  V30 890 H 86.3978 2.98601 4.89398 0
M  V30 891 H 84.7948 3.74926 4.68562 0
M  V30 892 H 85.8648 3.56787 3.28376 0
M  V30 893 N 87.2079 -1.17134 1.05439 0
M  V30 894 C 88.1179 -2.24878 0.668365 0
M  V30 895 C 89.1339 -1.71186 -0.311687 0
M  V30 896 O 90.3099 -2.00738 -0.163161 0
M  V30 897 C 87.3749 -3.46662 0.051648 0
M  V30 898 C 86.4359 -4.15429 1.08246 0
M  V30 899 C 85.6689 -5.31399 0.495082 0
M  V30 900 O 85.8919 -5.66153 -0.694743 0
M  V30 901 O 84.8259 -5.89187 1.23056 0
M  V30 902 H 88.6519 -2.60189 1.56637 0
M  V30 903 H 86.2369 -1.24482 0.826104 0
M  V30 904 H 88.1189 -4.20394 -0.290966 0
M  V30 905 H 86.7939 -3.13142 -0.819971 0
M  V30 906 H 85.7009 -3.43704 1.47711 0
M  V30 907 H 87.0339 -4.52982 1.92532 0
M  V30 908 N 88.686 -0.835752 -1.33615 0
M  V30 909 C 89.934 -0.429109 -1.97492 0
M  V30 910 C 90.255 1.01433 -1.66543 0
M  V30 911 O 89.525 1.70611 -0.962744 0
M  V30 912 H 88.105 -0.155686 -0.730596 0
M  V30 913 H 90.767 -1.06802 -1.63031 0
M  V30 914 H 89.863 -0.55861 -3.0706 0
M  V30 915 N 90.1641 1.46063 -0.591896 0
M  V30 916 C 91.4411 1.95595 -0.0137119 0
M  V30 917 C 91.8211 1.5345 1.4497 0
M  V30 918 O 91.1691 0.789543 2.14426 0
M  V30 919 C 91.3791 3.48453 -0.195373 0
M  V30 920 C 92.7271 4.24546 -0.0679765 0
M  V30 921 O 93.7511 3.55982 -0.124681 0
M  V30 922 O 92.6101 5.46467 0.0600579 0
M  V30 923 H 89.7041 0.825795 0.0446279 0
M  V30 924 H 92.2501 1.56303 -0.660859 0
M  V30 925 H 91.0221 3.72045 -1.21235 0
M  V30 926 H 90.6451 3.94597 0.487775 0
M  V30 927 N 91.6422 0.330177 1.54103 0
M  V30 928 C 92.8892 -0.270405 2.00686 0
M  V30 929 C 93.2172 -1.51621 1.21825 0
M  V30 930 O 92.4722 -1.93536 0.29025 0
M  V30 931 C 92.7712 -0.643134 3.51566 0
M  V30 932 C 92.4372 0.504251 4.48072 0
M  V30 933 C 91.0992 0.819163 4.74176 0
M  V30 934 C 93.4512 1.27465 5.05373 0
M  V30 935 C 90.7792 1.90708 5.5484 0
M  V30 936 C 93.1312 2.35271 5.87223 0
M  V30 937 C 91.7952 2.67336 6.11627 0
M  V30 938 H 91.0652 -0.0989482 0.734364 0
M  V30 939 H 93.7122 0.455324 1.86008 0
M  V30 940 H 92.0172 -1.44938 3.64006 0
M  V30 941 H 93.7142 -1.11949 3.85056 0
M  V30 942 H 90.3042 0.248733 4.27878 0
M  V30 943 H 94.4882 1.04462 4.85182 0
M  V30 944 H 89.7442 2.15991 5.71977 0
M  V30 945 H 93.9182 2.95405 6.30641 0
M  V30 946 H 91.5452 3.51763 6.73919 0
M  V30 947 N 93.1203 -1.57491 0.0584922 0
M  V30 948 C 94.0833 -2.1085 -0.898617 0
M  V30 949 C 95.0833 -1.02964 -1.23511 0
M  V30 950 O 96.2733 -1.29007 -1.17059 0
M  V30 951 C 93.4053 -2.59881 -2.20623 0
M  V30 952 H 94.5983 -2.96715 -0.435936 0
M  V30 953 H 92.1513 -1.55141 -0.190023 0
M  V30 954 H 92.8863 -1.77431 -2.71457 0
M  V30 955 H 92.6713 -3.38727 -1.97501 0
M  V30 956 H 94.1613 -3.01285 -2.89166 0
M  V30 957 N 94.5984 0.214957 -1.56127 0
M  V30 958 C 95.8444 0.935325 -1.80619 0
M  V30 959 C 96.1994 1.81706 -0.632507 0
M  V30 960 O 95.4924 1.87931 0.373182 0
M  V30 961 C 95.6864 1.80314 -3.0858 0
M  V30 962 C 95.5154 1.00691 -4.38282 0
M  V30 963 C 94.2854 0.699211 -5.00439 0
M  V30 964 C 96.4834 0.369057 -5.12974 0
M  V30 965 N 94.4654 -0.117734 -6.13787 0
M  V30 966 C 95.8364 -0.310981 -6.1922 0
M  V30 967 C 97.8914 0.282759 -4.97096 0
M  V30 968 C 96.5944 -1.06907 -7.11311 0
M  V30 969 C 98.6204 -0.461881 -5.89594 0
M  V30 970 C 97.9824 -1.13044 -6.9527 0
M  V30 971 H 94.0814 0.322307 -0.71249 0
M  V30 972 H 96.6654 0.205649 -1.93611 0
M  V30 973 H 94.8364 2.50458 -2.96859 0
M  V30 974 H 96.5684 2.46148 -3.21237 0
M  V30 975 H 93.3234 1.01884 -4.62511 0
M  V30 976 H 93.7474 -0.515235 -6.75037 0
M  V30 977 H 98.3894 0.785292 -4.15443 0
M  V30 978 H 96.1074 -1.5831 -7.92442 0
M  V30 979 H 99.6934 -0.529746 -5.79383 0
M  V30 980 H 98.5734 -1.69742 -7.65609 0
M  V30 981 N 96.0765 1.50051 0.48192 0
M  V30 982 C 96.9865 1.7089 1.60728 0
M  V30 983 C 98.0025 0.591788 1.63627 0
M  V30 984 O 99.1785 0.868817 1.81696 0
M  V30 985 C 96.2435 1.78855 2.97005 0
M  V30 986 C 95.3045 3.02537 3.04581 0
M  V30 987 C 94.5375 3.10112 4.34357 0
M  V30 988 O 94.7605 2.24765 5.24249 0
M  V30 989 O 93.6945 4.02747 4.47301 0
M  V30 990 H 97.5205 2.66264 1.46072 0
M  V30 991 H 95.1055 1.34018 0.660264 0
M  V30 992 H 96.9875 1.86336 3.77964 0
M  V30 993 H 95.6625 0.866628 3.11883 0
M  V30 994 H 94.5695 3.00563 2.22739 0
M  V30 995 H 95.9025 3.94272 2.94636 0
M  V30 996 N 97.5546 -0.734337 1.39446 0
M  V30 997 C 98.9706 -1.03997 1.21065 0
M  V30 998 C 99.1706 -2.01369 0.0727019 0
M  V30 999 O 98.2266 -2.45856 -0.575426 0
M  V30 1000 C 99.5396 -1.60163 2.54496 0
M  V30 1001 C 101.088 -1.7224 2.61347 0
M  V30 1002 C 101.563 -2.31814 3.95002 0
M  V30 1003 N 103.054 -2.39223 3.96644 0
M  V30 1004 C 103.789 -2.86258 4.96834 0
M  V30 1005 N 103.285 -3.33184 6.07421 0
M  V30 1006 N 105.078 -2.85473 4.84213 0
M  V30 1007 H 97.2286 -0.0885624 2.12215 0
M  V30 1008 H 99.4916 -0.10191 0.942506 0
M  V30 1009 H 99.1976 -0.960811 3.38321 0
M  V30 1010 H 99.0716 -2.5896 2.74262 0
M  V30 1011 H 101.459 -2.35443 1.77906 0
M  V30 1012 H 101.54 -0.720939 2.4543 0
M  V30 1013 H 101.184 -1.69238 4.78875 0
M  V30 1014 H 101.114 -3.32638 4.08239 0
M  V30 1015 H 103.605 -2.06057 3.16779 0
M  V30 1016 H 103.918 -3.67586 6.7978 0
M  V30 1017 H 102.263 -3.31191 6.11013 0
M  V30 1018 H 105.454 -2.48136 3.96921 0
M  V30 1019 H 105.627 -3.21814 5.62441 0
M  V30 1020 N 99.0327 -1.24633 -0.964593 0
M  V30 1021 C 100.279 -1.08949 -1.71049 0
M  V30 1022 C 100.612 0.370302 -1.90637 0
M  V30 1023 O 99.8867 1.27349 -1.47011 0
M  V30 1024 C 100.17 -1.83329 -3.0994 0
M  V30 1025 C 100.023 -3.37077 -2.97824 0
M  V30 1026 C 101.342 -1.60846 -4.09654 0
M  V30 1027 H 98.4607 -0.397178 -0.620821 0
M  V30 1028 H 101.103 -1.5334 -1.12191 0
M  V30 1029 H 99.2527 -1.45597 -3.60186 0
M  V30 1030 H 100.925 -3.84425 -2.5498 0
M  V30 1031 H 99.1677 -3.65298 -2.33965 0
M  V30 1032 H 99.8387 -3.84324 -3.96231 0
M  V30 1033 H 102.315 -1.93674 -3.68279 0
M  V30 1034 H 101.191 -2.1534 -5.04896 0
M  V30 1035 H 101.452 -0.547434 -4.38698 0
M  V30 1036 N 100.511 1.16574 -1.06058 0
M  V30 1037 C 101.927 1.3904 -0.783585 0
M  V30 1038 C 102.127 1.91784 0.618145 0
M  V30 1039 O 101.183 2.11511 1.37911 0
M  V30 1040 C 102.496 2.37329 -1.84649 0
M  V30 1041 C 104.044 2.51018 -1.86973 0
M  V30 1042 C 104.519 3.52588 -2.92311 0
M  V30 1043 N 106.01 3.60113 -2.91329 0
M  V30 1044 C 106.745 4.38486 -3.69482 0
M  V30 1045 N 106.241 5.20302 -4.57447 0
M  V30 1046 N 108.034 4.33446 -3.57885 0
M  V30 1047 H 100.185 0.806725 -1.96483 0
M  V30 1048 H 102.448 0.417117 -0.851303 0
M  V30 1049 H 102.154 2.05663 -2.85299 0
M  V30 1050 H 102.028 3.36946 -1.6955 0
M  V30 1051 H 104.415 2.81989 -0.869827 0
M  V30 1052 H 104.496 1.51445 -2.0615 0
M  V30 1053 H 104.14 3.22354 -3.92492 0
M  V30 1054 H 104.07 4.51886 -2.70383 0
M  V30 1055 H 106.561 3.01707 -2.27555 0
M  V30 1056 H 106.874 5.77311 -5.13743 0
M  V30 1057 H 105.219 5.19653 -4.61503 0
M  V30 1058 H 108.41 3.68586 -2.88551 0
M  V30 1059 H 108.583 4.94279 -4.19037 0
M  V30 1060 N 101.989 0.842826 1.3317 0
M  V30 1061 C 103.237 0.439577 1.97262 0
M  V30 1062 C 103.558 -1.00548 1.67078 0
M  V30 1063 O 102.828 -1.70098 0.971779 0
M  V30 1064 H 101.408 0.159558 0.72976 0
M  V30 1065 H 104.07 1.07665 1.62463 0
M  V30 1066 H 103.166 0.574886 3.0676 0
M  V30 1067 N 103.467 -1.45747 0.599634 0
M  V30 1068 C 104.397 -2.33235 -0.111306 0
M  V30 1069 C 105.378 -1.46359 -0.866781 0
M  V30 1070 O 106.563 -1.75146 -0.838904 0
M  V30 1071 C 103.693 -3.28932 -1.11451 0
M  V30 1072 C 102.647 -4.25381 -0.472772 0
M  V30 1073 C 101.973 -5.1071 -1.58365 0
M  V30 1074 C 103.273 -5.18831 0.600948 0
M  V30 1075 H 104.967 -2.92927 0.61919 0
M  V30 1076 H 102.513 -1.40857 0.299215 0
M  V30 1077 H 104.466 -3.89002 -1.62036 0
M  V30 1078 H 103.19 -2.67381 -1.8755 0
M  V30 1079 H 101.849 -3.66598 0.0121472 0
M  V30 1080 H 101.497 -4.45533 -2.33473 0
M  V30 1081 H 101.197 -5.7604 -1.15982 0
M  V30 1082 H 102.721 -5.73647 -2.09194 0
M  V30 1083 H 104.135 -5.73019 0.179491 0
M  V30 1084 H 102.532 -5.92595 0.946076 0
M  V30 1085 H 103.602 -4.6174 1.48068 0
M  V30 1086 N 104.945 -0.338344 -1.53925 0
M  V30 1087 C 106.193 0.259245 -2.0043 0
M  V30 1088 C 106.514 1.51484 -1.22791 0
M  V30 1089 O 105.784 1.93037 -0.33368 0
M  V30 1090 H 104.364 0.0987845 -0.740439 0
M  V30 1091 H 107.026 -0.458302 -1.89435 0
M  V30 1092 H 106.122 0.505334 -3.07982 0
M  V30 1093 N 106.423 1.57458 -0.0668435 0
M  V30 1094 C 107.353 2.15468 0.899764 0
M  V30 1095 C 108.334 1.08042 1.31381 0
M  V30 1096 O 109.519 1.36054 1.38574 0
M  V30 1097 C 106.649 2.71232 2.16911 0
M  V30 1098 C 105.603 3.83781 1.89463 0
M  V30 1099 C 104.929 4.26127 3.22986 0
M  V30 1100 C 106.229 5.08238 1.20381 0
M  V30 1101 H 107.923 2.96488 0.416529 0
M  V30 1102 H 105.469 1.4262 0.198908 0
M  V30 1103 H 107.422 3.10458 2.84945 0
M  V30 1104 H 106.146 1.87426 2.67468 0
M  V30 1105 H 104.805 3.45051 1.23836 0
M  V30 1106 H 104.453 3.39249 3.71374 0
M  V30 1107 H 104.153 5.01993 3.05413 0
M  V30 1108 H 105.677 4.67966 3.92225 0
M  V30 1109 H 107.091 5.44811 1.78475 0
M  V30 1110 H 105.488 5.89349 1.13083 0
M  V30 1111 H 106.558 4.84558 0.182153 0
M  V30 1112 N 107.901 -0.206675 1.56239 0
M  V30 1113 C 109.312 -0.772383 1.69974 0
M  V30 1114 C 109.663 -1.84353 0.671436 0
M  V30 1115 O 108.788 -2.15695 -0.174491 0
M  V30 1116 C 109.383 -1.40779 3.08167 0
M  V30 1117 C 107.942 -1.92072 3.23706 0
M  V30 1118 C 107.089 -0.786347 2.65917 0
M  V30 1119 H 110.04 0.0182223 1.5869 0
M  V30 1120 H 110.061 -2.27696 3.04852 0
M  V30 1121 H 109.573 -0.627958 3.82986 0
M  V30 1122 H 107.674 -2.7281 2.53782 0
M  V30 1123 H 107.787 -2.09046 4.31087 0
M  V30 1124 H 106.151 -1.1976 2.24788 0
M  V30 1125 H 106.934 -0.0189416 3.43295 0
M  V30 1126 N 109.379 -1.50304 -0.473955 0
M  V30 1127 C 110.326 -1.68959 -1.57231 0
M  V30 1128 C 111.296 -0.530899 -1.57387 0
M  V30 1129 O 112.481 -0.761133 -1.74961 0
M  V30 1130 C 109.621 -1.7871 -2.95223 0
M  V30 1131 C 108.734 -3.06061 -3.04878 0
M  V30 1132 C 107.869 -3.06626 -4.33767 0
M  V30 1133 C 106.908 -4.28443 -4.37154 0
M  V30 1134 N 106.045 -4.26763 -5.5751 0
M  V30 1135 H 110.885 -2.6273 -1.40631 0
M  V30 1136 H 108.422 -1.30241 -0.683789 0
M  V30 1137 H 110.38 -1.82344 -3.75242 0
M  V30 1138 H 109.01 -0.883806 -3.10465 0
M  V30 1139 H 108.062 -3.11911 -2.17751 0
M  V30 1140 H 109.374 -3.96039 -3.0324 0
M  V30 1141 H 108.528 -3.08973 -5.22131 0
M  V30 1142 H 107.267 -2.14473 -4.3801 0
M  V30 1143 H 106.272 -4.2631 -3.47188 0
M  V30 1144 H 107.497 -5.2182 -4.34605 0
M  V30 1145 H 105.443 -3.37462 -5.62544 0
M  V30 1146 H 105.36 -5.10507 -5.57601 0
M  V30 1147 H 106.628 -4.33253 -6.48006 0
M  V30 1148 N 110.857 0.726932 -1.39834 0
M  V30 1149 C 111.787 1.85405 -1.41941 0
M  V30 1150 C 112.768 1.67751 -0.281728 0
M  V30 1151 O 113.953 1.8795 -0.488717 0
M  V30 1152 C 111.083 3.23243 -1.2701 0
M  V30 1153 C 110.037 3.55549 -2.38262 0
M  V30 1154 C 109.363 4.9241 -2.08415 0
M  V30 1155 C 110.663 3.577 -3.80589 0
M  V30 1156 H 112.357 1.83899 -2.36266 0
M  V30 1157 H 109.903 0.883349 -1.13723 0
M  V30 1158 H 111.856 4.01775 -1.27103 0
M  V30 1159 H 110.58 3.25296 -0.291564 0
M  V30 1160 H 109.239 2.79351 -2.37399 0
M  V30 1161 H 108.887 4.91052 -1.0898 0
M  V30 1162 H 108.587 5.14992 -2.82943 0
M  V30 1163 H 110.111 5.73289 -2.10171 0
M  V30 1164 H 111.525 4.26293 -3.83337 0
M  V30 1165 H 109.922 3.91804 -4.54543 0
M  V30 1166 H 110.992 2.57328 -4.10987 0
M  V30 1167 N 112.336 1.25143 0.95797 0
M  V30 1168 C 113.566 1.12261 1.73439 0
M  V30 1169 C 113.974 -0.326715 1.86358 0
M  V30 1170 O 113.317 -1.2367 1.35836 0
M  V30 1171 C 113.379 1.69966 3.16784 0
M  V30 1172 C 113.043 3.18936 3.27305 0
M  V30 1173 C 114.04 4.15968 3.11877 0
M  V30 1174 C 111.725 3.59083 3.51234 0
M  V30 1175 C 113.719 5.51126 3.20217 0
M  V30 1176 C 111.406 4.9438 3.5921 0
M  V30 1177 C 112.404 5.90211 3.43716 0
M  V30 1178 O 112.092 7.23046 3.51368 0
M  V30 1179 H 111.824 0.392476 0.550399 0
M  V30 1180 H 114.378 1.65927 1.21068 0
M  V30 1181 H 112.608 1.10744 3.70503 0
M  V30 1182 H 114.297 1.52232 3.76272 0
M  V30 1183 H 115.063 3.86292 2.93264 0
M  V30 1184 H 110.942 2.84989 3.62356 0
M  V30 1185 H 114.486 6.25905 3.0804 0
M  V30 1186 H 110.383 5.23723 3.77339 0
M  V30 1187 H 111.151 7.31097 3.6802 0
M  V30 1188 N 113.814 -1.1601 1.06675 0
M  V30 1189 C 114.744 -2.22688 0.702307 0
M  V30 1190 C 115.725 -1.67306 -0.307032 0
M  V30 1191 O 116.91 -1.93352 -0.181305 0
M  V30 1192 C 114.04 -3.47178 0.092038 0
M  V30 1193 C 112.994 -4.15477 1.02777 0
M  V30 1194 C 112.32 -5.33963 0.28061 0
M  V30 1195 C 113.62 -4.66019 2.35846 0
M  V30 1196 H 115.314 -2.53429 1.59419 0
M  V30 1197 H 112.86 -1.21813 0.767961 0
M  V30 1198 H 114.813 -4.21037 -0.174814 0
M  V30 1199 H 113.537 -3.15749 -0.834877 0
M  V30 1200 H 112.196 -3.43549 1.27944 0
M  V30 1201 H 111.844 -4.98788 -0.649545 0
M  V30 1202 H 111.544 -5.806 0.904258 0
M  V30 1203 H 113.068 -6.10596 0.021396 0
M  V30 1204 H 114.482 -5.3144 2.15045 0
M  V30 1205 H 112.879 -5.23293 2.93743 0
M  V30 1206 H 113.949 -3.82023 2.98641 0
M  V30 1207 N 115.292 -0.849877 -1.32721 0
M  V30 1208 C 116.703 -0.506188 -1.79707 0
M  V30 1209 C 117.054 0.975627 -1.70223 0
M  V30 1210 O 116.179 1.76078 -1.25799 0
M  V30 1211 C 116.774 -0.912044 -3.26293 0
M  V30 1212 C 115.333 -0.620326 -3.71253 0
M  V30 1213 C 114.48 -1.11439 -2.53922 0
M  V30 1214 H 117.431 -1.03754 -1.20087 0
M  V30 1215 H 117.452 -0.226493 -3.79825 0
M  V30 1216 H 116.964 -1.99057 -3.33164 0
M  V30 1217 H 115.065 0.447674 -3.69901 0
M  V30 1218 H 115.178 -1.18327 -4.64258 0
M  V30 1219 H 113.542 -0.534834 -2.49021 0
M  V30 1220 H 114.325 -2.19992 -2.6355 0
M  V30 1221 N 116.77 1.45427 -0.607355 0
M  V30 1222 C 117.998 2.06614 -0.108814 0
M  V30 1223 C 118.413 1.45204 1.2067 0
M  V30 1224 O 117.77 0.566132 1.73497 0
M  V30 1225 C 117.821 3.61481 0.0375347 0
M  V30 1226 O 117.542 4.20598 -1.22593 0
M  V30 1227 C 119.043 4.39652 0.567561 0
M  V30 1228 H 116.263 0.66747 -0.0687351 0
M  V30 1229 H 118.807 1.86675 -0.835022 0
M  V30 1230 H 116.962 3.80762 0.714068 0
M  V30 1231 H 117.376 5.1377 -1.05547 0
M  V30 1232 H 118.85 5.48518 0.61905 0
M  V30 1233 H 119.327 4.09417 1.58978 0
M  V30 1234 H 119.933 4.25234 -0.0749202 0
M  V30 1235 N 118.248 0.346503 1.53744 0
M  V30 1236 C 119.496 -0.248612 2.00565 0
M  V30 1237 C 119.817 -1.5083 1.23593 0
M  V30 1238 O 119.087 -1.92858 0.343912 0
M  V30 1239 H 117.667 -0.0948564 0.740953 0
M  V30 1240 H 120.329 0.468341 1.89189 0
M  V30 1241 H 119.425 -0.488994 3.08245 0
M  V30 1242 N 119.726 -1.57421 0.075193 0
M  V30 1243 C 121.137 -1.81021 -0.456964 0
M  V30 1244 C 121.488 -0.98936 -1.69429 0
M  V30 1245 O 120.613 -0.212865 -2.15351 0
M  V30 1246 C 121.208 -3.28329 -0.83581 0
M  V30 1247 C 119.767 -3.52764 -1.31281 0
M  V30 1248 C 118.914 -2.75676 -0.299648 0
M  V30 1249 H 121.865 -1.55822 0.300856 0
M  V30 1250 H 121.886 -3.40564 -1.69696 0
M  V30 1251 H 121.398 -3.88046 0.0649238 0
M  V30 1252 H 119.499 -2.98355 -2.23193 0
M  V30 1253 H 119.612 -4.61451 -1.28839 0
M  V30 1254 H 117.976 -2.42538 -0.777641 0
M  V30 1255 H 118.759 -3.38132 0.593417 0
M  V30 1256 N 121.204 0.198386 -1.56346 0
M  V30 1257 C 122.62 0.549085 -1.49857 0
M  V30 1258 C 122.82 1.86016 -0.774611 0
M  V30 1259 O 121.876 2.50416 -0.323776 0
M  V30 1260 C 123.189 0.606868 -2.94512 0
M  V30 1261 C 124.737 0.695925 -3.05165 0
M  V30 1262 C 125.212 0.784848 -4.51225 0
M  V30 1263 N 126.703 0.848463 -4.55363 0
M  V30 1264 C 127.438 0.937378 -5.65686 0
M  V30 1265 N 126.934 0.9888 -6.85707 0
M  V30 1266 N 128.727 0.974312 -5.53592 0
M  V30 1267 H 120.878 -0.661655 -2.01831 0
M  V30 1268 H 123.141 -0.235261 -0.918344 0
M  V30 1269 H 122.847 -0.28732 -3.50524 0
M  V30 1270 H 122.721 1.46268 -3.47686 0
M  V30 1271 H 125.108 1.58055 -2.49204 0
M  V30 1272 H 125.189 -0.186022 -2.55123 0
M  V30 1273 H 124.833 -0.0954072 -5.0781 0
M  V30 1274 H 124.763 1.68255 -4.98997 0
M  V30 1275 H 127.254 0.818103 -3.68938 0
M  V30 1276 H 127.567 1.05707 -7.65536 0
M  V30 1277 H 125.912 0.957534 -6.88372 0
M  V30 1278 H 129.103 0.930954 -4.58749 0
M  V30 1279 H 129.276 1.04015 -6.39597 0
M  V30 1280 N 122.682 1.50554 0.465978 0
M  V30 1281 C 124.098 1.38093 0.800154 0
M  V30 1282 C 124.298 0.440988 1.96615 0
M  V30 1283 O 123.354 -0.114499 2.5224 0
M  V30 1284 C 124.667 2.79565 1.10742 0
M  V30 1285 C 126.215 2.88516 1.21357 0
M  V30 1286 C 126.69 4.30833 1.55393 0
M  V30 1287 N 128.181 4.33807 1.62375 0
M  V30 1288 C 128.916 5.40927 1.90225 0
M  V30 1289 N 128.412 6.58247 2.16062 0
M  V30 1290 N 130.205 5.28376 1.9177 0
M  V30 1291 H 122.356 2.10237 -0.302366 0
M  V30 1292 H 124.619 0.945203 -0.0727746 0
M  V30 1293 H 124.325 3.50208 0.323661 0
M  V30 1294 H 124.199 3.17125 2.04234 0
M  V30 1295 H 126.586 2.1809 1.98799 0
M  V30 1296 H 126.667 2.54492 0.258321 0
M  V30 1297 H 126.311 5.01799 0.784889 0
M  V30 1298 H 126.241 4.62347 2.52076 0
M  V30 1299 H 128.732 3.49212 1.44427 0
M  V30 1300 H 129.045 7.3569 2.36601 0
M  V30 1301 H 127.39 6.61413 2.13444 0
M  V30 1302 H 130.581 4.35715 1.71085 0
M  V30 1303 H 130.754 6.11944 2.13139 0
M  V30 1304 N 124.16 -0.719506 1.40217 0
M  V30 1305 C 125.408 -1.47641 1.3801 0
M  V30 1306 C 125.729 -1.94992 -0.018145 0
M  V30 1307 O 124.999 -1.70073 -0.972207 0
M  V30 1308 H 123.579 -0.547744 0.507923 0
M  V30 1309 H 126.241 -0.853187 1.75233 0
M  V30 1310 H 125.337 -2.35112 2.05253 0
M  V30 1311 N 125.638 -1.25649 -0.95132 0
M  V30 1312 C 127.054 -1.02542 -1.223 0
M  V30 1313 C 127.254 0.255715 -1.99871 0
M  V30 1314 O 126.31 0.967558 -2.33226 0
M  V30 1315 C 127.623 -2.25065 -1.99415 0
M  V30 1316 C 129.171 -2.29861 -2.12446 0
M  V30 1317 C 129.646 -3.52048 -2.92961 0
M  V30 1318 N 131.137 -3.52465 -3.00538 0
M  V30 1319 C 131.872 -4.43672 -3.63239 0
M  V30 1320 N 131.368 -5.45157 -4.27523 0
M  V30 1321 N 133.161 -4.31346 -3.60412 0
M  V30 1322 H 125.312 -2.07951 -0.432471 0
M  V30 1323 H 127.575 -0.91339 -0.253816 0
M  V30 1324 H 127.281 -3.18194 -1.49817 0
M  V30 1325 H 127.155 -2.28502 -3.00111 0
M  V30 1326 H 129.542 -1.37252 -2.61239 0
M  V30 1327 H 129.623 -2.3044 -1.11044 0
M  V30 1328 H 129.267 -4.44981 -2.44856 0
M  V30 1329 H 129.197 -3.48715 -3.94596 0
M  V30 1330 H 131.688 -2.79056 -2.54826 0
M  V30 1331 H 132.001 -6.10958 -4.73234 0
M  V30 1332 H 130.346 -5.49025 -4.26141 0
M  V30 1333 H 133.537 -3.51288 -3.09377 0
M  V30 1334 H 133.71 -5.02624 -4.0899 0
M  V30 1335 N 127.117 1.15442 -1.07289 0
M  V30 1336 C 128.394 1.82306 -0.708792 0
M  V30 1337 C 128.774 1.94991 0.808807 0
M  V30 1338 O 128.122 1.50085 1.72298 0
M  V30 1339 C 128.332 3.18695 -1.42247 0
M  V30 1340 C 129.68 3.94341 -1.57417 0
M  V30 1341 O 130.704 3.28247 -1.38319 0
M  V30 1342 O 129.563 5.12839 -1.88834 0
M  V30 1343 H 126.657 0.787628 -0.252132 0
M  V30 1344 H 129.203 1.22559 -1.17377 0
M  V30 1345 H 127.975 3.04557 -2.45684 0
M  V30 1346 H 127.598 3.86128 -0.948223 0
M  V30 1347 N 128.595 0.856903 1.32268 0
M  V30 1348 C 129.505 0.306131 2.32594 0
M  V30 1349 C 130.521 -0.577209 1.64147 0
M  V30 1350 O 131.697 -0.477043 1.95669 0
M  V30 1351 C 128.762 -0.494561 3.43154 0
M  V30 1352 C 127.823 0.415186 4.27288 0
M  V30 1353 C 127.056 -0.347387 5.32568 0
M  V30 1354 O 127.279 -1.57708 5.48165 0
M  V30 1355 O 126.213 0.287982 6.01211 0
M  V30 1356 H 130.039 1.13737 2.81598 0
M  V30 1357 H 127.624 0.619902 1.35932 0
M  V30 1358 H 129.506 -0.948944 4.10576 0
M  V30 1359 H 128.181 -1.30257 2.96336 0
M  V30 1360 H 127.088 0.917793 3.62667 0
M  V30 1361 H 128.421 1.18844 4.77637 0
M  V30 1362 N 130.073 -1.45103 0.615059 0
M  V30 1363 C 131.003 -2.33339 -0.0865619 0
M  V30 1364 C 131.984 -1.4727 -0.851209 0
M  V30 1365 O 133.169 -1.76026 -0.820281 0
M  V30 1366 C 130.299 -3.30095 -1.07956 0
M  V30 1367 C 129.253 -4.25858 -0.427628 0
M  V30 1368 C 128.579 -5.12361 -1.5294 0
M  V30 1369 C 129.879 -5.18165 0.655944 0
M  V30 1370 H 131.573 -2.92254 0.650224 0
M  V30 1371 H 129.119 -1.40532 0.314138 0
M  V30 1372 H 131.072 -3.90698 -1.57901 0
M  V30 1373 H 129.796 -2.69355 -1.84703 0
M  V30 1374 H 128.455 -3.66564 0.0510292 0
M  V30 1375 H 128.103 -4.47984 -2.28734 0
M  V30 1376 H 127.803 -5.77238 -1.09865 0
M  V30 1377 H 129.327 -5.75833 -2.03098 0
M  V30 1378 H 130.741 -5.72796 0.240257 0
M  V30 1379 H 129.138 -5.91559 1.00888 0
M  V30 1380 H 130.208 -4.60144 1.52957 0
M  V30 1381 N 131.551 -0.354651 -1.53558 0
M  V30 1382 C 132.799 0.237972 -2.00694 0
M  V30 1383 C 133.12 1.50173 -1.24391 0
M  V30 1384 O 132.39 1.92673 -0.354135 0
M  V30 1385 H 130.97 0.0909256 -0.741446 0
M  V30 1386 H 133.632 -0.478368 -1.88938 0
M  V30 1387 H 132.728 0.47264 -3.085 0
M  V30 1388 N 133.029 1.57378 -0.0835403 0
M  V30 1389 C 134.277 1.93547 0.581718 0
M  V30 1390 C 134.598 0.96524 1.69435 0
M  V30 1391 O 133.868 0.0153369 1.95894 0
M  V30 1392 H 132.448 0.714521 0.217874 0
M  V30 1393 H 135.11 1.94366 -0.144158 0
M  V30 1394 H 134.206 2.95665 0.999423 0
M  V30 1395 N 134.507 -0.190092 1.56449 0
M  V30 1396 C 135.755 -0.907908 1.80559 0
M  V30 1397 C 136.076 -1.83583 0.657438 0
M  V30 1398 O 135.346 -1.93203 -0.323924 0
M  V30 1399 H 133.926 -0.338247 0.666032 0
M  V30 1400 H 136.588 -0.194403 1.93928 0
M  V30 1401 H 135.684 -1.49604 2.73907 0
M  V30 1402 N 135.985 -1.50799 -0.457987 0
M  V30 1403 C 137.401 -1.38515 -0.792819 0
M  V30 1404 C 137.601 -0.451409 -1.96379 0
M  V30 1405 O 136.657 0.10112 -2.52297 0
M  V30 1406 C 137.97 -2.80149 -1.09258 0
M  V30 1407 C 139.518 -2.89156 -1.19825 0
M  V30 1408 C 139.993 -4.31651 -1.53106 0
M  V30 1409 N 141.484 -4.34662 -1.60072 0
M  V30 1410 C 142.219 -5.41928 -1.87354 0
M  V30 1411 N 141.715 -6.59384 -2.12568 0
M  V30 1412 N 143.508 -5.29385 -1.88965 0
M  V30 1413 H 135.659 -2.10073 0.313511 0
M  V30 1414 H 137.922 -0.944803 0.0777862 0
M  V30 1415 H 137.628 -3.50374 -0.305084 0
M  V30 1416 H 137.502 -3.18204 -2.02549 0
M  V30 1417 H 139.889 -2.19141 -1.97639 0
M  V30 1418 H 139.97 -2.54626 -0.244821 0
M  V30 1419 H 139.614 -5.02208 -0.758266 0
M  V30 1420 H 139.544 -4.63678 -2.49621 0
M  V30 1421 H 142.035 -3.49973 -1.42573 0
M  V30 1422 H 142.348 -7.36934 -2.32696 0
M  V30 1423 H 140.693 -6.62535 -2.09933 0
M  V30 1424 H 143.884 -4.36616 -1.68772 0
M  V30 1425 H 144.057 -6.13066 -2.09891 0
M  V30 1426 N 137.463 0.71206 -1.40597 0
M  V30 1427 C 138.879 1.02058 -1.22704 0
M  V30 1428 C 139.079 2.01228 -0.104729 0
M  V30 1429 O 138.135 2.4674 0.53624 0
M  V30 1430 C 139.448 1.56094 -2.57012 0
M  V30 1431 C 140.996 1.6806 -2.64054 0
M  V30 1432 C 141.471 2.25501 -3.9864 0
M  V30 1433 N 142.962 2.32882 -4.004 0
M  V30 1434 C 143.697 2.78317 -5.01325 0
M  V30 1435 N 143.193 3.23478 -6.12645 0
M  V30 1436 N 144.986 2.77733 -4.88693 0
M  V30 1437 H 137.137 0.0547896 -2.12329 0
M  V30 1438 H 139.4 0.0869027 -0.944008 0
M  V30 1439 H 139.106 0.906865 -3.39807 0
M  V30 1440 H 138.98 2.54564 -2.78347 0
M  V30 1441 H 141.367 2.32583 -1.81629 0
M  V30 1442 H 141.448 0.681802 -2.46546 0
M  V30 1443 H 141.092 1.61598 -4.81506 0
M  V30 1444 H 141.022 3.26102 -4.13479 0
M  V30 1445 H 143.513 2.00991 -3.20017 0
M  V30 1446 H 143.826 3.56725 -6.85542 0
M  V30 1447 H 142.171 3.21429 -6.16205 0
M  V30 1448 H 145.362 2.4179 -4.00818 0
M  V30 1449 H 145.535 3.12826 -5.67489 0
M  V30 1450 N 138.941 1.26152 0.944643 0
M  V30 1451 C 140.352 1.10454 1.50522 0
M  V30 1452 C 140.703 -0.31635 1.93633 0
M  V30 1453 O 139.828 -1.20746 1.79581 0
M  V30 1454 C 140.423 1.99891 2.73549 0
M  V30 1455 C 138.982 1.88348 3.25886 0
M  V30 1456 C 138.129 1.93447 1.9868 0
M  V30 1457 H 141.08 1.39292 0.760489 0
M  V30 1458 H 141.101 1.54477 3.47732 0
M  V30 1459 H 140.613 3.03297 2.42141 0
M  V30 1460 H 138.714 0.878636 3.62092 0
M  V30 1461 H 138.827 2.73696 3.93227 0
M  V30 1462 H 137.191 1.37456 2.14425 0
M  V30 1463 H 137.974 2.98476 1.69607 0
M  V30 1464 N 140.419 -1.14872 1.07899 0
M  V30 1465 C 141.667 -1.85422 0.803941 0
M  V30 1466 C 141.988 -1.83051 -0.67211 0
M  V30 1467 O 141.258 -1.27532 -1.48703 0
M  V30 1468 H 139.838 -0.686537 0.294408 0
M  V30 1469 H 142.5 -1.39226 1.3639 0
M  V30 1470 H 141.596 -2.90399 1.14346 0
M  V30 1471 N 141.898 -0.863906 -1.31812 0
M  V30 1472 C 143.126 -0.486111 -2.01108 0
M  V30 1473 C 143.541 0.919755 -1.64882 0
M  V30 1474 O 142.898 1.60162 -0.874893 0
M  V30 1475 C 142.949 -0.626435 -3.56031 0
M  V30 1476 O 142.67 -1.97693 -3.90959 0
M  V30 1477 C 144.171 -0.248857 -4.42601 0
M  V30 1478 H 141.391 -0.190052 -0.643523 0
M  V30 1479 H 143.935 -1.1634 -1.68182 0
M  V30 1480 H 142.09 0.00322717 -3.874 0
M  V30 1481 H 142.504 -1.98034 -4.85678 0
M  V30 1482 H 143.978 -0.398016 -5.50563 0
M  V30 1483 H 144.455 0.811489 -4.31638 0
M  V30 1484 H 145.061 -0.853971 -4.16638 0
M  V30 1485 N 143.376 1.44774 -0.622745 0
M  V30 1486 C 144.601 2.06999 -0.128968 0
M  V30 1487 C 145.026 1.4617 1.1839 0
M  V30 1488 O 144.384 0.560007 1.72434 0
M  V30 1489 C 144.432 3.60595 -0.0188351 0
M  V30 1490 O 143.536 3.99398 1.02739 0
M  V30 1491 H 142.877 0.659047 -0.0809544 0
M  V30 1492 H 145.407 1.85784 -0.85705 0
M  V30 1493 H 145.417 4.07627 0.174476 0
M  V30 1494 H 144.092 4.04252 -0.977384 0
M  V30 1495 H 142.669 3.64011 0.809326 0
M  V30 1496 N 144.854 0.36279 1.53368 0
M  V30 1497 C 146.265 -0.117022 1.86333 0
M  V30 1498 C 146.616 -1.48397 1.28347 0
M  V30 1499 O 145.741 -2.07787 0.604428 0
M  V30 1500 C 146.336 -0.21912 3.38091 0
M  V30 1501 C 144.895 -0.643184 3.70864 0
M  V30 1502 C 144.042 0.211318 2.76494 0
M  V30 1503 H 146.993 0.581687 1.47655 0
M  V30 1504 H 147.014 -1.04319 3.6592 0
M  V30 1505 H 146.526 0.775902 3.80265 0
M  V30 1506 H 144.627 -1.64654 3.34245 0
M  V30 1507 H 144.74 -0.41973 4.77258 0
M  V30 1508 H 143.104 -0.319367 2.5269 0
M  V30 1509 H 143.887 1.20383 3.21501 0
M  V30 1510 N 146.332 -1.57332 0.0918853 0
M  V30 1511 C 147.295 -2.12708 -0.85369 0
M  V30 1512 C 148.295 -1.05561 -1.213 0
M  V30 1513 O 149.485 -1.31461 -1.14296 0
M  V30 1514 C 146.617 -2.64503 -2.15061 0
M  V30 1515 H 147.81 -2.97573 -0.3729 0
M  V30 1516 H 145.363 -1.55509 -0.157072 0
M  V30 1517 H 146.098 -1.83149 -2.67632 0
M  V30 1518 H 145.883 -3.4284 -1.90272 0
M  V30 1519 H 147.373 -3.07351 -2.82711 0
M  V30 1520 N 147.81 0.181792 -1.56548 0
M  V30 1521 C 148.74 1.22765 -1.98623 0
M  V30 1522 C 149.721 1.46747 -0.860189 0
M  V30 1523 O 150.906 1.58259 -1.12551 0
M  V30 1524 C 148.036 2.56894 -2.33715 0
M  V30 1525 C 146.99 2.475 -3.49182 0
M  V30 1526 C 146.316 3.86023 -3.69986 0
M  V30 1527 C 147.616 1.98866 -4.82959 0
M  V30 1528 H 149.31 0.877942 -2.86239 0
M  V30 1529 H 146.856 0.42088 -1.37712 0
M  V30 1530 H 148.809 3.30253 -2.61746 0
M  V30 1531 H 147.533 2.93632 -1.42997 0
M  V30 1532 H 146.192 1.76596 -3.21262 0
M  V30 1533 H 145.84 4.20136 -2.76576 0
M  V30 1534 H 145.54 3.80609 -4.47672 0
M  V30 1535 H 147.064 4.60984 -4.00407 0
M  V30 1536 H 148.478 2.61992 -5.09934 0
M  V30 1537 H 146.875 2.04424 -5.64208 0
M  V30 1538 H 147.945 0.942465 -4.75653 0
M  V30 1539 N 149.288 1.51039 0.449983 0
M  V30 1540 C 150.218 1.74379 1.55288 0
M  V30 1541 C 151.199 0.593236 1.5942 0
M  V30 1542 O 152.384 0.834625 1.7535 0
M  V30 1543 C 149.514 1.85728 2.93466 0
M  V30 1544 C 148.468 3.01078 3.04197 0
M  V30 1545 C 147.794 2.97595 4.44231 0
M  V30 1546 C 149.094 4.41254 2.7945 0
M  V30 1547 H 150.788 2.66725 1.36008 0
M  V30 1548 H 148.334 1.2835 0.652864 0
M  V30 1549 H 150.287 2.0064 3.70569 0
M  V30 1550 H 149.011 0.900207 3.13949 0
M  V30 1551 H 147.67 2.85851 2.29531 0
M  V30 1552 H 147.318 1.99691 4.61663 0
M  V30 1553 H 147.018 3.75046 4.52343 0
M  V30 1554 H 148.542 3.14583 5.23326 0
M  V30 1555 H 149.956 4.56897 3.46292 0
M  V30 1556 H 148.353 5.20315 2.98985 0
M  V30 1557 H 149.423 4.52164 1.75144 0
M  V30 1558 N 150.766 -0.704594 1.40972 0
M  V30 1559 C 151.698 -1.82974 1.38033 0
M  V30 1560 C 152.711 -1.60305 0.283931 0
M  V30 1561 O 153.9 -1.69975 0.545042 0
M  V30 1562 C 151 -3.19578 1.12795 0
M  V30 1563 C 150.173 -3.69352 2.34302 0
M  V30 1564 C 149.232 -4.84601 2.05058 0
M  V30 1565 O 148.258 -4.96682 2.7802 0
M  V30 1566 N 149.46 -5.71194 1.03528 0
M  V30 1567 H 152.225 -1.85991 2.35005 0
M  V30 1568 H 149.786 -0.886567 1.35468 0
M  V30 1569 H 151.778 -3.9429 0.911987 0
M  V30 1570 H 150.348 -3.11642 0.24452 0
M  V30 1571 H 149.568 -2.85649 2.71659 0
M  V30 1572 H 150.856 -3.99345 3.1528 0
M  V30 1573 H 150.254 -5.64054 0.431217 0
M  V30 1574 H 148.811 -6.45843 0.879205 0
M  V30 1575 N 152.244 -1.26651 -0.937939 0
M  V30 1576 C 153.492 -1.12165 -1.68118 0
M  V30 1577 C 153.813 0.334983 -1.92101 0
M  V30 1578 O 153.083 1.23583 -1.52 0
M  V30 1579 H 151.663 -0.412093 -0.623048 0
M  V30 1580 H 154.325 -1.59027 -1.12678 0
M  V30 1581 H 153.421 -1.64289 -2.6536 0
M  V30 1582 N 153.722 1.14298 -1.08507 0
M  V30 1583 C 154.95 1.89219 -0.836876 0
M  V30 1584 C 155.365 1.78638 0.611054 0
M  V30 1585 O 154.722 1.14643 1.41998 0
M  V30 1586 C 154.773 3.39158 -1.25116 0
M  V30 1587 O 154.494 3.49449 -2.64229 0
M  V30 1588 C 155.995 4.31073 -1.03398 0
M  V30 1589 H 153.215 0.599328 -0.301739 0
M  V30 1590 H 155.759 1.44746 -1.44461 0
M  V30 1591 H 153.914 3.81251 -0.687514 0
M  V30 1592 H 154.328 4.42589 -2.81452 0
M  V30 1593 H 155.802 5.34646 -1.37323 0
M  V30 1594 H 156.279 4.3919 0.0289259 0
M  V30 1595 H 156.885 3.94738 -1.58311 0
M  V30 1596 N 155.201 0.870884 1.31352 0
M  V30 1597 C 156.164 0.332243 2.26779 0
M  V30 1598 C 157.164 -0.517302 1.52252 0
M  V30 1599 O 158.354 -0.326477 1.71113 0
M  V30 1600 C 155.486 -0.528066 3.36785 0
M  V30 1601 H 156.679 1.17469 2.75937 0
M  V30 1602 H 154.232 0.64655 1.423 0
M  V30 1603 H 154.967 -1.39167 2.92922 0
M  V30 1604 H 154.752 0.0802582 3.92018 0
M  V30 1605 H 156.242 -0.897179 4.07849 0
M  V30 1606 N 156.679 -1.44442 0.630414 0
M  V30 1607 C 157.589 -2.34476 -0.0761693 0
M  V30 1608 C 158.605 -1.52576 -0.836449 0
M  V30 1609 O 159.781 -1.85307 -0.788874 0
M  V30 1610 C 156.846 -3.30545 -1.04599 0
M  V30 1611 C 155.907 -4.28352 -0.28516 0
M  V30 1612 C 155.14 -5.19831 -1.20878 0
M  V30 1613 O 155.363 -5.15223 -2.44747 0
M  V30 1614 O 154.297 -5.97892 -0.693491 0
M  V30 1615 H 158.123 -2.96345 0.664324 0
M  V30 1616 H 155.708 -1.44203 0.39061 0
M  V30 1617 H 157.59 -3.89681 -1.60396 0
M  V30 1618 H 156.265 -2.7121 -1.76711 0
M  V30 1619 H 155.172 -3.72764 0.315837 0
M  V30 1620 H 156.505 -4.90605 0.395924 0
M  V30 1621 N 158.157 -0.370918 -1.53173 0
M  V30 1622 C 159.067 0.480823 -2.2962 0
M  V30 1623 C 160.083 1.08789 -1.35798 0
M  V30 1624 O 161.259 1.09768 -1.68858 0
M  V30 1625 C 158.324 1.60227 -3.07454 0
M  V30 1626 C 157.385 1.0222 -4.16953 0
M  V30 1627 C 156.618 2.0902 -4.91066 0
M  V30 1628 O 156.841 3.30222 -4.65091 0
M  V30 1629 O 155.775 1.71778 -5.76867 0
M  V30 1630 H 159.601 -0.141421 -3.03371 0
M  V30 1631 H 157.186 -0.135146 -1.48787 0
M  V30 1632 H 159.068 2.25417 -3.56041 0
M  V30 1633 H 157.743 2.20982 -2.36535 0
M  V30 1634 H 156.65 0.334064 -3.72605 0
M  V30 1635 H 157.983 0.459131 -4.90054 0
M  V30 1636 N 159.635 1.57281 -0.100228 0
M  V30 1637 C 160.912 1.86014 0.604812 0
M  V30 1638 C 161.292 0.998025 1.86018 0
M  V30 1639 O 160.64 0.0718184 2.28387 0
M  V30 1640 C 160.85 3.36784 0.915278 0
M  V30 1641 C 162.198 4.04957 1.27651 0
M  V30 1642 O 163.222 3.41695 1.00613 0
M  V30 1643 O 162.081 5.16593 1.7831 0
M  V30 1644 H 159.175 0.76942 0.303185 0
M  V30 1645 H 161.721 1.69176 -0.133313 0
M  V30 1646 H 160.493 3.91292 0.0248896 0
M  V30 1647 H 160.116 3.58987 1.70921 0
M  V30 1648 N 161.113 -0.173488 1.56642 0
M  V30 1649 C 162.063 -1.21941 1.92651 0
M  V30 1650 C 163.047 -1.39912 0.794577 0
M  V30 1651 O 164.239 -1.41919 1.05773 0
M  V30 1652 C 161.368 -2.55935 2.28806 0
M  V30 1653 C 160.454 -2.41667 3.48508 0
M  V30 1654 N 160.845 -1.9711 4.65813 0
M  V30 1655 C 159.143 -2.72499 3.53072 0
M  V30 1656 C 159.844 -1.95253 5.47952 0
M  V30 1657 N 158.82 -2.37575 4.88937 0
M  V30 1658 H 162.622 -0.866581 2.80834 0
M  V30 1659 H 160.136 -0.381776 1.57849 0
M  V30 1660 H 162.133 -3.31511 2.52797 0
M  V30 1661 H 160.793 -2.92022 1.41961 0
M  V30 1662 H 161.804 -1.67481 4.90072 0
M  V30 1663 H 158.481 -3.12639 2.767 0
M  V30 1664 H 159.871 -1.6252 6.51948 0
M  V30 1665 N 162.591 -1.51276 -0.441967 0
M  V30 1666 C 163.837 -1.63958 -1.19355 0
M  V30 1667 C 164.17 -0.352543 -1.90973 0
M  V30 1668 O 163.445 0.647627 -1.83401 0
M  V30 1669 C 163.728 -2.83979 -2.21422 0
M  V30 1670 C 163.581 -4.22646 -1.53918 0
M  V30 1671 C 164.9 -2.99521 -3.22451 0
M  V30 1672 H 162.019 -0.596709 -0.432559 0
M  V30 1673 H 164.661 -1.83748 -0.483398 0
M  V30 1674 H 162.811 -2.67237 -2.81987 0
M  V30 1675 H 164.483 -4.51045 -0.967256 0
M  V30 1676 H 162.726 -4.25558 -0.841615 0
M  V30 1677 H 163.397 -5.02609 -2.28229 0
M  V30 1678 H 165.873 -3.14944 -2.71937 0
M  V30 1679 H 164.749 -3.85072 -3.91166 0
M  V30 1680 H 165.01 -2.11391 -3.88287 0
M  V30 1681 N 164.069 0.697108 -1.41344 0
M  V30 1682 C 165.346 1.45154 -1.31109 0
M  V30 1683 C 165.726 2.11009 0.0620449 0
M  V30 1684 O 165.074 2.01571 1.07618 0
M  V30 1685 C 165.284 2.47223 -2.46337 0
M  V30 1686 C 166.632 3.1252 -2.87431 0
M  V30 1687 O 167.656 2.57547 -2.46065 0
M  V30 1688 O 166.515 4.12083 -3.58957 0
M  V30 1689 H 163.609 0.646365 -0.515889 0
M  V30 1690 H 166.155 0.727716 -1.53305 0
M  V30 1691 H 164.927 1.97204 -3.37974 0
M  V30 1692 H 164.55 3.27116 -2.2601 0
M  V30 1693 N 165.547 1.27147 0.931209 0
M  V30 1694 C 166.477 1.12081 2.04842 0
M  V30 1695 C 167.458 0.0232364 1.70084 0
M  V30 1696 O 168.643 0.197085 1.93197 0
M  V30 1697 C 165.773 0.76354 3.38803 0
M  V30 1698 C 164.727 1.81396 3.87659 0
M  V30 1699 C 164.053 1.31075 5.18385 0
M  V30 1700 C 165.353 3.21739 4.11438 0
M  V30 1701 H 167.047 2.05537 2.17703 0
M  V30 1702 H 164.593 0.989603 1.04608 0
M  V30 1703 H 166.546 0.644982 4.16435 0
M  V30 1704 H 165.27 -0.206727 3.25945 0
M  V30 1705 H 163.929 1.92136 3.12217 0
M  V30 1706 H 163.577 0.330037 5.01916 0
M  V30 1707 H 163.277 2.013 5.52044 0
M  V30 1708 H 164.801 1.20506 5.98591 0
M  V30 1709 H 166.215 3.14019 4.79651 0
M  V30 1710 H 164.612 3.89644 4.56397 0
M  V30 1711 H 165.682 3.67054 3.16859 0
M  V30 1712 N 167.025 -1.13721 1.09112 0
M  V30 1713 C 168.25 -1.89314 0.847053 0
M  V30 1714 C 168.675 -1.78416 -0.595774 0
M  V30 1715 O 168.033 -1.12942 -1.41823 0
M  V30 1716 C 168.081 -3.3701 1.28284 0
M  V30 1717 O 167.185 -4.10054 0.439267 0
M  V30 1718 H 166.526 -0.588745 0.307044 0
M  V30 1719 H 169.056 -1.43902 1.45442 0
M  V30 1720 H 169.066 -3.87834 1.26683 0
M  V30 1721 H 167.741 -3.4426 2.33363 0
M  V30 1722 H 166.318 -3.69266 0.519312 0
M  V30 1723 N 168.503 -0.877838 -1.30888 0
M  V30 1724 C 169.433 -0.35534 -2.3078 0
M  V30 1725 C 170.414 0.557994 -1.60687 0
M  V30 1726 O 171.599 0.473355 -1.88343 0
M  V30 1727 C 168.729 0.437221 -3.44537 0
M  V30 1728 C 167.683 -0.383715 -4.26276 0
M  V30 1729 C 167.009 0.535014 -5.32017 0
M  V30 1730 C 168.309 -1.62201 -4.96476 0
M  V30 1731 H 170.003 -1.19007 -2.74732 0
M  V30 1732 H 167.549 -0.573698 -1.32078 0
M  V30 1733 H 169.502 0.813334 -4.13477 0
M  V30 1734 H 168.226 1.30553 -2.99372 0
M  V30 1735 H 166.885 -0.741874 -3.59015 0
M  V30 1736 H 166.533 1.40083 -4.831 0
M  V30 1737 H 166.233 -0.0104211 -5.87599 0
M  V30 1738 H 167.757 0.907799 -6.03814 0
M  V30 1739 H 169.171 -1.31689 -5.5797 0
M  V30 1740 H 167.568 -2.10711 -5.61891 0
M  V30 1741 H 168.638 -2.37044 -4.23011 0
M  V30 1742 N 169.982 1.44106 -0.638065 0
M  V30 1743 C 171.207 2.0685 -0.150916 0
M  V30 1744 C 171.632 1.47417 1.16833 0
M  V30 1745 O 170.99 0.578264 1.71831 0
M  V30 1746 C 171.038 3.60555 -0.05708 0
M  V30 1747 O 170.142 4.00465 0.984972 0
M  V30 1748 H 169.483 0.658151 -0.0879399 0
M  V30 1749 H 172.013 1.84865 -0.876707 0
M  V30 1750 H 172.023 4.07789 0.131232 0
M  V30 1751 H 170.698 4.03193 -1.02021 0
M  V30 1752 H 169.275 3.64849 0.770672 0
M  V30 1753 N 171.46 0.379036 1.52974 0
M  V30 1754 C 172.7 -0.206325 2.03356 0
M  V30 1755 C 173.064 -1.44892 1.25977 0
M  V30 1756 O 174.265 -2.11078 1.66432 0
M  V30 1757 C 172.536 -0.477887 3.54191 0
M  V30 1758 S 174.095 -1.035 4.26419 0
M  V30 1759 H 170.913 -0.0590259 0.708546 0
M  V30 1760 H 173.515 0.525013 1.88319 0
M  V30 1761 H 172.219 0.433745 4.08101 0
M  V30 1762 H 171.75 -1.23793 3.73415 0
M  V30 1763 H 173.765 -2.31821 4.38718 0
M  V30 1764 N 172.938 -1.57226 0.108567 0
M  V30 1765 C 174.166 -1.99179 -0.559954 0
M  V30 1766 C 174.581 -0.988022 -1.60884 0
M  V30 1767 O 173.938 0.0205512 -1.82488 0
M  V30 1768 C 173.989 -3.41159 -1.19552 0
M  V30 1769 O 173.71 -4.37694 -0.188577 0
M  V30 1770 C 175.211 -3.98188 -1.94837 0
M  V30 1771 H 172.431 -0.654228 -0.149088 0
M  V30 1772 H 174.975 -2.03598 0.19183 0
M  V30 1773 H 173.13 -3.37711 -1.89815 0
M  V30 1774 H 173.544 -5.20469 -0.649014 0
M  V30 1775 H 175.018 -4.99644 -2.34648 0
M  V30 1776 H 175.495 -3.3675 -2.81951 0
M  V30 1777 H 176.101 -4.0515 -1.2936 0
M  V30 1778 N 174.416 0.165178 -1.56732 0
M  V30 1779 C 175.346 1.20651 -1.99914 0
M  V30 1780 C 176.327 1.45827 -0.875705 0
M  V30 1781 O 177.512 1.57057 -1.14223 0
M  V30 1782 C 174.642 2.54401 -2.36427 0
M  V30 1783 C 173.596 2.43782 -3.51787 0
M  V30 1784 C 172.922 3.82078 -3.7406 0
M  V30 1785 C 174.222 1.93732 -4.85041 0
M  V30 1786 H 175.916 0.847534 -2.87154 0
M  V30 1787 H 173.462 0.40625 -1.38151 0
M  V30 1788 H 175.415 3.27458 -2.65234 0
M  V30 1789 H 174.139 2.92098 -1.46103 0
M  V30 1790 H 172.798 1.73178 -3.23117 0
M  V30 1791 H 172.446 4.17179 -2.81017 0
M  V30 1792 H 172.146 3.7584 -4.51684 0
M  V30 1793 H 173.67 4.56712 -4.05274 0
M  V30 1794 H 175.084 2.56569 -5.12684 0
M  V30 1795 H 173.481 1.98428 -5.66345 0
M  V30 1796 H 174.551 0.891962 -4.76626 0
M  V30 1797 N 175.894 1.51508 0.433938 0
M  V30 1798 C 177.14 1.64588 1.18484 0
M  V30 1799 C 177.473 0.362666 1.90784 0
M  V30 1800 O 176.748 -0.637892 1.83742 0
M  V30 1801 C 177.031 2.85149 2.19913 0
M  V30 1802 C 176.884 4.23456 1.51674 0
M  V30 1803 C 178.203 3.01227 3.20858 0
M  V30 1804 H 175.322 0.598994 0.429389 0
M  V30 1805 H 177.964 1.84002 0.473647 0
M  V30 1806 H 176.114 2.68729 2.80566 0
M  V30 1807 H 177.786 4.51552 0.943322 0
M  V30 1808 H 176.029 4.25998 0.819035 0
M  V30 1809 H 176.7 5.03812 2.2556 0
M  V30 1810 H 179.176 3.16382 2.70263 0
M  V30 1811 H 178.052 3.87141 3.89118 0
M  V30 1812 H 178.313 2.13447 3.8716 0
M  V30 1813 N 177.372 -0.689602 1.41712 0
M  V30 1814 C 178.783 -1.26973 1.36875 0
M  V30 1815 C 179.134 -1.96124 0.054748 0
M  V30 1816 O 178.259 -1.99141 -0.84687 0
M  V30 1817 C 178.854 -2.30912 2.47922 0
M  V30 1818 C 177.413 -2.84486 2.46464 0
M  V30 1819 C 176.56 -1.58603 2.27465 0
M  V30 1820 H 179.511 -0.48396 1.51141 0
M  V30 1821 H 179.532 -3.12331 2.17323 0
M  V30 1822 H 179.044 -1.80554 3.43543 0
M  V30 1823 H 177.145 -3.39005 1.54617 0
M  V30 1824 H 177.258 -3.34511 3.42986 0
M  V30 1825 H 175.622 -1.84632 1.75451 0
M  V30 1826 H 176.405 -1.10233 3.25121 0
M  V30 1827 N 178.85 -1.27639 -0.924453 0
M  V30 1828 C 180.266 -1.05113 -1.20097 0
M  V30 1829 C 180.466 0.213262 -2.00368 0
M  V30 1830 O 179.522 0.91787 -2.35226 0
M  V30 1831 C 180.835 -2.29244 -1.94596 0
M  V30 1832 C 182.383 -2.34315 -2.07522 0
M  V30 1833 C 182.858 -3.58183 -2.85427 0
M  V30 1834 N 184.349 -3.5876 -2.92994 0
M  V30 1835 C 185.084 -4.51277 -3.53746 0
M  V30 1836 N 184.58 -5.54102 -4.15863 0
M  V30 1837 N 186.373 -4.38894 -3.51181 0
M  V30 1838 H 178.524 -2.08821 -0.388264 0
M  V30 1839 H 180.787 -0.918568 -0.234385 0
M  V30 1840 H 180.493 -3.21301 -1.43034 0
M  V30 1841 H 180.367 -2.34816 -2.95197 0
M  V30 1842 H 182.754 -1.42762 -2.58269 0
M  V30 1843 H 182.835 -2.32744 -1.06131 0
M  V30 1844 H 182.479 -4.50074 -2.35363 0
M  V30 1845 H 182.409 -3.57006 -3.8711 0
M  V30 1846 H 184.9 -2.84398 -2.4885 0
M  V30 1847 H 185.213 -6.20859 -4.60168 0
M  V30 1848 H 183.558 -5.57941 -4.144 0
M  V30 1849 H 186.749 -3.57772 -3.01856 0
M  V30 1850 H 186.922 -5.11186 -3.98237 0
M  V30 1851 N 180.328 1.1314 -1.09713 0
M  V30 1852 C 181.553 1.88862 -0.857081 0
M  V30 1853 C 181.978 1.78729 0.586304 0
M  V30 1854 O 181.336 1.13692 1.41222 0
M  V30 1855 C 181.384 3.36325 -1.30069 0
M  V30 1856 O 180.488 4.09815 -0.461007 0
M  V30 1857 H 179.829 0.587108 -0.310162 0
M  V30 1858 H 182.359 1.43129 -1.46203 0
M  V30 1859 H 182.369 3.87157 -1.28738 0
M  V30 1860 H 181.044 3.43017 -2.35185 0
M  V30 1861 H 179.621 3.68986 -0.538888 0
M  V30 1862 N 181.806 0.884767 1.30421 0
M  V30 1863 C 183.054 0.502112 1.95763 0
M  V30 1864 C 183.375 -0.951815 1.70192 0
M  V30 1865 O 182.645 -1.6692 1.0254 0
M  V30 1866 H 181.225 0.182694 0.724315 0
M  V30 1867 H 183.887 1.1278 1.58955 0
M  V30 1868 H 182.983 0.672188 3.04775 0
M  V30 1869 N 183.284 -1.43765 0.645699 0
M  V30 1870 C 184.194 -2.34544 -0.0512957 0
M  V30 1871 C 185.21 -1.53455 -0.82022 0
M  V30 1872 O 186.386 -1.86133 -0.769176 0
M  V30 1873 C 183.451 -3.31636 -1.01087 0
M  V30 1874 C 182.512 -4.2863 -0.239712 0
M  V30 1875 C 181.745 -5.21084 -1.15358 0
M  V30 1876 O 181.968 -5.1779 -2.39269 0
M  V30 1877 O 180.902 -5.98593 -0.630038 0
M  V30 1878 H 184.728 -2.95624 0.695718 0
M  V30 1879 H 182.313 -1.43781 0.405882 0
M  V30 1880 H 184.195 -3.9136 -1.56254 0
M  V30 1881 H 182.87 -2.73069 -1.73824 0
M  V30 1882 H 181.777 -3.72408 0.355356 0
M  V30 1883 H 183.11 -4.90157 0.447936 0
M  V30 1884 N 184.763 -0.387143 -1.52771 0
M  V30 1885 C 185.695 0.484089 -2.2403 0
M  V30 1886 C 186.708 1.02849 -1.26198 0
M  V30 1887 O 187.897 0.931186 -1.52286 0
M  V30 1888 C 184.997 1.68337 -2.94136 0
M  V30 1889 C 184.17 1.26672 -4.18656 0
M  V30 1890 C 183.229 2.33045 -4.7178 0
M  V30 1891 O 182.255 1.94541 -5.34923 0
M  V30 1892 N 183.457 3.64929 -4.5145 0
M  V30 1893 H 186.222 -0.126404 -2.99433 0
M  V30 1894 H 183.783 -0.213392 -1.60488 0
M  V30 1895 H 185.775 2.39019 -3.26577 0
M  V30 1896 H 184.345 2.20025 -2.22053 0
M  V30 1897 H 183.565 0.388878 -3.92277 0
M  V30 1898 H 184.853 0.964964 -4.99566 0
M  V30 1899 H 184.251 3.98974 -4.01044 0
M  V30 1900 H 182.808 4.31651 -4.88386 0
M  V30 1901 N 186.241 1.57166 -0.116904 0
M  V30 1902 C 187.204 2.14039 0.819742 0
M  V30 1903 C 188.204 1.07477 1.19605 0
M  V30 1904 O 189.394 1.33263 1.1219 0
M  V30 1905 C 186.526 2.67891 2.10826 0
M  V30 1906 H 187.719 2.98128 0.325511 0
M  V30 1907 H 185.272 1.55739 0.132312 0
M  V30 1908 H 186.007 1.87384 2.64685 0
M  V30 1909 H 185.792 3.45823 1.84793 0
M  V30 1910 H 187.282 3.11809 2.77785 0
M  V30 1911 N 187.719 -0.156864 1.56817 0
M  V30 1912 C 188.629 -1.2136 2.00771 0
M  V30 1913 C 189.645 -1.47598 0.921459 0
M  V30 1914 O 190.821 -1.59462 1.2302 0
M  V30 1915 C 187.886 -2.52943 2.37109 0
M  V30 1916 C 186.947 -2.34439 3.59634 0
M  V30 1917 C 186.18 -3.59748 3.94229 0
M  V30 1918 O 186.403 -4.65526 3.29609 0
M  V30 1919 O 185.337 -3.52998 4.8752 0
M  V30 1920 H 189.163 -0.870468 2.90958 0
M  V30 1921 H 186.748 -0.36484 1.44877 0
M  V30 1922 H 188.63 -3.30538 2.61386 0
M  V30 1923 H 187.305 -2.86806 1.5008 0
M  V30 1924 H 186.212 -1.54828 3.40557 0
M  V30 1925 H 187.545 -2.05496 4.4725 0
M  V30 1926 N 189.197 -1.51736 -0.425897 0
M  V30 1927 C 190.445 -1.64644 -1.17204 0
M  V30 1928 C 190.766 -0.370486 -1.91448 0
M  V30 1929 O 190.036 0.614088 -1.86026 0
M  V30 1930 H 188.616 -0.606819 -0.435638 0
M  V30 1931 H 191.278 -1.88713 -0.487177 0
M  V30 1932 H 190.374 -2.47958 -1.89534 0
M  V30 1933 N 190.675 0.682077 -1.42076 0
M  V30 1934 C 191.9 1.47558 -1.45744 0
M  V30 1935 C 192.325 1.87977 -0.0680981 0
M  V30 1936 O 191.683 1.55522 0.9318 0
M  V30 1937 C 191.731 2.70575 -2.38373 0
M  V30 1938 O 190.835 3.68573 -1.85007 0
M  V30 1939 H 190.176 0.443585 -0.494093 0
M  V30 1940 H 192.706 0.837238 -1.86686 0
M  V30 1941 H 192.716 3.18729 -2.54707 0
M  V30 1942 H 191.391 2.40495 -3.39315 0
M  V30 1943 H 189.968 3.2757 -1.78192 0
M  V30 1944 N 192.153 1.28127 0.917671 0
M  V30 1945 C 193.564 1.13622 1.48145 0
M  V30 1946 C 193.915 -0.275207 1.9426 0
M  V30 1947 O 193.04 -1.1691 1.82102 0
M  V30 1948 C 193.635 2.05648 2.69248 0
M  V30 1949 C 192.194 1.95219 3.21818 0
M  V30 1950 C 191.341 1.97618 1.94532 0
M  V30 1951 H 194.292 1.40874 0.730772 0
M  V30 1952 H 194.313 1.61818 3.44377 0
M  V30 1953 H 193.825 3.08365 2.35653 0
M  V30 1954 H 191.926 0.955244 3.60147 0
M  V30 1955 H 192.039 2.81976 3.87333 0
M  V30 1956 H 190.403 1.41973 2.11461 0
M  V30 1957 H 191.186 3.02007 1.63238 0
M  V30 1958 N 193.631 -1.12557 1.10312 0
M  V30 1959 C 194.879 -1.83675 0.843091 0
M  V30 1960 C 195.2 -1.84435 -0.633131 0
M  V30 1961 O 194.47 -1.30657 -1.45964 0
M  V30 1962 H 193.05 -0.680138 0.308904 0
M  V30 1963 H 195.712 -1.36301 1.39313 0
M  V30 1964 H 194.808 -2.87908 1.2048 0
M  V30 1965 N 195.109 -0.891671 -1.2995 0
M  V30 1966 C 196.357 -0.512486 -1.95494 0
M  V30 1967 C 196.678 0.942776 -1.70695 0
M  V30 1968 O 195.948 1.66374 -1.03424 0
M  V30 1969 H 194.528 -0.186533 -0.723336 0
M  V30 1970 H 197.19 -1.13621 -1.58355 0
M  V30 1971 H 196.286 -0.688342 -3.04415 0
M  V30 1972 N 196.587 1.43421 -0.653314 0
M  V30 1973 C 197.998 1.85065 -0.246537 0
M  V30 1974 C 198.349 1.54688 1.2069 0
M  V30 1975 O 197.474 0.995896 1.92122 0
M  V30 1976 C 198.069 3.35922 -0.440666 0
M  V30 1977 C 196.628 3.76297 -0.0882064 0
M  V30 1978 C 195.775 2.67147 -0.743484 0
M  V30 1979 H 198.726 1.33572 -0.856979 0
M  V30 1980 H 198.747 3.79204 0.313798 0
M  V30 1981 H 198.259 3.58 -1.49858 0
M  V30 1982 H 196.36 3.5983 0.96711 0
M  V30 1983 H 196.473 4.76338 -0.513738 0
M  V30 1984 H 194.837 2.54086 -0.176712 0
M  V30 1985 H 195.62 2.92053 -1.80443 0
M  V30 1986 N 198.065 0.39524 1.52563 0
M  V30 1987 C 199.313 -0.184678 2.01254 0
M  V30 1988 C 199.634 -1.46822 1.28329 0
M  V30 1989 O 198.904 -1.91666 0.405094 0
M  V30 1990 H 197.484 -0.0712355 0.743596 0
M  V30 1991 H 200.146 0.528293 1.87603 0
M  V30 1992 H 199.242 -0.390681 3.09645 0
M  V30 1993 N 199.544 -1.57102 0.125237 0
M  V30 1994 C 200.821 -1.86953 -0.575142 0
M  V30 1995 C 201.201 -1.02749 -1.84407 0
M  V30 1996 O 200.549 -0.108144 -2.28244 0
M  V30 1997 C 200.759 -3.38198 -0.861583 0
M  V30 1998 C 202.107 -4.06937 -1.21192 0
M  V30 1999 O 203.131 -3.43252 -0.951645 0
M  V30 2000 O 201.99 -5.19364 -1.70068 0
M  V30 2001 H 199.084 -0.774147 -0.290906 0
M  V30 2002 H 201.63 -1.68942 0.160211 0
M  V30 2003 H 200.402 -3.91282 0.0373647 0
M  V30 2004 H 200.025 -3.61661 -1.65188 0
M  V30 2005 N 201.022 0.148545 -1.56898 0
M  V30 2006 C 202.247 0.880385 -1.87787 0
M  V30 2007 C 202.672 1.74018 -0.714093 0
M  V30 2008 O 202.03 1.78153 0.336343 0
M  V30 2009 C 202.078 1.71422 -3.17249 0
M  V30 2010 O 201.182 2.8183 -3.01074 0
M  V30 2011 H 200.523 0.245301 -0.617028 0
M  V30 2012 H 203.053 0.139826 -2.04122 0
M  V30 2013 H 203.063 2.10954 -3.49231 0
M  V30 2014 H 201.738 1.08284 -4.01556 0
M  V30 2015 H 200.315 2.45715 -2.80497 0
M  V30 2016 N 202.5 1.5196 0.417844 0
M  V30 2017 C 203.432 1.70895 1.52733 0
M  V30 2018 C 204.445 0.589405 1.51756 0
M  V30 2019 O 205.634 0.864312 1.56179 0
M  V30 2020 C 202.734 1.72627 2.91639 0
M  V30 2021 C 201.907 3.01479 3.16905 0
M  V30 2022 C 200.966 2.95139 4.35637 0
M  V30 2023 O 199.992 3.69059 4.3334 0
M  V30 2024 N 201.194 2.12328 5.40275 0
M  V30 2025 H 203.959 2.66612 1.36888 0
M  V30 2026 H 201.52 1.50089 0.607037 0
M  V30 2027 H 203.512 1.65928 3.6912 0
M  V30 2028 H 202.082 0.844216 3.00985 0
M  V30 2029 H 201.302 3.21895 2.27546 0
M  V30 2030 H 202.59 3.86736 3.30625 0
M  V30 2031 H 201.988 1.51685 5.44985 0
M  V30 2032 H 200.545 2.11494 6.16534 0
M  V30 2033 N 203.978 -0.674533 1.42435 0
M  V30 2034 C 205.226 -1.43175 1.42637 0
M  V30 2035 C 205.547 -1.94951 0.0438992 0
M  V30 2036 O 204.817 -1.7308 -0.917607 0
M  V30 2037 H 203.397 -0.531307 0.525092 0
M  V30 2038 H 206.059 -0.797006 1.77859 0
M  V30 2039 H 205.155 -2.28463 2.12629 0
M  V30 2040 N 205.456 -1.28612 -0.910864 0
M  V30 2041 C 206.872 -1.06381 -1.18976 0
M  V30 2042 C 207.072 0.191998 -2.00583 0
M  V30 2043 O 206.128 0.892869 -2.36187 0
M  V30 2044 C 207.441 -2.31295 -1.92154 0
M  V30 2045 C 208.989 -2.36503 -2.05025 0
M  V30 2046 C 209.464 -3.61191 -2.81612 0
M  V30 2047 N 210.955 -3.61847 -2.89172 0
M  V30 2048 C 211.69 -4.55004 -3.4894 0
M  V30 2049 N 211.186 -5.58482 -4.09963 0
M  V30 2050 N 212.979 -4.42594 -3.46506 0
M  V30 2051 H 205.13 -2.09221 -0.366094 0
M  V30 2052 H 207.393 -0.921003 -0.224629 0
M  V30 2053 H 207.099 -3.228 -1.39618 0
M  V30 2054 H 206.973 -2.37934 -2.9269 0
M  V30 2055 H 209.36 -1.45494 -2.5674 0
M  V30 2056 H 209.441 -2.33857 -1.03657 0
M  V30 2057 H 209.085 -4.52545 -2.30576 0
M  V30 2058 H 209.015 -3.61092 -3.83302 0
M  V30 2059 H 211.506 -2.87022 -2.45819 0
M  V30 2060 H 211.819 -6.25704 -4.53557 0
M  V30 2061 H 210.164 -5.62305 -4.08459 0
M  V30 2062 H 213.355 -3.60953 -2.98045 0
M  V30 2063 H 213.528 -5.15381 -3.92793 0
M  V30 2064 N 206.934 1.1197 -1.10907 0
M  V30 2065 C 207.881 2.17846 -0.762345 0
M  V30 2066 C 208.851 1.63995 0.263599 0
M  V30 2067 O 210.036 1.90273 0.141773 0
M  V30 2068 C 207.176 3.44487 -0.205651 0
M  V30 2069 C 206.289 4.12369 -1.28748 0
M  V30 2070 C 205.424 5.26674 -0.691919 0
M  V30 2071 C 204.463 5.86431 -1.75399 0
M  V30 2072 N 203.6 6.92142 -1.17833 0
M  V30 2073 H 208.44 2.46851 -1.6694 0
M  V30 2074 H 205.977 1.21188 -0.833776 0
M  V30 2075 H 207.935 4.16981 0.135037 0
M  V30 2076 H 206.565 3.15884 0.664613 0
M  V30 2077 H 205.617 3.38003 -1.74522 0
M  V30 2078 H 206.929 4.52844 -2.09125 0
M  V30 2079 H 206.083 6.05953 -0.300963 0
M  V30 2080 H 204.822 4.8749 0.143232 0
M  V30 2081 H 203.827 5.05835 -2.15432 0
M  V30 2082 H 205.052 6.27685 -2.59208 0
M  V30 2083 H 202.998 6.54985 -0.364725 0
M  V30 2084 H 202.915 7.31242 -1.91887 0
M  V30 2085 H 204.183 7.75237 -0.81408 0
M  V30 2086 N 208.412 0.89855 1.29475 0
M  V30 2087 C 209.828 0.594483 1.48115 0
M  V30 2088 C 210.028 -0.86431 1.82022 0
M  V30 2089 O 209.084 -1.64457 1.91599 0
M  V30 2090 C 210.397 1.51932 2.59494 0
M  V30 2091 C 211.945 1.5244 2.7337 0
M  V30 2092 C 212.42 2.43548 3.87877 0
M  V30 2093 N 213.911 2.41589 3.95208 0
M  V30 2094 C 214.646 3.08789 4.83153 0
M  V30 2095 N 214.142 3.85265 5.75798 0
M  V30 2096 N 215.935 2.97952 4.76635 0
M  V30 2097 H 208.086 1.84207 1.05742 0
M  V30 2098 H 210.349 0.789251 0.525154 0
M  V30 2099 H 210.055 2.55865 2.41301 0
M  V30 2100 H 209.929 1.23899 3.56271 0
M  V30 2101 H 212.316 0.492518 2.90961 0
M  V30 2102 H 212.397 1.8451 1.77172 0
M  V30 2103 H 212.041 3.46829 3.71041 0
M  V30 2104 H 211.971 2.08788 4.83441 0
M  V30 2105 H 214.462 1.86025 3.28943 0
M  V30 2106 H 214.775 4.33598 6.39697 0
M  V30 2107 H 213.12 3.89371 5.75687 0
M  V30 2108 H 216.311 2.37723 4.03244 0
M  V30 2109 H 216.484 3.50599 5.44962 0
M  V30 2110 N 209.89 -1.43072 0.660911 0
M  V30 2111 C 211.306 -1.56169 0.329173 0
M  V30 2112 C 211.506 -1.64317 -1.16629 0
M  V30 2113 O 210.562 -1.60245 -1.95135 0
M  V30 2114 C 211.875 -2.81873 1.04729 0
M  V30 2115 C 213.423 -2.95627 1.02828 0
M  V30 2116 C 213.898 -4.24174 1.72744 0
M  V30 2117 N 215.389 -4.31055 1.69545 0
M  V30 2118 C 216.124 -5.29304 2.20511 0
M  V30 2119 N 215.62 -6.33786 2.79799 0
M  V30 2120 N 217.413 -5.21008 2.10966 0
M  V30 2121 H 209.564 -1.36027 1.63127 0
M  V30 2122 H 211.827 -0.653823 0.686454 0
M  V30 2123 H 211.533 -2.81942 2.10242 0
M  V30 2124 H 211.407 -3.72338 0.603702 0
M  V30 2125 H 213.794 -2.95094 -0.0184742 0
M  V30 2126 H 213.875 -2.06431 1.51063 0
M  V30 2127 H 213.519 -4.25467 2.7738 0
M  V30 2128 H 213.449 -5.1228 1.2197 0
M  V30 2129 H 215.94 -3.56174 1.26288 0
M  V30 2130 H 216.253 -7.05086 3.16344 0
M  V30 2131 H 214.598 -6.34387 2.83863 0
M  V30 2132 H 217.789 -4.38301 1.64347 0
M  V30 2133 H 217.962 -5.97416 2.50993 0
M  V30 2134 N 211.368 -0.403325 -1.52352 0
M  V30 2135 C 212.3 0.4603 -2.2453 0
M  V30 2136 C 213.313 1.01505 -1.27282 0
M  V30 2137 O 214.502 0.914982 -1.53266 0
M  V30 2138 C 211.602 1.65208 -2.95905 0
M  V30 2139 C 210.775 1.22224 -4.19976 0
M  V30 2140 C 209.834 2.28028 -4.74226 0
M  V30 2141 O 208.86 1.88857 -5.36956 0
M  V30 2142 N 210.062 3.6012 -4.55295 0
M  V30 2143 H 212.827 -0.158156 -2.99282 0
M  V30 2144 H 210.388 -0.230402 -1.60252 0
M  V30 2145 H 212.38 2.35541 -3.29093 0
M  V30 2146 H 210.95 2.17658 -2.24374 0
M  V30 2147 H 210.17 0.34725 -3.92668 0
M  V30 2148 H 211.458 0.911924 -5.00561 0
M  V30 2149 H 210.856 3.94698 -4.05253 0
M  V30 2150 H 209.413 4.26447 -4.92936 0
M  V30 2151 N 212.846 1.57033 -0.133567 0
M  V30 2152 C 214.074 2.00044 0.528195 0
M  V30 2153 C 214.489 1.01349 1.59291 0
M  V30 2154 O 213.846 0.00848369 1.82498 0
M  V30 2155 C 213.897 3.43018 1.1411 0
M  V30 2156 O 213.618 4.37939 0.11892 0
M  V30 2157 C 215.119 4.01237 1.88477 0
M  V30 2158 H 212.339 0.656517 0.138661 0
M  V30 2159 H 214.883 2.03267 -0.224196 0
M  V30 2160 H 213.038 3.40688 1.84418 0
M  V30 2161 H 213.452 5.21436 0.56613 0
M  V30 2162 H 214.926 5.03314 2.26669 0
M  V30 2163 H 215.403 3.41193 2.76558 0
M  V30 2164 H 216.009 4.07156 1.22898 0
M  V30 2165 N 214.325 -0.140222 1.56975 0
M  V30 2166 C 215.55 -0.870414 1.88251 0
M  V30 2167 C 215.975 -1.73637 0.723312 0
M  V30 2168 O 215.333 -1.78329 -0.32689 0
M  V30 2169 C 215.381 -1.69737 3.18154 0
M  V30 2170 O 214.485 -2.80229 3.02565 0
M  V30 2171 H 213.826 -0.242025 0.61832 0
M  V30 2172 H 216.356 -0.128999 2.04193 0
M  V30 2173 H 216.366 -2.09099 3.50345 0
M  V30 2174 H 215.041 -1.06152 4.02125 0
M  V30 2175 H 213.618 -2.44224 2.81796 0
M  V30 2176 N 215.803 -1.52179 -0.40978 0
M  V30 2177 C 216.736 -1.70196 -1.52015 0
M  V30 2178 C 217.714 -0.549542 -1.53032 0
M  V30 2179 O 218.898 -0.776815 -1.71749 0
M  V30 2180 C 216.025 -1.74069 -2.90547 0
M  V30 2181 C 215.071 -2.95601 -3.07445 0
M  V30 2182 S 215.904 -4.55956 -2.80827 0
M  V30 2183 C 217.06 -4.62614 -4.21591 0
M  V30 2184 H 217.293 -2.64109 -1.36504 0
M  V30 2185 H 214.826 -1.4221 -0.601312 0
M  V30 2186 H 216.784 -1.76985 -3.70387 0
M  V30 2187 H 215.445 -0.812835 -3.034 0
M  V30 2188 H 214.638 -2.94791 -4.08796 0
M  V30 2189 H 214.24 -2.90569 -2.35469 0
M  V30 2190 H 216.532 -4.39951 -5.15218 0
M  V30 2191 H 217.475 -5.64548 -4.27424 0
M  V30 2192 H 217.883 -3.91654 -4.06531 0
M  V30 2193 N 217.281 0.66697 -1.42791 0
M  V30 2194 C 218.509 1.45505 -1.47091 0
M  V30 2195 C 218.924 1.8861 -0.0845873 0
M  V30 2196 O 218.281 1.58632 0.90234 0
M  V30 2197 C 218.332 2.69906 -2.40485 0
M  V30 2198 O 218.053 2.28608 -3.73725 0
M  V30 2199 C 219.554 3.63396 -2.53886 0
M  V30 2200 H 216.774 0.447459 -0.500022 0
M  V30 2201 H 219.318 0.818866 -1.8739 0
M  V30 2202 H 217.473 3.29696 -2.03419 0
M  V30 2203 H 217.887 3.08997 -4.23817 0
M  V30 2204 H 219.361 4.47387 -3.2334 0
M  V30 2205 H 219.838 4.09824 -1.57927 0
M  V30 2206 H 220.444 3.09495 -2.91706 0
M  V30 2207 N 218.759 1.29093 0.90403 0
M  V30 2208 C 220.036 1.075 1.63411 0
M  V30 2209 C 220.416 -0.382346 2.07609 0
M  V30 2210 O 219.764 -1.37031 1.82851 0
M  V30 2211 C 219.974 2.05858 2.81822 0
M  V30 2212 C 221.322 2.36539 3.52611 0
M  V30 2213 O 222.346 2.04019 2.91984 0
M  V30 2214 O 221.205 2.92085 4.61897 0
M  V30 2215 H 218.299 0.411547 0.717327 0
M  V30 2216 H 220.845 1.40449 0.952479 0
M  V30 2217 H 219.617 3.04037 2.46327 0
M  V30 2218 H 219.24 1.73613 3.57693 0
M  V30 2219 N 220.237 -1.11381 1.11499 0
M  V30 2220 C 221.484 -1.83132 0.864231 0
M  V30 2221 C 221.812 -1.84683 -0.610114 0
M  V30 2222 O 221.067 -1.29589 -1.46646 0
M  V30 2223 C 221.366 -3.30026 1.37177 0
M  V30 2224 C 221.032 -3.48634 2.85946 0
M  V30 2225 C 219.694 -3.53421 3.26569 0
M  V30 2226 C 222.046 -3.54837 3.81759 0
M  V30 2227 C 219.374 -3.61967 4.61733 0
M  V30 2228 C 221.726 -3.64915 5.1674 0
M  V30 2229 C 220.39 -3.67962 5.5692 0
M  V30 2230 H 219.66 -0.670127 0.316245 0
M  V30 2231 H 222.307 -1.31354 1.3935 0
M  V30 2232 H 220.612 -3.84304 0.762753 0
M  V30 2233 H 222.309 -3.84034 1.15408 0
M  V30 2234 H 218.899 -3.45579 2.53521 0
M  V30 2235 H 223.083 -3.50399 3.51474 0
M  V30 2236 H 218.339 -3.62603 4.92269 0
M  V30 2237 H 222.513 -3.68658 5.90816 0
M  V30 2238 H 220.14 -3.74336 6.61647 0
M  V30 2239 N 221.715 -0.905404 -1.28997 0
M  V30 2240 C 222.945 -0.549049 -1.99171 0
M  V30 2241 C 223.353 0.87203 -1.67906 0
M  V30 2242 O 222.696 1.58796 -0.923561 0
M  V30 2243 C 222.758 -0.668306 -3.53234 0
M  V30 2244 C 222.422 -2.0574 -4.08069 0
M  V30 2245 C 223.419 -3.0292 -4.22534 0
M  V30 2246 C 221.104 -2.36833 -4.42962 0
M  V30 2247 C 223.098 -4.29314 -4.71135 0
M  V30 2248 C 220.785 -3.63467 -4.91258 0
M  V30 2249 C 221.783 -4.59522 -5.053 0
M  V30 2250 O 221.471 -5.83907 -5.52546 0
M  V30 2251 H 221.203 -0.208784 -0.64295 0
M  V30 2252 H 223.757 -1.21836 -1.65363 0
M  V30 2253 H 221.987 0.0580547 -3.86656 0
M  V30 2254 H 223.676 -0.320273 -4.04634 0
M  V30 2255 H 224.442 -2.80216 -3.95859 0
M  V30 2256 H 220.321 -1.62824 -4.31288 0
M  V30 2257 H 223.865 -5.04293 -4.8201 0
M  V30 2258 H 219.762 -3.86 -5.17372 0
M  V30 2259 H 220.53 -5.86578 -5.70849 0
M  V30 2260 N 223.193 1.4272 -0.668489 0
M  V30 2261 C 224.143 2.27971 0.0363806 0
M  V30 2262 C 225.127 1.40741 0.779794 0
M  V30 2263 O 226.319 1.64245 0.659745 0
M  V30 2264 C 223.448 3.28673 0.991398 0
M  V30 2265 C 222.534 4.23388 0.245658 0
M  V30 2266 N 222.925 5.00267 -0.746069 0
M  V30 2267 C 221.223 4.43355 0.484988 0
M  V30 2268 C 221.924 5.69396 -1.19009 0
M  V30 2269 N 220.9 5.41095 -0.521287 0
M  V30 2270 H 224.702 2.84833 -0.724394 0
M  V30 2271 H 222.216 1.54607 -0.497028 0
M  V30 2272 H 224.213 3.88543 1.51129 0
M  V30 2273 H 222.873 2.73373 1.75207 0
M  V30 2274 H 223.884 5.05525 -1.12537 0
M  V30 2275 H 220.561 3.99104 1.22565 0
M  V30 2276 H 221.951 6.41083 -2.01153 0
M  V30 2277 N 224.671 0.411399 1.52136 0
M  V30 2278 C 225.896 -0.165538 2.06738 0
M  V30 2279 C 226.321 -1.379 1.27926 0
M  V30 2280 O 225.679 -1.78628 0.310114 0
M  V30 2281 C 225.727 -0.492124 3.57226 0
M  V30 2282 O 224.831 -1.58276 3.80818 0
M  V30 2283 H 224.172 -0.0132132 0.663869 0
M  V30 2284 H 226.702 0.585253 1.96051 0
M  V30 2285 H 226.712 -0.750104 4.01045 0
M  V30 2286 H 225.387 0.394922 4.14021 0
M  V30 2287 H 223.964 -1.31677 3.48877 0
M  V30 2288 N 226.149 -1.5696 0.141893 0
M  V30 2289 C 227.096 -2.16501 -0.799737 0
M  V30 2290 C 228.066 -1.09643 -1.24771 0
M  V30 2291 O 229.251 -1.3766 -1.32115 0
M  V30 2292 C 226.391 -2.78679 -2.03549 0
M  V30 2293 C 225.504 -3.99914 -1.6338 0
M  V30 2294 C 224.639 -4.50106 -2.82096 0
M  V30 2295 C 223.678 -5.63819 -2.38275 0
M  V30 2296 N 222.815 -6.08651 -3.49983 0
M  V30 2297 H 227.655 -2.96632 -0.285179 0
M  V30 2298 H 225.192 -1.46533 -0.129053 0
M  V30 2299 H 227.15 -3.1287 -2.75986 0
M  V30 2300 H 225.78 -2.012 -2.52425 0
M  V30 2301 H 224.832 -3.71735 -0.807279 0
M  V30 2302 H 226.144 -4.82311 -1.27192 0
M  V30 2303 H 225.298 -4.86325 -3.62729 0
M  V30 2304 H 224.037 -3.66706 -3.21525 0
M  V30 2305 H 223.042 -5.2718 -1.56081 0
M  V30 2306 H 224.267 -6.49 -1.99938 0
M  V30 2307 H 222.213 -5.28188 -3.89042 0
M  V30 2308 H 222.13 -6.85961 -3.17794 0
M  V30 2309 H 223.398 -6.49515 -4.30988 0
M  V30 2310 N 227.627 0.131896 -1.57047 0
M  V30 2311 C 229.043 0.485031 -1.52051 0
M  V30 2312 C 229.243 1.82563 -0.85281 0
M  V30 2313 O 228.299 2.48817 -0.429694 0
M  V30 2314 C 229.612 0.481409 -2.96821 0
M  V30 2315 C 231.16 0.565868 -3.07842 0
M  V30 2316 C 231.635 0.592762 -4.54148 0
M  V30 2317 N 233.126 0.654564 -4.58552 0
M  V30 2318 C 233.861 0.696608 -5.69153 0
M  V30 2319 N 233.357 0.697078 -6.89284 0
M  V30 2320 N 235.15 0.738639 -5.57226 0
M  V30 2321 H 227.301 -0.746664 -1.98843 0
M  V30 2322 H 229.564 -0.273999 -0.90754 0
M  V30 2323 H 229.27 -0.435731 -3.4899 0
M  V30 2324 H 229.144 1.3139 -3.53577 0
M  V30 2325 H 231.531 1.47343 -2.55684 0
M  V30 2326 H 231.612 -0.29406 -2.54104 0
M  V30 2327 H 231.256 -0.310701 -5.06949 0
M  V30 2328 H 231.186 1.46939 -5.05684 0
M  V30 2329 H 233.677 0.660887 -3.72076 0
M  V30 2330 H 233.99 0.731426 -7.69331 0
M  V30 2331 H 232.335 0.66471 -6.91814 0
M  V30 2332 H 235.526 0.735545 -4.62285 0
M  V30 2333 H 235.699 0.767938 -6.43434 0
M  V30 2334 N 229.106 1.52395 0.401703 0
M  V30 2335 C 230.522 1.41363 0.740864 0
M  V30 2336 C 230.722 0.523982 1.94568 0
M  V30 2337 O 229.778 -0.00741204 2.52499 0
M  V30 2338 C 231.091 2.84011 0.987847 0
M  V30 2339 C 232.639 2.93404 1.09011 0
M  V30 2340 C 233.114 4.37036 1.3698 0
M  V30 2341 N 234.605 4.40304 1.43829 0
M  V30 2342 C 235.34 5.48508 1.67112 0
M  V30 2343 N 234.836 6.66819 1.87949 0
M  V30 2344 N 236.629 5.36034 1.69187 0
M  V30 2345 H 228.78 2.08765 -0.391262 0
M  V30 2346 H 231.043 0.941265 -0.112798 0
M  V30 2347 H 230.749 3.51265 0.174835 0
M  V30 2348 H 230.623 3.25502 1.906 0
M  V30 2349 H 233.01 2.26325 1.8937 0
M  V30 2350 H 233.091 2.55359 0.15015 0
M  V30 2351 H 232.735 5.04676 0.571353 0
M  V30 2352 H 232.665 4.72623 2.3224 0
M  V30 2353 H 235.156 3.55024 1.29486 0
M  V30 2354 H 235.469 7.45063 2.05185 0
M  V30 2355 H 233.814 6.6987 1.85199 0
M  V30 2356 H 237.005 4.42579 1.52451 0
M  V30 2357 H 237.178 6.20434 1.86993 0
M  V30 2358 N 230.584 -0.659388 1.43143 0
M  V30 2359 C 231.514 -1.78422 1.50625 0
M  V30 2360 C 232.495 -1.66216 0.361443 0
M  V30 2361 O 233.68 -1.85404 0.577834 0
M  V30 2362 C 230.81 -3.16815 1.42287 0
M  V30 2363 C 229.764 -3.43777 2.54954 0
M  V30 2364 C 229.09 -4.81905 2.31671 0
M  V30 2365 C 230.39 -3.39134 3.97222 0
M  V30 2366 H 232.084 -1.72417 2.44771 0
M  V30 2367 H 229.63 -0.828084 1.17808 0
M  V30 2368 H 231.583 -3.95253 1.46127 0
M  V30 2369 H 230.307 -3.23534 0.446435 0
M  V30 2370 H 228.966 -2.67707 2.50457 0
M  V30 2371 H 228.614 -4.85294 1.32284 0
M  V30 2372 H 228.314 -5.00906 3.07192 0
M  V30 2373 H 229.838 -5.62609 2.37284 0
M  V30 2374 H 231.252 -4.07518 4.03239 0
M  V30 2375 H 229.649 -3.69671 4.72719 0
M  V30 2376 H 230.719 -2.37426 4.22797 0
M  V30 2377 N 232.062 -1.29571 -0.897171 0
M  V30 2378 C 233.311 -1.1706 -1.64256 0
M  V30 2379 C 233.624 0.276476 -1.93636 0
M  V30 2380 O 234.83 0.52294 -2.66416 0
M  V30 2381 C 233.286 -2.0475 -2.95982 0
M  V30 2382 C 232.894 -3.54295 -2.74187 0
M  V30 2383 C 234.638 -2.0097 -3.73914 0
M  V30 2384 C 232.545 -4.34081 -4.01656 0
M  V30 2385 H 231.475 -0.43452 -0.616205 0
M  V30 2386 H 234.126 -1.54229 -0.994268 0
M  V30 2387 H 232.508 -1.60452 -3.62038 0
M  V30 2388 H 233.682 -4.06662 -2.1671 0
M  V30 2389 H 231.997 -3.59773 -2.09648 0
M  V30 2390 H 234.594 -2.57838 -4.68427 0
M  V30 2391 H 234.937 -0.990273 -4.0435 0
M  V30 2392 H 235.47 -2.43325 -3.14703 0
M  V30 2393 H 232.209 -5.36671 -3.76384 0
M  V30 2394 H 231.729 -3.86483 -4.58684 0
M  V30 2395 H 233.408 -4.44877 -4.69781 0
M  V30 2396 N 233.54 1.10788 -1.12088 0
M  V30 2397 C 234.787 1.82671 -0.873931 0
M  V30 2398 C 235.115 1.85004 0.600311 0
M  V30 2399 O 234.37 1.30365 1.45957 0
M  V30 2400 C 234.669 3.29294 -1.38926 0
M  V30 2401 C 234.335 3.47113 -2.87791 0
M  V30 2402 C 232.997 3.51684 -3.28439 0
M  V30 2403 C 235.349 3.52808 -3.83635 0
M  V30 2404 C 232.677 3.59513 -4.63646 0
M  V30 2405 C 235.029 3.62169 -5.18668 0
M  V30 2406 C 233.693 3.65003 -5.58864 0
M  V30 2407 H 232.963 0.668441 -0.319794 0
M  V30 2408 H 235.61 1.30613 -1.40045 0
M  V30 2409 H 233.915 3.83894 -0.783122 0
M  V30 2410 H 235.612 3.83416 -1.17443 0
M  V30 2411 H 232.202 3.4423 -2.5535 0
M  V30 2412 H 236.386 3.4853 -3.53328 0
M  V30 2413 H 231.642 3.59987 -4.94185 0
M  V30 2414 H 235.816 3.6552 -5.92763 0
M  V30 2415 H 233.443 3.70822 -6.63623 0
M  V30 2416 N 235.018 0.912232 1.28515 0
M  V30 2417 C 236.243 0.559774 1.99703 0
M  V30 2418 C 236.668 -0.851393 1.67729 0
M  V30 2419 O 236.026 -1.56875 0.908834 0
M  V30 2420 C 236.074 0.773874 3.52198 0
M  V30 2421 O 235.178 -0.167842 4.12058 0
M  V30 2422 H 234.519 0.21723 0.627461 0
M  V30 2423 H 237.049 1.22725 1.63706 0
M  V30 2424 H 237.059 0.683386 4.02236 0
M  V30 2425 H 235.734 1.80261 3.74805 0
M  V30 2426 H 234.311 -0.0287509 3.72889 0
M  V30 2427 N 236.496 -1.42363 0.676048 0
M  V30 2428 C 237.443 -2.308 -0.00150904 0
M  V30 2429 C 238.413 -1.46032 -0.791444 0
M  V30 2430 O 239.598 -1.74861 -0.76344 0
M  V30 2431 C 236.738 -3.31883 -0.945919 0
M  V30 2432 C 235.851 -4.31741 -0.149675 0
M  V30 2433 C 234.986 -5.19898 -1.08995 0
M  V30 2434 C 234.025 -6.11434 -0.285465 0
M  V30 2435 N 233.162 -6.92138 -1.17851 0
M  V30 2436 H 238.002 -2.88187 0.758455 0
M  V30 2437 H 235.539 -1.41952 0.38576 0
M  V30 2438 H 237.497 -3.89019 -1.50731 0
M  V30 2439 H 236.127 -2.76093 -1.6725 0
M  V30 2440 H 235.179 -3.76713 0.528359 0
M  V30 2441 H 236.491 -4.96534 0.474866 0
M  V30 2442 H 235.645 -5.81772 -1.72123 0
M  V30 2443 H 234.384 -4.55284 -1.74837 0
M  V30 2444 H 233.389 -5.48627 0.359018 0
M  V30 2445 H 234.614 -6.78097 0.368883 0
M  V30 2446 H 232.56 -6.30152 -1.82332 0
M  V30 2447 H 232.477 -7.53542 -0.609082 0
M  V30 2448 H 233.745 -7.58499 -1.79722 0
M  V30 2449 N 237.974 -0.419461 -1.51915 0
M  V30 2450 C 239.39 -0.0708431 -1.59443 0
M  V30 2451 C 239.59 1.41796 -1.43164 0
M  V30 2452 O 238.646 2.18596 -1.26381 0
M  V30 2453 C 239.959 -0.574991 -2.95151 0
M  V30 2454 C 241.507 -0.533867 -3.08413 0
M  V30 2455 C 241.982 -1.01469 -4.46618 0
M  V30 2456 N 243.473 -0.971939 -4.52888 0
M  V30 2457 C 244.208 -1.31505 -5.58116 0
M  V30 2458 N 243.704 -1.73014 -6.70849 0
M  V30 2459 N 245.497 -1.23436 -5.48379 0
M  V30 2460 H 237.648 -1.38836 -1.60743 0
M  V30 2461 H 239.911 -0.570998 -0.756747 0
M  V30 2462 H 239.617 -1.61597 -3.12377 0
M  V30 2463 H 239.491 0.00979777 -3.77199 0
M  V30 2464 H 241.878 0.498086 -2.90866 0
M  V30 2465 H 241.959 -1.15484 -2.28248 0
M  V30 2466 H 241.603 -2.04502 -4.6491 0
M  V30 2467 H 241.533 -0.370433 -5.25295 0
M  V30 2468 H 244.024 -0.666893 -3.71969 0
M  V30 2469 H 244.337 -1.97479 -7.47143 0
M  V30 2470 H 242.682 -1.76926 -6.72103 0
M  V30 2471 H 245.873 -0.908869 -4.59192 0
M  V30 2472 H 246.046 -1.50506 -6.30279 0
M  V30 2473 N 239.452 1.56882 -0.150215 0
M  V30 2474 C 240.399 2.16922 0.788244 0
M  V30 2475 C 241.369 1.10303 1.24187 0
M  V30 2476 O 242.554 1.38359 1.31383 0
M  V30 2477 C 239.694 2.79754 2.02068 0
M  V30 2478 C 238.807 4.00775 1.61257 0
M  V30 2479 C 237.942 4.51595 2.79705 0
M  V30 2480 C 236.981 5.65074 2.35282 0
M  V30 2481 N 236.118 6.10499 3.4675 0
M  V30 2482 H 240.958 2.96779 0.269444 0
M  V30 2483 H 238.495 1.46599 0.12128 0
M  V30 2484 H 240.453 3.14329 2.74323 0
M  V30 2485 H 239.083 2.02536 2.51354 0
M  V30 2486 H 238.135 3.72158 0.787553 0
M  V30 2487 H 239.447 4.82978 1.24633 0
M  V30 2488 H 238.601 4.88242 3.60145 0
M  V30 2489 H 237.34 3.68406 3.19576 0
M  V30 2490 H 236.345 5.28 1.53283 0
M  V30 2491 H 237.57 6.50052 1.96493 0
M  V30 2492 H 235.516 5.30243 3.86236 0
M  V30 2493 H 235.433 6.87637 3.14152 0
M  V30 2494 H 236.701 6.51791 4.27537 0
M  V30 2495 N 240.93 -0.123565 1.57115 0
M  V30 2496 C 242.341 -0.681198 1.73829 0
M  V30 2497 C 242.692 -1.80535 0.768214 0
M  V30 2498 O 241.817 -2.16317 -0.0599103 0
M  V30 2499 C 242.412 -1.24246 3.15196 0
M  V30 2500 C 240.971 -1.74643 3.33432 0
M  V30 2501 C 240.118 -0.644284 2.69711 0
M  V30 2502 H 243.069 0.102315 1.5837 0
M  V30 2503 H 243.09 -2.11216 3.16493 0
M  V30 2504 H 242.602 -0.424062 3.85776 0
M  V30 2505 H 240.703 -2.58974 2.67886 0
M  V30 2506 H 240.816 -1.85902 4.41562 0
M  V30 2507 H 239.18 -1.07676 2.3082 0
M  V30 2508 H 239.963 0.163058 3.42913 0
M  V30 2509 O 242.447 -1.59262 -0.267957 0
M  V30 2510 H 243.138 -1.70845 -0.912779 0
M  V30 END ATOM
M  V30 BEGIN BOND
M  V30 END BOND
M  V30 END CTAB
M  END
$$$$
