drugbank_target|P39019 40S ribosomal protein S19 (DB11638)
 OpenBabel12092121093D

  0  0  0     0  0            999 V3000
M  V30 BEGIN CTAB
M  V30 COUNTS 2295 2315 0 0 0
M  V30 BEGIN ATOM
M  V30 1 H -0.908 1.98254 -0.117106 0
M  V30 2 N 0 1.576 0 0
M  V30 3 C 0.933 2.03868 1.02534 0
M  V30 4 C 1.911 0.928543 1.3348 0
M  V30 5 O 3.095 1.19667 1.45644 0
M  V30 6 C 0.222 2.43627 2.35294 0
M  V30 7 C -0.732 3.65373 2.2001 0
M  V30 8 S 0.101 5.13292 1.52614 0
M  V30 9 C 1.257 5.56322 2.86805 0
M  V30 10 H 1.49 2.90518 0.631377 0
M  V30 11 H -0.977 1.52953 0.210867 0
M  V30 12 H 0.981 2.67203 3.11629 0
M  V30 13 H -0.358 1.57376 2.7183 0
M  V30 14 H -1.165 3.90944 3.18086 0
M  V30 15 H -1.563 3.418 1.51819 0
M  V30 16 H 0.729 5.58782 3.83104 0
M  V30 17 H 1.672 6.56266 2.65933 0
M  V30 18 H 2.08 4.83886 2.90714 0
M  V30 19 N 1.4781 -0.272755 1.55222 0
M  V30 20 C 2.8891 -0.84378 1.66545 0
M  V30 21 C 3.2401 -1.87035 0.592641 0
M  V30 22 O 2.3651 -2.14761 -0.265818 0
M  V30 23 C 2.9601 -1.53723 3.01918 0
M  V30 24 C 1.5191 -2.05628 3.15268 0
M  V30 25 C 0.6661 -0.898424 2.62343 0
M  V30 26 H 3.6171 -0.0490998 1.58624 0
M  V30 27 H 3.6381 -2.40421 2.94921 0
M  V30 28 H 3.1501 -0.78983 3.79978 0
M  V30 29 H 1.2511 -2.83329 2.41983 0
M  V30 30 H 1.3641 -2.27142 4.21833 0
M  V30 31 H -0.2719 -1.29186 2.19506 0
M  V30 32 H 0.5111 -0.164528 3.42906 0
M  V30 33 N 2.9562 -1.48159 -0.537278 0
M  V30 34 C 4.2042 -1.55497 -1.29094 0
M  V30 35 C 4.5252 -0.227454 -1.93669 0
M  V30 36 O 3.7952 0.750386 -1.80959 0
M  V30 37 H 2.3752 -0.572832 -0.47945 0
M  V30 38 H 5.0372 -1.84579 -0.625818 0
M  V30 39 H 4.1332 -2.33216 -2.07405 0
M  V30 40 N 4.4343 0.785586 -1.36625 0
M  V30 41 C 5.6803 1.54591 -1.31261 0
M  V30 42 C 6.0133 1.93906 0.106823 0
M  V30 43 O 5.2883 1.63007 1.06108 0
M  V30 44 C 5.5713 2.82038 -2.23889 0
M  V30 45 C 5.4243 2.49066 -3.74548 0
M  V30 46 C 6.7433 3.83887 -2.15217 0
M  V30 47 H 3.8623 0.560846 -0.478143 0
M  V30 48 H 6.5043 0.902278 -1.67209 0
M  V30 49 H 4.6543 3.36961 -1.93363 0
M  V30 50 H 6.3263 2.00164 -4.15611 0
M  V30 51 H 4.5693 1.81954 -3.93796 0
M  V30 52 H 5.2403 3.40109 -4.34776 0
M  V30 53 H 7.7163 3.38421 -2.42096 0
M  V30 54 H 6.5923 4.70806 -2.82193 0
M  V30 55 H 6.8533 4.27131 -1.14068 0
M  V30 56 N 5.9124 1.20967 1.01018 0
M  V30 57 C 7.1404 1.04956 1.78303 0
M  V30 58 C 7.5554 -0.400915 1.84494 0
M  V30 59 O 6.9124 -1.27826 1.30257 0
M  V30 60 C 6.9634 1.63403 3.22462 0
M  V30 61 O 6.6844 3.02775 3.16637 0
M  V30 62 C 8.1854 1.52432 4.16268 0
M  V30 63 H 5.4054 0.368858 0.560522 0
M  V30 64 H 7.9494 1.60193 1.27116 0
M  V30 65 H 6.1044 1.1227 3.70775 0
M  V30 66 H 6.5184 3.30626 4.07169 0
M  V30 67 H 7.9924 1.98078 5.15237 0
M  V30 68 H 8.4694 0.477875 4.36592 0
M  V30 69 H 9.0754 2.02787 3.73841 0
M  V30 70 N 7.3905 -1.2043 1.01659 0
M  V30 71 C 8.6365 -1.90079 0.706963 0
M  V30 72 C 8.9695 -1.78648 -0.761474 0
M  V30 73 O 8.2445 -1.17069 -1.55323 0
M  V30 74 C 8.5275 -3.41469 1.14327 0
M  V30 75 C 8.3805 -3.61833 2.67201 0
M  V30 76 C 9.6995 -4.34261 0.714529 0
M  V30 77 H 6.8185 -0.690254 0.2583 0
M  V30 78 H 9.4605 -1.41826 1.26433 0
M  V30 79 H 7.6105 -3.82696 0.669056 0
M  V30 80 H 9.2825 -3.2986 3.22475 0
M  V30 81 H 7.5255 -3.05304 3.08175 0
M  V30 82 H 8.1965 -4.67955 2.92783 0
M  V30 83 H 10.6725 -4.00682 1.12221 0
M  V30 84 H 9.5485 -5.38806 1.04784 0
M  V30 85 H 9.8095 -4.40431 -0.383799 0
M  V30 86 N 8.8686 -0.792821 -1.36206 0
M  V30 87 C 9.8156 -0.191653 -2.30003 0
M  V30 88 C 10.7856 0.666453 -1.52143 0
M  V30 89 O 11.9706 0.61442 -1.80636 0
M  V30 90 C 9.1106 0.664848 -3.38635 0
M  V30 91 C 8.2236 -0.212175 -4.31479 0
M  V30 92 C 7.3586 0.651022 -5.27196 0
M  V30 93 C 6.3976 -0.227247 -6.11678 0
M  V30 94 N 5.5346 0.595127 -6.99573 0
M  V30 95 H 10.3746 -0.996978 -2.80828 0
M  V30 96 H 7.9116 -0.503206 -1.38225 0
M  V30 97 H 9.8696 1.17645 -4.00269 0
M  V30 98 H 8.4996 1.43557 -2.89122 0
M  V30 99 H 7.5516 -0.841777 -3.70969 0
M  V30 100 H 8.8636 -0.888751 -4.90818 0
M  V30 101 H 8.0176 1.2283 -5.94136 0
M  V30 102 H 6.7566 1.36121 -4.68319 0
M  V30 103 H 5.7616 -0.816904 -5.43697 0
M  V30 104 H 6.9866 -0.93509 -6.72631 0
M  V30 105 H 4.9326 1.28955 -6.432 0
M  V30 106 H 4.8496 -0.0236952 -7.55996 0
M  V30 107 H 6.1176 1.15613 -7.70879 0
M  V30 108 N 10.3467 1.47872 -0.545128 0
M  V30 109 C 11.6237 1.9554 0.0485222 0
M  V30 110 C 12.0037 1.4876 1.49779 0
M  V30 111 O 11.3517 0.720925 2.16829 0
M  V30 112 C 11.5617 3.48898 -0.084417 0
M  V30 113 C 12.9097 4.24547 0.0671239 0
M  V30 114 O 13.9337 3.56198 -0.0113649 0
M  V30 115 O 12.7927 5.45999 0.233882 0
M  V30 116 H 9.8867 0.823957 0.0708773 0
M  V30 117 H 12.4327 1.58327 -0.610798 0
M  V30 118 H 11.2047 3.75714 -1.09337 0
M  V30 119 H 10.8277 3.92845 0.613066 0
M  V30 120 N 11.8248 0.280983 1.55075 0
M  V30 121 C 13.0708 -0.33461 2.00021 0
M  V30 122 C 13.4038 -1.55063 1.16915 0
M  V30 123 O 12.6788 -1.93006 0.240646 0
M  V30 124 C 12.9618 -0.711007 3.53011 0
M  V30 125 C 12.8148 0.512766 4.46868 0
M  V30 126 C 14.1338 -1.54522 4.12081 0
M  V30 127 H 11.2528 -0.120147 0.727141 0
M  V30 128 H 13.8948 0.389097 1.85973 0
M  V30 129 H 12.0448 -1.32761 3.65112 0
M  V30 130 H 13.7168 1.15131 4.46702 0
M  V30 131 H 11.9598 1.14975 4.18286 0
M  V30 132 H 12.6308 0.205556 5.51617 0
M  V30 133 H 15.1068 -1.02442 4.03293 0
M  V30 134 H 13.9828 -1.77739 5.19327 0
M  V30 135 H 14.2438 -2.52813 3.62682 0
M  V30 136 N 13.3029 -1.57598 0.00835791 0
M  V30 137 C 14.2509 -2.10078 -0.998508 0
M  V30 138 C 15.2449 -1.02262 -1.35051 0
M  V30 139 O 16.4509 -1.20719 -1.33518 0
M  V30 140 H 12.8259 -0.670903 -0.339696 0
M  V30 141 H 14.7969 -2.93648 -0.530398 0
M  V30 142 C 13.5459 -2.62615 -2.27879 0
M  V30 143 H 12.8689 -3.45213 -2.01662 0
M  V30 144 H 14.3089 -3.03004 -2.96588 0
M  V30 145 C 12.7679 -1.54407 -2.99433 0
M  V30 146 O 13.2979 -0.931812 -3.90743 0
M  V30 147 N 11.5039 -1.2695 -2.61404 0
M  V30 148 H 11.0509 -1.76924 -1.87232 0
M  V30 149 H 11.0089 -0.547704 -3.09593 0
M  V30 150 N 14.781 0.264519 -1.55364 0
M  V30 151 C 15.713 1.34965 -1.85248 0
M  V30 152 C 16.726 1.45136 -0.737525 0
M  V30 153 O 17.915 1.46801 -1.01547 0
M  V30 154 C 15.015 2.73008 -2.00797 0
M  V30 155 C 14.188 2.85324 -3.31525 0
M  V30 156 C 13.247 4.04097 -3.37034 0
M  V30 157 O 12.273 3.94455 -4.10358 0
M  V30 158 N 13.475 5.16458 -2.65049 0
M  V30 159 H 16.24 1.09672 -2.78913 0
M  V30 160 H 13.801 0.454635 -1.55386 0
M  V30 161 H 15.793 3.50772 -2.01844 0
M  V30 162 H 14.363 2.91087 -1.1396 0
M  V30 163 H 13.583 1.94377 -3.42945 0
M  V30 164 H 14.871 2.9049 -4.17724 0
M  V30 165 H 14.269 5.27181 -2.05175 0
M  V30 166 H 12.826 5.92422 -2.71809 0
M  V30 167 N 16.2591 1.48442 0.529413 0
M  V30 168 C 17.1911 1.59095 1.64989 0
M  V30 169 C 18.2041 0.475212 1.5571 0
M  V30 170 O 19.3931 0.746081 1.6216 0
M  V30 171 C 16.4931 1.50518 3.0364 0
M  V30 172 C 15.6661 2.77142 3.38395 0
M  V30 173 C 14.7251 2.62012 4.56329 0
M  V30 174 O 13.7511 3.35898 4.59522 0
M  V30 175 N 14.9531 1.71667 5.54536 0
M  V30 176 H 17.7181 2.55723 1.56287 0
M  V30 177 H 15.2791 1.45173 0.716697 0
M  V30 178 H 17.2711 1.38091 3.80412 0
M  V30 179 H 15.8411 0.618627 3.06418 0
M  V30 180 H 15.0611 3.0413 2.50796 0
M  V30 181 H 16.3491 3.61146 3.58401 0
M  V30 182 H 15.7471 1.10841 5.54735 0
M  V30 183 H 14.3041 1.65178 6.30523 0
M  V30 184 N 17.7372 -0.778329 1.37039 0
M  V30 185 C 18.6472 -1.92253 1.34446 0
M  V30 186 C 19.6632 -1.72267 0.244991 0
M  V30 187 O 20.8392 -1.95615 0.479258 0
M  V30 188 C 17.9042 -3.27282 1.144 0
M  V30 189 C 16.9652 -3.59969 2.33925 0
M  V30 190 C 16.1982 -4.88555 2.14825 0
M  V30 191 O 16.4212 -5.59113 1.12912 0
M  V30 192 O 15.3552 -5.20153 3.02861 0
M  V30 193 H 19.1812 -1.97392 2.30803 0
M  V30 194 H 16.7662 -0.920154 1.17701 0
M  V30 195 H 18.6482 -4.08062 1.05182 0
M  V30 196 H 17.3232 -3.23011 0.211124 0
M  V30 197 H 16.2302 -2.7945 2.48714 0
M  V30 198 H 17.5632 -3.68976 3.25757 0
M  V30 199 N 19.2153 -1.21501 -1.00376 0
M  V30 200 C 20.4623 -1.03299 -1.74171 0
M  V30 201 C 20.7903 0.433326 -1.89612 0
M  V30 202 O 20.0453 1.33779 -1.42834 0
M  V30 203 C 20.3443 -1.67673 -3.15627 0
M  V30 204 C 20.0103 -3.17533 -3.2013 0
M  V30 205 C 18.6723 -3.58427 -3.21067 0
M  V30 206 C 21.0243 -4.13504 -3.17275 0
M  V30 207 C 18.3523 -4.93794 -3.16835 0
M  V30 208 C 20.7043 -5.48834 -3.14585 0
M  V30 209 C 19.3683 -5.89123 -3.13831 0
M  V30 210 H 18.6383 -0.377999 -0.637336 0
M  V30 211 H 21.2853 -1.51111 -1.17634 0
M  V30 212 H 19.5903 -1.12158 -3.75404 0
M  V30 213 H 21.2873 -1.51091 -3.71446 0
M  V30 214 H 17.8773 -2.84965 -3.20145 0
M  V30 215 H 22.0613 -3.82936 -3.15711 0
M  V30 216 H 17.3173 -5.24255 -3.1459 0
M  V30 217 H 21.4913 -6.22934 -3.1133 0
M  V30 218 H 19.1183 -6.93984 -3.10307 0
M  V30 219 N 20.6934 1.19889 -1.02296 0
M  V30 220 C 21.9394 1.89701 -0.717033 0
M  V30 221 C 22.2724 1.7905 0.751989 0
M  V30 222 O 21.5474 1.17891 1.547 0
M  V30 223 C 21.8304 3.40858 -1.16136 0
M  V30 224 C 21.6834 3.60411 -2.69117 0
M  V30 225 C 23.0024 4.33876 -0.737549 0
M  V30 226 H 20.1214 0.688874 -0.261957 0
M  V30 227 H 22.7634 1.41154 -1.27183 0
M  V30 228 H 20.9134 3.82335 -0.689342 0
M  V30 229 H 22.5854 3.28145 -3.2422 0
M  V30 230 H 20.8284 3.03665 -3.0979 0
M  V30 231 H 21.4994 4.66396 -2.95261 0
M  V30 232 H 23.9754 4.00081 -1.14344 0
M  V30 233 H 22.8514 5.38242 -1.0764 0
M  V30 234 H 23.1124 4.40628 0.360436 0
M  V30 235 N 22.1715 0.800033 1.35784 0
M  V30 236 C 23.5875 0.482977 1.52117 0
M  V30 237 C 23.7875 -0.996948 1.75109 0
M  V30 238 O 22.8435 -1.78216 1.78872 0
M  V30 239 C 24.1565 1.32264 2.70049 0
M  V30 240 C 25.7045 1.31742 2.83924 0
M  V30 241 C 26.1795 2.14106 4.04874 0
M  V30 242 N 27.6705 2.11607 4.12039 0
M  V30 243 C 28.4055 2.72099 5.04727 0
M  V30 244 N 27.9015 3.41492 6.02789 0
M  V30 245 N 29.6945 2.61776 4.97423 0
M  V30 246 H 21.8455 1.75856 1.19115 0
M  V30 247 H 24.1085 0.748122 0.582252 0
M  V30 248 H 23.8145 2.37261 2.59616 0
M  V30 249 H 23.6885 0.971303 3.6448 0
M  V30 250 H 26.0755 0.275333 2.93813 0
M  V30 251 H 26.1565 1.70859 1.9037 0
M  V30 252 H 25.8005 3.18351 3.95746 0
M  V30 253 H 25.7305 1.72353 4.97596 0
M  V30 254 H 28.2215 1.61112 3.41835 0
M  V30 255 H 28.5345 3.84953 6.70098 0
M  V30 256 H 26.8795 3.45596 6.02983 0
M  V30 257 H 30.0705 2.07157 4.19766 0
M  V30 258 H 30.2435 3.0921 5.69468 0
M  V30 259 N 23.6496 -1.47581 0.552962 0
M  V30 260 C 24.6126 -2.28439 -0.186605 0
M  V30 261 C 25.6126 -1.36706 -0.84665 0
M  V30 262 O 26.8026 -1.59378 -0.703164 0
M  V30 263 C 23.9346 -3.16264 -1.2724 0
M  V30 264 H 25.1276 -2.95294 0.523609 0
M  V30 265 H 22.6806 -1.532 0.309745 0
M  V30 266 H 23.4156 -2.54091 -2.01514 0
M  V30 267 H 23.2006 -3.83769 -0.803968 0
M  V30 268 H 24.6906 -3.77198 -1.79196 0
M  V30 269 N 25.1277 -0.289203 -1.54924 0
M  V30 270 C 26.0577 0.58549 -2.2604 0
M  V30 271 C 27.0387 1.14753 -1.25562 0
M  V30 272 O 28.2237 1.17906 -1.54311 0
M  V30 273 C 25.3537 1.76305 -2.99222 0
M  V30 274 C 24.3077 1.33191 -4.06748 0
M  V30 275 C 23.6337 2.5937 -4.6758 0
M  V30 276 C 24.9337 0.471775 -5.20165 0
M  V30 277 H 26.6277 -0.00763532 -2.99399 0
M  V30 278 H 24.1737 -0.00511229 -1.43999 0
M  V30 279 H 26.1267 2.38097 -3.47689 0
M  V30 280 H 24.8507 2.38223 -2.23422 0
M  V30 281 H 23.5097 0.737121 -3.59113 0
M  V30 282 H 23.1577 3.19576 -3.88433 0
M  V30 283 H 22.8577 2.31228 -5.40192 0
M  V30 284 H 24.3817 3.21985 -5.18804 0
M  V30 285 H 25.7957 0.995056 -5.64599 0
M  V30 286 H 24.1927 0.284639 -5.99425 0
M  V30 287 H 25.2627 -0.506041 -4.82252 0
M  V30 288 N 26.6058 1.57591 -0.0167156 0
M  V30 289 C 27.5688 2.08393 0.954204 0
M  V30 290 C 28.5688 0.996531 1.26198 0
M  V30 291 O 29.7588 1.25858 1.20438 0
M  V30 292 C 26.8908 2.5394 2.27436 0
M  V30 293 H 28.0838 2.95455 0.514451 0
M  V30 294 H 25.6368 1.54582 0.231089 0
M  V30 295 H 26.3718 1.70171 2.76066 0
M  V30 296 H 26.1568 3.33371 2.06412 0
M  V30 297 H 27.6468 2.93512 2.97053 0
M  V30 298 N 28.0839 -0.256276 1.55502 0
M  V30 299 C 29.0469 -1.30047 1.88734 0
M  V30 300 C 30.0469 -1.4154 0.763086 0
M  V30 301 O 31.2369 -1.40403 1.03115 0
M  V30 302 C 28.3689 -2.67953 2.10747 0
M  V30 303 H 29.5619 -1.01802 2.82093 0
M  V30 304 H 27.1149 -0.495134 1.4825 0
M  V30 305 H 27.8499 -3.01351 1.19825 0
M  V30 306 H 27.6349 -2.60993 2.92617 0
M  V30 307 H 29.1249 -3.43368 2.37673 0
M  V30 308 N 29.562 -1.4872 -0.521534 0
M  V30 309 C 30.809 -1.57168 -1.27689 0
M  V30 310 C 31.137 -0.249275 -1.92896 0
M  V30 311 O 30.392 0.761162 -1.80291 0
M  V30 312 C 30.691 -2.66497 -2.38148 0
M  V30 313 C 30.357 -4.08664 -1.90538 0
M  V30 314 C 29.019 -4.47357 -1.77271 0
M  V30 315 C 31.371 -4.97724 -1.54663 0
M  V30 316 C 28.699 -5.72905 -1.26478 0
M  V30 317 C 31.051 -6.2377 -1.05329 0
M  V30 318 C 29.715 -6.61311 -0.906861 0
M  V30 319 H 28.985 -0.575117 -0.467249 0
M  V30 320 H 31.632 -1.82472 -0.581051 0
M  V30 321 H 29.937 -2.35085 -3.13437 0
M  V30 322 H 31.634 -2.70246 -2.96257 0
M  V30 323 H 28.224 -3.78111 -2.01816 0
M  V30 324 H 32.408 -4.68501 -1.63768 0
M  V30 325 H 27.664 -6.00709 -1.13835 0
M  V30 326 H 31.838 -6.9217 -0.76644 0
M  V30 327 H 29.465 -7.5848 -0.511083 0
M  V30 328 N 31.0401 0.771051 -1.3745 0
M  V30 329 C 31.9701 1.89827 -1.3597 0
M  V30 330 C 32.9511 1.68562 -0.228216 0
M  V30 331 O 34.1361 1.8941 -0.428675 0
M  V30 332 C 31.2661 3.2712 -1.16662 0
M  V30 333 C 30.2201 3.6295 -2.2683 0
M  V30 334 C 29.5461 4.98791 -1.92644 0
M  V30 335 C 30.8461 3.69627 -3.69017 0
M  V30 336 H 32.5401 1.91323 -2.30295 0
M  V30 337 H 30.0861 0.919082 -1.10855 0
M  V30 338 H 32.0391 4.05615 -1.14256 0
M  V30 339 H 30.7631 3.26059 -0.187926 0
M  V30 340 H 29.4221 2.86763 -2.28392 0
M  V30 341 H 29.0701 4.94271 -0.933021 0
M  V30 342 H 28.7701 5.23733 -2.66416 0
M  V30 343 H 30.2941 5.79685 -1.91826 0
M  V30 344 H 31.7081 4.38273 -3.69581 0
M  V30 345 H 30.1051 4.06067 -4.41848 0
M  V30 346 H 31.1751 2.70273 -4.02592 0
M  V30 347 N 32.5182 1.22032 0.997298 0
M  V30 348 C 33.4652 0.986467 2.08656 0
M  V30 349 C 34.4352 -0.0902671 1.65855 0
M  V30 350 O 35.6202 0.0584294 1.90711 0
M  V30 351 C 32.7602 0.565569 3.40434 0
M  V30 352 C 31.8732 1.71259 3.96604 0
M  V30 353 C 31.0082 1.24011 5.16522 0
M  V30 354 C 30.0472 2.35896 5.64818 0
M  V30 355 N 29.1842 1.89726 6.7598 0
M  V30 356 H 34.0242 1.91892 2.27994 0
M  V30 357 H 31.5612 0.956199 1.11782 0
M  V30 358 H 33.5192 0.302738 4.161 0
M  V30 359 H 32.1492 -0.329879 3.2111 0
M  V30 360 H 31.2012 2.08986 3.17851 0
M  V30 361 H 32.5132 2.55436 4.28432 0
M  V30 362 H 31.6672 0.934395 5.99461 0
M  V30 363 H 30.4062 0.368487 4.86306 0
M  V30 364 H 29.4112 2.67261 4.8047 0
M  V30 365 H 30.6362 3.23567 5.97061 0
M  V30 366 H 28.5822 1.0492 6.47555 0
M  V30 367 H 28.4992 2.67471 7.07103 0
M  V30 368 H 29.7672 1.62211 7.62435 0
M  V30 369 N 33.9963 -1.19345 1.0293 0
M  V30 370 C 34.9433 -2.2258 0.610464 0
M  V30 371 C 35.9133 -1.6179 -0.375946 0
M  V30 372 O 37.0983 -1.88844 -0.272511 0
M  V30 373 C 34.2383 -3.45085 -0.0321473 0
M  V30 374 C 33.3513 -4.20258 1.00035 0
M  V30 375 C 32.4863 -5.3019 0.32746 0
M  V30 376 C 31.5253 -5.97121 1.34584 0
M  V30 377 N 30.6623 -6.98615 0.698726 0
M  V30 378 H 35.5023 -2.57764 1.49538 0
M  V30 379 H 33.0393 -1.26644 0.748311 0
M  V30 380 H 34.9973 -4.15061 -0.421966 0
M  V30 381 H 33.6273 -3.10555 -0.88064 0
M  V30 382 H 32.6793 -3.49223 1.50823 0
M  V30 383 H 33.9913 -4.66175 1.77433 0
M  V30 384 H 33.1453 -6.06587 -0.11718 0
M  V30 385 H 31.8843 -4.85345 -0.478713 0
M  V30 386 H 30.8893 -5.19474 1.80074 0
M  V30 387 H 32.1143 -6.4405 2.15352 0
M  V30 388 H 30.0603 -6.55942 -0.0873471 0
M  V30 389 H 29.9773 -7.42724 1.41058 0
M  V30 390 H 31.2453 -7.79004 0.278102 0
M  V30 391 N 35.4744 -0.807222 -1.35358 0
M  V30 392 C 36.6994 -0.399309 -2.0352 0
M  V30 393 C 37.1244 0.981986 -1.60433 0
M  V30 394 O 36.4824 1.63601 -0.781299 0
M  V30 395 C 36.5304 -0.491552 -3.57234 0
M  V30 396 O 35.6344 0.494754 -4.09421 0
M  V30 397 H 34.9754 -0.166682 -0.642739 0
M  V30 398 H 37.5054 -1.09328 -1.72941 0
M  V30 399 H 37.5154 -0.361588 -4.06395 0
M  V30 400 H 36.1904 -1.49907 -3.87944 0
M  V30 401 H 34.7674 0.324977 -3.71481 0
M  V30 402 N 36.9525 1.47285 -0.560781 0
M  V30 403 C 38.2005 2.02064 -0.0379868 0
M  V30 404 C 38.5215 1.43711 1.31803 0
M  V30 405 O 37.7915 0.61362 1.86042 0
M  V30 406 H 36.3715 0.746918 -0.0110531 0
M  V30 407 H 39.0335 1.80648 -0.731598 0
M  V30 408 H 38.1295 3.12064 0.0474463 0
M  V30 409 N 38.4306 0.297415 1.54768 0
M  V30 410 C 39.3776 -0.580276 2.23386 0
M  V30 411 C 40.3476 -1.13238 1.21517 0
M  V30 412 O 41.5326 -1.17757 1.50126 0
M  V30 413 C 38.6726 -1.74801 2.97555 0
M  V30 414 C 37.7856 -1.22764 4.1419 0
M  V30 415 C 36.9206 -2.35895 4.75949 0
M  V30 416 C 35.9596 -1.80974 5.84735 0
M  V30 417 N 35.0966 -2.87664 6.40464 0
M  V30 418 H 39.9366 0.0114833 2.97998 0
M  V30 419 H 37.4736 0.0174361 1.4709 0
M  V30 420 H 39.4316 -2.43475 3.38786 0
M  V30 421 H 38.0616 -2.31145 2.25326 0
M  V30 422 H 37.1136 -0.433271 3.77924 0
M  V30 423 H 38.4256 -0.785551 4.92575 0
M  V30 424 H 37.5796 -3.12523 5.20014 0
M  V30 425 H 36.3186 -2.83429 3.96887 0
M  V30 426 H 35.3236 -1.02834 5.40097 0
M  V30 427 H 36.5486 -1.34348 6.65678 0
M  V30 428 H 34.4946 -3.34538 5.64287 0
M  V30 429 H 34.4116 -2.4794 7.14186 0
M  V30 430 H 35.6796 -3.642 6.89187 0
M  V30 431 N 39.9087 -1.5758 0.0250728 0
M  V30 432 C 40.8387 -2.13007 -0.956575 0
M  V30 433 C 41.8197 -1.0452 -1.342 0
M  V30 434 O 43.0047 -1.32332 -1.42133 0
M  V30 435 C 40.1347 -2.65386 -2.24026 0
M  V30 436 C 39.0887 -3.78623 -1.99571 0
M  V30 437 C 38.4147 -4.17414 -3.3417 0
M  V30 438 C 39.7147 -5.04867 -1.33814 0
M  V30 439 H 41.4087 -2.9528 -0.494991 0
M  V30 440 H 38.9547 -1.42042 -0.236651 0
M  V30 441 H 40.9077 -3.02794 -2.93076 0
M  V30 442 H 39.6317 -1.80268 -2.72343 0
M  V30 443 H 38.2907 -3.41646 -1.32941 0
M  V30 444 H 37.9387 -3.29284 -3.80238 0
M  V30 445 H 37.6387 -4.93719 -3.18615 0
M  V30 446 H 39.1627 -4.57402 -4.04495 0
M  V30 447 H 40.5767 -5.39888 -1.92857 0
M  V30 448 H 38.9737 -5.86144 -1.28669 0
M  V30 449 H 40.0437 -4.83904 -0.310561 0
M  V30 450 N 41.3868 0.248026 -1.55636 0
M  V30 451 C 42.3338 1.30707 -1.90222 0
M  V30 452 C 43.3038 1.47881 -0.756332 0
M  V30 453 O 44.4888 1.61883 -1.00988 0
M  V30 454 C 41.6288 2.65769 -2.20138 0
M  V30 455 C 40.7418 2.56612 -3.47526 0
M  V30 456 C 39.8768 3.8402 -3.67017 0
M  V30 457 C 38.9158 3.69476 -4.8801 0
M  V30 458 N 38.0528 4.88774 -5.04029 0
M  V30 459 H 42.8928 1.00512 -2.80538 0
M  V30 460 H 40.4298 0.485055 -1.38873 0
M  V30 461 H 42.3878 3.44386 -2.35487 0
M  V30 462 H 41.0178 2.94115 -1.33027 0
M  V30 463 H 40.0698 1.69571 -3.40514 0
M  V30 464 H 41.3818 2.41774 -4.36287 0
M  V30 465 H 40.5358 4.7108 -3.8232 0
M  V30 466 H 39.2748 4.01754 -2.76487 0
M  V30 467 H 38.2798 2.80799 -4.72686 0
M  V30 468 H 39.5048 3.53238 -5.8 0
M  V30 469 H 37.4508 5.0687 -4.16435 0
M  V30 470 H 37.3678 4.76562 -5.86877 0
M  V30 471 H 38.6358 5.77335 -5.23741 0
M  V30 472 N 42.8649 1.48995 0.513639 0
M  V30 473 C 44.1109 1.58076 1.27042 0
M  V30 474 C 44.4439 0.261026 1.92438 0
M  V30 475 O 43.7189 -0.734393 1.80103 0
M  V30 476 C 44.0019 2.73091 2.34719 0
M  V30 477 C 43.8549 4.14821 1.73907 0
M  V30 478 C 45.1739 2.83796 3.36375 0
M  V30 479 H 42.2929 0.575391 0.460536 0
M  V30 480 H 44.9349 1.81232 0.570516 0
M  V30 481 H 43.0849 2.53479 2.94416 0
M  V30 482 H 44.7569 4.45917 1.18135 0
M  V30 483 H 42.9999 4.21058 1.0437 0
M  V30 484 H 43.6709 4.91147 2.51949 0
M  V30 485 H 46.1469 3.01611 2.86653 0
M  V30 486 H 45.0229 3.65971 4.09093 0
M  V30 487 H 45.2839 1.92624 3.9793 0
M  V30 488 N 44.343 -0.763751 1.37857 0
M  V30 489 C 45.754 -1.3405 1.29952 0
M  V30 490 C 46.105 -1.96138 -0.0492898 0
M  V30 491 O 45.23 -1.94372 -0.951239 0
M  V30 492 C 45.825 -2.43729 2.35333 0
M  V30 493 C 44.384 -2.97151 2.31037 0
M  V30 494 C 43.531 -1.70438 2.18738 0
M  V30 495 H 46.482 -0.563396 1.48363 0
M  V30 496 H 46.503 -3.23412 2.00462 0
M  V30 497 H 46.015 -1.9851 3.33489 0
M  V30 498 H 44.116 -3.46724 1.3643 0
M  V30 499 H 44.229 -3.52221 3.24772 0
M  V30 500 H 42.593 -1.93673 1.65418 0
M  V30 501 H 43.376 -1.27312 3.18821 0
M  V30 502 N 45.8211 -1.22559 -0.990812 0
M  V30 503 C 46.7311 -1.01394 -2.11557 0
M  V30 504 C 47.7471 0.0383962 -1.73958 0
M  V30 505 O 48.9231 -0.154787 -2.00804 0
M  V30 506 C 45.9881 -0.596569 -3.41529 0
M  V30 507 C 45.0491 -1.72276 -3.93217 0
M  V30 508 C 44.2821 -1.32521 -5.16985 0
M  V30 509 O 44.5051 -0.204909 -5.70032 0
M  V30 510 O 43.4391 -2.14247 -5.62478 0
M  V30 511 H 47.2651 -1.95633 -2.32296 0
M  V30 512 H 44.8501 -1.01172 -1.0993 0
M  V30 513 H 46.7321 -0.374263 -4.19735 0
M  V30 514 H 45.4071 0.316939 -3.22145 0
M  V30 515 H 44.3141 -1.99961 -3.16174 0
M  V30 516 H 45.6471 -2.61421 -4.17037 0
M  V30 517 N 47.2992 1.18797 -1.03562 0
M  V30 518 C 48.5452 1.89192 -0.746867 0
M  V30 519 C 48.9002 1.78531 0.717245 0
M  V30 520 O 48.1932 1.17137 1.51622 0
M  V30 521 C 48.3872 3.38692 -1.14117 0
M  V30 522 C 48.2162 3.63902 -2.64207 0
M  V30 523 C 46.9862 3.81553 -3.31279 0
M  V30 524 C 49.1842 3.64903 -3.62423 0
M  V30 525 N 47.1662 3.94455 -4.70402 0
M  V30 526 C 48.5372 3.83458 -4.87196 0
M  V30 527 C 50.5922 3.47965 -3.56125 0
M  V30 528 C 49.2952 3.86829 -6.06429 0
M  V30 529 C 51.3212 3.52616 -4.7478 0
M  V30 530 C 50.6832 3.71663 -5.9837 0
M  V30 531 H 46.7822 0.711141 -0.325273 0
M  V30 532 H 49.3662 1.42727 -1.32428 0
M  V30 533 H 47.5372 3.83864 -0.591889 0
M  V30 534 H 49.2692 3.96634 -0.803966 0
M  V30 535 H 46.0242 3.80723 -2.81686 0
M  V30 536 H 46.4482 4.0474 -5.42692 0
M  V30 537 H 51.0902 3.32189 -2.61553 0
M  V30 538 H 48.8082 4.01395 -7.01362 0
M  V30 539 H 52.3942 3.40791 -4.71543 0
M  V30 540 H 51.2742 3.75145 -6.88648 0
M  V30 541 N 48.7773 0.814389 1.34928 0
M  V30 542 C 50.0233 0.399013 1.98836 0
M  V30 543 C 50.3563 -1.03314 1.64438 0
M  V30 544 O 49.6313 -1.71811 0.911659 0
M  V30 545 C 49.9143 0.591629 3.55207 0
M  V30 546 C 49.7673 2.06928 3.99376 0
M  V30 547 C 51.0863 0.022199 4.40094 0
M  V30 548 H 48.2053 0.146451 0.722303 0
M  V30 549 H 50.8473 1.02537 1.59957 0
M  V30 550 H 48.9973 0.0584441 3.88456 0
M  V30 551 H 50.6693 2.66544 3.76499 0
M  V30 552 H 48.9123 2.56287 3.49999 0
M  V30 553 H 49.5833 2.1549 5.08201 0
M  V30 554 H 52.0593 0.477643 4.13349 0
M  V30 555 H 50.9353 0.186832 5.48582 0
M  V30 556 H 51.1963 -1.07215 4.28902 0
M  V30 557 N 50.2554 -1.46986 0.568584 0
M  V30 558 C 51.5324 -1.95592 -0.0174074 0
M  V30 559 C 51.9124 -1.51124 -1.47393 0
M  V30 560 O 51.2604 -0.755329 -2.15655 0
M  V30 561 C 51.4704 -3.48719 0.139913 0
M  V30 562 C 52.8184 -4.246 0.000426376 0
M  V30 563 O 53.8424 -3.56135 0.0680316 0
M  V30 564 O 52.7014 -5.46302 -0.146988 0
M  V30 565 H 49.7954 -0.82498 -0.0577599 0
M  V30 566 H 52.3414 -1.57335 0.635909 0
M  V30 567 H 51.1134 -3.73927 1.15301 0
M  V30 568 H 50.7364 -3.93771 -0.550491 0
M  V30 569 N 51.7335 -0.305618 -1.54608 0
M  V30 570 C 52.9615 0.304775 -2.04643 0
M  V30 571 C 53.3765 1.47167 -1.18268 0
M  V30 572 O 52.7335 1.81296 -0.209328 0
M  V30 573 C 52.7845 0.756564 -3.53495 0
M  V30 574 O 52.5055 -0.36389 -4.36586 0
M  V30 575 C 54.0065 1.43163 -4.19546 0
M  V30 576 H 51.2265 0.0655481 -0.667791 0
M  V30 577 H 53.7705 -0.446592 -1.99564 0
M  V30 578 H 51.9255 1.45794 -3.58919 0
M  V30 579 H 52.3395 -0.0113121 -5.24499 0
M  V30 580 H 53.8135 1.69886 -5.25207 0
M  V30 581 H 54.2905 2.37318 -3.69563 0
M  V30 582 H 54.8965 0.773307 -4.18211 0
M  V30 583 N 53.2116 1.57565 -0.0334293 0
M  V30 584 C 54.4576 1.92262 0.645226 0
M  V30 585 C 54.7906 0.910543 1.71531 0
M  V30 586 O 54.0656 -0.066099 1.94388 0
M  V30 587 C 54.3486 3.37422 1.2577 0
M  V30 588 C 54.2016 4.49369 0.196891 0
M  V30 589 C 55.5206 3.82628 2.17449 0
M  V30 590 H 52.6396 0.699171 0.233085 0
M  V30 591 H 55.2816 1.89779 -0.0915694 0
M  V30 592 H 53.4316 3.39669 1.88566 0
M  V30 593 H 55.1036 4.59254 -0.433962 0
M  V30 594 H 53.3466 4.31168 -0.477137 0
M  V30 595 H 54.0176 5.47978 0.665124 0
M  V30 596 H 56.4936 3.82145 1.64634 0
M  V30 597 H 55.3696 4.84883 2.57254 0
M  V30 598 H 55.6306 3.18376 3.0674 0
M  V30 599 N 54.6897 -0.239769 1.55765 0
M  V30 600 C 55.6367 -1.29696 1.90913 0
M  V30 601 C 56.6067 -1.47478 0.764164 0
M  V30 602 O 57.7917 -1.61345 1.01845 0
M  V30 603 C 54.9317 -2.64598 2.21544 0
M  V30 604 C 54.0447 -2.54765 3.48882 0
M  V30 605 C 53.1797 -3.82069 3.69049 0
M  V30 606 C 52.2187 -3.66883 4.89963 0
M  V30 607 N 51.3557 -4.86094 5.06614 0
M  V30 608 H 56.1957 -0.990224 2.81067 0
M  V30 609 H 53.7327 -0.477684 1.39128 0
M  V30 610 H 55.6907 -3.43132 2.3731 0
M  V30 611 H 54.3207 -2.93405 1.34585 0
M  V30 612 H 53.3727 -1.67763 3.41409 0
M  V30 613 H 54.6847 -2.39457 4.37563 0
M  V30 614 H 53.8387 -4.69046 3.84812 0
M  V30 615 H 52.5777 -4.00282 2.78614 0
M  V30 616 H 51.5827 -2.78289 4.74168 0
M  V30 617 H 52.8077 -3.50157 5.81865 0
M  V30 618 H 50.7537 -5.04655 4.19117 0
M  V30 619 H 50.6707 -4.73443 5.89396 0
M  V30 620 H 51.9387 -5.74549 5.26795 0
M  V30 621 N 56.1678 -1.49265 -0.50573 0
M  V30 622 C 57.0978 -1.68495 -1.61653 0
M  V30 623 C 58.0788 -0.53366 -1.61512 0
M  V30 624 O 59.2638 -0.76897 -1.78327 0
M  V30 625 C 56.3938 -1.74709 -3.00157 0
M  V30 626 C 55.3478 -2.89581 -3.15162 0
M  V30 627 C 54.6738 -2.80903 -4.5497 0
M  V30 628 C 55.9738 -4.30578 -2.95634 0
M  V30 629 H 57.6678 -2.61493 -1.45814 0
M  V30 630 H 55.2138 -1.25838 -0.70005 0
M  V30 631 H 57.1668 -1.86748 -3.77761 0
M  V30 632 H 55.8908 -0.783067 -3.17074 0
M  V30 633 H 54.5498 -2.77136 -2.39982 0
M  V30 634 H 54.1978 -1.82419 -4.68756 0
M  V30 635 H 53.8978 -3.57999 -4.65951 0
M  V30 636 H 55.4218 -2.94944 -5.34641 0
M  V30 637 H 56.8358 -4.4373 -3.63011 0
M  V30 638 H 55.2328 -5.0886 -3.18091 0
M  V30 639 H 56.3028 -4.45352 -1.91806 0
M  V30 640 N 57.6459 0.756429 -1.3826 0
M  V30 641 C 58.6089 1.85176 -1.35065 0
M  V30 642 C 59.6089 1.58818 -0.251703 0
M  V30 643 O 60.7989 1.66615 -0.508433 0
M  V30 644 C 57.9309 3.22596 -1.10201 0
M  V30 645 H 59.1239 1.89417 -2.3251 0
M  V30 646 H 56.6769 0.95783 -1.23512 0
M  V30 647 H 57.4119 3.24025 -0.133504 0
M  V30 648 H 57.1969 3.43122 -1.89762 0
M  V30 649 H 58.6869 4.02673 -1.10654 0
M  V30 650 N 59.124 1.23083 0.984299 0
M  V30 651 C 60.071 1.00854 2.07598 0
M  V30 652 C 61.041 -0.0726709 1.65941 0
M  V30 653 O 62.226 0.0786535 1.90638 0
M  V30 654 C 59.366 0.601645 3.39815 0
M  V30 655 C 58.479 1.75456 3.94765 0
M  V30 656 C 57.614 1.29482 5.15177 0
M  V30 657 C 56.653 2.41873 5.62284 0
M  V30 658 N 55.79 1.96885 6.73929 0
M  V30 659 H 60.63 1.943 2.25946 0
M  V30 660 H 58.167 0.968001 1.10762 0
M  V30 661 H 60.125 0.346854 4.15756 0
M  V30 662 H 58.755 -0.295803 3.21442 0
M  V30 663 H 57.807 2.12346 3.15616 0
M  V30 664 H 59.119 2.59965 4.25699 0
M  V30 665 H 58.273 0.997923 5.98437 0
M  V30 666 H 57.012 0.420046 4.85888 0
M  V30 667 H 56.017 2.72342 4.77608 0
M  V30 668 H 57.242 3.29881 5.93595 0
M  V30 669 H 55.188 1.11782 6.46406 0
M  V30 670 H 55.105 2.74956 7.04227 0
M  V30 671 H 56.373 1.70289 7.60672 0
M  V30 672 N 60.6021 -1.18246 1.0419 0
M  V30 673 C 61.5521 -2.19843 0.604392 0
M  V30 674 C 62.5361 -1.56962 -0.353814 0
M  V30 675 O 63.7281 -1.76156 -0.17267 0
M  V30 676 C 60.8571 -3.43287 -0.0298975 0
M  V30 677 C 59.9431 -4.13288 0.951531 0
M  V30 678 N 60.3341 -4.59271 2.11906 0
M  V30 679 C 58.6321 -4.39165 0.7778 0
M  V30 680 C 59.3331 -5.13173 2.73912 0
M  V30 681 N 58.3091 -5.04763 2.01779 0
M  V30 682 H 62.1111 -2.53089 1.4941 0
M  V30 683 H 59.6251 -1.34465 0.910658 0
M  V30 684 H 61.6221 -4.15334 -0.361037 0
M  V30 685 H 60.2821 -3.11537 -0.915127 0
M  V30 686 H 61.2931 -4.5368 2.49789 0
M  V30 687 H 57.9701 -4.17461 -0.0572331 0
M  V30 688 H 59.3601 -5.58947 3.72864 0
M  V30 689 N 62.0802 -0.821533 -1.34494 0
M  V30 690 C 63.0272 -0.240397 -2.29545 0
M  V30 691 C 63.9972 0.634031 -1.53523 0
M  V30 692 O 65.1822 0.575966 -1.81899 0
M  V30 693 C 62.3222 0.592869 -3.39969 0
M  V30 694 C 61.4352 -0.30365 -4.30932 0
M  V30 695 C 60.5702 0.539049 -5.28458 0
M  V30 696 C 59.6092 -0.356942 -6.11058 0
M  V30 697 N 58.7462 0.446603 -7.00678 0
M  V30 698 H 63.5862 -1.05632 -2.7865 0
M  V30 699 H 61.1232 -0.532413 -1.37127 0
M  V30 700 H 63.0812 1.09129 -4.02675 0
M  V30 701 H 61.7112 1.37392 -2.92102 0
M  V30 702 H 60.7632 -0.920276 -3.691 0
M  V30 703 H 62.0752 -0.992661 -4.88823 0
M  V30 704 H 61.2292 1.102 -5.96608 0
M  V30 705 H 59.9682 1.26157 -4.71101 0
M  V30 706 H 58.9732 -0.932047 -5.41842 0
M  V30 707 H 60.1982 -1.07755 -6.70497 0
M  V30 708 H 58.1442 1.15282 -6.45791 0
M  V30 709 H 58.0612 -0.184048 -7.55776 0
M  V30 710 H 59.3292 0.992352 -7.73158 0
M  V30 711 N 63.5583 1.46682 -0.576371 0
M  V30 712 C 64.4683 2.34032 0.163141 0
M  V30 713 C 65.4843 1.49367 0.892501 0
M  V30 714 O 66.6603 1.82252 0.857106 0
M  V30 715 C 63.7253 3.26435 1.16795 0
M  V30 716 C 62.7863 4.26998 0.443944 0
M  V30 717 C 62.0193 5.14986 1.40088 0
M  V30 718 O 62.2423 5.05785 2.637 0
M  V30 719 O 61.1763 5.94906 0.914917 0
M  V30 720 H 65.0023 2.98607 -0.55388 0
M  V30 721 H 62.5873 1.45554 -0.336821 0
M  V30 722 H 64.4693 3.83459 1.74748 0
M  V30 723 H 63.1443 2.64465 1.86655 0
M  V30 724 H 62.0513 3.7368 -0.177271 0
M  V30 725 H 63.3843 4.91736 -0.213566 0
M  V30 726 N 65.0364 0.313813 1.54444 0
M  V30 727 C 65.9664 -0.549454 2.26943 0
M  V30 728 C 66.9474 -1.12741 1.27372 0
M  V30 729 O 68.1324 -1.15436 1.56167 0
M  V30 730 C 65.2624 -1.71523 3.01989 0
M  V30 731 C 64.2164 -1.26703 4.08816 0
M  V30 732 C 63.5424 -2.51898 4.71647 0
M  V30 733 C 64.8424 -0.388962 5.2085 0
M  V30 734 H 66.5364 0.0552661 2.99349 0
M  V30 735 H 64.0824 0.0280207 1.43973 0
M  V30 736 H 66.0354 -2.32535 3.51433 0
M  V30 737 H 64.7594 -2.34639 2.27183 0
M  V30 738 H 63.4184 -0.679896 3.6024 0
M  V30 739 H 63.0664 -3.13356 3.93468 0
M  V30 740 H 62.7664 -2.22605 5.43802 0
M  V30 741 H 64.2904 -3.1369 5.23861 0
M  V30 742 H 65.7044 -0.905107 5.6611 0
M  V30 743 H 64.1014 -0.18924 5.99802 0
M  V30 744 H 65.1714 0.582699 4.81386 0
M  V30 745 N 66.5145 -1.57545 0.0417849 0
M  V30 746 C 67.4775 -2.09885 -0.92093 0
M  V30 747 C 68.4775 -1.01648 -1.24596 0
M  V30 748 O 69.6675 -1.27759 -1.1842 0
M  V30 749 C 66.7995 -2.57527 -2.23367 0
M  V30 750 H 67.9925 -2.96236 -0.467382 0
M  V30 751 H 65.5455 -1.5493 -0.206467 0
M  V30 752 H 66.2805 -1.74542 -2.73323 0
M  V30 753 H 66.0655 -3.36613 -2.01083 0
M  V30 754 H 67.5555 -2.98201 -2.92346 0
M  V30 755 N 67.9926 0.231505 -1.5589 0
M  V30 756 C 69.4036 0.799327 -1.68724 0
M  V30 757 C 69.7546 1.85398 -0.642022 0
M  V30 758 O 68.8796 2.1539 0.208784 0
M  V30 759 C 69.4746 1.45664 -3.05888 0
M  V30 760 C 68.0336 1.97197 -3.20609 0
M  V30 761 C 67.1806 0.828552 -2.64632 0
M  V30 762 H 70.1316 0.00702616 -1.58698 0
M  V30 763 H 70.1526 2.32517 -3.01191 0
M  V30 764 H 69.6646 0.688808 -3.81939 0
M  V30 765 H 67.7656 2.76813 -2.4941 0
M  V30 766 H 67.8786 2.15878 -4.27707 0
M  V30 767 H 66.2426 1.23321 -2.22854 0
M  V30 768 H 67.0256 0.0735544 -3.43221 0
M  V30 769 N 69.4707 1.49531 0.497807 0
M  V30 770 C 70.7007 1.62657 1.27382 0
M  V30 771 C 71.1087 0.298488 1.86831 0
M  V30 772 O 70.4517 -0.72647 1.68725 0
M  V30 773 C 70.5137 2.6393 2.44093 0
M  V30 774 C 70.1777 4.08195 2.05489 0
M  V30 775 C 71.1747 4.949 1.59279 0
M  V30 776 C 68.8597 4.53948 2.15026 0
M  V30 777 C 70.8537 6.25397 1.23113 0
M  V30 778 C 68.5407 5.84458 1.78473 0
M  V30 779 C 69.5387 6.70006 1.32591 0
M  V30 780 O 69.2267 7.98083 0.965327 0
M  V30 781 H 68.9587 0.550429 0.392434 0
M  V30 782 H 71.5127 1.96325 0.603801 0
M  V30 783 H 69.7427 2.25449 3.14181 0
M  V30 784 H 71.4317 2.66552 3.06113 0
M  V30 785 H 72.1977 4.60779 1.51354 0
M  V30 786 H 68.0767 3.87525 2.4969 0
M  V30 787 H 71.6207 6.92125 0.872299 0
M  V30 788 H 67.5177 6.18107 1.86048 0
M  V30 789 H 68.2857 8.11122 1.09652 0
M  V30 790 N 70.9488 -0.749086 1.3866 0
M  V30 791 C 72.2258 -1.4992 1.25632 0
M  V30 792 C 72.6058 -2.10633 -0.140317 0
M  V30 793 O 71.9538 -1.97437 -1.15025 0
M  V30 794 C 72.1638 -2.56195 2.36992 0
M  V30 795 C 73.5118 -3.22972 2.75634 0
M  V30 796 O 74.5358 -2.66502 2.36337 0
M  V30 797 O 73.3948 -4.25122 3.43415 0
M  V30 798 H 70.4888 -0.665067 0.491544 0
M  V30 799 H 73.0348 -0.784113 1.50498 0
M  V30 800 H 71.8068 -2.09612 3.30422 0
M  V30 801 H 71.4298 -3.35279 2.13714 0
M  V30 802 N 72.4269 -1.23603 -0.977757 0
M  V30 803 C 73.3369 -1.03632 -2.1047 0
M  V30 804 C 74.3529 0.0199435 -1.73989 0
M  V30 805 O 75.5289 -0.176076 -2.00629 0
M  V30 806 C 72.5939 -0.63276 -3.40877 0
M  V30 807 C 71.6549 -1.76437 -3.91367 0
M  V30 808 C 70.8879 -1.37997 -5.15551 0
M  V30 809 O 71.1109 -0.265357 -5.69782 0
M  V30 810 O 70.0449 -2.20201 -5.60174 0
M  V30 811 H 73.8709 -1.98086 -2.30208 0
M  V30 812 H 71.4559 -1.02332 -1.08851 0
M  V30 813 H 73.3379 -0.418761 -4.19314 0
M  V30 814 H 72.0129 0.282754 -3.22463 0
M  V30 815 H 70.9199 -2.03304 -3.14036 0
M  V30 816 H 72.2529 -2.6583 -4.14241 0
M  V30 817 N 73.905 1.17692 -1.04816 0
M  V30 818 C 74.853 2.23632 -0.63966 0
M  V30 819 C 75.847 1.6601 0.337219 0
M  V30 820 O 77.053 1.78844 0.203693 0
M  V30 821 H 73.428 0.727949 -0.188665 0
M  V30 822 H 75.399 2.55387 -1.54337 0
M  V30 823 C 74.148 3.4769 -0.0264051 0
M  V30 824 H 73.471 3.92331 -0.769164 0
M  V30 825 H 74.911 4.23418 0.222098 0
M  V30 826 C 73.37 3.13807 1.22584 0
M  V30 827 O 73.9 3.28236 2.31569 0
M  V30 828 N 72.106 2.68065 1.12202 0
M  V30 829 H 71.653 2.56525 0.235133 0
M  V30 830 H 71.611 2.45767 1.96076 0
M  V30 831 N 75.3831 0.828654 1.34056 0
M  V30 832 C 76.6291 0.429279 1.98818 0
M  V30 833 C 76.9841 -0.998011 1.64492 0
M  V30 834 O 76.2771 -1.68652 0.909228 0
M  V30 835 C 76.4711 0.575226 3.52741 0
M  V30 836 C 76.3001 2.01515 4.02022 0
M  V30 837 C 75.0701 2.64825 4.30344 0
M  V30 838 C 77.2681 2.98261 4.18981 0
M  V30 839 N 75.2501 3.99998 4.65698 0
M  V30 840 C 76.6211 4.18356 4.57578 0
M  V30 841 C 78.6761 2.94802 4.01243 0
M  V30 842 C 77.3791 5.35454 4.80293 0
M  V30 843 C 79.4051 4.11121 4.25128 0
M  V30 844 C 78.7671 5.29969 4.64018 0
M  V30 845 H 74.8661 0.205304 0.754569 0
M  V30 846 H 77.4501 1.07457 1.62361 0
M  V30 847 H 75.6211 -0.0401962 3.88379 0
M  V30 848 H 77.3531 0.148292 4.04428 0
M  V30 849 H 74.1081 2.16027 4.21461 0
M  V30 850 H 74.5321 4.69653 4.87601 0
M  V30 851 H 79.1741 2.04054 3.70299 0
M  V30 852 H 76.8921 6.26755 5.10102 0
M  V30 853 H 80.4781 4.0985 4.12934 0
M  V30 854 H 79.3581 6.18479 4.82134 0
M  V30 855 N 76.8612 -1.46375 0.584142 0
M  V30 856 C 78.1082 -2.02378 0.0702675 0
M  V30 857 C 78.4362 -1.45545 -1.29023 0
M  V30 858 O 77.6912 -0.610967 -1.85918 0
M  V30 859 C 77.9902 -3.57373 -0.0439342 0
M  V30 860 C 77.6562 -4.33252 1.24915 0
M  V30 861 C 76.3182 -4.53701 1.60341 0
M  V30 862 C 78.6702 -4.7681 2.1048 0
M  V30 863 C 75.9982 -5.1496 2.81128 0
M  V30 864 C 78.3502 -5.39404 3.30494 0
M  V30 865 C 77.0142 -5.5808 3.66201 0
M  V30 866 H 76.2842 -0.740554 0.0257127 0
M  V30 867 H 78.9312 -1.75727 0.761065 0
M  V30 868 H 77.2362 -3.83169 -0.817869 0
M  V30 869 H 78.9332 -3.98384 -0.457318 0
M  V30 870 H 75.5232 -4.17633 0.963364 0
M  V30 871 H 79.7072 -4.60766 1.84414 0
M  V30 872 H 74.9632 -5.27611 3.08928 0
M  V30 873 H 79.1372 -5.72114 3.97063 0
M  V30 874 H 76.7642 -6.05318 4.59885 0
M  V30 875 N 78.3393 -0.321999 -1.54275 0
M  V30 876 C 79.5693 0.282642 -2.04658 0
M  V30 877 C 79.9773 1.46453 -1.19784 0
M  V30 878 O 79.3203 1.82367 -0.220932 0
M  V30 879 C 79.3823 0.781857 -3.50895 0
M  V30 880 C 79.0463 -0.277517 -4.56157 0
M  V30 881 C 80.0433 -1.11307 -5.07845 0
M  V30 882 C 77.7283 -0.425256 -5.00497 0
M  V30 883 C 79.7223 -2.08211 -6.02434 0
M  V30 884 C 77.4093 -1.39771 -5.94901 0
M  V30 885 C 78.4073 -2.2246 -6.45756 0
M  V30 886 O 78.0953 -3.18054 -7.38307 0
M  V30 887 H 77.8273 0.0622636 -0.673126 0
M  V30 888 H 80.3813 -0.465792 -2.00049 0
M  V30 889 H 78.6113 1.58118 -3.52896 0
M  V30 890 H 80.3003 1.30467 -3.84361 0
M  V30 891 H 81.0663 -1.00991 -4.74369 0
M  V30 892 H 76.9453 0.20847 -4.60528 0
M  V30 893 H 80.4893 -2.72791 -6.42052 0
M  V30 894 H 76.3863 -1.50152 -6.27794 0
M  V30 895 H 77.1543 -3.13275 -7.56175 0
M  V30 896 N 79.8174 1.5752 -0.0501392 0
M  V30 897 C 81.0454 1.96963 0.633492 0
M  V30 898 C 81.4604 0.927631 1.6444 0
M  V30 899 O 80.8174 -0.0882665 1.82286 0
M  V30 900 C 80.8684 3.36487 1.32132 0
M  V30 901 O 80.5894 4.36693 0.350894 0
M  V30 902 C 82.0904 3.90682 2.09481 0
M  V30 903 H 79.3104 0.648244 0.173266 0
M  V30 904 H 81.8544 2.0417 -0.116134 0
M  V30 905 H 80.0094 3.30434 2.02218 0
M  V30 906 H 80.4234 5.17702 0.841735 0
M  V30 907 H 81.8974 4.90591 2.5303 0
M  V30 908 H 82.3744 3.26053 2.94255 0
M  V30 909 H 82.9804 4.00069 1.44307 0
M  V30 910 N 81.2955 -0.223234 1.56011 0
M  V30 911 C 82.7115 -0.572856 1.48965 0
M  V30 912 C 82.9115 -1.87225 0.74492 0
M  V30 913 O 81.9675 -2.50899 0.283896 0
M  V30 914 C 83.2805 -0.653646 2.9351 0
M  V30 915 C 84.8285 -0.744386 3.0402 0
M  V30 916 C 85.3035 -0.856535 4.49919 0
M  V30 917 N 86.7945 -0.9208 4.53955 0
M  V30 918 C 87.5295 -1.02726 5.64123 0
M  V30 919 N 87.0255 -1.09777 6.84047 0
M  V30 920 N 88.8185 -1.06226 5.51971 0
M  V30 921 H 80.9695 0.629462 2.02858 0
M  V30 922 H 83.2325 0.220621 0.921971 0
M  V30 923 H 82.9385 0.231518 3.50937 0
M  V30 924 H 82.8125 -1.51781 3.45315 0
M  V30 925 H 85.1995 -1.61999 2.46658 0
M  V30 926 H 85.2805 0.14541 2.55386 0
M  V30 927 H 84.9245 0.0146069 5.07898 0
M  V30 928 H 84.8545 -1.76172 4.96257 0
M  V30 929 H 87.3455 -0.876694 3.6759 0
M  V30 930 H 87.6585 -1.17872 7.63758 0
M  V30 931 H 86.0035 -1.06693 6.86762 0
M  V30 932 H 89.1945 -1.00382 4.5721 0
M  V30 933 H 89.3675 -1.14177 6.37862 0
M  V30 934 N 82.7736 -1.49793 -0.48987 0
M  V30 935 C 83.7366 -1.66752 -1.57246 0
M  V30 936 C 84.7366 -0.538867 -1.51502 0
M  V30 937 O 85.9266 -0.805545 -1.54456 0
M  V30 938 C 83.0586 -1.67528 -2.96896 0
M  V30 939 H 84.2516 -2.63321 -1.43534 0
M  V30 940 H 81.8046 -1.38992 -0.714914 0
M  V30 941 H 82.5396 -0.725837 -3.16073 0
M  V30 942 H 82.3246 -2.49504 -3.02473 0
M  V30 943 H 83.8146 -1.82667 -3.7553 0
M  V30 944 N 84.2517 0.741722 -1.39055 0
M  V30 945 C 85.2147 1.83733 -1.37021 0
M  V30 946 C 86.2147 1.58542 -0.268534 0
M  V30 947 O 87.4047 1.66067 -0.526076 0
M  V30 948 C 84.5367 3.2141 -1.13617 0
M  V30 949 H 85.7297 1.86941 -2.34506 0
M  V30 950 H 83.2827 0.944676 -1.24521 0
M  V30 951 H 84.0177 3.23865 -0.167863 0
M  V30 952 H 83.8027 3.4109 -1.93391 0
M  V30 953 H 85.2927 4.01477 -1.14918 0
M  V30 954 N 85.7298 1.2412 0.971189 0
M  V30 955 C 86.9548 1.10667 1.75407 0
M  V30 956 C 87.3798 -0.337048 1.85056 0
M  V30 957 O 86.7378 -1.24396 1.31892 0
M  V30 958 C 86.7858 1.74726 3.15441 0
M  V30 959 O 85.8898 1.01566 3.99697 0
M  V30 960 H 85.2308 0.387341 0.539317 0
M  V30 961 H 87.7608 1.64358 1.2185 0
M  V30 962 H 87.7708 1.80341 3.6598 0
M  V30 963 H 86.4458 2.79773 3.07734 0
M  V30 964 H 85.0228 1.03713 3.58187 0
M  V30 965 N 87.2079 -1.17134 1.05439 0
M  V30 966 C 88.4359 -1.91372 0.786414 0
M  V30 967 C 88.8509 -1.76955 -0.658202 0
M  V30 968 O 88.2079 -1.10838 -1.44987 0
M  V30 969 C 88.2589 -3.42356 1.1608 0
M  V30 970 O 87.9799 -3.56332 2.54871 0
M  V30 971 C 89.4809 -4.33663 0.919322 0
M  V30 972 H 86.7009 -0.607118 0.285743 0
M  V30 973 H 89.2449 -1.48525 1.40572 0
M  V30 974 H 87.3999 -3.82939 0.586191 0
M  V30 975 H 87.8139 -4.49896 2.69618 0
M  V30 976 H 89.2879 -5.38099 1.231 0
M  V30 977 H 89.7649 -4.38959 -0.145359 0
M  V30 978 H 90.3709 -3.98796 1.47789 0
M  V30 979 N 88.686 -0.835752 -1.33615 0
M  V30 980 C 89.649 -0.272 -2.2758 0
M  V30 981 C 90.649 0.557487 -1.50827 0
M  V30 982 O 91.839 0.37173 -1.70188 0
M  V30 983 C 88.971 0.617173 -3.35267 0
M  V30 984 H 90.164 -1.10111 -2.78954 0
M  V30 985 H 87.717 -0.608594 -1.43965 0
M  V30 986 H 88.452 1.46884 -2.89129 0
M  V30 987 H 88.237 0.0237066 -3.92093 0
M  V30 988 H 89.727 1.005 -4.05326 0
M  V30 989 N 90.1641 1.46063 -0.591896 0
M  V30 990 C 91.5801 1.57561 -0.254288 0
M  V30 991 C 91.7801 1.58565 1.24336 0
M  V30 992 O 90.8361 1.50753 2.02558 0
M  V30 993 C 92.1491 2.86549 -0.911611 0
M  V30 994 C 93.6971 3.00197 -0.886059 0
M  V30 995 C 94.1721 4.31933 -1.5231 0
M  V30 996 N 95.6631 4.38654 -1.48786 0
M  V30 997 C 96.3981 5.39222 -1.95006 0
M  V30 998 N 95.8941 6.46414 -2.49241 0
M  V30 999 N 97.6871 5.3048 -1.85868 0
M  V30 1000 H 89.8381 1.43655 -1.56451 0
M  V30 1001 H 92.1011 0.68583 -0.654478 0
M  V30 1002 H 91.8071 2.91651 -1.96551 0
M  V30 1003 H 91.6811 3.74794 -0.425368 0
M  V30 1004 H 94.0681 2.9467 0.159246 0
M  V30 1005 H 94.1491 2.13403 -1.41041 0
M  V30 1006 H 93.7931 4.38217 -2.56765 0
M  V30 1007 H 93.7231 5.17516 -0.973891 0
M  V30 1008 H 96.2141 3.61793 -1.09151 0
M  V30 1009 H 96.5271 7.19376 -2.82344 0
M  V30 1010 H 94.8721 6.47208 -2.53272 0
M  V30 1011 H 98.0631 4.45643 -1.43248 0
M  V30 1012 H 98.2361 6.08711 -2.22204 0
M  V30 1013 N 91.6422 0.330177 1.54103 0
M  V30 1014 C 92.5922 -0.548456 2.21305 0
M  V30 1015 C 93.5762 -1.07651 1.19583 0
M  V30 1016 O 94.7682 -1.01243 1.45186 0
M  V30 1017 C 91.8972 -1.70559 2.97934 0
M  V30 1018 C 90.9832 -1.19212 4.07 0
M  V30 1019 N 91.3742 -0.398831 5.04225 0
M  V30 1020 C 89.6722 -1.47024 4.2107 0
M  V30 1021 C 90.3732 -0.121761 5.81573 0
M  V30 1022 N 89.3492 -0.709722 5.38947 0
M  V30 1023 H 93.1512 0.0648483 2.93828 0
M  V30 1024 H 90.6652 0.136363 1.61826 0
M  V30 1025 H 92.6622 -2.34688 3.44568 0
M  V30 1026 H 91.3222 -2.32231 2.26934 0
M  V30 1027 H 92.3332 -0.0410869 5.17884 0
M  V30 1028 H 89.0102 -2.09232 3.61287 0
M  V30 1029 H 90.4002 0.517298 6.69906 0
M  V30 1030 N 93.1203 -1.57491 0.0584922 0
M  V30 1031 C 94.0503 -2.14988 -0.911178 0
M  V30 1032 C 95.0313 -1.07343 -1.31952 0
M  V30 1033 O 96.2163 -1.35318 -1.39294 0
M  V30 1034 C 93.3463 -2.70078 -2.18347 0
M  V30 1035 C 92.3003 -3.82771 -1.91495 0
M  V30 1036 C 91.6263 -4.24408 -3.25241 0
M  V30 1037 C 92.9263 -5.07592 -1.23075 0
M  V30 1038 H 94.6203 -2.96263 -0.432246 0
M  V30 1039 H 92.1663 -1.42512 -0.206469 0
M  V30 1040 H 94.1193 -3.08943 -2.86587 0
M  V30 1041 H 92.8433 -1.86005 -2.68458 0
M  V30 1042 H 91.5023 -3.44389 -1.25664 0
M  V30 1043 H 91.1503 -3.37275 -3.73168 0
M  V30 1044 H 90.8503 -5.00366 -3.08071 0
M  V30 1045 H 92.3743 -4.65879 -3.94701 0
M  V30 1046 H 93.7883 -5.43857 -1.81362 0
M  V30 1047 H 92.1853 -5.88741 -1.16207 0
M  V30 1048 H 93.2553 -4.84454 -0.207847 0
M  V30 1049 N 94.5984 0.214957 -1.56127 0
M  V30 1050 C 95.8284 0.953707 -1.8327 0
M  V30 1051 C 96.2364 1.78181 -0.636262 0
M  V30 1052 O 95.5794 1.79191 0.404516 0
M  V30 1053 C 95.6414 1.91516 -3.0424 0
M  V30 1054 C 95.3054 1.27094 -4.38972 0
M  V30 1055 C 96.3024 0.657575 -5.15725 0
M  V30 1056 C 93.9874 1.28073 -4.85698 0
M  V30 1057 C 95.9814 0.0625968 -6.37369 0
M  V30 1058 C 93.6684 0.681914 -6.07283 0
M  V30 1059 C 94.6664 0.0739046 -6.8296 0
M  V30 1060 O 94.3544 -0.515582 -8.02245 0
M  V30 1061 H 94.0864 0.284764 -0.613095 0
M  V30 1062 H 96.6404 0.233283 -2.04071 0
M  V30 1063 H 94.8704 2.67475 -2.79274 0
M  V30 1064 H 96.5594 2.52001 -3.18198 0
M  V30 1065 H 97.3254 0.642288 -4.80728 0
M  V30 1066 H 93.2044 1.74337 -4.26764 0
M  V30 1067 H 96.7484 -0.412593 -6.96379 0
M  V30 1068 H 92.6454 0.694636 -6.41752 0
M  V30 1069 H 93.4134 -0.410544 -8.1747 0
M  V30 1070 N 96.0765 1.50051 0.48192 0
M  V30 1071 C 97.0065 1.71046 1.58951 0
M  V30 1072 C 97.9875 0.559288 1.60642 0
M  V30 1073 O 99.1725 0.797243 1.77081 0
M  V30 1074 C 96.3025 1.79462 2.97339 0
M  V30 1075 C 95.2565 2.94558 3.10515 0
M  V30 1076 C 94.5825 2.88105 4.50444 0
M  V30 1077 C 95.8825 4.35227 2.88747 0
M  V30 1078 H 97.5765 2.6378 1.41635 0
M  V30 1079 H 95.1225 1.26936 0.679942 0
M  V30 1080 H 97.0755 1.92734 3.74742 0
M  V30 1081 H 95.7995 0.833412 3.15788 0
M  V30 1082 H 94.4585 2.80918 2.35543 0
M  V30 1083 H 94.1065 1.89853 4.65795 0
M  V30 1084 H 93.8065 3.65366 4.60197 0
M  V30 1085 H 95.3305 3.03412 5.29881 0
M  V30 1086 H 96.7445 4.49449 3.55905 0
M  V30 1087 H 95.1415 5.13856 3.09955 0
M  V30 1088 H 96.2115 4.48347 1.84696 0
M  V30 1089 N 97.5546 -0.734337 1.39446 0
M  V30 1090 C 98.9706 -1.03997 1.21065 0
M  V30 1091 C 99.1706 -2.01369 0.0727019 0
M  V30 1092 O 98.2266 -2.45856 -0.575426 0
M  V30 1093 C 99.5396 -1.60163 2.54496 0
M  V30 1094 C 101.088 -1.7224 2.61347 0
M  V30 1095 C 101.563 -2.31814 3.95002 0
M  V30 1096 N 103.054 -2.39223 3.96644 0
M  V30 1097 C 103.789 -2.86258 4.96834 0
M  V30 1098 N 103.285 -3.33184 6.07421 0
M  V30 1099 N 105.078 -2.85473 4.84213 0
M  V30 1100 H 97.2286 -0.0885624 2.12215 0
M  V30 1101 H 99.4916 -0.10191 0.942506 0
M  V30 1102 H 99.1976 -0.960811 3.38321 0
M  V30 1103 H 99.0716 -2.5896 2.74262 0
M  V30 1104 H 101.459 -2.35443 1.77906 0
M  V30 1105 H 101.54 -0.720939 2.4543 0
M  V30 1106 H 101.184 -1.69238 4.78875 0
M  V30 1107 H 101.114 -3.32638 4.08239 0
M  V30 1108 H 103.605 -2.06057 3.16779 0
M  V30 1109 H 103.918 -3.67586 6.7978 0
M  V30 1110 H 102.263 -3.31191 6.11013 0
M  V30 1111 H 105.454 -2.48136 3.96921 0
M  V30 1112 H 105.627 -3.21814 5.62441 0
M  V30 1113 N 99.0327 -1.24633 -0.964593 0
M  V30 1114 C 100.281 -1.08573 -1.70459 0
M  V30 1115 C 100.602 0.375655 -1.91347 0
M  V30 1116 O 99.8717 1.26779 -1.49345 0
M  V30 1117 H 98.4517 -0.398784 -0.631649 0
M  V30 1118 H 101.114 -1.56601 -1.16026 0
M  V30 1119 H 100.21 -1.58623 -2.68785 0
M  V30 1120 N 100.511 1.16574 -1.06058 0
M  V30 1121 C 101.759 1.86677 -0.77434 0
M  V30 1122 C 102.08 1.81959 0.701147 0
M  V30 1123 O 101.35 1.2515 1.50713 0
M  V30 1124 H 99.9298 0.691134 -0.283449 0
M  V30 1125 H 102.592 1.41378 -1.34158 0
M  V30 1126 H 101.688 2.92181 -1.09711 0
M  V30 1127 N 101.989 0.842826 1.3317 0
M  V30 1128 C 102.952 0.284065 2.27433 0
M  V30 1129 C 103.952 -0.54948 1.5112 0
M  V30 1130 O 105.142 -0.362699 1.70382 0
M  V30 1131 C 102.274 -0.599384 3.35589 0
M  V30 1132 H 103.467 1.11589 2.78366 0
M  V30 1133 H 101.02 0.616221 1.4364 0
M  V30 1134 H 101.755 -1.45349 2.89904 0
M  V30 1135 H 101.54 -0.00291266 3.921 0
M  V30 1136 H 103.03 -0.983488 4.05854 0
M  V30 1137 N 103.467 -1.45747 0.599634 0
M  V30 1138 C 104.715 -2.01893 0.0915472 0
M  V30 1139 C 105.036 -1.47155 -1.27946 0
M  V30 1140 O 104.306 -0.66273 -1.84349 0
M  V30 1141 H 102.886 -0.746363 0.0308524 0
M  V30 1142 H 105.548 -1.78645 0.779237 0
M  V30 1143 H 104.644 -3.1208 0.0353086 0
M  V30 1144 N 104.945 -0.338344 -1.53925 0
M  V30 1145 C 106.191 0.260143 -2.01125 0
M  V30 1146 C 106.524 1.50617 -1.22589 0
M  V30 1147 O 105.799 1.91979 -0.312113 0
M  V30 1148 C 106.082 0.579499 -3.55407 0
M  V30 1149 C 105.935 -0.678264 -4.44657 0
M  V30 1150 C 107.254 1.39122 -4.17532 0
M  V30 1151 H 104.373 0.0930772 -0.731099 0
M  V30 1152 H 107.015 -0.457852 -1.84401 0
M  V30 1153 H 105.165 1.19118 -3.69788 0
M  V30 1154 H 106.837 -1.31631 -4.42121 0
M  V30 1155 H 105.08 -1.3042 -4.13731 0
M  V30 1156 H 105.751 -0.410143 -5.50474 0
M  V30 1157 H 108.227 0.874035 -4.06817 0
M  V30 1158 H 107.103 1.58342 -5.25565 0
M  V30 1159 H 107.364 2.39178 -3.71815 0
M  V30 1160 N 106.423 1.57458 -0.0668435 0
M  V30 1161 C 107.671 1.92919 0.602214 0
M  V30 1162 C 107.992 0.947215 1.70449 0
M  V30 1163 O 107.262 -0.00544117 1.95899 0
M  V30 1164 H 105.842 0.71217 0.22544 0
M  V30 1165 H 108.504 1.94508 -0.123535 0
M  V30 1166 H 107.6 2.94589 1.03073 0
M  V30 1167 N 107.901 -0.206675 1.56239 0
M  V30 1168 C 109.126 -0.949474 1.8439 0
M  V30 1169 C 109.551 -1.76549 0.649016 0
M  V30 1170 O 108.909 -1.76782 -0.402231 0
M  V30 1171 C 108.957 -1.83078 3.10668 0
M  V30 1172 O 108.061 -2.9281 2.90407 0
M  V30 1173 H 107.402 -0.268033 0.607499 0
M  V30 1174 H 109.932 -0.215488 2.03462 0
M  V30 1175 H 109.942 -2.2377 3.41161 0
M  V30 1176 H 108.617 -1.23112 3.97261 0
M  V30 1177 H 107.194 -2.55956 2.71184 0
M  V30 1178 N 109.379 -1.50304 -0.473955 0
M  V30 1179 C 110.312 -1.63595 -1.59097 0
M  V30 1180 C 111.29 -0.484142 -1.55225 0
M  V30 1181 O 112.474 -0.703271 -1.7489 0
M  V30 1182 C 109.601 -1.61589 -2.97669 0
M  V30 1183 C 108.647 -2.82295 -3.19705 0
M  V30 1184 S 109.48 -4.43635 -2.99913 0
M  V30 1185 C 110.636 -4.44317 -4.40832 0
M  V30 1186 H 110.869 -2.58082 -1.47583 0
M  V30 1187 H 108.402 -1.39531 -0.661087 0
M  V30 1188 H 110.36 -1.61116 -3.7756 0
M  V30 1189 H 109.021 -0.683421 -3.06575 0
M  V30 1190 H 108.214 -2.77188 -4.20931 0
M  V30 1191 H 107.816 -2.8032 -2.47582 0
M  V30 1192 H 110.108 -4.17703 -5.33414 0
M  V30 1193 H 111.051 -5.45911 -4.50984 0
M  V30 1194 H 111.459 -3.74059 -4.22777 0
M  V30 1195 N 110.857 0.726932 -1.39834 0
M  V30 1196 C 112.085 1.51613 -1.40787 0
M  V30 1197 C 112.5 1.88799 -0.00451505 0
M  V30 1198 O 111.857 1.54662 0.968809 0
M  V30 1199 C 111.908 2.79863 -2.28821 0
M  V30 1200 O 111.629 2.44253 -3.63692 0
M  V30 1201 C 113.13 3.73837 -2.38245 0
M  V30 1202 H 110.35 0.468264 -0.480593 0
M  V30 1203 H 112.894 0.897607 -1.83748 0
M  V30 1204 H 111.049 3.38027 -1.89252 0
M  V30 1205 H 111.463 3.26695 -4.1033 0
M  V30 1206 H 112.937 4.60699 -3.04073 0
M  V30 1207 H 113.414 4.16153 -1.40403 0
M  V30 1208 H 114.02 3.21589 -2.78317 0
M  V30 1209 N 112.336 1.25143 0.95797 0
M  V30 1210 C 113.283 1.05235 2.05412 0
M  V30 1211 C 114.253 -0.0374561 1.66058 0
M  V30 1212 O 115.438 0.119073 1.90428 0
M  V30 1213 C 112.578 0.673589 3.38462 0
M  V30 1214 C 111.691 1.8379 3.90954 0
M  V30 1215 C 110.826 1.40381 5.12315 0
M  V30 1216 C 109.865 2.53746 5.57027 0
M  V30 1217 N 109.002 2.11136 6.69601 0
M  V30 1218 H 113.842 1.99048 2.21774 0
M  V30 1219 H 111.379 0.991277 1.08683 0
M  V30 1220 H 113.337 0.434964 4.14926 0
M  V30 1221 H 111.967 -0.227554 3.21997 0
M  V30 1222 H 111.019 2.18992 3.11041 0
M  V30 1223 H 112.331 2.68937 4.20089 0
M  V30 1224 H 111.485 1.12464 5.96185 0
M  V30 1225 H 110.224 0.523015 4.84887 0
M  V30 1226 H 109.229 2.82412 4.71724 0
M  V30 1227 H 110.454 3.42398 5.86464 0
M  V30 1228 H 108.4 1.25468 6.4389 0
M  V30 1229 H 108.317 2.89832 6.98236 0
M  V30 1230 H 109.585 1.86385 7.56889 0
M  V30 1231 N 113.814 -1.1601 1.06675 0
M  V30 1232 C 115.063 -1.85973 0.780818 0
M  V30 1233 C 115.376 -1.82819 -0.695444 0
M  V30 1234 O 116.582 -2.484 -1.09589 0
M  V30 1235 C 115.038 -3.33757 1.34665 0
M  V30 1236 C 114.646 -3.45374 2.85343 0
M  V30 1237 C 116.39 -4.0895 1.13843 0
M  V30 1238 C 114.297 -4.87266 3.35151 0
M  V30 1239 H 113.227 -0.696661 0.288407 0
M  V30 1240 H 115.878 -1.30903 1.28595 0
M  V30 1241 H 114.26 -3.88456 0.769274 0
M  V30 1242 H 115.434 -3.00816 3.49065 0
M  V30 1243 H 113.749 -2.83619 3.04876 0
M  V30 1244 H 116.346 -5.13654 1.4854 0
M  V30 1245 H 116.689 -4.16229 0.0770282 0
M  V30 1246 H 117.222 -3.605 1.68179 0
M  V30 1247 H 113.961 -4.85168 4.40786 0
M  V30 1248 H 113.481 -5.32433 2.76179 0
M  V30 1249 H 115.16 -5.56097 3.30704 0
M  V30 1250 N 115.292 -0.849877 -1.32721 0
M  V30 1251 C 116.522 -0.46408 -2.0132 0
M  V30 1252 C 116.93 0.94246 -1.64056 0
M  V30 1253 O 116.273 1.6257 -0.855379 0
M  V30 1254 C 116.335 -0.517887 -3.5575 0
M  V30 1255 C 115.999 -1.88248 -4.16427 0
M  V30 1256 C 116.996 -2.84726 -4.35002 0
M  V30 1257 C 114.681 -2.17832 -4.52609 0
M  V30 1258 C 116.675 -4.08945 -4.8892 0
M  V30 1259 C 114.362 -3.42304 -5.06232 0
M  V30 1260 C 115.36 -4.37677 -5.24335 0
M  V30 1261 O 115.048 -5.59946 -5.76815 0
M  V30 1262 H 114.78 -0.181327 -0.651227 0
M  V30 1263 H 117.334 -1.14713 -1.70382 0
M  V30 1264 H 115.564 0.221997 -3.86062 0
M  V30 1265 H 117.253 -0.148366 -4.05629 0
M  V30 1266 H 118.019 -2.63174 -4.07388 0
M  V30 1267 H 113.898 -1.44385 -4.37806 0
M  V30 1268 H 117.442 -4.83396 -5.02966 0
M  V30 1269 H 113.339 -3.63709 -5.33278 0
M  V30 1270 H 114.107 -5.61838 -5.95214 0
M  V30 1271 N 116.77 1.45427 -0.607355 0
M  V30 1272 C 118.018 2.01841 -0.102253 0
M  V30 1273 C 118.339 1.47832 1.27164 0
M  V30 1274 O 117.609 0.672497 1.83995 0
M  V30 1275 H 116.189 0.746188 -0.0348101 0
M  V30 1276 H 118.851 1.78229 -0.7887 0
M  V30 1277 H 117.947 3.12057 -0.0518585 0
M  V30 1278 N 118.248 0.346503 1.53744 0
M  V30 1279 C 119.496 -0.248612 2.00565 0
M  V30 1280 C 119.817 -1.5083 1.23593 0
M  V30 1281 O 119.087 -1.92858 0.343912 0
M  V30 1282 H 117.667 -0.0948564 0.740953 0
M  V30 1283 H 120.329 0.468341 1.89189 0
M  V30 1284 H 119.425 -0.488994 3.08245 0
M  V30 1285 N 119.726 -1.57421 0.075193 0
M  V30 1286 C 121.142 -1.57099 -0.281444 0
M  V30 1287 C 121.342 -1.08486 -1.69803 0
M  V30 1288 O 120.398 -0.752279 -2.41033 0
M  V30 1289 C 121.711 -3.00571 -0.0880041 0
M  V30 1290 C 123.259 -3.12605 -0.157281 0
M  V30 1291 C 123.734 -4.57999 0.0079207 0
M  V30 1292 N 125.225 -4.63176 -0.0475725 0
M  V30 1293 C 125.96 -5.73373 0.0557876 0
M  V30 1294 N 125.456 -6.92473 0.21286 0
M  V30 1295 N 127.249 -5.621 -0.00152098 0
M  V30 1296 H 119.4 -1.87335 1.00098 0
M  V30 1297 H 121.663 -0.86377 0.390646 0
M  V30 1298 H 121.369 -3.40262 0.889629 0
M  V30 1299 H 121.243 -3.67754 -0.838875 0
M  V30 1300 H 123.63 -2.72798 -1.1254 0
M  V30 1301 H 123.711 -2.48053 0.62475 0
M  V30 1302 H 123.355 -4.98496 0.972824 0
M  V30 1303 H 123.285 -5.20586 -0.793556 0
M  V30 1304 H 125.776 -3.7753 -0.167244 0
M  V30 1305 H 126.089 -7.72279 0.283781 0
M  V30 1306 H 124.434 -6.94556 0.248267 0
M  V30 1307 H 127.625 -4.67938 -0.122958 0
M  V30 1308 H 127.798 -6.47948 0.0824844 0
M  V30 1309 N 121.204 0.198386 -1.56346 0
M  V30 1310 C 122.136 1.26987 -1.90806 0
M  V30 1311 C 123.149 1.41877 -0.798419 0
M  V30 1312 O 124.338 1.42362 -1.07682 0
M  V30 1313 C 121.438 2.64246 -2.12196 0
M  V30 1314 C 120.611 2.71007 -3.43328 0
M  V30 1315 C 119.67 3.89439 -3.5387 0
M  V30 1316 O 118.696 3.76695 -4.26719 0
M  V30 1317 N 119.898 5.04752 -2.86715 0
M  V30 1318 H 122.663 0.977433 -2.83313 0
M  V30 1319 H 120.224 0.388322 -1.57174 0
M  V30 1320 H 122.216 3.41896 -2.1654 0
M  V30 1321 H 120.786 2.85992 -1.26204 0
M  V30 1322 H 120.006 1.79657 -3.50881 0
M  V30 1323 H 121.294 2.72512 -4.29668 0
M  V30 1324 H 120.692 5.18004 -2.2735 0
M  V30 1325 H 119.249 5.8036 -2.96691 0
M  V30 1326 N 122.682 1.50554 0.465978 0
M  V30 1327 C 124.098 1.38093 0.800154 0
M  V30 1328 C 124.298 0.440988 1.96615 0
M  V30 1329 O 123.354 -0.114499 2.5224 0
M  V30 1330 C 124.667 2.79565 1.10742 0
M  V30 1331 C 126.215 2.88516 1.21357 0
M  V30 1332 C 126.69 4.30833 1.55393 0
M  V30 1333 N 128.181 4.33807 1.62375 0
M  V30 1334 C 128.916 5.40927 1.90225 0
M  V30 1335 N 128.412 6.58247 2.16062 0
M  V30 1336 N 130.205 5.28376 1.9177 0
M  V30 1337 H 122.356 2.10237 -0.302366 0
M  V30 1338 H 124.619 0.945203 -0.0727746 0
M  V30 1339 H 124.325 3.50208 0.323661 0
M  V30 1340 H 124.199 3.17125 2.04234 0
M  V30 1341 H 126.586 2.1809 1.98799 0
M  V30 1342 H 126.667 2.54492 0.258321 0
M  V30 1343 H 126.311 5.01799 0.784889 0
M  V30 1344 H 126.241 4.62347 2.52076 0
M  V30 1345 H 128.732 3.49212 1.44427 0
M  V30 1346 H 129.045 7.3569 2.36601 0
M  V30 1347 H 127.39 6.61413 2.13444 0
M  V30 1348 H 130.581 4.35715 1.71085 0
M  V30 1349 H 130.754 6.11944 2.13139 0
M  V30 1350 N 124.16 -0.719506 1.40217 0
M  V30 1351 C 125.108 -1.85493 1.40339 0
M  V30 1352 C 126.102 -1.66995 0.284415 0
M  V30 1353 O 127.308 -1.74148 0.455252 0
M  V30 1354 H 123.683 -0.610857 0.438586 0
M  V30 1355 H 125.654 -1.82506 2.36081 0
M  V30 1356 C 124.403 -3.23321 1.27901 0
M  V30 1357 H 123.726 -3.38159 2.1328 0
M  V30 1358 H 125.166 -4.02914 1.32045 0
M  V30 1359 C 123.625 -3.36898 -0.0111355 0
M  V30 1360 O 124.155 -3.89674 -0.975538 0
M  V30 1361 N 122.361 -2.90492 -0.0793393 0
M  V30 1362 H 121.908 -2.47731 0.706183 0
M  V30 1363 H 121.866 -2.99955 -0.942038 0
M  V30 1364 N 125.638 -1.25649 -0.95132 0
M  V30 1365 C 126.886 -1.10375 -1.69298 0
M  V30 1366 C 127.207 0.355339 -1.91735 0
M  V30 1367 O 126.477 1.25188 -1.50681 0
M  V30 1368 H 125.057 -0.405461 -0.627384 0
M  V30 1369 H 127.719 -1.57823 -1.14358 0
M  V30 1370 H 126.815 -1.61465 -2.67087 0
M  V30 1371 N 127.117 1.15442 -1.07289 0
M  V30 1372 C 128.363 1.86489 -0.796846 0
M  V30 1373 C 128.696 1.82078 0.675371 0
M  V30 1374 O 127.971 1.24346 1.4956 0
M  V30 1375 C 128.254 3.35626 -1.30489 0
M  V30 1376 C 128.107 3.48673 -2.84161 0
M  V30 1377 C 129.426 4.30357 -0.920907 0
M  V30 1378 H 126.545 0.677144 -0.290939 0
M  V30 1379 H 129.187 1.35633 -1.33056 0
M  V30 1380 H 127.337 3.79068 -0.850883 0
M  V30 1381 H 129.009 3.14099 -3.37846 0
M  V30 1382 H 127.252 2.90253 -3.22391 0
M  V30 1383 H 127.923 4.53453 -3.14777 0
M  V30 1384 H 130.399 3.94871 -1.3121 0
M  V30 1385 H 129.275 5.33193 -1.30372 0
M  V30 1386 H 129.536 4.4176 0.173226 0
M  V30 1387 N 128.595 0.856903 1.32268 0
M  V30 1388 C 129.528 0.247937 2.26849 0
M  V30 1389 C 130.506 -0.615382 1.50505 0
M  V30 1390 O 131.69 -0.571689 1.79622 0
M  V30 1391 C 128.817 -0.650093 3.32403 0
M  V30 1392 C 127.863 0.140138 4.2627 0
M  V30 1393 S 128.696 1.51004 5.13769 0
M  V30 1394 C 129.852 0.61778 6.22844 0
M  V30 1395 H 130.085 1.04971 2.78152 0
M  V30 1396 H 127.618 0.654665 1.39834 0
M  V30 1397 H 129.576 -1.16256 3.93694 0
M  V30 1398 H 128.237 -1.4257 2.7988 0
M  V30 1399 H 127.43 -0.543945 5.01056 0
M  V30 1400 H 127.032 0.584267 3.69408 0
M  V30 1401 H 129.324 -0.177053 6.77269 0
M  V30 1402 H 130.267 1.33636 6.95375 0
M  V30 1403 H 130.675 0.191124 5.64176 0
M  V30 1404 N 130.073 -1.45103 0.615059 0
M  V30 1405 C 131.484 -1.85654 0.197383 0
M  V30 1406 C 131.835 -1.51433 -1.24749 0
M  V30 1407 O 130.96 -0.944608 -1.94695 0
M  V30 1408 C 131.555 -3.36972 0.351448 0
M  V30 1409 C 130.114 -3.76398 -0.011593 0
M  V30 1410 C 129.261 -2.69024 0.672394 0
M  V30 1411 H 132.212 -1.35797 0.821263 0
M  V30 1412 H 132.233 -3.78239 -0.414227 0
M  V30 1413 H 131.745 -3.61847 1.40314 0
M  V30 1414 H 129.846 -3.5714 -1.06217 0
M  V30 1415 H 129.959 -4.77532 0.387265 0
M  V30 1416 H 128.323 -2.54465 0.109284 0
M  V30 1417 H 129.106 -2.96735 1.72636 0
M  V30 1418 N 131.551 -0.354651 -1.53558 0
M  V30 1419 C 132.776 0.242153 -2.05981 0
M  V30 1420 C 133.201 1.42553 -1.2272 0
M  V30 1421 O 132.559 1.79656 -0.243604 0
M  V30 1422 C 132.607 0.624367 -3.55154 0
M  V30 1423 O 131.711 1.72301 -3.74681 0
M  V30 1424 H 131.052 0.0378432 -0.662921 0
M  V30 1425 H 133.582 -0.512087 -1.98088 0
M  V30 1426 H 133.592 0.898433 -3.97985 0
M  V30 1427 H 132.267 -0.240989 -4.15201 0
M  V30 1428 H 130.844 1.44535 -3.4375 0
M  V30 1429 N 133.029 1.57378 -0.0835403 0
M  V30 1430 C 133.979 2.09916 0.889905 0
M  V30 1431 C 134.963 1.01151 1.25129 0
M  V30 1432 O 136.155 1.27443 1.2283 0
M  V30 1433 C 133.284 2.67379 2.15322 0
M  V30 1434 C 132.37 3.83167 1.81779 0
M  V30 1435 N 132.761 4.91665 1.18739 0
M  V30 1436 C 131.059 3.92685 2.11459 0
M  V30 1437 C 131.76 5.72409 1.0355 0
M  V30 1438 N 130.736 5.21062 1.54906 0
M  V30 1439 H 134.538 2.91188 0.398378 0
M  V30 1440 H 132.052 1.61956 0.120013 0
M  V30 1441 H 134.049 3.0334 2.8599 0
M  V30 1442 H 132.709 1.87558 2.65051 0
M  V30 1443 H 133.72 5.10784 0.855604 0
M  V30 1444 H 130.397 3.23856 2.63483 0
M  V30 1445 H 131.787 6.69699 0.543425 0
M  V30 1446 N 134.507 -0.190092 1.56449 0
M  V30 1447 C 135.754 -0.909705 1.80916 0
M  V30 1448 C 136.082 -1.83047 0.657583 0
M  V30 1449 O 135.337 -1.92428 -0.356356 0
M  V30 1450 C 135.636 -1.75382 3.1141 0
M  V30 1451 C 135.302 -0.983606 4.40041 0
M  V30 1452 C 133.964 -0.770967 4.74984 0
M  V30 1453 C 136.316 -0.442024 5.19322 0
M  V30 1454 C 133.644 -0.0053448 5.867 0
M  V30 1455 C 135.996 0.310412 6.31838 0
M  V30 1456 C 134.66 0.534023 6.6536 0
M  V30 1457 H 133.93 -0.332885 0.662019 0
M  V30 1458 H 136.577 -0.175762 1.90692 0
M  V30 1459 H 134.882 -2.55659 2.96893 0
M  V30 1460 H 136.579 -2.31331 3.27547 0
M  V30 1461 H 133.169 -1.15936 4.12622 0
M  V30 1462 H 137.353 -0.593693 4.92736 0
M  V30 1463 H 132.609 0.177825 6.11141 0
M  V30 1464 H 136.783 0.737419 6.92485 0
M  V30 1465 H 134.41 1.12918 7.51767 0
M  V30 1466 N 135.985 -1.50799 -0.457987 0
M  V30 1467 C 137.21 -1.66496 -1.23668 0
M  V30 1468 C 137.635 -0.353288 -1.84752 0
M  V30 1469 O 136.993 0.684346 -1.67888 0
M  V30 1470 C 137.041 -2.76763 -2.3116 0
M  V30 1471 O 136.145 -2.38928 -3.36136 0
M  V30 1472 H 135.486 -0.555828 -0.363252 0
M  V30 1473 H 138.016 -1.9725 -0.543474 0
M  V30 1474 H 138.026 -3.00232 -2.76269 0
M  V30 1475 H 136.701 -3.71954 -1.86073 0
M  V30 1476 H 135.278 -2.25953 -2.96647 0
M  V30 1477 N 137.463 0.71206 -1.40597 0
M  V30 1478 C 138.879 1.02058 -1.22704 0
M  V30 1479 C 139.079 2.01228 -0.104729 0
M  V30 1480 O 138.135 2.4674 0.53624 0
M  V30 1481 C 139.448 1.56094 -2.57012 0
M  V30 1482 C 140.996 1.6806 -2.64054 0
M  V30 1483 C 141.471 2.25501 -3.9864 0
M  V30 1484 N 142.962 2.32882 -4.004 0
M  V30 1485 C 143.697 2.78317 -5.01325 0
M  V30 1486 N 143.193 3.23478 -6.12645 0
M  V30 1487 N 144.986 2.77733 -4.88693 0
M  V30 1488 H 137.137 0.0547896 -2.12329 0
M  V30 1489 H 139.4 0.0869027 -0.944008 0
M  V30 1490 H 139.106 0.906865 -3.39807 0
M  V30 1491 H 138.98 2.54564 -2.78347 0
M  V30 1492 H 141.367 2.32583 -1.81629 0
M  V30 1493 H 141.448 0.681802 -2.46546 0
M  V30 1494 H 141.092 1.61598 -4.81506 0
M  V30 1495 H 141.022 3.26102 -4.13479 0
M  V30 1496 H 143.513 2.00991 -3.20017 0
M  V30 1497 H 143.826 3.56725 -6.85542 0
M  V30 1498 H 142.171 3.21429 -6.16205 0
M  V30 1499 H 145.362 2.4179 -4.00818 0
M  V30 1500 H 145.535 3.12826 -5.67489 0
M  V30 1501 N 138.941 1.26152 0.944643 0
M  V30 1502 C 140.189 1.11271 1.6871 0
M  V30 1503 C 140.51 -0.345166 1.91921 0
M  V30 1504 O 139.78 -1.24387 1.51343 0
M  V30 1505 H 138.36 0.408783 0.625224 0
M  V30 1506 H 141.022 1.58427 1.1352 0
M  V30 1507 H 140.118 1.62879 2.66227 0
M  V30 1508 N 140.419 -1.14872 1.07899 0
M  V30 1509 C 141.644 -1.90202 0.826926 0
M  V30 1510 C 142.069 -1.77774 -0.614664 0
M  V30 1511 O 141.427 -1.11431 -1.43013 0
M  V30 1512 C 141.475 -3.38352 1.24702 0
M  V30 1513 O 140.579 -4.10497 0.39575 0
M  V30 1514 H 139.92 -0.591968 0.300782 0
M  V30 1515 H 142.45 -1.45437 1.43907 0
M  V30 1516 H 142.46 -3.89156 1.22563 0
M  V30 1517 H 141.135 -3.46715 2.29698 0
M  V30 1518 H 139.712 -3.69796 0.480117 0
M  V30 1519 N 141.898 -0.863906 -1.31812 0
M  V30 1520 C 142.845 -0.313303 -2.28664 0
M  V30 1521 C 143.815 0.584868 -1.55462 0
M  V30 1522 O 145 0.517805 -1.83639 0
M  V30 1523 C 142.14 0.48441 -3.41683 0
M  V30 1524 C 141.253 -0.440594 -4.29747 0
M  V30 1525 C 140.388 0.370652 -5.29905 0
M  V30 1526 C 139.427 -0.551164 -6.09613 0
M  V30 1527 N 138.564 0.223462 -7.01744 0
M  V30 1528 H 143.404 -1.14444 -2.75148 0
M  V30 1529 H 140.941 -0.575769 -1.35364 0
M  V30 1530 H 142.899 0.962627 -4.05943 0
M  V30 1531 H 141.529 1.28029 -2.96325 0
M  V30 1532 H 140.581 -1.03724 -3.65986 0
M  V30 1533 H 141.893 -1.14767 -4.85417 0
M  V30 1534 H 141.047 0.911638 -5.99812 0
M  V30 1535 H 139.786 1.11105 -4.74876 0
M  V30 1536 H 138.791 -1.10396 -5.38603 0
M  V30 1537 H 140.016 -1.29032 -6.66729 0
M  V30 1538 H 137.962 0.946787 -6.49132 0
M  V30 1539 H 137.879 -0.424399 -7.54808 0
M  V30 1540 H 139.147 0.745876 -7.75923 0
M  V30 1541 N 143.376 1.44774 -0.622745 0
M  V30 1542 C 144.601 2.06999 -0.128968 0
M  V30 1543 C 145.026 1.4617 1.1839 0
M  V30 1544 O 144.384 0.560007 1.72434 0
M  V30 1545 C 144.432 3.60595 -0.0188351 0
M  V30 1546 O 143.536 3.99398 1.02739 0
M  V30 1547 H 142.877 0.659047 -0.0809544 0
M  V30 1548 H 145.407 1.85784 -0.85705 0
M  V30 1549 H 145.417 4.07627 0.174476 0
M  V30 1550 H 144.092 4.04252 -0.977384 0
M  V30 1551 H 142.669 3.64011 0.809326 0
M  V30 1552 N 144.854 0.36279 1.53368 0
M  V30 1553 C 146.1 -0.228113 2.01513 0
M  V30 1554 C 146.433 -1.48648 1.2497 0
M  V30 1555 O 145.708 -1.91459 0.342616 0
M  V30 1556 C 145.991 -0.522884 3.56284 0
M  V30 1557 C 145.844 0.74892 4.43521 0
M  V30 1558 C 147.163 -1.32461 4.19693 0
M  V30 1559 H 144.282 -0.0814343 0.732487 0
M  V30 1560 H 146.924 0.48713 1.83649 0
M  V30 1561 H 145.074 -1.1322 3.71636 0
M  V30 1562 H 146.746 1.38648 4.39971 0
M  V30 1563 H 144.989 1.36986 4.11603 0
M  V30 1564 H 145.66 0.497667 5.49752 0
M  V30 1565 H 148.136 -0.809203 4.08156 0
M  V30 1566 H 147.012 -1.49961 5.28018 0
M  V30 1567 H 147.273 -2.33232 3.75573 0
M  V30 1568 N 146.332 -1.57332 0.0918853 0
M  V30 1569 C 147.295 -2.12708 -0.85369 0
M  V30 1570 C 148.295 -1.05561 -1.213 0
M  V30 1571 O 149.485 -1.31461 -1.14296 0
M  V30 1572 C 146.617 -2.64503 -2.15061 0
M  V30 1573 H 147.81 -2.97573 -0.3729 0
M  V30 1574 H 145.363 -1.55509 -0.157072 0
M  V30 1575 H 146.098 -1.83149 -2.67632 0
M  V30 1576 H 145.883 -3.4284 -1.90272 0
M  V30 1577 H 147.373 -3.07351 -2.82711 0
M  V30 1578 N 147.81 0.181792 -1.56548 0
M  V30 1579 C 149.226 0.53316 -1.50431 0
M  V30 1580 C 149.426 1.85184 -0.794297 0
M  V30 1581 O 148.482 2.50058 -0.350318 0
M  V30 1582 C 149.795 0.575597 -2.9514 0
M  V30 1583 C 151.343 0.663519 -3.05886 0
M  V30 1584 C 151.818 0.736946 -4.52032 0
M  V30 1585 N 153.309 0.800118 -4.56237 0
M  V30 1586 C 154.044 0.877327 -5.66649 0
M  V30 1587 N 153.54 0.916016 -6.86718 0
M  V30 1588 N 155.333 0.915542 -5.54594 0
M  V30 1589 H 147.484 -0.683025 -2.01118 0
M  V30 1590 H 149.747 -0.244988 -0.915797 0
M  V30 1591 H 149.453 -0.324482 -3.502 0
M  V30 1592 H 149.327 1.42572 -3.49218 0
M  V30 1593 H 151.714 1.55403 -2.50867 0
M  V30 1594 H 151.795 -0.21307 -2.54911 0
M  V30 1595 H 151.439 -0.149262 -5.07681 0
M  V30 1596 H 151.369 1.62953 -5.00753 0
M  V30 1597 H 153.86 0.778926 -3.69785 0
M  V30 1598 H 154.173 0.975813 -7.66614 0
M  V30 1599 H 152.518 0.884469 -6.89349 0
M  V30 1600 H 155.709 0.882245 -4.59711 0
M  V30 1601 H 155.882 0.972253 -6.40665 0
M  V30 1602 N 149.288 1.51039 0.449983 0
M  V30 1603 C 150.704 1.38934 0.785462 0
M  V30 1604 C 150.904 0.461817 1.96136 0
M  V30 1605 O 149.96 -0.0877389 2.52348 0
M  V30 1606 C 151.273 2.80724 1.0777 0
M  V30 1607 C 152.821 2.89787 1.1829 0
M  V30 1608 C 153.296 4.32457 1.50815 0
M  V30 1609 N 154.787 4.35505 1.57764 0
M  V30 1610 C 155.522 5.42914 1.84477 0
M  V30 1611 N 155.018 6.60502 2.09068 0
M  V30 1612 N 156.811 5.3038 1.86155 0
M  V30 1613 H 148.962 2.09904 -0.324647 0
M  V30 1614 H 151.225 0.944378 -0.0827957 0
M  V30 1615 H 150.931 3.50531 0.286498 0
M  V30 1616 H 150.805 3.19273 2.00859 0
M  V30 1617 H 153.192 2.20186 1.96474 0
M  V30 1618 H 153.273 2.54752 0.231314 0
M  V30 1619 H 152.917 5.02603 0.731622 0
M  V30 1620 H 152.847 4.64995 2.47158 0
M  V30 1621 H 155.338 3.50724 1.40715 0
M  V30 1622 H 155.651 7.38158 2.28785 0
M  V30 1623 H 153.996 6.63639 2.06416 0
M  V30 1624 H 157.187 4.37505 1.66454 0
M  V30 1625 H 157.36 6.1417 2.06637 0
M  V30 1626 N 150.766 -0.704594 1.40972 0
M  V30 1627 C 152.012 -1.46675 1.40051 0
M  V30 1628 C 152.345 -1.94199 0.00641102 0
M  V30 1629 O 151.62 -1.68916 -0.964235 0
M  V30 1630 C 151.903 -2.68505 2.39952 0
M  V30 1631 C 151.756 -2.26805 3.88432 0
M  V30 1632 C 153.075 -3.70686 2.37233 0
M  V30 1633 H 150.194 -0.532015 0.510028 0
M  V30 1634 H 152.836 -0.803255 1.72185 0
M  V30 1635 H 150.986 -3.25114 2.1268 0
M  V30 1636 H 152.658 -1.75592 4.26574 0
M  V30 1637 H 150.901 -1.58685 4.03734 0
M  V30 1638 H 151.572 -3.14181 4.53866 0
M  V30 1639 H 154.048 -3.23731 2.61415 0
M  V30 1640 H 152.924 -4.53553 3.09162 0
M  V30 1641 H 153.185 -4.19754 1.38777 0
M  V30 1642 N 152.244 -1.26651 -0.937939 0
M  V30 1643 C 153.174 -1.10993 -2.05433 0
M  V30 1644 C 154.155 -0.0142161 -1.70094 0
M  V30 1645 O 155.34 -0.186837 -1.93299 0
M  V30 1646 C 152.47 -0.745561 -3.39203 0
M  V30 1647 C 151.424 -1.79337 -3.88616 0
M  V30 1648 C 150.75 -1.28324 -5.19073 0
M  V30 1649 C 152.05 -3.19553 -4.13138 0
M  V30 1650 H 153.744 -2.0438 -2.1879 0
M  V30 1651 H 151.29 -0.984041 -1.05131 0
M  V30 1652 H 153.243 -0.622888 -4.16771 0
M  V30 1653 H 151.967 0.22401 -3.25831 0
M  V30 1654 H 150.626 -1.90477 -3.13231 0
M  V30 1655 H 150.274 -0.303414 -5.02084 0
M  V30 1656 H 149.974 -1.98369 -5.53103 0
M  V30 1657 H 151.498 -1.1733 -5.99221 0
M  V30 1658 H 152.912 -3.11471 -4.81309 0
M  V30 1659 H 151.309 -3.87218 -4.58457 0
M  V30 1660 H 152.379 -3.65368 -3.18801 0
M  V30 1661 N 153.722 1.14298 -1.08507 0
M  V30 1662 C 154.654 2.1907 -0.673859 0
M  V30 1663 C 155.667 1.60381 0.279577 0
M  V30 1664 O 156.856 1.78374 0.0670754 0
M  V30 1665 C 153.956 3.38888 0.0290979 0
M  V30 1666 C 153.129 4.27103 -0.943494 0
M  V30 1667 C 152.188 5.25477 -0.275676 0
M  V30 1668 O 151.214 5.61709 -0.920401 0
M  V30 1669 N 152.416 5.7227 0.974013 0
M  V30 1670 H 155.181 2.54965 -1.57521 0
M  V30 1671 H 152.742 1.29528 -0.971287 0
M  V30 1672 H 154.734 4.01761 0.48683 0
M  V30 1673 H 153.304 3.01309 0.832555 0
M  V30 1674 H 152.524 3.61149 -1.58004 0
M  V30 1675 H 153.812 4.82905 -1.60251 0
M  V30 1676 H 153.21 5.44965 1.51755 0
M  V30 1677 H 151.767 6.37127 1.37522 0
M  V30 1678 N 155.201 0.870884 1.31352 0
M  V30 1679 C 156.164 0.332243 2.26779 0
M  V30 1680 C 157.164 -0.517302 1.52252 0
M  V30 1681 O 158.354 -0.326477 1.71113 0
M  V30 1682 C 155.486 -0.528066 3.36785 0
M  V30 1683 H 156.679 1.17469 2.75937 0
M  V30 1684 H 154.232 0.64655 1.423 0
M  V30 1685 H 154.967 -1.39167 2.92922 0
M  V30 1686 H 154.752 0.0802582 3.92018 0
M  V30 1687 H 156.242 -0.897179 4.07849 0
M  V30 1688 N 156.679 -1.44442 0.630414 0
M  V30 1689 C 157.609 -2.33418 -0.0618083 0
M  V30 1690 C 158.59 -1.48165 -0.835541 0
M  V30 1691 O 159.775 -1.76886 -0.801564 0
M  V30 1692 C 156.905 -3.31222 -1.04449 0
M  V30 1693 C 155.859 -4.26288 -0.382436 0
M  V30 1694 C 155.185 -5.13954 -1.47497 0
M  V30 1695 C 156.485 -5.1744 0.710865 0
M  V30 1696 H 158.179 -2.91548 0.681184 0
M  V30 1697 H 155.725 -1.40191 0.329026 0
M  V30 1698 H 157.678 -3.92351 -1.53748 0
M  V30 1699 H 156.402 -2.71299 -1.81836 0
M  V30 1700 H 155.061 -3.6649 0.0899054 0
M  V30 1701 H 154.709 -4.50385 -2.2397 0
M  V30 1702 H 154.409 -5.7837 -1.03737 0
M  V30 1703 H 155.933 -5.77955 -1.96979 0
M  V30 1704 H 157.347 -5.72509 0.300996 0
M  V30 1705 H 155.744 -5.90455 1.07156 0
M  V30 1706 H 156.814 -4.58496 1.57829 0
M  V30 1707 N 158.157 -0.370918 -1.53173 0
M  V30 1708 C 159.067 0.480823 -2.2962 0
M  V30 1709 C 160.083 1.08789 -1.35798 0
M  V30 1710 O 161.259 1.09768 -1.68858 0
M  V30 1711 C 158.324 1.60227 -3.07454 0
M  V30 1712 C 157.385 1.0222 -4.16953 0
M  V30 1713 C 156.618 2.0902 -4.91066 0
M  V30 1714 O 156.841 3.30222 -4.65091 0
M  V30 1715 O 155.775 1.71778 -5.76867 0
M  V30 1716 H 159.601 -0.141421 -3.03371 0
M  V30 1717 H 157.186 -0.135146 -1.48787 0
M  V30 1718 H 159.068 2.25417 -3.56041 0
M  V30 1719 H 157.743 2.20982 -2.36535 0
M  V30 1720 H 156.65 0.334064 -3.72605 0
M  V30 1721 H 157.983 0.459131 -4.90054 0
M  V30 1722 N 159.635 1.57281 -0.100228 0
M  V30 1723 C 160.883 1.94153 0.561157 0
M  V30 1724 C 161.204 0.983157 1.68401 0
M  V30 1725 O 160.474 0.0361132 1.95867 0
M  V30 1726 H 159.054 0.716791 0.210283 0
M  V30 1727 H 161.716 1.94202 -0.164765 0
M  V30 1728 H 160.812 2.96709 0.968008 0
M  V30 1729 N 161.113 -0.173488 1.56642 0
M  V30 1730 C 162.043 -1.2171 1.99271 0
M  V30 1731 C 163.024 -1.46289 0.867959 0
M  V30 1732 O 164.209 -1.5766 1.13388 0
M  V30 1733 C 161.339 -2.55651 2.35074 0
M  V30 1734 C 160.293 -2.45645 3.50489 0
M  V30 1735 C 159.619 -3.84056 3.72028 0
M  V30 1736 C 160.919 -1.96302 4.84007 0
M  V30 1737 H 162.613 -0.86275 2.867 0
M  V30 1738 H 160.159 -0.413571 1.37933 0
M  V30 1739 H 162.112 -3.2886 2.63494 0
M  V30 1740 H 160.836 -2.92869 1.44552 0
M  V30 1741 H 159.495 -1.7489 3.22194 0
M  V30 1742 H 159.143 -4.18664 2.788 0
M  V30 1743 H 158.843 -3.7823 4.49684 0
M  V30 1744 H 160.367 -4.58854 4.02846 0
M  V30 1745 H 161.781 -2.59284 5.11317 0
M  V30 1746 H 160.178 -2.01429 5.65284 0
M  V30 1747 H 161.248 -0.917226 4.76146 0
M  V30 1748 N 162.591 -1.51276 -0.441967 0
M  V30 1749 C 163.538 -1.72256 -1.53612 0
M  V30 1750 C 164.508 -0.564164 -1.56225 0
M  V30 1751 O 165.693 -0.798074 -1.73307 0
M  V30 1752 C 162.833 -1.84932 -2.91366 0
M  V30 1753 C 161.946 -3.12459 -2.98317 0
M  V30 1754 C 161.081 -3.15758 -4.27166 0
M  V30 1755 C 160.12 -4.37619 -4.27967 0
M  V30 1756 N 159.257 -4.38493 -5.48333 0
M  V30 1757 H 164.097 -2.65654 -1.35026 0
M  V30 1758 H 161.634 -1.31662 -0.656009 0
M  V30 1759 H 163.592 -1.90263 -3.7129 0
M  V30 1760 H 162.222 -0.949461 -3.08521 0
M  V30 1761 H 161.274 -3.1646 -2.11086 0
M  V30 1762 H 162.586 -4.02382 -2.94771 0
M  V30 1763 H 161.74 -3.19979 -5.15459 0
M  V30 1764 H 160.479 -2.23715 -4.33362 0
M  V30 1765 H 159.484 -4.33579 -3.38067 0
M  V30 1766 H 160.709 -5.30921 -4.23438 0
M  V30 1767 H 158.655 -3.49318 -5.55259 0
M  V30 1768 H 158.572 -5.22219 -5.46647 0
M  V30 1769 H 159.84 -4.469 -6.38671 0
M  V30 1770 N 164.069 0.697108 -1.41344 0
M  V30 1771 C 165.002 1.82134 -1.37486 0
M  V30 1772 C 165.98 1.60784 -0.242351 0
M  V30 1773 O 167.164 1.83553 -0.429012 0
M  V30 1774 C 164.291 3.18788 -1.14421 0
M  V30 1775 C 163.337 3.58932 -2.3037 0
M  V30 1776 S 164.17 3.63916 -3.92843 0
M  V30 1777 C 165.326 5.03298 -3.72078 0
M  V30 1778 H 165.559 1.85129 -2.32625 0
M  V30 1779 H 163.092 0.865671 -1.2785 0
M  V30 1780 H 165.05 3.97677 -1.018 0
M  V30 1781 H 163.711 3.13404 -0.20905 0
M  V30 1782 H 162.904 4.58202 -2.09922 0
M  V30 1783 H 162.506 2.87347 -2.39391 0
M  V30 1784 H 164.798 5.90753 -3.31688 0
M  V30 1785 H 165.741 5.28788 -4.70945 0
M  V30 1786 H 166.149 4.74764 -3.05384 0
M  V30 1787 N 165.547 1.27147 0.931209 0
M  V30 1788 C 166.793 1.13446 1.68101 0
M  V30 1789 C 167.126 -0.319628 1.91552 0
M  V30 1790 O 166.401 -1.23407 1.50336 0
M  V30 1791 C 166.684 1.91482 3.0497 0
M  V30 1792 C 166.537 3.44855 2.88782 0
M  V30 1793 C 167.856 1.71651 4.05246 0
M  V30 1794 H 164.975 0.413498 0.610072 0
M  V30 1795 H 167.617 1.56261 1.08086 0
M  V30 1796 H 165.767 1.55095 3.56199 0
M  V30 1797 H 167.439 3.9105 2.44698 0
M  V30 1798 H 165.682 3.71373 2.24198 0
M  V30 1799 H 166.353 3.94694 3.85902 0
M  V30 1800 H 168.829 2.0337 3.63015 0
M  V30 1801 H 167.705 2.28651 4.99009 0
M  V30 1802 H 167.966 0.663555 4.37092 0
M  V30 1803 N 167.025 -1.13721 1.09112 0
M  V30 1804 C 167.935 -2.22638 0.73957 0
M  V30 1805 C 168.951 -1.72091 -0.257068 0
M  V30 1806 O 170.127 -2.01155 -0.0992154 0
M  V30 1807 C 167.192 -3.46322 0.16191 0
M  V30 1808 C 166.253 -4.11775 1.21408 0
M  V30 1809 C 165.486 -5.29555 0.663891 0
M  V30 1810 O 165.709 -5.68077 -0.514274 0
M  V30 1811 O 164.643 -5.84973 1.41738 0
M  V30 1812 H 168.469 -2.55074 1.64836 0
M  V30 1813 H 166.054 -1.21791 0.865289 0
M  V30 1814 H 167.936 -4.21107 -0.157073 0
M  V30 1815 H 166.611 -3.15593 -0.719932 0
M  V30 1816 H 165.518 -3.3883 1.58571 0
M  V30 1817 H 166.851 -4.46627 2.06845 0
M  V30 1818 N 168.503 -0.877838 -1.30888 0
M  V30 1819 C 169.45 -0.337538 -2.28318 0
M  V30 1820 C 170.42 0.568346 -1.56074 0
M  V30 1821 O 171.605 0.498298 -1.84178 0
M  V30 1822 C 168.745 0.448142 -3.42178 0
M  V30 1823 C 167.858 -0.48615 -4.29256 0
M  V30 1824 C 166.993 0.314427 -5.30269 0
M  V30 1825 C 166.032 -0.615791 -6.08995 0
M  V30 1826 N 165.169 0.14902 -7.01942 0
M  V30 1827 H 170.009 -1.17356 -2.73919 0
M  V30 1828 H 167.546 -0.590094 -1.34745 0
M  V30 1829 H 169.504 0.919517 -4.06941 0
M  V30 1830 H 168.134 1.24879 -2.97666 0
M  V30 1831 H 167.186 -1.076 -3.64865 0
M  V30 1832 H 168.498 -1.19909 -4.84173 0
M  V30 1833 H 167.652 0.847969 -6.00745 0
M  V30 1834 H 166.391 1.06062 -4.76027 0
M  V30 1835 H 165.396 -1.16102 -5.37401 0
M  V30 1836 H 166.621 -1.36097 -6.65323 0
M  V30 1837 H 164.567 0.877884 -6.50099 0
M  V30 1838 H 164.484 -0.504433 -7.54315 0
M  V30 1839 H 165.752 0.663537 -7.76671 0
M  V30 1840 N 169.982 1.44106 -0.638065 0
M  V30 1841 C 171.259 1.95453 -0.0759321 0
M  V30 1842 C 171.639 1.57984 1.40015 0
M  V30 1843 O 170.987 0.857361 2.11806 0
M  V30 1844 C 171.197 3.47655 -0.306132 0
M  V30 1845 C 172.545 4.24114 -0.203008 0
M  V30 1846 O 173.569 3.55405 -0.237871 0
M  V30 1847 O 172.428 5.46381 -0.113827 0
M  V30 1848 H 169.522 0.826797 0.0183332 0
M  V30 1849 H 172.068 1.54122 -0.710251 0
M  V30 1850 H 170.84 3.68 -1.3301 0
M  V30 1851 H 170.463 3.95949 0.361991 0
M  V30 1852 N 171.46 0.379036 1.52974 0
M  V30 1853 C 172.392 -0.495963 2.2377 0
M  V30 1854 C 173.405 -1.03517 1.25651 0
M  V30 1855 O 174.594 -0.939249 1.51791 0
M  V30 1856 C 171.694 -1.69894 2.93239 0
M  V30 1857 C 170.867 -1.2889 4.17979 0
M  V30 1858 C 169.926 -2.35543 4.70538 0
M  V30 1859 O 168.952 -1.97375 5.33883 0
M  V30 1860 N 170.154 -3.67318 4.49508 0
M  V30 1861 H 172.919 0.110523 2.99496 0
M  V30 1862 H 170.48 0.204878 1.60598 0
M  V30 1863 H 172.472 -2.40747 3.25304 0
M  V30 1864 H 171.042 -2.212 2.20883 0
M  V30 1865 H 170.262 -0.409676 3.92065 0
M  V30 1866 H 171.55 -0.991443 4.99047 0
M  V30 1867 H 170.948 -4.01095 3.98923 0
M  V30 1868 H 169.505 -4.34235 4.8609 0
M  V30 1869 N 172.938 -1.57226 0.108567 0
M  V30 1870 C 174.215 -1.86333 -0.594939 0
M  V30 1871 C 174.595 -1.00788 -1.85486 0
M  V30 1872 O 173.943 -0.0839293 -2.28346 0
M  V30 1873 C 174.153 -3.37265 -0.897405 0
M  V30 1874 C 175.501 -4.05629 -1.25501 0
M  V30 1875 O 176.525 -3.42224 -0.987998 0
M  V30 1876 O 175.384 -5.17531 -1.75567 0
M  V30 1877 H 172.478 -0.771018 -0.2991 0
M  V30 1878 H 175.024 -1.69102 0.142283 0
M  V30 1879 H 173.796 -3.913 -0.00413806 0
M  V30 1880 H 173.419 -3.59889 -1.69014 0
M  V30 1881 N 174.416 0.165178 -1.56732 0
M  V30 1882 C 175.664 0.879068 -1.8198 0
M  V30 1883 C 175.985 1.82514 -0.686561 0
M  V30 1884 O 175.255 1.93694 0.293146 0
M  V30 1885 H 173.835 0.327608 -0.671329 0
M  V30 1886 H 176.497 0.163526 -1.94213 0
M  V30 1887 H 175.593 1.45228 -2.76252 0
M  V30 1888 N 175.894 1.51508 0.433938 0
M  V30 1889 C 177.142 1.6402 1.18075 0
M  V30 1890 C 177.463 0.360328 1.91642 0
M  V30 1891 O 176.733 -0.623945 1.85698 0
M  V30 1892 H 175.313 0.6045 0.43885 0
M  V30 1893 H 177.975 1.88452 0.497178 0
M  V30 1894 H 177.071 2.46949 1.90847 0
M  V30 1895 N 177.372 -0.689602 1.41712 0
M  V30 1896 C 178.788 -1.00093 1.24312 0
M  V30 1897 C 178.988 -2.01036 0.136729 0
M  V30 1898 O 178.044 -2.47562 -0.496918 0
M  V30 1899 C 179.357 -1.51985 2.59463 0
M  V30 1900 C 180.905 -1.63838 2.66695 0
M  V30 1901 C 181.38 -2.1913 4.02177 0
M  V30 1902 N 182.871 -2.26483 4.04054 0
M  V30 1903 C 183.606 -2.70306 5.0569 0
M  V30 1904 N 183.102 -3.13691 6.17713 0
M  V30 1905 N 184.895 -2.69923 4.9305 0
M  V30 1906 H 177.046 -0.0210029 2.1239 0
M  V30 1907 H 179.309 -0.0718733 0.945272 0
M  V30 1908 H 179.015 -0.85269 3.41207 0
M  V30 1909 H 178.889 -2.50103 2.82362 0
M  V30 1910 H 181.276 -2.29664 1.85306 0
M  V30 1911 H 181.357 -0.642492 2.476 0
M  V30 1912 H 181.001 -1.53918 4.84016 0
M  V30 1913 H 180.931 -3.19482 4.18615 0
M  V30 1914 H 183.422 -1.95874 3.23174 0
M  V30 1915 H 183.735 -3.45773 6.9113 0
M  V30 1916 H 182.08 -3.11585 6.21241 0
M  V30 1917 H 185.271 -2.35382 4.04614 0
M  V30 1918 H 185.444 -3.03758 5.72394 0
M  V30 1919 N 178.85 -1.27639 -0.924453 0
M  V30 1920 C 179.797 -1.10644 -2.0255 0
M  V30 1921 C 180.767 -0.00658438 -1.66099 0
M  V30 1922 O 181.952 -0.16952 -1.90045 0
M  V30 1923 C 179.092 -0.76309 -3.36557 0
M  V30 1924 C 178.205 -1.94091 -3.85944 0
M  V30 1925 C 177.34 -1.53914 -5.08413 0
M  V30 1926 C 176.379 -2.68425 -5.50104 0
M  V30 1927 N 175.516 -2.28815 -6.63768 0
M  V30 1928 H 180.356 -2.04858 -2.16419 0
M  V30 1929 H 177.893 -1.01974 -1.06017 0
M  V30 1930 H 179.851 -0.544822 -4.13627 0
M  V30 1931 H 178.481 0.142102 -3.22487 0
M  V30 1932 H 177.533 -2.27162 -3.05125 0
M  V30 1933 H 178.845 -2.7998 -4.12811 0
M  V30 1934 H 177.999 -1.28231 -5.92994 0
M  V30 1935 H 176.738 -0.651391 -4.8333 0
M  V30 1936 H 175.743 -2.94819 -4.64071 0
M  V30 1937 H 176.968 -3.57826 -5.7718 0
M  V30 1938 H 174.914 -1.42495 -6.40337 0
M  V30 1939 H 174.831 -3.08242 -6.90306 0
M  V30 1940 H 176.099 -2.06387 -7.51681 0
M  V30 1941 N 180.328 1.1314 -1.09713 0
M  V30 1942 C 181.258 2.20748 -0.761102 0
M  V30 1943 C 182.239 1.68061 0.262566 0
M  V30 1944 O 183.424 1.93765 0.129977 0
M  V30 1945 C 180.554 3.46812 -0.184054 0
M  V30 1946 C 179.508 4.12606 -1.13757 0
M  V30 1947 C 178.834 5.33031 -0.422083 0
M  V30 1948 C 180.134 4.59603 -2.48118 0
M  V30 1949 H 181.828 2.49113 -1.66082 0
M  V30 1950 H 179.374 1.19734 -0.799987 0
M  V30 1951 H 181.327 4.21353 0.0631215 0
M  V30 1952 H 180.051 3.17851 0.750868 0
M  V30 1953 H 178.71 3.40036 -1.37007 0
M  V30 1954 H 178.358 5.00335 0.517072 0
M  V30 1955 H 178.058 5.77999 -1.05788 0
M  V30 1956 H 179.582 6.10325 -0.183277 0
M  V30 1957 H 180.996 5.25552 -2.29059 0
M  V30 1958 H 179.393 5.15321 -3.07514 0
M  V30 1959 H 180.463 3.73971 -3.08665 0
M  V30 1960 N 181.806 0.884767 1.30421 0
M  V30 1961 C 183.034 0.518044 2.0031 0
M  V30 1962 C 183.449 -0.893408 1.66324 0
M  V30 1963 O 182.806 -1.5875 0.900262 0
M  V30 1964 C 182.857 0.682997 3.54989 0
M  V30 1965 O 182.578 2.03888 3.87764 0
M  V30 1966 C 184.079 0.31924 4.42149 0
M  V30 1967 H 181.299 0.200265 0.640418 0
M  V30 1968 H 183.843 1.19001 1.6631 0
M  V30 1969 H 181.998 0.0584052 3.87356 0
M  V30 1970 H 182.412 2.05735 4.82466 0
M  V30 1971 H 183.886 0.485555 5.4986 0
M  V30 1972 H 184.363 -0.742717 4.32875 0
M  V30 1973 H 184.969 0.920147 4.15227 0
M  V30 1974 N 183.284 -1.43765 0.645699 0
M  V30 1975 C 184.695 -1.85193 0.236719 0
M  V30 1976 C 185.046 -1.54045 -1.21509 0
M  V30 1977 O 184.171 -0.985694 -1.92647 0
M  V30 1978 C 184.766 -3.36151 0.422845 0
M  V30 1979 C 183.325 -3.76338 0.0682492 0
M  V30 1980 C 182.472 -2.67538 0.729306 0
M  V30 1981 H 185.423 -1.34025 0.849883 0
M  V30 1982 H 185.444 -3.79032 -0.333904 0
M  V30 1983 H 184.956 -3.5879 1.47958 0
M  V30 1984 H 183.057 -3.59312 -0.986179 0
M  V30 1985 H 183.17 -4.76603 0.488469 0
M  V30 1986 H 181.534 -2.54176 0.163235 0
M  V30 1987 H 182.317 -2.93006 1.78892 0
M  V30 1988 N 184.763 -0.387143 -1.52771 0
M  V30 1989 C 185.695 0.484089 -2.2403 0
M  V30 1990 C 186.708 1.02849 -1.26198 0
M  V30 1991 O 187.897 0.931186 -1.52286 0
M  V30 1992 C 184.997 1.68337 -2.94136 0
M  V30 1993 C 184.17 1.26672 -4.18656 0
M  V30 1994 C 183.229 2.33045 -4.7178 0
M  V30 1995 O 182.255 1.94541 -5.34923 0
M  V30 1996 N 183.457 3.64929 -4.5145 0
M  V30 1997 H 186.222 -0.126404 -2.99433 0
M  V30 1998 H 183.783 -0.213392 -1.60488 0
M  V30 1999 H 185.775 2.39019 -3.26577 0
M  V30 2000 H 184.345 2.20025 -2.22053 0
M  V30 2001 H 183.565 0.388878 -3.92277 0
M  V30 2002 H 184.853 0.964964 -4.99566 0
M  V30 2003 H 184.251 3.98974 -4.01044 0
M  V30 2004 H 182.808 4.31651 -4.88386 0
M  V30 2005 N 186.241 1.57166 -0.116904 0
M  V30 2006 C 187.489 1.94737 0.540533 0
M  V30 2007 C 187.81 1.00096 1.67349 0
M  V30 2008 O 187.08 0.0568854 1.95817 0
M  V30 2009 H 185.66 0.718981 0.202669 0
M  V30 2010 H 188.322 1.94017 -0.185353 0
M  V30 2011 H 187.418 2.97719 0.936483 0
M  V30 2012 N 187.719 -0.156864 1.56817 0
M  V30 2013 C 188.651 -1.21883 1.94106 0
M  V30 2014 C 189.664 -1.3971 0.835754 0
M  V30 2015 O 190.853 -1.39457 1.11418 0
M  V30 2016 C 187.953 -2.58527 2.19127 0
M  V30 2017 C 187.126 -2.61809 3.50393 0
M  V30 2018 C 186.185 -3.7992 3.64071 0
M  V30 2019 O 185.211 -3.65249 4.36557 0
M  V30 2020 N 186.413 -4.96973 2.99997 0
M  V30 2021 H 189.178 -0.901974 2.85805 0
M  V30 2022 H 186.739 -0.346513 1.58148 0
M  V30 2023 H 188.731 -3.36034 2.25529 0
M  V30 2024 H 187.301 -2.82545 1.33742 0
M  V30 2025 H 186.521 -1.7029 3.5552 0
M  V30 2026 H 187.809 -2.61024 4.36742 0
M  V30 2027 H 187.207 -5.11794 2.41004 0
M  V30 2028 H 185.764 -5.7229 3.11974 0
M  V30 2029 N 189.197 -1.51736 -0.425897 0
M  V30 2030 C 190.613 -1.40166 -0.76326 0
M  V30 2031 C 190.813 -0.492962 -1.95377 0
M  V30 2032 O 189.869 0.0475815 -2.52455 0
M  V30 2033 C 191.182 -2.82403 -1.03291 0
M  V30 2034 C 192.73 -2.91632 -1.13665 0
M  V30 2035 C 193.205 -4.34801 -1.43916 0
M  V30 2036 N 194.696 -4.3796 -1.50816 0
M  V30 2037 C 195.431 -5.4578 -1.75817 0
M  V30 2038 N 194.927 -6.63744 -1.98534 0
M  V30 2039 N 196.72 -5.33274 -1.77694 0
M  V30 2040 H 188.871 -2.09361 0.358 0
M  V30 2041 H 191.134 -0.942941 0.0978094 0
M  V30 2042 H 190.84 -3.50943 -0.230696 0
M  V30 2043 H 190.714 -3.22428 -1.95754 0
M  V30 2044 H 193.101 -2.23284 -1.92947 0
M  V30 2045 H 193.182 -2.55088 -0.190756 0
M  V30 2046 H 192.826 -5.03703 -0.65157 0
M  V30 2047 H 192.756 -4.68868 -2.39729 0
M  V30 2048 H 195.247 -3.52919 -1.35118 0
M  V30 2049 H 195.56 -7.41704 -2.17013 0
M  V30 2050 H 193.905 -6.66839 -1.95832 0
M  V30 2051 H 197.096 -4.40098 -1.59473 0
M  V30 2052 H 197.269 -6.1738 -1.9684 0
M  V30 2053 N 190.675 0.682077 -1.42076 0
M  V30 2054 C 191.952 1.43755 -1.32642 0
M  V30 2055 C 192.332 2.11063 0.0396611 0
M  V30 2056 O 191.68 2.02701 1.05474 0
M  V30 2057 C 191.89 2.44596 -2.48946 0
M  V30 2058 C 193.238 3.09454 -2.9073 0
M  V30 2059 O 194.262 2.54922 -2.48783 0
M  V30 2060 O 193.121 4.08253 -3.63307 0
M  V30 2061 H 190.215 0.640857 -0.522715 0
M  V30 2062 H 192.761 0.711415 -1.54068 0
M  V30 2063 H 191.533 1.93609 -3.40046 0
M  V30 2064 H 191.156 3.24701 -2.29467 0
M  V30 2065 N 192.153 1.28127 0.917671 0
M  V30 2066 C 193.083 1.14248 2.03641 0
M  V30 2067 C 194.064 0.0412748 1.7005 0
M  V30 2068 O 195.249 0.217566 1.92977 0
M  V30 2069 C 192.379 0.799431 3.37974 0
M  V30 2070 C 191.333 1.85497 3.85713 0
M  V30 2071 C 190.659 1.36565 5.16966 0
M  V30 2072 C 191.959 3.26085 4.08002 0
M  V30 2073 H 193.653 2.07835 2.15511 0
M  V30 2074 H 191.199 1.00064 1.03553 0
M  V30 2075 H 193.152 0.689114 4.15727 0
M  V30 2076 H 191.876 -0.172145 3.26146 0
M  V30 2077 H 190.535 1.95437 3.10161 0
M  V30 2078 H 190.183 0.383253 5.01538 0
M  V30 2079 H 189.883 2.07143 5.49878 0
M  V30 2080 H 191.407 1.26848 5.97279 0
M  V30 2081 H 192.821 3.19089 4.76293 0
M  V30 2082 H 191.218 3.94462 4.52238 0
M  V30 2083 H 192.288 3.70394 3.12948 0
M  V30 2084 N 193.631 -1.12557 1.10312 0
M  V30 2085 C 194.908 -1.80363 0.756878 0
M  V30 2086 C 195.288 -1.97067 -0.756824 0
M  V30 2087 O 194.636 -1.54601 -1.68259 0
M  V30 2088 C 194.846 -3.14812 1.50647 0
M  V30 2089 C 196.194 -3.90029 1.67817 0
M  V30 2090 O 197.218 -3.24464 1.46974 0
M  V30 2091 O 196.077 -5.07652 2.02365 0
M  V30 2092 H 193.171 -0.780667 0.272926 0
M  V30 2093 H 195.717 -1.19404 1.20586 0
M  V30 2094 H 194.489 -2.97936 2.53672 0
M  V30 2095 H 194.112 -3.83478 1.05026 0
M  V30 2096 N 195.109 -0.891671 -1.2995 0
M  V30 2097 C 196.525 -0.58662 -1.48428 0
M  V30 2098 C 196.725 0.873951 -1.81561 0
M  V30 2099 O 195.781 1.65471 -1.90724 0
M  V30 2100 C 197.094 -1.50553 -2.60296 0
M  V30 2101 C 198.642 -1.50988 -2.74175 0
M  V30 2102 C 199.117 -2.41488 -3.89163 0
M  V30 2103 N 200.608 -2.39489 -3.96483 0
M  V30 2104 C 201.343 -3.06223 -4.84784 0
M  V30 2105 N 200.839 -3.82206 -5.77833 0
M  V30 2106 N 202.632 -2.95421 -4.78208 0
M  V30 2107 H 194.783 -1.83644 -1.06718 0
M  V30 2108 H 197.046 -0.786455 -0.529332 0
M  V30 2109 H 196.752 -2.54581 -2.42654 0
M  V30 2110 H 196.626 -1.22008 -3.56923 0
M  V30 2111 H 199.013 -0.47708 -2.91218 0
M  V30 2112 H 199.094 -1.83567 -1.78148 0
M  V30 2113 H 198.738 -3.44857 -3.72876 0
M  V30 2114 H 198.668 -2.06222 -4.84541 0
M  V30 2115 H 201.159 -1.84278 -3.29924 0
M  V30 2116 H 201.472 -4.302 -6.41988 0
M  V30 2117 H 199.817 -3.86313 -5.77743 0
M  V30 2118 H 203.008 -2.35581 -4.04499 0
M  V30 2119 H 203.181 -3.47704 -5.46814 0
M  V30 2120 N 196.587 1.43421 -0.653314 0
M  V30 2121 C 197.836 2.01032 -0.164076 0
M  V30 2122 C 198.149 1.52147 1.22926 0
M  V30 2123 O 199.355 2.02031 1.81371 0
M  V30 2124 C 197.811 3.59082 -0.24252 0
M  V30 2125 C 197.419 4.1696 -1.63855 0
M  V30 2126 C 199.163 4.24079 0.18911 0
M  V30 2127 C 197.07 5.67304 -1.67092 0
M  V30 2128 H 196 0.751798 -0.0575769 0
M  V30 2129 H 198.651 1.6439 -0.815362 0
M  V30 2130 H 197.033 3.93125 0.476276 0
M  V30 2131 H 198.207 3.94416 -2.38271 0
M  V30 2132 H 196.522 3.64335 -2.01616 0
M  V30 2133 H 199.119 5.34381 0.184775 0
M  V30 2134 H 199.462 3.98005 1.22056 0
M  V30 2135 H 199.995 3.94918 -0.477938 0
M  V30 2136 H 196.734 5.98145 -2.68146 0
M  V30 2137 H 196.254 5.91904 -0.970014 0
M  V30 2138 H 197.933 6.31344 -1.4147 0
M  V30 2139 N 198.065 0.39524 1.52563 0
M  V30 2140 C 199.028 -0.425001 2.25225 0
M  V30 2141 C 200.028 -0.985266 1.27079 0
M  V30 2142 O 201.218 -0.866332 1.5113 0
M  V30 2143 C 198.35 -1.59686 3.01186 0
M  V30 2144 H 199.543 0.211233 2.99155 0
M  V30 2145 H 197.096 0.147472 1.55603 0
M  V30 2146 H 197.831 -2.27035 2.31572 0
M  V30 2147 H 197.616 -1.20176 3.73229 0
M  V30 2148 H 199.106 -2.17743 3.5634 0
M  V30 2149 N 199.544 -1.57102 0.125237 0
M  V30 2150 C 200.792 -1.95021 -0.530198 0
M  V30 2151 C 201.113 -1.00982 -1.66816 0
M  V30 2152 O 200.383 -0.0672693 -1.95784 0
M  V30 2153 H 198.963 -0.720046 -0.198853 0
M  V30 2154 H 201.625 -1.93916 0.19564 0
M  V30 2155 H 200.721 -2.98211 -0.920681 0
M  V30 2156 N 201.022 0.148545 -1.56898 0
M  V30 2157 C 201.954 1.20852 -1.9475 0
M  V30 2158 C 202.967 1.39265 -0.843152 0
M  V30 2159 O 204.156 1.38864 -1.12156 0
M  V30 2160 C 201.256 2.57362 -2.20495 0
M  V30 2161 C 200.429 2.59947 -3.51776 0
M  V30 2162 C 199.488 3.77984 -3.6608 0
M  V30 2163 O 198.514 3.62929 -4.38487 0
M  V30 2164 N 199.716 4.95375 -3.02629 0
M  V30 2165 H 202.481 0.886804 -2.86279 0
M  V30 2166 H 200.042 0.338121 -1.5833 0
M  V30 2167 H 202.034 3.34833 -2.27307 0
M  V30 2168 H 200.604 2.81832 -1.35238 0
M  V30 2169 H 199.824 1.68403 -3.56419 0
M  V30 2170 H 201.112 2.58704 -4.38121 0
M  V30 2171 H 200.51 5.10509 -2.43715 0
M  V30 2172 H 199.067 5.70627 -3.15004 0
M  V30 2173 N 202.5 1.5196 0.417844 0
M  V30 2174 C 203.746 1.65836 1.16732 0
M  V30 2175 C 204.079 0.382881 1.90388 0
M  V30 2176 O 203.354 -0.618368 1.84408 0
M  V30 2177 C 203.637 2.87466 2.16876 0
M  V30 2178 C 203.49 4.25041 1.47174 0
M  V30 2179 C 204.809 3.04613 3.17646 0
M  V30 2180 H 201.928 0.603515 0.423011 0
M  V30 2181 H 204.57 1.84494 0.454105 0
M  V30 2182 H 202.72 2.71689 2.777 0
M  V30 2183 H 204.392 4.52527 0.895376 0
M  V30 2184 H 202.635 4.26843 0.773806 0
M  V30 2185 H 203.306 5.06176 2.20204 0
M  V30 2186 H 205.782 3.1923 2.66892 0
M  V30 2187 H 204.658 3.91247 3.8499 0
M  V30 2188 H 204.919 2.17541 3.84874 0
M  V30 2189 N 203.978 -0.674533 1.42435 0
M  V30 2190 C 204.941 -1.76986 1.45632 0
M  V30 2191 C 205.941 -1.5708 0.343871 0
M  V30 2192 O 207.131 -1.63367 0.604709 0
M  V30 2193 C 204.263 -3.15623 1.28822 0
M  V30 2194 H 205.456 -1.75539 2.43158 0
M  V30 2195 H 203.009 -0.884189 1.28887 0
M  V30 2196 H 203.744 -3.22696 0.322193 0
M  V30 2197 H 203.529 -3.31475 2.09444 0
M  V30 2198 H 205.019 -3.95537 1.33942 0
M  V30 2199 N 205.456 -1.28612 -0.910864 0
M  V30 2200 C 206.419 -1.12803 -1.9952 0
M  V30 2201 C 207.419 -0.0668264 -1.60661 0
M  V30 2202 O 208.609 -0.312847 -1.71368 0
M  V30 2203 C 205.741 -0.72254 -3.33155 0
M  V30 2204 H 206.934 -2.09109 -2.14973 0
M  V30 2205 H 204.487 -1.11639 -1.09391 0
M  V30 2206 H 205.222 0.241152 -3.23402 0
M  V30 2207 H 205.007 -1.48916 -3.62721 0
M  V30 2208 H 206.497 -0.634666 -4.12749 0
M  V30 2209 N 206.934 1.1197 -1.10907 0
M  V30 2210 C 207.897 2.16031 -0.765707 0
M  V30 2211 C 208.897 1.59393 0.212235 0
M  V30 2212 O 210.087 1.74196 -0.0115441 0
M  V30 2213 C 207.219 3.40632 -0.135053 0
M  V30 2214 H 208.412 2.47919 -1.68748 0
M  V30 2215 H 205.965 1.27061 -0.910226 0
M  V30 2216 H 206.7 3.14348 0.797218 0
M  V30 2217 H 206.485 3.8302 -0.838937 0
M  V30 2218 H 207.975 4.17505 0.0892469 0
M  V30 2219 N 208.412 0.89855 1.29475 0
M  V30 2220 C 209.36 0.365253 2.29714 0
M  V30 2221 C 210.354 -0.534993 1.6073 0
M  V30 2222 O 211.56 -0.417921 1.75081 0
M  V30 2223 H 207.935 0.0994853 0.74539 0
M  V30 2224 H 209.906 1.22406 2.72138 0
M  V30 2225 C 208.655 -0.393159 3.4547 0
M  V30 2226 H 207.978 0.290332 3.98744 0
M  V30 2227 H 209.418 -0.731189 4.17648 0
M  V30 2228 C 207.877 -1.59539 2.9673 0
M  V30 2229 O 208.407 -2.69469 2.97908 0
M  V30 2230 N 206.613 -1.43716 2.52575 0
M  V30 2231 H 206.16 -0.542828 2.51816 0
M  V30 2232 H 206.118 -2.24288 2.20323 0
M  V30 2233 N 209.89 -1.43072 0.660911 0
M  V30 2234 C 210.837 -2.30785 -0.0259884 0
M  V30 2235 C 211.807 -1.45184 -0.806888 0
M  V30 2236 O 212.992 -1.74041 -0.781943 0
M  V30 2237 C 210.132 -3.30861 -0.981067 0
M  V30 2238 C 209.245 -4.31558 -0.195458 0
M  V30 2239 C 208.38 -5.18712 -1.14503 0
M  V30 2240 C 207.419 -6.11097 -0.350299 0
M  V30 2241 N 206.556 -6.90849 -1.25186 0
M  V30 2242 H 211.396 -2.88975 0.727846 0
M  V30 2243 H 208.933 -1.42353 0.370682 0
M  V30 2244 H 210.891 -3.87399 -1.54849 0
M  V30 2245 H 209.521 -2.74304 -1.70169 0
M  V30 2246 H 208.573 -3.77252 0.488374 0
M  V30 2247 H 209.885 -4.9701 0.422176 0
M  V30 2248 H 209.039 -5.79914 -1.78284 0
M  V30 2249 H 207.778 -4.53404 -1.79656 0
M  V30 2250 H 206.783 -5.48976 0.300808 0
M  V30 2251 H 208.008 -6.7845 0.296941 0
M  V30 2252 H 205.954 -6.28182 -1.89005 0
M  V30 2253 H 205.871 -7.52854 -0.688971 0
M  V30 2254 H 207.139 -7.5655 -1.87757 0
M  V30 2255 N 211.368 -0.403325 -1.52352 0
M  V30 2256 C 212.315 0.425011 -2.26853 0
M  V30 2257 C 213.285 1.04598 -1.29029 0
M  V30 2258 O 214.47 1.07135 -1.57882 0
M  V30 2259 C 211.61 1.53888 -3.08889 0
M  V30 2260 C 210.723 0.939396 -4.21663 0
M  V30 2261 C 209.858 2.02547 -4.91068 0
M  V30 2262 C 208.897 1.40263 -5.95813 0
M  V30 2263 N 208.034 2.4286 -6.58759 0
M  V30 2264 H 212.874 -0.21674 -2.97211 0
M  V30 2265 H 210.411 -0.118722 -1.4662 0
M  V30 2266 H 212.369 2.19558 -3.54753 0
M  V30 2267 H 210.999 2.15074 -2.40714 0
M  V30 2268 H 210.051 0.171898 -3.80011 0
M  V30 2269 H 211.363 0.44436 -4.96817 0
M  V30 2270 H 210.517 2.75958 -5.40308 0
M  V30 2271 H 209.256 2.55415 -4.15469 0
M  V30 2272 H 208.261 0.653833 -5.45898 0
M  V30 2273 H 209.486 0.881719 -6.73352 0
M  V30 2274 H 207.432 2.94871 -5.85992 0
M  V30 2275 H 207.349 1.98152 -7.2957 0
M  V30 2276 H 208.617 3.15858 -7.12639 0
M  V30 2277 N 212.846 1.57033 -0.133567 0
M  V30 2278 C 213.796 2.12641 0.822671 0
M  V30 2279 C 214.78 1.05081 1.21847 0
M  V30 2280 O 215.972 1.31287 1.18713 0
M  V30 2281 C 213.101 2.74094 2.06706 0
M  V30 2282 C 212.187 3.88757 1.69497 0
M  V30 2283 N 212.578 4.95194 1.03037 0
M  V30 2284 C 210.876 3.99213 1.98859 0
M  V30 2285 C 211.577 5.75414 0.852873 0
M  V30 2286 N 210.553 5.25726 1.3825 0
M  V30 2287 H 214.355 2.92308 0.305537 0
M  V30 2288 H 211.869 1.62256 0.0684276 0
M  V30 2289 H 213.866 3.12285 2.76195 0
M  V30 2290 H 212.526 1.95896 2.5895 0
M  V30 2291 H 213.537 5.13247 0.692669 0
M  V30 2292 H 210.214 3.32075 2.53047 0
M  V30 2293 H 211.604 6.71089 0.330091 0
M  V30 2294 O 214.363 -0.00541248 1.61499 0
M  V30 2295 H 215.054 -0.622816 1.83414 0
M  V30 END ATOM
M  V30 BEGIN BOND
M  V30 END BOND
M  V30 END CTAB
M  END
$$$$
