drugbank_target|P39135 4'-phosphopantetheinyl transferase sfp (DB01992)
 OpenBabel12092120243D

  0  0  0     0  0            999 V3000
M  V30 BEGIN CTAB
M  V30 COUNTS 3632 3680 0 0 0
M  V30 BEGIN ATOM
M  V30 1 H -0.908 1.98254 -0.117106 0
M  V30 2 N 0 1.576 0 0
M  V30 3 C 0.933 2.03868 1.02534 0
M  V30 4 C 1.911 0.928543 1.3348 0
M  V30 5 O 3.095 1.19667 1.45644 0
M  V30 6 C 0.222 2.43627 2.35294 0
M  V30 7 C -0.732 3.65373 2.2001 0
M  V30 8 S 0.101 5.13292 1.52614 0
M  V30 9 C 1.257 5.56322 2.86805 0
M  V30 10 H 1.49 2.90518 0.631377 0
M  V30 11 H -0.977 1.52953 0.210867 0
M  V30 12 H 0.981 2.67203 3.11629 0
M  V30 13 H -0.358 1.57376 2.7183 0
M  V30 14 H -1.165 3.90944 3.18086 0
M  V30 15 H -1.563 3.418 1.51819 0
M  V30 16 H 0.729 5.58782 3.83104 0
M  V30 17 H 1.672 6.56266 2.65933 0
M  V30 18 H 2.08 4.83886 2.90714 0
M  V30 19 N 1.4781 -0.272755 1.55222 0
M  V30 20 C 2.4251 -1.33716 1.88119 0
M  V30 21 C 3.3951 -1.49066 0.73271 0
M  V30 22 O 4.5801 -1.63469 0.984002 0
M  V30 23 C 1.7201 -2.69238 2.15882 0
M  V30 24 C 0.8331 -2.62108 3.43399 0
M  V30 25 C -0.0319 -3.89811 3.60861 0
M  V30 26 C -0.9929 -3.77193 4.8207 0
M  V30 27 N -1.8559 -4.9673 4.96189 0
M  V30 28 H 2.9841 -1.04962 2.78903 0
M  V30 29 H 0.5211 -0.507088 1.38083 0
M  V30 30 H 2.4791 -3.48089 2.29978 0
M  V30 31 H 1.1091 -2.96194 1.28331 0
M  V30 32 H 0.1611 -1.74967 3.37773 0
M  V30 33 H 1.4731 -2.48685 4.32386 0
M  V30 34 H 0.6271 -4.77103 3.74777 0
M  V30 35 H -0.6339 -4.06102 2.7006 0
M  V30 36 H -1.6289 -2.88284 4.68159 0
M  V30 37 H -0.4039 -3.62421 5.74307 0
M  V30 38 H -2.4579 -5.13431 4.08319 0
M  V30 39 H -2.5409 -4.85839 5.79221 0
M  V30 40 H -1.2729 -5.85594 5.1449 0
M  V30 41 N 2.9562 -1.48159 -0.537278 0
M  V30 42 C 4.2052 -1.5506 -1.28993 0
M  V30 43 C 4.5182 -0.226211 -1.94288 0
M  V30 44 O 5.7242 -0.173395 -2.70946 0
M  V30 45 C 4.1802 -2.73429 -2.34018 0
M  V30 46 C 3.7882 -4.1248 -1.74825 0
M  V30 47 C 5.5322 -2.89638 -3.10339 0
M  V30 48 C 3.4392 -5.22121 -2.77747 0
M  V30 49 H 2.3692 -0.577231 -0.485098 0
M  V30 50 H 5.0202 -1.74478 -0.568317 0
M  V30 51 H 3.4022 -2.47431 -3.09182 0
M  V30 52 H 4.5762 -4.48466 -1.05899 0
M  V30 53 H 2.8912 -4.01327 -1.11022 0
M  V30 54 H 5.4882 -3.68718 -3.87235 0
M  V30 55 H 5.8312 -1.9882 -3.65754 0
M  V30 56 H 6.3642 -3.15502 -2.42288 0
M  V30 57 H 3.1032 -6.1488 -2.27161 0
M  V30 58 H 2.6232 -4.90631 -3.45024 0
M  V30 59 H 4.3022 -5.49924 -3.4087 0
M  V30 60 N 4.4343 0.785586 -1.36625 0
M  V30 61 C 5.6643 1.5722 -1.34036 0
M  V30 62 C 6.0723 1.89033 0.0795062 0
M  V30 63 O 5.4153 1.50881 1.04789 0
M  V30 64 C 5.4773 2.91759 -2.10041 0
M  V30 65 C 5.1413 2.82654 -3.59104 0
M  V30 66 C 6.1383 2.54634 -4.53274 0
M  V30 67 C 3.8233 3.01111 -4.02042 0
M  V30 68 C 5.8173 2.45177 -5.88359 0
M  V30 69 C 3.5043 2.91276 -5.37216 0
M  V30 70 C 4.5023 2.63348 -6.30188 0
M  V30 71 O 4.1903 2.53514 -7.6288 0
M  V30 72 H 3.9223 0.494177 -0.461265 0
M  V30 73 H 6.4763 0.982632 -1.8037 0
M  V30 74 H 4.7063 3.52781 -1.58375 0
M  V30 75 H 6.3953 3.53059 -2.00261 0
M  V30 76 H 7.1613 2.40073 -4.21414 0
M  V30 77 H 3.0403 3.21854 -3.30047 0
M  V30 78 H 6.5843 2.23299 -6.60896 0
M  V30 79 H 2.4813 3.054 -5.68684 0
M  V30 80 H 3.2493 2.68967 -7.73045 0
M  V30 81 N 5.9124 1.20967 1.01018 0
M  V30 82 C 7.1604 1.02172 1.74371 0
M  V30 83 C 7.4814 -0.446414 1.89821 0
M  V30 84 O 6.7514 -1.32234 1.44537 0
M  V30 85 H 5.3314 0.375066 0.646014 0
M  V30 86 H 7.9934 1.52187 1.21758 0
M  V30 87 H 7.0894 1.48538 2.74487 0
M  V30 88 N 7.3905 -1.2043 1.01659 0
M  V30 89 C 8.6395 -1.89118 0.701237 0
M  V30 90 C 8.9525 -1.79705 -0.772358 0
M  V30 91 O 10.1585 -2.43528 -1.20026 0
M  V30 92 C 8.6145 -3.39168 1.20388 0
M  V30 93 C 8.2225 -3.57166 2.70438 0
M  V30 94 C 9.9665 -4.1341 0.963953 0
M  V30 95 C 7.8735 -5.01042 3.14183 0
M  V30 96 H 6.8035 -0.708267 0.2586 0
M  V30 97 H 9.4545 -1.36239 1.22927 0
M  V30 98 H 7.8365 -3.91369 0.603824 0
M  V30 99 H 9.0105 -3.15351 3.35992 0
M  V30 100 H 7.3255 -2.96294 2.92572 0
M  V30 101 H 9.9225 -5.19491 1.26621 0
M  V30 102 H 10.2655 -4.16181 -0.099578 0
M  V30 103 H 10.7985 -3.67309 1.52738 0
M  V30 104 H 7.5375 -5.03426 4.19812 0
M  V30 105 H 7.0575 -5.43668 2.53348 0
M  V30 106 H 8.7365 -5.69623 3.0682 0
M  V30 107 N 8.8686 -0.792821 -1.36206 0
M  V30 108 C 10.0986 -0.378275 -2.03107 0
M  V30 109 C 10.5066 1.01119 -1.59911 0
M  V30 110 O 9.8496 1.66052 -0.785658 0
M  V30 111 C 9.9116 -0.366535 -3.57627 0
M  V30 112 C 9.5756 -1.70416 -4.24037 0
M  V30 113 C 10.5726 -2.6602 -4.46687 0
M  V30 114 C 8.2576 -1.98439 -4.6144 0
M  V30 115 C 10.2516 -3.8784 -5.05825 0
M  V30 116 C 7.9386 -3.20525 -5.20295 0
M  V30 117 C 8.9366 -4.15044 -5.42427 0
M  V30 118 O 8.6246 -5.34978 -6.00045 0
M  V30 119 H 8.3566 -0.153543 -0.658332 0
M  V30 120 H 10.9106 -1.07383 -1.75094 0
M  V30 121 H 9.1406 0.385539 -3.84773 0
M  V30 122 H 10.8296 0.0238088 -4.05893 0
M  V30 123 H 11.5956 -2.45658 -4.18183 0
M  V30 124 H 7.4746 -1.25686 -4.43536 0
M  V30 125 H 11.0186 -4.61628 -5.23015 0
M  V30 126 H 6.9156 -3.40764 -5.48225 0
M  V30 127 H 7.6836 -5.36088 -6.18508 0
M  V30 128 N 10.3467 1.47872 -0.545128 0
M  V30 129 C 11.2797 2.2675 0.256885 0
M  V30 130 C 12.2577 1.33293 0.931228 0
M  V30 131 O 13.4417 1.62657 0.95262 0
M  V30 132 C 10.5687 3.09976 1.36501 0
M  V30 133 C 9.6147 4.1892 0.800496 0
M  V30 134 S 10.4477 5.34397 -0.343505 0
M  V30 135 C 11.6037 6.21186 0.766733 0
M  V30 136 H 11.8367 2.94425 -0.412479 0
M  V30 137 H 9.3697 1.50806 -0.331204 0
M  V30 138 H 11.3277 3.585 1.9997 0
M  V30 139 H 9.9887 2.41686 2.00616 0
M  V30 140 H 9.1817 4.76836 1.63227 0
M  V30 141 H 8.7837 3.73215 0.242217 0
M  V30 142 H 11.0757 6.56804 1.66178 0
M  V30 143 H 12.0187 7.07742 0.225204 0
M  V30 144 H 12.4267 5.54574 1.05396 0
M  V30 145 N 11.8248 0.280983 1.55075 0
M  V30 146 C 13.1018 -0.386207 1.91749 0
M  V30 147 C 13.4818 -1.73264 1.20594 0
M  V30 148 O 12.8298 -2.26034 0.334784 0
M  V30 149 C 13.0398 -0.520687 3.45094 0
M  V30 150 C 14.3878 -0.800865 4.16979 0
M  V30 151 O 15.4118 -0.605271 3.5102 0
M  V30 152 O 14.2708 -1.1753 5.33712 0
M  V30 153 H 11.3648 -0.212408 0.799257 0
M  V30 154 H 13.9108 0.327568 1.66509 0
M  V30 155 H 12.6828 0.426633 3.88967 0
M  V30 156 H 12.3058 -1.2837 3.76307 0
M  V30 157 N 13.3029 -1.57598 0.00835791 0
M  V30 158 C 14.7189 -1.55764 -0.347822 0
M  V30 159 C 14.9189 -1.01186 -1.74252 0
M  V30 160 O 13.9749 -0.649371 -2.44007 0
M  V30 161 C 15.2879 -2.99927 -0.215407 0
M  V30 162 C 16.8359 -3.11656 -0.289725 0
M  V30 163 C 17.3109 -4.57621 -0.18634 0
M  V30 164 N 18.8019 -4.62557 -0.243978 0
M  V30 165 C 19.5369 -5.73094 -0.18745 0
M  V30 166 N 19.0329 -6.92753 -0.0810331 0
M  V30 167 N 20.8259 -5.61588 -0.239925 0
M  V30 168 H 12.9769 -1.91411 0.92062 0
M  V30 169 H 15.2399 -0.879562 0.353659 0
M  V30 170 H 14.9459 -3.43729 0.744512 0
M  V30 171 H 14.8199 -3.63865 -0.994097 0
M  V30 172 H 17.2069 -2.67779 -1.24009 0
M  V30 173 H 17.2879 -2.5048 0.51898 0
M  V30 174 H 16.9319 -5.02174 0.760519 0
M  V30 175 H 16.8619 -5.16752 -1.01364 0
M  V30 176 H 19.3529 -3.76481 -0.327217 0
M  V30 177 H 19.6659 -7.72787 -0.0440241 0
M  V30 178 H 18.0109 -6.94984 -0.0465419 0
M  V30 179 H 21.2019 -4.66996 -0.321317 0
M  V30 180 H 21.3749 -6.47714 -0.192407 0
M  V30 181 N 14.781 0.264519 -1.55364 0
M  V30 182 C 16.192 0.834936 -1.6699 0
M  V30 183 C 16.543 1.86718 -0.602552 0
M  V30 184 O 15.668 2.14899 0.254425 0
M  V30 185 C 16.263 1.5212 -3.02729 0
M  V30 186 C 14.822 2.03954 -3.16354 0
M  V30 187 C 13.969 0.884498 -2.62815 0
M  V30 188 H 16.92 0.0406869 -1.58648 0
M  V30 189 H 16.941 2.38853 -2.96191 0
M  V30 190 H 16.453 0.769668 -3.80392 0
M  V30 191 H 14.554 2.82041 -2.43482 0
M  V30 192 H 14.667 2.24902 -4.23032 0
M  V30 193 H 13.031 1.2802 -2.20188 0
M  V30 194 H 13.814 0.14634 -3.42988 0
M  V30 195 N 16.2591 1.48442 0.529413 0
M  V30 196 C 17.1891 1.65902 1.64313 0
M  V30 197 C 18.1701 0.507897 1.6234 0
M  V30 198 O 19.3551 0.740503 1.79528 0
M  V30 199 C 16.4851 1.69911 3.02898 0
M  V30 200 C 15.4391 2.8453 3.19729 0
M  V30 201 C 14.7651 2.73629 4.59381 0
M  V30 202 C 16.0651 4.25821 3.02447 0
M  V30 203 H 17.7591 2.5914 1.49955 0
M  V30 204 H 15.3051 1.24709 0.719982 0
M  V30 205 H 17.2581 1.80715 3.80684 0
M  V30 206 H 15.9821 0.732524 3.18279 0
M  V30 207 H 14.6411 2.73283 2.44361 0
M  V30 208 H 14.2891 1.74938 4.71599 0
M  V30 209 H 13.9891 3.50541 4.71588 0
M  V30 210 H 15.5131 2.86401 5.39265 0
M  V30 211 H 16.9271 4.37898 3.70024 0
M  V30 212 H 15.3241 5.03735 3.26146 0
M  V30 213 H 16.3941 4.42244 1.98867 0
M  V30 214 N 17.7372 -0.778329 1.37039 0
M  V30 215 C 18.9622 -1.57248 1.35233 0
M  V30 216 C 19.3872 -1.87999 -0.0615568 0
M  V30 217 O 18.7452 -1.48734 -1.03672 0
M  V30 218 C 18.7932 -2.86353 2.19167 0
M  V30 219 O 17.8972 -3.80442 1.59178 0
M  V30 220 H 17.2382 -0.476569 0.462362 0
M  V30 221 H 19.7682 -0.963853 1.80474 0
M  V30 222 H 19.7782 -3.35519 2.32145 0
M  V30 223 H 18.4532 -2.63299 3.21942 0
M  V30 224 H 17.0302 -3.39067 1.55203 0
M  V30 225 N 19.2153 -1.21501 -1.00376 0
M  V30 226 C 20.1473 -0.933174 -2.09343 0
M  V30 227 C 21.1603 0.0840896 -1.62583 0
M  V30 228 O 22.3493 -0.148563 -1.77881 0
M  V30 229 C 19.4493 -0.379869 -3.36764 0
M  V30 230 C 18.6223 -1.45176 -4.12605 0
M  V30 231 C 17.6813 -0.907476 -5.18316 0
M  V30 232 O 16.7073 -1.5912 -5.46507 0
M  V30 233 N 17.9093 0.276649 -5.7984 0
M  V30 234 H 20.6743 -1.87124 -2.34104 0
M  V30 235 H 18.2353 -1.12043 -1.16867 0
M  V30 236 H 20.2273 -0.00131488 -4.047 0
M  V30 237 H 18.7973 0.463048 -3.09151 0
M  V30 238 H 18.0173 -2.00411 -3.39454 0
M  V30 239 H 19.3053 -2.17328 -4.6005 0
M  V30 240 H 18.7033 0.849147 -5.59291 0
M  V30 241 H 17.2603 0.596702 -6.49063 0
M  V30 242 N 20.6934 1.19889 -1.02296 0
M  V30 243 C 21.6034 2.26571 -0.608508 0
M  V30 244 C 22.6194 1.70299 0.356964 0
M  V30 245 O 23.7954 2.00235 0.216326 0
M  V30 246 C 20.8604 3.46677 0.0402814 0
M  V30 247 C 19.9214 4.18153 -0.97194 0
M  V30 248 C 19.1544 5.32525 -0.354016 0
M  V30 249 O 19.3774 5.64112 0.844604 0
M  V30 250 O 18.3114 5.92242 -1.07391 0
M  V30 251 H 22.1374 2.64251 -1.49684 0
M  V30 252 H 19.7224 1.26629 -0.792809 0
M  V30 253 H 21.6044 4.19475 0.402324 0
M  V30 254 H 20.2794 3.10858 0.902707 0
M  V30 255 H 19.1864 3.47499 -1.38546 0
M  V30 256 H 20.5194 4.57927 -1.80454 0
M  V30 257 N 22.1715 0.800033 1.35784 0
M  V30 258 C 23.0815 0.207204 2.33683 0
M  V30 259 C 24.0975 -0.64631 1.61551 0
M  V30 260 O 25.2735 -0.559604 1.93469 0
M  V30 261 C 22.3385 -0.639659 3.40748 0
M  V30 262 C 21.3995 0.233585 4.28664 0
M  V30 263 C 20.6325 -0.572954 5.30616 0
M  V30 264 O 20.8555 -1.80816 5.40982 0
M  V30 265 O 19.7895 0.0327285 6.01891 0
M  V30 266 H 23.6155 1.01692 2.86169 0
M  V30 267 H 21.2005 0.561691 1.38439 0
M  V30 268 H 23.0825 -1.12223 4.06182 0
M  V30 269 H 21.7575 -1.42708 2.90544 0
M  V30 270 H 20.6645 0.763147 3.66233 0
M  V30 271 H 21.9975 0.984784 4.82248 0
M  V30 272 N 23.6496 -1.47581 0.552962 0
M  V30 273 C 24.5976 -2.31648 -0.21023 0
M  V30 274 C 25.5916 -1.42663 -0.913432 0
M  V30 275 O 26.7976 -1.5945 -0.835201 0
M  V30 276 H 23.1726 -0.746989 -0.0866676 0
M  V30 277 H 25.1436 -2.93869 0.518051 0
M  V30 278 C 23.8926 -3.25226 -1.22976 0
M  V30 279 H 23.2156 -3.93658 -0.698077 0
M  V30 280 H 24.6556 -3.86889 -1.73473 0
M  V30 281 C 23.1146 -2.48448 -2.27542 0
M  V30 282 O 23.6446 -2.22585 -3.34393 0
M  V30 283 N 21.8506 -2.09532 -2.01357 0
M  V30 284 H 21.3976 -2.30765 -1.14478 0
M  V30 285 H 21.3556 -1.58476 -2.71538 0
M  V30 286 N 25.1277 -0.289203 -1.54924 0
M  V30 287 C 26.0377 0.601863 -2.26748 0
M  V30 288 C 27.0537 1.15834 -1.2984 0
M  V30 289 O 28.2297 1.18564 -1.62802 0
M  V30 290 C 25.2947 1.76299 -2.98529 0
M  V30 291 C 24.3557 1.24178 -4.10948 0
M  V30 292 C 23.5887 2.34757 -4.79296 0
M  V30 293 O 23.8117 3.54411 -4.46933 0
M  V30 294 O 22.7457 2.02115 -5.66951 0
M  V30 295 H 26.5717 0.0195879 -3.03694 0
M  V30 296 H 24.1567 -0.0560868 -1.49295 0
M  V30 297 H 26.0387 2.43973 -3.43592 0
M  V30 298 H 24.7137 2.33209 -2.24488 0
M  V30 299 H 23.6207 0.531104 -3.70311 0
M  V30 300 H 24.9537 0.718252 -4.86931 0
M  V30 301 N 26.6058 1.57591 -0.0167156 0
M  V30 302 C 28.0218 1.55946 0.339557 0
M  V30 303 C 28.2218 1.02109 1.73713 0
M  V30 304 O 27.2778 0.662303 2.43659 0
M  V30 305 C 28.5908 3.00037 0.199499 0
M  V30 306 C 30.1388 3.11805 0.273193 0
M  V30 307 C 30.6138 4.57713 0.162068 0
M  V30 308 N 32.1048 4.6268 0.219444 0
M  V30 309 C 32.8398 5.73185 0.157054 0
M  V30 310 N 32.3358 6.92786 0.0442936 0
M  V30 311 N 34.1288 5.61707 0.21014 0
M  V30 312 H 26.2798 1.90921 -0.930758 0
M  V30 313 H 28.5428 0.877674 -0.358319 0
M  V30 314 H 28.2488 3.4333 -0.76273 0
M  V30 315 H 28.1228 3.64387 0.974786 0
M  V30 316 H 30.5098 2.68433 1.22587 0
M  V30 317 H 30.5908 2.50201 -0.532256 0
M  V30 318 H 30.2348 5.01763 -0.78714 0
M  V30 319 H 30.1648 5.17283 0.986222 0
M  V30 320 H 32.6558 3.76649 0.307246 0
M  V30 321 H 32.9688 7.728 0.00304069 0
M  V30 322 H 31.3138 6.94999 0.00968457 0
M  V30 323 H 34.5048 4.6716 0.296546 0
M  V30 324 H 34.6778 6.47807 0.158054 0
M  V30 325 N 28.0839 -0.256276 1.55502 0
M  V30 326 C 29.3309 -0.985619 1.76895 0
M  V30 327 C 29.6589 -1.85671 0.579355 0
M  V30 328 O 28.9139 -1.90744 -0.437651 0
M  V30 329 C 29.2129 -1.88432 3.03691 0
M  V30 330 C 28.8789 -1.16936 4.35473 0
M  V30 331 C 27.5409 -0.97173 4.71286 0
M  V30 332 C 29.8929 -0.661889 5.1698 0
M  V30 333 C 27.2209 -0.254179 5.86149 0
M  V30 334 C 29.5729 0.042149 6.32586 0
M  V30 335 C 28.2369 0.25134 6.67027 0
M  V30 336 H 27.5069 -0.360663 0.647304 0
M  V30 337 H 30.1539 -0.256483 1.89775 0
M  V30 338 H 28.4589 -2.68021 2.85783 0
M  V30 339 H 30.1559 -2.45015 3.1744 0
M  V30 340 H 26.7459 -1.33332 4.07333 0
M  V30 341 H 30.9299 -0.802145 4.89775 0
M  V30 342 H 26.1859 -0.0815408 6.11346 0
M  V30 343 H 30.3599 0.443049 6.94989 0
M  V30 344 H 27.9869 0.809314 7.5588 0
M  V30 345 N 29.562 -1.4872 -0.521534 0
M  V30 346 C 30.495 -1.58451 -1.64221 0
M  V30 347 C 31.473 -0.434513 -1.56687 0
M  V30 348 O 32.657 -0.647275 -1.77038 0
M  V30 349 C 29.784 -1.52037 -3.02659 0
M  V30 350 C 28.83 -2.71981 -3.28525 0
M  V30 351 S 29.663 -4.33869 -3.13876 0
M  V30 352 C 30.819 -4.30067 -4.54745 0
M  V30 353 H 31.052 -2.53256 -1.55719 0
M  V30 354 H 28.585 -1.37358 -0.705143 0
M  V30 355 H 30.543 -1.49023 -3.82495 0
M  V30 356 H 29.204 -0.585541 -3.08594 0
M  V30 357 H 28.397 -2.63656 -4.29536 0
M  V30 358 H 27.999 -2.72302 -2.56374 0
M  V30 359 H 30.291 -4.00521 -5.46433 0
M  V30 360 H 31.234 -5.31287 -4.68123 0
M  V30 361 H 31.642 -3.60419 -4.34463 0
M  V30 362 N 31.0401 0.771051 -1.3745 0
M  V30 363 C 32.2651 1.56529 -1.36065 0
M  V30 364 C 32.6901 1.88029 0.0515859 0
M  V30 365 O 32.0481 1.49282 1.02882 0
M  V30 366 C 32.0961 2.85187 -2.20683 0
M  V30 367 O 31.2001 3.79593 -1.61193 0
M  V30 368 H 30.5411 0.47411 -0.464883 0
M  V30 369 H 33.0711 0.954269 -1.80983 0
M  V30 370 H 33.0811 3.34283 -2.33921 0
M  V30 371 H 31.7561 2.61588 -3.23334 0
M  V30 372 H 30.3331 3.38239 -1.56999 0
M  V30 373 N 32.5182 1.22032 0.997298 0
M  V30 374 C 33.7652 1.04222 1.73621 0
M  V30 375 C 34.0932 -0.423264 1.89839 0
M  V30 376 O 33.3482 -1.3302 1.43542 0
M  V30 377 C 33.6472 1.69345 3.14733 0
M  V30 378 C 33.3132 3.19226 3.18442 0
M  V30 379 C 31.9752 3.60124 3.19161 0
M  V30 380 C 34.3272 4.15181 3.15078 0
M  V30 381 C 31.6552 4.95467 3.14212 0
M  V30 382 C 34.0072 5.50495 3.1167 0
M  V30 383 C 32.6712 5.90779 3.10703 0
M  V30 384 H 31.9412 0.381374 0.635323 0
M  V30 385 H 34.5882 1.51732 1.16831 0
M  V30 386 H 32.8932 1.14147 3.74803 0
M  V30 387 H 34.5902 1.53059 3.7064 0
M  V30 388 H 31.1802 2.86659 3.18629 0
M  V30 389 H 35.3642 3.84605 3.13676 0
M  V30 390 H 30.6202 5.25916 3.11805 0
M  V30 391 H 34.7942 6.24576 3.08022 0
M  V30 392 H 32.4212 6.9562 3.06622 0
M  V30 393 N 33.9963 -1.19345 1.0293 0
M  V30 394 C 35.2453 -1.88363 0.721256 0
M  V30 395 C 35.5583 -1.80514 -0.753254 0
M  V30 396 O 36.7643 -2.44788 -1.17436 0
M  V30 397 C 35.2203 -3.37872 1.23978 0
M  V30 398 C 34.8283 -3.54278 2.74211 0
M  V30 399 C 36.5723 -4.12365 1.00775 0
M  V30 400 C 34.4793 -4.97682 3.19479 0
M  V30 401 H 33.4093 -0.705484 0.266098 0
M  V30 402 H 36.0603 -1.34928 1.24365 0
M  V30 403 H 34.4423 -3.90707 0.6453 0
M  V30 404 H 35.6163 -3.11769 3.39318 0
M  V30 405 H 33.9313 -2.93174 2.95699 0
M  V30 406 H 36.5283 -5.18119 1.32123 0
M  V30 407 H 36.8713 -4.16263 -0.0554308 0
M  V30 408 H 37.4043 -3.65668 1.56625 0
M  V30 409 H 34.1433 -4.98945 4.25128 0
M  V30 410 H 33.6633 -5.4095 2.591 0
M  V30 411 H 35.3423 -5.66337 3.12845 0
M  V30 412 N 35.4744 -0.807222 -1.35358 0
M  V30 413 C 36.6994 -0.399309 -2.0352 0
M  V30 414 C 37.1244 0.981986 -1.60433 0
M  V30 415 O 36.4824 1.63601 -0.781299 0
M  V30 416 C 36.5304 -0.491552 -3.57234 0
M  V30 417 O 35.6344 0.494754 -4.09421 0
M  V30 418 H 34.9754 -0.166682 -0.642739 0
M  V30 419 H 37.5054 -1.09328 -1.72941 0
M  V30 420 H 37.5154 -0.361588 -4.06395 0
M  V30 421 H 36.1904 -1.49907 -3.87944 0
M  V30 422 H 34.7674 0.324977 -3.71481 0
M  V30 423 N 36.9525 1.47285 -0.560781 0
M  V30 424 C 38.3635 1.86258 -0.128343 0
M  V30 425 C 38.7145 1.46699 1.30284 0
M  V30 426 O 37.8395 0.871698 1.98067 0
M  V30 427 C 38.4345 3.38044 -0.22614 0
M  V30 428 C 36.9935 3.76096 0.151283 0
M  V30 429 C 36.1405 2.71335 -0.572084 0
M  V30 430 H 39.0915 1.38752 -0.770297 0
M  V30 431 H 39.1125 3.76441 0.554322 0
M  V30 432 H 38.6245 3.66806 -1.26788 0
M  V30 433 H 36.7255 3.52951 1.19399 0
M  V30 434 H 36.8385 4.78641 -0.209765 0
M  V30 435 H 35.2025 2.54696 -0.0147653 0
M  V30 436 H 35.9855 3.02938 -1.61504 0
M  V30 437 N 38.4306 0.297415 1.54768 0
M  V30 438 C 39.3406 -0.58983 2.27064 0
M  V30 439 C 40.3566 -1.15144 1.30453 0
M  V30 440 O 41.5326 -1.17699 1.63428 0
M  V30 441 C 38.5976 -1.74714 2.9946 0
M  V30 442 C 37.6586 -1.21997 4.11601 0
M  V30 443 C 36.8916 -2.32212 4.80535 0
M  V30 444 O 37.1146 -3.52036 4.48806 0
M  V30 445 O 36.0486 -1.99106 5.68014 0
M  V30 446 H 39.8746 -0.00348199 3.037 0
M  V30 447 H 37.4596 0.0640035 1.49263 0
M  V30 448 H 39.3416 -2.42147 3.44881 0
M  V30 449 H 38.0166 -2.32016 2.25722 0
M  V30 450 H 36.9236 -0.511458 3.70587 0
M  V30 451 H 38.2566 -0.692419 4.87305 0
M  V30 452 N 39.9087 -1.5758 0.0250728 0
M  V30 453 C 40.8557 -2.09973 -0.958129 0
M  V30 454 C 41.8257 -1.00085 -1.3256 0
M  V30 455 O 43.0107 -1.27481 -1.41962 0
M  V30 456 C 40.1507 -2.62812 -2.2366 0
M  V30 457 C 39.2637 -3.86693 -1.92594 0
M  V30 458 C 38.3987 -4.27941 -3.14707 0
M  V30 459 C 37.4377 -5.44591 -2.79442 0
M  V30 460 N 36.5747 -5.81014 -3.94167 0
M  V30 461 H 41.4147 -2.937 -0.504428 0
M  V30 462 H 38.9517 -1.45172 -0.237392 0
M  V30 463 H 40.9097 -2.91536 -2.98434 0
M  V30 464 H 39.5397 -1.81922 -2.66654 0
M  V30 465 H 38.5917 -3.64723 -1.0808 0
M  V30 466 H 39.9037 -4.71547 -1.62619 0
M  V30 467 H 39.0577 -4.58079 -3.97804 0
M  V30 468 H 37.7967 -3.41845 -3.4784 0
M  V30 469 H 36.8017 -5.1415 -1.94755 0
M  V30 470 H 38.0267 -6.32382 -2.47528 0
M  V30 471 H 35.9727 -4.97874 -4.2715 0
M  V30 472 H 35.8897 -6.60498 -3.67801 0
M  V30 473 H 37.1577 -6.15756 -4.7798 0
M  V30 474 N 41.3868 0.248026 -1.55636 0
M  V30 475 C 42.8028 0.596483 -1.48035 0
M  V30 476 C 43.0028 1.88386 -0.715039 0
M  V30 477 O 42.0588 2.51319 -0.243944 0
M  V30 478 C 43.3718 0.700258 -2.92433 0
M  V30 479 C 44.9198 0.792659 -3.02797 0
M  V30 480 C 45.3948 0.928005 -4.485 0
M  V30 481 N 46.8858 0.992903 -4.52433 0
M  V30 482 C 47.6208 1.11687 -5.62418 0
M  V30 483 N 47.1168 1.20645 -6.82214 0
M  V30 484 N 48.9098 1.14994 -5.50212 0
M  V30 485 H 41.0608 -0.597109 -2.03834 0
M  V30 486 H 43.3238 -0.205925 -0.925364 0
M  V30 487 H 43.0298 -0.175658 -3.51261 0
M  V30 488 H 42.9038 1.57255 -3.42857 0
M  V30 489 H 45.2908 1.65903 -2.4405 0
M  V30 490 H 45.3718 -0.104762 -2.55585 0
M  V30 491 H 45.0158 0.0661971 -5.07857 0
M  V30 492 H 44.9458 1.84045 -4.93391 0
M  V30 493 H 47.4368 0.935064 -3.66149 0
M  V30 494 H 47.7498 1.30008 -7.61786 0
M  V30 495 H 46.0948 1.17605 -6.84977 0
M  V30 496 H 49.2858 1.07643 -4.55555 0
M  V30 497 H 49.4588 1.24311 -6.35965 0
M  V30 498 N 42.8649 1.48995 0.513639 0
M  V30 499 C 43.7749 1.67443 1.64317 0
M  V30 500 C 44.7909 0.556947 1.64846 0
M  V30 501 O 45.9669 0.830082 1.83498 0
M  V30 502 C 43.0319 1.72515 3.00732 0
M  V30 503 C 42.0929 2.96009 3.1093 0
M  V30 504 C 41.3259 3.00829 4.40837 0
M  V30 505 O 41.5489 2.13594 5.28898 0
M  V30 506 O 40.4829 3.93168 4.55744 0
M  V30 507 H 44.3089 2.63106 1.51687 0
M  V30 508 H 41.8939 1.32588 0.688543 0
M  V30 509 H 43.7759 1.78277 3.81831 0
M  V30 510 H 42.4509 0.800278 3.13651 0
M  V30 511 H 41.3579 2.9577 2.29065 0
M  V30 512 H 42.6909 3.87934 3.02933 0
M  V30 513 N 44.343 -0.763751 1.37857 0
M  V30 514 C 45.29 -1.87726 1.34267 0
M  V30 515 C 46.26 -1.64807 0.206879 0
M  V30 516 O 47.445 -1.86613 0.397508 0
M  V30 517 C 44.585 -3.24896 1.16346 0
M  V30 518 C 43.698 -3.59716 2.39225 0
M  V30 519 C 42.833 -4.86137 2.14114 0
M  V30 520 C 41.872 -5.13711 3.32817 0
M  V30 521 N 41.009 -6.31323 3.07206 0
M  V30 522 H 45.849 -1.90129 2.29466 0
M  V30 523 H 43.386 -0.929433 1.14017 0
M  V30 524 H 45.344 -4.04036 1.03975 0
M  V30 525 H 43.974 -3.21847 0.247909 0
M  V30 526 H 43.026 -2.75498 2.62307 0
M  V30 527 H 44.338 -3.76027 3.27728 0
M  V30 528 H 43.492 -5.73198 1.9882 0
M  V30 529 H 42.231 -4.71945 1.22961 0
M  V30 530 H 41.236 -4.25123 3.48641 0
M  V30 531 H 42.461 -5.29807 4.24832 0
M  V30 532 H 40.407 -6.18474 2.1869 0
M  V30 533 H 40.324 -6.48087 3.89254 0
M  V30 534 H 41.592 -7.213 2.95546 0
M  V30 535 N 45.8211 -1.22559 -0.990812 0
M  V30 536 C 47.0611 -1.06302 -1.74583 0
M  V30 537 C 47.4251 0.394737 -1.87898 0
M  V30 538 O 48.6261 0.678214 -2.60103 0
M  V30 539 C 46.8971 -1.75699 -3.11231 0
M  V30 540 S 48.4561 -1.74882 -4.02445 0
M  V30 541 H 45.2741 -0.380639 -0.600529 0
M  V30 542 H 47.8761 -1.55532 -1.18449 0
M  V30 543 H 46.5801 -2.80923 -2.99183 0
M  V30 544 H 46.1111 -1.26708 -3.72436 0
M  V30 545 H 48.1261 -0.799997 -4.89709 0
M  V30 546 N 47.2992 1.18797 -1.03562 0
M  V30 547 C 48.7152 1.40671 -0.753917 0
M  V30 548 C 48.9152 1.9043 0.658686 0
M  V30 549 O 47.9712 2.08538 1.42366 0
M  V30 550 C 49.2842 2.41192 -1.79574 0
M  V30 551 C 50.8322 2.54928 -1.81606 0
M  V30 552 C 51.3072 3.58709 -2.84766 0
M  V30 553 N 52.7982 3.66212 -2.83625 0
M  V30 554 C 53.5332 4.46225 -3.60098 0
M  V30 555 N 53.0292 5.29888 -4.46308 0
M  V30 556 N 54.8222 4.40939 -3.4861 0
M  V30 557 H 46.9732 0.848221 -1.94728 0
M  V30 558 H 49.2362 0.435081 -0.842264 0
M  V30 559 H 48.9422 2.11669 -2.80872 0
M  V30 560 H 48.8162 3.40467 -1.62365 0
M  V30 561 H 51.2032 2.83771 -0.809817 0
M  V30 562 H 51.2842 1.55784 -2.02891 0
M  V30 563 H 50.9282 3.30607 -3.85566 0
M  V30 564 H 50.8582 4.57519 -2.60737 0
M  V30 565 H 53.3492 3.06466 -2.21105 0
M  V30 566 H 53.6622 5.88078 -5.01382 0
M  V30 567 H 52.0072 5.29326 -4.50377 0
M  V30 568 H 55.1982 3.74624 -2.80668 0
M  V30 569 H 55.3712 5.03056 -4.08459 0
M  V30 570 N 48.7773 0.814389 1.34928 0
M  V30 571 C 50.1933 0.499084 1.51596 0
M  V30 572 C 50.3933 -0.978319 1.76157 0
M  V30 573 O 49.4493 -1.76309 1.80752 0
M  V30 574 C 50.7623 1.35121 2.68631 0
M  V30 575 C 52.3103 1.34746 2.82511 0
M  V30 576 C 52.7853 2.18388 4.0258 0
M  V30 577 N 54.2763 2.15966 4.09772 0
M  V30 578 C 55.0113 2.77437 5.01813 0
M  V30 579 N 54.5073 3.47866 5.99134 0
M  V30 580 N 56.3003 2.67037 4.94619 0
M  V30 581 H 48.4513 1.7711 1.17243 0
M  V30 582 H 50.7143 0.754256 0.574284 0
M  V30 583 H 50.4203 2.40001 2.57085 0
M  V30 584 H 50.2943 1.00991 3.63429 0
M  V30 585 H 52.6813 0.30648 2.93504 0
M  V30 586 H 52.7623 1.72869 1.88547 0
M  V30 587 H 52.4063 3.2253 3.92347 0
M  V30 588 H 52.3363 1.77621 4.9574 0
M  V30 589 H 54.8273 1.64729 3.40107 0
M  V30 590 H 55.1403 3.92038 6.65977 0
M  V30 591 H 53.4853 3.51972 5.99284 0
M  V30 592 H 56.6763 2.11597 4.17546 0
M  V30 593 H 56.8493 3.15232 5.66156 0
M  V30 594 N 50.2554 -1.46986 0.568584 0
M  V30 595 C 51.5024 -2.02441 0.0487986 0
M  V30 596 C 51.8304 -1.44169 -1.30559 0
M  V30 597 O 51.0854 -0.591213 -1.86556 0
M  V30 598 C 51.3844 -3.57306 -0.081836 0
M  V30 599 C 51.0504 -4.34552 1.20313 0
M  V30 600 C 49.7124 -4.55376 1.5552 0
M  V30 601 C 52.0644 -4.79016 2.05411 0
M  V30 602 C 49.3924 -5.17913 2.7565 0
M  V30 603 C 51.7444 -5.42879 3.24754 0
M  V30 604 C 50.4084 -5.61933 3.60261 0
M  V30 605 H 49.6784 -0.740785 0.0178567 0
M  V30 606 H 52.3254 -1.76525 0.742384 0
M  V30 607 H 50.6304 -3.8228 -0.858463 0
M  V30 608 H 52.3274 -3.97876 -0.499546 0
M  V30 609 H 48.9174 -4.18631 0.919014 0
M  V30 610 H 53.1014 -4.62696 1.79516 0
M  V30 611 H 48.3574 -5.30858 3.03315 0
M  V30 612 H 52.5314 -5.76293 3.90973 0
M  V30 613 H 50.1584 -6.10161 4.53439 0
M  V30 614 N 51.7335 -0.305618 -1.54608 0
M  V30 615 C 52.9635 0.304333 -2.04346 0
M  V30 616 C 53.3715 1.47715 -1.18224 0
M  V30 617 O 52.7145 1.82591 -0.201577 0
M  V30 618 C 52.7765 0.819031 -3.50046 0
M  V30 619 C 52.4405 -0.22912 -4.56425 0
M  V30 620 C 53.4375 -1.05914 -5.08997 0
M  V30 621 C 51.1225 -0.372148 -5.0092 0
M  V30 622 C 53.1165 -2.01809 -6.04609 0
M  V30 623 C 50.8035 -1.33454 -5.9635 0
M  V30 624 C 51.8015 -2.15599 -6.48079 0
M  V30 625 O 51.4895 -3.10205 -7.41639 0
M  V30 626 H 51.2215 0.0693996 -0.672428 0
M  V30 627 H 53.7755 -0.444548 -2.00532 0
M  V30 628 H 52.0055 1.61852 -3.51199 0
M  V30 629 H 53.6945 1.34537 -3.82955 0
M  V30 630 H 54.4605 -0.959538 -4.75413 0
M  V30 631 H 50.3395 0.257304 -4.60281 0
M  V30 632 H 53.8835 -2.65966 -6.44909 0
M  V30 633 H 49.7805 -1.43485 -6.29351 0
M  V30 634 H 50.5485 -3.05237 -7.59455 0
M  V30 635 N 53.2116 1.57565 -0.0334293 0
M  V30 636 C 54.1616 2.06978 0.956237 0
M  V30 637 C 55.1456 0.971193 1.28283 0
M  V30 638 O 56.3376 1.23471 1.26822 0
M  V30 639 C 53.4666 2.60393 2.23719 0
M  V30 640 C 52.5526 3.7719 1.93877 0
M  V30 641 N 52.9436 4.87639 1.34321 0
M  V30 642 C 51.2416 3.85758 2.23845 0
M  V30 643 C 51.9426 5.68825 1.21709 0
M  V30 644 N 50.9186 5.1587 1.71404 0
M  V30 645 H 54.7206 2.89773 0.490815 0
M  V30 646 H 52.2346 1.61492 0.171478 0
M  V30 647 H 54.2316 2.94088 2.95496 0
M  V30 648 H 52.8916 1.79031 2.70884 0
M  V30 649 H 53.9026 5.07803 1.01767 0
M  V30 650 H 50.5796 3.1531 2.73653 0
M  V30 651 H 51.9696 6.67631 0.75621 0
M  V30 652 N 54.6897 -0.239769 1.55765 0
M  V30 653 C 55.6367 -1.29696 1.90913 0
M  V30 654 C 56.6067 -1.47478 0.764164 0
M  V30 655 O 57.7917 -1.61345 1.01845 0
M  V30 656 C 54.9317 -2.64598 2.21544 0
M  V30 657 C 54.0447 -2.54765 3.48882 0
M  V30 658 C 53.1797 -3.82069 3.69049 0
M  V30 659 C 52.2187 -3.66883 4.89963 0
M  V30 660 N 51.3557 -4.86094 5.06614 0
M  V30 661 H 56.1957 -0.990224 2.81067 0
M  V30 662 H 53.7327 -0.477684 1.39128 0
M  V30 663 H 55.6907 -3.43132 2.3731 0
M  V30 664 H 54.3207 -2.93405 1.34585 0
M  V30 665 H 53.3727 -1.67763 3.41409 0
M  V30 666 H 54.6847 -2.39457 4.37563 0
M  V30 667 H 53.8387 -4.69046 3.84812 0
M  V30 668 H 52.5777 -4.00282 2.78614 0
M  V30 669 H 51.5827 -2.78289 4.74168 0
M  V30 670 H 52.8077 -3.50157 5.81865 0
M  V30 671 H 50.7537 -5.04655 4.19117 0
M  V30 672 H 50.6707 -4.73443 5.89396 0
M  V30 673 H 51.9387 -5.74549 5.26795 0
M  V30 674 N 56.1678 -1.49265 -0.50573 0
M  V30 675 C 57.0778 -1.68312 -1.63427 0
M  V30 676 C 58.0938 -0.565682 -1.64548 0
M  V30 677 O 59.2698 -0.839801 -1.83055 0
M  V30 678 C 56.3348 -1.74107 -2.99813 0
M  V30 679 C 55.3958 -2.97653 -3.09356 0
M  V30 680 C 54.6288 -3.03163 -4.39236 0
M  V30 681 O 54.8518 -2.16396 -5.27758 0
M  V30 682 O 53.7858 -3.9558 -4.53652 0
M  V30 683 H 57.6118 -2.63907 -1.50289 0
M  V30 684 H 55.1968 -1.32951 -0.681502 0
M  V30 685 H 57.0788 -1.803 -3.80881 0
M  V30 686 H 55.7538 -0.816901 -3.13223 0
M  V30 687 H 54.6608 -2.96981 -2.27493 0
M  V30 688 H 55.9938 -3.89535 -3.00871 0
M  V30 689 N 57.6459 0.756429 -1.3826 0
M  V30 690 C 58.9229 1.50584 -1.24835 0
M  V30 691 C 59.3029 2.10556 0.151485 0
M  V30 692 O 58.6509 1.96825 1.1607 0
M  V30 693 C 58.8609 2.57448 -2.3563 0
M  V30 694 C 60.2089 3.24429 -2.73917 0
M  V30 695 O 61.2329 2.67751 -2.34921 0
M  V30 696 O 60.0919 4.26937 -3.41156 0
M  V30 697 H 57.1859 0.667664 -0.48801 0
M  V30 698 H 59.7319 0.792083 -1.5008 0
M  V30 699 H 58.5039 2.11362 -3.29305 0
M  V30 700 H 58.1269 3.36408 -2.11933 0
M  V30 701 N 59.124 1.23083 0.984299 0
M  V30 702 C 60.087 1.00979 2.05757 0
M  V30 703 C 61.087 -0.0269573 1.60777 0
M  V30 704 O 62.277 0.212403 1.729 0
M  V30 705 C 59.409 0.527072 3.36801 0
M  V30 706 H 60.602 1.9622 2.26799 0
M  V30 707 H 58.155 1.05072 1.15714 0
M  V30 708 H 58.89 -0.429294 3.21446 0
M  V30 709 H 58.675 1.27515 3.70786 0
M  V30 710 H 60.165 0.392942 4.15747 0
M  V30 711 N 60.6021 -1.18246 1.0419 0
M  V30 712 C 61.5521 -2.19843 0.604392 0
M  V30 713 C 62.5361 -1.56962 -0.353814 0
M  V30 714 O 63.7281 -1.76156 -0.17267 0
M  V30 715 C 60.8571 -3.43287 -0.0298975 0
M  V30 716 C 59.9431 -4.13288 0.951531 0
M  V30 717 N 60.3341 -4.59271 2.11906 0
M  V30 718 C 58.6321 -4.39165 0.7778 0
M  V30 719 C 59.3331 -5.13173 2.73912 0
M  V30 720 N 58.3091 -5.04763 2.01779 0
M  V30 721 H 62.1111 -2.53089 1.4941 0
M  V30 722 H 59.6251 -1.34465 0.910658 0
M  V30 723 H 61.6221 -4.15334 -0.361037 0
M  V30 724 H 60.2821 -3.11537 -0.915127 0
M  V30 725 H 61.2931 -4.5368 2.49789 0
M  V30 726 H 57.9701 -4.17461 -0.0572331 0
M  V30 727 H 59.3601 -5.58947 3.72864 0
M  V30 728 N 62.0802 -0.821533 -1.34494 0
M  V30 729 C 63.4962 -0.507117 -1.51329 0
M  V30 730 C 63.6962 0.968964 -1.76673 0
M  V30 731 O 62.7522 1.75348 -1.81685 0
M  V30 732 C 64.0652 -1.36544 -2.67911 0
M  V30 733 C 65.6132 -1.36242 -2.81793 0
M  V30 734 C 66.0882 -2.2052 -4.01416 0
M  V30 735 N 67.5792 -2.18136 -4.08621 0
M  V30 736 C 68.3142 -2.80095 -5.00334 0
M  V30 737 N 67.8102 -3.51039 -5.9728 0
M  V30 738 N 69.6032 -2.69656 -4.93196 0
M  V30 739 H 61.7542 -1.77729 -1.16302 0
M  V30 740 H 64.0172 -0.757291 -0.570276 0
M  V30 741 H 63.7232 -2.41361 -2.55808 0
M  V30 742 H 63.5972 -1.02917 -3.62888 0
M  V30 743 H 65.9842 -0.322041 -2.93338 0
M  V30 744 H 66.0652 -1.73866 -1.87628 0
M  V30 745 H 65.7092 -3.24607 -3.90631 0
M  V30 746 H 65.6392 -1.80247 -4.94791 0
M  V30 747 H 68.1302 -1.6653 -3.39229 0
M  V30 748 H 68.4432 -3.95565 -6.63889 0
M  V30 749 H 66.7882 -3.55145 -5.97409 0
M  V30 750 H 69.9792 -2.13808 -4.16418 0
M  V30 751 H 70.1522 -3.1823 -5.64476 0
M  V30 752 N 63.5583 1.46682 -0.576371 0
M  V30 753 C 64.7863 2.06798 -0.0649635 0
M  V30 754 C 65.2013 1.42612 1.23723 0
M  V30 755 O 64.5583 0.529203 1.74659 0
M  V30 756 C 64.6093 3.6132 0.114202 0
M  V30 757 O 64.3303 4.23104 -1.13644 0
M  V30 758 C 65.8313 4.38349 0.66069 0
M  V30 759 H 63.0513 0.668778 -0.0545616 0
M  V30 760 H 65.5953 1.88404 -0.795237 0
M  V30 761 H 63.7503 3.79162 0.794673 0
M  V30 762 H 64.1643 5.15894 -0.946253 0
M  V30 763 H 65.6383 5.47081 0.73526 0
M  V30 764 H 66.1153 4.05953 1.67627 0
M  V30 765 H 66.7213 4.25297 0.0152951 0
M  V30 766 N 65.0364 0.313813 1.54444 0
M  V30 767 C 65.9664 -0.549454 2.26943 0
M  V30 768 C 66.9474 -1.12741 1.27372 0
M  V30 769 O 68.1324 -1.15436 1.56167 0
M  V30 770 C 65.2624 -1.71523 3.01989 0
M  V30 771 C 64.2164 -1.26703 4.08816 0
M  V30 772 C 63.5424 -2.51898 4.71647 0
M  V30 773 C 64.8424 -0.388962 5.2085 0
M  V30 774 H 66.5364 0.0552661 2.99349 0
M  V30 775 H 64.0824 0.0280207 1.43973 0
M  V30 776 H 66.0354 -2.32535 3.51433 0
M  V30 777 H 64.7594 -2.34639 2.27183 0
M  V30 778 H 63.4184 -0.679896 3.6024 0
M  V30 779 H 63.0664 -3.13356 3.93468 0
M  V30 780 H 62.7664 -2.22605 5.43802 0
M  V30 781 H 64.2904 -3.1369 5.23861 0
M  V30 782 H 65.7044 -0.905107 5.6611 0
M  V30 783 H 64.1014 -0.18924 5.99802 0
M  V30 784 H 65.1714 0.582699 4.81386 0
M  V30 785 N 66.5145 -1.57545 0.0417849 0
M  V30 786 C 67.4445 -2.14009 -0.933929 0
M  V30 787 C 68.4255 -1.05938 -1.33083 0
M  V30 788 O 69.6105 -1.33833 -1.40721 0
M  V30 789 C 66.7405 -2.67747 -2.21199 0
M  V30 790 C 65.6945 -3.80718 -1.95544 0
M  V30 791 C 65.0205 -4.20935 -3.29724 0
M  V30 792 C 66.3205 -5.06258 -1.28452 0
M  V30 793 H 68.0145 -2.95788 -0.463645 0
M  V30 794 H 65.5605 -1.42285 -0.221573 0
M  V30 795 H 67.5135 -3.05886 -2.89848 0
M  V30 796 H 66.2375 -1.83147 -2.70416 0
M  V30 797 H 64.8965 -3.43037 -1.2931 0
M  V30 798 H 64.5445 -3.33298 -3.76724 0
M  V30 799 H 64.2445 -4.9707 -3.13361 0
M  V30 800 H 65.7685 -4.61666 -3.9962 0
M  V30 801 H 67.1825 -5.41903 -1.8712 0
M  V30 802 H 65.5795 -5.87475 -1.22445 0
M  V30 803 H 66.6495 -4.84207 -0.259219 0
M  V30 804 N 67.9926 0.231505 -1.5589 0
M  V30 805 C 69.2406 0.955461 -1.78088 0
M  V30 806 C 69.5616 1.85262 -0.608533 0
M  V30 807 O 68.8316 1.92277 0.375035 0
M  V30 808 H 67.4116 0.355787 -0.656829 0
M  V30 809 H 70.0736 0.245751 -1.93344 0
M  V30 810 H 69.1696 1.56814 -2.69844 0
M  V30 811 N 69.4707 1.49531 0.497807 0
M  V30 812 C 70.7477 1.49682 1.25915 0
M  V30 813 C 71.1277 0.226339 2.09883 0
M  V30 814 O 70.4757 -0.791189 2.14365 0
M  V30 815 C 70.6857 2.77755 2.11313 0
M  V30 816 C 72.0337 3.27371 2.70395 0
M  V30 817 O 73.0577 2.78894 2.21578 0
M  V30 818 O 71.9167 4.11808 3.59272 0
M  V30 819 H 69.0107 0.599228 0.56996 0
M  V30 820 H 71.5567 1.61798 0.511816 0
M  V30 821 H 70.3287 3.61713 1.49264 0
M  V30 822 H 69.9517 2.68515 2.93233 0
M  V30 823 N 70.9488 -0.749086 1.3866 0
M  V30 824 C 72.1948 -1.51056 1.35314 0
M  V30 825 C 72.5278 -1.94121 -0.0553751 0
M  V30 826 O 71.8028 -1.65763 -1.01749 0
M  V30 827 C 72.0858 -2.76003 2.31288 0
M  V30 828 C 71.9388 -2.39047 3.8102 0
M  V30 829 C 73.2578 -3.78046 2.2532 0
M  V30 830 H 70.3768 -0.547972 0.492844 0
M  V30 831 H 73.0188 -0.857628 1.69543 0
M  V30 832 H 71.1688 -3.31716 2.02229 0
M  V30 833 H 72.8408 -1.89074 4.20771 0
M  V30 834 H 71.0838 -1.71449 3.98482 0
M  V30 835 H 71.7548 -3.28462 4.4364 0
M  V30 836 H 74.2308 -3.31884 2.50983 0
M  V30 837 H 73.1068 -4.63159 2.94576 0
M  V30 838 H 73.3678 -4.23957 1.25352 0
M  V30 839 N 72.4269 -1.23603 -0.977757 0
M  V30 840 C 73.3569 -1.04401 -2.0886 0
M  V30 841 C 74.3379 0.0399052 -1.70053 0
M  V30 842 O 75.5229 -0.125246 -1.93796 0
M  V30 843 C 72.6529 -0.637269 -3.41403 0
M  V30 844 C 71.6069 -1.66883 -3.94124 0
M  V30 845 C 70.9329 -1.11745 -5.22893 0
M  V30 846 C 72.2329 -3.06247 -4.23096 0
M  V30 847 H 73.9269 -1.97316 -2.25182 0
M  V30 848 H 71.4729 -0.950096 -1.08209 0
M  V30 849 H 73.4259 -0.48998 -4.18542 0
M  V30 850 H 72.1499 0.327557 -3.24953 0
M  V30 851 H 70.8089 -1.80416 -3.19133 0
M  V30 852 H 70.4569 -0.143527 -5.02795 0
M  V30 853 H 70.1569 -1.80672 -5.59134 0
M  V30 854 H 71.6809 -0.982067 -6.02651 0
M  V30 855 H 73.0949 -2.96001 -4.90975 0
M  V30 856 H 71.4919 -3.72436 -4.70544 0
M  V30 857 H 72.5619 -3.55041 -3.30263 0
M  V30 858 N 73.905 1.17692 -1.04816 0
M  V30 859 C 75.151 1.88137 -0.75711 0
M  V30 860 C 75.484 1.80604 0.713841 0
M  V30 861 O 74.759 1.21146 1.52164 0
M  V30 862 C 75.042 3.38318 -1.2334 0
M  V30 863 C 74.895 3.54622 -2.76701 0
M  V30 864 C 76.214 4.32214 -0.829415 0
M  V30 865 H 73.333 0.683163 -0.27651 0
M  V30 866 H 75.975 1.38424 -1.30149 0
M  V30 867 H 74.125 3.80787 -0.770286 0
M  V30 868 H 75.797 3.21194 -3.31107 0
M  V30 869 H 74.04 2.97026 -3.16161 0
M  V30 870 H 74.711 4.60028 -3.05088 0
M  V30 871 H 77.187 3.97565 -1.22805 0
M  V30 872 H 76.063 5.35838 -1.19033 0
M  V30 873 H 76.324 4.41294 0.266891 0
M  V30 874 N 75.3831 0.828654 1.34056 0
M  V30 875 C 76.7991 0.515135 1.51058 0
M  V30 876 C 76.9991 -0.959581 1.77184 0
M  V30 877 O 76.0551 -1.74382 1.82612 0
M  V30 878 C 77.3681 1.37963 2.67183 0
M  V30 879 C 78.9161 1.37735 2.81066 0
M  V30 880 C 79.3911 2.22645 4.00241 0
M  V30 881 N 80.8821 2.203 4.07458 0
M  V30 882 C 81.6171 2.82744 4.98842 0
M  V30 883 N 81.1131 3.54201 5.9541 0
M  V30 884 N 82.9061 2.72268 4.91759 0
M  V30 885 H 75.0571 1.78343 1.15358 0
M  V30 886 H 77.3201 0.760304 0.566252 0
M  V30 887 H 77.0261 2.42714 2.54525 0
M  V30 888 H 76.9001 1.0484 3.62338 0
M  V30 889 H 79.2871 0.337593 2.93163 0
M  V30 890 H 79.3681 1.74859 1.86703 0
M  V30 891 H 79.0121 3.26674 3.88905 0
M  V30 892 H 78.9421 1.82869 4.93829 0
M  V30 893 H 81.4331 1.68327 3.38341 0
M  V30 894 H 81.7461 3.9908 6.61782 0
M  V30 895 H 80.0911 3.58308 5.95517 0
M  V30 896 H 83.2821 2.16014 4.15278 0
M  V30 897 H 83.4551 3.21219 5.62781 0
M  V30 898 N 76.8612 -1.46375 0.584142 0
M  V30 899 C 78.0862 -2.07268 0.0740405 0
M  V30 900 C 78.5112 -1.42979 -1.22223 0
M  V30 901 O 77.8692 -0.514092 -1.73859 0
M  V30 902 C 77.9172 -3.60518 -0.0767769 0
M  V30 903 O 77.0212 -3.96533 -1.13292 0
M  V30 904 H 76.3622 -0.660961 0.0634524 0
M  V30 905 H 78.8922 -1.87991 0.807492 0
M  V30 906 H 78.9022 -4.07021 -0.282489 0
M  V30 907 H 77.5772 -4.06702 0.86986 0
M  V30 908 H 76.1542 -3.61738 -0.905553 0
M  V30 909 N 78.3393 -0.321999 -1.54275 0
M  V30 910 C 79.5853 0.281461 -2.00837 0
M  V30 911 C 79.9183 1.51909 -1.20985 0
M  V30 912 O 79.1933 1.923 -0.291733 0
M  V30 913 C 79.4763 0.617162 -3.54772 0
M  V30 914 C 79.3293 -0.631064 -4.45351 0
M  V30 915 C 80.6483 1.43542 -4.16033 0
M  V30 916 H 77.7673 0.100826 -0.730071 0
M  V30 917 H 80.4093 -0.438268 -1.84876 0
M  V30 918 H 78.5593 1.23034 -3.68504 0
M  V30 919 H 80.2313 -1.26934 -4.43492 0
M  V30 920 H 78.4743 -1.26025 -4.15091 0
M  V30 921 H 79.1453 -0.351735 -5.50878 0
M  V30 922 H 81.6213 0.917134 -4.05867 0
M  V30 923 H 80.4973 1.63907 -5.23856 0
M  V30 924 H 80.7583 2.43108 -3.69257 0
M  V30 925 N 79.8174 1.5752 -0.0501392 0
M  V30 926 C 81.0664 1.91827 0.623328 0
M  V30 927 C 81.3794 0.930222 1.72065 0
M  V30 928 O 82.5854 1.1653 2.4522 0
M  V30 929 C 81.0414 3.40692 1.16003 0
M  V30 930 C 80.6494 4.479 0.0948811 0
M  V30 931 C 82.3934 3.84034 1.80881 0
M  V30 932 C 80.3004 5.87879 0.644411 0
M  V30 933 H 79.2304 0.715918 0.236596 0
M  V30 934 H 81.8814 1.83115 -0.118861 0
M  V30 935 H 80.2634 3.44405 1.9545 0
M  V30 936 H 81.4374 4.55775 -0.678675 0
M  V30 937 H 79.7524 4.13892 -0.45637 0
M  V30 938 H 82.3494 4.85984 2.22988 0
M  V30 939 H 82.6924 3.20225 2.6601 0
M  V30 940 H 83.2254 3.82833 1.0809 0
M  V30 941 H 79.9644 6.55282 -0.169229 0
M  V30 942 H 79.4844 5.83567 1.38598 0
M  V30 943 H 81.1634 6.37098 1.12763 0
M  V30 944 N 81.2955 -0.223234 1.56011 0
M  V30 945 C 82.5205 -0.968978 1.83373 0
M  V30 946 C 82.9455 -1.77227 0.630254 0
M  V30 947 O 82.3035 -1.76345 -0.420959 0
M  V30 948 C 82.3515 -1.86363 3.08709 0
M  V30 949 O 81.4555 -2.95873 2.87285 0
M  V30 950 H 80.7965 -0.274461 0.604622 0
M  V30 951 H 83.3265 -0.237056 2.03222 0
M  V30 952 H 83.3365 -2.27376 3.38768 0
M  V30 953 H 82.0115 -1.27319 3.95933 0
M  V30 954 H 80.5885 -2.58818 2.68454 0
M  V30 955 N 82.7736 -1.49793 -0.48987 0
M  V30 956 C 84.1896 -1.36803 -0.822022 0
M  V30 957 C 84.3896 -0.409652 -1.97292 0
M  V30 958 O 83.4456 0.154614 -2.52026 0
M  V30 959 C 84.7586 -2.77768 -1.15175 0
M  V30 960 C 86.3066 -2.86549 -1.25931 0
M  V30 961 C 86.7816 -4.28306 -1.62228 0
M  V30 962 N 88.2726 -4.31169 -1.69256 0
M  V30 963 C 89.0076 -5.37832 -1.98807 0
M  V30 964 N 88.5036 -6.54726 -2.26507 0
M  V30 965 N 90.2966 -5.25258 -2.00152 0
M  V30 966 H 82.4476 -2.10691 0.268881 0
M  V30 967 H 84.7106 -0.946241 0.057728 0
M  V30 968 H 84.4166 -3.49648 -0.379335 0
M  V30 969 H 84.2906 -3.13836 -2.09253 0
M  V30 970 H 86.6776 -2.14899 -2.02243 0
M  V30 971 H 86.7586 -2.54049 -0.298776 0
M  V30 972 H 86.4026 -5.00486 -0.864622 0
M  V30 973 H 86.3326 -4.58279 -2.594 0
M  V30 974 H 88.8236 -3.4687 -1.49965 0
M  V30 975 H 89.1366 -7.31833 -2.48276 0
M  V30 976 H 87.4816 -6.57933 -2.23939 0
M  V30 977 H 90.6726 -4.32938 -1.77996 0
M  V30 978 H 90.8456 -6.08476 -2.22848 0
M  V30 979 N 84.2517 0.741722 -1.39055 0
M  V30 980 C 85.1837 1.8657 -1.33133 0
M  V30 981 C 86.1967 1.61001 -0.241329 0
M  V30 982 O 87.3857 1.7136 -0.499784 0
M  V30 983 C 84.4857 3.22457 -1.04283 0
M  V30 984 C 83.6587 3.75435 -2.24427 0
M  V30 985 C 82.7177 4.89867 -1.92138 0
M  V30 986 O 81.7437 5.03879 -2.64754 0
M  V30 987 N 82.9457 5.73738 -0.88347 0
M  V30 988 H 85.7107 1.92156 -2.29991 0
M  V30 989 H 83.2717 0.922172 -1.3307 0
M  V30 990 H 85.2637 3.9657 -0.807128 0
M  V30 991 H 83.8337 3.12181 -0.161807 0
M  V30 992 H 83.0537 2.92751 -2.6399 0
M  V30 993 H 84.3417 4.07563 -3.04581 0
M  V30 994 H 83.7397 5.64999 -0.281517 0
M  V30 995 H 82.2967 6.47947 -0.707662 0
M  V30 996 N 85.7298 1.2412 0.971189 0
M  V30 997 C 86.9598 1.10415 1.7462 0
M  V30 998 C 87.3678 -0.346462 1.86001 0
M  V30 999 O 86.7108 -1.25104 1.34517 0
M  V30 1000 C 86.7728 1.66596 3.18568 0
M  V30 1001 C 86.4368 3.15446 3.3067 0
M  V30 1002 C 87.4338 4.12636 3.16271 0
M  V30 1003 C 85.1188 3.55337 3.55022 0
M  V30 1004 C 87.1128 5.47699 3.26044 0
M  V30 1005 C 84.7998 4.90542 3.64434 0
M  V30 1006 C 85.7978 5.86532 3.49956 0
M  V30 1007 O 85.4858 7.19279 3.59017 0
M  V30 1008 H 85.2178 0.386616 0.55453 0
M  V30 1009 H 87.7718 1.64633 1.22821 0
M  V30 1010 H 86.0018 1.06808 3.71657 0
M  V30 1011 H 87.6908 1.48232 3.77865 0
M  V30 1012 H 88.4568 3.8316 2.97344 0
M  V30 1013 H 84.3358 2.8113 3.65359 0
M  V30 1014 H 87.8798 6.22603 3.14661 0
M  V30 1015 H 83.7768 5.19691 3.82873 0
M  V30 1016 H 84.5448 7.27153 3.75754 0
M  V30 1017 N 87.2079 -1.17134 1.05439 0
M  V30 1018 C 88.1399 -2.2078 0.615539 0
M  V30 1019 C 89.1529 -1.59584 -0.322001 0
M  V30 1020 O 90.3419 -1.78133 -0.114344 0
M  V30 1021 C 87.4419 -3.38691 -0.118938 0
M  V30 1022 C 86.6149 -4.29454 0.829924 0
M  V30 1023 C 85.6739 -5.26024 0.136258 0
M  V30 1024 O 84.6999 -5.63952 0.77115 0
M  V30 1025 N 85.9019 -5.69487 -1.1254 0
M  V30 1026 H 88.6669 -2.59052 1.50705 0
M  V30 1027 H 86.2279 -1.32058 0.936603 0
M  V30 1028 H 88.2199 -4.00329 -0.593179 0
M  V30 1029 H 86.7899 -2.98996 -0.91215 0
M  V30 1030 H 86.0099 -3.65211 1.48373 0
M  V30 1031 H 87.2979 -4.86984 1.47392 0
M  V30 1032 H 86.6959 -5.4075 -1.6615 0
M  V30 1033 H 85.2529 -6.33257 -1.54366 0
M  V30 1034 N 88.686 -0.835752 -1.33615 0
M  V30 1035 C 89.616 -0.281739 -2.31794 0
M  V30 1036 C 90.597 0.608833 -1.58831 0
M  V30 1037 O 91.782 0.533035 -1.86741 0
M  V30 1038 C 88.912 0.546612 -3.42971 0
M  V30 1039 C 87.866 -0.247904 -4.27281 0
M  V30 1040 C 87.192 0.704001 -5.30045 0
M  V30 1041 C 88.492 -1.46324 -5.01385 0
M  V30 1042 H 90.186 -1.10206 -2.78379 0
M  V30 1043 H 87.732 -0.531388 -1.33837 0
M  V30 1044 H 89.685 0.944467 -4.1068 0
M  V30 1045 H 88.409 1.40011 -2.95067 0
M  V30 1046 H 87.068 -0.627281 -3.61194 0
M  V30 1047 H 86.716 1.55381 -4.78399 0
M  V30 1048 H 86.416 0.176524 -5.87335 0
M  V30 1049 H 87.94 1.09944 -6.0062 0
M  V30 1050 H 89.354 -1.13871 -5.61877 0
M  V30 1051 H 87.751 -1.92728 -5.6831 0
M  V30 1052 H 88.821 -2.23467 -4.30338 0
M  V30 1053 N 90.1641 1.46063 -0.591896 0
M  V30 1054 C 91.4411 1.95595 -0.0137119 0
M  V30 1055 C 91.8211 1.5345 1.4497 0
M  V30 1056 O 91.1691 0.789543 2.14426 0
M  V30 1057 C 91.3791 3.48453 -0.195373 0
M  V30 1058 C 92.7271 4.24546 -0.0679765 0
M  V30 1059 O 93.7511 3.55982 -0.124681 0
M  V30 1060 O 92.6101 5.46467 0.0600579 0
M  V30 1061 H 89.7041 0.825795 0.0446279 0
M  V30 1062 H 92.2501 1.56303 -0.660859 0
M  V30 1063 H 91.0221 3.72045 -1.21235 0
M  V30 1064 H 90.6451 3.94597 0.487775 0
M  V30 1065 N 91.6422 0.330177 1.54103 0
M  V30 1066 C 92.5892 -0.532762 2.24567 0
M  V30 1067 C 93.5592 -1.10635 1.23892 0
M  V30 1068 O 94.7442 -1.14546 1.5259 0
M  V30 1069 C 91.8842 -1.6845 3.01195 0
M  V30 1070 C 90.9972 -1.13951 4.167 0
M  V30 1071 C 90.1322 -2.25746 4.80845 0
M  V30 1072 C 89.1712 -1.6853 5.88442 0
M  V30 1073 N 88.3082 -2.74014 6.46421 0
M  V30 1074 H 93.1482 0.0746905 2.97906 0
M  V30 1075 H 90.6852 0.048632 1.4702 0
M  V30 1076 H 92.6432 -2.36234 3.43874 0
M  V30 1077 H 91.2732 -2.26314 2.30178 0
M  V30 1078 H 90.3252 -0.35301 3.78758 0
M  V30 1079 H 91.6372 -0.680892 4.94131 0
M  V30 1080 H 90.7912 -3.01422 5.26526 0
M  V30 1081 H 89.5302 -2.74947 4.0281 0
M  V30 1082 H 88.5352 -0.913543 5.42157 0
M  V30 1083 H 89.7602 -1.20198 6.68378 0
M  V30 1084 H 87.7062 -3.22494 5.71256 0
M  V30 1085 H 87.6232 -2.32735 7.19285 0
M  V30 1086 H 88.8912 -3.49499 6.96757 0
M  V30 1087 N 93.1203 -1.57491 0.0584922 0
M  V30 1088 C 94.3453 -1.97711 -0.62652 0
M  V30 1089 C 94.7703 -0.936132 -1.63151 0
M  V30 1090 O 94.1283 0.099811 -1.81025 0
M  V30 1091 C 94.1763 -3.36989 -1.28338 0
M  V30 1092 O 93.2803 -3.35433 -2.39913 0
M  V30 1093 H 92.6213 -0.643868 -0.162266 0
M  V30 1094 H 95.1513 -2.04193 0.129064 0
M  V30 1095 H 95.1613 -3.73879 -1.63335 0
M  V30 1096 H 93.8363 -4.12289 -0.546889 0
M  V30 1097 H 92.4133 -3.10298 -2.06809 0
M  V30 1098 N 94.5984 0.214957 -1.56127 0
M  V30 1099 C 95.8754 0.963093 -1.70247 0
M  V30 1100 C 96.2554 2.02166 -0.60764 0
M  V30 1101 O 95.6034 2.25244 0.384385 0
M  V30 1102 C 95.8134 1.56756 -3.11815 0
M  V30 1103 C 97.1614 2.0573 -3.7143 0
M  V30 1104 O 98.1854 1.66637 -3.14818 0
M  V30 1105 O 97.0444 2.77603 -4.70743 0
M  V30 1106 H 94.1384 0.450321 -0.693643 0
M  V30 1107 H 96.6844 0.206219 -1.68442 0
M  V30 1108 H 95.4564 0.803533 -3.82961 0
M  V30 1109 H 95.0794 2.3898 -3.17765 0
M  V30 1110 N 96.0765 1.50051 0.48192 0
M  V30 1111 C 97.3255 1.59741 1.23149 0
M  V30 1112 C 97.6385 0.298163 1.93314 0
M  V30 1113 O 98.8445 0.273835 2.70116 0
M  V30 1114 C 97.3005 2.81926 2.23708 0
M  V30 1115 C 96.9085 4.18685 1.59396 0
M  V30 1116 C 98.6525 3.00956 2.99375 0
M  V30 1117 C 96.5595 5.3207 2.58178 0
M  V30 1118 H 95.4895 0.594838 0.46334 0
M  V30 1119 H 98.1405 1.76467 0.503169 0
M  V30 1120 H 96.5225 2.58736 2.99786 0
M  V30 1121 H 97.6965 4.52088 0.891811 0
M  V30 1122 H 96.0115 4.05171 0.960503 0
M  V30 1123 H 98.6085 3.82836 3.73283 0
M  V30 1124 H 98.9515 2.12258 3.58123 0
M  V30 1125 H 99.4845 3.24277 2.30411 0
M  V30 1126 H 96.2235 6.22888 2.04184 0
M  V30 1127 H 95.7435 5.03098 3.26577 0
M  V30 1128 H 97.4225 5.62196 3.20225 0
M  V30 1129 N 97.5546 -0.734337 1.39446 0
M  V30 1130 C 98.9706 -1.03997 1.21065 0
M  V30 1131 C 99.1706 -2.01369 0.0727019 0
M  V30 1132 O 98.2266 -2.45856 -0.575426 0
M  V30 1133 C 99.5396 -1.60163 2.54496 0
M  V30 1134 C 101.088 -1.7224 2.61347 0
M  V30 1135 C 101.563 -2.31814 3.95002 0
M  V30 1136 N 103.054 -2.39223 3.96644 0
M  V30 1137 C 103.789 -2.86258 4.96834 0
M  V30 1138 N 103.285 -3.33184 6.07421 0
M  V30 1139 N 105.078 -2.85473 4.84213 0
M  V30 1140 H 97.2286 -0.0885624 2.12215 0
M  V30 1141 H 99.4916 -0.10191 0.942506 0
M  V30 1142 H 99.1976 -0.960811 3.38321 0
M  V30 1143 H 99.0716 -2.5896 2.74262 0
M  V30 1144 H 101.459 -2.35443 1.77906 0
M  V30 1145 H 101.54 -0.720939 2.4543 0
M  V30 1146 H 101.184 -1.69238 4.78875 0
M  V30 1147 H 101.114 -3.32638 4.08239 0
M  V30 1148 H 103.605 -2.06057 3.16779 0
M  V30 1149 H 103.918 -3.67586 6.7978 0
M  V30 1150 H 102.263 -3.31191 6.11013 0
M  V30 1151 H 105.454 -2.48136 3.96921 0
M  V30 1152 H 105.627 -3.21814 5.62441 0
M  V30 1153 N 99.0327 -1.24633 -0.964593 0
M  V30 1154 C 100.28 -1.08788 -1.70796 0
M  V30 1155 C 100.608 0.372783 -1.90894 0
M  V30 1156 O 99.8627 1.29167 -1.47018 0
M  V30 1157 C 100.162 -1.7763 -3.10133 0
M  V30 1158 C 99.8277 -3.27557 -3.09866 0
M  V30 1159 C 98.4897 -3.6846 -3.09501 0
M  V30 1160 C 100.842 -4.23389 -3.03959 0
M  V30 1161 C 98.1697 -5.03624 -3.00965 0
M  V30 1162 C 100.522 -5.58565 -2.96965 0
M  V30 1163 C 99.1857 -5.98809 -2.9493 0
M  V30 1164 H 98.4557 -0.398084 -0.624988 0
M  V30 1165 H 101.103 -1.54777 -1.12767 0
M  V30 1166 H 99.4077 -1.24044 -3.71645 0
M  V30 1167 H 101.105 -1.62832 -3.66451 0
M  V30 1168 H 97.6947 -2.95006 -3.10917 0
M  V30 1169 H 101.879 -3.92787 -3.03368 0
M  V30 1170 H 97.1347 -5.33998 -2.97752 0
M  V30 1171 H 101.309 -6.32523 -2.91354 0
M  V30 1172 H 98.9357 -7.03505 -2.88071 0
M  V30 1173 N 100.511 1.16574 -1.06058 0
M  V30 1174 C 101.736 1.91493 -0.796562 0
M  V30 1175 C 102.161 1.76773 0.642868 0
M  V30 1176 O 101.519 1.09142 1.44768 0
M  V30 1177 C 101.567 3.40293 -1.19303 0
M  V30 1178 O 100.671 4.11074 -0.330394 0
M  V30 1179 H 100.012 0.596678 -0.291326 0
M  V30 1180 H 102.542 1.47708 -1.41575 0
M  V30 1181 H 102.552 3.91057 -1.16356 0
M  V30 1182 H 101.227 3.50326 -2.24153 0
M  V30 1183 H 99.8038 3.70513 -0.421225 0
M  V30 1184 N 101.989 0.842826 1.3317 0
M  V30 1185 C 103.217 0.454055 2.01856 0
M  V30 1186 C 103.632 -0.94587 1.63397 0
M  V30 1187 O 102.989 -1.61534 0.849302 0
M  V30 1188 C 103.04 0.569715 3.56982 0
M  V30 1189 O 102.761 1.91448 3.94055 0
M  V30 1190 C 104.262 0.178412 4.42941 0
M  V30 1191 H 101.482 0.17979 0.646465 0
M  V30 1192 H 104.026 1.1365 1.70012 0
M  V30 1193 H 102.181 -0.0648587 3.87346 0
M  V30 1194 H 102.595 1.90282 4.88767 0
M  V30 1195 H 104.069 0.310376 5.51127 0
M  V30 1196 H 104.546 -0.880056 4.30293 0
M  V30 1197 H 105.152 0.787579 4.17944 0
M  V30 1198 N 103.467 -1.45747 0.599634 0
M  V30 1199 C 104.399 -2.28628 -0.161879 0
M  V30 1200 C 105.412 -1.39494 -0.839367 0
M  V30 1201 O 106.601 -1.63941 -0.706089 0
M  V30 1202 C 103.701 -3.15014 -1.24976 0
M  V30 1203 C 102.874 -4.32378 -0.660935 0
M  V30 1204 C 101.933 -5.00033 -1.63869 0
M  V30 1205 O 100.959 -5.57085 -1.1681 0
M  V30 1206 N 102.161 -4.98589 -2.97303 0
M  V30 1207 H 104.926 -2.94624 0.549265 0
M  V30 1208 H 102.487 -1.55847 0.438565 0
M  V30 1209 H 104.479 -3.5714 -1.9035 0
M  V30 1210 H 103.049 -2.5098 -1.86354 0
M  V30 1211 H 102.269 -3.9383 0.170688 0
M  V30 1212 H 103.557 -5.08197 -0.247619 0
M  V30 1213 H 102.955 -4.53514 -3.38145 0
M  V30 1214 H 101.512 -5.44603 -3.58121 0
M  V30 1215 N 104.945 -0.338344 -1.53925 0
M  V30 1216 C 105.855 0.529421 -2.28548 0
M  V30 1217 C 106.871 1.11645 -1.3346 0
M  V30 1218 O 108.047 1.13325 -1.66492 0
M  V30 1219 C 105.112 1.66713 -3.03987 0
M  V30 1220 C 104.173 1.11041 -4.14691 0
M  V30 1221 C 103.406 2.19389 -4.86522 0
M  V30 1222 O 103.629 3.40013 -4.57982 0
M  V30 1223 O 102.563 1.83976 -5.73094 0
M  V30 1224 H 106.389 -0.0770399 -3.03602 0
M  V30 1225 H 103.974 -0.103555 -1.49041 0
M  V30 1226 H 105.856 2.32918 -3.5118 0
M  V30 1227 H 104.531 2.25949 -2.31794 0
M  V30 1228 H 103.438 0.413024 -3.71813 0
M  V30 1229 H 104.771 0.562975 -4.8897 0
M  V30 1230 N 106.423 1.57458 -0.0668435 0
M  V30 1231 C 107.653 1.97337 0.611677 0
M  V30 1232 C 108.061 0.943744 1.63982 0
M  V30 1233 O 107.404 -0.0785584 1.83532 0
M  V30 1234 C 107.466 3.33511 1.34205 0
M  V30 1235 C 107.13 4.54598 0.467941 0
M  V30 1236 C 108.127 5.19186 -0.272439 0
M  V30 1237 C 105.812 5.0075 0.39427 0
M  V30 1238 C 107.806 6.28274 -1.07476 0
M  V30 1239 C 105.493 6.09711 -0.411729 0
M  V30 1240 C 106.491 6.73335 -1.14492 0
M  V30 1241 O 106.179 7.80199 -1.93763 0
M  V30 1242 H 105.911 0.654042 0.170893 0
M  V30 1243 H 108.465 2.04961 -0.134289 0
M  V30 1244 H 106.695 3.22487 2.13398 0
M  V30 1245 H 108.384 3.58029 1.91233 0
M  V30 1246 H 109.15 4.84477 -0.225086 0
M  V30 1247 H 105.029 4.51009 0.954569 0
M  V30 1248 H 108.573 6.77866 -1.64755 0
M  V30 1249 H 104.47 6.43854 -0.460664 0
M  V30 1250 H 105.238 7.97053 -1.86142 0
M  V30 1251 N 107.901 -0.206675 1.56239 0
M  V30 1252 C 109.149 -0.927007 1.79586 0
M  V30 1253 C 109.47 -1.8427 0.637929 0
M  V30 1254 O 108.74 -1.92849 -0.344398 0
M  V30 1255 H 107.32 -0.345292 0.662407 0
M  V30 1256 H 109.982 -0.21496 1.93711 0
M  V30 1257 H 109.078 -1.52501 2.72305 0
M  V30 1258 N 109.379 -1.50304 -0.473955 0
M  V30 1259 C 110.326 -1.68959 -1.57231 0
M  V30 1260 C 111.296 -0.530899 -1.57387 0
M  V30 1261 O 112.481 -0.761133 -1.74961 0
M  V30 1262 C 109.621 -1.7871 -2.95223 0
M  V30 1263 C 108.734 -3.06061 -3.04878 0
M  V30 1264 C 107.869 -3.06626 -4.33767 0
M  V30 1265 C 106.908 -4.28443 -4.37154 0
M  V30 1266 N 106.045 -4.26763 -5.5751 0
M  V30 1267 H 110.885 -2.6273 -1.40631 0
M  V30 1268 H 108.422 -1.30241 -0.683789 0
M  V30 1269 H 110.38 -1.82344 -3.75242 0
M  V30 1270 H 109.01 -0.883806 -3.10465 0
M  V30 1271 H 108.062 -3.11911 -2.17751 0
M  V30 1272 H 109.374 -3.96039 -3.0324 0
M  V30 1273 H 108.528 -3.08973 -5.22131 0
M  V30 1274 H 107.267 -2.14473 -4.3801 0
M  V30 1275 H 106.272 -4.2631 -3.47188 0
M  V30 1276 H 107.497 -5.2182 -4.34605 0
M  V30 1277 H 105.443 -3.37462 -5.62544 0
M  V30 1278 H 105.36 -5.10507 -5.57601 0
M  V30 1279 H 106.628 -4.33253 -6.48006 0
M  V30 1280 N 110.857 0.726932 -1.39834 0
M  V30 1281 C 112.268 1.30558 -1.3346 0
M  V30 1282 C 112.619 1.962 -0.00273003 0
M  V30 1283 O 111.744 1.96826 0.899371 0
M  V30 1284 C 112.339 2.37404 -2.41713 0
M  V30 1285 C 110.898 2.90921 -2.38835 0
M  V30 1286 C 110.045 1.64578 -2.2318 0
M  V30 1287 H 112.996 0.523862 -1.49804 0
M  V30 1288 H 113.017 3.17984 -2.08966 0
M  V30 1289 H 112.529 1.89599 -3.38635 0
M  V30 1290 H 110.63 3.42985 -1.45575 0
M  V30 1291 H 110.743 3.43487 -3.33997 0
M  V30 1292 H 109.107 1.89219 -1.70494 0
M  V30 1293 H 109.89 1.18814 -3.22084 0
M  V30 1294 N 112.336 1.25143 0.95797 0
M  V30 1295 C 113.576 1.10893 1.71703 0
M  V30 1296 C 113.94 -0.34478 1.88879 0
M  V30 1297 O 115.141 -0.609014 2.6181 0
M  V30 1298 C 113.412 1.83889 3.06463 0
M  V30 1299 S 114.971 1.85491 3.97666 0
M  V30 1300 H 111.789 0.396428 0.590226 0
M  V30 1301 H 114.391 1.58618 1.14283 0
M  V30 1302 H 113.095 2.88756 2.9163 0
M  V30 1303 H 112.626 1.36538 3.68946 0
M  V30 1304 H 114.641 0.929553 4.87415 0
M  V30 1305 N 113.814 -1.1601 1.06675 0
M  V30 1306 C 115.063 -1.85973 0.780818 0
M  V30 1307 C 115.376 -1.82819 -0.695444 0
M  V30 1308 O 116.582 -2.484 -1.09589 0
M  V30 1309 C 115.038 -3.33757 1.34665 0
M  V30 1310 C 114.646 -3.45374 2.85343 0
M  V30 1311 C 116.39 -4.0895 1.13843 0
M  V30 1312 C 114.297 -4.87266 3.35151 0
M  V30 1313 H 113.227 -0.696661 0.288407 0
M  V30 1314 H 115.878 -1.30903 1.28595 0
M  V30 1315 H 114.26 -3.88456 0.769274 0
M  V30 1316 H 115.434 -3.00816 3.49065 0
M  V30 1317 H 113.749 -2.83619 3.04876 0
M  V30 1318 H 116.346 -5.13654 1.4854 0
M  V30 1319 H 116.689 -4.16229 0.0770282 0
M  V30 1320 H 117.222 -3.605 1.68179 0
M  V30 1321 H 113.961 -4.85168 4.40786 0
M  V30 1322 H 113.481 -5.32433 2.76179 0
M  V30 1323 H 115.16 -5.56097 3.30704 0
M  V30 1324 N 115.292 -0.849877 -1.32721 0
M  V30 1325 C 116.703 -0.506188 -1.79707 0
M  V30 1326 C 117.054 0.975627 -1.70223 0
M  V30 1327 O 116.179 1.76078 -1.25799 0
M  V30 1328 C 116.774 -0.912044 -3.26293 0
M  V30 1329 C 115.333 -0.620326 -3.71253 0
M  V30 1330 C 114.48 -1.11439 -2.53922 0
M  V30 1331 H 117.431 -1.03754 -1.20087 0
M  V30 1332 H 117.452 -0.226493 -3.79825 0
M  V30 1333 H 116.964 -1.99057 -3.33164 0
M  V30 1334 H 115.065 0.447674 -3.69901 0
M  V30 1335 H 115.178 -1.18327 -4.64258 0
M  V30 1336 H 113.542 -0.534834 -2.49021 0
M  V30 1337 H 114.325 -2.19992 -2.6355 0
M  V30 1338 N 116.77 1.45427 -0.607355 0
M  V30 1339 C 118.047 1.9557 -0.0344566 0
M  V30 1340 C 118.427 1.54979 1.43334 0
M  V30 1341 O 117.775 0.812241 2.13576 0
M  V30 1342 C 117.985 3.48226 -0.232321 0
M  V30 1343 C 119.333 4.2445 -0.113001 0
M  V30 1344 O 120.357 3.55829 -0.162431 0
M  V30 1345 O 119.216 5.465 0.00209442 0
M  V30 1346 H 116.31 0.826222 0.0358667 0
M  V30 1347 H 118.856 1.55594 -0.6774 0
M  V30 1348 H 117.628 3.70739 -1.25174 0
M  V30 1349 H 117.251 3.95092 0.445896 0
M  V30 1350 N 118.248 0.346503 1.53744 0
M  V30 1351 C 119.178 -0.501193 2.28058 0
M  V30 1352 C 120.159 -1.10014 1.29734 0
M  V30 1353 O 121.344 -1.12097 1.58581 0
M  V30 1354 C 118.474 -1.65078 3.05559 0
M  V30 1355 C 117.428 -1.18003 4.11411 0
M  V30 1356 C 116.754 -2.41837 4.76884 0
M  V30 1357 C 118.054 -0.278394 5.21558 0
M  V30 1358 H 119.748 0.11875 2.99164 0
M  V30 1359 H 117.294 0.0585531 1.43881 0
M  V30 1360 H 119.247 -2.25028 3.56287 0
M  V30 1361 H 117.971 -2.29767 2.32109 0
M  V30 1362 H 116.63 -0.603331 3.61601 0
M  V30 1363 H 116.278 -3.0494 4.00026 0
M  V30 1364 H 115.978 -2.1102 5.48402 0
M  V30 1365 H 117.502 -3.02508 5.30397 0
M  V30 1366 H 118.916 -0.784823 5.67903 0
M  V30 1367 H 117.313 -0.0619707 6.00068 0
M  V30 1368 H 118.383 0.684677 4.80042 0
M  V30 1369 N 119.726 -1.57421 0.075193 0
M  V30 1370 C 121.137 -1.81021 -0.456964 0
M  V30 1371 C 121.488 -0.98936 -1.69429 0
M  V30 1372 O 120.613 -0.212865 -2.15351 0
M  V30 1373 C 121.208 -3.28329 -0.83581 0
M  V30 1374 C 119.767 -3.52764 -1.31281 0
M  V30 1375 C 118.914 -2.75676 -0.299648 0
M  V30 1376 H 121.865 -1.55822 0.300856 0
M  V30 1377 H 121.886 -3.40564 -1.69696 0
M  V30 1378 H 121.398 -3.88046 0.0649238 0
M  V30 1379 H 119.499 -2.98355 -2.23193 0
M  V30 1380 H 119.612 -4.61451 -1.28839 0
M  V30 1381 H 117.976 -2.42538 -0.777641 0
M  V30 1382 H 118.759 -3.38132 0.593417 0
M  V30 1383 N 121.204 0.198386 -1.56346 0
M  V30 1384 C 122.481 0.944982 -1.71258 0
M  V30 1385 C 122.861 2.0151 -0.629048 0
M  V30 1386 O 122.209 2.25639 0.360473 0
M  V30 1387 C 122.419 1.5344 -3.1346 0
M  V30 1388 C 123.767 2.01778 -3.73591 0
M  V30 1389 O 124.791 1.63288 -3.16568 0
M  V30 1390 O 123.65 2.72594 -4.73661 0
M  V30 1391 H 120.744 0.442939 -0.69838 0
M  V30 1392 H 123.29 0.188342 -1.68652 0
M  V30 1393 H 122.062 0.762869 -3.83792 0
M  V30 1394 H 121.685 2.35596 -3.20282 0
M  V30 1395 N 122.682 1.50554 0.465978 0
M  V30 1396 C 123.645 1.69233 1.54574 0
M  V30 1397 C 124.645 0.562901 1.50626 0
M  V30 1398 O 125.835 0.830016 1.53155 0
M  V30 1399 C 122.967 1.7223 2.94193 0
M  V30 1400 H 124.16 2.65571 1.39327 0
M  V30 1401 H 121.713 1.40111 0.692711 0
M  V30 1402 H 122.448 0.77603 3.14878 0
M  V30 1403 H 122.233 2.54285 2.98466 0
M  V30 1404 H 123.723 1.88618 3.72576 0
M  V30 1405 N 124.16 -0.719506 1.40217 0
M  V30 1406 C 125.11 -1.8251 1.36653 0
M  V30 1407 C 126.094 -1.59028 0.244732 0
M  V30 1408 O 127.286 -1.70268 0.483524 0
M  V30 1409 C 124.415 -3.20599 1.22763 0
M  V30 1410 C 123.501 -3.49858 2.39708 0
M  V30 1411 N 123.892 -3.49957 3.6519 0
M  V30 1412 C 122.19 -3.80297 2.33002 0
M  V30 1413 C 122.891 -3.77449 4.42614 0
M  V30 1414 N 121.867 -3.96002 3.72402 0
M  V30 1415 H 125.669 -1.80914 2.31619 0
M  V30 1416 H 123.183 -0.918455 1.33933 0
M  V30 1417 H 125.18 -3.99766 1.18292 0
M  V30 1418 H 123.84 -3.23424 0.287614 0
M  V30 1419 H 124.851 -3.309 3.98404 0
M  V30 1420 H 121.528 -3.90635 1.47346 0
M  V30 1421 H 122.918 -3.83863 5.51451 0
M  V30 1422 N 125.638 -1.25649 -0.95132 0
M  V30 1423 C 126.885 -1.10594 -1.69633 0
M  V30 1424 C 127.213 0.352515 -1.91279 0
M  V30 1425 O 126.468 1.27601 -1.4838 0
M  V30 1426 C 126.767 -1.80909 -3.08231 0
M  V30 1427 C 126.433 -3.30825 -3.06375 0
M  V30 1428 C 125.095 -3.71722 -3.05576 0
M  V30 1429 C 127.447 -4.26589 -2.99452 0
M  V30 1430 C 124.775 -5.06788 -2.95606 0
M  V30 1431 C 127.127 -5.61683 -2.91024 0
M  V30 1432 C 125.791 -6.01904 -2.88562 0
M  V30 1433 H 125.061 -0.404691 -0.620731 0
M  V30 1434 H 127.708 -1.55964 -1.11119 0
M  V30 1435 H 126.013 -1.27979 -3.70309 0
M  V30 1436 H 127.71 -1.6671 -3.64704 0
M  V30 1437 H 124.3 -2.98287 -3.07771 0
M  V30 1438 H 128.484 -3.95982 -2.99185 0
M  V30 1439 H 123.74 -5.37126 -2.92071 0
M  V30 1440 H 127.914 -6.35578 -2.84629 0
M  V30 1441 H 125.541 -7.06521 -2.80593 0
M  V30 1442 N 127.117 1.15442 -1.07289 0
M  V30 1443 C 128.065 2.22225 -0.686952 0
M  V30 1444 C 129.059 1.66688 0.30193 0
M  V30 1445 O 130.265 1.79236 0.165712 0
M  V30 1446 H 126.64 0.723783 -0.204064 0
M  V30 1447 H 128.611 2.52056 -1.5972 0
M  V30 1448 C 127.36 3.47556 -0.100149 0
M  V30 1449 H 126.683 3.90612 -0.852211 0
M  V30 1450 H 128.123 4.23794 0.132235 0
M  V30 1451 C 126.582 3.16337 1.159 0
M  V30 1452 O 127.112 3.33074 2.24555 0
M  V30 1453 N 125.318 2.70385 1.06491 0
M  V30 1454 H 124.865 2.56966 0.180668 0
M  V30 1455 H 124.823 2.49871 1.90819 0
M  V30 1456 N 128.595 0.856903 1.32268 0
M  V30 1457 C 129.844 0.457599 1.96441 0
M  V30 1458 C 130.157 -0.992426 1.68553 0
M  V30 1459 O 131.363 -1.49727 2.26482 0
M  V30 1460 C 129.819 0.767358 3.51624 0
M  V30 1461 C 129.427 2.23326 3.88367 0
M  V30 1462 C 131.171 0.435887 4.22256 0
M  V30 1463 C 129.078 2.48613 5.36606 0
M  V30 1464 H 128.008 0.167387 0.735185 0
M  V30 1465 H 130.659 1.048 1.5063 0
M  V30 1466 H 129.041 0.106367 3.95857 0
M  V30 1467 H 130.215 2.93623 3.55137 0
M  V30 1468 H 128.53 2.52948 3.30766 0
M  V30 1469 H 131.127 0.602202 5.31298 0
M  V30 1470 H 131.47 -0.622672 4.11617 0
M  V30 1471 H 132.003 1.05286 3.83614 0
M  V30 1472 H 128.742 3.53101 5.52268 0
M  V30 1473 H 128.262 1.82896 5.71235 0
M  V30 1474 H 129.941 2.32676 6.03714 0
M  V30 1475 N 130.073 -1.45103 0.615059 0
M  V30 1476 C 131.298 -2.07064 0.117988 0
M  V30 1477 C 131.723 -1.4554 -1.19163 0
M  V30 1478 O 131.081 -0.550855 -1.72729 0
M  V30 1479 C 131.129 -3.606 -0.000288387 0
M  V30 1480 O 130.233 -3.98847 -1.04856 0
M  V30 1481 H 129.574 -0.659467 0.0774581 0
M  V30 1482 H 132.104 -1.86236 0.847186 0
M  V30 1483 H 132.114 -4.07529 -0.196091 0
M  V30 1484 H 130.789 -4.04765 0.955932 0
M  V30 1485 H 129.366 -3.63577 -0.828619 0
M  V30 1486 N 131.551 -0.354651 -1.53558 0
M  V30 1487 C 132.501 0.513179 -2.2215 0
M  V30 1488 C 133.485 1.05734 -1.21281 0
M  V30 1489 O 134.677 0.989202 -1.46778 0
M  V30 1490 C 131.806 1.65798 -3.00609 0
M  V30 1491 C 130.892 1.12722 -4.08845 0
M  V30 1492 N 131.283 0.318563 -5.04796 0
M  V30 1493 C 129.581 1.40307 -4.23356 0
M  V30 1494 C 130.282 0.0292224 -5.81693 0
M  V30 1495 N 129.258 0.623891 -5.40008 0
M  V30 1496 H 133.06 -0.111586 -2.93688 0
M  V30 1497 H 130.574 -0.162091 -1.61589 0
M  V30 1498 H 132.571 2.29176 -3.48258 0
M  V30 1499 H 131.231 2.28591 -2.306 0
M  V30 1500 H 132.242 -0.0413091 -5.17884 0
M  V30 1501 H 128.919 2.03458 -3.6457 0
M  V30 1502 H 130.309 -0.623808 -6.68998 0
M  V30 1503 N 133.029 1.57378 -0.0835403 0
M  V30 1504 C 134.254 1.98682 0.594987 0
M  V30 1505 C 134.679 0.961969 1.61641 0
M  V30 1506 O 134.037 -0.0709989 1.81161 0
M  V30 1507 C 134.085 3.38988 1.2296 0
M  V30 1508 O 133.189 3.39208 2.34546 0
M  V30 1509 H 132.53 0.646368 0.152002 0
M  V30 1510 H 135.06 2.03961 -0.161533 0
M  V30 1511 H 135.07 3.76431 1.57366 0
M  V30 1512 H 133.745 4.13107 0.481228 0
M  V30 1513 H 132.322 3.13548 2.01846 0
M  V30 1514 N 134.507 -0.190092 1.56449 0
M  V30 1515 C 135.755 -0.907908 1.80559 0
M  V30 1516 C 136.076 -1.83583 0.657438 0
M  V30 1517 O 135.346 -1.93203 -0.323924 0
M  V30 1518 H 133.926 -0.338247 0.666032 0
M  V30 1519 H 136.588 -0.194403 1.93928 0
M  V30 1520 H 135.684 -1.49604 2.73907 0
M  V30 1521 N 135.985 -1.50799 -0.457987 0
M  V30 1522 C 137.401 -1.38515 -0.792819 0
M  V30 1523 C 137.601 -0.451409 -1.96379 0
M  V30 1524 O 136.657 0.10112 -2.52297 0
M  V30 1525 C 137.97 -2.80149 -1.09258 0
M  V30 1526 C 139.518 -2.89156 -1.19825 0
M  V30 1527 C 139.993 -4.31651 -1.53106 0
M  V30 1528 N 141.484 -4.34662 -1.60072 0
M  V30 1529 C 142.219 -5.41928 -1.87354 0
M  V30 1530 N 141.715 -6.59384 -2.12568 0
M  V30 1531 N 143.508 -5.29385 -1.88965 0
M  V30 1532 H 135.659 -2.10073 0.313511 0
M  V30 1533 H 137.922 -0.944803 0.0777862 0
M  V30 1534 H 137.628 -3.50374 -0.305084 0
M  V30 1535 H 137.502 -3.18204 -2.02549 0
M  V30 1536 H 139.889 -2.19141 -1.97639 0
M  V30 1537 H 139.97 -2.54626 -0.244821 0
M  V30 1538 H 139.614 -5.02208 -0.758266 0
M  V30 1539 H 139.544 -4.63678 -2.49621 0
M  V30 1540 H 142.035 -3.49973 -1.42573 0
M  V30 1541 H 142.348 -7.36934 -2.32696 0
M  V30 1542 H 140.693 -6.62535 -2.09933 0
M  V30 1543 H 143.884 -4.36616 -1.68772 0
M  V30 1544 H 144.057 -6.13066 -2.09891 0
M  V30 1545 N 137.463 0.71206 -1.40597 0
M  V30 1546 C 138.709 1.47292 -1.40274 0
M  V30 1547 C 139.064 1.92399 -0.00576812 0
M  V30 1548 O 138.357 1.65507 0.965297 0
M  V30 1549 C 138.551 2.71039 -2.32965 0
M  V30 1550 C 138.38 2.38035 -3.81536 0
M  V30 1551 C 137.15 2.29203 -4.50327 0
M  V30 1552 C 139.348 2.02076 -4.72938 0
M  V30 1553 N 137.33 1.88911 -5.84111 0
M  V30 1554 C 138.701 1.72412 -5.95545 0
M  V30 1555 C 140.756 1.88742 -4.60739 0
M  V30 1556 C 139.459 1.30756 -7.07316 0
M  V30 1557 C 141.485 1.4849 -5.72455 0
M  V30 1558 C 140.847 1.19726 -6.94151 0
M  V30 1559 H 136.946 0.536919 -0.568544 0
M  V30 1560 H 139.53 0.825424 -1.76337 0
M  V30 1561 H 137.701 3.33533 -1.99023 0
M  V30 1562 H 139.433 3.37404 -2.23474 0
M  V30 1563 H 136.188 2.47059 -4.04053 0
M  V30 1564 H 136.612 1.71293 -6.54972 0
M  V30 1565 H 141.254 2.0964 -3.67166 0
M  V30 1566 H 138.972 1.08601 -8.00769 0
M  V30 1567 H 142.558 1.38747 -5.65014 0
M  V30 1568 H 141.438 0.890482 -7.79128 0
M  V30 1569 N 138.941 1.26152 0.944643 0
M  V30 1570 C 140.187 1.11657 1.69294 0
M  V30 1571 C 140.52 -0.339926 1.91202 0
M  V30 1572 O 139.795 -1.24994 1.49019 0
M  V30 1573 C 140.078 1.88236 3.06984 0
M  V30 1574 C 139.931 3.41772 2.92424 0
M  V30 1575 C 141.25 1.67343 4.07043 0
M  V30 1576 H 138.369 0.407004 0.614424 0
M  V30 1577 H 141.011 1.55106 1.09737 0
M  V30 1578 H 139.161 1.51308 3.57824 0
M  V30 1579 H 140.833 3.88433 2.48832 0
M  V30 1580 H 139.076 3.68974 2.28124 0
M  V30 1581 H 139.747 3.90579 3.90067 0
M  V30 1582 H 142.223 1.99509 3.65151 0
M  V30 1583 H 141.099 2.23346 5.01406 0
M  V30 1584 H 141.36 0.617158 4.37771 0
M  V30 1585 N 140.419 -1.14872 1.07899 0
M  V30 1586 C 141.668 -1.85135 0.800499 0
M  V30 1587 C 141.981 -1.83547 -0.676014 0
M  V30 1588 O 143.187 -2.49548 -1.06948 0
M  V30 1589 C 141.643 -3.3231 1.38197 0
M  V30 1590 C 141.251 -3.42329 2.8899 0
M  V30 1591 C 142.995 -4.0772 1.18174 0
M  V30 1592 C 140.902 -4.83684 3.403 0
M  V30 1593 H 139.832 -0.693563 0.29578 0
M  V30 1594 H 142.483 -1.29532 1.29976 0
M  V30 1595 H 140.865 -3.87618 0.810431 0
M  V30 1596 H 142.039 -2.97097 3.52236 0
M  V30 1597 H 140.354 -2.80369 3.07867 0
M  V30 1598 H 142.951 -5.12049 1.5398 0
M  V30 1599 H 143.294 -4.16124 0.12117 0
M  V30 1600 H 143.827 -3.58696 1.71994 0
M  V30 1601 H 140.566 -4.80465 4.45907 0
M  V30 1602 H 140.086 -5.29474 2.81811 0
M  V30 1603 H 141.765 -5.52558 3.36584 0
M  V30 1604 N 141.898 -0.863906 -1.31812 0
M  V30 1605 C 143.138 -0.47825 -1.98726 0
M  V30 1606 C 143.502 0.950397 -1.66828 0
M  V30 1607 O 144.703 1.44109 -2.26905 0
M  V30 1608 C 142.974 -0.721134 -3.50049 0
M  V30 1609 S 144.533 -0.434432 -4.36644 0
M  V30 1610 H 141.351 -0.178773 -0.688158 0
M  V30 1611 H 143.953 -1.11862 -1.60334 0
M  V30 1612 H 142.657 -1.75981 -3.70755 0
M  V30 1613 H 142.188 -0.0675315 -3.93342 0
M  V30 1614 H 144.203 0.735786 -4.90714 0
M  V30 1615 N 143.376 1.44774 -0.622745 0
M  V30 1616 C 144.339 2.29069 0.0774015 0
M  V30 1617 C 145.339 1.4059 0.780461 0
M  V30 1618 O 146.529 1.62551 0.626322 0
M  V30 1619 C 143.661 3.21974 1.12006 0
M  V30 1620 H 144.854 2.92459 -0.663901 0
M  V30 1621 H 142.407 1.51548 -0.382486 0
M  V30 1622 H 143.142 2.63417 1.89162 0
M  V30 1623 H 142.927 3.87168 0.619951 0
M  V30 1624 H 144.417 3.85318 1.60995 0
M  V30 1625 N 144.854 0.36279 1.53368 0
M  V30 1626 C 146.101 -0.227776 2.01215 0
M  V30 1627 C 146.429 -1.49003 1.25014 0
M  V30 1628 O 145.684 -1.92876 0.331236 0
M  V30 1629 C 145.983 -0.568417 3.52851 0
M  V30 1630 C 145.649 0.59918 4.46901 0
M  V30 1631 C 144.311 0.919559 4.72332 0
M  V30 1632 C 146.663 1.38156 5.02556 0
M  V30 1633 C 143.991 2.02434 5.5067 0
M  V30 1634 C 146.343 2.47674 5.821 0
M  V30 1635 C 145.007 2.8025 6.05819 0
M  V30 1636 H 144.277 -0.083349 0.736297 0
M  V30 1637 H 146.924 0.494677 1.85001 0
M  V30 1638 H 145.229 -1.37185 3.66998 0
M  V30 1639 H 146.926 -1.03756 3.87344 0
M  V30 1640 H 143.516 0.339437 4.27254 0
M  V30 1641 H 147.7 1.14729 4.82857 0
M  V30 1642 H 142.956 2.28075 5.67267 0
M  V30 1643 H 147.13 3.08716 6.24234 0
M  V30 1644 H 144.757 3.65979 6.66306 0
M  V30 1645 N 146.332 -1.57332 0.0918853 0
M  V30 1646 C 147.609 -1.85691 -0.614668 0
M  V30 1647 C 147.989 -0.988146 -1.86545 0
M  V30 1648 O 147.337 -0.0597055 -2.28422 0
M  V30 1649 C 147.547 -3.36294 -0.933126 0
M  V30 1650 C 148.895 -4.04275 -1.29796 0
M  V30 1651 O 149.919 -3.41157 -1.02424 0
M  V30 1652 O 148.778 -5.1564 -1.81047 0
M  V30 1653 H 145.872 -0.767802 -0.307261 0
M  V30 1654 H 148.418 -1.69244 0.12434 0
M  V30 1655 H 147.19 -3.91273 -0.0456404 0
M  V30 1656 H 146.813 -3.58076 -1.72822 0
M  V30 1657 N 147.81 0.181792 -1.56548 0
M  V30 1658 C 149.035 0.920019 -1.85877 0
M  V30 1659 C 149.46 1.75494 -0.677021 0
M  V30 1660 O 148.818 1.77399 0.374056 0
M  V30 1661 C 148.866 1.78112 -3.13542 0
M  V30 1662 O 147.97 2.88152 -2.95029 0
M  V30 1663 H 147.311 0.258334 -0.611686 0
M  V30 1664 H 149.841 0.183092 -2.03779 0
M  V30 1665 H 149.851 2.18314 -3.44678 0
M  V30 1666 H 148.526 1.16777 -3.99169 0
M  V30 1667 H 147.103 2.51609 -2.75222 0
M  V30 1668 N 149.288 1.51039 0.449983 0
M  V30 1669 C 150.22 1.67617 1.56324 0
M  V30 1670 C 151.233 0.557083 1.52972 0
M  V30 1671 O 152.422 0.830989 1.57977 0
M  V30 1672 C 149.522 1.66402 2.95235 0
M  V30 1673 C 148.695 2.9469 3.23229 0
M  V30 1674 C 147.754 2.85832 4.41799 0
M  V30 1675 O 146.78 3.59785 4.41071 0
M  V30 1676 N 147.982 2.00821 5.44657 0
M  V30 1677 H 150.747 2.63648 1.42512 0
M  V30 1678 H 148.308 1.48767 0.638737 0
M  V30 1679 H 150.3 1.58062 3.72557 0
M  V30 1680 H 148.87 0.780182 3.02708 0
M  V30 1681 H 148.09 3.16996 2.34323 0
M  V30 1682 H 149.378 3.79636 3.38754 0
M  V30 1683 H 148.776 1.40091 5.48079 0
M  V30 1684 H 147.333 1.98368 6.20881 0
M  V30 1685 N 150.766 -0.704594 1.40972 0
M  V30 1686 C 152.177 -1.28418 1.3552 0
M  V30 1687 C 152.528 -1.96171 0.0339434 0
M  V30 1688 O 151.653 -1.98231 -0.867944 0
M  V30 1689 C 152.248 -2.33528 2.45459 0
M  V30 1690 C 150.807 -2.87085 2.43433 0
M  V30 1691 C 149.954 -1.61007 2.2577 0
M  V30 1692 H 152.905 -0.499963 1.50619 0
M  V30 1693 H 152.926 -3.14619 2.13998 0
M  V30 1694 H 152.438 -1.84187 3.41609 0
M  V30 1695 H 150.539 -3.40626 1.51013 0
M  V30 1696 H 150.652 -3.3813 3.39419 0
M  V30 1697 H 149.016 -1.86482 1.73483 0
M  V30 1698 H 149.799 -1.13675 3.23933 0
M  V30 1699 N 152.244 -1.26651 -0.937939 0
M  V30 1700 C 153.493 -1.11775 -1.67897 0
M  V30 1701 C 153.806 0.33794 -1.92659 0
M  V30 1702 O 155.012 0.607434 -2.64618 0
M  V30 1703 C 153.468 -1.9523 -3.02346 0
M  V30 1704 C 153.076 -3.45393 -2.8532 0
M  V30 1705 C 154.82 -1.88972 -3.80118 0
M  V30 1706 C 152.727 -4.21083 -4.15263 0
M  V30 1707 H 151.657 -0.414696 -0.629717 0
M  V30 1708 H 154.308 -1.50988 -1.04283 0
M  V30 1709 H 152.69 -1.48853 -3.66959 0
M  V30 1710 H 153.864 -3.99561 -2.29537 0
M  V30 1711 H 152.179 -3.52921 -2.20988 0
M  V30 1712 H 154.776 -2.42805 -4.76392 0
M  V30 1713 H 155.119 -0.86113 -4.07296 0
M  V30 1714 H 155.652 -2.33189 -3.22285 0
M  V30 1715 H 152.391 -5.24425 -3.93267 0
M  V30 1716 H 151.911 -3.71695 -4.70747 0
M  V30 1717 H 153.59 -4.29706 -4.83696 0
M  V30 1718 N 153.722 1.14298 -1.08507 0
M  V30 1719 C 154.97 1.84993 -0.813763 0
M  V30 1720 C 155.291 1.83405 0.662393 0
M  V30 1721 O 154.561 1.28319 1.48024 0
M  V30 1722 H 153.141 0.684966 -0.298045 0
M  V30 1723 H 155.803 1.385 -1.37126 0
M  V30 1724 H 154.899 2.89788 -1.15884 0
M  V30 1725 N 155.201 0.870884 1.31352 0
M  V30 1726 C 156.45 0.478408 1.95944 0
M  V30 1727 C 156.763 -0.974493 1.69597 0
M  V30 1728 O 157.969 -1.47316 2.28058 0
M  V30 1729 C 156.425 0.804609 3.50791 0
M  V30 1730 C 156.033 2.27433 3.85977 0
M  V30 1731 C 157.777 0.480648 4.2177 0
M  V30 1732 C 155.684 2.5429 5.33939 0
M  V30 1733 H 154.614 0.175175 0.733369 0
M  V30 1734 H 157.265 1.06391 1.4951 0
M  V30 1735 H 155.647 0.148347 3.95722 0
M  V30 1736 H 156.821 2.97373 3.52002 0
M  V30 1737 H 155.136 2.56442 3.28065 0
M  V30 1738 H 157.733 0.658519 5.30629 0
M  V30 1739 H 158.076 -0.578979 4.12254 0
M  V30 1740 H 158.609 1.09349 3.82476 0
M  V30 1741 H 155.348 3.58939 5.48491 0
M  V30 1742 H 154.868 1.88945 5.69263 0
M  V30 1743 H 156.547 2.39066 6.01212 0
M  V30 1744 N 156.679 -1.44442 0.630414 0
M  V30 1745 C 157.956 -1.9549 0.0655657 0
M  V30 1746 C 158.336 -1.5724 -1.40851 0
M  V30 1747 O 157.684 -0.846116 -2.12257 0
M  V30 1748 C 157.894 -3.47812 0.287691 0
M  V30 1749 C 159.242 -4.24216 0.180513 0
M  V30 1750 O 160.266 -3.55526 0.219019 0
M  V30 1751 O 159.125 -5.46434 0.0848493 0
M  V30 1752 H 156.219 -0.826688 -0.0227177 0
M  V30 1753 H 158.765 -1.54496 0.702068 0
M  V30 1754 H 157.537 -3.687 1.31056 0
M  V30 1755 H 157.16 -3.95751 -0.382984 0
M  V30 1756 N 158.157 -0.370918 -1.53173 0
M  V30 1757 C 159.406 0.218249 -2.00516 0
M  V30 1758 C 159.719 1.49429 -1.26215 0
M  V30 1759 O 160.925 2.16239 -1.64174 0
M  V30 1760 C 159.381 0.43948 -3.57207 0
M  V30 1761 C 158.989 -0.822244 -4.4039 0
M  V30 1762 C 160.733 0.986012 -4.1289 0
M  V30 1763 C 158.64 -0.570304 -5.88644 0
M  V30 1764 H 157.57 0.0853333 -0.749156 0
M  V30 1765 H 160.221 -0.490483 -1.76823 0
M  V30 1766 H 158.603 1.20961 -3.77074 0
M  V30 1767 H 159.777 -1.59557 -4.32294 0
M  V30 1768 H 158.092 -1.29238 -3.95836 0
M  V30 1769 H 160.689 1.18991 -5.21292 0
M  V30 1770 H 161.032 1.94972 -3.6782 0
M  V30 1771 H 161.565 0.27592 -3.96842 0
M  V30 1772 H 158.304 -1.50449 -6.38001 0
M  V30 1773 H 157.824 0.164427 -5.99575 0
M  V30 1774 H 159.503 -0.19784 -6.46697 0
M  V30 1775 N 159.635 1.57281 -0.100228 0
M  V30 1776 C 160.545 2.17833 0.870965 0
M  V30 1777 C 161.561 1.14921 1.30649 0
M  V30 1778 O 162.737 1.47313 1.37335 0
M  V30 1779 C 159.802 2.75085 2.1102 0
M  V30 1780 C 158.863 3.9297 1.72838 0
M  V30 1781 C 158.096 4.47482 2.90854 0
M  V30 1782 O 158.319 4.00922 4.05731 0
M  V30 1783 O 157.253 5.38433 2.69023 0
M  V30 1784 H 161.079 3.0124 0.38575 0
M  V30 1785 H 158.664 1.48881 0.124397 0
M  V30 1786 H 160.546 3.11656 2.83634 0
M  V30 1787 H 159.221 1.94721 2.58584 0
M  V30 1788 H 158.128 3.61201 0.973883 0
M  V30 1789 H 159.461 4.74713 1.30033 0
M  V30 1790 N 161.113 -0.173488 1.56642 0
M  V30 1791 C 162.06 -1.21482 1.96242 0
M  V30 1792 C 163.03 -1.44104 0.826027 0
M  V30 1793 O 164.215 -1.5688 1.08597 0
M  V30 1794 C 161.355 -2.54964 2.32567 0
M  V30 1795 C 160.468 -2.39739 3.59373 0
M  V30 1796 C 159.603 -3.66072 3.84921 0
M  V30 1797 C 158.642 -3.45771 5.05083 0
M  V30 1798 N 157.779 -4.64169 5.26775 0
M  V30 1799 H 162.619 -0.870123 2.85014 0
M  V30 1800 H 160.156 -0.418245 1.41029 0
M  V30 1801 H 162.114 -3.32758 2.5165 0
M  V30 1802 H 160.744 -2.87433 1.46908 0
M  V30 1803 H 159.796 -1.53131 3.48217 0
M  V30 1804 H 161.108 -2.20683 4.47326 0
M  V30 1805 H 160.262 -4.52303 4.0436 0
M  V30 1806 H 159.001 -3.88105 2.9534 0
M  V30 1807 H 158.006 -2.57927 4.85545 0
M  V30 1808 H 159.231 -3.25163 5.96193 0
M  V30 1809 H 157.177 -4.86425 4.40144 0
M  V30 1810 H 157.094 -4.48019 6.08946 0
M  V30 1811 H 158.362 -5.51689 5.5069 0
M  V30 1812 N 162.591 -1.51276 -0.441967 0
M  V30 1813 C 163.819 -1.67516 -1.21434 0
M  V30 1814 C 164.234 -0.37055 -1.85128 0
M  V30 1815 O 163.591 0.650498 -1.70513 0
M  V30 1816 C 163.642 -2.78748 -2.30177 0
M  V30 1817 O 163.363 -4.04154 -1.69089 0
M  V30 1818 C 164.864 -3.06217 -3.20541 0
M  V30 1819 H 162.084 -0.562276 -0.366178 0
M  V30 1820 H 164.628 -1.97666 -0.524244 0
M  V30 1821 H 162.783 -2.5121 -2.94911 0
M  V30 1822 H 163.197 -4.65894 -2.40922 0
M  V30 1823 H 164.671 -3.8764 -3.92987 0
M  V30 1824 H 165.148 -2.18439 -3.81026 0
M  V30 1825 H 165.754 -3.35397 -2.61513 0
M  V30 1826 N 164.069 0.697108 -1.41344 0
M  V30 1827 C 165.016 1.81106 -1.43071 0
M  V30 1828 C 165.986 1.63632 -0.285275 0
M  V30 1829 O 167.171 1.84504 -0.486091 0
M  V30 1830 C 164.311 3.18975 -1.31715 0
M  V30 1831 C 163.424 3.47892 -2.56115 0
M  V30 1832 C 162.559 4.75367 -2.37064 0
M  V30 1833 C 161.598 4.97247 -3.56948 0
M  V30 1834 N 160.735 6.15947 -3.36977 0
M  V30 1835 H 165.575 1.78965 -2.38276 0
M  V30 1836 H 163.112 0.873975 -1.18322 0
M  V30 1837 H 165.07 3.98615 -1.23133 0
M  V30 1838 H 163.7 3.20297 -0.401183 0
M  V30 1839 H 162.752 2.62669 -2.75153 0
M  V30 1840 H 164.064 3.59962 -3.45295 0
M  V30 1841 H 163.218 5.63059 -2.25941 0
M  V30 1842 H 161.957 4.65541 -1.45338 0
M  V30 1843 H 160.962 4.08004 -3.68527 0
M  V30 1844 H 162.187 5.08934 -4.49626 0
M  V30 1845 H 160.133 6.07336 -2.47949 0
M  V30 1846 H 160.05 6.28777 -4.19732 0
M  V30 1847 H 161.318 7.06377 -3.29623 0
M  V30 1848 N 165.547 1.27147 0.931209 0
M  V30 1849 C 166.958 1.12044 1.49342 0
M  V30 1850 C 167.309 -0.295795 1.93957 0
M  V30 1851 O 166.434 -1.18835 1.80852 0
M  V30 1852 C 167.029 2.02781 2.71414 0
M  V30 1853 C 165.588 1.91794 3.2387 0
M  V30 1854 C 164.735 1.95543 1.96617 0
M  V30 1855 H 167.686 1.40091 0.745672 0
M  V30 1856 H 167.707 1.58156 3.46074 0
M  V30 1857 H 167.219 3.05848 2.38911 0
M  V30 1858 H 165.32 0.916992 3.6114 0
M  V30 1859 H 165.433 2.77852 3.90302 0
M  V30 1860 H 163.797 1.39722 2.12955 0
M  V30 1861 H 164.58 3.00259 1.66432 0
M  V30 1862 N 167.025 -1.13721 1.09112 0
M  V30 1863 C 168.274 -1.84275 0.82009 0
M  V30 1864 C 168.587 -1.84253 -0.656509 0
M  V30 1865 O 169.793 -2.50668 -1.04296 0
M  V30 1866 C 168.249 -3.30825 1.41714 0
M  V30 1867 C 167.857 -3.39244 2.92605 0
M  V30 1868 C 169.601 -4.06443 1.22492 0
M  V30 1869 C 167.508 -4.80047 3.45411 0
M  V30 1870 H 166.438 -0.690387 0.30312 0
M  V30 1871 H 169.089 -1.28146 1.31343 0
M  V30 1872 H 167.471 -3.86737 0.851498 0
M  V30 1873 H 168.645 -2.93344 3.55367 0
M  V30 1874 H 166.96 -2.77088 3.10823 0
M  V30 1875 H 169.557 -5.10387 1.59402 0
M  V30 1876 H 169.9 -4.15972 0.165299 0
M  V30 1877 H 170.433 -3.56852 1.75788 0
M  V30 1878 H 167.172 -4.75709 4.50978 0
M  V30 1879 H 166.692 -5.26455 2.87411 0
M  V30 1880 H 168.371 -5.48957 3.42425 0
M  V30 1881 N 168.503 -0.877838 -1.30888 0
M  V30 1882 C 169.728 -0.506629 -2.01117 0
M  V30 1883 C 170.153 0.895564 -1.65412 0
M  V30 1884 O 169.511 1.5923 -0.866922 0
M  V30 1885 C 169.559 -0.680223 -3.54126 0
M  V30 1886 O 168.663 0.277033 -4.11468 0
M  V30 1887 H 168.004 -0.200518 -0.633 0
M  V30 1888 H 170.534 -1.18342 -1.66902 0
M  V30 1889 H 170.544 -0.5765 -4.03907 0
M  V30 1890 H 169.219 -1.70261 -3.79452 0
M  V30 1891 H 167.796 0.127606 -3.72682 0
M  V30 1892 N 169.982 1.44106 -0.638065 0
M  V30 1893 C 170.912 2.33448 0.0494287 0
M  V30 1894 C 171.893 1.48606 0.827672 0
M  V30 1895 O 173.078 1.77308 0.792173 0
M  V30 1896 C 170.208 3.31771 1.02691 0
M  V30 1897 C 169.162 4.26485 0.359823 0
M  V30 1898 C 168.488 5.14729 1.44769 0
M  V30 1899 C 169.788 5.17056 -0.738296 0
M  V30 1900 H 171.482 2.91183 -0.696636 0
M  V30 1901 H 169.028 1.40014 -0.336456 0
M  V30 1902 H 170.981 3.93161 1.51666 0
M  V30 1903 H 169.705 2.7226 1.80395 0
M  V30 1904 H 168.364 3.66437 -0.10934 0
M  V30 1905 H 168.012 4.51566 2.21578 0
M  V30 1906 H 167.712 5.78913 1.00668 0
M  V30 1907 H 169.236 5.78991 1.93911 0
M  V30 1908 H 170.65 5.72342 -0.331354 0
M  V30 1909 H 169.047 5.89879 -1.10286 0
M  V30 1910 H 170.117 4.57652 -1.60258 0
M  V30 1911 N 171.46 0.379036 1.52974 0
M  V30 1912 C 172.37 -0.468639 2.29872 0
M  V30 1913 C 173.386 -1.08067 1.36373 0
M  V30 1914 O 174.562 -1.08871 1.69438 0
M  V30 1915 C 171.627 -1.58594 3.083 0
M  V30 1916 C 170.688 -1.00007 4.17489 0
M  V30 1917 C 169.921 -2.06413 4.92168 0
M  V30 1918 O 170.144 -3.27751 4.66835 0
M  V30 1919 O 169.078 -1.68717 5.7777 0
M  V30 1920 H 172.904 0.157508 3.03291 0
M  V30 1921 H 170.489 0.143035 1.48714 0
M  V30 1922 H 172.371 -2.23525 3.57232 0
M  V30 1923 H 171.046 -2.19724 2.37703 0
M  V30 1924 H 169.953 -0.314299 3.72777 0
M  V30 1925 H 171.286 -0.433135 4.90291 0
M  V30 1926 N 172.938 -1.57226 0.108567 0
M  V30 1927 C 174.187 -1.94008 -0.551703 0
M  V30 1928 C 174.5 -0.993442 -1.68494 0
M  V30 1929 O 175.706 -1.25551 -2.40726 0
M  V30 1930 C 174.162 -3.44763 -1.03279 0
M  V30 1931 C 173.77 -4.47943 0.0714193 0
M  V30 1932 C 175.514 -3.90483 -1.66503 0
M  V30 1933 C 173.421 -5.89865 -0.425779 0
M  V30 1934 H 172.351 -0.724206 -0.209863 0
M  V30 1935 H 175.002 -1.82547 0.186741 0
M  V30 1936 H 173.384 -3.51422 -1.82533 0
M  V30 1937 H 174.558 -4.52942 0.847365 0
M  V30 1938 H 172.873 -4.11913 0.609669 0
M  V30 1939 H 175.47 -4.93925 -2.04798 0
M  V30 1940 H 175.813 -3.29877 -2.53942 0
M  V30 1941 H 176.346 -3.86581 -0.938074 0
M  V30 1942 H 173.085 -6.54202 0.412316 0
M  V30 1943 H 172.605 -5.88309 -1.16843 0
M  V30 1944 H 174.284 -6.40844 -0.890397 0
M  V30 1945 N 174.416 0.165178 -1.56732 0
M  V30 1946 C 175.379 1.18822 -1.95995 0
M  V30 1947 C 176.379 1.3685 -0.84431 0
M  V30 1948 O 177.569 1.34152 -1.11126 0
M  V30 1949 C 174.701 2.5521 -2.26011 0
M  V30 1950 H 175.894 0.851825 -2.87548 0
M  V30 1951 H 173.447 0.407857 -1.50885 0
M  V30 1952 H 174.182 2.93852 -1.37191 0
M  V30 1953 H 173.967 2.43489 -3.07336 0
M  V30 1954 H 175.457 3.28927 -2.57288 0
M  V30 1955 N 175.894 1.51508 0.433938 0
M  V30 1956 C 176.841 1.73068 1.52696 0
M  V30 1957 C 177.811 0.572441 1.55924 0
M  V30 1958 O 178.996 0.807253 1.72882 0
M  V30 1959 C 176.136 1.86474 2.90381 0
M  V30 1960 C 175.249 3.14037 2.96656 0
M  V30 1961 C 174.384 3.18019 4.25485 0
M  V30 1962 C 173.423 4.39882 4.2564 0
M  V30 1963 N 172.56 4.41394 5.45999 0
M  V30 1964 H 177.4 2.66366 1.33615 0
M  V30 1965 H 174.937 1.32008 0.649018 0
M  V30 1966 H 176.895 1.92229 3.70275 0
M  V30 1967 H 175.525 0.965809 3.08013 0
M  V30 1968 H 174.577 3.17575 2.09404 0
M  V30 1969 H 175.889 4.0394 2.92633 0
M  V30 1970 H 175.043 3.22708 5.13755 0
M  V30 1971 H 173.782 2.2601 4.3217 0
M  V30 1972 H 172.787 4.35366 3.35763 0
M  V30 1973 H 174.012 5.33159 4.20617 0
M  V30 1974 H 171.958 3.52258 5.53399 0
M  V30 1975 H 171.875 5.25111 5.4387 0
M  V30 1976 H 173.143 4.50281 6.36292 0
M  V30 1977 N 177.372 -0.689602 1.41712 0
M  V30 1978 C 178.788 -1.00093 1.24312 0
M  V30 1979 C 178.988 -2.01036 0.136729 0
M  V30 1980 O 178.044 -2.47562 -0.496918 0
M  V30 1981 C 179.357 -1.51985 2.59463 0
M  V30 1982 C 180.905 -1.63838 2.66695 0
M  V30 1983 C 181.38 -2.1913 4.02177 0
M  V30 1984 N 182.871 -2.26483 4.04054 0
M  V30 1985 C 183.606 -2.70306 5.0569 0
M  V30 1986 N 183.102 -3.13691 6.17713 0
M  V30 1987 N 184.895 -2.69923 4.9305 0
M  V30 1988 H 177.046 -0.0210029 2.1239 0
M  V30 1989 H 179.309 -0.0718733 0.945272 0
M  V30 1990 H 179.015 -0.85269 3.41207 0
M  V30 1991 H 178.889 -2.50103 2.82362 0
M  V30 1992 H 181.276 -2.29664 1.85306 0
M  V30 1993 H 181.357 -0.642492 2.476 0
M  V30 1994 H 181.001 -1.53918 4.84016 0
M  V30 1995 H 180.931 -3.19482 4.18615 0
M  V30 1996 H 183.422 -1.95874 3.23174 0
M  V30 1997 H 183.735 -3.45773 6.9113 0
M  V30 1998 H 182.08 -3.11585 6.21241 0
M  V30 1999 H 185.271 -2.35382 4.04614 0
M  V30 2000 H 185.444 -3.03758 5.72394 0
M  V30 2001 N 178.85 -1.27639 -0.924453 0
M  V30 2002 C 180.097 -1.14167 -1.67249 0
M  V30 2003 C 180.425 0.311863 -1.91984 0
M  V30 2004 O 179.68 1.24425 -1.51053 0
M  V30 2005 C 179.979 -1.87407 -3.04325 0
M  V30 2006 C 179.645 -3.37249 -2.99289 0
M  V30 2007 C 178.307 -3.7812 -2.97622 0
M  V30 2008 C 180.659 -4.32845 -2.90336 0
M  V30 2009 C 177.987 -5.12944 -2.8479 0
M  V30 2010 C 180.339 -5.6773 -2.79045 0
M  V30 2011 C 179.003 -6.07889 -2.7573 0
M  V30 2012 H 178.273 -0.417766 -0.612007 0
M  V30 2013 H 180.92 -1.58286 -1.07786 0
M  V30 2014 H 179.225 -1.35805 -3.67511 0
M  V30 2015 H 180.922 -1.74408 -3.61086 0
M  V30 2016 H 177.512 -3.04748 -3.01374 0
M  V30 2017 H 181.696 -4.02239 -2.90719 0
M  V30 2018 H 176.952 -5.432 -2.80612 0
M  V30 2019 H 181.126 -6.41472 -2.71083 0
M  V30 2020 H 178.753 -7.12314 -2.65544 0
M  V30 2021 N 180.328 1.1314 -1.09713 0
M  V30 2022 C 181.575 1.84484 -0.834987 0
M  V30 2023 C 181.903 1.83689 0.639418 0
M  V30 2024 O 181.158 1.2724 1.4869 0
M  V30 2025 C 181.457 3.32167 -1.3191 0
M  V30 2026 C 181.123 3.53139 -2.80363 0
M  V30 2027 C 179.785 3.58571 -3.20905 0
M  V30 2028 C 182.137 3.60866 -3.76065 0
M  V30 2029 C 179.465 3.69267 -4.55916 0
M  V30 2030 C 181.817 3.73089 -5.10869 0
M  V30 2031 C 180.481 3.76775 -5.50996 0
M  V30 2032 H 179.751 0.675073 -0.305544 0
M  V30 2033 H 182.398 1.33554 -1.37243 0
M  V30 2034 H 180.703 3.85469 -0.701517 0
M  V30 2035 H 182.4 3.85821 -1.09284 0
M  V30 2036 H 178.99 3.49569 -2.47991 0
M  V30 2037 H 183.174 3.55946 -3.45855 0
M  V30 2038 H 178.43 3.70388 -4.86438 0
M  V30 2039 H 182.604 3.78011 -5.84877 0
M  V30 2040 H 180.231 3.84815 -6.55608 0
M  V30 2041 N 181.806 0.884767 1.30421 0
M  V30 2042 C 183.031 0.517288 2.00845 0
M  V30 2043 C 183.456 -0.886779 1.65885 0
M  V30 2044 O 182.814 -1.58768 0.875354 0
M  V30 2045 C 182.862 0.698994 3.5376 0
M  V30 2046 O 181.966 -0.255208 4.1161 0
M  V30 2047 H 181.307 0.203872 0.631927 0
M  V30 2048 H 183.837 1.19225 1.66272 0
M  V30 2049 H 183.847 0.597912 4.03595 0
M  V30 2050 H 182.522 1.72271 3.78544 0
M  V30 2051 H 181.099 -0.10784 3.72744 0
M  V30 2052 N 183.284 -1.43765 0.645699 0
M  V30 2053 C 184.231 -2.30745 -0.0504648 0
M  V30 2054 C 185.201 -1.4432 -0.822241 0
M  V30 2055 O 186.386 -1.73202 -0.800358 0
M  V30 2056 C 183.526 -3.29802 -1.0161 0
M  V30 2057 C 182.639 -4.31326 -0.241219 0
M  V30 2058 C 181.774 -5.17469 -1.19998 0
M  V30 2059 C 180.813 -6.10691 -0.415094 0
M  V30 2060 N 179.95 -6.89483 -1.32506 0
M  V30 2061 H 184.79 -2.8973 0.697155 0
M  V30 2062 H 182.327 -1.42738 0.355563 0
M  V30 2063 H 184.285 -3.85734 -1.58949 0
M  V30 2064 H 182.915 -2.72483 -1.73069 0
M  V30 2065 H 181.967 -3.77749 0.448334 0
M  V30 2066 H 183.279 -4.9743 0.369437 0
M  V30 2067 H 182.433 -5.7799 -1.84424 0
M  V30 2068 H 181.172 -4.51473 -1.84455 0
M  V30 2069 H 180.177 -5.49265 0.242565 0
M  V30 2070 H 181.402 -6.78727 0.224966 0
M  V30 2071 H 179.348 -6.26142 -1.95657 0
M  V30 2072 H 179.265 -7.52081 -0.768783 0
M  V30 2073 H 180.533 -7.54516 -1.9577 0
M  V30 2074 N 184.763 -0.387143 -1.52771 0
M  V30 2075 C 185.991 0.195869 -2.05971 0
M  V30 2076 C 186.406 1.40691 -1.25903 0
M  V30 2077 O 185.763 1.79931 -0.305134 0
M  V30 2078 C 185.814 0.56812 -3.57008 0
M  V30 2079 O 185.535 -0.594803 -4.34043 0
M  V30 2080 C 187.036 1.20723 -4.26545 0
M  V30 2081 H 184.256 0.0300578 -0.670326 0
M  V30 2082 H 186.8 -0.551749 -1.96916 0
M  V30 2083 H 184.955 1.26564 -3.66143 0
M  V30 2084 H 185.369 -0.289322 -5.23701 0
M  V30 2085 H 186.843 1.41807 -5.33474 0
M  V30 2086 H 187.32 2.17395 -3.81623 0
M  V30 2087 H 187.926 0.550535 -4.21722 0
M  V30 2088 N 186.241 1.57166 -0.116904 0
M  V30 2089 C 187.151 2.18745 0.847812 0
M  V30 2090 C 188.167 1.163 1.29423 0
M  V30 2091 O 189.343 1.48761 1.35765 0
M  V30 2092 C 186.408 2.77307 2.0809 0
M  V30 2093 C 185.469 3.94781 1.68661 0
M  V30 2094 C 184.702 4.50541 2.86091 0
M  V30 2095 O 184.925 4.05202 4.01456 0
M  V30 2096 O 183.859 5.41256 2.63298 0
M  V30 2097 H 187.685 3.01632 0.353778 0
M  V30 2098 H 185.27 1.49005 0.108599 0
M  V30 2099 H 187.152 3.14647 2.80313 0
M  V30 2100 H 185.827 1.97452 2.56504 0
M  V30 2101 H 184.734 3.62214 0.935518 0
M  V30 2102 H 186.067 4.76065 1.24991 0
M  V30 2103 N 187.719 -0.156864 1.56817 0
M  V30 2104 C 188.949 -0.885031 1.86684 0
M  V30 2105 C 189.357 -1.75696 0.701954 0
M  V30 2106 O 188.7 -1.80569 -0.337732 0
M  V30 2107 C 188.762 -1.80092 3.11138 0
M  V30 2108 C 188.426 -1.10714 4.43386 0
M  V30 2109 C 189.423 -0.465714 5.1781 0
M  V30 2110 C 187.108 -1.09959 4.90117 0
M  V30 2111 C 189.102 0.174002 6.37162 0
M  V30 2112 C 186.789 -0.456055 6.09396 0
M  V30 2113 C 187.787 0.179622 6.82764 0
M  V30 2114 O 187.475 0.812975 7.99779 0
M  V30 2115 H 187.207 -0.261813 0.623242 0
M  V30 2116 H 189.761 -0.157383 2.04796 0
M  V30 2117 H 187.991 -2.56926 2.89009 0
M  V30 2118 H 189.68 -2.40018 3.27332 0
M  V30 2119 H 190.446 -0.463427 4.82781 0
M  V30 2120 H 186.325 -1.58378 4.3294 0
M  V30 2121 H 189.869 0.670765 6.94368 0
M  V30 2122 H 185.766 -0.455975 6.43888 0
M  V30 2123 H 186.534 0.71366 8.15383 0
M  V30 2124 N 189.197 -1.51736 -0.425897 0
M  V30 2125 C 190.422 -1.69082 -1.20108 0
M  V30 2126 C 190.847 -0.392398 -1.83962 0
M  V30 2127 O 190.205 0.64858 -1.69302 0
M  V30 2128 C 190.253 -2.81604 -2.25237 0
M  V30 2129 O 189.357 -2.46004 -3.30992 0
M  V30 2130 H 188.698 -0.563408 -0.35138 0
M  V30 2131 H 191.228 -1.98358 -0.501512 0
M  V30 2132 H 191.238 -3.06025 -2.69838 0
M  V30 2133 H 189.913 -3.75817 -1.78142 0
M  V30 2134 H 188.49 -2.32195 -2.91787 0
M  V30 2135 N 190.675 0.682077 -1.42076 0
M  V30 2136 C 191.952 1.43755 -1.32642 0
M  V30 2137 C 192.332 2.11063 0.0396611 0
M  V30 2138 O 191.68 2.02701 1.05474 0
M  V30 2139 C 191.89 2.44596 -2.48946 0
M  V30 2140 C 193.238 3.09454 -2.9073 0
M  V30 2141 O 194.262 2.54922 -2.48783 0
M  V30 2142 O 193.121 4.08253 -3.63307 0
M  V30 2143 H 190.215 0.640857 -0.522715 0
M  V30 2144 H 192.761 0.711415 -1.54068 0
M  V30 2145 H 191.533 1.93609 -3.40046 0
M  V30 2146 H 191.156 3.24701 -2.29467 0
M  V30 2147 N 192.153 1.28127 0.917671 0
M  V30 2148 C 193.083 1.14248 2.03641 0
M  V30 2149 C 194.064 0.0412748 1.7005 0
M  V30 2150 O 195.249 0.217566 1.92977 0
M  V30 2151 C 192.379 0.799431 3.37974 0
M  V30 2152 C 191.333 1.85497 3.85713 0
M  V30 2153 C 190.659 1.36565 5.16966 0
M  V30 2154 C 191.959 3.26085 4.08002 0
M  V30 2155 H 193.653 2.07835 2.15511 0
M  V30 2156 H 191.199 1.00064 1.03553 0
M  V30 2157 H 193.152 0.689114 4.15727 0
M  V30 2158 H 191.876 -0.172145 3.26146 0
M  V30 2159 H 190.535 1.95437 3.10161 0
M  V30 2160 H 190.183 0.383253 5.01538 0
M  V30 2161 H 189.883 2.07143 5.49878 0
M  V30 2162 H 191.407 1.26848 5.97279 0
M  V30 2163 H 192.821 3.19089 4.76293 0
M  V30 2164 H 191.218 3.94462 4.52238 0
M  V30 2165 H 192.288 3.70394 3.12948 0
M  V30 2166 N 193.631 -1.12557 1.10312 0
M  V30 2167 C 194.561 -2.20341 0.772798 0
M  V30 2168 C 195.542 -1.68198 -0.25365 0
M  V30 2169 O 196.727 -1.93831 -0.119699 0
M  V30 2170 C 193.857 -3.46709 0.202443 0
M  V30 2171 C 192.811 -4.11996 1.15943 0
M  V30 2172 C 192.137 -5.328 0.450345 0
M  V30 2173 C 193.437 -4.5828 2.50552 0
M  V30 2174 H 195.131 -2.48229 1.674 0
M  V30 2175 H 192.677 -1.19308 0.806326 0
M  V30 2176 H 194.63 -4.2138 -0.0407752 0
M  V30 2177 H 193.354 -3.18245 -0.734001 0
M  V30 2178 H 192.013 -3.39305 1.38808 0
M  V30 2179 H 191.661 -5.00602 -0.490531 0
M  V30 2180 H 191.361 -5.7743 1.08851 0
M  V30 2181 H 192.885 -6.10219 0.215642 0
M  V30 2182 H 194.299 -5.2433 2.31843 0
M  V30 2183 H 192.696 -5.13683 3.10242 0
M  V30 2184 H 193.766 -3.72329 3.10643 0
M  V30 2185 N 195.109 -0.891671 -1.2995 0
M  V30 2186 C 196.072 -0.36828 -2.26222 0
M  V30 2187 C 197.072 0.493014 -1.53056 0
M  V30 2188 O 198.262 0.299213 -1.71611 0
M  V30 2189 C 195.394 0.47442 -3.37583 0
M  V30 2190 H 196.587 -1.21844 -2.74033 0
M  V30 2191 H 194.14 -0.669107 -1.41254 0
M  V30 2192 H 194.875 1.34489 -2.95099 0
M  V30 2193 H 194.66 -0.142615 -3.91841 0
M  V30 2194 H 196.15 0.83218 -4.09224 0
M  V30 2195 N 196.587 1.43421 -0.653314 0
M  V30 2196 C 197.534 2.30768 0.0382271 0
M  V30 2197 C 198.504 1.44755 0.814576 0
M  V30 2198 O 199.689 1.73624 0.791162 0
M  V30 2199 C 196.829 3.30336 0.998599 0
M  V30 2200 C 195.942 4.31448 0.218342 0
M  V30 2201 C 195.077 5.18098 1.17252 0
M  V30 2202 C 194.116 6.10902 0.382702 0
M  V30 2203 N 193.253 6.90176 1.28848 0
M  V30 2204 H 198.093 2.89357 -0.712511 0
M  V30 2205 H 195.63 1.42548 -0.363128 0
M  V30 2206 H 197.588 3.86572 1.56901 0
M  V30 2207 H 196.218 2.73397 1.71621 0
M  V30 2208 H 195.27 3.77506 -0.46836 0
M  V30 2209 H 196.582 4.97227 -0.395812 0
M  V30 2210 H 195.736 5.7896 1.81356 0
M  V30 2211 H 194.475 4.52444 1.82058 0
M  V30 2212 H 193.48 5.49128 -0.27169 0
M  V30 2213 H 194.705 6.78598 -0.260957 0
M  V30 2214 H 192.651 6.27171 1.92334 0
M  V30 2215 H 192.568 7.52478 0.728887 0
M  V30 2216 H 193.836 7.55543 1.91766 0
M  V30 2217 N 198.065 0.39524 1.52563 0
M  V30 2218 C 199.342 -0.242908 1.94086 0
M  V30 2219 C 199.722 -1.63841 1.33114 0
M  V30 2220 O 199.07 -2.22928 0.501529 0
M  V30 2221 C 199.28 -0.26327 3.48006 0
M  V30 2222 C 200.628 -0.489354 4.21771 0
M  V30 2223 O 201.652 -0.343226 3.54543 0
M  V30 2224 O 200.511 -0.776169 5.4096 0
M  V30 2225 H 197.605 -0.152536 0.812811 0
M  V30 2226 H 200.151 0.450178 1.6362 0
M  V30 2227 H 198.923 0.713985 3.84731 0
M  V30 2228 H 198.546 -1.00103 3.84792 0
M  V30 2229 N 199.544 -1.57102 0.125237 0
M  V30 2230 C 200.491 -2.15641 -0.822655 0
M  V30 2231 C 201.461 -1.08313 -1.25927 0
M  V30 2232 O 202.646 -1.36251 -1.33567 0
M  V30 2233 C 199.786 -2.76504 -2.06494 0
M  V30 2234 C 198.899 -3.98158 -1.67612 0
M  V30 2235 C 198.034 -4.47088 -2.86854 0
M  V30 2236 C 197.073 -5.6126 -2.44242 0
M  V30 2237 N 196.21 -6.04905 -3.56419 0
M  V30 2238 H 201.05 -2.96313 -0.316625 0
M  V30 2239 H 198.587 -1.46388 -0.144588 0
M  V30 2240 H 200.545 -3.09925 -2.79289 0
M  V30 2241 H 199.175 -1.98512 -2.54545 0
M  V30 2242 H 198.227 -3.70858 -0.846661 0
M  V30 2243 H 199.539 -4.80934 -1.32301 0
M  V30 2244 H 198.693 -4.82451 -3.67867 0
M  V30 2245 H 197.432 -3.63275 -3.25396 0
M  V30 2246 H 196.437 -5.25495 -1.61663 0
M  V30 2247 H 197.662 -6.46843 -2.0681 0
M  V30 2248 H 195.608 -5.24032 -3.94623 0
M  V30 2249 H 195.525 -6.82552 -3.25051 0
M  V30 2250 H 196.793 -6.44907 -4.37853 0
M  V30 2251 N 201.022 0.148545 -1.56898 0
M  V30 2252 C 202.299 0.890019 -1.74178 0
M  V30 2253 C 202.679 1.99407 -0.692839 0
M  V30 2254 O 202.027 2.26671 0.288505 0
M  V30 2255 C 202.237 1.43389 -3.18183 0
M  V30 2256 C 203.585 1.89791 -3.79822 0
M  V30 2257 O 204.609 1.53134 -3.21603 0
M  V30 2258 O 203.468 2.57387 -4.82093 0
M  V30 2259 H 200.562 0.420496 -0.712118 0
M  V30 2260 H 203.108 0.134591 -1.69165 0
M  V30 2261 H 201.88 0.640383 -3.86024 0
M  V30 2262 H 201.503 2.25287 -3.27615 0
M  V30 2263 N 202.5 1.5196 0.417844 0
M  V30 2264 C 203.41 1.77554 1.53336 0
M  V30 2265 C 204.426 0.660655 1.6097 0
M  V30 2266 O 205.602 0.945099 1.77848 0
M  V30 2267 C 202.667 1.91291 2.89152 0
M  V30 2268 C 201.728 3.15183 2.91475 0
M  V30 2269 C 200.961 3.28256 4.20813 0
M  V30 2270 O 201.184 2.46798 5.14244 0
M  V30 2271 O 200.118 4.21356 4.29817 0
M  V30 2272 H 203.944 2.7222 1.34647 0
M  V30 2273 H 201.529 1.36698 0.602828 0
M  V30 2274 H 203.411 2.02199 3.69721 0
M  V30 2275 H 202.086 0.998129 3.07927 0
M  V30 2276 H 200.993 3.09739 2.09791 0
M  V30 2277 H 202.326 4.06414 2.77648 0
M  V30 2278 N 203.978 -0.674533 1.42435 0
M  V30 2279 C 204.91 -1.80005 1.41883 0
M  V30 2280 C 205.923 -1.59667 0.31787 0
M  V30 2281 O 207.112 -1.68781 0.580973 0
M  V30 2282 C 204.212 -3.17114 1.19549 0
M  V30 2283 C 203.385 -3.64299 2.42084 0
M  V30 2284 C 202.444 -4.80142 2.15291 0
M  V30 2285 O 201.47 -4.90673 2.88493 0
M  V30 2286 N 202.672 -5.68869 1.1562 0
M  V30 2287 H 205.437 -1.80964 2.38898 0
M  V30 2288 H 202.998 -0.857633 1.37318 0
M  V30 2289 H 204.99 -3.92267 0.995417 0
M  V30 2290 H 203.56 -3.11053 0.310569 0
M  V30 2291 H 202.78 -2.79822 2.77657 0
M  V30 2292 H 204.068 -3.92567 3.23679 0
M  V30 2293 H 203.466 -5.63012 0.550765 0
M  V30 2294 H 202.023 -6.43833 1.016 0
M  V30 2295 N 205.456 -1.28612 -0.910864 0
M  V30 2296 C 206.684 -1.18792 -1.69399 0
M  V30 2297 C 207.099 0.253039 -1.87097 0
M  V30 2298 O 206.456 1.17071 -1.40003 0
M  V30 2299 C 206.507 -1.88511 -3.08457 0
M  V30 2300 O 206.228 -3.26979 -2.91576 0
M  V30 2301 C 207.729 -1.85029 -4.02839 0
M  V30 2302 H 204.949 -0.412233 -0.529438 0
M  V30 2303 H 207.493 -1.69788 -1.13984 0
M  V30 2304 H 205.648 -1.41379 -3.60681 0
M  V30 2305 H 206.062 -3.61936 -3.79608 0
M  V30 2306 H 207.536 -2.38395 -4.97867 0
M  V30 2307 H 208.013 -0.823303 -4.31414 0
M  V30 2308 H 208.619 -2.31853 -3.56545 0
M  V30 2309 N 206.934 1.1197 -1.10907 0
M  V30 2310 C 208.211 1.79959 -0.766432 0
M  V30 2311 C 208.591 1.97466 0.746363 0
M  V30 2312 O 207.939 1.55491 1.67436 0
M  V30 2313 C 208.149 3.14009 -1.52314 0
M  V30 2314 C 209.497 3.89134 -1.69883 0
M  V30 2315 O 210.521 3.2368 -1.48692 0
M  V30 2316 O 209.38 5.06572 -2.05054 0
M  V30 2317 H 206.474 0.779208 -0.277062 0
M  V30 2318 H 209.02 1.18762 -1.21217 0
M  V30 2319 H 207.792 2.96587 -2.55249 0
M  V30 2320 H 207.415 3.82915 -1.07059 0
M  V30 2321 N 208.412 0.89855 1.29475 0
M  V30 2322 C 209.642 0.538479 1.99459 0
M  V30 2323 C 210.05 -0.880922 1.67441 0
M  V30 2324 O 209.393 -1.59283 0.915127 0
M  V30 2325 C 209.455 0.649564 3.53583 0
M  V30 2326 C 209.119 2.03573 4.09154 0
M  V30 2327 C 210.116 3.00675 4.24135 0
M  V30 2328 C 207.801 2.3448 4.44212 0
M  V30 2329 C 209.795 4.26809 4.73405 0
M  V30 2330 C 207.482 3.60857 4.93179 0
M  V30 2331 C 208.48 4.56836 5.0773 0
M  V30 2332 O 208.168 5.80969 5.55635 0
M  V30 2333 H 207.9 0.205372 0.644048 0
M  V30 2334 H 210.454 1.20958 1.66007 0
M  V30 2335 H 208.684 -0.0785592 3.8662 0
M  V30 2336 H 210.373 0.29881 4.04799 0
M  V30 2337 H 211.139 2.78112 3.97339 0
M  V30 2338 H 207.018 1.60534 4.32145 0
M  V30 2339 H 210.562 5.0173 4.84678 0
M  V30 2340 H 206.459 3.83251 5.19412 0
M  V30 2341 H 207.227 5.83542 5.73952 0
M  V30 2342 N 209.89 -1.43072 0.660911 0
M  V30 2343 C 211.137 -2.01721 0.177445 0
M  V30 2344 C 211.465 -1.5218 -1.21126 0
M  V30 2345 O 210.72 -0.708659 -1.82419 0
M  V30 2346 C 211.019 -3.57103 0.145563 0
M  V30 2347 C 210.685 -4.26021 1.47705 0
M  V30 2348 C 209.347 -4.44563 1.84165 0
M  V30 2349 C 211.699 -4.64983 2.35458 0
M  V30 2350 C 209.027 -4.99334 3.0803 0
M  V30 2351 C 211.379 -5.21127 3.58622 0
M  V30 2352 C 210.043 -5.37884 3.95268 0
M  V30 2353 H 209.313 -0.73815 0.0649317 0
M  V30 2354 H 211.96 -1.71446 0.853144 0
M  V30 2355 H 210.265 -3.86965 -0.61361 0
M  V30 2356 H 211.962 -4.00248 -0.2455 0
M  V30 2357 H 208.552 -4.11939 1.18339 0
M  V30 2358 H 212.736 -4.50343 2.08579 0
M  V30 2359 H 207.992 -5.10493 3.36462 0
M  V30 2360 H 212.166 -5.50262 4.26831 0
M  V30 2361 H 209.793 -5.80089 4.91325 0
M  V30 2362 N 211.368 -0.403325 -1.52352 0
M  V30 2363 C 212.598 0.17376 -2.05868 0
M  V30 2364 C 213.006 1.39898 -1.27378 0
M  V30 2365 O 212.349 1.80939 -0.31729 0
M  V30 2366 C 212.411 0.594756 -3.54546 0
M  V30 2367 C 212.075 -0.518926 -4.54044 0
M  V30 2368 C 213.072 -1.3807 -5.01231 0
M  V30 2369 C 210.757 -0.689961 -4.97539 0
M  V30 2370 C 212.751 -2.39852 -5.90551 0
M  V30 2371 C 210.438 -1.71109 -5.86656 0
M  V30 2372 C 211.436 -2.56378 -6.33056 0
M  V30 2373 O 211.124 -3.56743 -7.20409 0
M  V30 2374 H 210.856 0.0264951 -0.675481 0
M  V30 2375 H 213.41 -0.571179 -1.97299 0
M  V30 2376 H 211.64 1.39189 -3.60782 0
M  V30 2377 H 213.329 1.0991 -3.90736 0
M  V30 2378 H 214.095 -1.25994 -4.68349 0
M  V30 2379 H 209.974 -0.035939 -4.60986 0
M  V30 2380 H 213.518 -3.06441 -6.26689 0
M  V30 2381 H 209.415 -1.83218 -6.18952 0
M  V30 2382 H 210.183 -3.52918 -7.38506 0
M  V30 2383 N 212.846 1.57033 -0.133567 0
M  V30 2384 C 213.796 2.12641 0.822671 0
M  V30 2385 C 214.78 1.05081 1.21847 0
M  V30 2386 O 215.972 1.31287 1.18713 0
M  V30 2387 C 213.101 2.74094 2.06706 0
M  V30 2388 C 212.187 3.88757 1.69497 0
M  V30 2389 N 212.578 4.95194 1.03037 0
M  V30 2390 C 210.876 3.99213 1.98859 0
M  V30 2391 C 211.577 5.75414 0.852873 0
M  V30 2392 N 210.553 5.25726 1.3825 0
M  V30 2393 H 214.355 2.92308 0.305537 0
M  V30 2394 H 211.869 1.62256 0.0684276 0
M  V30 2395 H 213.866 3.12285 2.76195 0
M  V30 2396 H 212.526 1.95896 2.5895 0
M  V30 2397 H 213.537 5.13247 0.692669 0
M  V30 2398 H 210.214 3.32075 2.53047 0
M  V30 2399 H 211.604 6.71089 0.330091 0
M  V30 2400 N 214.325 -0.140222 1.56975 0
M  V30 2401 C 215.255 -1.17456 2.01808 0
M  V30 2402 C 216.236 -1.44415 0.898794 0
M  V30 2403 O 217.421 -1.5522 1.16707 0
M  V30 2404 C 214.551 -2.50607 2.40444 0
M  V30 2405 C 213.505 -2.38155 3.55621 0
M  V30 2406 C 212.831 -3.76078 3.80091 0
M  V30 2407 C 214.131 -1.85991 4.88062 0
M  V30 2408 H 215.825 -0.801743 2.88466 0
M  V30 2409 H 213.371 -0.38422 1.38779 0
M  V30 2410 H 215.324 -3.23197 2.7041 0
M  V30 2411 H 214.048 -2.89737 1.50732 0
M  V30 2412 H 212.707 -1.68016 3.25832 0
M  V30 2413 H 212.355 -4.12656 2.87618 0
M  V30 2414 H 212.055 -3.68606 4.57606 0
M  V30 2415 H 213.579 -4.50206 4.12488 0
M  V30 2416 H 214.993 -2.4838 5.16701 0
M  V30 2417 H 213.39 -1.89393 5.6943 0
M  V30 2418 H 214.46 -0.816023 4.77984 0
M  V30 2419 N 215.803 -1.52179 -0.40978 0
M  V30 2420 C 217.049 -1.67408 -1.15525 0
M  V30 2421 C 217.404 -0.398746 -1.88223 0
M  V30 2422 O 216.697 0.60678 -1.81738 0
M  V30 2423 C 216.891 -2.83428 -2.17723 0
M  V30 2424 C 216.72 -4.22121 -1.55061 0
M  V30 2425 C 215.49 -4.87657 -1.3236 0
M  V30 2426 C 217.688 -5.04248 -1.01185 0
M  V30 2427 N 215.67 -6.10387 -0.655834 0
M  V30 2428 C 217.041 -6.18209 -0.470963 0
M  V30 2429 C 219.096 -4.89583 -0.906252 0
M  V30 2430 C 217.799 -7.1911 0.165172 0
M  V30 2431 C 219.825 -5.90718 -0.28397 0
M  V30 2432 C 219.187 -7.03969 0.246243 0
M  V30 2433 H 215.286 -0.666251 -0.409431 0
M  V30 2434 H 217.87 -1.89482 -0.447729 0
M  V30 2435 H 216.041 -2.6297 -2.85834 0
M  V30 2436 H 217.773 -2.87697 -2.84627 0
M  V30 2437 H 214.528 -4.46007 -1.59294 0
M  V30 2438 H 214.952 -6.76153 -0.338596 0
M  V30 2439 H 219.594 -4.02253 -1.302 0
M  V30 2440 H 217.312 -8.06066 0.572986 0
M  V30 2441 H 220.898 -5.81443 -0.203792 0
M  V30 2442 H 219.778 -7.80886 0.720173 0
M  V30 2443 N 217.281 0.66697 -1.42791 0
M  V30 2444 C 218.506 1.46004 -1.47301 0
M  V30 2445 C 218.931 1.87894 -0.0880317 0
M  V30 2446 O 218.289 1.56502 0.915253 0
M  V30 2447 C 218.337 2.68031 -2.41229 0
M  V30 2448 O 217.441 3.6659 -1.88906 0
M  V30 2449 H 216.782 0.43832 -0.49877 0
M  V30 2450 H 219.312 0.817391 -1.87563 0
M  V30 2451 H 219.322 3.1601 -2.58073 0
M  V30 2452 H 217.997 2.36883 -3.41847 0
M  V30 2453 H 216.574 3.25661 -1.81656 0
M  V30 2454 N 218.759 1.29093 0.90403 0
M  V30 2455 C 219.692 1.08176 2.00931 0
M  V30 2456 C 220.67 -0.005083 1.62599 0
M  V30 2457 O 221.854 0.144765 1.87943 0
M  V30 2458 C 218.981 0.645897 3.32484 0
M  V30 2459 C 218.027 1.73081 3.89801 0
M  V30 2460 S 218.86 3.32905 4.19446 0
M  V30 2461 C 220.016 2.91176 5.54046 0
M  V30 2462 H 220.249 2.01752 2.18365 0
M  V30 2463 H 217.782 1.13191 1.0501 0
M  V30 2464 H 219.74 0.401131 4.08535 0
M  V30 2465 H 218.401 -0.270188 3.12936 0
M  V30 2466 H 217.594 1.37768 4.84805 0
M  V30 2467 H 217.196 1.92888 3.20422 0
M  V30 2468 H 219.488 2.37952 6.34338 0
M  V30 2469 H 220.431 3.85014 5.94281 0
M  V30 2470 H 220.839 2.296 5.15698 0
M  V30 2471 N 220.237 -1.11381 1.11499 0
M  V30 2472 C 221.184 -2.17439 0.773887 0
M  V30 2473 C 222.154 -1.64132 -0.254899 0
M  V30 2474 O 223.339 -1.90345 -0.13168 0
M  V30 2475 C 220.479 -3.44373 0.223917 0
M  V30 2476 C 219.592 -4.1168 1.30934 0
M  V30 2477 C 218.727 -5.263 0.71984 0
M  V30 2478 C 217.766 -5.85493 1.78507 0
M  V30 2479 N 216.903 -6.91507 1.21502 0
M  V30 2480 H 221.743 -2.45962 1.68246 0
M  V30 2481 H 219.28 -1.20744 0.840191 0
M  V30 2482 H 221.238 -4.17047 -0.112921 0
M  V30 2483 H 219.868 -3.16232 -0.647851 0
M  V30 2484 H 218.92 -3.37073 1.76312 0
M  V30 2485 H 220.232 -4.51729 2.11524 0
M  V30 2486 H 219.386 -6.05785 0.333094 0
M  V30 2487 H 218.125 -4.87559 -0.117377 0
M  V30 2488 H 217.13 -5.04686 2.18111 0
M  V30 2489 H 218.355 -6.26301 2.62533 0
M  V30 2490 H 216.301 -6.54783 0.399455 0
M  V30 2491 H 216.218 -7.30214 1.95763 0
M  V30 2492 H 217.486 -7.74795 0.855181 0
M  V30 2493 N 221.715 -0.905404 -1.28997 0
M  V30 2494 C 222.625 -0.392246 -2.31298 0
M  V30 2495 C 223.641 0.515889 -1.66176 0
M  V30 2496 O 224.817 0.404093 -1.97304 0
M  V30 2497 C 221.882 0.36686 -3.44754 0
M  V30 2498 C 220.943 -0.573485 -4.25452 0
M  V30 2499 C 220.176 0.149488 -5.33491 0
M  V30 2500 O 220.399 1.37255 -5.5364 0
M  V30 2501 O 219.333 -0.510919 -5.99728 0
M  V30 2502 H 223.159 -1.2411 -2.77183 0
M  V30 2503 H 220.744 -0.669926 -1.33538 0
M  V30 2504 H 222.626 0.795907 -4.13816 0
M  V30 2505 H 221.301 1.19169 -3.00966 0
M  V30 2506 H 220.208 -1.05176 -3.59011 0
M  V30 2507 H 221.541 -1.36489 -4.72897 0
M  V30 2508 N 223.193 1.4272 -0.668489 0
M  V30 2509 C 224.418 2.06484 -0.194758 0
M  V30 2510 C 224.843 1.49862 1.13679 0
M  V30 2511 O 224.201 0.614582 1.70565 0
M  V30 2512 C 224.249 3.60353 -0.133546 0
M  V30 2513 O 223.353 4.02464 0.899806 0
M  V30 2514 H 222.694 0.656137 -0.10188 0
M  V30 2515 H 225.224 1.82964 -0.915722 0
M  V30 2516 H 225.234 4.07976 0.0447041 0
M  V30 2517 H 223.909 4.00938 -1.1055 0
M  V30 2518 H 222.486 3.66402 0.693109 0
M  V30 2519 N 224.671 0.411399 1.52136 0
M  V30 2520 C 225.918 -0.163645 2.01838 0
M  V30 2521 C 226.246 -1.4495 1.29691 0
M  V30 2522 O 225.501 -1.91725 0.392431 0
M  V30 2523 C 225.8 -0.455872 3.54481 0
M  V30 2524 C 225.466 0.741055 4.44769 0
M  V30 2525 C 224.128 1.06936 4.69167 0
M  V30 2526 C 226.48 1.54075 4.97906 0
M  V30 2527 C 223.808 2.19851 5.43951 0
M  V30 2528 C 226.16 2.66067 5.73926 0
M  V30 2529 C 224.824 2.99381 5.96596 0
M  V30 2530 H 224.094 -0.0598821 0.738576 0
M  V30 2531 H 226.741 0.553283 1.83333 0
M  V30 2532 H 225.046 -1.2544 3.71177 0
M  V30 2533 H 226.743 -0.913802 3.90449 0
M  V30 2534 H 223.333 0.475192 4.25958 0
M  V30 2535 H 227.517 1.30033 4.78963 0
M  V30 2536 H 222.773 2.46006 5.59724 0
M  V30 2537 H 226.947 3.28419 6.14096 0
M  V30 2538 H 224.574 3.86992 6.54325 0
M  V30 2539 N 226.149 -1.5696 0.141893 0
M  V30 2540 C 227.398 -1.95135 -0.510427 0
M  V30 2541 C 227.711 -1.02896 -1.66348 0
M  V30 2542 O 228.917 -1.30629 -2.38009 0
M  V30 2543 C 227.373 -3.46876 -0.959427 0
M  V30 2544 C 226.981 -4.47691 0.166419 0
M  V30 2545 C 228.725 -3.93927 -1.58183 0
M  V30 2546 C 226.632 -5.90636 -0.300565 0
M  V30 2547 H 225.562 -0.728494 -0.194454 0
M  V30 2548 H 228.213 -1.8211 0.22542 0
M  V30 2549 H 226.595 -3.55215 -1.75038 0
M  V30 2550 H 227.769 -4.51043 0.94325 0
M  V30 2551 H 226.084 -4.10527 0.696905 0
M  V30 2552 H 228.681 -4.98158 -1.94275 0
M  V30 2553 H 229.024 -3.3519 -2.46888 0
M  V30 2554 H 229.557 -3.88484 -0.855863 0
M  V30 2555 H 226.296 -6.5318 0.550989 0
M  V30 2556 H 225.816 -5.90655 -1.04338 0
M  V30 2557 H 227.495 -6.42588 -0.754265 0
M  V30 2558 N 227.627 0.131896 -1.57047 0
M  V30 2559 C 228.574 1.16236 -1.99393 0
M  V30 2560 C 229.544 1.41863 -0.863943 0
M  V30 2561 O 230.729 1.53946 -1.12718 0
M  V30 2562 C 227.869 2.48708 -2.39245 0
M  V30 2563 C 226.982 2.30127 -3.65603 0
M  V30 2564 C 226.117 3.55738 -3.94492 0
M  V30 2565 C 225.156 3.32259 -5.14073 0
M  V30 2566 N 224.293 4.50039 -5.38896 0
M  V30 2567 H 229.133 0.794251 -2.87221 0
M  V30 2568 H 226.67 0.380707 -1.42088 0
M  V30 2569 H 228.628 3.25969 -2.60384 0
M  V30 2570 H 227.258 2.83437 -1.54478 0
M  V30 2571 H 226.31 1.43845 -3.52154 0
M  V30 2572 H 227.622 2.08746 -4.5302 0
M  V30 2573 H 226.776 4.41423 -4.1621 0
M  V30 2574 H 225.515 3.80138 -3.05526 0
M  V30 2575 H 224.52 2.44963 -4.92212 0
M  V30 2576 H 225.745 3.09242 -6.04604 0
M  V30 2577 H 223.691 4.74584 -4.52886 0
M  V30 2578 H 223.608 4.31716 -6.2061 0
M  V30 2579 H 224.876 5.36895 -5.65123 0
M  V30 2580 N 229.106 1.52395 0.401703 0
M  V30 2581 C 230.038 1.72505 1.50912 0
M  V30 2582 C 231.051 0.605468 1.51122 0
M  V30 2583 O 232.24 0.880828 1.55254 0
M  V30 2584 C 229.34 1.75711 2.89791 0
M  V30 2585 C 228.513 3.04824 3.1369 0
M  V30 2586 C 227.572 2.99743 4.32482 0
M  V30 2587 O 226.598 3.73635 4.29402 0
M  V30 2588 N 227.8 2.18047 5.37992 0
M  V30 2589 H 230.565 2.68049 1.34052 0
M  V30 2590 H 228.126 1.50724 0.591084 0
M  V30 2591 H 230.118 1.69834 3.6734 0
M  V30 2592 H 228.688 0.876092 3.00072 0
M  V30 2593 H 227.908 3.2429 2.24119 0
M  V30 2594 H 229.196 3.90221 3.26504 0
M  V30 2595 H 228.594 1.57456 5.43345 0
M  V30 2596 H 227.151 2.18021 6.14256 0
M  V30 2597 N 230.584 -0.659388 1.43143 0
M  V30 2598 C 231.494 -1.80167 1.50256 0
M  V30 2599 C 232.51 -1.69571 0.390106 0
M  V30 2600 O 233.686 -1.90849 0.643319 0
M  V30 2601 C 230.751 -3.16409 1.41725 0
M  V30 2602 C 229.812 -3.38848 2.63591 0
M  V30 2603 C 229.045 -4.68591 2.55458 0
M  V30 2604 O 229.268 -5.47532 1.59891 0
M  V30 2605 O 228.202 -4.92614 3.45854 0
M  V30 2606 H 232.028 -1.77121 2.46702 0
M  V30 2607 H 229.613 -0.817092 1.25076 0
M  V30 2608 H 231.495 -3.9768 1.39387 0
M  V30 2609 H 230.17 -3.20059 0.484118 0
M  V30 2610 H 229.077 -2.57366 2.71502 0
M  V30 2611 H 230.41 -3.4004 3.55856 0
M  V30 2612 N 232.062 -1.29571 -0.897171 0
M  V30 2613 C 233.31 -1.17456 -1.64464 0
M  V30 2614 C 233.631 0.273698 -1.9307 0
M  V30 2615 O 232.901 1.18684 -1.55855 0
M  V30 2616 H 231.481 -0.431706 -0.609622 0
M  V30 2617 H 234.143 -1.62531 -1.07562 0
M  V30 2618 H 233.239 -1.72648 -2.59998 0
M  V30 2619 N 233.54 1.10788 -1.12088 0
M  V30 2620 C 234.487 2.17025 -0.785407 0
M  V30 2621 C 235.457 1.64265 0.246191 0
M  V30 2622 O 236.642 1.90412 0.121584 0
M  V30 2623 C 233.782 3.44249 -0.242177 0
M  V30 2624 C 232.895 4.1098 -1.33115 0
M  V30 2625 C 232.03 5.25911 -0.747741 0
M  V30 2626 C 231.069 5.84538 -1.81609 0
M  V30 2627 N 230.206 6.90853 -1.25167 0
M  V30 2628 H 235.046 2.45066 -1.69548 0
M  V30 2629 H 232.583 1.20297 -0.846582 0
M  V30 2630 H 234.541 4.17101 0.0908026 0
M  V30 2631 H 233.171 3.16571 0.631072 0
M  V30 2632 H 232.223 3.36133 -1.78097 0
M  V30 2633 H 233.535 4.50601 -2.13917 0
M  V30 2634 H 232.689 6.056 -0.365216 0
M  V30 2635 H 231.428 4.87614 0.0915188 0
M  V30 2636 H 230.433 5.03522 -2.20785 0
M  V30 2637 H 231.658 6.249 -2.6585 0
M  V30 2638 H 229.604 6.54562 -0.434174 0
M  V30 2639 H 229.521 7.29166 -1.99633 0
M  V30 2640 H 230.789 7.7433 -0.896259 0
M  V30 2641 N 235.018 0.912232 1.28515 0
M  V30 2642 C 236.266 0.543523 1.94654 0
M  V30 2643 C 236.587 -0.9155 1.72173 0
M  V30 2644 O 235.857 -1.64708 1.06058 0
M  V30 2645 H 234.437 0.198017 0.720277 0
M  V30 2646 H 237.099 1.16126 1.56527 0
M  V30 2647 H 236.195 0.736684 3.03281 0
M  V30 2648 N 236.496 -1.42363 0.676048 0
M  V30 2649 C 237.426 -2.33497 0.0124832 0
M  V30 2650 C 238.407 -1.50748 -0.787981 0
M  V30 2651 O 239.592 -1.79346 -0.744884 0
M  V30 2652 C 236.722 -3.34377 -0.938582 0
M  V30 2653 C 235.676 -4.27289 -0.246622 0
M  V30 2654 C 235.002 -5.18386 -1.31071 0
M  V30 2655 C 236.302 -5.14916 0.875125 0
M  V30 2656 H 237.996 -2.89233 0.773593 0
M  V30 2657 H 235.542 -1.39073 0.37346 0
M  V30 2658 H 237.495 -3.97044 -1.41188 0
M  V30 2659 H 236.219 -2.76947 -1.73113 0
M  V30 2660 H 234.878 -3.66018 0.206456 0
M  V30 2661 H 234.526 -4.57282 -2.09528 0
M  V30 2662 H 234.226 -5.81378 -0.852839 0
M  V30 2663 H 235.75 -5.83929 -1.78492 0
M  V30 2664 H 237.164 -5.71262 0.482983 0
M  V30 2665 H 235.561 -5.86747 1.25887 0
M  V30 2666 H 236.631 -4.53242 1.72335 0
M  V30 2667 N 237.974 -0.419461 -1.51915 0
M  V30 2668 C 239.199 0.154572 -2.06823 0
M  V30 2669 C 239.624 1.3722 -1.28656 0
M  V30 2670 O 238.982 1.78461 -0.319583 0
M  V30 2671 C 239.03 0.473172 -3.57482 0
M  V30 2672 O 238.134 1.56255 -3.81652 0
M  V30 2673 H 237.475 0.0096924 -0.663929 0
M  V30 2674 H 240.005 -0.595642 -1.95738 0
M  V30 2675 H 240.015 0.728825 -4.01438 0
M  V30 2676 H 238.69 -0.416873 -4.13805 0
M  V30 2677 H 237.267 1.29825 -3.49571 0
M  V30 2678 N 239.452 1.56882 -0.150215 0
M  V30 2679 C 240.382 2.19935 0.784284 0
M  V30 2680 C 241.363 1.14854 1.25469 0
M  V30 2681 O 242.548 1.43209 1.31168 0
M  V30 2682 C 239.678 2.82349 2.02229 0
M  V30 2683 C 238.632 3.93285 1.68853 0
M  V30 2684 C 237.958 4.42649 2.99944 0
M  V30 2685 C 239.258 5.13904 0.932714 0
M  V30 2686 H 240.952 2.9828 0.258781 0
M  V30 2687 H 238.498 1.43473 0.123029 0
M  V30 2688 H 240.451 3.25126 2.68088 0
M  V30 2689 H 239.175 2.0134 2.57157 0
M  V30 2690 H 237.834 3.5113 1.05371 0
M  V30 2691 H 237.482 3.58458 3.52869 0
M  V30 2692 H 237.182 5.17476 2.78374 0
M  V30 2693 H 238.706 4.88099 3.66868 0
M  V30 2694 H 240.12 5.53506 1.49345 0
M  V30 2695 H 238.517 5.94515 0.81684 0
M  V30 2696 H 239.587 4.84842 -0.0749568 0
M  V30 2697 N 240.93 -0.123565 1.57115 0
M  V30 2698 C 242.341 -0.681198 1.73829 0
M  V30 2699 C 242.692 -1.80535 0.768214 0
M  V30 2700 O 241.817 -2.16317 -0.0599103 0
M  V30 2701 C 242.412 -1.24246 3.15196 0
M  V30 2702 C 240.971 -1.74643 3.33432 0
M  V30 2703 C 240.118 -0.644284 2.69711 0
M  V30 2704 H 243.069 0.102315 1.5837 0
M  V30 2705 H 243.09 -2.11216 3.16493 0
M  V30 2706 H 242.602 -0.424062 3.85776 0
M  V30 2707 H 240.703 -2.58974 2.67886 0
M  V30 2708 H 240.816 -1.85902 4.41562 0
M  V30 2709 H 239.18 -1.07676 2.3082 0
M  V30 2710 H 239.963 0.163058 3.42913 0
M  V30 2711 N 242.408 -1.52605 -0.393616 0
M  V30 2712 C 243.338 -1.80022 -1.48709 0
M  V30 2713 C 244.319 -0.651995 -1.57108 0
M  V30 2714 O 245.504 -0.89913 -1.72132 0
M  V30 2715 C 242.634 -1.96492 -2.86371 0
M  V30 2716 C 241.588 -3.12161 -2.92813 0
M  V30 2717 C 240.914 -3.13877 -4.3288 0
M  V30 2718 C 242.214 -4.51322 -2.6288 0
M  V30 2719 H 243.908 -2.71589 -1.26015 0
M  V30 2720 H 241.454 -1.30684 -0.604778 0
M  V30 2721 H 243.407 -2.14255 -3.62867 0
M  V30 2722 H 242.131 -1.01611 -3.10391 0
M  V30 2723 H 240.79 -2.94173 -2.18764 0
M  V30 2724 H 240.438 -2.16687 -4.53933 0
M  V30 2725 H 240.138 -3.91576 -4.38112 0
M  V30 2726 H 241.662 -3.33789 -5.1129 0
M  V30 2727 H 243.076 -4.69435 -3.29096 0
M  V30 2728 H 241.473 -5.31053 -2.79468 0
M  V30 2729 H 242.543 -4.58353 -1.58242 0
M  V30 2730 N 243.887 0.651787 -1.4349 0
M  V30 2731 C 245.164 1.40909 -1.35661 0
M  V30 2732 C 245.544 2.11099 -0.00511733 0
M  V30 2733 O 244.892 2.04892 1.0115 0
M  V30 2734 C 245.102 2.3926 -2.54078 0
M  V30 2735 C 246.45 3.03217 -2.97228 0
M  V30 2736 O 247.474 2.49588 -2.54135 0
M  V30 2737 O 246.333 4.00455 -3.71885 0
M  V30 2738 H 243.427 0.629625 -0.536191 0
M  V30 2739 H 245.973 0.678575 -1.55542 0
M  V30 2740 H 244.745 1.86352 -3.44076 0
M  V30 2741 H 244.368 3.1976 -2.36303 0
M  V30 2742 N 245.365 1.30045 0.890287 0
M  V30 2743 C 246.59 1.21598 1.68014 0
M  V30 2744 C 247.015 -0.218678 1.86825 0
M  V30 2745 O 246.373 -1.15756 1.39536 0
M  V30 2746 C 246.421 1.94434 3.03691 0
M  V30 2747 O 245.525 1.2678 3.92429 0
M  V30 2748 H 244.866 0.420856 0.513592 0
M  V30 2749 H 247.396 1.71775 1.11151 0
M  V30 2750 H 247.406 2.03251 3.5377 0
M  V30 2751 H 246.081 2.98777 2.89318 0
M  V30 2752 H 244.658 1.26282 3.50866 0
M  V30 2753 N 246.843 -1.10192 1.12674 0
M  V30 2754 C 248.09 -1.82205 0.883606 0
M  V30 2755 C 248.418 -1.8532 -0.590492 0
M  V30 2756 O 247.673 -1.31137 -1.45264 0
M  V30 2757 C 247.972 -3.28552 1.4067 0
M  V30 2758 C 247.638 -3.45582 2.89627 0
M  V30 2759 C 246.3 -3.49937 3.30299 0
M  V30 2760 C 248.652 -3.50768 3.85501 0
M  V30 2761 C 245.98 -3.57049 4.65546 0
M  V30 2762 C 248.332 -3.59414 5.20581 0
M  V30 2763 C 246.996 -3.62034 5.60792 0
M  V30 2764 H 246.266 -0.666735 0.323334 0
M  V30 2765 H 248.913 -1.29868 1.40736 0
M  V30 2766 H 247.218 -3.83473 0.80347 0
M  V30 2767 H 248.915 -3.82788 1.19475 0
M  V30 2768 H 245.505 -3.42871 2.57172 0
M  V30 2769 H 249.689 -3.46651 3.55171 0
M  V30 2770 H 244.945 -3.57361 4.96088 0
M  V30 2771 H 249.119 -3.62371 5.94693 0
M  V30 2772 H 246.746 -3.67298 6.6558 0
M  V30 2773 N 248.321 -0.919034 -1.28029 0
M  V30 2774 C 249.546 -0.570357 -1.99403 0
M  V30 2775 C 249.971 0.842486 -1.68178 0
M  V30 2776 O 249.329 1.56391 -0.917141 0
M  V30 2777 C 249.377 -0.792541 -3.51783 0
M  V30 2778 O 248.481 0.145988 -4.12142 0
M  V30 2779 H 247.822 -0.220555 -0.6263 0
M  V30 2780 H 250.352 -1.23592 -1.63053 0
M  V30 2781 H 250.362 -0.704708 -4.01868 0
M  V30 2782 H 249.037 -1.82247 -3.73844 0
M  V30 2783 H 247.614 0.00897528 -3.72899 0
M  V30 2784 N 249.799 1.42003 -0.683588 0
M  V30 2785 C 251.045 2.01712 -0.209825 0
M  V30 2786 C 251.378 1.53968 1.18353 0
M  V30 2787 O 250.653 0.745661 1.79639 0
M  V30 2788 C 250.936 3.59202 -0.254197 0
M  V30 2789 C 250.789 4.17102 -1.68363 0
M  V30 2790 C 252.108 4.38344 0.392709 0
M  V30 2791 H 249.227 0.732891 -0.0777189 0
M  V30 2792 H 251.869 1.68909 -0.87004 0
M  V30 2793 H 250.019 3.87278 0.307954 0
M  V30 2794 H 251.691 3.99946 -2.29871 0
M  V30 2795 H 249.934 3.72597 -2.22157 0
M  V30 2796 H 250.605 5.26249 -1.6663 0
M  V30 2797 H 253.081 4.16011 -0.0859162 0
M  V30 2798 H 251.957 5.47901 0.331063 0
M  V30 2799 H 252.218 4.16887 1.47164 0
M  V30 2800 N 251.277 0.427512 1.51691 0
M  V30 2801 C 252.693 0.0792977 1.59403 0
M  V30 2802 C 252.893 -1.41035 1.43914 0
M  V30 2803 O 251.949 -2.17922 1.27539 0
M  V30 2804 C 253.262 0.590636 2.94842 0
M  V30 2805 C 254.81 0.550215 3.08126 0
M  V30 2806 C 255.285 1.03836 4.46074 0
M  V30 2807 N 256.776 0.995943 4.52366 0
M  V30 2808 C 257.511 1.34463 5.57411 0
M  V30 2809 N 257.007 1.76569 6.69922 0
M  V30 2810 N 258.8 1.26343 5.47717 0
M  V30 2811 H 250.951 1.39687 1.60004 0
M  V30 2812 H 253.214 0.575003 0.753708 0
M  V30 2813 H 252.92 1.63251 3.11516 0
M  V30 2814 H 252.794 0.0102061 3.77199 0
M  V30 2815 H 255.181 -0.482654 2.91126 0
M  V30 2816 H 255.262 1.16693 2.27632 0
M  V30 2817 H 254.906 2.06965 4.63819 0
M  V30 2818 H 254.836 0.398286 5.25092 0
M  V30 2819 H 257.327 0.68661 3.7161 0
M  V30 2820 H 257.64 2.01438 7.46085 0
M  V30 2821 H 255.985 1.80488 6.71155 0
M  V30 2822 H 259.176 0.933209 4.58703 0
M  V30 2823 H 259.349 1.53846 6.29472 0
M  V30 2824 N 252.755 -1.56801 0.158532 0
M  V30 2825 C 253.685 -2.20347 -0.772609 0
M  V30 2826 C 254.666 -1.15518 -1.24859 0
M  V30 2827 O 255.851 -1.43902 -1.30406 0
M  V30 2828 C 252.981 -2.83417 -2.00729 0
M  V30 2829 C 251.935 -3.94174 -1.66765 0
M  V30 2830 C 251.261 -4.44233 -2.97592 0
M  V30 2831 C 252.561 -5.14392 -0.905447 0
M  V30 2832 H 254.255 -2.98413 -0.242959 0
M  V30 2833 H 251.801 -1.43537 -0.115419 0
M  V30 2834 H 253.754 -3.26543 -2.6636 0
M  V30 2835 H 252.478 -2.02701 -2.56086 0
M  V30 2836 H 251.137 -3.51684 -1.03508 0
M  V30 2837 H 250.785 -3.60325 -3.50963 0
M  V30 2838 H 250.485 -5.18945 -2.75626 0
M  V30 2839 H 252.009 -4.90037 -3.64274 0
M  V30 2840 H 253.423 -5.5429 -1.46408 0
M  V30 2841 H 251.82 -5.9494 -0.7853 0
M  V30 2842 H 252.89 -4.84795 0.100668 0
M  V30 2843 N 254.233 0.115231 -1.57178 0
M  V30 2844 C 255.183 1.14707 -1.97044 0
M  V30 2845 C 256.167 1.36866 -0.845957 0
M  V30 2846 O 257.359 1.37895 -1.10968 0
M  V30 2847 C 254.488 2.47266 -2.38148 0
M  V30 2848 C 253.574 2.28566 -3.57237 0
M  V30 2849 N 253.965 1.79685 -4.72807 0
M  V30 2850 C 252.263 2.59208 -3.62943 0
M  V30 2851 C 252.964 1.74781 -5.54821 0
M  V30 2852 N 251.94 2.19264 -4.97417 0
M  V30 2853 H 255.742 0.761754 -2.83857 0
M  V30 2854 H 253.256 0.322928 -1.59157 0
M  V30 2855 H 255.253 3.219 -2.64927 0
M  V30 2856 H 253.913 2.86552 -1.52702 0
M  V30 2857 H 254.924 1.49177 -4.9595 0
M  V30 2858 H 251.601 3.02154 -2.88113 0
M  V30 2859 H 252.991 1.38212 -6.57531 0
M  V30 2860 N 255.711 1.52812 0.385517 0
M  V30 2861 C 256.643 1.74096 1.49074 0
M  V30 2862 C 257.656 0.621462 1.50472 0
M  V30 2863 O 258.845 0.897245 1.54311 0
M  V30 2864 C 255.945 1.78774 2.87911 0
M  V30 2865 C 255.118 3.08134 3.10439 0
M  V30 2866 C 254.177 3.04313 4.29278 0
M  V30 2867 O 253.203 3.78168 4.25415 0
M  V30 2868 N 254.405 2.23741 5.35649 0
M  V30 2869 H 257.17 2.69455 1.31202 0
M  V30 2870 H 254.731 1.51343 0.575065 0
M  V30 2871 H 256.723 1.73721 3.65518 0
M  V30 2872 H 255.293 0.907869 2.99126 0
M  V30 2873 H 254.513 3.26649 2.20667 0
M  V30 2874 H 255.801 3.93662 3.22347 0
M  V30 2875 H 255.199 1.63211 5.41645 0
M  V30 2876 H 253.756 2.24524 6.11909 0
M  V30 2877 N 257.189 -0.644168 1.43834 0
M  V30 2878 C 258.466 -1.40188 1.36406 0
M  V30 2879 C 258.846 -2.11094 0.0163124 0
M  V30 2880 O 258.194 -2.05426 -1.00062 0
M  V30 2881 C 258.404 -2.3791 2.55343 0
M  V30 2882 C 259.752 -3.01637 2.98832 0
M  V30 2883 O 260.776 -2.48237 2.55455 0
M  V30 2884 O 259.635 -3.98477 3.74003 0
M  V30 2885 H 256.729 -0.626773 0.539523 0
M  V30 2886 H 259.275 -0.670317 1.559 0
M  V30 2887 H 258.047 -1.84525 3.4506 0
M  V30 2888 H 257.67 -3.18503 2.37995 0
M  V30 2889 N 258.668 -1.30515 -0.883378 0
M  V30 2890 C 259.916 -1.19194 -1.63209 0
M  V30 2891 C 260.237 0.253205 -1.93349 0
M  V30 2892 O 259.507 1.17025 -1.57105 0
M  V30 2893 H 258.087 -0.438148 -0.605009 0
M  V30 2894 H 260.749 -1.63663 -1.05832 0
M  V30 2895 H 259.845 -1.75396 -2.58153 0
M  V30 2896 N 260.146 1.09593 -1.13257 0
M  V30 2897 C 261.078 2.16015 -0.766167 0
M  V30 2898 C 262.091 1.61423 0.211303 0
M  V30 2899 O 263.28 1.78498 -0.00863946 0
M  V30 2900 C 260.38 3.38706 -0.114662 0
M  V30 2901 C 259.553 4.22717 -1.12379 0
M  V30 2902 C 258.612 5.23835 -0.498301 0
M  V30 2903 O 257.638 5.573 -1.15781 0
M  V30 2904 N 258.84 5.75886 0.730417 0
M  V30 2905 H 261.605 2.48055 -1.68193 0
M  V30 2906 H 259.166 1.25292 -1.02535 0
M  V30 2907 H 261.158 4.03464 0.315991 0
M  V30 2908 H 259.728 3.04569 0.704011 0
M  V30 2909 H 258.948 3.54122 -1.73179 0
M  V30 2910 H 260.236 4.75673 -1.80589 0
M  V30 2911 H 259.634 5.50911 1.28504 0
M  V30 2912 H 258.191 6.42387 1.10376 0
M  V30 2913 N 261.624 0.925811 1.2754 0
M  V30 2914 C 262.87 0.566092 1.94739 0
M  V30 2915 C 263.203 -0.890057 1.72603 0
M  V30 2916 O 262.478 -1.63467 1.05399 0
M  V30 2917 C 262.761 0.89054 3.48915 0
M  V30 2918 C 262.614 2.4003 3.80402 0
M  V30 2919 C 263.933 0.395101 4.38323 0
M  V30 2920 H 261.052 0.20714 0.707292 0
M  V30 2921 H 263.694 1.15725 1.50691 0
M  V30 2922 H 261.844 0.387452 3.86563 0
M  V30 2923 H 263.516 2.97494 3.52555 0
M  V30 2924 H 261.759 2.85028 3.2702 0
M  V30 2925 H 262.43 2.57785 4.8811 0
M  V30 2926 H 264.906 0.826241 4.07814 0
M  V30 2927 H 263.782 0.651086 5.45025 0
M  V30 2928 H 264.043 -0.704798 4.36446 0
M  V30 2929 N 263.102 -1.41638 0.69111 0
M  V30 2930 C 264.327 -2.06148 0.227583 0
M  V30 2931 C 264.752 -1.51652 -1.11281 0
M  V30 2932 O 264.11 -0.64164 -1.69566 0
M  V30 2933 C 264.158 -3.60095 0.190858 0
M  V30 2934 O 263.262 -4.03845 -0.835664 0
M  V30 2935 H 262.603 -0.654434 0.112306 0
M  V30 2936 H 265.133 -1.81484 0.944714 0
M  V30 2937 H 265.143 -4.07995 0.020207 0
M  V30 2938 H 263.818 -3.99129 1.16915 0
M  V30 2939 H 262.395 -3.67458 -0.63473 0
M  V30 2940 N 264.58 -0.43555 -1.51462 0
M  V30 2941 C 265.829 0.133007 -2.01261 0
M  V30 2942 C 266.142 1.43942 -1.32439 0
M  V30 2943 O 267.348 2.09081 -1.73198 0
M  V30 2944 C 265.804 0.287581 -3.58749 0
M  V30 2945 C 265.412 -1.00829 -4.36506 0
M  V30 2946 C 267.156 0.810004 -4.167 0
M  V30 2947 C 265.063 -0.819454 -5.85695 0
M  V30 2948 H 263.993 0.0534822 -0.752101 0
M  V30 2949 H 266.644 -0.565038 -1.74584 0
M  V30 2950 H 265.026 1.04859 -3.81865 0
M  V30 2951 H 266.2 -1.77749 -4.25138 0
M  V30 2952 H 264.515 -1.45911 -3.89999 0
M  V30 2953 H 267.112 0.967743 -5.2587 0
M  V30 2954 H 267.455 1.79196 -3.75758 0
M  V30 2955 H 267.988 0.107357 -3.97655 0
M  V30 2956 H 264.727 -1.77374 -6.31046 0
M  V30 2957 H 264.247 -0.0900208 -5.99732 0
M  V30 2958 H 265.926 -0.471949 -6.45276 0
M  V30 2959 N 266.058 1.56714 -0.166846 0
M  V30 2960 C 266.968 2.21331 0.777791 0
M  V30 2961 C 267.984 1.20358 1.25658 0
M  V30 2962 O 269.16 1.53005 1.30964 0
M  V30 2963 C 266.225 2.83787 1.99163 0
M  V30 2964 C 265.286 3.99947 1.56016 0
M  V30 2965 C 264.519 4.59415 2.71613 0
M  V30 2966 O 264.742 4.17769 3.88362 0
M  V30 2967 O 263.676 5.49359 2.45945 0
M  V30 2968 H 267.502 3.02605 0.257636 0
M  V30 2969 H 265.087 1.49275 0.0611393 0
M  V30 2970 H 266.969 3.23405 2.70161 0
M  V30 2971 H 265.644 2.05513 2.50092 0
M  V30 2972 H 264.551 3.65007 0.819809 0
M  V30 2973 H 265.884 4.79801 1.09782 0
M  V30 2974 N 267.536 -0.106894 1.57237 0
M  V30 2975 C 268.466 -1.13148 2.04254 0
M  V30 2976 C 269.447 -1.42476 0.929224 0
M  V30 2977 O 270.632 -1.52709 1.19973 0
M  V30 2978 C 267.762 -2.4545 2.45706 0
M  V30 2979 C 266.716 -2.30558 3.60592 0
M  V30 2980 C 266.042 -3.67931 3.87983 0
M  V30 2981 C 267.342 -1.75597 4.91897 0
M  V30 2982 H 269.036 -0.740374 2.90101 0
M  V30 2983 H 266.582 -0.354696 1.39563 0
M  V30 2984 H 268.535 -3.17389 2.77205 0
M  V30 2985 H 267.259 -2.86475 1.56843 0
M  V30 2986 H 265.918 -1.61067 3.29322 0
M  V30 2987 H 265.566 -4.06462 2.96306 0
M  V30 2988 H 265.266 -3.58817 4.65322 0
M  V30 2989 H 266.79 -4.41356 4.21945 0
M  V30 2990 H 268.204 -2.37364 5.21854 0
M  V30 2991 H 266.601 -1.77272 5.73319 0
M  V30 2992 H 267.671 -0.714451 4.79608 0
M  V30 2993 N 269.014 -1.53014 -0.377408 0
M  V30 2994 C 270.425 -1.60438 -0.954798 0
M  V30 2995 C 270.776 -0.464418 -1.90624 0
M  V30 2996 O 269.901 0.41087 -2.12464 0
M  V30 2997 C 270.496 -2.90797 -1.73847 0
M  V30 2998 C 269.055 -3.00595 -2.26538 0
M  V30 2999 C 268.202 -2.55645 -1.07429 0
M  V30 3000 H 271.153 -1.57926 -0.156575 0
M  V30 3001 H 271.174 -2.77935 -2.5987 0
M  V30 3002 H 270.686 -3.73746 -1.04574 0
M  V30 3003 H 268.787 -2.22208 -2.99089 0
M  V30 3004 H 268.9 -4.05456 -2.5523 0
M  V30 3005 H 267.264 -2.10239 -1.43777 0
M  V30 3006 H 268.047 -3.41 -0.396728 0
M  V30 3007 N 270.492 0.636531 -1.44174 0
M  V30 3008 C 271.769 1.39463 -1.37148 0
M  V30 3009 C 272.149 2.11082 -0.027507 0
M  V30 3010 O 271.497 2.05954 0.989716 0
M  V30 3011 C 271.707 2.36552 -2.56601 0
M  V30 3012 C 273.055 3.00048 -3.00427 0
M  V30 3013 O 274.079 2.46878 -2.56767 0
M  V30 3014 O 272.938 3.96488 -3.76111 0
M  V30 3015 H 270.032 0.623903 -0.542839 0
M  V30 3016 H 272.578 0.662039 -1.56253 0
M  V30 3017 H 271.35 1.82692 -3.46034 0
M  V30 3018 H 270.973 3.17236 -2.39681 0
M  V30 3019 N 271.97 1.30982 0.876444 0
M  V30 3020 C 273.195 1.23373 1.66715 0
M  V30 3021 C 273.62 -0.19885 1.87046 0
M  V30 3022 O 272.978 -1.1427 1.40756 0
M  V30 3023 C 273.026 1.97644 3.01611 0
M  V30 3024 O 272.13 1.30935 3.91062 0
M  V30 3025 H 271.471 0.426279 0.509099 0
M  V30 3026 H 274.001 1.72944 1.09323 0
M  V30 3027 H 274.011 2.06992 3.51594 0
M  V30 3028 H 272.686 3.01829 2.86133 0
M  V30 3029 H 271.263 1.29996 3.49507 0
M  V30 3030 N 273.449 -1.08991 1.13837 0
M  V30 3031 C 274.399 -2.1393 0.788535 0
M  V30 3032 C 275.383 -1.59396 -0.219516 0
M  V30 3033 O 276.575 -1.76985 -0.0227557 0
M  V30 3034 C 273.704 -3.42305 0.261147 0
M  V30 3035 C 272.79 -4.03736 1.29837 0
M  V30 3036 N 273.181 -4.39659 2.50067 0
M  V30 3037 C 271.479 -4.30993 1.1472 0
M  V30 3038 C 272.18 -4.88113 3.16419 0
M  V30 3039 N 271.156 -4.85846 2.43832 0
M  V30 3040 H 274.958 -2.39516 1.70322 0
M  V30 3041 H 272.472 -1.26263 1.02134 0
M  V30 3042 H 274.469 -4.16899 -0.0077405 0
M  V30 3043 H 273.129 -3.18172 -0.647805 0
M  V30 3044 H 274.14 -4.30878 2.8734 0
M  V30 3045 H 270.817 -4.16444 0.296773 0
M  V30 3046 H 272.207 -5.25336 4.18894 0
M  V30 3047 N 274.927 -0.932562 -1.27047 0
M  V30 3048 C 276.152 -0.591474 -1.98787 0
M  V30 3049 C 276.577 0.824601 -1.69062 0
M  V30 3050 O 275.935 1.5541 -0.933677 0
M  V30 3051 C 275.983 -0.829808 -3.50922 0
M  V30 3052 O 275.087 0.102266 -4.12273 0
M  V30 3053 H 274.428 -0.227185 -0.623926 0
M  V30 3054 H 276.958 -1.25314 -1.61733 0
M  V30 3055 H 276.968 -0.747292 -4.01098 0
M  V30 3056 H 275.643 -1.86201 -3.7189 0
M  V30 3057 H 274.22 -0.0305761 -3.72887 0
M  V30 3058 N 276.405 1.4127 -0.698611 0
M  V30 3059 C 277.816 1.84187 -0.305289 0
M  V30 3060 C 278.167 1.58449 1.15708 0
M  V30 3061 O 277.292 1.05651 1.88856 0
M  V30 3062 C 277.887 3.3435 -0.547314 0
M  V30 3063 C 276.446 3.75826 -0.207878 0
M  V30 3064 C 275.593 2.64647 -0.828099 0
M  V30 3065 H 278.544 1.30778 -0.89904 0
M  V30 3066 H 278.565 3.8001 0.192998 0
M  V30 3067 H 278.077 3.53051 -1.61172 0
M  V30 3068 H 276.178 3.62725 0.852143 0
M  V30 3069 H 276.291 4.74462 -0.665021 0
M  V30 3070 H 274.655 2.53395 -0.257458 0
M  V30 3071 H 275.438 2.86165 -1.89643 0
M  V30 3072 N 277.883 0.443576 1.51229 0
M  V30 3073 C 279.123 -0.119889 2.04048 0
M  V30 3074 C 279.487 -1.39418 1.32009 0
M  V30 3075 O 280.688 -2.03829 1.75235 0
M  V30 3076 C 278.959 -0.327233 3.55899 0
M  V30 3077 S 280.518 -0.853208 4.30425 0
M  V30 3078 H 277.336 -0.028921 0.710412 0
M  V30 3079 H 279.938 0.604413 1.85922 0
M  V30 3080 H 278.642 0.606445 4.05895 0
M  V30 3081 H 278.173 -1.07844 3.7833 0
M  V30 3082 H 280.188 -2.13005 4.48155 0
M  V30 3083 N 279.361 -1.56624 0.175154 0
M  V30 3084 C 280.591 -2.01082 -0.474283 0
M  V30 3085 C 280.999 -1.05447 -1.57091 0
M  V30 3086 O 280.342 -0.0480595 -1.83637 0
M  V30 3087 C 280.404 -3.41963 -1.10911 0
M  V30 3088 C 280.068 -4.56742 -0.153666 0
M  V30 3089 C 281.065 -5.16076 0.629448 0
M  V30 3090 C 278.75 -5.02277 -0.0483776 0
M  V30 3091 C 280.744 -6.19377 1.50501 0
M  V30 3092 C 278.431 -6.05427 0.830768 0
M  V30 3093 C 279.429 -6.63849 1.60605 0
M  V30 3094 O 279.117 -7.64998 2.47049 0
M  V30 3095 H 278.849 -0.664261 -0.125432 0
M  V30 3096 H 281.403 -2.03549 0.275163 0
M  V30 3097 H 279.633 -3.36422 -1.90676 0
M  V30 3098 H 281.322 -3.70352 -1.66114 0
M  V30 3099 H 282.088 -4.81776 0.558297 0
M  V30 3100 H 277.967 -4.56513 -0.641611 0
M  V30 3101 H 281.511 -6.64906 2.1106 0
M  V30 3102 H 277.408 -6.39151 0.903107 0
M  V30 3103 H 278.176 -7.82336 2.40607 0
M  V30 3104 N 280.839 0.0985539 -1.57292 0
M  V30 3105 C 282.088 0.801358 -1.85098 0
M  V30 3106 C 282.401 1.80066 -0.763902 0
M  V30 3107 O 283.607 2.55112 -0.928981 0
M  V30 3108 C 282.063 1.47599 -3.28242 0
M  V30 3109 C 281.671 0.516624 -4.45011 0
M  V30 3110 C 283.415 2.16272 -3.65276 0
M  V30 3111 C 281.322 1.19564 -5.79188 0
M  V30 3112 H 280.252 0.303022 -0.69043 0
M  V30 3113 H 282.903 0.0542623 -1.8342 0
M  V30 3114 H 281.285 2.27042 -3.2445 0
M  V30 3115 H 282.459 -0.246065 -4.60143 0
M  V30 3116 H 280.774 -0.064227 -4.1635 0
M  V30 3117 H 283.371 2.67802 -4.62803 0
M  V30 3118 H 283.714 2.95009 -2.93727 0
M  V30 3119 H 284.247 1.43693 -3.70941 0
M  V30 3120 H 280.986 0.449157 -6.53959 0
M  V30 3121 H 280.506 1.92984 -5.67906 0
M  V30 3122 H 282.185 1.7231 -6.23633 0
M  V30 3123 N 282.317 1.53212 0.369288 0
M  V30 3124 C 283.264 1.79388 1.45219 0
M  V30 3125 C 284.234 0.638059 1.53356 0
M  V30 3126 O 285.419 0.879852 1.69302 0
M  V30 3127 C 282.559 1.98623 2.82211 0
M  V30 3128 C 281.672 3.26337 2.8307 0
M  V30 3129 C 280.807 3.35779 4.11614 0
M  V30 3130 C 279.846 4.5754 4.06601 0
M  V30 3131 N 278.983 4.64155 5.26787 0
M  V30 3132 H 283.823 2.71794 1.22198 0
M  V30 3133 H 281.36 1.34642 0.592444 0
M  V30 3134 H 283.318 2.07761 3.61789 0
M  V30 3135 H 281.948 1.09558 3.03639 0
M  V30 3136 H 281 3.26171 1.95747 0
M  V30 3137 H 282.312 4.15988 2.75237 0
M  V30 3138 H 281.466 3.44208 4.99606 0
M  V30 3139 H 280.205 2.44137 4.22195 0
M  V30 3140 H 279.21 4.49215 3.16996 0
M  V30 3141 H 280.435 5.50519 3.97625 0
M  V30 3142 H 278.381 3.75413 5.3796 0
M  V30 3143 H 278.298 5.47706 5.21109 0
M  V30 3144 H 279.566 4.76863 6.16621 0
M  V30 3145 N 283.795 -0.628877 1.44509 0
M  V30 3146 C 285.023 -1.41554 1.50897 0
M  V30 3147 C 285.438 -1.8832 0.134564 0
M  V30 3148 O 284.795 -1.60969 -0.859965 0
M  V30 3149 C 284.846 -2.63435 2.47556 0
M  V30 3150 O 284.567 -2.18619 3.79654 0
M  V30 3151 C 286.068 -3.56537 2.63431 0
M  V30 3152 H 283.288 -0.434044 0.511709 0
M  V30 3153 H 285.832 -0.768895 1.89495 0
M  V30 3154 H 283.987 -3.24187 2.12089 0
M  V30 3155 H 284.401 -2.97652 4.31861 0
M  V30 3156 H 285.875 -4.38657 3.35088 0
M  V30 3157 H 286.352 -4.05493 1.68738 0
M  V30 3158 H 286.958 -3.01653 2.9981 0
M  V30 3159 N 285.273 -1.31445 -0.869486 0
M  V30 3160 C 286.503 -1.23942 -1.65294 0
M  V30 3161 C 286.911 0.197561 -1.88166 0
M  V30 3162 O 286.254 1.14019 -1.44033 0
M  V30 3163 C 286.316 -1.91385 -3.04322 0
M  V30 3164 C 285.98 -3.40726 -3.04557 0
M  V30 3165 C 286.977 -4.36464 -2.82481 0
M  V30 3166 C 284.662 -3.82425 -3.25663 0
M  V30 3167 C 286.656 -5.71876 -2.8149 0
M  V30 3168 C 284.343 -5.1795 -3.243 0
M  V30 3169 C 285.341 -6.12486 -3.02241 0
M  V30 3170 O 285.029 -7.45534 -3.00724 0
M  V30 3171 H 284.761 -0.429459 -0.522054 0
M  V30 3172 H 287.315 -1.73873 -1.0935 0
M  V30 3173 H 285.545 -1.36004 -3.61994 0
M  V30 3174 H 287.234 -1.77791 -3.64891 0
M  V30 3175 H 288 -4.05576 -2.65956 0
M  V30 3176 H 283.879 -3.09274 -3.41863 0
M  V30 3177 H 287.423 -6.45638 -2.64191 0
M  V30 3178 H 283.32 -5.48473 -3.40365 0
M  V30 3179 H 284.088 -7.54713 -3.16782 0
M  V30 3180 N 286.751 1.08385 -1.14413 0
M  V30 3181 C 287.661 2.18856 -0.844951 0
M  V30 3182 C 288.677 1.73121 0.174668 0
M  V30 3183 O 289.853 2.014 0.00312857 0
M  V30 3184 C 286.918 3.45155 -0.32696 0
M  V30 3185 C 285.979 4.05513 -1.40916 0
M  V30 3186 C 285.212 5.25784 -0.915793 0
M  V30 3187 O 285.435 5.69884 0.242651 0
M  V30 3188 O 284.369 5.77545 -1.69487 0
M  V30 3189 H 288.195 2.46919 -1.76818 0
M  V30 3190 H 285.78 1.17524 -0.922411 0
M  V30 3191 H 287.662 4.21377 -0.0440211 0
M  V30 3192 H 286.337 3.18668 0.568539 0
M  V30 3193 H 285.244 3.30879 -1.74556 0
M  V30 3194 H 286.577 4.3625 -2.27919 0
M  V30 3195 N 288.23 0.939286 1.26551 0
M  V30 3196 C 289.476 0.586715 1.94128 0
M  V30 3197 C 289.809 -0.8717 1.73537 0
M  V30 3198 O 289.084 -1.62339 1.07127 0
M  V30 3199 C 289.367 0.927497 3.4795 0
M  V30 3200 C 289.22 2.44052 3.77834 0
M  V30 3201 C 290.539 0.441569 4.37879 0
M  V30 3202 H 287.658 0.21463 0.705055 0
M  V30 3203 H 290.3 1.17316 1.49455 0
M  V30 3204 H 288.45 0.428431 3.8613 0
M  V30 3205 H 290.122 3.01216 3.4938 0
M  V30 3206 H 288.365 2.8848 3.23978 0
M  V30 3207 H 289.036 2.62947 4.85348 0
M  V30 3208 H 291.512 0.869448 4.06915 0
M  V30 3209 H 290.388 0.708856 5.44304 0
M  V30 3210 H 290.649 -0.658467 4.37169 0
M  V30 3211 N 289.708 -1.40897 0.706093 0
M  V30 3212 C 290.985 -1.94868 0.169099 0
M  V30 3213 C 291.365 -1.64485 -1.32318 0
M  V30 3214 O 290.713 -0.95744 -2.07474 0
M  V30 3215 C 290.923 -3.45798 0.471654 0
M  V30 3216 C 292.271 -4.22663 0.405127 0
M  V30 3217 O 293.295 -3.53865 0.407168 0
M  V30 3218 O 292.154 -5.45216 0.374383 0
M  V30 3219 H 289.248 -0.82673 0.0211352 0
M  V30 3220 H 291.794 -1.50558 0.782976 0
M  V30 3221 H 290.566 -3.61235 1.50416 0
M  V30 3222 H 290.189 -3.97225 -0.172666 0
M  V30 3223 N 291.186 -0.45159 -1.50991 0
M  V30 3224 C 292.597 0.00818571 -1.86698 0
M  V30 3225 C 292.948 1.40661 -1.3678 0
M  V30 3226 O 292.073 2.0391 -0.724546 0
M  V30 3227 C 292.668 0.0216303 -3.38793 0
M  V30 3228 C 291.227 0.425865 -3.73983 0
M  V30 3229 C 290.374 -0.372163 -2.74791 0
M  V30 3230 H 293.325 -0.666785 -1.44013 0
M  V30 3231 H 293.346 0.828078 -3.7138 0
M  V30 3232 H 292.858 -0.996288 -3.75094 0
M  V30 3233 H 290.959 1.44886 -3.43277 0
M  V30 3234 H 291.072 0.140761 -4.78893 0
M  V30 3235 H 289.436 0.171498 -2.54122 0
M  V30 3236 H 290.219 -1.38922 -3.13935 0
M  V30 3237 N 292.664 1.56529 -0.183458 0
M  V30 3238 C 293.912 1.96855 0.457452 0
M  V30 3239 C 294.233 1.07104 1.62953 0
M  V30 3240 O 293.503 0.139887 1.954 0
M  V30 3241 H 292.083 0.72693 0.171992 0
M  V30 3242 H 294.745 1.93056 -0.267476 0
M  V30 3243 H 293.841 3.01423 0.809368 0
M  V30 3244 N 294.142 -0.090211 1.57342 0
M  V30 3245 C 295.372 -0.805055 1.90269 0
M  V30 3246 C 295.78 -1.72561 0.775842 0
M  V30 3247 O 295.123 -1.81839 -0.260843 0
M  V30 3248 C 295.185 -1.66734 3.18497 0
M  V30 3249 C 294.849 -0.918092 4.47683 0
M  V30 3250 C 295.846 -0.245674 5.19319 0
M  V30 3251 C 293.531 -0.890724 4.94339 0
M  V30 3252 C 295.525 0.444088 6.35851 0
M  V30 3253 C 293.212 -0.197179 6.10782 0
M  V30 3254 C 294.21 0.469044 6.81388 0
M  V30 3255 O 293.898 1.15146 7.95611 0
M  V30 3256 H 293.63 -0.235143 0.633785 0
M  V30 3257 H 296.184 -0.0703805 2.05279 0
M  V30 3258 H 294.414 -2.44437 2.99646 0
M  V30 3259 H 296.103 -2.25919 3.37217 0
M  V30 3260 H 296.869 -0.258246 4.84312 0
M  V30 3261 H 292.748 -1.39873 4.39268 0
M  V30 3262 H 296.292 0.964667 6.90898 0
M  V30 3263 H 292.189 -0.18247 6.45242 0
M  V30 3264 H 292.957 1.05885 8.11622 0
M  V30 3265 N 295.62 -1.53406 -0.361157 0
M  V30 3266 C 296.567 -1.80156 -1.44265 0
M  V30 3267 C 297.537 -0.646183 -1.53015 0
M  V30 3268 O 298.722 -0.888818 -1.68833 0
M  V30 3269 C 295.862 -2.00116 -2.81154 0
M  V30 3270 C 294.975 -3.27833 -2.81335 0
M  V30 3271 C 294.11 -3.37957 -4.09828 0
M  V30 3272 C 293.149 -4.59689 -4.04168 0
M  V30 3273 N 292.286 -4.66942 -5.24318 0
M  V30 3274 H 297.126 -2.72438 -1.20754 0
M  V30 3275 H 294.663 -1.34954 -0.585296 0
M  V30 3276 H 296.621 -2.09677 -3.60682 0
M  V30 3277 H 295.251 -1.11167 -3.03054 0
M  V30 3278 H 294.303 -3.27204 -1.94014 0
M  V30 3279 H 295.615 -4.17442 -2.73027 0
M  V30 3280 H 294.769 -3.46853 -4.97773 0
M  V30 3281 H 293.508 -2.46372 -4.20894 0
M  V30 3282 H 292.513 -4.50889 -3.14609 0
M  V30 3283 H 293.738 -5.5262 -3.947 0
M  V30 3284 H 291.684 -3.7826 -5.35962 0
M  V30 3285 H 291.601 -5.50462 -5.18197 0
M  V30 3286 H 292.869 -4.80127 -6.14084 0
M  V30 3287 N 297.098 0.621204 -1.44841 0
M  V30 3288 C 298.031 1.7459 -1.46947 0
M  V30 3289 C 299.009 1.59273 -0.327238 0
M  V30 3290 O 300.193 1.81021 -0.525706 0
M  V30 3291 C 297.32 3.12274 -1.31159 0
M  V30 3292 C 296.366 3.46216 -2.49072 0
M  V30 3293 S 297.199 3.4258 -4.11581 0
M  V30 3294 C 298.355 4.82867 -3.98233 0
M  V30 3295 H 298.588 1.72538 -2.42111 0
M  V30 3296 H 296.121 0.796683 -1.32259 0
M  V30 3297 H 298.079 3.91722 -1.22737 0
M  V30 3298 H 296.74 3.11855 -0.374885 0
M  V30 3299 H 295.933 4.4643 -2.33915 0
M  V30 3300 H 295.535 2.74253 -2.54286 0
M  V30 3301 H 297.827 5.7234 -3.62537 0
M  V30 3302 H 298.77 5.0308 -4.98313 0
M  V30 3303 H 299.178 4.57908 -3.30121 0
M  V30 3304 N 298.576 1.31904 0.862503 0
M  V30 3305 C 299.539 1.20131 1.95195 0
M  V30 3306 C 300.539 0.126409 1.60302 0
M  V30 3307 O 301.729 0.376234 1.70089 0
M  V30 3308 C 298.861 0.845691 3.30244 0
M  V30 3309 H 300.054 2.16943 2.07064 0
M  V30 3310 H 297.607 1.15622 1.05172 0
M  V30 3311 H 298.342 -0.120957 3.24074 0
M  V30 3312 H 298.127 1.62276 3.56944 0
M  V30 3313 H 299.617 0.787418 4.10109 0
M  V30 3314 N 300.054 -1.07777 1.14986 0
M  V30 3315 C 301.3 -1.80557 0.923422 0
M  V30 3316 C 301.633 -1.86298 -0.548337 0
M  V30 3317 O 300.908 -1.34354 -1.40639 0
M  V30 3318 C 301.191 -3.25839 1.53299 0
M  V30 3319 C 301.044 -3.28269 3.07505 0
M  V30 3320 C 302.363 -4.22991 1.21518 0
M  V30 3321 H 299.482 -0.655493 0.336894 0
M  V30 3322 H 302.124 -1.26144 1.42083 0
M  V30 3323 H 300.274 -3.72306 1.10999 0
M  V30 3324 H 301.946 -2.90079 3.58681 0
M  V30 3325 H 300.189 -2.67355 3.4162 0
M  V30 3326 H 300.86 -4.30691 3.45266 0
M  V30 3327 H 303.336 -3.84894 1.581 0
M  V30 3328 H 302.212 -5.22945 1.66793 0
M  V30 3329 H 302.473 -4.41904 0.131505 0
M  V30 3330 N 301.532 -0.945985 -1.26051 0
M  V30 3331 C 302.772 -0.603665 -1.95282 0
M  V30 3332 C 303.136 0.842377 -1.72534 0
M  V30 3333 O 304.337 1.29387 -2.35611 0
M  V30 3334 C 302.608 -0.942292 -3.44754 0
M  V30 3335 S 304.167 -0.711242 -4.32997 0
M  V30 3336 H 300.985 -0.222176 -0.675395 0
M  V30 3337 H 303.587 -1.21832 -1.52896 0
M  V30 3338 H 302.291 -1.99203 -3.58812 0
M  V30 3339 H 301.822 -0.317546 -3.92116 0
M  V30 3340 H 303.837 0.422221 -4.944 0
M  V30 3341 N 303.011 1.40521 -0.713556 0
M  V30 3342 C 303.974 2.29098 -0.0684347 0
M  V30 3343 C 304.974 1.45268 0.689472 0
M  V30 3344 O 306.164 1.66205 0.521677 0
M  V30 3345 C 303.296 3.28446 0.913024 0
M  V30 3346 H 304.489 2.87645 -0.84855 0
M  V30 3347 H 302.042 1.48809 -0.47809 0
M  V30 3348 H 302.777 2.74913 1.72027 0
M  V30 3349 H 302.562 3.90327 0.372472 0
M  V30 3350 H 304.052 3.94777 1.36165 0
M  V30 3351 N 304.489 0.459591 1.5075 0
M  V30 3352 C 305.452 -0.329093 2.26825 0
M  V30 3353 C 306.452 -0.930481 1.31144 0
M  V30 3354 O 307.642 -0.801453 1.54669 0
M  V30 3355 C 304.774 -1.46768 3.07688 0
M  V30 3356 H 305.967 0.337924 2.9799 0
M  V30 3357 H 303.52 0.213336 1.54837 0
M  V30 3358 H 304.255 -2.17009 2.40993 0
M  V30 3359 H 304.04 -1.04238 3.77991 0
M  V30 3360 H 305.53 -2.02433 3.65254 0
M  V30 3361 N 305.967 -1.56429 0.191757 0
M  V30 3362 C 306.917 -2.15548 -0.743184 0
M  V30 3363 C 307.901 -1.09531 -1.17863 0
M  V30 3364 O 309.093 -1.35602 -1.13759 0
M  V30 3365 C 306.222 -2.81577 -1.96391 0
M  V30 3366 C 305.308 -3.9478 -1.54951 0
M  V30 3367 N 305.699 -4.98677 -0.845876 0
M  V30 3368 C 303.997 -4.06319 -1.83905 0
M  V30 3369 C 304.698 -5.78183 -0.638724 0
M  V30 3370 N 303.674 -5.30495 -1.18643 0
M  V30 3371 H 307.476 -2.9324 -0.196839 0
M  V30 3372 H 304.99 -1.62398 -0.0081603 0
M  V30 3373 H 306.987 -3.22321 -2.64415 0
M  V30 3374 H 305.647 -2.05371 -2.51501 0
M  V30 3375 H 306.658 -5.15464 -0.501704 0
M  V30 3376 H 303.335 -3.41238 -2.40548 0
M  V30 3377 H 304.725 -6.71851 -0.0807929 0
M  V30 3378 N 307.445 0.0818655 -1.57387 0
M  V30 3379 C 308.856 0.634871 -1.75574 0
M  V30 3380 C 309.207 1.78435 -0.815809 0
M  V30 3381 O 308.332 2.164 0.0025366 0
M  V30 3382 C 308.927 1.15845 -3.18379 0
M  V30 3383 C 307.486 1.65741 -3.37945 0
M  V30 3384 C 306.633 0.572549 -2.71325 0
M  V30 3385 H 309.584 -0.144268 -1.58043 0
M  V30 3386 H 309.605 2.02751 -3.21982 0
M  V30 3387 H 309.117 0.321631 -3.86765 0
M  V30 3388 H 307.218 2.51781 -2.74658 0
M  V30 3389 H 307.331 1.74129 -4.46336 0
M  V30 3390 H 305.695 1.01518 -2.33594 0
M  V30 3391 H 306.478 -0.253918 -3.4236 0
M  V30 3392 N 308.923 1.53595 0.353017 0
M  V30 3393 C 310.2 1.61002 1.11075 0
M  V30 3394 C 310.58 0.425356 2.0677 0
M  V30 3395 O 309.928 -0.583267 2.2093 0
M  V30 3396 C 310.138 2.96631 1.83877 0
M  V30 3397 C 311.486 3.51653 2.37961 0
M  V30 3398 O 312.51 2.98743 1.93987 0
M  V30 3399 O 311.369 4.44177 3.18386 0
M  V30 3400 H 308.463 0.650825 0.510251 0
M  V30 3401 H 311.009 1.6594 0.35527 0
M  V30 3402 H 309.781 3.74293 1.14108 0
M  V30 3403 H 309.404 2.95242 2.66304 0
M  V30 3404 N 310.401 -0.613514 1.45168 0
M  V30 3405 C 311.648 -1.37268 1.48875 0
M  V30 3406 C 311.976 -1.94077 0.128161 0
M  V30 3407 O 311.231 -1.75178 -0.872416 0
M  V30 3408 C 311.53 -2.54347 2.51083 0
M  V30 3409 C 311.196 -2.1572 3.95949 0
M  V30 3410 C 309.858 -2.04899 4.35396 0
M  V30 3411 C 312.21 -1.85485 4.87078 0
M  V30 3412 C 309.538 -1.62057 5.63875 0
M  V30 3413 C 311.89 -1.4413 6.15962 0
M  V30 3414 C 310.554 -1.31863 6.54346 0
M  V30 3415 H 309.824 -0.502299 0.544773 0
M  V30 3416 H 312.471 -0.694021 1.78481 0
M  V30 3417 H 310.776 -3.27524 2.15024 0
M  V30 3418 H 312.473 -3.12577 2.51191 0
M  V30 3419 H 309.063 -2.25066 3.64751 0
M  V30 3420 H 313.247 -1.92745 4.57343 0
M  V30 3421 H 308.503 -1.51177 5.92415 0
M  V30 3422 H 312.677 -1.19778 6.86022 0
M  V30 3423 H 310.304 -0.984392 7.538 0
M  V30 3424 N 311.879 -1.3236 -0.855495 0
M  V30 3425 C 313.29 -1.2056 -1.42556 0
M  V30 3426 C 313.641 0.182209 -1.95352 0
M  V30 3427 O 312.766 1.08088 -1.87472 0
M  V30 3428 C 313.361 -2.1826 -2.59129 0
M  V30 3429 C 311.92 -2.10351 -3.12137 0
M  V30 3430 C 311.067 -2.06674 -1.84882 0
M  V30 3431 H 314.018 -1.442 -0.662727 0
M  V30 3432 H 314.039 -1.78064 -3.36264 0
M  V30 3433 H 313.551 -3.19257 -2.20673 0
M  V30 3434 H 311.652 -1.12599 -3.55179 0
M  V30 3435 H 311.765 -3.00135 -3.73438 0
M  V30 3436 H 310.129 -1.51901 -2.04446 0
M  V30 3437 H 310.912 -3.09451 -1.48643 0
M  V30 3438 N 313.357 1.07166 -1.15556 0
M  V30 3439 C 314.267 2.17947 -0.868116 0
M  V30 3440 C 315.283 1.73297 0.156297 0
M  V30 3441 O 316.459 2.01392 -0.0182327 0
M  V30 3442 C 313.524 3.44789 -0.36355 0
M  V30 3443 C 312.585 4.03996 -1.45209 0
M  V30 3444 C 311.818 5.24783 -0.971508 0
M  V30 3445 O 312.041 5.70109 0.182194 0
M  V30 3446 O 310.975 5.75715 -1.75603 0
M  V30 3447 H 314.801 2.4503 -1.79427 0
M  V30 3448 H 312.386 1.16539 -0.934824 0
M  V30 3449 H 314.268 4.21307 -0.0887113 0
M  V30 3450 H 312.943 3.19253 0.534708 0
M  V30 3451 H 311.85 3.29009 -1.78056 0
M  V30 3452 H 313.183 4.33808 -2.32533 0
M  V30 3453 N 314.835 0.952656 1.25548 0
M  V30 3454 C 316.112 0.523818 1.88456 0
M  V30 3455 C 316.492 -0.998871 1.85973 0
M  V30 3456 O 315.84 -1.86381 1.3219 0
M  V30 3457 C 316.05 1.0982 3.31271 0
M  V30 3458 C 317.398 1.17385 4.08051 0
M  V30 3459 O 318.422 1.04961 3.40384 0
M  V30 3460 O 317.281 1.36852 5.29088 0
M  V30 3461 H 314.375 0.172485 0.808813 0
M  V30 3462 H 316.921 1.04596 1.33633 0
M  V30 3463 H 315.693 2.1415 3.27499 0
M  V30 3464 H 315.316 0.559191 3.93648 0
M  V30 3465 N 316.313 -1.40141 0.720998 0
M  V30 3466 C 317.562 -2.0002 0.259804 0
M  V30 3467 C 317.875 -1.57839 -1.15526 0
M  V30 3468 O 319.081 -2.10455 -1.71525 0
M  V30 3469 C 317.537 -3.57516 0.413566 0
M  V30 3470 C 317.145 -4.08667 1.83562 0
M  V30 3471 C 318.889 -4.24498 0.0134387 0
M  V30 3472 C 316.796 -5.58686 1.93968 0
M  V30 3473 H 315.726 -0.748195 0.0933806 0
M  V30 3474 H 318.377 -1.60313 0.892866 0
M  V30 3475 H 316.759 -3.9495 -0.288169 0
M  V30 3476 H 317.933 -3.82598 2.56817 0
M  V30 3477 H 316.248 -3.543 2.1877 0
M  V30 3478 H 318.845 -5.34654 0.0703954 0
M  V30 3479 H 319.188 -4.03375 -1.02927 0
M  V30 3480 H 319.721 -3.92188 0.665815 0
M  V30 3481 H 316.46 -5.8467 2.96379 0
M  V30 3482 H 315.98 -5.86602 1.25131 0
M  V30 3483 H 317.659 -6.23875 1.71431 0
M  V30 3484 N 317.792 -0.46758 -1.50504 0
M  V30 3485 C 319.02 0.0864133 -2.06719 0
M  V30 3486 C 319.435 1.33819 -1.33184 0
M  V30 3487 O 318.792 1.78061 -0.400083 0
M  V30 3488 C 318.843 0.378079 -3.59517 0
M  V30 3489 O 318.564 -0.824044 -4.3028 0
M  V30 3490 C 320.065 0.979426 -4.32345 0
M  V30 3491 H 317.285 -0.00551697 -0.670977 0
M  V30 3492 H 319.829 -0.655354 -1.93715 0
M  V30 3493 H 317.984 1.06977 -3.72337 0
M  V30 3494 H 318.398 -0.566518 -5.21432 0
M  V30 3495 H 319.872 1.1333 -5.40241 0
M  V30 3496 H 320.349 1.9686 -3.9261 0
M  V30 3497 H 320.955 0.326216 -4.24047 0
M  V30 3498 N 319.27 1.56325 -0.20005 0
M  V30 3499 C 320.203 2.15234 0.758267 0
M  V30 3500 C 321.181 1.09046 1.20614 0
M  V30 3501 O 322.365 1.37186 1.29276 0
M  V30 3502 C 319.492 2.71524 2.02466 0
M  V30 3503 C 318.538 3.90345 1.71852 0
M  V30 3504 S 319.371 5.28513 0.862249 0
M  V30 3505 C 320.527 5.88227 2.13868 0
M  V30 3506 H 320.76 2.96183 0.2575 0
M  V30 3507 H 318.293 1.54393 0.0150099 0
M  V30 3508 H 320.251 3.04598 2.75191 0
M  V30 3509 H 318.912 1.90607 2.49655 0
M  V30 3510 H 318.105 4.28158 2.65888 0
M  V30 3511 H 317.707 3.58306 1.07205 0
M  V30 3512 H 319.999 6.02891 3.09076 0
M  V30 3513 H 320.942 6.84714 1.80479 0
M  V30 3514 H 321.35 5.16874 2.2694 0
M  V30 3515 N 320.748 -0.0735177 1.57428 0
M  V30 3516 C 321.994 -0.774145 1.87443 0
M  V30 3517 C 322.327 -1.77311 0.792103 0
M  V30 3518 O 321.602 -1.93492 -0.197793 0
M  V30 3519 C 321.885 -1.48367 3.28115 0
M  V30 3520 C 321.738 -0.501227 4.46999 0
M  V30 3521 C 323.057 -2.429 3.66998 0
M  V30 3522 H 320.176 -0.279971 0.681752 0
M  V30 3523 H 322.818 -0.0373616 1.89963 0
M  V30 3524 H 320.968 -2.11171 3.26097 0
M  V30 3525 H 322.64 0.121468 4.6114 0
M  V30 3526 H 320.883 0.183593 4.33411 0
M  V30 3527 H 321.554 -1.03526 5.42205 0
M  V30 3528 H 324.03 -1.90175 3.70098 0
M  V30 3529 H 322.906 -2.89549 4.66318 0
M  V30 3530 H 323.167 -3.27628 2.96837 0
M  V30 3531 N 322.226 -1.5378 -0.344866 0
M  V30 3532 C 323.451 -1.75211 -1.10977 0
M  V30 3533 C 323.876 -0.48936 -1.81623 0
M  V30 3534 O 323.234 0.557925 -1.72502 0
M  V30 3535 C 323.282 -2.93147 -2.09993 0
M  V30 3536 O 322.386 -2.63203 -3.17487 0
M  V30 3537 H 321.727 -0.581241 -0.321021 0
M  V30 3538 H 324.257 -2.00738 -0.395661 0
M  V30 3539 H 324.267 -3.19898 -2.53237 0
M  V30 3540 H 322.942 -3.84731 -1.5797 0
M  V30 3541 H 321.519 -2.47336 -2.79069 0
M  V30 3542 N 323.704 0.605807 -1.45491 0
M  V30 3543 C 324.934 1.38934 -1.52908 0
M  V30 3544 C 325.342 1.88513 -0.161086 0
M  V30 3545 O 324.685 1.62962 0.847891 0
M  V30 3546 C 324.747 2.62737 -2.45376 0
M  V30 3547 C 324.411 2.34785 -3.92078 0
M  V30 3548 C 325.408 1.95038 -4.8193 0
M  V30 3549 C 323.093 2.47642 -4.37011 0
M  V30 3550 C 325.087 1.68511 -6.14722 0
M  V30 3551 C 322.774 2.20728 -5.69844 0
M  V30 3552 C 323.772 1.81225 -6.58519 0
M  V30 3553 O 323.46 1.54627 -7.88889 0
M  V30 3554 H 323.192 0.431629 -0.520262 0
M  V30 3555 H 325.746 0.74573 -1.91384 0
M  V30 3556 H 323.976 3.29824 -2.01874 0
M  V30 3557 H 325.665 3.24783 -2.43456 0
M  V30 3558 H 326.431 1.84639 -4.48479 0
M  V30 3559 H 322.31 2.77356 -3.68232 0
M  V30 3560 H 325.854 1.37602 -6.83894 0
M  V30 3561 H 321.751 2.30744 -6.02849 0
M  V30 3562 H 322.519 1.68665 -8.00933 0
M  V30 3563 N 325.182 1.32811 0.848464 0
M  V30 3564 C 326.092 1.24278 1.98978 0
M  V30 3565 C 327.108 0.155176 1.73307 0
M  V30 3566 O 328.284 0.376999 1.9784 0
M  V30 3567 C 325.349 0.972444 3.32783 0
M  V30 3568 C 324.41 2.14911 3.71634 0
M  V30 3569 C 323.643 1.89157 4.99054 0
M  V30 3570 O 323.866 0.837165 5.64223 0
M  V30 3571 O 322.8 2.75433 5.35183 0
M  V30 3572 H 326.626 2.20238 2.09115 0
M  V30 3573 H 324.211 1.12762 0.980052 0
M  V30 3574 H 326.093 0.838432 4.12975 0
M  V30 3575 H 324.768 0.043051 3.23671 0
M  V30 3576 H 323.675 2.33862 2.91992 0
M  V30 3577 H 325.008 3.06151 3.85399 0
M  V30 3578 N 326.66 -1.06551 1.16123 0
M  V30 3579 C 327.57 -2.17484 0.879662 0
M  V30 3580 C 328.586 -1.73377 -0.147104 0
M  V30 3581 O 329.762 -2.01379 0.0289128 0
M  V30 3582 C 326.827 -3.44591 0.381829 0
M  V30 3583 C 325.888 -4.0322 1.4735 0
M  V30 3584 C 325.121 -5.24261 0.999324 0
M  V30 3585 O 325.344 -5.70198 -0.151957 0
M  V30 3586 O 324.278 -5.74775 1.78653 0
M  V30 3587 H 328.104 -2.44075 1.80724 0
M  V30 3588 H 325.689 -1.16042 0.940992 0
M  V30 3589 H 327.571 -4.21254 0.111053 0
M  V30 3590 H 326.246 -3.19532 -0.51777 0
M  V30 3591 H 325.153 -3.2806 1.79798 0
M  V30 3592 H 326.486 -4.32568 2.34831 0
M  V30 3593 N 328.138 -0.959301 -1.25041 0
M  V30 3594 C 329.068 -0.501388 -2.28053 0
M  V30 3595 C 330.049 0.454673 -1.63911 0
M  V30 3596 O 331.234 0.352618 -1.90972 0
M  V30 3597 C 328.364 0.217224 -3.4662 0
M  V30 3598 C 327.318 -0.654034 -4.22973 0
M  V30 3599 C 326.644 0.195589 -5.34342 0
M  V30 3600 C 327.944 -1.93447 -4.85155 0
M  V30 3601 H 329.638 -1.36238 -2.66608 0
M  V30 3602 H 327.184 -0.656534 -1.28163 0
M  V30 3603 H 329.137 0.548732 -4.17812 0
M  V30 3604 H 327.861 1.1125 -3.07068 0
M  V30 3605 H 326.52 -0.968693 -3.5357 0
M  V30 3606 H 326.168 1.09076 -4.91031 0
M  V30 3607 H 325.868 -0.384091 -5.86343 0
M  V30 3608 H 327.392 0.521958 -6.08365 0
M  V30 3609 H 328.806 -1.66908 -5.48466 0
M  V30 3610 H 327.203 -2.46018 -5.47353 0
M  V30 3611 H 328.273 -2.63466 -4.07079 0
M  V30 3612 N 329.616 1.39756 -0.72842 0
M  V30 3613 C 330.546 2.33289 -0.0991354 0
M  V30 3614 C 331.527 1.53568 0.731489 0
M  V30 3615 O 332.712 1.81987 0.677807 0
M  V30 3616 C 329.842 3.3763 0.813834 0
M  V30 3617 C 328.796 4.2791 0.0878663 0
M  V30 3618 C 328.122 5.22894 1.11741 0
M  V30 3619 C 329.422 5.11314 -1.06563 0
M  V30 3620 H 331.116 2.86163 -0.880408 0
M  V30 3621 H 328.662 1.37591 -0.424819 0
M  V30 3622 H 330.615 4.0201 1.26355 0
M  V30 3623 H 329.339 2.83181 1.62715 0
M  V30 3624 H 327.998 3.65 -0.342159 0
M  V30 3625 H 327.646 4.64744 1.92412 0
M  V30 3626 H 327.346 5.84143 0.636477 0
M  V30 3627 H 328.87 5.90151 1.56697 0
M  V30 3628 H 330.284 5.69076 -0.694671 0
M  V30 3629 H 328.681 5.81671 -1.47577 0
M  V30 3630 H 329.751 4.46534 -1.89038 0
M  V30 3631 O 331.133 0.617387 1.49233 0
M  V30 3632 H 331.824 0.132127 1.93249 0
M  V30 END ATOM
M  V30 BEGIN BOND
M  V30 END BOND
M  V30 END CTAB
M  END
$$$$
