drugbank_target|P39300 Probable L-ascorbate-6-phosphate lactonase UlaG (DB04464)
 OpenBabel12092120463D

  0  0  0     0  0            999 V3000
M  V30 BEGIN CTAB
M  V30 COUNTS 5553 5639 0 0 0
M  V30 BEGIN ATOM
M  V30 1 H -0.908 1.98254 -0.117106 0
M  V30 2 N 0 1.576 0 0
M  V30 3 C 0.933 2.03868 1.02534 0
M  V30 4 C 1.911 0.928543 1.3348 0
M  V30 5 O 3.095 1.19667 1.45644 0
M  V30 6 C 0.222 2.43627 2.35294 0
M  V30 7 C -0.732 3.65373 2.2001 0
M  V30 8 S 0.101 5.13292 1.52614 0
M  V30 9 C 1.257 5.56322 2.86805 0
M  V30 10 H 1.49 2.90518 0.631377 0
M  V30 11 H -0.977 1.52953 0.210867 0
M  V30 12 H 0.981 2.67203 3.11629 0
M  V30 13 H -0.358 1.57376 2.7183 0
M  V30 14 H -1.165 3.90944 3.18086 0
M  V30 15 H -1.563 3.418 1.51819 0
M  V30 16 H 0.729 5.58782 3.83104 0
M  V30 17 H 1.672 6.56266 2.65933 0
M  V30 18 H 2.08 4.83886 2.90714 0
M  V30 19 N 1.4781 -0.272755 1.55222 0
M  V30 20 C 2.7031 -1.02683 1.80197 0
M  V30 21 C 3.1281 -1.79142 0.573551 0
M  V30 22 O 2.4861 -1.74917 -0.476849 0
M  V30 23 C 2.5341 -1.9609 3.02624 0
M  V30 24 O 1.6381 -3.04863 2.77727 0
M  V30 25 H 0.9791 -0.293557 0.595584 0
M  V30 26 H 3.5091 -0.30159 2.02365 0
M  V30 27 H 3.5191 -2.38039 3.31363 0
M  V30 28 H 2.1941 -1.39851 3.91682 0
M  V30 29 H 0.7711 -2.67228 2.60084 0
M  V30 30 N 2.9562 -1.48159 -0.537278 0
M  V30 31 C 3.9032 -1.62138 -1.64256 0
M  V30 32 C 4.8732 -0.463668 -1.59497 0
M  V30 33 O 6.0582 -0.686241 -1.78032 0
M  V30 34 C 3.1982 -1.66028 -3.02537 0
M  V30 35 C 2.3112 -2.92855 -3.17585 0
M  V30 36 C 1.4462 -2.87952 -4.46382 0
M  V30 37 C 0.4852 -4.09516 -4.54932 0
M  V30 38 N -0.3778 -4.02733 -5.75109 0
M  V30 39 H 4.4622 -2.56529 -1.51647 0
M  V30 40 H 1.9992 -1.27224 -0.738414 0
M  V30 41 H 3.9572 -1.66265 -3.82638 0
M  V30 42 H 2.5872 -0.751331 -3.13934 0
M  V30 43 H 1.6392 -3.02395 -2.30784 0
M  V30 44 H 2.9512 -3.82822 -3.19764 0
M  V30 45 H 2.1052 -2.8655 -5.34765 0
M  V30 46 H 0.8442 -1.95702 -4.46712 0
M  V30 47 H -0.1508 -4.11201 -3.64957 0
M  V30 48 H 1.0742 -5.02917 -4.56346 0
M  V30 49 H -0.9798 -3.13299 -5.76351 0
M  V30 50 H -1.0628 -4.86397 -5.78752 0
M  V30 51 H 0.2052 -4.05379 -6.65799 0
M  V30 52 N 4.4343 0.785586 -1.36625 0
M  V30 53 C 5.6803 1.54591 -1.31261 0
M  V30 54 C 6.0133 1.93906 0.106823 0
M  V30 55 O 5.2883 1.63007 1.06108 0
M  V30 56 C 5.5713 2.82038 -2.23889 0
M  V30 57 C 5.4243 2.49066 -3.74548 0
M  V30 58 C 6.7433 3.83887 -2.15217 0
M  V30 59 H 3.8623 0.560846 -0.478143 0
M  V30 60 H 6.5043 0.902278 -1.67209 0
M  V30 61 H 4.6543 3.36961 -1.93363 0
M  V30 62 H 6.3263 2.00164 -4.15611 0
M  V30 63 H 4.5693 1.81954 -3.93796 0
M  V30 64 H 5.2403 3.40109 -4.34776 0
M  V30 65 H 7.7163 3.38421 -2.42096 0
M  V30 66 H 6.5923 4.70806 -2.82193 0
M  V30 67 H 6.8533 4.27131 -1.14068 0
M  V30 68 N 5.9124 1.20967 1.01018 0
M  V30 69 C 6.8594 0.964281 2.09691 0
M  V30 70 C 7.8294 -0.107853 1.65749 0
M  V30 71 O 9.0144 0.0381987 1.90762 0
M  V30 72 C 6.1544 0.52943 3.41015 0
M  V30 73 C 5.2674 1.67043 3.98398 0
M  V30 74 C 4.4024 1.18525 5.17808 0
M  V30 75 C 3.4414 2.29892 5.67288 0
M  V30 76 N 2.5784 1.82546 6.77954 0
M  V30 77 H 7.4184 1.89463 2.30017 0
M  V30 78 H 4.9554 0.944289 1.1279 0
M  V30 79 H 6.9134 0.258588 4.16398 0
M  V30 80 H 5.5434 -0.363919 3.20742 0
M  V30 81 H 4.5954 2.05603 3.20049 0
M  V30 82 H 5.9074 2.50877 4.31117 0
M  V30 83 H 5.0614 0.870762 6.00419 0
M  V30 84 H 3.8004 0.316887 4.86669 0
M  V30 85 H 2.8054 2.6215 4.83278 0
M  V30 86 H 4.0304 3.17216 6.00459 0
M  V30 87 H 1.9764 0.980454 6.48632 0
M  V30 88 H 1.8934 2.59956 7.09901 0
M  V30 89 H 3.1614 1.54115 7.64113 0
M  V30 90 N 7.3905 -1.2043 1.01659 0
M  V30 91 C 8.6155 -1.94318 0.724942 0
M  V30 92 C 9.0405 -1.74266 -0.708034 0
M  V30 93 O 8.3985 -1.03694 -1.48719 0
M  V30 94 C 8.4465 -3.44486 1.06591 0
M  V30 95 O 7.5505 -4.12017 0.177599 0
M  V30 96 H 6.8915 -0.60708 0.26898 0
M  V30 97 H 9.4215 -1.52861 1.35995 0
M  V30 98 H 9.4315 -3.95106 1.01762 0
M  V30 99 H 8.1065 -3.58404 2.10997 0
M  V30 100 H 6.6835 -3.71821 0.283421 0
M  V30 101 N 8.8686 -0.792821 -1.36206 0
M  V30 102 C 10.1176 -0.363353 -1.984 0
M  V30 103 C 10.4306 1.07172 -1.63626 0
M  V30 104 O 11.6366 1.60362 -2.19081 0
M  V30 105 C 10.0926 -0.59872 -3.54885 0
M  V30 106 C 9.7006 -2.04543 -3.9858 0
M  V30 107 C 11.4446 -0.233926 -4.23855 0
M  V30 108 C 9.3516 -2.22727 -5.47856 0
M  V30 109 H 8.2816 -0.13212 -0.742334 0
M  V30 110 H 10.9326 -0.974935 -1.55458 0
M  V30 111 H 9.3146 0.0826222 -3.95914 0
M  V30 112 H 10.4886 -2.76345 -3.68741 0
M  V30 113 H 8.8036 -2.36879 -3.42458 0
M  V30 114 H 11.4006 -0.348027 -5.33566 0
M  V30 115 H 11.7436 0.818351 -4.08177 0
M  V30 116 H 12.2766 -0.868639 -3.882 0
M  V30 117 H 9.0156 -3.2635 -5.68486 0
M  V30 118 H 8.5356 -1.55434 -5.7931 0
M  V30 119 H 10.2146 -2.03607 -6.14128 0
M  V30 120 N 10.3467 1.47872 -0.545128 0
M  V30 121 C 11.5747 2.06889 -0.021084 0
M  V30 122 C 11.9897 1.39955 1.2672 0
M  V30 123 O 11.3467 0.492036 1.75742 0
M  V30 124 C 11.3977 3.60996 0.190817 0
M  V30 125 O 11.1187 4.25419 -1.04644 0
M  V30 126 C 12.6197 4.36849 0.753521 0
M  V30 127 H 9.8397 0.669785 -0.0403635 0
M  V30 128 H 12.3837 1.90049 -0.755095 0
M  V30 129 H 10.5387 3.77391 0.87492 0
M  V30 130 H 10.9527 5.17785 -0.836611 0
M  V30 131 H 12.4267 5.45399 0.851139 0
M  V30 132 H 12.9037 4.02306 1.762 0
M  V30 133 H 13.5097 4.25169 0.105503 0
M  V30 134 N 11.8248 0.280983 1.55075 0
M  V30 135 C 13.2408 -0.0729964 1.59433 0
M  V30 136 C 13.4408 -1.5411 1.29817 0
M  V30 137 O 12.4968 -2.29086 1.06187 0
M  V30 138 C 13.8098 0.306921 2.9913 0
M  V30 139 C 15.3578 0.254023 3.11968 0
M  V30 140 C 15.8328 0.608467 4.5394 0
M  V30 141 N 17.3238 0.560241 4.59799 0
M  V30 142 C 18.0588 0.80722 5.6769 0
M  V30 143 N 17.5548 1.11912 6.83701 0
M  V30 144 N 19.3478 0.735623 5.57266 0
M  V30 145 H 11.4988 1.238 1.7259 0
M  V30 146 H 13.7618 0.500547 0.805082 0
M  V30 147 H 13.4678 1.32816 3.25657 0
M  V30 148 H 13.3418 -0.349363 3.75579 0
M  V30 149 H 15.7288 -0.75794 2.852 0
M  V30 150 H 15.8098 0.944649 2.37718 0
M  V30 151 H 15.4538 1.61814 4.81434 0
M  V30 152 H 15.3838 -0.104013 5.26497 0
M  V30 153 H 17.8748 0.329288 3.76463 0
M  V30 154 H 18.1878 1.29409 7.61888 0
M  V30 155 H 16.5328 1.15695 6.85303 0
M  V30 156 H 19.7238 0.491752 4.6551 0
M  V30 157 H 19.8968 0.931482 6.4127 0
M  V30 158 N 13.3029 -1.57598 0.00835791 0
M  V30 159 C 14.2129 -2.12385 -0.996487 0
M  V30 160 C 15.2289 -1.07108 -1.37127 0
M  V30 161 O 16.4049 -1.39055 -1.4569 0
M  V30 162 C 13.4699 -2.62314 -2.26699 0
M  V30 163 C 12.5309 -3.82225 -1.95456 0
M  V30 164 C 11.7639 -4.29763 -3.16449 0
M  V30 165 O 11.9869 -3.76584 -4.28416 0
M  V30 166 O 10.9209 -5.21832 -2.99958 0
M  V30 167 H 14.7469 -2.98479 -0.560725 0
M  V30 168 H 12.3319 -1.47903 -0.210987 0
M  V30 169 H 14.2139 -2.94589 -3.01322 0
M  V30 170 H 12.8889 -1.79313 -2.69497 0
M  V30 171 H 11.7959 -3.54909 -1.18282 0
M  V30 172 H 13.1289 -4.66324 -1.57489 0
M  V30 173 N 14.781 0.264519 -1.55364 0
M  V30 174 C 16.006 1.01726 -1.80739 0
M  V30 175 C 16.431 1.78836 -0.583044 0
M  V30 176 O 15.789 1.75167 0.467566 0
M  V30 177 C 15.837 1.94482 -3.03659 0
M  V30 178 O 14.941 3.03386 -2.7934 0
M  V30 179 H 14.282 0.290395 -0.597132 0
M  V30 180 H 16.812 0.290854 -2.02522 0
M  V30 181 H 16.822 2.36278 -3.32621 0
M  V30 182 H 15.497 1.37772 -3.92418 0
M  V30 183 H 14.074 2.65844 -2.61498 0
M  V30 184 N 16.2591 1.48442 0.529413 0
M  V30 185 C 17.5051 1.57699 1.28463 0
M  V30 186 C 17.8601 0.247913 1.90796 0
M  V30 187 O 17.1531 -0.749279 1.76342 0
M  V30 188 C 17.3471 2.6523 2.39558 0
M  V30 189 C 17.1761 4.08464 1.88114 0
M  V30 190 C 15.9461 4.75596 1.70693 0
M  V30 191 C 18.1441 4.94613 1.40935 0
M  V30 192 N 16.1261 6.03245 1.13881 0
M  V30 193 C 17.4971 6.12511 0.960734 0
M  V30 194 C 19.5521 4.80833 1.29243 0
M  V30 195 C 18.2551 7.18149 0.406792 0
M  V30 196 C 20.2811 5.86593 0.752487 0
M  V30 197 C 19.6431 7.037 0.313946 0
M  V30 198 H 15.7421 0.631608 0.46108 0
M  V30 199 H 18.3261 1.85325 0.596886 0
M  V30 200 H 16.4971 2.39425 3.05827 0
M  V30 201 H 18.2291 2.64169 3.06589 0
M  V30 202 H 14.9841 4.31938 1.94232 0
M  V30 203 H 15.4081 6.71324 0.874831 0
M  V30 204 H 20.0501 3.90635 1.61754 0
M  V30 205 H 17.7681 8.0807 0.0693671 0
M  V30 206 H 21.3541 5.77985 0.665192 0
M  V30 207 H 20.2341 7.8414 -0.0973632 0
M  V30 208 N 17.7372 -0.778329 1.37039 0
M  V30 209 C 18.9862 -1.53189 1.3121 0
M  V30 210 C 19.2992 -1.95328 -0.103095 0
M  V30 211 O 20.5052 -2.70012 -0.283826 0
M  V30 212 C 18.9612 -2.76591 2.30272 0
M  V30 213 C 18.5692 -2.41577 3.77286 0
M  V30 214 C 20.3132 -3.5455 2.33441 0
M  V30 215 C 18.2202 -3.61441 4.68096 0
M  V30 216 H 17.1502 -0.5751 0.487622 0
M  V30 217 H 19.8012 -0.853101 1.62464 0
M  V30 218 H 18.1832 -3.46326 1.92027 0
M  V30 219 H 19.3572 -1.79668 4.2433 0
M  V30 220 H 17.6722 -1.76806 3.76999 0
M  V30 221 H 20.2692 -4.43628 2.98493 0
M  V30 222 H 20.6122 -3.93936 1.34611 0
M  V30 223 H 21.1452 -2.91805 2.7036 0
M  V30 224 H 17.8842 -3.27142 5.6803 0
M  V30 225 H 17.4042 -4.22478 4.25761 0
M  V30 226 H 19.0832 -4.28335 4.8491 0
M  V30 227 N 19.2153 -1.21501 -1.00376 0
M  V30 228 C 20.1453 -0.999478 -2.11028 0
M  V30 229 C 21.1263 0.0759671 -1.6993 0
M  V30 230 O 22.3113 -0.0841106 -1.94018 0
M  V30 231 C 19.4413 -0.564709 -3.42678 0
M  V30 232 C 18.3953 -1.58486 -3.97576 0
M  V30 233 C 17.7213 -1.00628 -5.25146 0
M  V30 234 C 19.0213 -2.97204 -4.29496 0
M  V30 235 H 20.7153 -1.92495 -2.29317 0
M  V30 236 H 18.2613 -0.92693 -1.102 0
M  V30 237 H 20.2143 -0.401091 -4.19487 0
M  V30 238 H 18.9383 0.396411 -3.24185 0
M  V30 239 H 17.5973 -1.73606 -3.22888 0
M  V30 240 H 17.2453 -0.0368439 -5.02987 0
M  V30 241 H 16.9453 -1.68771 -5.62841 0
M  V30 242 H 18.4693 -0.854015 -6.04598 0
M  V30 243 H 19.8833 -2.8552 -4.97143 0
M  V30 244 H 18.2803 -3.62372 -4.78338 0
M  V30 245 H 19.3503 -3.47956 -3.3772 0
M  V30 246 N 20.6934 1.19889 -1.02296 0
M  V30 247 C 21.9184 1.9393 -0.735237 0
M  V30 248 C 22.3434 1.74639 0.698782 0
M  V30 249 O 21.7014 1.04481 1.48167 0
M  V30 250 C 21.7494 3.43916 -1.08417 0
M  V30 251 O 20.8534 4.11917 -0.199446 0
M  V30 252 H 20.1944 0.605645 -0.272196 0
M  V30 253 H 22.7244 1.52137 -1.36804 0
M  V30 254 H 22.7344 3.9456 -1.03856 0
M  V30 255 H 21.4094 3.5728 -2.12894 0
M  V30 256 H 19.9864 3.71666 -0.303136 0
M  V30 257 N 22.1715 0.800033 1.35784 0
M  V30 258 C 23.3995 0.389606 2.03199 0
M  V30 259 C 23.8145 -0.997375 1.60306 0
M  V30 260 O 23.1715 -1.64154 0.797481 0
M  V30 261 C 23.2225 0.455855 3.58614 0
M  V30 262 O 22.9435 1.78815 3.99946 0
M  V30 263 C 24.4445 0.0374032 4.43284 0
M  V30 264 H 21.6645 0.159132 0.651857 0
M  V30 265 H 24.2085 1.08183 1.73541 0
M  V30 266 H 22.3635 -0.188057 3.86943 0
M  V30 267 H 22.7775 1.74636 4.94573 0
M  V30 268 H 24.2515 0.134882 5.51835 0
M  V30 269 H 24.7285 -1.01651 4.27275 0
M  V30 270 H 25.3345 0.654215 4.20238 0
M  V30 271 N 23.6496 -1.47581 0.552962 0
M  V30 272 C 24.8966 -2.02482 0.0273243 0
M  V30 273 C 25.2246 -1.42776 -1.32081 0
M  V30 274 O 24.4796 -0.571393 -1.87173 0
M  V30 275 C 24.7786 -3.57199 -0.119728 0
M  V30 276 C 24.4446 -4.35804 1.15697 0
M  V30 277 C 23.1066 -4.57 1.50681 0
M  V30 278 C 25.4586 -4.81167 2.00319 0
M  V30 279 C 22.7866 -5.20807 2.70142 0
M  V30 280 C 25.1386 -5.46293 3.18978 0
M  V30 281 C 23.8026 -5.65722 3.54281 0
M  V30 282 H 23.0726 -0.740933 0.00999866 0
M  V30 283 H 25.7196 -1.77302 0.72362 0
M  V30 284 H 24.0246 -3.81348 -0.89896 0
M  V30 285 H 25.7216 -3.97324 -0.541718 0
M  V30 286 H 22.3116 -4.19582 0.874561 0
M  V30 287 H 26.4956 -4.64574 1.74599 0
M  V30 288 H 21.7516 -5.34045 2.97668 0
M  V30 289 H 25.9256 -5.80407 3.84838 0
M  V30 290 H 23.5526 -6.14936 4.46942 0
M  V30 291 N 25.1277 -0.289203 -1.54924 0
M  V30 292 C 26.5387 0.205791 -1.85562 0
M  V30 293 C 26.8897 1.54351 -1.2112 0
M  V30 294 O 26.0147 2.10435 -0.504601 0
M  V30 295 C 26.6097 0.380177 -3.3666 0
M  V30 296 C 25.1687 0.819395 -3.67373 0
M  V30 297 C 24.3157 -0.079159 -2.77187 0
M  V30 298 H 27.2667 -0.510577 -1.50262 0
M  V30 299 H 27.2877 1.21659 -3.60526 0
M  V30 300 H 26.7997 -0.593589 -3.83534 0
M  V30 301 H 24.9007 1.80413 -3.26009 0
M  V30 302 H 25.0137 0.646957 -4.74712 0
M  V30 303 H 23.3777 0.439565 -2.50878 0
M  V30 304 H 24.1607 -1.04906 -3.26878 0
M  V30 305 N 26.6058 1.57591 -0.0167156 0
M  V30 306 C 27.5158 2.1291 0.98521 0
M  V30 307 C 28.5318 1.07834 1.36557 0
M  V30 308 O 29.7078 1.39826 1.44951 0
M  V30 309 C 26.7728 2.63512 2.25305 0
M  V30 310 C 25.8338 3.83256 1.93426 0
M  V30 311 C 25.0668 4.31435 3.14165 0
M  V30 312 O 25.2898 3.78851 4.26413 0
M  V30 313 O 24.2238 5.23416 2.97186 0
M  V30 314 H 28.0498 2.98772 0.544888 0
M  V30 315 H 25.6348 1.48012 0.203141 0
M  V30 316 H 27.5168 2.96183 2.99756 0
M  V30 317 H 26.1918 1.8074 2.68542 0
M  V30 318 H 25.0988 3.55531 1.16398 0
M  V30 319 H 26.4318 4.67153 1.55013 0
M  V30 320 N 28.0839 -0.256276 1.55502 0
M  V30 321 C 29.3299 -0.982884 1.78076 0
M  V30 322 C 29.6849 -1.83319 0.584109 0
M  V30 323 O 28.9779 -1.86875 -0.422877 0
M  V30 324 C 29.1719 -1.88432 3.03691 0
M  V30 325 C 29.0009 -1.12276 4.35459 0
M  V30 326 C 27.7709 -0.831647 4.98409 0
M  V30 327 C 29.9689 -0.504933 5.11815 0
M  V30 328 N 27.9509 -0.0450423 6.13883 0
M  V30 329 C 29.3219 0.146696 6.19826 0
M  V30 330 C 31.3769 -0.414455 4.96172 0
M  V30 331 C 30.0799 0.880103 7.13895 0
M  V30 332 C 32.1059 0.305398 5.90611 0
M  V30 333 C 31.4679 0.945701 6.98023 0
M  V30 334 H 27.5669 -0.341084 0.703694 0
M  V30 335 H 30.1509 -0.256909 1.92998 0
M  V30 336 H 28.3219 -2.58241 2.90114 0
M  V30 337 H 30.0539 -2.54579 3.14598 0
M  V30 338 H 26.8089 -1.14111 4.59647 0
M  V30 339 H 27.2329 0.336079 6.76165 0
M  V30 340 H 31.8749 -0.895163 4.13215 0
M  V30 341 H 29.5929 1.37244 7.9636 0
M  V30 342 H 33.1789 0.375946 5.80584 0
M  V30 343 H 32.0589 1.49383 7.6984 0
M  V30 344 N 29.562 -1.4872 -0.521534 0
M  V30 345 C 30.81 -1.56857 -1.27437 0
M  V30 346 C 31.131 -0.247982 -1.93417 0
M  V30 347 O 30.401 0.731151 -1.81744 0
M  V30 348 H 28.981 -0.577885 -0.473347 0
M  V30 349 H 31.643 -1.85233 -0.606205 0
M  V30 350 H 30.739 -2.35402 -2.0492 0
M  V30 351 N 31.0401 0.771051 -1.3745 0
M  V30 352 C 32.2651 1.56529 -1.36065 0
M  V30 353 C 32.6901 1.88029 0.0515859 0
M  V30 354 O 32.0481 1.49282 1.02882 0
M  V30 355 C 32.0961 2.85187 -2.20683 0
M  V30 356 O 31.2001 3.79593 -1.61193 0
M  V30 357 H 30.5411 0.47411 -0.464883 0
M  V30 358 H 33.0711 0.954269 -1.80983 0
M  V30 359 H 33.0811 3.34283 -2.33921 0
M  V30 360 H 31.7561 2.61588 -3.23334 0
M  V30 361 H 30.3331 3.38239 -1.56999 0
M  V30 362 N 32.5182 1.22032 0.997298 0
M  V30 363 C 33.7642 1.05382 1.73972 0
M  V30 364 C 34.1192 -0.407419 1.88037 0
M  V30 365 O 33.4122 -1.29811 1.40924 0
M  V30 366 C 33.6062 1.69345 3.14733 0
M  V30 367 C 33.4352 3.21537 3.14395 0
M  V30 368 C 32.2052 3.9062 3.20537 0
M  V30 369 C 34.4032 4.18527 2.98897 0
M  V30 370 N 32.3852 5.29935 3.09906 0
M  V30 371 C 33.7562 5.44645 2.96247 0
M  V30 372 C 35.8112 4.09476 2.83255 0
M  V30 373 C 34.5142 6.62752 2.79557 0
M  V30 374 C 36.5402 5.27228 2.67926 0
M  V30 375 C 35.9022 6.52262 2.65959 0
M  V30 376 H 32.0012 0.440018 0.646458 0
M  V30 377 H 34.5852 1.54505 1.18475 0
M  V30 378 H 32.7562 1.22778 3.68484 0
M  V30 379 H 34.4882 1.45828 3.77513 0
M  V30 380 H 31.2432 3.41592 3.28043 0
M  V30 381 H 31.6672 6.02926 3.07912 0
M  V30 382 H 36.3092 3.13598 2.83577 0
M  V30 383 H 34.0272 7.58783 2.77982 0
M  V30 384 H 37.6132 5.22053 2.56812 0
M  V30 385 H 36.4932 7.41844 2.54239 0
M  V30 386 N 33.9963 -1.19345 1.0293 0
M  V30 387 C 34.9263 -2.2481 0.631105 0
M  V30 388 C 35.9073 -1.66245 -0.360104 0
M  V30 389 O 37.0923 -1.92677 -0.242726 0
M  V30 390 C 34.2223 -3.47295 -0.0184607 0
M  V30 391 C 33.1763 -4.18536 0.895073 0
M  V30 392 C 32.5023 -5.34586 0.110592 0
M  V30 393 C 33.8023 -4.73287 2.209 0
M  V30 394 H 35.4963 -2.58372 1.51275 0
M  V30 395 H 33.0423 -1.24194 0.728818 0
M  V30 396 H 34.9953 -4.20268 -0.308675 0
M  V30 397 H 33.7193 -3.12933 -0.934907 0
M  V30 398 H 32.3783 -3.47446 1.16949 0
M  V30 399 H 32.0263 -4.96469 -0.807902 0
M  V30 400 H 31.7263 -5.83183 0.719087 0
M  V30 401 H 33.2503 -6.10355 -0.172871 0
M  V30 402 H 34.6643 -5.38013 1.98028 0
M  V30 403 H 33.0613 -5.32373 2.76946 0
M  V30 404 H 34.1313 -3.91331 2.86336 0
M  V30 405 N 35.4744 -0.807222 -1.35358 0
M  V30 406 C 36.4224 -0.20614 -2.31685 0
M  V30 407 C 37.4164 0.644445 -1.56663 0
M  V30 408 O 38.6224 0.537538 -1.71786 0
M  V30 409 H 34.9974 -0.0479006 -0.750473 0
M  V30 410 H 36.9684 -1.03369 -2.79924 0
M  V30 411 C 35.7174 0.630212 -3.41941 0
M  V30 412 H 35.0404 -0.0149558 -3.99797 0
M  V30 413 H 36.4804 1.01716 -4.11619 0
M  V30 414 C 34.9394 1.79601 -2.85035 0
M  V30 415 O 35.4694 2.89351 -2.78637 0
M  V30 416 N 33.6754 1.60774 -2.42074 0
M  V30 417 H 33.2224 0.715009 -2.47478 0
M  V30 418 H 33.1804 2.38933 -2.04349 0
M  V30 419 N 36.9525 1.47285 -0.560781 0
M  V30 420 C 37.8625 2.33846 0.187954 0
M  V30 421 C 38.8785 1.48412 0.908293 0
M  V30 422 O 40.0545 1.81332 0.876388 0
M  V30 423 C 37.1195 3.25178 1.2025 0
M  V30 424 C 36.1805 4.26504 0.489208 0
M  V30 425 C 35.4135 5.13472 1.45542 0
M  V30 426 O 35.6365 5.02959 2.6905 0
M  V30 427 O 34.5705 5.93902 0.977963 0
M  V30 428 H 38.3965 2.99177 -0.522177 0
M  V30 429 H 35.9815 1.45903 -0.321364 0
M  V30 430 H 37.8635 3.81584 1.78805 0
M  V30 431 H 36.5385 2.6247 1.89449 0
M  V30 432 H 35.4455 3.73847 -0.137627 0
M  V30 433 H 36.7785 4.91935 -0.161399 0
M  V30 434 N 38.4306 0.297415 1.54768 0
M  V30 435 C 39.3406 -0.58983 2.27064 0
M  V30 436 C 40.3566 -1.15144 1.30453 0
M  V30 437 O 41.5326 -1.17699 1.63428 0
M  V30 438 C 38.5976 -1.74714 2.9946 0
M  V30 439 C 37.6586 -1.21997 4.11601 0
M  V30 440 C 36.8916 -2.32212 4.80535 0
M  V30 441 O 37.1146 -3.52036 4.48806 0
M  V30 442 O 36.0486 -1.99106 5.68014 0
M  V30 443 H 39.8746 -0.00348199 3.037 0
M  V30 444 H 37.4596 0.0640035 1.49263 0
M  V30 445 H 39.3416 -2.42147 3.44881 0
M  V30 446 H 38.0166 -2.32016 2.25722 0
M  V30 447 H 36.9236 -0.511458 3.70587 0
M  V30 448 H 38.2566 -0.692419 4.87305 0
M  V30 449 N 39.9087 -1.5758 0.0250728 0
M  V30 450 C 41.1577 -1.90811 -0.653767 0
M  V30 451 C 41.4707 -0.90273 -1.73523 0
M  V30 452 O 42.6767 -1.12614 -2.47043 0
M  V30 453 C 41.1327 -3.38804 -1.21409 0
M  V30 454 C 40.7407 -4.47692 -0.166126 0
M  V30 455 C 42.4847 -3.81108 -1.86967 0
M  V30 456 C 40.3917 -5.86779 -0.737856 0
M  V30 457 H 39.3217 -0.712063 -0.247956 0
M  V30 458 H 41.9727 -1.83281 0.0897137 0
M  V30 459 H 40.3547 -3.41252 -2.00905 0
M  V30 460 H 41.5287 -4.56797 0.606079 0
M  V30 461 H 39.8437 -4.14565 0.390466 0
M  V30 462 H 42.4407 -4.82375 -2.30692 0
M  V30 463 H 42.7837 -3.15953 -2.71071 0
M  V30 464 H 43.3167 -3.81065 -1.14167 0
M  V30 465 H 40.0557 -6.55468 0.0649577 0
M  V30 466 H 39.5757 -5.81288 -1.47864 0
M  V30 467 H 41.2547 -6.35223 -1.22884 0
M  V30 468 N 41.3868 0.248026 -1.55636 0
M  V30 469 C 42.2968 1.32859 -1.93354 0
M  V30 470 C 43.3128 1.52719 -0.833838 0
M  V30 471 O 44.4888 1.66363 -1.13513 0
M  V30 472 C 41.5538 2.66337 -2.21958 0
M  V30 473 C 40.6148 2.55008 -3.45354 0
M  V30 474 C 39.8478 3.82121 -3.72584 0
M  V30 475 O 40.0708 4.83951 -3.01907 0
M  V30 476 O 39.0048 3.80822 -4.6611 0
M  V30 477 H 42.8308 1.03862 -2.85388 0
M  V30 478 H 40.4158 0.448686 -1.42503 0
M  V30 479 H 42.2978 3.45216 -2.4167 0
M  V30 480 H 40.9728 2.95068 -1.33103 0
M  V30 481 H 39.8798 1.7442 -3.30951 0
M  V30 482 H 41.2128 2.31222 -4.34508 0
M  V30 483 N 42.8649 1.48995 0.513639 0
M  V30 484 C 43.7969 1.60836 1.63293 0
M  V30 485 C 44.8099 0.491701 1.55197 0
M  V30 486 O 45.9989 0.763238 1.6136 0
M  V30 487 C 43.0989 1.53731 3.02027 0
M  V30 488 C 42.2719 2.80715 3.35437 0
M  V30 489 C 41.3309 2.66837 4.53525 0
M  V30 490 O 40.3569 3.40753 4.55934 0
M  V30 491 N 41.5589 1.77539 5.52684 0
M  V30 492 H 44.3239 2.57366 1.53566 0
M  V30 493 H 41.8849 1.45925 0.701259 0
M  V30 494 H 43.8769 1.42118 3.78926 0
M  V30 495 H 42.4469 0.651092 3.05744 0
M  V30 496 H 41.6669 3.06772 2.47557 0
M  V30 497 H 42.9549 3.64927 3.54551 0
M  V30 498 H 42.3529 1.16719 5.53528 0
M  V30 499 H 40.9099 1.71856 6.28736 0
M  V30 500 N 44.343 -0.763751 1.37857 0
M  V30 501 C 45.253 -1.90817 1.36478 0
M  V30 502 C 46.269 -1.71997 0.263248 0
M  V30 503 O 47.445 -1.95095 0.499979 0
M  V30 504 C 44.51 -3.2605 1.17864 0
M  V30 505 C 43.571 -3.57467 2.3773 0
M  V30 506 C 42.804 -4.86249 2.19995 0
M  V30 507 O 43.027 -5.57884 1.18836 0
M  V30 508 O 41.961 -5.16911 3.08361 0
M  V30 509 H 45.787 -1.94933 2.32884 0
M  V30 510 H 43.372 -0.907619 1.1867 0
M  V30 511 H 45.254 -4.06924 1.09504 0
M  V30 512 H 43.929 -3.22769 0.245372 0
M  V30 513 H 42.836 -2.76796 2.51664 0
M  V30 514 H 44.169 -3.655 3.29652 0
M  V30 515 N 45.8211 -1.22559 -0.990812 0
M  V30 516 C 46.7531 -0.955325 -2.08342 0
M  V30 517 C 47.7661 0.0668408 -1.62663 0
M  V30 518 O 48.9551 -0.167421 -1.77713 0
M  V30 519 C 46.0551 -0.415566 -3.36342 0
M  V30 520 C 45.2281 -1.49544 -4.11042 0
M  V30 521 C 44.2871 -0.962399 -5.17324 0
M  V30 522 O 43.3131 -1.64907 -5.44788 0
M  V30 523 N 44.5151 0.215134 -5.80101 0
M  V30 524 H 47.2801 -1.89596 -2.32106 0
M  V30 525 H 44.8411 -1.13276 -1.15673 0
M  V30 526 H 46.8331 -0.0442386 -4.04676 0
M  V30 527 H 45.4031 0.430232 -3.09625 0
M  V30 528 H 44.6231 -2.04 -3.37309 0
M  V30 529 H 45.9111 -2.22195 -4.57719 0
M  V30 530 H 45.3091 0.789779 -5.6016 0
M  V30 531 H 43.8661 0.527826 -6.49659 0
M  V30 532 N 47.2992 1.18797 -1.03562 0
M  V30 533 C 48.5452 1.8893 -0.737113 0
M  V30 534 C 48.8782 1.79837 0.732956 0
M  V30 535 O 48.1532 1.19525 1.5344 0
M  V30 536 C 48.4362 3.39607 -1.19745 0
M  V30 537 C 48.2892 3.57537 -2.72924 0
M  V30 538 C 49.6082 4.33069 -0.783526 0
M  V30 539 H 46.7272 0.686057 -0.269249 0
M  V30 540 H 49.3692 1.39797 -1.28673 0
M  V30 541 H 47.5192 3.81583 -0.729855 0
M  V30 542 H 49.1912 3.24688 -3.27682 0
M  V30 543 H 47.4342 3.00363 -3.12993 0
M  V30 544 H 48.1052 4.63238 -3.00191 0
M  V30 545 H 50.5812 3.98846 -1.18581 0
M  V30 546 H 49.4572 5.3707 -1.13343 0
M  V30 547 H 49.7182 4.40986 0.313681 0
M  V30 548 N 48.7773 0.814389 1.34928 0
M  V30 549 C 49.7403 0.235759 2.27984 0
M  V30 550 C 50.7403 -0.581412 1.49921 0
M  V30 551 O 51.9303 -0.398758 1.69575 0
M  V30 552 C 49.0623 -0.670433 3.34242 0
M  V30 553 H 50.2553 1.05659 2.80671 0
M  V30 554 H 47.8083 0.585614 1.44915 0
M  V30 555 H 48.5433 -1.51466 2.86755 0
M  V30 556 H 48.3283 -0.0860822 3.92005 0
M  V30 557 H 49.8183 -1.06935 4.03676 0
M  V30 558 N 50.2554 -1.46986 0.568584 0
M  V30 559 C 51.6664 -1.86188 0.138219 0
M  V30 560 C 52.0174 -1.47388 -1.29504 0
M  V30 561 O 51.1424 -0.88219 -1.97602 0
M  V30 562 C 51.7374 -3.3792 0.244065 0
M  V30 563 C 50.2964 -3.76171 -0.131335 0
M  V30 564 C 49.4434 -2.71027 0.586465 0
M  V30 565 H 52.3944 -1.38342 0.777645 0
M  V30 566 H 52.4154 -3.76729 -0.534351 0
M  V30 567 H 51.9274 -3.66128 1.28731 0
M  V30 568 H 50.0284 -3.5358 -1.17526 0
M  V30 569 H 50.1414 -4.78523 0.235146 0
M  V30 570 H 48.5054 -2.54684 0.0282722 0
M  V30 571 H 49.2884 -3.02077 1.63109 0
M  V30 572 N 51.7335 -0.305618 -1.54608 0
M  V30 573 C 52.9815 0.301701 -1.99835 0
M  V30 574 C 53.3025 1.54054 -1.19551 0
M  V30 575 O 52.5725 1.93702 -0.292658 0
M  V30 576 H 51.1525 0.114468 -0.738178 0
M  V30 577 H 53.8145 -0.418016 -1.90364 0
M  V30 578 H 52.9105 0.570548 -3.06841 0
M  V30 579 N 53.2116 1.57565 -0.0334293 0
M  V30 580 C 54.4396 1.9628 0.654347 0
M  V30 581 C 54.8546 0.910138 1.65414 0
M  V30 582 O 54.2116 -0.107595 1.82183 0
M  V30 583 C 54.2626 3.35067 1.35693 0
M  V30 584 O 53.9836 4.36296 0.397191 0
M  V30 585 C 55.4846 3.88439 2.13613 0
M  V30 586 H 52.7046 0.646369 0.180132 0
M  V30 587 H 55.2486 2.04282 -0.0944721 0
M  V30 588 H 53.4036 3.2827 2.05712 0
M  V30 589 H 53.8176 5.1678 0.896597 0
M  V30 590 H 55.2916 4.8788 2.58219 0
M  V30 591 H 55.7686 3.22914 2.97696 0
M  V30 592 H 56.3746 3.98516 1.48543 0
M  V30 593 N 54.6897 -0.239769 1.55765 0
M  V30 594 C 55.9367 -0.966801 1.7793 0
M  V30 595 C 56.2647 -1.85046 0.599015 0
M  V30 596 O 55.5197 -1.91197 -0.417395 0
M  V30 597 C 55.8187 -1.852 3.05672 0
M  V30 598 C 55.4847 -1.1231 4.36689 0
M  V30 599 C 54.1467 -0.921689 4.72291 0
M  V30 600 C 56.4987 -0.607019 5.17653 0
M  V30 601 C 53.8267 -0.191996 5.86386 0
M  V30 602 C 56.1787 0.109241 6.32506 0
M  V30 603 C 54.8427 0.322073 6.66723 0
M  V30 604 H 54.1127 -0.353778 0.651093 0
M  V30 605 H 56.7597 -0.23634 1.90036 0
M  V30 606 H 55.0647 -2.64975 2.8861 0
M  V30 607 H 56.7617 -2.41635 3.20021 0
M  V30 608 H 53.3517 -1.29004 4.08725 0
M  V30 609 H 57.5357 -0.750153 4.90598 0
M  V30 610 H 52.7917 -0.0166949 6.11398 0
M  V30 611 H 56.9657 0.516737 6.9448 0
M  V30 612 H 54.5927 0.88944 7.54979 0
M  V30 613 N 56.1678 -1.49265 -0.50573 0
M  V30 614 C 57.1308 -1.65075 -1.59006 0
M  V30 615 C 58.1308 -0.522768 -1.52065 0
M  V30 616 O 59.3208 -0.789117 -1.55302 0
M  V30 617 C 56.4528 -1.64369 -2.98656 0
M  V30 618 H 57.6458 -2.61784 -1.46319 0
M  V30 619 H 55.1988 -1.38226 -0.729616 0
M  V30 620 H 55.9338 -0.692272 -3.16825 0
M  V30 621 H 55.7188 -2.46282 -3.05103 0
M  V30 622 H 57.2088 -1.78674 -3.77446 0
M  V30 623 N 57.6459 0.756429 -1.3826 0
M  V30 624 C 58.5789 1.87802 -1.29637 0
M  V30 625 C 59.5569 1.61667 -0.173939 0
M  V30 626 O 60.7409 1.85208 -0.350775 0
M  V30 627 C 57.8679 3.23354 -1.00797 0
M  V30 628 C 56.9139 3.68379 -2.14939 0
M  V30 629 S 57.7469 3.8025 -3.77054 0
M  V30 630 C 58.9029 5.18626 -3.50396 0
M  V30 631 H 59.1359 1.94829 -2.24564 0
M  V30 632 H 56.6689 0.919117 -1.24063 0
M  V30 633 H 58.6269 4.01637 -0.848413 0
M  V30 634 H 57.2879 3.14008 -0.0759369 0
M  V30 635 H 56.4809 4.66693 -1.90299 0
M  V30 636 H 56.0829 2.97242 -2.26988 0
M  V30 637 H 58.3749 6.04289 -3.06334 0
M  V30 638 H 59.3179 5.48286 -4.48094 0
M  V30 639 H 59.7259 4.87289 -2.84973 0
M  V30 640 N 59.124 1.23083 0.984299 0
M  V30 641 C 60.37 1.07221 1.72845 0
M  V30 642 C 60.725 -0.387453 1.88458 0
M  V30 643 O 60.018 -1.28309 1.42293 0
M  V30 644 C 60.212 1.72673 3.1292 0
M  V30 645 C 60.041 3.24853 3.10967 0
M  V30 646 C 58.811 3.93998 3.16376 0
M  V30 647 C 61.009 4.21674 2.94441 0
M  V30 648 N 58.991 5.33192 3.04268 0
M  V30 649 C 60.362 5.47756 2.90453 0
M  V30 650 C 62.417 4.12457 2.78897 0
M  V30 651 C 61.12 6.6568 2.72512 0
M  V30 652 C 63.146 5.3004 2.62319 0
M  V30 653 C 62.508 6.55046 2.59026 0
M  V30 654 H 58.607 0.44685 0.641755 0
M  V30 655 H 61.191 1.55753 1.16829 0
M  V30 656 H 59.362 1.26679 3.67161 0
M  V30 657 H 61.094 1.49824 3.75945 0
M  V30 658 H 57.849 3.45052 3.24401 0
M  V30 659 H 58.273 6.06157 3.015 0
M  V30 660 H 62.915 3.16588 2.80235 0
M  V30 661 H 60.633 7.61689 2.69919 0
M  V30 662 H 64.219 5.24747 2.5126 0
M  V30 663 H 63.099 7.44498 2.46357 0
M  V30 664 N 60.6021 -1.18246 1.0419 0
M  V30 665 C 61.8481 -1.88793 0.75689 0
M  V30 666 C 62.2031 -1.78909 -0.707767 0
M  V30 667 O 61.4961 -1.1794 -1.50999 0
M  V30 668 C 61.6901 -3.38082 1.15911 0
M  V30 669 C 61.5191 -3.62496 2.66133 0
M  V30 670 C 60.2891 -3.7979 3.33298 0
M  V30 671 C 62.4871 -3.62976 3.64353 0
M  V30 672 N 60.4691 -3.91955 4.72487 0
M  V30 673 C 61.8401 -3.80869 4.89222 0
M  V30 674 C 63.8951 -3.46071 3.57965 0
M  V30 675 C 62.5981 -3.83608 6.08471 0
M  V30 676 C 64.6241 -3.50093 4.76643 0
M  V30 677 C 63.9861 -3.68484 6.00332 0
M  V30 678 H 60.0851 -0.709406 0.32904 0
M  V30 679 H 62.6691 -1.42022 1.33183 0
M  V30 680 H 60.8401 -3.83544 0.612238 0
M  V30 681 H 62.5721 -3.96202 0.824989 0
M  V30 682 H 59.3271 -3.79224 2.83701 0
M  V30 683 H 59.7511 -4.01857 5.44831 0
M  V30 684 H 64.3931 -3.30797 2.63311 0
M  V30 685 H 62.1111 -3.97669 7.0348 0
M  V30 686 H 65.6971 -3.38285 4.73344 0
M  V30 687 H 64.5771 -3.71488 6.90627 0
M  V30 688 N 62.0802 -0.821533 -1.34494 0
M  V30 689 C 63.0102 -0.257138 -2.3208 0
M  V30 690 C 63.9912 0.625645 -1.58176 0
M  V30 691 O 65.1762 0.552811 -1.86166 0
M  V30 692 C 62.3062 0.582958 -3.42372 0
M  V30 693 C 61.2602 -0.202571 -4.2752 0
M  V30 694 C 60.5862 0.760179 -5.29269 0
M  V30 695 C 61.8862 -1.40998 -5.02908 0
M  V30 696 H 63.5802 -1.07247 -2.79532 0
M  V30 697 H 61.1262 -0.517163 -1.34393 0
M  V30 698 H 63.0792 0.987972 -4.09655 0
M  V30 699 H 61.8032 1.43133 -2.93565 0
M  V30 700 H 60.4622 -0.588936 -3.61838 0
M  V30 701 H 60.1102 1.60447 -4.76724 0
M  V30 702 H 59.8102 0.238809 -5.87115 0
M  V30 703 H 61.3342 1.16308 -5.9942 0
M  V30 704 H 62.7482 -1.07905 -5.63054 0
M  V30 705 H 61.1452 -1.86689 -5.70322 0
M  V30 706 H 62.2152 -2.1889 -4.32684 0
M  V30 707 N 63.5583 1.46682 -0.576371 0
M  V30 708 C 64.8063 2.02013 -0.0594163 0
M  V30 709 C 65.1273 1.45101 1.30271 0
M  V30 710 O 64.3973 0.633317 1.8538 0
M  V30 711 H 62.9773 0.746759 -0.0189745 0
M  V30 712 H 65.6393 1.79862 -0.750717 0
M  V30 713 H 64.7353 3.12097 0.014345 0
M  V30 714 N 65.0364 0.313813 1.54444 0
M  V30 715 C 66.2764 -0.292389 2.02298 0
M  V30 716 C 66.6404 -1.50105 1.19719 0
M  V30 717 O 67.8414 -2.17947 1.5733 0
M  V30 718 C 66.1124 -0.627682 3.51845 0
M  V30 719 S 67.6714 -1.21493 4.21646 0
M  V30 720 H 64.4894 -0.0890247 0.705405 0
M  V30 721 H 67.0914 0.444668 1.90376 0
M  V30 722 H 65.7954 0.260265 4.09574 0
M  V30 723 H 65.3264 -1.39519 3.67829 0
M  V30 724 H 67.3414 -2.5022 4.28491 0
M  V30 725 N 66.5145 -1.57545 0.0417849 0
M  V30 726 C 67.7425 -1.96624 -0.643928 0
M  V30 727 C 68.1575 -0.918897 -1.64929 0
M  V30 728 O 67.5145 0.0979323 -1.82237 0
M  V30 729 C 67.5655 -3.35781 -1.33914 0
M  V30 730 O 67.2865 -4.365 -0.374048 0
M  V30 731 C 68.7875 -3.89566 -2.1155 0
M  V30 732 H 66.0075 -0.647316 -0.176702 0
M  V30 733 H 68.5515 -2.04229 0.105304 0
M  V30 734 H 66.7065 -3.29357 -2.03968 0
M  V30 735 H 67.1205 -5.17248 -0.869179 0
M  V30 736 H 68.5945 -4.89242 -2.55628 0
M  V30 737 H 69.0715 -3.24488 -2.9598 0
M  V30 738 H 69.6775 -3.99298 -1.46427 0
M  V30 739 N 67.9926 0.231505 -1.5589 0
M  V30 740 C 69.2406 0.955461 -1.78088 0
M  V30 741 C 69.5616 1.85262 -0.608533 0
M  V30 742 O 68.8316 1.92277 0.375035 0
M  V30 743 H 67.4116 0.355787 -0.656829 0
M  V30 744 H 70.0736 0.245751 -1.93344 0
M  V30 745 H 69.1696 1.56814 -2.69844 0
M  V30 746 N 69.4707 1.49531 0.497807 0
M  V30 747 C 70.7197 1.58426 1.24837 0
M  V30 748 C 71.0327 0.277643 1.93619 0
M  V30 749 O 72.2387 0.24517 2.70391 0
M  V30 750 C 70.6947 2.79538 2.26686 0
M  V30 751 C 70.3027 4.16971 1.63828 0
M  V30 752 C 72.0467 2.97764 3.0255 0
M  V30 753 C 69.9537 5.29301 2.63807 0
M  V30 754 H 68.8837 0.58989 0.469623 0
M  V30 755 H 71.5347 1.75923 0.521857 0
M  V30 756 H 69.9167 2.55542 3.02514 0
M  V30 757 H 71.0907 4.51116 0.939711 0
M  V30 758 H 69.4057 4.04129 1.00342 0
M  V30 759 H 72.0027 3.78856 3.77323 0
M  V30 760 H 72.3457 2.08448 3.60354 0
M  V30 761 H 72.8787 3.21815 2.33838 0
M  V30 762 H 69.6177 6.20687 2.10779 0
M  V30 763 H 69.1377 4.99606 3.31894 0
M  V30 764 H 70.8167 5.58768 3.2617 0
M  V30 765 N 70.9488 -0.749086 1.3866 0
M  V30 766 C 72.1948 -1.50959 1.36319 0
M  V30 767 C 72.5498 -1.92347 -0.0452451 0
M  V30 768 O 71.8428 -1.6289 -1.00884 0
M  V30 769 C 72.0368 -2.7712 2.25697 0
M  V30 770 C 71.8658 -2.48067 3.7509 0
M  V30 771 C 70.6358 -2.41062 4.44091 0
M  V30 772 C 72.8338 -2.14544 4.67414 0
M  V30 773 N 70.8158 -2.04331 5.78897 0
M  V30 774 C 72.1868 -1.88141 5.90765 0
M  V30 775 C 74.2418 -2.00892 4.55573 0
M  V30 776 C 72.9448 -1.49463 7.036 0
M  V30 777 C 74.9708 -1.63616 5.68317 0
M  V30 778 C 74.3328 -1.38088 6.90732 0
M  V30 779 H 70.4318 -0.551804 0.554108 0
M  V30 780 H 73.0158 -0.871886 1.74087 0
M  V30 781 H 71.1868 -3.38693 1.9011 0
M  V30 782 H 72.9188 -3.4321 2.1445 0
M  V30 783 H 69.6738 -2.57685 3.9736 0
M  V30 784 H 70.0978 -1.88598 6.502 0
M  V30 785 H 74.7398 -2.19301 3.61479 0
M  V30 786 H 72.4578 -1.29794 7.97608 0
M  V30 787 H 76.0438 -1.53678 5.61137 0
M  V30 788 H 74.9238 -1.09674 7.76493 0
M  V30 789 N 72.4269 -1.23603 -0.977757 0
M  V30 790 C 73.3569 -1.04401 -2.0886 0
M  V30 791 C 74.3379 0.0399052 -1.70053 0
M  V30 792 O 75.5229 -0.125246 -1.93796 0
M  V30 793 C 72.6529 -0.637269 -3.41403 0
M  V30 794 C 71.6069 -1.66883 -3.94124 0
M  V30 795 C 70.9329 -1.11745 -5.22893 0
M  V30 796 C 72.2329 -3.06247 -4.23096 0
M  V30 797 H 73.9269 -1.97316 -2.25182 0
M  V30 798 H 71.4729 -0.950096 -1.08209 0
M  V30 799 H 73.4259 -0.48998 -4.18542 0
M  V30 800 H 72.1499 0.327557 -3.24953 0
M  V30 801 H 70.8089 -1.80416 -3.19133 0
M  V30 802 H 70.4569 -0.143527 -5.02795 0
M  V30 803 H 70.1569 -1.80672 -5.59134 0
M  V30 804 H 71.6809 -0.982067 -6.02651 0
M  V30 805 H 73.0949 -2.96001 -4.90975 0
M  V30 806 H 71.4919 -3.72436 -4.70544 0
M  V30 807 H 72.5619 -3.55041 -3.30263 0
M  V30 808 N 73.905 1.17692 -1.04816 0
M  V30 809 C 74.852 2.21581 -0.645797 0
M  V30 810 C 75.822 1.62367 0.350159 0
M  V30 811 O 77.007 1.89254 0.242433 0
M  V30 812 C 74.147 3.45092 -0.0227568 0
M  V30 813 C 73.26 4.18613 -1.06709 0
M  V30 814 C 72.395 5.29602 -0.411767 0
M  V30 815 C 71.434 5.94904 -1.44067 0
M  V30 816 N 70.571 6.97414 -0.809781 0
M  V30 817 H 75.411 2.55353 -1.5362 0
M  V30 818 H 72.948 1.25438 -0.768364 0
M  V30 819 H 74.906 4.15679 0.35588 0
M  V30 820 H 73.536 3.11917 0.831122 0
M  V30 821 H 72.588 3.46779 -1.5636 0
M  V30 822 H 73.9 4.63293 -1.84827 0
M  V30 823 H 73.054 6.06696 0.0206623 0
M  V30 824 H 71.793 4.86045 0.401438 0
M  V30 825 H 70.798 5.16544 -1.88316 0
M  V30 826 H 72.023 6.40542 -2.25571 0
M  V30 827 H 69.969 6.55998 -0.0170186 0
M  V30 828 H 69.886 7.40386 -1.52856 0
M  V30 829 H 71.154 7.78463 -0.401999 0
M  V30 830 N 75.3831 0.828654 1.34056 0
M  V30 831 C 76.6081 0.431637 2.02859 0
M  V30 832 C 77.0331 -0.956339 1.61975 0
M  V30 833 O 76.3911 -1.62338 0.807228 0
M  V30 834 C 76.4391 0.548323 3.56407 0
M  V30 835 O 75.5431 -0.429556 4.10157 0
M  V30 836 H 74.8841 0.176886 0.640006 0
M  V30 837 H 77.4141 1.12066 1.71179 0
M  V30 838 H 77.4241 0.426196 4.05768 0
M  V30 839 H 76.0991 1.5606 3.8551 0
M  V30 840 H 74.6761 -0.265836 3.71951 0
M  V30 841 N 76.8612 -1.46375 0.584142 0
M  V30 842 C 77.7712 -2.34115 -0.150728 0
M  V30 843 C 78.7872 -1.49838 -0.884567 0
M  V30 844 O 79.9632 -1.82704 -0.847429 0
M  V30 845 C 77.0282 -3.2705 -1.15062 0
M  V30 846 C 76.0892 -4.27228 -0.421293 0
M  V30 847 C 75.3222 -5.15722 -1.37355 0
M  V30 848 O 75.5452 -5.07176 -2.61014 0
M  V30 849 O 74.4792 -5.95383 -0.883355 0
M  V30 850 H 78.3052 -2.98309 0.569708 0
M  V30 851 H 75.8902 -1.45373 0.344535 0
M  V30 852 H 77.7722 -3.84381 -1.72712 0
M  V30 853 H 76.4472 -2.65451 -1.8525 0
M  V30 854 H 75.3542 -3.7358 0.197085 0
M  V30 855 H 76.6872 -4.91616 0.239641 0
M  V30 856 N 78.3393 -0.321999 -1.54275 0
M  V30 857 C 79.5873 0.280489 -2.00144 0
M  V30 858 C 79.9083 1.52777 -1.21178 0
M  V30 859 O 79.1783 1.9338 -0.313187 0
M  V30 860 H 77.7583 0.106632 -0.73935 0
M  V30 861 H 80.4203 -0.438184 -1.8991 0
M  V30 862 H 79.5163 0.537972 -3.07428 0
M  V30 863 N 79.8174 1.5752 -0.0501392 0
M  V30 864 C 81.0654 1.9227 0.622642 0
M  V30 865 C 81.3864 0.929083 1.71444 0
M  V30 866 O 80.6564 -0.0262186 1.95882 0
M  V30 867 H 79.2364 0.709739 0.232981 0
M  V30 868 H 81.8984 1.94628 -0.102898 0
M  V30 869 H 80.9944 2.93479 1.06191 0
M  V30 870 N 81.2955 -0.223234 1.56011 0
M  V30 871 C 82.5235 -0.964812 1.83027 0
M  V30 872 C 82.9385 -1.78013 0.62904 0
M  V30 873 O 82.2955 -1.78008 -0.402414 0
M  V30 874 C 82.3465 -1.88373 3.08542 0
M  V30 875 O 82.0675 -1.10137 4.2403 0
M  V30 876 C 83.5685 -2.73934 3.48533 0
M  V30 877 H 80.7885 -0.282842 0.608475 0
M  V30 878 H 83.3325 -0.238971 2.03099 0
M  V30 879 H 81.4875 -2.56354 2.9045 0
M  V30 880 H 81.9015 -1.72501 4.95322 0
M  V30 881 H 83.3755 -3.34117 4.39397 0
M  V30 882 H 83.8525 -3.46244 2.70207 0
M  V30 883 H 84.4585 -2.11369 3.69057 0
M  V30 884 N 82.7736 -1.49793 -0.48987 0
M  V30 885 C 83.7216 -1.67783 -1.61095 0
M  V30 886 C 84.7156 -0.543683 -1.60438 0
M  V30 887 O 85.9216 -0.723647 -1.64813 0
M  V30 888 H 82.2966 -0.529255 -0.534222 0
M  V30 889 H 84.2676 -2.61861 -1.43078 0
M  V30 890 C 83.0166 -1.77191 -2.99164 0
M  V30 891 H 82.3396 -2.63841 -3.0038 0
M  V30 892 H 83.7796 -1.93809 -3.77113 0
M  V30 893 C 82.2386 -0.519203 -3.32875 0
M  V30 894 O 82.7686 0.350124 -4.00171 0
M  V30 895 N 80.9746 -0.378816 -2.8812 0
M  V30 896 H 80.5216 -1.08725 -2.33531 0
M  V30 897 H 80.4796 0.458239 -3.11043 0
M  V30 898 N 84.2517 0.741722 -1.39055 0
M  V30 899 C 85.4977 1.50336 -1.36113 0
M  V30 900 C 85.8307 1.94148 0.0450796 0
M  V30 901 O 85.1057 1.66301 1.00868 0
M  V30 902 C 85.3887 2.74773 -2.32749 0
M  V30 903 C 85.2417 2.37023 -3.82283 0
M  V30 904 C 86.5607 3.76846 -2.27322 0
M  V30 905 H 83.6797 0.545351 -0.495743 0
M  V30 906 H 86.3217 0.848624 -1.69995 0
M  V30 907 H 84.4717 3.30639 -2.03986 0
M  V30 908 H 86.1437 1.8684 -4.21768 0
M  V30 909 H 84.3867 1.69334 -3.99385 0
M  V30 910 H 85.0577 3.26104 -4.45376 0
M  V30 911 H 87.5337 3.30548 -2.5274 0
M  V30 912 H 86.4097 4.6159 -2.97028 0
M  V30 913 H 86.6707 4.23286 -1.27599 0
M  V30 914 N 85.7298 1.2412 0.971189 0
M  V30 915 C 86.9698 1.09066 1.7287 0
M  V30 916 C 87.3338 -0.364794 1.88503 0
M  V30 917 O 88.5348 -0.636748 2.61149 0
M  V30 918 C 86.8058 1.80629 3.08396 0
M  V30 919 S 88.3648 1.81263 3.99611 0
M  V30 920 H 85.1828 0.390145 0.594397 0
M  V30 921 H 87.7848 1.57397 1.15959 0
M  V30 922 H 86.4888 2.85647 2.94676 0
M  V30 923 H 86.0198 1.32617 3.70373 0
M  V30 924 H 88.0348 0.877804 4.88374 0
M  V30 925 N 87.2079 -1.17134 1.05439 0
M  V30 926 C 88.4539 -1.87733 0.767077 0
M  V30 927 C 88.7869 -1.8098 -0.704253 0
M  V30 928 O 88.0619 -1.21951 -1.5152 0
M  V30 929 C 88.3449 -3.37659 1.25133 0
M  V30 930 C 88.1979 -3.53149 2.78578 0
M  V30 931 C 89.5169 -4.31768 0.852324 0
M  V30 932 H 86.6359 -0.681687 0.280129 0
M  V30 933 H 89.2779 -1.37732 1.30881 0
M  V30 934 H 87.4279 -3.80373 0.790469 0
M  V30 935 H 89.0999 -3.19434 3.32806 0
M  V30 936 H 87.3429 -2.95345 3.17732 0
M  V30 937 H 88.0139 -4.58403 3.07523 0
M  V30 938 H 90.4899 -3.96909 1.24911 0
M  V30 939 H 89.3659 -5.35199 1.21873 0
M  V30 940 H 89.6269 -4.41429 -0.243485 0
M  V30 941 N 88.686 -0.835752 -1.33615 0
M  V30 942 C 89.963 -0.352017 -1.92406 0
M  V30 943 C 90.343 1.16225 -1.76224 0
M  V30 944 O 89.691 1.97526 -1.14873 0
M  V30 945 C 89.901 -0.795485 -3.39813 0
M  V30 946 C 91.249 -0.801703 -4.16963 0
M  V30 947 O 92.273 -0.738889 -3.48452 0
M  V30 948 O 91.132 -0.886607 -5.3926 0
M  V30 949 H 88.226 -0.0989641 -0.821057 0
M  V30 950 H 90.772 -0.921397 -1.42507 0
M  V30 951 H 89.544 -1.83795 -3.45449 0
M  V30 952 H 89.167 -0.202505 -3.97084 0
M  V30 953 N 90.1641 1.46063 -0.591896 0
M  V30 954 C 91.4111 2.02338 -0.0809991 0
M  V30 955 C 91.7391 1.46228 1.28249 0
M  V30 956 O 90.9941 0.620818 1.85592 0
M  V30 957 C 91.2931 3.57391 0.0249813 0
M  V30 958 C 90.9591 4.32583 -1.27211 0
M  V30 959 C 89.6211 4.52844 -1.62745 0
M  V30 960 C 91.9731 4.75687 -2.13005 0
M  V30 961 C 89.3011 5.13462 -2.83855 0
M  V30 962 C 91.6531 5.37644 -3.3335 0
M  V30 963 C 90.3171 5.5613 -3.69155 0
M  V30 964 H 89.5871 0.740407 -0.0296397 0
M  V30 965 H 92.2341 1.75321 -0.770374 0
M  V30 966 H 90.5391 3.83597 0.797537 0
M  V30 967 H 92.2361 3.98621 0.436184 0
M  V30 968 H 88.8261 4.17116 -0.985499 0
M  V30 969 H 93.0101 4.59782 -1.86855 0
M  V30 970 H 88.2661 5.25965 -3.11722 0
M  V30 971 H 92.4401 5.7 -4.00092 0
M  V30 972 H 90.0671 6.0287 -4.63089 0
M  V30 973 N 91.6422 0.330177 1.54103 0
M  V30 974 C 92.8882 -0.263542 2.01685 0
M  V30 975 C 93.2432 -1.49258 1.21408 0
M  V30 976 O 92.5362 -1.89395 0.289852 0
M  V30 977 C 92.7302 -0.643134 3.51566 0
M  V30 978 C 92.5592 0.547571 4.46354 0
M  V30 979 C 91.3292 1.04873 4.94297 0
M  V30 980 C 93.5272 1.40184 4.94826 0
M  V30 981 N 91.5092 2.20316 5.73005 0
M  V30 982 C 92.8802 2.40335 5.71524 0
M  V30 983 C 94.9352 1.42884 4.76958 0
M  V30 984 C 93.6382 3.42998 6.32254 0
M  V30 985 C 95.6642 2.44421 5.38528 0
M  V30 986 C 95.0262 3.43298 6.15082 0
M  V30 987 H 91.1252 -0.0601026 0.779687 0
M  V30 988 H 93.7092 0.466714 1.89023 0
M  V30 989 H 91.8802 -1.34251 3.6446 0
M  V30 990 H 93.6122 -1.21889 3.85908 0
M  V30 991 H 90.3672 0.618956 4.69538 0
M  V30 992 H 90.7912 2.78565 6.17034 0
M  V30 993 H 95.4332 0.678049 4.17328 0
M  V30 994 H 93.1512 4.1898 6.91 0
M  V30 995 H 96.7372 2.4732 5.26616 0
M  V30 996 H 95.6172 4.20579 6.61878 0
M  V30 997 N 93.1203 -1.57491 0.0584922 0
M  V30 998 C 94.3603 -1.94851 -0.617458 0
M  V30 999 C 94.7243 -0.937165 -1.67575 0
M  V30 1000 O 95.9253 -1.19795 -2.40629 0
M  V30 1001 C 94.1963 -3.36955 -1.19147 0
M  V30 1002 S 95.7553 -3.96277 -1.8844 0
M  V30 1003 H 92.5733 -0.681539 -0.202547 0
M  V30 1004 H 95.1753 -1.95073 0.129176 0
M  V30 1005 H 93.8793 -4.08355 -0.409215 0
M  V30 1006 H 93.4103 -3.40245 -1.97476 0
M  V30 1007 H 95.4253 -3.82099 -3.16568 0
M  V30 1008 N 94.5984 0.214957 -1.56127 0
M  V30 1009 C 95.8464 0.936518 -1.79091 0
M  V30 1010 C 96.1674 1.84606 -0.628148 0
M  V30 1011 O 95.4374 1.92664 0.35462 0
M  V30 1012 H 94.0174 0.3488 -0.660566 0
M  V30 1013 H 96.6794 0.22523 -1.93594 0
M  V30 1014 H 95.7754 1.53943 -2.71492 0
M  V30 1015 N 96.0765 1.50051 0.48192 0
M  V30 1016 C 97.3045 1.64237 1.25832 0
M  V30 1017 C 97.7195 0.321336 1.86045 0
M  V30 1018 O 97.0765 -0.695478 1.68729 0
M  V30 1019 C 97.1275 2.72548 2.37487 0
M  V30 1020 O 96.8485 3.99529 1.79745 0
M  V30 1021 C 98.3495 2.9761 3.28547 0
M  V30 1022 H 95.5695 0.55237 0.380957 0
M  V30 1023 H 98.1135 1.96207 0.576467 0
M  V30 1024 H 96.2685 2.43303 3.01467 0
M  V30 1025 H 96.6825 4.59342 2.5319 0
M  V30 1026 H 98.1565 3.77084 4.03127 0
M  V30 1027 H 98.6335 2.0826 3.86684 0
M  V30 1028 H 99.2395 3.28345 2.70314 0
M  V30 1029 N 97.5546 -0.734337 1.39446 0
M  V30 1030 C 98.8026 -1.49096 1.36436 0
M  V30 1031 C 99.1236 -1.94961 -0.0388255 0
M  V30 1032 O 98.3936 -1.69033 -0.990191 0
M  V30 1033 H 96.9736 -0.5531 0.502085 0
M  V30 1034 H 99.6356 -0.871725 1.74319 0
M  V30 1035 H 98.7316 -2.37276 2.02747 0
M  V30 1036 N 99.0327 -1.24633 -0.964593 0
M  V30 1037 C 99.9797 -1.04144 -2.05968 0
M  V30 1038 C 100.95 0.046262 -1.66036 0
M  V30 1039 O 102.135 -0.108972 -1.90489 0
M  V30 1040 C 99.2747 -0.65563 -3.38815 0
M  V30 1041 C 98.3877 -1.81714 -3.91923 0
M  V30 1042 C 97.5227 -1.37662 -5.13052 0
M  V30 1043 C 96.5617 -2.50788 -5.58365 0
M  V30 1044 N 95.6987 -2.07582 -6.70712 0
M  V30 1045 H 100.539 -1.9787 -2.22827 0
M  V30 1046 H 98.0757 -0.9855 -1.09208 0
M  V30 1047 H 100.034 -0.412954 -4.15151 0
M  V30 1048 H 98.6637 0.244627 -3.21872 0
M  V30 1049 H 97.7157 -2.1734 -3.12198 0
M  V30 1050 H 99.0277 -2.66705 -4.21509 0
M  V30 1051 H 98.1817 -1.093 -5.96773 0
M  V30 1052 H 96.9207 -0.497293 -4.85158 0
M  V30 1053 H 95.9257 -2.79906 -4.73215 0
M  V30 1054 H 97.1507 -3.39283 -5.88272 0
M  V30 1055 H 95.0967 -1.22051 -6.44546 0
M  V30 1056 H 95.0137 -2.86125 -6.99763 0
M  V30 1057 H 96.2817 -1.82369 -7.57867 0
M  V30 1058 N 100.511 1.16574 -1.06058 0
M  V30 1059 C 101.443 2.2045 -0.627239 0
M  V30 1060 C 102.456 1.59752 0.313534 0
M  V30 1061 O 103.645 1.78192 0.104896 0
M  V30 1062 C 100.745 3.3875 0.100974 0
M  V30 1063 C 99.9178 4.29008 -0.852687 0
M  V30 1064 C 98.9768 5.25944 -0.164152 0
M  V30 1065 O 98.0028 5.63535 -0.801047 0
M  V30 1066 N 99.2048 5.70075 1.09518 0
M  V30 1067 H 101.97 2.58249 -1.52077 0
M  V30 1068 H 99.5308 1.3156 -0.943594 0
M  V30 1069 H 101.523 4.00638 0.57194 0
M  V30 1070 H 100.093 2.99476 0.89628 0
M  V30 1071 H 99.3128 3.64419 -1.50308 0
M  V30 1072 H 100.601 4.86195 -1.49972 0
M  V30 1073 H 99.9988 5.41624 1.6328 0
M  V30 1074 H 98.5558 6.34067 1.51006 0
M  V30 1075 N 101.989 0.842826 1.3317 0
M  V30 1076 C 103.214 0.453129 2.02389 0
M  V30 1077 C 103.639 -0.939105 1.6298 0
M  V30 1078 O 102.997 -1.61472 0.8244 0
M  V30 1079 C 103.045 0.586094 3.55805 0
M  V30 1080 O 102.149 -0.386029 4.10589 0
M  V30 1081 H 101.49 0.183664 0.638094 0
M  V30 1082 H 104.02 1.13875 1.69981 0
M  V30 1083 H 104.03 0.469209 4.05293 0
M  V30 1084 H 102.705 1.6014 3.83833 0
M  V30 1085 H 101.282 -0.226371 3.72212 0
M  V30 1086 N 103.467 -1.45747 0.599634 0
M  V30 1087 C 104.417 -2.27538 -0.145107 0
M  V30 1088 C 105.401 -1.3686 -0.846055 0
M  V30 1089 O 106.593 -1.6091 -0.737357 0
M  V30 1090 C 103.722 -3.23569 -1.14708 0
M  V30 1091 C 102.808 -4.21734 -0.447383 0
M  V30 1092 N 103.199 -5.03257 0.506535 0
M  V30 1093 C 101.497 -4.40536 -0.695966 0
M  V30 1094 C 102.198 -5.74426 0.917068 0
M  V30 1095 N 101.174 -5.42966 0.26253 0
M  V30 1096 H 104.976 -2.87965 0.587672 0
M  V30 1097 H 102.49 -1.56803 0.422697 0
M  V30 1098 H 104.487 -3.8089 -1.69495 0
M  V30 1099 H 103.147 -2.64702 -1.8805 0
M  V30 1100 H 104.158 -5.10319 0.882899 0
M  V30 1101 H 100.835 -3.92802 -1.41467 0
M  V30 1102 H 102.225 -6.4995 1.70338 0
M  V30 1103 N 104.945 -0.338344 -1.53925 0
M  V30 1104 C 106.193 0.259245 -2.0043 0
M  V30 1105 C 106.514 1.51484 -1.22791 0
M  V30 1106 O 105.784 1.93037 -0.33368 0
M  V30 1107 H 104.364 0.0987845 -0.740439 0
M  V30 1108 H 107.026 -0.458302 -1.89435 0
M  V30 1109 H 106.122 0.505334 -3.07982 0
M  V30 1110 N 106.423 1.57458 -0.0668435 0
M  V30 1111 C 107.371 2.13639 0.919851 0
M  V30 1112 C 108.365 1.07204 1.31163 0
M  V30 1113 O 109.571 1.25591 1.28945 0
M  V30 1114 H 105.946 0.683048 0.314562 0
M  V30 1115 H 107.917 2.95415 0.421047 0
M  V30 1116 C 106.666 2.70892 2.17975 0
M  V30 1117 H 105.989 3.5246 1.88711 0
M  V30 1118 H 107.429 3.13803 2.85138 0
M  V30 1119 C 105.888 1.65414 2.93496 0
M  V30 1120 O 106.418 1.07619 3.87015 0
M  V30 1121 N 104.624 1.36564 2.56512 0
M  V30 1122 H 104.171 1.83751 1.80536 0
M  V30 1123 H 104.129 0.66223 3.07347 0
M  V30 1124 N 107.901 -0.206675 1.56239 0
M  V30 1125 C 109.312 -0.772383 1.69974 0
M  V30 1126 C 109.663 -1.84353 0.671436 0
M  V30 1127 O 108.788 -2.15695 -0.174491 0
M  V30 1128 C 109.383 -1.40779 3.08167 0
M  V30 1129 C 107.942 -1.92072 3.23706 0
M  V30 1130 C 107.089 -0.786347 2.65917 0
M  V30 1131 H 110.04 0.0182223 1.5869 0
M  V30 1132 H 110.061 -2.27696 3.04852 0
M  V30 1133 H 109.573 -0.627958 3.82986 0
M  V30 1134 H 107.674 -2.7281 2.53782 0
M  V30 1135 H 107.787 -2.09046 4.31087 0
M  V30 1136 H 106.151 -1.1976 2.24788 0
M  V30 1137 H 106.934 -0.0189416 3.43295 0
M  V30 1138 N 109.379 -1.50304 -0.473955 0
M  V30 1139 C 110.309 -1.71886 -1.58042 0
M  V30 1140 C 111.29 -0.567799 -1.60344 0
M  V30 1141 O 112.475 -0.806623 -1.76656 0
M  V30 1142 C 109.605 -1.81036 -2.96384 0
M  V30 1143 C 108.559 -2.962 -3.08949 0
M  V30 1144 C 107.885 -2.9049 -4.48909 0
M  V30 1145 C 109.185 -4.36752 -2.86434 0
M  V30 1146 H 110.879 -2.64527 -1.40234 0
M  V30 1147 H 108.425 -1.27295 -0.673201 0
M  V30 1148 H 110.378 -1.94719 -3.73714 0
M  V30 1149 H 109.102 -0.850147 -3.15341 0
M  V30 1150 H 107.761 -2.82164 -2.3405 0
M  V30 1151 H 107.409 -1.92321 -4.64781 0
M  V30 1152 H 107.109 -3.67802 -4.58253 0
M  V30 1153 H 108.633 -3.06218 -5.28264 0
M  V30 1154 H 110.047 -4.5133 -3.53517 0
M  V30 1155 H 108.444 -5.15493 -3.07225 0
M  V30 1156 H 109.514 -4.49321 -1.82316 0
M  V30 1157 N 110.857 0.726932 -1.39834 0
M  V30 1158 C 111.79 1.8501 -1.33592 0
M  V30 1159 C 112.768 1.61262 -0.208191 0
M  V30 1160 O 113.952 1.84422 -0.389981 0
M  V30 1161 C 111.079 3.21143 -1.07633 0
M  V30 1162 C 110.125 3.63737 -2.22705 0
M  V30 1163 S 110.958 3.72167 -3.85035 0
M  V30 1164 C 112.114 5.11077 -3.61318 0
M  V30 1165 H 112.347 1.90022 -2.28646 0
M  V30 1166 H 109.88 0.892595 -1.25985 0
M  V30 1167 H 111.838 3.99747 -0.933415 0
M  V30 1168 H 110.499 3.13776 -0.142526 0
M  V30 1169 H 109.692 4.62551 -2.00155 0
M  V30 1170 H 109.294 2.9236 -2.33242 0
M  V30 1171 H 111.586 5.97656 -3.19083 0
M  V30 1172 H 112.529 5.38658 -4.59623 0
M  V30 1173 H 112.937 4.81135 -2.95245 0
M  V30 1174 N 112.336 1.25143 0.95797 0
M  V30 1175 C 113.283 1.05235 2.05412 0
M  V30 1176 C 114.253 -0.0374561 1.66058 0
M  V30 1177 O 115.438 0.119073 1.90428 0
M  V30 1178 C 112.578 0.673589 3.38462 0
M  V30 1179 C 111.691 1.8379 3.90954 0
M  V30 1180 C 110.826 1.40381 5.12315 0
M  V30 1181 C 109.865 2.53746 5.57027 0
M  V30 1182 N 109.002 2.11136 6.69601 0
M  V30 1183 H 113.842 1.99048 2.21774 0
M  V30 1184 H 111.379 0.991277 1.08683 0
M  V30 1185 H 113.337 0.434964 4.14926 0
M  V30 1186 H 111.967 -0.227554 3.21997 0
M  V30 1187 H 111.019 2.18992 3.11041 0
M  V30 1188 H 112.331 2.68937 4.20089 0
M  V30 1189 H 111.485 1.12464 5.96185 0
M  V30 1190 H 110.224 0.523015 4.84887 0
M  V30 1191 H 109.229 2.82412 4.71724 0
M  V30 1192 H 110.454 3.42398 5.86464 0
M  V30 1193 H 108.4 1.25468 6.4389 0
M  V30 1194 H 108.317 2.89832 6.98236 0
M  V30 1195 H 109.585 1.86385 7.56889 0
M  V30 1196 N 113.814 -1.1601 1.06675 0
M  V30 1197 C 114.746 -2.20115 0.638921 0
M  V30 1198 C 115.759 -1.59916 -0.305057 0
M  V30 1199 O 116.948 -1.78245 -0.0954446 0
M  V30 1200 C 114.048 -3.38798 -0.0830083 0
M  V30 1201 C 113.221 -4.2855 0.875426 0
M  V30 1202 C 112.28 -5.25849 0.192042 0
M  V30 1203 O 111.306 -5.63102 0.830921 0
M  V30 1204 N 112.508 -5.70648 -1.06493 0
M  V30 1205 H 115.273 -2.57439 1.53444 0
M  V30 1206 H 112.834 -1.31057 0.950557 0
M  V30 1207 H 114.826 -4.00936 -0.550685 0
M  V30 1208 H 113.396 -2.99947 -0.880386 0
M  V30 1209 H 112.616 -3.63617 1.52238 0
M  V30 1210 H 113.904 -4.85393 1.52548 0
M  V30 1211 H 113.302 -5.42482 -1.60405 0
M  V30 1212 H 111.859 -6.34859 -1.47641 0
M  V30 1213 N 115.292 -0.849877 -1.32721 0
M  V30 1214 C 116.54 -0.450032 -1.97026 0
M  V30 1215 C 116.861 0.996604 -1.67609 0
M  V30 1216 O 116.131 1.6958 -0.980786 0
M  V30 1217 H 114.711 -0.163426 -0.728904 0
M  V30 1218 H 117.373 -1.08526 -1.6189 0
M  V30 1219 H 116.469 -0.591146 -3.0645 0
M  V30 1220 N 116.77 1.45427 -0.607355 0
M  V30 1221 C 117.72 2.27612 0.133038 0
M  V30 1222 C 118.704 1.37307 0.838785 0
M  V30 1223 O 119.896 1.61299 0.728813 0
M  V30 1224 C 117.025 3.24173 1.12991 0
M  V30 1225 C 116.111 4.21965 0.425011 0
M  V30 1226 N 116.502 5.02982 -0.533217 0
M  V30 1227 C 114.8 4.40899 0.672593 0
M  V30 1228 C 115.501 5.73931 -0.947518 0
M  V30 1229 N 114.477 5.42819 -0.291321 0
M  V30 1230 H 118.279 2.87649 -0.602935 0
M  V30 1231 H 115.793 1.56576 -0.431006 0
M  V30 1232 H 117.79 3.81783 1.67473 0
M  V30 1233 H 116.45 2.65696 1.86644 0
M  V30 1234 H 117.461 5.09843 -0.90995 0
M  V30 1235 H 114.138 3.93547 1.39382 0
M  V30 1236 H 115.528 6.49037 -1.73782 0
M  V30 1237 N 118.248 0.346503 1.53744 0
M  V30 1238 C 119.18 -0.543316 2.22667 0
M  V30 1239 C 120.193 -1.06159 1.23427 0
M  V30 1240 O 121.382 -0.971235 1.49764 0
M  V30 1241 C 118.482 -1.76076 2.89569 0
M  V30 1242 C 117.655 -1.37727 4.15151 0
M  V30 1243 C 116.714 -2.45471 4.65436 0
M  V30 1244 O 115.74 -2.08655 5.29577 0
M  V30 1245 N 116.942 -3.7677 4.41616 0
M  V30 1246 H 119.707 0.0469703 2.99663 0
M  V30 1247 H 117.268 0.170766 1.60997 0
M  V30 1248 H 119.26 -2.47593 3.20125 0
M  V30 1249 H 117.83 -2.25835 2.16142 0
M  V30 1250 H 117.05 -0.492746 3.91108 0
M  V30 1251 H 118.338 -1.09708 4.96832 0
M  V30 1252 H 117.736 -4.09467 3.90325 0
M  V30 1253 H 116.293 -4.44448 4.7677 0
M  V30 1254 N 119.726 -1.57421 0.075193 0
M  V30 1255 C 120.659 -2.08528 -0.926904 0
M  V30 1256 C 121.637 -0.991171 -1.28898 0
M  V30 1257 O 122.821 -1.26479 -1.39769 0
M  V30 1258 C 119.948 -2.54576 -2.23402 0
M  V30 1259 C 118.994 -3.75454 -2.02327 0
M  V30 1260 S 119.827 -5.19989 -1.27951 0
M  V30 1261 C 120.983 -5.69372 -2.59935 0
M  V30 1262 H 121.216 -2.932 -0.492048 0
M  V30 1263 H 118.749 -1.53785 -0.137651 0
M  V30 1264 H 120.707 -2.81767 -2.98526 0
M  V30 1265 H 119.368 -1.70166 -2.64012 0
M  V30 1266 H 118.561 -4.05675 -2.99071 0
M  V30 1267 H 118.163 -3.48654 -1.35339 0
M  V30 1268 H 120.455 -5.76424 -3.56008 0
M  V30 1269 H 121.398 -6.68207 -2.34319 0
M  V30 1270 H 121.806 -4.97205 -2.67296 0
M  V30 1271 N 121.204 0.198386 -1.56346 0
M  V30 1272 C 122.136 1.26987 -1.90806 0
M  V30 1273 C 123.149 1.41877 -0.798419 0
M  V30 1274 O 124.338 1.42362 -1.07682 0
M  V30 1275 C 121.438 2.64246 -2.12196 0
M  V30 1276 C 120.611 2.71007 -3.43328 0
M  V30 1277 C 119.67 3.89439 -3.5387 0
M  V30 1278 O 118.696 3.76695 -4.26719 0
M  V30 1279 N 119.898 5.04752 -2.86715 0
M  V30 1280 H 122.663 0.977433 -2.83313 0
M  V30 1281 H 120.224 0.388322 -1.57174 0
M  V30 1282 H 122.216 3.41896 -2.1654 0
M  V30 1283 H 120.786 2.85992 -1.26204 0
M  V30 1284 H 120.006 1.79657 -3.50881 0
M  V30 1285 H 121.294 2.72512 -4.29668 0
M  V30 1286 H 120.692 5.18004 -2.2735 0
M  V30 1287 H 119.249 5.8036 -2.96691 0
M  V30 1288 N 122.682 1.50554 0.465978 0
M  V30 1289 C 124.098 1.38093 0.800154 0
M  V30 1290 C 124.298 0.440988 1.96615 0
M  V30 1291 O 123.354 -0.114499 2.5224 0
M  V30 1292 C 124.667 2.79565 1.10742 0
M  V30 1293 C 126.215 2.88516 1.21357 0
M  V30 1294 C 126.69 4.30833 1.55393 0
M  V30 1295 N 128.181 4.33807 1.62375 0
M  V30 1296 C 128.916 5.40927 1.90225 0
M  V30 1297 N 128.412 6.58247 2.16062 0
M  V30 1298 N 130.205 5.28376 1.9177 0
M  V30 1299 H 122.356 2.10237 -0.302366 0
M  V30 1300 H 124.619 0.945203 -0.0727746 0
M  V30 1301 H 124.325 3.50208 0.323661 0
M  V30 1302 H 124.199 3.17125 2.04234 0
M  V30 1303 H 126.586 2.1809 1.98799 0
M  V30 1304 H 126.667 2.54492 0.258321 0
M  V30 1305 H 126.311 5.01799 0.784889 0
M  V30 1306 H 126.241 4.62347 2.52076 0
M  V30 1307 H 128.732 3.49212 1.44427 0
M  V30 1308 H 129.045 7.3569 2.36601 0
M  V30 1309 H 127.39 6.61413 2.13444 0
M  V30 1310 H 130.581 4.35715 1.71085 0
M  V30 1311 H 130.754 6.11944 2.13139 0
M  V30 1312 N 124.16 -0.719506 1.40217 0
M  V30 1313 C 125.093 -1.84298 1.34571 0
M  V30 1314 C 126.071 -1.61149 0.216741 0
M  V30 1315 O 127.255 -1.84212 0.399756 0
M  V30 1316 C 124.382 -3.20568 1.09335 0
M  V30 1317 C 123.428 -3.62551 2.24631 0
M  V30 1318 S 124.261 -3.7012 3.87004 0
M  V30 1319 C 125.417 -5.09154 3.64024 0
M  V30 1320 H 125.65 -1.88807 2.2965 0
M  V30 1321 H 123.183 -0.885901 1.26456 0
M  V30 1322 H 125.141 -3.99246 0.954602 0
M  V30 1323 H 123.802 -3.13696 0.159164 0
M  V30 1324 H 122.995 -4.61483 2.02606 0
M  V30 1325 H 122.597 -2.91119 2.34789 0
M  V30 1326 H 124.889 -5.95955 3.22248 0
M  V30 1327 H 125.832 -5.36213 4.62473 0
M  V30 1328 H 126.24 -4.79562 2.97793 0
M  V30 1329 N 125.638 -1.25649 -0.95132 0
M  V30 1330 C 126.601 -1.06399 -2.03007 0
M  V30 1331 C 127.601 -0.0156794 -1.60792 0
M  V30 1332 O 128.791 -0.25817 -1.72276 0
M  V30 1333 C 125.923 -0.616184 -3.35285 0
M  V30 1334 H 127.116 -2.02164 -2.21517 0
M  V30 1335 H 124.669 -1.08103 -1.12887 0
M  V30 1336 H 125.404 0.343917 -3.22471 0
M  V30 1337 H 125.189 -1.37301 -3.67275 0
M  V30 1338 H 126.679 -0.503032 -4.14559 0
M  V30 1339 N 127.117 1.15442 -1.07289 0
M  V30 1340 C 128.365 1.85845 -0.794096 0
M  V30 1341 C 128.686 1.82692 0.681809 0
M  V30 1342 O 127.956 1.26741 1.49377 0
M  V30 1343 H 126.536 0.688089 -0.290763 0
M  V30 1344 H 129.198 1.39947 -1.3565 0
M  V30 1345 H 128.294 2.91001 -1.12804 0
M  V30 1346 N 128.595 0.856903 1.32268 0
M  V30 1347 C 129.841 0.462069 1.97466 0
M  V30 1348 C 130.174 -0.980298 1.67642 0
M  V30 1349 O 129.449 -1.68824 0.965858 0
M  V30 1350 C 129.732 0.704336 3.53145 0
M  V30 1351 C 129.585 2.19529 3.9259 0
M  V30 1352 C 130.904 0.1622 4.39801 0
M  V30 1353 H 128.023 0.169357 0.717278 0
M  V30 1354 H 130.665 1.07574 1.56614 0
M  V30 1355 H 128.815 0.181999 3.88073 0
M  V30 1356 H 130.487 2.78387 3.67829 0
M  V30 1357 H 128.73 2.67292 3.41668 0
M  V30 1358 H 129.401 2.31549 5.01088 0
M  V30 1359 H 131.877 0.608905 4.11621 0
M  V30 1360 H 130.753 0.361265 5.4771 0
M  V30 1361 H 131.014 -0.935158 4.32096 0
M  V30 1362 N 130.073 -1.45103 0.615059 0
M  V30 1363 C 131.02 -2.30586 -0.0993978 0
M  V30 1364 C 131.99 -1.42544 -0.852669 0
M  V30 1365 O 133.175 -1.71465 -0.836917 0
M  V30 1366 C 130.315 -3.27572 -1.08583 0
M  V30 1367 C 129.428 -4.30717 -0.332656 0
M  V30 1368 C 128.563 -5.14807 -1.30947 0
M  V30 1369 C 127.602 -6.09673 -0.544538 0
M  V30 1370 N 126.739 -6.86517 -1.47101 0
M  V30 1371 H 131.579 -2.91144 0.635542 0
M  V30 1372 H 129.116 -1.4346 0.325206 0
M  V30 1373 H 131.074 -3.82276 -1.67095 0
M  V30 1374 H 129.704 -2.68751 -1.78809 0
M  V30 1375 H 128.756 -3.78615 0.368107 0
M  V30 1376 H 130.068 -4.98102 0.263842 0
M  V30 1377 H 129.222 -5.73948 -1.96643 0
M  V30 1378 H 127.961 -4.47458 -1.9399 0
M  V30 1379 H 126.966 -5.49656 0.126003 0
M  V30 1380 H 128.191 -6.79052 0.080947 0
M  V30 1381 H 126.137 -6.21851 -2.08895 0
M  V30 1382 H 126.054 -7.50281 -0.928137 0
M  V30 1383 H 127.322 -7.50194 -2.11731 0
M  V30 1384 N 131.551 -0.354651 -1.53558 0
M  V30 1385 C 132.498 0.496968 -2.25386 0
M  V30 1386 C 133.468 1.0865 -1.25636 0
M  V30 1387 O 134.653 1.12104 -1.54394 0
M  V30 1388 C 131.793 1.63637 -3.03837 0
M  V30 1389 C 130.906 1.07307 -4.18461 0
M  V30 1390 C 130.041 2.18068 -4.84376 0
M  V30 1391 C 129.08 1.59147 -5.91049 0
M  V30 1392 N 128.217 2.63695 -6.50699 0
M  V30 1393 H 133.057 -0.122075 -2.9775 0
M  V30 1394 H 130.594 -0.0720154 -1.46924 0
M  V30 1395 H 132.552 2.30734 -3.47589 0
M  V30 1396 H 131.182 2.22623 -2.33749 0
M  V30 1397 H 130.234 0.292708 -3.79272 0
M  V30 1398 H 131.546 0.602193 -4.95152 0
M  V30 1399 H 130.7 2.93007 -5.31255 0
M  V30 1400 H 129.439 2.68504 -4.07133 0
M  V30 1401 H 128.444 0.827175 -5.43542 0
M  V30 1402 H 129.669 1.09549 -6.70206 0
M  V30 1403 H 127.615 3.13365 -5.76315 0
M  V30 1404 H 127.532 2.21263 -7.22896 0
M  V30 1405 H 128.8 3.3837 -7.02229 0
M  V30 1406 N 133.029 1.57378 -0.0835403 0
M  V30 1407 C 133.959 2.1641 0.87686 0
M  V30 1408 C 134.94 1.09429 1.30228 0
M  V30 1409 O 136.125 1.37516 1.37124 0
M  V30 1410 C 133.255 2.73517 2.14022 0
M  V30 1411 C 132.209 3.85769 1.85381 0
M  V30 1412 C 131.535 4.29529 3.18448 0
M  V30 1413 C 132.835 5.09486 1.14984 0
M  V30 1414 H 134.529 2.96914 0.385059 0
M  V30 1415 H 132.075 1.42823 0.18377 0
M  V30 1416 H 134.028 3.13463 2.81636 0
M  V30 1417 H 132.752 1.90252 2.65465 0
M  V30 1418 H 131.411 3.46345 1.20169 0
M  V30 1419 H 131.059 3.43169 3.67755 0
M  V30 1420 H 130.759 5.05204 3.00071 0
M  V30 1421 H 132.283 4.72099 3.8724 0
M  V30 1422 H 133.697 5.46674 1.72687 0
M  V30 1423 H 132.094 5.90515 1.06826 0
M  V30 1424 H 133.164 4.84724 0.130749 0
M  V30 1425 N 134.507 -0.190092 1.56449 0
M  V30 1426 C 135.439 -1.25973 1.91477 0
M  V30 1427 C 136.452 -1.41452 0.805931 0
M  V30 1428 O 137.641 -1.41789 1.08435 0
M  V30 1429 C 134.741 -2.63117 2.13594 0
M  V30 1430 C 133.914 -2.69182 3.4476 0
M  V30 1431 C 132.973 -3.87557 3.5593 0
M  V30 1432 O 131.999 -3.74427 4.28711 0
M  V30 1433 N 133.201 -5.03224 2.89388 0
M  V30 1434 H 135.966 -0.962394 2.83828 0
M  V30 1435 H 133.527 -0.379981 1.57378 0
M  V30 1436 H 135.519 -3.40742 2.1835 0
M  V30 1437 H 134.089 -2.85319 1.27719 0
M  V30 1438 H 133.309 -1.77793 3.51828 0
M  V30 1439 H 134.597 -2.70229 4.31107 0
M  V30 1440 H 133.995 -5.16791 2.30094 0
M  V30 1441 H 132.552 -5.78778 2.99764 0
M  V30 1442 N 135.985 -1.50799 -0.457987 0
M  V30 1443 C 137.396 -1.55152 -1.0385 0
M  V30 1444 C 137.747 -0.362719 -1.92818 0
M  V30 1445 O 136.872 0.522915 -2.09987 0
M  V30 1446 C 137.467 -2.81173 -1.89017 0
M  V30 1447 C 136.026 -2.88164 -2.42154 0
M  V30 1448 C 135.173 -2.49591 -1.20829 0
M  V30 1449 H 138.124 -1.56874 -0.240068 0
M  V30 1450 H 138.145 -2.63769 -2.74238 0
M  V30 1451 H 137.657 -3.67677 -1.24238 0
M  V30 1452 H 135.758 -2.06042 -3.10447 0
M  V30 1453 H 135.871 -3.91356 -2.76364 0
M  V30 1454 H 134.235 -2.02322 -1.54719 0
M  V30 1455 H 135.018 -3.38418 -0.576927 0
M  V30 1456 N 137.463 0.71206 -1.40597 0
M  V30 1457 C 138.411 1.84746 -1.41321 0
M  V30 1458 C 139.405 1.66842 -0.293268 0
M  V30 1459 O 140.611 1.73904 -0.464481 0
M  V30 1460 H 136.986 0.608522 -0.441819 0
M  V30 1461 H 138.957 1.81252 -2.37045 0
M  V30 1462 C 137.706 3.22638 -1.29614 0
M  V30 1463 H 137.029 3.37023 -2.15071 0
M  V30 1464 H 138.469 4.02209 -1.3418 0
M  V30 1465 C 136.928 3.36899 -0.00673121 0
M  V30 1466 O 137.458 3.90186 0.954859 0
M  V30 1467 N 135.664 2.9053 0.0639327 0
M  V30 1468 H 135.211 2.47353 -0.719311 0
M  V30 1469 H 135.169 3.0045 0.926118 0
M  V30 1470 N 138.941 1.26152 0.944643 0
M  V30 1471 C 139.871 1.09902 2.06019 0
M  V30 1472 C 140.852 0.00519538 1.70099 0
M  V30 1473 O 142.037 0.176583 1.93396 0
M  V30 1474 C 139.167 0.727562 3.39594 0
M  V30 1475 C 138.121 1.77274 3.89561 0
M  V30 1476 C 137.447 1.25569 5.19747 0
M  V30 1477 C 138.747 3.17357 4.14827 0
M  V30 1478 H 140.441 2.03217 2.19871 0
M  V30 1479 H 137.987 0.978452 1.05652 0
M  V30 1480 H 139.94 0.600777 4.17095 0
M  V30 1481 H 138.664 -0.241287 3.25707 0
M  V30 1482 H 137.323 1.88814 3.14237 0
M  V30 1483 H 136.971 0.276783 5.02238 0
M  V30 1484 H 136.671 1.95433 5.54148 0
M  V30 1485 H 138.195 1.1415 5.99835 0
M  V30 1486 H 139.609 3.08914 4.82954 0
M  V30 1487 H 138.006 3.84781 4.60504 0
M  V30 1488 H 139.076 3.63673 3.20734 0
M  V30 1489 N 140.419 -1.14872 1.07899 0
M  V30 1490 C 141.835 -1.37776 0.805606 0
M  V30 1491 C 142.035 -1.92743 -0.587555 0
M  V30 1492 O 141.091 -2.13678 -1.34528 0
M  V30 1493 C 142.404 -2.34361 1.88402 0
M  V30 1494 C 143.952 -2.48012 1.90942 0
M  V30 1495 C 144.427 -3.47893 2.97883 0
M  V30 1496 N 145.918 -3.55433 2.97021 0
M  V30 1497 C 146.653 -4.32553 3.76412 0
M  V30 1498 N 146.149 -5.12959 4.65666 0
M  V30 1499 N 147.942 -4.27697 3.64735 0
M  V30 1500 H 140.093 -0.775365 1.97742 0
M  V30 1501 H 142.356 -0.403521 0.857831 0
M  V30 1502 H 142.062 -2.01098 2.88535 0
M  V30 1503 H 141.936 -3.34206 1.74889 0
M  V30 1504 H 144.323 -2.8057 0.914579 0
M  V30 1505 H 144.404 -1.48147 2.08534 0
M  V30 1506 H 144.048 -3.16069 3.97571 0
M  V30 1507 H 143.978 -4.47527 2.77538 0
M  V30 1508 H 146.469 -2.98048 2.32326 0
M  V30 1509 H 146.782 -5.69065 5.22862 0
M  V30 1510 H 145.127 -5.12245 4.69712 0
M  V30 1511 H 148.318 -3.63949 2.94378 0
M  V30 1512 H 148.491 -4.8755 4.26848 0
M  V30 1513 N 141.898 -0.863906 -1.31812 0
M  V30 1514 C 143.126 -0.486111 -2.01108 0
M  V30 1515 C 143.541 0.919755 -1.64882 0
M  V30 1516 O 142.898 1.60162 -0.874893 0
M  V30 1517 C 142.949 -0.626435 -3.56031 0
M  V30 1518 O 142.67 -1.97693 -3.90959 0
M  V30 1519 C 144.171 -0.248857 -4.42601 0
M  V30 1520 H 141.391 -0.190052 -0.643523 0
M  V30 1521 H 143.935 -1.1634 -1.68182 0
M  V30 1522 H 142.09 0.00322717 -3.874 0
M  V30 1523 H 142.504 -1.98034 -4.85678 0
M  V30 1524 H 143.978 -0.398016 -5.50563 0
M  V30 1525 H 144.455 0.811489 -4.31638 0
M  V30 1526 H 145.061 -0.853971 -4.16638 0
M  V30 1527 N 143.376 1.44774 -0.622745 0
M  V30 1528 C 144.604 2.06487 -0.130722 0
M  V30 1529 C 145.019 1.46476 1.19123 0
M  V30 1530 O 144.376 0.584502 1.72887 0
M  V30 1531 C 144.427 3.615 -0.000807207 0
M  V30 1532 O 144.148 4.19274 -1.27048 0
M  V30 1533 C 145.649 4.40229 0.520898 0
M  V30 1534 H 142.869 0.666704 -0.0758106 0
M  V30 1535 H 145.413 1.85779 -0.854774 0
M  V30 1536 H 143.568 3.81498 0.673643 0
M  V30 1537 H 143.982 5.12622 -1.1099 0
M  V30 1538 H 145.456 5.49144 0.560838 0
M  V30 1539 H 145.933 4.1108 1.54627 0
M  V30 1540 H 146.539 4.25131 -0.120018 0
M  V30 1541 N 144.854 0.36279 1.53368 0
M  V30 1542 C 146.265 -0.117022 1.86333 0
M  V30 1543 C 146.616 -1.48397 1.28347 0
M  V30 1544 O 145.741 -2.07787 0.604428 0
M  V30 1545 C 146.336 -0.21912 3.38091 0
M  V30 1546 C 144.895 -0.643184 3.70864 0
M  V30 1547 C 144.042 0.211318 2.76494 0
M  V30 1548 H 146.993 0.581687 1.47655 0
M  V30 1549 H 147.014 -1.04319 3.6592 0
M  V30 1550 H 146.526 0.775902 3.80265 0
M  V30 1551 H 144.627 -1.64654 3.34245 0
M  V30 1552 H 144.74 -0.41973 4.77258 0
M  V30 1553 H 143.104 -0.319367 2.5269 0
M  V30 1554 H 143.887 1.20383 3.21501 0
M  V30 1555 N 146.332 -1.57332 0.0918853 0
M  V30 1556 C 147.579 -1.94236 -0.572577 0
M  V30 1557 C 147.907 -0.973398 -1.6839 0
M  V30 1558 O 147.162 0.00756912 -1.95699 0
M  V30 1559 C 147.461 -3.37689 -1.17051 0
M  V30 1560 C 147.127 -4.50527 -0.183304 0
M  V30 1561 C 145.789 -4.81119 0.0882276 0
M  V30 1562 C 148.141 -5.18883 0.49095 0
M  V30 1563 C 145.469 -5.77395 1.04076 0
M  V30 1564 C 147.821 -6.1618 1.43193 0
M  V30 1565 C 146.485 -6.45179 1.71173 0
M  V30 1566 H 145.755 -0.710762 -0.209521 0
M  V30 1567 H 148.402 -1.9077 0.167036 0
M  V30 1568 H 146.707 -3.37718 -1.9863 0
M  V30 1569 H 148.404 -3.63543 -1.69227 0
M  V30 1570 H 144.994 -4.26681 -0.405124 0
M  V30 1571 H 149.178 -4.95427 0.294312 0
M  V30 1572 H 144.434 -5.98179 1.26457 0
M  V30 1573 H 148.608 -6.68243 1.96023 0
M  V30 1574 H 146.235 -7.1959 2.4514 0
M  V30 1575 N 147.81 0.181792 -1.56548 0
M  V30 1576 C 149.056 0.901431 -1.81665 0
M  V30 1577 C 149.389 1.82347 -0.668075 0
M  V30 1578 O 148.664 1.91669 0.330615 0
M  V30 1579 C 148.947 1.70618 -3.17115 0
M  V30 1580 C 148.8 0.807964 -4.42484 0
M  V30 1581 C 150.119 2.67605 -3.49393 0
M  V30 1582 H 147.238 0.32627 -0.660846 0
M  V30 1583 H 149.88 0.168134 -1.89255 0
M  V30 1584 H 148.03 2.33133 -3.10775 0
M  V30 1585 H 149.702 0.19649 -4.60881 0
M  V30 1586 H 147.945 0.115411 -4.33646 0
M  V30 1587 H 148.616 1.40632 -5.33785 0
M  V30 1588 H 151.092 2.15218 -3.56118 0
M  V30 1589 H 149.968 3.20985 -4.45264 0
M  V30 1590 H 150.229 3.47298 -2.73563 0
M  V30 1591 N 149.288 1.51039 0.449983 0
M  V30 1592 C 150.218 1.74379 1.55288 0
M  V30 1593 C 151.199 0.593236 1.5942 0
M  V30 1594 O 152.384 0.834625 1.7535 0
M  V30 1595 C 149.514 1.85728 2.93466 0
M  V30 1596 C 148.468 3.01078 3.04197 0
M  V30 1597 C 147.794 2.97595 4.44231 0
M  V30 1598 C 149.094 4.41254 2.7945 0
M  V30 1599 H 150.788 2.66725 1.36008 0
M  V30 1600 H 148.334 1.2835 0.652864 0
M  V30 1601 H 150.287 2.0064 3.70569 0
M  V30 1602 H 149.011 0.900207 3.13949 0
M  V30 1603 H 147.67 2.85851 2.29531 0
M  V30 1604 H 147.318 1.99691 4.61663 0
M  V30 1605 H 147.018 3.75046 4.52343 0
M  V30 1606 H 148.542 3.14583 5.23326 0
M  V30 1607 H 149.956 4.56897 3.46292 0
M  V30 1608 H 148.353 5.20315 2.98985 0
M  V30 1609 H 149.423 4.52164 1.75144 0
M  V30 1610 N 150.766 -0.704594 1.40972 0
M  V30 1611 C 152.043 -1.45847 1.30338 0
M  V30 1612 C 152.423 -2.10973 -0.0732344 0
M  V30 1613 O 151.771 -2.00997 -1.08685 0
M  V30 1614 C 151.981 -2.48525 2.45023 0
M  V30 1615 C 153.329 -3.1404 2.8577 0
M  V30 1616 O 154.353 -2.58848 2.44696 0
M  V30 1617 O 153.212 -4.13981 3.56766 0
M  V30 1618 H 150.306 -0.649092 0.512454 0
M  V30 1619 H 152.852 -0.735836 1.52917 0
M  V30 1620 H 151.624 -1.98994 3.36923 0
M  V30 1621 H 151.247 -3.2831 2.24272 0
M  V30 1622 N 152.244 -1.26651 -0.937939 0
M  V30 1623 C 153.655 -1.1125 -1.49934 0
M  V30 1624 C 154.006 0.306077 -1.93798 0
M  V30 1625 O 153.131 1.19792 -1.80219 0
M  V30 1626 C 153.726 -2.01339 -2.72485 0
M  V30 1627 C 152.285 -1.90074 -3.24883 0
M  V30 1628 C 151.432 -1.94498 -1.97651 0
M  V30 1629 H 154.383 -1.39693 -0.753091 0
M  V30 1630 H 154.404 -1.56319 -3.46907 0
M  V30 1631 H 153.916 -3.04577 -2.40529 0
M  V30 1632 H 152.017 -0.897827 -3.61621 0
M  V30 1633 H 152.13 -2.75778 -3.9177 0
M  V30 1634 H 150.494 -1.38591 -2.13693 0
M  V30 1635 H 151.277 -2.99372 -1.68022 0
M  V30 1636 N 153.722 1.14298 -1.08507 0
M  V30 1637 C 154.969 1.85359 -0.815373 0
M  V30 1638 C 155.297 1.83001 0.658865 0
M  V30 1639 O 154.552 1.25655 1.50031 0
M  V30 1640 C 154.851 3.33547 -1.28379 0
M  V30 1641 C 154.517 3.56093 -2.76602 0
M  V30 1642 C 153.179 3.61955 -3.17084 0
M  V30 1643 C 155.531 3.64834 -3.72217 0
M  V30 1644 C 152.859 3.74082 -4.51973 0
M  V30 1645 C 155.211 3.78487 -5.06883 0
M  V30 1646 C 153.875 3.82598 -5.46969 0
M  V30 1647 H 153.145 0.678276 -0.298366 0
M  V30 1648 H 155.792 1.35002 -1.35819 0
M  V30 1649 H 154.097 3.86191 -0.660593 0
M  V30 1650 H 155.794 3.86959 -1.05186 0
M  V30 1651 H 152.384 3.52179 -2.4427 0
M  V30 1652 H 156.568 3.59595 -3.42061 0
M  V30 1653 H 151.824 3.75527 -4.82483 0
M  V30 1654 H 155.998 3.84193 -5.80834 0
M  V30 1655 H 153.625 3.91747 -6.51489 0
M  V30 1656 N 155.201 0.870884 1.31352 0
M  V30 1657 C 156.164 0.332243 2.26779 0
M  V30 1658 C 157.164 -0.517302 1.52252 0
M  V30 1659 O 158.354 -0.326477 1.71113 0
M  V30 1660 C 155.486 -0.528066 3.36785 0
M  V30 1661 H 156.679 1.17469 2.75937 0
M  V30 1662 H 154.232 0.64655 1.423 0
M  V30 1663 H 154.967 -1.39167 2.92922 0
M  V30 1664 H 154.752 0.0802582 3.92018 0
M  V30 1665 H 156.242 -0.897179 4.07849 0
M  V30 1666 N 156.679 -1.44442 0.630414 0
M  V30 1667 C 157.928 -2.01267 0.132073 0
M  V30 1668 C 158.241 -1.50172 -1.25331 0
M  V30 1669 O 159.447 -1.9912 -1.84562 0
M  V30 1670 C 157.903 -3.59422 0.185362 0
M  V30 1671 C 157.511 -4.19514 1.57201 0
M  V30 1672 C 159.255 -4.23724 -0.256553 0
M  V30 1673 C 157.162 -5.69891 1.58045 0
M  V30 1674 H 156.092 -0.752619 0.0456092 0
M  V30 1675 H 158.743 -1.65666 0.789106 0
M  V30 1676 H 157.125 -3.92318 -0.538759 0
M  V30 1677 H 158.299 -3.98156 2.31966 0
M  V30 1678 H 156.614 -3.67496 1.95795 0
M  V30 1679 H 159.211 -5.34019 -0.269767 0
M  V30 1680 H 159.554 -3.96013 -1.28372 0
M  V30 1681 H 160.087 -3.95629 0.41505 0
M  V30 1682 H 156.826 -6.02336 2.58597 0
M  V30 1683 H 156.346 -5.93373 0.875725 0
M  V30 1684 H 158.025 -6.33515 1.31408 0
M  V30 1685 N 158.157 -0.370918 -1.53173 0
M  V30 1686 C 159.573 -0.0200818 -1.59587 0
M  V30 1687 C 159.773 1.46279 -1.38581 0
M  V30 1688 O 158.829 2.22506 -1.19363 0
M  V30 1689 C 160.142 -0.4808 -2.96831 0
M  V30 1690 C 161.69 -0.435477 -3.09956 0
M  V30 1691 C 162.165 -0.872092 -4.4962 0
M  V30 1692 N 163.656 -0.827364 -4.55751 0
M  V30 1693 C 164.391 -1.13683 -5.62018 0
M  V30 1694 N 163.887 -1.51584 -6.76014 0
M  V30 1695 N 165.68 -1.05927 -5.52029 0
M  V30 1696 H 157.831 -1.33652 -1.65079 0
M  V30 1697 H 160.094 -0.546634 -0.774529 0
M  V30 1698 H 159.8 -1.51577 -3.1736 0
M  V30 1699 H 159.674 0.129796 -3.76977 0
M  V30 1700 H 162.061 0.590371 -2.89134 0
M  V30 1701 H 162.142 -1.08164 -2.31806 0
M  V30 1702 H 161.786 -1.89608 -4.71181 0
M  V30 1703 H 161.716 -0.203127 -5.26208 0
M  V30 1704 H 164.207 -0.548216 -3.73902 0
M  V30 1705 H 164.52 -1.73609 -7.53047 0
M  V30 1706 H 162.865 -1.55454 -6.77391 0
M  V30 1707 H 166.056 -0.762321 -4.61851 0
M  V30 1708 H 166.229 -1.30378 -6.34749 0
M  V30 1709 N 159.635 1.57281 -0.100228 0
M  V30 1710 C 160.567 2.11342 0.886972 0
M  V30 1711 C 161.58 1.05182 1.24261 0
M  V30 1712 O 162.769 1.32613 1.19483 0
M  V30 1713 C 159.869 2.5825 2.19454 0
M  V30 1714 C 159.042 3.88302 2.01346 0
M  V30 1715 C 158.101 4.21004 3.15661 0
M  V30 1716 O 157.127 4.9014 2.89398 0
M  V30 1717 N 158.329 3.76818 4.41575 0
M  V30 1718 H 161.094 2.96668 0.425216 0
M  V30 1719 H 158.655 1.61678 0.0847334 0
M  V30 1720 H 160.647 2.7717 2.94888 0
M  V30 1721 H 159.217 1.77907 2.57037 0
M  V30 1722 H 158.437 3.7848 1.10212 0
M  V30 1723 H 159.725 4.73375 1.8653 0
M  V30 1724 H 159.123 3.2102 4.65792 0
M  V30 1725 H 157.68 4.00882 5.13942 0
M  V30 1726 N 161.113 -0.173488 1.56642 0
M  V30 1727 C 162.362 -0.888758 1.81063 0
M  V30 1728 C 162.675 -1.83506 0.67712 0
M  V30 1729 O 163.881 -2.59254 0.806206 0
M  V30 1730 C 162.337 -1.63091 3.20826 0
M  V30 1731 C 161.945 -0.728357 4.4204 0
M  V30 1732 C 163.689 -2.33454 3.54541 0
M  V30 1733 C 161.596 -1.47062 5.72823 0
M  V30 1734 H 160.526 -0.335618 0.675186 0
M  V30 1735 H 163.177 -0.141712 1.82952 0
M  V30 1736 H 161.559 -2.42263 3.13248 0
M  V30 1737 H 162.733 0.0262449 4.60793 0
M  V30 1738 H 161.048 -0.134492 4.16183 0
M  V30 1739 H 163.645 -2.89578 4.49498 0
M  V30 1740 H 163.988 -3.08687 2.79317 0
M  V30 1741 H 164.521 -1.61227 3.63663 0
M  V30 1742 H 161.26 -0.760658 6.51072 0
M  V30 1743 H 160.78 -2.1986 5.58052 0
M  V30 1744 H 162.459 -2.01868 6.14702 0
M  V30 1745 N 162.591 -1.51276 -0.441967 0
M  V30 1746 C 163.868 -1.54252 -1.20273 0
M  V30 1747 C 164.248 -0.30408 -2.08898 0
M  V30 1748 O 163.596 0.711084 -2.17154 0
M  V30 1749 C 163.806 -2.85406 -2.00859 0
M  V30 1750 C 165.154 -3.37181 -2.58059 0
M  V30 1751 O 166.178 -2.86925 -2.11074 0
M  V30 1752 O 165.037 -4.24858 -3.43741 0
M  V30 1753 H 162.131 -0.619969 -0.547328 0
M  V30 1754 H 164.677 -1.63586 -0.451413 0
M  V30 1755 H 163.449 -3.67003 -1.35736 0
M  V30 1756 H 163.072 -2.79213 -2.83065 0
M  V30 1757 N 164.069 0.697108 -1.41344 0
M  V30 1758 C 165.032 1.79281 -1.42797 0
M  V30 1759 C 166.032 1.57607 -0.318837 0
M  V30 1760 O 167.222 1.64309 -0.578642 0
M  V30 1761 C 164.354 3.17632 -1.23785 0
M  V30 1762 H 165.547 1.79385 -2.40335 0
M  V30 1763 H 163.1 0.904582 -1.27464 0
M  V30 1764 H 163.835 3.23167 -0.270814 0
M  V30 1765 H 163.62 3.34765 -2.04144 0
M  V30 1766 H 165.11 3.97617 -1.27633 0
M  V30 1767 N 165.547 1.27147 0.931209 0
M  V30 1768 C 166.793 1.13446 1.68101 0
M  V30 1769 C 167.126 -0.319628 1.91552 0
M  V30 1770 O 166.401 -1.23407 1.50336 0
M  V30 1771 C 166.684 1.91482 3.0497 0
M  V30 1772 C 166.537 3.44855 2.88782 0
M  V30 1773 C 167.856 1.71651 4.05246 0
M  V30 1774 H 164.975 0.413498 0.610072 0
M  V30 1775 H 167.617 1.56261 1.08086 0
M  V30 1776 H 165.767 1.55095 3.56199 0
M  V30 1777 H 167.439 3.9105 2.44698 0
M  V30 1778 H 165.682 3.71373 2.24198 0
M  V30 1779 H 166.353 3.94694 3.85902 0
M  V30 1780 H 168.829 2.0337 3.63015 0
M  V30 1781 H 167.705 2.28651 4.99009 0
M  V30 1782 H 167.966 0.663555 4.37092 0
M  V30 1783 N 167.025 -1.13721 1.09112 0
M  V30 1784 C 167.955 -2.21148 0.749385 0
M  V30 1785 C 168.936 -1.6792 -0.271475 0
M  V30 1786 O 170.121 -1.93693 -0.140251 0
M  V30 1787 C 167.251 -3.46905 0.165659 0
M  V30 1788 C 166.205 -4.13203 1.11567 0
M  V30 1789 C 165.531 -5.33248 0.393809 0
M  V30 1790 C 166.831 -4.60912 2.45678 0
M  V30 1791 H 168.525 -2.4999 1.64758 0
M  V30 1792 H 166.071 -1.20156 0.793626 0
M  V30 1793 H 168.024 -4.21313 -0.085466 0
M  V30 1794 H 166.748 -3.17449 -0.767714 0
M  V30 1795 H 165.407 -3.40758 1.35202 0
M  V30 1796 H 165.055 -5.00054 -0.543599 0
M  V30 1797 H 164.755 -5.78552 1.02721 0
M  V30 1798 H 166.279 -6.10413 0.150908 0
M  V30 1799 H 167.693 -5.26759 2.26269 0
M  V30 1800 H 166.09 -5.16944 3.04776 0
M  V30 1801 H 167.16 -3.75603 3.06677 0
M  V30 1802 N 168.503 -0.877838 -1.30888 0
M  V30 1803 C 169.466 -0.344265 -2.266 0
M  V30 1804 C 170.466 0.50922 -1.52524 0
M  V30 1805 O 171.656 0.317398 -1.71284 0
M  V30 1806 C 168.788 0.510198 -3.37061 0
M  V30 1807 H 169.981 -1.1893 -2.7531 0
M  V30 1808 H 167.534 -0.654088 -1.41956 0
M  V30 1809 H 168.269 1.37612 -2.93655 0
M  V30 1810 H 168.054 -0.101047 -3.9197 0
M  V30 1811 H 169.544 0.875537 -4.08319 0
M  V30 1812 N 169.982 1.44106 -0.638065 0
M  V30 1813 C 171.21 2.06336 -0.152615 0
M  V30 1814 C 171.625 1.47731 1.17563 0
M  V30 1815 O 170.982 0.602806 1.72257 0
M  V30 1816 C 171.033 3.61479 -0.0391491 0
M  V30 1817 O 170.754 4.17903 -1.31487 0
M  V30 1818 C 172.255 4.40757 0.474176 0
M  V30 1819 H 169.475 0.665862 -0.0828776 0
M  V30 1820 H 172.019 1.84862 -0.87443 0
M  V30 1821 H 170.174 3.82191 0.633142 0
M  V30 1822 H 170.588 5.11416 -1.16421 0
M  V30 1823 H 172.062 5.49707 0.502562 0
M  V30 1824 H 172.539 4.12697 1.50258 0
M  V30 1825 H 173.145 4.24979 -0.165102 0
M  V30 1826 N 171.46 0.379036 1.52974 0
M  V30 1827 C 172.41 -0.477772 2.22938 0
M  V30 1828 C 173.394 -1.03792 1.22948 0
M  V30 1829 O 174.586 -0.965725 1.48333 0
M  V30 1830 C 171.715 -1.60994 3.03209 0
M  V30 1831 C 170.801 -1.06203 4.10587 0
M  V30 1832 N 171.192 -0.238214 5.05239 0
M  V30 1833 C 169.49 -1.33554 4.25534 0
M  V30 1834 C 170.191 0.0633235 5.81666 0
M  V30 1835 N 169.167 -0.537901 5.40932 0
M  V30 1836 H 172.969 0.158295 2.93473 0
M  V30 1837 H 170.483 0.187778 1.61311 0
M  V30 1838 H 172.48 -2.23607 3.5186 0
M  V30 1839 H 171.14 -2.24893 2.34207 0
M  V30 1840 H 172.151 0.123695 5.17752 0
M  V30 1841 H 168.828 -1.97632 3.6776 0
M  V30 1842 H 170.218 0.730161 6.67921 0
M  V30 1843 N 172.938 -1.57226 0.108567 0
M  V30 1844 C 174.215 -1.86333 -0.594939 0
M  V30 1845 C 174.595 -1.00788 -1.85486 0
M  V30 1846 O 173.943 -0.0839293 -2.28346 0
M  V30 1847 C 174.153 -3.37265 -0.897405 0
M  V30 1848 C 175.501 -4.05629 -1.25501 0
M  V30 1849 O 176.525 -3.42224 -0.987998 0
M  V30 1850 O 175.384 -5.17531 -1.75567 0
M  V30 1851 H 172.478 -0.771018 -0.2991 0
M  V30 1852 H 175.024 -1.69102 0.142283 0
M  V30 1853 H 173.796 -3.913 -0.00413806 0
M  V30 1854 H 173.419 -3.59889 -1.69014 0
M  V30 1855 N 174.416 0.165178 -1.56732 0
M  V30 1856 C 175.366 1.20917 -1.93295 0
M  V30 1857 C 176.35 1.39488 -0.801985 0
M  V30 1858 O 177.542 1.41356 -1.06525 0
M  V30 1859 C 174.671 2.54718 -2.3016 0
M  V30 1860 C 173.757 2.39815 -3.49785 0
M  V30 1861 N 174.148 1.94637 -4.66851 0
M  V30 1862 C 172.446 2.70623 -3.54513 0
M  V30 1863 C 173.147 1.92344 -5.4898 0
M  V30 1864 N 172.123 2.34978 -4.9019 0
M  V30 1865 H 175.925 0.851675 -2.81289 0
M  V30 1866 H 173.439 0.373399 -1.58049 0
M  V30 1867 H 175.436 3.30165 -2.54552 0
M  V30 1868 H 174.096 2.91265 -1.43508 0
M  V30 1869 H 175.107 1.6488 -4.90953 0
M  V30 1870 H 171.784 3.11167 -2.78354 0
M  V30 1871 H 173.174 1.5906 -6.52801 0
M  V30 1872 N 175.894 1.51508 0.433938 0
M  V30 1873 C 176.842 1.73646 1.54757 0
M  V30 1874 C 177.836 0.602854 1.5831 0
M  V30 1875 O 179.042 0.784318 1.62014 0
M  V30 1876 H 175.417 0.548718 0.51421 0
M  V30 1877 H 177.388 2.66991 1.33261 0
M  V30 1878 C 176.137 1.88172 2.92381 0
M  V30 1879 H 175.46 2.74808 2.90381 0
M  V30 1880 H 176.9 2.07672 3.6966 0
M  V30 1881 C 175.359 0.64239 3.30719 0
M  V30 1882 O 175.889 -0.201362 4.01195 0
M  V30 1883 N 174.095 0.485489 2.86516 0
M  V30 1884 H 173.642 1.17318 2.29334 0
M  V30 1885 H 173.6 -0.342482 3.12529 0
M  V30 1886 N 177.372 -0.689602 1.41712 0
M  V30 1887 C 178.649 -1.44457 1.31877 0
M  V30 1888 C 179.029 -2.11039 -0.0508537 0
M  V30 1889 O 178.377 -2.02138 -1.06547 0
M  V30 1890 C 178.587 -2.45913 2.47645 0
M  V30 1891 C 179.935 -3.10991 2.89084 0
M  V30 1892 O 180.959 -2.56238 2.47428 0
M  V30 1893 O 179.818 -4.10174 3.61137 0
M  V30 1894 H 176.912 -0.64362 0.519309 0
M  V30 1895 H 179.458 -0.719576 1.53689 0
M  V30 1896 H 178.23 -1.95409 3.39015 0
M  V30 1897 H 177.853 -3.25913 2.27742 0
M  V30 1898 N 178.85 -1.27639 -0.924453 0
M  V30 1899 C 179.8 -1.07295 -2.01176 0
M  V30 1900 C 180.784 5.77352e-05 -1.609 0
M  V30 1901 O 181.976 -0.218855 -1.75642 0
M  V30 1902 C 179.105 -0.725592 -3.35544 0
M  V30 1903 C 178.191 -1.83691 -3.82254 0
M  V30 1904 N 178.582 -3.07697 -4.01443 0
M  V30 1905 C 176.88 -1.72433 -4.11319 0
M  V30 1906 C 177.581 -3.80037 -4.40394 0
M  V30 1907 N 176.557 -3.0782 -4.48049 0
M  V30 1908 H 180.359 -2.01399 -2.14046 0
M  V30 1909 H 177.873 -1.18401 -1.11153 0
M  V30 1910 H 179.87 -0.560959 -4.13109 0
M  V30 1911 H 178.53 0.207782 -3.24034 0
M  V30 1912 H 179.541 -3.43424 -3.8766 0
M  V30 1913 H 176.218 -0.862005 -4.08504 0
M  V30 1914 H 177.608 -4.86632 -4.63291 0
M  V30 1915 N 180.328 1.1314 -1.09713 0
M  V30 1916 C 181.577 1.83838 -0.829851 0
M  V30 1917 C 181.89 1.84599 0.646728 0
M  V30 1918 O 183.096 2.51218 1.02965 0
M  V30 1919 C 181.552 3.30069 -1.43466 0
M  V30 1920 C 181.16 3.37688 -2.94399 0
M  V30 1921 C 182.904 4.05788 -1.24645 0
M  V30 1922 C 180.811 4.78209 -3.47952 0
M  V30 1923 H 179.741 0.68877 -0.306777 0
M  V30 1924 H 182.392 1.27448 -1.3202 0
M  V30 1925 H 180.774 3.8628 -0.871996 0
M  V30 1926 H 181.948 2.91456 -3.56918 0
M  V30 1927 H 180.263 2.75436 -3.12289 0
M  V30 1928 H 182.86 5.09535 -1.62107 0
M  V30 1929 H 183.203 4.15878 -0.187357 0
M  V30 1930 H 183.736 3.55915 -1.77678 0
M  V30 1931 H 180.475 4.73311 -4.53495 0
M  V30 1932 H 179.995 5.24924 -2.90198 0
M  V30 1933 H 181.674 5.47133 -3.45332 0
M  V30 1934 N 181.806 0.884767 1.30421 0
M  V30 1935 C 183.083 0.423185 1.90967 0
M  V30 1936 C 183.463 -1.09605 1.80416 0
M  V30 1937 O 182.811 -1.93126 1.22125 0
M  V30 1938 C 183.021 0.921056 3.36627 0
M  V30 1939 C 184.369 0.955903 4.137 0
M  V30 1940 O 185.393 0.867706 3.4547 0
M  V30 1941 O 184.252 1.08614 5.35598 0
M  V30 1942 H 181.346 0.129369 0.816819 0
M  V30 1943 H 183.892 0.973653 1.3899 0
M  V30 1944 H 182.664 1.96489 3.3839 0
M  V30 1945 H 182.287 0.349741 3.96059 0
M  V30 1946 N 183.284 -1.43765 0.645699 0
M  V30 1947 C 184.53 -2.02197 0.156271 0
M  V30 1948 C 184.863 -1.50776 -1.22393 0
M  V30 1949 O 184.138 -0.697771 -1.81553 0
M  V30 1950 C 184.421 -3.59749 0.158872 0
M  V30 1951 C 184.274 -4.21419 1.57245 0
M  V30 1952 C 185.593 -4.37149 -0.50879 0
M  V30 1953 H 182.712 -0.734694 0.0582602 0
M  V30 1954 H 185.354 -1.71157 0.824951 0
M  V30 1955 H 183.504 -3.86325 -0.410525 0
M  V30 1956 H 185.176 -4.059 2.19186 0
M  V30 1957 H 183.419 -3.78356 2.122 0
M  V30 1958 H 184.09 -5.30482 1.52619 0
M  V30 1959 H 186.566 -4.16093 -0.024412 0
M  V30 1960 H 185.442 -5.4683 -0.476213 0
M  V30 1961 H 185.703 -4.12839 -1.58165 0
M  V30 1962 N 184.763 -0.387143 -1.52771 0
M  V30 1963 C 185.711 0.463953 -2.27926 0
M  V30 1964 C 186.705 1.06493 -1.31741 0
M  V30 1965 O 187.911 1.00565 -1.49287 0
M  V30 1966 H 184.286 0.16837 -0.732909 0
M  V30 1967 H 186.257 -0.19141 -2.97785 0
M  V30 1968 C 185.006 1.5803 -3.09713 0
M  V30 1969 H 184.329 1.12718 -3.83581 0
M  V30 1970 H 185.769 2.15008 -3.65442 0
M  V30 1971 C 184.228 2.53509 -2.2189 0
M  V30 1972 O 184.758 3.56863 -1.84422 0
M  V30 1973 N 182.964 2.23199 -1.86093 0
M  V30 1974 H 182.511 1.39185 -2.16761 0
M  V30 1975 H 182.469 2.87333 -1.27621 0
M  V30 1976 N 186.241 1.57166 -0.116904 0
M  V30 1977 C 187.487 1.95412 0.542405 0
M  V30 1978 C 187.82 1.00019 1.66463 0
M  V30 1979 O 187.095 0.0370346 1.94465 0
M  V30 1980 C 187.378 3.43615 1.07708 0
M  V30 1981 C 187.231 4.49781 -0.0415868 0
M  V30 1982 C 188.55 3.93616 1.96861 0
M  V30 1983 H 185.669 0.710543 0.195696 0
M  V30 1984 H 188.311 1.89027 -0.192038 0
M  V30 1985 H 186.461 3.49187 1.70296 0
M  V30 1986 H 188.133 4.56308 -0.676793 0
M  V30 1987 H 186.376 4.28033 -0.705019 0
M  V30 1988 H 187.047 5.50733 0.373717 0
M  V30 1989 H 189.523 3.90335 1.44146 0
M  V30 1990 H 188.399 4.97838 2.3119 0
M  V30 1991 H 188.66 3.34188 2.89432 0
M  V30 1992 N 187.719 -0.156864 1.56817 0
M  V30 1993 C 188.682 -1.17781 1.96622 0
M  V30 1994 C 189.682 -1.36401 0.851555 0
M  V30 1995 O 190.872 -1.33561 1.11836 0
M  V30 1996 C 188.004 -2.54008 2.27361 0
M  V30 1997 H 189.197 -0.836564 2.87996 0
M  V30 1998 H 186.75 -0.39985 1.51099 0
M  V30 1999 H 187.485 -2.9312 1.38748 0
M  V30 2000 H 187.27 -2.41856 3.08623 0
M  V30 2001 H 188.76 -3.27558 2.59029 0
M  V30 2002 N 189.197 -1.51736 -0.425897 0
M  V30 2003 C 190.16 -1.73271 -1.50032 0
M  V30 2004 C 191.16 -0.602639 -1.4908 0
M  V30 2005 O 192.35 -0.87033 -1.509 0
M  V30 2006 C 189.482 -1.79969 -2.89523 0
M  V30 2007 H 190.675 -2.69172 -1.32237 0
M  V30 2008 H 188.228 -1.41899 -0.65532 0
M  V30 2009 H 188.963 -0.859241 -3.1271 0
M  V30 2010 H 188.748 -2.62109 -2.91619 0
M  V30 2011 H 190.238 -1.9843 -3.67444 0
M  V30 2012 N 190.675 0.682077 -1.42076 0
M  V30 2013 C 191.638 1.77756 -1.44691 0
M  V30 2014 C 192.638 1.5726 -0.335535 0
M  V30 2015 O 193.828 1.63686 -0.596037 0
M  V30 2016 C 190.96 3.16301 -1.27146 0
M  V30 2017 H 192.153 1.76826 -2.42224 0
M  V30 2018 H 189.706 0.891012 -1.28416 0
M  V30 2019 H 190.441 3.22862 -0.305075 0
M  V30 2020 H 190.226 3.32581 -2.07683 0
M  V30 2021 H 191.716 3.96241 -1.31843 0
M  V30 2022 N 192.153 1.28127 0.917671 0
M  V30 2023 C 193.399 1.15223 1.66888 0
M  V30 2024 C 193.732 -0.299293 1.9188 0
M  V30 2025 O 193.007 -1.21805 1.51637 0
M  V30 2026 C 193.29 1.94706 3.02922 0
M  V30 2027 C 193.143 3.47898 2.85109 0
M  V30 2028 C 194.462 1.75939 4.03402 0
M  V30 2029 H 191.581 0.419946 0.605652 0
M  V30 2030 H 194.223 1.57398 1.06423 0
M  V30 2031 H 192.373 1.58864 3.54534 0
M  V30 2032 H 194.045 3.93624 2.40537 0
M  V30 2033 H 192.288 3.7373 2.20246 0
M  V30 2034 H 192.959 3.98765 3.81694 0
M  V30 2035 H 195.435 2.07209 3.60837 0
M  V30 2036 H 194.311 2.33931 4.96556 0
M  V30 2037 H 194.572 0.709877 4.36364 0
M  V30 2038 N 193.631 -1.12557 1.10312 0
M  V30 2039 C 194.564 -2.1737 0.694674 0
M  V30 2040 C 195.542 -1.59745 -0.303373 0
M  V30 2041 O 196.726 -1.87408 -0.202578 0
M  V30 2042 C 193.853 -3.38691 0.0248052 0
M  V30 2043 C 192.899 -4.14943 0.986121 0
M  V30 2044 S 193.732 -4.73413 2.50281 0
M  V30 2045 C 194.888 -5.9807 1.84562 0
M  V30 2046 H 195.121 -2.5168 1.58255 0
M  V30 2047 H 192.654 -1.23998 0.919992 0
M  V30 2048 H 194.612 -4.08959 -0.355361 0
M  V30 2049 H 193.273 -3.02664 -0.839851 0
M  V30 2050 H 192.466 -5.01854 0.464651 0
M  V30 2051 H 192.068 -3.50377 1.30813 0
M  V30 2052 H 194.36 -6.67232 1.17507 0
M  V30 2053 H 195.303 -6.54841 2.69423 0
M  V30 2054 H 195.711 -5.49073 1.31069 0
M  V30 2055 N 195.109 -0.891671 -1.2995 0
M  V30 2056 C 196.041 -0.320695 -2.26945 0
M  V30 2057 C 197.054 0.528497 -1.53983 0
M  V30 2058 O 198.243 0.346959 -1.75096 0
M  V30 2059 C 195.343 0.562066 -3.34207 0
M  V30 2060 C 194.516 -0.259576 -4.36629 0
M  V30 2061 C 193.575 0.554739 -5.23268 0
M  V30 2062 O 192.601 -0.0249311 -5.69195 0
M  V30 2063 N 193.803 1.8625 -5.4981 0
M  V30 2064 H 196.568 -1.15432 -2.76578 0
M  V30 2065 H 194.129 -0.755336 -1.432 0
M  V30 2066 H 196.121 1.11304 -3.89093 0
M  V30 2067 H 194.691 1.29637 -2.84452 0
M  V30 2068 H 193.911 -0.991986 -3.81514 0
M  V30 2069 H 195.199 -0.822564 -5.02107 0
M  V30 2070 H 194.597 2.35628 -5.14292 0
M  V30 2071 H 193.154 2.36078 -6.07545 0
M  V30 2072 N 196.587 1.43421 -0.653314 0
M  V30 2073 C 197.535 2.32546 0.0501531 0
M  V30 2074 C 198.529 1.48617 0.812985 0
M  V30 2075 O 199.735 1.64825 0.723375 0
M  V30 2076 H 196.11 0.751185 0.0350032 0
M  V30 2077 H 198.081 2.89602 -0.719261 0
M  V30 2078 C 196.83 3.32925 1.00279 0
M  V30 2079 H 196.153 3.97532 0.425236 0
M  V30 2080 H 197.593 3.9792 1.46409 0
M  V30 2081 C 196.052 2.63532 2.09886 0
M  V30 2082 O 196.582 2.45092 3.18265 0
M  V30 2083 N 194.788 2.22905 1.86445 0
M  V30 2084 H 194.335 2.38103 0.98309 0
M  V30 2085 H 194.293 1.76805 2.59976 0
M  V30 2086 N 198.065 0.39524 1.52563 0
M  V30 2087 C 199.305 -0.184744 2.03563 0
M  V30 2088 C 199.669 -1.43548 1.27507 0
M  V30 2089 O 200.87 -2.093 1.68662 0
M  V30 2090 C 199.141 -0.440294 3.54678 0
M  V30 2091 S 200.7 -0.989712 4.27493 0
M  V30 2092 H 197.518 -0.0515075 0.709132 0
M  V30 2093 H 200.12 0.544957 1.87751 0
M  V30 2094 H 198.824 0.477005 4.07618 0
M  V30 2095 H 198.355 -1.19825 3.74707 0
M  V30 2096 H 200.37 -2.27155 4.41152 0
M  V30 2097 N 199.544 -1.57102 0.125237 0
M  V30 2098 C 200.507 -2.14471 -0.80838 0
M  V30 2099 C 201.507 -1.0811 -1.19033 0
M  V30 2100 O 202.697 -1.33856 -1.11482 0
M  V30 2101 C 199.829 -2.69005 -2.09402 0
M  V30 2102 H 201.022 -2.98297 -0.309696 0
M  V30 2103 H 198.575 -1.55807 -0.124051 0
M  V30 2104 H 199.31 -1.88785 -2.63687 0
M  V30 2105 H 199.095 -3.46799 -1.82957 0
M  V30 2106 H 200.585 -3.13278 -2.76128 0
M  V30 2107 N 201.022 0.148545 -1.56898 0
M  V30 2108 C 202.299 0.890019 -1.74178 0
M  V30 2109 C 202.679 1.99407 -0.692839 0
M  V30 2110 O 202.027 2.26671 0.288505 0
M  V30 2111 C 202.237 1.43389 -3.18183 0
M  V30 2112 C 203.585 1.89791 -3.79822 0
M  V30 2113 O 204.609 1.53134 -3.21603 0
M  V30 2114 O 203.468 2.57387 -4.82093 0
M  V30 2115 H 200.562 0.420496 -0.712118 0
M  V30 2116 H 203.108 0.134591 -1.69165 0
M  V30 2117 H 201.88 0.640383 -3.86024 0
M  V30 2118 H 201.503 2.25287 -3.27615 0
M  V30 2119 N 202.5 1.5196 0.417844 0
M  V30 2120 C 203.777 1.56146 1.17803 0
M  V30 2121 C 204.157 0.337275 2.08388 0
M  V30 2122 O 203.505 -0.676447 2.18258 0
M  V30 2123 C 203.715 2.88566 1.96293 0
M  V30 2124 C 205.063 3.41244 2.52662 0
M  V30 2125 O 206.087 2.90247 2.06483 0
M  V30 2126 O 204.946 4.30273 3.36938 0
M  V30 2127 H 202.04 0.628598 0.537395 0
M  V30 2128 H 204.586 1.64283 0.425331 0
M  V30 2129 H 203.358 3.69116 1.2988 0
M  V30 2130 H 202.981 2.83681 2.78587 0
M  V30 2131 N 203.978 -0.674533 1.42435 0
M  V30 2132 C 205.224 -1.43671 1.43131 0
M  V30 2133 C 205.557 -1.94142 0.0476021 0
M  V30 2134 O 204.832 -1.70924 -0.928188 0
M  V30 2135 C 205.115 -2.63355 2.45594 0
M  V30 2136 C 204.968 -2.18514 3.93156 0
M  V30 2137 C 206.287 -3.65571 2.45043 0
M  V30 2138 H 203.406 -0.521077 0.521198 0
M  V30 2139 H 206.048 -0.766551 1.7385 0
M  V30 2140 H 204.198 -3.2053 2.19528 0
M  V30 2141 H 205.87 -1.66504 4.30202 0
M  V30 2142 H 204.113 -1.50086 4.07009 0
M  V30 2143 H 204.784 -3.04484 4.60428 0
M  V30 2144 H 207.26 -3.18113 2.68223 0
M  V30 2145 H 206.136 -4.46893 3.18713 0
M  V30 2146 H 206.397 -4.16716 1.47649 0
M  V30 2147 N 205.456 -1.28612 -0.910864 0
M  V30 2148 C 206.867 -1.14406 -1.47541 0
M  V30 2149 C 207.218 0.264901 -1.94403 0
M  V30 2150 O 206.343 1.15942 -1.82719 0
M  V30 2151 C 206.938 -2.07073 -2.68153 0
M  V30 2152 C 205.497 -1.96923 -3.20778 0
M  V30 2153 C 204.644 -1.98646 -1.93481 0
M  V30 2154 H 207.595 -1.41259 -0.723291 0
M  V30 2155 H 207.616 -1.63642 -3.43514 0
M  V30 2156 H 207.128 -3.09611 -2.34015 0
M  V30 2157 H 205.229 -0.97433 -3.59635 0
M  V30 2158 H 205.342 -2.84026 -3.85832 0
M  V30 2159 H 203.706 -1.43093 -2.10705 0
M  V30 2160 H 204.489 -3.02868 -1.61634 0
M  V30 2161 N 206.934 1.1197 -1.10907 0
M  V30 2162 C 208.181 1.83588 -0.854507 0
M  V30 2163 C 208.509 1.84357 0.6199 0
M  V30 2164 O 207.764 1.28809 1.47332 0
M  V30 2165 C 208.063 3.30749 -1.35425 0
M  V30 2166 C 207.729 3.50146 -2.84093 0
M  V30 2167 C 206.391 3.55148 -3.2469 0
M  V30 2168 C 208.743 3.56857 -3.79872 0
M  V30 2169 C 206.071 3.6441 -4.59806 0
M  V30 2170 C 208.423 3.6765 -5.14797 0
M  V30 2171 C 207.087 3.7091 -5.54961 0
M  V30 2172 H 206.357 0.671795 -0.312686 0
M  V30 2173 H 209.004 1.32091 -1.38652 0
M  V30 2174 H 207.309 3.84703 -0.742361 0
M  V30 2175 H 209.006 3.8464 -1.1337 0
M  V30 2176 H 205.596 3.46919 -2.51685 0
M  V30 2177 H 209.78 3.52258 -3.49611 0
M  V30 2178 H 205.036 3.65208 -4.9034 0
M  V30 2179 H 209.21 3.71786 -5.88853 0
M  V30 2180 H 206.837 3.7784 -6.59652 0
M  V30 2181 N 208.412 0.89855 1.29475 0
M  V30 2182 C 209.661 0.519863 1.94885 0
M  V30 2183 C 209.974 -0.9383 1.71625 0
M  V30 2184 O 211.18 -1.42445 2.31131 0
M  V30 2185 C 209.636 0.878836 3.49005 0
M  V30 2186 C 209.244 2.35569 3.81066 0
M  V30 2187 C 210.988 0.570004 4.20656 0
M  V30 2188 C 208.895 2.65558 5.28425 0
M  V30 2189 H 207.825 0.190692 0.729488 0
M  V30 2190 H 210.476 1.09539 1.47219 0
M  V30 2191 H 208.858 0.232253 3.95318 0
M  V30 2192 H 210.032 3.04773 3.45616 0
M  V30 2193 H 208.347 2.63343 3.22552 0
M  V30 2194 H 210.944 0.770925 5.29113 0
M  V30 2195 H 211.287 -0.491404 4.1339 0
M  V30 2196 H 211.82 1.17438 3.8007 0
M  V30 2197 H 208.559 3.70493 5.40754 0
M  V30 2198 H 208.079 2.00977 5.65127 0
M  V30 2199 H 209.758 2.51765 5.96006 0
M  V30 2200 N 209.89 -1.43072 0.660911 0
M  V30 2201 C 211.138 -2.01323 0.177094 0
M  V30 2202 C 211.459 -1.5245 -1.2159 0
M  V30 2203 O 210.729 -0.740322 -1.81373 0
M  V30 2204 H 209.309 -0.744382 0.0624804 0
M  V30 2205 H 211.971 -1.75179 0.854305 0
M  V30 2206 H 211.067 -3.11649 0.167641 0
M  V30 2207 N 211.368 -0.403325 -1.52352 0
M  V30 2208 C 212.779 0.0675782 -1.86578 0
M  V30 2209 C 213.13 1.44941 -1.32236 0
M  V30 2210 O 212.255 2.06112 -0.659307 0
M  V30 2211 C 212.85 0.129404 -3.38553 0
M  V30 2212 C 211.409 0.544629 -3.72439 0
M  V30 2213 C 210.556 -0.284551 -2.75836 0
M  V30 2214 H 213.507 -0.620631 -1.46061 0
M  V30 2215 H 213.528 0.94581 -3.68558 0
M  V30 2216 H 213.04 -0.87645 -3.78074 0
M  V30 2217 H 211.141 1.55734 -3.38493 0
M  V30 2218 H 211.254 0.293046 -4.78203 0
M  V30 2219 H 209.618 0.252258 -2.53448 0
M  V30 2220 H 210.401 -1.28865 -3.18196 0
M  V30 2221 N 212.846 1.57033 -0.133567 0
M  V30 2222 C 213.793 2.16074 0.811208 0
M  V30 2223 C 214.763 1.08979 1.2535 0
M  V30 2224 O 215.948 1.36958 1.32843 0
M  V30 2225 C 213.088 2.77595 2.05024 0
M  V30 2226 C 212.201 3.99042 1.65498 0
M  V30 2227 C 211.336 4.48603 2.84479 0
M  V30 2228 C 210.375 5.62547 2.41262 0
M  V30 2229 N 209.512 6.06787 3.53206 0
M  V30 2230 H 214.352 2.96477 0.300906 0
M  V30 2231 H 211.889 1.46462 0.136822 0
M  V30 2232 H 213.847 3.11402 2.77642 0
M  V30 2233 H 212.477 1.99859 2.53488 0
M  V30 2234 H 211.529 3.71302 0.826981 0
M  V30 2235 H 212.841 4.81629 1.29748 0
M  V30 2236 H 211.995 4.84395 3.65303 0
M  V30 2237 H 210.734 3.64995 3.23465 0
M  V30 2238 H 209.739 5.26345 1.58874 0
M  V30 2239 H 210.964 6.47931 2.03377 0
M  V30 2240 H 208.91 5.26117 3.91838 0
M  V30 2241 H 208.827 6.84266 3.21427 0
M  V30 2242 H 210.095 6.4722 4.34427 0
M  V30 2243 N 214.325 -0.140222 1.56975 0
M  V30 2244 C 215.553 -0.866437 1.87884 0
M  V30 2245 C 215.968 -1.74428 0.722517 0
M  V30 2246 O 215.325 -1.79891 -0.30749 0
M  V30 2247 C 215.376 -1.71753 3.18093 0
M  V30 2248 O 215.097 -0.875056 4.29272 0
M  V30 2249 C 216.598 -2.55074 3.62563 0
M  V30 2250 H 213.818 -0.25019 0.622612 0
M  V30 2251 H 216.362 -0.130977 2.0408 0
M  V30 2252 H 214.517 -2.40598 3.03631 0
M  V30 2253 H 214.931 -1.46002 5.03769 0
M  V30 2254 H 216.405 -3.10356 4.5649 0
M  V30 2255 H 216.882 -3.31434 2.88181 0
M  V30 2256 H 217.488 -1.91509 3.79743 0
M  V30 2257 N 215.803 -1.52179 -0.40978 0
M  V30 2258 C 217.043 -1.67882 -1.16597 0
M  V30 2259 C 217.407 -0.399795 -1.87791 0
M  V30 2260 O 218.608 -0.43292 -2.65291 0
M  V30 2261 C 216.879 -2.86662 -2.13448 0
M  V30 2262 S 218.438 -3.22843 -2.97183 0
M  V30 2263 H 215.256 -0.59118 -0.395002 0
M  V30 2264 H 217.858 -1.9017 -0.453373 0
M  V30 2265 H 216.562 -3.77998 -1.59831 0
M  V30 2266 H 216.093 -2.66645 -2.89247 0
M  V30 2267 H 218.108 -2.71415 -4.15389 0
M  V30 2268 N 217.281 0.66697 -1.42791 0
M  V30 2269 C 218.527 1.4291 -1.43891 0
M  V30 2270 C 218.86 1.94114 -0.0578972 0
M  V30 2271 O 218.135 1.71414 0.91911 0
M  V30 2272 C 218.418 2.62049 -2.46987 0
M  V30 2273 C 218.271 2.16426 -3.94309 0
M  V30 2274 C 219.59 3.64266 -2.46978 0
M  V30 2275 H 216.709 0.518306 -0.523954 0
M  V30 2276 H 219.351 0.757321 -1.74255 0
M  V30 2277 H 217.501 3.19361 -2.21225 0
M  V30 2278 H 219.173 1.64221 -4.31079 0
M  V30 2279 H 217.416 1.47925 -4.078 0
M  V30 2280 H 218.087 3.02038 -4.62036 0
M  V30 2281 H 220.563 3.16686 -2.69906 0
M  V30 2282 H 219.439 4.45196 -3.21079 0
M  V30 2283 H 219.7 4.15927 -1.49857 0
M  V30 2284 N 218.759 1.29093 0.90403 0
M  V30 2285 C 220.036 1.075 1.63411 0
M  V30 2286 C 220.416 -0.382346 2.07609 0
M  V30 2287 O 219.764 -1.37031 1.82851 0
M  V30 2288 C 219.974 2.05858 2.81822 0
M  V30 2289 C 221.322 2.36539 3.52611 0
M  V30 2290 O 222.346 2.04019 2.91984 0
M  V30 2291 O 221.205 2.92085 4.61897 0
M  V30 2292 H 218.299 0.411547 0.717327 0
M  V30 2293 H 220.845 1.40449 0.952479 0
M  V30 2294 H 219.617 3.04037 2.46327 0
M  V30 2295 H 219.24 1.73613 3.57693 0
M  V30 2296 N 220.237 -1.11381 1.11499 0
M  V30 2297 C 221.167 -2.19509 0.796125 0
M  V30 2298 C 222.148 -1.68458 -0.235796 0
M  V30 2299 O 223.333 -1.93947 -0.0991344 0
M  V30 2300 C 220.463 -3.46475 0.239205 0
M  V30 2301 C 219.417 -4.10744 1.20307 0
M  V30 2302 C 218.743 -5.32293 0.50683 0
M  V30 2303 C 220.043 -4.55597 2.55399 0
M  V30 2304 H 221.737 -2.46439 1.70024 0
M  V30 2305 H 219.283 -1.18446 0.818935 0
M  V30 2306 H 221.236 -4.214 0.00392006 0
M  V30 2307 H 219.96 -3.19006 -0.700206 0
M  V30 2308 H 218.619 -3.37813 1.42399 0
M  V30 2309 H 218.267 -5.01095 -0.437408 0
M  V30 2310 H 217.967 -5.76243 1.1497 0
M  V30 2311 H 219.491 -6.09956 0.280351 0
M  V30 2312 H 220.905 -5.21841 2.37391 0
M  V30 2313 H 219.302 -5.10363 3.15673 0
M  V30 2314 H 220.372 -3.69013 3.14575 0
M  V30 2315 N 221.715 -0.905404 -1.28997 0
M  V30 2316 C 222.961 -0.544465 -1.95977 0
M  V30 2317 C 223.316 0.90041 -1.70031 0
M  V30 2318 O 222.609 1.63064 -1.00601 0
M  V30 2319 C 222.803 -0.779906 -3.48787 0
M  V30 2320 C 222.632 -2.24612 -3.89589 0
M  V30 2321 C 221.402 -2.89464 -4.14172 0
M  V30 2322 C 223.6 -3.22182 -4.00878 0
M  V30 2323 N 221.582 -4.26469 -4.41585 0
M  V30 2324 C 222.953 -4.44323 -4.32409 0
M  V30 2325 C 225.008 -3.17694 -3.83373 0
M  V30 2326 C 223.711 -5.62546 -4.48258 0
M  V30 2327 C 225.737 -4.35208 -4.00435 0
M  V30 2328 C 225.099 -5.56121 -4.3233 0
M  V30 2329 H 221.198 -0.248948 -0.741316 0
M  V30 2330 H 223.782 -1.1674 -1.5582 0
M  V30 2331 H 221.953 -0.186308 -3.87953 0
M  V30 2332 H 223.685 -0.383833 -4.02876 0
M  V30 2333 H 220.44 -2.40232 -4.08149 0
M  V30 2334 H 220.864 -4.97283 -4.5939 0
M  V30 2335 H 225.506 -2.25297 -3.57773 0
M  V30 2336 H 223.224 -6.55429 -4.72692 0
M  V30 2337 H 226.81 -4.33228 -3.88336 0
M  V30 2338 H 225.69 -6.45537 -4.45255 0
M  V30 2339 N 223.193 1.4272 -0.668489 0
M  V30 2340 C 224.442 2.00846 -0.185389 0
M  V30 2341 C 224.755 1.53442 1.21305 0
M  V30 2342 O 225.961 2.03944 1.79218 0
M  V30 2343 C 224.417 3.58805 -0.280591 0
M  V30 2344 C 224.025 4.15198 -1.68268 0
M  V30 2345 C 225.769 4.24255 0.14412 0
M  V30 2346 C 223.676 5.655 -1.73099 0
M  V30 2347 H 222.606 0.751145 -0.0655475 0
M  V30 2348 H 225.257 1.63516 -0.832752 0
M  V30 2349 H 223.639 3.93608 0.434553 0
M  V30 2350 H 224.813 3.91866 -2.42441 0
M  V30 2351 H 223.128 3.62176 -2.05469 0
M  V30 2352 H 225.725 5.34547 0.128086 0
M  V30 2353 H 226.068 3.99277 1.17827 0
M  V30 2354 H 226.601 3.94389 -0.519798 0
M  V30 2355 H 223.34 5.95268 -2.74475 0
M  V30 2356 H 222.86 5.90842 -1.03274 0
M  V30 2357 H 224.539 6.29808 -1.48158 0
M  V30 2358 N 224.671 0.411399 1.52136 0
M  V30 2359 C 225.919 -0.163322 2.01439 0
M  V30 2360 C 226.24 -1.45453 1.29879 0
M  V30 2361 O 225.51 -1.91225 0.4254 0
M  V30 2362 H 224.09 -0.0633447 0.744309 0
M  V30 2363 H 226.752 0.548161 1.87033 0
M  V30 2364 H 225.848 -0.357817 3.10042 0
M  V30 2365 N 226.149 -1.5696 0.141893 0
M  V30 2366 C 227.395 -1.97034 -0.504884 0
M  V30 2367 C 227.75 -1.02518 -1.62812 0
M  V30 2368 O 227.043 -0.0592943 -1.91508 0
M  V30 2369 C 227.237 -3.41242 -1.06249 0
M  V30 2370 C 227.066 -4.497 0.00519653 0
M  V30 2371 C 225.836 -5.03338 0.444873 0
M  V30 2372 C 228.034 -5.08122 0.794767 0
M  V30 2373 N 226.016 -5.95395 1.49593 0
M  V30 2374 C 227.387 -5.96339 1.69645 0
M  V30 2375 C 229.442 -4.9071 0.843122 0
M  V30 2376 C 228.145 -6.69009 2.64233 0
M  V30 2377 C 230.171 -5.64077 1.77681 0
M  V30 2378 C 229.533 -6.51999 2.66603 0
M  V30 2379 H 225.632 -0.766745 -0.153707 0
M  V30 2380 H 228.216 -1.93273 0.235313 0
M  V30 2381 H 226.387 -3.45606 -1.77231 0
M  V30 2382 H 228.119 -3.68389 -1.67546 0
M  V30 2383 H 224.874 -4.73576 0.0480959 0
M  V30 2384 H 225.298 -6.46128 2.02107 0
M  V30 2385 H 229.94 -4.22459 0.169732 0
M  V30 2386 H 227.658 -7.36492 3.32575 0
M  V30 2387 H 231.244 -5.52602 1.81996 0
M  V30 2388 H 230.124 -7.07775 3.37675 0
M  V30 2389 N 227.627 0.131896 -1.57047 0
M  V30 2390 C 228.875 0.840269 -1.83804 0
M  V30 2391 C 229.196 1.81017 -0.72512 0
M  V30 2392 O 228.466 1.94272 0.251995 0
M  V30 2393 H 227.046 0.313294 -0.678127 0
M  V30 2394 H 229.708 0.122294 -1.94516 0
M  V30 2395 H 228.804 1.39335 -2.79271 0
M  V30 2396 N 229.106 1.52395 0.401703 0
M  V30 2397 C 230.352 1.67065 1.14966 0
M  V30 2398 C 230.685 0.403052 1.89971 0
M  V30 2399 O 229.96 -0.598774 1.85054 0
M  V30 2400 C 230.243 2.8975 2.13815 0
M  V30 2401 C 230.096 4.26578 1.42658 0
M  V30 2402 C 231.415 3.07965 3.14397 0
M  V30 2403 H 228.534 0.607968 0.416587 0
M  V30 2404 H 231.176 1.84965 0.434511 0
M  V30 2405 H 229.326 2.74619 2.74803 0
M  V30 2406 H 230.998 4.53451 0.847329 0
M  V30 2407 H 229.241 4.27639 0.72849 0
M  V30 2408 H 229.912 5.08483 2.14823 0
M  V30 2409 H 232.388 3.22043 2.63491 0
M  V30 2410 H 231.264 3.95308 3.80819 0
M  V30 2411 H 231.525 2.21611 3.82545 0
M  V30 2412 N 230.584 -0.659388 1.43143 0
M  V30 2413 C 231.995 -1.24041 1.39537 0
M  V30 2414 C 232.346 -1.95963 0.0963364 0
M  V30 2415 O 231.471 -2.00892 -0.804438 0
M  V30 2416 C 232.066 -2.25601 2.52764 0
M  V30 2417 C 230.625 -2.79195 2.52443 0
M  V30 2418 C 229.772 -1.53743 2.30778 0
M  V30 2419 H 232.723 -0.451792 1.52133 0
M  V30 2420 H 232.744 -3.07651 2.23899 0
M  V30 2421 H 232.256 -1.73226 3.47296 0
M  V30 2422 H 230.357 -3.35649 1.61773 0
M  V30 2423 H 230.47 -3.2716 3.50004 0
M  V30 2424 H 228.834 -1.80869 1.79328 0
M  V30 2425 H 229.617 -1.03312 3.27386 0
M  V30 2426 N 232.062 -1.29571 -0.897171 0
M  V30 2427 C 233.009 -1.14916 -2.00158 0
M  V30 2428 C 233.979 -0.0418149 -1.66047 0
M  V30 2429 O 235.164 -0.209793 -1.89643 0
M  V30 2430 C 232.304 -0.834307 -3.34863 0
M  V30 2431 C 231.417 -2.02234 -3.8174 0
M  V30 2432 C 230.552 -1.64664 -5.05034 0
M  V30 2433 C 229.591 -2.80033 -5.44286 0
M  V30 2434 N 228.728 -2.42843 -6.58765 0
M  V30 2435 H 233.568 -2.09403 -2.12025 0
M  V30 2436 H 231.105 -1.042 -1.0383 0
M  V30 2437 H 233.063 -0.632436 -4.12379 0
M  V30 2438 H 231.693 0.0736656 -3.22716 0
M  V30 2439 H 230.745 -2.33583 -3.00238 0
M  V30 2440 H 232.057 -2.88673 -4.06779 0
M  V30 2441 H 231.211 -1.4078 -5.9014 0
M  V30 2442 H 229.95 -0.753766 -4.8184 0
M  V30 2443 H 228.955 -3.04596 -4.57713 0
M  V30 2444 H 230.18 -3.69989 -5.6946 0
M  V30 2445 H 228.126 -1.56046 -6.3717 0
M  V30 2446 H 228.043 -3.22815 -6.83613 0
M  V30 2447 H 229.311 -2.22285 -7.47134 0
M  V30 2448 N 233.54 1.10788 -1.12088 0
M  V30 2449 C 234.45 2.20599 -0.798338 0
M  V30 2450 C 235.466 1.72712 0.21135 0
M  V30 2451 O 236.642 2.01348 0.0458477 0
M  V30 2452 C 233.707 3.45771 -0.253674 0
M  V30 2453 C 232.768 4.08411 -1.32283 0
M  V30 2454 C 232.001 5.27608 -0.80406 0
M  V30 2455 O 232.224 5.69241 0.363478 0
M  V30 2456 O 231.158 5.8101 -1.57198 0
M  V30 2457 H 234.984 2.50614 -1.7154 0
M  V30 2458 H 232.569 1.19454 -0.897275 0
M  V30 2459 H 234.451 4.21376 0.0453691 0
M  V30 2460 H 233.126 3.1739 0.636005 0
M  V30 2461 H 232.033 3.34507 -1.67499 0
M  V30 2462 H 233.366 4.40986 -2.18614 0
M  V30 2463 N 235.018 0.912232 1.28515 0
M  V30 2464 C 236.434 0.610159 1.47476 0
M  V30 2465 C 236.634 -0.844955 1.82928 0
M  V30 2466 O 235.69 -1.62416 1.93332 0
M  V30 2467 C 237.003 1.54675 2.57868 0
M  V30 2468 C 238.551 1.55331 2.71738 0
M  V30 2469 C 239.026 2.47649 3.85272 0
M  V30 2470 N 240.517 2.45767 3.92623 0
M  V30 2471 C 241.252 3.13896 4.79851 0
M  V30 2472 N 240.748 3.9135 5.71679 0
M  V30 2473 N 242.541 3.02991 4.73448 0
M  V30 2474 H 234.692 1.85318 1.03783 0
M  V30 2475 H 236.955 0.794777 0.516753 0
M  V30 2476 H 236.661 2.5841 2.38574 0
M  V30 2477 H 236.535 1.27671 3.54937 0
M  V30 2478 H 238.922 0.52335 2.90422 0
M  V30 2479 H 239.003 1.86378 1.75205 0
M  V30 2480 H 238.647 3.50745 3.67342 0
M  V30 2481 H 238.577 2.13904 4.81199 0
M  V30 2482 H 241.068 1.89503 3.26951 0
M  V30 2483 H 241.381 4.40359 6.35062 0
M  V30 2484 H 239.726 3.95455 5.71524 0
M  V30 2485 H 242.917 2.41987 4.007 0
M  V30 2486 H 243.09 3.5636 5.41213 0
M  V30 2487 N 236.496 -1.42363 0.676048 0
M  V30 2488 C 237.736 -2.03392 0.20273 0
M  V30 2489 C 238.1 -1.52306 -1.16906 0
M  V30 2490 O 239.301 -2.05129 -1.73711 0
M  V30 2491 C 237.572 -3.56614 0.236947 0
M  V30 2492 S 239.131 -4.38489 -0.165186 0
M  V30 2493 H 235.949 -0.70611 0.0832418 0
M  V30 2494 H 238.551 -1.74093 0.88948 0
M  V30 2495 H 237.255 -3.91293 1.23767 0
M  V30 2496 H 236.786 -3.90587 -0.469596 0
M  V30 2497 H 238.801 -4.76093 -1.39822 0
M  V30 2498 N 237.974 -0.419461 -1.51915 0
M  V30 2499 C 239.223 0.154346 -2.01109 0
M  V30 2500 C 239.536 1.45338 -1.30905 0
M  V30 2501 O 240.742 2.10906 -1.7097 0
M  V30 2502 C 239.198 0.325615 -3.58424 0
M  V30 2503 C 238.806 -0.961934 -4.37551 0
M  V30 2504 C 240.55 0.854155 -4.15818 0
M  V30 2505 C 238.457 -0.757287 -5.86531 0
M  V30 2506 H 237.387 0.0614563 -0.751491 0
M  V30 2507 H 240.038 -0.54649 -1.75173 0
M  V30 2508 H 238.42 1.08903 -3.80731 0
M  V30 2509 H 239.594 -1.7323 -4.26999 0
M  V30 2510 H 237.909 -1.41766 -3.91524 0
M  V30 2511 H 240.506 1.02346 -5.24814 0
M  V30 2512 H 240.849 1.83172 -3.73837 0
M  V30 2513 H 241.382 0.149528 -3.97519 0
M  V30 2514 H 238.121 -1.70671 -6.32892 0
M  V30 2515 H 237.641 -0.0264061 -5.99794 0
M  V30 2516 H 239.32 -0.403482 -6.45741 0
M  V30 2517 N 239.452 1.56882 -0.150215 0
M  V30 2518 C 240.698 1.96518 0.500834 0
M  V30 2519 C 241.031 1.03527 1.64304 0
M  V30 2520 O 240.306 0.0782751 1.94342 0
M  V30 2521 C 240.589 3.45822 1.00395 0
M  V30 2522 C 240.442 4.49591 -0.136983 0
M  V30 2523 C 241.761 3.97704 1.88467 0
M  V30 2524 H 238.88 0.714535 0.18058 0
M  V30 2525 H 241.522 1.88577 -0.232091 0
M  V30 2526 H 239.672 3.5272 1.62851 0
M  V30 2527 H 241.344 4.5477 -0.77343 0
M  V30 2528 H 239.587 4.26441 -0.795652 0
M  V30 2529 H 240.258 5.51402 0.256815 0
M  V30 2530 H 242.734 3.93304 1.35834 0
M  V30 2531 H 241.61 5.0263 2.20578 0
M  V30 2532 H 241.871 3.40252 2.82279 0
M  V30 2533 N 240.93 -0.123565 1.57115 0
M  V30 2534 C 242.176 -0.833386 1.84885 0
M  V30 2535 C 242.509 -1.79742 0.735292 0
M  V30 2536 O 241.784 -1.92764 -0.25925 0
M  V30 2537 C 242.067 -1.5873 3.23228 0
M  V30 2538 C 241.92 -0.643183 4.45178 0
M  V30 2539 C 243.239 -2.54453 3.59085 0
M  V30 2540 H 240.358 -0.301518 0.6725 0
M  V30 2541 H 243 -0.097778 1.89748 0
M  V30 2542 H 241.15 -2.21438 3.19214 0
M  V30 2543 H 242.822 -0.0253015 4.61293 0
M  V30 2544 H 241.065 0.0456139 4.33776 0
M  V30 2545 H 241.736 -1.20724 5.38637 0
M  V30 2546 H 244.212 -2.01853 3.63861 0
M  V30 2547 H 243.088 -3.04238 4.5687 0
M  V30 2548 H 243.349 -3.36906 2.86264 0
M  V30 2549 N 242.408 -1.52605 -0.393616 0
M  V30 2550 C 243.355 -1.77055 -1.48054 0
M  V30 2551 C 244.325 -0.61358 -1.54352 0
M  V30 2552 O 245.51 -0.852806 -1.70681 0
M  V30 2553 C 242.65 -1.94108 -2.85335 0
M  V30 2554 C 241.763 -3.21792 -2.88226 0
M  V30 2555 C 240.898 -3.29188 -4.16904 0
M  V30 2556 C 239.937 -4.51013 -4.13828 0
M  V30 2557 N 239.074 -4.55716 -5.34105 0
M  V30 2558 H 243.914 -2.69815 -1.26506 0
M  V30 2559 H 241.451 -1.33683 -0.61379 0
M  V30 2560 H 243.409 -2.01979 -3.65049 0
M  V30 2561 H 242.039 -1.04713 -3.05344 0
M  V30 2562 H 241.091 -3.23015 -2.00911 0
M  V30 2563 H 242.403 -4.11557 -2.8182 0
M  V30 2564 H 241.557 -3.36216 -5.05018 0
M  V30 2565 H 240.296 -2.37389 -4.26026 0
M  V30 2566 H 239.301 -4.44115 -3.24102 0
M  V30 2567 H 240.526 -5.44123 -4.06333 0
M  V30 2568 H 238.472 -3.66807 -5.43865 0
M  V30 2569 H 238.389 -5.39346 -5.29756 0
M  V30 2570 H 239.657 -4.66993 -6.2413 0
M  V30 2571 N 243.887 0.651787 -1.4349 0
M  V30 2572 C 245.298 1.233 -1.40193 0
M  V30 2573 C 245.649 1.9591 -0.106727 0
M  V30 2574 O 244.774 2.01316 0.793773 0
M  V30 2575 C 245.369 2.24257 -2.53957 0
M  V30 2576 C 243.928 2.77852 -2.5392 0
M  V30 2577 C 243.075 1.52517 -2.3159 0
M  V30 2578 H 246.026 0.443717 -1.52371 0
M  V30 2579 H 246.047 3.0646 -2.25528 0
M  V30 2580 H 245.559 1.71382 -3.4821 0
M  V30 2581 H 243.66 3.34786 -1.63551 0
M  V30 2582 H 243.773 3.25299 -3.51735 0
M  V30 2583 H 242.137 1.79915 -1.80285 0
M  V30 2584 H 242.92 1.01574 -3.27929 0
M  V30 2585 N 245.365 1.30045 0.890287 0
M  V30 2586 C 246.613 1.18327 1.63839 0
M  V30 2587 C 246.934 -0.263455 1.93212 0
M  V30 2588 O 246.204 -1.17856 1.56482 0
M  V30 2589 H 244.784 0.434933 0.607324 0
M  V30 2590 H 247.446 1.631 1.06698 0
M  V30 2591 H 246.542 1.74024 2.59079 0
M  V30 2592 N 246.843 -1.10192 1.12674 0
M  V30 2593 C 248.12 -1.78717 0.794965 0
M  V30 2594 C 248.5 -1.98628 -0.714853 0
M  V30 2595 O 247.848 -1.58135 -1.64941 0
M  V30 2596 C 248.058 -3.11546 1.5729 0
M  V30 2597 C 249.406 -3.86382 1.76052 0
M  V30 2598 O 250.43 -3.21274 1.53823 0
M  V30 2599 O 249.289 -5.03246 2.13087 0
M  V30 2600 H 246.383 -0.774702 0.289423 0
M  V30 2601 H 248.929 -1.16819 1.23091 0
M  V30 2602 H 247.701 -2.92489 2.59935 0
M  V30 2603 H 247.324 -3.81164 1.13137 0
M  V30 2604 N 248.321 -0.919034 -1.28029 0
M  V30 2605 C 249.567 -0.555757 -1.95036 0
M  V30 2606 C 249.9 0.899198 -1.72128 0
M  V30 2607 O 249.175 1.64023 -1.04531 0
M  V30 2608 C 249.458 -0.872024 -3.49382 0
M  V30 2609 C 249.311 -2.3801 -3.81669 0
M  V30 2610 C 250.63 -0.37185 -4.38526 0
M  V30 2611 H 247.749 -0.203386 -0.708381 0
M  V30 2612 H 250.391 -1.14924 -1.51303 0
M  V30 2613 H 248.541 -0.366946 -3.86763 0
M  V30 2614 H 250.213 -2.9562 -3.54128 0
M  V30 2615 H 248.456 -2.83289 -3.28526 0
M  V30 2616 H 249.127 -2.55192 -4.8947 0
M  V30 2617 H 251.603 -0.804602 -4.08247 0
M  V30 2618 H 250.479 -0.622173 -5.45362 0
M  V30 2619 H 250.74 0.727934 -4.36066 0
M  V30 2620 N 249.799 1.42003 -0.683588 0
M  V30 2621 C 251.045 2.01712 -0.209825 0
M  V30 2622 C 251.378 1.53968 1.18353 0
M  V30 2623 O 250.653 0.745661 1.79639 0
M  V30 2624 C 250.936 3.59202 -0.254197 0
M  V30 2625 C 250.789 4.17102 -1.68363 0
M  V30 2626 C 252.108 4.38344 0.392709 0
M  V30 2627 H 249.227 0.732891 -0.0777189 0
M  V30 2628 H 251.869 1.68909 -0.87004 0
M  V30 2629 H 250.019 3.87278 0.307954 0
M  V30 2630 H 251.691 3.99946 -2.29871 0
M  V30 2631 H 249.934 3.72597 -2.22157 0
M  V30 2632 H 250.605 5.26249 -1.6663 0
M  V30 2633 H 253.081 4.16011 -0.0859162 0
M  V30 2634 H 251.957 5.47901 0.331063 0
M  V30 2635 H 252.218 4.16887 1.47164 0
M  V30 2636 N 251.277 0.427512 1.51691 0
M  V30 2637 C 252.224 -0.388867 2.275 0
M  V30 2638 C 253.194 -1.02532 1.30677 0
M  V30 2639 O 254.379 -1.0461 1.59566 0
M  V30 2640 C 251.519 -1.48954 3.11298 0
M  V30 2641 C 250.632 -0.872194 4.23104 0
M  V30 2642 C 249.767 -1.94709 4.94228 0
M  V30 2643 C 248.806 -1.30766 5.97969 0
M  V30 2644 N 247.943 -2.32349 6.62539 0
M  V30 2645 H 252.783 0.263997 2.96828 0
M  V30 2646 H 250.32 0.142033 1.46413 0
M  V30 2647 H 252.278 -2.13887 3.58201 0
M  V30 2648 H 250.908 -2.11217 2.44105 0
M  V30 2649 H 249.96 -0.111419 3.80237 0
M  V30 2650 H 251.272 -0.365264 4.97461 0
M  V30 2651 H 250.426 -2.67327 5.44629 0
M  V30 2652 H 249.165 -2.48773 4.1948 0
M  V30 2653 H 248.17 -0.566902 5.4687 0
M  V30 2654 H 249.395 -0.774483 6.74669 0
M  V30 2655 H 247.341 -2.85511 5.90609 0
M  V30 2656 H 247.258 -1.8652 7.3263 0
M  V30 2657 H 248.526 -3.04481 7.17574 0
M  V30 2658 N 252.755 -1.56801 0.158532 0
M  V30 2659 C 254.001 -1.96781 -0.490405 0
M  V30 2660 C 254.334 -1.04397 -1.63753 0
M  V30 2661 O 253.609 -0.0885805 -1.94298 0
M  V30 2662 C 253.892 -3.4635 -0.985594 0
M  V30 2663 C 253.745 -4.49512 0.160824 0
M  V30 2664 C 255.064 -3.98697 -1.86355 0
M  V30 2665 H 252.183 -0.715482 -0.176788 0
M  V30 2666 H 254.825 -1.88451 0.242088 0
M  V30 2667 H 252.975 -3.53579 -1.60978 0
M  V30 2668 H 254.647 -4.54353 0.797537 0
M  V30 2669 H 252.89 -4.26013 0.818256 0
M  V30 2670 H 253.561 -5.51531 -0.227569 0
M  V30 2671 H 256.037 -3.94019 -1.33746 0
M  V30 2672 H 254.913 -5.03792 -2.17909 0
M  V30 2673 H 255.174 -3.41744 -2.8047 0
M  V30 2674 N 254.233 0.115231 -1.57178 0
M  V30 2675 C 255.18 1.14115 -2.00615 0
M  V30 2676 C 256.15 1.40939 -0.878941 0
M  V30 2677 O 257.335 1.52741 -1.14345 0
M  V30 2678 C 254.475 2.46156 -2.4187 0
M  V30 2679 C 253.588 2.26236 -3.68024 0
M  V30 2680 C 252.723 3.51534 -3.98243 0
M  V30 2681 C 251.762 3.26787 -5.17568 0
M  V30 2682 N 250.899 4.44298 -5.43639 0
M  V30 2683 H 255.739 0.763743 -2.88047 0
M  V30 2684 H 253.276 0.365615 -1.42484 0
M  V30 2685 H 255.234 3.23189 -2.63827 0
M  V30 2686 H 253.864 2.81783 -1.57475 0
M  V30 2687 H 252.916 1.40102 -3.5366 0
M  V30 2688 H 254.228 2.03929 -4.55208 0
M  V30 2689 H 253.382 4.36984 -4.20868 0
M  V30 2690 H 252.121 3.76876 -3.09541 0
M  V30 2691 H 251.126 2.39729 -4.94783 0
M  V30 2692 H 252.351 3.02812 -6.0785 0
M  V30 2693 H 250.297 4.69754 -4.57895 0
M  V30 2694 H 250.214 4.25109 -6.25154 0
M  V30 2695 H 251.482 5.3087 -5.70786 0
M  V30 2696 N 255.711 1.52812 0.385517 0
M  V30 2697 C 256.988 1.5861 1.14465 0
M  V30 2698 C 257.368 0.381402 2.07626 0
M  V30 2699 O 256.716 -0.629999 2.19643 0
M  V30 2700 C 256.926 2.92664 1.90128 0
M  V30 2701 C 258.274 3.46526 2.45367 0
M  V30 2702 O 259.298 2.94562 2.0028 0
M  V30 2703 O 258.157 4.37323 3.27736 0
M  V30 2704 H 255.251 0.639855 0.523941 0
M  V30 2705 H 257.797 1.65149 0.390389 0
M  V30 2706 H 256.569 3.71788 1.22022 0
M  V30 2707 H 256.192 2.89527 2.72507 0
M  V30 2708 N 257.189 -0.644168 1.43834 0
M  V30 2709 C 258.438 -1.39985 1.45214 0
M  V30 2710 C 258.751 -1.95421 0.0835494 0
M  V30 2711 O 259.957 -2.71488 -0.0251748 0
M  V30 2712 C 258.413 -2.53384 2.55587 0
M  V30 2713 C 258.021 -2.04517 3.98594 0
M  V30 2714 C 259.765 -3.30685 2.66172 0
M  V30 2715 C 257.672 -3.1518 5.00416 0
M  V30 2716 H 256.602 -0.526005 0.540218 0
M  V30 2717 H 259.253 -0.694367 1.69855 0
M  V30 2718 H 257.635 -3.26446 2.24163 0
M  V30 2719 H 258.809 -1.38405 4.39523 0
M  V30 2720 H 257.124 -1.40068 3.92135 0
M  V30 2721 H 259.721 -4.13158 3.39418 0
M  V30 2722 H 260.064 -3.79312 1.71546 0
M  V30 2723 H 260.597 -2.64708 2.96942 0
M  V30 2724 H 257.336 -2.71511 5.96625 0
M  V30 2725 H 256.856 -3.79974 4.64091 0
M  V30 2726 H 258.535 -3.80166 5.23529 0
M  V30 2727 N 258.668 -1.30515 -0.883378 0
M  V30 2728 C 259.578 -1.18959 -2.02203 0
M  V30 2729 C 260.594 -0.109172 -1.73657 0
M  V30 2730 O 261.77 -0.324413 -1.9877 0
M  V30 2731 C 258.835 -0.883871 -3.35244 0
M  V30 2732 C 257.896 -2.04982 -3.77201 0
M  V30 2733 C 257.129 -1.75859 -5.03894 0
M  V30 2734 O 257.352 -0.687276 -5.66244 0
M  V30 2735 O 256.286 -2.61146 -5.42297 0
M  V30 2736 H 260.112 -2.14616 -2.1488 0
M  V30 2737 H 257.697 -1.10124 -1.0096 0
M  V30 2738 H 259.579 -0.728644 -4.15053 0
M  V30 2739 H 258.254 0.0427798 -3.23672 0
M  V30 2740 H 257.161 -2.26038 -2.9809 0
M  V30 2741 H 258.494 -2.95825 -3.93381 0
M  V30 2742 N 260.146 1.09593 -1.13257 0
M  V30 2743 C 261.395 1.81105 -0.887917 0
M  V30 2744 C 261.708 1.86563 0.587672 0
M  V30 2745 O 262.914 2.54367 0.949204 0
M  V30 2746 C 261.37 3.25338 -1.53895 0
M  V30 2747 C 260.978 3.28151 -3.04994 0
M  V30 2748 C 262.722 4.01617 -1.37492 0
M  V30 2749 C 260.629 4.66897 -3.6299 0
M  V30 2750 H 259.559 0.678661 -0.328534 0
M  V30 2751 H 262.21 1.23183 -1.36008 0
M  V30 2752 H 260.592 3.8331 -0.994446 0
M  V30 2753 H 261.766 2.79953 -3.66009 0
M  V30 2754 H 260.081 2.65361 -3.20893 0
M  V30 2755 H 262.678 5.04119 -1.78235 0
M  V30 2756 H 263.021 4.15072 -0.31957 0
M  V30 2757 H 263.554 3.50082 -1.88912 0
M  V30 2758 H 260.293 4.58643 -4.68323 0
M  V30 2759 H 259.813 5.15426 -3.06752 0
M  V30 2760 H 261.492 5.3587 -3.62563 0
M  V30 2761 N 261.624 0.925811 1.2754 0
M  V30 2762 C 262.574 0.394488 2.24561 0
M  V30 2763 C 263.558 -0.500183 1.52928 0
M  V30 2764 O 264.75 -0.337936 1.73744 0
M  V30 2765 C 261.879 -0.353328 3.41477 0
M  V30 2766 C 260.965 0.557752 4.20416 0
M  V30 2767 N 261.356 1.67674 4.77199 0
M  V30 2768 C 259.654 0.360404 4.44541 0
M  V30 2769 C 260.355 2.24324 5.36706 0
M  V30 2770 N 259.331 1.53305 5.21535 0
M  V30 2771 H 263.133 1.2489 2.66045 0
M  V30 2772 H 260.647 0.779864 1.4245 0
M  V30 2773 H 262.644 -0.7509 4.10082 0
M  V30 2774 H 261.304 -1.20469 3.01525 0
M  V30 2775 H 262.315 2.05915 4.75204 0
M  V30 2776 H 258.992 -0.450454 4.15063 0
M  V30 2777 H 260.382 3.18521 5.91603 0
M  V30 2778 N 263.102 -1.41638 0.69111 0
M  V30 2779 C 264.065 -2.29178 0.0319786 0
M  V30 2780 C 265.065 -1.44153 -0.712496 0
M  V30 2781 O 266.255 -1.65354 -0.548053 0
M  V30 2782 C 263.387 -3.26952 -0.965161 0
M  V30 2783 H 264.58 -2.88959 0.802681 0
M  V30 2784 H 262.133 -1.4955 0.454356 0
M  V30 2785 H 262.868 -2.72142 -1.76378 0
M  V30 2786 H 262.653 -3.89685 -0.434522 0
M  V30 2787 H 264.143 -3.92561 -1.42428 0
M  V30 2788 N 264.58 -0.43555 -1.51462 0
M  V30 2789 C 265.51 0.367376 -2.30592 0
M  V30 2790 C 266.491 1.02263 -1.35928 0
M  V30 2791 O 267.676 1.02661 -1.64847 0
M  V30 2792 C 264.806 1.46983 -3.14664 0
M  V30 2793 C 263.76 0.938161 -4.17591 0
M  V30 2794 C 263.086 2.13622 -4.90173 0
M  V30 2795 C 264.386 -0.0261621 -5.22293 0
M  V30 2796 H 266.08 -0.292969 -2.97963 0
M  V30 2797 H 263.626 -0.14234 -1.43295 0
M  V30 2798 H 265.579 2.03873 -3.688 0
M  V30 2799 H 264.303 2.15843 -2.4511 0
M  V30 2800 H 262.962 0.391481 -3.64504 0
M  V30 2801 H 262.61 2.81098 -4.17124 0
M  V30 2802 H 262.31 1.78688 -5.59772 0
M  V30 2803 H 263.834 2.7107 -5.47132 0
M  V30 2804 H 265.248 0.452384 -5.71512 0
M  V30 2805 H 263.645 -0.287992 -5.99409 0
M  V30 2806 H 264.715 -0.963391 -4.75233 0
M  V30 2807 N 266.058 1.56714 -0.166846 0
M  V30 2808 C 267.335 1.88412 0.525373 0
M  V30 2809 C 267.715 1.07602 1.81618 0
M  V30 2810 O 267.063 0.168621 2.27877 0
M  V30 2811 C 267.273 3.40363 0.771613 0
M  V30 2812 C 268.621 4.10007 1.1036 0
M  V30 2813 O 269.645 3.45655 0.860304 0
M  V30 2814 O 268.504 5.2369 1.56239 0
M  V30 2815 H 265.598 0.781587 0.270278 0
M  V30 2816 H 268.144 1.68458 -0.204946 0
M  V30 2817 H 266.916 3.91046 -0.141093 0
M  V30 2818 H 266.539 3.65914 1.55541 0
M  V30 2819 N 267.536 -0.106894 1.57237 0
M  V30 2820 C 268.499 -1.11466 2.0027 0
M  V30 2821 C 269.499 -1.33623 0.894519 0
M  V30 2822 O 270.689 -1.29935 1.16028 0
M  V30 2823 C 267.821 -2.46646 2.35327 0
M  V30 2824 H 269.014 -0.744516 2.90512 0
M  V30 2825 H 266.567 -0.351576 1.52295 0
M  V30 2826 H 267.302 -2.88558 1.48003 0
M  V30 2827 H 267.087 -2.31915 3.16161 0
M  V30 2828 H 268.577 -3.19151 2.69318 0
M  V30 2829 N 269.014 -1.53014 -0.377408 0
M  V30 2830 C 270.261 -1.68623 -1.12128 0
M  V30 2831 C 270.589 -0.431997 -1.89642 0
M  V30 2832 O 269.844 0.585855 -1.86725 0
M  V30 2833 C 270.143 -2.87982 -2.11663 0
M  V30 2834 C 269.809 -4.24964 -1.50719 0
M  V30 2835 C 268.471 -4.62217 -1.33825 0
M  V30 2836 C 270.823 -5.10199 -1.06519 0
M  V30 2837 C 268.151 -5.82352 -0.712963 0
M  V30 2838 C 270.503 -6.30969 -0.453955 0
M  V30 2839 C 269.167 -6.66944 -0.272411 0
M  V30 2840 H 268.437 -0.617034 -0.410305 0
M  V30 2841 H 271.084 -1.8718 -0.404484 0
M  V30 2842 H 269.389 -2.63889 -2.89603 0
M  V30 2843 H 271.086 -2.97253 -2.6915 0
M  V30 2844 H 267.676 -3.95626 -1.64858 0
M  V30 2845 H 271.86 -4.81978 -1.18368 0
M  V30 2846 H 267.116 -6.08824 -0.560611 0
M  V30 2847 H 271.29 -6.96324 -0.103217 0
M  V30 2848 H 268.917 -7.59898 0.214181 0
M  V30 2849 N 270.492 0.636531 -1.44174 0
M  V30 2850 C 271.769 1.39463 -1.37148 0
M  V30 2851 C 272.149 2.11082 -0.027507 0
M  V30 2852 O 271.497 2.05954 0.989716 0
M  V30 2853 C 271.707 2.36552 -2.56601 0
M  V30 2854 C 273.055 3.00048 -3.00427 0
M  V30 2855 O 274.079 2.46878 -2.56767 0
M  V30 2856 O 272.938 3.96488 -3.76111 0
M  V30 2857 H 270.032 0.623903 -0.542839 0
M  V30 2858 H 272.578 0.662039 -1.56253 0
M  V30 2859 H 271.35 1.82692 -3.46034 0
M  V30 2860 H 270.973 3.17236 -2.39681 0
M  V30 2861 N 271.97 1.30982 0.876444 0
M  V30 2862 C 273.386 1.09498 1.16113 0
M  V30 2863 C 273.586 -0.13875 2.01022 0
M  V30 2864 O 272.642 -0.829935 2.38471 0
M  V30 2865 C 273.955 2.36308 1.85954 0
M  V30 2866 C 275.503 2.41856 1.98683 0
M  V30 2867 C 275.978 3.6853 2.71937 0
M  V30 2868 N 277.469 3.69387 2.79477 0
M  V30 2869 C 278.204 4.64096 3.36753 0
M  V30 2870 N 277.7 5.69155 3.95012 0
M  V30 2871 N 279.493 4.51626 3.3465 0
M  V30 2872 H 271.644 2.10118 0.310494 0
M  V30 2873 H 273.907 0.926634 0.200131 0
M  V30 2874 H 273.613 3.26388 1.31011 0
M  V30 2875 H 273.487 2.4561 2.86278 0
M  V30 2876 H 275.874 1.52249 2.52793 0
M  V30 2877 H 275.955 2.36523 0.9742 0
M  V30 2878 H 275.599 4.58499 2.18496 0
M  V30 2879 H 275.529 3.71127 3.73593 0
M  V30 2880 H 278.02 2.93438 2.38123 0
M  V30 2881 H 278.333 6.3751 4.36808 0
M  V30 2882 H 276.678 5.72937 3.93406 0
M  V30 2883 H 279.869 3.68728 2.8837 0
M  V30 2884 H 280.042 5.25614 3.7899 0
M  V30 2885 N 273.449 -1.08991 1.13837 0
M  V30 2886 C 274.677 -1.85011 0.926202 0
M  V30 2887 C 275.092 -1.8135 -0.525127 0
M  V30 2888 O 274.449 -1.21287 -1.36366 0
M  V30 2889 C 274.5 -3.32802 1.41155 0
M  V30 2890 O 274.221 -3.36444 2.80601 0
M  V30 2891 C 275.722 -4.25649 1.23847 0
M  V30 2892 H 272.942 -0.584249 0.32999 0
M  V30 2893 H 275.486 -1.37688 1.51202 0
M  V30 2894 H 273.641 -3.77536 0.868631 0
M  V30 2895 H 274.055 -4.28657 3.02248 0
M  V30 2896 H 275.529 -5.27485 1.62675 0
M  V30 2897 H 276.006 -4.38828 0.18065 0
M  V30 2898 H 276.612 -3.86735 1.76964 0
M  V30 2899 N 274.927 -0.932562 -1.27047 0
M  V30 2900 C 275.89 -0.440064 -2.24936 0
M  V30 2901 C 276.89 0.444071 -1.54547 0
M  V30 2902 O 278.08 0.244465 -1.72476 0
M  V30 2903 C 275.212 0.36678 -3.38921 0
M  V30 2904 H 276.405 -1.305 -2.70018 0
M  V30 2905 H 273.958 -0.713707 -1.39054 0
M  V30 2906 H 274.693 1.25033 -2.99228 0
M  V30 2907 H 274.478 -0.267204 -3.91188 0
M  V30 2908 H 275.968 0.701567 -4.11665 0
M  V30 2909 N 276.405 1.4127 -0.698611 0
M  V30 2910 C 277.335 2.33447 -0.049629 0
M  V30 2911 C 278.316 1.51982 0.763898 0
M  V30 2912 O 279.501 1.80509 0.716257 0
M  V30 2913 C 276.631 3.35828 0.885267 0
M  V30 2914 C 275.585 4.27627 0.178613 0
M  V30 2915 C 274.911 5.20406 1.22807 0
M  V30 2916 C 276.211 5.13459 -0.956933 0
M  V30 2917 H 277.905 2.87966 -0.81951 0
M  V30 2918 H 275.451 1.38461 -0.395538 0
M  V30 2919 H 277.404 3.9924 1.34854 0
M  V30 2920 H 276.128 2.79666 1.68685 0
M  V30 2921 H 274.787 3.65643 -0.26466 0
M  V30 2922 H 274.435 4.60558 2.02226 0
M  V30 2923 H 274.135 5.82661 0.760239 0
M  V30 2924 H 275.659 5.86695 1.69179 0
M  V30 2925 H 277.073 5.70421 -0.573805 0
M  V30 2926 H 275.47 5.8467 -1.35205 0
M  V30 2927 H 276.54 4.50443 -1.79524 0
M  V30 2928 N 277.883 0.443576 1.51229 0
M  V30 2929 C 279.132 -0.122332 2.01329 0
M  V30 2930 C 279.445 -1.43237 1.33201 0
M  V30 2931 O 280.651 -2.0816 1.74304 0
M  V30 2932 C 279.107 -0.268551 3.58897 0
M  V30 2933 C 278.715 1.03142 4.35965 0
M  V30 2934 C 280.459 -0.787894 4.17124 0
M  V30 2935 C 278.366 0.850504 5.85252 0
M  V30 2936 H 277.296 -0.0494929 0.752374 0
M  V30 2937 H 279.947 0.574289 1.74282 0
M  V30 2938 H 278.329 -1.02832 3.82415 0
M  V30 2939 H 279.503 1.80001 4.24189 0
M  V30 2940 H 277.818 1.47977 3.89219 0
M  V30 2941 H 280.415 -0.939841 5.26375 0
M  V30 2942 H 280.758 -1.77201 3.76703 0
M  V30 2943 H 281.291 -0.0862669 3.97706 0
M  V30 2944 H 278.03 1.80718 6.30096 0
M  V30 2945 H 277.55 0.121825 5.99676 0
M  V30 2946 H 279.229 0.506163 6.45017 0
M  V30 2947 N 279.361 -1.56624 0.175154 0
M  V30 2948 C 280.589 -2.01374 -0.474971 0
M  V30 2949 C 281.004 -1.05537 -1.56548 0
M  V30 2950 O 280.361 -0.0568668 -1.82411 0
M  V30 2951 C 280.412 -3.45923 -1.04975 0
M  V30 2952 O 280.133 -4.381 -0.00276605 0
M  V30 2953 C 281.634 -4.06093 -1.77773 0
M  V30 2954 H 278.854 -0.659962 -0.121206 0
M  V30 2955 H 281.398 -2.02601 0.27801 0
M  V30 2956 H 279.553 -3.45458 -1.75321 0
M  V30 2957 H 279.967 -5.22753 -0.427681 0
M  V30 2958 H 281.441 -5.09147 -2.13245 0
M  V30 2959 H 281.918 -3.48405 -2.67414 0
M  V30 2960 H 282.524 -4.10272 -1.12059 0
M  V30 2961 N 280.839 0.0985539 -1.57292 0
M  V30 2962 C 281.769 1.12064 -2.04851 0
M  V30 2963 C 282.75 1.41981 -0.936767 0
M  V30 2964 O 283.935 1.52071 -1.20781 0
M  V30 2965 C 281.065 2.44144 -2.47004 0
M  V30 2966 C 280.019 2.28643 -3.6181 0
M  V30 2967 C 279.345 3.65869 -3.89929 0
M  V30 2968 C 280.645 1.72986 -4.92822 0
M  V30 2969 H 282.339 0.724979 -2.9049 0
M  V30 2970 H 279.885 0.34729 -1.39749 0
M  V30 2971 H 281.838 3.15914 -2.78884 0
M  V30 2972 H 280.562 2.85639 -1.5836 0
M  V30 2973 H 279.221 1.59318 -3.30172 0
M  V30 2974 H 278.869 4.04885 -2.98458 0
M  V30 2975 H 278.569 3.56344 -4.67218 0
M  V30 2976 H 280.093 4.39112 -4.2428 0
M  V30 2977 H 281.507 2.34593 -5.23105 0
M  V30 2978 H 279.904 1.74229 -5.74251 0
M  V30 2979 H 280.974 0.689007 -4.7998 0
M  V30 2980 N 282.317 1.53212 0.369288 0
M  V30 2981 C 283.728 1.60943 0.946276 0
M  V30 2982 C 284.079 0.47452 1.90375 0
M  V30 2983 O 283.204 -0.399597 2.12679 0
M  V30 2984 C 283.799 2.91715 1.72302 0
M  V30 2985 C 282.358 3.01792 2.24941 0
M  V30 2986 C 281.505 2.56211 1.06072 0
M  V30 2987 H 284.456 1.58007 0.148198 0
M  V30 2988 H 284.477 2.79309 2.58393 0
M  V30 2989 H 283.989 3.74295 1.0259 0
M  V30 2990 H 282.09 2.23791 2.97906 0
M  V30 2991 H 282.203 4.06803 2.53077 0
M  V30 2992 H 280.567 2.10998 1.4266 0
M  V30 2993 H 281.35 3.41206 0.378639 0
M  V30 2994 N 283.795 -0.628877 1.44509 0
M  V30 2995 C 284.758 -1.72263 1.51188 0
M  V30 2996 C 285.758 -1.55907 0.39367 0
M  V30 2997 O 286.948 -1.61361 0.656377 0
M  V30 2998 C 284.08 -3.11365 1.38798 0
M  V30 2999 H 285.273 -1.67714 2.4862 0
M  V30 3000 H 282.826 -0.842737 1.31634 0
M  V30 3001 H 283.561 -3.21507 0.424693 0
M  V30 3002 H 283.346 -3.24644 2.19884 0
M  V30 3003 H 284.836 -3.91075 1.46458 0
M  V30 3004 N 285.273 -1.31445 -0.869486 0
M  V30 3005 C 286.55 -1.11795 -1.60503 0
M  V30 3006 C 286.93 0.327168 -2.08549 0
M  V30 3007 O 286.278 1.32135 -1.8642 0
M  V30 3008 C 286.488 -2.13258 -2.76265 0
M  V30 3009 C 287.836 -2.45805 -3.46215 0
M  V30 3010 O 288.86 -2.11688 -2.86473 0
M  V30 3011 O 287.719 -3.04228 -4.5399 0
M  V30 3012 H 284.813 -0.430421 -0.706163 0
M  V30 3013 H 287.359 -1.42925 -0.914907 0
M  V30 3014 H 286.131 -3.10461 -2.3818 0
M  V30 3015 H 285.754 -1.83035 -3.52964 0
M  V30 3016 N 286.751 1.08385 -1.14413 0
M  V30 3017 C 287.683 2.1519 -0.789036 0
M  V30 3018 C 288.696 1.61638 0.19417 0
M  V30 3019 O 289.885 1.78479 -0.0275711 0
M  V30 3020 C 286.985 3.38565 -0.15058 0
M  V30 3021 C 286.158 4.21501 -1.16857 0
M  V30 3022 C 285.217 5.23277 -0.553832 0
M  V30 3023 O 284.243 5.56041 -1.21686 0
M  V30 3024 N 285.445 5.76629 0.669296 0
M  V30 3025 H 288.21 2.46257 -1.70814 0
M  V30 3026 H 285.771 1.24198 -1.03858 0
M  V30 3027 H 287.763 4.03777 0.273181 0
M  V30 3028 H 286.333 3.05299 0.671667 0
M  V30 3029 H 285.553 3.52265 -1.76926 0
M  V30 3030 H 286.841 4.73731 -1.85624 0
M  V30 3031 H 286.239 5.52243 1.22654 0
M  V30 3032 H 284.796 6.43521 1.03556 0
M  V30 3033 N 288.23 0.939286 1.26551 0
M  V30 3034 C 289.177 0.446088 2.26448 0
M  V30 3035 C 290.147 -0.493234 1.58608 0
M  V30 3036 O 291.332 -0.409857 1.86346 0
M  V30 3037 C 288.472 -0.284375 3.43926 0
M  V30 3038 C 287.585 0.690399 4.26448 0
M  V30 3039 C 286.72 -0.0610712 5.31165 0
M  V30 3040 C 285.759 0.905649 6.05363 0
M  V30 3041 N 284.896 0.186055 7.01853 0
M  V30 3042 H 289.736 1.30291 2.68008 0
M  V30 3043 H 287.273 0.65371 1.31776 0
M  V30 3044 H 289.231 -0.724313 4.10864 0
M  V30 3045 H 287.861 -1.10535 3.03285 0
M  V30 3046 H 286.913 1.24885 3.59316 0
M  V30 3047 H 288.225 1.42873 4.779 0
M  V30 3048 H 287.379 -0.56038 6.04106 0
M  V30 3049 H 286.118 -0.832297 4.80546 0
M  V30 3050 H 285.123 1.4161 5.3125 0
M  V30 3051 H 286.348 1.67685 6.58072 0
M  V30 3052 H 284.294 -0.566714 6.53548 0
M  V30 3053 H 284.211 0.863752 7.51049 0
M  V30 3054 H 285.479 -0.292221 7.78952 0
M  V30 3055 N 289.708 -1.40897 0.706093 0
M  V30 3056 C 290.671 -2.29131 0.0562841 0
M  V30 3057 C 291.671 -1.44901 -0.697166 0
M  V30 3058 O 292.861 -1.65926 -0.530484 0
M  V30 3059 C 289.993 -3.27957 -0.93043 0
M  V30 3060 H 291.186 -2.88091 0.833284 0
M  V30 3061 H 288.739 -1.4906 0.470192 0
M  V30 3062 H 289.474 -2.73997 -1.73482 0
M  V30 3063 H 289.259 -3.90124 -0.393166 0
M  V30 3064 H 290.749 -3.94049 -1.38256 0
M  V30 3065 N 291.186 -0.45159 -1.50991 0
M  V30 3066 C 292.149 0.341117 -2.26647 0
M  V30 3067 C 293.149 0.937422 -1.30649 0
M  V30 3068 O 294.339 0.809644 -1.54241 0
M  V30 3069 C 291.471 1.48398 -3.06905 0
M  V30 3070 H 292.664 -0.322117 -2.98165 0
M  V30 3071 H 290.217 -0.205122 -1.54948 0
M  V30 3072 H 290.952 2.18284 -2.39838 0
M  V30 3073 H 290.737 1.06241 -3.77432 0
M  V30 3074 H 292.227 2.04367 -3.64176 0
M  V30 3075 N 292.664 1.56529 -0.183458 0
M  V30 3076 C 293.912 1.96855 0.457452 0
M  V30 3077 C 294.233 1.07104 1.62953 0
M  V30 3078 O 293.503 0.139887 1.954 0
M  V30 3079 H 292.083 0.72693 0.171992 0
M  V30 3080 H 294.745 1.93056 -0.267476 0
M  V30 3081 H 293.841 3.01423 0.809368 0
M  V30 3082 N 294.142 -0.090211 1.57342 0
M  V30 3083 C 295.388 -0.793982 1.86611 0
M  V30 3084 C 295.721 -1.78142 0.773252 0
M  V30 3085 O 294.996 -1.93271 -0.218304 0
M  V30 3086 C 295.279 -1.51839 3.26523 0
M  V30 3087 C 295.132 -0.548609 4.46442 0
M  V30 3088 C 296.451 -2.46779 3.64401 0
M  V30 3089 H 293.57 -0.287186 0.678744 0
M  V30 3090 H 296.212 -0.0575076 1.89913 0
M  V30 3091 H 294.362 -2.14617 3.23839 0
M  V30 3092 H 296.034 0.0725513 4.61243 0
M  V30 3093 H 294.277 0.137614 4.33582 0
M  V30 3094 H 294.948 -1.09271 5.41076 0
M  V30 3095 H 297.424 -1.94089 3.68061 0
M  V30 3096 H 296.3 -2.94479 4.63221 0
M  V30 3097 H 296.561 -3.30758 2.93346 0
M  V30 3098 N 295.62 -1.53406 -0.361157 0
M  V30 3099 C 296.55 -1.83136 -1.44857 0
M  V30 3100 C 297.531 -0.685174 -1.5569 0
M  V30 3101 O 298.716 -0.93544 -1.70186 0
M  V30 3102 C 295.846 -2.02522 -2.82138 0
M  V30 3103 C 294.8 -3.18302 -2.86126 0
M  V30 3104 C 294.126 -3.22989 -4.26125 0
M  V30 3105 C 295.426 -4.56796 -2.53248 0
M  V30 3106 H 297.12 -2.74201 -1.20226 0
M  V30 3107 H 294.666 -1.31938 -0.576922 0
M  V30 3108 H 296.619 -2.21904 -3.58241 0
M  V30 3109 H 295.343 -1.08172 -3.08166 0
M  V30 3110 H 294.002 -2.98747 -2.12475 0
M  V30 3111 H 293.65 -2.26267 -4.49235 0
M  V30 3112 H 293.35 -4.00781 -4.29708 0
M  V30 3113 H 294.874 -3.44559 -5.04094 0
M  V30 3114 H 296.288 -4.7631 -3.19064 0
M  V30 3115 H 294.685 -5.36862 -2.68141 0
M  V30 3116 H 295.755 -4.61606 -1.48484 0
M  V30 3117 N 297.098 0.621204 -1.44841 0
M  V30 3118 C 298.509 1.20298 -1.42777 0
M  V30 3119 C 298.86 1.95639 -0.148259 0
M  V30 3120 O 297.985 2.02955 0.750892 0
M  V30 3121 C 298.58 2.1882 -2.58657 0
M  V30 3122 C 297.139 2.72403 -2.59756 0
M  V30 3123 C 296.286 1.4757 -2.34773 0
M  V30 3124 H 299.237 0.411297 -1.53278 0
M  V30 3125 H 299.258 3.01607 -2.31977 0
M  V30 3126 H 298.77 1.63957 -3.51766 0
M  V30 3127 H 296.871 3.31242 -1.70615 0
M  V30 3128 H 296.984 3.17765 -3.58556 0
M  V30 3129 H 295.348 1.76051 -1.8406 0
M  V30 3130 H 296.131 0.945954 -3.3001 0
M  V30 3131 N 298.576 1.31904 0.862503 0
M  V30 3132 C 299.853 1.12644 1.59908 0
M  V30 3133 C 300.233 -0.316104 2.0872 0
M  V30 3134 O 299.581 -1.31145 1.87118 0
M  V30 3135 C 299.791 2.1472 2.7513 0
M  V30 3136 C 301.139 2.47637 3.44907 0
M  V30 3137 O 302.163 2.13205 2.85346 0
M  V30 3138 O 301.022 3.06632 4.52371 0
M  V30 3139 H 298.116 0.43416 0.703871 0
M  V30 3140 H 300.662 1.43408 0.907314 0
M  V30 3141 H 299.434 3.1172 2.3653 0
M  V30 3142 H 299.057 1.84905 3.51989 0
M  V30 3143 N 300.054 -1.07777 1.14986 0
M  V30 3144 C 301.302 -1.79934 0.920235 0
M  V30 3145 C 301.623 -1.86955 -0.554336 0
M  V30 3146 O 300.893 -1.36731 -1.40291 0
M  V30 3147 H 299.473 -0.666424 0.337473 0
M  V30 3148 H 302.135 -1.3027 1.44968 0
M  V30 3149 H 301.231 -2.82539 1.32583 0
M  V30 3150 N 301.532 -0.945985 -1.26051 0
M  V30 3151 C 302.465 -0.403619 -2.24602 0
M  V30 3152 C 303.443 0.510241 -1.54387 0
M  V30 3153 O 304.627 0.446593 -1.83133 0
M  V30 3154 C 301.754 0.419564 -3.36091 0
M  V30 3155 C 300.8 -0.433454 -4.24292 0
M  V30 3156 S 301.633 -1.86037 -5.02146 0
M  V30 3157 C 302.789 -1.04538 -6.17108 0
M  V30 3158 H 303.022 -1.23883 -2.7026 0
M  V30 3159 H 300.555 -0.749438 -1.34992 0
M  V30 3160 H 302.513 0.888595 -4.00767 0
M  V30 3161 H 301.174 1.22951 -2.89036 0
M  V30 3162 H 300.367 0.197486 -5.03613 0
M  V30 3163 H 299.969 -0.837357 -3.64506 0
M  V30 3164 H 302.261 -0.289923 -6.76879 0
M  V30 3165 H 303.204 -1.81222 -6.84518 0
M  V30 3166 H 303.612 -0.579319 -5.61519 0
M  V30 3167 N 303.011 1.40521 -0.713556 0
M  V30 3168 C 304.288 1.94775 -0.17943 0
M  V30 3169 C 304.668 1.65184 1.31444 0
M  V30 3170 O 304.016 0.968429 2.06963 0
M  V30 3171 C 304.226 3.45543 -0.489986 0
M  V30 3172 C 305.574 4.22442 -0.427536 0
M  V30 3173 O 306.598 3.53644 -0.425929 0
M  V30 3174 O 305.457 5.4501 -0.403292 0
M  V30 3175 H 302.551 0.826606 -0.0255192 0
M  V30 3176 H 305.097 1.5014 -0.790949 0
M  V30 3177 H 303.869 3.60432 -1.5233 0
M  V30 3178 H 303.492 3.97311 0.151598 0
M  V30 3179 N 304.489 0.459591 1.5075 0
M  V30 3180 C 305.766 -0.160371 1.94941 0
M  V30 3181 C 306.146 -1.58048 1.39943 0
M  V30 3182 O 305.494 -2.206 0.595629 0
M  V30 3183 C 305.704 -0.115432 3.48809 0
M  V30 3184 C 307.052 -0.310026 4.23467 0
M  V30 3185 O 308.076 -0.192543 3.55679 0
M  V30 3186 O 306.935 -0.546031 5.43765 0
M  V30 3187 H 304.029 -0.117925 0.818549 0
M  V30 3188 H 306.575 0.519169 1.61563 0
M  V30 3189 H 305.347 0.87652 3.81357 0
M  V30 3190 H 304.97 -0.836928 3.88692 0
M  V30 3191 N 305.967 -1.56429 0.191757 0
M  V30 3192 C 307.383 -1.58754 -0.164137 0
M  V30 3193 C 307.583 -1.20782 -1.61288 0
M  V30 3194 O 306.639 -0.928999 -2.34789 0
M  V30 3195 C 307.952 -3.00396 0.135195 0
M  V30 3196 C 309.5 -3.1291 0.0750351 0
M  V30 3197 C 309.975 -4.56679 0.347632 0
M  V30 3198 N 311.466 -4.62252 0.296131 0
M  V30 3199 C 312.201 -5.71379 0.480948 0
M  V30 3200 N 311.697 -6.88986 0.725933 0
M  V30 3201 N 313.49 -5.60563 0.415435 0
M  V30 3202 H 305.641 -1.79393 1.13718 0
M  V30 3203 H 307.904 -0.832414 0.453643 0
M  V30 3204 H 307.61 -3.32726 1.13958 0
M  V30 3205 H 307.484 -3.72963 -0.563773 0
M  V30 3206 H 309.871 -2.80394 -0.919948 0
M  V30 3207 H 309.952 -2.42736 0.807029 0
M  V30 3208 H 309.596 -4.89907 1.33992 0
M  V30 3209 H 309.526 -5.25039 -0.405212 0
M  V30 3210 H 312.017 -3.7773 0.113259 0
M  V30 3211 H 312.33 -7.68046 0.855857 0
M  V30 3212 H 310.675 -6.90801 0.762788 0
M  V30 3213 H 313.866 -4.67561 0.224486 0
M  V30 3214 H 314.039 -6.45551 0.562889 0
M  V30 3215 N 307.445 0.0818655 -1.57387 0
M  V30 3216 C 308.408 1.08265 -2.02018 0
M  V30 3217 C 309.408 1.32183 -0.915664 0
M  V30 3218 O 310.598 1.28073 -1.18081 0
M  V30 3219 C 307.73 2.42871 -2.39221 0
M  V30 3220 H 308.923 0.698204 -2.91659 0
M  V30 3221 H 306.476 0.327303 -1.52835 0
M  V30 3222 H 307.211 2.86167 -1.52575 0
M  V30 3223 H 306.996 2.26855 -3.19811 0
M  V30 3224 H 308.486 3.14826 -2.74362 0
M  V30 3225 N 308.923 1.53595 0.353017 0
M  V30 3226 C 310.169 1.70638 1.09593 0
M  V30 3227 C 310.502 0.463286 1.88593 0
M  V30 3228 O 309.777 -0.539597 1.86865 0
M  V30 3229 C 310.06 2.96406 2.04489 0
M  V30 3230 C 309.913 4.30901 1.29014 0
M  V30 3231 C 311.232 3.17812 3.0444 0
M  V30 3232 H 308.351 0.620913 0.397034 0
M  V30 3233 H 310.993 1.86254 0.375446 0
M  V30 3234 H 309.143 2.83223 2.65927 0
M  V30 3235 H 310.815 4.55917 0.702638 0
M  V30 3236 H 309.058 4.29741 0.592071 0
M  V30 3237 H 309.729 5.1506 1.98537 0
M  V30 3238 H 312.205 3.30263 2.53112 0
M  V30 3239 H 311.081 4.07223 3.6805 0
M  V30 3240 H 311.342 2.33669 3.75301 0
M  V30 3241 N 310.401 -0.613514 1.45168 0
M  V30 3242 C 311.349 -1.74572 1.53712 0
M  V30 3243 C 312.343 -1.64426 0.407505 0
M  V30 3244 O 313.549 -1.70291 0.583176 0
M  V30 3245 H 309.924 -0.576641 0.48269 0
M  V30 3246 H 311.895 -1.64492 2.48968 0
M  V30 3247 C 310.644 -3.12943 1.51532 0
M  V30 3248 H 309.967 -3.21407 2.37776 0
M  V30 3249 H 311.407 -3.9201 1.61569 0
M  V30 3250 C 309.866 -3.36053 0.238798 0
M  V30 3251 O 310.396 -3.95837 -0.6838 0
M  V30 3252 N 308.602 -2.9028 0.136359 0
M  V30 3253 H 308.149 -2.41811 0.887999 0
M  V30 3254 H 308.107 -3.06116 -0.716944 0
M  V30 3255 N 311.879 -1.3236 -0.855495 0
M  V30 3256 C 313.109 -1.25688 -1.6397 0
M  V30 3257 C 313.517 0.177592 -1.88365 0
M  V30 3258 O 312.86 1.12485 -1.45234 0
M  V30 3259 C 312.922 -1.94602 -3.02275 0
M  V30 3260 C 312.586 -3.43937 -3.00926 0
M  V30 3261 C 313.583 -4.39435 -2.77835 0
M  V30 3262 C 311.268 -3.85858 -3.21588 0
M  V30 3263 C 313.262 -5.74829 -2.75409 0
M  V30 3264 C 310.949 -5.21361 -3.18789 0
M  V30 3265 C 311.947 -6.15658 -2.95727 0
M  V30 3266 O 311.635 -7.48681 -2.928 0
M  V30 3267 H 311.367 -0.434972 -0.51747 0
M  V30 3268 H 313.921 -1.75023 -1.075 0
M  V30 3269 H 312.151 -1.39836 -3.60531 0
M  V30 3270 H 313.84 -1.81651 -3.62985 0
M  V30 3271 H 314.606 -4.08374 -2.6164 0
M  V30 3272 H 310.485 -3.12883 -3.38564 0
M  V30 3273 H 314.029 -6.48404 -2.57328 0
M  V30 3274 H 309.926 -5.52052 -3.34528 0
M  V30 3275 H 310.694 -7.5803 -3.0876 0
M  V30 3276 N 313.357 1.07166 -1.15556 0
M  V30 3277 C 314.287 2.16403 -0.877046 0
M  V30 3278 C 315.268 1.69217 0.173111 0
M  V30 3279 O 316.453 1.94181 0.027084 0
M  V30 3280 C 313.583 3.45349 -0.367632 0
M  V30 3281 C 312.537 4.05995 -1.35468 0
M  V30 3282 C 311.863 5.30045 -0.704038 0
M  V30 3283 C 313.163 4.45804 -2.72132 0
M  V30 3284 H 314.857 2.39959 -1.79053 0
M  V30 3285 H 312.403 1.15325 -0.862331 0
M  V30 3286 H 314.356 4.21095 -0.160317 0
M  V30 3287 H 313.08 3.21385 0.581326 0
M  V30 3288 H 311.739 3.32296 -1.54839 0
M  V30 3289 H 311.387 5.02373 0.251128 0
M  V30 3290 H 311.087 5.71579 -1.36277 0
M  V30 3291 H 312.611 6.08495 -0.50654 0
M  V30 3292 H 314.025 5.12671 -2.56595 0
M  V30 3293 H 312.422 4.98296 -3.34397 0
M  V30 3294 H 313.492 3.57083 -3.28054 0
M  V30 3295 N 314.835 0.952656 1.25548 0
M  V30 3296 C 316.082 0.606373 1.93208 0
M  V30 3297 C 316.41 -0.85631 1.74636 0
M  V30 3298 O 315.665 -1.62951 1.08376 0
M  V30 3299 C 315.964 0.908818 3.45652 0
M  V30 3300 C 315.63 2.35722 3.84378 0
M  V30 3301 C 314.292 2.75312 3.9466 0
M  V30 3302 C 316.644 3.29793 4.03591 0
M  V30 3303 C 313.972 4.08047 4.21562 0
M  V30 3304 C 316.324 4.62138 4.31985 0
M  V30 3305 C 314.988 5.01528 4.40484 0
M  V30 3306 H 314.258 0.221888 0.706998 0
M  V30 3307 H 316.905 1.20132 1.49133 0
M  V30 3308 H 315.21 0.231456 3.91116 0
M  V30 3309 H 316.907 0.619498 3.96186 0
M  V30 3310 H 313.497 2.04017 3.76928 0
M  V30 3311 H 317.681 3.00397 3.95064 0
M  V30 3312 H 312.937 4.38212 4.26357 0
M  V30 3313 H 317.111 5.35012 4.45797 0
M  V30 3314 H 314.738 6.04406 4.61083 0
M  V30 3315 N 316.313 -1.40141 0.720998 0
M  V30 3316 C 317.26 -2.30688 0.071919 0
M  V30 3317 C 318.23 -1.48476 -0.744584 0
M  V30 3318 O 319.415 -1.77201 -0.707423 0
M  V30 3319 C 316.555 -3.34724 -0.839855 0
M  V30 3320 C 315.668 -4.31998 -0.0122438 0
M  V30 3321 C 314.803 -5.23102 -0.923995 0
M  V30 3322 C 313.842 -6.12033 -0.0907969 0
M  V30 3323 N 312.979 -6.95537 -0.957718 0
M  V30 3324 H 317.819 -2.85628 0.849755 0
M  V30 3325 H 315.356 -1.40653 0.430726 0
M  V30 3326 H 317.314 -3.93618 -1.38279 0
M  V30 3327 H 315.944 -2.81274 -1.58381 0
M  V30 3328 H 314.996 -3.74841 0.64794 0
M  V30 3329 H 316.308 -4.94772 0.632595 0
M  V30 3330 H 315.462 -5.86953 -1.53527 0
M  V30 3331 H 314.201 -4.60615 -1.60264 0
M  V30 3332 H 313.206 -5.47207 0.533377 0
M  V30 3333 H 314.431 -6.76581 0.584428 0
M  V30 3334 H 312.377 -6.35633 -1.62192 0
M  V30 3335 H 312.294 -7.55099 -0.36904 0
M  V30 3336 H 313.562 -7.63832 -1.555 0
M  V30 3337 N 317.792 -0.46758 -1.50504 0
M  V30 3338 C 319.02 0.0864133 -2.06719 0
M  V30 3339 C 319.435 1.33819 -1.33184 0
M  V30 3340 O 318.792 1.78061 -0.400083 0
M  V30 3341 C 318.843 0.378079 -3.59517 0
M  V30 3342 O 318.564 -0.824044 -4.3028 0
M  V30 3343 C 320.065 0.979426 -4.32345 0
M  V30 3344 H 317.285 -0.00551697 -0.670977 0
M  V30 3345 H 319.829 -0.655354 -1.93715 0
M  V30 3346 H 317.984 1.06977 -3.72337 0
M  V30 3347 H 318.398 -0.566518 -5.21432 0
M  V30 3348 H 319.872 1.1333 -5.40241 0
M  V30 3349 H 320.349 1.9686 -3.9261 0
M  V30 3350 H 320.955 0.326216 -4.24047 0
M  V30 3351 N 319.27 1.56325 -0.20005 0
M  V30 3352 C 320.681 1.8408 0.31167 0
M  V30 3353 C 321.032 1.12087 1.61031 0
M  V30 3354 O 320.157 0.38332 2.12978 0
M  V30 3355 C 320.752 3.33932 0.57226 0
M  V30 3356 C 319.311 3.6208 1.02834 0
M  V30 3357 C 318.458 2.77186 0.079634 0
M  V30 3358 H 321.409 1.52939 -0.423729 0
M  V30 3359 H 321.43 3.52971 1.42096 0
M  V30 3360 H 320.942 3.86303 -0.37308 0
M  V30 3361 H 319.043 3.15147 1.98778 0
M  V30 3362 H 319.156 4.7023 0.917624 0
M  V30 3363 H 317.52 2.47951 0.582448 0
M  V30 3364 H 318.303 3.32347 -0.860238 0
M  V30 3365 N 320.748 -0.0735177 1.57428 0
M  V30 3366 C 321.996 -0.771472 1.86796 0
M  V30 3367 C 322.317 -1.78201 0.791804 0
M  V30 3368 O 321.587 -1.95074 -0.179718 0
M  V30 3369 H 320.167 -0.28791 0.689287 0
M  V30 3370 H 322.829 -0.0500161 1.94836 0
M  V30 3371 H 321.925 -1.28874 2.8425 0
M  V30 3372 N 322.226 -1.5378 -0.344866 0
M  V30 3373 C 323.474 -1.70625 -1.08311 0
M  V30 3374 C 323.795 -0.471447 -1.89215 0
M  V30 3375 O 323.065 0.514616 -1.8902 0
M  V30 3376 H 321.645 -0.629058 -0.402859 0
M  V30 3377 H 324.307 -1.9103 -0.386459 0
M  V30 3378 H 323.403 -2.57656 -1.76124 0
M  V30 3379 N 323.704 0.605807 -1.45491 0
M  V30 3380 C 324.929 1.39625 -1.53361 0
M  V30 3381 C 325.354 1.87351 -0.167645 0
M  V30 3382 O 324.712 1.60243 0.848051 0
M  V30 3383 C 324.76 2.57559 -2.5238 0
M  V30 3384 O 323.864 3.58248 -2.04285 0
M  V30 3385 H 323.205 0.416771 -0.516912 0
M  V30 3386 H 325.735 0.737103 -1.90861 0
M  V30 3387 H 325.745 3.0478 -2.71244 0
M  V30 3388 H 324.42 2.22171 -3.51586 0
M  V30 3389 H 322.997 3.17664 -1.95305 0
M  V30 3390 N 325.182 1.32811 0.848464 0
M  V30 3391 C 326.112 1.24882 1.97299 0
M  V30 3392 C 327.093 0.131357 1.69592 0
M  V30 3393 O 328.278 0.319553 1.91553 0
M  V30 3394 C 325.408 0.97746 3.33261 0
M  V30 3395 C 324.362 2.05682 3.75338 0
M  V30 3396 C 323.688 1.63777 5.09 0
M  V30 3397 C 324.988 3.47254 3.90144 0
M  V30 3398 H 326.682 2.18966 2.04191 0
M  V30 3399 H 324.228 1.05413 0.981029 0
M  V30 3400 H 326.181 0.908513 4.1149 0
M  V30 3401 H 324.905 0.000980011 3.266 0
M  V30 3402 H 323.564 2.11603 2.99366 0
M  V30 3403 H 323.212 0.648569 4.98801 0
M  V30 3404 H 322.912 2.36 5.38124 0
M  V30 3405 H 324.436 1.5833 5.89715 0
M  V30 3406 H 325.85 3.43888 4.58709 0
M  V30 3407 H 324.247 4.1788 4.30693 0
M  V30 3408 H 325.317 3.86462 2.92874 0
M  V30 3409 N 326.66 -1.06551 1.16123 0
M  V30 3410 C 327.89 -1.8274 0.963838 0
M  V30 3411 C 328.298 -1.82712 -0.491228 0
M  V30 3412 O 327.641 -1.24294 -1.35265 0
M  V30 3413 C 327.703 -3.3065 1.41106 0
M  V30 3414 C 327.367 -3.54384 2.88549 0
M  V30 3415 C 328.364 -3.4765 3.86569 0
M  V30 3416 C 326.049 -3.81789 3.26408 0
M  V30 3417 C 328.043 -3.67982 5.2045 0
M  V30 3418 C 325.73 -4.01772 4.60459 0
M  V30 3419 C 326.728 -3.94866 5.57288 0
M  V30 3420 O 326.416 -4.14306 6.88916 0
M  V30 3421 H 326.148 -0.583136 0.341948 0
M  V30 3422 H 328.702 -1.35351 1.54497 0
M  V30 3423 H 326.932 -3.78887 0.773394 0
M  V30 3424 H 328.621 -3.88324 1.1815 0
M  V30 3425 H 329.387 -3.2647 3.58667 0
M  V30 3426 H 325.266 -3.86276 2.51619 0
M  V30 3427 H 328.81 -3.62507 5.96015 0
M  V30 3428 H 324.707 -4.2244 4.88072 0
M  V30 3429 H 325.475 -4.31609 6.95454 0
M  V30 3430 N 328.138 -0.959301 -1.25041 0
M  V30 3431 C 329.088 -0.453888 -2.23436 0
M  V30 3432 C 330.072 0.459461 -1.542 0
M  V30 3433 O 331.264 0.291752 -1.74579 0
M  V30 3434 C 328.393 0.262667 -3.42294 0
M  V30 3435 C 327.479 -0.669022 -4.1879 0
M  V30 3436 N 327.87 -1.80267 -4.72586 0
M  V30 3437 C 326.168 -0.47814 -4.4343 0
M  V30 3438 C 326.869 -2.38475 -5.3057 0
M  V30 3439 N 325.845 -1.67078 -5.17287 0
M  V30 3440 H 329.647 -1.319 -2.6264 0
M  V30 3441 H 327.161 -0.817358 -1.40332 0
M  V30 3442 H 329.158 0.641911 -4.11929 0
M  V30 3443 H 327.818 1.12432 -3.04613 0
M  V30 3444 H 328.829 -2.18442 -4.69578 0
M  V30 3445 H 325.506 0.340249 -4.16111 0
M  V30 3446 H 326.896 -3.34094 -5.8295 0
M  V30 3447 N 329.616 1.39756 -0.72842 0
M  V30 3448 C 330.841 2.05472 -0.282159 0
M  V30 3449 C 331.266 1.54549 1.07221 0
M  V30 3450 O 330.624 0.686372 1.67805 0
M  V30 3451 C 330.672 3.59462 -0.286264 0
M  V30 3452 O 329.776 4.05918 0.728298 0
M  V30 3453 H 329.117 0.651226 -0.129618 0
M  V30 3454 H 331.647 1.78915 -0.992499 0
M  V30 3455 H 331.657 4.07798 -0.128373 0
M  V30 3456 H 330.332 3.95889 -1.27456 0
M  V30 3457 H 328.909 3.69012 0.537081 0
M  V30 3458 N 331.094 0.475555 1.50254 0
M  V30 3459 C 332.342 -0.077738 2.0195 0
M  V30 3460 C 332.663 -1.39813 1.35931 0
M  V30 3461 O 331.933 -1.89249 0.506123 0
M  V30 3462 H 330.513 -0.031719 0.746326 0
M  V30 3463 H 333.175 0.626995 1.84539 0
M  V30 3464 H 332.271 -0.225995 3.11281 0
M  V30 3465 N 332.573 -1.56217 0.208337 0
M  V30 3466 C 333.85 -1.89739 -0.475234 0
M  V30 3467 C 334.23 -1.1238 -1.78701 0
M  V30 3468 O 333.578 -0.228979 -2.2735 0
M  V30 3469 C 333.788 -3.42289 -0.681101 0
M  V30 3470 C 335.136 -4.12789 -0.994507 0
M  V30 3471 O 336.16 -3.47814 -0.768357 0
M  V30 3472 O 335.019 -5.27649 -1.42299 0
M  V30 3473 H 332.113 -0.788478 -0.249461 0
M  V30 3474 H 334.659 -1.67855 0.249538 0
M  V30 3475 H 333.431 -3.90534 0.244722 0
M  V30 3476 H 333.054 -3.69909 -1.45785 0
M  V30 3477 N 334.051 0.0651679 -1.57465 0
M  V30 3478 C 335.276 0.779605 -1.9219 0
M  V30 3479 C 335.701 1.69988 -0.805333 0
M  V30 3480 O 335.059 1.79685 0.241435 0
M  V30 3481 C 335.107 1.54364 -3.2589 0
M  V30 3482 O 334.211 2.65474 -3.1559 0
M  V30 3483 H 333.552 0.212249 -0.629163 0
M  V30 3484 H 336.082 0.0314294 -2.04576 0
M  V30 3485 H 336.092 1.92146 -3.59922 0
M  V30 3486 H 334.767 0.868457 -4.06732 0
M  V30 3487 H 333.344 2.30501 -2.93128 0
M  V30 3488 N 335.529 1.53961 0.336706 0
M  V30 3489 C 336.479 1.7881 1.41461 0
M  V30 3490 C 337.463 0.643561 1.47469 0
M  V30 3491 O 338.655 0.903166 1.52223 0
M  V30 3492 C 335.784 2.00722 2.78506 0
M  V30 3493 C 334.87 3.2126 2.76862 0
M  V30 3494 N 335.261 4.42588 2.44845 0
M  V30 3495 C 333.559 3.22568 3.08004 0
M  V30 3496 C 334.26 5.2447 2.51607 0
M  V30 3497 N 333.236 4.61344 2.87511 0
M  V30 3498 H 337.038 2.70205 1.15615 0
M  V30 3499 H 334.552 1.52978 0.545112 0
M  V30 3500 H 336.549 2.1666 3.5618 0
M  V30 3501 H 335.209 1.10573 3.05293 0
M  V30 3502 H 336.22 4.69819 2.17922 0
M  V30 3503 H 332.897 2.42409 3.39918 0
M  V30 3504 H 334.287 6.31324 2.29955 0
M  V30 3505 N 337.007 -0.598083 1.45811 0
M  V30 3506 C 338.237 -1.38121 1.53643 0
M  V30 3507 C 338.645 -1.88425 0.171081 0
M  V30 3508 O 337.988 -1.63409 -0.839237 0
M  V30 3509 C 338.05 -2.61432 2.46766 0
M  V30 3510 C 337.714 -2.32702 3.93318 0
M  V30 3511 C 338.711 -1.92479 4.82957 0
M  V30 3512 C 336.396 -2.45321 4.38318 0
M  V30 3513 C 338.39 -1.65248 6.15607 0
M  V30 3514 C 336.077 -2.17703 5.71007 0
M  V30 3515 C 337.075 -1.7773 6.5947 0
M  V30 3516 O 336.763 -1.50441 7.89698 0
M  V30 3517 H 336.495 -0.428863 0.522544 0
M  V30 3518 H 339.049 -0.73557 1.91777 0
M  V30 3519 H 337.279 -3.28749 2.0362 0
M  V30 3520 H 338.968 -3.23487 2.45175 0
M  V30 3521 H 339.734 -1.82258 4.49452 0
M  V30 3522 H 335.613 -2.75399 3.69697 0
M  V30 3523 H 339.157 -1.33973 6.84614 0
M  V30 3524 H 335.054 -2.27544 6.04065 0
M  V30 3525 H 335.822 -1.64415 8.01817 0
M  V30 3526 N 338.485 -1.33259 -0.841409 0
M  V30 3527 C 339.71 -1.2775 -1.63385 0
M  V30 3528 C 340.135 0.149188 -1.87507 0
M  V30 3529 O 339.493 1.10498 -1.43736 0
M  V30 3530 C 339.541 -2.05571 -2.96265 0
M  V30 3531 O 338.645 -1.41257 -3.87453 0
M  V30 3532 H 337.986 -0.439627 -0.497618 0
M  V30 3533 H 340.516 -1.75782 -1.04699 0
M  V30 3534 H 340.526 -2.16241 -3.45982 0
M  V30 3535 H 339.201 -3.09309 -2.7803 0
M  V30 3536 H 337.778 -1.39217 -3.45938 0
M  V30 3537 N 339.963 1.05934 -1.16686 0
M  V30 3538 C 340.911 2.15603 -0.872817 0
M  V30 3539 C 341.905 1.68647 0.159576 0
M  V30 3540 O 343.111 1.79995 0.0132125 0
M  V30 3541 H 339.486 0.703885 -0.264671 0
M  V30 3542 H 341.457 2.37613 -1.80507 0
M  V30 3543 C 340.206 3.45457 -0.394344 0
M  V30 3544 H 339.529 3.81984 -1.18019 0
M  V30 3545 H 340.969 4.2339 -0.227408 0
M  V30 3546 C 339.428 3.25021 0.88673 0
M  V30 3547 O 339.958 3.50906 1.95519 0
M  V30 3548 N 338.164 2.78437 0.831925 0
M  V30 3549 H 337.711 2.57572 -0.0377619 0
M  V30 3550 H 337.669 2.65144 1.68956 0
M  V30 3551 N 341.441 0.965919 1.2453 0
M  V30 3552 C 342.671 0.643451 1.96324 0
M  V30 3553 C 343.079 -0.790927 1.71875 0
M  V30 3554 O 342.422 -1.54208 0.998273 0
M  V30 3555 C 342.484 0.836078 3.49643 0
M  V30 3556 C 342.148 2.24975 3.97788 0
M  V30 3557 C 343.145 3.22735 4.07601 0
M  V30 3558 C 340.83 2.57697 4.31158 0
M  V30 3559 C 342.824 4.51303 4.50116 0
M  V30 3560 C 340.511 3.86492 4.73357 0
M  V30 3561 C 341.509 4.83107 4.828 0
M  V30 3562 O 341.197 6.09605 5.24058 0
M  V30 3563 H 340.929 0.239223 0.632257 0
M  V30 3564 H 343.483 1.29587 1.59362 0
M  V30 3565 H 341.713 0.12649 3.86493 0
M  V30 3566 H 343.402 0.512965 4.02646 0
M  V30 3567 H 344.168 2.98783 3.82039 0
M  V30 3568 H 340.047 1.83216 4.23028 0
M  V30 3569 H 343.591 5.26716 4.57401 0
M  V30 3570 H 339.488 4.10245 4.98366 0
M  V30 3571 H 340.256 6.13146 5.42213 0
M  V30 3572 N 342.919 -1.39368 0.735821 0
M  V30 3573 C 344.149 -2.04498 0.293967 0
M  V30 3574 C 344.557 -1.55593 -1.07645 0
M  V30 3575 O 343.9 -0.716324 -1.69158 0
M  V30 3576 C 343.962 -3.58836 0.218342 0
M  V30 3577 C 343.626 -4.30721 1.52736 0
M  V30 3578 C 344.623 -4.57305 2.47322 0
M  V30 3579 C 342.308 -4.69251 1.79189 0
M  V30 3580 C 344.302 -5.21429 3.66593 0
M  V30 3581 C 341.989 -5.33104 2.98737 0
M  V30 3582 C 342.987 -5.59125 3.9226 0
M  V30 3583 O 342.675 -6.21653 5.09708 0
M  V30 3584 H 342.407 -0.664118 0.126189 0
M  V30 3585 H 344.961 -1.79385 1.00051 0
M  V30 3586 H 343.191 -3.8285 -0.544314 0
M  V30 3587 H 344.88 -4.05447 -0.191626 0
M  V30 3588 H 345.646 -4.27983 2.28156 0
M  V30 3589 H 341.525 -4.48354 1.07239 0
M  V30 3590 H 345.069 -5.41656 4.39607 0
M  V30 3591 H 340.966 -5.61846 3.17803 0
M  V30 3592 H 341.734 -6.40146 5.10054 0
M  V30 3593 N 344.397 -0.483516 -1.5 0
M  V30 3594 C 345.36 0.292965 -2.2732 0
M  V30 3595 C 346.36 0.909499 -1.32608 0
M  V30 3596 O 347.55 0.776745 -1.55924 0
M  V30 3597 C 344.682 1.41854 -3.09984 0
M  V30 3598 H 345.875 -0.385289 -2.97415 0
M  V30 3599 H 343.428 -0.237942 -1.54478 0
M  V30 3600 H 344.163 2.13148 -2.44414 0
M  V30 3601 H 343.948 0.982114 -3.79601 0
M  V30 3602 H 345.438 1.96597 -3.68429 0
M  V30 3603 N 345.875 1.56104 -0.216619 0
M  V30 3604 C 346.822 2.2007 0.695531 0
M  V30 3605 C 347.792 1.15471 1.19397 0
M  V30 3606 O 348.977 1.43807 1.25396 0
M  V30 3607 C 346.117 2.88073 1.90021 0
M  V30 3608 C 345.23 4.07253 1.44113 0
M  V30 3609 C 344.365 4.63052 2.603 0
M  V30 3610 C 343.404 5.74545 2.11103 0
M  V30 3611 N 342.541 6.24656 3.20545 0
M  V30 3612 H 347.381 2.97655 0.143327 0
M  V30 3613 H 344.918 1.46982 0.0589934 0
M  V30 3614 H 346.876 3.25681 2.60745 0
M  V30 3615 H 345.506 2.13015 2.42538 0
M  V30 3616 H 344.558 3.75164 0.628999 0
M  V30 3617 H 345.87 4.8783 1.04036 0
M  V30 3618 H 345.024 5.03078 3.39113 0
M  V30 3619 H 343.763 3.81628 3.03663 0
M  V30 3620 H 342.768 5.34027 1.3075 0
M  V30 3621 H 343.993 6.57801 1.68746 0
M  V30 3622 H 341.939 5.46148 3.63399 0
M  V30 3623 H 341.856 7.00343 2.84704 0
M  V30 3624 H 343.124 6.69338 3.99508 0
M  V30 3625 N 347.353 -0.0568162 1.57498 0
M  V30 3626 C 348.303 -1.07315 2.01166 0
M  V30 3627 C 349.287 -1.33632 0.896171 0
M  V30 3628 O 350.479 -1.33682 1.16009 0
M  V30 3629 C 347.608 -2.38257 2.47161 0
M  V30 3630 C 346.694 -2.1515 3.65474 0
M  V30 3631 N 347.085 -1.62014 4.7915 0
M  V30 3632 C 345.383 -2.45559 3.72313 0
M  V30 3633 C 346.084 -1.54069 5.60926 0
M  V30 3634 N 345.06 -2.00652 5.05213 0
M  V30 3635 H 348.862 -0.655878 2.86488 0
M  V30 3636 H 346.376 -0.263635 1.60246 0
M  V30 3637 H 348.373 -3.11845 2.76691 0
M  V30 3638 H 347.033 -2.80687 1.63232 0
M  V30 3639 H 348.044 -1.30667 5.01145 0
M  V30 3640 H 344.721 -2.91253 2.99129 0
M  V30 3641 H 346.111 -1.13712 6.62208 0
M  V30 3642 N 348.832 -1.54138 -0.328536 0
M  V30 3643 C 350.08 -1.71765 -1.06496 0
M  V30 3644 C 350.401 -0.49149 -1.88704 0
M  V30 3645 O 349.671 0.494539 -1.89555 0
M  V30 3646 H 348.251 -0.633295 -0.396164 0
M  V30 3647 H 350.913 -1.91429 -0.366176 0
M  V30 3648 H 350.009 -2.5951 -1.73381 0
M  V30 3649 N 350.31 0.590341 -1.46126 0
M  V30 3650 C 351.258 1.72105 -1.5647 0
M  V30 3651 C 352.252 1.63756 -0.433612 0
M  V30 3652 O 353.458 1.69342 -0.610194 0
M  V30 3653 H 349.833 0.568889 -0.491802 0
M  V30 3654 H 351.804 1.6051 -2.51553 0
M  V30 3655 C 350.553 3.10493 -1.56491 0
M  V30 3656 H 349.876 3.17583 -2.4286 0
M  V30 3657 H 351.316 3.8939 -1.67785 0
M  V30 3658 C 349.775 3.3563 -0.292231 0
M  V30 3659 O 350.305 3.96875 0.620739 0
M  V30 3660 N 348.511 2.90026 -0.182523 0
M  V30 3661 H 348.058 2.40367 -0.926356 0
M  V30 3662 H 348.016 3.07218 0.668152 0
M  V30 3663 N 351.788 1.33704 0.83433 0
M  V30 3664 C 352.698 1.26382 1.97648 0
M  V30 3665 C 353.714 0.173548 1.73132 0
M  V30 3666 O 354.89 0.397962 1.97429 0
M  V30 3667 C 351.955 1.00769 3.31733 0
M  V30 3668 C 351.016 2.1884 3.69334 0
M  V30 3669 C 350.249 1.9444 4.9702 0
M  V30 3670 O 350.472 0.896961 5.63303 0
M  V30 3671 O 349.406 2.81093 5.32231 0
M  V30 3672 H 353.232 2.22444 2.06767 0
M  V30 3673 H 350.817 1.13795 0.968037 0
M  V30 3674 H 352.699 0.882186 4.12062 0
M  V30 3675 H 351.374 0.0773783 3.23608 0
M  V30 3676 H 350.281 2.36946 2.89495 0
M  V30 3677 H 351.614 3.10221 3.82131 0
M  V30 3678 N 353.266 -1.05314 1.17247 0
M  V30 3679 C 354.216 -2.11313 0.856196 0
M  V30 3680 C 355.2 -1.60013 -0.168694 0
M  V30 3681 O 356.392 -1.76968 0.0335624 0
M  V30 3682 C 353.521 -3.41301 0.369917 0
M  V30 3683 C 352.607 -3.99401 1.42616 0
M  V30 3684 N 352.998 -4.31481 2.63928 0
M  V30 3685 C 351.296 -4.27126 1.28373 0
M  V30 3686 C 351.997 -4.77799 3.31787 0
M  V30 3687 N 350.973 -4.77843 2.59166 0
M  V30 3688 H 354.775 -2.33976 1.77856 0
M  V30 3689 H 352.289 -1.2295 1.06099 0
M  V30 3690 H 354.286 -4.16713 0.124897 0
M  V30 3691 H 352.946 -3.20072 -0.546253 0
M  V30 3692 H 353.957 -4.21519 3.00902 0
M  V30 3693 H 350.634 -4.15289 0.429111 0
M  V30 3694 H 352.024 -5.11743 4.35395 0
M  V30 3695 N 354.744 -0.972509 -1.24016 0
M  V30 3696 C 355.676 -0.464375 -2.24446 0
M  V30 3697 C 356.689 0.4295 -1.57032 0
M  V30 3698 O 357.878 0.234902 -1.76948 0
M  V30 3699 C 354.978 0.348385 -3.37105 0
M  V30 3700 C 354.151 -0.53673 -4.34094 0
M  V30 3701 C 353.21 0.220838 -5.25736 0
M  V30 3702 O 352.236 -0.386867 -5.67884 0
M  V30 3703 N 353.438 1.50907 -5.60542 0
M  V30 3704 H 356.203 -1.32788 -2.68677 0
M  V30 3705 H 353.764 -0.844877 -1.38107 0
M  V30 3706 H 355.756 0.863341 -3.95384 0
M  V30 3707 H 354.326 1.11285 -2.92121 0
M  V30 3708 H 353.546 -1.23261 -3.74433 0
M  V30 3709 H 354.834 -1.14022 -4.95859 0
M  V30 3710 H 354.232 2.02444 -5.28236 0
M  V30 3711 H 352.789 1.96962 -6.21329 0
M  V30 3712 N 356.222 1.38976 -0.743202 0
M  V30 3713 C 357.471 1.99581 -0.291592 0
M  V30 3714 C 357.784 1.59656 1.13001 0
M  V30 3715 O 358.99 2.13157 1.68156 0
M  V30 3716 C 357.446 3.56813 -0.470391 0
M  V30 3717 C 357.054 4.05695 -1.90041 0
M  V30 3718 C 358.798 4.24423 -0.0809709 0
M  V30 3719 C 356.705 5.5553 -2.02832 0
M  V30 3720 H 355.635 0.746615 -0.105272 0
M  V30 3721 H 358.286 1.58872 -0.918258 0
M  V30 3722 H 356.668 3.95359 0.225299 0
M  V30 3723 H 357.842 3.78464 -2.62872 0
M  V30 3724 H 356.157 3.50775 -2.24379 0
M  V30 3725 H 358.754 5.34474 -0.155445 0
M  V30 3726 H 359.097 4.04962 0.96497 0
M  V30 3727 H 359.63 3.9108 -0.728124 0
M  V30 3728 H 356.369 5.79881 -3.05643 0
M  V30 3729 H 355.889 5.84537 -1.34448 0
M  V30 3730 H 357.568 6.21069 -1.81335 0
M  V30 3731 N 357.7 0.491464 1.49741 0
M  V30 3732 C 358.977 -0.118984 1.95238 0
M  V30 3733 C 359.357 -1.55044 1.43264 0
M  V30 3734 O 358.705 -2.19287 0.642287 0
M  V30 3735 C 358.915 -0.0414187 3.48975 0
M  V30 3736 C 360.263 -0.220133 4.24029 0
M  V30 3737 O 361.287 -0.117055 3.56008 0
M  V30 3738 O 360.146 -0.430567 5.44801 0
M  V30 3739 H 357.24 -0.100536 0.820866 0
M  V30 3740 H 359.786 0.553322 1.60426 0
M  V30 3741 H 358.558 0.957214 3.79412 0
M  V30 3742 H 358.181 -0.754292 3.9038 0
M  V30 3743 N 359.178 -1.55987 0.224894 0
M  V30 3744 C 360.424 -1.98684 -0.406502 0
M  V30 3745 C 360.757 -1.11248 -1.59177 0
M  V30 3746 O 360.032 -0.170909 -1.93748 0
M  V30 3747 C 360.315 -3.50218 -0.837808 0
M  V30 3748 C 360.168 -4.48426 0.351332 0
M  V30 3749 C 361.487 -4.06243 -1.69278 0
M  V30 3750 H 358.606 -0.722337 -0.146283 0
M  V30 3751 H 361.248 -1.87255 0.321799 0
M  V30 3752 H 359.398 -3.60089 -1.45837 0
M  V30 3753 H 361.07 -4.50562 0.989526 0
M  V30 3754 H 359.313 -4.22159 0.998207 0
M  V30 3755 H 359.984 -5.52 0.00655905 0
M  V30 3756 H 362.46 -3.99337 -1.16914 0
M  V30 3757 H 361.336 -5.12581 -1.96346 0
M  V30 3758 H 361.597 -3.53332 -2.65723 0
M  V30 3759 N 360.656 0.0484629 -1.57525 0
M  V30 3760 C 361.619 1.03956 -2.04269 0
M  V30 3761 C 362.619 1.30211 -0.943496 0
M  V30 3762 O 363.809 1.25539 -1.20771 0
M  V30 3763 C 360.941 2.37742 -2.44319 0
M  V30 3764 H 362.134 0.636182 -2.93075 0
M  V30 3765 H 359.687 0.294811 -1.53494 0
M  V30 3766 H 360.422 2.82866 -1.5861 0
M  V30 3767 H 360.207 2.20021 -3.24551 0
M  V30 3768 H 361.697 3.08936 -2.80978 0
M  V30 3769 N 362.134 1.5431 0.320358 0
M  V30 3770 C 363.064 1.86912 1.3995 0
M  V30 3771 C 364.045 0.726211 1.53819 0
M  V30 3772 O 365.23 0.980233 1.67646 0
M  V30 3773 C 362.36 2.09932 2.7667 0
M  V30 3774 C 361.314 3.25776 2.77586 0
M  V30 3775 C 360.64 3.34173 4.17412 0
M  V30 3776 C 361.94 4.6335 2.41048 0
M  V30 3777 H 363.634 2.77292 1.12914 0
M  V30 3778 H 361.18 1.33421 0.541738 0
M  V30 3779 H 363.133 2.31324 3.52232 0
M  V30 3780 H 361.857 1.16304 3.0519 0
M  V30 3781 H 360.516 3.04276 2.04479 0
M  V30 3782 H 360.164 2.38098 4.43078 0
M  V30 3783 H 359.864 4.12033 4.18931 0
M  V30 3784 H 361.388 3.57803 4.94782 0
M  V30 3785 H 362.802 4.84602 3.06324 0
M  V30 3786 H 361.199 5.43782 2.53813 0
M  V30 3787 H 362.269 4.65381 1.36193 0
M  V30 3788 N 363.613 -0.582584 1.46437 0
M  V30 3789 C 364.861 -1.33814 1.51453 0
M  V30 3790 C 365.182 -1.94277 0.167792 0
M  V30 3791 O 364.452 -1.78566 -0.805677 0
M  V30 3792 H 363.032 -0.496838 0.557818 0
M  V30 3793 H 365.694 -0.682281 1.82568 0
M  V30 3794 H 364.79 -2.14479 2.26728 0
M  V30 3795 N 365.091 -1.34144 -0.827227 0
M  V30 3796 C 366.316 -1.29476 -1.62021 0
M  V30 3797 C 366.741 0.129292 -1.87655 0
M  V30 3798 O 366.099 1.08967 -1.449 0
M  V30 3799 C 366.147 -2.08702 -2.94068 0
M  V30 3800 O 365.251 -1.45359 -3.85933 0
M  V30 3801 H 364.592 -0.444881 -0.492927 0
M  V30 3802 H 367.122 -1.76882 -1.02829 0
M  V30 3803 H 367.132 -2.19898 -3.43669 0
M  V30 3804 H 365.807 -3.12241 -2.74734 0
M  V30 3805 H 364.384 -1.42879 -3.44442 0
M  V30 3806 N 366.569 1.04691 -1.17803 0
M  V30 3807 C 367.799 1.81183 -0.992788 0
M  V30 3808 C 368.207 1.8347 0.462098 0
M  V30 3809 O 367.55 1.2643 1.33271 0
M  V30 3810 C 367.612 3.28363 -1.46349 0
M  V30 3811 C 367.276 3.49749 -2.94151 0
M  V30 3812 C 368.273 3.41456 -3.92051 0
M  V30 3813 C 365.958 3.76548 -3.32441 0
M  V30 3814 C 367.952 3.59656 -5.26238 0
M  V30 3815 C 365.639 3.94396 -4.66792 0
M  V30 3816 C 366.637 3.8595 -5.635 0
M  V30 3817 O 366.325 4.03294 -6.9542 0
M  V30 3818 H 366.057 0.577622 -0.351182 0
M  V30 3819 H 368.611 1.32876 -1.5663 0
M  V30 3820 H 366.841 3.77609 -0.833574 0
M  V30 3821 H 368.53 3.86395 -1.24313 0
M  V30 3822 H 369.296 3.20723 -3.63815 0
M  V30 3823 H 365.175 3.82224 -2.57732 0
M  V30 3824 H 368.719 3.52979 -6.01707 0
M  V30 3825 H 364.616 4.14622 -4.94731 0
M  V30 3826 H 365.384 4.2049 -7.02232 0
M  V30 3827 N 368.047 0.979072 1.23499 0
M  V30 3828 C 369.295 0.645941 1.91499 0
M  V30 3829 C 369.616 -0.822948 1.76784 0
M  V30 3830 O 368.886 -1.58854 1.14639 0
M  V30 3831 H 367.466 0.235919 0.708767 0
M  V30 3832 H 370.128 1.2426 1.50152 0
M  V30 3833 H 369.224 0.896411 2.9895 0
M  V30 3834 N 369.525 -1.3858 0.750561 0
M  V30 3835 C 370.435 -2.34278 0.122825 0
M  V30 3836 C 371.451 -1.59116 -0.704131 0
M  V30 3837 O 372.627 -1.91326 -0.628987 0
M  V30 3838 C 369.692 -3.38221 -0.762086 0
M  V30 3839 C 368.753 -4.29227 0.078896 0
M  V30 3840 C 367.986 -5.28205 -0.763874 0
M  V30 3841 O 368.209 -5.34112 -2.00201 0
M  V30 3842 O 367.143 -6.01618 -0.18428 0
M  V30 3843 H 370.969 -2.89649 0.913088 0
M  V30 3844 H 368.554 -1.40374 0.511417 0
M  V30 3845 H 370.436 -4.01872 -1.26793 0
M  V30 3846 H 369.111 -2.85211 -1.5309 0
M  V30 3847 H 368.018 -3.68747 0.630621 0
M  V30 3848 H 369.351 -4.85484 0.810289 0
M  V30 3849 N 371.003 -0.499398 -1.49478 0
M  V30 3850 C 371.951 0.293604 -2.3074 0
M  V30 3851 C 372.945 0.96427 -1.39277 0
M  V30 3852 O 374.151 0.892141 -1.56336 0
M  V30 3853 H 370.526 0.113541 -0.743379 0
M  V30 3854 H 372.497 -0.411772 -2.95545 0
M  V30 3855 C 371.246 1.3462 -3.20582 0
M  V30 3856 H 370.569 0.83954 -3.90886 0
M  V30 3857 H 372.009 1.87308 -3.80384 0
M  V30 3858 C 370.468 2.36351 -2.40083 0
M  V30 3859 O 370.998 3.422 -2.10385 0
M  V30 3860 N 369.204 2.0878 -2.02137 0
M  V30 3861 H 368.751 1.22723 -2.26488 0
M  V30 3862 H 368.709 2.77075 -1.48583 0
M  V30 3863 N 372.481 1.55866 -0.233164 0
M  V30 3864 C 373.892 1.847 0.272554 0
M  V30 3865 C 374.243 1.15477 1.58617 0
M  V30 3866 O 373.368 0.42841 2.12117 0
M  V30 3867 C 373.963 3.35071 0.501299 0
M  V30 3868 C 372.522 3.6418 0.951304 0
M  V30 3869 C 371.669 2.77292 0.0208209 0
M  V30 3870 H 374.62 1.52005 -0.456074 0
M  V30 3871 H 374.641 3.55906 1.34577 0
M  V30 3872 H 374.153 3.85424 -0.454936 0
M  V30 3873 H 372.254 3.19293 1.92049 0
M  V30 3874 H 372.367 4.72071 0.817675 0
M  V30 3875 H 370.731 2.49131 0.529723 0
M  V30 3876 H 371.514 3.30448 -0.93054 0
M  V30 3877 N 373.959 -0.0401083 1.57549 0
M  V30 3878 C 375.375 -0.395556 1.54621 0
M  V30 3879 C 375.575 -1.77281 0.957799 0
M  V30 3880 O 374.631 -2.45888 0.574031 0
M  V30 3881 C 375.944 -0.307535 2.99123 0
M  V30 3882 C 377.492 -0.385425 3.10618 0
M  V30 3883 C 377.967 -0.326973 4.56831 0
M  V30 3884 N 379.458 -0.386102 4.61588 0
M  V30 3885 C 380.193 -0.363591 5.72246 0
M  V30 3886 N 379.689 -0.29402 6.92176 0
M  V30 3887 N 381.482 -0.412503 5.60584 0
M  V30 3888 H 373.633 0.861325 1.94152 0
M  V30 3889 H 375.896 0.326445 0.890021 0
M  V30 3890 H 375.602 0.638461 3.45856 0
M  V30 3891 H 375.476 -1.10552 3.60636 0
M  V30 3892 H 377.863 -1.32185 2.63839 0
M  V30 3893 H 377.944 0.44171 2.51957 0
M  V30 3894 H 377.588 0.605738 5.04275 0
M  V30 3895 H 377.518 -1.17207 5.13391 0
M  V30 3896 H 380.009 -0.442832 3.75296 0
M  V30 3897 H 380.322 -0.28164 7.72287 0
M  V30 3898 H 378.667 -0.260232 6.94513 0
M  V30 3899 H 381.858 -0.464769 4.65787 0
M  V30 3900 H 382.031 -0.391492 6.46816 0
M  V30 3901 N 375.437 -1.54477 -0.31217 0
M  V30 3902 C 376.685 -1.72884 -1.04668 0
M  V30 3903 C 377.006 -0.511477 -1.88173 0
M  V30 3904 O 376.276 0.474407 -1.90069 0
M  V30 3905 H 374.856 -0.637461 -0.389425 0
M  V30 3906 H 377.518 -1.91807 -0.345852 0
M  V30 3907 H 376.614 -2.61334 -1.70619 0
M  V30 3908 N 376.915 0.57481 -1.46744 0
M  V30 3909 C 378.164 1.32898 -1.51727 0
M  V30 3910 C 378.477 1.948 -0.176692 0
M  V30 3911 O 379.683 2.71299 -0.104385 0
M  V30 3912 C 378.139 2.40901 -2.67385 0
M  V30 3913 C 377.747 1.85266 -4.07898 0
M  V30 3914 C 379.491 3.17609 -2.81646 0
M  V30 3915 C 377.398 2.90945 -5.14883 0
M  V30 3916 H 376.328 0.499631 -0.564699 0
M  V30 3917 H 378.979 0.612536 -1.72975 0
M  V30 3918 H 377.361 3.15379 -2.39483 0
M  V30 3919 H 378.535 1.17278 -4.45626 0
M  V30 3920 H 376.85 1.21199 -3.98371 0
M  V30 3921 H 379.447 3.96493 -3.58744 0
M  V30 3922 H 379.79 3.70696 -1.89448 0
M  V30 3923 H 380.323 2.50239 -3.09233 0
M  V30 3924 H 377.062 2.42736 -6.089 0
M  V30 3925 H 376.582 3.57398 -4.81691 0
M  V30 3926 H 378.261 3.54755 -5.41071 0
M  V30 3927 N 378.394 1.34581 0.820102 0
M  V30 3928 C 379.622 1.3018 1.60813 0
M  V30 3929 C 380.037 -0.123551 1.88395 0
M  V30 3930 O 379.394 -1.07148 1.47735 0
M  V30 3931 C 379.445 2.09312 2.94739 0
M  V30 3932 O 379.166 3.46288 2.68358 0
M  V30 3933 C 380.667 2.1234 3.89136 0
M  V30 3934 H 377.887 0.447726 0.499782 0
M  V30 3935 H 380.431 1.77237 1.02017 0
M  V30 3936 H 378.586 1.65889 3.50085 0
M  V30 3937 H 379 3.87227 3.53774 0
M  V30 3938 H 380.474 2.72126 4.80262 0
M  V30 3939 H 380.951 1.11854 4.24718 0
M  V30 3940 H 381.557 2.55864 3.39726 0
M  V30 3941 N 379.872 -1.04064 1.18357 0
M  V30 3942 C 381.149 -1.74252 0.888581 0
M  V30 3943 C 381.529 -2.02138 -0.60856 0
M  V30 3944 O 380.877 -1.66656 -1.56327 0
M  V30 3945 C 381.087 -3.0277 1.73584 0
M  V30 3946 C 382.435 -3.76506 1.96286 0
M  V30 3947 O 383.459 -3.12668 1.70637 0
M  V30 3948 O 382.318 -4.91243 2.39464 0
M  V30 3949 H 379.412 -0.758271 0.330082 0
M  V30 3950 H 381.958 -1.1013 1.2911 0
M  V30 3951 H 380.73 -2.78299 2.75073 0
M  V30 3952 H 380.353 -3.74631 1.33183 0
M  V30 3953 N 381.35 -0.985608 -1.22978 0
M  V30 3954 C 382.297 -0.529825 -2.24636 0
M  V30 3955 C 383.267 0.434028 -1.60329 0
M  V30 3956 O 384.452 0.340414 -1.87739 0
M  V30 3957 C 381.592 0.156533 -3.44745 0
M  V30 3958 C 380.705 -0.848197 -4.23591 0
M  V30 3959 C 379.84 -0.136109 -5.31026 0
M  V30 3960 C 378.879 -1.1297 -6.01585 0
M  V30 3961 N 378.016 -0.446415 -7.00679 0
M  V30 3962 H 382.856 -1.40148 -2.62988 0
M  V30 3963 H 380.393 -0.702168 -1.29259 0
M  V30 3964 H 382.351 0.571324 -4.1327 0
M  V30 3965 H 380.981 0.992025 -3.07179 0
M  V30 3966 H 380.033 -1.38135 -3.54433 0
M  V30 3967 H 381.345 -1.60512 -4.72268 0
M  V30 3968 H 380.499 0.335784 -6.0577 0
M  V30 3969 H 379.238 0.653373 -4.83304 0
M  V30 3970 H 378.243 -1.6123 -5.25628 0
M  V30 3971 H 379.468 -1.91993 -6.51395 0
M  V30 3972 H 377.414 0.323763 -6.55201 0
M  V30 3973 H 377.331 -1.1419 -7.47326 0
M  V30 3974 H 378.599 0.00291697 -7.795 0
M  V30 3975 N 382.828 1.3818 -0.7579 0
M  V30 3976 C 383.761 2.28055 -0.0814093 0
M  V30 3977 C 384.739 1.45603 0.723779 0
M  V30 3978 O 385.923 1.74961 0.701491 0
M  V30 3979 C 383.05 3.2676 0.891394 0
M  V30 3980 C 382.096 4.26153 0.171909 0
M  V30 3981 S 382.929 5.23434 -1.13035 0
M  V30 3982 C 384.085 6.25694 -0.160727 0
M  V30 3983 H 384.318 2.85082 -0.84353 0
M  V30 3984 H 381.851 1.44246 -0.550671 0
M  V30 3985 H 383.809 3.8414 1.44731 0
M  V30 3986 H 382.47 2.68706 1.62652 0
M  V30 3987 H 381.663 4.95738 0.908843 0
M  V30 3988 H 381.265 3.72691 -0.312606 0
M  V30 3989 H 383.557 6.74161 0.671773 0
M  V30 3990 H 384.5 7.03285 -0.824353 0
M  V30 3991 H 384.908 5.64064 0.221892 0
M  V30 3992 N 384.306 0.507319 1.49211 0
M  V30 3993 C 385.534 -0.0315749 2.06876 0
M  V30 3994 C 385.949 -1.30241 1.36685 0
M  V30 3995 O 385.306 -1.76937 0.447152 0
M  V30 3996 C 385.357 -0.282627 3.60393 0
M  V30 3997 O 385.078 0.937835 4.27944 0
M  V30 3998 C 386.579 -0.864453 4.3479 0
M  V30 3999 H 383.799 0.0233048 0.670595 0
M  V30 4000 H 386.343 0.706484 1.91909 0
M  V30 4001 H 384.498 -0.97068 3.75042 0
M  V30 4002 H 384.912 0.704567 5.19746 0
M  V30 4003 H 386.386 -0.989664 5.43056 0
M  V30 4004 H 386.863 -1.86382 3.97692 0
M  V30 4005 H 387.469 -0.213672 4.24763 0
M  V30 4006 N 385.784 -1.5574 0.241426 0
M  V30 4007 C 387.009 -2.0366 -0.392111 0
M  V30 4008 C 387.434 -1.11969 -1.51144 0
M  V30 4009 O 386.792 -0.111594 -1.80956 0
M  V30 4010 C 386.84 -3.49638 -0.882371 0
M  V30 4011 O 385.944 -3.6108 -1.99235 0
M  V30 4012 H 385.285 -0.658379 -0.0862122 0
M  V30 4013 H 387.815 -2.01302 0.365881 0
M  V30 4014 H 387.825 -3.90351 -1.18702 0
M  V30 4015 H 386.5 -4.15852 -0.0632361 0
M  V30 4016 H 385.077 -3.32262 -1.69282 0
M  V30 4017 N 387.262 0.0317525 -1.57568 0
M  V30 4018 C 388.225 1.01783 -2.0536 0
M  V30 4019 C 389.225 1.29203 -0.957253 0
M  V30 4020 O 390.415 1.24251 -1.22095 0
M  V30 4021 C 387.547 2.35137 -2.46827 0
M  V30 4022 H 388.74 0.605062 -2.93733 0
M  V30 4023 H 386.293 0.278514 -1.53799 0
M  V30 4024 H 387.028 2.81168 -1.61602 0
M  V30 4025 H 386.813 2.16566 -3.26866 0
M  V30 4026 H 388.303 3.05938 -2.84239 0
M  V30 4027 N 388.74 1.54641 0.303973 0
M  V30 4028 C 390.017 1.64455 1.05896 0
M  V30 4029 C 390.397 0.490923 2.05312 0
M  V30 4030 O 389.745 -0.512685 2.22674 0
M  V30 4031 C 389.955 3.02331 1.74347 0
M  V30 4032 C 391.303 3.59045 2.26653 0
M  V30 4033 O 392.327 3.04764 1.84384 0
M  V30 4034 O 391.186 4.54081 3.04093 0
M  V30 4035 H 388.28 0.666729 0.489287 0
M  V30 4036 H 390.826 1.66986 0.302298 0
M  V30 4037 H 389.598 3.77734 1.02142 0
M  V30 4038 H 389.221 3.03565 2.56777 0
M  V30 4039 N 390.218 -0.567019 1.47046 0
M  V30 4040 C 391.151 -1.69016 1.53326 0
M  V30 4041 C 392.129 -1.57949 0.386126 0
M  V30 4042 O 393.313 -1.78945 0.592529 0
M  V30 4043 C 390.44 -3.07191 1.42658 0
M  V30 4044 C 389.486 -3.36733 2.6175 0
M  V30 4045 S 390.319 -3.27069 4.24012 0
M  V30 4046 C 391.475 -4.67755 4.1588 0
M  V30 4047 H 391.708 -1.63434 2.48348 0
M  V30 4048 H 389.241 -0.747048 1.35124 0
M  V30 4049 H 391.199 -3.86897 1.37191 0
M  V30 4050 H 389.86 -3.10249 0.490369 0
M  V30 4051 H 389.053 -4.37441 2.50323 0
M  V30 4052 H 388.655 -2.64627 2.64289 0
M  V30 4053 H 390.947 -5.58491 3.83529 0
M  V30 4054 H 391.89 -4.84239 5.16641 0
M  V30 4055 H 392.298 -4.45341 3.46889 0
M  V30 4056 N 391.696 -1.35014 -0.812953 0
M  V30 4057 C 392.626 -1.30069 -1.93919 0
M  V30 4058 C 393.607 -0.176275 -1.69184 0
M  V30 4059 O 394.792 -0.370227 -1.90638 0
M  V30 4060 C 391.922 -1.06547 -3.30552 0
M  V30 4061 C 390.876 -2.15561 -3.69753 0
M  V30 4062 C 390.202 -1.77214 -5.04479 0
M  V30 4063 C 391.502 -3.57476 -3.808 0
M  V30 4064 H 393.196 -2.24303 -1.98314 0
M  V30 4065 H 390.742 -1.07977 -0.952736 0
M  V30 4066 H 392.695 -1.01729 -4.08937 0
M  V30 4067 H 391.419 -0.0875719 -3.26483 0
M  V30 4068 H 390.078 -2.19466 -2.9365 0
M  V30 4069 H 389.726 -0.780589 -4.96906 0
M  V30 4070 H 389.426 -2.50184 -5.31678 0
M  V30 4071 H 390.95 -1.7391 -5.8531 0
M  V30 4072 H 392.364 -3.55929 -4.4943 0
M  V30 4073 H 390.761 -4.29152 -4.19462 0
M  V30 4074 H 391.831 -3.94091 -2.82525 0
M  V30 4075 N 393.175 1.03435 -1.18907 0
M  V30 4076 C 394.591 1.28973 -0.940111 0
M  V30 4077 C 394.791 1.97676 0.390691 0
M  V30 4078 O 393.847 2.26127 1.12352 0
M  V30 4079 C 395.16 2.14221 -2.11021 0
M  V30 4080 C 396.708 2.27547 -2.14922 0
M  V30 4081 C 397.183 3.16164 -3.31367 0
M  V30 4082 N 398.674 3.23752 -3.31269 0
M  V30 4083 C 399.409 3.92495 -4.18014 0
M  V30 4084 N 398.905 4.63515 -5.14904 0
M  V30 4085 N 400.698 3.88838 -4.05908 0
M  V30 4086 H 392.849 0.57252 -2.04538 0
M  V30 4087 H 395.112 0.315184 -0.894071 0
M  V30 4088 H 394.818 1.71054 -3.073 0
M  V30 4089 H 394.692 3.14919 -2.0762 0
M  V30 4090 H 397.079 2.69947 -1.19217 0
M  V30 4091 H 397.16 1.26418 -2.22378 0
M  V30 4092 H 396.804 2.74474 -4.27348 0
M  V30 4093 H 396.734 4.17339 -3.21148 0
M  V30 4094 H 399.225 2.73167 -2.61129 0
M  V30 4095 H 399.538 5.13583 -5.77453 0
M  V30 4096 H 397.883 4.62398 -5.18857 0
M  V30 4097 H 401.074 3.32491 -3.29495 0
M  V30 4098 H 401.247 4.4214 -4.73726 0
M  V30 4099 N 394.653 0.992116 1.22453 0
M  V30 4100 C 395.586 0.486701 2.22949 0
M  V30 4101 C 396.564 -0.45259 1.56174 0
M  V30 4102 O 397.748 -0.378317 1.84665 0
M  V30 4103 C 394.875 -0.294537 3.37417 0
M  V30 4104 C 393.921 0.590628 4.22391 0
M  V30 4105 S 394.754 2.04546 4.94895 0
M  V30 4106 C 395.91 1.27369 6.12803 0
M  V30 4107 H 396.143 1.33828 2.65475 0
M  V30 4108 H 393.676 0.799023 1.32117 0
M  V30 4109 H 395.634 -0.739241 4.03789 0
M  V30 4110 H 394.295 -1.12139 2.934 0
M  V30 4111 H 393.488 -0.0104375 5.03999 0
M  V30 4112 H 393.09 0.972064 3.61147 0
M  V30 4113 H 395.382 0.540943 6.75337 0
M  V30 4114 H 396.325 2.06502 6.7732 0
M  V30 4115 H 396.733 0.787324 5.58983 0
M  V30 4116 N 396.131 -1.37776 0.765217 0
M  V30 4117 C 397.379 -1.99454 0.325943 0
M  V30 4118 C 397.7 -1.61049 -1.09947 0
M  V30 4119 O 396.97 -0.872821 -1.75381 0
M  V30 4120 H 395.55 -0.737697 0.117525 0
M  V30 4121 H 398.212 -1.68359 0.981895 0
M  V30 4122 H 397.308 -3.09547 0.398353 0
M  V30 4123 N 397.609 -0.515225 -1.4894 0
M  V30 4124 C 398.519 0.259774 -2.33157 0
M  V30 4125 C 399.535 0.953501 -1.45548 0
M  V30 4126 O 400.711 0.931735 -1.78552 0
M  V30 4127 C 397.776 1.30193 -3.21326 0
M  V30 4128 C 396.837 0.620129 -4.24797 0
M  V30 4129 C 396.07 1.61263 -5.08753 0
M  V30 4130 O 396.293 2.84389 -4.94448 0
M  V30 4131 O 395.227 1.16013 -5.90614 0
M  V30 4132 H 399.053 -0.429932 -3.00641 0
M  V30 4133 H 396.638 -0.276346 -1.46822 0
M  V30 4134 H 398.52 1.90455 -3.75905 0
M  V30 4135 H 397.195 1.97431 -2.56521 0
M  V30 4136 H 396.102 -0.0226019 -3.74093 0
M  V30 4137 H 397.435 -0.0100493 -4.92199 0
M  V30 4138 N 399.087 1.5561 -0.249682 0
M  V30 4139 C 400.05 2.20217 0.635394 0
M  V30 4140 C 401.05 1.17227 1.10066 0
M  V30 4141 O 402.24 1.42292 1.00492 0
M  V30 4142 C 399.372 2.84794 1.87363 0
M  V30 4143 H 400.565 2.99814 0.0716752 0
M  V30 4144 H 398.118 1.563 -0.000153234 0
M  V30 4145 H 398.853 2.09142 2.47851 0
M  V30 4146 H 398.638 3.60241 1.5482 0
M  V30 4147 H 400.128 3.3423 2.5036 0
M  V30 4148 N 400.565 -0.0233959 1.57583 0
M  V30 4149 C 401.495 -1.02162 2.09965 0
M  V30 4150 C 402.476 -1.3735 1.00344 0
M  V30 4151 O 403.661 -1.46135 1.27899 0
M  V30 4152 C 400.791 -2.32081 2.58371 0
M  V30 4153 C 399.745 -2.1112 3.72307 0
M  V30 4154 C 399.071 -3.46848 4.06941 0
M  V30 4155 C 400.371 -1.49276 5.00514 0
M  V30 4156 H 402.065 -0.585557 2.93618 0
M  V30 4157 H 399.611 -0.280218 1.41247 0
M  V30 4158 H 401.564 -3.02249 2.93639 0
M  V30 4159 H 400.288 -2.77758 1.71808 0
M  V30 4160 H 398.947 -1.43384 3.37397 0
M  V30 4161 H 398.595 -3.90184 3.17436 0
M  V30 4162 H 398.295 -3.33646 4.83688 0
M  V30 4163 H 399.819 -4.18369 4.44747 0
M  V30 4164 H 401.233 -2.09368 5.33702 0
M  V30 4165 H 399.63 -1.46632 5.8191 0
M  V30 4166 H 400.7 -0.459217 4.82721 0
M  V30 4167 N 402.043 -1.548 -0.295768 0
M  V30 4168 C 402.991 -1.86874 -1.38495 0
M  V30 4169 C 403.985 -0.742938 -1.52239 0
M  V30 4170 O 405.191 -0.926999 -1.54294 0
M  V30 4171 H 401.566 -0.592786 -0.462719 0
M  V30 4172 H 403.537 -2.77904 -1.08682 0
M  V30 4173 C 402.286 -2.13732 -2.74252 0
M  V30 4174 H 401.609 -2.99835 -2.64459 0
M  V30 4175 H 403.049 -2.4011 -3.49461 0
M  V30 4176 C 401.508 -0.937539 -3.23592 0
M  V30 4177 O 402.038 -0.160665 -4.01379 0
M  V30 4178 N 400.244 -0.741478 -2.80981 0
M  V30 4179 H 399.791 -1.37489 -2.1784 0
M  V30 4180 H 399.749 0.0597103 -3.14343 0
M  V30 4181 N 403.521 0.559213 -1.47345 0
M  V30 4182 C 404.484 1.64854 -1.59235 0
M  V30 4183 C 405.484 1.53851 -0.467607 0
M  V30 4184 O 406.674 1.58045 -0.732617 0
M  V30 4185 C 403.806 3.04388 -1.53496 0
M  V30 4186 H 404.999 1.55662 -2.56339 0
M  V30 4187 H 402.552 0.778973 -1.35505 0
M  V30 4188 H 403.287 3.19115 -0.577604 0
M  V30 4189 H 403.072 3.13783 -2.35123 0
M  V30 4190 H 404.562 3.83642 -1.6495 0
M  V30 4191 N 404.999 1.35443 0.805782 0
M  V30 4192 C 405.946 1.28431 1.91766 0
M  V30 4193 C 406.916 0.156102 1.65365 0
M  V30 4194 O 408.101 0.339936 1.87747 0
M  V30 4195 C 405.241 1.06301 3.2832 0
M  V30 4196 C 404.354 2.2805 3.66902 0
M  V30 4197 C 403.489 1.99064 4.92491 0
M  V30 4198 C 402.528 3.16863 5.23703 0
M  V30 4199 N 401.665 2.87647 6.40471 0
M  V30 4200 H 406.505 2.23511 1.97096 0
M  V30 4201 H 404.042 1.11105 0.964054 0
M  V30 4202 H 406 0.915012 4.07042 0
M  V30 4203 H 404.63 0.148822 3.22457 0
M  V30 4204 H 403.682 2.53711 2.83434 0
M  V30 4205 H 404.994 3.1601 3.85927 0
M  V30 4206 H 404.148 1.81099 5.7904 0
M  V30 4207 H 402.887 1.0839 4.75503 0
M  V30 4208 H 401.892 3.35404 4.35642 0
M  V30 4209 H 403.117 4.08339 5.4262 0
M  V30 4210 H 401.063 1.99568 6.24907 0
M  V30 4211 H 400.98 3.69141 6.59751 0
M  V30 4212 H 402.248 2.73226 7.30047 0
M  V30 4213 N 406.477 -1.02803 1.19454 0
M  V30 4214 C 407.723 -1.76478 0.999171 0
M  V30 4215 C 408.056 -1.88456 -0.468828 0
M  V30 4216 O 407.331 -1.40198 -1.34814 0
M  V30 4217 C 407.614 -3.19044 1.66981 0
M  V30 4218 C 407.467 -3.14932 3.21151 0
M  V30 4219 C 408.786 -4.17456 1.39349 0
M  V30 4220 H 405.905 -0.640614 0.364393 0
M  V30 4221 H 408.547 -1.20005 1.47305 0
M  V30 4222 H 406.697 -3.67263 1.2669 0
M  V30 4223 H 408.369 -2.74605 3.70661 0
M  V30 4224 H 406.612 -2.52625 3.52652 0
M  V30 4225 H 407.283 -4.1566 3.63223 0
M  V30 4226 H 409.759 -3.77842 1.74283 0
M  V30 4227 H 408.635 -5.154 1.88823 0
M  V30 4228 H 408.896 -4.40949 0.318813 0
M  V30 4229 N 407.956 -0.998596 -1.21925 0
M  V30 4230 C 409.202 -0.678667 -1.91107 0
M  V30 4231 C 409.535 0.78791 -1.77498 0
M  V30 4232 O 408.81 1.57043 -1.1475 0
M  V30 4233 C 409.093 -1.09245 -3.43129 0
M  V30 4234 C 408.946 -2.61801 -3.6576 0
M  V30 4235 C 410.265 -0.649984 -4.35274 0
M  V30 4236 H 407.384 -0.248025 -0.694012 0
M  V30 4237 H 410.026 -1.24314 -1.43688 0
M  V30 4238 H 408.176 -0.612171 -3.83647 0
M  V30 4239 H 409.848 -3.17543 -3.34611 0
M  V30 4240 H 408.091 -3.03609 -3.09845 0
M  V30 4241 H 408.762 -2.85804 -4.7225 0
M  V30 4242 H 411.238 -1.0626 -4.02303 0
M  V30 4243 H 410.114 -0.967743 -5.40302 0
M  V30 4244 H 410.375 0.449139 -4.39813 0
M  V30 4245 N 409.434 1.37368 -0.772513 0
M  V30 4246 C 410.683 1.98918 -0.333861 0
M  V30 4247 C 410.996 1.62017 1.09589 0
M  V30 4248 O 412.202 2.16676 1.63596 0
M  V30 4249 C 410.658 3.55735 -0.545971 0
M  V30 4250 C 410.266 4.01573 -1.98603 0
M  V30 4251 C 412.01 4.24156 -0.170979 0
M  V30 4252 C 409.917 5.51102 -2.1457 0
M  V30 4253 H 408.847 0.744214 -0.121085 0
M  V30 4254 H 411.498 1.56888 -0.95175 0
M  V30 4255 H 409.88 3.95748 0.141387 0
M  V30 4256 H 411.054 3.72803 -2.7084 0
M  V30 4257 H 409.369 3.45937 -2.31769 0
M  V30 4258 H 411.966 5.34024 -0.26878 0
M  V30 4259 H 412.309 4.06917 0.878855 0
M  V30 4260 H 412.842 3.89447 -0.810914 0
M  V30 4261 H 409.581 5.73268 -3.17875 0
M  V30 4262 H 409.101 5.81554 -1.46817 0
M  V30 4263 H 410.78 6.17083 -1.94468 0
M  V30 4264 N 410.912 0.523116 1.48665 0
M  V30 4265 C 412.323 0.0808997 1.86525 0
M  V30 4266 C 412.674 -1.33975 1.43336 0
M  V30 4267 O 411.799 -2.00221 0.821009 0
M  V30 4268 C 412.394 0.140037 3.3851 0
M  V30 4269 C 410.953 -0.246948 3.75589 0
M  V30 4270 C 410.1 0.502845 2.72703 0
M  V30 4271 H 413.051 0.734736 1.40667 0
M  V30 4272 H 413.072 -0.649945 3.74908 0
M  V30 4273 H 412.584 1.17412 3.69914 0
M  V30 4274 H 410.685 -1.28343 3.49798 0
M  V30 4275 H 410.798 0.0878859 4.79019 0
M  V30 4276 H 409.162 -0.0500581 2.54651 0
M  V30 4277 H 409.945 1.53743 3.0695 0
M  V30 4278 N 412.39 -1.55475 0.257931 0
M  V30 4279 C 413.637 -1.99207 -0.363728 0
M  V30 4280 C 413.965 -1.1462 -1.57139 0
M  V30 4281 O 413.22 -0.199653 -1.94679 0
M  V30 4282 C 413.519 -3.48183 -0.806433 0
M  V30 4283 C 413.185 -4.49936 0.294684 0
M  V30 4284 C 411.847 -4.77481 0.597076 0
M  V30 4285 C 414.199 -5.10769 1.03751 0
M  V30 4286 C 411.527 -5.63132 1.64618 0
M  V30 4287 C 413.879 -5.97558 2.07622 0
M  V30 4288 C 412.543 -6.23432 2.38514 0
M  V30 4289 H 411.813 -0.728949 -0.133097 0
M  V30 4290 H 414.46 -1.8793 0.368059 0
M  V30 4291 H 412.765 -3.56848 -1.61761 0
M  V30 4292 H 414.462 -3.79415 -1.29789 0
M  V30 4293 H 411.052 -4.28572 0.0488649 0
M  V30 4294 H 415.236 -4.89527 0.817149 0
M  V30 4295 H 410.492 -5.8143 1.89074 0
M  V30 4296 H 414.666 -6.43735 2.65666 0
M  V30 4297 H 412.293 -6.89594 3.19943 0
M  V30 4298 N 413.868 0.0150385 -1.57593 0
M  V30 4299 C 414.818 1.01943 -2.0394 0
M  V30 4300 C 415.802 1.31209 -0.931286 0
M  V30 4301 O 416.994 1.30559 -1.19513 0
M  V30 4302 C 414.123 2.31621 -2.53391 0
M  V30 4303 C 413.209 2.05384 -3.7105 0
M  V30 4304 N 413.6 1.49253 -4.83278 0
M  V30 4305 C 411.898 2.35601 -3.78693 0
M  V30 4306 C 412.599 1.39143 -5.64813 0
M  V30 4307 N 411.575 1.87187 -5.10355 0
M  V30 4308 H 415.377 0.57969 -2.88126 0
M  V30 4309 H 412.891 0.221056 -1.60888 0
M  V30 4310 H 414.888 3.044 -2.84862 0
M  V30 4311 H 413.548 2.76261 -1.70616 0
M  V30 4312 H 414.559 1.17334 -5.04433 0
M  V30 4313 H 411.236 2.8322 -3.06746 0
M  V30 4314 H 412.626 0.961153 -6.6499 0
M  V30 4315 N 415.346 1.54954 0.287554 0
M  V30 4316 C 416.296 1.8322 1.357 0
M  V30 4317 C 417.28 0.690152 1.45347 0
M  V30 4318 O 418.472 0.951137 1.49273 0
M  V30 4319 C 415.601 2.09481 2.71979 0
M  V30 4320 C 414.687 3.29906 2.66502 0
M  V30 4321 N 415.078 4.50154 2.30641 0
M  V30 4322 C 413.376 3.32203 2.97585 0
M  V30 4323 C 414.077 5.32209 2.34794 0
M  V30 4324 N 413.053 4.70258 2.72688 0
M  V30 4325 H 416.855 2.73746 1.0696 0
M  V30 4326 H 414.369 1.54635 0.496167 0
M  V30 4327 H 416.366 2.27882 3.49107 0
M  V30 4328 H 415.026 1.2023 3.0162 0
M  V30 4329 H 416.037 4.76515 2.02865 0
M  V30 4330 H 412.714 2.53101 3.32034 0
M  V30 4331 H 414.104 6.38321 2.09753 0
M  V30 4332 N 416.824 -0.551391 1.4764 0
M  V30 4333 C 418.101 -1.31229 1.45046 0
M  V30 4334 C 418.481 -2.10563 0.150527 0
M  V30 4335 O 417.829 -2.11374 -0.867956 0
M  V30 4336 C 418.039 -2.21189 2.69956 0
M  V30 4337 C 419.387 -2.82021 3.1741 0
M  V30 4338 O 420.411 -2.31488 2.70724 0
M  V30 4339 O 419.27 -3.73885 3.98588 0
M  V30 4340 H 416.364 -0.591193 0.578291 0
M  V30 4341 H 418.91 -0.569813 1.59847 0
M  V30 4342 H 417.682 -1.62207 3.56096 0
M  V30 4343 H 417.305 -3.02722 2.57769 0
M  V30 4344 N 418.302 -1.35869 -0.798587 0
M  V30 4345 C 419.551 -1.28921 -1.5512 0
M  V30 4346 C 419.864 0.13208 -1.95154 0
M  V30 4347 O 421.07 0.323879 -2.69561 0
M  V30 4348 C 419.526 -2.26141 -2.79979 0
M  V30 4349 C 419.134 -3.73658 -2.47151 0
M  V30 4350 C 420.878 -2.28152 -3.57976 0
M  V30 4351 C 418.785 -4.62679 -3.6835 0
M  V30 4352 H 417.715 -0.479031 -0.582276 0
M  V30 4353 H 420.366 -1.61179 -0.877125 0
M  V30 4354 H 418.748 -1.86865 -3.49138 0
M  V30 4355 H 419.922 -4.21616 -1.85947 0
M  V30 4356 H 418.237 -3.74333 -1.82383 0
M  V30 4357 H 420.834 -2.91875 -4.4801 0
M  V30 4358 H 421.177 -1.28748 -3.95891 0
M  V30 4359 H 421.71 -2.65998 -2.95787 0
M  V30 4360 H 418.449 -5.63111 -3.35538 0
M  V30 4361 H 417.969 -4.19442 -4.28752 0
M  V30 4362 H 419.648 -4.78498 -4.35487 0
M  V30 4363 N 419.78 1.02168 -1.19998 0
M  V30 4364 C 421.026 1.7606 -1.01855 0
M  V30 4365 C 421.381 1.87178 0.445222 0
M  V30 4366 O 420.674 1.3828 1.32624 0
M  V30 4367 C 420.868 3.18081 -1.62969 0
M  V30 4368 C 420.697 3.20809 -3.15137 0
M  V30 4369 C 419.467 3.28342 -3.84083 0
M  V30 4370 C 421.665 3.07268 -4.1242 0
M  V30 4371 N 419.647 3.2052 -5.23584 0
M  V30 4372 C 421.018 3.0716 -5.38566 0
M  V30 4373 C 423.073 2.91448 -4.03686 0
M  V30 4374 C 421.776 2.92853 -6.56985 0
M  V30 4375 C 423.802 2.78494 -5.21723 0
M  V30 4376 C 423.164 2.79046 -6.46771 0
M  V30 4377 H 419.263 0.655192 -0.426905 0
M  V30 4378 H 421.847 1.21564 -1.52087 0
M  V30 4379 H 420.018 3.70882 -1.15329 0
M  V30 4380 H 421.75 3.80375 -1.38192 0
M  V30 4381 H 418.505 3.34859 -3.34913 0
M  V30 4382 H 418.929 3.19997 -5.96599 0
M  V30 4383 H 423.571 2.89838 -3.07821 0
M  V30 4384 H 421.289 2.93213 -7.53028 0
M  V30 4385 H 424.875 2.67278 -5.16773 0
M  V30 4386 H 423.755 2.69134 -7.36571 0
M  V30 4387 N 421.258 1.00505 1.21394 0
M  V30 4388 C 422.483 0.706367 1.95001 0
M  V30 4389 C 422.908 -0.72463 1.73582 0
M  V30 4390 O 422.266 -1.49702 1.0227 0
M  V30 4391 C 422.314 1.03299 3.45487 0
M  V30 4392 O 421.418 0.138275 4.12168 0
M  V30 4393 H 420.759 0.263175 0.609619 0
M  V30 4394 H 423.289 1.34531 1.54151 0
M  V30 4395 H 423.299 0.979872 3.96059 0
M  V30 4396 H 421.974 2.07567 3.60401 0
M  V30 4397 H 420.551 0.247928 3.72075 0
M  V30 4398 N 422.737 -1.36956 0.779787 0
M  V30 4399 C 423.685 -2.32053 0.15942 0
M  V30 4400 C 424.679 -1.55333 -0.675878 0
M  V30 4401 O 425.885 -1.70668 -0.57204 0
M  V30 4402 H 422.26 -0.751286 0.0327707 0
M  V30 4403 H 424.231 -2.8195 0.977078 0
M  V30 4404 C 422.98 -3.40602 -0.698977 0
M  V30 4405 H 422.303 -3.99746 -0.0655966 0
M  V30 4406 H 423.743 -4.09486 -1.09989 0
M  V30 4407 C 422.202 -2.81359 -1.85307 0
M  V30 4408 O 422.732 -2.72751 -2.94906 0
M  V30 4409 N 420.938 -2.38786 -1.65619 0
M  V30 4410 H 420.485 -2.45987 -0.764725 0
M  V30 4411 H 420.443 -1.99493 -2.43002 0
M  V30 4412 N 424.215 -0.530993 -1.48385 0
M  V30 4413 C 425.462 0.0027373 -2.025 0
M  V30 4414 C 425.79 1.34186 -1.40799 0
M  V30 4415 O 425.045 1.88 -0.543544 0
M  V30 4416 C 425.344 0.172742 -3.56982 0
M  V30 4417 C 425.01 -1.09215 -4.37473 0
M  V30 4418 C 423.672 -1.43881 -4.59186 0
M  V30 4419 C 426.024 -1.93153 -4.84088 0
M  V30 4420 C 423.352 -2.62381 -5.2476 0
M  V30 4421 C 425.704 -3.10833 -5.50968 0
M  V30 4422 C 424.368 -3.45843 -5.70919 0
M  V30 4423 H 423.638 0.00100165 -0.740999 0
M  V30 4424 H 426.285 -0.697219 -1.78357 0
M  V30 4425 H 424.59 0.955473 -3.79971 0
M  V30 4426 H 426.287 0.600642 -3.96476 0
M  V30 4427 H 422.877 -0.812177 -4.20834 0
M  V30 4428 H 427.061 -1.67683 -4.67115 0
M  V30 4429 H 422.317 -2.89707 -5.38405 0
M  V30 4430 H 426.491 -3.7618 -5.86056 0
M  V30 4431 H 424.118 -4.37764 -6.21503 0
M  V30 4432 N 425.693 1.55336 -0.266172 0
M  V30 4433 C 426.625 2.19544 0.658247 0
M  V30 4434 C 427.638 1.17746 1.12427 0
M  V30 4435 O 428.827 1.44517 1.04772 0
M  V30 4436 C 425.927 2.80032 1.9088 0
M  V30 4437 C 425.1 4.07436 1.59106 0
M  V30 4438 C 424.159 4.52056 2.69317 0
M  V30 4439 O 423.185 5.18023 2.35883 0
M  V30 4440 N 424.387 4.21448 3.99201 0
M  V30 4441 H 427.152 2.99503 0.108754 0
M  V30 4442 H 424.713 1.61667 -0.0869059 0
M  V30 4443 H 426.705 3.06831 2.63888 0
M  V30 4444 H 425.275 2.04119 2.36758 0
M  V30 4445 H 424.495 3.88021 0.695243 0
M  V30 4446 H 425.783 4.90462 1.35367 0
M  V30 4447 H 425.181 3.68528 4.29189 0
M  V30 4448 H 423.738 4.53039 4.68614 0
M  V30 4449 N 427.171 -0.0066808 1.57599 0
M  V30 4450 C 428.134 -0.985035 2.06953 0
M  V30 4451 C 429.134 -1.27663 0.977687 0
M  V30 4452 O 430.324 -1.22293 1.24057 0
M  V30 4453 C 427.456 -2.3118 2.50536 0
M  V30 4454 H 428.649 -0.558255 2.94658 0
M  V30 4455 H 426.202 -0.254011 1.54222 0
M  V30 4456 H 426.937 -2.78561 1.66054 0
M  V30 4457 H 426.722 -2.11338 3.3027 0
M  V30 4458 H 428.212 -3.01377 2.8907 0
M  V30 4459 N 428.649 -1.55105 -0.279332 0
M  V30 4460 C 429.926 -1.66119 -1.03267 0
M  V30 4461 C 430.306 -0.523525 -2.04505 0
M  V30 4462 O 429.654 0.477194 -2.23462 0
M  V30 4463 C 429.864 -3.05067 -1.69515 0
M  V30 4464 C 431.212 -3.62606 -2.20912 0
M  V30 4465 O 432.236 -3.07659 -1.79512 0
M  V30 4466 O 431.095 -4.58861 -2.96831 0
M  V30 4467 H 428.189 -0.674429 -0.478618 0
M  V30 4468 H 430.735 -1.67446 -0.275694 0
M  V30 4469 H 429.507 -3.79311 -0.9612 0
M  V30 4470 H 429.13 -3.07611 -2.51915 0
M  V30 4471 N 430.127 0.543554 -1.4793 0
M  V30 4472 C 431.538 1.12561 -1.48953 0
M  V30 4473 C 431.889 1.94578 -0.251754 0
M  V30 4474 O 431.014 2.0665 0.642255 0
M  V30 4475 C 431.609 2.04801 -2.69892 0
M  V30 4476 C 430.168 2.58251 -2.73831 0
M  V30 4477 C 429.315 1.34918 -2.42265 0
M  V30 4478 H 432.266 0.32947 -1.55242 0
M  V30 4479 H 432.287 2.88886 -2.47639 0
M  V30 4480 H 431.799 1.4508 -3.59963 0
M  V30 4481 H 429.9 3.21732 -1.87934 0
M  V30 4482 H 430.013 2.98312 -3.74895 0
M  V30 4483 H 428.377 1.66046 -1.93134 0
M  V30 4484 H 429.16 0.769693 -3.3456 0
M  V30 4485 N 431.605 1.3629 0.791371 0
M  V30 4486 C 432.537 1.26321 1.91248 0
M  V30 4487 C 433.55 0.18313 1.61767 0
M  V30 4488 O 434.739 0.437682 1.73051 0
M  V30 4489 C 431.839 0.925901 3.26007 0
M  V30 4490 C 431.012 2.10746 3.83281 0
M  V30 4491 C 430.071 1.74352 4.96475 0
M  V30 4492 O 429.097 2.46416 5.13096 0
M  V30 4493 N 430.299 0.676058 5.7655 0
M  V30 4494 H 433.064 2.22915 2.00323 0
M  V30 4495 H 430.625 1.29659 0.969546 0
M  V30 4496 H 432.617 0.663636 3.99222 0
M  V30 4497 H 431.187 0.0491581 3.12561 0
M  V30 4498 H 430.407 2.53264 3.02077 0
M  V30 4499 H 431.695 2.8969 4.18279 0
M  V30 4500 H 431.093 0.0776467 5.65647 0
M  V30 4501 H 429.65 0.473612 6.50077 0
M  V30 4502 N 433.083 -1.0153 1.20538 0
M  V30 4503 C 433.993 -2.13557 0.971113 0
M  V30 4504 C 435.009 -1.73845 -0.0734366 0
M  V30 4505 O 436.185 -2.01075 0.114299 0
M  V30 4506 C 433.25 -3.42661 0.527639 0
M  V30 4507 C 432.311 -3.96608 1.64319 0
M  V30 4508 C 431.544 -5.1955 1.22078 0
M  V30 4509 O 431.767 -5.70329 0.0900198 0
M  V30 4510 O 430.701 -5.66681 2.02871 0
M  V30 4511 H 434.527 -2.3619 1.90913 0
M  V30 4512 H 432.112 -1.11946 0.989362 0
M  V30 4513 H 433.994 -4.20404 0.289621 0
M  V30 4514 H 432.669 -3.21441 -0.381779 0
M  V30 4515 H 431.576 -3.20139 1.93551 0
M  V30 4516 H 432.909 -4.22219 2.52966 0
M  V30 4517 N 434.561 -1.01147 -1.20859 0
M  V30 4518 C 435.81 -0.693214 -1.89413 0
M  V30 4519 C 436.123 0.779969 -1.79376 0
M  V30 4520 O 437.329 1.21057 -2.43017 0
M  V30 4521 C 435.785 -1.18949 -3.39675 0
M  V30 4522 C 435.393 -2.68921 -3.58309 0
M  V30 4523 C 437.137 -0.94642 -4.13815 0
M  V30 4524 C 435.044 -3.12056 -5.0237 0
M  V30 4525 H 433.974 -0.255595 -0.709357 0
M  V30 4526 H 436.625 -1.22349 -1.36759 0
M  V30 4527 H 435.007 -0.587228 -3.91622 0
M  V30 4528 H 436.181 -3.34652 -3.16772 0
M  V30 4529 H 434.496 -2.91314 -2.97532 0
M  V30 4530 H 437.093 -1.24417 -5.20023 0
M  V30 4531 H 437.436 0.117219 -4.16135 0
M  V30 4532 H 437.969 -1.5118 -3.67953 0
M  V30 4533 H 434.708 -4.17674 -5.05202 0
M  V30 4534 H 434.228 -2.51041 -5.44737 0
M  V30 4535 H 435.907 -3.04403 -5.70918 0
M  V30 4536 N 436.039 1.36541 -0.78704 0
M  V30 4537 C 437.455 1.52571 -0.46844 0
M  V30 4538 C 437.655 1.7415 1.01361 0
M  V30 4539 O 436.711 1.77163 1.79915 0
M  V30 4540 C 438.024 2.71299 -1.29682 0
M  V30 4541 C 439.572 2.85169 -1.29027 0
M  V30 4542 C 440.047 4.06898 -2.10233 0
M  V30 4543 N 441.538 4.1404 -2.07666 0
M  V30 4544 C 442.273 5.07301 -2.67271 0
M  V30 4545 N 441.769 6.06021 -3.35724 0
M  V30 4546 N 443.562 4.99898 -2.57018 0
M  V30 4547 H 435.713 1.20788 -1.74711 0
M  V30 4548 H 437.976 0.589364 -0.742532 0
M  V30 4549 H 437.682 2.61868 -2.34773 0
M  V30 4550 H 437.556 3.6539 -0.936479 0
M  V30 4551 H 439.943 2.94062 -0.247284 0
M  V30 4552 H 440.024 1.91992 -1.69035 0
M  V30 4553 H 439.668 3.98766 -3.1456 0
M  V30 4554 H 439.598 4.99218 -1.67597 0
M  V30 4555 H 442.089 3.43357 -1.57843 0
M  V30 4556 H 442.402 6.73741 -3.78541 0
M  V30 4557 H 440.747 6.06253 -3.39826 0
M  V30 4558 H 443.938 4.21724 -2.03142 0
M  V30 4559 H 444.111 5.72392 -3.03761 0
M  V30 4560 N 437.518 0.538854 1.48102 0
M  V30 4561 C 438.764 0.00801365 2.02798 0
M  V30 4562 C 439.097 -1.3309 1.41424 0
M  V30 4563 O 438.372 -1.86169 0.563158 0
M  V30 4564 C 438.655 -0.104589 3.59948 0
M  V30 4565 C 438.508 1.26012 4.31788 0
M  V30 4566 C 439.827 -0.827055 4.32259 0
M  V30 4567 H 436.946 0.00438624 0.736987 0
M  V30 4568 H 439.588 0.6976 1.7673 0
M  V30 4569 H 437.738 -0.691893 3.82289 0
M  V30 4570 H 439.41 1.88922 4.2084 0
M  V30 4571 H 437.653 1.83968 3.92859 0
M  V30 4572 H 438.324 1.13424 5.40221 0
M  V30 4573 H 440.8 -0.328578 4.14801 0
M  V30 4574 H 439.676 -0.87476 5.41885 0
M  V30 4575 H 439.937 -1.87927 4.0017 0
M  V30 4576 N 438.996 -1.55193 0.274407 0
M  V30 4577 C 439.926 -2.25471 -0.607032 0
M  V30 4578 C 440.907 -1.24461 -1.15946 0
M  V30 4579 O 442.092 -1.53179 -1.19373 0
M  V30 4580 C 439.222 -2.97526 -1.79153 0
M  V30 4581 C 438.176 -4.05459 -1.37067 0
M  V30 4582 C 437.502 -4.65084 -2.6382 0
M  V30 4583 C 438.802 -5.19691 -0.521389 0
M  V30 4584 H 440.496 -2.99393 -0.0209343 0
M  V30 4585 H 438.042 -1.43997 -0.00862866 0
M  V30 4586 H 439.995 -3.45402 -2.41404 0
M  V30 4587 H 438.719 -2.21138 -2.40344 0
M  V30 4588 H 437.378 -3.58393 -0.771355 0
M  V30 4589 H 437.026 -3.85365 -3.23268 0
M  V30 4590 H 436.726 -5.37961 -2.36372 0
M  V30 4591 H 438.25 -5.15708 -3.26921 0
M  V30 4592 H 439.664 -5.63623 -1.04889 0
M  V30 4593 H 438.061 -5.99126 -0.341825 0
M  V30 4594 H 439.131 -4.82713 0.46 0
M  V30 4595 N 440.474 -0.00167713 -1.576 0
M  V30 4596 C 441.72 0.67819 -1.91761 0
M  V30 4597 C 442.075 1.71288 -0.876256 0
M  V30 4598 O 441.368 1.91276 0.111333 0
M  V30 4599 C 441.562 1.36189 -3.30435 0
M  V30 4600 C 441.391 0.394938 -4.47962 0
M  V30 4601 C 440.161 0.00472875 -5.053 0
M  V30 4602 C 442.359 -0.339521 -5.13178 0
M  V30 4603 N 440.341 -0.960257 -6.06343 0
M  V30 4604 C 441.712 -1.15914 -6.09068 0
M  V30 4605 C 443.767 -0.403177 -4.96265 0
M  V30 4606 C 442.47 -2.03661 -6.89866 0
M  V30 4607 C 444.496 -1.26788 -5.77649 0
M  V30 4608 C 443.858 -2.07535 -6.73134 0
M  V30 4609 H 439.957 0.221317 -0.750028 0
M  V30 4610 H 442.541 -0.0624182 -1.946 0
M  V30 4611 H 440.712 2.07278 -3.28467 0
M  V30 4612 H 442.444 1.99658 -3.52021 0
M  V30 4613 H 439.199 0.373452 -4.72125 0
M  V30 4614 H 439.623 -1.43817 -6.61548 0
M  V30 4615 H 444.265 0.206818 -4.22294 0
M  V30 4616 H 441.983 -2.65727 -7.63161 0
M  V30 4617 H 445.569 -1.32107 -5.66603 0
M  V30 4618 H 444.449 -2.73363 -7.35012 0
M  V30 4619 N 441.952 1.55251 0.271103 0
M  V30 4620 C 442.862 1.9136 1.35714 0
M  V30 4621 C 443.878 0.811075 1.5394 0
M  V30 4622 O 445.054 1.11031 1.6803 0
M  V30 4623 C 442.119 2.1798 2.69603 0
M  V30 4624 C 441.18 3.4153 2.60107 0
M  V30 4625 C 440.413 3.66871 3.8761 0
M  V30 4626 O 440.636 2.94689 4.8838 0
M  V30 4627 O 439.57 4.60405 3.87699 0
M  V30 4628 H 443.396 2.83815 1.08088 0
M  V30 4629 H 440.981 1.41821 0.469792 0
M  V30 4630 H 442.863 2.36518 3.48765 0
M  V30 4631 H 441.538 1.28708 2.97012 0
M  V30 4632 H 440.445 3.28325 1.79314 0
M  V30 4633 H 441.778 4.31027 2.37647 0
M  V30 4634 N 443.43 -0.535701 1.48216 0
M  V30 4635 C 444.363 -1.65726 1.56876 0
M  V30 4636 C 445.341 -1.57094 0.419542 0
M  V30 4637 O 446.525 -1.77648 0.630352 0
M  V30 4638 C 443.652 -3.04096 1.49142 0
M  V30 4639 C 442.698 -3.31105 2.68834 0
M  V30 4640 S 443.531 -3.18001 4.30854 0
M  V30 4641 C 444.687 -4.58828 4.25709 0
M  V30 4642 H 444.92 -1.58129 2.51759 0
M  V30 4643 H 442.453 -0.718218 1.36678 0
M  V30 4644 H 444.411 -3.839 1.45366 0
M  V30 4645 H 443.072 -3.09139 0.556067 0
M  V30 4646 H 442.265 -4.32033 2.59545 0
M  V30 4647 H 441.867 -2.58961 2.69843 0
M  V30 4648 H 444.159 -5.5023 3.95289 0
M  V30 4649 H 445.102 -4.73172 5.26796 0
M  V30 4650 H 445.51 -4.37883 3.56257 0
M  V30 4651 N 444.908 -1.36708 -0.784132 0
M  V30 4652 C 445.855 -1.31466 -1.89698 0
M  V30 4653 C 446.825 -0.18239 -1.65096 0
M  V30 4654 O 448.01 -0.369762 -1.87183 0
M  V30 4655 C 445.15 -1.1151 -3.26588 0
M  V30 4656 C 444.263 -2.33859 -3.63227 0
M  V30 4657 C 443.398 -2.06873 -4.89262 0
M  V30 4658 C 442.437 -3.25154 -5.18595 0
M  V30 4659 N 441.574 -2.978 -6.35814 0
M  V30 4660 H 446.414 -2.26619 -1.93515 0
M  V30 4661 H 443.951 -1.12625 -0.946256 0
M  V30 4662 H 445.909 -0.979653 -4.05535 0
M  V30 4663 H 444.539 -0.200103 -3.22179 0
M  V30 4664 H 443.591 -2.58188 -2.79362 0
M  V30 4665 H 444.903 -3.22109 -3.8085 0
M  V30 4666 H 444.057 -1.90289 -5.76086 0
M  V30 4667 H 442.796 -1.15942 -4.73718 0
M  V30 4668 H 441.801 -3.42292 -4.30251 0
M  V30 4669 H 443.026 -4.1692 -5.36055 0
M  V30 4670 H 440.972 -2.09485 -6.21653 0
M  V30 4671 H 440.889 -3.7959 -6.53794 0
M  V30 4672 H 442.157 -2.84805 -7.25607 0
M  V30 4673 N 446.386 1.0089 -1.21074 0
M  V30 4674 C 447.333 2.09588 -0.966512 0
M  V30 4675 C 448.303 1.65761 0.106089 0
M  V30 4676 O 449.488 1.90758 -0.0402287 0
M  V30 4677 C 446.628 3.40958 -0.533058 0
M  V30 4678 C 445.741 3.9822 -1.67467 0
M  V30 4679 C 444.876 5.17682 -1.19076 0
M  V30 4680 C 443.915 5.67043 -2.30496 0
M  V30 4681 N 443.052 6.77759 -1.83267 0
M  V30 4682 H 447.892 2.29815 -1.89708 0
M  V30 4683 H 445.429 1.12689 -0.945489 0
M  V30 4684 H 447.387 4.1637 -0.263019 0
M  V30 4685 H 446.017 3.20781 0.360505 0
M  V30 4686 H 445.069 3.1983 -2.05944 0
M  V30 4687 H 446.381 4.3085 -2.51336 0
M  V30 4688 H 445.535 6.00326 -0.877151 0
M  V30 4689 H 444.274 4.86635 -0.322066 0
M  V30 4690 H 443.279 4.82999 -2.62664 0
M  V30 4691 H 444.504 6.00121 -3.17855 0
M  V30 4692 H 442.45 6.48527 -0.987356 0
M  V30 4693 H 442.367 7.09624 -2.60711 0
M  V30 4694 H 443.635 7.63949 -1.54928 0
M  V30 4695 N 447.864 1.01787 1.20321 0
M  V30 4696 C 449.141 0.622978 1.85414 0
M  V30 4697 C 449.521 -0.898887 1.91006 0
M  V30 4698 O 448.869 -1.79112 1.41884 0
M  V30 4699 C 449.079 1.27226 3.24984 0
M  V30 4700 C 450.427 1.3885 4.01255 0
M  V30 4701 O 451.451 1.22857 3.34342 0
M  V30 4702 O 450.31 1.64705 5.2109 0
M  V30 4703 H 447.404 0.215116 0.798533 0
M  V30 4704 H 449.95 1.11533 1.27901 0
M  V30 4705 H 448.722 2.31209 3.15687 0
M  V30 4706 H 448.345 0.767069 3.90131 0
M  V30 4707 N 449.342 -1.36122 0.79427 0
M  V30 4708 C 450.758 -1.5232 0.476525 0
M  V30 4709 C 450.958 -1.74685 -1.00436 0
M  V30 4710 O 450.014 -1.78115 -1.78973 0
M  V30 4711 C 451.327 -2.70607 1.31119 0
M  V30 4712 C 452.875 -2.8448 1.30537 0
M  V30 4713 C 453.35 -4.05778 2.12387 0
M  V30 4714 N 454.841 -4.12933 2.09859 0
M  V30 4715 C 455.576 -5.05876 2.69957 0
M  V30 4716 N 455.072 -6.04232 3.38934 0
M  V30 4717 N 456.865 -4.98528 2.59665 0
M  V30 4718 H 449.016 -1.1986 1.75349 0
M  V30 4719 H 451.279 -0.585418 0.745647 0
M  V30 4720 H 450.985 -2.60619 2.36158 0
M  V30 4721 H 450.859 -3.64888 0.955843 0
M  V30 4722 H 453.246 -2.93927 0.262876 0
M  V30 4723 H 453.327 -1.91093 1.70051 0
M  V30 4724 H 452.971 -3.97092 3.1667 0
M  V30 4725 H 452.901 -4.98323 1.70242 0
M  V30 4726 H 455.392 -3.42515 1.59662 0
M  V30 4727 H 455.705 -6.71724 3.82109 0
M  V30 4728 H 454.05 -6.04443 3.43036 0
M  V30 4729 H 457.241 -4.20641 2.05375 0
M  V30 4730 H 457.414 -5.70773 3.06793 0
M  V30 4731 N 450.82 -0.546701 -1.47814 0
M  V30 4732 C 451.75 0.195317 -2.32682 0
M  V30 4733 C 452.731 0.918981 -1.43139 0
M  V30 4734 O 453.916 0.901501 -1.72008 0
M  V30 4735 C 451.046 1.23237 -3.247 0
M  V30 4736 C 450 0.625818 -4.234 0
M  V30 4737 C 449.326 1.76674 -5.04669 0
M  V30 4738 C 450.626 -0.413515 -5.2066 0
M  V30 4739 H 452.32 -0.513184 -2.94969 0
M  V30 4740 H 449.866 -0.248241 -1.41844 0
M  V30 4741 H 451.819 1.75955 -3.82907 0
M  V30 4742 H 450.543 1.97067 -2.60446 0
M  V30 4743 H 449.202 0.120023 -3.66403 0
M  V30 4744 H 448.85 2.49383 -4.36826 0
M  V30 4745 H 448.55 1.36673 -5.71484 0
M  V30 4746 H 450.074 2.29738 -5.65732 0
M  V30 4747 H 451.488 0.0272042 -5.73294 0
M  V30 4748 H 449.885 -0.731825 -5.95621 0
M  V30 4749 H 450.955 -1.31325 -4.66778 0
M  V30 4750 N 452.299 1.55045 -0.282633 0
M  V30 4751 C 453.246 2.22822 0.601566 0
M  V30 4752 C 454.216 1.20431 1.14392 0
M  V30 4753 O 455.401 1.48996 1.19184 0
M  V30 4754 C 452.541 2.95873 1.77632 0
M  V30 4755 C 451.654 4.12999 1.26711 0
M  V30 4756 C 450.789 4.73676 2.40426 0
M  V30 4757 C 449.828 5.82981 1.86545 0
M  V30 4758 N 448.965 6.3769 2.93762 0
M  V30 4759 H 453.805 2.97995 0.0169528 0
M  V30 4760 H 451.342 1.471 -0.00339964 0
M  V30 4761 H 453.3 3.36447 2.46697 0
M  V30 4762 H 451.93 2.2311 2.33285 0
M  V30 4763 H 450.982 3.77494 0.469314 0
M  V30 4764 H 452.294 4.91803 0.832518 0
M  V30 4765 H 451.448 5.17008 3.17471 0
M  V30 4766 H 450.187 3.94164 2.87203 0
M  V30 4767 H 449.192 5.39092 1.07983 0
M  V30 4768 H 450.417 6.64366 1.40694 0
M  V30 4769 H 448.363 5.61069 3.39908 0
M  V30 4770 H 448.28 7.11788 2.54744 0
M  V30 4771 H 449.548 6.8568 3.7076 0
M  V30 4772 N 453.777 0.010035 1.57597 0
M  V30 4773 C 455.007 -0.682422 1.95004 0
M  V30 4774 C 455.415 -1.67278 0.884014 0
M  V30 4775 O 454.758 -1.83129 -0.144672 0
M  V30 4776 C 454.82 -1.46141 3.28456 0
M  V30 4777 C 454.484 -0.631523 4.52615 0
M  V30 4778 C 455.481 0.0850905 5.1983 0
M  V30 4779 C 453.166 -0.574539 4.99003 0
M  V30 4780 C 455.16 0.847566 6.3174 0
M  V30 4781 C 452.847 0.191655 6.10799 0
M  V30 4782 C 453.845 0.901432 6.77025 0
M  V30 4783 O 453.533 1.65511 7.86677 0
M  V30 4784 H 453.265 -0.194361 0.647456 0
M  V30 4785 H 455.819 0.060312 2.05311 0
M  V30 4786 H 454.049 -2.24885 3.14585 0
M  V30 4787 H 455.738 -2.04016 3.50902 0
M  V30 4788 H 456.504 0.0502812 4.84974 0
M  V30 4789 H 452.383 -1.11654 4.47274 0
M  V30 4790 H 455.927 1.4021 6.83364 0
M  V30 4791 H 451.824 0.228249 6.45096 0
M  V30 4792 H 452.592 1.57287 8.03245 0
M  V30 4793 N 455.255 -1.55392 -0.262866 0
M  V30 4794 C 456.503 -1.76127 -0.991147 0
M  V30 4795 C 456.824 -0.571083 -1.8645 0
M  V30 4796 O 456.094 0.413698 -1.91482 0
M  V30 4797 H 454.674 -0.649528 -0.368948 0
M  V30 4798 H 457.336 -1.9281 -0.284655 0
M  V30 4799 H 456.432 -2.6663 -1.62219 0
M  V30 4800 N 456.733 0.527833 -1.48498 0
M  V30 4801 C 457.98 1.28354 -1.56625 0
M  V30 4802 C 458.308 1.93 -0.241096 0
M  V30 4803 O 457.563 1.79967 0.768798 0
M  V30 4804 C 457.862 2.39275 -2.65485 0
M  V30 4805 C 457.528 1.92268 -4.07853 0
M  V30 4806 C 456.19 1.79166 -4.46602 0
M  V30 4807 C 458.542 1.56771 -4.97064 0
M  V30 4808 C 455.87 1.28905 -5.72364 0
M  V30 4809 C 458.222 1.07972 -6.23318 0
M  V30 4810 C 456.886 0.934887 -6.60921 0
M  V30 4811 H 456.156 0.469682 -0.573131 0
M  V30 4812 H 458.803 0.588781 -1.82224 0
M  V30 4813 H 457.108 3.1443 -2.33754 0
M  V30 4814 H 458.805 2.974 -2.68988 0
M  V30 4815 H 455.395 2.03417 -3.77252 0
M  V30 4816 H 459.579 1.65753 -4.67803 0
M  V30 4817 H 454.835 1.16381 -6.00221 0
M  V30 4818 H 459.009 0.795775 -6.91838 0
M  V30 4819 H 456.636 0.543231 -7.58257 0
M  V30 4820 N 458.211 1.37122 0.776871 0
M  V30 4821 C 459.158 1.3247 1.88998 0
M  V30 4822 C 460.128 0.191143 1.64997 0
M  V30 4823 O 461.313 0.379683 1.86984 0
M  V30 4824 C 458.453 1.13241 3.25992 0
M  V30 4825 C 457.566 2.35782 3.61982 0
M  V30 4826 C 456.701 2.09465 4.88158 0
M  V30 4827 C 455.74 3.279 5.16864 0
M  V30 4828 N 454.877 3.01167 6.34226 0
M  V30 4829 H 459.717 2.27642 1.9231 0
M  V30 4830 H 457.254 1.13125 0.94027 0
M  V30 4831 H 459.212 1.00115 4.0501 0
M  V30 4832 H 457.842 0.217186 3.22069 0
M  V30 4833 H 456.894 2.59666 2.77989 0
M  V30 4834 H 458.206 3.24125 3.79137 0
M  V30 4835 H 457.36 1.93341 5.75069 0
M  V30 4836 H 456.099 1.18452 4.73097 0
M  V30 4837 H 455.104 3.44569 4.2843 0
M  V30 4838 H 456.329 4.19757 5.33836 0
M  V30 4839 H 454.275 2.12779 6.20533 0
M  V30 4840 H 454.192 3.83052 6.51772 0
M  V30 4841 H 455.46 2.88649 7.24087 0
M  V30 4842 N 459.689 -1.00246 1.21608 0
M  V30 4843 C 461.1 -1.55511 1.03312 0
M  V30 4844 C 461.451 -1.91946 -0.406332 0
M  V30 4845 O 460.576 -1.73753 -1.28992 0
M  V30 4846 C 461.171 -2.82576 1.86913 0
M  V30 4847 C 459.73 -3.34318 1.72941 0
M  V30 4848 C 458.877 -2.07487 1.83968 0
M  V30 4849 H 461.828 -0.824638 1.35593 0
M  V30 4850 H 461.849 -3.54559 1.38087 0
M  V30 4851 H 461.361 -2.56026 2.91672 0
M  V30 4852 H 459.462 -3.65797 0.70877 0
M  V30 4853 H 459.575 -4.05566 2.55055 0
M  V30 4854 H 457.939 -2.20603 1.27304 0
M  V30 4855 H 458.722 -1.83346 2.9024 0
M  V30 4856 N 461.167 -1.02423 -1.1978 0
M  V30 4857 C 462.414 -0.717988 -1.89344 0
M  V30 4858 C 462.742 0.753036 -1.79331 0
M  V30 4859 O 461.997 1.56355 -1.17692 0
M  V30 4860 C 462.296 -1.1088 -3.39765 0
M  V30 4861 C 461.962 -2.57731 -3.6998 0
M  V30 4862 C 460.624 -2.97854 -3.77937 0
M  V30 4863 C 462.976 -3.52763 -3.83677 0
M  V30 4864 C 460.304 -4.31931 -3.97054 0
M  V30 4865 C 462.656 -4.86538 -4.04306 0
M  V30 4866 C 461.32 -5.26356 -4.10494 0
M  V30 4867 H 460.59 -0.26273 -0.692859 0
M  V30 4868 H 463.237 -1.28623 -1.41875 0
M  V30 4869 H 461.542 -0.459094 -3.89101 0
M  V30 4870 H 463.239 -0.849432 -3.919 0
M  V30 4871 H 459.829 -2.25646 -3.64393 0
M  V30 4872 H 464.013 -3.2292 -3.76877 0
M  V30 4873 H 459.269 -4.62324 -4.00083 0
M  V30 4874 H 463.443 -5.60093 -4.13846 0
M  V30 4875 H 461.07 -6.3026 -4.2506 0
M  V30 4876 N 462.645 1.35699 -0.801477 0
M  V30 4877 C 463.894 1.98165 -0.375979 0
M  V30 4878 C 464.207 1.64306 1.06127 0
M  V30 4879 O 465.413 2.20097 1.58964 0
M  V30 4880 C 463.869 3.54497 -0.621305 0
M  V30 4881 C 463.477 3.9727 -2.07076 0
M  V30 4882 C 465.221 4.23697 -0.26091 0
M  V30 4883 C 463.128 5.46427 -2.26211 0
M  V30 4884 H 462.058 0.741478 -0.136844 0
M  V30 4885 H 464.709 1.54834 -0.984814 0
M  V30 4886 H 463.091 3.95958 0.0574112 0
M  V30 4887 H 464.265 3.66974 -2.78687 0
M  V30 4888 H 462.58 3.40943 -2.39054 0
M  V30 4889 H 465.177 5.33334 -0.381994 0
M  V30 4890 H 465.52 4.0869 0.792344 0
M  V30 4891 H 466.053 3.87639 -0.893339 0
M  V30 4892 H 462.792 5.66396 -3.29963 0
M  V30 4893 H 462.312 5.78309 -1.59119 0
M  V30 4894 H 463.991 6.12819 -2.07513 0
M  V30 4895 N 464.123 0.554532 1.47522 0
M  V30 4896 C 465.369 0.0377449 2.03365 0
M  V30 4897 C 465.724 -1.29654 1.42154 0
M  V30 4898 O 465.017 -1.83022 0.566865 0
M  V30 4899 C 465.211 -0.115927 3.57212 0
M  V30 4900 C 465.04 1.20191 4.33341 0
M  V30 4901 C 463.81 1.76849 4.73342 0
M  V30 4902 C 466.008 2.11849 4.68641 0
M  V30 4903 N 463.99 3.02665 5.34104 0
M  V30 4904 C 465.361 3.22245 5.29677 0
M  V30 4905 C 467.416 2.11876 4.5057 0
M  V30 4906 C 466.119 4.32763 5.74551 0
M  V30 4907 C 468.145 3.21405 4.9644 0
M  V30 4908 C 467.507 4.30519 5.57523 0
M  V30 4909 H 463.606 0.0559107 0.779999 0
M  V30 4910 H 466.19 0.741232 1.80038 0
M  V30 4911 H 464.361 -0.788533 3.80311 0
M  V30 4912 H 466.093 -0.634538 3.99695 0
M  V30 4913 H 462.848 1.30681 4.55214 0
M  V30 4914 H 463.272 3.66788 5.69031 0
M  V30 4915 H 467.914 1.28801 4.02704 0
M  V30 4916 H 465.632 5.166 6.2141 0
M  V30 4917 H 469.218 3.22509 4.8423 0
M  V30 4918 H 468.098 5.13873 5.92371 0
M  V30 4919 N 465.601 -1.54893 0.290851 0
M  V30 4920 C 466.533 -2.20564 -0.623236 0
M  V30 4921 C 467.546 -1.19519 -1.1054 0
M  V30 4922 O 468.735 -1.46165 -1.02459 0
M  V30 4923 C 465.835 -2.83033 -1.86401 0
M  V30 4924 C 465.008 -4.09916 -1.52604 0
M  V30 4925 C 464.067 -4.56284 -2.62091 0
M  V30 4926 O 463.093 -5.2171 -2.27612 0
M  V30 4927 N 464.295 -4.27746 -3.92446 0
M  V30 4928 H 467.06 -2.99638 -0.0610915 0
M  V30 4929 H 464.621 -1.61508 0.112615 0
M  V30 4930 H 466.613 -3.1099 -2.58973 0
M  V30 4931 H 465.183 -2.0786 -2.33481 0
M  V30 4932 H 464.403 -3.89078 -0.633424 0
M  V30 4933 H 465.691 -4.92554 -1.27547 0
M  V30 4934 H 465.089 -3.7531 -4.23272 0
M  V30 4935 H 463.646 -4.60437 -4.61347 0
M  V30 4936 N 467.08 -0.0183926 -1.57589 0
M  V30 4937 C 468.326 0.663543 -1.91638 0
M  V30 4938 C 468.659 1.72392 -0.894134 0
M  V30 4939 O 467.934 1.94316 0.0846449 0
M  V30 4940 C 468.217 1.28984 -3.36207 0
M  V30 4941 C 468.07 0.239761 -4.49161 0
M  V30 4942 C 469.389 2.2109 -3.80536 0
M  V30 4943 H 466.508 0.239746 -0.696915 0
M  V30 4944 H 469.15 -0.073456 -1.89858 0
M  V30 4945 H 467.3 1.91799 -3.37854 0
M  V30 4946 H 468.972 -0.390119 -4.59647 0
M  V30 4947 H 467.215 -0.435972 -4.31604 0
M  V30 4948 H 467.886 0.717383 -5.47319 0
M  V30 4949 H 470.362 1.68273 -3.80557 0
M  V30 4950 H 469.238 2.61869 -4.82406 0
M  V30 4951 H 469.499 3.09764 -3.15434 0
M  V30 4952 N 468.558 1.5553 0.254621 0
M  V30 4953 C 469.806 1.7665 0.981793 0
M  V30 4954 C 470.127 0.580963 1.86145 0
M  V30 4955 O 469.397 -0.403537 1.91699 0
M  V30 4956 H 467.977 0.651475 0.365498 0
M  V30 4957 H 470.639 1.92958 0.274426 0
M  V30 4958 H 469.735 2.67486 1.60802 0
M  V30 4959 N 470.036 -0.519951 1.48776 0
M  V30 4960 C 471.284 -1.2727 1.56993 0
M  V30 4961 C 471.605 -1.9339 0.25004 0
M  V30 4962 O 470.875 -1.81822 -0.729216 0
M  V30 4963 H 469.455 -0.472732 0.578389 0
M  V30 4964 H 472.117 -0.604234 1.85297 0
M  V30 4965 H 471.213 -2.04669 2.3562 0
M  V30 4966 N 471.514 -1.37532 -0.769588 0
M  V30 4967 C 472.461 -1.3347 -1.88293 0
M  V30 4968 C 473.431 -0.199891 -1.64893 0
M  V30 4969 O 474.616 -0.389594 -1.8678 0
M  V30 4970 C 471.756 -1.14968 -3.25387 0
M  V30 4971 C 470.869 -2.37698 -3.60727 0
M  V30 4972 C 470.004 -2.12051 -4.8704 0
M  V30 4973 C 469.043 -3.30636 -5.15117 0
M  V30 4974 N 468.18 -3.04527 -6.3262 0
M  V30 4975 H 473.02 -2.28658 -1.911 0
M  V30 4976 H 470.557 -1.13622 -0.934257 0
M  V30 4977 H 472.515 -1.02261 -4.04473 0
M  V30 4978 H 471.145 -0.234263 -3.21949 0
M  V30 4979 H 470.197 -2.61137 -2.76608 0
M  V30 4980 H 471.509 -3.26131 -3.77413 0
M  V30 4981 H 470.663 -1.96388 -5.74035 0
M  V30 4982 H 469.402 -1.20959 -4.72462 0
M  V30 4983 H 468.407 -3.46836 -4.26597 0
M  V30 4984 H 469.632 -4.22582 -5.31603 0
M  V30 4985 H 467.578 -2.16067 -6.19396 0
M  V30 4986 H 467.495 -3.86503 -6.49732 0
M  V30 4987 H 468.763 -2.92485 -7.22546 0
M  V30 4988 N 472.992 0.995999 -1.22138 0
M  V30 4989 C 474.239 1.7351 -1.04406 0
M  V30 4990 C 474.567 1.89884 0.421244 0
M  V30 4991 O 473.822 1.43683 1.32867 0
M  V30 4992 C 474.121 3.14553 -1.6968 0
M  V30 4993 C 473.787 3.18102 -3.19565 0
M  V30 4994 C 472.449 3.18778 -3.60464 0
M  V30 4995 C 474.801 3.14636 -4.15516 0
M  V30 4996 C 472.129 3.13684 -4.95801 0
M  V30 4997 C 474.481 3.11084 -5.50826 0
M  V30 4998 C 473.145 3.10074 -5.91109 0
M  V30 4999 H 472.415 0.634916 -0.38205 0
M  V30 5000 H 475.062 1.1667 -1.51857 0
M  V30 5001 H 473.367 3.74682 -1.14546 0
M  V30 5002 H 475.064 3.70477 -1.53454 0
M  V30 5003 H 471.654 3.18324 -2.86998 0
M  V30 5004 H 475.838 3.13266 -3.84939 0
M  V30 5005 H 471.094 3.11245 -5.26247 0
M  V30 5006 H 475.268 3.07357 -6.24904 0
M  V30 5007 H 472.895 3.05882 -6.95946 0
M  V30 5008 N 474.47 1.03057 1.19235 0
M  V30 5009 C 475.698 0.747697 1.92917 0
M  V30 5010 C 476.113 -0.69372 1.75593 0
M  V30 5011 O 475.47 -1.47191 1.07894 0
M  V30 5012 C 475.521 1.09159 3.44625 0
M  V30 5013 O 475.242 2.47641 3.61394 0
M  V30 5014 C 476.743 0.831763 4.35427 0
M  V30 5015 H 473.963 0.273453 0.612751 0
M  V30 5016 H 476.507 1.37552 1.51327 0
M  V30 5017 H 474.662 0.508919 3.84043 0
M  V30 5018 H 475.076 2.60499 4.55237 0
M  V30 5019 H 476.55 1.12233 5.4047 0
M  V30 5020 H 477.027 -0.233769 4.38577 0
M  V30 5021 H 477.633 1.39725 4.01693 0
M  V30 5022 N 475.948 -1.35272 0.808662 0
M  V30 5023 C 477.194 -1.99434 0.399717 0
M  V30 5024 C 477.549 -1.62992 -1.02232 0
M  V30 5025 O 476.842 -0.884091 -1.69983 0
M  V30 5026 C 477.036 -3.53556 0.522798 0
M  V30 5027 C 476.865 -4.04969 1.95525 0
M  V30 5028 C 475.635 -4.34228 2.58407 0
M  V30 5029 C 477.833 -4.23362 2.92009 0
M  V30 5030 N 475.815 -4.71585 3.93041 0
M  V30 5031 C 477.186 -4.63739 4.11517 0
M  V30 5032 C 479.241 -4.05576 2.88813 0
M  V30 5033 C 477.944 -4.88189 5.28265 0
M  V30 5034 C 479.97 -4.31184 4.04765 0
M  V30 5035 C 479.332 -4.71834 5.23022 0
M  V30 5036 H 475.431 -0.757534 0.19408 0
M  V30 5037 H 478.015 -1.63939 1.05034 0
M  V30 5038 H 476.186 -3.88277 -0.0978471 0
M  V30 5039 H 477.918 -4.04604 0.0882378 0
M  V30 5040 H 474.673 -4.24621 2.09747 0
M  V30 5041 H 475.097 -4.9452 4.62363 0
M  V30 5042 H 479.739 -3.73288 1.98535 0
M  V30 5043 H 477.457 -5.1935 6.19113 0
M  V30 5044 H 481.043 -4.18972 4.03675 0
M  V30 5045 H 479.923 -4.91263 6.11253 0
M  V30 5046 N 477.426 -0.562348 -1.47226 0
M  V30 5047 C 478.837 -0.130325 -1.86245 0
M  V30 5048 C 479.188 1.30128 -1.46838 0
M  V30 5049 O 478.313 1.97974 -0.873805 0
M  V30 5050 C 478.908 -0.229738 -3.3802 0
M  V30 5051 C 477.467 0.14728 -3.76112 0
M  V30 5052 C 476.614 -0.574971 -2.71274 0
M  V30 5053 H 479.565 -0.771773 -1.3867 0
M  V30 5054 H 479.586 0.550316 -3.76499 0
M  V30 5055 H 479.098 -1.27178 -3.66671 0
M  V30 5056 H 477.199 1.19023 -3.53078 0
M  V30 5057 H 477.312 -0.214858 -4.78618 0
M  V30 5058 H 475.676 -0.0174756 -2.54694 0
M  V30 5059 H 476.459 -1.61827 -3.02766 0
M  V30 5060 N 478.904 1.54736 -0.299062 0
M  V30 5061 C 479.834 2.26409 0.571085 0
M  V30 5062 C 480.815 1.2629 1.13951 0
M  V30 5063 O 482 1.55059 1.16921 0
M  V30 5064 C 479.13 3.00338 1.74396 0
M  V30 5065 C 478.084 4.07588 1.30599 0
M  V30 5066 C 477.41 4.69222 2.56387 0
M  V30 5067 C 478.71 5.20455 0.438645 0
M  V30 5068 H 480.404 2.99388 -0.0266991 0
M  V30 5069 H 477.95 1.43993 -0.0142812 0
M  V30 5070 H 479.903 3.49198 2.35878 0
M  V30 5071 H 478.627 2.24934 2.36796 0
M  V30 5072 H 477.286 3.59575 0.71424 0
M  V30 5073 H 476.934 3.9046 3.17097 0
M  V30 5074 H 476.634 5.41653 2.27784 0
M  V30 5075 H 478.158 5.20844 3.18675 0
M  V30 5076 H 479.572 5.65221 0.959085 0
M  V30 5077 H 477.969 5.99594 0.246466 0
M  V30 5078 H 479.039 4.8192 -0.536738 0
M  V30 5079 N 480.382 0.0267497 1.57577 0
M  V30 5080 C 481.659 -0.690926 1.82991 0
M  V30 5081 C 482.039 -1.90471 0.910164 0
M  V30 5082 O 481.387 -2.28474 -0.0347985 0
M  V30 5083 C 481.597 -1.07139 3.32148 0
M  V30 5084 C 482.945 -1.46402 3.98562 0
M  V30 5085 O 483.969 -1.16443 3.36629 0
M  V30 5086 O 482.828 -2.02214 5.07712 0
M  V30 5087 H 479.922 -0.338747 0.75444 0
M  V30 5088 H 482.468 0.0542506 1.69613 0
M  V30 5089 H 481.24 -0.207394 3.9075 0
M  V30 5090 H 480.863 -1.87481 3.50623 0
M  V30 5091 N 481.861 -1.55662 -0.24637 0
M  V30 5092 C 482.808 -1.90361 -1.30504 0
M  V30 5093 C 483.778 -0.757905 -1.47801 0
M  V30 5094 O 484.963 -1.01161 -1.61775 0
M  V30 5095 C 482.103 -2.2042 -2.65535 0
M  V30 5096 C 481.216 -3.47799 -2.56242 0
M  V30 5097 C 480.351 -3.67426 -3.8363 0
M  V30 5098 C 479.39 -4.88403 -3.68956 0
M  V30 5099 N 478.527 -5.04548 -4.88237 0
M  V30 5100 H 483.367 -2.80645 -1.00213 0
M  V30 5101 H 480.904 -1.38924 -0.483577 0
M  V30 5102 H 482.862 -2.35853 -3.44135 0
M  V30 5103 H 481.492 -1.3334 -2.93973 0
M  V30 5104 H 480.544 -3.40694 -1.69208 0
M  V30 5105 H 481.856 -4.36544 -2.4131 0
M  V30 5106 H 481.01 -3.82821 -4.70673 0
M  V30 5107 H 479.749 -2.76914 -4.01459 0
M  V30 5108 H 478.754 -4.72984 -2.80296 0
M  V30 5109 H 479.979 -5.80375 -3.52621 0
M  V30 5110 H 477.925 -4.16974 -5.06427 0
M  V30 5111 H 477.842 -5.87384 -4.75937 0
M  V30 5112 H 479.11 -5.24355 -5.76777 0
M  V30 5113 N 483.339 0.512053 -1.4905 0
M  V30 5114 C 484.616 1.27337 -1.48474 0
M  V30 5115 C 484.996 2.1009 -0.206301 0
M  V30 5116 O 484.344 2.136 0.811609 0
M  V30 5117 C 484.554 2.13954 -2.75726 0
M  V30 5118 C 485.902 2.73507 -3.24776 0
M  V30 5119 O 486.926 2.24229 -2.76767 0
M  V30 5120 O 485.785 3.63186 -4.08361 0
M  V30 5121 H 482.879 0.575652 -0.593762 0
M  V30 5122 H 485.425 0.527232 -1.61302 0
M  V30 5123 H 484.197 1.52709 -3.60272 0
M  V30 5124 H 483.82 2.95782 -2.65705 0
M  V30 5125 N 484.817 1.37938 0.762283 0
M  V30 5126 C 485.765 1.34569 1.89721 0
M  V30 5127 C 486.759 0.232929 1.67791 0
M  V30 5128 O 487.965 0.401485 1.75465 0
M  V30 5129 H 484.34 0.419594 0.624055 0
M  V30 5130 H 486.311 2.30357 1.8968 0
M  V30 5131 C 485.06 1.17898 3.27101 0
M  V30 5132 H 484.383 2.02781 3.44558 0
M  V30 5133 H 485.823 1.19593 4.06784 0
M  V30 5134 C 484.282 -0.114728 3.36705 0
M  V30 5135 O 484.812 -1.0949 3.8649 0
M  V30 5136 N 483.018 -0.16863 2.9011 0
M  V30 5137 H 482.565 0.62967 2.49786 0
M  V30 5138 H 482.523 -1.03383 2.96916 0
M  V30 5139 N 486.295 -0.989507 1.22664 0
M  V30 5140 C 487.542 -1.72953 1.05325 0
M  V30 5141 C 487.87 -1.90104 -0.411168 0
M  V30 5142 O 487.125 -1.44386 -1.32103 0
M  V30 5143 C 487.424 -3.13649 1.71345 0
M  V30 5144 C 487.09 -3.16403 3.21248 0
M  V30 5145 C 485.752 -3.16862 3.62149 0
M  V30 5146 C 488.104 -3.12428 4.17179 0
M  V30 5147 C 485.432 -3.11051 4.97458 0
M  V30 5148 C 487.784 -3.08159 5.52468 0
M  V30 5149 C 486.448 -3.06935 5.92746 0
M  V30 5150 H 485.718 -0.632881 0.385412 0
M  V30 5151 H 488.365 -1.15863 1.52473 0
M  V30 5152 H 486.67 -3.74069 1.16532 0
M  V30 5153 H 488.367 -3.69658 1.55416 0
M  V30 5154 H 484.957 -3.16798 2.88682 0
M  V30 5155 H 489.141 -3.11221 3.86595 0
M  V30 5156 H 484.397 -3.0845 5.27891 0
M  V30 5157 H 488.571 -3.04039 6.26525 0
M  V30 5158 H 486.198 -3.02186 6.97558 0
M  V30 5159 N 487.773 -1.03688 -1.18687 0
M  V30 5160 C 488.683 -0.634908 -2.25845 0
M  V30 5161 C 489.699 0.337065 -1.70704 0
M  V30 5162 O 490.875 0.192943 -2.00474 0
M  V30 5163 C 487.94 -0.000180054 -3.467 0
M  V30 5164 C 487.001 -1.02067 -4.1699 0
M  V30 5165 C 486.234 -0.41614 -5.32075 0
M  V30 5166 O 486.457 0.778712 -5.65059 0
M  V30 5167 O 485.391 -1.14296 -5.90948 0
M  V30 5168 H 489.217 -1.52757 -2.62486 0
M  V30 5169 H 486.802 -0.807533 -1.25695 0
M  V30 5170 H 488.684 0.353342 -4.19916 0
M  V30 5171 H 487.359 0.866367 -3.11891 0
M  V30 5172 H 486.266 -1.42592 -3.45859 0
M  V30 5173 H 487.599 -1.85786 -4.5579 0
M  V30 5174 N 489.251 1.34841 -0.815825 0
M  V30 5175 C 490.481 2.02436 -0.412695 0
M  V30 5176 C 490.889 1.61604 0.983906 0
M  V30 5177 O 490.232 0.813729 1.64694 0
M  V30 5178 C 490.294 3.56953 -0.427182 0
M  V30 5179 C 489.958 4.21083 -1.77589 0
M  V30 5180 C 490.955 4.42107 -2.73564 0
M  V30 5181 C 488.64 4.58006 -2.06243 0
M  V30 5182 C 490.634 4.99169 -3.9637 0
M  V30 5183 C 488.321 5.1478 -3.2931 0
M  V30 5184 C 489.319 5.35304 -4.24191 0
M  V30 5185 O 489.007 5.90878 -5.45086 0
M  V30 5186 H 488.739 0.655631 -0.164695 0
M  V30 5187 H 491.293 1.73246 -1.1034 0
M  V30 5188 H 489.523 3.85372 0.320175 0
M  V30 5189 H 491.212 4.05875 -0.0450875 0
M  V30 5190 H 491.978 4.13953 -2.52721 0
M  V30 5191 H 487.857 4.41339 -1.33196 0
M  V30 5192 H 491.401 5.15105 -4.70439 0
M  V30 5193 H 487.298 5.42362 -3.5002 0
M  V30 5194 H 488.066 6.0932 -5.46508 0
M  V30 5195 N 490.729 0.570148 1.46925 0
M  V30 5196 C 491.679 -0.190921 2.27199 0
M  V30 5197 C 492.663 -0.873457 1.35128 0
M  V30 5198 O 493.855 -0.769627 1.59392 0
M  V30 5199 C 490.984 -1.21204 3.21192 0
M  V30 5200 C 490.07 -0.532261 4.20747 0
M  V30 5201 N 490.461 0.405038 5.04176 0
M  V30 5202 C 488.759 -0.784582 4.39045 0
M  V30 5203 C 489.46 0.801149 5.76157 0
M  V30 5204 N 488.436 0.153082 5.43384 0
M  V30 5205 H 492.238 0.529535 2.8909 0
M  V30 5206 H 489.752 0.391019 1.57622 0
M  V30 5207 H 491.749 -1.77135 3.77398 0
M  V30 5208 H 490.409 -1.93345 2.6086 0
M  V30 5209 H 491.42 0.779903 5.11994 0
M  V30 5210 H 488.097 -1.49352 3.89872 0
M  V30 5211 H 489.487 1.57208 6.5325 0
M  V30 5212 N 492.207 -1.54576 0.307264 0
M  V30 5213 C 493.437 -2.04378 -0.302158 0
M  V30 5214 C 493.845 -1.18381 -1.47589 0
M  V30 5215 O 493.188 -0.20352 -1.82569 0
M  V30 5216 C 493.25 -3.50133 -0.815305 0
M  V30 5217 C 492.914 -4.56401 0.233977 0
M  V30 5218 C 493.911 -5.08884 1.06456 0
M  V30 5219 C 491.596 -5.0088 0.377478 0
M  V30 5220 C 493.59 -6.04394 2.02452 0
M  V30 5221 C 491.277 -5.96208 1.34088 0
M  V30 5222 C 492.275 -6.47849 2.16288 0
M  V30 5223 O 491.963 -7.41308 3.10994 0
M  V30 5224 H 491.695 -0.672502 -0.0686839 0
M  V30 5225 H 494.249 -2.00484 0.446682 0
M  V30 5226 H 492.479 -3.51371 -1.61478 0
M  V30 5227 H 494.168 -3.83098 -1.34129 0
M  V30 5228 H 494.934 -4.75311 0.964596 0
M  V30 5229 H 490.813 -4.60309 -0.252405 0
M  V30 5230 H 494.357 -6.44626 2.66652 0
M  V30 5231 H 490.254 -6.29198 1.44154 0
M  V30 5232 H 491.022 -7.5913 3.06045 0
M  V30 5233 N 493.685 -0.035106 -1.57561 0
M  V30 5234 C 495.096 0.502885 -1.798 0
M  V30 5235 C 495.447 1.71892 -0.945921 0
M  V30 5236 O 494.572 2.15822 -0.157991 0
M  V30 5237 C 495.167 0.919097 -3.26095 0
M  V30 5238 C 493.726 1.40216 -3.49308 0
M  V30 5239 C 492.873 0.369709 -2.74824 0
M  V30 5240 H 495.824 -0.261102 -1.56537 0
M  V30 5241 H 495.845 1.78308 -3.36135 0
M  V30 5242 H 495.357 0.0338526 -3.88085 0
M  V30 5243 H 493.458 2.30714 -2.92578 0
M  V30 5244 H 493.571 1.40541 -4.58023 0
M  V30 5245 H 491.935 0.839113 -2.40481 0
M  V30 5246 H 492.718 -0.507173 -3.39533 0
M  V30 5247 N 495.163 1.55791 0.238111 0
M  V30 5248 C 496.579 1.48411 0.587045 0
M  V30 5249 C 496.779 0.72702 1.87927 0
M  V30 5250 O 495.835 0.259942 2.51158 0
M  V30 5251 C 497.148 2.92873 0.681623 0
M  V30 5252 C 498.696 3.03295 0.773363 0
M  V30 5253 C 499.171 4.49082 0.899428 0
M  V30 5254 N 500.662 4.53056 0.964075 0
M  V30 5255 C 501.397 5.63117 1.08104 0
M  V30 5256 N 500.893 6.82969 1.16299 0
M  V30 5257 N 502.686 5.50933 1.11488 0
M  V30 5258 H 494.837 2.0345 -0.610076 0
M  V30 5259 H 497.1 0.924034 -0.211813 0
M  V30 5260 H 496.806 3.51142 -0.19802 0
M  V30 5261 H 496.68 3.43851 1.55069 0
M  V30 5262 H 499.067 2.45101 1.64346 0
M  V30 5263 H 499.148 2.55513 -0.121034 0
M  V30 5264 H 498.792 5.07889 0.0338586 0
M  V30 5265 H 498.722 4.94553 1.809 0
M  V30 5266 H 501.213 3.66737 0.91173 0
M  V30 5267 H 501.526 7.62598 1.25155 0
M  V30 5268 H 499.871 6.85712 1.13241 0
M  V30 5269 H 503.062 4.56231 1.0474 0
M  V30 5270 H 503.235 6.36743 1.20259 0
M  V30 5271 N 496.642 -0.504142 1.49319 0
M  V30 5272 C 497.89 -1.25598 1.58334 0
M  V30 5273 C 498.211 -1.93114 0.270538 0
M  V30 5274 O 497.481 -1.82585 -0.709891 0
M  V30 5275 H 496.061 -0.466571 0.58337 0
M  V30 5276 H 498.723 -0.584547 1.85928 0
M  V30 5277 H 497.819 -2.02159 2.37778 0
M  V30 5278 N 498.12 -1.38341 -0.754957 0
M  V30 5279 C 499.367 -1.34473 -1.51404 0
M  V30 5280 C 499.695 0.0656458 -1.94389 0
M  V30 5281 O 498.95 1.04244 -1.65625 0
M  V30 5282 C 499.249 -2.2452 -2.78075 0
M  V30 5283 C 498.915 -3.72512 -2.54059 0
M  V30 5284 C 497.577 -4.1284 -2.47218 0
M  V30 5285 C 499.929 -4.66197 -2.33044 0
M  V30 5286 C 497.257 -5.44945 -2.17376 0
M  V30 5287 C 499.609 -5.98558 -2.04723 0
M  V30 5288 C 498.273 -6.37972 -1.96337 0
M  V30 5289 H 497.543 -0.492072 -0.554027 0
M  V30 5290 H 500.19 -1.70687 -0.868223 0
M  V30 5291 H 498.495 -1.81357 -3.473 0
M  V30 5292 H 500.192 -2.18832 -3.36026 0
M  V30 5293 H 496.782 -3.40538 -2.60253 0
M  V30 5294 H 500.966 -4.35888 -2.37309 0
M  V30 5295 H 496.222 -5.74426 -2.09391 0
M  V30 5296 H 500.396 -6.70693 -1.87465 0
M  V30 5297 H 498.023 -7.40258 -1.72978 0
M  V30 5298 N 499.598 0.982988 -1.23187 0
M  V30 5299 C 500.875 1.69814 -0.970707 0
M  V30 5300 C 501.255 2.04811 0.511424 0
M  V30 5301 O 500.603 1.73924 1.48198 0
M  V30 5302 C 500.813 2.94143 -1.87831 0
M  V30 5303 C 502.161 3.66712 -2.14026 0
M  V30 5304 O 503.185 3.04171 -1.8536 0
M  V30 5305 O 502.044 4.79258 -2.62629 0
M  V30 5306 H 499.138 0.741659 -0.365884 0
M  V30 5307 H 501.684 1.03844 -1.34218 0
M  V30 5308 H 500.456 2.64858 -2.88038 0
M  V30 5309 H 500.079 3.6785 -1.50905 0
M  V30 5310 N 501.076 1.04316 1.18135 0
M  V30 5311 C 502.353 0.662166 1.84051 0
M  V30 5312 C 502.733 -0.858169 1.9287 0
M  V30 5313 O 502.081 -1.76062 1.45652 0
M  V30 5314 C 502.291 1.3409 3.22212 0
M  V30 5315 C 503.639 1.4733 3.9822 0
M  V30 5316 O 504.663 1.29921 3.31661 0
M  V30 5317 O 503.522 1.75722 5.17479 0
M  V30 5318 H 500.616 0.232005 0.79379 0
M  V30 5319 H 503.162 1.1422 1.25506 0
M  V30 5320 H 501.934 2.37853 3.10711 0
M  V30 5321 H 501.557 0.849649 3.88416 0
M  V30 5322 N 502.554 -1.34406 0.822964 0
M  V30 5323 C 503.794 -2.00103 0.416915 0
M  V30 5324 C 504.158 -1.63826 -1.00125 0
M  V30 5325 O 505.359 -2.22367 -1.51018 0
M  V30 5326 C 503.63 -3.52101 0.613151 0
M  V30 5327 S 505.189 -4.37774 0.299956 0
M  V30 5328 H 502.007 -0.69333 0.157527 0
M  V30 5329 H 504.609 -1.63698 1.06879 0
M  V30 5330 H 503.313 -3.75991 1.64496 0
M  V30 5331 H 502.844 -3.93364 -0.0534554 0
M  V30 5332 H 504.859 -4.8822 -0.886336 0
M  V30 5333 N 504.032 -0.577932 -1.46621 0
M  V30 5334 C 505.279 -0.0616879 -2.02406 0
M  V30 5335 C 505.607 1.29638 -1.44997 0
M  V30 5336 O 504.862 1.86176 -0.60308 0
M  V30 5337 C 505.161 0.0590832 -3.57351 0
M  V30 5338 C 504.827 -1.23077 -4.33777 0
M  V30 5339 C 503.489 -1.58416 -4.54376 0
M  V30 5340 C 505.841 -2.08457 -4.77698 0
M  V30 5341 C 503.169 -2.78943 -5.16147 0
M  V30 5342 C 505.521 -3.28204 -5.408 0
M  V30 5343 C 504.185 -3.63832 -5.59627 0
M  V30 5344 H 503.455 -0.0225732 -0.740656 0
M  V30 5345 H 506.102 -0.753609 -1.76048 0
M  V30 5346 H 504.407 0.834104 -3.82818 0
M  V30 5347 H 506.104 0.474202 -3.98186 0
M  V30 5348 H 502.694 -0.945652 -4.18038 0
M  V30 5349 H 506.878 -1.82459 -4.61544 0
M  V30 5350 H 502.134 -3.06689 -5.28916 0
M  V30 5351 H 506.308 -3.94634 -5.73792 0
M  V30 5352 H 503.935 -4.57315 -6.07262 0
M  V30 5353 N 505.51 1.54411 -0.315457 0
M  V30 5354 C 506.738 2.04833 0.291738 0
M  V30 5355 C 507.153 1.19203 1.46411 0
M  V30 5356 O 506.51 0.220867 1.81159 0
M  V30 5357 C 506.561 3.53969 0.73404 0
M  V30 5358 O 506.282 4.36346 -0.391682 0
M  V30 5359 C 507.783 4.2045 1.40489 0
M  V30 5360 H 505.003 0.668195 0.0612947 0
M  V30 5361 H 507.547 1.99276 -0.45929 0
M  V30 5362 H 505.702 3.5984 1.43506 0
M  V30 5363 H 506.116 5.24481 -0.0447088 0
M  V30 5364 H 507.59 5.26278 1.66539 0
M  V30 5365 H 508.067 3.71067 2.3496 0
M  V30 5366 H 508.673 4.18694 0.746662 0
M  V30 5367 N 506.988 0.0434614 1.5754 0
M  V30 5368 C 508.237 -0.631454 1.91561 0
M  V30 5369 C 508.55 -1.72457 0.92292 0
M  V30 5370 O 509.756 -2.45712 1.15489 0
M  V30 5371 C 508.212 -1.17447 3.40197 0
M  V30 5372 C 507.82 -0.113867 4.47855 0
M  V30 5373 C 509.564 -1.82507 3.83264 0
M  V30 5374 C 507.471 -0.669326 5.876 0
M  V30 5375 H 506.401 -0.239629 0.714908 0
M  V30 5376 H 509.052 0.111097 1.83163 0
M  V30 5377 H 507.434 -1.96909 3.43574 0
M  V30 5378 H 508.608 0.659348 4.56058 0
M  V30 5379 H 506.923 0.438821 4.14081 0
M  V30 5380 H 509.52 -2.25047 4.85034 0
M  V30 5381 H 509.863 -2.67365 3.19095 0
M  V30 5382 H 510.396 -1.09712 3.82372 0
M  V30 5383 H 507.135 0.141449 6.55347 0
M  V30 5384 H 506.655 -1.4107 5.82974 0
M  V30 5385 H 508.334 -1.15463 6.36614 0
M  V30 5386 N 508.466 -1.55915 -0.229846 0
M  V30 5387 C 509.376 -1.94891 -1.30593 0
M  V30 5388 C 510.392 -0.851604 -1.51736 0
M  V30 5389 O 511.568 -1.15447 -1.65027 0
M  V30 5390 C 508.633 -2.25052 -2.63728 0
M  V30 5391 C 507.694 -3.48306 -2.5096 0
M  V30 5392 C 506.927 -3.77019 -3.77747 0
M  V30 5393 O 507.15 -3.07534 -4.80395 0
M  V30 5394 O 506.084 -4.70523 -3.75356 0
M  V30 5395 H 509.91 -2.86581 -1.00525 0
M  V30 5396 H 507.495 -1.43017 -0.432025 0
M  V30 5397 H 509.377 -2.45682 -3.42372 0
M  V30 5398 H 508.052 -1.36538 -2.93495 0
M  V30 5399 H 506.959 -3.32964 -1.70546 0
M  V30 5400 H 508.292 -4.37177 -2.26136 0
M  V30 5401 N 509.944 0.496216 -1.49584 0
M  V30 5402 C 511.355 1.07765 -1.52459 0
M  V30 5403 C 511.706 1.93679 -0.31353 0
M  V30 5404 O 510.831 2.08588 0.576186 0
M  V30 5405 C 511.426 1.96111 -2.76271 0
M  V30 5406 C 509.985 2.49409 -2.81908 0
M  V30 5407 C 509.132 1.27142 -2.46435 0
M  V30 5408 H 512.083 0.279914 -1.56212 0
M  V30 5409 H 512.104 2.80862 -2.56704 0
M  V30 5410 H 511.616 1.33555 -3.64396 0
M  V30 5411 H 509.717 3.1559 -1.98074 0
M  V30 5412 H 509.83 2.86234 -3.84196 0
M  V30 5413 H 508.194 1.59818 -1.98319 0
M  V30 5414 H 508.977 0.662866 -3.3684 0
M  V30 5415 N 511.423 1.38739 0.74761 0
M  V30 5416 C 512.7 1.25791 1.49786 0
M  V30 5417 C 513.08 -0.138075 2.10648 0
M  V30 5418 O 512.428 -1.14815 1.9756 0
M  V30 5419 C 512.638 2.37265 2.55942 0
M  V30 5420 C 513.986 2.75978 3.22679 0
M  V30 5421 O 515.01 2.36621 2.6625 0
M  V30 5422 O 513.869 3.43867 4.24756 0
M  V30 5423 H 510.963 0.492251 0.664543 0
M  V30 5424 H 513.509 1.50582 0.782511 0
M  V30 5425 H 512.281 3.30644 2.0926 0
M  V30 5426 H 511.904 2.14071 3.35051 0
M  V30 5427 N 512.901 -0.976442 1.23707 0
M  V30 5428 C 513.831 -2.08749 1.04624 0
M  V30 5429 C 514.812 -1.70057 -0.0380956 0
M  V30 5430 O 515.997 -1.93782 0.127308 0
M  V30 5431 C 513.127 -3.41335 0.640902 0
M  V30 5432 C 512.081 -3.93947 1.67302 0
M  V30 5433 C 511.407 -5.22774 1.12301 0
M  V30 5434 C 512.707 -4.22769 3.06697 0
M  V30 5435 H 514.401 -2.24972 1.97555 0
M  V30 5436 H 511.947 -1.08108 0.951247 0
M  V30 5437 H 513.9 -4.18489 0.494434 0
M  V30 5438 H 512.624 -3.24988 -0.324099 0
M  V30 5439 H 511.283 -3.18941 1.80755 0
M  V30 5440 H 510.931 -5.0278 0.148877 0
M  V30 5441 H 510.631 -5.58942 1.81267 0
M  V30 5442 H 512.155 -6.02546 0.988479 0
M  V30 5443 H 513.569 -4.90659 2.96524 0
M  V30 5444 H 511.966 -4.70147 3.72937 0
M  V30 5445 H 513.036 -3.29885 3.55392 0
M  V30 5446 N 514.379 -1.04941 -1.1758 0
M  V30 5447 C 515.79 -0.784501 -1.69418 0
M  V30 5448 C 516.141 0.693625 -1.8353 0
M  V30 5449 O 515.266 1.53925 -1.52106 0
M  V30 5450 C 515.861 -1.41746 -3.07723 0
M  V30 5451 C 514.42 -1.20066 -3.56737 0
M  V30 5452 C 513.567 -1.5026 -2.33061 0
M  V30 5453 H 516.518 -1.21469 -1.02133 0
M  V30 5454 H 516.539 -0.825381 -3.7144 0
M  V30 5455 H 516.051 -2.49325 -2.9742 0
M  V30 5456 H 514.152 -0.144006 -3.72322 0
M  V30 5457 H 514.265 -1.90384 -4.39648 0
M  V30 5458 H 512.629 -0.922598 -2.37403 0
M  V30 5459 H 513.412 -2.58967 -2.25368 0
M  V30 5460 N 515.857 1.33968 -0.830081 0
M  V30 5461 C 517.104 1.98063 -0.421566 0
M  V30 5462 C 517.432 1.65787 1.0171 0
M  V30 5463 O 516.687 0.925348 1.72441 0
M  V30 5464 C 516.986 3.52679 -0.57898 0
M  V30 5465 C 516.652 4.04884 -1.98443 0
M  V30 5466 C 515.314 4.18852 -2.36888 0
M  V30 5467 C 517.666 4.32879 -2.90285 0
M  V30 5468 C 514.994 4.58145 -3.66497 0
M  V30 5469 C 517.346 4.7362 -4.19364 0
M  V30 5470 C 516.01 4.85794 -4.57778 0
M  V30 5471 H 515.28 0.724765 -0.154262 0
M  V30 5472 H 517.927 1.59792 -1.05541 0
M  V30 5473 H 516.232 3.91556 0.138219 0
M  V30 5474 H 517.929 4.00261 -0.243317 0
M  V30 5475 H 514.519 3.9448 -1.67581 0
M  V30 5476 H 518.703 4.21619 -2.61823 0
M  V30 5477 H 513.959 4.65762 -3.96075 0
M  V30 5478 H 518.133 4.9424 -4.90612 0
M  V30 5479 H 515.76 5.15998 -5.58256 0
M  V30 5480 N 517.335 0.585699 1.46312 0
M  V30 5481 C 518.282 -0.145835 2.30339 0
M  V30 5482 C 519.252 -0.881215 1.40797 0
M  V30 5483 O 520.437 -0.871293 1.69744 0
M  V30 5484 C 517.577 -1.15161 3.25318 0
M  V30 5485 C 516.69 -0.419367 4.2996 0
M  V30 5486 C 515.825 -1.41293 5.12064 0
M  V30 5487 C 514.864 -0.667261 6.08452 0
M  V30 5488 N 514.001 -1.60903 6.83414 0
M  V30 5489 H 518.841 0.576755 2.92365 0
M  V30 5490 H 516.378 0.296237 1.44086 0
M  V30 5491 H 518.336 -1.74763 3.78832 0
M  V30 5492 H 516.966 -1.84188 2.65094 0
M  V30 5493 H 516.018 0.291751 3.7928 0
M  V30 5494 H 517.33 0.163433 4.98532 0
M  V30 5495 H 516.484 -2.08167 5.6987 0
M  V30 5496 H 515.223 -2.02966 4.43459 0
M  V30 5497 H 514.228 0.0152356 5.49798 0
M  V30 5498 H 515.453 -0.0558817 6.79077 0
M  V30 5499 H 513.399 -2.21381 6.17516 0
M  V30 5500 H 513.316 -1.07911 7.48259 0
M  V30 5501 H 514.584 -2.26802 7.45775 0
M  V30 5502 N 518.813 -1.54241 0.323641 0
M  V30 5503 C 520.038 -2.05452 -0.283605 0
M  V30 5504 C 520.463 -1.19823 -1.44997 0
M  V30 5505 O 519.821 -0.207358 -1.8011 0
M  V30 5506 C 519.869 -3.53823 -0.695795 0
M  V30 5507 O 518.973 -3.71134 -1.79815 0
M  V30 5508 H 518.314 -0.662024 -0.0511917 0
M  V30 5509 H 520.844 -1.99079 0.472073 0
M  V30 5510 H 520.854 -3.96094 -0.978434 0
M  V30 5511 H 519.529 -4.15602 0.157287 0
M  V30 5512 H 518.106 -3.40768 -1.51431 0
M  V30 5513 N 520.291 -0.0518155 -1.57515 0
M  V30 5514 C 521.538 0.621823 -1.92716 0
M  V30 5515 C 521.866 1.70813 -0.930229 0
M  V30 5516 O 521.121 1.95616 0.0573708 0
M  V30 5517 C 521.42 1.25607 -3.34601 0
M  V30 5518 C 521.086 0.297901 -4.49915 0
M  V30 5519 C 519.748 0.034243 -4.81188 0
M  V30 5520 C 522.1 -0.358738 -5.19964 0
M  V30 5521 C 519.428 -0.893479 -5.79857 0
M  V30 5522 C 521.78 -1.27466 -6.19625 0
M  V30 5523 C 520.444 -1.54698 -6.49326 0
M  V30 5524 H 519.714 0.227541 -0.705199 0
M  V30 5525 H 522.361 -0.118432 -1.91133 0
M  V30 5526 H 520.666 2.07161 -3.32553 0
M  V30 5527 H 522.363 1.78424 -3.59118 0
M  V30 5528 H 518.953 0.513581 -4.25512 0
M  V30 5529 H 523.137 -0.168133 -4.96015 0
M  V30 5530 H 518.393 -1.11193 -6.01204 0
M  V30 5531 H 522.567 -1.78953 -6.73015 0
M  V30 5532 H 520.194 -2.26748 -7.25596 0
M  V30 5533 N 521.769 1.56035 0.221574 0
M  V30 5534 C 522.699 1.95434 1.2778 0
M  V30 5535 C 523.68 0.822564 1.48889 0
M  V30 5536 O 524.865 1.08486 1.61072 0
M  V30 5537 C 521.995 2.27102 2.62759 0
M  V30 5538 C 520.949 3.4277 2.56306 0
M  V30 5539 C 520.275 3.60043 3.95314 0
M  V30 5540 C 521.575 4.77742 2.11093 0
M  V30 5541 H 523.269 2.83912 0.950504 0
M  V30 5542 H 520.815 1.36596 0.455791 0
M  V30 5543 H 522.768 2.53256 3.36807 0
M  V30 5544 H 521.492 1.35478 2.97176 0
M  V30 5545 H 520.151 3.16664 1.84715 0
M  V30 5546 H 519.799 2.65794 4.27039 0
M  V30 5547 H 519.499 4.37841 3.91879 0
M  V30 5548 H 521.023 3.88545 4.71025 0
M  V30 5549 H 522.437 5.03102 2.74885 0
M  V30 5550 H 520.834 5.58823 2.18716 0
M  V30 5551 H 521.904 4.731 1.06321 0
M  V30 5552 O 523.286 -0.367026 1.57274 0
M  V30 5553 H 523.977 -1.01783 1.64803 0
M  V30 END ATOM
M  V30 BEGIN BOND
M  V30 END BOND
M  V30 END CTAB
M  END
$$$$
