drugbank_target|P39593 Hydroxyethylthiazole kinase (DB02969)
 OpenBabel12092120013D

  0  0  0     0  0            999 V3000
M  V30 BEGIN CTAB
M  V30 COUNTS 4001 4026 0 0 0
M  V30 BEGIN ATOM
M  V30 1 H -0.908 1.98254 -0.117106 0
M  V30 2 N 0 1.576 0 0
M  V30 3 C 0.933 2.03868 1.02534 0
M  V30 4 C 1.911 0.928543 1.3348 0
M  V30 5 O 3.095 1.19667 1.45644 0
M  V30 6 C 0.222 2.43627 2.35294 0
M  V30 7 C -0.732 3.65373 2.2001 0
M  V30 8 S 0.101 5.13292 1.52614 0
M  V30 9 C 1.257 5.56322 2.86805 0
M  V30 10 H 1.49 2.90518 0.631377 0
M  V30 11 H -0.977 1.52953 0.210867 0
M  V30 12 H 0.981 2.67203 3.11629 0
M  V30 13 H -0.358 1.57376 2.7183 0
M  V30 14 H -1.165 3.90944 3.18086 0
M  V30 15 H -1.563 3.418 1.51819 0
M  V30 16 H 0.729 5.58782 3.83104 0
M  V30 17 H 1.672 6.56266 2.65933 0
M  V30 18 H 2.08 4.83886 2.90714 0
M  V30 19 N 1.4781 -0.272755 1.55222 0
M  V30 20 C 2.7551 -1.02562 1.66555 0
M  V30 21 C 3.1351 -2.04282 0.532189 0
M  V30 22 O 2.4831 -2.23662 -0.467717 0
M  V30 23 C 2.6931 -1.6822 3.05782 0
M  V30 24 C 4.0411 -2.19373 3.63539 0
M  V30 25 O 5.0651 -1.78206 3.08417 0
M  V30 26 O 3.9241 -2.94883 4.60115 0
M  V30 27 H 1.0181 -0.475755 0.676451 0
M  V30 28 H 3.5641 -0.268593 1.67561 0
M  V30 29 H 2.3361 -0.945112 3.79715 0
M  V30 30 H 1.9591 -2.50609 3.08676 0
M  V30 31 N 2.9562 -1.48159 -0.537278 0
M  V30 32 C 3.9192 -1.61665 -1.62472 0
M  V30 33 C 4.9192 -0.490395 -1.5314 0
M  V30 34 O 6.1092 -0.755998 -1.5694 0
M  V30 35 C 3.2412 -1.57997 -3.02076 0
M  V30 36 H 4.4342 -2.58621 -1.51839 0
M  V30 37 H 1.9872 -1.36647 -0.758771 0
M  V30 38 H 2.7222 -0.624913 -3.18222 0
M  V30 39 H 2.5072 -2.39755 -3.10258 0
M  V30 40 H 3.9972 -1.70627 -3.81151 0
M  V30 41 N 4.4343 0.785586 -1.36625 0
M  V30 42 C 5.3663 1.90711 -1.2713 0
M  V30 43 C 6.3793 1.61688 -0.189986 0
M  V30 44 O 7.5683 1.72864 -0.445014 0
M  V30 45 C 4.6683 3.25611 -0.939713 0
M  V30 46 C 3.8413 3.82385 -2.12369 0
M  V30 47 C 2.9003 4.95732 -1.76456 0
M  V30 48 O 1.9263 5.12047 -2.48589 0
M  V30 49 N 3.1283 5.76258 -0.700492 0
M  V30 50 H 5.8933 1.99376 -2.23762 0
M  V30 51 H 3.4543 0.964041 -1.30069 0
M  V30 52 H 5.4463 3.98937 -0.680554 0
M  V30 53 H 4.0163 3.12538 -0.0624074 0
M  V30 54 H 3.2363 3.01001 -2.54543 0
M  V30 55 H 4.5243 4.17047 -2.9146 0
M  V30 56 H 3.9223 5.65609 -0.101624 0
M  V30 57 H 2.4793 6.4987 -0.501165 0
M  V30 58 N 5.9124 1.20967 1.01018 0
M  V30 59 C 7.1374 1.0503 1.78839 0
M  V30 60 C 7.5624 -0.395752 1.8389 0
M  V30 61 O 6.9204 -1.28529 1.27867 0
M  V30 62 C 6.9684 1.64602 3.2084 0
M  V30 63 O 6.0724 0.887988 4.02726 0
M  V30 64 H 5.4134 0.369987 0.551367 0
M  V30 65 H 7.9434 1.60399 1.27018 0
M  V30 66 H 7.9534 1.68607 3.71532 0
M  V30 67 H 6.6284 2.69841 3.16479 0
M  V30 68 H 5.2054 0.922648 3.61305 0
M  V30 69 N 7.3905 -1.2043 1.01659 0
M  V30 70 C 8.3535 -2.21433 0.591616 0
M  V30 71 C 9.3535 -1.57203 -0.338226 0
M  V30 72 O 10.5435 -1.73737 -0.126918 0
M  V30 73 C 7.6755 -3.40628 -0.136058 0
M  V30 74 H 8.8685 -2.60545 1.48514 0
M  V30 75 H 6.4215 -1.33893 0.806379 0
M  V30 76 H 7.1565 -3.07019 -1.04449 0
M  V30 77 H 6.9415 -3.88475 0.531917 0
M  V30 78 H 8.4315 -4.15475 -0.420735 0
M  V30 79 N 8.8686 -0.792821 -1.36206 0
M  V30 80 C 9.8316 -0.199459 -2.2833 0
M  V30 81 C 10.8316 0.605189 -1.48977 0
M  V30 82 O 12.0216 0.425685 -1.68919 0
M  V30 83 C 9.1536 0.723523 -3.33134 0
M  V30 84 H 10.3466 -1.01181 -2.82316 0
M  V30 85 H 7.8996 -0.562485 -1.45828 0
M  V30 86 H 8.6346 1.56008 -2.84309 0
M  V30 87 H 8.4196 0.148436 -3.91819 0
M  V30 88 H 9.9096 1.13344 -4.01924 0
M  V30 89 N 10.3467 1.47872 -0.545128 0
M  V30 90 C 11.2937 2.29849 0.2093 0
M  V30 91 C 12.2637 1.38313 0.919707 0
M  V30 92 O 13.4487 1.67277 0.917772 0
M  V30 93 C 10.5887 3.22019 1.24088 0
M  V30 94 C 9.7017 4.2864 0.537778 0
M  V30 95 C 8.8367 5.07973 1.5536 0
M  V30 96 C 7.8757 6.06381 0.8348 0
M  V30 97 N 7.0127 6.78717 1.79688 0
M  V30 98 H 11.8527 2.93845 -0.49591 0
M  V30 99 H 9.3897 1.44848 -0.256389 0
M  V30 100 H 11.3477 3.73868 1.85144 0
M  V30 101 H 9.9777 2.59914 1.91428 0
M  V30 102 H 9.0297 3.7994 -0.187046 0
M  V30 103 H 10.3417 4.98793 -0.0258907 0
M  V30 104 H 9.4957 5.63912 2.23803 0
M  V30 105 H 8.2347 4.37693 2.15118 0
M  V30 106 H 7.2397 5.49631 0.136388 0
M  V30 107 H 8.4647 6.78665 0.24313 0
M  V30 108 H 6.4107 6.11177 2.38326 0
M  V30 109 H 6.3277 7.44998 1.28505 0
M  V30 110 H 7.5957 7.39237 2.47282 0
M  V30 111 N 11.8248 0.280983 1.55075 0
M  V30 112 C 13.0648 -0.335234 2.01632 0
M  V30 113 C 13.4288 -1.5261 1.16508 0
M  V30 114 O 14.6298 -2.21235 1.52672 0
M  V30 115 C 12.9008 -0.702172 3.50434 0
M  V30 116 S 14.4598 -1.30409 4.18974 0
M  V30 117 H 11.2778 -0.103967 0.703358 0
M  V30 118 H 13.8798 0.404187 1.91276 0
M  V30 119 H 12.5838 0.17333 4.10034 0
M  V30 120 H 12.1148 -1.4729 3.64786 0
M  V30 121 H 14.1298 -2.59253 4.23087 0
M  V30 122 N 13.3029 -1.57598 0.00835791 0
M  V30 123 C 14.2329 -2.1198 -0.979113 0
M  V30 124 C 15.2139 -1.03091 -1.35301 0
M  V30 125 O 16.3989 -1.30818 -1.43528 0
M  V30 126 C 13.5289 -2.62995 -2.26828 0
M  V30 127 C 12.4829 -3.76485 -2.03576 0
M  V30 128 C 11.8089 -4.13846 -3.38579 0
M  V30 129 C 13.1089 -5.0342 -1.39161 0
M  V30 130 H 14.8029 -2.94738 -0.526281 0
M  V30 131 H 12.3489 -1.41783 -0.251704 0
M  V30 132 H 14.3019 -2.99669 -2.96271 0
M  V30 133 H 13.0259 -1.7737 -2.7424 0
M  V30 134 H 11.6849 -3.40217 -1.36557 0
M  V30 135 H 11.3329 -3.25232 -3.83709 0
M  V30 136 H 11.0329 -4.90312 -3.23834 0
M  V30 137 H 12.5569 -4.53086 -4.09323 0
M  V30 138 H 13.9709 -5.37812 -1.98573 0
M  V30 139 H 12.3679 -5.84746 -1.34878 0
M  V30 140 H 13.4379 -4.83548 -0.361868 0
M  V30 141 N 14.781 0.264519 -1.55364 0
M  V30 142 C 16.009 1.013 -1.80405 0
M  V30 143 C 16.424 1.79618 -0.581622 0
M  V30 144 O 15.781 1.76879 0.449468 0
M  V30 145 C 15.832 1.96487 -3.03439 0
M  V30 146 O 15.553 1.21341 -4.20961 0
M  V30 147 C 17.054 2.83079 -3.41147 0
M  V30 148 H 14.274 0.298875 -0.600762 0
M  V30 149 H 16.818 0.292736 -2.02394 0
M  V30 150 H 14.973 2.63965 -2.83551 0
M  V30 151 H 15.387 1.85573 -4.90574 0
M  V30 152 H 16.861 3.4565 -4.30384 0
M  V30 153 H 17.338 3.53286 -2.60932 0
M  V30 154 H 17.944 2.2108 -3.63323 0
M  V30 155 N 16.2591 1.48442 0.529413 0
M  V30 156 C 17.2221 1.62524 1.61612 0
M  V30 157 C 18.2221 0.498509 1.52877 0
M  V30 158 O 19.4121 0.76431 1.56537 0
M  V30 159 C 16.5441 1.59597 3.01233 0
M  V30 160 H 17.7371 2.59423 1.50465 0
M  V30 161 H 15.2901 1.37047 0.751514 0
M  V30 162 H 16.0251 0.641781 3.17886 0
M  V30 163 H 15.8101 2.41397 3.08982 0
M  V30 164 H 17.3001 1.72646 3.80241 0
M  V30 165 N 17.7372 -0.778329 1.37039 0
M  V30 166 C 18.9832 -1.53892 1.32079 0
M  V30 167 C 19.3162 -1.9396 -0.0965386 0
M  V30 168 O 18.5912 -1.63568 -1.05242 0
M  V30 169 C 18.8742 -2.80847 2.25382 0
M  V30 170 C 18.7272 -2.47076 3.75864 0
M  V30 171 C 20.0462 -3.82741 2.1725 0
M  V30 172 H 17.1652 -0.558303 0.48111 0
M  V30 173 H 19.8072 -0.893397 1.67685 0
M  V30 174 H 17.9572 -3.35931 1.95148 0
M  V30 175 H 19.6292 -1.97957 4.16666 0
M  V30 176 H 17.8722 -1.79863 3.94755 0
M  V30 177 H 18.5432 -3.37798 4.36574 0
M  V30 178 H 21.0192 -3.37133 2.43887 0
M  V30 179 H 19.8952 -4.69303 2.84686 0
M  V30 180 H 20.1562 -4.2652 1.16331 0
M  V30 181 N 19.2153 -1.21501 -1.00376 0
M  V30 182 C 20.6313 -0.972629 -1.26539 0
M  V30 183 C 20.8313 0.340257 -1.98606 0
M  V30 184 O 19.8873 1.06561 -2.28913 0
M  V30 185 C 21.2003 -2.16404 -2.08781 0
M  V30 186 C 22.7483 -2.20643 -2.22004 0
M  V30 187 C 23.2233 -3.39306 -3.07629 0
M  V30 188 N 24.7143 -3.39401 -3.15217 0
M  V30 189 C 25.4493 -4.27867 -3.81729 0
M  V30 190 N 24.9453 -5.26533 -4.5026 0
M  V30 191 N 26.7383 -4.15672 -3.78382 0
M  V30 192 H 18.8893 -2.05929 -0.520281 0
M  V30 193 H 21.1523 -0.901803 -0.292328 0
M  V30 194 H 20.8583 -3.11554 -1.63178 0
M  V30 195 H 20.7323 -2.15567 -3.09533 0
M  V30 196 H 23.1193 -1.26048 -2.66825 0
M  V30 197 H 23.2003 -2.25523 -1.20718 0
M  V30 198 H 22.8443 -4.34195 -2.63509 0
M  V30 199 H 22.7743 -3.31665 -4.09031 0
M  V30 200 H 25.2653 -2.67997 -2.66432 0
M  V30 201 H 25.5783 -5.90337 -4.98721 0
M  V30 202 H 23.9233 -5.30457 -4.49044 0
M  V30 203 H 27.1143 -3.3785 -3.23998 0
M  V30 204 H 27.2873 -4.84825 -4.2994 0
M  V30 205 N 20.6934 1.19889 -1.02296 0
M  V30 206 C 22.1094 1.41462 -0.738954 0
M  V30 207 C 22.3094 1.89721 0.678846 0
M  V30 208 O 21.3654 2.07016 1.4457 0
M  V30 209 C 22.6784 2.43083 -1.77005 0
M  V30 210 C 24.2264 2.5684 -1.78892 0
M  V30 211 C 24.7014 3.61709 -2.80945 0
M  V30 212 N 26.1924 3.69199 -2.79725 0
M  V30 213 C 26.9274 4.50019 -3.55345 0
M  V30 214 N 26.4234 5.34592 -4.40662 0
M  V30 215 N 28.2164 4.44612 -3.43914 0
M  V30 216 H 20.3674 0.868827 -1.93817 0
M  V30 217 H 22.6304 0.44399 -0.837602 0
M  V30 218 H 22.3364 2.14636 -2.78612 0
M  V30 219 H 22.2104 3.4217 -1.58744 0
M  V30 220 H 24.5974 2.84614 -0.779674 0
M  V30 221 H 24.6784 1.57927 -2.01228 0
M  V30 222 H 24.3224 3.34678 -3.82038 0
M  V30 223 H 24.2524 4.60259 -2.5587 0
M  V30 224 H 26.7434 3.08794 -2.17842 0
M  V30 225 H 27.0564 5.93363 -4.95116 0
M  V30 226 H 25.4014 5.34073 -4.44737 0
M  V30 227 H 28.5924 3.7758 -2.76679 0
M  V30 228 H 28.7654 5.0736 -4.031 0
M  V30 229 N 22.1715 0.800033 1.35784 0
M  V30 230 C 23.1215 0.178654 2.27299 0
M  V30 231 C 24.1055 -0.643667 1.47464 0
M  V30 232 O 25.2975 -0.502 1.69732 0
M  V30 233 C 22.4265 -0.677194 3.36555 0
M  V30 234 C 21.5125 0.154497 4.23818 0
M  V30 235 N 21.9035 1.21427 4.91008 0
M  V30 236 C 20.2015 -0.0649462 4.45953 0
M  V30 237 C 20.9025 1.72147 5.55644 0
M  V30 238 N 19.8785 1.02897 5.33773 0
M  V30 239 H 23.6805 0.989637 2.76737 0
M  V30 240 H 21.1945 0.64054 1.49234 0
M  V30 241 H 23.1915 -1.13835 4.01058 0
M  V30 242 H 21.8515 -1.4866 2.8867 0
M  V30 243 H 22.8625 1.59684 4.92668 0
M  V30 244 H 19.5395 -0.844016 4.0888 0
M  V30 245 H 20.9295 2.60683 6.19269 0
M  V30 246 N 23.6496 -1.47581 0.552962 0
M  V30 247 C 24.8746 -2.07378 0.0300593 0
M  V30 248 C 25.2996 -1.40355 -1.25229 0
M  V30 249 O 24.6576 -0.477099 -1.7491 0
M  V30 250 C 24.7056 -3.60274 -0.153231 0
M  V30 251 O 23.8096 -3.94041 -1.21678 0
M  V30 252 H 23.1506 -0.662158 0.0494182 0
M  V30 253 H 25.6806 -1.89662 0.767434 0
M  V30 254 H 25.6906 -4.0633 -0.368761 0
M  V30 255 H 24.3656 -4.08455 0.783397 0
M  V30 256 H 22.9426 -3.59735 -0.982079 0
M  V30 257 N 25.1277 -0.289203 -1.54924 0
M  V30 258 C 26.5387 0.205791 -1.85562 0
M  V30 259 C 26.8897 1.54351 -1.2112 0
M  V30 260 O 26.0147 2.10435 -0.504601 0
M  V30 261 C 26.6097 0.380177 -3.3666 0
M  V30 262 C 25.1687 0.819395 -3.67373 0
M  V30 263 C 24.3157 -0.079159 -2.77187 0
M  V30 264 H 27.2667 -0.510577 -1.50262 0
M  V30 265 H 27.2877 1.21659 -3.60526 0
M  V30 266 H 26.7997 -0.593589 -3.83534 0
M  V30 267 H 24.9007 1.80413 -3.26009 0
M  V30 268 H 25.0137 0.646957 -4.74712 0
M  V30 269 H 23.3777 0.439565 -2.50878 0
M  V30 270 H 24.1607 -1.04906 -3.26878 0
M  V30 271 N 26.6058 1.57591 -0.0167156 0
M  V30 272 C 27.5358 2.12496 0.967858 0
M  V30 273 C 28.5168 1.03807 1.34752 0
M  V30 274 O 29.7018 1.31577 1.42833 0
M  V30 275 C 26.8318 2.64194 2.25431 0
M  V30 276 C 25.7858 3.77559 2.01576 0
M  V30 277 C 25.1118 4.15636 3.36379 0
M  V30 278 C 26.4118 5.04151 1.36489 0
M  V30 279 H 28.1058 2.95013 0.510643 0
M  V30 280 H 25.6518 1.41915 0.244181 0
M  V30 281 H 27.6048 3.01236 2.94678 0
M  V30 282 H 26.3288 1.78821 2.73296 0
M  V30 283 H 24.9878 3.40937 1.34751 0
M  V30 284 H 24.6358 3.27263 3.81979 0
M  V30 285 H 24.3358 4.92022 3.21229 0
M  V30 286 H 25.8598 4.5525 4.06915 0
M  V30 287 H 27.2738 5.38857 1.95718 0
M  V30 288 H 25.6708 5.85453 1.31776 0
M  V30 289 H 26.7408 4.83733 0.336219 0
M  V30 290 N 28.0839 -0.256276 1.55502 0
M  V30 291 C 29.3299 -0.987079 1.77157 0
M  V30 292 C 29.6629 -1.85327 0.580315 0
M  V30 293 O 28.9379 -1.89874 -0.421686 0
M  V30 294 C 29.2209 -1.85553 3.08613 0
M  V30 295 C 29.0739 -1.01816 4.38125 0
M  V30 296 C 30.3929 -2.8397 3.36228 0
M  V30 297 H 27.5119 -0.357428 0.644526 0
M  V30 298 H 30.1539 -0.258239 1.88237 0
M  V30 299 H 28.3039 -2.47695 2.99298 0
M  V30 300 H 29.9759 -0.416159 4.59419 0
M  V30 301 H 28.2189 -0.322178 4.32602 0
M  V30 302 H 28.8899 -1.65939 5.26468 0
M  V30 303 H 31.3659 -2.31964 3.45445 0
M  V30 304 H 30.2419 -3.41864 4.29442 0
M  V30 305 H 30.5029 -3.59955 2.56681 0
M  V30 306 N 29.562 -1.4872 -0.521534 0
M  V30 307 C 30.512 -1.60269 -1.62166 0
M  V30 308 C 31.496 -0.45935 -1.54204 0
M  V30 309 O 32.688 -0.711241 -1.62081 0
M  V30 310 C 29.817 -1.65344 -3.00859 0
M  V30 311 C 28.903 -2.85187 -3.13894 0
M  V30 312 N 29.294 -4.09509 -2.96877 0
M  V30 313 C 27.592 -2.82695 -3.44963 0
M  V30 314 C 28.293 -4.89959 -3.13552 0
M  V30 315 N 27.269 -4.22934 -3.41508 0
M  V30 316 H 31.071 -2.5413 -1.47632 0
M  V30 317 H 28.585 -1.45209 -0.727194 0
M  V30 318 H 30.582 -1.71713 -3.79895 0
M  V30 319 H 29.242 -0.726058 -3.16478 0
M  V30 320 H 30.253 -4.39814 -2.73467 0
M  V30 321 H 26.93 -1.99249 -3.66887 0
M  V30 322 H 28.32 -5.98654 -3.05061 0
M  V30 323 N 31.0401 0.771051 -1.3745 0
M  V30 324 C 32.2651 1.56529 -1.36065 0
M  V30 325 C 32.6901 1.88029 0.0515859 0
M  V30 326 O 32.0481 1.49282 1.02882 0
M  V30 327 C 32.0961 2.85187 -2.20683 0
M  V30 328 O 31.2001 3.79593 -1.61193 0
M  V30 329 H 30.5411 0.47411 -0.464883 0
M  V30 330 H 33.0711 0.954269 -1.80983 0
M  V30 331 H 33.0811 3.34283 -2.33921 0
M  V30 332 H 31.7561 2.61588 -3.23334 0
M  V30 333 H 30.3331 3.38239 -1.56999 0
M  V30 334 N 32.5182 1.22032 0.997298 0
M  V30 335 C 33.7672 1.03637 1.73038 0
M  V30 336 C 34.0802 -0.429475 1.90827 0
M  V30 337 O 35.2862 -0.732995 2.61418 0
M  V30 338 C 33.7422 1.80582 3.11317 0
M  V30 339 C 33.3502 3.31387 3.01474 0
M  V30 340 C 35.0942 1.70621 3.88701 0
M  V30 341 C 33.0012 4.00791 4.3488 0
M  V30 342 H 31.9312 0.384179 0.648785 0
M  V30 343 H 34.5822 1.4584 1.11368 0
M  V30 344 H 32.9642 1.31175 3.73643 0
M  V30 345 H 34.1382 3.88155 2.4834 0
M  V30 346 H 32.4532 3.41976 2.37575 0
M  V30 347 H 35.0502 2.19799 4.87434 0
M  V30 348 H 35.3932 0.665823 4.10941 0
M  V30 349 H 35.9262 2.17547 3.33044 0
M  V30 350 H 32.6652 5.05064 4.1784 0
M  V30 351 H 32.1852 3.48811 4.87945 0
M  V30 352 H 33.8642 4.06139 5.03647 0
M  V30 353 N 33.9963 -1.19345 1.0293 0
M  V30 354 C 35.2243 -1.92997 0.745644 0
M  V30 355 C 35.6393 -1.75519 -0.695589 0
M  V30 356 O 34.9963 -1.07737 -1.47306 0
M  V30 357 C 35.0473 -3.44741 1.08792 0
M  V30 358 O 34.7683 -3.61658 2.47256 0
M  V30 359 C 36.2693 -4.35515 0.827129 0
M  V30 360 H 33.4893 -0.613042 0.272801 0
M  V30 361 H 36.0333 -1.51473 1.3739 0
M  V30 362 H 34.1883 -3.84097 0.504832 0
M  V30 363 H 34.6023 -4.55514 2.60015 0
M  V30 364 H 36.0763 -5.40589 1.11658 0
M  V30 365 H 36.5533 -4.38552 -0.238436 0
M  V30 366 H 37.1593 -4.01841 1.39297 0
M  V30 367 N 35.4744 -0.807222 -1.35358 0
M  V30 368 C 36.4224 -0.20614 -2.31685 0
M  V30 369 C 37.4164 0.644445 -1.56663 0
M  V30 370 O 38.6224 0.537538 -1.71786 0
M  V30 371 H 34.9974 -0.0479006 -0.750473 0
M  V30 372 H 36.9684 -1.03369 -2.79924 0
M  V30 373 C 35.7174 0.630212 -3.41941 0
M  V30 374 H 35.0404 -0.0149558 -3.99797 0
M  V30 375 H 36.4804 1.01716 -4.11619 0
M  V30 376 C 34.9394 1.79601 -2.85035 0
M  V30 377 O 35.4694 2.89351 -2.78637 0
M  V30 378 N 33.6754 1.60774 -2.42074 0
M  V30 379 H 33.2224 0.715009 -2.47478 0
M  V30 380 H 33.1804 2.38933 -2.04349 0
M  V30 381 N 36.9525 1.47285 -0.560781 0
M  V30 382 C 37.9005 2.31756 0.197942 0
M  V30 383 C 38.8945 1.43146 0.905854 0
M  V30 384 O 40.1005 1.59891 0.826733 0
M  V30 385 H 36.4755 0.747438 0.0827049 0
M  V30 386 H 38.4465 2.9359 -0.533629 0
M  V30 387 C 37.1955 3.25874 1.21249 0
M  V30 388 H 36.5185 3.94023 0.67719 0
M  V30 389 H 37.9585 3.87803 1.71419 0
M  V30 390 C 36.4175 2.49651 2.26221 0
M  V30 391 O 36.9475 2.24355 3.33208 0
M  V30 392 N 35.1535 2.10597 2.00243 0
M  V30 393 H 34.7005 2.31369 1.13252 0
M  V30 394 H 34.6585 1.59913 2.70694 0
M  V30 395 N 38.4306 0.297415 1.54768 0
M  V30 396 C 39.6766 -0.313376 2.00364 0
M  V30 397 C 40.0096 -1.53815 1.18553 0
M  V30 398 O 39.2846 -1.92739 0.261103 0
M  V30 399 C 39.5676 -0.673525 3.53745 0
M  V30 400 C 39.4206 0.560133 4.46299 0
M  V30 401 C 40.7396 -1.50143 4.13697 0
M  V30 402 H 37.8586 -0.112428 0.728374 0
M  V30 403 H 40.5006 0.4088 1.8555 0
M  V30 404 H 38.6506 -1.28881 3.665 0
M  V30 405 H 40.3226 1.19863 4.45455 0
M  V30 406 H 38.5656 1.19405 4.17043 0
M  V30 407 H 39.2366 0.26405 5.51368 0
M  V30 408 H 41.7126 -0.981588 4.04356 0
M  V30 409 H 40.5886 -1.72221 5.21182 0
M  V30 410 H 40.8496 -2.48952 3.65343 0
M  V30 411 N 39.9087 -1.5758 0.0250728 0
M  V30 412 C 41.1547 -1.91917 -0.655413 0
M  V30 413 C 41.4877 -0.901433 -1.72011 0
M  V30 414 O 40.7627 0.0764069 -1.9435 0
M  V30 415 C 41.0457 -3.36751 -1.27558 0
M  V30 416 C 40.8987 -4.49258 -0.220719 0
M  V30 417 C 42.2177 -3.81469 -2.19475 0
M  V30 418 H 39.3367 -0.697925 -0.23679 0
M  V30 419 H 41.9787 -1.89825 0.0815036 0
M  V30 420 H 40.1287 -3.38664 -1.90365 0
M  V30 421 H 41.8007 -4.59478 0.409601 0
M  V30 422 H 40.0437 -4.31415 0.454264 0
M  V30 423 H 40.7147 -5.47618 -0.694175 0
M  V30 424 H 43.1907 -3.81266 -1.66659 0
M  V30 425 H 42.0667 -4.83512 -2.59822 0
M  V30 426 H 42.3277 -3.16744 -3.08424 0
M  V30 427 N 41.3868 0.248026 -1.55636 0
M  V30 428 C 42.6148 0.993808 -1.81469 0
M  V30 429 C 43.0298 1.78991 -0.60064 0
M  V30 430 O 42.3868 1.77345 0.430682 0
M  V30 431 C 42.4378 1.93258 -3.05506 0
M  V30 432 O 42.1588 1.16869 -4.22224 0
M  V30 433 C 43.6598 2.79444 -3.4413 0
M  V30 434 H 40.8798 0.292486 -0.603898 0
M  V30 435 H 43.4238 0.271253 -2.02693 0
M  V30 436 H 41.5788 2.60943 -2.86335 0
M  V30 437 H 41.9928 1.80359 -4.92515 0
M  V30 438 H 43.4668 3.41066 -4.34026 0
M  V30 439 H 43.9438 3.50499 -2.64665 0
M  V30 440 H 44.5498 2.17214 -3.65648 0
M  V30 441 N 42.8649 1.48995 0.513639 0
M  V30 442 C 43.8129 1.65199 1.63744 0
M  V30 443 C 44.8069 0.51809 1.61283 0
M  V30 444 O 46.0129 0.697335 1.65943 0
M  V30 445 H 42.3879 0.52069 0.542574 0
M  V30 446 H 44.3589 2.59552 1.47226 0
M  V30 447 C 43.1079 1.72409 3.01945 0
M  V30 448 H 42.4309 2.59029 3.04539 0
M  V30 449 H 43.8709 1.87785 3.80148 0
M  V30 450 C 42.3299 0.46618 3.33659 0
M  V30 451 O 42.8599 -0.413744 3.99564 0
M  V30 452 N 41.0659 0.332931 2.88687 0
M  V30 453 H 40.6129 1.04996 2.35231 0
M  V30 454 H 40.5709 -0.507665 3.10274 0
M  V30 455 N 44.343 -0.763751 1.37857 0
M  V30 456 C 45.59 -1.52257 1.33506 0
M  V30 457 C 45.918 -1.94343 -0.078022 0
M  V30 458 O 45.173 -1.64958 -1.05297 0
M  V30 459 C 45.472 -2.79499 2.22745 0
M  V30 460 C 45.138 -2.56426 3.70886 0
M  V30 461 C 43.8 -2.49842 4.11257 0
M  V30 462 C 46.152 -2.36008 4.64704 0
M  V30 463 C 43.48 -2.20841 5.43549 0
M  V30 464 C 45.832 -2.0853 5.97242 0
M  V30 465 C 44.496 -2.00396 6.36709 0
M  V30 466 H 43.766 -0.557149 0.488534 0
M  V30 467 H 46.413 -0.879073 1.70131 0
M  V30 468 H 44.718 -3.48447 1.79142 0
M  V30 469 H 46.415 -3.37413 2.16688 0
M  V30 470 H 43.005 -2.62416 3.38874 0
M  V30 471 H 47.189 -2.40079 4.34368 0
M  V30 472 H 42.445 -2.13045 5.73081 0
M  V30 473 H 46.619 -1.91732 6.69486 0
M  V30 474 H 44.246 -1.77688 7.39142 0
M  V30 475 N 45.8211 -1.22559 -0.990812 0
M  V30 476 C 47.0491 -1.07779 -1.76611 0
M  V30 477 C 47.4641 0.371513 -1.85109 0
M  V30 478 O 46.8211 1.25737 -1.32274 0
M  V30 479 C 46.8721 -1.68512 -3.19822 0
M  V30 480 O 46.5931 -3.07774 -3.1178 0
M  V30 481 C 48.0941 -1.59035 -4.13791 0
M  V30 482 H 45.3141 -0.377729 -0.554583 0
M  V30 483 H 47.8581 -1.62195 -1.24551 0
M  V30 484 H 46.0131 -1.18154 -3.68942 0
M  V30 485 H 46.4271 -3.37062 -4.01858 0
M  V30 486 H 47.9011 -2.0625 -5.1202 0
M  V30 487 H 48.3781 -0.547273 -4.35777 0
M  V30 488 H 48.9841 -2.08709 -3.70568 0
M  V30 489 N 47.2992 1.18797 -1.03562 0
M  V30 490 C 48.2622 2.20464 -0.626769 0
M  V30 491 C 49.2622 1.57721 0.313173 0
M  V30 492 O 50.4522 1.73917 0.0992615 0
M  V30 493 C 47.5842 3.40802 0.0818498 0
M  V30 494 H 48.7772 2.58149 -1.5264 0
M  V30 495 H 46.3302 1.32593 -0.827578 0
M  V30 496 H 47.0652 3.08642 0.995518 0
M  V30 497 H 46.8502 3.8758 -0.593652 0
M  V30 498 H 48.3402 4.16092 0.354584 0
M  V30 499 N 48.7773 0.814389 1.34928 0
M  V30 500 C 49.7253 0.218424 2.31572 0
M  V30 501 C 50.7193 -0.636128 1.57002 0
M  V30 502 O 51.9253 -0.52842 1.72069 0
M  V30 503 H 48.3003 0.0518799 0.750208 0
M  V30 504 H 50.2713 1.04852 2.79372 0
M  V30 505 C 49.0203 -0.61207 3.4227 0
M  V30 506 H 48.3433 0.0361578 3.99784 0
M  V30 507 H 49.7833 -0.995317 4.12152 0
M  V30 508 C 48.2423 -1.78087 2.85984 0
M  V30 509 O 48.7723 -2.8787 2.80168 0
M  V30 510 N 46.9783 -1.59488 2.42924 0
M  V30 511 H 46.5253 -0.701874 2.47854 0
M  V30 512 H 46.4833 -2.37846 2.05613 0
M  V30 513 N 50.2554 -1.46986 0.568584 0
M  V30 514 C 51.5034 -2.02041 0.0487022 0
M  V30 515 C 51.8244 -1.44408 -1.31039 0
M  V30 516 O 51.0944 -0.623477 -1.85714 0
M  V30 517 H 49.6744 -0.746849 0.015014 0
M  V30 518 H 52.3364 -1.80257 0.741168 0
M  V30 519 H 51.4324 -3.12085 -0.0308961 0
M  V30 520 N 51.7335 -0.305618 -1.54608 0
M  V30 521 C 52.6635 0.561482 -2.26649 0
M  V30 522 C 53.6445 1.13415 -1.26772 0
M  V30 523 O 54.8295 1.16262 -1.55553 0
M  V30 524 C 51.9595 1.73122 -3.01075 0
M  V30 525 C 50.9135 1.2887 -4.08138 0
M  V30 526 C 50.2395 2.54396 -4.70305 0
M  V30 527 C 51.5395 0.416578 -5.20636 0
M  V30 528 H 53.2335 -0.0393902 -2.99374 0
M  V30 529 H 50.7795 -0.020385 -1.43986 0
M  V30 530 H 52.7325 2.34396 -3.50195 0
M  V30 531 H 51.4565 2.3584 -2.25936 0
M  V30 532 H 50.1155 0.698991 -3.59875 0
M  V30 533 H 49.7635 3.15439 -3.918 0
M  V30 534 H 49.4635 2.25486 -5.42614 0
M  V30 535 H 50.9875 3.16464 -5.2219 0
M  V30 536 H 52.4015 0.935116 -5.65622 0
M  V30 537 H 50.7985 0.221046 -5.99693 0
M  V30 538 H 51.8685 -0.557162 -4.81688 0
M  V30 539 N 53.2116 1.57565 -0.0334293 0
M  V30 540 C 54.1416 2.13511 0.945265 0
M  V30 541 C 55.1226 1.05231 1.33643 0
M  V30 542 O 56.3076 1.33084 1.41429 0
M  V30 543 C 53.4376 2.6657 2.22616 0
M  V30 544 C 52.3916 3.79676 1.97561 0
M  V30 545 C 51.7176 4.1918 3.31952 0
M  V30 546 C 53.0176 5.0557 1.31135 0
M  V30 547 H 54.7116 2.95538 0.479325 0
M  V30 548 H 52.2576 1.42166 0.229115 0
M  V30 549 H 54.2106 3.04344 2.91466 0
M  V30 550 H 52.9346 1.8171 2.71384 0
M  V30 551 H 51.5936 3.42347 1.31127 0
M  V30 552 H 51.2416 3.31296 3.78487 0
M  V30 553 H 50.9416 4.95402 3.15992 0
M  V30 554 H 52.4656 4.59541 4.02063 0
M  V30 555 H 53.8796 5.40903 1.89992 0
M  V30 556 H 52.2766 5.86818 1.25559 0
M  V30 557 H 53.3466 4.84062 0.284894 0
M  V30 558 N 54.6897 -0.239769 1.55765 0
M  V30 559 C 55.6527 -1.28038 1.90103 0
M  V30 560 C 56.6527 -1.40723 0.778055 0
M  V30 561 O 57.8427 -1.39301 1.04599 0
M  V30 562 C 54.9747 -2.65702 2.13577 0
M  V30 563 H 56.1677 -0.988048 2.83157 0
M  V30 564 H 53.7207 -0.479382 1.48767 0
M  V30 565 H 54.4557 -3.00063 1.23015 0
M  V30 566 H 54.2407 -2.57875 2.95369 0
M  V30 567 H 55.7307 -3.40828 2.41301 0
M  V30 568 N 56.1678 -1.49265 -0.50573 0
M  V30 569 C 57.0978 -1.68495 -1.61653 0
M  V30 570 C 58.0788 -0.53366 -1.61512 0
M  V30 571 O 59.2638 -0.76897 -1.78327 0
M  V30 572 C 56.3938 -1.74709 -3.00157 0
M  V30 573 C 55.3478 -2.89581 -3.15162 0
M  V30 574 C 54.6738 -2.80903 -4.5497 0
M  V30 575 C 55.9738 -4.30578 -2.95634 0
M  V30 576 H 57.6678 -2.61493 -1.45814 0
M  V30 577 H 55.2138 -1.25838 -0.70005 0
M  V30 578 H 57.1668 -1.86748 -3.77761 0
M  V30 579 H 55.8908 -0.783067 -3.17074 0
M  V30 580 H 54.5498 -2.77136 -2.39982 0
M  V30 581 H 54.1978 -1.82419 -4.68756 0
M  V30 582 H 53.8978 -3.57999 -4.65951 0
M  V30 583 H 55.4218 -2.94944 -5.34641 0
M  V30 584 H 56.8358 -4.4373 -3.63011 0
M  V30 585 H 55.2328 -5.0886 -3.18091 0
M  V30 586 H 56.3028 -4.45352 -1.91806 0
M  V30 587 N 57.6459 0.756429 -1.3826 0
M  V30 588 C 58.8939 1.51248 -1.34047 0
M  V30 589 C 59.2149 1.94875 0.0698372 0
M  V30 590 O 58.4849 1.67436 1.01696 0
M  V30 591 H 57.0649 0.561018 -0.493222 0
M  V30 592 H 59.7269 0.899347 -1.7291 0
M  V30 593 H 58.8229 2.40472 -1.98947 0
M  V30 594 N 59.124 1.23083 0.984299 0
M  V30 595 C 60.087 1.00979 2.05757 0
M  V30 596 C 61.087 -0.0269573 1.60777 0
M  V30 597 O 62.277 0.212403 1.729 0
M  V30 598 C 59.409 0.527072 3.36801 0
M  V30 599 H 60.602 1.9622 2.26799 0
M  V30 600 H 58.155 1.05072 1.15714 0
M  V30 601 H 58.89 -0.429294 3.21446 0
M  V30 602 H 58.675 1.27515 3.70786 0
M  V30 603 H 60.165 0.392942 4.15747 0
M  V30 604 N 60.6021 -1.18246 1.0419 0
M  V30 605 C 61.8271 -1.92736 0.765996 0
M  V30 606 C 62.2521 -1.75728 -0.67091 0
M  V30 607 O 61.6101 -1.06825 -1.46486 0
M  V30 608 C 61.6581 -3.42148 1.13875 0
M  V30 609 O 60.7621 -4.11548 0.264954 0
M  V30 610 H 60.1031 -0.601238 0.281797 0
M  V30 611 H 62.6331 -1.49942 1.39207 0
M  V30 612 H 62.6431 -3.92858 1.1012 0
M  V30 613 H 61.3181 -3.53848 2.18551 0
M  V30 614 H 59.8951 -3.71137 0.362226 0
M  V30 615 N 62.0802 -0.821533 -1.34494 0
M  V30 616 C 63.4912 -0.467956 -1.8074 0
M  V30 617 C 63.8422 1.01151 -1.68116 0
M  V30 618 O 62.9672 1.78707 -1.22036 0
M  V30 619 C 63.5622 -0.842627 -3.28154 0
M  V30 620 C 62.1212 -0.541439 -3.72485 0
M  V30 621 C 61.2682 -1.06028 -2.56229 0
M  V30 622 H 64.2192 -1.01183 -1.22261 0
M  V30 623 H 64.2402 -0.145876 -3.8022 0
M  V30 624 H 63.7522 -1.91945 -3.37311 0
M  V30 625 H 61.8532 0.526034 -3.68868 0
M  V30 626 H 61.9662 -1.08453 -4.66663 0
M  V30 627 H 60.3302 -0.481892 -2.501 0
M  V30 628 H 61.1132 -2.14352 -2.68157 0
M  V30 629 N 63.5583 1.46682 -0.576371 0
M  V30 630 C 64.8043 2.02712 -0.0596221 0
M  V30 631 C 65.1373 1.44765 1.29448 0
M  V30 632 O 64.4123 0.610355 1.84675 0
M  V30 633 C 64.6953 3.60098 0.0129503 0
M  V30 634 C 64.5483 4.28441 -1.3696 0
M  V30 635 C 65.8673 4.34224 0.71678 0
M  V30 636 H 62.9863 0.736637 -0.0231407 0
M  V30 637 H 65.6283 1.74898 -0.742351 0
M  V30 638 H 63.7783 3.83926 0.594378 0
M  V30 639 H 65.4503 4.15896 -1.9957 0
M  V30 640 H 63.6933 3.8805 -1.93907 0
M  V30 641 H 64.3643 5.3716 -1.27135 0
M  V30 642 H 66.8403 4.15503 0.222908 0
M  V30 643 H 65.7163 5.43936 0.73657 0
M  V30 644 H 65.9773 4.04823 1.77682 0
M  V30 645 N 65.0364 0.313813 1.54444 0
M  V30 646 C 65.9694 -0.598866 2.20202 0
M  V30 647 C 66.9474 -1.12318 1.17573 0
M  V30 648 O 68.1314 -1.18899 1.46271 0
M  V30 649 C 65.2584 -1.82071 2.85601 0
M  V30 650 C 64.3044 -1.42851 4.01865 0
M  V30 651 S 65.1374 -0.473512 5.33402 0
M  V30 652 C 66.2934 -1.70286 6.0229 0
M  V30 653 H 66.5264 -0.0402532 2.97273 0
M  V30 654 H 64.0594 0.0979165 1.54089 0
M  V30 655 H 66.0174 -2.52184 3.23904 0
M  V30 656 H 64.6784 -2.3505 2.08351 0
M  V30 657 H 63.8714 -2.33871 4.46453 0
M  V30 658 H 63.4734 -0.807198 3.65185 0
M  V30 659 H 65.7654 -2.64168 6.23876 0
M  V30 660 H 66.7084 -1.29932 6.96077 0
M  V30 661 H 67.1164 -1.88541 5.32083 0
M  V30 662 N 66.5145 -1.57545 0.0417849 0
M  V30 663 C 67.4775 -2.09885 -0.92093 0
M  V30 664 C 68.4775 -1.01648 -1.24596 0
M  V30 665 O 69.6675 -1.27759 -1.1842 0
M  V30 666 C 66.7995 -2.57527 -2.23367 0
M  V30 667 H 67.9925 -2.96236 -0.467382 0
M  V30 668 H 65.5455 -1.5493 -0.206467 0
M  V30 669 H 66.2805 -1.74542 -2.73323 0
M  V30 670 H 66.0655 -3.36613 -2.01083 0
M  V30 671 H 67.5555 -2.98201 -2.92346 0
M  V30 672 N 67.9926 0.231505 -1.5589 0
M  V30 673 C 69.2226 0.973092 -1.82248 0
M  V30 674 C 69.6306 1.78845 -0.617328 0
M  V30 675 O 68.9736 1.78752 0.423499 0
M  V30 676 C 69.0356 1.94732 -3.02192 0
M  V30 677 C 68.6996 1.31743 -4.37599 0
M  V30 678 C 69.6966 0.712238 -5.14998 0
M  V30 679 C 67.3816 1.33218 -4.84312 0
M  V30 680 C 69.3756 0.130195 -6.37267 0
M  V30 681 C 67.0626 0.746286 -6.06526 0
M  V30 682 C 68.0606 0.146337 -6.82843 0
M  V30 683 O 67.7486 -0.430465 -8.02747 0
M  V30 684 H 67.4806 0.29125 -0.61004 0
M  V30 685 H 70.0346 0.254915 -2.03812 0
M  V30 686 H 68.2646 2.70422 -2.76422 0
M  V30 687 H 69.9536 2.55362 -3.15508 0
M  V30 688 H 70.7196 0.69324 -4.8002 0
M  V30 689 H 66.5986 1.78854 -4.24891 0
M  V30 690 H 70.1426 -0.33871 -6.96777 0
M  V30 691 H 66.0396 0.762663 -6.40979 0
M  V30 692 H 66.8076 -0.323818 -8.17859 0
M  V30 693 N 69.4707 1.49531 0.497807 0
M  V30 694 C 70.4337 1.65916 1.58128 0
M  V30 695 C 71.4337 0.530825 1.51786 0
M  V30 696 O 72.6237 0.797342 1.54881 0
M  V30 697 C 69.7557 1.65951 2.9778 0
M  V30 698 H 70.9487 2.62556 1.44929 0
M  V30 699 H 68.5017 1.38611 0.722275 0
M  V30 700 H 69.2367 0.709065 3.16453 0
M  V30 701 H 69.0217 2.47897 3.03792 0
M  V30 702 H 70.5117 1.80673 3.76493 0
M  V30 703 N 70.9488 -0.749086 1.3866 0
M  V30 704 C 71.8958 -1.86291 1.36251 0
M  V30 705 C 72.8658 -1.64578 0.224347 0
M  V30 706 O 74.0508 -1.86181 0.417279 0
M  V30 707 C 71.1908 -3.23644 1.19786 0
M  V30 708 C 70.3038 -3.57158 2.43027 0
M  V30 709 C 69.4388 -4.83838 2.19258 0
M  V30 710 C 68.4778 -5.10152 3.38247 0
M  V30 711 N 67.6148 -6.28029 3.13884 0
M  V30 712 H 72.4548 -1.87685 2.3147 0
M  V30 713 H 69.9918 -0.917287 1.14997 0
M  V30 714 H 71.9498 -4.0291 1.08254 0
M  V30 715 H 70.5798 -3.21566 0.282031 0
M  V30 716 H 69.6318 -2.72701 2.65214 0
M  V30 717 H 70.9438 -3.7253 3.31697 0
M  V30 718 H 70.0978 -5.71057 2.04888 0
M  V30 719 H 68.8368 -4.70614 1.2796 0
M  V30 720 H 67.8418 -4.21401 3.53131 0
M  V30 721 H 69.0668 -5.25271 4.30427 0
M  V30 722 H 67.0128 -6.1612 2.25238 0
M  V30 723 H 66.9298 -6.43922 3.96106 0
M  V30 724 H 68.1978 -7.18124 3.03179 0
M  V30 725 N 72.4269 -1.23603 -0.977757 0
M  V30 726 C 73.3369 -1.03632 -2.1047 0
M  V30 727 C 74.3529 0.0199435 -1.73989 0
M  V30 728 O 75.5289 -0.176076 -2.00629 0
M  V30 729 C 72.5939 -0.63276 -3.40877 0
M  V30 730 C 71.6549 -1.76437 -3.91367 0
M  V30 731 C 70.8879 -1.37997 -5.15551 0
M  V30 732 O 71.1109 -0.265357 -5.69782 0
M  V30 733 O 70.0449 -2.20201 -5.60174 0
M  V30 734 H 73.8709 -1.98086 -2.30208 0
M  V30 735 H 71.4559 -1.02332 -1.08851 0
M  V30 736 H 73.3379 -0.418761 -4.19314 0
M  V30 737 H 72.0129 0.282754 -3.22463 0
M  V30 738 H 70.9199 -2.03304 -3.14036 0
M  V30 739 H 72.2529 -2.6583 -4.14241 0
M  V30 740 N 73.905 1.17692 -1.04816 0
M  V30 741 C 74.815 2.25229 -0.65643 0
M  V30 742 C 75.831 1.71018 0.320761 0
M  V30 743 O 77.007 2.00649 0.173805 0
M  V30 744 C 74.072 3.46684 -0.0332629 0
M  V30 745 C 73.133 4.15997 -1.06042 0
M  V30 746 C 72.366 5.31654 -0.466893 0
M  V30 747 O 72.589 5.65777 0.724758 0
M  V30 748 O 71.523 5.89831 -1.1993 0
M  V30 749 H 75.349 2.61016 -1.55255 0
M  V30 750 H 72.934 1.24919 -0.81949 0
M  V30 751 H 74.816 4.20234 0.313256 0
M  V30 752 H 73.491 3.12703 0.836566 0
M  V30 753 H 72.398 3.44482 -1.45886 0
M  V30 754 H 73.731 4.53996 -1.90127 0
M  V30 755 N 75.3831 0.828654 1.34056 0
M  V30 756 C 76.6291 0.42008 1.98402 0
M  V30 757 C 76.9621 -1.01564 1.65525 0
M  V30 758 O 76.2371 -1.70834 0.929831 0
M  V30 759 C 76.5201 0.62927 3.54559 0
M  V30 760 C 76.3731 2.11152 3.97159 0
M  V30 761 C 77.6921 0.0688756 4.40046 0
M  V30 762 H 74.8111 0.154104 0.720709 0
M  V30 763 H 77.4531 1.04228 1.5886 0
M  V30 764 H 75.6031 0.0996418 3.88372 0
M  V30 765 H 77.2751 2.70522 3.73651 0
M  V30 766 H 75.5181 2.59985 3.47261 0
M  V30 767 H 76.1891 2.20868 5.05887 0
M  V30 768 H 78.6651 0.521458 4.1282 0
M  V30 769 H 77.5411 0.245006 5.48353 0
M  V30 770 H 77.8021 -1.0266 4.30015 0
M  V30 771 N 76.8612 -1.46375 0.584142 0
M  V30 772 C 77.8242 -2.28784 -0.138108 0
M  V30 773 C 78.8242 -1.38471 -0.817462 0
M  V30 774 O 80.0142 -1.60833 -0.669199 0
M  V30 775 C 77.1462 -3.18892 -1.20503 0
M  V30 776 H 78.3392 -2.94117 0.586127 0
M  V30 777 H 75.8922 -1.52509 0.342171 0
M  V30 778 H 76.6272 -2.58309 -1.96079 0
M  V30 779 H 76.4122 -3.85388 -0.722384 0
M  V30 780 H 77.9022 -3.80914 -1.71155 0
M  V30 781 N 78.3393 -0.321999 -1.54275 0
M  V30 782 C 79.6163 0.335232 -1.92706 0
M  V30 783 C 79.9963 1.70006 -1.25145 0
M  V30 784 O 79.3443 2.25067 -0.394596 0
M  V30 785 C 79.5543 0.429008 -3.46353 0
M  V30 786 C 80.9023 0.690029 -4.18956 0
M  V30 787 O 81.9263 0.511992 -3.52501 0
M  V30 788 O 80.7853 1.03338 -5.36641 0
M  V30 789 H 77.8793 0.191143 -0.804608 0
M  V30 790 H 80.4253 -0.3716 -1.65581 0
M  V30 791 H 79.1973 -0.529611 -3.87699 0
M  V30 792 H 78.8203 1.18348 -3.79578 0
M  V30 793 N 79.8174 1.5752 -0.0501392 0
M  V30 794 C 80.7504 2.07026 0.959962 0
M  V30 795 C 81.7284 0.970539 1.30458 0
M  V30 796 O 82.9124 1.2424 1.41763 0
M  V30 797 C 80.0394 2.5099 2.27424 0
M  V30 798 C 79.0854 3.72188 2.08275 0
M  V30 799 S 79.9184 5.17888 1.36207 0
M  V30 800 C 81.0744 5.65165 2.6896 0
M  V30 801 H 81.3074 2.9238 0.538631 0
M  V30 802 H 78.8404 1.53547 0.162099 0
M  V30 803 H 80.7984 2.76982 3.02971 0
M  V30 804 H 79.4594 1.65944 2.66686 0
M  V30 805 H 78.6524 4.00866 3.05487 0
M  V30 806 H 78.2544 3.46457 1.40868 0
M  V30 807 H 80.5464 5.70687 3.65133 0
M  V30 808 H 81.4894 6.64394 2.4492 0
M  V30 809 H 81.8974 4.9289 2.75172 0
M  V30 810 N 81.2955 -0.223234 1.56011 0
M  V30 811 C 82.2585 -1.26014 1.9145 0
M  V30 812 C 83.2585 -1.3989 0.792937 0
M  V30 813 O 84.4485 -1.38184 1.0607 0
M  V30 814 C 81.5805 -2.63422 2.16383 0
M  V30 815 H 82.7735 -0.95796 2.84189 0
M  V30 816 H 80.3265 -0.463576 1.49267 0
M  V30 817 H 81.0615 -2.98741 1.2619 0
M  V30 818 H 80.8465 -2.54728 2.98088 0
M  V30 819 H 82.3365 -3.38249 2.44903 0
M  V30 820 N 82.7736 -1.49793 -0.48987 0
M  V30 821 C 83.7206 -1.67281 -1.59014 0
M  V30 822 C 84.6906 -0.514177 -1.57941 0
M  V30 823 O 85.8756 -0.742533 -1.75759 0
M  V30 824 C 83.0156 -1.75569 -2.97102 0
M  V30 825 C 82.1286 -3.0281 -3.08107 0
M  V30 826 C 81.2636 -3.02008 -4.36995 0
M  V30 827 C 80.3026 -4.23782 -4.41673 0
M  V30 828 N 79.4396 -4.20826 -5.62005 0
M  V30 829 H 84.2796 -2.61224 -1.43409 0
M  V30 830 H 81.8166 -1.29508 -0.697565 0
M  V30 831 H 83.7746 -1.78354 -3.77155 0
M  V30 832 H 82.4046 -0.850827 -3.11385 0
M  V30 833 H 81.4566 -3.09584 -2.21047 0
M  V30 834 H 82.7686 -3.92801 -3.07423 0
M  V30 835 H 81.9226 -3.03418 -5.25378 0
M  V30 836 H 80.6616 -2.09815 -4.4026 0
M  V30 837 H 79.6666 -4.22604 -3.5169 0
M  V30 838 H 80.8916 -5.17181 -4.40115 0
M  V30 839 H 78.8376 -3.31476 -5.66091 0
M  V30 840 H 78.7546 -5.04564 -5.62984 0
M  V30 841 H 80.0226 -4.26355 -6.52565 0
M  V30 842 N 84.2517 0.741722 -1.39055 0
M  V30 843 C 85.5007 1.49656 -1.35225 0
M  V30 844 C 85.8137 1.95533 0.0512708 0
M  V30 845 O 87.0197 2.7067 0.212138 0
M  V30 846 C 85.4757 2.70389 -2.37525 0
M  V30 847 C 85.0837 2.31489 -3.83558 0
M  V30 848 C 86.8277 3.48236 -2.42759 0
M  V30 849 C 84.7347 3.48903 -4.77515 0
M  V30 850 H 83.6647 0.56197 -0.502699 0
M  V30 851 H 86.3157 0.809727 -1.64668 0
M  V30 852 H 84.6977 3.41113 -2.01142 0
M  V30 853 H 85.8717 1.68354 -4.28945 0
M  V30 854 H 84.1867 1.66749 -3.81554 0
M  V30 855 H 86.7837 4.35558 -3.1015 0
M  V30 856 H 87.1267 3.90229 -1.45008 0
M  V30 857 H 87.6597 2.84535 -2.78002 0
M  V30 858 H 84.3987 3.11966 -5.76504 0
M  V30 859 H 83.9187 4.11041 -4.36813 0
M  V30 860 H 85.5977 4.15328 -4.96096 0
M  V30 861 N 85.7298 1.2412 0.971189 0
M  V30 862 C 86.6928 1.03156 2.04674 0
M  V30 863 C 87.6928 -0.00990322 1.60797 0
M  V30 864 O 88.8828 0.230729 1.72665 0
M  V30 865 C 86.0148 0.562765 3.36223 0
M  V30 866 H 87.2078 1.98614 2.24705 0
M  V30 867 H 84.7608 1.06293 1.14593 0
M  V30 868 H 85.4958 -0.395176 3.21883 0
M  V30 869 H 85.2808 1.31441 3.69413 0
M  V30 870 H 86.7708 0.437015 4.15307 0
M  V30 871 N 87.2079 -1.17134 1.05439 0
M  V30 872 C 88.4559 -1.87085 0.764429 0
M  V30 873 C 88.7769 -1.81584 -0.710787 0
M  V30 874 O 88.0469 -1.24349 -1.51374 0
M  V30 875 H 86.6269 -0.692627 0.279779 0
M  V30 876 H 89.2889 -1.42087 1.33406 0
M  V30 877 H 88.3849 -2.92759 1.0816 0
M  V30 878 N 88.686 -0.835752 -1.33615 0
M  V30 879 C 89.649 -0.272 -2.2758 0
M  V30 880 C 90.649 0.557487 -1.50827 0
M  V30 881 O 91.839 0.37173 -1.70188 0
M  V30 882 C 88.971 0.617173 -3.35267 0
M  V30 883 H 90.164 -1.10111 -2.78954 0
M  V30 884 H 87.717 -0.608594 -1.43965 0
M  V30 885 H 88.452 1.46884 -2.89129 0
M  V30 886 H 88.237 0.0237066 -3.92093 0
M  V30 887 H 89.727 1.005 -4.05326 0
M  V30 888 N 90.1641 1.46063 -0.591896 0
M  V30 889 C 91.0941 2.33172 0.123673 0
M  V30 890 C 92.0751 1.45897 0.87453 0
M  V30 891 O 93.2601 1.74698 0.848181 0
M  V30 892 C 90.3901 3.28336 1.13194 0
M  V30 893 C 89.3441 4.25124 0.495324 0
M  V30 894 C 88.6701 5.09863 1.61071 0
M  V30 895 C 89.9701 5.19143 -0.573425 0
M  V30 896 H 91.6641 2.93252 -0.603646 0
M  V30 897 H 89.2101 1.41014 -0.291741 0
M  V30 898 H 91.1631 3.88137 1.64097 0
M  V30 899 H 89.8871 2.66383 1.88965 0
M  V30 900 H 88.5461 3.66599 0.00729452 0
M  V30 901 H 88.1941 4.44288 2.35832 0
M  V30 902 H 87.8941 5.75417 1.19035 0
M  V30 903 H 89.4181 5.72529 2.12233 0
M  V30 904 H 90.8321 5.73106 -0.1491 0
M  V30 905 H 89.2291 5.93089 -0.914636 0
M  V30 906 H 90.2991 4.62519 -1.45617 0
M  V30 907 N 91.6422 0.330177 1.54103 0
M  V30 908 C 92.8882 -0.270806 2.00984 0
M  V30 909 C 93.2212 -1.51265 1.21789 0
M  V30 910 O 92.4962 -1.92142 0.301927 0
M  V30 911 C 92.7792 -0.598339 3.55094 0
M  V30 912 C 92.6322 0.654674 4.4501 0
M  V30 913 C 93.9512 -1.41334 4.16789 0
M  V30 914 H 91.0702 -0.0969531 0.730595 0
M  V30 915 H 93.7122 0.448066 1.84641 0
M  V30 916 H 91.8622 -1.21078 3.69151 0
M  V30 917 H 93.5342 1.29285 4.42813 0
M  V30 918 H 91.7772 1.28224 4.14416 0
M  V30 919 H 92.4482 0.380944 5.50684 0
M  V30 920 H 94.9242 -0.895597 4.06347 0
M  V30 921 H 93.8002 -1.61127 5.24718 0
M  V30 922 H 94.0612 -2.41146 3.70541 0
M  V30 923 N 93.1203 -1.57491 0.0584922 0
M  V30 924 C 94.0503 -2.14988 -0.911178 0
M  V30 925 C 95.0313 -1.07343 -1.31952 0
M  V30 926 O 96.2163 -1.35318 -1.39294 0
M  V30 927 C 93.3463 -2.70078 -2.18347 0
M  V30 928 C 92.3003 -3.82771 -1.91495 0
M  V30 929 C 91.6263 -4.24408 -3.25241 0
M  V30 930 C 92.9263 -5.07592 -1.23075 0
M  V30 931 H 94.6203 -2.96263 -0.432246 0
M  V30 932 H 92.1663 -1.42512 -0.206469 0
M  V30 933 H 94.1193 -3.08943 -2.86587 0
M  V30 934 H 92.8433 -1.86005 -2.68458 0
M  V30 935 H 91.5023 -3.44389 -1.25664 0
M  V30 936 H 91.1503 -3.37275 -3.73168 0
M  V30 937 H 90.8503 -5.00366 -3.08071 0
M  V30 938 H 92.3743 -4.65879 -3.94701 0
M  V30 939 H 93.7883 -5.43857 -1.81362 0
M  V30 940 H 92.1853 -5.88741 -1.16207 0
M  V30 941 H 93.2553 -4.84454 -0.207847 0
M  V30 942 N 94.5984 0.214957 -1.56127 0
M  V30 943 C 95.5464 1.28601 -1.93816 0
M  V30 944 C 96.5404 1.48175 -0.821016 0
M  V30 945 O 97.7464 1.49271 -1.0059 0
M  V30 946 H 94.1214 0.431302 -0.616022 0
M  V30 947 H 96.0924 0.940991 -2.83175 0
M  V30 948 C 94.8414 2.62779 -2.27689 0
M  V30 949 H 94.1644 2.48527 -3.13168 0
M  V30 950 H 95.6044 3.36517 -2.57939 0
M  V30 951 C 94.0634 3.18285 -1.10436 0
M  V30 952 O 94.5934 4.00002 -0.368945 0
M  V30 953 N 92.7994 2.7675 -0.886433 0
M  V30 954 H 92.3464 2.10404 -1.48619 0
M  V30 955 H 92.3044 3.14229 -0.103656 0
M  V30 956 N 96.0765 1.50051 0.48192 0
M  V30 957 C 97.3255 1.59741 1.23149 0
M  V30 958 C 97.6385 0.298163 1.93314 0
M  V30 959 O 98.8445 0.273835 2.70116 0
M  V30 960 C 97.3005 2.81926 2.23708 0
M  V30 961 C 96.9085 4.18685 1.59396 0
M  V30 962 C 98.6525 3.00956 2.99375 0
M  V30 963 C 96.5595 5.3207 2.58178 0
M  V30 964 H 95.4895 0.594838 0.46334 0
M  V30 965 H 98.1405 1.76467 0.503169 0
M  V30 966 H 96.5225 2.58736 2.99786 0
M  V30 967 H 97.6965 4.52088 0.891811 0
M  V30 968 H 96.0115 4.05171 0.960503 0
M  V30 969 H 98.6085 3.82836 3.73283 0
M  V30 970 H 98.9515 2.12258 3.58123 0
M  V30 971 H 99.4845 3.24277 2.30411 0
M  V30 972 H 96.2235 6.22888 2.04184 0
M  V30 973 H 95.7435 5.03098 3.26577 0
M  V30 974 H 97.4225 5.62196 3.20225 0
M  V30 975 N 97.5546 -0.734337 1.39446 0
M  V30 976 C 98.8026 -1.49096 1.36436 0
M  V30 977 C 99.1236 -1.94961 -0.0388255 0
M  V30 978 O 98.3936 -1.69033 -0.990191 0
M  V30 979 H 96.9736 -0.5531 0.502085 0
M  V30 980 H 99.6356 -0.871725 1.74319 0
M  V30 981 H 98.7316 -2.37276 2.02747 0
M  V30 982 N 99.0327 -1.24633 -0.964593 0
M  V30 983 C 100.261 -1.11501 -1.74285 0
M  V30 984 C 100.676 0.332165 -1.85855 0
M  V30 985 O 100.033 1.22903 -1.34911 0
M  V30 986 C 100.084 -1.75258 -3.16175 0
M  V30 987 O 99.8047 -3.14318 -3.05182 0
M  V30 988 C 101.306 -1.67776 -4.10324 0
M  V30 989 H 98.5257 -0.389407 -0.546446 0
M  V30 990 H 101.07 -1.64801 -1.21083 0
M  V30 991 H 99.2247 -1.25954 -3.66353 0
M  V30 992 H 99.6387 -3.4551 -3.94618 0
M  V30 993 H 101.113 -2.17064 -5.0753 0
M  V30 994 H 101.59 -0.639584 -4.34518 0
M  V30 995 H 102.196 -2.16522 -3.66058 0
M  V30 996 N 100.511 1.16574 -1.06058 0
M  V30 997 C 101.441 2.23057 -0.690488 0
M  V30 998 C 102.422 1.67141 0.315901 0
M  V30 999 O 103.607 1.93253 0.191556 0
M  V30 1000 C 100.737 3.47222 -0.073625 0
M  V30 1001 C 99.6908 4.16016 -1.00573 0
M  V30 1002 C 99.0168 5.34104 -0.252289 0
M  V30 1003 C 100.317 4.67264 -2.33371 0
M  V30 1004 H 102.011 2.54271 -1.58072 0
M  V30 1005 H 99.5568 1.22218 -0.76149 0
M  V30 1006 H 101.51 4.20939 0.19714 0
M  V30 1007 H 100.234 3.15302 0.85161 0
M  V30 1008 H 98.8928 3.44223 -1.2612 0
M  V30 1009 H 98.5408 4.98437 0.675988 0
M  V30 1010 H 98.2408 5.81072 -0.873455 0
M  V30 1011 H 99.7648 6.10599 0.0109857 0
M  V30 1012 H 101.179 5.32573 -2.12223 0
M  V30 1013 H 99.5758 5.24843 -2.90963 0
M  V30 1014 H 100.646 3.83602 -2.96611 0
M  V30 1015 N 101.989 0.842826 1.3317 0
M  V30 1016 C 103.214 0.453129 2.02389 0
M  V30 1017 C 103.639 -0.939105 1.6298 0
M  V30 1018 O 102.997 -1.61472 0.8244 0
M  V30 1019 C 103.045 0.586094 3.55805 0
M  V30 1020 O 102.149 -0.386029 4.10589 0
M  V30 1021 H 101.49 0.183664 0.638094 0
M  V30 1022 H 104.02 1.13875 1.69981 0
M  V30 1023 H 104.03 0.469209 4.05293 0
M  V30 1024 H 102.705 1.6014 3.83833 0
M  V30 1025 H 101.282 -0.226371 3.72212 0
M  V30 1026 N 103.467 -1.45747 0.599634 0
M  V30 1027 C 104.414 -2.30467 -0.123849 0
M  V30 1028 C 105.384 -1.41632 -0.86774 0
M  V30 1029 O 106.569 -1.70568 -0.855056 0
M  V30 1030 C 103.709 -3.26402 -1.12051 0
M  V30 1031 C 102.822 -4.3034 -0.37832 0
M  V30 1032 C 101.957 -5.13389 -1.364 0
M  V30 1033 C 100.996 -6.09061 -0.609171 0
M  V30 1034 N 100.133 -6.84918 -1.54374 0
M  V30 1035 H 104.973 -2.91802 0.604627 0
M  V30 1036 H 102.51 -1.43797 0.309972 0
M  V30 1037 H 104.468 -3.80482 -1.7114 0
M  V30 1038 H 103.098 -2.66839 -1.8165 0
M  V30 1039 H 102.15 -3.78984 0.327929 0
M  V30 1040 H 103.462 -4.98354 0.210997 0
M  V30 1041 H 102.616 -5.7183 -2.02719 0
M  V30 1042 H 101.355 -4.45376 -1.98725 0
M  V30 1043 H 100.36 -5.49758 0.0676979 0
M  V30 1044 H 101.585 -6.79099 0.00891991 0
M  V30 1045 H 99.531 -6.19601 -2.15478 0
M  V30 1046 H 99.448 -7.49254 -1.00766 0
M  V30 1047 H 100.716 -7.47906 -2.19676 0
M  V30 1048 N 104.945 -0.338344 -1.53925 0
M  V30 1049 C 105.855 0.529421 -2.28548 0
M  V30 1050 C 106.871 1.11645 -1.3346 0
M  V30 1051 O 108.047 1.13325 -1.66492 0
M  V30 1052 C 105.112 1.66713 -3.03987 0
M  V30 1053 C 104.173 1.11041 -4.14691 0
M  V30 1054 C 103.406 2.19389 -4.86522 0
M  V30 1055 O 103.629 3.40013 -4.57982 0
M  V30 1056 O 102.563 1.83976 -5.73094 0
M  V30 1057 H 106.389 -0.0770399 -3.03602 0
M  V30 1058 H 103.974 -0.103555 -1.49041 0
M  V30 1059 H 105.856 2.32918 -3.5118 0
M  V30 1060 H 104.531 2.25949 -2.31794 0
M  V30 1061 H 103.438 0.413024 -3.71813 0
M  V30 1062 H 104.771 0.562975 -4.8897 0
M  V30 1063 N 106.423 1.57458 -0.0668435 0
M  V30 1064 C 107.648 1.9804 0.616027 0
M  V30 1065 C 108.073 0.944771 1.62652 0
M  V30 1066 O 107.431 -0.0902094 1.81075 0
M  V30 1067 C 107.479 3.37665 1.26549 0
M  V30 1068 O 106.583 3.36701 2.38131 0
M  V30 1069 H 105.924 0.644719 0.158849 0
M  V30 1070 H 108.454 2.04121 -0.139891 0
M  V30 1071 H 108.464 3.7474 1.6135 0
M  V30 1072 H 107.139 4.12573 0.525016 0
M  V30 1073 H 105.716 3.1139 2.0516 0
M  V30 1074 N 107.901 -0.206675 1.56239 0
M  V30 1075 C 109.147 -0.930218 1.80208 0
M  V30 1076 C 109.48 -1.83387 0.638981 0
M  V30 1077 O 108.755 -1.91119 -0.361066 0
M  V30 1078 C 109.038 -1.75641 3.1436 0
M  V30 1079 C 108.891 -0.878257 4.41142 0
M  V30 1080 C 110.21 -2.73129 3.45092 0
M  V30 1081 H 107.329 -0.336742 0.655571 0
M  V30 1082 H 109.971 -0.198222 1.88963 0
M  V30 1083 H 108.121 -2.38048 3.07027 0
M  V30 1084 H 109.793 -0.269787 4.6051 0
M  V30 1085 H 108.036 -0.184385 4.33408 0
M  V30 1086 H 108.707 -1.49106 5.3148 0
M  V30 1087 H 111.183 -2.20856 3.52649 0
M  V30 1088 H 110.059 -3.28028 4.40101 0
M  V30 1089 H 110.32 -3.51606 2.68003 0
M  V30 1090 N 109.379 -1.50304 -0.473955 0
M  V30 1091 C 110.289 -1.7174 -1.5982 0
M  V30 1092 C 111.305 -0.600457 -1.63311 0
M  V30 1093 O 112.481 -0.878441 -1.81233 0
M  V30 1094 C 109.546 -1.80427 -2.96052 0
M  V30 1095 C 108.607 -3.04148 -3.02972 0
M  V30 1096 C 107.84 -3.12411 -4.32706 0
M  V30 1097 O 108.063 -2.27542 -5.23049 0
M  V30 1098 O 106.997 -4.05113 -4.45159 0
M  V30 1099 H 110.823 -2.67035 -1.44657 0
M  V30 1100 H 108.408 -1.34366 -0.653148 0
M  V30 1101 H 110.29 -1.88338 -3.7697 0
M  V30 1102 H 108.965 -0.883156 -3.11419 0
M  V30 1103 H 107.872 -3.0174 -2.21142 0
M  V30 1104 H 109.205 -3.95829 -2.92541 0
M  V30 1105 N 110.857 0.726932 -1.39834 0
M  V30 1106 C 111.82 1.82269 -1.38962 0
M  V30 1107 C 112.82 1.58248 -0.285334 0
M  V30 1108 O 114.01 1.65499 -0.54366 0
M  V30 1109 C 111.142 3.20186 -1.17019 0
M  V30 1110 H 112.335 1.84443 -2.36476 0
M  V30 1111 H 109.888 0.931416 -1.25516 0
M  V30 1112 H 110.623 3.23669 -0.202204 0
M  V30 1113 H 110.408 3.3902 -1.96998 0
M  V30 1114 H 111.898 4.00235 -1.1917 0
M  V30 1115 N 112.336 1.25143 0.95797 0
M  V30 1116 C 113.269 0.995565 2.05338 0
M  V30 1117 C 114.247 -0.0740423 1.62431 0
M  V30 1118 O 115.431 0.0649212 1.88388 0
M  V30 1119 C 112.558 0.504298 3.34925 0
M  V30 1120 C 111.604 1.56393 3.96792 0
M  V30 1121 S 112.437 3.14815 4.33188 0
M  V30 1122 C 113.593 2.67415 5.65898 0
M  V30 1123 H 113.826 1.92309 2.26726 0
M  V30 1124 H 111.359 1.08635 1.09716 0
M  V30 1125 H 113.317 0.227497 4.09869 0
M  V30 1126 H 111.978 -0.402671 3.11508 0
M  V30 1127 H 111.171 1.17082 4.90212 0
M  V30 1128 H 110.773 1.79124 3.28315 0
M  V30 1129 H 113.065 2.10833 6.4386 0
M  V30 1130 H 114.008 3.59463 6.10076 0
M  V30 1131 H 114.416 2.07521 5.24972 0
M  V30 1132 N 113.814 -1.1601 1.06675 0
M  V30 1133 C 115.063 -1.85973 0.780818 0
M  V30 1134 C 115.376 -1.82819 -0.695444 0
M  V30 1135 O 116.582 -2.484 -1.09589 0
M  V30 1136 C 115.038 -3.33757 1.34665 0
M  V30 1137 C 114.646 -3.45374 2.85343 0
M  V30 1138 C 116.39 -4.0895 1.13843 0
M  V30 1139 C 114.297 -4.87266 3.35151 0
M  V30 1140 H 113.227 -0.696661 0.288407 0
M  V30 1141 H 115.878 -1.30903 1.28595 0
M  V30 1142 H 114.26 -3.88456 0.769274 0
M  V30 1143 H 115.434 -3.00816 3.49065 0
M  V30 1144 H 113.749 -2.83619 3.04876 0
M  V30 1145 H 116.346 -5.13654 1.4854 0
M  V30 1146 H 116.689 -4.16229 0.0770282 0
M  V30 1147 H 117.222 -3.605 1.68179 0
M  V30 1148 H 113.961 -4.85168 4.40786 0
M  V30 1149 H 113.481 -5.32433 2.76179 0
M  V30 1150 H 115.16 -5.56097 3.30704 0
M  V30 1151 N 115.292 -0.849877 -1.32721 0
M  V30 1152 C 116.541 -0.447175 -1.96681 0
M  V30 1153 C 116.854 1.00135 -1.68025 0
M  V30 1154 O 118.06 1.50926 -2.25685 0
M  V30 1155 C 116.516 -0.7487 -3.52026 0
M  V30 1156 C 116.124 -2.21264 -3.89546 0
M  V30 1157 C 117.868 -0.413487 -4.22481 0
M  V30 1158 C 115.775 -2.45763 -5.37917 0
M  V30 1159 H 114.705 -0.163486 -0.736063 0
M  V30 1160 H 117.356 -1.03999 -1.51183 0
M  V30 1161 H 115.738 -0.0853727 -3.95908 0
M  V30 1162 H 116.912 -2.91736 -3.56689 0
M  V30 1163 H 115.227 -2.5119 -3.32103 0
M  V30 1164 H 117.824 -0.574017 -5.3161 0
M  V30 1165 H 118.167 0.644492 -4.11281 0
M  V30 1166 H 118.7 -1.03251 -3.84167 0
M  V30 1167 H 115.439 -3.50168 -5.54132 0
M  V30 1168 H 114.959 -1.79864 -5.72197 0
M  V30 1169 H 116.638 -2.29471 -6.0494 0
M  V30 1170 N 116.77 1.45427 -0.607355 0
M  V30 1171 C 117.733 2.28974 0.101693 0
M  V30 1172 C 118.733 1.39754 0.795329 0
M  V30 1173 O 119.923 1.61878 0.643527 0
M  V30 1174 C 117.055 3.20768 1.15414 0
M  V30 1175 H 118.248 2.93147 -0.632844 0
M  V30 1176 H 115.801 1.51945 -0.366391 0
M  V30 1177 H 116.536 2.61395 1.91945 0
M  V30 1178 H 116.321 3.86489 0.66098 0
M  V30 1179 H 117.811 3.83589 1.65073 0
M  V30 1180 N 118.248 0.346503 1.53744 0
M  V30 1181 C 119.496 -0.248612 2.00565 0
M  V30 1182 C 119.817 -1.5083 1.23593 0
M  V30 1183 O 119.087 -1.92858 0.343912 0
M  V30 1184 H 117.667 -0.0948564 0.740953 0
M  V30 1185 H 120.329 0.468341 1.89189 0
M  V30 1186 H 119.425 -0.488994 3.08245 0
M  V30 1187 N 119.726 -1.57421 0.075193 0
M  V30 1188 C 120.673 -2.12915 -0.890843 0
M  V30 1189 C 121.643 -1.04252 -1.29309 0
M  V30 1190 O 122.828 -1.31933 -1.37834 0
M  V30 1191 C 119.968 -2.69795 -2.15186 0
M  V30 1192 C 119.081 -3.92624 -1.80194 0
M  V30 1193 C 118.216 -4.37736 -3.00933 0
M  V30 1194 C 117.255 -5.53205 -2.61974 0
M  V30 1195 N 116.392 -5.9326 -3.75483 0
M  V30 1196 H 121.232 -2.95156 -0.410735 0
M  V30 1197 H 118.769 -1.45854 -0.191086 0
M  V30 1198 H 120.727 -3.00883 -2.89008 0
M  V30 1199 H 119.357 -1.90313 -2.60731 0
M  V30 1200 H 118.409 -3.67977 -0.964218 0
M  V30 1201 H 119.721 -4.76482 -1.47534 0
M  V30 1202 H 118.875 -4.70503 -3.8303 0
M  V30 1203 H 117.614 -3.52739 -3.36789 0
M  V30 1204 H 116.619 -5.20086 -1.783 0
M  V30 1205 H 117.844 -6.39936 -2.27284 0
M  V30 1206 H 115.79 -5.11212 -4.11094 0
M  V30 1207 H 115.707 -6.71865 -3.46602 0
M  V30 1208 H 116.975 -6.30651 -4.58148 0
M  V30 1209 N 121.204 0.198386 -1.56346 0
M  V30 1210 C 122.429 0.939682 -1.84891 0
M  V30 1211 C 122.854 1.76202 -0.658369 0
M  V30 1212 O 122.212 1.76993 0.392851 0
M  V30 1213 C 122.26 1.81428 -3.11635 0
M  V30 1214 O 121.364 2.91265 -2.91956 0
M  V30 1215 H 120.705 0.264807 -0.608912 0
M  V30 1216 H 123.235 0.204695 -2.03573 0
M  V30 1217 H 123.245 2.21958 -3.42343 0
M  V30 1218 H 121.92 1.21004 -3.97908 0
M  V30 1219 H 120.497 2.54514 -2.72538 0
M  V30 1220 N 122.682 1.50554 0.465978 0
M  V30 1221 C 123.645 1.69233 1.54574 0
M  V30 1222 C 124.645 0.562901 1.50626 0
M  V30 1223 O 125.835 0.830016 1.53155 0
M  V30 1224 C 122.967 1.7223 2.94193 0
M  V30 1225 H 124.16 2.65571 1.39327 0
M  V30 1226 H 121.713 1.40111 0.692711 0
M  V30 1227 H 122.448 0.77603 3.14878 0
M  V30 1228 H 122.233 2.54285 2.98466 0
M  V30 1229 H 123.723 1.88618 3.72576 0
M  V30 1230 N 124.16 -0.719506 1.40217 0
M  V30 1231 C 125.108 -1.85493 1.40339 0
M  V30 1232 C 126.102 -1.66995 0.284415 0
M  V30 1233 O 127.308 -1.74148 0.455252 0
M  V30 1234 H 123.683 -0.610857 0.438586 0
M  V30 1235 H 125.654 -1.82506 2.36081 0
M  V30 1236 C 124.403 -3.23321 1.27901 0
M  V30 1237 H 123.726 -3.38159 2.1328 0
M  V30 1238 H 125.166 -4.02914 1.32045 0
M  V30 1239 C 123.625 -3.36898 -0.0111355 0
M  V30 1240 O 124.155 -3.89674 -0.975538 0
M  V30 1241 N 122.361 -2.90492 -0.0793393 0
M  V30 1242 H 121.908 -2.47731 0.706183 0
M  V30 1243 H 121.866 -2.99955 -0.942038 0
M  V30 1244 N 125.638 -1.25649 -0.95132 0
M  V30 1245 C 126.548 -1.08073 -2.08224 0
M  V30 1246 C 127.564 -0.0169666 -1.73992 0
M  V30 1247 O 128.74 -0.218593 -2.0021 0
M  V30 1248 C 125.805 -0.704922 -3.39458 0
M  V30 1249 C 124.866 -1.84699 -3.87537 0
M  V30 1250 C 124.099 -1.48902 -5.12508 0
M  V30 1251 O 124.322 -0.386156 -5.69091 0
M  V30 1252 O 123.256 -2.32033 -5.55378 0
M  V30 1253 H 127.082 -2.02924 -2.25954 0
M  V30 1254 H 124.667 -1.04618 -1.06656 0
M  V30 1255 H 126.549 -0.507609 -4.18332 0
M  V30 1256 H 125.224 0.214291 -3.2299 0
M  V30 1257 H 124.131 -2.09919 -3.09653 0
M  V30 1258 H 125.464 -2.74557 -4.08509 0
M  V30 1259 N 127.117 1.15442 -1.07289 0
M  V30 1260 C 128.067 2.18164 -0.662467 0
M  V30 1261 C 129.051 1.57845 0.312074 0
M  V30 1262 O 130.243 1.76552 0.125905 0
M  V30 1263 C 127.372 3.43246 -0.0611295 0
M  V30 1264 C 126.458 4.1062 -1.06077 0
M  V30 1265 N 126.849 4.53491 -2.24008 0
M  V30 1266 C 125.147 4.36949 -0.893964 0
M  V30 1267 C 125.848 5.05731 -2.87422 0
M  V30 1268 N 124.824 4.99236 -2.15091 0
M  V30 1269 H 128.626 2.49038 -1.56068 0
M  V30 1270 H 126.14 1.32003 -0.945988 0
M  V30 1271 H 128.137 4.16145 0.250792 0
M  V30 1272 H 126.797 3.13854 0.832207 0
M  V30 1273 H 127.808 4.46898 -2.6173 0
M  V30 1274 H 124.485 4.17466 -0.0534693 0
M  V30 1275 H 125.875 5.48865 -3.87553 0
M  V30 1276 N 128.595 0.856903 1.32268 0
M  V30 1277 C 129.843 0.460474 1.96784 0
M  V30 1278 C 130.164 -0.987701 1.68135 0
M  V30 1279 O 129.434 -1.69058 0.989765 0
M  V30 1280 H 128.014 0.167289 0.728027 0
M  V30 1281 H 130.676 1.09383 1.61312 0
M  V30 1282 H 129.772 0.60739 3.06133 0
M  V30 1283 N 130.073 -1.45103 0.615059 0
M  V30 1284 C 131.319 -2.02483 0.113347 0
M  V30 1285 C 131.652 -1.48146 -1.25564 0
M  V30 1286 O 130.927 -0.659104 -1.82992 0
M  V30 1287 C 131.21 -3.60005 0.0825278 0
M  V30 1288 C 131.063 -4.2466 1.48271 0
M  V30 1289 C 132.382 -4.35972 -0.601401 0
M  V30 1290 H 129.501 -0.735764 0.0426632 0
M  V30 1291 H 132.143 -1.72868 0.788461 0
M  V30 1292 H 130.293 -3.85367 -0.492378 0
M  V30 1293 H 131.965 -4.10458 2.10527 0
M  V30 1294 H 130.208 -3.82772 2.04127 0
M  V30 1295 H 130.879 -5.336 1.41332 0
M  V30 1296 H 133.355 -4.15947 -0.112666 0
M  V30 1297 H 132.231 -5.45697 -0.592097 0
M  V30 1298 H 132.492 -4.09391 -1.66887 0
M  V30 1299 N 131.551 -0.354651 -1.53558 0
M  V30 1300 C 132.962 0.126902 -1.86268 0
M  V30 1301 C 133.313 1.49075 -1.27558 0
M  V30 1302 O 132.438 2.08105 -0.5934 0
M  V30 1303 C 133.033 0.237046 -3.3797 0
M  V30 1304 C 131.592 0.662842 -3.70518 0
M  V30 1305 C 130.739 -0.196652 -2.76602 0
M  V30 1306 H 133.69 -0.573849 -1.47962 0
M  V30 1307 H 133.711 1.06259 -3.65362 0
M  V30 1308 H 133.223 -0.755725 -3.80671 0
M  V30 1309 H 131.324 1.66424 -3.33367 0
M  V30 1310 H 131.437 0.445034 -4.77029 0
M  V30 1311 H 129.801 0.332763 -2.52517 0
M  V30 1312 H 130.584 -1.18676 -3.22135 0
M  V30 1313 N 133.029 1.57378 -0.0835403 0
M  V30 1314 C 134.275 1.94217 0.583733 0
M  V30 1315 C 134.608 0.964653 1.68547 0
M  V30 1316 O 133.883 -0.00422258 1.945 0
M  V30 1317 C 134.166 3.41253 1.14972 0
M  V30 1318 C 134.019 4.49768 0.0538277 0
M  V30 1319 C 135.338 3.89352 2.05166 0
M  V30 1320 H 132.457 0.706233 0.210724 0
M  V30 1321 H 135.099 1.89392 -0.1519 0
M  V30 1322 H 133.249 3.45496 1.77665 0
M  V30 1323 H 134.921 4.57641 -0.579851 0
M  V30 1324 H 133.164 4.29432 -0.614068 0
M  V30 1325 H 133.835 5.49817 0.490452 0
M  V30 1326 H 136.311 3.87189 1.52393 0
M  V30 1327 H 135.187 4.92822 2.41698 0
M  V30 1328 H 135.448 3.27973 2.96456 0
M  V30 1329 N 134.507 -0.190092 1.56449 0
M  V30 1330 C 135.756 -0.907912 1.80111 0
M  V30 1331 C 136.069 -1.84214 0.657619 0
M  V30 1332 O 137.275 -2.60094 0.778663 0
M  V30 1333 C 135.731 -1.66485 3.19078 0
M  V30 1334 C 135.339 -0.7752 4.41242 0
M  V30 1335 C 137.083 -2.37201 3.52045 0
M  V30 1336 C 134.99 -1.53129 5.71231 0
M  V30 1337 H 133.92 -0.34276 0.671589 0
M  V30 1338 H 136.571 -0.161109 1.82791 0
M  V30 1339 H 134.953 -2.45572 3.10661 0
M  V30 1340 H 136.127 -0.0226298 4.60794 0
M  V30 1341 H 134.442 -0.178627 4.16017 0
M  V30 1342 H 137.039 -2.94329 4.46402 0
M  V30 1343 H 137.382 -3.11632 2.76028 0
M  V30 1344 H 137.915 -1.65075 3.61932 0
M  V30 1345 H 134.654 -0.82967 6.50228 0
M  V30 1346 H 134.174 -2.25767 5.55688 0
M  V30 1347 H 135.853 -2.08377 6.12526 0
M  V30 1348 N 135.985 -1.50799 -0.457987 0
M  V30 1349 C 136.915 -1.73553 -1.5621 0
M  V30 1350 C 137.896 -0.584774 -1.59732 0
M  V30 1351 O 139.081 -0.825314 -1.7579 0
M  V30 1352 C 136.211 -1.84169 -2.94447 0
M  V30 1353 C 135.165 -2.99461 -3.0579 0
M  V30 1354 C 134.491 -2.95235 -4.45803 0
M  V30 1355 C 135.791 -4.39766 -2.81786 0
M  V30 1356 H 137.485 -2.66 -1.37421 0
M  V30 1357 H 135.031 -1.28002 -0.659662 0
M  V30 1358 H 136.984 -1.98672 -3.71628 0
M  V30 1359 H 135.708 -0.883545 -3.14422 0
M  V30 1360 H 134.367 -2.8463 -2.31044 0
M  V30 1361 H 134.015 -1.97239 -4.62715 0
M  V30 1362 H 133.715 -3.72642 -4.54326 0
M  V30 1363 H 135.239 -3.11803 -5.24987 0
M  V30 1364 H 136.653 -4.55054 -3.4871 0
M  V30 1365 H 135.05 -5.18722 -3.0174 0
M  V30 1366 H 136.12 -4.51229 -1.7754 0
M  V30 1367 N 137.463 0.71206 -1.40597 0
M  V30 1368 C 138.74 1.46536 -1.29563 0
M  V30 1369 C 139.12 2.10931 0.0844217 0
M  V30 1370 O 138.468 2.00418 1.0975 0
M  V30 1371 C 138.678 2.49821 -2.43701 0
M  V30 1372 C 140.026 3.15551 -2.841 0
M  V30 1373 O 141.05 2.60142 -2.4332 0
M  V30 1374 O 139.909 4.15867 -3.54566 0
M  V30 1375 H 137.003 0.651801 -0.509004 0
M  V30 1376 H 139.549 0.743935 -1.52524 0
M  V30 1377 H 138.321 2.00778 -3.35863 0
M  V30 1378 H 137.944 3.29495 -2.22528 0
M  V30 1379 N 138.941 1.26152 0.944643 0
M  V30 1380 C 140.352 1.10454 1.50522 0
M  V30 1381 C 140.703 -0.31635 1.93633 0
M  V30 1382 O 139.828 -1.20746 1.79581 0
M  V30 1383 C 140.423 1.99891 2.73549 0
M  V30 1384 C 138.982 1.88348 3.25886 0
M  V30 1385 C 138.129 1.93447 1.9868 0
M  V30 1386 H 141.08 1.39292 0.760489 0
M  V30 1387 H 141.101 1.54477 3.47732 0
M  V30 1388 H 140.613 3.03297 2.42141 0
M  V30 1389 H 138.714 0.878636 3.62092 0
M  V30 1390 H 138.827 2.73696 3.93227 0
M  V30 1391 H 137.191 1.37456 2.14425 0
M  V30 1392 H 137.974 2.98476 1.69607 0
M  V30 1393 N 140.419 -1.14872 1.07899 0
M  V30 1394 C 141.665 -1.86064 0.806725 0
M  V30 1395 C 141.998 -1.82434 -0.665706 0
M  V30 1396 O 141.273 -1.25138 -1.48899 0
M  V30 1397 C 141.556 -3.34929 1.32267 0
M  V30 1398 C 141.409 -3.47161 2.86006 0
M  V30 1399 C 142.728 -4.29863 0.943717 0
M  V30 1400 H 139.847 -0.675591 0.294526 0
M  V30 1401 H 142.489 -1.34925 1.33773 0
M  V30 1402 H 140.639 -3.78611 0.870974 0
M  V30 1403 H 142.311 -3.12302 3.39507 0
M  V30 1404 H 140.554 -2.88539 3.23925 0
M  V30 1405 H 141.225 -4.51777 3.17177 0
M  V30 1406 H 143.701 -3.9417 1.33302 0
M  V30 1407 H 142.577 -5.32494 1.33198 0
M  V30 1408 H 142.838 -4.41846 -0.149796 0
M  V30 1409 N 141.898 -0.863906 -1.31812 0
M  V30 1410 C 143.146 -0.470904 -1.96537 0
M  V30 1411 C 143.467 0.978771 -1.68657 0
M  V30 1412 O 142.737 1.6853 -0.998717 0
M  V30 1413 H 141.317 -0.171148 -0.72713 0
M  V30 1414 H 143.979 -1.10236 -1.60729 0
M  V30 1415 H 143.075 -0.623616 -3.05806 0
M  V30 1416 N 143.376 1.44774 -0.622745 0
M  V30 1417 C 144.339 2.29069 0.0774015 0
M  V30 1418 C 145.339 1.4059 0.780461 0
M  V30 1419 O 146.529 1.62551 0.626322 0
M  V30 1420 C 143.661 3.21974 1.12006 0
M  V30 1421 H 144.854 2.92459 -0.663901 0
M  V30 1422 H 142.407 1.51548 -0.382486 0
M  V30 1423 H 143.142 2.63417 1.89162 0
M  V30 1424 H 142.927 3.87168 0.619951 0
M  V30 1425 H 144.417 3.85318 1.60995 0
M  V30 1426 N 144.854 0.36279 1.53368 0
M  V30 1427 C 146.102 -0.227326 2.00817 0
M  V30 1428 C 146.423 -1.49511 1.25186 0
M  V30 1429 O 145.693 -1.92482 0.364348 0
M  V30 1430 H 144.273 -0.0869923 0.741917 0
M  V30 1431 H 146.935 0.488381 1.88682 0
M  V30 1432 H 146.031 -0.456273 3.08747 0
M  V30 1433 N 146.332 -1.57332 0.0918853 0
M  V30 1434 C 147.295 -2.12708 -0.85369 0
M  V30 1435 C 148.295 -1.05561 -1.213 0
M  V30 1436 O 149.485 -1.31461 -1.14296 0
M  V30 1437 C 146.617 -2.64503 -2.15061 0
M  V30 1438 H 147.81 -2.97573 -0.3729 0
M  V30 1439 H 145.363 -1.55509 -0.157072 0
M  V30 1440 H 146.098 -1.83149 -2.67632 0
M  V30 1441 H 145.883 -3.4284 -1.90272 0
M  V30 1442 H 147.373 -3.07351 -2.82711 0
M  V30 1443 N 147.81 0.181792 -1.56548 0
M  V30 1444 C 149.038 0.915947 -1.85521 0
M  V30 1445 C 149.453 1.76282 -0.676016 0
M  V30 1446 O 148.81 1.79012 0.355077 0
M  V30 1447 C 148.861 1.80126 -3.13427 0
M  V30 1448 O 148.582 0.988562 -4.26801 0
M  V30 1449 C 150.083 2.64597 -3.55673 0
M  V30 1450 H 147.303 0.26661 -0.61576 0
M  V30 1451 H 149.847 0.185039 -2.03661 0
M  V30 1452 H 148.002 2.48563 -2.97145 0
M  V30 1453 H 148.416 1.59308 -4.99721 0
M  V30 1454 H 149.89 3.2235 -4.48101 0
M  V30 1455 H 150.367 3.38958 -2.79292 0
M  V30 1456 H 150.973 2.0151 -3.74532 0
M  V30 1457 N 149.288 1.51039 0.449983 0
M  V30 1458 C 150.699 1.557 1.03026 0
M  V30 1459 C 151.05 0.372939 1.92623 0
M  V30 1460 O 150.175 -0.511771 2.10261 0
M  V30 1461 C 150.77 2.82171 1.87523 0
M  V30 1462 C 149.329 2.89444 2.40622 0
M  V30 1463 C 148.476 2.50228 1.19504 0
M  V30 1464 H 151.427 1.56999 0.231745 0
M  V30 1465 H 151.448 2.65219 2.72835 0
M  V30 1466 H 150.96 3.68331 1.22286 0
M  V30 1467 H 149.061 2.07685 3.0935 0
M  V30 1468 H 149.174 3.92816 2.74285 0
M  V30 1469 H 147.538 2.03139 1.53644 0
M  V30 1470 H 148.321 3.38719 0.558972 0
M  V30 1471 N 150.766 -0.704594 1.40972 0
M  V30 1472 C 152.013 -1.46458 1.39844 0
M  V30 1473 C 152.341 -1.94499 0.00447594 0
M  V30 1474 O 151.596 -1.69275 -0.982057 0
M  V30 1475 C 151.895 -2.698 2.34399 0
M  V30 1476 C 151.561 -2.40464 3.81429 0
M  V30 1477 C 150.223 -2.32174 4.21484 0
M  V30 1478 C 152.575 -2.16086 4.74296 0
M  V30 1479 C 149.903 -1.97589 5.52427 0
M  V30 1480 C 152.255 -1.83011 6.05549 0
M  V30 1481 C 150.919 -1.7321 6.44635 0
M  V30 1482 H 150.189 -0.535927 0.511725 0
M  V30 1483 H 152.836 -0.806124 1.73706 0
M  V30 1484 H 151.141 -3.40536 1.93759 0
M  V30 1485 H 152.838 -3.27919 2.30804 0
M  V30 1486 H 149.428 -2.47808 3.49699 0
M  V30 1487 H 153.612 -2.2144 4.4416 0
M  V30 1488 H 148.868 -1.88547 5.81601 0
M  V30 1489 H 153.042 -1.63164 6.77016 0
M  V30 1490 H 150.669 -1.46179 7.46013 0
M  V30 1491 N 152.244 -1.26651 -0.937939 0
M  V30 1492 C 153.66 -1.03834 -1.21205 0
M  V30 1493 C 153.86 0.234502 -2.00131 0
M  V30 1494 O 152.916 0.942767 -2.3424 0
M  V30 1495 C 154.229 -2.27167 -1.97017 0
M  V30 1496 C 155.777 -2.32101 -2.09996 0
M  V30 1497 C 156.252 -3.55136 -2.8921 0
M  V30 1498 N 157.743 -3.55632 -2.96783 0
M  V30 1499 C 158.478 -4.475 -3.58512 0
M  V30 1500 N 157.974 -5.4966 -4.21717 0
M  V30 1501 N 159.767 -4.35145 -3.55816 0
M  V30 1502 H 151.918 -2.08398 -0.410391 0
M  V30 1503 H 154.181 -0.916031 -0.244114 0
M  V30 1504 H 153.887 -3.19765 -1.46434 0
M  V30 1505 H 153.761 -2.31672 -2.97671 0
M  V30 1506 H 156.148 -1.40015 -2.59769 0
M  V30 1507 H 156.229 -2.31605 -1.08594 0
M  V30 1508 H 155.873 -4.47553 -2.40123 0
M  V30 1509 H 155.803 -3.5288 -3.90875 0
M  V30 1510 H 158.294 -2.81743 -2.51852 0
M  V30 1511 H 158.607 -6.15943 -4.66727 0
M  V30 1512 H 156.952 -5.53514 -4.20294 0
M  V30 1513 H 160.143 -3.5455 -3.05634 0
M  V30 1514 H 160.316 -5.06934 -4.03636 0
M  V30 1515 N 153.722 1.14298 -1.08507 0
M  V30 1516 C 154.95 1.89219 -0.836876 0
M  V30 1517 C 155.365 1.78638 0.611054 0
M  V30 1518 O 154.722 1.14643 1.41998 0
M  V30 1519 C 154.773 3.39158 -1.25116 0
M  V30 1520 O 154.494 3.49449 -2.64229 0
M  V30 1521 C 155.995 4.31073 -1.03398 0
M  V30 1522 H 153.215 0.599328 -0.301739 0
M  V30 1523 H 155.759 1.44746 -1.44461 0
M  V30 1524 H 153.914 3.81251 -0.687514 0
M  V30 1525 H 154.328 4.42589 -2.81452 0
M  V30 1526 H 155.802 5.34646 -1.37323 0
M  V30 1527 H 156.279 4.3919 0.0289259 0
M  V30 1528 H 156.885 3.94738 -1.58311 0
M  V30 1529 N 155.201 0.870884 1.31352 0
M  V30 1530 C 156.111 0.330783 2.32256 0
M  V30 1531 C 157.127 -0.559767 1.6475 0
M  V30 1532 O 158.303 -0.456263 1.96164 0
M  V30 1533 C 155.368 -0.458137 3.4366 0
M  V30 1534 C 154.429 0.460482 4.26823 0
M  V30 1535 C 153.662 -0.290881 5.32907 0
M  V30 1536 O 153.885 -1.51885 5.49806 0
M  V30 1537 O 152.819 0.351732 6.00871 0
M  V30 1538 H 156.645 1.16718 2.80376 0
M  V30 1539 H 154.23 0.634285 1.35267 0
M  V30 1540 H 156.112 -0.905343 4.1156 0
M  V30 1541 H 154.787 -1.27106 2.97701 0
M  V30 1542 H 153.694 0.956207 3.61673 0
M  V30 1543 H 155.027 1.23903 4.7635 0
M  V30 1544 N 156.679 -1.44442 0.630414 0
M  V30 1545 C 157.904 -2.06927 0.139944 0
M  V30 1546 C 158.329 -1.46795 -1.17613 0
M  V30 1547 O 157.687 -0.569144 -1.72135 0
M  V30 1548 C 157.735 -3.6058 0.0379581 0
M  V30 1549 O 156.839 -3.99937 -1.0062 0
M  V30 1550 H 156.18 -0.658608 0.0844483 0
M  V30 1551 H 158.71 -1.85327 0.866891 0
M  V30 1552 H 158.72 -4.07714 -0.152856 0
M  V30 1553 H 157.395 -4.03728 0.998809 0
M  V30 1554 H 155.972 -3.64436 -0.79001 0
M  V30 1555 N 158.157 -0.370918 -1.53173 0
M  V30 1556 C 159.12 0.460778 -2.24521 0
M  V30 1557 C 160.12 1.00536 -1.25496 0
M  V30 1558 O 161.31 0.890266 -1.49733 0
M  V30 1559 C 158.442 1.64457 -2.98608 0
M  V30 1560 H 159.635 -0.163613 -2.99453 0
M  V30 1561 H 157.188 -0.122699 -1.55818 0
M  V30 1562 H 157.923 2.30691 -2.2793 0
M  V30 1563 H 157.708 1.26099 -3.7127 0
M  V30 1564 H 159.198 2.23384 -3.5283 0
M  V30 1565 N 159.635 1.57281 -0.100228 0
M  V30 1566 C 161.051 1.57527 0.256416 0
M  V30 1567 C 161.251 1.11173 1.68056 0
M  V30 1568 O 160.307 0.79053 2.39806 0
M  V30 1569 C 161.62 3.00673 0.0401747 0
M  V30 1570 C 163.168 3.12815 0.107528 0
M  V30 1571 C 163.643 4.57929 -0.0807834 0
M  V30 1572 N 165.134 4.63193 -0.0261207 0
M  V30 1573 C 165.869 5.73212 -0.146999 0
M  V30 1574 N 165.365 6.92047 -0.322999 0
M  V30 1575 N 167.158 5.62031 -0.0879044 0
M  V30 1576 H 159.309 1.85718 -1.03065 0
M  V30 1577 H 161.572 0.857446 -0.404339 0
M  V30 1578 H 161.278 3.38804 -0.943649 0
M  V30 1579 H 161.152 3.69042 0.780262 0
M  V30 1580 H 163.539 2.74554 1.08186 0
M  V30 1581 H 163.62 2.47028 -0.664134 0
M  V30 1582 H 163.264 4.96886 -1.05201 0
M  V30 1583 H 163.194 5.21783 0.710635 0
M  V30 1584 H 165.685 3.77748 0.107161 0
M  V30 1585 H 165.998 7.7173 -0.406608 0
M  V30 1586 H 164.343 6.94074 -0.358733 0
M  V30 1587 H 167.534 4.68075 0.048498 0
M  V30 1588 H 167.707 6.47734 -0.185557 0
M  V30 1589 N 161.113 -0.173488 1.56642 0
M  V30 1590 C 162.39 -0.917617 1.7274 0
M  V30 1591 C 162.77 -2.00484 0.661027 0
M  V30 1592 O 162.118 -2.26184 -0.32453 0
M  V30 1593 C 162.328 -1.48433 3.15862 0
M  V30 1594 C 163.676 -1.95809 3.76754 0
M  V30 1595 O 164.7 -1.58231 3.19126 0
M  V30 1596 O 163.559 -2.65024 4.77938 0
M  V30 1597 H 160.653 -0.431772 0.705338 0
M  V30 1598 H 163.199 -0.161487 1.6893 0
M  V30 1599 H 161.971 -0.701715 3.84957 0
M  V30 1600 H 161.594 -2.30471 3.23989 0
M  V30 1601 N 162.591 -1.51276 -0.441967 0
M  V30 1602 C 163.84 -1.6295 -1.18871 0
M  V30 1603 C 164.153 -0.349312 -1.92456 0
M  V30 1604 O 165.359 -0.345355 -2.69295 0
M  V30 1605 C 163.815 -2.87759 -2.16155 0
M  V30 1606 C 163.423 -4.22764 -1.48239 0
M  V30 1607 C 165.167 -3.08788 -2.91291 0
M  V30 1608 C 163.074 -5.38728 -2.4398 0
M  V30 1609 H 162.004 -0.606913 -0.447406 0
M  V30 1610 H 164.655 -1.77739 -0.456205 0
M  V30 1611 H 163.037 -2.66593 -2.92821 0
M  V30 1612 H 164.211 -4.54293 -0.771635 0
M  V30 1613 H 162.526 -4.07575 -0.852741 0
M  V30 1614 H 165.123 -3.92599 -3.63002 0
M  V30 1615 H 165.466 -2.21679 -3.5237 0
M  V30 1616 H 165.999 -3.30272 -2.21733 0
M  V30 1617 H 162.738 -6.28082 -1.87598 0
M  V30 1618 H 162.258 -5.1158 -3.13123 0
M  V30 1619 H 163.937 -5.70489 -3.05207 0
M  V30 1620 N 164.069 0.697108 -1.41344 0
M  V30 1621 C 165.318 1.45279 -1.39918 0
M  V30 1622 C 165.631 1.95597 -0.0109624 0
M  V30 1623 O 166.837 2.71208 0.125919 0
M  V30 1624 C 165.293 2.62695 -2.46007 0
M  V30 1625 C 164.901 2.19169 -3.90729 0
M  V30 1626 C 166.645 3.40336 -2.53715 0
M  V30 1627 C 164.552 3.33535 -4.88373 0
M  V30 1628 H 163.482 0.545692 -0.520323 0
M  V30 1629 H 166.133 0.756929 -1.67161 0
M  V30 1630 H 164.515 3.34541 -2.11892 0
M  V30 1631 H 165.689 1.54623 -4.34083 0
M  V30 1632 H 164.004 1.54525 -3.86666 0
M  V30 1633 H 166.601 4.2547 -3.2385 0
M  V30 1634 H 166.944 3.85418 -1.5735 0
M  V30 1635 H 167.477 2.75546 -2.86913 0
M  V30 1636 H 164.216 2.93468 -5.86137 0
M  V30 1637 H 163.736 3.96936 -4.49668 0
M  V30 1638 H 165.415 3.99335 -5.09059 0
M  V30 1639 N 165.547 1.27147 0.931209 0
M  V30 1640 C 166.963 1.04475 1.20653 0
M  V30 1641 C 167.163 -0.223885 2.00252 0
M  V30 1642 O 166.219 -0.930332 2.34736 0
M  V30 1643 C 167.532 2.28209 1.95809 0
M  V30 1644 C 169.08 2.33211 2.08762 0
M  V30 1645 C 169.555 3.56665 2.87323 0
M  V30 1646 N 171.046 3.57201 2.94892 0
M  V30 1647 C 171.781 4.49395 3.56134 0
M  V30 1648 N 171.277 5.51889 4.18796 0
M  V30 1649 N 173.07 4.37026 3.53504 0
M  V30 1650 H 165.221 2.08612 0.399333 0
M  V30 1651 H 167.484 0.917312 0.239253 0
M  V30 1652 H 167.19 3.20538 1.44736 0
M  V30 1653 H 167.064 2.33247 2.96438 0
M  V30 1654 H 169.451 1.41391 2.59023 0
M  V30 1655 H 169.532 2.32178 1.07364 0
M  V30 1656 H 169.176 4.4882 2.37746 0
M  V30 1657 H 169.106 3.54948 3.88998 0
M  V30 1658 H 171.597 2.83074 2.50354 0
M  V30 1659 H 171.91 6.18409 4.63454 0
M  V30 1660 H 170.255 5.55735 4.17353 0
M  V30 1661 H 173.446 3.56166 3.03749 0
M  V30 1662 H 173.619 5.09067 4.00942 0
M  V30 1663 N 167.025 -1.13721 1.09112 0
M  V30 1664 C 167.935 -2.22638 0.73957 0
M  V30 1665 C 168.951 -1.72091 -0.257068 0
M  V30 1666 O 170.127 -2.01155 -0.0992154 0
M  V30 1667 C 167.192 -3.46322 0.16191 0
M  V30 1668 C 166.253 -4.11775 1.21408 0
M  V30 1669 C 165.486 -5.29555 0.663891 0
M  V30 1670 O 165.709 -5.68077 -0.514274 0
M  V30 1671 O 164.643 -5.84973 1.41738 0
M  V30 1672 H 168.469 -2.55074 1.64836 0
M  V30 1673 H 166.054 -1.21791 0.865289 0
M  V30 1674 H 167.936 -4.21107 -0.157073 0
M  V30 1675 H 166.611 -3.15593 -0.719932 0
M  V30 1676 H 165.518 -3.3883 1.58571 0
M  V30 1677 H 166.851 -4.46627 2.06845 0
M  V30 1678 N 168.503 -0.877838 -1.30888 0
M  V30 1679 C 169.749 -0.493426 -1.96706 0
M  V30 1680 C 170.082 0.953504 -1.6918 0
M  V30 1681 O 169.357 1.67266 -0.992594 0
M  V30 1682 C 169.64 -0.760429 -3.51979 0
M  V30 1683 C 169.493 -2.25747 -3.89048 0
M  V30 1684 C 170.812 -0.232148 -4.39487 0
M  V30 1685 H 167.931 -0.180746 -0.714493 0
M  V30 1686 H 170.573 -1.10052 -1.54882 0
M  V30 1687 H 168.723 -0.243715 -3.87735 0
M  V30 1688 H 170.395 -2.84204 -3.63354 0
M  V30 1689 H 168.638 -2.72694 -3.37373 0
M  V30 1690 H 169.309 -2.39491 -4.97341 0
M  V30 1691 H 171.785 -0.674314 -4.106 0
M  V30 1692 H 170.661 -0.448355 -5.47066 0
M  V30 1693 H 170.922 0.866297 -4.33529 0
M  V30 1694 N 169.982 1.44106 -0.638065 0
M  V30 1695 C 171.398 1.56672 -0.304286 0
M  V30 1696 C 171.598 1.6244 1.19228 0
M  V30 1697 O 170.654 1.57121 1.9766 0
M  V30 1698 C 171.967 2.83503 -1.00231 0
M  V30 1699 C 173.515 2.97226 -0.981116 0
M  V30 1700 C 173.99 4.26868 -1.65974 0
M  V30 1701 N 175.481 4.33698 -1.62666 0
M  V30 1702 C 176.216 5.32745 -2.12063 0
M  V30 1703 N 175.712 6.38157 -2.6968 0
M  V30 1704 N 177.505 5.24299 -2.02651 0
M  V30 1705 H 169.656 1.38605 -1.60942 0
M  V30 1706 H 171.919 0.664661 -0.675965 0
M  V30 1707 H 171.625 2.85251 -2.0573 0
M  V30 1708 H 171.499 3.73251 -0.54439 0
M  V30 1709 H 173.886 2.95027 0.0654188 0
M  V30 1710 H 173.967 2.08808 -1.47759 0
M  V30 1711 H 173.611 4.29826 -2.70576 0
M  V30 1712 H 173.541 5.14156 -1.13804 0
M  V30 1713 H 176.032 3.58138 -1.20606 0
M  V30 1714 H 176.345 7.10029 -3.05087 0
M  V30 1715 H 174.69 6.38823 -2.73734 0
M  V30 1716 H 177.881 4.4086 -1.57353 0
M  V30 1717 H 178.054 6.01334 -2.41457 0
M  V30 1718 N 171.46 0.379036 1.52974 0
M  V30 1719 C 172.39 -0.452706 2.29069 0
M  V30 1720 C 173.371 -1.07237 1.32039 0
M  V30 1721 O 174.556 -1.08708 1.60923 0
M  V30 1722 C 171.686 -1.5856 3.08992 0
M  V30 1723 C 170.64 -1.0925 4.13822 0
M  V30 1724 C 169.966 -2.31668 4.81907 0
M  V30 1725 C 171.266 -0.167702 5.22031 0
M  V30 1726 H 172.96 0.182181 2.98845 0
M  V30 1727 H 170.506 0.0890592 1.43724 0
M  V30 1728 H 172.459 -2.1742 3.6098 0
M  V30 1729 H 171.183 -2.24792 2.36931 0
M  V30 1730 H 169.842 -0.526494 3.628 0
M  V30 1731 H 169.49 -2.96386 4.06404 0
M  V30 1732 H 169.19 -1.9934 5.52754 0
M  V30 1733 H 170.714 -2.91189 5.36695 0
M  V30 1734 H 172.128 -0.664186 5.6944 0
M  V30 1735 H 170.525 0.0653265 6.00064 0
M  V30 1736 H 171.595 0.786347 4.78482 0
M  V30 1737 N 172.938 -1.57226 0.108567 0
M  V30 1738 C 173.901 -2.13602 -0.831082 0
M  V30 1739 C 174.901 -1.06841 -1.20173 0
M  V30 1740 O 176.091 -1.32666 -1.12895 0
M  V30 1741 C 173.223 -2.66769 -2.12243 0
M  V30 1742 H 174.416 -2.97951 -0.341317 0
M  V30 1743 H 171.969 -1.55667 -0.14057 0
M  V30 1744 H 172.704 -1.85977 -2.65675 0
M  V30 1745 H 172.489 -3.44839 -1.86625 0
M  V30 1746 H 173.979 -3.10332 -2.79435 0
M  V30 1747 N 174.416 0.165178 -1.56732 0
M  V30 1748 C 175.379 1.18822 -1.95995 0
M  V30 1749 C 176.379 1.3685 -0.84431 0
M  V30 1750 O 177.569 1.34152 -1.11126 0
M  V30 1751 C 174.701 2.5521 -2.26011 0
M  V30 1752 H 175.894 0.851825 -2.87548 0
M  V30 1753 H 173.447 0.407857 -1.50885 0
M  V30 1754 H 174.182 2.93852 -1.37191 0
M  V30 1755 H 173.967 2.43489 -3.07336 0
M  V30 1756 H 175.457 3.28927 -2.57288 0
M  V30 1757 N 175.894 1.51508 0.433938 0
M  V30 1758 C 177.143 1.63578 1.18005 0
M  V30 1759 C 177.456 0.359514 1.92268 0
M  V30 1760 O 178.662 0.359632 2.69108 0
M  V30 1761 C 177.118 2.88901 2.14626 0
M  V30 1762 C 176.726 4.23544 1.45995 0
M  V30 1763 C 178.47 3.10328 2.89649 0
M  V30 1764 C 176.377 5.40014 2.4112 0
M  V30 1765 H 175.307 0.609277 0.444182 0
M  V30 1766 H 177.958 1.77978 0.446773 0
M  V30 1767 H 176.34 2.68142 2.91403 0
M  V30 1768 H 177.514 4.54696 0.747532 0
M  V30 1769 H 175.829 4.08021 0.831115 0
M  V30 1770 H 178.426 3.94518 3.60915 0
M  V30 1771 H 178.769 2.23544 3.51189 0
M  V30 1772 H 179.302 3.31443 2.19978 0
M  V30 1773 H 176.041 6.29068 1.84264 0
M  V30 1774 H 175.561 5.13233 3.10406 0
M  V30 1775 H 177.24 5.72099 3.02177 0
M  V30 1776 N 177.372 -0.689602 1.41712 0
M  V30 1777 C 178.788 -1.00093 1.24312 0
M  V30 1778 C 178.988 -2.01036 0.136729 0
M  V30 1779 O 178.044 -2.47562 -0.496918 0
M  V30 1780 C 179.357 -1.51985 2.59463 0
M  V30 1781 C 180.905 -1.63838 2.66695 0
M  V30 1782 C 181.38 -2.1913 4.02177 0
M  V30 1783 N 182.871 -2.26483 4.04054 0
M  V30 1784 C 183.606 -2.70306 5.0569 0
M  V30 1785 N 183.102 -3.13691 6.17713 0
M  V30 1786 N 184.895 -2.69923 4.9305 0
M  V30 1787 H 177.046 -0.0210029 2.1239 0
M  V30 1788 H 179.309 -0.0718733 0.945272 0
M  V30 1789 H 179.015 -0.85269 3.41207 0
M  V30 1790 H 178.889 -2.50103 2.82362 0
M  V30 1791 H 181.276 -2.29664 1.85306 0
M  V30 1792 H 181.357 -0.642492 2.476 0
M  V30 1793 H 181.001 -1.53918 4.84016 0
M  V30 1794 H 180.931 -3.19482 4.18615 0
M  V30 1795 H 183.422 -1.95874 3.23174 0
M  V30 1796 H 183.735 -3.45773 6.9113 0
M  V30 1797 H 182.08 -3.11585 6.21241 0
M  V30 1798 H 185.271 -2.35382 4.04614 0
M  V30 1799 H 185.444 -3.03758 5.72394 0
M  V30 1800 N 178.85 -1.27639 -0.924453 0
M  V30 1801 C 180.098 -1.13941 -1.66918 0
M  V30 1802 C 180.419 0.314589 -1.92446 0
M  V30 1803 O 179.689 1.21964 -1.53303 0
M  V30 1804 H 178.269 -0.418678 -0.618642 0
M  V30 1805 H 180.931 -1.60213 -1.10985 0
M  V30 1806 H 180.027 -1.67094 -2.63602 0
M  V30 1807 N 180.328 1.1314 -1.09713 0
M  V30 1808 C 181.276 2.20717 -0.733934 0
M  V30 1809 C 182.27 1.6729 0.266506 0
M  V30 1810 O 183.476 1.79547 0.127656 0
M  V30 1811 H 179.851 0.719292 -0.21937 0
M  V30 1812 H 181.822 2.48611 -1.6503 0
M  V30 1813 C 180.571 3.47265 -0.173849 0
M  V30 1814 H 179.894 3.88716 -0.934873 0
M  V30 1815 H 181.334 4.23979 0.0423126 0
M  V30 1816 C 179.793 3.18724 1.09164 0
M  V30 1817 O 180.323 3.37762 2.17439 0
M  V30 1818 N 178.529 2.72583 1.00732 0
M  V30 1819 H 178.076 2.57291 0.126121 0
M  V30 1820 H 178.034 2.53862 1.85476 0
M  V30 1821 N 181.806 0.884767 1.30421 0
M  V30 1822 C 182.769 0.356277 2.26414 0
M  V30 1823 C 183.769 -0.501124 1.52792 0
M  V30 1824 O 184.959 -0.30831 1.7145 0
M  V30 1825 C 182.091 -0.492316 3.37326 0
M  V30 1826 H 183.284 1.20389 2.74675 0
M  V30 1827 H 180.837 0.661607 1.41607 0
M  V30 1828 H 181.572 -1.36052 2.94381 0
M  V30 1829 H 181.357 0.121832 3.91911 0
M  V30 1830 H 182.847 -0.853871 4.08777 0
M  V30 1831 N 183.284 -1.43765 0.645699 0
M  V30 1832 C 184.247 -2.29163 -0.0409488 0
M  V30 1833 C 185.247 -1.41813 -0.757996 0
M  V30 1834 O 186.437 -1.63527 -0.600382 0
M  V30 1835 C 183.569 -3.23716 -1.06869 0
M  V30 1836 H 184.762 -2.91366 0.710345 0
M  V30 1837 H 182.315 -1.5092 0.406547 0
M  V30 1838 H 183.05 -2.66393 -1.84947 0
M  V30 1839 H 182.835 -3.88105 -0.558277 0
M  V30 1840 H 184.325 -3.87831 -1.54845 0
M  V30 1841 N 184.763 -0.387143 -1.52771 0
M  V30 1842 C 185.673 0.456442 -2.30117 0
M  V30 1843 C 186.689 1.07342 -1.36944 0
M  V30 1844 O 187.865 1.07971 -1.70013 0
M  V30 1845 C 184.93 1.56957 -3.09136 0
M  V30 1846 C 183.991 0.977916 -4.18014 0
M  V30 1847 C 183.224 2.038 -4.93256 0
M  V30 1848 O 183.447 3.25271 -4.68567 0
M  V30 1849 O 182.381 1.6565 -5.78657 0
M  V30 1850 H 186.207 -0.17359 -3.03203 0
M  V30 1851 H 183.792 -0.150919 -1.48636 0
M  V30 1852 H 185.674 2.21628 -3.58412 0
M  V30 1853 H 184.349 2.18461 -2.38865 0
M  V30 1854 H 183.256 0.294525 -3.72939 0
M  V30 1855 H 184.589 0.407128 -4.90513 0
M  V30 1856 N 186.241 1.57166 -0.116904 0
M  V30 1857 C 187.49 1.94298 0.541407 0
M  V30 1858 C 187.803 1.00236 1.67964 0
M  V30 1859 O 189.009 1.26826 2.40057 0
M  V30 1860 C 187.465 3.45306 1.01449 0
M  V30 1861 C 187.073 4.47899 -0.0951738 0
M  V30 1862 C 188.817 3.91361 1.6443 0
M  V30 1863 C 186.724 5.90083 0.394491 0
M  V30 1864 H 185.654 0.725308 0.206019 0
M  V30 1865 H 188.305 1.82446 -0.196419 0
M  V30 1866 H 186.687 3.52385 1.80667 0
M  V30 1867 H 187.861 4.52486 -0.871374 0
M  V30 1868 H 186.176 4.11583 -0.631505 0
M  V30 1869 H 188.773 4.95004 2.02176 0
M  V30 1870 H 189.116 3.3122 2.52189 0
M  V30 1871 H 189.649 3.87073 0.917559 0
M  V30 1872 H 186.388 6.53974 -0.447004 0
M  V30 1873 H 185.908 5.88921 1.13722 0
M  V30 1874 H 187.587 6.41307 0.856399 0
M  V30 1875 N 187.719 -0.156864 1.56817 0
M  V30 1876 C 188.682 -1.17781 1.96622 0
M  V30 1877 C 189.682 -1.36401 0.851555 0
M  V30 1878 O 190.872 -1.33561 1.11836 0
M  V30 1879 C 188.004 -2.54008 2.27361 0
M  V30 1880 H 189.197 -0.836564 2.87996 0
M  V30 1881 H 186.75 -0.39985 1.51099 0
M  V30 1882 H 187.485 -2.9312 1.38748 0
M  V30 1883 H 187.27 -2.41856 3.08623 0
M  V30 1884 H 188.76 -3.27558 2.59029 0
M  V30 1885 N 189.197 -1.51736 -0.425897 0
M  V30 1886 C 190.147 -1.70258 -1.51645 0
M  V30 1887 C 191.131 -0.556488 -1.5097 0
M  V30 1888 O 192.323 -0.812879 -1.5723 0
M  V30 1889 C 189.452 -1.84143 -2.89735 0
M  V30 1890 C 188.538 -3.04572 -2.95122 0
M  V30 1891 N 188.929 -4.2756 -2.70233 0
M  V30 1892 C 187.227 -3.04061 -3.26286 0
M  V30 1893 C 187.928 -5.08908 -2.81757 0
M  V30 1894 N 186.904 -4.43797 -3.13919 0
M  V30 1895 H 190.706 -2.63004 -1.31172 0
M  V30 1896 H 188.22 -1.4954 -0.633375 0
M  V30 1897 H 190.217 -1.95525 -3.68206 0
M  V30 1898 H 188.877 -0.925857 -3.1122 0
M  V30 1899 H 189.888 -4.56315 -2.44943 0
M  V30 1900 H 186.565 -2.22179 -3.53473 0
M  V30 1901 H 187.955 -6.16843 -2.66372 0
M  V30 1902 N 190.675 0.682077 -1.42076 0
M  V30 1903 C 191.903 1.47057 -1.4554 0
M  V30 1904 C 192.318 1.8869 -0.0645779 0
M  V30 1905 O 191.675 1.57666 0.919115 0
M  V30 1906 C 191.726 2.72442 -2.37609 0
M  V30 1907 O 191.447 2.32559 -3.71279 0
M  V30 1908 C 192.948 3.66069 -2.50017 0
M  V30 1909 H 190.168 0.452737 -0.495248 0
M  V30 1910 H 192.712 0.838695 -1.8651 0
M  V30 1911 H 190.867 3.31835 -1.9991 0
M  V30 1912 H 191.281 3.13475 -4.20516 0
M  V30 1913 H 192.755 4.50792 -3.18576 0
M  V30 1914 H 193.232 4.11476 -1.53572 0
M  V30 1915 H 193.838 3.12572 -2.88407 0
M  V30 1916 N 192.153 1.28127 0.917671 0
M  V30 1917 C 193.399 1.15223 1.66888 0
M  V30 1918 C 193.732 -0.299293 1.9188 0
M  V30 1919 O 193.007 -1.21805 1.51637 0
M  V30 1920 C 193.29 1.94706 3.02922 0
M  V30 1921 C 193.143 3.47898 2.85109 0
M  V30 1922 C 194.462 1.75939 4.03402 0
M  V30 1923 H 191.581 0.419946 0.605652 0
M  V30 1924 H 194.223 1.57398 1.06423 0
M  V30 1925 H 192.373 1.58864 3.54534 0
M  V30 1926 H 194.045 3.93624 2.40537 0
M  V30 1927 H 192.288 3.7373 2.20246 0
M  V30 1928 H 192.959 3.98765 3.81694 0
M  V30 1929 H 195.435 2.07209 3.60837 0
M  V30 1930 H 194.311 2.33931 4.96556 0
M  V30 1931 H 194.572 0.709877 4.36364 0
M  V30 1932 N 193.631 -1.12557 1.10312 0
M  V30 1933 C 194.879 -1.83675 0.843091 0
M  V30 1934 C 195.2 -1.84435 -0.633131 0
M  V30 1935 O 194.47 -1.30657 -1.45964 0
M  V30 1936 H 193.05 -0.680138 0.308904 0
M  V30 1937 H 195.712 -1.36301 1.39313 0
M  V30 1938 H 194.808 -2.87908 1.2048 0
M  V30 1939 N 195.109 -0.891671 -1.2995 0
M  V30 1940 C 196.355 -0.514261 -1.96171 0
M  V30 1941 C 196.688 0.935506 -1.70182 0
M  V30 1942 O 195.963 1.66204 -1.01028 0
M  V30 1943 C 196.246 -0.797719 -3.51153 0
M  V30 1944 C 196.099 -2.2986 -3.86632 0
M  V30 1945 C 197.418 -0.278749 -4.39216 0
M  V30 1946 H 194.537 -0.188314 -0.712535 0
M  V30 1947 H 197.179 -1.11689 -1.53706 0
M  V30 1948 H 195.329 -0.284826 -3.87455 0
M  V30 1949 H 197.001 -2.88042 -3.60319 0
M  V30 1950 H 195.244 -2.76257 -3.34462 0
M  V30 1951 H 195.915 -2.44753 -4.94773 0
M  V30 1952 H 198.391 -0.717825 -4.09862 0
M  V30 1953 H 197.267 -0.506353 -5.46559 0
M  V30 1954 H 197.528 0.820266 -4.34424 0
M  V30 1955 N 196.587 1.43421 -0.653314 0
M  V30 1956 C 197.815 2.06163 -0.174491 0
M  V30 1957 C 198.23 1.48969 1.1599 0
M  V30 1958 O 197.587 0.621042 1.71608 0
M  V30 1959 C 197.638 3.61417 -0.0774865 0
M  V30 1960 O 197.359 4.16485 -1.35912 0
M  V30 1961 C 198.86 4.41235 0.427402 0
M  V30 1962 H 196.08 0.664946 -0.0899353 0
M  V30 1963 H 198.624 1.83924 -0.893988 0
M  V30 1964 H 196.779 3.82841 0.59257 0
M  V30 1965 H 197.193 5.10153 -1.21839 0
M  V30 1966 H 198.667 5.5021 0.44423 0
M  V30 1967 H 199.144 4.14268 1.45873 0
M  V30 1968 H 199.75 4.2478 -0.210167 0
M  V30 1969 N 198.065 0.39524 1.52563 0
M  V30 1970 C 199.342 -0.242908 1.94086 0
M  V30 1971 C 199.722 -1.63841 1.33114 0
M  V30 1972 O 199.07 -2.22928 0.501529 0
M  V30 1973 C 199.28 -0.26327 3.48006 0
M  V30 1974 C 200.628 -0.489354 4.21771 0
M  V30 1975 O 201.652 -0.343226 3.54543 0
M  V30 1976 O 200.511 -0.776169 5.4096 0
M  V30 1977 H 197.605 -0.152536 0.812811 0
M  V30 1978 H 200.151 0.450178 1.6362 0
M  V30 1979 H 198.923 0.713985 3.84731 0
M  V30 1980 H 198.546 -1.00103 3.84792 0
M  V30 1981 N 199.544 -1.57102 0.125237 0
M  V30 1982 C 200.79 -1.96488 -0.525753 0
M  V30 1983 C 201.145 -1.00786 -1.6389 0
M  V30 1984 O 200.438 -0.038979 -1.9156 0
M  V30 1985 C 200.632 -3.40096 -1.09862 0
M  V30 1986 C 200.461 -4.4968 -0.0425004 0
M  V30 1987 C 199.231 -5.03781 0.391463 0
M  V30 1988 C 201.429 -5.08936 0.740829 0
M  V30 1989 N 199.411 -5.96948 1.4327 0
M  V30 1990 C 200.782 -5.98105 1.6331 0
M  V30 1991 C 202.837 -4.91576 0.791029 0
M  V30 1992 C 201.54 -6.71774 2.57122 0
M  V30 1993 C 203.566 -5.6593 1.71688 0
M  V30 1994 C 202.928 -6.5479 2.59672 0
M  V30 1995 H 199.027 -0.765072 -0.161831 0
M  V30 1996 H 201.611 -1.93511 0.214801 0
M  V30 1997 H 199.782 -3.43707 -1.80887 0
M  V30 1998 H 201.514 -3.66591 -1.71444 0
M  V30 1999 H 198.269 -4.736 -0.00213584 0
M  V30 2000 H 198.693 -6.48236 1.95243 0
M  V30 2001 H 203.335 -4.22615 0.124915 0
M  V30 2002 H 201.053 -7.39977 3.24744 0
M  V30 2003 H 204.639 -5.54501 1.76125 0
M  V30 2004 H 203.519 -7.11316 3.30149 0
M  V30 2005 N 201.022 0.148545 -1.56898 0
M  V30 2006 C 201.952 1.18524 -2.01182 0
M  V30 2007 C 202.933 1.4489 -0.891123 0
M  V30 2008 O 204.118 1.55836 -1.15882 0
M  V30 2009 C 201.248 2.51879 -2.39112 0
M  V30 2010 C 200.202 2.40038 -3.54353 0
M  V30 2011 C 199.528 3.78089 -3.78091 0
M  V30 2012 C 200.828 1.88577 -4.87069 0
M  V30 2013 H 202.522 0.817029 -2.88036 0
M  V30 2014 H 200.068 0.391575 -1.38574 0
M  V30 2015 H 202.021 3.24627 -2.68692 0
M  V30 2016 H 200.745 2.90532 -1.49193 0
M  V30 2017 H 199.404 1.69742 -3.24936 0
M  V30 2018 H 199.052 4.14175 -2.85426 0
M  V30 2019 H 198.752 3.71028 -4.55645 0
M  V30 2020 H 200.276 4.52387 -4.10095 0
M  V30 2021 H 201.69 2.51117 -5.15377 0
M  V30 2022 H 200.087 1.9241 -5.68417 0
M  V30 2023 H 201.157 0.84136 -4.77545 0
M  V30 2024 N 202.5 1.5196 0.417844 0
M  V30 2025 C 203.749 1.6482 1.16264 0
M  V30 2026 C 204.062 0.379886 1.91876 0
M  V30 2027 O 205.268 0.388154 2.68711 0
M  V30 2028 C 203.724 2.91161 2.1155 0
M  V30 2029 C 203.332 4.25068 1.41495 0
M  V30 2030 C 205.076 3.13383 2.86341 0
M  V30 2031 C 202.983 5.42541 2.35379 0
M  V30 2032 H 201.913 0.613954 0.437694 0
M  V30 2033 H 204.564 1.78442 0.427871 0
M  V30 2034 H 202.946 2.71218 2.88543 0
M  V30 2035 H 204.12 4.55463 0.699263 0
M  V30 2036 H 202.435 4.0888 0.787792 0
M  V30 2037 H 205.032 3.98324 3.5671 0
M  V30 2038 H 205.375 2.27256 3.48798 0
M  V30 2039 H 205.908 3.33757 2.1645 0
M  V30 2040 H 202.647 6.30987 1.77582 0
M  V30 2041 H 202.167 5.16497 3.04945 0
M  V30 2042 H 203.846 5.75272 2.96093 0
M  V30 2043 N 203.978 -0.674533 1.42435 0
M  V30 2044 C 204.925 -1.78807 1.45934 0
M  V30 2045 C 205.895 -1.63157 0.311271 0
M  V30 2046 O 207.08 -1.83707 0.515383 0
M  V30 2047 C 204.22 -3.16839 1.36773 0
M  V30 2048 C 203.333 -3.43774 2.61617 0
M  V30 2049 C 202.468 -4.71536 2.44597 0
M  V30 2050 C 201.507 -4.91505 3.64814 0
M  V30 2051 N 200.644 -6.10508 3.46734 0
M  V30 2052 H 205.484 -1.75151 2.41093 0
M  V30 2053 H 203.021 -0.85504 1.19697 0
M  V30 2054 H 204.979 -3.96606 1.29459 0
M  V30 2055 H 203.609 -3.19619 0.452089 0
M  V30 2056 H 202.661 -2.58259 2.79297 0
M  V30 2057 H 203.973 -3.54423 3.50978 0
M  V30 2058 H 203.127 -5.59393 2.3487 0
M  V30 2059 H 201.866 -4.6317 1.52726 0
M  V30 2060 H 200.871 -4.0209 3.74972 0
M  V30 2061 H 202.096 -5.01716 4.57665 0
M  V30 2062 H 200.042 -6.03315 2.5758 0
M  V30 2063 H 199.959 -6.2202 4.29682 0
M  V30 2064 H 201.227 -7.01044 3.40819 0
M  V30 2065 N 205.456 -1.28612 -0.910864 0
M  V30 2066 C 206.704 -1.15705 -1.65701 0
M  V30 2067 C 207.025 0.29416 -1.92769 0
M  V30 2068 O 206.295 1.20331 -1.54588 0
M  V30 2069 H 204.875 -0.425216 -0.614167 0
M  V30 2070 H 207.537 -1.61381 -1.0928 0
M  V30 2071 H 206.633 -1.6988 -2.61815 0
M  V30 2072 N 206.934 1.1197 -1.10907 0
M  V30 2073 C 208.18 1.8386 -0.855773 0
M  V30 2074 C 208.513 1.84134 0.617103 0
M  V30 2075 O 207.788 1.29041 1.45529 0
M  V30 2076 C 208.071 3.31305 -1.411 0
M  V30 2077 C 207.924 3.39456 -2.9511 0
M  V30 2078 C 209.243 4.2721 -1.05736 0
M  V30 2079 H 206.362 0.667545 -0.312334 0
M  V30 2080 H 209.004 1.31331 -1.37303 0
M  V30 2081 H 207.154 3.76169 -0.97105 0
M  V30 2082 H 208.826 3.03191 -3.47668 0
M  V30 2083 H 207.069 2.79849 -3.31462 0
M  V30 2084 H 207.74 4.43209 -3.29044 0
M  V30 2085 H 210.216 3.90497 -1.43706 0
M  V30 2086 H 209.092 5.28775 -1.47269 0
M  V30 2087 H 209.353 4.42088 0.0325958 0
M  V30 2088 N 208.412 0.89855 1.29475 0
M  V30 2089 C 209.689 0.443416 1.90508 0
M  V30 2090 C 210.069 -1.07685 1.81569 0
M  V30 2091 O 209.417 -1.9182 1.24166 0
M  V30 2092 C 209.627 0.956708 3.35631 0
M  V30 2093 C 210.975 0.999728 4.12663 0
M  V30 2094 O 211.999 0.904299 3.4453 0
M  V30 2095 O 210.858 1.14289 5.34416 0
M  V30 2096 H 207.952 0.138025 0.815401 0
M  V30 2097 H 210.498 0.98834 1.37949 0
M  V30 2098 H 209.27 2.00067 3.36287 0
M  V30 2099 H 208.893 0.391728 3.95666 0
M  V30 2100 N 209.89 -1.43072 0.660911 0
M  V30 2101 C 210.853 -2.29194 -0.0166406 0
M  V30 2102 C 211.853 -1.42609 -0.742912 0
M  V30 2103 O 213.043 -1.64155 -0.583004 0
M  V30 2104 C 210.175 -3.24831 -1.0343 0
M  V30 2105 H 211.368 -2.90596 0.741208 0
M  V30 2106 H 208.921 -1.5048 0.422532 0
M  V30 2107 H 209.656 -2.68339 -1.82111 0
M  V30 2108 H 209.441 -3.88676 -0.517082 0
M  V30 2109 H 210.931 -3.89451 -1.50723 0
M  V30 2110 N 211.368 -0.403325 -1.52352 0
M  V30 2111 C 212.616 0.174003 -2.0135 0
M  V30 2112 C 212.937 1.46139 -1.29106 0
M  V30 2113 O 212.207 1.91448 -0.415253 0
M  V30 2114 H 210.787 0.0672911 -0.743963 0
M  V30 2115 H 213.449 -0.538235 -1.87321 0
M  V30 2116 H 212.545 0.374254 -3.09848 0
M  V30 2117 N 212.846 1.57033 -0.133567 0
M  V30 2118 C 213.756 2.19632 0.824564 0
M  V30 2119 C 214.772 1.17666 1.28182 0
M  V30 2120 O 215.948 1.50193 1.3418 0
M  V30 2121 C 213.013 2.79499 2.05137 0
M  V30 2122 C 212.074 3.96548 1.64464 0
M  V30 2123 C 211.307 4.5355 2.81297 0
M  V30 2124 O 211.53 4.09438 3.97136 0
M  V30 2125 O 210.464 5.44018 2.57542 0
M  V30 2126 H 214.29 3.01991 0.321766 0
M  V30 2127 H 211.875 1.49112 0.0927889 0
M  V30 2128 H 213.757 3.17602 2.7696 0
M  V30 2129 H 212.432 2.00162 2.54395 0
M  V30 2130 H 211.339 3.63186 0.897048 0
M  V30 2131 H 212.672 4.77364 1.19934 0
M  V30 2132 N 214.325 -0.140222 1.56975 0
M  V30 2133 C 215.573 -0.850005 1.83356 0
M  V30 2134 C 215.894 -1.81399 0.71551 0
M  V30 2135 O 215.164 -1.94136 -0.262294 0
M  V30 2136 H 213.744 -0.316886 0.676456 0
M  V30 2137 H 216.406 -0.132608 1.94448 0
M  V30 2138 H 215.502 -1.40814 2.78528 0
M  V30 2139 N 215.803 -1.52179 -0.40978 0
M  V30 2140 C 217.051 -1.65878 -1.15451 0
M  V30 2141 C 217.372 -0.390771 -1.91044 0
M  V30 2142 O 216.642 0.594323 -1.86667 0
M  V30 2143 H 215.222 -0.611405 -0.429177 0
M  V30 2144 H 217.884 -1.89219 -0.467134 0
M  V30 2145 H 216.98 -2.49954 -1.86894 0
M  V30 2146 N 217.281 0.66697 -1.42791 0
M  V30 2147 C 218.529 1.42417 -1.43394 0
M  V30 2148 C 218.85 1.94925 -0.0542373 0
M  V30 2149 O 218.12 1.73564 0.908415 0
M  V30 2150 H 216.7 0.528515 -0.527902 0
M  V30 2151 H 219.362 0.787562 -1.78279 0
M  V30 2152 H 218.458 2.27333 -2.13837 0
M  V30 2153 N 218.759 1.29093 0.90403 0
M  V30 2154 C 220.036 1.075 1.63411 0
M  V30 2155 C 220.416 -0.382346 2.07609 0
M  V30 2156 O 219.764 -1.37031 1.82851 0
M  V30 2157 C 219.974 2.05858 2.81822 0
M  V30 2158 C 221.322 2.36539 3.52611 0
M  V30 2159 O 222.346 2.04019 2.91984 0
M  V30 2160 O 221.205 2.92085 4.61897 0
M  V30 2161 H 218.299 0.411547 0.717327 0
M  V30 2162 H 220.845 1.40449 0.952479 0
M  V30 2163 H 219.617 3.04037 2.46327 0
M  V30 2164 H 219.24 1.73613 3.57693 0
M  V30 2165 N 220.237 -1.11381 1.11499 0
M  V30 2166 C 221.486 -1.82494 0.858993 0
M  V30 2167 C 221.799 -1.85605 -0.617278 0
M  V30 2168 O 223.005 -2.52824 -0.989552 0
M  V30 2169 C 221.461 -3.27745 1.48699 0
M  V30 2170 C 221.069 -3.32961 2.99735 0
M  V30 2171 C 222.813 -4.03754 1.31085 0
M  V30 2172 C 220.72 -4.72612 3.55516 0
M  V30 2173 H 219.65 -0.683802 0.317696 0
M  V30 2174 H 222.301 -1.25331 1.34031 0
M  V30 2175 H 220.683 -3.84844 0.933339 0
M  V30 2176 H 221.857 -2.85741 3.61509 0
M  V30 2177 H 220.172 -2.70433 3.16631 0
M  V30 2178 H 222.769 -5.06891 1.70192 0
M  V30 2179 H 223.112 -4.15527 0.253496 0
M  V30 2180 H 223.645 -3.53043 1.83318 0
M  V30 2181 H 220.384 -4.66036 4.60967 0
M  V30 2182 H 219.904 -5.2024 2.98513 0
M  V30 2183 H 221.583 -5.4157 3.53992 0
M  V30 2184 N 221.715 -0.905404 -1.28997 0
M  V30 2185 C 222.964 -0.530191 -1.94607 0
M  V30 2186 C 223.277 0.929185 -1.72121 0
M  V30 2187 O 224.483 1.41218 -2.31883 0
M  V30 2188 C 222.939 -0.897333 -3.48534 0
M  V30 2189 C 222.547 -2.37587 -3.79811 0
M  V30 2190 C 224.291 -0.592304 -4.20347 0
M  V30 2191 C 222.198 -2.68357 -5.27009 0
M  V30 2192 H 221.128 -0.194558 -0.728466 0
M  V30 2193 H 223.779 -1.10318 -1.46636 0
M  V30 2194 H 222.161 -0.253214 -3.9519 0
M  V30 2195 H 223.335 -3.06602 -3.43994 0
M  V30 2196 H 221.65 -2.6505 -3.2115 0
M  V30 2197 H 224.247 -0.798975 -5.28697 0
M  V30 2198 H 224.59 0.469474 -4.13644 0
M  V30 2199 H 225.123 -1.19452 -3.79442 0
M  V30 2200 H 221.862 -3.73355 -5.38782 0
M  V30 2201 H 221.382 -2.03971 -5.64053 0
M  V30 2202 H 223.061 -2.54922 -5.94663 0
M  V30 2203 N 223.193 1.4272 -0.668489 0
M  V30 2204 C 224.609 1.55992 -0.33745 0
M  V30 2205 C 224.809 1.64933 1.15756 0
M  V30 2206 O 223.865 1.61278 1.94282 0
M  V30 2207 C 225.178 2.81314 -1.06222 0
M  V30 2208 C 226.726 2.95078 -1.04394 0
M  V30 2209 C 227.201 4.23252 -1.74991 0
M  V30 2210 N 228.692 4.3015 -1.71829 0
M  V30 2211 C 229.427 5.28127 -2.23315 0
M  V30 2212 N 228.923 6.32293 -2.83156 0
M  V30 2213 N 230.716 5.19882 -2.13726 0
M  V30 2214 H 222.867 1.3516 -1.63846 0
M  V30 2215 H 225.13 0.650174 -0.689912 0
M  V30 2216 H 224.836 2.80823 -2.11734 0
M  V30 2217 H 224.71 3.72012 -0.62344 0
M  V30 2218 H 227.097 2.951 0.0028244 0
M  V30 2219 H 227.178 2.05627 -1.52155 0
M  V30 2220 H 226.822 4.2399 -2.79633 0
M  V30 2221 H 226.752 5.11626 -1.24685 0
M  V30 2222 H 229.243 3.55499 -1.28175 0
M  V30 2223 H 229.556 7.03398 -3.20079 0
M  V30 2224 H 227.901 6.32873 -2.87223 0
M  V30 2225 H 231.092 4.37423 -1.66669 0
M  V30 2226 H 231.265 5.96077 -2.54158 0
M  V30 2227 N 224.671 0.411399 1.52136 0
M  V30 2228 C 225.601 -0.404015 2.29978 0
M  V30 2229 C 226.582 -1.04412 1.34284 0
M  V30 2230 O 227.767 -1.0527 1.63192 0
M  V30 2231 C 224.897 -1.5197 3.12286 0
M  V30 2232 C 223.851 -1.00448 4.16046 0
M  V30 2233 C 223.177 -2.21393 4.86712 0
M  V30 2234 C 224.477 -0.0569336 5.22269 0
M  V30 2235 H 226.171 0.245529 2.98392 0
M  V30 2236 H 223.717 0.119525 1.43503 0
M  V30 2237 H 225.67 -2.09715 3.6551 0
M  V30 2238 H 224.394 -2.19716 2.41646 0
M  V30 2239 H 223.053 -0.449421 3.63835 0
M  V30 2240 H 222.701 -2.87699 4.12599 0
M  V30 2241 H 222.401 -1.87571 5.56858 0
M  V30 2242 H 223.925 -2.7974 5.4275 0
M  V30 2243 H 225.339 -0.54325 5.7072 0
M  V30 2244 H 223.736 0.192594 5.99791 0
M  V30 2245 H 224.806 0.887663 4.76706 0
M  V30 2246 N 226.149 -1.5696 0.141893 0
M  V30 2247 C 227.112 -2.15316 -0.785587 0
M  V30 2248 C 228.112 -1.09366 -1.1788 0
M  V30 2249 O 229.302 -1.35031 -1.10056 0
M  V30 2250 C 226.434 -2.71211 -2.06537 0
M  V30 2251 H 227.627 -2.98608 -0.278041 0
M  V30 2252 H 225.18 -1.5593 -0.107519 0
M  V30 2253 H 225.915 -1.91571 -2.6167 0
M  V30 2254 H 225.7 -3.4872 -1.79268 0
M  V30 2255 H 227.19 -3.16189 -2.72789 0
M  V30 2256 N 227.627 0.131896 -1.57047 0
M  V30 2257 C 228.559 1.1878 -1.9602 0
M  V30 2258 C 229.572 1.38363 -0.857875 0
M  V30 2259 O 230.761 1.37666 -1.13623 0
M  V30 2260 C 227.861 2.55008 -2.23213 0
M  V30 2261 C 227.034 2.56201 -3.54513 0
M  V30 2262 C 226.093 3.7408 -3.70069 0
M  V30 2263 O 225.119 3.58258 -4.42312 0
M  V30 2264 N 226.321 4.92137 -3.07866 0
M  V30 2265 H 229.086 0.85639 -2.87204 0
M  V30 2266 H 226.647 0.321309 -1.5868 0
M  V30 2267 H 228.639 3.32404 -2.30846 0
M  V30 2268 H 227.209 2.80382 -1.3822 0
M  V30 2269 H 226.429 1.64613 -3.58185 0
M  V30 2270 H 227.717 2.54043 -4.4084 0
M  V30 2271 H 227.115 5.07895 -2.49116 0
M  V30 2272 H 225.672 5.67254 -3.21039 0
M  V30 2273 N 229.106 1.52395 0.401703 0
M  V30 2274 C 230.038 1.72505 1.50912 0
M  V30 2275 C 231.051 0.605468 1.51122 0
M  V30 2276 O 232.24 0.880828 1.55254 0
M  V30 2277 C 229.34 1.75711 2.89791 0
M  V30 2278 C 228.513 3.04824 3.1369 0
M  V30 2279 C 227.572 2.99743 4.32482 0
M  V30 2280 O 226.598 3.73635 4.29402 0
M  V30 2281 N 227.8 2.18047 5.37992 0
M  V30 2282 H 230.565 2.68049 1.34052 0
M  V30 2283 H 228.126 1.50724 0.591084 0
M  V30 2284 H 230.118 1.69834 3.6734 0
M  V30 2285 H 228.688 0.876092 3.00072 0
M  V30 2286 H 227.908 3.2429 2.24119 0
M  V30 2287 H 229.196 3.90221 3.26504 0
M  V30 2288 H 228.594 1.57456 5.43345 0
M  V30 2289 H 227.151 2.18021 6.14256 0
M  V30 2290 N 230.584 -0.659388 1.43143 0
M  V30 2291 C 231.547 -1.75432 1.47501 0
M  V30 2292 C 232.547 -1.56707 0.360512 0
M  V30 2293 O 233.737 -1.62717 0.622002 0
M  V30 2294 C 230.869 -3.14239 1.32162 0
M  V30 2295 H 232.062 -1.7295 2.45006 0
M  V30 2296 H 229.615 -0.870469 1.29817 0
M  V30 2297 H 230.35 -3.22336 0.356401 0
M  V30 2298 H 230.135 -3.29235 2.12948 0
M  V30 2299 H 231.625 -3.94094 1.3813 0
M  V30 2300 N 232.062 -1.29571 -0.897171 0
M  V30 2301 C 233.025 -1.14913 -1.98312 0
M  V30 2302 C 234.025 -0.0838629 -1.60581 0
M  V30 2303 O 235.215 -0.331006 -1.71026 0
M  V30 2304 C 232.347 -0.757835 -3.3237 0
M  V30 2305 H 233.54 -2.11377 -2.12743 0
M  V30 2306 H 231.093 -1.12793 -1.08201 0
M  V30 2307 H 231.828 0.206837 -3.2364 0
M  V30 2308 H 231.613 -1.52755 -3.61121 0
M  V30 2309 H 233.103 -0.678408 -4.12053 0
M  V30 2310 N 233.54 1.10788 -1.12088 0
M  V30 2311 C 234.472 2.16816 -0.743213 0
M  V30 2312 C 235.485 1.6119 0.228412 0
M  V30 2313 O 236.674 1.78497 0.0102931 0
M  V30 2314 C 233.774 3.38809 -0.0787313 0
M  V30 2315 C 232.947 4.23885 -1.0789 0
M  V30 2316 C 232.006 5.24334 -0.442713 0
M  V30 2317 O 231.032 5.58497 -1.09864 0
M  V30 2318 N 232.234 5.75079 0.791457 0
M  V30 2319 H 234.999 2.49825 -1.65552 0
M  V30 2320 H 232.56 1.26373 -1.012 0
M  V30 2321 H 234.552 4.03107 0.358766 0
M  V30 2322 H 233.122 3.03805 0.736275 0
M  V30 2323 H 232.342 3.55939 -1.69414 0
M  V30 2324 H 233.63 4.77562 -1.75533 0
M  V30 2325 H 233.028 5.49517 1.3434 0
M  V30 2326 H 231.585 6.4118 1.17183 0
M  V30 2327 N 235.018 0.912232 1.28515 0
M  V30 2328 C 235.965 0.397954 2.27343 0
M  V30 2329 C 236.935 -0.526766 1.57526 0
M  V30 2330 O 238.12 -0.449292 1.85435 0
M  V30 2331 C 235.26 -0.357263 3.43246 0
M  V30 2332 C 234.373 0.599788 4.27816 0
M  V30 2333 C 233.508 -0.173725 5.30916 0
M  V30 2334 C 232.547 0.777039 6.07148 0
M  V30 2335 N 231.684 0.0371398 7.0209 0
M  V30 2336 H 236.524 1.24577 2.70711 0
M  V30 2337 H 234.061 0.625612 1.33133 0
M  V30 2338 H 236.019 -0.8113 4.09236 0
M  V30 2339 H 234.649 -1.16943 3.00872 0
M  V30 2340 H 233.701 1.17235 3.61884 0
M  V30 2341 H 235.013 1.32704 4.80823 0
M  V30 2342 H 234.167 -0.688394 6.02782 0
M  V30 2343 H 232.906 -0.934041 4.78672 0
M  V30 2344 H 231.911 1.3031 5.34134 0
M  V30 2345 H 233.136 1.53689 6.61481 0
M  V30 2346 H 231.082 -0.705213 6.52198 0
M  V30 2347 H 230.999 0.704249 7.52713 0
M  V30 2348 H 232.267 -0.457383 7.78157 0
M  V30 2349 N 236.496 -1.42363 0.676048 0
M  V30 2350 C 237.426 -2.33497 0.0124832 0
M  V30 2351 C 238.407 -1.50748 -0.787981 0
M  V30 2352 O 239.592 -1.79346 -0.744884 0
M  V30 2353 C 236.722 -3.34377 -0.938582 0
M  V30 2354 C 235.676 -4.27289 -0.246622 0
M  V30 2355 C 235.002 -5.18386 -1.31071 0
M  V30 2356 C 236.302 -5.14916 0.875125 0
M  V30 2357 H 237.996 -2.89233 0.773593 0
M  V30 2358 H 235.542 -1.39073 0.37346 0
M  V30 2359 H 237.495 -3.97044 -1.41188 0
M  V30 2360 H 236.219 -2.76947 -1.73113 0
M  V30 2361 H 234.878 -3.66018 0.206456 0
M  V30 2362 H 234.526 -4.57282 -2.09528 0
M  V30 2363 H 234.226 -5.81378 -0.852839 0
M  V30 2364 H 235.75 -5.83929 -1.78492 0
M  V30 2365 H 237.164 -5.71262 0.482983 0
M  V30 2366 H 235.561 -5.86747 1.25887 0
M  V30 2367 H 236.631 -4.53242 1.72335 0
M  V30 2368 N 237.974 -0.419461 -1.51915 0
M  V30 2369 C 238.922 0.415502 -2.28859 0
M  V30 2370 C 239.916 1.03674 -1.3397 0
M  V30 2371 O 241.122 0.973757 -1.51387 0
M  V30 2372 H 237.497 0.152786 -0.736315 0
M  V30 2373 H 239.468 -0.254531 -2.97312 0
M  V30 2374 C 238.217 1.51425 -3.12995 0
M  V30 2375 H 237.54 1.04556 -3.85886 0
M  V30 2376 H 238.98 2.07208 -3.6992 0
M  V30 2377 C 237.439 2.48745 -2.27217 0
M  V30 2378 O 237.969 3.52871 -1.9195 0
M  V30 2379 N 236.175 2.19202 -1.90785 0
M  V30 2380 H 235.722 1.34556 -2.19664 0
M  V30 2381 H 235.68 2.84561 -1.33687 0
M  V30 2382 N 239.452 1.56882 -0.150215 0
M  V30 2383 C 240.68 2.00593 0.506948 0
M  V30 2384 C 241.095 1.03033 1.58208 0
M  V30 2385 O 240.452 0.0278396 1.82479 0
M  V30 2386 C 240.503 3.44209 1.10465 0
M  V30 2387 O 240.224 4.3804 0.0724636 0
M  V30 2388 C 241.725 4.03214 1.84211 0
M  V30 2389 H 238.945 0.65795 0.13169 0
M  V30 2390 H 241.489 2.03018 -0.245743 0
M  V30 2391 H 239.644 3.42625 1.80795 0
M  V30 2392 H 240.058 5.22007 0.510793 0
M  V30 2393 H 241.532 5.0569 2.21318 0
M  V30 2394 H 242.009 3.44107 2.72923 0
M  V30 2395 H 242.615 4.08437 1.18572 0
M  V30 2396 N 240.93 -0.123565 1.57115 0
M  V30 2397 C 242.176 -0.833386 1.84885 0
M  V30 2398 C 242.509 -1.79742 0.735292 0
M  V30 2399 O 241.784 -1.92764 -0.25925 0
M  V30 2400 C 242.067 -1.5873 3.23228 0
M  V30 2401 C 241.92 -0.643183 4.45178 0
M  V30 2402 C 243.239 -2.54453 3.59085 0
M  V30 2403 H 240.358 -0.301518 0.6725 0
M  V30 2404 H 243 -0.097778 1.89748 0
M  V30 2405 H 241.15 -2.21438 3.19214 0
M  V30 2406 H 242.822 -0.0253015 4.61293 0
M  V30 2407 H 241.065 0.0456139 4.33776 0
M  V30 2408 H 241.736 -1.20724 5.38637 0
M  V30 2409 H 244.212 -2.01853 3.63861 0
M  V30 2410 H 243.088 -3.04238 4.5687 0
M  V30 2411 H 243.349 -3.36906 2.86264 0
M  V30 2412 N 242.408 -1.52605 -0.393616 0
M  V30 2413 C 243.657 -1.66649 -1.13627 0
M  V30 2414 C 243.97 -0.410364 -1.91247 0
M  V30 2415 O 245.176 -0.430854 -2.68059 0
M  V30 2416 C 243.632 -2.9449 -2.06891 0
M  V30 2417 C 243.24 -4.27266 -1.34714 0
M  V30 2418 C 244.984 -3.17899 -2.81319 0
M  V30 2419 C 242.891 -5.46217 -2.26717 0
M  V30 2420 H 241.821 -0.62084 -0.427871 0
M  V30 2421 H 244.472 -1.791 -0.399428 0
M  V30 2422 H 242.854 -2.75774 -2.84191 0
M  V30 2423 H 244.028 -4.56518 -0.626714 0
M  V30 2424 H 242.343 -4.10081 -0.722643 0
M  V30 2425 H 244.94 -4.03949 -3.50328 0
M  V30 2426 H 245.283 -2.32777 -3.45139 0
M  V30 2427 H 245.816 -3.37159 -2.11113 0
M  V30 2428 H 242.555 -6.33733 -1.67521 0
M  V30 2429 H 242.075 -5.21283 -2.96689 0
M  V30 2430 H 243.754 -5.7991 -2.86903 0
M  V30 2431 N 243.887 0.651787 -1.4349 0
M  V30 2432 C 244.85 1.74647 -1.48429 0
M  V30 2433 C 245.85 1.56513 -0.368817 0
M  V30 2434 O 247.04 1.62385 -0.630623 0
M  V30 2435 C 244.172 3.13533 -1.33827 0
M  V30 2436 H 245.365 1.71649 -2.4592 0
M  V30 2437 H 242.918 0.863573 -1.30277 0
M  V30 2438 H 243.653 3.22142 -0.37349 0
M  V30 2439 H 243.438 3.28101 -2.14691 0
M  V30 2440 H 244.928 3.93356 -1.40218 0
M  V30 2441 N 245.365 1.30045 0.890287 0
M  V30 2442 C 246.614 1.17929 1.63633 0
M  V30 2443 C 246.927 -0.266204 1.9378 0
M  V30 2444 O 248.133 -0.508804 2.6669 0
M  V30 2445 C 246.589 2.06317 2.94892 0
M  V30 2446 C 246.197 3.55745 2.72305 0
M  V30 2447 C 247.941 2.0295 3.72843 0
M  V30 2448 C 245.848 4.36205 3.99348 0
M  V30 2449 H 244.778 0.437782 0.613892 0
M  V30 2450 H 247.429 1.54754 0.986075 0
M  V30 2451 H 245.811 1.6237 3.61182 0
M  V30 2452 H 246.985 4.07805 2.1455 0
M  V30 2453 H 245.3 3.6088 2.07737 0
M  V30 2454 H 247.897 2.60319 4.67053 0
M  V30 2455 H 248.24 1.0117 4.0382 0
M  V30 2456 H 248.773 2.4499 3.13408 0
M  V30 2457 H 245.512 5.38659 3.73533 0
M  V30 2458 H 245.032 3.8891 4.56628 0
M  V30 2459 H 246.711 4.47362 4.67415 0
M  V30 2460 N 246.843 -1.10192 1.12674 0
M  V30 2461 C 248.071 -1.85983 0.906527 0
M  V30 2462 C 248.486 -1.80783 -0.544333 0
M  V30 2463 O 247.843 -1.19834 -1.37645 0
M  V30 2464 C 247.894 -3.34281 1.37618 0
M  V30 2465 O 247.615 -3.39401 2.77017 0
M  V30 2466 C 249.116 -4.26938 1.19325 0
M  V30 2467 H 246.336 -0.587716 0.323775 0
M  V30 2468 H 248.88 -1.39284 1.49734 0
M  V30 2469 H 247.035 -3.78436 0.828539 0
M  V30 2470 H 247.449 -4.31838 2.97684 0
M  V30 2471 H 248.923 -5.29181 1.57071 0
M  V30 2472 H 249.4 -4.38995 0.134097 0
M  V30 2473 H 250.006 -3.8859 1.72852 0
M  V30 2474 N 248.321 -0.919034 -1.28029 0
M  V30 2475 C 249.569 -0.553838 -1.94363 0
M  V30 2476 C 249.89 0.906357 -1.72656 0
M  V30 2477 O 249.16 1.64143 -1.0693 0
M  V30 2478 H 247.74 -0.201834 -0.719216 0
M  V30 2479 H 250.402 -1.16954 -1.55909 0
M  V30 2480 H 249.498 -0.752758 -3.02886 0
M  V30 2481 N 249.799 1.42003 -0.683588 0
M  V30 2482 C 250.709 2.34597 -0.0109075 0
M  V30 2483 C 251.725 1.55576 0.779245 0
M  V30 2484 O 252.901 1.88107 0.719555 0
M  V30 2485 C 249.966 3.34199 0.922588 0
M  V30 2486 C 249.027 4.29115 0.125984 0
M  V30 2487 C 248.26 5.23959 1.01502 0
M  V30 2488 O 248.483 5.23952 2.25456 0
M  V30 2489 O 247.417 6.00053 0.47111 0
M  V30 2490 H 251.243 2.93675 -0.773853 0
M  V30 2491 H 248.828 1.42654 -0.443861 0
M  V30 2492 H 250.71 3.95365 1.45823 0
M  V30 2493 H 249.385 2.77582 1.66523 0
M  V30 2494 H 248.292 3.71335 -0.453969 0
M  V30 2495 H 249.625 4.88798 -0.577736 0
M  V30 2496 N 251.277 0.427512 1.51691 0
M  V30 2497 C 252.523 -0.142439 2.02299 0
M  V30 2498 C 252.856 -1.43214 1.31162 0
M  V30 2499 O 252.131 -1.89833 0.423511 0
M  V30 2500 C 252.414 -0.371301 3.58181 0
M  V30 2501 C 252.267 0.936358 4.39946 0
M  V30 2502 C 253.586 -1.14542 4.24933 0
M  V30 2503 H 250.705 -0.0502937 0.735282 0
M  V30 2504 H 253.347 0.564584 1.81418 0
M  V30 2505 H 251.497 -0.973559 3.76104 0
M  V30 2506 H 253.169 1.57184 4.33694 0
M  V30 2507 H 251.412 1.5432 4.05423 0
M  V30 2508 H 252.083 0.730388 5.47147 0
M  V30 2509 H 254.559 -0.635362 4.11221 0
M  V30 2510 H 253.435 -1.27431 5.33903 0
M  V30 2511 H 253.696 -2.17093 3.85127 0
M  V30 2512 N 252.755 -1.56801 0.158532 0
M  V30 2513 C 254.032 -1.88131 -0.535357 0
M  V30 2514 C 254.412 -1.06638 -1.82186 0
M  V30 2515 O 253.76 -0.156533 -2.27963 0
M  V30 2516 C 253.97 -3.39949 -0.789653 0
M  V30 2517 C 255.318 -4.09416 -1.12533 0
M  V30 2518 O 256.342 -3.45194 -0.878622 0
M  V30 2519 O 255.201 -5.22855 -1.59014 0
M  V30 2520 H 252.295 -0.780143 -0.27442 0
M  V30 2521 H 254.841 -1.68564 0.19601 0
M  V30 2522 H 253.613 -3.91115 0.120353 0
M  V30 2523 H 253.236 -3.65084 -1.57479 0
M  V30 2524 N 254.233 0.115231 -1.57178 0
M  V30 2525 C 255.479 0.82357 -1.85325 0
M  V30 2526 C 255.812 1.79349 -0.744814 0
M  V30 2527 O 255.087 1.92899 0.249024 0
M  V30 2528 C 255.37 1.57014 -3.24066 0
M  V30 2529 C 255.223 0.619565 -4.45513 0
M  V30 2530 C 256.542 2.52545 -3.60429 0
M  V30 2531 H 253.661 0.297948 -0.674089 0
M  V30 2532 H 256.303 0.0877138 -1.89797 0
M  V30 2533 H 254.453 2.19742 -3.20383 0
M  V30 2534 H 256.125 0.000837639 -4.613 0
M  V30 2535 H 254.368 -0.0686174 -4.33746 0
M  V30 2536 H 255.039 1.17866 -5.3927 0
M  V30 2537 H 257.515 1.9992 -3.64926 0
M  V30 2538 H 256.391 3.01811 -4.58477 0
M  V30 2539 H 256.652 3.35383 -2.88047 0
M  V30 2540 N 255.711 1.52812 0.385517 0
M  V30 2541 C 256.96 1.67249 1.12741 0
M  V30 2542 C 257.273 0.4205 1.91027 0
M  V30 2543 O 258.479 0.445064 2.67827 0
M  V30 2544 C 256.935 2.95583 2.05326 0
M  V30 2545 C 256.543 4.27974 1.32447 0
M  V30 2546 C 258.287 3.19386 2.7963 0
M  V30 2547 C 256.194 5.47412 2.23818 0
M  V30 2548 H 255.124 0.6231 0.424573 0
M  V30 2549 H 257.775 1.79309 0.389924 0
M  V30 2550 H 256.157 2.77277 2.82725 0
M  V30 2551 H 257.331 4.56844 0.602495 0
M  V30 2552 H 255.646 4.10459 0.700885 0
M  V30 2553 H 258.243 4.05801 3.48181 0
M  V30 2554 H 258.586 2.34604 3.43899 0
M  V30 2555 H 259.119 3.38274 2.09322 0
M  V30 2556 H 255.858 6.34612 1.64157 0
M  V30 2557 H 255.378 5.22849 2.93921 0
M  V30 2558 H 257.057 5.81423 2.83824 0
M  V30 2559 N 257.189 -0.644168 1.43834 0
M  V30 2560 C 258.152 -1.73857 1.49353 0
M  V30 2561 C 259.152 -1.56315 0.377112 0
M  V30 2562 O 260.342 -1.62048 0.639226 0
M  V30 2563 C 257.474 -3.12819 1.35488 0
M  V30 2564 H 258.667 -1.70342 2.46827 0
M  V30 2565 H 256.22 -0.856652 1.30733 0
M  V30 2566 H 256.955 -3.2194 0.390569 0
M  V30 2567 H 256.74 -3.26958 2.16428 0
M  V30 2568 H 258.23 -3.92606 1.42302 0
M  V30 2569 N 258.668 -1.30515 -0.883378 0
M  V30 2570 C 259.945 -1.10086 -1.6168 0
M  V30 2571 C 260.325 0.349269 -2.08191 0
M  V30 2572 O 259.673 1.34105 -1.85008 0
M  V30 2573 C 259.883 -2.10315 -2.78511 0
M  V30 2574 C 261.231 -2.42119 -3.48803 0
M  V30 2575 O 262.255 -2.08638 -2.88702 0
M  V30 2576 O 261.114 -2.99396 -4.57192 0
M  V30 2577 H 258.208 -0.422907 -0.710689 0
M  V30 2578 H 260.754 -1.41947 -0.930015 0
M  V30 2579 H 259.526 -3.07917 -2.41459 0
M  V30 2580 H 259.149 -1.79282 -3.54886 0
M  V30 2581 N 260.146 1.09593 -1.13257 0
M  V30 2582 C 261.374 1.855 -0.916378 0
M  V30 2583 C 261.789 1.81069 0.534738 0
M  V30 2584 O 261.146 1.20562 1.37007 0
M  V30 2585 C 261.197 3.33546 -1.39388 0
M  V30 2586 O 260.918 3.37927 -2.78813 0
M  V30 2587 C 262.419 4.26299 -1.21588 0
M  V30 2588 H 259.639 0.585991 -0.326887 0
M  V30 2589 H 262.183 1.38488 -1.5047 0
M  V30 2590 H 260.338 3.77992 -0.848597 0
M  V30 2591 H 260.752 4.30254 -2.9997 0
M  V30 2592 H 262.226 5.28341 -1.59876 0
M  V30 2593 H 262.703 4.38918 -0.157376 0
M  V30 2594 H 263.309 3.87668 -1.7491 0
M  V30 2595 N 261.624 0.925811 1.2754 0
M  V30 2596 C 262.849 0.580924 1.99098 0
M  V30 2597 C 263.274 -0.833555 1.68622 0
M  V30 2598 O 262.632 -1.55903 0.925422 0
M  V30 2599 C 262.68 0.811186 3.51358 0
M  V30 2600 O 261.784 -0.124129 4.12213 0
M  V30 2601 H 261.125 0.223873 0.625122 0
M  V30 2602 H 263.655 1.24455 1.62395 0
M  V30 2603 H 263.665 0.72601 4.01489 0
M  V30 2604 H 262.34 1.84227 3.72872 0
M  V30 2605 H 260.917 0.0108006 3.72898 0
M  V30 2606 N 263.102 -1.41638 0.69111 0
M  V30 2607 C 264.052 -2.28 -0.000107832 0
M  V30 2608 C 265.036 -1.41964 -0.757304 0
M  V30 2609 O 266.228 -1.65274 -0.633532 0
M  V30 2610 C 263.357 -3.30209 -0.938983 0
M  V30 2611 C 262.443 -4.23725 -0.17827 0
M  V30 2612 N 262.834 -4.99017 0.825563 0
M  V30 2613 C 261.132 -4.44071 -0.414392 0
M  V30 2614 C 261.833 -5.67431 1.28052 0
M  V30 2615 N 260.809 -5.40197 0.607304 0
M  V30 2616 H 264.611 -2.83644 0.769617 0
M  V30 2617 H 262.125 -1.53797 0.521562 0
M  V30 2618 H 264.122 -3.90898 -1.44929 0
M  V30 2619 H 262.782 -2.76126 -1.70836 0
M  V30 2620 H 263.793 -5.03671 1.20566 0
M  V30 2621 H 260.47 -4.01004 -1.162 0
M  V30 2622 H 261.86 -6.37801 2.11327 0
M  V30 2623 N 264.58 -0.43555 -1.51462 0
M  V30 2624 C 265.826 0.131709 -2.02372 0
M  V30 2625 C 266.159 1.42516 -1.3192 0
M  V30 2626 O 265.434 1.89606 -0.433573 0
M  V30 2627 C 265.717 0.352301 -3.58373 0
M  V30 2628 C 265.57 -0.959676 -4.39443 0
M  V30 2629 C 266.889 1.12286 -4.25535 0
M  V30 2630 H 264.008 0.0463936 -0.735538 0
M  V30 2631 H 266.65 -0.574197 -1.81116 0
M  V30 2632 H 264.8 0.9536 -3.76615 0
M  V30 2633 H 266.472 -1.59482 -4.32855 0
M  V30 2634 H 264.715 -1.56468 -4.04599 0
M  V30 2635 H 265.386 -0.759394 -5.46752 0
M  V30 2636 H 267.862 0.613545 -4.11552 0
M  V30 2637 H 266.738 1.24598 -5.34571 0
M  V30 2638 H 266.999 2.15048 -3.86273 0
M  V30 2639 N 266.058 1.56714 -0.166846 0
M  V30 2640 C 267.288 2.00828 0.48494 0
M  V30 2641 C 267.696 1.04612 1.57648 0
M  V30 2642 O 267.039 0.0383201 1.8366 0
M  V30 2643 C 267.101 3.4137 1.12723 0
M  V30 2644 C 266.765 4.56654 0.177886 0
M  V30 2645 C 267.762 5.16402 -0.60207 0
M  V30 2646 C 265.447 5.02244 0.0750139 0
M  V30 2647 C 267.441 6.20167 -1.47215 0
M  V30 2648 C 265.128 6.05859 -0.798649 0
M  V30 2649 C 266.126 6.64691 -1.57082 0
M  V30 2650 O 265.814 7.66297 -2.42989 0
M  V30 2651 H 265.546 0.663587 0.128953 0
M  V30 2652 H 268.1 2.03692 -0.264365 0
M  V30 2653 H 266.33 3.35406 1.92457 0
M  V30 2654 H 268.019 3.69466 1.68076 0
M  V30 2655 H 268.785 4.82065 -0.53274 0
M  V30 2656 H 264.664 4.56167 0.665812 0
M  V30 2657 H 268.208 6.66016 -2.07531 0
M  V30 2658 H 264.105 6.39621 -0.869199 0
M  V30 2659 H 264.873 7.83601 -2.36455 0
M  V30 2660 N 267.536 -0.106894 1.57237 0
M  V30 2661 C 268.764 -0.826389 1.8968 0
M  V30 2662 C 269.179 -1.72856 0.759353 0
M  V30 2663 O 268.536 -1.80503 -0.269263 0
M  V30 2664 C 268.587 -1.64967 3.21665 0
M  V30 2665 O 268.308 -0.783804 4.31031 0
M  V30 2666 C 269.809 -2.47326 3.67892 0
M  V30 2667 H 267.029 -0.236927 0.627779 0
M  V30 2668 H 269.573 -0.0876593 2.04312 0
M  V30 2669 H 267.728 -2.34103 3.08666 0
M  V30 2670 H 268.142 -1.35284 5.06753 0
M  V30 2671 H 269.616 -3.00604 4.6297 0
M  V30 2672 H 270.093 -3.25247 2.95146 0
M  V30 2673 H 270.699 -1.83411 3.83719 0
M  V30 2674 N 269.014 -1.53014 -0.377408 0
M  V30 2675 C 269.944 -1.81589 -1.46791 0
M  V30 2676 C 270.925 -0.668622 -1.56408 0
M  V30 2677 O 272.11 -0.917337 -1.71168 0
M  V30 2678 C 269.24 -1.99519 -2.8427 0
M  V30 2679 C 268.194 -3.15249 -2.89486 0
M  V30 2680 C 267.52 -3.18451 -4.29527 0
M  V30 2681 C 268.82 -4.54084 -2.58079 0
M  V30 2682 H 270.514 -2.7291 -1.23127 0
M  V30 2683 H 268.06 -1.31319 -0.590883 0
M  V30 2684 H 270.013 -2.18092 -3.60575 0
M  V30 2685 H 268.737 -1.04897 -3.09296 0
M  V30 2686 H 267.396 -2.96477 -2.15631 0
M  V30 2687 H 267.044 -2.2149 -4.5161 0
M  V30 2688 H 266.744 -3.962 -4.33934 0
M  V30 2689 H 268.268 -3.39193 -5.07721 0
M  V30 2690 H 269.682 -4.72899 -3.24098 0
M  V30 2691 H 268.079 -5.33987 -2.7382 0
M  V30 2692 H 269.149 -4.60006 -1.53372 0
M  V30 2693 N 270.492 0.636531 -1.44174 0
M  V30 2694 C 271.442 1.74233 -1.47061 0
M  V30 2695 C 272.426 1.57331 -0.337034 0
M  V30 2696 O 273.618 1.67159 -0.581973 0
M  V30 2697 C 270.747 3.12897 -1.41246 0
M  V30 2698 C 269.833 3.35288 -2.59698 0
M  V30 2699 N 270.224 3.2807 -3.84972 0
M  V30 2700 C 268.522 3.66065 -2.54778 0
M  V30 2701 C 269.223 3.51001 -4.63867 0
M  V30 2702 N 268.199 3.73616 -3.94857 0
M  V30 2703 H 272.001 1.67103 -2.41773 0
M  V30 2704 H 269.515 0.838806 -1.3906 0
M  V30 2705 H 271.512 3.92189 -1.41398 0
M  V30 2706 H 270.172 3.21197 -0.47569 0
M  V30 2707 H 271.183 3.07109 -4.17019 0
M  V30 2708 H 267.86 3.81379 -1.6987 0
M  V30 2709 H 269.25 3.51059 -5.72894 0
M  V30 2710 N 271.97 1.30982 0.876444 0
M  V30 2711 C 272.918 1.18006 2.00443 0
M  V30 2712 C 273.912 0.0898871 1.69161 0
M  V30 2713 O 275.118 0.251333 1.78237 0
M  V30 2714 H 271.493 0.365196 0.65737 0
M  V30 2715 H 273.464 2.13453 2.0852 0
M  V30 2716 C 272.213 0.897521 3.35916 0
M  V30 2717 H 271.536 1.7285 3.60504 0
M  V30 2718 H 272.976 0.846874 4.15456 0
M  V30 2719 C 271.435 -0.399674 3.34521 0
M  V30 2720 O 271.965 -1.41852 3.7582 0
M  V30 2721 N 270.171 -0.413893 2.87637 0
M  V30 2722 H 269.718 0.41571 2.54224 0
M  V30 2723 H 269.676 -1.28175 2.87086 0
M  V30 2724 N 273.449 -1.08991 1.13837 0
M  V30 2725 C 274.697 -1.80899 0.901098 0
M  V30 2726 C 275.018 -1.86356 -0.574134 0
M  V30 2727 O 274.288 -1.35235 -1.41733 0
M  V30 2728 H 272.868 -0.669966 0.330386 0
M  V30 2729 H 275.53 -1.318 1.43578 0
M  V30 2730 H 274.626 -2.83929 1.29578 0
M  V30 2731 N 274.927 -0.932562 -1.27047 0
M  V30 2732 C 275.877 -0.406392 -2.24349 0
M  V30 2733 C 276.861 0.492066 -1.53191 0
M  V30 2734 O 278.053 0.328717 -1.73921 0
M  V30 2735 C 275.182 0.335214 -3.41659 0
M  V30 2736 C 274.268 -0.58004 -4.20115 0
M  V30 2737 N 274.659 -1.70203 -4.76303 0
M  V30 2738 C 272.957 -0.383974 -4.44344 0
M  V30 2739 C 273.658 -2.27167 -5.35509 0
M  V30 2740 N 272.634 -1.56068 -5.20715 0
M  V30 2741 H 276.436 -1.26299 -2.65378 0
M  V30 2742 H 273.95 -0.787408 -1.42034 0
M  V30 2743 H 275.947 0.729142 -4.10474 0
M  V30 2744 H 274.607 1.18868 -3.0216 0
M  V30 2745 H 275.618 -2.08433 -4.74106 0
M  V30 2746 H 272.295 0.428436 -4.15296 0
M  V30 2747 H 273.685 -3.21654 -5.89905 0
M  V30 2748 N 276.405 1.4127 -0.698611 0
M  V30 2749 C 277.352 2.30773 -0.0352094 0
M  V30 2750 C 278.322 1.47273 0.768111 0
M  V30 2751 O 279.507 1.76053 0.735524 0
M  V30 2752 C 276.647 3.33346 0.893 0
M  V30 2753 C 275.76 4.31924 0.0809695 0
M  V30 2754 C 274.895 5.21566 1.0071 0
M  V30 2755 C 273.934 6.11811 0.188155 0
M  V30 2756 N 273.071 6.93926 1.06825 0
M  V30 2757 H 277.911 2.86943 -0.804207 0
M  V30 2758 H 275.448 1.4132 -0.408294 0
M  V30 2759 H 277.406 3.91368 1.44523 0
M  V30 2760 H 276.036 2.78719 1.62836 0
M  V30 2761 H 275.088 3.75825 -0.588224 0
M  V30 2762 H 276.4 4.95716 -0.553801 0
M  V30 2763 H 275.554 5.84437 1.62845 0
M  V30 2764 H 274.293 4.58008 1.67572 0
M  V30 2765 H 273.298 5.47986 -0.446254 0
M  V30 2766 H 274.523 6.77425 -0.476716 0
M  V30 2767 H 272.469 6.32973 1.72283 0
M  V30 2768 H 272.386 7.54416 0.489123 0
M  V30 2769 H 273.654 7.61262 1.67632 0
M  V30 2770 N 277.883 0.443576 1.51229 0
M  V30 2771 C 278.813 -0.355142 2.30783 0
M  V30 2772 C 279.794 -1.0154 1.36468 0
M  V30 2773 O 280.979 -1.01785 1.65389 0
M  V30 2774 C 278.109 -1.45312 3.15439 0
M  V30 2775 C 277.063 -0.916002 4.18083 0
M  V30 2776 C 276.389 -2.1102 4.91299 0
M  V30 2777 C 277.689 0.0538602 5.22272 0
M  V30 2778 H 279.383 0.308767 2.97804 0
M  V30 2779 H 276.929 0.149937 1.43217 0
M  V30 2780 H 278.882 -2.01914 3.69876 0
M  V30 2781 H 277.606 -2.14541 2.46252 0
M  V30 2782 H 276.265 -0.372145 3.64706 0
M  V30 2783 H 275.913 -2.78882 4.18609 0
M  V30 2784 H 275.613 -1.75717 5.60712 0
M  V30 2785 H 277.137 -2.68164 5.48562 0
M  V30 2786 H 278.551 -0.422069 5.71744 0
M  V30 2787 H 276.948 0.319776 5.99247 0
M  V30 2788 H 278.018 0.98858 4.74716 0
M  V30 2789 N 279.361 -1.56624 0.175154 0
M  V30 2790 C 280.291 -2.21155 -0.749195 0
M  V30 2791 C 281.272 -1.16836 -1.23626 0
M  V30 2792 O 282.457 -1.45277 -1.28873 0
M  V30 2793 C 279.587 -2.8553 -1.97711 0
M  V30 2794 C 278.541 -3.95921 -1.62575 0
M  V30 2795 C 277.867 -4.47365 -2.92864 0
M  V30 2796 C 279.167 -5.15323 -0.850838 0
M  V30 2797 H 280.861 -2.98653 -0.211295 0
M  V30 2798 H 278.407 -1.43651 -0.100188 0
M  V30 2799 H 280.36 -3.2935 -2.62881 0
M  V30 2800 H 279.084 -2.05406 -2.53921 0
M  V30 2801 H 277.743 -3.52762 -0.997719 0
M  V30 2802 H 277.391 -3.64027 -3.47122 0
M  V30 2803 H 277.091 -5.21839 -2.70106 0
M  V30 2804 H 278.615 -4.93873 -3.59056 0
M  V30 2805 H 280.029 -5.55812 -1.40521 0
M  V30 2806 H 278.426 -5.95739 -0.722154 0
M  V30 2807 H 279.496 -4.84661 0.152082 0
M  V30 2808 N 280.839 0.0985539 -1.57292 0
M  V30 2809 C 282.067 0.816318 -1.90115 0
M  V30 2810 C 282.482 1.72451 -0.768509 0
M  V30 2811 O 281.839 1.80643 0.259687 0
M  V30 2812 C 281.89 1.63259 -3.22535 0
M  V30 2813 O 281.611 0.760934 -4.31441 0
M  V30 2814 C 283.112 2.45372 -3.69199 0
M  V30 2815 H 280.332 0.233595 -0.629027 0
M  V30 2816 H 282.876 0.0768229 -2.04356 0
M  V30 2817 H 281.031 2.32463 -3.09903 0
M  V30 2818 H 281.445 1.32595 -5.07463 0
M  V30 2819 H 282.919 2.98144 -4.64558 0
M  V30 2820 H 283.396 3.23677 -2.96867 0
M  V30 2821 H 284.002 1.81373 -3.84687 0
M  V30 2822 N 282.317 1.53212 0.369288 0
M  V30 2823 C 283.264 1.79388 1.45219 0
M  V30 2824 C 284.234 0.638059 1.53356 0
M  V30 2825 O 285.419 0.879852 1.69302 0
M  V30 2826 C 282.559 1.98623 2.82211 0
M  V30 2827 C 281.672 3.26337 2.8307 0
M  V30 2828 C 280.807 3.35779 4.11614 0
M  V30 2829 C 279.846 4.5754 4.06601 0
M  V30 2830 N 278.983 4.64155 5.26787 0
M  V30 2831 H 283.823 2.71794 1.22198 0
M  V30 2832 H 281.36 1.34642 0.592444 0
M  V30 2833 H 283.318 2.07761 3.61789 0
M  V30 2834 H 281.948 1.09558 3.03639 0
M  V30 2835 H 281 3.26171 1.95747 0
M  V30 2836 H 282.312 4.15988 2.75237 0
M  V30 2837 H 281.466 3.44208 4.99606 0
M  V30 2838 H 280.205 2.44137 4.22195 0
M  V30 2839 H 279.21 4.49215 3.16996 0
M  V30 2840 H 280.435 5.50519 3.97625 0
M  V30 2841 H 278.381 3.75413 5.3796 0
M  V30 2842 H 278.298 5.47706 5.21109 0
M  V30 2843 H 279.566 4.76863 6.16621 0
M  V30 2844 N 283.795 -0.628877 1.44509 0
M  V30 2845 C 285.041 -1.39045 1.47629 0
M  V30 2846 C 285.374 -1.93892 0.109343 0
M  V30 2847 O 284.649 -1.7379 -0.87334 0
M  V30 2848 C 284.932 -2.55408 2.53848 0
M  V30 2849 C 284.785 -2.05896 3.99909 0
M  V30 2850 C 286.104 -3.5759 2.56549 0
M  V30 2851 H 283.223 -0.504232 0.537512 0
M  V30 2852 H 285.865 -0.710854 1.76201 0
M  V30 2853 H 284.015 -3.13384 2.29615 0
M  V30 2854 H 285.687 -1.52734 4.35282 0
M  V30 2855 H 283.93 -1.37061 4.11578 0
M  V30 2856 H 284.601 -2.89681 4.69882 0
M  V30 2857 H 287.077 -3.09419 2.78207 0
M  V30 2858 H 285.953 -4.36527 3.32769 0
M  V30 2859 H 286.214 -4.11808 1.60832 0
M  V30 2860 N 285.273 -1.31445 -0.869486 0
M  V30 2861 C 286.501 -1.24122 -1.65534 0
M  V30 2862 C 286.916 0.193387 -1.87807 0
M  V30 2863 O 286.273 1.12557 -1.43656 0
M  V30 2864 C 286.324 -1.98229 -3.02304 0
M  V30 2865 O 286.045 -3.3609 -2.81026 0
M  V30 2866 C 287.546 -1.97751 -3.96749 0
M  V30 2867 H 284.766 -0.428868 -0.516055 0
M  V30 2868 H 287.31 -1.73328 -1.08525 0
M  V30 2869 H 285.465 -1.52782 -3.56001 0
M  V30 2870 H 285.879 -3.7383 -3.67902 0
M  V30 2871 H 287.353 -2.54114 -4.90031 0
M  V30 2872 H 287.83 -0.960137 -4.28577 0
M  V30 2873 H 288.436 -2.43079 -3.48988 0
M  V30 2874 N 286.751 1.08385 -1.14413 0
M  V30 2875 C 287.999 1.80419 -0.910679 0
M  V30 2876 C 288.32 1.86658 0.564243 0
M  V30 2877 O 287.59 1.35985 1.41014 0
M  V30 2878 H 286.17 0.668204 -0.333934 0
M  V30 2879 H 288.832 1.31037 -1.44275 0
M  V30 2880 H 287.928 2.83238 -1.31082 0
M  V30 2881 N 288.23 0.939286 1.26551 0
M  V30 2882 C 289.193 0.451987 2.24699 0
M  V30 2883 C 290.193 -0.435869 1.5478 0
M  V30 2884 O 291.383 -0.235314 1.72603 0
M  V30 2885 C 288.515 -0.348801 3.39111 0
M  V30 2886 H 289.708 1.3193 2.69322 0
M  V30 2887 H 287.261 0.721072 1.38673 0
M  V30 2888 H 287.996 -1.23444 2.99887 0
M  V30 2889 H 287.781 0.287945 3.91041 0
M  V30 2890 H 289.271 -0.679726 4.12031 0
M  V30 2891 N 289.708 -1.40897 0.706093 0
M  V30 2892 C 290.956 -2.00657 0.241054 0
M  V30 2893 C 291.277 -1.56241 -1.16678 0
M  V30 2894 O 290.547 -0.79765 -1.78926 0
M  V30 2895 H 289.127 -0.742018 0.0861308 0
M  V30 2896 H 291.789 -1.72372 0.909604 0
M  V30 2897 H 290.885 -3.10958 0.266705 0
M  V30 2898 N 291.186 -0.45159 -1.50991 0
M  V30 2899 C 292.426 0.109066 -2.04109 0
M  V30 2900 C 292.79 1.38716 -1.32747 0
M  V30 2901 O 293.991 2.02896 -1.76314 0
M  V30 2902 C 292.262 0.308354 -3.56067 0
M  V30 2903 S 293.821 0.830369 -4.30872 0
M  V30 2904 H 290.639 0.0251531 -0.710555 0
M  V30 2905 H 293.241 -0.614264 -1.85599 0
M  V30 2906 H 291.945 -0.627962 -4.05567 0
M  V30 2907 H 291.476 1.05836 -3.78896 0
M  V30 2908 H 293.491 2.10626 -4.49279 0
M  V30 2909 N 292.664 1.56529 -0.183458 0
M  V30 2910 C 293.594 2.21549 0.737456 0
M  V30 2911 C 294.575 1.17489 1.23005 0
M  V30 2912 O 295.76 1.45959 1.281 0
M  V30 2913 C 292.89 2.86575 1.96194 0
M  V30 2914 C 291.844 3.96778 1.60473 0
M  V30 2915 C 291.17 4.48911 2.90487 0
M  V30 2916 C 292.47 5.15767 0.823497 0
M  V30 2917 H 294.164 2.98761 0.195453 0
M  V30 2918 H 291.71 1.43702 0.0925686 0
M  V30 2919 H 293.663 3.30739 2.61131 0
M  V30 2920 H 292.387 2.06749 2.52828 0
M  V30 2921 H 291.046 3.53286 0.978997 0
M  V30 2922 H 290.694 3.65862 3.45186 0
M  V30 2923 H 290.394 5.23265 2.67335 0
M  V30 2924 H 291.918 4.95771 3.56432 0
M  V30 2925 H 293.332 5.56549 1.37571 0
M  V30 2926 H 291.729 5.96114 0.690551 0
M  V30 2927 H 292.799 4.84574 -0.177782 0
M  V30 2928 N 294.142 -0.090211 1.57342 0
M  V30 2929 C 295.072 -1.10976 2.05443 0
M  V30 2930 C 296.053 -1.41482 0.944284 0
M  V30 2931 O 297.238 -1.51428 1.21586 0
M  V30 2932 C 294.368 -2.42831 2.48295 0
M  V30 2933 C 293.322 -2.26721 3.63018 0
M  V30 2934 C 292.648 -3.63796 3.91863 0
M  V30 2935 C 293.948 -1.7037 4.93732 0
M  V30 2936 H 295.642 -0.709564 2.9087 0
M  V30 2937 H 293.188 -0.339874 1.39932 0
M  V30 2938 H 295.141 -3.14431 2.80555 0
M  V30 2939 H 293.865 -2.84795 1.59873 0
M  V30 2940 H 292.524 -1.57565 3.31012 0
M  V30 2941 H 292.172 -4.03297 3.00601 0
M  V30 2942 H 291.872 -3.53861 4.69101 0
M  V30 2943 H 293.396 -4.36855 4.26603 0
M  V30 2944 H 294.81 -2.31816 5.24342 0
M  V30 2945 H 293.207 -1.71181 5.75167 0
M  V30 2946 H 294.277 -0.663542 4.80339 0
M  V30 2947 N 295.62 -1.53406 -0.361157 0
M  V30 2948 C 296.848 -1.73717 -1.12383 0
M  V30 2949 C 297.263 -0.468161 -1.82904 0
M  V30 2950 O 296.62 0.559198 -1.73722 0
M  V30 2951 C 296.671 -2.90558 -2.15078 0
M  V30 2952 O 296.392 -4.12549 -1.47428 0
M  V30 2953 C 297.893 -3.22777 -3.03858 0
M  V30 2954 H 295.113 -0.580896 -0.335858 0
M  V30 2955 H 297.657 -2.00167 -0.418728 0
M  V30 2956 H 295.812 -2.66489 -2.8118 0
M  V30 2957 H 296.226 -4.78009 -2.15887 0
M  V30 2958 H 297.7 -4.07927 -3.71887 0
M  V30 2959 H 298.177 -2.38329 -3.68912 0
M  V30 2960 H 298.783 -3.48787 -2.43367 0
M  V30 2961 N 297.098 0.621204 -1.44841 0
M  V30 2962 C 298.323 1.41244 -1.51871 0
M  V30 2963 C 298.748 1.87519 -0.147764 0
M  V30 2964 O 298.106 1.59334 0.865 0
M  V30 2965 C 298.154 2.60221 -2.49634 0
M  V30 2966 O 297.258 3.60395 -2.00473 0
M  V30 2967 H 296.599 0.42223 -0.512463 0
M  V30 2968 H 299.129 0.757305 -1.90069 0
M  V30 2969 H 299.139 3.0764 -2.67996 0
M  V30 2970 H 297.814 2.25887 -3.4921 0
M  V30 2971 H 296.391 3.19717 -1.91925 0
M  V30 2972 N 298.576 1.31904 0.862503 0
M  V30 2973 C 299.822 1.22197 1.61851 0
M  V30 2974 C 300.155 -0.217641 1.92977 0
M  V30 2975 O 299.43 -1.15264 1.56666 0
M  V30 2976 C 299.713 2.07378 2.94391 0
M  V30 2977 C 299.566 3.59678 2.70096 0
M  V30 2978 C 300.885 1.92891 3.95577 0
M  V30 2979 H 298.004 0.445255 0.587296 0
M  V30 2980 H 300.646 1.6177 0.99651 0
M  V30 2981 H 298.796 1.73758 3.47477 0
M  V30 2982 H 300.468 4.03472 2.23625 0
M  V30 2983 H 298.711 3.82735 2.04197 0
M  V30 2984 H 299.382 4.14595 3.64438 0
M  V30 2985 H 301.858 2.22327 3.51724 0
M  V30 2986 H 300.734 2.54781 4.86187 0
M  V30 2987 H 300.995 0.894315 4.3296 0
M  V30 2988 N 300.054 -1.07777 1.14986 0
M  V30 2989 C 301.3 -1.80557 0.923422 0
M  V30 2990 C 301.633 -1.86298 -0.548337 0
M  V30 2991 O 300.908 -1.34354 -1.40639 0
M  V30 2992 C 301.191 -3.25839 1.53299 0
M  V30 2993 C 301.044 -3.28269 3.07505 0
M  V30 2994 C 302.363 -4.22991 1.21518 0
M  V30 2995 H 299.482 -0.655493 0.336894 0
M  V30 2996 H 302.124 -1.26144 1.42083 0
M  V30 2997 H 300.274 -3.72306 1.10999 0
M  V30 2998 H 301.946 -2.90079 3.58681 0
M  V30 2999 H 300.189 -2.67355 3.4162 0
M  V30 3000 H 300.86 -4.30691 3.45266 0
M  V30 3001 H 303.336 -3.84894 1.581 0
M  V30 3002 H 302.212 -5.22945 1.66793 0
M  V30 3003 H 302.473 -4.41904 0.131505 0
M  V30 3004 N 301.532 -0.945985 -1.26051 0
M  V30 3005 C 302.78 -0.594941 -1.93145 0
M  V30 3006 C 303.101 0.86953 -1.7454 0
M  V30 3007 O 302.371 1.61838 -1.10387 0
M  V30 3008 H 300.951 -0.217044 -0.714773 0
M  V30 3009 H 303.613 -1.20235 -1.53393 0
M  V30 3010 H 302.709 -0.816835 -3.01221 0
M  V30 3011 N 303.011 1.40521 -0.713556 0
M  V30 3012 C 303.974 2.29098 -0.0684347 0
M  V30 3013 C 304.974 1.45268 0.689472 0
M  V30 3014 O 306.164 1.66205 0.521677 0
M  V30 3015 C 303.296 3.28446 0.913024 0
M  V30 3016 H 304.489 2.87645 -0.84855 0
M  V30 3017 H 302.042 1.48809 -0.47809 0
M  V30 3018 H 302.777 2.74913 1.72027 0
M  V30 3019 H 302.562 3.90327 0.372472 0
M  V30 3020 H 304.052 3.94777 1.36165 0
M  V30 3021 N 304.489 0.459591 1.5075 0
M  V30 3022 C 305.736 -0.0993495 2.02256 0
M  V30 3023 C 306.064 -1.40751 1.34237 0
M  V30 3024 O 305.319 -1.90379 0.453228 0
M  V30 3025 C 305.618 -0.342866 3.55752 0
M  V30 3026 C 305.284 0.88218 4.42186 0
M  V30 3027 C 303.946 1.21808 4.65528 0
M  V30 3028 C 306.298 1.69837 4.92752 0
M  V30 3029 C 303.626 2.37045 5.36681 0
M  V30 3030 C 305.978 2.84192 5.65171 0
M  V30 3031 C 304.642 3.1821 5.8677 0
M  V30 3032 H 303.912 -0.0363545 0.740108 0
M  V30 3033 H 306.559 0.611329 1.8148 0
M  V30 3034 H 304.864 -1.13567 3.7498 0
M  V30 3035 H 306.561 -0.789121 3.93159 0
M  V30 3036 H 303.151 0.610467 4.2423 0
M  V30 3037 H 307.335 1.45205 4.74583 0
M  V30 3038 H 302.591 2.63689 5.51614 0
M  V30 3039 H 306.765 3.4779 6.03337 0
M  V30 3040 H 304.392 4.07613 6.41682 0
M  V30 3041 N 305.967 -1.56429 0.191757 0
M  V30 3042 C 307.207 -1.99383 -0.450099 0
M  V30 3043 C 307.571 -1.07581 -1.59029 0
M  V30 3044 O 308.772 -1.39758 -2.29611 0
M  V30 3045 C 307.043 -3.45841 -0.901611 0
M  V30 3046 S 308.602 -4.10822 -1.54177 0
M  V30 3047 H 305.42 -0.696253 -0.144057 0
M  V30 3048 H 308.022 -1.93276 0.294036 0
M  V30 3049 H 306.726 -4.10354 -0.0616596 0
M  V30 3050 H 306.257 -3.55757 -1.67929 0
M  V30 3051 H 308.272 -4.07553 -2.83046 0
M  V30 3052 N 307.445 0.0818655 -1.57387 0
M  V30 3053 C 308.408 1.08265 -2.02018 0
M  V30 3054 C 309.408 1.32183 -0.915664 0
M  V30 3055 O 310.598 1.28073 -1.18081 0
M  V30 3056 C 307.73 2.42871 -2.39221 0
M  V30 3057 H 308.923 0.698204 -2.91659 0
M  V30 3058 H 306.476 0.327303 -1.52835 0
M  V30 3059 H 307.211 2.86167 -1.52575 0
M  V30 3060 H 306.996 2.26855 -3.19811 0
M  V30 3061 H 308.486 3.14826 -2.74362 0
M  V30 3062 N 308.923 1.53595 0.353017 0
M  V30 3063 C 310.169 1.70638 1.09593 0
M  V30 3064 C 310.502 0.463286 1.88593 0
M  V30 3065 O 309.777 -0.539597 1.86865 0
M  V30 3066 C 310.06 2.96406 2.04489 0
M  V30 3067 C 309.913 4.30901 1.29014 0
M  V30 3068 C 311.232 3.17812 3.0444 0
M  V30 3069 H 308.351 0.620913 0.397034 0
M  V30 3070 H 310.993 1.86254 0.375446 0
M  V30 3071 H 309.143 2.83223 2.65927 0
M  V30 3072 H 310.815 4.55917 0.702638 0
M  V30 3073 H 309.058 4.29741 0.592071 0
M  V30 3074 H 309.729 5.1506 1.98537 0
M  V30 3075 H 312.205 3.30263 2.53112 0
M  V30 3076 H 311.081 4.07223 3.6805 0
M  V30 3077 H 311.342 2.33669 3.75301 0
M  V30 3078 N 310.401 -0.613514 1.45168 0
M  V30 3079 C 311.311 -1.75296 1.55912 0
M  V30 3080 C 312.327 -1.68244 0.443856 0
M  V30 3081 O 313.503 -1.88706 0.70371 0
M  V30 3082 C 310.568 -3.1174 1.5172 0
M  V30 3083 C 309.629 -3.30291 2.74238 0
M  V30 3084 C 308.862 -4.60226 2.70236 0
M  V30 3085 O 309.085 -5.42168 1.77229 0
M  V30 3086 O 308.019 -4.81361 3.61352 0
M  V30 3087 H 311.845 -1.69183 2.52212 0
M  V30 3088 H 309.43 -0.776886 1.27612 0
M  V30 3089 H 311.312 -3.93044 1.51968 0
M  V30 3090 H 309.987 -3.18357 0.585697 0
M  V30 3091 H 308.894 -2.48598 2.79553 0
M  V30 3092 H 310.227 -3.28547 3.66494 0
M  V30 3093 N 311.879 -1.3236 -0.855495 0
M  V30 3094 C 312.789 -1.23221 -1.99634 0
M  V30 3095 C 313.805 -0.145983 -1.73387 0
M  V30 3096 O 314.981 -0.366502 -1.98037 0
M  V30 3097 C 312.046 -0.954782 -3.33294 0
M  V30 3098 C 311.107 -2.12937 -3.72769 0
M  V30 3099 C 310.34 -1.86508 -5.00051 0
M  V30 3100 O 310.563 -0.807231 -5.64659 0
M  V30 3101 O 309.497 -2.72591 -5.36636 0
M  V30 3102 H 313.323 -2.19126 -2.1028 0
M  V30 3103 H 310.908 -1.12241 -0.986018 0
M  V30 3104 H 312.79 -0.816519 -4.13414 0
M  V30 3105 H 311.465 -0.0258854 -3.2369 0
M  V30 3106 H 310.372 -2.3231 -2.93228 0
M  V30 3107 H 311.705 -3.04102 -3.87018 0
M  V30 3108 N 313.357 1.07166 -1.15556 0
M  V30 3109 C 314.305 2.16517 -0.8499 0
M  V30 3110 C 315.299 1.68468 0.177454 0
M  V30 3111 O 316.505 1.79971 0.0323026 0
M  V30 3112 H 312.88 0.706652 -0.25719 0
M  V30 3113 H 314.851 2.39514 -1.77976 0
M  V30 3114 C 313.6 3.45855 -0.357682 0
M  V30 3115 H 312.923 3.83214 -1.13961 0
M  V30 3116 H 314.363 4.23607 -0.182489 0
M  V30 3117 C 312.822 3.24062 0.921152 0
M  V30 3118 O 313.352 3.48813 1.9923 0
M  V30 3119 N 311.558 2.77539 0.86141 0
M  V30 3120 H 311.105 2.57598 -0.0104408 0
M  V30 3121 H 311.063 2.63337 1.71758 0
M  V30 3122 N 314.835 0.952656 1.25548 0
M  V30 3123 C 316.246 0.647392 1.75116 0
M  V30 3124 C 316.597 -0.837274 1.77438 0
M  V30 3125 O 315.722 -1.65525 1.39393 0
M  V30 3126 C 316.317 1.16845 3.18014 0
M  V30 3127 C 314.876 0.913382 3.6515 0
M  V30 3128 C 314.023 1.31265 2.44264 0
M  V30 3129 H 316.974 1.12968 1.11462 0
M  V30 3130 H 316.995 0.527606 3.76824 0
M  V30 3131 H 316.507 2.24902 3.16292 0
M  V30 3132 H 314.608 -0.152316 3.72289 0
M  V30 3133 H 314.721 1.54845 4.53387 0
M  V30 3134 H 313.085 0.731028 2.43984 0
M  V30 3135 H 313.868 2.40239 2.45234 0
M  V30 3136 N 316.313 -1.40141 0.720998 0
M  V30 3137 C 317.243 -2.33339 0.0867621 0
M  V30 3138 C 318.224 -1.53178 -0.739622 0
M  V30 3139 O 319.409 -1.81625 -0.687449 0
M  V30 3140 C 316.539 -3.37194 -0.831728 0
M  V30 3141 C 315.493 -4.27857 -0.110558 0
M  V30 3142 C 314.819 -5.22294 -1.14513 0
M  V30 3143 C 316.119 -5.11872 1.0385 0
M  V30 3144 H 317.813 -2.86626 0.865219 0
M  V30 3145 H 315.359 -1.37814 0.417516 0
M  V30 3146 H 317.312 -4.01335 -1.28485 0
M  V30 3147 H 316.036 -2.82314 -1.64214 0
M  V30 3148 H 314.695 -3.65176 0.322797 0
M  V30 3149 H 314.343 -4.63717 -1.94874 0
M  V30 3150 H 314.043 -5.83797 -0.667446 0
M  V30 3151 H 315.567 -5.89312 -1.59824 0
M  V30 3152 H 316.981 -5.69436 0.664482 0
M  V30 3153 H 315.378 -5.82445 1.4449 0
M  V30 3154 H 316.448 -4.4753 1.86668 0
M  V30 3155 N 317.792 -0.46758 -1.50504 0
M  V30 3156 C 319.039 0.0886219 -2.02306 0
M  V30 3157 C 319.367 1.40037 -1.34981 0
M  V30 3158 O 318.622 1.90136 -0.463318 0
M  V30 3159 C 318.921 0.323995 -3.55928 0
M  V30 3160 C 318.587 -0.905618 -4.41712 0
M  V30 3161 C 317.249 -1.24275 -4.64875 0
M  V30 3162 C 319.601 -1.72448 -4.91845 0
M  V30 3163 C 316.929 -2.39888 -5.35417 0
M  V30 3164 C 319.281 -2.87185 -5.63656 0
M  V30 3165 C 317.945 -3.21317 -5.85074 0
M  V30 3166 H 317.215 0.0324291 -0.74029 0
M  V30 3167 H 319.862 -0.620945 -1.81153 0
M  V30 3168 H 318.167 1.11577 -3.75577 0
M  V30 3169 H 319.864 0.76826 -3.93572 0
M  V30 3170 H 316.454 -0.632956 -4.239 0
M  V30 3171 H 320.638 -1.4772 -4.73806 0
M  V30 3172 H 315.894 -2.66611 -5.50208 0
M  V30 3173 H 320.068 -3.50985 -6.01484 0
M  V30 3174 H 317.695 -4.1101 -6.39511 0
M  V30 3175 N 319.27 1.56325 -0.20005 0
M  V30 3176 C 320.233 2.18084 0.705132 0
M  V30 3177 C 321.233 1.13666 1.1374 0
M  V30 3178 O 322.423 1.39023 1.04968 0
M  V30 3179 C 319.555 2.78689 1.96329 0
M  V30 3180 H 320.748 2.99435 0.167023 0
M  V30 3181 H 318.301 1.56221 0.0495725 0
M  V30 3182 H 319.036 2.0115 2.5438 0
M  V30 3183 H 318.821 3.55133 1.66202 0
M  V30 3184 H 320.311 3.26096 2.60866 0
M  V30 3185 N 320.748 -0.0735177 1.57428 0
M  V30 3186 C 321.711 -1.07192 2.02589 0
M  V30 3187 C 322.711 -1.31695 0.922661 0
M  V30 3188 O 323.901 -1.27445 1.18758 0
M  V30 3189 C 321.033 -2.41599 2.40506 0
M  V30 3190 H 322.226 -0.682727 2.92025 0
M  V30 3191 H 319.779 -0.319193 1.53006 0
M  V30 3192 H 320.514 -2.85354 1.5409 0
M  V30 3193 H 320.299 -2.25156 3.21009 0
M  V30 3194 H 321.789 -3.13367 2.76027 0
M  V30 3195 N 322.226 -1.5378 -0.344866 0
M  V30 3196 C 323.475 -1.7018 -1.08267 0
M  V30 3197 C 323.788 -0.471 -1.89845 0
M  V30 3198 O 324.994 -0.515917 -2.66553 0
M  V30 3199 C 323.45 -3.00923 -1.97417 0
M  V30 3200 C 323.058 -4.31335 -1.21053 0
M  V30 3201 C 324.802 -3.26688 -2.71063 0
M  V30 3202 C 322.709 -5.53153 -2.09225 0
M  V30 3203 H 321.639 -0.634138 -0.407903 0
M  V30 3204 H 324.29 -1.8028 -0.342246 0
M  V30 3205 H 322.672 -2.84676 -2.75274 0
M  V30 3206 H 323.846 -4.58281 -0.481159 0
M  V30 3207 H 322.161 -4.12173 -0.591813 0
M  V30 3208 H 324.758 -4.1489 -3.37299 0
M  V30 3209 H 325.101 -2.43639 -3.37558 0
M  V30 3210 H 325.634 -3.43705 -2.0028 0
M  V30 3211 H 322.373 -6.38741 -1.47274 0
M  V30 3212 H 321.893 -5.30458 -2.79955 0
M  V30 3213 H 323.572 -5.88744 -2.68308 0
M  V30 3214 N 323.704 0.605807 -1.45491 0
M  V30 3215 C 324.667 1.69836 -1.5391 0
M  V30 3216 C 325.667 1.55261 -0.418424 0
M  V30 3217 O 326.857 1.60296 -0.681965 0
M  V30 3218 C 323.989 3.09117 -1.43734 0
M  V30 3219 H 325.182 1.63738 -2.51257 0
M  V30 3220 H 322.735 0.821689 -1.32959 0
M  V30 3221 H 323.47 3.20791 -0.475788 0
M  V30 3222 H 323.255 3.21104 -2.25021 0
M  V30 3223 H 324.745 3.88696 -1.52661 0
M  V30 3224 N 325.182 1.32811 0.848464 0
M  V30 3225 C 326.145 1.22194 1.9391 0
M  V30 3226 C 327.145 0.143404 1.60159 0
M  V30 3227 O 328.335 0.394253 1.6968 0
M  V30 3228 C 325.467 0.88067 3.29328 0
M  V30 3229 H 326.66 2.19127 2.04752 0
M  V30 3230 H 324.213 1.16731 1.0394 0
M  V30 3231 H 324.948 -0.0865776 3.24184 0
M  V30 3232 H 324.733 1.66052 3.55203 0
M  V30 3233 H 326.223 0.830871 4.09251 0
M  V30 3234 N 326.66 -1.06551 1.16123 0
M  V30 3235 C 327.909 -1.78687 0.935622 0
M  V30 3236 C 328.222 -1.88056 -0.538001 0
M  V30 3237 O 329.428 -2.56794 -0.88143 0
M  V30 3238 C 327.884 -3.21143 1.62466 0
M  V30 3239 C 327.492 -3.19949 3.13587 0
M  V30 3240 C 329.236 -3.9783 1.48092 0
M  V30 3241 C 327.143 -4.57108 3.75241 0
M  V30 3242 H 326.073 -0.669712 0.346412 0
M  V30 3243 H 328.724 -1.19534 1.39226 0
M  V30 3244 H 327.106 -3.80539 1.09572 0
M  V30 3245 H 328.28 -2.70151 3.73303 0
M  V30 3246 H 326.595 -2.5676 3.27816 0
M  V30 3247 H 329.192 -4.99217 1.91538 0
M  V30 3248 H 329.535 -4.14078 0.429507 0
M  V30 3249 H 330.068 -3.4495 1.98127 0
M  V30 3250 H 326.807 -4.46065 4.80319 0
M  V30 3251 H 326.327 -5.07111 3.20309 0
M  V30 3252 H 328.006 -5.26069 3.76644 0
M  V30 3253 N 328.138 -0.959301 -1.25041 0
M  V30 3254 C 329.363 -0.633507 -1.97488 0
M  V30 3255 C 329.788 0.788555 -1.70773 0
M  V30 3256 O 329.146 1.53394 -0.966431 0
M  V30 3257 C 329.194 -0.904057 -3.49083 0
M  V30 3258 O 328.298 0.0147939 -4.12397 0
M  V30 3259 H 327.639 -0.240368 -0.618966 0
M  V30 3260 H 330.169 -1.28717 -1.59038 0
M  V30 3261 H 330.179 -0.832203 -3.99423 0
M  V30 3262 H 328.854 -1.94048 -3.67856 0
M  V30 3263 H 327.431 -0.109664 -3.72739 0
M  V30 3264 N 329.616 1.39756 -0.72842 0
M  V30 3265 C 330.841 2.05472 -0.282159 0
M  V30 3266 C 331.266 1.54549 1.07221 0
M  V30 3267 O 330.624 0.686372 1.67805 0
M  V30 3268 C 330.672 3.59462 -0.286264 0
M  V30 3269 O 329.776 4.05918 0.728298 0
M  V30 3270 H 329.117 0.651226 -0.129618 0
M  V30 3271 H 331.647 1.78915 -0.992499 0
M  V30 3272 H 331.657 4.07798 -0.128373 0
M  V30 3273 H 330.332 3.95889 -1.27456 0
M  V30 3274 H 328.909 3.69012 0.537081 0
M  V30 3275 N 331.094 0.475555 1.50254 0
M  V30 3276 C 332.324 -0.0753399 2.06463 0
M  V30 3277 C 332.732 -1.33661 1.33908 0
M  V30 3278 O 332.075 -1.79219 0.403257 0
M  V30 3279 C 332.137 -0.424921 3.5698 0
M  V30 3280 C 331.801 0.734965 4.51051 0
M  V30 3281 C 332.798 1.61827 4.94073 0
M  V30 3282 C 330.483 0.926557 4.9368 0
M  V30 3283 C 332.477 2.67754 5.78434 0
M  V30 3284 C 330.164 1.98904 5.77824 0
M  V30 3285 C 331.162 2.8629 6.20103 0
M  V30 3286 O 330.85 3.90708 7.02568 0
M  V30 3287 H 330.582 0.00576308 0.675975 0
M  V30 3288 H 333.136 0.664662 1.94349 0
M  V30 3289 H 331.366 -1.21817 3.67012 0
M  V30 3290 H 333.055 -0.911422 3.95535 0
M  V30 3291 H 333.821 1.48196 4.61804 0
M  V30 3292 H 329.7 0.25584 4.6029 0
M  V30 3293 H 333.244 3.35992 6.11355 0
M  V30 3294 H 329.141 2.12541 6.09505 0
M  V30 3295 H 329.909 3.87751 7.20827 0
M  V30 3296 N 332.573 -1.56217 0.208337 0
M  V30 3297 C 333.821 -1.97558 -0.426076 0
M  V30 3298 C 334.142 -1.09683 -1.61229 0
M  V30 3299 O 333.412 -0.170956 -1.95153 0
M  V30 3300 H 331.992 -0.729575 -0.160405 0
M  V30 3301 H 334.654 -1.92606 0.298155 0
M  V30 3302 H 333.75 -3.02672 -0.761312 0
M  V30 3303 N 334.051 0.0651679 -1.57465 0
M  V30 3304 C 335.297 0.764193 -1.87851 0
M  V30 3305 C 335.63 1.76889 -0.801495 0
M  V30 3306 O 334.905 1.93594 0.187528 0
M  V30 3307 C 335.188 1.46625 -3.28897 0
M  V30 3308 C 335.041 0.477515 -4.47258 0
M  V30 3309 C 336.36 2.4095 -3.68281 0
M  V30 3310 H 333.479 0.276351 -0.683227 0
M  V30 3311 H 336.121 0.0272868 -1.8998 0
M  V30 3312 H 334.271 2.09438 -3.27212 0
M  V30 3313 H 335.943 -0.145922 -4.61069 0
M  V30 3314 H 334.186 -0.206576 -4.33308 0
M  V30 3315 H 334.857 1.0065 -5.42746 0
M  V30 3316 H 337.333 1.88209 -3.71102 0
M  V30 3317 H 336.209 2.87072 -4.67847 0
M  V30 3318 H 336.47 3.26049 -2.98571 0
M  V30 3319 N 335.529 1.53961 0.336706 0
M  V30 3320 C 336.492 1.81724 1.39675 0
M  V30 3321 C 337.492 0.688532 1.45313 0
M  V30 3322 O 338.682 0.956829 1.45569 0
M  V30 3323 C 335.814 1.96543 2.78538 0
M  V30 3324 H 337.007 2.76424 1.16318 0
M  V30 3325 H 334.56 1.45478 0.571474 0
M  V30 3326 H 335.295 1.0401 3.07168 0
M  V30 3327 H 335.08 2.78665 2.75841 0
M  V30 3328 H 336.57 2.19516 3.5525 0
M  V30 3329 N 337.007 -0.598083 1.45811 0
M  V30 3330 C 337.97 -1.69018 1.54808 0
M  V30 3331 C 338.97 -1.55037 0.426652 0
M  V30 3332 O 340.16 -1.59932 0.690456 0
M  V30 3333 C 337.292 -3.0835 1.45371 0
M  V30 3334 H 338.485 -1.62403 2.52121 0
M  V30 3335 H 336.038 -0.814626 1.33392 0
M  V30 3336 H 336.773 -3.20534 0.492793 0
M  V30 3337 H 336.558 -3.19907 2.26721 0
M  V30 3338 H 338.048 -3.8788 1.54721 0
M  V30 3339 N 338.485 -1.33259 -0.841409 0
M  V30 3340 C 339.417 -1.19136 -1.95804 0
M  V30 3341 C 340.43 -0.122965 -1.62335 0
M  V30 3342 O 341.619 -0.373154 -1.74556 0
M  V30 3343 C 338.719 -0.804268 -3.29218 0
M  V30 3344 C 337.892 -1.96376 -3.90839 0
M  V30 3345 C 336.951 -1.55806 -5.02604 0
M  V30 3346 O 335.977 -2.27203 -5.21888 0
M  V30 3347 N 337.179 -0.461609 -5.78662 0
M  V30 3348 H 339.944 -2.15326 -2.08458 0
M  V30 3349 H 337.505 -1.25971 -1.017 0
M  V30 3350 H 339.497 -0.51501 -4.0141 0
M  V30 3351 H 338.067 0.0668809 -3.12528 0
M  V30 3352 H 337.287 -2.41879 -3.11269 0
M  V30 3353 H 338.575 -2.73966 -4.28742 0
M  V30 3354 H 337.973 0.132343 -5.65545 0
M  V30 3355 H 336.53 -0.232013 -6.51387 0
M  V30 3356 N 339.963 1.05934 -1.16686 0
M  V30 3357 C 340.893 2.1546 -0.899949 0
M  V30 3358 C 341.874 1.69391 0.155154 0
M  V30 3359 O 343.059 1.94199 0.00648693 0
M  V30 3360 C 340.189 3.44939 -0.404241 0
M  V30 3361 C 339.143 4.04536 -1.39767 0
M  V30 3362 C 338.469 5.29268 -0.760216 0
M  V30 3363 C 339.769 4.42893 -2.76845 0
M  V30 3364 H 341.463 2.38046 -1.81588 0
M  V30 3365 H 339.009 1.14404 -0.874514 0
M  V30 3366 H 340.962 4.20901 -0.204971 0
M  V30 3367 H 339.686 3.21983 0.547206 0
M  V30 3368 H 338.345 3.30635 -1.58355 0
M  V30 3369 H 337.993 5.02611 0.197831 0
M  V30 3370 H 337.693 5.70101 -1.42332 0
M  V30 3371 H 339.217 6.07924 -0.57105 0
M  V30 3372 H 340.631 5.09921 -2.62019 0
M  V30 3373 H 339.028 4.94721 -3.39663 0
M  V30 3374 H 340.098 3.53584 -3.31823 0
M  V30 3375 N 341.441 0.965919 1.2453 0
M  V30 3376 C 342.404 0.499547 2.2369 0
M  V30 3377 C 343.404 -0.40294 1.5567 0
M  V30 3378 O 344.594 -0.19865 1.73064 0
M  V30 3379 C 341.726 -0.276792 3.39774 0
M  V30 3380 H 342.919 1.37613 2.66463 0
M  V30 3381 H 340.472 0.750324 1.37112 0
M  V30 3382 H 341.207 -1.17055 3.02438 0
M  V30 3383 H 340.992 0.370826 3.90343 0
M  V30 3384 H 342.482 -0.592175 4.1338 0
M  V30 3385 N 342.919 -1.39368 0.735821 0
M  V30 3386 C 343.882 -2.2896 0.104874 0
M  V30 3387 C 344.882 -1.46347 -0.666274 0
M  V30 3388 O 346.072 -1.67014 -0.49517 0
M  V30 3389 C 343.204 -3.29857 -0.860656 0
M  V30 3390 H 344.397 -2.86259 0.894205 0
M  V30 3391 H 341.95 -1.48029 0.501704 0
M  V30 3392 H 342.685 -2.77615 -1.67631 0
M  V30 3393 H 342.47 -3.9087 -0.310327 0
M  V30 3394 H 343.96 -3.96893 -1.29867 0
M  V30 3395 N 344.397 -0.483516 -1.5 0
M  V30 3396 C 345.329 0.340634 -2.26655 0
M  V30 3397 C 346.342 0.946152 -1.32483 0
M  V30 3398 O 347.531 0.832453 -1.579 0
M  V30 3399 C 344.631 1.4929 -3.04246 0
M  V30 3400 C 343.804 0.997903 -4.25865 0
M  V30 3401 C 342.863 2.02569 -4.85646 0
M  V30 3402 O 341.889 1.60128 -5.46212 0
M  V30 3403 N 343.091 3.3548 -4.73744 0
M  V30 3404 H 345.856 -0.316577 -2.98023 0
M  V30 3405 H 343.417 -0.315024 -1.58806 0
M  V30 3406 H 345.409 2.17766 -3.41116 0
M  V30 3407 H 343.979 2.05458 -2.35597 0
M  V30 3408 H 343.199 0.138617 -3.93956 0
M  V30 3409 H 344.487 0.645305 -5.04691 0
M  V30 3410 H 343.885 3.72661 -4.25605 0
M  V30 3411 H 342.442 3.99718 -5.14848 0
M  V30 3412 N 345.875 1.56104 -0.216619 0
M  V30 3413 C 346.807 2.17339 0.72776 0
M  V30 3414 C 347.82 1.14109 1.16116 0
M  V30 3415 O 349.009 1.4111 1.09317 0
M  V30 3416 C 346.109 2.73818 1.99693 0
M  V30 3417 C 345.282 4.02168 1.71988 0
M  V30 3418 C 344.341 4.43259 2.83562 0
M  V30 3419 O 343.367 5.10257 2.52244 0
M  V30 3420 N 344.569 4.08535 4.12407 0
M  V30 3421 H 347.334 2.99005 0.203983 0
M  V30 3422 H 344.895 1.61861 -0.0354289 0
M  V30 3423 H 346.887 2.9828 2.73516 0
M  V30 3424 H 345.457 1.96483 2.43132 0
M  V30 3425 H 344.677 3.85612 0.818337 0
M  V30 3426 H 345.965 4.85907 1.50903 0
M  V30 3427 H 345.363 3.54687 4.40696 0
M  V30 3428 H 343.92 4.37901 4.8279 0
M  V30 3429 N 347.353 -0.0568162 1.57498 0
M  V30 3430 C 348.581 -0.765626 1.92213 0
M  V30 3431 C 348.996 -1.70353 0.813961 0
M  V30 3432 O 348.353 -1.81268 -0.211701 0
M  V30 3433 C 348.404 -1.5465 3.2675 0
M  V30 3434 O 348.125 -0.646278 4.33307 0
M  V30 3435 C 349.626 -2.35497 3.75574 0
M  V30 3436 H 346.846 -0.216835 0.634999 0
M  V30 3437 H 349.39 -0.0226146 2.04487 0
M  V30 3438 H 347.545 -2.24165 3.15957 0
M  V30 3439 H 347.959 -1.19093 5.108 0
M  V30 3440 H 349.433 -2.85722 4.72299 0
M  V30 3441 H 349.91 -3.15692 3.05344 0
M  V30 3442 H 350.516 -1.7111 3.8936 0
M  V30 3443 N 348.832 -1.54138 -0.328536 0
M  V30 3444 C 349.795 -1.82462 -1.38709 0
M  V30 3445 C 350.795 -0.696229 -1.44946 0
M  V30 3446 O 351.985 -0.964535 -1.4506 0
M  V30 3447 C 349.117 -1.98018 -2.77492 0
M  V30 3448 H 350.31 -2.77037 -1.14851 0
M  V30 3449 H 347.863 -1.45779 -0.563751 0
M  V30 3450 H 348.598 -1.05637 -3.06613 0
M  V30 3451 H 348.383 -2.80124 -2.74359 0
M  V30 3452 H 349.873 -2.21396 -3.54081 0
M  V30 3453 N 350.31 0.590341 -1.46126 0
M  V30 3454 C 351.587 1.35029 -1.41515 0
M  V30 3455 C 351.967 2.10888 -0.0946472 0
M  V30 3456 O 351.315 2.08998 0.923693 0
M  V30 3457 C 351.525 2.28269 -2.63997 0
M  V30 3458 C 352.873 2.90338 -3.09821 0
M  V30 3459 O 353.897 2.38585 -2.64492 0
M  V30 3460 O 352.756 3.84321 -3.88535 0
M  V30 3461 H 349.85 0.606317 -0.562413 0
M  V30 3462 H 352.396 0.611994 -1.58281 0
M  V30 3463 H 351.168 1.71591 -3.51671 0
M  V30 3464 H 350.791 3.0945 -2.49652 0
M  V30 3465 N 351.788 1.33704 0.83433 0
M  V30 3466 C 352.735 1.24335 1.94447 0
M  V30 3467 C 353.705 0.120991 1.65659 0
M  V30 3468 O 354.89 0.300035 1.88426 0
M  V30 3469 C 352.03 0.993124 3.30501 0
M  V30 3470 C 351.143 2.20217 3.71657 0
M  V30 3471 C 350.278 1.88572 4.96602 0
M  V30 3472 C 349.317 3.05683 5.30306 0
M  V30 3473 N 348.454 2.73997 6.46429 0
M  V30 3474 H 353.294 2.1928 2.01792 0
M  V30 3475 H 350.831 1.09035 0.987404 0
M  V30 3476 H 352.789 0.828467 4.08892 0
M  V30 3477 H 351.419 0.0803902 3.227 0
M  V30 3478 H 350.471 2.47642 2.88752 0
M  V30 3479 H 351.783 3.07752 3.92543 0
M  V30 3480 H 350.937 1.68776 5.82752 0
M  V30 3481 H 349.676 0.982799 4.77695 0
M  V30 3482 H 348.681 3.26088 4.42659 0
M  V30 3483 H 349.906 3.96737 5.51159 0
M  V30 3484 H 347.852 1.86268 6.28999 0
M  V30 3485 H 347.769 3.55064 6.67432 0
M  V30 3486 H 349.037 2.57679 7.35678 0
M  V30 3487 N 353.266 -1.05314 1.17247 0
M  V30 3488 C 354.514 -1.77941 0.958194 0
M  V30 3489 C 354.835 -1.88089 -0.514556 0
M  V30 3490 O 354.105 -1.39676 -1.37359 0
M  V30 3491 H 352.685 -0.659116 0.351533 0
M  V30 3492 H 355.347 -1.27166 1.47699 0
M  V30 3493 H 354.443 -2.79663 1.38546 0
M  V30 3494 N 354.744 -0.972509 -1.24016 0
M  V30 3495 C 356.155 -0.67517 -1.74064 0
M  V30 3496 C 356.506 0.808939 -1.78747 0
M  V30 3497 O 355.631 1.63286 -1.42009 0
M  V30 3498 C 356.226 -1.21889 -3.16115 0
M  V30 3499 C 354.785 -0.971358 -3.6365 0
M  V30 3500 C 353.932 -1.35134 -2.42145 0
M  V30 3501 H 356.883 -1.14727 -1.09651 0
M  V30 3502 H 356.904 -0.587489 -3.75937 0
M  V30 3503 H 356.416 -2.29906 -3.12674 0
M  V30 3504 H 354.517 0.0930686 -3.72484 0
M  V30 3505 H 354.63 -1.62039 -4.50866 0
M  V30 3506 H 352.994 -0.769751 -2.4279 0
M  V30 3507 H 353.777 -2.4411 -2.41381 0
M  V30 3508 N 356.222 1.38976 -0.743202 0
M  V30 3509 C 357.47 1.99948 -0.29417 0
M  V30 3510 C 357.791 1.59279 1.12495 0
M  V30 3511 O 357.061 0.844808 1.76748 0
M  V30 3512 H 355.641 0.739473 -0.105774 0
M  V30 3513 H 358.303 1.699 -0.954986 0
M  V30 3514 H 357.399 3.10142 -0.349056 0
M  V30 3515 N 357.7 0.491464 1.49741 0
M  V30 3516 C 358.925 -0.0557177 2.07325 0
M  V30 3517 C 359.35 -1.30925 1.35056 0
M  V30 3518 O 358.708 -1.76733 0.404365 0
M  V30 3519 C 358.756 -0.302074 3.59333 0
M  V30 3520 O 357.86 -1.37868 3.88672 0
M  V30 3521 H 357.201 0.0219956 0.663636 0
M  V30 3522 H 359.731 0.688352 1.92673 0
M  V30 3523 H 359.741 -0.536464 4.04458 0
M  V30 3524 H 358.416 0.61383 4.11345 0
M  V30 3525 H 356.993 -1.12999 3.55367 0
M  V30 3526 N 359.178 -1.55987 0.224894 0
M  V30 3527 C 360.425 -1.9839 -0.4059 0
M  V30 3528 C 360.753 -1.11261 -1.59535 0
M  V30 3529 O 360.008 -0.158314 -1.95059 0
M  V30 3530 C 360.307 -3.46394 -0.880106 0
M  V30 3531 C 359.973 -4.5046 0.19918 0
M  V30 3532 C 358.635 -4.7864 0.495661 0
M  V30 3533 C 360.987 -5.12855 0.928939 0
M  V30 3534 C 358.315 -5.66497 1.52636 0
M  V30 3535 C 360.667 -6.01828 1.949 0
M  V30 3536 C 359.331 -6.28351 2.25236 0
M  V30 3537 H 358.601 -0.725961 -0.148529 0
M  V30 3538 H 361.248 -1.88668 0.328113 0
M  V30 3539 H 359.553 -3.53337 -1.69294 0
M  V30 3540 H 361.25 -3.76577 -1.37808 0
M  V30 3541 H 357.84 -4.28579 -0.0420526 0
M  V30 3542 H 362.024 -4.9115 0.713129 0
M  V30 3543 H 357.28 -5.8531 1.76698 0
M  V30 3544 H 361.454 -6.49225 2.51951 0
M  V30 3545 H 359.081 -6.96226 3.05244 0
M  V30 3546 N 360.656 0.0484629 -1.57525 0
M  V30 3547 C 361.588 1.08222 -2.02041 0
M  V30 3548 C 362.601 1.33621 -0.930012 0
M  V30 3549 O 363.79 1.3145 -1.20761 0
M  V30 3550 C 360.89 2.42818 -2.36416 0
M  V30 3551 C 360.063 2.37049 -3.67596 0
M  V30 3552 C 359.122 3.53937 -3.89378 0
M  V30 3553 O 358.148 3.34308 -4.60681 0
M  V30 3554 N 359.35 4.75126 -3.3352 0
M  V30 3555 H 362.115 0.702946 -2.9134 0
M  V30 3556 H 359.676 0.236745 -1.6016 0
M  V30 3557 H 361.668 3.197 -2.48141 0
M  V30 3558 H 360.238 2.72661 -1.52888 0
M  V30 3559 H 359.458 1.45395 -3.66407 0
M  V30 3560 H 360.746 2.30318 -4.53686 0
M  V30 3561 H 360.144 4.93976 -2.75688 0
M  V30 3562 H 358.701 5.49439 -3.50656 0
M  V30 3563 N 362.134 1.5431 0.320358 0
M  V30 3564 C 363.383 1.7188 1.05546 0
M  V30 3565 C 363.696 0.501143 1.89071 0
M  V30 3566 O 364.902 0.558258 2.65699 0
M  V30 3567 C 363.358 3.04025 1.92605 0
M  V30 3568 C 362.966 4.33207 1.14176 0
M  V30 3569 C 364.71 3.30959 2.65832 0
M  V30 3570 C 362.617 5.56412 2.00399 0
M  V30 3571 H 361.547 0.640547 0.397763 0
M  V30 3572 H 364.198 1.80802 0.313522 0
M  V30 3573 H 362.58 2.89019 2.7071 0
M  V30 3574 H 363.754 4.58989 0.40819 0
M  V30 3575 H 362.069 4.13062 0.526165 0
M  V30 3576 H 364.666 4.20203 3.30656 0
M  V30 3577 H 365.009 2.48979 3.33639 0
M  V30 3578 H 365.542 3.46847 1.94787 0
M  V30 3579 H 362.281 6.41004 1.37094 0
M  V30 3580 H 361.801 5.34844 2.7148 0
M  V30 3581 H 363.48 5.92938 2.58908 0
M  V30 3582 N 363.613 -0.582584 1.46437 0
M  V30 3583 C 364.523 -1.71949 1.59595 0
M  V30 3584 C 365.539 -1.67264 0.479443 0
M  V30 3585 O 366.715 -1.87171 0.743579 0
M  V30 3586 C 363.78 -3.08452 1.58298 0
M  V30 3587 C 362.841 -3.244 2.81182 0
M  V30 3588 C 362.074 -4.54391 2.79937 0
M  V30 3589 O 362.297 -5.38287 1.8869 0
M  V30 3590 O 361.231 -4.73588 3.71481 0
M  V30 3591 H 365.057 -1.63795 2.55744 0
M  V30 3592 H 362.642 -0.749643 1.29231 0
M  V30 3593 H 364.524 -3.89732 1.60271 0
M  V30 3594 H 363.199 -3.17043 0.653094 0
M  V30 3595 H 362.106 -2.42613 2.84763 0
M  V30 3596 H 363.439 -3.20699 3.7338 0
M  V30 3597 N 365.091 -1.34144 -0.827227 0
M  V30 3598 C 366.021 -1.28005 -1.95287 0
M  V30 3599 C 367.002 -0.158321 -1.69362 0
M  V30 3600 O 368.187 -0.349987 -1.9102 0
M  V30 3601 C 365.317 -1.03036 -3.31664 0
M  V30 3602 C 364.271 -2.11628 -3.72019 0
M  V30 3603 C 363.597 -1.71854 -5.0633 0
M  V30 3604 C 364.897 -3.53417 -3.8457 0
M  V30 3605 H 366.591 -2.22187 -2.00682 0
M  V30 3606 H 364.137 -1.0696 -0.964135 0
M  V30 3607 H 366.09 -0.973863 -4.09993 0
M  V30 3608 H 364.814 -0.0529391 -3.26557 0
M  V30 3609 H 363.473 -2.16339 -2.95961 0
M  V30 3610 H 363.121 -0.727841 -4.97706 0
M  V30 3611 H 362.821 -2.44531 -5.34302 0
M  V30 3612 H 364.345 -1.67692 -5.87122 0
M  V30 3613 H 365.759 -3.51142 -4.5318 0
M  V30 3614 H 364.156 -4.24679 -4.2399 0
M  V30 3615 H 365.226 -3.91072 -2.86689 0
M  V30 3616 N 366.569 1.04691 -1.17803 0
M  V30 3617 C 367.499 2.14494 -0.92275 0
M  V30 3618 C 368.48 1.69546 0.137179 0
M  V30 3619 O 369.665 1.94195 -0.0141108 0
M  V30 3620 C 366.795 3.44491 -0.440803 0
M  V30 3621 C 365.749 4.03031 -1.4405 0
M  V30 3622 C 365.075 5.28432 -0.81631 0
M  V30 3623 C 366.375 4.39932 -2.81527 0
M  V30 3624 H 368.069 2.36107 -1.84103 0
M  V30 3625 H 365.615 1.1347 -0.886599 0
M  V30 3626 H 367.568 4.2066 -0.249602 0
M  V30 3627 H 366.292 3.22546 0.513025 0
M  V30 3628 H 364.951 3.28937 -1.61853 0
M  V30 3629 H 364.599 5.02792 0.144511 0
M  V30 3630 H 364.299 5.68559 -1.48371 0
M  V30 3631 H 365.823 6.07284 -0.635496 0
M  V30 3632 H 367.237 5.07113 -2.67412 0
M  V30 3633 H 365.634 4.9109 -3.44892 0
M  V30 3634 H 366.704 3.50045 -3.35554 0
M  V30 3635 N 368.047 0.979072 1.23499 0
M  V30 3636 C 368.995 0.510604 2.26926 0
M  V30 3637 C 369.989 -0.431691 1.63807 0
M  V30 3638 O 371.195 -0.30573 1.77385 0
M  V30 3639 H 367.57 0.146688 0.737554 0
M  V30 3640 H 369.541 1.39466 2.63803 0
M  V30 3641 C 368.29 -0.172658 3.47271 0
M  V30 3642 H 367.613 0.543331 3.96091 0
M  V30 3643 H 369.053 -0.464101 4.21452 0
M  V30 3644 C 367.512 -1.40345 3.06276 0
M  V30 3645 O 368.042 -2.49978 3.14442 0
M  V30 3646 N 366.248 -1.27362 2.61203 0
M  V30 3647 H 365.795 -0.381584 2.54758 0
M  V30 3648 H 365.753 -2.09822 2.34141 0
M  V30 3649 N 369.525 -1.3858 0.750561 0
M  V30 3650 C 370.472 -2.30483 0.120835 0
M  V30 3651 C 371.442 -1.50022 -0.712923 0
M  V30 3652 O 372.627 -1.78662 -0.669676 0
M  V30 3653 C 369.767 -3.36431 -0.768666 0
M  V30 3654 C 368.88 -4.31927 0.0793922 0
M  V30 3655 C 368.015 -5.24944 -0.81283 0
M  V30 3656 C 367.054 -6.12088 0.0390447 0
M  V30 3657 N 366.191 -6.97412 -0.809969 0
M  V30 3658 H 371.031 -2.83761 0.91015 0
M  V30 3659 H 368.568 -1.39707 0.460463 0
M  V30 3660 H 370.526 -3.96462 -1.29898 0
M  V30 3661 H 369.156 -2.8457 -1.5238 0
M  V30 3662 H 368.208 -3.73382 0.727303 0
M  V30 3663 H 369.52 -4.93319 0.737401 0
M  V30 3664 H 368.674 -5.90078 -1.41042 0
M  V30 3665 H 367.413 -4.63911 -1.50458 0
M  V30 3666 H 366.418 -5.45952 0.649328 0
M  V30 3667 H 367.643 -6.75189 0.727809 0
M  V30 3668 H 365.589 -6.38931 -1.48672 0
M  V30 3669 H 365.506 -7.55712 -0.208789 0
M  V30 3670 H 366.774 -7.66959 -1.39263 0
M  V30 3671 N 371.003 -0.499398 -1.49478 0
M  V30 3672 C 371.933 0.269244 -2.31943 0
M  V30 3673 C 372.914 0.964054 -1.40143 0
M  V30 3674 O 374.099 0.955767 -1.69052 0
M  V30 3675 C 371.229 1.33504 -3.20615 0
M  V30 3676 C 370.183 0.760202 -4.21195 0
M  V30 3677 C 369.509 1.9264 -4.98792 0
M  V30 3678 C 370.809 -0.247661 -5.21712 0
M  V30 3679 H 372.503 -0.419082 -2.96452 0
M  V30 3680 H 370.049 -0.202988 -1.42562 0
M  V30 3681 H 372.002 1.88048 -3.77115 0
M  V30 3682 H 370.726 2.05253 -2.54045 0
M  V30 3683 H 369.385 0.23653 -3.65836 0
M  V30 3684 H 369.033 2.63154 -4.28671 0
M  V30 3685 H 368.733 1.54785 -5.66847 0
M  V30 3686 H 370.257 2.4762 -5.58137 0
M  V30 3687 H 371.671 0.209579 -5.72917 0
M  V30 3688 H 370.068 -0.541962 -5.97648 0
M  V30 3689 H 371.138 -1.16409 -4.7072 0
M  V30 3690 N 372.481 1.55866 -0.233164 0
M  V30 3691 C 373.706 2.03449 0.402906 0
M  V30 3692 C 374.131 1.11166 1.51736 0
M  V30 3693 O 373.489 0.101996 1.81013 0
M  V30 3694 C 373.537 3.49165 0.9009 0
M  V30 3695 O 372.641 3.60019 2.01147 0
M  V30 3696 H 371.982 0.657913 0.0897025 0
M  V30 3697 H 374.512 2.01493 -0.355201 0
M  V30 3698 H 374.522 3.89716 1.2077 0
M  V30 3699 H 373.197 4.15813 0.0852889 0
M  V30 3700 H 371.774 3.3136 1.71042 0
M  V30 3701 N 373.959 -0.0401083 1.57549 0
M  V30 3702 C 375.187 -0.745196 1.93014 0
M  V30 3703 C 375.602 -1.6948 0.831984 0
M  V30 3704 O 374.959 -1.81482 -0.192463 0
M  V30 3705 C 375.01 -1.51176 3.28372 0
M  V30 3706 O 374.731 -0.600284 4.33968 0
M  V30 3707 C 376.232 -2.315 3.78051 0
M  V30 3708 H 373.452 -0.210088 0.637263 0
M  V30 3709 H 375.996 -0.000924689 2.045 0
M  V30 3710 H 374.151 -2.20801 3.18317 0
M  V30 3711 H 374.565 -1.13669 5.12035 0
M  V30 3712 H 376.039 -2.80697 4.75303 0
M  V30 3713 H 376.516 -3.12436 3.08675 0
M  V30 3714 H 377.122 -1.66971 3.91153 0
M  V30 3715 N 375.437 -1.54477 -0.31217 0
M  V30 3716 C 376.683 -1.73483 -1.0503 0
M  V30 3717 C 377.016 -0.513125 -1.87298 0
M  V30 3718 O 376.291 0.489864 -1.8823 0
M  V30 3719 C 376.574 -3.01723 -1.96558 0
M  V30 3720 C 376.427 -4.3417 -1.17545 0
M  V30 3721 C 377.746 -3.25772 -2.95907 0
M  V30 3722 H 374.865 -0.631222 -0.380432 0
M  V30 3723 H 377.507 -1.87184 -0.325932 0
M  V30 3724 H 375.657 -2.90174 -2.58324 0
M  V30 3725 H 377.329 -4.5762 -0.581513 0
M  V30 3726 H 375.572 -4.31159 -0.477925 0
M  V30 3727 H 376.243 -5.20143 -1.84811 0
M  V30 3728 H 378.719 -3.36857 -2.44267 0
M  V30 3729 H 377.595 -4.16838 -3.57123 0
M  V30 3730 H 377.856 -2.43537 -3.68974 0
M  V30 3731 N 376.915 0.57481 -1.46744 0
M  V30 3732 C 378.143 1.35856 -1.56047 0
M  V30 3733 C 378.558 1.87691 -0.204365 0
M  V30 3734 O 377.915 1.64049 0.79963 0
M  V30 3735 C 377.966 2.54066 -2.57163 0
M  V30 3736 O 377.687 2.04377 -3.87507 0
M  V30 3737 C 379.188 3.46514 -2.76483 0
M  V30 3738 H 376.408 0.414754 -0.527466 0
M  V30 3739 H 378.952 0.698035 -1.92218 0
M  V30 3740 H 377.107 3.16092 -2.23974 0
M  V30 3741 H 377.521 2.81419 -4.4261 0
M  V30 3742 H 378.995 4.25919 -3.51137 0
M  V30 3743 H 379.472 3.98951 -1.83671 0
M  V30 3744 H 380.078 2.90318 -3.10799 0
M  V30 3745 N 378.394 1.34581 0.820102 0
M  V30 3746 C 379.304 1.28471 1.96297 0
M  V30 3747 C 380.32 0.191902 1.72939 0
M  V30 3748 O 381.496 0.418879 1.96996 0
M  V30 3749 C 378.561 1.04281 3.30645 0
M  V30 3750 C 377.622 2.22745 3.66992 0
M  V30 3751 C 376.855 1.997 4.9493 0
M  V30 3752 O 377.078 0.956656 5.6232 0
M  V30 3753 O 376.012 2.86723 5.2922 0
M  V30 3754 H 379.838 2.24624 2.04396 0
M  V30 3755 H 377.423 1.14816 0.955913 0
M  V30 3756 H 379.305 0.925841 4.11104 0
M  V30 3757 H 377.98 0.111697 3.23507 0
M  V30 3758 H 376.887 2.40003 2.86966 0
M  V30 3759 H 378.22 3.14257 3.78819 0
M  V30 3760 N 379.872 -1.04064 1.18357 0
M  V30 3761 C 380.804 -2.12114 0.868358 0
M  V30 3762 C 381.817 -1.62247 -0.134045 0
M  V30 3763 O 383.006 -1.78253 0.0937933 0
M  V30 3764 C 380.106 -3.37773 0.276132 0
M  V30 3765 C 379.279 -4.16874 1.3242 0
M  V30 3766 C 378.338 -5.20861 0.747662 0
M  V30 3767 O 377.364 -5.51141 1.42239 0
M  V30 3768 N 378.566 -5.78715 -0.454823 0
M  V30 3769 H 381.331 -2.39748 1.79836 0
M  V30 3770 H 378.892 -1.20258 1.08396 0
M  V30 3771 H 380.884 -4.04513 -0.123133 0
M  V30 3772 H 379.454 -3.07581 -0.557895 0
M  V30 3773 H 378.674 -3.45456 1.89878 0
M  V30 3774 H 379.962 -4.66516 2.03078 0
M  V30 3775 H 379.36 -5.56415 -1.02073 0
M  V30 3776 H 377.917 -6.46921 -0.79601 0
M  V30 3777 N 381.35 -0.985608 -1.22978 0
M  V30 3778 C 382.627 -0.573599 -1.87001 0
M  V30 3779 C 383.007 0.949213 -1.88555 0
M  V30 3780 O 382.355 1.82811 -1.37086 0
M  V30 3781 C 382.565 -1.18564 -3.28243 0
M  V30 3782 C 383.913 -1.28163 -4.04796 0
M  V30 3783 O 384.937 -1.13949 -3.37482 0
M  V30 3784 O 383.796 -1.50832 -5.25273 0
M  V30 3785 H 380.89 -0.193868 -0.803955 0
M  V30 3786 H 383.436 -1.08102 -1.30813 0
M  V30 3787 H 382.208 -2.22758 -3.21706 0
M  V30 3788 H 381.831 -0.663363 -3.92027 0
M  V30 3789 N 382.828 1.3818 -0.7579 0
M  V30 3790 C 384.074 2.00316 -0.316453 0
M  V30 3791 C 384.407 1.60026 1.10025 0
M  V30 3792 O 383.682 0.839835 1.75434 0
M  V30 3793 C 383.965 3.57349 -0.444245 0
M  V30 3794 C 383.818 4.07591 -1.90236 0
M  V30 3795 C 385.137 4.3981 0.1598 0
M  V30 3796 H 382.256 0.727741 -0.116459 0
M  V30 3797 H 384.898 1.6406 -0.958352 0
M  V30 3798 H 383.048 3.88365 0.102233 0
M  V30 3799 H 384.72 3.87199 -2.50748 0
M  V30 3800 H 382.963 3.60297 -2.41595 0
M  V30 3801 H 383.634 5.16677 -1.94291 0
M  V30 3802 H 386.11 4.14971 -0.306314 0
M  V30 3803 H 384.986 5.48885 0.0401675 0
M  V30 3804 H 385.247 4.24102 1.24859 0
M  V30 3805 N 384.306 0.507319 1.49211 0
M  V30 3806 C 385.238 -0.304532 2.27168 0
M  V30 3807 C 386.251 -0.924956 1.33972 0
M  V30 3808 O 387.44 -0.807227 1.59205 0
M  V30 3809 C 384.54 -1.44431 3.06583 0
M  V30 3810 C 383.713 -0.930026 4.27398 0
M  V30 3811 C 382.772 -1.94817 4.88807 0
M  V30 3812 O 381.798 -1.51418 5.4869 0
M  V30 3813 N 383 -3.279 4.79022 0
M  V30 3814 H 385.765 0.36395 2.97482 0
M  V30 3815 H 383.326 0.340249 1.58284 0
M  V30 3816 H 385.318 -2.12311 3.44537 0
M  V30 3817 H 383.888 -2.01684 2.38835 0
M  V30 3818 H 383.108 -0.0759244 3.94127 0
M  V30 3819 H 384.396 -0.564932 5.05654 0
M  V30 3820 H 383.794 -3.65843 4.3148 0
M  V30 3821 H 382.351 -3.91476 5.21142 0
M  V30 3822 N 385.784 -1.5574 0.241426 0
M  V30 3823 C 386.694 -2.2479 -0.671305 0
M  V30 3824 C 387.71 -1.26217 -1.19772 0
M  V30 3825 O 388.886 -1.59079 -1.23514 0
M  V30 3826 C 385.951 -2.92966 -1.85396 0
M  V30 3827 C 385.012 -4.06935 -1.36756 0
M  V30 3828 C 384.245 -4.71851 -2.49384 0
M  V30 3829 O 384.468 -4.35823 -3.67987 0
M  V30 3830 O 383.402 -5.60467 -2.19454 0
M  V30 3831 H 387.228 -3.0349 -0.112966 0
M  V30 3832 H 384.813 -1.49397 0.0101513 0
M  V30 3833 H 386.695 -3.35927 -2.54423 0
M  V30 3834 H 385.37 -2.17211 -2.40002 0
M  V30 3835 H 384.277 -3.68503 -0.644726 0
M  V30 3836 H 385.61 -4.84492 -0.867647 0
M  V30 3837 N 387.262 0.0317525 -1.57568 0
M  V30 3838 C 388.508 0.718712 -1.90279 0
M  V30 3839 C 388.863 1.73108 -0.839727 0
M  V30 3840 O 388.156 1.90997 0.15188 0
M  V30 3841 C 388.35 1.43167 -3.27472 0
M  V30 3842 C 388.179 0.489869 -4.47024 0
M  V30 3843 C 386.949 0.111909 -5.05176 0
M  V30 3844 C 389.147 -0.230592 -5.13783 0
M  V30 3845 N 387.129 -0.831427 -6.08244 0
M  V30 3846 C 388.5 -1.02968 -6.1139 0
M  V30 3847 C 390.555 -0.297821 -4.97008 0
M  V30 3848 C 389.258 -1.88982 -6.9403 0
M  V30 3849 C 391.284 -1.14507 -5.80209 0
M  V30 3850 C 390.646 -1.9321 -6.77384 0
M  V30 3851 H 386.745 0.237177 -0.745165 0
M  V30 3852 H 389.329 -0.0211267 -1.94689 0
M  V30 3853 H 387.5 2.14199 -3.23996 0
M  V30 3854 H 389.232 2.0708 -3.47707 0
M  V30 3855 H 385.987 0.473513 -4.71227 0
M  V30 3856 H 386.411 -1.29752 -6.6445 0
M  V30 3857 H 391.053 0.296346 -4.2176 0
M  V30 3858 H 388.771 -2.4948 -7.68626 0
M  V30 3859 H 392.357 -1.20059 -5.69278 0
M  V30 3860 H 391.237 -2.57711 -7.40645 0
M  V30 3861 N 388.74 1.54641 0.303973 0
M  V30 3862 C 389.703 1.84646 1.35789 0
M  V30 3863 C 390.703 0.7192 1.4382 0
M  V30 3864 O 391.893 0.987491 1.43507 0
M  V30 3865 C 389.025 2.02407 2.74307 0
M  V30 3866 H 390.218 2.78829 1.10429 0
M  V30 3867 H 387.771 1.46658 0.540487 0
M  V30 3868 H 388.506 1.10502 3.04893 0
M  V30 3869 H 388.291 2.84453 2.69868 0
M  V30 3870 H 389.781 2.27002 3.50514 0
M  V30 3871 N 390.218 -0.567019 1.47046 0
M  V30 3872 C 391.446 -1.35027 1.56765 0
M  V30 3873 C 391.861 -1.8758 0.214316 0
M  V30 3874 O 391.218 -1.64471 -0.790919 0
M  V30 3875 C 391.269 -2.52698 2.58507 0
M  V30 3876 O 390.99 -2.0232 3.88585 0
M  V30 3877 C 392.491 -3.45043 2.78316 0
M  V30 3878 H 389.711 -0.41195 0.529658 0
M  V30 3879 H 392.255 -0.687832 1.92585 0
M  V30 3880 H 390.41 -3.149 2.25648 0
M  V30 3881 H 390.824 -2.79068 4.44096 0
M  V30 3882 H 392.298 -4.2405 3.53391 0
M  V30 3883 H 392.775 -3.97971 1.85784 0
M  V30 3884 H 393.381 -2.88665 3.12334 0
M  V30 3885 N 391.696 -1.35014 -0.812953 0
M  V30 3886 C 392.945 -1.27269 -1.56479 0
M  V30 3887 C 393.258 0.152771 -1.95002 0
M  V30 3888 O 394.464 0.352451 -2.69203 0
M  V30 3889 C 392.92 -2.23159 -2.82362 0
M  V30 3890 C 392.528 -3.71016 -2.511 0
M  V30 3891 C 394.272 -2.24342 -3.60376 0
M  V30 3892 C 392.179 -4.58746 -3.73237 0
M  V30 3893 H 391.109 -0.472829 -0.587324 0
M  V30 3894 H 393.76 -1.6024 -0.894171 0
M  V30 3895 H 392.142 -1.83151 -3.51101 0
M  V30 3896 H 393.316 -4.1962 -1.90409 0
M  V30 3897 H 391.631 -3.72378 -1.86343 0
M  V30 3898 H 394.228 -2.87107 -4.51081 0
M  V30 3899 H 394.571 -1.24542 -3.97234 0
M  V30 3900 H 395.104 -2.62846 -2.98591 0
M  V30 3901 H 391.843 -5.59521 -3.41492 0
M  V30 3902 H 391.363 -4.14871 -4.33176 0
M  V30 3903 H 393.042 -4.73852 -4.40537 0
M  V30 3904 N 393.175 1.03435 -1.18907 0
M  V30 3905 C 394.085 2.15075 -0.937015 0
M  V30 3906 C 395.101 1.73706 0.101085 0
M  V30 3907 O 396.277 2.01232 -0.0822948 0
M  V30 3908 C 393.342 3.43458 -0.473057 0
M  V30 3909 C 392.403 3.99172 -1.57989 0
M  V30 3910 C 391.636 5.21427 -1.13797 0
M  V30 3911 O 391.859 5.704 0.000725941 0
M  V30 3912 O 390.793 5.69837 -1.9383 0
M  V30 3913 H 394.619 2.39198 -1.87131 0
M  V30 3914 H 392.204 1.13506 -0.971427 0
M  V30 3915 H 394.086 4.20811 -0.222702 0
M  V30 3916 H 392.761 3.20793 0.432869 0
M  V30 3917 H 391.668 3.23178 -1.88433 0
M  V30 3918 H 393.001 4.2619 -2.46217 0
M  V30 3919 N 394.653 0.992116 1.22453 0
M  V30 3920 C 396.069 0.702713 1.43297 0
M  V30 3921 C 396.269 -0.726909 1.87932 0
M  V30 3922 O 395.325 -1.49792 2.0327 0
M  V30 3923 C 396.638 1.70762 2.47509 0
M  V30 3924 C 398.186 1.72298 2.61309 0
M  V30 3925 C 398.661 2.71649 3.68742 0
M  V30 3926 N 400.152 2.70239 3.76199 0
M  V30 3927 C 400.887 3.43778 4.58917 0
M  V30 3928 N 400.383 4.26914 5.45633 0
M  V30 3929 N 402.176 3.32487 4.5322 0
M  V30 3930 H 394.327 1.91543 0.917871 0
M  V30 3931 H 396.59 0.826031 0.465162 0
M  V30 3932 H 396.296 2.73059 2.21657 0
M  V30 3933 H 396.17 1.49985 3.46099 0
M  V30 3934 H 398.557 0.706989 2.86506 0
M  V30 3935 H 398.638 1.97143 1.62997 0
M  V30 3936 H 398.282 3.73397 3.44292 0
M  V30 3937 H 398.212 2.44074 4.66622 0
M  V30 3938 H 400.703 2.09912 3.14237 0
M  V30 3939 H 401.016 4.79855 6.05771 0
M  V30 3940 H 399.361 4.31002 5.45218 0
M  V30 3941 H 402.552 2.6698 3.84499 0
M  V30 3942 H 402.725 3.90058 5.17454 0
M  V30 3943 N 396.131 -1.37776 0.765217 0
M  V30 3944 C 397.377 -2.00145 0.327072 0
M  V30 3945 C 397.71 -1.60607 -1.09175 0
M  V30 3946 O 396.985 -0.849127 -1.74986 0
M  V30 3947 C 397.268 -3.57109 0.46319 0
M  V30 3948 C 397.121 -4.06576 1.92395 0
M  V30 3949 C 398.44 -4.39888 -0.136473 0
M  V30 3950 H 395.559 -0.727113 0.120316 0
M  V30 3951 H 398.201 -1.63549 0.967039 0
M  V30 3952 H 396.351 -3.88414 -0.0816358 0
M  V30 3953 H 398.023 -3.85864 2.52798 0
M  V30 3954 H 396.266 -3.59011 2.43503 0
M  V30 3955 H 396.937 -5.15639 1.97028 0
M  V30 3956 H 399.413 -4.14803 0.328317 0
M  V30 3957 H 398.289 -5.48899 -0.0110582 0
M  V30 3958 H 398.55 -4.24758 -1.22608 0
M  V30 3959 N 397.609 -0.515225 -1.4894 0
M  V30 3960 C 398.837 0.0206034 -2.0689 0
M  V30 3961 C 399.252 1.29514 -1.37374 0
M  V30 3962 O 398.609 1.76698 -0.456529 0
M  V30 3963 C 398.66 0.26351 -3.60538 0
M  V30 3964 O 398.381 -0.960517 -4.27441 0
M  V30 3965 C 399.882 0.841383 -4.35242 0
M  V30 3966 H 397.102 -0.0268608 -0.670462 0
M  V30 3967 H 399.646 -0.716651 -1.91532 0
M  V30 3968 H 397.801 0.950777 -3.75552 0
M  V30 3969 H 398.215 -0.73212 -5.19365 0
M  V30 3970 H 399.689 0.96085 -5.43573 0
M  V30 3971 H 400.166 1.8427 -3.98674 0
M  V30 3972 H 400.772 0.191143 -4.2487 0
M  V30 3973 N 399.087 1.5561 -0.249682 0
M  V30 3974 C 400.333 1.99306 0.374841 0
M  V30 3975 C 400.666 1.13767 1.57387 0
M  V30 3976 O 399.941 0.201711 1.93451 0
M  V30 3977 C 400.224 3.51507 0.781986 0
M  V30 3978 C 400.077 4.4781 -0.422629 0
M  V30 3979 C 401.396 4.08884 1.62793 0
M  V30 3980 H 398.515 0.724572 0.134773 0
M  V30 3981 H 401.157 1.86719 -0.351549 0
M  V30 3982 H 399.307 3.62363 1.4009 0
M  V30 3983 H 400.979 4.48931 -1.06108 0
M  V30 3984 H 399.222 4.20518 -1.06524 0
M  V30 3985 H 399.893 5.51919 -0.0943766 0
M  V30 3986 H 402.369 4.01147 1.10547 0
M  V30 3987 H 401.245 5.1564 1.88166 0
M  V30 3988 H 401.506 3.57515 2.60068 0
M  V30 3989 N 400.565 -0.0233959 1.57583 0
M  V30 3990 C 401.79 -0.728376 1.94189 0
M  V30 3991 C 402.215 -1.67793 0.850119 0
M  V30 3992 O 401.573 -1.80262 -0.19371 0
M  V30 3993 C 401.621 -1.45669 3.29868 0
M  V30 3994 O 400.725 -2.57013 3.22518 0
M  V30 3995 H 400.066 -0.195493 0.63457 0
M  V30 3996 H 402.596 0.0228214 2.04587 0
M  V30 3997 H 402.606 -1.82535 3.6489 0
M  V30 3998 H 401.281 -0.760314 4.08891 0
M  V30 3999 H 399.858 -2.22648 2.99136 0
M  V30 4000 O 402.082 -1.60643 -0.16613 0
M  V30 4001 H 402.773 -1.76304 -0.80228 0
M  V30 END ATOM
M  V30 BEGIN BOND
M  V30 END BOND
M  V30 END CTAB
M  END
$$$$
