drugbank_target|P39662 Flavohemoprotein (DB03147; DB03979)
 OpenBabel12092119583D

  0  0  0     0  0            999 V3000
M  V30 BEGIN CTAB
M  V30 COUNTS 6269 6346 0 0 0
M  V30 BEGIN ATOM
M  V30 1 H -0.908 1.98254 -0.117106 0
M  V30 2 N 0 1.576 0 0
M  V30 3 C 0.933 2.03868 1.02534 0
M  V30 4 C 1.911 0.928543 1.3348 0
M  V30 5 O 3.095 1.19667 1.45644 0
M  V30 6 C 0.222 2.43627 2.35294 0
M  V30 7 C -0.732 3.65373 2.2001 0
M  V30 8 S 0.101 5.13292 1.52614 0
M  V30 9 C 1.257 5.56322 2.86805 0
M  V30 10 H 1.49 2.90518 0.631377 0
M  V30 11 H -0.977 1.52953 0.210867 0
M  V30 12 H 0.981 2.67203 3.11629 0
M  V30 13 H -0.358 1.57376 2.7183 0
M  V30 14 H -1.165 3.90944 3.18086 0
M  V30 15 H -1.563 3.418 1.51819 0
M  V30 16 H 0.729 5.58782 3.83104 0
M  V30 17 H 1.672 6.56266 2.65933 0
M  V30 18 H 2.08 4.83886 2.90714 0
M  V30 19 N 1.4781 -0.272755 1.55222 0
M  V30 20 C 2.4081 -1.34136 1.91127 0
M  V30 21 C 3.3891 -1.51513 0.773168 0
M  V30 22 O 4.5741 -1.64552 1.03132 0
M  V30 23 C 1.7041 -2.70083 2.1834 0
M  V30 24 C 0.6581 -2.67437 3.34158 0
M  V30 25 C -0.0159 -4.06938 3.46851 0
M  V30 26 C 1.2841 -2.26686 4.70543 0
M  V30 27 H 2.9781 -1.04333 2.80633 0
M  V30 28 H 0.5241 -0.500454 1.35024 0
M  V30 29 H 2.4771 -3.44952 2.42046 0
M  V30 30 H 1.2011 -3.01469 1.25634 0
M  V30 31 H -0.1399 -1.95026 3.1042 0
M  V30 32 H -0.4919 -4.35547 2.51611 0
M  V30 33 H -0.7919 -4.06062 4.2472 0
M  V30 34 H 0.7321 -4.83545 3.72849 0
M  V30 35 H 2.1461 -2.91277 4.93792 0
M  V30 36 H 0.5431 -2.36971 5.5133 0
M  V30 37 H 1.6131 -1.21818 4.69349 0
M  V30 38 N 2.9562 -1.48159 -0.537278 0
M  V30 39 C 4.1842 -1.59454 -1.31841 0
M  V30 40 C 4.5992 -0.252065 -1.8711 0
M  V30 41 O 3.9562 0.757621 -1.66031 0
M  V30 42 C 4.0072 -2.63546 -2.47439 0
M  V30 43 O 3.7282 -3.92583 -1.94449 0
M  V30 44 C 5.2292 -2.85212 -3.39366 0
M  V30 45 H 2.4492 -0.53785 -0.401196 0
M  V30 46 H 4.9932 -1.93932 -0.648891 0
M  V30 47 H 3.1482 -2.31946 -3.1029 0
M  V30 48 H 3.5622 -4.49629 -2.70063 0
M  V30 49 H 5.0362 -3.61863 -4.16844 0
M  V30 50 H 5.5132 -1.93765 -3.94147 0
M  V30 51 H 6.1192 -3.18086 -2.82314 0
M  V30 52 N 4.4343 0.785586 -1.36625 0
M  V30 53 C 5.3663 1.90711 -1.2713 0
M  V30 54 C 6.3793 1.61688 -0.189986 0
M  V30 55 O 7.5683 1.72864 -0.445014 0
M  V30 56 C 4.6683 3.25611 -0.939713 0
M  V30 57 C 3.8413 3.82385 -2.12369 0
M  V30 58 C 2.9003 4.95732 -1.76456 0
M  V30 59 O 1.9263 5.12047 -2.48589 0
M  V30 60 N 3.1283 5.76258 -0.700492 0
M  V30 61 H 5.8933 1.99376 -2.23762 0
M  V30 62 H 3.4543 0.964041 -1.30069 0
M  V30 63 H 5.4463 3.98937 -0.680554 0
M  V30 64 H 4.0163 3.12538 -0.0624074 0
M  V30 65 H 3.2363 3.01001 -2.54543 0
M  V30 66 H 4.5243 4.17047 -2.9146 0
M  V30 67 H 3.9223 5.65609 -0.101624 0
M  V30 68 H 2.4793 6.4987 -0.501165 0
M  V30 69 N 5.9124 1.20967 1.01018 0
M  V30 70 C 6.8594 0.964281 2.09691 0
M  V30 71 C 7.8294 -0.107853 1.65749 0
M  V30 72 O 9.0144 0.0381987 1.90762 0
M  V30 73 C 6.1544 0.52943 3.41015 0
M  V30 74 C 5.2674 1.67043 3.98398 0
M  V30 75 C 4.4024 1.18525 5.17808 0
M  V30 76 C 3.4414 2.29892 5.67288 0
M  V30 77 N 2.5784 1.82546 6.77954 0
M  V30 78 H 7.4184 1.89463 2.30017 0
M  V30 79 H 4.9554 0.944289 1.1279 0
M  V30 80 H 6.9134 0.258588 4.16398 0
M  V30 81 H 5.5434 -0.363919 3.20742 0
M  V30 82 H 4.5954 2.05603 3.20049 0
M  V30 83 H 5.9074 2.50877 4.31117 0
M  V30 84 H 5.0614 0.870762 6.00419 0
M  V30 85 H 3.8004 0.316887 4.86669 0
M  V30 86 H 2.8054 2.6215 4.83278 0
M  V30 87 H 4.0304 3.17216 6.00459 0
M  V30 88 H 1.9764 0.980454 6.48632 0
M  V30 89 H 1.8934 2.59956 7.09901 0
M  V30 90 H 3.1614 1.54115 7.64113 0
M  V30 91 N 7.3905 -1.2043 1.01659 0
M  V30 92 C 8.6185 -1.93777 0.725132 0
M  V30 93 C 9.0335 -1.74772 -0.714166 0
M  V30 94 O 8.3905 -1.06169 -1.4844 0
M  V30 95 C 8.4415 -3.45876 1.05129 0
M  V30 96 O 8.1625 -3.6426 2.43406 0
M  V30 97 C 9.6635 -4.36368 0.780891 0
M  V30 98 H 6.8835 -0.615901 0.266284 0
M  V30 99 H 9.4275 -1.52922 1.35776 0
M  V30 100 H 7.5825 -3.8461 0.464065 0
M  V30 101 H 7.9965 -4.58246 2.55169 0
M  V30 102 H 9.4705 -5.41743 1.05918 0
M  V30 103 H 9.9475 -4.38275 -0.284937 0
M  V30 104 H 10.5535 -4.03296 1.35027 0
M  V30 105 N 8.8686 -0.792821 -1.36206 0
M  V30 106 C 9.8156 -0.191653 -2.30003 0
M  V30 107 C 10.7856 0.666453 -1.52143 0
M  V30 108 O 11.9706 0.61442 -1.80636 0
M  V30 109 C 9.1106 0.664848 -3.38635 0
M  V30 110 C 8.2236 -0.212175 -4.31479 0
M  V30 111 C 7.3586 0.651022 -5.27196 0
M  V30 112 C 6.3976 -0.227247 -6.11678 0
M  V30 113 N 5.5346 0.595127 -6.99573 0
M  V30 114 H 10.3746 -0.996978 -2.80828 0
M  V30 115 H 7.9116 -0.503206 -1.38225 0
M  V30 116 H 9.8696 1.17645 -4.00269 0
M  V30 117 H 8.4996 1.43557 -2.89122 0
M  V30 118 H 7.5516 -0.841777 -3.70969 0
M  V30 119 H 8.8636 -0.888751 -4.90818 0
M  V30 120 H 8.0176 1.2283 -5.94136 0
M  V30 121 H 6.7566 1.36121 -4.68319 0
M  V30 122 H 5.7616 -0.816904 -5.43697 0
M  V30 123 H 6.9866 -0.93509 -6.72631 0
M  V30 124 H 4.9326 1.28955 -6.432 0
M  V30 125 H 4.8496 -0.0236952 -7.55996 0
M  V30 126 H 6.1176 1.15613 -7.70879 0
M  V30 127 N 10.3467 1.47872 -0.545128 0
M  V30 128 C 11.6237 1.9554 0.0485222 0
M  V30 129 C 12.0037 1.4876 1.49779 0
M  V30 130 O 11.3517 0.720925 2.16829 0
M  V30 131 C 11.5617 3.48898 -0.084417 0
M  V30 132 C 12.9097 4.24547 0.0671239 0
M  V30 133 O 13.9337 3.56198 -0.0113649 0
M  V30 134 O 12.7927 5.45999 0.233882 0
M  V30 135 H 9.8867 0.823957 0.0708773 0
M  V30 136 H 12.4327 1.58327 -0.610798 0
M  V30 137 H 11.2047 3.75714 -1.09337 0
M  V30 138 H 10.8277 3.92845 0.613066 0
M  V30 139 N 11.8248 0.280983 1.55075 0
M  V30 140 C 13.0738 -0.334784 1.98902 0
M  V30 141 C 13.3868 -1.56534 1.17288 0
M  V30 142 O 14.5928 -2.25443 1.51287 0
M  V30 143 C 13.0488 -0.646994 3.54037 0
M  V30 144 C 12.6568 0.564085 4.44435 0
M  V30 145 C 14.4008 -1.22506 4.06439 0
M  V30 146 C 12.3078 0.226137 5.90967 0
M  V30 147 H 11.2378 -0.128866 0.742906 0
M  V30 148 H 13.8888 0.386556 1.79382 0
M  V30 149 H 12.2708 -1.42739 3.6938 0
M  V30 150 H 13.4448 1.34082 4.40861 0
M  V30 151 H 11.7598 1.0594 4.02698 0
M  V30 152 H 14.3568 -1.49182 5.13468 0
M  V30 153 H 14.6998 -2.16085 3.55827 0
M  V30 154 H 15.2328 -0.50682 3.94558 0
M  V30 155 H 11.9718 1.12996 6.45687 0
M  V30 156 H 11.4918 -0.513717 5.97596 0
M  V30 157 H 13.1708 -0.179539 6.46751 0
M  V30 158 N 13.3029 -1.57598 0.00835791 0
M  V30 159 C 14.5489 -1.91211 -0.675732 0
M  V30 160 C 14.8819 -0.883139 -1.72958 0
M  V30 161 O 14.1569 0.097016 -1.94258 0
M  V30 162 C 14.4399 -3.35379 -1.31123 0
M  V30 163 C 14.2929 -4.48999 -0.268356 0
M  V30 164 C 15.6119 -3.7912 -2.23508 0
M  V30 165 H 12.7309 -0.695374 -0.244179 0
M  V30 166 H 15.3729 -1.89901 0.0613655 0
M  V30 167 H 13.5229 -3.36626 -1.93946 0
M  V30 168 H 15.1949 -4.59887 0.360844 0
M  V30 169 H 13.4379 -4.31873 0.408482 0
M  V30 170 H 14.1089 -5.46851 -0.752218 0
M  V30 171 H 16.5849 -3.79477 -1.70693 0
M  V30 172 H 15.4609 -4.80729 -2.64936 0
M  V30 173 H 15.7219 -3.13455 -3.11766 0
M  V30 174 N 14.781 0.264519 -1.55364 0
M  V30 175 C 15.728 1.32717 -1.88825 0
M  V30 176 C 16.698 1.48675 -0.740605 0
M  V30 177 O 17.883 1.62945 -0.992657 0
M  V30 178 C 15.023 2.68089 -2.17307 0
M  V30 179 C 14.136 2.60284 -3.44785 0
M  V30 180 C 13.271 3.87892 -3.62924 0
M  V30 181 C 12.31 3.74631 -4.84064 0
M  V30 182 N 11.447 4.94092 -4.98816 0
M  V30 183 H 16.287 1.03481 -2.79456 0
M  V30 184 H 13.824 0.499757 -1.3835 0
M  V30 185 H 15.782 3.46864 -2.31821 0
M  V30 186 H 14.412 2.95509 -1.299 0
M  V30 187 H 13.464 1.73173 -3.38697 0
M  V30 188 H 14.776 2.46388 -4.33698 0
M  V30 189 H 13.93 4.75109 -3.77302 0
M  V30 190 H 12.669 4.04664 -2.7221 0
M  V30 191 H 11.674 2.85797 -4.69681 0
M  V30 192 H 12.899 3.5937 -5.76221 0
M  V30 193 H 10.845 5.11259 -4.11036 0
M  V30 194 H 10.762 4.8276 -5.81789 0
M  V30 195 H 12.03 5.82857 -5.17588 0
M  V30 196 N 16.2591 1.48442 0.529413 0
M  V30 197 C 17.2221 1.62524 1.61612 0
M  V30 198 C 18.2221 0.498509 1.52877 0
M  V30 199 O 19.4121 0.76431 1.56537 0
M  V30 200 C 16.5441 1.59597 3.01233 0
M  V30 201 H 17.7371 2.59423 1.50465 0
M  V30 202 H 15.2901 1.37047 0.751514 0
M  V30 203 H 16.0251 0.641781 3.17886 0
M  V30 204 H 15.8101 2.41397 3.08982 0
M  V30 205 H 17.3001 1.72646 3.80241 0
M  V30 206 N 17.7372 -0.778329 1.37039 0
M  V30 207 C 18.9652 -1.56734 1.35063 0
M  V30 208 C 19.3802 -1.88686 -0.0655597 0
M  V30 209 O 18.7372 -1.5096 -1.02554 0
M  V30 210 C 18.7882 -2.88163 2.18276 0
M  V30 211 O 18.5092 -2.57583 3.54376 0
M  V30 212 C 20.0102 -3.82422 2.24206 0
M  V30 213 H 17.2302 -0.485778 0.462883 0
M  V30 214 H 19.7742 -0.965185 1.8029 0
M  V30 215 H 17.9292 -3.44818 1.76576 0
M  V30 216 H 18.3432 -3.41699 3.97922 0
M  V30 217 H 19.8172 -4.71667 2.86765 0
M  V30 218 H 20.2942 -4.21078 1.24861 0
M  V30 219 H 20.9002 -3.31697 2.6619 0
M  V30 220 N 19.2153 -1.21501 -1.00376 0
M  V30 221 C 20.1783 -0.976927 -2.07337 0
M  V30 222 C 21.1783 0.0525322 -1.60714 0
M  V30 223 O 22.3683 -0.184869 -1.73216 0
M  V30 224 C 19.5003 -0.473423 -3.37597 0
M  V30 225 H 20.6933 -1.92587 -2.29892 0
M  V30 226 H 18.2463 -1.03217 -1.17371 0
M  V30 227 H 18.9813 0.480379 -3.20722 0
M  V30 228 H 18.7663 -1.216 -3.72768 0
M  V30 229 H 20.2563 -0.32675 -4.1632 0
M  V30 230 N 20.6934 1.19889 -1.02296 0
M  V30 231 C 22.1044 1.71124 -0.746568 0
M  V30 232 C 22.4554 1.81939 0.734335 0
M  V30 233 O 21.5804 1.48639 1.57275 0
M  V30 234 C 22.1754 3.10804 -1.34857 0
M  V30 235 C 20.7344 3.59323 -1.1209 0
M  V30 236 C 19.8814 2.3635 -1.45031 0
M  V30 237 H 22.8324 1.04813 -1.19163 0
M  V30 238 H 22.8534 3.73186 -0.742437 0
M  V30 239 H 22.3654 3.029 -2.42638 0
M  V30 240 H 20.4664 3.7255 -0.0610337 0
M  V30 241 H 20.5794 4.4378 -1.80544 0
M  V30 242 H 18.9434 2.39399 -0.869487 0
M  V30 243 H 19.7264 2.31081 -2.53883 0
M  V30 244 N 22.1715 0.800033 1.35784 0
M  V30 245 C 23.4175 0.377901 1.99248 0
M  V30 246 C 23.7505 -1.05052 1.63333 0
M  V30 247 O 23.0255 -1.72768 0.893385 0
M  V30 248 C 23.3085 0.553922 3.55814 0
M  V30 249 C 23.1615 2.0268 4.01548 0
M  V30 250 C 24.4805 -0.0244802 4.40093 0
M  V30 251 H 21.5995 0.138782 0.723815 0
M  V30 252 H 24.2415 1.00835 1.61035 0
M  V30 253 H 22.3915 0.0172398 3.88496 0
M  V30 254 H 24.0635 2.62536 3.79305 0
M  V30 255 H 22.3065 2.5256 3.52698 0
M  V30 256 H 22.9775 2.10087 5.10458 0
M  V30 257 H 25.4535 0.433775 4.13833 0
M  V30 258 H 24.3295 0.128637 5.48749 0
M  V30 259 H 24.5905 -1.11758 4.27741 0
M  V30 260 N 23.6496 -1.47581 0.552962 0
M  V30 261 C 24.5796 -2.32762 -0.185451 0
M  V30 262 C 25.5606 -1.43527 -0.912905 0
M  V30 263 O 26.7456 -1.72388 -0.894201 0
M  V30 264 C 23.8756 -3.25219 -1.21859 0
M  V30 265 C 22.8296 -4.23661 -0.607864 0
M  V30 266 C 22.1556 -5.05413 -1.74533 0
M  V30 267 C 23.4556 -5.20481 0.435582 0
M  V30 268 H 25.1496 -2.94749 0.525684 0
M  V30 269 H 22.6956 -1.41738 0.254251 0
M  V30 270 H 24.6486 -3.8365 -1.7433 0
M  V30 271 H 23.3726 -2.61279 -1.95961 0
M  V30 272 H 22.0316 -3.66451 -0.104489 0
M  V30 273 H 21.6796 -4.3788 -2.47529 0
M  V30 274 H 21.3796 -5.72059 -1.34249 0
M  V30 275 H 22.9036 -5.66701 -2.27338 0
M  V30 276 H 24.3176 -5.733 -0.00290157 0
M  V30 277 H 22.7146 -5.95305 0.757067 0
M  V30 278 H 23.7846 -4.66217 1.33303 0
M  V30 279 N 25.1277 -0.289203 -1.54924 0
M  V30 280 C 26.0907 0.579144 -2.21762 0
M  V30 281 C 27.0907 1.07047 -1.1999 0
M  V30 282 O 28.2807 0.968384 -1.44803 0
M  V30 283 C 25.4127 1.80055 -2.8947 0
M  V30 284 H 26.6057 -0.00464908 -2.999 0
M  V30 285 H 24.1587 -0.0399306 -1.56249 0
M  V30 286 H 24.8937 2.42449 -2.15381 0
M  V30 287 H 24.6787 1.45602 -3.64064 0
M  V30 288 H 26.1687 2.41773 -3.40493 0
M  V30 289 N 26.6058 1.57591 -0.0167156 0
M  V30 290 C 27.5158 2.1291 0.98521 0
M  V30 291 C 28.5318 1.07834 1.36557 0
M  V30 292 O 29.7078 1.39826 1.44951 0
M  V30 293 C 26.7728 2.63512 2.25305 0
M  V30 294 C 25.8338 3.83256 1.93426 0
M  V30 295 C 25.0668 4.31435 3.14165 0
M  V30 296 O 25.2898 3.78851 4.26413 0
M  V30 297 O 24.2238 5.23416 2.97186 0
M  V30 298 H 28.0498 2.98772 0.544888 0
M  V30 299 H 25.6348 1.48012 0.203141 0
M  V30 300 H 27.5168 2.96183 2.99756 0
M  V30 301 H 26.1918 1.8074 2.68542 0
M  V30 302 H 25.0988 3.55531 1.16398 0
M  V30 303 H 26.4318 4.67153 1.55013 0
M  V30 304 N 28.0839 -0.256276 1.55502 0
M  V30 305 C 29.0339 -1.31981 1.85916 0
M  V30 306 C 30.0179 -1.43927 0.719296 0
M  V30 307 O 31.2099 -1.47326 0.981019 0
M  V30 308 C 28.3389 -2.67703 2.14918 0
M  V30 309 C 27.4249 -2.59801 3.35208 0
M  V30 310 N 27.8159 -2.21524 4.54709 0
M  V30 311 C 26.1139 -2.90832 3.38131 0
M  V30 312 C 26.8149 -2.24024 5.36832 0
M  V30 313 N 25.7909 -2.63158 4.75656 0
M  V30 314 H 29.5929 -1.01423 2.75845 0
M  V30 315 H 27.1069 -0.464911 1.55603 0
M  V30 316 H 29.1039 -3.44445 2.34869 0
M  V30 317 H 27.7639 -2.99137 1.26282 0
M  V30 318 H 28.7749 -1.93223 4.80505 0
M  V30 319 H 25.4519 -3.26867 2.59739 0
M  V30 320 H 26.8419 -1.9685 6.42417 0
M  V30 321 N 29.562 -1.4872 -0.521534 0
M  V30 322 C 30.81 -1.56857 -1.27437 0
M  V30 323 C 31.131 -0.247982 -1.93417 0
M  V30 324 O 30.401 0.731151 -1.81744 0
M  V30 325 H 28.981 -0.577885 -0.473347 0
M  V30 326 H 31.643 -1.85233 -0.606205 0
M  V30 327 H 30.739 -2.35402 -2.0492 0
M  V30 328 N 31.0401 0.771051 -1.3745 0
M  V30 329 C 32.2701 1.55789 -1.35696 0
M  V30 330 C 32.6781 1.89107 0.0594523 0
M  V30 331 O 32.0211 1.51984 1.03183 0
M  V30 332 C 32.0831 2.89515 -2.13123 0
M  V30 333 C 31.7471 2.78829 -3.62082 0
M  V30 334 C 32.7441 2.49812 -4.5595 0
M  V30 335 C 30.4291 2.9683 -4.05213 0
M  V30 336 C 32.4231 2.38923 -5.90927 0
M  V30 337 C 30.1101 2.85562 -5.40276 0
M  V30 338 C 31.1081 2.56649 -6.32946 0
M  V30 339 O 30.7961 2.45408 -7.65526 0
M  V30 340 H 30.5281 0.489257 -0.466481 0
M  V30 341 H 33.0821 0.963446 -1.81403 0
M  V30 342 H 31.3121 3.51081 -1.62107 0
M  V30 343 H 33.0011 3.50915 -2.03994 0
M  V30 344 H 33.7671 2.3559 -4.23937 0
M  V30 345 H 29.6461 3.18335 -3.33442 0
M  V30 346 H 33.1901 2.16277 -6.63227 0
M  V30 347 H 29.0871 2.99351 -5.71891 0
M  V30 348 H 29.8551 2.60753 -7.75855 0
M  V30 349 N 32.5182 1.22032 0.997298 0
M  V30 350 C 33.7952 0.950823 1.70935 0
M  V30 351 C 34.1752 -0.535292 2.042 0
M  V30 352 O 33.5232 -1.50217 1.72183 0
M  V30 353 C 33.7332 1.84386 2.96315 0
M  V30 354 C 35.0812 2.09732 3.69185 0
M  V30 355 O 36.1052 1.81798 3.06314 0
M  V30 356 O 34.9642 2.57018 4.82291 0
M  V30 357 H 32.0582 0.357204 0.745878 0
M  V30 358 H 34.6042 1.32997 1.05404 0
M  V30 359 H 33.3762 2.84928 2.68201 0
M  V30 360 H 32.9992 1.46602 3.69586 0
M  V30 361 N 33.9963 -1.19345 1.0293 0
M  V30 362 C 35.2453 -1.88363 0.721256 0
M  V30 363 C 35.5583 -1.80514 -0.753254 0
M  V30 364 O 36.7643 -2.44788 -1.17436 0
M  V30 365 C 35.2203 -3.37872 1.23978 0
M  V30 366 C 34.8283 -3.54278 2.74211 0
M  V30 367 C 36.5723 -4.12365 1.00775 0
M  V30 368 C 34.4793 -4.97682 3.19479 0
M  V30 369 H 33.4093 -0.705484 0.266098 0
M  V30 370 H 36.0603 -1.34928 1.24365 0
M  V30 371 H 34.4423 -3.90707 0.6453 0
M  V30 372 H 35.6163 -3.11769 3.39318 0
M  V30 373 H 33.9313 -2.93174 2.95699 0
M  V30 374 H 36.5283 -5.18119 1.32123 0
M  V30 375 H 36.8713 -4.16263 -0.0554308 0
M  V30 376 H 37.4043 -3.65668 1.56625 0
M  V30 377 H 34.1433 -4.98945 4.25128 0
M  V30 378 H 33.6633 -5.4095 2.591 0
M  V30 379 H 35.3423 -5.66337 3.12845 0
M  V30 380 N 35.4744 -0.807222 -1.35358 0
M  V30 381 C 36.7234 -0.384376 -1.98004 0
M  V30 382 C 37.0364 1.0543 -1.64754 0
M  V30 383 O 38.2424 1.58029 -2.20769 0
M  V30 384 C 36.6984 -0.636326 -3.5423 0
M  V30 385 C 36.3064 -2.08759 -3.96388 0
M  V30 386 C 38.0504 -0.278869 -4.23583 0
M  V30 387 C 35.9574 -2.28525 -5.45463 0
M  V30 388 H 34.8874 -0.139986 -0.740891 0
M  V30 389 H 37.5384 -0.991369 -1.54415 0
M  V30 390 H 35.9204 0.0406256 -3.95979 0
M  V30 391 H 37.0944 -2.8024 -3.6579 0
M  V30 392 H 35.4094 -2.40497 -3.39926 0
M  V30 393 H 38.0064 -0.404599 -5.33167 0
M  V30 394 H 38.3494 0.775012 -4.09022 0
M  V30 395 H 38.8824 -0.909764 -3.87257 0
M  V30 396 H 35.6214 -3.32361 -5.64992 0
M  V30 397 H 35.1414 -1.61569 -5.77629 0
M  V30 398 H 36.8204 -2.10109 -6.11934 0
M  V30 399 N 36.9525 1.47285 -0.560781 0
M  V30 400 C 37.8995 2.30058 0.18491 0
M  V30 401 C 38.8695 1.39281 0.904986 0
M  V30 402 O 40.0545 1.68241 0.899979 0
M  V30 403 C 37.1945 3.23317 1.20666 0
M  V30 404 C 36.3075 4.29186 0.492285 0
M  V30 405 C 35.4425 5.09592 1.49964 0
M  V30 406 C 34.4815 6.07232 0.770439 0
M  V30 407 N 33.6185 6.80584 1.72479 0
M  V30 408 H 38.4585 2.93302 -0.527048 0
M  V30 409 H 35.9955 1.44568 -0.271738 0
M  V30 410 H 37.9535 3.75811 1.81168 0
M  V30 411 H 36.5835 2.61929 1.88661 0
M  V30 412 H 35.6355 3.7972 -0.227333 0
M  V30 413 H 36.9475 4.98738 -0.0787929 0
M  V30 414 H 36.1015 5.66254 2.17809 0
M  V30 415 H 34.8405 4.3995 2.10464 0
M  V30 416 H 33.8455 5.49745 0.0780846 0
M  V30 417 H 35.0705 6.78884 0.171134 0
M  V30 418 H 33.0165 6.1367 2.3183 0
M  V30 419 H 32.9335 7.46319 1.20596 0
M  V30 420 H 34.2015 7.41818 2.39428 0
M  V30 421 N 38.4306 0.297415 1.54768 0
M  V30 422 C 39.6706 -0.313829 2.01976 0
M  V30 423 C 40.0346 -1.51366 1.1812 0
M  V30 424 O 41.2356 -2.19603 1.5501 0
M  V30 425 C 39.5066 -0.664964 3.51159 0
M  V30 426 S 41.0656 -1.25958 4.20333 0
M  V30 427 H 37.8836 -0.0965014 0.704421 0
M  V30 428 H 40.4856 0.424451 1.90837 0
M  V30 429 H 39.1896 0.21681 4.09827 0
M  V30 430 H 38.7206 -1.43413 3.66328 0
M  V30 431 H 40.7356 -2.54751 4.25813 0
M  V30 432 N 39.9087 -1.5758 0.0250728 0
M  V30 433 C 41.1557 -1.91633 -0.654444 0
M  V30 434 C 41.4837 -0.901103 -1.72367 0
M  V30 435 O 40.7387 0.0905647 -1.9549 0
M  V30 436 C 41.0377 -3.32421 -1.31268 0
M  V30 437 C 40.7037 -4.49344 -0.374223 0
M  V30 438 C 39.3657 -4.8106 -0.115911 0
M  V30 439 C 41.7177 -5.20498 0.270432 0
M  V30 440 C 39.0457 -5.8129 0.79493 0
M  V30 441 C 41.3977 -6.21699 1.1693 0
M  V30 442 C 40.0617 -6.51859 1.43655 0
M  V30 443 H 39.3317 -0.701236 -0.239478 0
M  V30 444 H 41.9787 -1.91307 0.0859734 0
M  V30 445 H 40.2837 -3.28989 -2.12775 0
M  V30 446 H 41.9807 -3.56038 -1.84494 0
M  V30 447 H 38.5707 -4.24579 -0.58573 0
M  V30 448 H 42.7547 -4.96229 0.0839194 0
M  V30 449 H 38.0107 -6.03005 1.00973 0
M  V30 450 H 42.1847 -6.75955 1.67504 0
M  V30 451 H 39.8117 -7.2934 2.144 0
M  V30 452 N 41.3868 0.248026 -1.55636 0
M  V30 453 C 42.6168 0.992367 -1.81206 0
M  V30 454 C 43.0248 1.7949 -0.598324 0
M  V30 455 O 42.3678 1.78292 0.442434 0
M  V30 456 C 42.4298 1.97926 -3.00109 0
M  V30 457 C 42.0938 1.36377 -4.36177 0
M  V30 458 C 43.0908 0.76682 -5.14214 0
M  V30 459 C 40.7758 1.38347 -4.82872 0
M  V30 460 C 42.7698 0.197778 -6.37093 0
M  V30 461 C 40.4568 0.810574 -6.057 0
M  V30 462 C 41.4548 0.218754 -6.8265 0
M  V30 463 O 41.1428 -0.345298 -8.03158 0
M  V30 464 H 40.8748 0.297704 -0.606917 0
M  V30 465 H 43.4288 0.276517 -2.0353 0
M  V30 466 H 41.6588 2.73339 -2.73538 0
M  V30 467 H 43.3478 2.58694 -3.12781 0
M  V30 468 H 44.1138 0.744114 -4.79258 0
M  V30 469 H 39.9928 1.8335 -4.2297 0
M  V30 470 H 43.5368 -0.264788 -6.97097 0
M  V30 471 H 39.4338 0.830604 -6.40134 0
M  V30 472 H 40.2018 -0.237055 -8.18157 0
M  V30 473 N 42.8649 1.48995 0.513639 0
M  V30 474 C 43.7969 1.60836 1.63293 0
M  V30 475 C 44.8099 0.491701 1.55197 0
M  V30 476 O 45.9989 0.763238 1.6136 0
M  V30 477 C 43.0989 1.53731 3.02027 0
M  V30 478 C 42.2719 2.80715 3.35437 0
M  V30 479 C 41.3309 2.66837 4.53525 0
M  V30 480 O 40.3569 3.40753 4.55934 0
M  V30 481 N 41.5589 1.77539 5.52684 0
M  V30 482 H 44.3239 2.57366 1.53566 0
M  V30 483 H 41.8849 1.45925 0.701259 0
M  V30 484 H 43.8769 1.42118 3.78926 0
M  V30 485 H 42.4469 0.651092 3.05744 0
M  V30 486 H 41.6669 3.06772 2.47557 0
M  V30 487 H 42.9549 3.64927 3.54551 0
M  V30 488 H 42.3529 1.16719 5.53528 0
M  V30 489 H 40.9099 1.71856 6.28736 0
M  V30 490 N 44.343 -0.763751 1.37857 0
M  V30 491 C 45.759 -1.06542 1.18832 0
M  V30 492 C 45.959 -2.01478 0.0299722 0
M  V30 493 O 45.015 -2.4458 -0.627447 0
M  V30 494 C 46.328 -1.65525 2.51042 0
M  V30 495 C 47.876 -1.77745 2.57635 0
M  V30 496 C 48.351 -2.4014 3.89996 0
M  V30 497 N 49.842 -2.47582 3.91481 0
M  V30 498 C 50.577 -2.96732 4.9065 0
M  V30 499 N 50.073 -3.45993 6.00217 0
M  V30 500 N 51.866 -2.95679 4.78048 0
M  V30 501 H 44.017 -0.133556 2.1198 0
M  V30 502 H 46.28 -0.121879 0.940133 0
M  V30 503 H 45.986 -1.03236 3.36207 0
M  V30 504 H 45.86 -2.64719 2.68707 0
M  V30 505 H 48.247 -2.39164 1.72872 0
M  V30 506 H 48.328 -0.772836 2.43846 0
M  V30 507 H 47.972 -1.79358 4.75177 0
M  V30 508 H 47.902 -3.41223 4.01092 0
M  V30 509 H 50.393 -2.1273 3.12337 0
M  V30 510 H 50.706 -3.81922 6.7183 0
M  V30 511 H 49.051 -3.44077 6.03851 0
M  V30 512 H 52.242 -2.56499 3.91568 0
M  V30 513 H 52.415 -3.33672 5.55488 0
M  V30 514 N 45.8211 -1.22559 -0.990812 0
M  V30 515 C 46.7541 -0.940773 -2.07905 0
M  V30 516 C 47.7321 0.117082 -1.62178 0
M  V30 517 O 48.9161 -0.0149506 -1.88494 0
M  V30 518 C 46.0431 -0.415321 -3.36144 0
M  V30 519 C 45.0891 -1.45818 -4.00799 0
M  V30 520 S 45.9221 -3.03219 -4.41382 0
M  V30 521 C 47.0781 -2.52317 -5.72789 0
M  V30 522 H 47.3111 -1.8623 -2.31745 0
M  V30 523 H 44.8441 -1.05688 -1.12558 0
M  V30 524 H 46.8021 -0.118747 -4.10328 0
M  V30 525 H 45.4631 0.485121 -3.10331 0
M  V30 526 H 44.6561 -1.04044 -4.93144 0
M  V30 527 H 44.2581 -1.70356 -3.32949 0
M  V30 528 H 46.5501 -1.93688 -6.49224 0
M  V30 529 H 47.4931 -3.43161 -6.19392 0
M  V30 530 H 47.9011 -1.93529 -5.30289 0
M  V30 531 N 47.2992 1.18797 -1.03562 0
M  V30 532 C 48.5462 1.8865 -0.736023 0
M  V30 533 C 48.8742 1.80041 0.735889 0
M  V30 534 O 48.1292 1.19179 1.55225 0
M  V30 535 C 48.4282 3.38692 -1.14117 0
M  V30 536 C 48.0942 3.67504 -2.6125 0
M  V30 537 C 46.7562 3.75078 -3.01447 0
M  V30 538 C 49.1082 3.80293 -3.56408 0
M  V30 539 C 46.4362 3.92915 -4.35701 0
M  V30 540 C 48.7882 3.99645 -4.90374 0
M  V30 541 C 47.4522 4.05453 -5.30249 0
M  V30 542 H 46.7222 0.690321 -0.26933 0
M  V30 543 H 49.3692 1.40641 -1.29971 0
M  V30 544 H 47.6742 3.88645 -0.496202 0
M  V30 545 H 49.3712 3.91072 -0.886789 0
M  V30 546 H 45.9612 3.62223 -2.29113 0
M  V30 547 H 50.1452 3.73779 -3.26501 0
M  V30 548 H 45.4012 3.95653 -4.66121 0
M  V30 549 H 49.5752 4.08482 -5.64017 0
M  V30 550 H 47.2022 4.19027 -6.34288 0
M  V30 551 N 48.7773 0.814389 1.34928 0
M  V30 552 C 49.6873 0.231978 2.3345 0
M  V30 553 C 50.7033 -0.629139 1.62228 0
M  V30 554 O 51.8793 -0.539052 1.94052 0
M  V30 555 C 48.9443 -0.603482 3.41407 0
M  V30 556 C 48.0053 0.279037 4.28392 0
M  V30 557 C 47.2383 -0.516643 5.31193 0
M  V30 558 O 47.4613 -1.75068 5.4287 0
M  V30 559 O 46.3953 0.0965652 6.01823 0
M  V30 560 H 50.2213 1.04721 2.85074 0
M  V30 561 H 47.8063 0.576343 1.37836 0
M  V30 562 H 49.6883 -1.07908 4.0735 0
M  V30 563 H 48.3633 -1.39618 2.92042 0
M  V30 564 H 47.2703 0.801948 3.65403 0
M  V30 565 H 48.6033 1.03588 4.81176 0
M  V30 566 N 50.2554 -1.46986 0.568584 0
M  V30 567 C 51.2184 -2.28624 -0.162366 0
M  V30 568 C 52.2184 -1.37596 -0.832103 0
M  V30 569 O 53.4084 -1.60115 -0.68622 0
M  V30 570 C 50.5404 -3.17596 -1.23878 0
M  V30 571 H 51.7334 -2.94722 0.554899 0
M  V30 572 H 49.2864 -1.52863 0.325976 0
M  V30 573 H 50.0214 -2.56214 -1.98808 0
M  V30 574 H 49.8064 -3.846 -0.763219 0
M  V30 575 H 51.2964 -3.79078 -1.75185 0
M  V30 576 N 51.7335 -0.305618 -1.54608 0
M  V30 577 C 52.6835 0.583595 -2.20405 0
M  V30 578 C 53.6675 1.09539 -1.17856 0
M  V30 579 O 54.8595 1.0354 -1.43557 0
M  V30 580 C 51.9885 1.75277 -2.95183 0
M  V30 581 C 51.0745 1.25672 -4.05052 0
M  V30 582 N 51.4655 0.478998 -5.03527 0
M  V30 583 C 49.7635 1.53704 -4.18678 0
M  V30 584 C 50.4645 0.214269 -5.81305 0
M  V30 585 N 49.4405 0.795374 -5.3775 0
M  V30 586 H 53.2425 -0.0180946 -2.93894 0
M  V30 587 H 50.7565 -0.110601 -1.62023 0
M  V30 588 H 52.7535 2.4014 -3.40791 0
M  V30 589 H 51.4135 2.35812 -2.23211 0
M  V30 590 H 52.4245 0.123473 -5.17753 0
M  V30 591 H 49.1015 2.14954 -3.57912 0
M  V30 592 H 50.4915 -0.410656 -6.70644 0
M  V30 593 N 53.2116 1.57565 -0.0334293 0
M  V30 594 C 54.6226 1.79746 0.504798 0
M  V30 595 C 54.9736 0.944091 1.71992 0
M  V30 596 O 54.0986 0.155694 2.15839 0
M  V30 597 C 54.6936 3.25997 0.922567 0
M  V30 598 C 53.2526 3.49159 1.40588 0
M  V30 599 C 52.3996 2.74785 0.372633 0
M  V30 600 H 55.3506 1.56565 -0.259436 0
M  V30 601 H 55.3716 3.35945 1.78666 0
M  V30 602 H 54.8836 3.88081 0.0379825 0
M  V30 603 H 52.9846 2.92332 2.31025 0
M  V30 604 H 53.0976 4.57873 1.41028 0
M  V30 605 H 51.4616 2.40391 0.841672 0
M  V30 606 H 52.2446 3.39587 -0.503559 0
M  V30 607 N 54.6897 -0.239769 1.55765 0
M  V30 608 C 55.5997 -1.31831 1.94056 0
M  V30 609 C 56.6157 -1.52275 0.841925 0
M  V30 610 O 57.7917 -1.65759 1.14394 0
M  V30 611 C 54.8567 -2.65156 2.23368 0
M  V30 612 C 53.9177 -2.53173 3.46701 0
M  V30 613 C 53.1507 -3.8014 3.74606 0
M  V30 614 O 53.3737 -4.82343 3.04469 0
M  V30 615 O 52.3077 -3.78344 4.68123 0
M  V30 616 H 56.1337 -1.02347 2.85935 0
M  V30 617 H 53.7187 -0.441123 1.42739 0
M  V30 618 H 55.6007 -3.43929 2.43497 0
M  V30 619 H 54.2757 -2.94358 1.34666 0
M  V30 620 H 53.1827 -1.72662 3.31871 0
M  V30 621 H 54.5157 -2.28915 4.35728 0
M  V30 622 N 56.1678 -1.49265 -0.50573 0
M  V30 623 C 57.0978 -1.68495 -1.61653 0
M  V30 624 C 58.0788 -0.53366 -1.61512 0
M  V30 625 O 59.2638 -0.76897 -1.78327 0
M  V30 626 C 56.3938 -1.74709 -3.00157 0
M  V30 627 C 55.3478 -2.89581 -3.15162 0
M  V30 628 C 54.6738 -2.80903 -4.5497 0
M  V30 629 C 55.9738 -4.30578 -2.95634 0
M  V30 630 H 57.6678 -2.61493 -1.45814 0
M  V30 631 H 55.2138 -1.25838 -0.70005 0
M  V30 632 H 57.1668 -1.86748 -3.77761 0
M  V30 633 H 55.8908 -0.783067 -3.17074 0
M  V30 634 H 54.5498 -2.77136 -2.39982 0
M  V30 635 H 54.1978 -1.82419 -4.68756 0
M  V30 636 H 53.8978 -3.57999 -4.65951 0
M  V30 637 H 55.4218 -2.94944 -5.34641 0
M  V30 638 H 56.8358 -4.4373 -3.63011 0
M  V30 639 H 55.2328 -5.0886 -3.18091 0
M  V30 640 H 56.3028 -4.45352 -1.91806 0
M  V30 641 N 57.6459 0.756429 -1.3826 0
M  V30 642 C 58.5929 1.87011 -1.35261 0
M  V30 643 C 59.5629 1.64695 -0.215616 0
M  V30 644 O 60.7479 1.864 -0.407399 0
M  V30 645 C 57.8879 3.24275 -1.18068 0
M  V30 646 C 57.0009 3.58442 -2.41129 0
M  V30 647 C 56.1359 4.84994 -2.16689 0
M  V30 648 C 55.1749 5.11939 -3.35537 0
M  V30 649 N 54.3119 6.29685 -3.10549 0
M  V30 650 H 59.1519 1.8891 -2.30472 0
M  V30 651 H 56.6889 0.923373 -1.14509 0
M  V30 652 H 58.6469 4.03479 -1.06116 0
M  V30 653 H 57.2769 3.21711 -0.264973 0
M  V30 654 H 56.3289 2.74103 -2.63764 0
M  V30 655 H 57.6409 3.74283 -3.29717 0
M  V30 656 H 56.7949 5.72135 -2.01857 0
M  V30 657 H 55.5339 4.71286 -1.25462 0
M  V30 658 H 54.5389 4.23268 -3.50891 0
M  V30 659 H 55.7639 5.27546 -4.27635 0
M  V30 660 H 53.7099 6.17306 -2.21967 0
M  V30 661 H 53.6269 6.46014 -3.92686 0
M  V30 662 H 54.8949 7.19722 -2.99367 0
M  V30 663 N 59.124 1.23083 0.984299 0
M  V30 664 C 60.072 1.00593 2.09723 0
M  V30 665 C 61.066 -0.0538014 1.69315 0
M  V30 666 O 62.272 0.0993719 1.79725 0
M  V30 667 H 58.647 0.30817 0.685956 0
M  V30 668 H 60.618 1.95012 2.2586 0
M  V30 669 C 59.367 0.609601 3.42314 0
M  V30 670 H 58.69 1.41675 3.73856 0
M  V30 671 H 60.13 0.491726 4.21139 0
M  V30 672 C 58.589 -0.681745 3.2993 0
M  V30 673 O 59.119 -1.73192 3.62446 0
M  V30 674 N 57.325 -0.656178 2.83095 0
M  V30 675 H 56.872 0.198759 2.56832 0
M  V30 676 H 56.83 -1.52044 2.75191 0
M  V30 677 N 60.6021 -1.18246 1.0419 0
M  V30 678 C 61.8481 -1.88536 0.747122 0
M  V30 679 C 62.1811 -1.80223 -0.723409 0
M  V30 680 O 61.4561 -1.20337 -1.52804 0
M  V30 681 C 61.7391 -3.38968 1.21544 0
M  V30 682 C 61.5921 -3.56084 2.74816 0
M  V30 683 C 62.9111 -4.32648 0.806482 0
M  V30 684 H 60.0301 -0.684619 0.272883 0
M  V30 685 H 62.6721 -1.39113 1.29413 0
M  V30 686 H 60.8221 -3.8119 0.750081 0
M  V30 687 H 62.4941 -3.22946 3.29399 0
M  V30 688 H 60.7371 -2.98699 3.14582 0
M  V30 689 H 61.4081 -4.61639 3.02644 0
M  V30 690 H 63.8841 -3.98211 1.20695 0
M  V30 691 H 62.7601 -5.36462 1.1619 0
M  V30 692 H 63.0211 -4.41146 -0.29029 0
M  V30 693 N 62.0802 -0.821533 -1.34494 0
M  V30 694 C 63.3272 -0.408946 -1.98328 0
M  V30 695 C 63.6552 1.02764 -1.65136 0
M  V30 696 O 62.9102 1.73026 -0.914349 0
M  V30 697 C 63.2092 -0.556512 -3.53041 0
M  V30 698 C 62.8752 -1.95861 -4.0614 0
M  V30 699 C 61.5372 -2.34217 -4.20352 0
M  V30 700 C 63.8892 -2.87523 -4.34718 0
M  V30 701 C 61.2172 -3.63572 -4.6047 0
M  V30 702 C 63.5692 -4.1634 -4.76281 0
M  V30 703 C 62.2332 -4.54675 -4.88699 0
M  V30 704 H 61.5032 -0.149644 -0.725732 0
M  V30 705 H 64.1502 -1.04521 -1.6046 0
M  V30 706 H 62.4552 0.163148 -3.9146 0
M  V30 707 H 64.1522 -0.217826 -4.00408 0
M  V30 708 H 60.7422 -1.65066 -3.95539 0
M  V30 709 H 64.9262 -2.59133 -4.23277 0
M  V30 710 H 60.1822 -3.93101 -4.68275 0
M  V30 711 H 64.3562 -4.87455 -4.97354 0
M  V30 712 H 61.9832 -5.54959 -5.19542 0
M  V30 713 N 63.5583 1.46682 -0.576371 0
M  V30 714 C 64.5063 2.31953 0.17335 0
M  V30 715 C 65.5003 1.44098 0.89062 0
M  V30 716 O 66.7063 1.60759 0.809728 0
M  V30 717 H 63.0813 0.748273 0.0747727 0
M  V30 718 H 65.0523 2.93007 -0.564738 0
M  V30 719 C 63.8013 3.27142 1.17786 0
M  V30 720 H 63.1243 3.94719 0.635361 0
M  V30 721 H 64.5643 3.896 1.67296 0
M  V30 722 C 63.0233 2.52036 2.23561 0
M  V30 723 O 63.5533 2.27877 3.3081 0
M  V30 724 N 61.7593 2.12709 1.97998 0
M  V30 725 H 61.3063 2.32557 1.10792 0
M  V30 726 H 61.2643 1.62776 2.68982 0
M  V30 727 N 65.0364 0.313813 1.54444 0
M  V30 728 C 65.9694 -0.598866 2.20202 0
M  V30 729 C 66.9474 -1.12318 1.17573 0
M  V30 730 O 68.1314 -1.18899 1.46271 0
M  V30 731 C 65.2584 -1.82071 2.85601 0
M  V30 732 C 64.3044 -1.42851 4.01865 0
M  V30 733 S 65.1374 -0.473512 5.33402 0
M  V30 734 C 66.2934 -1.70286 6.0229 0
M  V30 735 H 66.5264 -0.0402532 2.97273 0
M  V30 736 H 64.0594 0.0979165 1.54089 0
M  V30 737 H 66.0174 -2.52184 3.23904 0
M  V30 738 H 64.6784 -2.3505 2.08351 0
M  V30 739 H 63.8714 -2.33871 4.46453 0
M  V30 740 H 63.4734 -0.807198 3.65185 0
M  V30 741 H 65.7654 -2.64168 6.23876 0
M  V30 742 H 66.7084 -1.29932 6.96077 0
M  V30 743 H 67.1164 -1.88541 5.32083 0
M  V30 744 N 66.5145 -1.57545 0.0417849 0
M  V30 745 C 67.4775 -2.09885 -0.92093 0
M  V30 746 C 68.4775 -1.01648 -1.24596 0
M  V30 747 O 69.6675 -1.27759 -1.1842 0
M  V30 748 C 66.7995 -2.57527 -2.23367 0
M  V30 749 H 67.9925 -2.96236 -0.467382 0
M  V30 750 H 65.5455 -1.5493 -0.206467 0
M  V30 751 H 66.2805 -1.74542 -2.73323 0
M  V30 752 H 66.0655 -3.36613 -2.01083 0
M  V30 753 H 67.5555 -2.98201 -2.92346 0
M  V30 754 N 67.9926 0.231505 -1.5589 0
M  V30 755 C 68.9426 1.29007 -1.87993 0
M  V30 756 C 69.9266 1.42764 -0.742102 0
M  V30 757 O 71.1186 1.45747 -1.00433 0
M  V30 758 C 68.2476 2.6425 -2.1915 0
M  V30 759 C 67.3336 2.54435 -3.39299 0
M  V30 760 N 67.7246 2.14262 -4.58176 0
M  V30 761 C 66.0226 2.85416 -3.42715 0
M  V30 762 C 66.7236 2.15455 -5.40328 0
M  V30 763 N 65.6996 2.55558 -4.79783 0
M  V30 764 H 69.5016 0.970213 -2.77424 0
M  V30 765 H 67.0156 0.440097 -1.56323 0
M  V30 766 H 69.0126 3.40665 -2.40319 0
M  V30 767 H 67.6726 2.9709 -1.31025 0
M  V30 768 H 68.6836 1.85554 -4.83518 0
M  V30 769 H 65.3606 3.22693 -2.64906 0
M  V30 770 H 66.7506 1.86605 -6.45467 0
M  V30 771 N 69.4707 1.49531 0.497807 0
M  V30 772 C 70.4027 1.62559 1.61578 0
M  V30 773 C 71.4157 0.508134 1.54667 0
M  V30 774 O 72.6047 0.780309 1.60541 0
M  V30 775 C 69.7047 1.56925 3.00379 0
M  V30 776 C 68.8777 2.84257 3.3244 0
M  V30 777 C 67.9367 2.71632 4.50669 0
M  V30 778 O 66.9627 3.4557 4.52294 0
M  V30 779 N 68.1647 1.83391 5.5077 0
M  V30 780 H 70.9297 2.58981 1.50828 0
M  V30 781 H 68.4907 1.4666 0.685743 0
M  V30 782 H 70.4827 1.46129 3.77397 0
M  V30 783 H 69.0527 0.683483 3.05037 0
M  V30 784 H 68.2727 3.09381 2.44289 0
M  V30 785 H 69.5607 3.68666 3.5066 0
M  V30 786 H 68.9587 1.22583 5.52259 0
M  V30 787 H 67.5157 1.78515 6.26878 0
M  V30 788 N 70.9488 -0.749086 1.3866 0
M  V30 789 C 71.8588 -1.89358 1.38494 0
M  V30 790 C 72.8748 -1.71708 0.281476 0
M  V30 791 O 74.0508 -1.94554 0.520643 0
M  V30 792 C 71.1158 -3.24782 1.21316 0
M  V30 793 C 70.1768 -3.54926 2.41508 0
M  V30 794 C 69.4098 -4.83888 2.2514 0
M  V30 795 O 69.6328 -5.56592 1.24746 0
M  V30 796 O 68.5668 -5.13612 3.13826 0
M  V30 797 H 72.3928 -1.92452 2.34938 0
M  V30 798 H 69.9778 -0.894981 1.19626 0
M  V30 799 H 71.8598 -4.05739 1.13814 0
M  V30 800 H 70.5348 -3.2249 0.279592 0
M  V30 801 H 69.4418 -2.74112 2.54585 0
M  V30 802 H 70.7748 -3.61983 3.3351 0
M  V30 803 N 72.4269 -1.23603 -0.977757 0
M  V30 804 C 73.3589 -0.977369 -2.07317 0
M  V30 805 C 74.3719 0.0495845 -1.62724 0
M  V30 806 O 75.5609 -0.186261 -1.77526 0
M  V30 807 C 72.6609 -0.451216 -3.35883 0
M  V30 808 C 71.8339 -1.53896 -4.09432 0
M  V30 809 C 70.8929 -1.01721 -5.16274 0
M  V30 810 O 69.9189 -1.70676 -5.43009 0
M  V30 811 N 71.1209 0.153594 -5.80297 0
M  V30 812 H 73.8859 -1.92047 -2.30082 0
M  V30 813 H 71.4469 -1.14497 -1.14465 0
M  V30 814 H 73.4389 -0.0871574 -4.04606 0
M  V30 815 H 72.0089 0.397368 -3.10064 0
M  V30 816 H 71.2289 -2.07566 -3.35127 0
M  V30 817 H 72.5169 -2.27037 -4.55337 0
M  V30 818 H 71.9149 0.730323 -5.60966 0
M  V30 819 H 70.4719 0.458892 -6.50183 0
M  V30 820 N 73.905 1.17692 -1.04816 0
M  V30 821 C 75.153 1.87488 -0.754497 0
M  V30 822 C 75.474 1.81205 0.720407 0
M  V30 823 O 74.744 1.23544 1.52032 0
M  V30 824 H 73.324 0.694101 -0.276102 0
M  V30 825 H 75.986 1.42793 -1.32651 0
M  V30 826 H 75.082 2.93328 -1.06606 0
M  V30 827 N 75.3831 0.828654 1.34056 0
M  V30 828 C 76.3151 0.212052 2.28217 0
M  V30 829 C 77.3281 -0.601362 1.51286 0
M  V30 830 O 78.5171 -0.430104 1.73241 0
M  V30 831 C 75.6171 -0.72088 3.31144 0
M  V30 832 C 74.7901 0.0509587 4.3737 0
M  V30 833 C 73.8491 -0.803766 5.20025 0
M  V30 834 O 72.8751 -0.246667 5.68665 0
M  V30 835 N 74.0771 -2.1227 5.40298 0
M  V30 836 H 76.8421 1.02105 2.81771 0
M  V30 837 H 74.4031 0.686153 1.46641 0
M  V30 838 H 76.3951 -1.29742 3.8334 0
M  V30 839 H 74.9651 -1.43061 2.77943 0
M  V30 840 H 74.1851 0.808831 3.85813 0
M  V30 841 H 75.4731 0.582065 5.0546 0
M  V30 842 H 74.8711 -2.59898 5.02464 0
M  V30 843 H 73.4281 -2.64796 5.95589 0
M  V30 844 N 76.8612 -1.46375 0.584142 0
M  V30 845 C 77.7932 -2.28443 -0.186119 0
M  V30 846 C 78.8062 -1.38596 -0.854115 0
M  V30 847 O 79.9952 -1.63183 -0.723438 0
M  V30 848 C 77.0952 -3.13671 -1.28311 0
M  V30 849 C 76.2682 -4.31652 -0.706758 0
M  V30 850 C 75.3272 -4.98267 -1.69163 0
M  V30 851 O 74.3532 -5.55815 -1.22712 0
M  V30 852 N 75.5552 -4.95408 -3.02575 0
M  V30 853 H 78.3202 -2.9519 0.517986 0
M  V30 854 H 75.8812 -1.56303 0.42201 0
M  V30 855 H 77.8732 -3.55101 -1.94128 0
M  V30 856 H 76.4432 -2.48989 -1.89005 0
M  V30 857 H 75.6632 -3.93989 0.128908 0
M  V30 858 H 76.9512 -5.07906 -0.301506 0
M  V30 859 H 76.3492 -4.49902 -3.42936 0
M  V30 860 H 74.9062 -5.40774 -3.63877 0
M  V30 861 N 78.3393 -0.321999 -1.54275 0
M  V30 862 C 79.2713 0.578671 -2.21775 0
M  V30 863 C 80.2843 1.08109 -1.21722 0
M  V30 864 O 81.4733 0.994938 -1.482 0
M  V30 865 C 78.5733 1.80661 -2.86731 0
M  V30 866 C 77.7463 1.44314 -4.12907 0
M  V30 867 C 76.8053 2.52845 -4.61472 0
M  V30 868 O 75.8313 2.17054 -5.2619 0
M  V30 869 N 77.0333 3.83748 -4.35566 0
M  V30 870 H 79.7983 0.000709447 -2.997 0
M  V30 871 H 77.3593 -0.145132 -1.61248 0
M  V30 872 H 79.3513 2.52655 -3.16145 0
M  V30 873 H 77.9213 2.29245 -2.12521 0
M  V30 874 H 77.1413 0.554906 -3.90275 0
M  V30 875 H 78.4293 1.17598 -4.95023 0
M  V30 876 H 77.8273 4.15625 -3.83761 0
M  V30 877 H 76.3843 4.51977 -4.69638 0
M  V30 878 N 79.8174 1.5752 -0.0501392 0
M  V30 879 C 80.7494 2.08413 0.95376 0
M  V30 880 C 81.7624 1.01175 1.27544 0
M  V30 881 O 82.9514 1.28744 1.23641 0
M  V30 882 C 80.0514 2.51138 2.27559 0
M  V30 883 C 79.2244 3.817 2.13598 0
M  V30 884 C 78.2834 4.10749 3.28895 0
M  V30 885 O 77.3094 4.80685 3.04845 0
M  V30 886 N 78.5114 3.62579 4.5334 0
M  V30 887 H 81.2764 2.95165 0.519383 0
M  V30 888 H 78.8374 1.61327 0.136127 0
M  V30 889 H 80.8294 2.67648 3.03557 0
M  V30 890 H 79.3994 1.6964 2.62567 0
M  V30 891 H 78.6194 3.74782 1.22197 0
M  V30 892 H 79.9074 4.67201 2.01496 0
M  V30 893 H 79.3054 3.06039 4.75769 0
M  V30 894 H 77.8624 3.84329 5.26436 0
M  V30 895 N 81.2955 -0.223234 1.56011 0
M  V30 896 C 82.2585 -1.26014 1.9145 0
M  V30 897 C 83.2585 -1.3989 0.792937 0
M  V30 898 O 84.4485 -1.38184 1.0607 0
M  V30 899 C 81.5805 -2.63422 2.16383 0
M  V30 900 H 82.7735 -0.95796 2.84189 0
M  V30 901 H 80.3265 -0.463576 1.49267 0
M  V30 902 H 81.0615 -2.98741 1.2619 0
M  V30 903 H 80.8465 -2.54728 2.98088 0
M  V30 904 H 82.3365 -3.38249 2.44903 0
M  V30 905 N 82.7736 -1.49793 -0.48987 0
M  V30 906 C 83.7036 -1.70201 -1.59856 0
M  V30 907 C 84.6846 -0.55076 -1.60937 0
M  V30 908 O 85.8696 -0.787841 -1.77501 0
M  V30 909 C 82.9996 -1.77882 -2.98287 0
M  V30 910 C 81.9536 -2.92907 -3.12073 0
M  V30 911 C 81.2796 -2.85712 -4.51965 0
M  V30 912 C 82.5796 -4.3369 -2.91051 0
M  V30 913 H 84.2736 -2.63025 -1.43032 0
M  V30 914 H 81.8196 -1.26574 -0.686664 0
M  V30 915 H 83.7726 -1.90744 -3.75759 0
M  V30 916 H 82.4966 -0.816653 -3.16225 0
M  V30 917 H 81.1556 -2.79665 -2.37029 0
M  V30 918 H 80.8036 -1.8738 -4.66795 0
M  V30 919 H 80.5036 -3.62921 -4.62128 0
M  V30 920 H 82.0276 -3.00598 -5.31482 0
M  V30 921 H 83.4416 -4.47555 -3.58284 0
M  V30 922 H 81.8386 -5.12205 -3.12675 0
M  V30 923 H 82.9086 -4.47362 -1.87071 0
M  V30 924 N 84.2517 0.741722 -1.39055 0
M  V30 925 C 85.2147 1.83733 -1.37021 0
M  V30 926 C 86.2147 1.58542 -0.268534 0
M  V30 927 O 87.4047 1.66067 -0.526076 0
M  V30 928 C 84.5367 3.2141 -1.13617 0
M  V30 929 H 85.7297 1.86941 -2.34506 0
M  V30 930 H 83.2827 0.944676 -1.24521 0
M  V30 931 H 84.0177 3.23865 -0.167863 0
M  V30 932 H 83.8027 3.4109 -1.93391 0
M  V30 933 H 85.2927 4.01477 -1.14918 0
M  V30 934 N 85.7298 1.2412 0.971189 0
M  V30 935 C 87.1458 1.00584 1.23916 0
M  V30 936 C 87.3458 -0.287481 1.99439 0
M  V30 937 O 86.4018 -1.00454 2.31658 0
M  V30 938 C 87.7148 2.21864 2.0297 0
M  V30 939 C 89.2628 2.26452 2.16076 0
M  V30 940 C 89.7378 3.47343 2.98524 0
M  V30 941 N 91.2288 3.47639 3.06107 0
M  V30 942 C 91.9638 4.37837 3.70251 0
M  V30 943 N 91.4598 5.38286 4.36142 0
M  V30 944 N 93.2528 4.25558 3.67228 0
M  V30 945 H 85.4038 2.07236 0.465499 0
M  V30 946 H 87.6668 0.909236 0.268315 0
M  V30 947 H 87.3728 3.15771 1.54861 0
M  V30 948 H 87.2468 2.23698 3.03709 0
M  V30 949 H 89.6338 1.33078 2.6339 0
M  V30 950 H 89.7148 2.28645 1.14696 0
M  V30 951 H 89.3588 4.41029 2.51905 0
M  V30 952 H 89.2888 3.42393 4.00093 0
M  V30 953 H 91.7798 2.74966 2.59233 0
M  V30 954 H 92.0928 6.03352 4.82894 0
M  V30 955 H 90.4378 5.42176 4.34822 0
M  V30 956 H 93.6288 3.46322 3.14927 0
M  V30 957 H 93.8018 4.96054 4.16935 0
M  V30 958 N 87.2079 -1.17134 1.05439 0
M  V30 959 C 88.1709 -2.19439 0.661764 0
M  V30 960 C 89.1709 -1.58199 -0.288042 0
M  V30 961 O 90.3609 -1.74053 -0.0715803 0
M  V30 962 C 87.4929 -3.40889 -0.0276209 0
M  V30 963 H 88.6859 -2.55688 1.56728 0
M  V30 964 H 86.2389 -1.31259 0.848567 0
M  V30 965 H 86.9739 -3.10187 -0.94629 0
M  V30 966 H 86.7589 -3.86586 0.655238 0
M  V30 967 H 88.2489 -4.16603 -0.288342 0
M  V30 968 N 88.686 -0.835752 -1.33615 0
M  V30 969 C 89.932 -0.430596 -1.98176 0
M  V30 970 C 90.265 1.00684 -1.66061 0
M  V30 971 O 89.54 1.70339 -0.938877 0
M  V30 972 C 89.823 -0.648065 -3.5422 0
M  V30 973 C 89.676 -2.13255 -3.96033 0
M  V30 974 C 90.995 -0.0922113 -4.40003 0
M  V30 975 H 88.114 -0.157924 -0.719881 0
M  V30 976 H 90.756 -1.05069 -1.58305 0
M  V30 977 H 88.906 -0.120237 -3.88314 0
M  V30 978 H 90.578 -2.725 -3.72211 0
M  V30 979 H 88.821 -2.61823 -3.45878 0
M  V30 980 H 89.492 -2.23547 -5.04708 0
M  V30 981 H 91.968 -0.543343 -4.12537 0
M  V30 982 H 90.844 -0.274083 -5.48215 0
M  V30 983 H 91.105 1.00378 -4.30554 0
M  V30 984 N 90.1641 1.46063 -0.591896 0
M  V30 985 C 91.3941 2.06418 -0.0867676 0
M  V30 986 C 91.8021 1.43975 1.22751 0
M  V30 987 O 91.1451 0.542531 1.75506 0
M  V30 988 C 91.2071 3.59213 0.143725 0
M  V30 989 C 90.8711 4.439 -1.08635 0
M  V30 990 C 91.8681 4.79864 -2.00067 0
M  V30 991 C 89.5531 4.84896 -1.31077 0
M  V30 992 C 91.5471 5.55661 -3.12282 0
M  V30 993 C 89.2341 5.6045 -2.43596 0
M  V30 994 C 90.2321 5.95747 -3.34027 0
M  V30 995 O 89.9201 6.69772 -4.4459 0
M  V30 996 H 89.6521 0.673443 -0.0587447 0
M  V30 997 H 92.2061 1.88539 -0.814994 0
M  V30 998 H 90.4361 3.75433 0.926668 0
M  V30 999 H 92.1251 4.01463 0.5985 0
M  V30 1000 H 92.8911 4.48763 -1.83947 0
M  V30 1001 H 88.7701 4.56867 -0.61594 0
M  V30 1002 H 92.3141 5.8313 -3.82891 0
M  V30 1003 H 88.2111 5.90965 -2.59674 0
M  V30 1004 H 88.9791 6.88207 -4.43073 0
M  V30 1005 N 91.6422 0.330177 1.54103 0
M  V30 1006 C 92.6052 -0.520144 2.2322 0
M  V30 1007 C 93.6052 -1.03828 1.22786 0
M  V30 1008 O 94.7952 -0.929652 1.4732 0
M  V30 1009 C 91.9272 -1.72317 2.94142 0
M  V30 1010 H 93.1202 0.0841605 2.99782 0
M  V30 1011 H 90.6732 0.0813433 1.56088 0
M  V30 1012 H 91.4082 -2.36653 2.21734 0
M  V30 1013 H 91.1932 -1.35898 3.67796 0
M  V30 1014 H 92.6832 -2.3266 3.46784 0
M  V30 1015 N 93.1203 -1.57491 0.0584922 0
M  V30 1016 C 94.3503 -1.9701 -0.622134 0
M  V30 1017 C 94.7583 -0.935034 -1.6448 0
M  V30 1018 O 94.1013 0.0882904 -1.83488 0
M  V30 1019 C 94.1633 -3.32794 -1.35972 0
M  V30 1020 C 93.8273 -4.54343 -0.492043 0
M  V30 1021 C 94.8243 -5.19323 0.244901 0
M  V30 1022 C 92.5093 -5.00534 -0.420821 0
M  V30 1023 C 94.5033 -6.28835 1.04143 0
M  V30 1024 C 92.1903 -6.09921 0.379389 0
M  V30 1025 C 93.1883 -6.73933 1.10919 0
M  V30 1026 O 92.8763 -7.81216 1.89623 0
M  V30 1027 H 92.6083 -0.653127 -0.174359 0
M  V30 1028 H 95.1623 -2.05029 0.123418 0
M  V30 1029 H 93.3923 -3.21351 -2.15105 0
M  V30 1030 H 95.0813 -3.5701 -1.93129 0
M  V30 1031 H 95.8473 -4.8459 0.19939 0
M  V30 1032 H 91.7263 -4.50496 -0.978474 0
M  V30 1033 H 95.2703 -6.7873 1.61157 0
M  V30 1034 H 91.1673 -6.44089 0.426512 0
M  V30 1035 H 91.9353 -7.98029 1.81913 0
M  V30 1036 N 94.5984 0.214957 -1.56127 0
M  V30 1037 C 95.5614 1.24997 -1.92116 0
M  V30 1038 C 96.5614 1.39467 -0.800344 0
M  V30 1039 O 97.7514 1.37619 -1.06802 0
M  V30 1040 C 94.8834 2.62271 -2.17777 0
M  V30 1041 H 96.0764 0.942875 -2.84693 0
M  V30 1042 H 93.6294 0.455654 -1.49511 0
M  V30 1043 H 94.3644 2.98068 -1.27773 0
M  V30 1044 H 94.1494 2.53143 -2.99434 0
M  V30 1045 H 95.6394 3.36946 -2.46693 0
M  V30 1046 N 96.0765 1.50051 0.48192 0
M  V30 1047 C 96.9865 1.7089 1.60728 0
M  V30 1048 C 98.0025 0.591788 1.63627 0
M  V30 1049 O 99.1785 0.868817 1.81696 0
M  V30 1050 C 96.2435 1.78855 2.97005 0
M  V30 1051 C 95.3045 3.02537 3.04581 0
M  V30 1052 C 94.5375 3.10112 4.34357 0
M  V30 1053 O 94.7605 2.24765 5.24249 0
M  V30 1054 O 93.6945 4.02747 4.47301 0
M  V30 1055 H 97.5205 2.66264 1.46072 0
M  V30 1056 H 95.1055 1.34018 0.660264 0
M  V30 1057 H 96.9875 1.86336 3.77964 0
M  V30 1058 H 95.6625 0.866628 3.11883 0
M  V30 1059 H 94.5695 3.00563 2.22739 0
M  V30 1060 H 95.9025 3.94272 2.94636 0
M  V30 1061 N 97.5546 -0.734337 1.39446 0
M  V30 1062 C 98.5026 -1.86971 1.38364 0
M  V30 1063 C 99.4966 -1.67288 0.266687 0
M  V30 1064 O 100.703 -1.74621 0.436755 0
M  V30 1065 H 97.0776 -0.615474 0.432082 0
M  V30 1066 H 99.0486 -1.85 2.34132 0
M  V30 1067 C 97.7976 -3.2466 1.24465 0
M  V30 1068 H 97.1206 -3.40402 2.09682 0
M  V30 1069 H 98.5606 -4.04292 1.27764 0
M  V30 1070 C 97.0196 -3.36867 -0.0468674 0
M  V30 1071 O 97.5496 -3.88618 -1.01681 0
M  V30 1072 N 95.7556 -2.90391 -0.110145 0
M  V30 1073 H 95.3026 -2.48466 0.679868 0
M  V30 1074 H 95.2606 -2.98939 -0.973799 0
M  V30 1075 N 99.0327 -1.24633 -0.964593 0
M  V30 1076 C 100.282 -1.08188 -1.7023 0
M  V30 1077 C 100.595 0.37873 -1.91898 0
M  V30 1078 O 101.801 0.663427 -2.6327 0
M  V30 1079 C 100.257 -1.88773 -3.06419 0
M  V30 1080 C 99.8647 -3.39263 -2.92582 0
M  V30 1081 C 101.609 -1.80867 -3.84041 0
M  V30 1082 C 99.5157 -4.1218 -4.24101 0
M  V30 1083 H 98.4457 -0.401245 -0.638372 0
M  V30 1084 H 101.097 -1.48742 -1.07462 0
M  V30 1085 H 99.4787 -1.41035 -3.70034 0
M  V30 1086 H 100.653 -3.94603 -2.37961 0
M  V30 1087 H 98.9677 -3.48154 -2.28424 0
M  V30 1088 H 101.565 -2.32646 -4.81435 0
M  V30 1089 H 101.908 -0.774543 -4.09031 0
M  V30 1090 H 102.441 -2.26301 -3.27159 0
M  V30 1091 H 99.1797 -5.15965 -4.04303 0
M  V30 1092 H 98.6997 -3.61626 -4.78526 0
M  V30 1093 H 100.379 -4.19349 -4.92702 0
M  V30 1094 N 100.511 1.16574 -1.06058 0
M  V30 1095 C 101.421 2.2452 -0.680282 0
M  V30 1096 C 102.437 1.71348 0.302604 0
M  V30 1097 O 103.613 2.00822 0.152513 0
M  V30 1098 C 100.678 3.46629 -0.0700315 0
M  V30 1099 C 99.7388 4.14849 -1.10448 0
M  V30 1100 C 98.9718 5.31129 -0.523256 0
M  V30 1101 O 99.1948 5.66514 0.664709 0
M  V30 1102 O 98.1288 5.88526 -1.26179 0
M  V30 1103 H 101.955 2.59355 -1.58015 0
M  V30 1104 H 99.5398 1.24043 -0.832694 0
M  V30 1105 H 101.422 4.20543 0.268667 0
M  V30 1106 H 100.097 3.13573 0.803353 0
M  V30 1107 H 99.0038 3.42916 -1.49532 0
M  V30 1108 H 100.337 4.51954 -1.94931 0
M  V30 1109 N 101.989 0.842826 1.3317 0
M  V30 1110 C 103.266 0.362216 1.92217 0
M  V30 1111 C 103.646 -1.15289 1.76838 0
M  V30 1112 O 102.994 -1.96914 1.15919 0
M  V30 1113 C 103.204 0.813495 3.39387 0
M  V30 1114 C 104.552 0.823804 4.16532 0
M  V30 1115 O 105.576 0.757358 3.48055 0
M  V30 1116 O 104.435 0.915193 5.38782 0
M  V30 1117 H 101.529 0.103317 0.820521 0
M  V30 1118 H 104.075 0.928942 1.42017 0
M  V30 1119 H 102.847 1.85624 3.4447 0
M  V30 1120 H 102.47 0.223561 3.96971 0
M  V30 1121 N 103.467 -1.45747 0.599634 0
M  V30 1122 C 104.878 -1.85853 0.177681 0
M  V30 1123 C 105.229 -1.50102 -1.26348 0
M  V30 1124 O 104.354 -0.923905 -1.95686 0
M  V30 1125 C 104.949 -3.37326 0.315688 0
M  V30 1126 C 103.508 -3.76365 -0.0515144 0
M  V30 1127 C 102.655 -2.69722 0.643822 0
M  V30 1128 H 105.606 -1.36661 0.806814 0
M  V30 1129 H 105.627 -3.77778 -0.454321 0
M  V30 1130 H 105.139 -3.63315 1.36468 0
M  V30 1131 H 103.24 -3.55993 -1.09999 0
M  V30 1132 H 103.353 -4.77916 0.336594 0
M  V30 1133 H 101.717 -2.54567 0.0822881 0
M  V30 1134 H 102.5 -2.98549 1.6948 0
M  V30 1135 N 104.945 -0.338344 -1.53925 0
M  V30 1136 C 105.893 0.536231 -2.26335 0
M  V30 1137 C 106.887 1.1063 -1.28286 0
M  V30 1138 O 108.093 1.05264 -1.46012 0
M  V30 1139 H 104.468 0.191602 -0.727181 0
M  V30 1140 H 106.439 -0.0965747 -2.98244 0
M  V30 1141 C 105.188 1.67803 -3.04528 0
M  V30 1142 H 104.511 1.24864 -3.79801 0
M  V30 1143 H 105.951 2.26526 -3.58416 0
M  V30 1144 C 104.41 2.60439 -2.13712 0
M  V30 1145 O 104.94 3.6255 -1.72975 0
M  V30 1146 N 103.146 2.29006 -1.78898 0
M  V30 1147 H 102.693 1.46011 -2.12223 0
M  V30 1148 H 102.651 2.91248 -1.18416 0
M  V30 1149 N 106.423 1.57458 -0.0668435 0
M  V30 1150 C 107.648 1.9804 0.616027 0
M  V30 1151 C 108.073 0.944771 1.62652 0
M  V30 1152 O 107.431 -0.0902094 1.81075 0
M  V30 1153 C 107.479 3.37665 1.26549 0
M  V30 1154 O 106.583 3.36701 2.38131 0
M  V30 1155 H 105.924 0.644719 0.158849 0
M  V30 1156 H 108.454 2.04121 -0.139891 0
M  V30 1157 H 108.464 3.7474 1.6135 0
M  V30 1158 H 107.139 4.12573 0.525016 0
M  V30 1159 H 105.716 3.1139 2.0516 0
M  V30 1160 N 107.901 -0.206675 1.56239 0
M  V30 1161 C 108.831 -1.25909 1.96645 0
M  V30 1162 C 109.812 -1.48097 0.836734 0
M  V30 1163 O 110.997 -1.6003 1.10019 0
M  V30 1164 C 108.127 -2.6058 2.29599 0
M  V30 1165 C 107.081 -2.53024 3.452 0
M  V30 1166 C 106.407 -3.91861 3.63798 0
M  V30 1167 C 107.707 -2.06524 4.79734 0
M  V30 1168 H 109.401 -0.923369 2.84806 0
M  V30 1169 H 106.947 -0.442735 1.37025 0
M  V30 1170 H 108.9 -3.34375 2.56459 0
M  V30 1171 H 107.624 -2.95869 1.38307 0
M  V30 1172 H 106.283 -1.81684 3.18412 0
M  V30 1173 H 105.931 -4.24483 2.69857 0
M  V30 1174 H 105.631 -3.87683 4.4156 0
M  V30 1175 H 107.155 -4.67296 3.93022 0
M  V30 1176 H 108.569 -2.70072 5.05702 0
M  V30 1177 H 106.966 -2.13374 5.60885 0
M  V30 1178 H 108.036 -1.01802 4.74093 0
M  V30 1179 N 109.379 -1.50304 -0.473955 0
M  V30 1180 C 110.312 -1.63595 -1.59097 0
M  V30 1181 C 111.29 -0.484142 -1.55225 0
M  V30 1182 O 112.474 -0.703271 -1.7489 0
M  V30 1183 C 109.601 -1.61589 -2.97669 0
M  V30 1184 C 108.647 -2.82295 -3.19705 0
M  V30 1185 S 109.48 -4.43635 -2.99913 0
M  V30 1186 C 110.636 -4.44317 -4.40832 0
M  V30 1187 H 110.869 -2.58082 -1.47583 0
M  V30 1188 H 108.402 -1.39531 -0.661087 0
M  V30 1189 H 110.36 -1.61116 -3.7756 0
M  V30 1190 H 109.021 -0.683421 -3.06575 0
M  V30 1191 H 108.214 -2.77188 -4.20931 0
M  V30 1192 H 107.816 -2.8032 -2.47582 0
M  V30 1193 H 110.108 -4.17703 -5.33414 0
M  V30 1194 H 111.051 -5.45911 -4.50984 0
M  V30 1195 H 111.459 -3.74059 -4.22777 0
M  V30 1196 N 110.857 0.726932 -1.39834 0
M  V30 1197 C 111.82 1.82269 -1.38962 0
M  V30 1198 C 112.82 1.58248 -0.285334 0
M  V30 1199 O 114.01 1.65499 -0.54366 0
M  V30 1200 C 111.142 3.20186 -1.17019 0
M  V30 1201 H 112.335 1.84443 -2.36476 0
M  V30 1202 H 109.888 0.931416 -1.25516 0
M  V30 1203 H 110.623 3.23669 -0.202204 0
M  V30 1204 H 110.408 3.3902 -1.96998 0
M  V30 1205 H 111.898 4.00235 -1.1917 0
M  V30 1206 N 112.336 1.25143 0.95797 0
M  V30 1207 C 113.582 1.09855 1.70469 0
M  V30 1208 C 113.915 -0.360187 1.90831 0
M  V30 1209 O 113.19 -1.26568 1.47685 0
M  V30 1210 C 113.473 1.8497 3.08963 0
M  V30 1211 C 113.326 3.38652 2.96032 0
M  V30 1212 C 114.645 1.63016 4.08795 0
M  V30 1213 H 111.764 0.400465 0.618706 0
M  V30 1214 H 114.406 1.53933 1.11376 0
M  V30 1215 H 112.556 1.47505 3.59409 0
M  V30 1216 H 114.228 3.85772 2.52938 0
M  V30 1217 H 112.471 3.66534 2.32025 0
M  V30 1218 H 113.142 3.8642 3.94187 0
M  V30 1219 H 115.618 1.95625 3.67247 0
M  V30 1220 H 114.494 2.18015 5.03747 0
M  V30 1221 H 114.755 0.570692 4.38401 0
M  V30 1222 N 113.814 -1.1601 1.06675 0
M  V30 1223 C 114.744 -2.22688 0.702307 0
M  V30 1224 C 115.725 -1.67306 -0.307032 0
M  V30 1225 O 116.91 -1.93352 -0.181305 0
M  V30 1226 C 114.04 -3.47178 0.092038 0
M  V30 1227 C 112.994 -4.15477 1.02777 0
M  V30 1228 C 112.32 -5.33963 0.28061 0
M  V30 1229 C 113.62 -4.66019 2.35846 0
M  V30 1230 H 115.314 -2.53429 1.59419 0
M  V30 1231 H 112.86 -1.21813 0.767961 0
M  V30 1232 H 114.813 -4.21037 -0.174814 0
M  V30 1233 H 113.537 -3.15749 -0.834877 0
M  V30 1234 H 112.196 -3.43549 1.27944 0
M  V30 1235 H 111.844 -4.98788 -0.649545 0
M  V30 1236 H 111.544 -5.806 0.904258 0
M  V30 1237 H 113.068 -6.10596 0.021396 0
M  V30 1238 H 114.482 -5.3144 2.15045 0
M  V30 1239 H 112.879 -5.23293 2.93743 0
M  V30 1240 H 113.949 -3.82023 2.98641 0
M  V30 1241 N 115.292 -0.849877 -1.32721 0
M  V30 1242 C 116.239 -0.289033 -2.28983 0
M  V30 1243 C 117.209 0.601324 -1.54833 0
M  V30 1244 O 118.394 0.537253 -1.8308 0
M  V30 1245 C 115.534 0.520623 -3.4115 0
M  V30 1246 C 114.647 -0.394989 -4.3019 0
M  V30 1247 C 113.782 0.426834 -5.29482 0
M  V30 1248 C 112.821 -0.486476 -6.10164 0
M  V30 1249 N 111.958 0.297879 -7.01468 0
M  V30 1250 H 116.798 -1.11519 -2.76347 0
M  V30 1251 H 114.335 -0.56138 -1.35967 0
M  V30 1252 H 116.293 1.00563 -4.04899 0
M  V30 1253 H 114.923 1.31165 -2.9495 0
M  V30 1254 H 113.975 -0.99836 -3.67065 0
M  V30 1255 H 115.287 -1.09612 -4.86607 0
M  V30 1256 H 114.441 0.975205 -5.98811 0
M  V30 1257 H 113.18 1.16136 -4.73671 0
M  V30 1258 H 112.185 -1.04677 -5.39743 0
M  V30 1259 H 113.41 -1.21953 -6.6806 0
M  V30 1260 H 111.356 1.01558 -6.48091 0
M  V30 1261 H 111.273 -0.344318 -7.55216 0
M  V30 1262 H 112.541 0.828131 -7.75089 0
M  V30 1263 N 116.77 1.45427 -0.607355 0
M  V30 1264 C 117.718 2.32269 0.12411 0
M  V30 1265 C 118.712 1.45955 0.859854 0
M  V30 1266 O 119.918 1.6244 0.775447 0
M  V30 1267 H 116.293 0.749691 0.0588839 0
M  V30 1268 H 118.264 2.91743 -0.626762 0
M  V30 1269 C 117.013 3.29567 1.1082 0
M  V30 1270 H 116.336 3.95978 0.551492 0
M  V30 1271 H 117.776 3.93061 1.58995 0
M  V30 1272 C 116.235 2.56722 2.18164 0
M  V30 1273 O 116.765 2.34842 3.25902 0
M  V30 1274 N 114.971 2.16861 1.93442 0
M  V30 1275 H 114.518 2.34855 1.05834 0
M  V30 1276 H 114.476 1.68444 2.65469 0
M  V30 1277 N 118.248 0.346503 1.53744 0
M  V30 1278 C 119.497 -0.250122 2.00143 0
M  V30 1279 C 119.81 -1.51418 1.23822 0
M  V30 1280 O 121.016 -2.18823 1.60713 0
M  V30 1281 C 119.472 -0.496252 3.56462 0
M  V30 1282 C 119.08 0.752077 4.41642 0
M  V30 1283 C 120.824 -1.05157 4.11269 0
M  V30 1284 C 118.731 0.476583 5.89477 0
M  V30 1285 H 117.661 -0.0972409 0.747703 0
M  V30 1286 H 120.312 0.46229 1.77581 0
M  V30 1287 H 118.694 -1.26944 3.75102 0
M  V30 1288 H 119.868 1.5266 4.34778 0
M  V30 1289 H 118.183 1.22925 3.97842 0
M  V30 1290 H 120.78 -1.27269 5.19333 0
M  V30 1291 H 121.123 -2.00799 3.64672 0
M  V30 1292 H 121.656 -0.339019 3.96353 0
M  V30 1293 H 118.395 1.4028 6.40314 0
M  V30 1294 H 117.915 -0.259794 5.99237 0
M  V30 1295 H 119.594 0.0949315 6.4693 0
M  V30 1296 N 119.726 -1.57421 0.075193 0
M  V30 1297 C 120.689 -2.11791 -0.876203 0
M  V30 1298 C 121.689 -1.04268 -1.22412 0
M  V30 1299 O 122.879 -1.30242 -1.15684 0
M  V30 1300 C 120.011 -2.62207 -2.17854 0
M  V30 1301 H 121.204 -2.9716 -0.40444 0
M  V30 1302 H 118.757 -1.55333 -0.173557 0
M  V30 1303 H 119.492 -1.803 -2.6956 0
M  V30 1304 H 119.277 -3.40802 -1.93897 0
M  V30 1305 H 120.767 -3.04335 -2.85955 0
M  V30 1306 N 121.204 0.198386 -1.56346 0
M  V30 1307 C 122.152 1.26538 -1.95169 0
M  V30 1308 C 123.146 1.47295 -0.836685 0
M  V30 1309 O 124.352 1.48195 -1.02167 0
M  V30 1310 H 120.727 0.424744 -0.620561 0
M  V30 1311 H 122.698 0.910904 -2.84157 0
M  V30 1312 C 121.447 2.6035 -2.30463 0
M  V30 1313 H 120.77 2.45192 -3.15786 0
M  V30 1314 H 122.21 3.33762 -2.61494 0
M  V30 1315 C 120.669 3.17096 -1.13806 0
M  V30 1316 O 121.199 3.99588 -0.41135 0
M  V30 1317 N 119.405 2.75795 -0.915736 0
M  V30 1318 H 118.952 2.08816 -1.50843 0
M  V30 1319 H 118.91 3.14101 -0.136979 0
M  V30 1320 N 122.682 1.50554 0.465978 0
M  V30 1321 C 123.629 1.6979 1.56333 0
M  V30 1322 C 124.599 0.539239 1.57103 0
M  V30 1323 O 125.784 0.770401 1.74555 0
M  V30 1324 C 122.924 1.80273 2.94271 0
M  V30 1325 C 122.037 3.07674 3.0325 0
M  V30 1326 C 121.172 3.08922 4.32135 0
M  V30 1327 C 120.211 4.30755 4.34875 0
M  V30 1328 N 119.348 4.29714 5.55239 0
M  V30 1329 H 124.188 2.63472 1.39235 0
M  V30 1330 H 121.725 1.30602 0.676873 0
M  V30 1331 H 123.683 1.84332 3.74269 0
M  V30 1332 H 122.313 0.900258 3.09992 0
M  V30 1333 H 121.365 3.13062 2.16094 0
M  V30 1334 H 122.677 3.97642 3.01135 0
M  V30 1335 H 121.831 3.11738 5.20485 0
M  V30 1336 H 120.57 2.16792 4.36866 0
M  V30 1337 H 119.575 4.28146 3.44922 0
M  V30 1338 H 120.8 5.24117 4.31831 0
M  V30 1339 H 118.746 3.4044 5.60746 0
M  V30 1340 H 118.663 5.13456 5.54886 0
M  V30 1341 H 119.931 4.36683 6.457 0
M  V30 1342 N 124.16 -0.719506 1.40217 0
M  V30 1343 C 125.11 -1.8251 1.36653 0
M  V30 1344 C 126.094 -1.59028 0.244732 0
M  V30 1345 O 127.286 -1.70268 0.483524 0
M  V30 1346 C 124.415 -3.20599 1.22763 0
M  V30 1347 C 123.501 -3.49858 2.39708 0
M  V30 1348 N 123.892 -3.49957 3.6519 0
M  V30 1349 C 122.19 -3.80297 2.33002 0
M  V30 1350 C 122.891 -3.77449 4.42614 0
M  V30 1351 N 121.867 -3.96002 3.72402 0
M  V30 1352 H 125.669 -1.80914 2.31619 0
M  V30 1353 H 123.183 -0.918455 1.33933 0
M  V30 1354 H 125.18 -3.99766 1.18292 0
M  V30 1355 H 123.84 -3.23424 0.287614 0
M  V30 1356 H 124.851 -3.309 3.98404 0
M  V30 1357 H 121.528 -3.90635 1.47346 0
M  V30 1358 H 122.918 -3.83863 5.51451 0
M  V30 1359 N 125.638 -1.25649 -0.95132 0
M  V30 1360 C 126.601 -1.06399 -2.03007 0
M  V30 1361 C 127.601 -0.0156794 -1.60792 0
M  V30 1362 O 128.791 -0.25817 -1.72276 0
M  V30 1363 C 125.923 -0.616184 -3.35285 0
M  V30 1364 H 127.116 -2.02164 -2.21517 0
M  V30 1365 H 124.669 -1.08103 -1.12887 0
M  V30 1366 H 125.404 0.343917 -3.22471 0
M  V30 1367 H 125.189 -1.37301 -3.67275 0
M  V30 1368 H 126.679 -0.503032 -4.14559 0
M  V30 1369 N 127.117 1.15442 -1.07289 0
M  V30 1370 C 128.342 1.90638 -0.816828 0
M  V30 1371 C 128.767 1.77445 0.624083 0
M  V30 1372 O 128.125 1.10671 1.43602 0
M  V30 1373 C 128.173 3.39008 -1.22906 0
M  V30 1374 O 127.277 4.10701 -0.373975 0
M  V30 1375 H 126.618 0.593555 -0.297638 0
M  V30 1376 H 129.148 1.46198 -1.43134 0
M  V30 1377 H 129.158 3.89801 -1.20497 0
M  V30 1378 H 127.833 3.47929 -2.27856 0
M  V30 1379 H 126.41 3.70046 -0.460499 0
M  V30 1380 N 128.595 0.856903 1.32268 0
M  V30 1381 C 129.525 0.31858 2.31316 0
M  V30 1382 C 130.506 -0.583487 1.59779 0
M  V30 1383 O 131.691 -0.503259 1.87566 0
M  V30 1384 C 128.821 -0.491979 3.43798 0
M  V30 1385 C 127.775 0.315849 4.26833 0
M  V30 1386 C 127.101 -0.619586 5.31098 0
M  V30 1387 C 128.401 1.54282 4.98993 0
M  V30 1388 H 130.095 1.14621 2.76591 0
M  V30 1389 H 127.641 0.552613 1.32974 0
M  V30 1390 H 129.594 -0.879012 4.1213 0
M  V30 1391 H 128.318 -1.35299 2.97257 0
M  V30 1392 H 126.977 0.684664 3.6015 0
M  V30 1393 H 126.625 -1.47751 4.8081 0
M  V30 1394 H 126.325 -0.0830621 5.87541 0
M  V30 1395 H 127.849 -1.00375 6.02293 0
M  V30 1396 H 129.263 1.22796 5.59995 0
M  V30 1397 H 127.66 2.01745 5.65172 0
M  V30 1398 H 128.73 2.30285 4.26728 0
M  V30 1399 N 130.073 -1.45103 0.615059 0
M  V30 1400 C 131.321 -2.01784 0.112955 0
M  V30 1401 C 131.642 -1.48504 -1.26378 0
M  V30 1402 O 130.912 -0.682245 -1.83636 0
M  V30 1403 H 129.492 -0.745993 0.0387668 0
M  V30 1404 H 132.154 -1.77808 0.798141 0
M  V30 1405 H 131.25 -3.12025 0.0684069 0
M  V30 1406 N 131.551 -0.354651 -1.53558 0
M  V30 1407 C 132.797 0.238797 -2.01389 0
M  V30 1408 C 133.13 1.49309 -1.2418 0
M  V30 1409 O 132.405 1.91638 -0.332457 0
M  V30 1410 C 132.688 0.541771 -3.56001 0
M  V30 1411 C 132.541 -0.725388 -4.43912 0
M  V30 1412 C 133.86 1.34685 -4.18984 0
M  V30 1413 H 130.979 0.0853177 -0.732045 0
M  V30 1414 H 133.621 -0.477384 -1.83905 0
M  V30 1415 H 131.771 1.15189 -3.71031 0
M  V30 1416 H 133.443 -1.36313 -4.407 0
M  V30 1417 H 131.686 -1.34801 -4.12324 0
M  V30 1418 H 132.357 -0.468505 -5.50008 0
M  V30 1419 H 134.833 0.830837 -4.07721 0
M  V30 1420 H 133.709 1.52759 -5.27215 0
M  V30 1421 H 133.97 2.35221 -3.74331 0
M  V30 1422 N 133.029 1.57378 -0.0835403 0
M  V30 1423 C 133.976 2.13384 0.879539 0
M  V30 1424 C 134.946 1.04936 1.28754 0
M  V30 1425 O 136.131 1.32662 1.37133 0
M  V30 1426 C 133.271 2.70932 2.13752 0
M  V30 1427 C 132.384 3.93575 1.7811 0
M  V30 1428 C 131.519 4.39326 2.98607 0
M  V30 1429 C 130.558 5.54587 2.59037 0
M  V30 1430 N 129.695 5.95243 3.72331 0
M  V30 1431 H 134.535 2.9537 0.395076 0
M  V30 1432 H 132.072 1.45953 0.183349 0
M  V30 1433 H 134.03 3.02411 2.87408 0
M  V30 1434 H 132.66 1.91693 2.59718 0
M  V30 1435 H 131.712 3.68483 0.94469 0
M  V30 1436 H 133.024 4.77258 1.45005 0
M  V30 1437 H 132.178 4.72528 3.80529 0
M  V30 1438 H 130.917 3.5452 3.34913 0
M  V30 1439 H 129.922 5.21024 1.75539 0
M  V30 1440 H 131.147 6.41133 2.23887 0
M  V30 1441 H 129.093 5.13385 4.08378 0
M  V30 1442 H 129.01 6.73694 3.43034 0
M  V30 1443 H 130.278 6.33072 4.54797 0
M  V30 1444 N 134.507 -0.190092 1.56449 0
M  V30 1445 C 135.918 -0.754312 1.70784 0
M  V30 1446 C 136.269 -1.83631 0.690951 0
M  V30 1447 O 135.394 -2.15868 -0.151604 0
M  V30 1448 C 135.989 -1.37503 3.09642 0
M  V30 1449 C 134.548 -1.88628 3.25725 0
M  V30 1450 C 133.695 -0.758098 2.66736 0
M  V30 1451 H 136.646 0.0350524 1.58661 0
M  V30 1452 H 136.667 -2.2445 3.0725 0
M  V30 1453 H 136.179 -0.587302 3.83631 0
M  V30 1454 H 134.28 -2.70103 2.56661 0
M  V30 1455 H 134.393 -2.04462 4.3328 0
M  V30 1456 H 132.757 -1.17369 2.26046 0
M  V30 1457 H 133.54 0.0174705 3.43296 0
M  V30 1458 N 135.985 -1.50799 -0.457987 0
M  V30 1459 C 136.895 -1.73426 -1.57989 0
M  V30 1460 C 137.911 -0.617745 -1.62665 0
M  V30 1461 O 139.087 -0.897614 -1.80291 0
M  V30 1462 C 136.152 -1.83557 -2.94122 0
M  V30 1463 C 135.213 -3.07345 -2.99729 0
M  V30 1464 C 134.446 -3.16983 -4.29368 0
M  V30 1465 O 134.669 -2.33077 -5.20607 0
M  V30 1466 O 133.603 -4.09812 -4.40837 0
M  V30 1467 H 137.429 -2.68555 -1.41817 0
M  V30 1468 H 135.014 -1.35052 -0.638859 0
M  V30 1469 H 136.896 -1.92326 -3.74952 0
M  V30 1470 H 135.571 -0.916137 -3.10465 0
M  V30 1471 H 134.478 -3.04068 -2.1793 0
M  V30 1472 H 135.811 -3.9891 -2.88326 0
M  V30 1473 N 137.463 0.71206 -1.40597 0
M  V30 1474 C 138.395 1.83704 -1.37061 0
M  V30 1475 C 139.408 1.60453 -0.275426 0
M  V30 1476 O 140.597 1.70262 -0.53602 0
M  V30 1477 C 137.697 3.20172 -1.11099 0
M  V30 1478 C 136.87 3.7059 -2.3234 0
M  V30 1479 C 135.929 4.85681 -2.02485 0
M  V30 1480 O 134.955 4.9815 -2.75382 0
M  V30 1481 N 136.157 5.71735 -1.00497 0
M  V30 1482 H 138.922 1.87235 -2.34016 0
M  V30 1483 H 136.483 0.893739 -1.34996 0
M  V30 1484 H 138.475 3.94768 -0.891064 0
M  V30 1485 H 137.045 3.11767 -0.227989 0
M  V30 1486 H 136.265 2.87085 -2.7014 0
M  V30 1487 H 137.553 4.01011 -3.13157 0
M  V30 1488 H 136.951 5.64275 -0.401298 0
M  V30 1489 H 135.508 6.463 -0.844942 0
M  V30 1490 N 138.941 1.26152 0.944643 0
M  V30 1491 C 140.171 1.14094 1.72239 0
M  V30 1492 C 140.579 -0.306931 1.86694 0
M  V30 1493 O 139.922 -1.22222 1.3714 0
M  V30 1494 C 139.984 1.73316 3.14963 0
M  V30 1495 C 139.648 3.2239 3.23904 0
M  V30 1496 C 140.645 4.19252 3.07447 0
M  V30 1497 C 138.33 3.62788 3.47405 0
M  V30 1498 C 140.324 5.54491 3.14353 0
M  V30 1499 C 138.011 4.98162 3.53947 0
M  V30 1500 C 139.009 5.93823 3.37436 0
M  V30 1501 O 138.697 7.26732 3.43679 0
M  V30 1502 H 138.429 0.398292 0.546205 0
M  V30 1503 H 140.983 1.67201 1.19301 0
M  V30 1504 H 139.213 1.14667 3.69308 0
M  V30 1505 H 140.902 1.56214 3.74636 0
M  V30 1506 H 141.668 3.8938 2.8915 0
M  V30 1507 H 137.547 2.88816 3.59313 0
M  V30 1508 H 141.091 6.29137 3.01384 0
M  V30 1509 H 136.988 5.27695 3.71763 0
M  V30 1510 H 137.756 7.3496 3.60245 0
M  V30 1511 N 140.419 -1.14872 1.07899 0
M  V30 1512 C 141.83 -1.67367 0.827363 0
M  V30 1513 C 142.181 -1.85236 -0.646693 0
M  V30 1514 O 141.306 -1.55974 -1.50004 0
M  V30 1515 C 141.901 -3.04016 1.49532 0
M  V30 1516 C 140.46 -3.53566 1.29106 0
M  V30 1517 C 139.607 -2.29161 1.56143 0
M  V30 1518 H 142.558 -0.990083 1.24028 0
M  V30 1519 H 142.579 -3.69219 0.919643 0
M  V30 1520 H 142.091 -2.90978 2.56814 0
M  V30 1521 H 140.192 -3.71835 0.238713 0
M  V30 1522 H 140.305 -4.34661 2.01511 0
M  V30 1523 H 138.669 -2.34978 0.982717 0
M  V30 1524 H 139.452 -2.18705 2.64619 0
M  V30 1525 N 141.898 -0.863906 -1.31812 0
M  V30 1526 C 143.147 -0.46801 -1.96195 0
M  V30 1527 C 143.46 0.983474 -1.69077 0
M  V30 1528 O 144.666 1.48523 -2.27273 0
M  V30 1529 C 143.122 -0.785995 -3.51212 0
M  V30 1530 C 142.73 -2.25383 -3.87178 0
M  V30 1531 C 144.474 -0.458274 -4.22019 0
M  V30 1532 C 142.381 -2.51455 -5.3528 0
M  V30 1533 H 141.311 -0.171283 -0.734287 0
M  V30 1534 H 143.962 -1.05597 -1.50072 0
M  V30 1535 H 142.344 -0.127359 -3.95795 0
M  V30 1536 H 143.518 -2.95502 -3.53575 0
M  V30 1537 H 141.833 -2.54698 -3.2942 0
M  V30 1538 H 144.43 -0.630369 -5.30971 0
M  V30 1539 H 144.773 0.600834 -4.11941 0
M  V30 1540 H 145.306 -1.07319 -3.8305 0
M  V30 1541 H 142.045 -3.56025 -5.50387 0
M  V30 1542 H 141.565 -1.85923 -5.70257 0
M  V30 1543 H 143.244 -2.35874 -6.02472 0
M  V30 1544 N 143.376 1.44774 -0.622745 0
M  V30 1545 C 144.622 2.0242 -0.124083 0
M  V30 1546 C 144.955 1.4881 1.24777 0
M  V30 1547 O 144.23 0.668799 1.8264 0
M  V30 1548 C 144.513 3.59957 -0.101619 0
M  V30 1549 C 144.366 4.23867 -1.50521 0
M  V30 1550 C 145.685 4.36284 0.578272 0
M  V30 1551 H 142.804 0.735528 -0.0465645 0
M  V30 1552 H 145.446 1.72447 -0.797617 0
M  V30 1553 H 143.596 3.85623 0.471934 0
M  V30 1554 H 145.268 4.09336 -2.12701 0
M  V30 1555 H 143.511 3.81684 -2.06154 0
M  V30 1556 H 144.182 5.32843 -1.4416 0
M  V30 1557 H 146.658 4.16001 0.0906057 0
M  V30 1558 H 145.534 5.46004 0.563149 0
M  V30 1559 H 145.795 4.10271 1.64713 0
M  V30 1560 N 144.854 0.36279 1.53368 0
M  V30 1561 C 146.102 -0.227326 2.00817 0
M  V30 1562 C 146.423 -1.49511 1.25186 0
M  V30 1563 O 145.693 -1.92482 0.364348 0
M  V30 1564 H 144.273 -0.0869923 0.741917 0
M  V30 1565 H 146.935 0.488381 1.88682 0
M  V30 1566 H 146.031 -0.456273 3.08747 0
M  V30 1567 N 146.332 -1.57332 0.0918853 0
M  V30 1568 C 147.242 -2.17368 -0.882505 0
M  V30 1569 C 148.258 -1.14226 -1.31257 0
M  V30 1570 O 149.434 -1.46582 -1.38115 0
M  V30 1571 C 146.499 -2.73962 -2.12476 0
M  V30 1572 C 145.56 -3.92048 -1.7492 0
M  V30 1573 C 144.793 -4.45933 -2.93223 0
M  V30 1574 O 145.016 -3.98764 -4.07852 0
M  V30 1575 O 143.95 -5.36999 -2.71875 0
M  V30 1576 H 147.776 -3.01031 -0.40172 0
M  V30 1577 H 145.361 -1.48813 -0.132291 0
M  V30 1578 H 147.243 -3.10147 -2.85283 0
M  V30 1579 H 145.918 -1.93347 -2.59613 0
M  V30 1580 H 144.825 -3.6068 -0.993025 0
M  V30 1581 H 146.158 -4.74017 -1.32548 0
M  V30 1582 N 147.81 0.181792 -1.56548 0
M  V30 1583 C 148.76 1.22961 -1.92002 0
M  V30 1584 C 149.744 1.40331 -0.787146 0
M  V30 1585 O 150.936 1.42478 -1.05019 0
M  V30 1586 C 148.065 2.57144 -2.27446 0
M  V30 1587 C 147.151 2.43512 -3.47222 0
M  V30 1588 N 147.542 1.99577 -4.64761 0
M  V30 1589 C 145.84 2.74368 -3.51622 0
M  V30 1590 C 146.541 1.98156 -5.46909 0
M  V30 1591 N 145.517 2.40164 -4.8767 0
M  V30 1592 H 149.319 0.881462 -2.8037 0
M  V30 1593 H 146.833 0.390141 -1.57644 0
M  V30 1594 H 148.83 3.32847 -2.51035 0
M  V30 1595 H 147.49 2.92771 -1.40411 0
M  V30 1596 H 148.501 1.70078 -4.89177 0
M  V30 1597 H 145.178 3.14102 -2.75038 0
M  V30 1598 H 146.568 1.65975 -6.51077 0
M  V30 1599 N 149.288 1.51039 0.449983 0
M  V30 1600 C 150.218 1.74379 1.55288 0
M  V30 1601 C 151.199 0.593236 1.5942 0
M  V30 1602 O 152.384 0.834625 1.7535 0
M  V30 1603 C 149.514 1.85728 2.93466 0
M  V30 1604 C 148.468 3.01078 3.04197 0
M  V30 1605 C 147.794 2.97595 4.44231 0
M  V30 1606 C 149.094 4.41254 2.7945 0
M  V30 1607 H 150.788 2.66725 1.36008 0
M  V30 1608 H 148.334 1.2835 0.652864 0
M  V30 1609 H 150.287 2.0064 3.70569 0
M  V30 1610 H 149.011 0.900207 3.13949 0
M  V30 1611 H 147.67 2.85851 2.29531 0
M  V30 1612 H 147.318 1.99691 4.61663 0
M  V30 1613 H 147.018 3.75046 4.52343 0
M  V30 1614 H 148.542 3.14583 5.23326 0
M  V30 1615 H 149.956 4.56897 3.46292 0
M  V30 1616 H 148.353 5.20315 2.98985 0
M  V30 1617 H 149.423 4.52164 1.75144 0
M  V30 1618 N 150.766 -0.704594 1.40972 0
M  V30 1619 C 151.696 -1.83124 1.44872 0
M  V30 1620 C 152.677 -1.67281 0.30838 0
M  V30 1621 O 153.862 -1.87149 0.518556 0
M  V30 1622 C 150.992 -3.21181 1.32136 0
M  V30 1623 C 149.946 -3.51714 2.43888 0
M  V30 1624 C 149.272 -4.89032 2.16222 0
M  V30 1625 C 150.572 -3.516 3.86232 0
M  V30 1626 H 152.266 -1.80117 2.39161 0
M  V30 1627 H 149.812 -0.865145 1.15114 0
M  V30 1628 H 151.765 -3.99702 1.33479 0
M  V30 1629 H 150.489 -3.24791 0.343279 0
M  V30 1630 H 149.148 -2.75539 2.41813 0
M  V30 1631 H 148.796 -4.89256 1.16778 0
M  V30 1632 H 148.496 -5.10426 2.911 0
M  V30 1633 H 150.02 -5.69873 2.19265 0
M  V30 1634 H 151.434 -4.2014 3.9007 0
M  V30 1635 H 149.831 -3.84523 4.60719 0
M  V30 1636 H 150.901 -2.50757 4.15029 0
M  V30 1637 N 152.244 -1.26651 -0.937939 0
M  V30 1638 C 153.207 -1.08546 -2.01867 0
M  V30 1639 C 154.207 -0.0327327 -1.60767 0
M  V30 1640 O 155.397 -0.276427 -1.71993 0
M  V30 1641 C 152.529 -0.651711 -3.34613 0
M  V30 1642 H 153.722 -2.04502 -2.1936 0
M  V30 1643 H 151.275 -1.09294 -1.11734 0
M  V30 1644 H 152.01 0.309696 -3.22818 0
M  V30 1645 H 151.795 -1.41189 -3.65798 0
M  V30 1646 H 153.285 -0.546973 -4.14002 0
M  V30 1647 N 153.722 1.14298 -1.08507 0
M  V30 1648 C 154.685 2.17607 -0.719711 0
M  V30 1649 C 155.685 1.58907 0.245997 0
M  V30 1650 O 156.875 1.74181 0.0254081 0
M  V30 1651 C 154.007 3.40842 -0.0627695 0
M  V30 1652 H 155.2 2.51443 -1.63452 0
M  V30 1653 H 152.753 1.28963 -0.88307 0
M  V30 1654 H 153.488 3.12587 0.863716 0
M  V30 1655 H 153.273 3.84713 -0.757504 0
M  V30 1656 H 154.763 4.17221 0.177786 0
M  V30 1657 N 155.201 0.870884 1.31352 0
M  V30 1658 C 156.45 0.478408 1.95944 0
M  V30 1659 C 156.763 -0.974493 1.69597 0
M  V30 1660 O 157.969 -1.47316 2.28058 0
M  V30 1661 C 156.425 0.804609 3.50791 0
M  V30 1662 C 156.033 2.27433 3.85977 0
M  V30 1663 C 157.777 0.480648 4.2177 0
M  V30 1664 C 155.684 2.5429 5.33939 0
M  V30 1665 H 154.614 0.175175 0.733369 0
M  V30 1666 H 157.265 1.06391 1.4951 0
M  V30 1667 H 155.647 0.148347 3.95722 0
M  V30 1668 H 156.821 2.97373 3.52002 0
M  V30 1669 H 155.136 2.56442 3.28065 0
M  V30 1670 H 157.733 0.658519 5.30629 0
M  V30 1671 H 158.076 -0.578979 4.12254 0
M  V30 1672 H 158.609 1.09349 3.82476 0
M  V30 1673 H 155.348 3.58939 5.48491 0
M  V30 1674 H 154.868 1.88945 5.69263 0
M  V30 1675 H 156.547 2.39066 6.01212 0
M  V30 1676 N 156.679 -1.44442 0.630414 0
M  V30 1677 C 157.626 -2.30678 -0.0749355 0
M  V30 1678 C 158.596 -1.4344 -0.837502 0
M  V30 1679 O 159.781 -1.72343 -0.818684 0
M  V30 1680 C 156.921 -3.28706 -1.05103 0
M  V30 1681 C 156.034 -4.31046 -0.286954 0
M  V30 1682 C 155.169 -5.16167 -1.2548 0
M  V30 1683 C 154.208 -6.10216 -0.479843 0
M  V30 1684 N 153.345 -6.88039 -1.39811 0
M  V30 1685 H 158.185 -2.90454 0.666386 0
M  V30 1686 H 155.722 -1.43107 0.340404 0
M  V30 1687 H 157.68 -3.84027 -1.63031 0
M  V30 1688 H 156.31 -2.70632 -1.75949 0
M  V30 1689 H 155.362 -3.78203 0.408243 0
M  V30 1690 H 156.674 -4.97794 0.316657 0
M  V30 1691 H 155.828 -5.76002 -1.90544 0
M  V30 1692 H 154.567 -4.49491 -1.89233 0
M  V30 1693 H 153.572 -5.49491 0.184295 0
M  V30 1694 H 154.797 -6.78928 0.152965 0
M  V30 1695 H 152.743 -6.24032 -2.02287 0
M  V30 1696 H 152.66 -7.51223 -0.848508 0
M  V30 1697 H 153.928 -7.52397 -2.03762 0
M  V30 1698 N 158.157 -0.370918 -1.53173 0
M  V30 1699 C 159.067 0.480823 -2.2962 0
M  V30 1700 C 160.083 1.08789 -1.35798 0
M  V30 1701 O 161.259 1.09768 -1.68858 0
M  V30 1702 C 158.324 1.60227 -3.07454 0
M  V30 1703 C 157.385 1.0222 -4.16953 0
M  V30 1704 C 156.618 2.0902 -4.91066 0
M  V30 1705 O 156.841 3.30222 -4.65091 0
M  V30 1706 O 155.775 1.71778 -5.76867 0
M  V30 1707 H 159.601 -0.141421 -3.03371 0
M  V30 1708 H 157.186 -0.135146 -1.48787 0
M  V30 1709 H 159.068 2.25417 -3.56041 0
M  V30 1710 H 157.743 2.20982 -2.36535 0
M  V30 1711 H 156.65 0.334064 -3.72605 0
M  V30 1712 H 157.983 0.459131 -4.90054 0
M  V30 1713 N 159.635 1.57281 -0.100228 0
M  V30 1714 C 160.881 1.94826 0.563101 0
M  V30 1715 C 161.214 0.982475 1.67514 0
M  V30 1716 O 160.489 0.0164069 1.94493 0
M  V30 1717 C 160.772 3.42453 1.11346 0
M  V30 1718 C 160.625 4.498 0.00612081 0
M  V30 1719 C 161.944 3.91506 2.01024 0
M  V30 1720 H 159.063 0.708428 0.203221 0
M  V30 1721 H 161.705 1.8922 -0.171979 0
M  V30 1722 H 159.855 3.47361 1.7399 0
M  V30 1723 H 161.527 4.57 -0.628357 0
M  V30 1724 H 159.77 4.28756 -0.659581 0
M  V30 1725 H 160.441 5.50306 0.432109 0
M  V30 1726 H 162.917 3.88784 1.48278 0
M  V30 1727 H 161.793 4.95358 2.36457 0
M  V30 1728 H 162.054 3.31099 2.92961 0
M  V30 1729 N 161.113 -0.173488 1.56642 0
M  V30 1730 C 162.043 -1.2171 1.99271 0
M  V30 1731 C 163.024 -1.46289 0.867959 0
M  V30 1732 O 164.209 -1.5766 1.13388 0
M  V30 1733 C 161.339 -2.55651 2.35074 0
M  V30 1734 C 160.293 -2.45645 3.50489 0
M  V30 1735 C 159.619 -3.84056 3.72028 0
M  V30 1736 C 160.919 -1.96302 4.84007 0
M  V30 1737 H 162.613 -0.86275 2.867 0
M  V30 1738 H 160.159 -0.413571 1.37933 0
M  V30 1739 H 162.112 -3.2886 2.63494 0
M  V30 1740 H 160.836 -2.92869 1.44552 0
M  V30 1741 H 159.495 -1.7489 3.22194 0
M  V30 1742 H 159.143 -4.18664 2.788 0
M  V30 1743 H 158.843 -3.7823 4.49684 0
M  V30 1744 H 160.367 -4.58854 4.02846 0
M  V30 1745 H 161.781 -2.59284 5.11317 0
M  V30 1746 H 160.178 -2.01429 5.65284 0
M  V30 1747 H 161.248 -0.917226 4.76146 0
M  V30 1748 N 162.591 -1.51276 -0.441967 0
M  V30 1749 C 163.839 -1.63392 -1.18943 0
M  V30 1750 C 164.16 -0.350159 -1.9183 0
M  V30 1751 O 163.43 0.633784 -1.85364 0
M  V30 1752 H 162.01 -0.602164 -0.442049 0
M  V30 1753 H 164.672 -1.88186 -0.507165 0
M  V30 1754 H 163.768 -2.45934 -1.92154 0
M  V30 1755 N 164.069 0.697108 -1.41344 0
M  V30 1756 C 165.017 1.83237 -1.43272 0
M  V30 1757 C 166.011 1.66522 -0.310947 0
M  V30 1758 O 167.217 1.73402 -0.482899 0
M  V30 1759 H 163.592 0.603802 -0.448249 0
M  V30 1760 H 165.563 1.78727 -2.38954 0
M  V30 1761 C 164.312 3.21245 -1.33029 0
M  V30 1762 H 163.635 3.34723 -2.18633 0
M  V30 1763 H 165.075 4.00763 -1.38439 0
M  V30 1764 C 163.534 3.36873 -0.0424635 0
M  V30 1765 O 164.064 3.91177 0.913421 0
M  V30 1766 N 162.27 2.90581 0.0331145 0
M  V30 1767 H 161.817 2.46577 -0.745506 0
M  V30 1768 H 161.775 3.01416 0.894199 0
M  V30 1769 N 165.547 1.27147 0.931209 0
M  V30 1770 C 166.51 1.09615 2.01289 0
M  V30 1771 C 167.51 0.0412581 1.60747 0
M  V30 1772 O 168.7 0.285545 1.71844 0
M  V30 1773 C 165.832 0.669447 3.34262 0
M  V30 1774 H 167.025 2.05662 2.18273 0
M  V30 1775 H 164.578 1.09885 1.11153 0
M  V30 1776 H 165.313 -0.292572 3.22978 0
M  V30 1777 H 165.098 1.43127 3.65044 0
M  V30 1778 H 166.588 0.568921 4.13706 0
M  V30 1779 N 167.025 -1.13721 1.09112 0
M  V30 1780 C 167.988 -2.17222 0.731241 0
M  V30 1781 C 168.988 -1.59035 -0.237566 0
M  V30 1782 O 170.178 -1.74192 -0.0161704 0
M  V30 1783 C 167.31 -3.40804 0.0808443 0
M  V30 1784 H 168.503 -2.50573 1.64783 0
M  V30 1785 H 166.056 -1.28493 0.889897 0
M  V30 1786 H 166.791 -3.1304 -0.847127 0
M  V30 1787 H 166.576 -3.84306 0.777896 0
M  V30 1788 H 168.066 -4.1731 -0.155657 0
M  V30 1789 N 168.503 -0.877838 -1.30888 0
M  V30 1790 C 169.731 -0.507414 -2.00581 0
M  V30 1791 C 170.146 0.902216 -1.65848 0
M  V30 1792 O 169.503 1.59225 -0.891831 0
M  V30 1793 C 169.554 -0.664162 -3.55347 0
M  V30 1794 O 169.275 -2.01829 -3.8884 0
M  V30 1795 C 170.776 -0.295787 -4.42312 0
M  V30 1796 H 167.996 -0.196866 -0.641471 0
M  V30 1797 H 170.54 -1.18117 -1.66939 0
M  V30 1798 H 168.695 -0.0378619 -3.87381 0
M  V30 1799 H 169.109 -2.03174 -4.8355 0
M  V30 1800 H 170.583 -0.456388 -5.5011 0
M  V30 1801 H 171.06 0.765663 -4.32475 0
M  V30 1802 H 171.666 -0.898113 -4.15709 0
M  V30 1803 N 169.982 1.44106 -0.638065 0
M  V30 1804 C 171.259 1.95453 -0.0759321 0
M  V30 1805 C 171.639 1.57984 1.40015 0
M  V30 1806 O 170.987 0.857361 2.11806 0
M  V30 1807 C 171.197 3.47655 -0.306132 0
M  V30 1808 C 172.545 4.24114 -0.203008 0
M  V30 1809 O 173.569 3.55405 -0.237871 0
M  V30 1810 O 172.428 5.46381 -0.113827 0
M  V30 1811 H 169.522 0.826797 0.0183332 0
M  V30 1812 H 172.068 1.54122 -0.710251 0
M  V30 1813 H 170.84 3.68 -1.3301 0
M  V30 1814 H 170.463 3.95949 0.361991 0
M  V30 1815 N 171.46 0.379036 1.52974 0
M  V30 1816 C 172.737 -0.263479 1.93817 0
M  V30 1817 C 173.117 -1.65244 1.31368 0
M  V30 1818 O 172.465 -2.23448 0.477856 0
M  V30 1819 C 172.675 -0.300166 3.47707 0
M  V30 1820 C 174.023 -0.534061 4.21228 0
M  V30 1821 O 175.047 -0.38081 3.54159 0
M  V30 1822 O 173.906 -0.833501 5.40106 0
M  V30 1823 H 171 -0.161149 0.811147 0
M  V30 1824 H 173.546 0.432798 1.64088 0
M  V30 1825 H 172.318 0.673138 3.85467 0
M  V30 1826 H 171.941 -1.04179 3.83709 0
M  V30 1827 N 172.938 -1.57226 0.108567 0
M  V30 1828 C 174.187 -1.94008 -0.551703 0
M  V30 1829 C 174.5 -0.993442 -1.68494 0
M  V30 1830 O 175.706 -1.25551 -2.40726 0
M  V30 1831 C 174.162 -3.44763 -1.03279 0
M  V30 1832 C 173.77 -4.47943 0.0714193 0
M  V30 1833 C 175.514 -3.90483 -1.66503 0
M  V30 1834 C 173.421 -5.89865 -0.425779 0
M  V30 1835 H 172.351 -0.724206 -0.209863 0
M  V30 1836 H 175.002 -1.82547 0.186741 0
M  V30 1837 H 173.384 -3.51422 -1.82533 0
M  V30 1838 H 174.558 -4.52942 0.847365 0
M  V30 1839 H 172.873 -4.11913 0.609669 0
M  V30 1840 H 175.47 -4.93925 -2.04798 0
M  V30 1841 H 175.813 -3.29877 -2.53942 0
M  V30 1842 H 176.346 -3.86581 -0.938074 0
M  V30 1843 H 173.085 -6.54202 0.412316 0
M  V30 1844 H 172.605 -5.88309 -1.16843 0
M  V30 1845 H 174.284 -6.40844 -0.890397 0
M  V30 1846 N 174.416 0.165178 -1.56732 0
M  V30 1847 C 175.665 0.879143 -1.81532 0
M  V30 1848 C 175.978 1.83144 -0.686842 0
M  V30 1849 O 177.184 2.58823 -0.819944 0
M  V30 1850 C 175.64 1.61388 -3.21686 0
M  V30 1851 C 175.248 0.704904 -4.4242 0
M  V30 1852 C 176.992 2.3157 -3.55774 0
M  V30 1853 C 174.899 1.44022 -5.73595 0
M  V30 1854 H 173.829 0.332033 -0.676957 0
M  V30 1855 H 176.48 0.132008 -1.83025 0
M  V30 1856 H 174.862 2.40599 -3.14529 0
M  V30 1857 H 176.036 -0.0506815 -4.60772 0
M  V30 1858 H 174.351 0.112419 -4.16248 0
M  V30 1859 H 176.948 2.8719 -4.51028 0
M  V30 1860 H 177.291 3.07201 -2.8095 0
M  V30 1861 H 177.824 1.59297 -3.64513 0
M  V30 1862 H 174.563 0.72612 -6.51466 0
M  V30 1863 H 174.083 2.16898 -5.5921 0
M  V30 1864 H 175.762 1.98606 -6.15764 0
M  V30 1865 N 175.894 1.51508 0.433938 0
M  V30 1866 C 177.119 1.68443 1.21003 0
M  V30 1867 C 177.544 0.382636 1.84167 0
M  V30 1868 O 176.902 -0.65755 1.68956 0
M  V30 1869 C 176.95 2.80405 2.26727 0
M  V30 1870 O 176.054 2.44245 3.32292 0
M  V30 1871 H 175.395 0.561536 0.354363 0
M  V30 1872 H 177.925 1.9809 0.512024 0
M  V30 1873 H 177.935 3.0459 2.71457 0
M  V30 1874 H 176.61 3.74867 1.80132 0
M  V30 1875 H 175.187 2.30644 2.93015 0
M  V30 1876 N 177.372 -0.689602 1.41712 0
M  V30 1877 C 178.335 -1.78521 1.43746 0
M  V30 1878 C 179.335 -1.57436 0.327191 0
M  V30 1879 O 180.525 -1.64 0.587348 0
M  V30 1880 C 177.657 -3.16971 1.25467 0
M  V30 1881 H 178.85 -1.78108 2.41283 0
M  V30 1882 H 176.403 -0.89781 1.27942 0
M  V30 1883 H 177.138 -3.23019 0.287948 0
M  V30 1884 H 176.923 -3.33678 2.05917 0
M  V30 1885 H 178.413 -3.96935 1.2974 0
M  V30 1886 N 178.85 -1.27639 -0.924453 0
M  V30 1887 C 180.096 -1.15345 -1.67532 0
M  V30 1888 C 180.451 0.297096 -1.90092 0
M  V30 1889 O 179.744 1.21374 -1.48253 0
M  V30 1890 C 179.938 -1.87407 -3.04325 0
M  V30 1891 C 179.767 -3.3932 -2.95114 0
M  V30 1892 C 178.537 -4.08644 -2.97218 0
M  V30 1893 C 180.735 -4.35242 -2.73987 0
M  V30 1894 N 178.717 -5.47102 -2.78482 0
M  V30 1895 C 180.088 -5.6099 -2.63988 0
M  V30 1896 C 182.143 -4.25294 -2.589 0
M  V30 1897 C 180.846 -6.77924 -2.40442 0
M  V30 1898 C 182.872 -5.41952 -2.36731 0
M  V30 1899 C 182.234 -6.66658 -2.27478 0
M  V30 1900 H 178.333 -0.47696 -0.619704 0
M  V30 1901 H 180.917 -1.6115 -1.09265 0
M  V30 1902 H 179.088 -1.44053 -3.60699 0
M  V30 1903 H 180.82 -1.6759 -3.68369 0
M  V30 1904 H 177.575 -3.60136 -3.07569 0
M  V30 1905 H 177.999 -6.19852 -2.72236 0
M  V30 1906 H 182.641 -3.29598 -2.64811 0
M  V30 1907 H 180.359 -7.73699 -2.3327 0
M  V30 1908 H 183.945 -5.36137 -2.25938 0
M  V30 1909 H 182.825 -7.55405 -2.10555 0
M  V30 1910 N 180.328 1.1314 -1.09713 0
M  V30 1911 C 181.291 2.16831 -0.742751 0
M  V30 1912 C 182.291 1.59159 0.229129 0
M  V30 1913 O 183.481 1.74199 0.00693237 0
M  V30 1914 C 180.613 3.40756 -0.0989168 0
M  V30 1915 H 181.806 2.49695 -1.66109 0
M  V30 1916 H 179.359 1.2802 -0.896699 0
M  V30 1917 H 180.094 3.13485 0.830514 0
M  V30 1918 H 179.879 3.83888 -0.798265 0
M  V30 1919 H 181.369 4.17386 0.133524 0
M  V30 1920 N 181.806 0.884767 1.30421 0
M  V30 1921 C 182.738 0.308655 2.27112 0
M  V30 1922 C 183.751 -0.536655 1.53701 0
M  V30 1923 O 184.94 -0.35624 1.74909 0
M  V30 1924 C 182.04 -0.579782 3.33904 0
M  V30 1925 C 181.213 0.236417 4.36761 0
M  V30 1926 C 180.272 -0.582482 5.22966 0
M  V30 1927 O 179.298 -0.00525502 5.692 0
M  V30 1928 N 180.5 -1.89163 5.48815 0
M  V30 1929 H 183.265 1.13964 2.77186 0
M  V30 1930 H 180.826 0.747731 1.43599 0
M  V30 1931 H 182.818 -1.13366 3.88497 0
M  V30 1932 H 181.388 -1.31144 2.83761 0
M  V30 1933 H 180.608 0.97174 3.82035 0
M  V30 1934 H 181.896 0.795924 5.02536 0
M  V30 1935 H 181.294 -2.38352 5.13035 0
M  V30 1936 H 179.851 -2.39296 6.06284 0
M  V30 1937 N 183.284 -1.43765 0.645699 0
M  V30 1938 C 184.247 -2.29163 -0.0409488 0
M  V30 1939 C 185.247 -1.41813 -0.757996 0
M  V30 1940 O 186.437 -1.63527 -0.600382 0
M  V30 1941 C 183.569 -3.23716 -1.06869 0
M  V30 1942 H 184.762 -2.91366 0.710345 0
M  V30 1943 H 182.315 -1.5092 0.406547 0
M  V30 1944 H 183.05 -2.66393 -1.84947 0
M  V30 1945 H 182.835 -3.88105 -0.558277 0
M  V30 1946 H 184.325 -3.87831 -1.54845 0
M  V30 1947 N 184.763 -0.387143 -1.52771 0
M  V30 1948 C 185.993 0.195585 -2.05672 0
M  V30 1949 C 186.401 1.41241 -1.25887 0
M  V30 1950 O 185.744 1.81265 -0.298081 0
M  V30 1951 C 185.806 0.632327 -3.53895 0
M  V30 1952 C 185.47 -0.470739 -4.54569 0
M  V30 1953 C 186.467 -1.32746 -5.02667 0
M  V30 1954 C 184.152 -0.637151 -4.98243 0
M  V30 1955 C 186.146 -2.33574 -5.93061 0
M  V30 1956 C 183.833 -1.64877 -5.88438 0
M  V30 1957 C 184.831 -2.49649 -6.35739 0
M  V30 1958 O 184.519 -3.49082 -7.24153 0
M  V30 1959 H 184.251 0.033658 -0.675162 0
M  V30 1960 H 186.805 -0.550221 -1.97893 0
M  V30 1961 H 185.035 1.43008 -3.59285 0
M  V30 1962 H 186.724 1.14048 -3.89548 0
M  V30 1963 H 187.49 -1.21019 -4.69659 0
M  V30 1964 H 183.369 0.0129567 -4.60998 0
M  V30 1965 H 186.913 -2.99777 -6.29904 0
M  V30 1966 H 182.81 -1.76643 -6.2086 0
M  V30 1967 H 183.578 -3.45065 -7.42208 0
M  V30 1968 N 186.241 1.57166 -0.116904 0
M  V30 1969 C 187.489 1.94737 0.540533 0
M  V30 1970 C 187.81 1.00096 1.67349 0
M  V30 1971 O 187.08 0.0568854 1.95817 0
M  V30 1972 H 185.66 0.718981 0.202669 0
M  V30 1973 H 188.322 1.94017 -0.185353 0
M  V30 1974 H 187.418 2.97719 0.936483 0
M  V30 1975 N 187.719 -0.156864 1.56817 0
M  V30 1976 C 188.667 -1.21319 1.98455 0
M  V30 1977 C 189.661 -1.45025 0.875444 0
M  V30 1978 O 190.867 -1.45435 1.0606 0
M  V30 1979 H 187.242 -0.408142 0.631605 0
M  V30 1980 H 189.213 -0.835244 2.86472 0
M  V30 1981 C 187.962 -2.54148 2.37285 0
M  V30 1982 H 187.285 -2.36733 3.22176 0
M  V30 1983 H 188.725 -3.26712 2.70251 0
M  V30 1984 C 187.184 -3.13967 1.22173 0
M  V30 1985 O 187.714 -3.98357 0.517149 0
M  V30 1986 N 185.92 -2.7327 0.988536 0
M  V30 1987 H 185.467 -2.04744 1.56326 0
M  V30 1988 H 185.425 -3.13628 0.220209 0
M  V30 1989 N 189.197 -1.51736 -0.425897 0
M  V30 1990 C 190.127 -1.76827 -1.52494 0
M  V30 1991 C 191.108 -0.618524 -1.58456 0
M  V30 1992 O 192.293 -0.862416 -1.74 0
M  V30 1993 C 189.423 -1.90374 -2.90474 0
M  V30 1994 C 188.377 -3.0588 -2.99369 0
M  V30 1995 C 187.703 -3.04625 -4.3944 0
M  V30 1996 C 189.003 -4.45644 -2.72394 0
M  V30 1997 H 190.697 -2.68855 -1.31748 0
M  V30 1998 H 188.243 -1.29372 -0.632362 0
M  V30 1999 H 190.196 -2.0651 -3.6733 0
M  V30 2000 H 188.92 -0.95004 -3.12477 0
M  V30 2001 H 187.579 -2.89467 -2.24954 0
M  V30 2002 H 187.227 -2.0701 -4.58428 0
M  V30 2003 H 186.927 -3.82195 -4.46319 0
M  V30 2004 H 188.451 -3.22869 -5.18255 0
M  V30 2005 H 189.865 -4.62348 -3.38979 0
M  V30 2006 H 188.262 -5.25006 -2.9067 0
M  V30 2007 H 189.332 -4.54893 -1.67929 0
M  V30 2008 N 190.675 0.682077 -1.42076 0
M  V30 2009 C 191.638 1.77756 -1.44691 0
M  V30 2010 C 192.638 1.5726 -0.335535 0
M  V30 2011 O 193.828 1.63686 -0.596037 0
M  V30 2012 C 190.96 3.16301 -1.27146 0
M  V30 2013 H 192.153 1.76826 -2.42224 0
M  V30 2014 H 189.706 0.891012 -1.28416 0
M  V30 2015 H 190.441 3.22862 -0.305075 0
M  V30 2016 H 190.226 3.32581 -2.07683 0
M  V30 2017 H 191.716 3.96241 -1.31843 0
M  V30 2018 N 192.153 1.28127 0.917671 0
M  V30 2019 C 193.43 1.05761 1.64542 0
M  V30 2020 C 193.81 -0.404344 2.07191 0
M  V30 2021 O 193.158 -1.38963 1.81388 0
M  V30 2022 C 193.368 2.02857 2.83989 0
M  V30 2023 C 194.716 2.32786 3.551 0
M  V30 2024 O 195.74 2.0091 2.94132 0
M  V30 2025 O 194.599 2.87169 4.64969 0
M  V30 2026 H 191.693 0.403916 0.721652 0
M  V30 2027 H 194.239 1.39431 0.967322 0
M  V30 2028 H 193.011 3.01407 2.49538 0
M  V30 2029 H 192.634 1.69809 3.59514 0
M  V30 2030 N 193.631 -1.12557 1.10312 0
M  V30 2031 C 194.877 -1.84311 0.846011 0
M  V30 2032 C 195.21 -1.83805 -0.626859 0
M  V30 2033 O 194.485 -1.28268 -1.46211 0
M  V30 2034 C 194.768 -3.32048 1.39341 0
M  V30 2035 C 194.621 -3.41016 2.93305 0
M  V30 2036 C 195.94 -4.27764 1.03468 0
M  V30 2037 H 193.059 -0.669192 0.30879 0
M  V30 2038 H 195.701 -1.32057 1.36605 0
M  V30 2039 H 193.851 -3.76678 0.951087 0
M  V30 2040 H 195.523 -3.05031 3.46055 0
M  V30 2041 H 193.766 -2.81603 3.29973 0
M  V30 2042 H 194.437 -4.44948 3.26689 0
M  V30 2043 H 196.913 -3.91253 1.41633 0
M  V30 2044 H 195.789 -5.29549 1.44463 0
M  V30 2045 H 196.05 -4.42064 -0.0560404 0
M  V30 2046 N 195.109 -0.891671 -1.2995 0
M  V30 2047 C 196.039 -0.379797 -2.30391 0
M  V30 2048 C 197.02 0.540919 -1.6127 0
M  V30 2049 O 198.205 0.453352 -1.88834 0
M  V30 2050 C 195.335 0.400654 -3.44981 0
M  V30 2051 C 194.289 -0.428905 -4.25846 0
M  V30 2052 C 193.615 0.478557 -5.32554 0
M  V30 2053 C 194.915 -1.67458 -4.94727 0
M  V30 2054 H 196.609 -1.21914 -2.73454 0
M  V30 2055 H 194.155 -0.587675 -1.31462 0
M  V30 2056 H 196.108 0.769434 -4.14316 0
M  V30 2057 H 194.832 1.27371 -3.0074 0
M  V30 2058 H 193.491 -0.779911 -3.58208 0
M  V30 2059 H 193.139 1.34951 -4.84559 0
M  V30 2060 H 192.839 -0.0727433 -5.87555 0
M  V30 2061 H 194.363 0.843705 -6.04743 0
M  V30 2062 H 195.777 -1.376 -5.56542 0
M  V30 2063 H 194.174 -2.16659 -5.59624 0
M  V30 2064 H 195.244 -2.41518 -4.20473 0
M  V30 2065 N 196.587 1.43421 -0.653314 0
M  V30 2066 C 197.52 2.2803 0.0879804 0
M  V30 2067 C 198.498 1.39833 0.82979 0
M  V30 2068 O 199.682 1.69275 0.829341 0
M  V30 2069 C 196.809 3.19247 1.13132 0
M  V30 2070 C 195.855 4.23704 0.487546 0
M  V30 2071 S 196.688 5.30377 -0.738961 0
M  V30 2072 C 197.844 6.25162 0.30384 0
M  V30 2073 H 198.077 2.90554 -0.629739 0
M  V30 2074 H 195.61 1.47934 -0.442156 0
M  V30 2075 H 197.568 3.72346 1.72827 0
M  V30 2076 H 196.229 2.55901 1.82136 0
M  V30 2077 H 195.422 4.87631 1.27407 0
M  V30 2078 H 195.024 3.73983 -0.0352915 0
M  V30 2079 H 197.316 6.67321 1.17 0
M  V30 2080 H 198.259 7.07463 -0.300402 0
M  V30 2081 H 198.667 5.60864 0.63969 0
M  V30 2082 N 198.065 0.39524 1.52563 0
M  V30 2083 C 199.313 -0.184678 2.01254 0
M  V30 2084 C 199.634 -1.46822 1.28329 0
M  V30 2085 O 198.904 -1.91666 0.405094 0
M  V30 2086 H 197.484 -0.0712355 0.743596 0
M  V30 2087 H 200.146 0.528293 1.87603 0
M  V30 2088 H 199.242 -0.390681 3.09645 0
M  V30 2089 N 199.544 -1.57102 0.125237 0
M  V30 2090 C 200.477 -2.11371 -0.860094 0
M  V30 2091 C 201.455 -1.03168 -1.25679 0
M  V30 2092 O 202.639 -1.30862 -1.35674 0
M  V30 2093 C 199.766 -2.61555 -2.1519 0
M  V30 2094 C 198.812 -3.81701 -1.9028 0
M  V30 2095 S 199.645 -5.23797 -1.11343 0
M  V30 2096 C 200.801 -5.77353 -2.41689 0
M  V30 2097 H 201.034 -2.94617 -0.39852 0
M  V30 2098 H 198.567 -1.54145 -0.0886555 0
M  V30 2099 H 200.525 -2.91122 -2.89411 0
M  V30 2100 H 199.186 -1.78479 -2.58465 0
M  V30 2101 H 198.379 -4.14985 -2.86014 0
M  V30 2102 H 197.981 -3.52783 -1.24178 0
M  V30 2103 H 200.273 -5.87458 -3.37489 0
M  V30 2104 H 201.216 -6.75323 -2.12942 0
M  V30 2105 H 201.624 -5.05457 -2.51342 0
M  V30 2106 N 201.022 0.148545 -1.56898 0
M  V30 2107 C 201.932 1.20293 -2.01412 0
M  V30 2108 C 202.948 1.47107 -0.929273 0
M  V30 2109 O 204.124 1.58807 -1.23863 0
M  V30 2110 C 201.189 2.51682 -2.38447 0
M  V30 2111 C 200.25 2.32529 -3.60872 0
M  V30 2112 C 199.483 3.57653 -3.96132 0
M  V30 2113 O 199.706 4.63771 -3.32073 0
M  V30 2114 O 198.64 3.50408 -4.89385 0
M  V30 2115 H 202.466 0.855025 -2.91416 0
M  V30 2116 H 200.051 0.357151 -1.45068 0
M  V30 2117 H 201.933 3.29147 -2.63135 0
M  V30 2118 H 200.608 2.86006 -1.51599 0
M  V30 2119 H 199.515 1.53019 -3.41373 0
M  V30 2120 H 200.848 2.03121 -4.48333 0
M  V30 2121 N 202.5 1.5196 0.417844 0
M  V30 2122 C 203.725 1.69717 1.1921 0
M  V30 2123 C 204.15 0.402148 1.83751 0
M  V30 2124 O 203.508 -0.639593 1.69643 0
M  V30 2125 C 203.556 2.82794 2.2374 0
M  V30 2126 O 202.66 2.47756 3.29683 0
M  V30 2127 H 202.001 0.565263 0.348387 0
M  V30 2128 H 204.531 1.98621 0.490985 0
M  V30 2129 H 204.541 3.07452 2.68212 0
M  V30 2130 H 203.216 3.76756 1.76146 0
M  V30 2131 H 201.793 2.33739 2.90552 0
M  V30 2132 N 203.978 -0.674533 1.42435 0
M  V30 2133 C 204.888 -1.81751 1.48337 0
M  V30 2134 C 205.904 -1.69975 0.372099 0
M  V30 2135 O 207.08 -1.91521 0.62304 0
M  V30 2136 C 204.145 -3.17895 1.38361 0
M  V30 2137 C 203.206 -3.41625 2.59982 0
M  V30 2138 C 202.439 -4.71274 2.50473 0
M  V30 2139 O 202.662 -5.49197 1.54075 0
M  V30 2140 O 201.596 -4.96254 3.4061 0
M  V30 2141 H 205.422 -1.79728 2.44809 0
M  V30 2142 H 203.007 -0.830312 1.24202 0
M  V30 2143 H 204.889 -3.99136 1.35161 0
M  V30 2144 H 203.564 -3.20555 0.450144 0
M  V30 2145 H 202.471 -2.60231 2.68757 0
M  V30 2146 H 203.804 -3.43796 3.52229 0
M  V30 2147 N 205.456 -1.28612 -0.910864 0
M  V30 2148 C 206.386 -1.15326 -2.03032 0
M  V30 2149 C 207.367 -0.0502924 -1.70026 0
M  V30 2150 O 208.552 -0.227797 -1.92859 0
M  V30 2151 C 205.682 -0.817343 -3.37545 0
M  V30 2152 C 204.636 -1.8754 -3.84724 0
M  V30 2153 C 203.962 -1.39305 -5.16235 0
M  V30 2154 C 205.262 -3.28244 -4.06267 0
M  V30 2155 H 206.956 -2.08975 -2.14406 0
M  V30 2156 H 204.502 -1.00612 -1.03021 0
M  V30 2157 H 206.455 -0.711151 -4.15356 0
M  V30 2158 H 205.179 0.154846 -3.26233 0
M  V30 2159 H 203.838 -1.97079 -3.09121 0
M  V30 2160 H 203.486 -0.409846 -5.01328 0
M  V30 2161 H 203.186 -2.10057 -5.48771 0
M  V30 2162 H 204.71 -1.30014 -5.96598 0
M  V30 2163 H 206.124 -3.21611 -4.74594 0
M  V30 2164 H 204.521 -3.96855 -4.5014 0
M  V30 2165 H 205.591 -3.72048 -3.10979 0
M  V30 2166 N 206.934 1.1197 -1.10907 0
M  V30 2167 C 208.164 1.8713 -0.875553 0
M  V30 2168 C 208.572 1.8016 0.577843 0
M  V30 2169 O 207.915 1.17699 1.41042 0
M  V30 2170 C 207.977 3.37005 -1.2517 0
M  V30 2171 C 207.641 3.67748 -2.71313 0
M  V30 2172 C 208.638 3.65698 -3.69542 0
M  V30 2173 C 206.323 3.96928 -3.07821 0
M  V30 2174 C 208.317 3.92395 -5.023 0
M  V30 2175 C 206.004 4.23284 -4.40765 0
M  V30 2176 C 207.002 4.21005 -5.37814 0
M  V30 2177 O 206.69 4.46704 -6.68364 0
M  V30 2178 H 206.422 0.598786 -0.313737 0
M  V30 2179 H 208.976 1.42568 -1.47863 0
M  V30 2180 H 207.206 3.82146 -0.591741 0
M  V30 2181 H 208.895 3.93519 -0.994877 0
M  V30 2182 H 209.661 3.43211 -3.42682 0
M  V30 2183 H 205.54 3.97841 -2.32902 0
M  V30 2184 H 209.084 3.90531 -5.78041 0
M  V30 2185 H 204.981 4.45246 -4.67361 0
M  V30 2186 H 205.749 4.64299 -6.74069 0
M  V30 2187 N 208.412 0.89855 1.29475 0
M  V30 2188 C 209.322 0.379974 2.31502 0
M  V30 2189 C 210.338 -0.524695 1.659 0
M  V30 2190 O 211.514 -0.414551 1.97087 0
M  V30 2191 C 208.579 -0.385138 3.44554 0
M  V30 2192 C 207.64 0.550914 4.2575 0
M  V30 2193 C 206.873 -0.177778 5.33404 0
M  V30 2194 O 207.096 -1.40189 5.52904 0
M  V30 2195 O 206.03 0.479106 5.9999 0
M  V30 2196 H 209.856 1.22639 2.77837 0
M  V30 2197 H 207.441 0.662834 1.33891 0
M  V30 2198 H 209.323 -0.817841 4.13388 0
M  V30 2199 H 207.998 -1.20763 3.0033 0
M  V30 2200 H 206.905 1.03271 3.59564 0
M  V30 2201 H 208.238 1.33979 4.73614 0
M  V30 2202 N 209.89 -1.43072 0.660911 0
M  V30 2203 C 211.306 -1.56169 0.329173 0
M  V30 2204 C 211.506 -1.64317 -1.16629 0
M  V30 2205 O 210.562 -1.60245 -1.95135 0
M  V30 2206 C 211.875 -2.81873 1.04729 0
M  V30 2207 C 213.423 -2.95627 1.02828 0
M  V30 2208 C 213.898 -4.24174 1.72744 0
M  V30 2209 N 215.389 -4.31055 1.69545 0
M  V30 2210 C 216.124 -5.29304 2.20511 0
M  V30 2211 N 215.62 -6.33786 2.79799 0
M  V30 2212 N 217.413 -5.21008 2.10966 0
M  V30 2213 H 209.564 -1.36027 1.63127 0
M  V30 2214 H 211.827 -0.653823 0.686454 0
M  V30 2215 H 211.533 -2.81942 2.10242 0
M  V30 2216 H 211.407 -3.72338 0.603702 0
M  V30 2217 H 213.794 -2.95094 -0.0184742 0
M  V30 2218 H 213.875 -2.06431 1.51063 0
M  V30 2219 H 213.519 -4.25467 2.7738 0
M  V30 2220 H 213.449 -5.1228 1.2197 0
M  V30 2221 H 215.94 -3.56174 1.26288 0
M  V30 2222 H 216.253 -7.05086 3.16344 0
M  V30 2223 H 214.598 -6.34387 2.83863 0
M  V30 2224 H 217.789 -4.38301 1.64347 0
M  V30 2225 H 217.962 -5.97416 2.50993 0
M  V30 2226 N 211.368 -0.403325 -1.52352 0
M  V30 2227 C 212.593 0.176499 -2.06648 0
M  V30 2228 C 213.018 1.38577 -1.27193 0
M  V30 2229 O 212.376 1.7879 -0.300637 0
M  V30 2230 C 212.424 0.511061 -3.5696 0
M  V30 2231 O 211.528 1.60294 -3.79973 0
M  V30 2232 H 210.869 0.0167337 -0.663789 0
M  V30 2233 H 213.399 -0.574848 -1.96359 0
M  V30 2234 H 213.409 0.771362 -4.00642 0
M  V30 2235 H 212.084 -0.37296 -4.14224 0
M  V30 2236 H 210.661 1.33526 -3.48174 0
M  V30 2237 N 212.846 1.57033 -0.133567 0
M  V30 2238 C 213.809 2.14897 0.796995 0
M  V30 2239 C 214.809 1.0874 1.18458 0
M  V30 2240 O 215.999 1.34446 1.1077 0
M  V30 2241 C 213.131 2.70112 2.07973 0
M  V30 2242 H 214.324 2.98457 0.293873 0
M  V30 2243 H 211.877 1.55871 0.115787 0
M  V30 2244 H 212.612 1.9018 2.62682 0
M  V30 2245 H 212.397 3.47764 1.81115 0
M  V30 2246 H 213.887 3.14738 2.74462 0
M  V30 2247 N 214.325 -0.140222 1.56975 0
M  V30 2248 C 215.235 -1.19223 2.02047 0
M  V30 2249 C 216.251 -1.46612 0.937062 0
M  V30 2250 O 217.427 -1.58148 1.24704 0
M  V30 2251 C 214.492 -2.50414 2.39778 0
M  V30 2252 C 213.553 -2.30612 3.621 0
M  V30 2253 C 212.786 -3.55547 3.98023 0
M  V30 2254 O 213.009 -4.62004 3.34528 0
M  V30 2255 O 211.943 -3.47808 4.91237 0
M  V30 2256 H 215.769 -0.839559 2.91865 0
M  V30 2257 H 213.354 -0.349453 1.45256 0
M  V30 2258 H 215.236 -3.27747 2.64877 0
M  V30 2259 H 213.911 -2.85198 1.53114 0
M  V30 2260 H 212.818 -1.51207 3.4218 0
M  V30 2261 H 214.151 -2.00741 4.49404 0
M  V30 2262 N 215.803 -1.52179 -0.40978 0
M  V30 2263 C 216.735 -1.71703 -1.51825 0
M  V30 2264 C 217.748 -0.597445 -1.51441 0
M  V30 2265 O 218.937 -0.872582 -1.55719 0
M  V30 2266 C 216.037 -1.74171 -2.90719 0
M  V30 2267 C 215.21 -3.03156 -3.15302 0
M  V30 2268 C 214.269 -2.97445 -4.34065 0
M  V30 2269 O 213.295 -3.71352 -4.31377 0
M  V30 2270 N 214.497 -2.15191 -5.39141 0
M  V30 2271 H 217.262 -2.67334 -1.35472 0
M  V30 2272 H 214.823 -1.50409 -0.599069 0
M  V30 2273 H 216.815 -1.67884 -3.68235 0
M  V30 2274 H 215.385 -0.860166 -3.00533 0
M  V30 2275 H 214.605 -3.23097 -2.25836 0
M  V30 2276 H 215.893 -3.88484 -3.28569 0
M  V30 2277 H 215.291 -1.54573 -5.44173 0
M  V30 2278 H 213.848 -2.1476 -6.15403 0
M  V30 2279 N 217.281 0.66697 -1.42791 0
M  V30 2280 C 218.692 1.2478 -1.38877 0
M  V30 2281 C 219.043 1.96012 -0.0859426 0
M  V30 2282 O 218.168 2.00463 0.815081 0
M  V30 2283 C 218.763 2.26938 -2.51564 0
M  V30 2284 C 217.322 2.80529 -2.50959 0
M  V30 2285 C 216.469 1.54965 -2.29959 0
M  V30 2286 H 219.42 0.459853 -1.51892 0
M  V30 2287 H 219.441 3.08834 -2.22265 0
M  V30 2288 H 218.953 1.75065 -3.46372 0
M  V30 2289 H 217.054 3.36502 -1.59991 0
M  V30 2290 H 217.167 3.29012 -3.48265 0
M  V30 2291 H 215.531 1.81817 -1.78366 0
M  V30 2292 H 216.314 1.05047 -3.26833 0
M  V30 2293 N 218.759 1.29093 0.90403 0
M  V30 2294 C 220.007 1.16583 1.65085 0
M  V30 2295 C 220.328 -0.283933 1.92922 0
M  V30 2296 O 219.598 -1.19509 1.55224 0
M  V30 2297 H 218.178 0.428467 0.611903 0
M  V30 2298 H 220.84 1.61959 1.08422 0
M  V30 2299 H 219.936 1.71266 2.6091 0
M  V30 2300 N 220.237 -1.11381 1.11499 0
M  V30 2301 C 221.485 -1.8277 0.862524 0
M  V30 2302 C 221.806 -1.85097 -0.613534 0
M  V30 2303 O 221.076 -1.32198 -1.4457 0
M  V30 2304 H 219.656 -0.676823 0.316101 0
M  V30 2305 H 222.318 -1.34816 1.4075 0
M  V30 2306 H 221.414 -2.86614 1.23527 0
M  V30 2307 N 221.715 -0.905404 -1.28997 0
M  V30 2308 C 222.961 -0.544465 -1.95977 0
M  V30 2309 C 223.316 0.90041 -1.70031 0
M  V30 2310 O 222.609 1.63064 -1.00601 0
M  V30 2311 C 222.803 -0.779906 -3.48787 0
M  V30 2312 C 222.632 -2.24612 -3.89589 0
M  V30 2313 C 221.402 -2.89464 -4.14172 0
M  V30 2314 C 223.6 -3.22182 -4.00878 0
M  V30 2315 N 221.582 -4.26469 -4.41585 0
M  V30 2316 C 222.953 -4.44323 -4.32409 0
M  V30 2317 C 225.008 -3.17694 -3.83373 0
M  V30 2318 C 223.711 -5.62546 -4.48258 0
M  V30 2319 C 225.737 -4.35208 -4.00435 0
M  V30 2320 C 225.099 -5.56121 -4.3233 0
M  V30 2321 H 221.198 -0.248948 -0.741316 0
M  V30 2322 H 223.782 -1.1674 -1.5582 0
M  V30 2323 H 221.953 -0.186308 -3.87953 0
M  V30 2324 H 223.685 -0.383833 -4.02876 0
M  V30 2325 H 220.44 -2.40232 -4.08149 0
M  V30 2326 H 220.864 -4.97283 -4.5939 0
M  V30 2327 H 225.506 -2.25297 -3.57773 0
M  V30 2328 H 223.224 -6.55429 -4.72692 0
M  V30 2329 H 226.81 -4.33228 -3.88336 0
M  V30 2330 H 225.69 -6.45537 -4.45255 0
M  V30 2331 N 223.193 1.4272 -0.668489 0
M  V30 2332 C 224.14 2.30796 0.0137489 0
M  V30 2333 C 225.11 1.4561 0.799177 0
M  V30 2334 O 226.295 1.74453 0.772702 0
M  V30 2335 C 223.435 3.31377 0.963507 0
M  V30 2336 C 222.548 4.31655 0.172569 0
M  V30 2337 C 221.683 5.19312 1.1175 0
M  V30 2338 C 220.722 6.11274 0.317886 0
M  V30 2339 N 219.859 6.91504 1.2152 0
M  V30 2340 H 224.699 2.88585 -0.743161 0
M  V30 2341 H 222.236 1.42154 -0.378226 0
M  V30 2342 H 224.194 3.88214 1.52792 0
M  V30 2343 H 222.824 2.75202 1.68712 0
M  V30 2344 H 221.876 3.76988 -0.508374 0
M  V30 2345 H 223.188 4.96779 -0.448527 0
M  V30 2346 H 222.342 5.80851 1.75206 0
M  V30 2347 H 221.081 4.5435 1.77249 0
M  V30 2348 H 220.086 5.48809 -0.329918 0
M  V30 2349 H 221.311 6.78283 -0.332917 0
M  V30 2350 H 219.257 6.29176 1.85671 0
M  V30 2351 H 219.174 7.53209 0.649036 0
M  V30 2352 H 220.442 7.57535 1.83742 0
M  V30 2353 N 224.671 0.411399 1.52136 0
M  V30 2354 C 225.919 -0.163322 2.01439 0
M  V30 2355 C 226.24 -1.45453 1.29879 0
M  V30 2356 O 225.51 -1.91225 0.4254 0
M  V30 2357 H 224.09 -0.0633447 0.744309 0
M  V30 2358 H 226.752 0.548161 1.87033 0
M  V30 2359 H 225.848 -0.357817 3.10042 0
M  V30 2360 N 226.149 -1.5696 0.141893 0
M  V30 2361 C 227.395 -1.97034 -0.504884 0
M  V30 2362 C 227.75 -1.02518 -1.62812 0
M  V30 2363 O 227.043 -0.0592943 -1.91508 0
M  V30 2364 C 227.237 -3.41242 -1.06249 0
M  V30 2365 C 227.066 -4.497 0.00519653 0
M  V30 2366 C 225.836 -5.03338 0.444873 0
M  V30 2367 C 228.034 -5.08122 0.794767 0
M  V30 2368 N 226.016 -5.95395 1.49593 0
M  V30 2369 C 227.387 -5.96339 1.69645 0
M  V30 2370 C 229.442 -4.9071 0.843122 0
M  V30 2371 C 228.145 -6.69009 2.64233 0
M  V30 2372 C 230.171 -5.64077 1.77681 0
M  V30 2373 C 229.533 -6.51999 2.66603 0
M  V30 2374 H 225.632 -0.766745 -0.153707 0
M  V30 2375 H 228.216 -1.93273 0.235313 0
M  V30 2376 H 226.387 -3.45606 -1.77231 0
M  V30 2377 H 228.119 -3.68389 -1.67546 0
M  V30 2378 H 224.874 -4.73576 0.0480959 0
M  V30 2379 H 225.298 -6.46128 2.02107 0
M  V30 2380 H 229.94 -4.22459 0.169732 0
M  V30 2381 H 227.658 -7.36492 3.32575 0
M  V30 2382 H 231.244 -5.52602 1.81996 0
M  V30 2383 H 230.124 -7.07775 3.37675 0
M  V30 2384 N 227.627 0.131896 -1.57047 0
M  V30 2385 C 229.043 0.485031 -1.52051 0
M  V30 2386 C 229.243 1.82563 -0.85281 0
M  V30 2387 O 228.299 2.48817 -0.429694 0
M  V30 2388 C 229.612 0.481409 -2.96821 0
M  V30 2389 C 231.16 0.565868 -3.07842 0
M  V30 2390 C 231.635 0.592762 -4.54148 0
M  V30 2391 N 233.126 0.654564 -4.58552 0
M  V30 2392 C 233.861 0.696608 -5.69153 0
M  V30 2393 N 233.357 0.697078 -6.89284 0
M  V30 2394 N 235.15 0.738639 -5.57226 0
M  V30 2395 H 227.301 -0.746664 -1.98843 0
M  V30 2396 H 229.564 -0.273999 -0.90754 0
M  V30 2397 H 229.27 -0.435731 -3.4899 0
M  V30 2398 H 229.144 1.3139 -3.53577 0
M  V30 2399 H 231.531 1.47343 -2.55684 0
M  V30 2400 H 231.612 -0.29406 -2.54104 0
M  V30 2401 H 231.256 -0.310701 -5.06949 0
M  V30 2402 H 231.186 1.46939 -5.05684 0
M  V30 2403 H 233.677 0.660887 -3.72076 0
M  V30 2404 H 233.99 0.731426 -7.69331 0
M  V30 2405 H 232.335 0.66471 -6.91814 0
M  V30 2406 H 235.526 0.735545 -4.62285 0
M  V30 2407 H 235.699 0.767938 -6.43434 0
M  V30 2408 N 229.106 1.52395 0.401703 0
M  V30 2409 C 230.334 1.70676 1.16949 0
M  V30 2410 C 230.749 0.419503 1.8408 0
M  V30 2411 O 230.106 -0.605061 1.72178 0
M  V30 2412 C 230.157 2.84753 2.22706 0
M  V30 2413 O 229.878 4.08495 1.58314 0
M  V30 2414 C 231.379 3.14608 3.12309 0
M  V30 2415 H 228.599 0.571787 0.351142 0
M  V30 2416 H 231.143 1.98987 0.471652 0
M  V30 2417 H 229.298 2.58941 2.88147 0
M  V30 2418 H 229.712 4.72117 2.28485 0
M  V30 2419 H 231.186 3.97923 3.82572 0
M  V30 2420 H 231.663 2.28464 3.75101 0
M  V30 2421 H 232.269 3.42212 2.52529 0
M  V30 2422 N 230.584 -0.659388 1.43143 0
M  V30 2423 C 231.831 -1.41935 1.44433 0
M  V30 2424 C 232.159 -1.94387 0.0663522 0
M  V30 2425 O 231.414 -1.72314 -0.927706 0
M  V30 2426 C 231.713 -2.62206 2.42864 0
M  V30 2427 C 231.379 -2.28208 3.88886 0
M  V30 2428 C 230.041 -2.18647 4.28657 0
M  V30 2429 C 232.393 -2.00887 4.8093 0
M  V30 2430 C 229.721 -1.79914 5.58433 0
M  V30 2431 C 232.073 -1.63653 6.11065 0
M  V30 2432 C 230.737 -1.52614 6.49819 0
M  V30 2433 H 230.007 -0.519376 0.528517 0
M  V30 2434 H 232.654 -0.750453 1.76183 0
M  V30 2435 H 230.959 -3.34199 2.04495 0
M  V30 2436 H 232.656 -3.2041 2.41119 0
M  V30 2437 H 229.246 -2.36557 3.57406 0
M  V30 2438 H 233.43 -2.07198 4.5098 0
M  V30 2439 H 228.686 -1.69948 5.87305 0
M  V30 2440 H 232.86 -1.41543 6.81864 0
M  V30 2441 H 230.487 -1.22371 7.50286 0
M  V30 2442 N 232.062 -1.29571 -0.897171 0
M  V30 2443 C 233.308 -1.17863 -1.65034 0
M  V30 2444 C 233.641 0.268729 -1.92332 0
M  V30 2445 O 232.916 1.19378 -1.53555 0
M  V30 2446 C 233.199 -1.995 -2.99786 0
M  V30 2447 C 233.052 -3.5239 -2.79538 0
M  V30 2448 C 234.371 -1.82335 -4.00552 0
M  V30 2449 H 231.49 -0.429528 -0.598895 0
M  V30 2450 H 234.132 -1.59072 -1.03905 0
M  V30 2451 H 232.282 -1.64485 -3.51962 0
M  V30 2452 H 233.954 -3.97401 -2.34244 0
M  V30 2453 H 232.197 -3.77187 -2.14273 0
M  V30 2454 H 232.868 -4.04787 -3.75302 0
M  V30 2455 H 235.344 -2.12924 -3.57495 0
M  V30 2456 H 234.22 -2.41801 -4.92771 0
M  V30 2457 H 234.481 -0.779209 -4.35179 0
M  V30 2458 N 233.54 1.10788 -1.12088 0
M  V30 2459 C 234.789 1.82036 -0.868659 0
M  V30 2460 C 235.102 1.85929 0.607426 0
M  V30 2461 O 236.308 2.53346 0.97613 0
M  V30 2462 C 234.764 3.26951 -1.50435 0
M  V30 2463 C 234.372 3.31367 -3.01496 0
M  V30 2464 C 236.116 4.03053 -1.33225 0
M  V30 2465 C 234.023 4.7072 -3.58017 0
M  V30 2466 H 232.953 0.682108 -0.321318 0
M  V30 2467 H 235.604 1.24618 -1.34694 0
M  V30 2468 H 233.986 3.84343 -0.953735 0
M  V30 2469 H 235.16 2.83819 -3.6302 0
M  V30 2470 H 233.475 2.6875 -3.18061 0
M  V30 2471 H 236.072 5.05981 -1.72878 0
M  V30 2472 H 236.415 4.15387 -0.275529 0
M  V30 2473 H 236.948 3.52066 -1.85188 0
M  V30 2474 H 233.687 4.63585 -4.63432 0
M  V30 2475 H 233.207 5.1865 -3.01268 0
M  V30 2476 H 234.886 5.39685 -3.56859 0
M  V30 2477 N 235.018 0.912232 1.28515 0
M  V30 2478 C 236.434 0.610159 1.47476 0
M  V30 2479 C 236.634 -0.844955 1.82928 0
M  V30 2480 O 235.69 -1.62416 1.93332 0
M  V30 2481 C 237.003 1.54675 2.57868 0
M  V30 2482 C 238.551 1.55331 2.71738 0
M  V30 2483 C 239.026 2.47649 3.85272 0
M  V30 2484 N 240.517 2.45767 3.92623 0
M  V30 2485 C 241.252 3.13896 4.79851 0
M  V30 2486 N 240.748 3.9135 5.71679 0
M  V30 2487 N 242.541 3.02991 4.73448 0
M  V30 2488 H 234.692 1.85318 1.03783 0
M  V30 2489 H 236.955 0.794777 0.516753 0
M  V30 2490 H 236.661 2.5841 2.38574 0
M  V30 2491 H 236.535 1.27671 3.54937 0
M  V30 2492 H 238.922 0.52335 2.90422 0
M  V30 2493 H 239.003 1.86378 1.75205 0
M  V30 2494 H 238.647 3.50745 3.67342 0
M  V30 2495 H 238.577 2.13904 4.81199 0
M  V30 2496 H 241.068 1.89503 3.26951 0
M  V30 2497 H 241.381 4.40359 6.35062 0
M  V30 2498 H 239.726 3.95455 5.71524 0
M  V30 2499 H 242.917 2.41987 4.007 0
M  V30 2500 H 243.09 3.5636 5.41213 0
M  V30 2501 N 236.496 -1.42363 0.676048 0
M  V30 2502 C 237.406 -2.346 -0.00153389 0
M  V30 2503 C 238.422 -1.5516 -0.787485 0
M  V30 2504 O 239.598 -1.87723 -0.729521 0
M  V30 2505 C 236.663 -3.33705 -0.940298 0
M  V30 2506 C 235.724 -4.29042 -0.148739 0
M  V30 2507 C 234.957 -5.23413 -1.04279 0
M  V30 2508 O 235.18 -5.22749 -2.28232 0
M  V30 2509 O 234.114 -5.99795 -0.502925 0
M  V30 2510 H 237.94 -2.94082 0.758268 0
M  V30 2511 H 235.525 -1.42888 0.436289 0
M  V30 2512 H 237.407 -3.94586 -1.47917 0
M  V30 2513 H 236.082 -2.76695 -1.67993 0
M  V30 2514 H 234.989 -3.71571 0.43427 0
M  V30 2515 H 236.322 -4.89097 0.551805 0
M  V30 2516 N 237.974 -0.419461 -1.51915 0
M  V30 2517 C 238.921 0.400927 -2.27291 0
M  V30 2518 C 239.891 1.03224 -1.30131 0
M  V30 2519 O 241.076 1.05455 -1.59009 0
M  V30 2520 C 238.216 1.50603 -3.10504 0
M  V30 2521 C 237.329 0.89462 -4.22635 0
M  V30 2522 C 236.464 1.97328 -4.93189 0
M  V30 2523 C 235.503 1.33935 -5.97267 0
M  V30 2524 N 234.64 2.3586 -6.61298 0
M  V30 2525 H 239.48 -0.248251 -2.96964 0
M  V30 2526 H 237.017 -0.134266 -1.46486 0
M  V30 2527 H 238.975 2.15783 -3.57062 0
M  V30 2528 H 237.605 2.12509 -2.42981 0
M  V30 2529 H 236.657 0.131583 -3.80172 0
M  V30 2530 H 237.969 0.391641 -4.9726 0
M  V30 2531 H 237.123 2.70211 -5.43204 0
M  V30 2532 H 235.862 2.50994 -4.18155 0
M  V30 2533 H 234.867 0.595896 -5.46561 0
M  V30 2534 H 236.092 0.810252 -6.74249 0
M  V30 2535 H 234.038 2.88639 -5.89087 0
M  V30 2536 H 233.955 1.90403 -7.3163 0
M  V30 2537 H 235.223 3.08282 -7.15949 0
M  V30 2538 N 239.452 1.56882 -0.150215 0
M  V30 2539 C 240.868 1.58263 0.20617 0
M  V30 2540 C 241.068 1.16464 1.64434 0
M  V30 2541 O 240.124 0.866422 2.3717 0
M  V30 2542 C 241.437 3.00649 -0.0555025 0
M  V30 2543 C 242.985 3.12999 0.00795388 0
M  V30 2544 C 243.46 4.5744 -0.226429 0
M  V30 2545 N 244.951 4.62875 -0.173469 0
M  V30 2546 C 245.686 5.72454 -0.329288 0
M  V30 2547 N 245.182 6.90669 -0.543005 0
M  V30 2548 N 246.975 5.61467 -0.266666 0
M  V30 2549 H 239.126 1.82345 -1.08922 0
M  V30 2550 H 241.389 0.844149 -0.431413 0
M  V30 2551 H 241.095 3.3563 -1.05096 0
M  V30 2552 H 240.969 3.71337 0.66246 0
M  V30 2553 H 243.356 2.77857 0.993966 0
M  V30 2554 H 243.437 2.4479 -0.742388 0
M  V30 2555 H 243.081 4.93287 -1.20956 0
M  V30 2556 H 243.011 5.2378 0.544274 0
M  V30 2557 H 245.502 3.77898 -0.0130709 0
M  V30 2558 H 245.815 7.70045 -0.651922 0
M  V30 2559 H 244.16 6.92581 -0.579366 0
M  V30 2560 H 247.351 4.67992 -0.100441 0
M  V30 2561 H 247.524 6.46816 -0.391535 0
M  V30 2562 N 240.93 -0.123565 1.57115 0
M  V30 2563 C 242.341 -0.681198 1.73829 0
M  V30 2564 C 242.692 -1.80535 0.768214 0
M  V30 2565 O 241.817 -2.16317 -0.0599103 0
M  V30 2566 C 242.412 -1.24246 3.15196 0
M  V30 2567 C 240.971 -1.74643 3.33432 0
M  V30 2568 C 240.118 -0.644284 2.69711 0
M  V30 2569 H 243.069 0.102315 1.5837 0
M  V30 2570 H 243.09 -2.11216 3.16493 0
M  V30 2571 H 242.602 -0.424062 3.85776 0
M  V30 2572 H 240.703 -2.58974 2.67886 0
M  V30 2573 H 240.816 -1.85902 4.41562 0
M  V30 2574 H 239.18 -1.07676 2.3082 0
M  V30 2575 H 239.963 0.163058 3.42913 0
M  V30 2576 N 242.408 -1.52605 -0.393616 0
M  V30 2577 C 243.318 -1.79971 -1.50492 0
M  V30 2578 C 244.334 -0.686181 -1.59899 0
M  V30 2579 O 245.51 -0.973274 -1.76322 0
M  V30 2580 C 242.575 -1.95867 -2.86072 0
M  V30 2581 C 241.636 -3.19781 -2.86424 0
M  V30 2582 C 240.869 -3.34909 -4.15538 0
M  V30 2583 O 241.092 -2.54948 -5.10253 0
M  V30 2584 O 240.026 -4.28141 -4.23059 0
M  V30 2585 H 243.852 -2.74328 -1.30299 0
M  V30 2586 H 241.437 -1.3764 -0.581005 0
M  V30 2587 H 243.319 -2.08056 -3.66457 0
M  V30 2588 H 241.994 -1.04699 -3.063 0
M  V30 2589 H 240.901 -3.13038 -2.04837 0
M  V30 2590 H 242.234 -4.1078 -2.71147 0
M  V30 2591 N 243.887 0.651787 -1.4349 0
M  V30 2592 C 245.112 1.44434 -1.48841 0
M  V30 2593 C 245.537 1.8779 -0.107955 0
M  V30 2594 O 244.895 1.57464 0.898602 0
M  V30 2595 C 244.943 2.65458 -2.44059 0
M  V30 2596 O 244.047 3.64566 -1.92784 0
M  V30 2597 H 243.388 0.433005 -0.503391 0
M  V30 2598 H 245.918 0.797451 -1.88419 0
M  V30 2599 H 245.928 3.13255 -2.6141 0
M  V30 2600 H 244.603 2.33244 -3.4434 0
M  V30 2601 H 243.18 3.23716 -1.851 0
M  V30 2602 N 245.365 1.30045 0.890287 0
M  V30 2603 C 246.642 1.09227 1.62262 0
M  V30 2604 C 247.022 -0.360305 2.08002 0
M  V30 2605 O 246.37 -1.35084 1.84295 0
M  V30 2606 C 246.58 2.08835 2.79623 0
M  V30 2607 C 247.928 2.40266 3.50082 0
M  V30 2608 O 248.952 2.07104 2.89804 0
M  V30 2609 O 247.811 2.96967 4.58773 0
M  V30 2610 H 244.905 0.419132 0.712922 0
M  V30 2611 H 247.451 1.41451 0.937529 0
M  V30 2612 H 246.223 3.06633 2.43089 0
M  V30 2613 H 245.846 1.77397 3.55832 0
M  V30 2614 N 246.843 -1.10192 1.12674 0
M  V30 2615 C 248.089 -1.82475 0.884915 0
M  V30 2616 C 248.422 -1.85093 -0.58773 0
M  V30 2617 O 247.697 -1.3134 -1.43457 0
M  V30 2618 C 247.98 -3.29018 1.46353 0
M  V30 2619 C 247.833 -3.34718 3.00473 0
M  V30 2620 C 249.152 -4.25473 1.12519 0
M  V30 2621 H 246.271 -0.662492 0.322915 0
M  V30 2622 H 248.913 -1.2913 1.39375 0
M  V30 2623 H 247.063 -3.74576 1.03077 0
M  V30 2624 H 248.735 -2.97622 3.52447 0
M  V30 2625 H 246.978 -2.74541 3.35872 0
M  V30 2626 H 247.649 -4.37918 3.36053 0
M  V30 2627 H 250.125 -3.88161 1.499 0
M  V30 2628 H 249.001 -5.26365 1.55663 0
M  V30 2629 H 249.262 -4.42084 0.0377407 0
M  V30 2630 N 248.321 -0.919034 -1.28029 0
M  V30 2631 C 249.57 -0.550802 -1.94034 0
M  V30 2632 C 249.883 0.910877 -1.73096 0
M  V30 2633 O 251.089 1.3875 -2.33368 0
M  V30 2634 C 249.545 -0.934249 -3.47563 0
M  V30 2635 C 249.153 -2.41602 -3.7727 0
M  V30 2636 C 250.897 -0.636854 -4.19696 0
M  V30 2637 C 248.804 -2.73932 -5.24133 0
M  V30 2638 H 247.734 -0.202273 -0.726362 0
M  V30 2639 H 250.385 -1.11867 -1.45458 0
M  V30 2640 H 248.767 -0.295115 -3.94899 0
M  V30 2641 H 249.941 -3.10233 -3.40723 0
M  V30 2642 H 248.256 -2.68441 -3.18321 0
M  V30 2643 H 250.853 -0.855005 -5.2782 0
M  V30 2644 H 251.196 0.425575 -4.14119 0
M  V30 2645 H 251.729 -1.23469 -3.78154 0
M  V30 2646 H 248.468 -3.79049 -5.34792 0
M  V30 2647 H 247.988 -2.09942 -5.61858 0
M  V30 2648 H 249.667 -2.61215 -5.91925 0
M  V30 2649 N 249.799 1.42003 -0.683588 0
M  V30 2650 C 251.027 2.05746 -0.218182 0
M  V30 2651 C 251.442 1.51396 1.12804 0
M  V30 2652 O 250.799 0.657303 1.70252 0
M  V30 2653 C 250.85 3.61171 -0.154131 0
M  V30 2654 O 250.571 4.13508 -1.44716 0
M  V30 2655 C 252.072 4.42042 0.333713 0
M  V30 2656 H 249.292 0.662888 -0.10402 0
M  V30 2657 H 251.836 1.81987 -0.9328 0
M  V30 2658 H 249.991 3.84012 0.511231 0
M  V30 2659 H 250.405 5.07453 -1.32632 0
M  V30 2660 H 251.879 5.51028 0.327423 0
M  V30 2661 H 252.356 4.17269 1.37053 0
M  V30 2662 H 252.962 4.24239 -0.300222 0
M  V30 2663 N 251.277 0.427512 1.51691 0
M  V30 2664 C 252.502 -0.143601 2.06902 0
M  V30 2665 C 252.927 -1.36536 1.29382 0
M  V30 2666 O 252.285 -1.78289 0.329043 0
M  V30 2667 C 252.333 -0.454207 3.57728 0
M  V30 2668 O 251.437 -1.54228 3.82475 0
M  V30 2669 H 250.778 -0.00617128 0.663971 0
M  V30 2670 H 253.308 0.606014 1.95419 0
M  V30 2671 H 253.318 -0.707525 4.01818 0
M  V30 2672 H 251.993 0.438812 4.13579 0
M  V30 2673 H 250.57 -1.2797 3.50254 0
M  V30 2674 N 252.755 -1.56801 0.158532 0
M  V30 2675 C 254.002 -1.9649 -0.489679 0
M  V30 2676 C 254.33 -1.04394 -1.6411 0
M  V30 2677 O 253.585 -0.0754401 -1.95555 0
M  V30 2678 C 253.884 -3.4235 -1.02623 0
M  V30 2679 C 253.55 -4.50899 0.00794526 0
M  V30 2680 C 252.212 -4.80312 0.292207 0
M  V30 2681 C 254.564 -5.16333 0.710584 0
M  V30 2682 C 251.892 -5.72461 1.28472 0
M  V30 2683 C 254.244 -6.09553 1.69199 0
M  V30 2684 C 252.908 -6.37339 1.98383 0
M  V30 2685 H 252.178 -0.719009 -0.179186 0
M  V30 2686 H 254.825 -1.8989 0.247798 0
M  V30 2687 H 253.13 -3.45838 -1.84128 0
M  V30 2688 H 254.827 -3.70393 -1.53656 0
M  V30 2689 H 251.417 -4.28015 -0.22379 0
M  V30 2690 H 255.601 -4.93732 0.504174 0
M  V30 2691 H 250.857 -5.92278 1.51714 0
M  V30 2692 H 255.031 -6.59327 2.24189 0
M  V30 2693 H 252.658 -7.08546 2.7544 0
M  V30 2694 N 254.233 0.115231 -1.57178 0
M  V30 2695 C 255.482 0.820945 -1.84237 0
M  V30 2696 C 255.795 1.80866 -0.744761 0
M  V30 2697 O 257.001 2.56083 -0.901871 0
M  V30 2698 C 255.457 1.51072 -3.26658 0
M  V30 2699 C 255.065 0.563795 -4.44438 0
M  V30 2700 C 256.809 2.20134 -3.62962 0
M  V30 2701 C 254.716 1.25701 -5.77887 0
M  V30 2702 H 253.646 0.310328 -0.687177 0
M  V30 2703 H 256.297 0.0737134 -1.83352 0
M  V30 2704 H 254.679 2.30471 -3.22024 0
M  V30 2705 H 255.853 -0.197247 -4.60378 0
M  V30 2706 H 254.168 -0.0200638 -4.16395 0
M  V30 2707 H 256.765 2.72696 -4.59936 0
M  V30 2708 H 257.108 2.98107 -2.90582 0
M  V30 2709 H 257.641 1.47619 -3.69396 0
M  V30 2710 H 254.38 0.518493 -6.53446 0
M  V30 2711 H 253.9 1.98997 -5.65827 0
M  V30 2712 H 255.579 1.78915 -6.2177 0
M  V30 2713 N 255.711 1.52812 0.385517 0
M  V30 2714 C 256.641 1.80808 1.47752 0
M  V30 2715 C 257.622 0.660318 1.5676 0
M  V30 2716 O 258.807 0.908246 1.71652 0
M  V30 2717 C 255.937 1.98008 2.85324 0
M  V30 2718 C 254.891 3.13709 2.91154 0
M  V30 2719 C 254.217 3.16169 4.31209 0
M  V30 2720 C 255.517 4.52709 2.60483 0
M  V30 2721 H 257.211 2.72253 1.24573 0
M  V30 2722 H 254.757 1.31003 0.597839 0
M  V30 2723 H 256.71 2.16176 3.61726 0
M  V30 2724 H 255.434 1.03255 3.09848 0
M  V30 2725 H 254.093 2.95329 2.17201 0
M  V30 2726 H 253.741 2.19092 4.52778 0
M  V30 2727 H 253.441 3.93894 4.36029 0
M  V30 2728 H 254.965 3.36496 5.09512 0
M  V30 2729 H 256.379 4.71173 3.26602 0
M  V30 2730 H 254.776 5.32528 2.76648 0
M  V30 2731 H 255.846 4.59186 1.55809 0
M  V30 2732 N 257.189 -0.644168 1.43834 0
M  V30 2733 C 258.099 -1.78563 1.52159 0
M  V30 2734 C 259.115 -1.69147 0.408069 0
M  V30 2735 O 260.291 -1.90156 0.663524 0
M  V30 2736 C 257.356 -3.14888 1.45073 0
M  V30 2737 C 256.417 -3.36034 2.6717 0
M  V30 2738 C 255.65 -4.65855 2.60413 0
M  V30 2739 O 255.873 -5.45805 1.65689 0
M  V30 2740 O 254.807 -4.88918 3.5106 0
M  V30 2741 H 258.633 -1.74494 2.48567 0
M  V30 2742 H 256.218 -0.80378 1.25935 0
M  V30 2743 H 258.1 -3.96179 1.43597 0
M  V30 2744 H 256.775 -3.19528 0.518037 0
M  V30 2745 H 255.682 -2.54472 2.74217 0
M  V30 2746 H 257.015 -3.36247 3.59442 0
M  V30 2747 N 258.668 -1.30515 -0.883378 0
M  V30 2748 C 260.079 -1.17509 -1.45081 0
M  V30 2749 C 260.43 0.223605 -1.94922 0
M  V30 2750 O 259.555 1.12041 -1.85137 0
M  V30 2751 C 260.15 -2.12715 -2.63701 0
M  V30 2752 C 258.709 -2.03682 -3.16529 0
M  V30 2753 C 257.856 -2.02706 -1.89224 0
M  V30 2754 H 260.807 -1.42762 -0.693165 0
M  V30 2755 H 260.828 -1.70891 -3.39965 0
M  V30 2756 H 260.34 -3.14505 -2.27395 0
M  V30 2757 H 258.441 -1.05039 -3.57488 0
M  V30 2758 H 258.554 -2.92146 -3.7972 0
M  V30 2759 H 256.918 -1.4753 -2.07622 0
M  V30 2760 H 257.701 -3.06229 -1.55174 0
M  V30 2761 N 260.146 1.09593 -1.13257 0
M  V30 2762 C 261.109 2.14359 -0.811358 0
M  V30 2763 C 262.109 1.59808 0.178377 0
M  V30 2764 O 263.299 1.74132 -0.0484911 0
M  V30 2765 C 260.431 3.40269 -0.207276 0
M  V30 2766 H 261.624 2.44284 -1.73969 0
M  V30 2767 H 259.177 1.25102 -0.936973 0
M  V30 2768 H 259.912 3.15969 0.73036 0
M  V30 2769 H 259.697 3.81154 -0.919992 0
M  V30 2770 H 261.187 4.176 0.000667944 0
M  V30 2771 N 261.624 0.925811 1.2754 0
M  V30 2772 C 262.901 0.483726 1.89524 0
M  V30 2773 C 263.281 -1.03809 1.83812 0
M  V30 2774 O 262.629 -1.89143 1.28207 0
M  V30 2775 C 262.839 1.02769 3.33526 0
M  V30 2776 C 264.187 1.08703 4.10449 0
M  V30 2777 O 265.211 0.977175 3.42534 0
M  V30 2778 O 264.07 1.25599 5.31871 0
M  V30 2779 H 261.164 0.15529 0.812289 0
M  V30 2780 H 263.71 1.01738 1.35822 0
M  V30 2781 H 262.482 2.07155 3.31967 0
M  V30 2782 H 262.105 0.475567 3.94746 0
M  V30 2783 N 263.102 -1.41638 0.69111 0
M  V30 2784 C 264.35 -2.00902 0.219758 0
M  V30 2785 C 264.671 -1.54994 -1.18329 0
M  V30 2786 O 263.941 -0.778628 -1.79762 0
M  V30 2787 H 262.521 -0.74289 0.0782558 0
M  V30 2788 H 265.183 -1.73327 0.891271 0
M  V30 2789 H 264.279 -3.11224 0.233708 0
M  V30 2790 N 264.58 -0.43555 -1.51462 0
M  V30 2791 C 265.828 0.131254 -2.01673 0
M  V30 2792 C 266.149 1.43368 -1.32177 0
M  V30 2793 O 265.419 1.90524 -0.455769 0
M  V30 2794 H 263.999 0.0514954 -0.745223 0
M  V30 2795 H 266.661 -0.577847 -1.86137 0
M  V30 2796 H 265.757 0.308446 -3.10572 0
M  V30 2797 N 266.058 1.56714 -0.166846 0
M  V30 2798 C 267.469 1.83378 0.350646 0
M  V30 2799 C 267.82 1.08646 1.63372 0
M  V30 2800 O 266.945 0.338058 2.13743 0
M  V30 2801 C 267.54 3.32643 0.642963 0
M  V30 2802 C 266.099 3.59818 1.10491 0
M  V30 2803 C 265.246 2.76954 0.138411 0
M  V30 2804 H 268.197 1.53803 -0.391193 0
M  V30 2805 H 268.218 3.49878 1.49551 0
M  V30 2806 H 267.73 3.87007 -0.291055 0
M  V30 2807 H 265.831 3.1086 2.05418 0
M  V30 2808 H 265.944 4.68178 1.01716 0
M  V30 2809 H 264.308 2.4666 0.634911 0
M  V30 2810 H 265.091 3.34097 -0.789549 0
M  V30 2811 N 267.536 -0.106894 1.57237 0
M  V30 2812 C 268.782 -0.81373 1.85759 0
M  V30 2813 C 269.115 -1.78952 0.754315 0
M  V30 2814 O 268.39 -1.93029 -0.23879 0
M  V30 2815 C 268.673 -1.55293 3.24894 0
M  V30 2816 C 268.526 -0.595929 4.45835 0
M  V30 2817 C 269.845 -2.5063 3.61763 0
M  V30 2818 H 266.964 -0.294369 0.67566 0
M  V30 2819 H 269.606 -0.0776472 1.89841 0
M  V30 2820 H 267.756 -2.1804 3.21544 0
M  V30 2821 H 269.428 0.0236262 4.61294 0
M  V30 2822 H 267.671 0.0916191 4.33703 0
M  V30 2823 H 268.342 -1.15004 5.39887 0
M  V30 2824 H 270.818 -1.97982 3.65981 0
M  V30 2825 H 269.694 -2.99376 4.60071 0
M  V30 2826 H 269.955 -3.3385 2.89821 0
M  V30 2827 N 269.014 -1.53014 -0.377408 0
M  V30 2828 C 270.26 -1.68872 -1.12294 0
M  V30 2829 C 270.593 -0.433224 -1.89306 0
M  V30 2830 O 269.868 0.569258 -1.85983 0
M  V30 2831 C 270.151 -2.93115 -2.09179 0
M  V30 2832 C 270.004 -4.28794 -1.35853 0
M  V30 2833 C 271.323 -3.12928 -3.09458 0
M  V30 2834 H 268.442 -0.614518 -0.406862 0
M  V30 2835 H 271.084 -1.85633 -0.40503 0
M  V30 2836 H 269.234 -2.78956 -2.70399 0
M  V30 2837 H 270.906 -4.54742 -0.775082 0
M  V30 2838 H 269.149 -4.28744 -0.660364 0
M  V30 2839 H 269.82 -5.11837 -2.06706 0
M  V30 2840 H 272.296 -3.26194 -2.58334 0
M  V30 2841 H 271.172 -4.01316 -3.74482 0
M  V30 2842 H 271.433 -2.27669 -3.78971 0
M  V30 2843 N 270.492 0.636531 -1.44174 0
M  V30 2844 C 271.44 1.76995 -1.50915 0
M  V30 2845 C 272.434 1.65053 -0.381295 0
M  V30 2846 O 273.64 1.71197 -0.55601 0
M  V30 2847 H 270.015 0.584247 -0.473455 0
M  V30 2848 H 271.986 1.68432 -2.4632 0
M  V30 2849 C 270.735 3.15314 -1.46534 0
M  V30 2850 H 270.058 3.25149 -2.32633 0
M  V30 2851 H 271.498 3.9453 -1.55312 0
M  V30 2852 C 269.957 3.3639 -0.185305 0
M  V30 2853 O 270.487 3.94699 0.746688 0
M  V30 2854 N 268.693 2.9046 -0.0901606 0
M  V30 2855 H 268.24 2.43193 -0.849416 0
M  V30 2856 H 268.198 3.04937 0.765553 0
M  V30 2857 N 271.97 1.30982 0.876444 0
M  V30 2858 C 273.217 1.20296 1.62896 0
M  V30 2859 C 273.545 -0.240395 1.93009 0
M  V30 2860 O 272.8 -1.18733 1.55567 0
M  V30 2861 C 273.099 1.98572 2.9716 0
M  V30 2862 C 272.765 3.48125 2.86566 0
M  V30 2863 C 271.427 3.88905 2.83383 0
M  V30 2864 C 273.779 4.43322 2.74071 0
M  V30 2865 C 271.107 5.2316 2.65556 0
M  V30 2866 C 273.459 5.77695 2.57781 0
M  V30 2867 C 272.123 6.17704 2.52979 0
M  V30 2868 H 271.393 0.440193 0.59608 0
M  V30 2869 H 274.04 1.62177 1.01837 0
M  V30 2870 H 272.345 1.49352 3.62217 0
M  V30 2871 H 274.042 1.8769 3.54364 0
M  V30 2872 H 270.632 3.15723 2.89856 0
M  V30 2873 H 274.816 4.12752 2.75589 0
M  V30 2874 H 270.072 5.53241 2.60259 0
M  V30 2875 H 274.246 6.51091 2.47089 0
M  V30 2876 H 271.873 7.21678 2.38924 0
M  V30 2877 N 273.449 -1.08991 1.13837 0
M  V30 2878 C 274.359 -2.19301 0.833333 0
M  V30 2879 C 275.375 -1.73026 -0.183847 0
M  V30 2880 O 276.551 -2.01395 -0.0138092 0
M  V30 2881 C 273.616 -3.45323 0.308651 0
M  V30 2882 C 272.677 -4.06255 1.38764 0
M  V30 2883 C 271.91 -5.26262 0.887896 0
M  V30 2884 O 272.133 -5.69747 -0.27287 0
M  V30 2885 O 271.067 -5.78435 1.66421 0
M  V30 2886 H 274.893 -2.47854 1.75506 0
M  V30 2887 H 272.478 -1.18012 0.916166 0
M  V30 2888 H 274.36 -4.21394 0.0216739 0
M  V30 2889 H 273.035 -3.18362 -0.585431 0
M  V30 2890 H 271.942 -3.318 1.72799 0
M  V30 2891 H 273.275 -4.37452 2.25602 0
M  V30 2892 N 274.927 -0.932562 -1.27047 0
M  V30 2893 C 276.338 -0.619451 -1.76124 0
M  V30 2894 C 276.689 0.865397 -1.76083 0
M  V30 2895 O 275.814 1.67722 -1.36742 0
M  V30 2896 C 276.409 -1.11771 -3.19832 0
M  V30 2897 C 274.968 -0.855174 -3.66557 0
M  V30 2898 C 274.115 -1.27362 -2.46321 0
M  V30 2899 H 277.066 -1.11181 -1.13245 0
M  V30 2900 H 277.087 -0.46759 -3.77616 0
M  V30 2901 H 276.599 -2.19842 -3.1983 0
M  V30 2902 H 274.7 0.211524 -3.71999 0
M  V30 2903 H 274.813 -1.47613 -4.55793 0
M  V30 2904 H 273.177 -0.692119 -2.45116 0
M  V30 2905 H 273.96 -2.36307 -2.49025 0
M  V30 2906 N 276.405 1.4127 -0.698611 0
M  V30 2907 C 277.653 2.00782 -0.230409 0
M  V30 2908 C 277.974 1.5562 1.17505 0
M  V30 2909 O 277.244 0.78815 1.79346 0
M  V30 2910 H 275.824 0.742464 -0.0821944 0
M  V30 2911 H 278.486 1.72852 -0.90045 0
M  V30 2912 H 277.582 3.11095 -0.25021 0
M  V30 2913 N 277.883 0.443576 1.51229 0
M  V30 2914 C 278.815 -0.400608 2.25672 0
M  V30 2915 C 279.828 -0.980945 1.29928 0
M  V30 2916 O 281.017 -0.874024 1.55638 0
M  V30 2917 C 278.117 -1.57304 3.00181 0
M  V30 2918 C 277.29 -1.11046 4.23069 0
M  V30 2919 C 276.349 -2.15374 4.80105 0
M  V30 2920 O 275.375 -1.74554 5.41774 0
M  V30 2921 N 276.577 -3.47922 4.64683 0
M  V30 2922 H 279.342 0.23745 2.98758 0
M  V30 2923 H 276.903 0.272809 1.59585 0
M  V30 2924 H 278.895 -2.26733 3.35223 0
M  V30 2925 H 277.465 -2.11632 2.30066 0
M  V30 2926 H 276.685 -0.243019 3.9345 0
M  V30 2927 H 277.973 -0.778888 5.02803 0
M  V30 2928 H 277.371 -3.83815 4.15575 0
M  V30 2929 H 275.928 -4.13228 5.0407 0
M  V30 2930 N 279.361 -1.56624 0.175154 0
M  V30 2931 C 280.591 -2.01082 -0.474283 0
M  V30 2932 C 280.999 -1.05447 -1.57091 0
M  V30 2933 O 280.342 -0.0480595 -1.83637 0
M  V30 2934 C 280.404 -3.41963 -1.10911 0
M  V30 2935 C 280.068 -4.56742 -0.153666 0
M  V30 2936 C 281.065 -5.16076 0.629448 0
M  V30 2937 C 278.75 -5.02277 -0.0483776 0
M  V30 2938 C 280.744 -6.19377 1.50501 0
M  V30 2939 C 278.431 -6.05427 0.830768 0
M  V30 2940 C 279.429 -6.63849 1.60605 0
M  V30 2941 O 279.117 -7.64998 2.47049 0
M  V30 2942 H 278.849 -0.664261 -0.125432 0
M  V30 2943 H 281.403 -2.03549 0.275163 0
M  V30 2944 H 279.633 -3.36422 -1.90676 0
M  V30 2945 H 281.322 -3.70352 -1.66114 0
M  V30 2946 H 282.088 -4.81776 0.558297 0
M  V30 2947 H 277.967 -4.56513 -0.641611 0
M  V30 2948 H 281.511 -6.64906 2.1106 0
M  V30 2949 H 277.408 -6.39151 0.903107 0
M  V30 2950 H 278.176 -7.82336 2.40607 0
M  V30 2951 N 280.839 0.0985539 -1.57292 0
M  V30 2952 C 282.067 0.816318 -1.90115 0
M  V30 2953 C 282.482 1.72451 -0.768509 0
M  V30 2954 O 281.839 1.80643 0.259687 0
M  V30 2955 C 281.89 1.63259 -3.22535 0
M  V30 2956 O 281.611 0.760934 -4.31441 0
M  V30 2957 C 283.112 2.45372 -3.69199 0
M  V30 2958 H 280.332 0.233595 -0.629027 0
M  V30 2959 H 282.876 0.0768229 -2.04356 0
M  V30 2960 H 281.031 2.32463 -3.09903 0
M  V30 2961 H 281.445 1.32595 -5.07463 0
M  V30 2962 H 282.919 2.98144 -4.64558 0
M  V30 2963 H 283.396 3.23677 -2.96867 0
M  V30 2964 H 284.002 1.81373 -3.84687 0
M  V30 2965 N 282.317 1.53212 0.369288 0
M  V30 2966 C 283.542 1.73423 1.1375 0
M  V30 2967 C 283.967 0.460404 1.82378 0
M  V30 2968 O 283.325 -0.585298 1.71592 0
M  V30 2969 C 283.373 2.89769 2.1463 0
M  V30 2970 O 282.477 2.58119 3.21634 0
M  V30 2971 H 281.818 0.576061 0.330227 0
M  V30 2972 H 284.348 2.00083 0.427547 0
M  V30 2973 H 284.358 3.15829 2.58294 0
M  V30 2974 H 283.033 3.8217 1.64071 0
M  V30 2975 H 281.61 2.42864 2.82969 0
M  V30 2976 N 283.795 -0.628877 1.44509 0
M  V30 2977 C 285.041 -1.39045 1.47629 0
M  V30 2978 C 285.374 -1.93892 0.109343 0
M  V30 2979 O 284.649 -1.7379 -0.87334 0
M  V30 2980 C 284.932 -2.55408 2.53848 0
M  V30 2981 C 284.785 -2.05896 3.99909 0
M  V30 2982 C 286.104 -3.5759 2.56549 0
M  V30 2983 H 283.223 -0.504232 0.537512 0
M  V30 2984 H 285.865 -0.710854 1.76201 0
M  V30 2985 H 284.015 -3.13384 2.29615 0
M  V30 2986 H 285.687 -1.52734 4.35282 0
M  V30 2987 H 283.93 -1.37061 4.11578 0
M  V30 2988 H 284.601 -2.89681 4.69882 0
M  V30 2989 H 287.077 -3.09419 2.78207 0
M  V30 2990 H 285.953 -4.36527 3.32769 0
M  V30 2991 H 286.214 -4.11808 1.60832 0
M  V30 2992 N 285.273 -1.31445 -0.869486 0
M  V30 2993 C 286.236 -1.19094 -1.9583 0
M  V30 2994 C 287.236 -0.117906 -1.60367 0
M  V30 2995 O 288.426 -0.367208 -1.70286 0
M  V30 2996 C 285.558 -0.828165 -3.30688 0
M  V30 2997 H 286.751 -2.15842 -2.08212 0
M  V30 2998 H 284.304 -1.15063 -1.05784 0
M  V30 2999 H 285.039 0.138142 -3.24006 0
M  V30 3000 H 284.824 -1.6038 -3.578 0
M  V30 3001 H 286.314 -0.765658 -4.10521 0
M  V30 3002 N 286.751 1.08385 -1.14413 0
M  V30 3003 C 288 1.80153 -0.907076 0
M  V30 3004 C 288.313 1.87176 0.567851 0
M  V30 3005 O 289.519 2.55359 0.922172 0
M  V30 3006 C 287.975 3.23687 -1.57336 0
M  V30 3007 C 287.583 3.24897 -3.08457 0
M  V30 3008 C 289.327 4.00136 -1.41744 0
M  V30 3009 C 287.234 4.6302 -3.67921 0
M  V30 3010 H 286.164 0.675139 -0.335714 0
M  V30 3011 H 288.815 1.21733 -1.37307 0
M  V30 3012 H 287.197 3.82234 -1.03505 0
M  V30 3013 H 288.371 2.76055 -3.68958 0
M  V30 3014 H 286.686 2.61943 -3.2369 0
M  V30 3015 H 289.283 5.02201 -1.83572 0
M  V30 3016 H 289.626 4.14709 -0.363576 0
M  V30 3017 H 290.159 3.48058 -1.92614 0
M  V30 3018 H 286.898 4.5365 -4.73161 0
M  V30 3019 H 286.418 5.12143 -3.12201 0
M  V30 3020 H 288.097 5.31994 -3.68227 0
M  V30 3021 N 288.23 0.939286 1.26551 0
M  V30 3022 C 289.507 0.5038 1.89001 0
M  V30 3023 C 289.887 -1.01854 1.84903 0
M  V30 3024 O 289.235 -1.87773 1.30206 0
M  V30 3025 C 289.445 1.063 3.32417 0
M  V30 3026 C 290.793 1.13051 4.09273 0
M  V30 3027 O 291.817 1.01345 3.41479 0
M  V30 3028 O 290.676 1.31233 5.30509 0
M  V30 3029 H 287.77 0.163897 0.810597 0
M  V30 3030 H 290.316 1.03173 1.34735 0
M  V30 3031 H 289.088 2.10665 3.29752 0
M  V30 3032 H 288.711 0.517408 3.94219 0
M  V30 3033 N 289.708 -1.40897 0.706093 0
M  V30 3034 C 290.954 -2.01352 0.241889 0
M  V30 3035 C 291.287 -1.55832 -1.15888 0
M  V30 3036 O 290.562 -0.774145 -1.7843 0
M  V30 3037 C 290.845 -3.58752 0.311311 0
M  V30 3038 C 290.698 -4.1437 1.74978 0
M  V30 3039 C 292.017 -4.38914 -0.322922 0
M  V30 3040 H 289.136 -0.731562 0.0893687 0
M  V30 3041 H 291.778 -1.67504 0.896802 0
M  V30 3042 H 289.928 -3.87718 -0.246302 0
M  V30 3043 H 291.6 -3.96239 2.36205 0
M  V30 3044 H 289.843 -3.69016 2.28057 0
M  V30 3045 H 290.514 -5.23532 1.74981 0
M  V30 3046 H 292.99 -4.15822 0.152089 0
M  V30 3047 H 291.866 -5.48358 -0.243855 0
M  V30 3048 H 292.127 -4.19176 -1.40513 0
M  V30 3049 N 291.186 -0.45159 -1.50991 0
M  V30 3050 C 292.597 0.00818571 -1.86698 0
M  V30 3051 C 292.948 1.40661 -1.3678 0
M  V30 3052 O 292.073 2.0391 -0.724546 0
M  V30 3053 C 292.668 0.0216303 -3.38793 0
M  V30 3054 C 291.227 0.425865 -3.73983 0
M  V30 3055 C 290.374 -0.372163 -2.74791 0
M  V30 3056 H 293.325 -0.666785 -1.44013 0
M  V30 3057 H 293.346 0.828078 -3.7138 0
M  V30 3058 H 292.858 -0.996288 -3.75094 0
M  V30 3059 H 290.959 1.44886 -3.43277 0
M  V30 3060 H 291.072 0.140761 -4.78893 0
M  V30 3061 H 289.436 0.171498 -2.54122 0
M  V30 3062 H 290.219 -1.38922 -3.13935 0
M  V30 3063 N 292.664 1.56529 -0.183458 0
M  V30 3064 C 293.627 2.17324 0.728223 0
M  V30 3065 C 294.627 1.12453 1.14939 0
M  V30 3066 O 295.817 1.37902 1.06437 0
M  V30 3067 C 292.949 2.76591 1.99274 0
M  V30 3068 H 294.142 2.99241 0.198772 0
M  V30 3069 H 291.695 1.5616 0.0661391 0
M  V30 3070 H 292.43 1.98441 2.56499 0
M  V30 3071 H 292.215 3.5335 1.69959 0
M  V30 3072 H 293.705 3.23311 2.6431 0
M  V30 3073 N 294.142 -0.090211 1.57342 0
M  V30 3074 C 295.072 -1.10976 2.05443 0
M  V30 3075 C 296.053 -1.41482 0.944284 0
M  V30 3076 O 297.238 -1.51428 1.21586 0
M  V30 3077 C 294.368 -2.42831 2.48295 0
M  V30 3078 C 293.322 -2.26721 3.63018 0
M  V30 3079 C 292.648 -3.63796 3.91863 0
M  V30 3080 C 293.948 -1.7037 4.93732 0
M  V30 3081 H 295.642 -0.709564 2.9087 0
M  V30 3082 H 293.188 -0.339874 1.39932 0
M  V30 3083 H 295.141 -3.14431 2.80555 0
M  V30 3084 H 293.865 -2.84795 1.59873 0
M  V30 3085 H 292.524 -1.57565 3.31012 0
M  V30 3086 H 292.172 -4.03297 3.00601 0
M  V30 3087 H 291.872 -3.53861 4.69101 0
M  V30 3088 H 293.396 -4.36855 4.26603 0
M  V30 3089 H 294.81 -2.31816 5.24342 0
M  V30 3090 H 293.207 -1.71181 5.75167 0
M  V30 3091 H 294.277 -0.663542 4.80339 0
M  V30 3092 N 295.62 -1.53406 -0.361157 0
M  V30 3093 C 296.868 -1.69467 -1.10115 0
M  V30 3094 C 297.189 -0.451352 -1.89705 0
M  V30 3095 O 296.459 0.534636 -1.88463 0
M  V30 3096 H 295.039 -0.624749 -0.409508 0
M  V30 3097 H 297.701 -1.90609 -0.406699 0
M  V30 3098 H 296.797 -2.55774 -1.78847 0
M  V30 3099 N 297.098 0.621204 -1.44841 0
M  V30 3100 C 298.028 1.74366 -1.55303 0
M  V30 3101 C 299.009 1.65199 -0.405385 0
M  V30 3102 O 300.194 1.83807 -0.626787 0
M  V30 3103 C 297.324 3.12931 -1.50637 0
M  V30 3104 C 296.278 3.36896 -2.63979 0
M  V30 3105 C 295.604 4.75594 -2.44366 0
M  V30 3106 C 296.904 3.28483 -4.06074 0
M  V30 3107 H 298.598 1.65867 -2.49256 0
M  V30 3108 H 296.144 0.796558 -1.19962 0
M  V30 3109 H 298.097 3.9124 -1.56555 0
M  V30 3110 H 296.821 3.22237 -0.532057 0
M  V30 3111 H 295.48 2.60972 -2.57467 0
M  V30 3112 H 295.128 4.81616 -1.45105 0
M  V30 3113 H 294.828 4.92586 -3.20364 0
M  V30 3114 H 296.352 5.5612 -2.52117 0
M  V30 3115 H 297.766 3.96684 -4.13902 0
M  V30 3116 H 296.163 3.57008 -4.82354 0
M  V30 3117 H 297.233 2.26133 -4.28943 0
M  V30 3118 N 298.576 1.31904 0.862503 0
M  V30 3119 C 299.508 1.16005 1.97675 0
M  V30 3120 C 300.521 0.0971234 1.6251 0
M  V30 3121 O 301.71 0.345337 1.75128 0
M  V30 3122 C 298.81 0.751791 3.30456 0
M  V30 3123 C 297.983 1.90133 3.93914 0
M  V30 3124 C 297.042 1.4779 5.05019 0
M  V30 3125 O 296.068 2.18872 5.25437 0
M  V30 3126 N 297.27 0.369491 5.79323 0
M  V30 3127 H 300.035 2.11982 2.11857 0
M  V30 3128 H 297.596 1.24337 1.03691 0
M  V30 3129 H 299.588 0.451084 4.02178 0
M  V30 3130 H 298.158 -0.116593 3.12382 0
M  V30 3131 H 297.378 2.36896 3.15078 0
M  V30 3132 H 298.666 2.67111 4.33047 0
M  V30 3133 H 298.064 -0.222299 5.65263 0
M  V30 3134 H 296.621 0.128354 6.51674 0
M  V30 3135 N 300.054 -1.07777 1.14986 0
M  V30 3136 C 300.986 -2.14769 0.800436 0
M  V30 3137 C 301.999 -1.61739 -0.185595 0
M  V30 3138 O 303.188 -1.78462 0.0370358 0
M  V30 3139 C 300.288 -3.38481 0.168533 0
M  V30 3140 C 299.461 -4.20876 1.1909 0
M  V30 3141 C 298.52 -5.22976 0.581575 0
M  V30 3142 O 297.546 -5.55388 1.24633 0
M  V30 3143 N 298.748 -5.76976 -0.638706 0
M  V30 3144 H 301.513 -2.45348 1.72118 0
M  V30 3145 H 299.074 -1.23645 1.04515 0
M  V30 3146 H 301.066 -4.03916 -0.251764 0
M  V30 3147 H 299.636 -3.05651 -0.655467 0
M  V30 3148 H 298.856 -3.51322 1.78791 0
M  V30 3149 H 300.144 -4.7274 1.88133 0
M  V30 3150 H 299.542 -5.52886 -1.19723 0
M  V30 3151 H 298.099 -6.44061 -1.00142 0
M  V30 3152 N 301.532 -0.945985 -1.26051 0
M  V30 3153 C 302.781 -0.591836 -1.92822 0
M  V30 3154 C 303.094 0.873956 -1.7499 0
M  V30 3155 O 304.3 1.33769 -2.36259 0
M  V30 3156 C 302.756 -1.00776 -3.45503 0
M  V30 3157 C 302.364 -2.4955 -3.7206 0
M  V30 3158 C 304.108 -0.725735 -4.1825 0
M  V30 3159 C 302.015 -2.84988 -5.18205 0
M  V30 3160 H 300.945 -0.217635 -0.721908 0
M  V30 3161 H 303.596 -1.14927 -1.43052 0
M  V30 3162 H 301.978 -0.378812 -3.94184 0
M  V30 3163 H 303.152 -3.1739 -3.34066 0
M  V30 3164 H 301.467 -2.75133 -3.12555 0
M  V30 3165 H 304.064 -0.966771 -5.25887 0
M  V30 3166 H 304.407 0.337639 -4.14929 0
M  V30 3167 H 304.94 -1.31463 -3.7545 0
M  V30 3168 H 301.679 -3.90307 -5.26631 0
M  V30 3169 H 301.199 -2.21813 -5.57278 0
M  V30 3170 H 302.878 -2.73712 -5.86252 0
M  V30 3171 N 303.011 1.40521 -0.713556 0
M  V30 3172 C 304.427 1.54839 -0.386907 0
M  V30 3173 C 304.627 1.68532 1.1045 0
M  V30 3174 O 303.683 1.67377 1.89053 0
M  V30 3175 C 304.996 2.77792 -1.15118 0
M  V30 3176 C 306.544 2.91607 -1.13729 0
M  V30 3177 C 307.019 4.1747 -1.88368 0
M  V30 3178 N 308.51 4.24466 -1.85427 0
M  V30 3179 C 309.245 5.20755 -2.40004 0
M  V30 3180 N 308.741 6.22965 -3.03129 0
M  V30 3181 N 310.534 5.1282 -2.30158 0
M  V30 3182 H 302.685 1.29879 -1.68063 0
M  V30 3183 H 304.948 0.627896 -0.710247 0
M  V30 3184 H 304.654 2.73944 -2.20561 0
M  V30 3185 H 304.528 3.6984 -0.741477 0
M  V30 3186 H 306.915 2.94959 -0.0910608 0
M  V30 3187 H 306.996 2.00682 -1.5862 0
M  V30 3188 H 306.64 4.1488 -2.9298 0
M  V30 3189 H 306.57 5.074 -1.40898 0
M  V30 3190 H 309.061 3.51241 -1.3942 0
M  V30 3191 H 309.374 6.92859 -3.42295 0
M  V30 3192 H 307.719 6.23415 -3.07212 0
M  V30 3193 H 310.91 4.31899 -1.80501 0
M  V30 3194 H 311.083 5.87689 -2.72993 0
M  V30 3195 N 304.489 0.459591 1.5075 0
M  V30 3196 C 305.421 -0.37665 2.26084 0
M  V30 3197 C 306.434 -0.967109 1.30961 0
M  V30 3198 O 307.623 -0.857468 1.56556 0
M  V30 3199 C 304.723 -1.54112 3.01832 0
M  V30 3200 C 303.896 -1.06553 4.24223 0
M  V30 3201 C 302.955 -2.1027 4.82362 0
M  V30 3202 O 301.981 -1.68798 5.43595 0
M  V30 3203 N 303.183 -3.42974 4.68347 0
M  V30 3204 H 305.948 0.269124 2.98489 0
M  V30 3205 H 303.509 0.28972 1.59287 0
M  V30 3206 H 305.501 -2.23165 3.37608 0
M  V30 3207 H 304.071 -2.0918 2.32298 0
M  V30 3208 H 303.291 -0.201274 3.93686 0
M  V30 3209 H 304.579 -0.725516 5.03601 0
M  V30 3210 H 303.977 -3.79385 4.19623 0
M  V30 3211 H 302.534 -4.07858 5.08424 0
M  V30 3212 N 305.967 -1.56429 0.191757 0
M  V30 3213 C 307.197 -2.01574 -0.452928 0
M  V30 3214 C 307.605 -1.07107 -1.55964 0
M  V30 3215 O 306.948 -0.067534 -1.83576 0
M  V30 3216 C 307.01 -3.43121 -1.07278 0
M  V30 3217 C 306.674 -4.56879 -0.105214 0
M  V30 3218 C 307.671 -5.15379 0.684149 0
M  V30 3219 C 305.356 -5.023 0.00489824 0
M  V30 3220 C 307.35 -6.17746 1.57062 0
M  V30 3221 C 305.037 -6.04511 0.894935 0
M  V30 3222 C 306.035 -6.62108 1.67637 0
M  V30 3223 O 305.723 -7.62335 2.55149 0
M  V30 3224 H 305.455 -0.665554 -0.118379 0
M  V30 3225 H 308.009 -2.03245 0.296737 0
M  V30 3226 H 306.239 -3.38425 -1.87097 0
M  V30 3227 H 307.928 -3.72093 -1.62177 0
M  V30 3228 H 308.694 -4.81157 0.609365 0
M  V30 3229 H 304.573 -4.57168 -0.593156 0
M  V30 3230 H 308.117 -6.6263 2.181 0
M  V30 3231 H 304.014 -6.38157 0.970847 0
M  V30 3232 H 304.782 -7.79741 2.48892 0
M  V30 3233 N 307.445 0.0818655 -1.57387 0
M  V30 3234 C 308.67 0.799946 -1.91352 0
M  V30 3235 C 309.095 1.70833 -0.787258 0
M  V30 3236 O 308.453 1.79419 0.26048 0
M  V30 3237 C 308.501 1.57812 -3.24234 0
M  V30 3238 O 307.605 2.68806 -3.12757 0
M  V30 3239 H 306.946 0.21891 -0.626877 0
M  V30 3240 H 309.476 0.0531256 -2.04531 0
M  V30 3241 H 309.486 1.95952 -3.57864 0
M  V30 3242 H 308.161 0.911548 -4.05788 0
M  V30 3243 H 306.738 2.33597 -2.90666 0
M  V30 3244 N 308.923 1.53595 0.353017 0
M  V30 3245 C 309.853 1.83902 1.43883 0
M  V30 3246 C 310.834 0.693421 1.55324 0
M  V30 3247 O 312.019 0.944452 1.69687 0
M  V30 3248 C 309.149 2.04016 2.8106 0
M  V30 3249 C 308.103 3.19814 2.84434 0
M  V30 3250 C 307.429 3.25244 4.24406 0
M  V30 3251 C 308.729 4.58133 2.50822 0
M  V30 3252 H 310.423 2.74835 1.1877 0
M  V30 3253 H 307.969 1.32242 0.569917 0
M  V30 3254 H 309.922 2.238 3.57059 0
M  V30 3255 H 308.646 1.09804 3.07588 0
M  V30 3256 H 307.305 2.9987 2.10887 0
M  V30 3257 H 306.953 2.28646 4.48029 0
M  V30 3258 H 306.653 4.03054 4.27576 0
M  V30 3259 H 308.177 3.47228 5.0226 0
M  V30 3260 H 309.591 4.77995 3.16534 0
M  V30 3261 H 307.988 5.38276 2.6529 0
M  V30 3262 H 309.058 4.62387 1.46034 0
M  V30 3263 N 310.401 -0.613514 1.45168 0
M  V30 3264 C 311.626 -1.40437 1.52618 0
M  V30 3265 C 312.051 -1.87438 0.157707 0
M  V30 3266 O 311.409 -1.59791 -0.856537 0
M  V30 3267 C 311.457 -2.58894 2.51011 0
M  V30 3268 O 310.561 -3.59326 2.02382 0
M  V30 3269 H 309.902 -0.419506 0.514695 0
M  V30 3270 H 312.432 -0.747215 1.90467 0
M  V30 3271 H 312.442 -3.06214 2.69624 0
M  V30 3272 H 311.117 -2.24032 3.50403 0
M  V30 3273 H 309.694 -3.18695 1.93618 0
M  V30 3274 N 311.879 -1.3236 -0.855495 0
M  V30 3275 C 313.156 -1.13491 -1.59309 0
M  V30 3276 C 313.536 0.30503 -2.08885 0
M  V30 3277 O 312.884 1.30151 -1.87811 0
M  V30 3278 C 313.094 -2.16176 -2.73987 0
M  V30 3279 C 314.442 -2.49463 -3.43589 0
M  V30 3280 O 315.466 -2.14715 -2.84211 0
M  V30 3281 O 314.325 -3.09027 -4.50738 0
M  V30 3282 H 311.419 -0.437887 -0.701559 0
M  V30 3283 H 313.965 -1.43887 -0.899696 0
M  V30 3284 H 312.737 -3.1297 -2.34873 0
M  V30 3285 H 312.36 -1.86769 -3.51003 0
M  V30 3286 N 313.357 1.07166 -1.15556 0
M  V30 3287 C 314.29 2.13808 -0.797593 0
M  V30 3288 C 315.268 1.6101 0.226812 0
M  V30 3289 O 316.452 1.88161 0.112932 0
M  V30 3290 C 313.579 3.38187 -0.186371 0
M  V30 3291 C 312.625 4.09766 -1.18297 0
M  V30 3292 S 313.458 4.60932 -2.72584 0
M  V30 3293 C 314.614 5.88583 -2.12886 0
M  V30 3294 H 314.847 2.43843 -1.70083 0
M  V30 3295 H 312.38 1.19467 -0.978106 0
M  V30 3296 H 314.338 4.10189 0.159837 0
M  V30 3297 H 312.999 3.06326 0.694489 0
M  V30 3298 H 312.192 4.99065 -0.703562 0
M  V30 3299 H 311.794 3.43736 -1.47381 0
M  V30 3300 H 314.086 6.60866 -1.49208 0
M  V30 3301 H 315.029 6.41241 -3.0036 0
M  V30 3302 H 315.437 5.42194 -1.57116 0
M  V30 3303 N 314.835 0.952656 1.25548 0
M  V30 3304 C 316.246 0.647392 1.75116 0
M  V30 3305 C 316.597 -0.837274 1.77438 0
M  V30 3306 O 315.722 -1.65525 1.39393 0
M  V30 3307 C 316.317 1.16845 3.18014 0
M  V30 3308 C 314.876 0.913382 3.6515 0
M  V30 3309 C 314.023 1.31265 2.44264 0
M  V30 3310 H 316.974 1.12968 1.11462 0
M  V30 3311 H 316.995 0.527606 3.76824 0
M  V30 3312 H 316.507 2.24902 3.16292 0
M  V30 3313 H 314.608 -0.152316 3.72289 0
M  V30 3314 H 314.721 1.54845 4.53387 0
M  V30 3315 H 313.085 0.731028 2.43984 0
M  V30 3316 H 313.868 2.40239 2.45234 0
M  V30 3317 N 316.313 -1.40141 0.720998 0
M  V30 3318 C 317.261 -2.3252 0.0608547 0
M  V30 3319 C 318.255 -1.52326 -0.741152 0
M  V30 3320 O 319.461 -1.68089 -0.643911 0
M  V30 3321 H 315.836 -0.751999 0.000876664 0
M  V30 3322 H 317.807 -2.8584 0.856614 0
M  V30 3323 C 316.556 -3.37331 -0.842809 0
M  V30 3324 H 315.879 -3.99108 -0.235084 0
M  V30 3325 H 317.319 -4.04452 -1.27257 0
M  V30 3326 C 315.778 -2.73246 -1.97074 0
M  V30 3327 O 316.308 -2.59998 -3.06209 0
M  V30 3328 N 314.514 -2.31547 -1.75597 0
M  V30 3329 H 314.061 -2.42522 -0.868368 0
M  V30 3330 H 314.019 -1.89007 -2.51244 0
M  V30 3331 N 317.792 -0.46758 -1.50504 0
M  V30 3332 C 319.04 0.0884469 -2.01906 0
M  V30 3333 C 319.361 1.40532 -1.35188 0
M  V30 3334 O 318.631 1.89515 -0.496079 0
M  V30 3335 H 317.211 0.0356765 -0.746148 0
M  V30 3336 H 319.873 -0.6172 -1.84869 0
M  V30 3337 H 318.969 0.2425 -3.11156 0
M  V30 3338 N 319.27 1.56325 -0.20005 0
M  V30 3339 C 320.686 1.58839 0.155716 0
M  V30 3340 C 320.886 1.21636 1.60645 0
M  V30 3341 O 319.942 0.941437 2.34293 0
M  V30 3342 C 321.255 3.0032 -0.151124 0
M  V30 3343 C 322.803 3.12866 -0.0916284 0
M  V30 3344 C 323.278 4.56488 -0.371845 0
M  V30 3345 N 324.769 4.62089 -0.320641 0
M  V30 3346 C 325.504 5.71116 -0.511243 0
M  V30 3347 N 325 6.88592 -0.762461 0
M  V30 3348 N 326.793 5.60335 -0.445157 0
M  V30 3349 H 318.944 1.78788 -1.14668 0
M  V30 3350 H 321.207 0.829996 -0.458051 0
M  V30 3351 H 320.913 3.32117 -1.15721 0
M  V30 3352 H 320.787 3.73257 0.543986 0
M  V30 3353 H 323.174 2.80878 0.905065 0
M  V30 3354 H 323.255 2.42304 -0.81989 0
M  V30 3355 H 322.899 4.89189 -1.36588 0
M  V30 3356 H 322.829 5.25246 0.377362 0
M  V30 3357 H 325.32 3.77665 -0.13329 0
M  V30 3358 H 325.633 7.67581 -0.896576 0
M  V30 3359 H 323.978 6.90387 -0.799412 0
M  V30 3360 H 327.169 4.67436 -0.249278 0
M  V30 3361 H 327.342 6.45243 -0.597116 0
M  V30 3362 N 320.748 -0.0735177 1.57428 0
M  V30 3363 C 321.973 -0.789787 1.91774 0
M  V30 3364 C 322.398 -1.70413 0.796306 0
M  V30 3365 O 321.756 -1.79555 -0.250961 0
M  V30 3366 C 321.804 -1.5609 3.25067 0
M  V30 3367 O 320.908 -2.67144 3.14178 0
M  V30 3368 H 320.249 -0.215582 0.628029 0
M  V30 3369 H 322.779 -0.0422781 2.04556 0
M  V30 3370 H 322.789 -1.94052 3.58898 0
M  V30 3371 H 321.464 -0.890015 4.06265 0
M  V30 3372 H 320.041 -2.32052 2.91901 0
M  V30 3373 N 322.226 -1.5378 -0.344866 0
M  V30 3374 C 323.456 -1.74646 -1.10374 0
M  V30 3375 C 323.864 -0.48491 -1.8288 0
M  V30 3376 O 323.207 0.553062 -1.75177 0
M  V30 3377 C 323.269 -2.87145 -2.16306 0
M  V30 3378 C 322.933 -4.26795 -1.63386 0
M  V30 3379 C 323.93 -5.08412 -1.08688 0
M  V30 3380 C 321.615 -4.73276 -1.68272 0
M  V30 3381 C 323.609 -6.34609 -0.595792 0
M  V30 3382 C 321.296 -5.99446 -1.18776 0
M  V30 3383 C 322.294 -6.79946 -0.645215 0
M  V30 3384 O 321.982 -8.03745 -0.157626 0
M  V30 3385 H 321.714 -0.587112 -0.335075 0
M  V30 3386 H 324.268 -2.01403 -0.403252 0
M  V30 3387 H 322.498 -2.55909 -2.89909 0
M  V30 3388 H 324.187 -2.95992 -2.77747 0
M  V30 3389 H 324.953 -4.73666 -1.04236 0
M  V30 3390 H 320.832 -4.10677 -2.09442 0
M  V30 3391 H 324.376 -6.97389 -0.171654 0
M  V30 3392 H 320.273 -6.33687 -1.22928 0
M  V30 3393 H 321.041 -8.18038 -0.275037 0
M  V30 3394 N 323.704 0.605807 -1.45491 0
M  V30 3395 C 325.12 0.926751 -1.29936 0
M  V30 3396 C 325.32 1.99896 -0.253706 0
M  V30 3397 O 324.376 2.50038 0.351737 0
M  V30 3398 C 325.689 1.36599 -2.67883 0
M  V30 3399 C 327.237 1.4801 -2.75793 0
M  V30 3400 C 327.712 1.95309 -4.14268 0
M  V30 3401 N 329.203 2.0254 -4.16571 0
M  V30 3402 C 329.938 2.40363 -5.20589 0
M  V30 3403 N 329.434 2.77143 -6.34952 0
M  V30 3404 N 331.227 2.40718 -5.07948 0
M  V30 3405 H 323.378 -0.102862 -2.12151 0
M  V30 3406 H 325.641 0.016639 -0.947854 0
M  V30 3407 H 325.347 0.652306 -3.45598 0
M  V30 3408 H 325.221 2.33215 -2.96463 0
M  V30 3409 H 327.608 2.1847 -1.98381 0
M  V30 3410 H 327.689 0.497041 -2.50925 0
M  V30 3411 H 327.333 1.25436 -4.92167 0
M  V30 3412 H 327.263 2.94532 -4.3653 0
M  V30 3413 H 329.754 1.76699 -3.34045 0
M  V30 3414 H 330.067 3.0489 -7.10114 0
M  V30 3415 H 328.412 2.74834 -6.3835 0
M  V30 3416 H 331.603 2.11392 -4.1765 0
M  V30 3417 H 331.776 2.69869 -5.89131 0
M  V30 3418 N 325.182 1.32811 0.848464 0
M  V30 3419 C 326.431 1.23075 1.59798 0
M  V30 3420 C 326.744 -0.204419 1.94529 0
M  V30 3421 O 327.95 -0.423701 2.68173 0
M  V30 3422 C 326.406 2.15594 2.88179 0
M  V30 3423 C 326.014 3.64228 2.60849 0
M  V30 3424 C 327.758 2.14709 3.66197 0
M  V30 3425 C 325.665 4.48689 3.85269 0
M  V30 3426 H 324.595 0.457091 0.599653 0
M  V30 3427 H 327.246 1.57813 0.936342 0
M  V30 3428 H 325.628 1.73778 3.55833 0
M  V30 3429 H 326.802 4.14424 2.01467 0
M  V30 3430 H 325.117 3.67306 1.96151 0
M  V30 3431 H 327.714 2.75046 4.58534 0
M  V30 3432 H 328.057 1.13966 4.00397 0
M  V30 3433 H 328.59 2.54837 3.05455 0
M  V30 3434 H 325.329 5.5027 3.56207 0
M  V30 3435 H 324.849 4.03241 4.44024 0
M  V30 3436 H 326.528 4.62006 4.52946 0
M  V30 3437 N 326.66 -1.06551 1.16123 0
M  V30 3438 C 327.885 -1.83544 0.965735 0
M  V30 3439 C 328.31 -1.81843 -0.481102 0
M  V30 3440 O 327.668 -1.21732 -1.34354 0
M  V30 3441 C 327.716 -3.28169 1.49457 0
M  V30 3442 O 326.82 -4.0643 0.699157 0
M  V30 3443 H 326.161 -0.568026 0.343864 0
M  V30 3444 H 328.691 -1.34362 1.54299 0
M  V30 3445 H 328.701 -3.78992 1.51092 0
M  V30 3446 H 327.376 -3.28722 2.54784 0
M  V30 3447 H 325.953 -3.65216 0.7531 0
M  V30 3448 N 328.138 -0.959301 -1.25041 0
M  V30 3449 C 329.384 -0.617525 -1.9317 0
M  V30 3450 C 329.717 0.843981 -1.74902 0
M  V30 3451 O 328.992 1.60615 -1.09696 0
M  V30 3452 C 329.275 -0.982736 -3.46431 0
M  V30 3453 C 329.128 -2.50032 -3.73904 0
M  V30 3454 C 330.447 -0.511176 -4.37121 0
M  V30 3455 H 327.566 -0.22582 -0.701552 0
M  V30 3456 H 330.208 -1.19679 -1.4757 0
M  V30 3457 H 328.358 -0.489806 -3.854 0
M  V30 3458 H 330.03 -3.06737 -3.44544 0
M  V30 3459 H 328.273 -2.93598 -3.19348 0
M  V30 3460 H 328.944 -2.70635 -4.81103 0
M  V30 3461 H 331.42 -0.934075 -4.0548 0
M  V30 3462 H 330.296 -0.795361 -5.43107 0
M  V30 3463 H 330.557 0.588834 -4.38161 0
M  V30 3464 N 329.616 1.39756 -0.72842 0
M  V30 3465 C 330.563 2.30647 -0.0841519 0
M  V30 3466 C 331.533 1.48869 0.7367 0
M  V30 3467 O 332.718 1.77574 0.698015 0
M  V30 3468 C 329.858 3.35165 0.822091 0
M  V30 3469 C 328.971 4.31999 -0.0106663 0
M  V30 3470 C 328.106 5.23585 0.896241 0
M  V30 3471 C 327.145 6.12072 0.0583381 0
M  V30 3472 N 326.282 6.96035 0.920818 0
M  V30 3473 H 331.122 2.85173 -0.864891 0
M  V30 3474 H 328.659 1.40422 -0.438179 0
M  V30 3475 H 330.617 3.94345 1.36189 0
M  V30 3476 H 329.247 2.8211 1.56888 0
M  V30 3477 H 328.299 3.74492 -0.66781 0
M  V30 3478 H 329.611 4.9443 -0.658825 0
M  V30 3479 H 328.765 5.87759 1.50412 0
M  V30 3480 H 327.504 4.61459 1.57819 0
M  V30 3481 H 326.509 5.46916 -0.562389 0
M  V30 3482 H 327.734 6.76261 -0.6203 0
M  V30 3483 H 325.68 6.36485 1.58818 0
M  V30 3484 H 325.597 7.55284 0.32899 0
M  V30 3485 H 326.865 7.64646 1.51447 0
M  V30 3486 N 331.094 0.475555 1.50254 0
M  V30 3487 C 332.51 0.12997 1.5907 0
M  V30 3488 C 332.71 -1.36385 1.48328 0
M  V30 3489 O 331.766 -2.13754 1.34407 0
M  V30 3490 C 333.079 0.684139 2.92814 0
M  V30 3491 C 334.627 0.647965 3.0622 0
M  V30 3492 C 335.102 1.17975 4.42545 0
M  V30 3493 N 336.593 1.13936 4.48969 0
M  V30 3494 C 337.328 1.52129 5.52851 0
M  V30 3495 N 336.824 1.97793 6.63965 0
M  V30 3496 N 338.617 1.43704 5.4342 0
M  V30 3497 H 330.768 1.44706 1.55479 0
M  V30 3498 H 333.031 0.598691 0.735033 0
M  V30 3499 H 332.737 1.73079 3.06164 0
M  V30 3500 H 332.611 0.130204 3.76975 0
M  V30 3501 H 334.998 -0.38979 2.92514 0
M  V30 3502 H 335.079 1.23876 2.23805 0
M  V30 3503 H 334.723 2.21616 4.57 0
M  V30 3504 H 334.653 0.565138 5.23559 0
M  V30 3505 H 337.144 0.804488 3.69238 0
M  V30 3506 H 337.457 2.25072 7.39299 0
M  V30 3507 H 335.802 2.01749 6.65073 0
M  V30 3508 H 338.993 1.07867 4.55502 0
M  V30 3509 H 339.166 1.73794 6.24259 0
M  V30 3510 N 332.573 -1.56217 0.208337 0
M  V30 3511 C 333.483 -2.23316 -0.718836 0
M  V30 3512 C 334.499 -1.23648 -1.22422 0
M  V30 3513 O 335.675 -1.56423 -1.26861 0
M  V30 3514 C 332.74 -2.88968 -1.91568 0
M  V30 3515 C 331.801 -4.03943 -1.45357 0
M  V30 3516 C 331.034 -4.66455 -2.59337 0
M  V30 3517 O 331.257 -4.27919 -3.77149 0
M  V30 3518 O 330.191 -5.55686 -2.31293 0
M  V30 3519 H 334.017 -3.03182 -0.177315 0
M  V30 3520 H 331.602 -1.49384 -0.0215402 0
M  V30 3521 H 333.484 -3.30455 -2.61491 0
M  V30 3522 H 332.159 -2.12071 -2.44556 0
M  V30 3523 H 331.066 -3.67052 -0.722746 0
M  V30 3524 H 332.399 -4.82543 -0.970219 0
M  V30 3525 N 334.051 0.0651679 -1.57465 0
M  V30 3526 C 335.299 0.761555 -1.87202 0
M  V30 3527 C 335.62 1.77778 -0.801243 0
M  V30 3528 O 334.89 1.95166 0.16937 0
M  V30 3529 H 333.47 0.284251 -0.690804 0
M  V30 3530 H 336.132 0.0396827 -1.9486 0
M  V30 3531 H 335.228 1.27365 -2.84929 0
M  V30 3532 N 335.529 1.53961 0.336706 0
M  V30 3533 C 336.777 1.71197 1.07405 0
M  V30 3534 C 337.098 0.481475 1.88962 0
M  V30 3535 O 336.368 -0.504585 1.8929 0
M  V30 3536 H 334.948 0.631185 0.399517 0
M  V30 3537 H 337.61 1.91232 0.376323 0
M  V30 3538 H 336.706 2.58587 1.74755 0
M  V30 3539 N 337.007 -0.598083 1.45811 0
M  V30 3540 C 338.255 -1.35413 1.50026 0
M  V30 3541 C 338.576 -1.94444 0.147177 0
M  V30 3542 O 337.846 -1.77701 -0.824571 0
M  V30 3543 H 336.426 -0.502727 0.552517 0
M  V30 3544 H 339.088 -0.701606 1.81834 0
M  V30 3545 H 338.184 -2.16871 2.2444 0
M  V30 3546 N 338.485 -1.33259 -0.841409 0
M  V30 3547 C 339.896 -1.22066 -1.41269 0
M  V30 3548 C 340.247 0.161479 -1.95534 0
M  V30 3549 O 339.372 1.06094 -1.88608 0
M  V30 3550 C 339.967 -2.20996 -2.568 0
M  V30 3551 C 338.526 -2.13649 -3.09888 0
M  V30 3552 C 337.673 -2.08623 -1.82679 0
M  V30 3553 H 340.624 -1.44895 -0.647395 0
M  V30 3554 H 340.645 -1.81621 -3.34356 0
M  V30 3555 H 340.157 -3.2158 -2.17274 0
M  V30 3556 H 338.258 -1.16359 -3.53965 0
M  V30 3557 H 338.371 -3.04079 -3.70234 0
M  V30 3558 H 336.735 -1.54061 -2.02824 0
M  V30 3559 H 337.518 -3.1101 -1.45353 0
M  V30 3560 N 339.963 1.05934 -1.16686 0
M  V30 3561 C 340.895 2.13468 -0.834503 0
M  V30 3562 C 341.908 1.62013 0.15984 0
M  V30 3563 O 343.097 1.7838 -0.0654228 0
M  V30 3564 C 340.197 3.3817 -0.222361 0
M  V30 3565 C 339.37 4.18928 -1.25771 0
M  V30 3566 C 338.429 5.21985 -0.664703 0
M  V30 3567 O 337.455 5.53334 -1.33453 0
M  V30 3568 N 338.657 5.77919 0.546834 0
M  V30 3569 H 341.422 2.42578 -1.75999 0
M  V30 3570 H 338.983 1.21967 -1.06469 0
M  V30 3571 H 340.975 4.04266 0.187472 0
M  V30 3572 H 339.545 3.06655 0.606758 0
M  V30 3573 H 338.765 3.48433 -1.84358 0
M  V30 3574 H 340.053 4.69687 -1.95631 0
M  V30 3575 H 339.451 5.54721 1.10912 0
M  V30 3576 H 338.008 6.45573 0.898829 0
M  V30 3577 N 341.441 0.965919 1.2453 0
M  V30 3578 C 342.852 0.665929 1.7442 0
M  V30 3579 C 343.203 -0.818407 1.78316 0
M  V30 3580 O 342.328 -1.64037 1.41141 0
M  V30 3581 C 342.923 1.20211 3.16757 0
M  V30 3582 C 341.482 0.952059 3.6416 0
M  V30 3583 C 340.629 1.33848 2.42858 0
M  V30 3584 H 343.58 1.14144 1.10258 0
M  V30 3585 H 343.601 0.567544 3.76244 0
M  V30 3586 H 343.113 2.28244 3.13889 0
M  V30 3587 H 341.214 -0.112821 3.72429 0
M  V30 3588 H 341.327 1.59645 4.51719 0
M  V30 3589 H 339.691 0.756864 2.43195 0
M  V30 3590 H 340.474 2.42827 2.42673 0
M  V30 3591 N 342.919 -1.39368 0.735821 0
M  V30 3592 C 344.33 -1.83313 0.354015 0
M  V30 3593 C 344.681 -1.61461 -1.11466 0
M  V30 3594 O 343.806 -1.10621 -1.85989 0
M  V30 3595 C 344.401 -3.32781 0.635769 0
M  V30 3596 C 342.96 -3.75142 0.307448 0
M  V30 3597 C 342.107 -2.62358 0.897974 0
M  V30 3598 H 345.058 -1.28349 0.933398 0
M  V30 3599 H 345.079 -3.80388 -0.0921773 0
M  V30 3600 H 344.591 -3.48654 1.70476 0
M  V30 3601 H 342.692 -3.64857 -0.755674 0
M  V30 3602 H 342.805 -4.72532 0.790583 0
M  V30 3603 H 341.169 -2.52624 0.324551 0
M  V30 3604 H 341.952 -2.81036 1.97164 0
M  V30 3605 N 344.397 -0.483516 -1.5 0
M  V30 3606 C 345.645 0.067027 -2.01989 0
M  V30 3607 C 345.966 1.3909 -1.36671 0
M  V30 3608 O 345.236 1.88978 -0.516152 0
M  V30 3609 H 343.816 0.0277606 -0.746484 0
M  V30 3610 H 346.478 -0.636773 -1.84204 0
M  V30 3611 H 345.574 0.209484 -3.11396 0
M  V30 3612 N 345.875 1.56104 -0.216619 0
M  V30 3613 C 347.105 2.02269 0.420802 0
M  V30 3614 C 347.513 1.09575 1.5424 0
M  V30 3615 O 346.856 0.0967308 1.83445 0
M  V30 3616 C 346.918 3.44784 1.01806 0
M  V30 3617 C 346.582 4.56988 0.0325154 0
M  V30 3618 C 347.579 5.14225 -0.766055 0
M  V30 3619 C 345.264 5.02228 -0.0848092 0
M  V30 3620 C 347.258 6.15169 -1.6687 0
M  V30 3621 C 344.945 6.03011 -0.990994 0
M  V30 3622 C 345.943 6.59357 -1.78149 0
M  V30 3623 O 345.631 7.58179 -2.67245 0
M  V30 3624 H 345.363 0.667353 0.107776 0
M  V30 3625 H 347.917 2.02747 -0.329034 0
M  V30 3626 H 346.147 3.41359 1.81689 0
M  V30 3627 H 347.836 3.74626 1.56237 0
M  V30 3628 H 348.602 4.80126 -0.685836 0
M  V30 3629 H 344.481 4.58054 0.520349 0
M  V30 3630 H 348.025 6.59076 -2.28615 0
M  V30 3631 H 343.922 6.36532 -1.07225 0
M  V30 3632 H 344.69 7.75682 -2.61265 0
M  V30 3633 N 347.353 -0.0568162 1.57498 0
M  V30 3634 C 348.599 -0.75422 1.88253 0
M  V30 3635 C 348.932 -1.76461 0.810865 0
M  V30 3636 O 348.207 -1.93691 -0.177259 0
M  V30 3637 C 348.49 -1.44878 3.2967 0
M  V30 3638 C 348.343 -0.453789 4.47505 0
M  V30 3639 C 349.662 -2.38994 3.69554 0
M  V30 3640 H 346.781 -0.272724 0.684683 0
M  V30 3641 H 349.423 -0.0172113 1.89992 0
M  V30 3642 H 347.573 -2.077 3.28318 0
M  V30 3643 H 349.245 0.170371 4.60985 0
M  V30 3644 H 347.488 0.229552 4.33192 0
M  V30 3645 H 348.159 -0.977699 5.43273 0
M  V30 3646 H 350.635 -1.86239 3.72095 0
M  V30 3647 H 349.511 -2.84587 4.69363 0
M  V30 3648 H 349.772 -3.24461 3.00296 0
M  V30 3649 N 348.832 -1.54138 -0.328536 0
M  V30 3650 C 350.057 -1.76378 -1.09112 0
M  V30 3651 C 350.482 -0.508596 -1.81094 0
M  V30 3652 O 349.84 0.539598 -1.73084 0
M  V30 3653 C 349.888 -2.95358 -2.06872 0
M  V30 3654 O 348.992 -2.66556 -3.14677 0
M  V30 3655 H 348.333 -0.584614 -0.314838 0
M  V30 3656 H 350.863 -2.01146 -0.374348 0
M  V30 3657 H 350.873 -3.22566 -2.4983 0
M  V30 3658 H 349.548 -3.86385 -1.5388 0
M  V30 3659 H 348.125 -2.50282 -2.7643 0
M  V30 3660 N 350.31 0.590341 -1.46126 0
M  V30 3661 C 351.258 1.72105 -1.5647 0
M  V30 3662 C 352.252 1.63756 -0.433612 0
M  V30 3663 O 353.458 1.69342 -0.610194 0
M  V30 3664 H 349.833 0.568889 -0.491802 0
M  V30 3665 H 351.804 1.6051 -2.51553 0
M  V30 3666 C 350.553 3.10493 -1.56491 0
M  V30 3667 H 349.876 3.17583 -2.4286 0
M  V30 3668 H 351.316 3.8939 -1.67785 0
M  V30 3669 C 349.775 3.3563 -0.292231 0
M  V30 3670 O 350.305 3.96875 0.620739 0
M  V30 3671 N 348.511 2.90026 -0.182523 0
M  V30 3672 H 348.058 2.40367 -0.926356 0
M  V30 3673 H 348.016 3.07218 0.668152 0
M  V30 3674 N 351.788 1.33704 0.83433 0
M  V30 3675 C 352.718 1.26967 1.95963 0
M  V30 3676 C 353.699 0.149337 1.69443 0
M  V30 3677 O 354.884 0.339852 1.91203 0
M  V30 3678 C 352.014 1.01275 3.32206 0
M  V30 3679 C 350.968 2.09652 3.73136 0
M  V30 3680 C 350.294 1.69166 5.07235 0
M  V30 3681 C 351.594 3.51372 3.86439 0
M  V30 3682 H 353.288 2.2112 2.01857 0
M  V30 3683 H 350.834 1.06447 0.969793 0
M  V30 3684 H 352.787 0.952106 4.10503 0
M  V30 3685 H 351.511 0.0356203 3.26581 0
M  V30 3686 H 350.17 2.14766 2.97104 0
M  V30 3687 H 349.818 0.701437 4.98085 0
M  V30 3688 H 349.518 2.41694 5.35591 0
M  V30 3689 H 351.042 1.64576 5.88003 0
M  V30 3690 H 352.456 3.48734 4.55036 0
M  V30 3691 H 350.853 4.22425 4.26236 0
M  V30 3692 H 351.923 3.89546 2.88759 0
M  V30 3693 N 353.266 -1.05314 1.17247 0
M  V30 3694 C 354.196 -2.1498 0.911362 0
M  V30 3695 C 355.177 -1.69471 -0.146169 0
M  V30 3696 O 356.362 -1.942 0.003812 0
M  V30 3697 C 353.492 -3.4472 0.422528 0
M  V30 3698 C 352.446 -4.03789 1.4191 0
M  V30 3699 C 351.772 -5.28858 0.788274 0
M  V30 3700 C 353.072 -4.41418 2.7919 0
M  V30 3701 H 354.766 -2.3708 1.82848 0
M  V30 3702 H 352.312 -1.13938 0.880569 0
M  V30 3703 H 354.265 -4.20787 0.227289 0
M  V30 3704 H 352.989 -3.22269 -0.530123 0
M  V30 3705 H 351.648 -3.2979 1.60106 0
M  V30 3706 H 351.296 -5.02709 -0.171173 0
M  V30 3707 H 350.996 -5.69338 1.45353 0
M  V30 3708 H 352.52 -6.07612 0.603282 0
M  V30 3709 H 353.934 -5.08524 2.64719 0
M  V30 3710 H 352.331 -4.92913 3.42282 0
M  V30 3711 H 353.401 -3.51819 3.33693 0
M  V30 3712 N 354.744 -0.972509 -1.24016 0
M  V30 3713 C 355.694 -0.477561 -2.22942 0
M  V30 3714 C 356.678 0.44308 -1.54679 0
M  V30 3715 O 357.87 0.273219 -1.74879 0
M  V30 3716 C 354.999 0.226348 -3.42553 0
M  V30 3717 C 354.085 -0.713403 -4.18057 0
M  V30 3718 N 354.476 -1.8527 -4.70647 0
M  V30 3719 C 352.774 -0.525145 -4.42898 0
M  V30 3720 C 353.475 -2.44089 -5.28011 0
M  V30 3721 N 352.451 -1.72556 -5.15486 0
M  V30 3722 H 356.253 -1.34678 -2.61226 0
M  V30 3723 H 353.767 -0.832196 -1.39457 0
M  V30 3724 H 355.764 0.598184 -4.12586 0
M  V30 3725 H 354.424 1.09195 -3.05788 0
M  V30 3726 H 355.435 -2.2341 -4.67235 0
M  V30 3727 H 352.112 0.296096 -4.16449 0
M  V30 3728 H 353.502 -3.40259 -5.79374 0
M  V30 3729 N 356.222 1.38976 -0.743202 0
M  V30 3730 C 357.499 1.94351 -0.220705 0
M  V30 3731 C 357.879 1.67935 1.2791 0
M  V30 3732 O 357.227 1.01211 2.04862 0
M  V30 3733 C 357.437 3.44426 -0.563171 0
M  V30 3734 C 358.785 4.2144 -0.517046 0
M  V30 3735 O 359.809 3.52661 -0.500846 0
M  V30 3736 O 358.668 5.44032 -0.518806 0
M  V30 3737 H 355.762 0.825879 -0.043047 0
M  V30 3738 H 358.308 1.48429 -0.822618 0
M  V30 3739 H 357.08 3.5712 -1.59941 0
M  V30 3740 H 356.703 3.97543 0.0672883 0
M  V30 3741 N 357.7 0.491464 1.49741 0
M  V30 3742 C 358.65 -0.311086 2.25868 0
M  V30 3743 C 359.634 -0.943857 1.30308 0
M  V30 3744 O 360.826 -0.853035 1.55088 0
M  V30 3745 C 357.955 -1.38059 3.14316 0
M  V30 3746 C 357.041 -0.754541 4.17334 0
M  V30 3747 N 357.432 0.137216 5.05614 0
M  V30 3748 C 355.73 -1.01621 4.34269 0
M  V30 3749 C 356.431 0.494614 5.79593 0
M  V30 3750 N 355.407 -0.135169 5.43432 0
M  V30 3751 H 359.209 0.37555 2.91491 0
M  V30 3752 H 356.723 0.306917 1.59473 0
M  V30 3753 H 358.72 -1.96891 3.67477 0
M  V30 3754 H 357.38 -2.06901 2.50244 0
M  V30 3755 H 358.391 0.50741 5.15408 0
M  V30 3756 H 355.068 -1.69808 3.81407 0
M  V30 3757 H 356.458 1.2236 6.60665 0
M  V30 3758 N 359.178 -1.55987 0.224894 0
M  V30 3759 C 360.424 -1.98684 -0.406502 0
M  V30 3760 C 360.757 -1.11248 -1.59177 0
M  V30 3761 O 360.032 -0.170909 -1.93748 0
M  V30 3762 C 360.315 -3.50218 -0.837808 0
M  V30 3763 C 360.168 -4.48426 0.351332 0
M  V30 3764 C 361.487 -4.06243 -1.69278 0
M  V30 3765 H 358.606 -0.722337 -0.146283 0
M  V30 3766 H 361.248 -1.87255 0.321799 0
M  V30 3767 H 359.398 -3.60089 -1.45837 0
M  V30 3768 H 361.07 -4.50562 0.989526 0
M  V30 3769 H 359.313 -4.22159 0.998207 0
M  V30 3770 H 359.984 -5.52 0.00655905 0
M  V30 3771 H 362.46 -3.99337 -1.16914 0
M  V30 3772 H 361.336 -5.12581 -1.96346 0
M  V30 3773 H 361.597 -3.53332 -2.65723 0
M  V30 3774 N 360.656 0.0484629 -1.57525 0
M  V30 3775 C 361.604 1.07359 -2.06341 0
M  V30 3776 C 362.598 1.3865 -0.973269 0
M  V30 3777 O 363.804 1.37783 -1.15827 0
M  V30 3778 H 360.179 0.363662 -0.65822 0
M  V30 3779 H 362.15 0.635916 -2.91545 0
M  V30 3780 C 360.899 2.37198 -2.54229 0
M  V30 3781 H 360.222 2.13977 -3.37719 0
M  V30 3782 H 361.662 3.07319 -2.92115 0
M  V30 3783 C 360.121 3.04805 -1.43511 0
M  V30 3784 O 360.651 3.93848 -0.79034 0
M  V30 3785 N 358.857 2.65811 -1.17444 0
M  V30 3786 H 358.404 1.93488 -1.70059 0
M  V30 3787 H 358.362 3.11366 -0.435737 0
M  V30 3788 N 362.134 1.5431 0.320358 0
M  V30 3789 C 363.38 1.72924 1.05949 0
M  V30 3790 C 363.713 0.503185 1.87568 0
M  V30 3791 O 362.988 -0.499839 1.87968 0
M  V30 3792 C 363.271 3.00676 1.98156 0
M  V30 3793 C 363.124 4.3354 1.19845 0
M  V30 3794 C 364.443 3.24198 2.9763 0
M  V30 3795 H 361.562 0.629195 0.383774 0
M  V30 3796 H 364.204 1.87008 0.335854 0
M  V30 3797 H 362.354 2.888 2.59859 0
M  V30 3798 H 364.026 4.57305 0.605773 0
M  V30 3799 H 362.269 4.309 0.500784 0
M  V30 3800 H 362.94 5.19156 1.87567 0
M  V30 3801 H 365.416 3.35557 2.4605 0
M  V30 3802 H 364.292 4.14938 3.59329 0
M  V30 3803 H 364.553 2.41577 3.7026 0
M  V30 3804 N 363.613 -0.582584 1.46437 0
M  V30 3805 C 364.861 -1.33814 1.51453 0
M  V30 3806 C 365.182 -1.94277 0.167792 0
M  V30 3807 O 364.452 -1.78566 -0.805677 0
M  V30 3808 H 363.032 -0.496838 0.557818 0
M  V30 3809 H 365.694 -0.682281 1.82568 0
M  V30 3810 H 364.79 -2.14479 2.26728 0
M  V30 3811 N 365.091 -1.34144 -0.827227 0
M  V30 3812 C 366.368 -1.16844 -1.56865 0
M  V30 3813 C 366.748 0.260654 -2.09485 0
M  V30 3814 O 366.096 1.26138 -1.9053 0
M  V30 3815 C 366.306 -2.21939 -2.6934 0
M  V30 3816 C 367.654 -2.56695 -3.3822 0
M  V30 3817 O 368.678 -2.20695 -2.79593 0
M  V30 3818 O 367.537 -3.18518 -4.44082 0
M  V30 3819 H 364.631 -0.452669 -0.692112 0
M  V30 3820 H 367.177 -1.45763 -0.868973 0
M  V30 3821 H 365.949 -3.17882 -2.28182 0
M  V30 3822 H 365.572 -1.94172 -3.46962 0
M  V30 3823 N 366.569 1.04691 -1.17803 0
M  V30 3824 C 367.501 2.12571 -0.857097 0
M  V30 3825 C 368.514 1.62174 0.142647 0
M  V30 3826 O 369.703 1.78301 -0.0843387 0
M  V30 3827 C 366.803 3.37915 -0.258216 0
M  V30 3828 C 365.976 4.1757 -1.30207 0
M  V30 3829 C 365.035 5.2125 -0.720029 0
M  V30 3830 O 364.061 5.51888 -1.39314 0
M  V30 3831 N 365.263 5.78466 0.485507 0
M  V30 3832 H 368.028 2.40698 -1.78562 0
M  V30 3833 H 365.589 1.20831 -1.07757 0
M  V30 3834 H 367.581 4.04442 0.144584 0
M  V30 3835 H 366.151 3.07281 0.574199 0
M  V30 3836 H 365.371 3.46458 -1.88043 0
M  V30 3837 H 366.659 4.67586 -2.00601 0
M  V30 3838 H 366.057 5.55866 1.05022 0
M  V30 3839 H 364.614 6.4649 0.830307 0
M  V30 3840 N 368.047 0.979072 1.23499 0
M  V30 3841 C 369.293 0.648178 1.92163 0
M  V30 3842 C 369.626 -0.816049 1.76222 0
M  V30 3843 O 368.901 -1.58849 1.12237 0
M  V30 3844 C 369.184 1.03773 3.44824 0
M  V30 3845 C 369.037 2.55948 3.69879 0
M  V30 3846 C 370.356 0.580653 4.36253 0
M  V30 3847 H 367.475 0.236952 0.69787 0
M  V30 3848 H 370.117 1.22012 1.45647 0
M  V30 3849 H 368.267 0.551058 3.84572 0
M  V30 3850 H 369.939 3.12179 3.3962 0
M  V30 3851 H 368.182 2.98641 3.14636 0
M  V30 3852 H 368.853 2.78255 4.76737 0
M  V30 3853 H 371.329 0.998465 4.03943 0
M  V30 3854 H 370.205 0.881663 5.41773 0
M  V30 3855 H 370.466 -0.519052 4.39042 0
M  V30 3856 N 369.525 -1.3858 0.750561 0
M  V30 3857 C 370.472 -2.30483 0.120835 0
M  V30 3858 C 371.442 -1.50022 -0.712923 0
M  V30 3859 O 372.627 -1.78662 -0.669676 0
M  V30 3860 C 369.767 -3.36431 -0.768666 0
M  V30 3861 C 368.88 -4.31927 0.0793922 0
M  V30 3862 C 368.015 -5.24944 -0.81283 0
M  V30 3863 C 367.054 -6.12088 0.0390447 0
M  V30 3864 N 366.191 -6.97412 -0.809969 0
M  V30 3865 H 371.031 -2.83761 0.91015 0
M  V30 3866 H 368.568 -1.39707 0.460463 0
M  V30 3867 H 370.526 -3.96462 -1.29898 0
M  V30 3868 H 369.156 -2.8457 -1.5238 0
M  V30 3869 H 368.208 -3.73382 0.727303 0
M  V30 3870 H 369.52 -4.93319 0.737401 0
M  V30 3871 H 368.674 -5.90078 -1.41042 0
M  V30 3872 H 367.413 -4.63911 -1.50458 0
M  V30 3873 H 366.418 -5.45952 0.649328 0
M  V30 3874 H 367.643 -6.75189 0.727809 0
M  V30 3875 H 365.589 -6.38931 -1.48672 0
M  V30 3876 H 365.506 -7.55712 -0.208789 0
M  V30 3877 H 366.774 -7.66959 -1.39263 0
M  V30 3878 N 371.003 -0.499398 -1.49478 0
M  V30 3879 C 371.933 0.269244 -2.31943 0
M  V30 3880 C 372.914 0.964054 -1.40143 0
M  V30 3881 O 374.099 0.955767 -1.69052 0
M  V30 3882 C 371.229 1.33504 -3.20615 0
M  V30 3883 C 370.183 0.760202 -4.21195 0
M  V30 3884 C 369.509 1.9264 -4.98792 0
M  V30 3885 C 370.809 -0.247661 -5.21712 0
M  V30 3886 H 372.503 -0.419082 -2.96452 0
M  V30 3887 H 370.049 -0.202988 -1.42562 0
M  V30 3888 H 372.002 1.88048 -3.77115 0
M  V30 3889 H 370.726 2.05253 -2.54045 0
M  V30 3890 H 369.385 0.23653 -3.65836 0
M  V30 3891 H 369.033 2.63154 -4.28671 0
M  V30 3892 H 368.733 1.54785 -5.66847 0
M  V30 3893 H 370.257 2.4762 -5.58137 0
M  V30 3894 H 371.671 0.209579 -5.72917 0
M  V30 3895 H 370.068 -0.541962 -5.97648 0
M  V30 3896 H 371.138 -1.16409 -4.7072 0
M  V30 3897 N 372.481 1.55866 -0.233164 0
M  V30 3898 C 373.444 2.1953 0.658715 0
M  V30 3899 C 374.444 1.16053 1.11303 0
M  V30 3900 O 375.634 1.41218 1.01996 0
M  V30 3901 C 372.766 2.82791 1.90373 0
M  V30 3902 H 373.959 2.99721 0.10347 0
M  V30 3903 H 371.512 1.56291 0.0164245 0
M  V30 3904 H 372.247 2.06501 2.50056 0
M  V30 3905 H 372.032 3.58578 1.58632 0
M  V30 3906 H 373.522 3.31556 2.53891 0
M  V30 3907 N 373.959 -0.0401083 1.57549 0
M  V30 3908 C 374.922 -1.02871 2.04817 0
M  V30 3909 C 375.922 -1.29708 0.950388 0
M  V30 3910 O 377.112 -1.24897 1.21435 0
M  V30 3911 C 374.244 -2.36443 2.45576 0
M  V30 3912 H 375.437 -0.620631 2.93408 0
M  V30 3913 H 372.99 -0.286667 1.53649 0
M  V30 3914 H 373.725 -2.82021 1.60108 0
M  V30 3915 H 373.51 -2.18296 3.25713 0
M  V30 3916 H 375 -3.07441 2.82612 0
M  V30 3917 N 375.437 -1.54477 -0.31217 0
M  V30 3918 C 376.848 -1.64344 -0.885891 0
M  V30 3919 C 377.199 -0.54485 -1.88483 0
M  V30 3920 O 376.324 0.320387 -2.14015 0
M  V30 3921 C 376.919 -2.97908 -1.61357 0
M  V30 3922 C 375.478 -3.09933 -2.13585 0
M  V30 3923 C 374.625 -2.59971 -0.964897 0
M  V30 3924 H 377.576 -1.58448 -0.0894528 0
M  V30 3925 H 377.597 -2.88706 -2.47848 0
M  V30 3926 H 377.109 -3.77845 -0.886277 0
M  V30 3927 H 375.21 -2.34694 -2.89395 0
M  V30 3928 H 375.323 -4.15916 -2.37804 0
M  V30 3929 H 373.687 -2.16147 -1.34731 0
M  V30 3930 H 374.47 -3.42376 -0.251742 0
M  V30 3931 N 376.915 0.57481 -1.46744 0
M  V30 3932 C 378.145 1.35659 -1.55821 0
M  V30 3933 C 378.553 1.88129 -0.201036 0
M  V30 3934 O 377.896 1.64723 0.813134 0
M  V30 3935 C 377.958 2.57473 -2.50894 0
M  V30 3936 C 377.622 2.26415 -3.9697 0
M  V30 3937 C 378.619 1.84771 -4.85958 0
M  V30 3938 C 376.304 2.38316 -4.42166 0
M  V30 3939 C 378.298 1.55434 -6.18158 0
M  V30 3940 C 375.985 2.08591 -5.74398 0
M  V30 3941 C 376.983 1.67216 -6.62214 0
M  V30 3942 O 376.671 1.37859 -7.91991 0
M  V30 3943 H 376.403 0.420496 -0.529301 0
M  V30 3944 H 378.957 0.704967 -1.92923 0
M  V30 3945 H 377.187 3.25468 -2.08824 0
M  V30 3946 H 378.876 3.19546 -2.50291 0
M  V30 3947 H 379.642 1.75085 -4.52295 0
M  V30 3948 H 375.521 2.69483 -3.74032 0
M  V30 3949 H 379.065 1.23065 -6.86659 0
M  V30 3950 H 374.962 2.17905 -6.07608 0
M  V30 3951 H 375.73 1.51638 -8.04331 0
M  V30 3952 N 378.394 1.34581 0.820102 0
M  V30 3953 C 379.642 1.26845 1.57336 0
M  V30 3954 C 379.963 -0.160667 1.94337 0
M  V30 3955 O 379.233 -1.09396 1.6251 0
M  V30 3956 H 377.813 0.466514 0.583415 0
M  V30 3957 H 380.475 1.68526 0.979027 0
M  V30 3958 H 379.571 1.87513 2.4949 0
M  V30 3959 N 379.872 -1.04064 1.18357 0
M  V30 3960 C 381.097 -1.81454 1.00445 0
M  V30 3961 C 381.522 -1.82823 -0.442423 0
M  V30 3962 O 380.88 -1.24555 -1.31741 0
M  V30 3963 C 380.928 -3.24925 1.56384 0
M  V30 3964 O 380.032 -4.04856 0.785209 0
M  V30 3965 H 379.373 -0.560604 0.355835 0
M  V30 3966 H 381.903 -1.31059 1.57114 0
M  V30 3967 H 381.913 -3.75702 1.59097 0
M  V30 3968 H 380.588 -3.23244 2.61699 0
M  V30 3969 H 379.165 -3.63537 0.830399 0
M  V30 3970 N 381.35 -0.985608 -1.22978 0
M  V30 3971 C 382.597 -0.657386 -1.91532 0
M  V30 3972 C 382.925 0.809707 -1.76845 0
M  V30 3973 O 382.18 1.60021 -1.12658 0
M  V30 3974 C 382.479 -1.00014 -3.43121 0
M  V30 3975 C 382.145 -2.4583 -3.77993 0
M  V30 3976 C 380.807 -2.85679 -3.87222 0
M  V30 3977 C 383.159 -3.40378 -3.94705 0
M  V30 3978 C 380.487 -4.19081 -4.10595 0
M  V30 3979 C 382.839 -4.73429 -4.1958 0
M  V30 3980 C 381.503 -5.1303 -4.27032 0
M  V30 3981 H 380.773 -0.240555 -0.700867 0
M  V30 3982 H 383.42 -1.24044 -1.45895 0
M  V30 3983 H 381.725 -0.335072 -3.90365 0
M  V30 3984 H 383.422 -0.724322 -3.94404 0
M  V30 3985 H 380.012 -2.13939 -3.71387 0
M  V30 3986 H 384.196 -3.10766 -3.8696 0
M  V30 3987 H 379.452 -4.49362 -4.14589 0
M  V30 3988 H 383.626 -5.46644 -4.31455 0
M  V30 3989 H 381.253 -6.16418 -4.44896 0
M  V30 3990 N 382.828 1.3818 -0.7579 0
M  V30 3991 C 383.778 2.27741 -0.108674 0
M  V30 3992 C 384.762 1.45415 0.688709 0
M  V30 3993 O 385.954 1.68108 0.553956 0
M  V30 3994 C 383.083 3.34313 0.780367 0
M  V30 3995 C 382.169 4.24093 -0.0240977 0
M  V30 3996 N 382.56 4.9451 -1.06271 0
M  V30 3997 C 380.858 4.45542 0.202049 0
M  V30 3998 C 381.559 5.60675 -1.54979 0
M  V30 3999 N 380.535 5.36684 -0.864348 0
M  V30 4000 H 384.337 2.79649 -0.904071 0
M  V30 4001 H 381.851 1.51133 -0.594346 0
M  V30 4002 H 383.848 3.97368 1.26114 0
M  V30 4003 H 382.508 2.83962 1.57467 0
M  V30 4004 H 383.519 4.97345 -1.44459 0
M  V30 4005 H 380.196 4.06091 0.96935 0
M  V30 4006 H 381.586 6.26992 -2.41517 0
M  V30 4007 N 384.306 0.507319 1.49211 0
M  V30 4008 C 385.555 -0.0368315 2.01666 0
M  V30 4009 C 385.868 -1.37459 1.39156 0
M  V30 4010 O 387.074 -2.00579 1.82976 0
M  V30 4011 C 385.53 -0.116089 3.59713 0
M  V30 4012 C 385.138 1.2154 4.31198 0
M  V30 4013 C 386.882 -0.610268 4.2009 0
M  V30 4014 C 384.789 1.09796 5.81119 0
M  V30 4015 H 383.719 -0.0175376 0.753796 0
M  V30 4016 H 386.37 0.647691 1.71689 0
M  V30 4017 H 384.752 -0.8652 3.86433 0
M  V30 4018 H 385.926 1.9783 4.16173 0
M  V30 4019 H 384.241 1.64352 3.82593 0
M  V30 4020 H 386.838 -0.715742 5.29888 0
M  V30 4021 H 387.181 -1.61064 3.8388 0
M  V30 4022 H 387.714 0.0824916 3.97714 0
M  V30 4023 H 384.453 2.0728 6.21864 0
M  V30 4024 H 383.973 0.376058 5.9862 0
M  V30 4025 H 385.652 0.779281 6.4229 0
M  V30 4026 N 385.784 -1.5574 0.241426 0
M  V30 4027 C 387.061 -1.90704 -0.434881 0
M  V30 4028 C 387.441 -1.16145 -1.76277 0
M  V30 4029 O 386.789 -0.277152 -2.26813 0
M  V30 4030 C 386.999 -3.43657 -0.608343 0
M  V30 4031 C 388.347 -4.14806 -0.906725 0
M  V30 4032 O 389.371 -3.49366 -0.694408 0
M  V30 4033 O 388.23 -5.30548 -1.31075 0
M  V30 4034 H 385.324 -0.793592 -0.23268 0
M  V30 4035 H 387.87 -1.67288 0.285086 0
M  V30 4036 H 386.642 -3.89927 0.327505 0
M  V30 4037 H 386.265 -3.72918 -1.37906 0
M  V30 4038 N 387.262 0.0317525 -1.57568 0
M  V30 4039 C 388.508 0.724175 -1.8943 0
M  V30 4040 C 388.841 1.75149 -0.838836 0
M  V30 4041 O 388.116 1.93948 0.146422 0
M  V30 4042 C 388.399 1.39615 -3.31933 0
M  V30 4043 C 388.252 0.382537 -4.4817 0
M  V30 4044 C 389.571 2.33084 -3.73309 0
M  V30 4045 H 386.69 0.261797 -0.688935 0
M  V30 4046 H 389.332 -0.013017 -1.89996 0
M  V30 4047 H 387.482 2.02451 -3.31581 0
M  V30 4048 H 389.154 -0.243689 -4.60656 0
M  V30 4049 H 387.397 -0.29844 -4.32772 0
M  V30 4050 H 388.068 0.891145 -5.44759 0
M  V30 4051 H 390.544 1.80295 -3.7501 0
M  V30 4052 H 389.42 2.77084 -4.73831 0
M  V30 4053 H 389.681 3.19643 -3.05419 0
M  V30 4054 N 388.74 1.54641 0.303973 0
M  V30 4055 C 390.017 1.64455 1.05896 0
M  V30 4056 C 390.397 0.490923 2.05312 0
M  V30 4057 O 389.745 -0.512685 2.22674 0
M  V30 4058 C 389.955 3.02331 1.74347 0
M  V30 4059 C 391.303 3.59045 2.26653 0
M  V30 4060 O 392.327 3.04764 1.84384 0
M  V30 4061 O 391.186 4.54081 3.04093 0
M  V30 4062 H 388.28 0.666729 0.489287 0
M  V30 4063 H 390.826 1.66986 0.302298 0
M  V30 4064 H 389.598 3.77734 1.02142 0
M  V30 4065 H 389.221 3.03565 2.56777 0
M  V30 4066 N 390.218 -0.567019 1.47046 0
M  V30 4067 C 391.181 -1.65696 1.58359 0
M  V30 4068 C 392.181 -1.54097 0.459441 0
M  V30 4069 O 393.371 -1.58432 0.724225 0
M  V30 4070 C 390.503 -3.05197 1.51879 0
M  V30 4071 H 391.696 -1.57019 2.5551 0
M  V30 4072 H 389.249 -0.786148 1.3509 0
M  V30 4073 H 389.984 -3.19417 0.560673 0
M  V30 4074 H 389.769 -3.15025 2.33455 0
M  V30 4075 H 391.259 -3.84511 1.62913 0
M  V30 4076 N 391.696 -1.35014 -0.812953 0
M  V30 4077 C 392.643 -1.27412 -1.92444 0
M  V30 4078 C 393.613 -0.14733 -1.65445 0
M  V30 4079 O 394.798 -0.329974 -1.87925 0
M  V30 4080 C 391.938 -1.04558 -3.28879 0
M  V30 4081 C 391.051 -2.26101 -3.68106 0
M  V30 4082 C 390.186 -1.96449 -4.9354 0
M  V30 4083 C 389.225 -3.14081 -5.25376 0
M  V30 4084 N 388.362 -2.84246 -6.41988 0
M  V30 4085 H 393.202 -2.22463 -1.98278 0
M  V30 4086 H 390.739 -1.10593 -0.969933 0
M  V30 4087 H 392.697 -0.893413 -4.07522 0
M  V30 4088 H 391.327 -0.131719 -3.22531 0
M  V30 4089 H 390.379 -2.52204 -2.84775 0
M  V30 4090 H 391.691 -3.13959 -3.87597 0
M  V30 4091 H 390.845 -1.78026 -5.79993 0
M  V30 4092 H 389.584 -1.05867 -4.76071 0
M  V30 4093 H 388.589 -3.33089 -4.37415 0
M  V30 4094 H 389.814 -4.05455 -5.44778 0
M  V30 4095 H 387.76 -1.96252 -6.25956 0
M  V30 4096 H 387.677 -3.65637 -6.61699 0
M  V30 4097 H 388.945 -2.6935 -7.31485 0
M  V30 4098 N 393.175 1.03435 -1.18907 0
M  V30 4099 C 394.403 1.80381 -1.01342 0
M  V30 4100 C 394.818 1.83649 0.438005 0
M  V30 4101 O 394.175 1.27655 1.30424 0
M  V30 4102 C 394.226 3.25689 -1.56873 0
M  V30 4103 O 393.947 3.22673 -2.96334 0
M  V30 4104 C 395.448 4.19255 -1.44014 0
M  V30 4105 H 392.668 0.56784 -0.35749 0
M  V30 4106 H 395.212 1.30317 -1.576 0
M  V30 4107 H 393.367 3.72962 -1.04777 0
M  V30 4108 H 393.781 4.13748 -3.22355 0
M  V30 4109 H 395.255 5.19123 -1.87657 0
M  V30 4110 H 395.732 4.37467 -0.389815 0
M  V30 4111 H 396.338 3.77851 -1.95214 0
M  V30 4112 N 394.653 0.992116 1.22453 0
M  V30 4113 C 396.064 0.702776 1.72968 0
M  V30 4114 C 396.415 -0.780399 1.80012 0
M  V30 4115 O 395.54 -1.61007 1.44589 0
M  V30 4116 C 396.135 1.26903 3.14135 0
M  V30 4117 C 394.694 1.02909 3.62059 0
M  V30 4118 C 393.841 1.38969 2.39964 0
M  V30 4119 H 396.792 1.16457 1.07812 0
M  V30 4120 H 396.813 0.647223 3.74955 0
M  V30 4121 H 396.325 2.34851 3.08977 0
M  V30 4122 H 394.426 -0.0337979 3.72585 0
M  V30 4123 H 394.539 1.69191 4.48231 0
M  V30 4124 H 392.903 0.808279 2.41535 0
M  V30 4125 H 393.686 2.4792 2.37467 0
M  V30 4126 N 396.131 -1.37776 0.765217 0
M  V30 4127 C 397.38 -1.99092 0.323307 0
M  V30 4128 C 397.693 -1.61434 -1.10446 0
M  V30 4129 O 398.899 -2.15805 -1.64743 0
M  V30 4130 C 397.355 -3.56019 0.527098 0
M  V30 4131 C 396.963 -4.0262 1.96471 0
M  V30 4132 C 398.707 -4.2424 0.148483 0
M  V30 4133 C 396.614 -5.52233 2.11644 0
M  V30 4134 H 395.544 -0.744846 0.117137 0
M  V30 4135 H 398.195 -1.57391 0.943417 0
M  V30 4136 H 396.577 -3.95667 -0.162372 0
M  V30 4137 H 397.751 -3.74234 2.68859 0
M  V30 4138 H 396.066 -3.47161 2.29931 0
M  V30 4139 H 398.663 -5.34159 0.240456 0
M  V30 4140 H 399.006 -4.06446 -0.900422 0
M  V30 4141 H 399.539 -3.89872 0.79025 0
M  V30 4142 H 396.278 -5.74945 3.1483 0
M  V30 4143 H 395.798 -5.82324 1.4373 0
M  V30 4144 H 397.477 -6.18106 1.91193 0
M  V30 4145 N 397.609 -0.515225 -1.4894 0
M  V30 4146 C 398.855 0.0242508 -2.02785 0
M  V30 4147 C 399.188 1.35323 -1.39289 0
M  V30 4148 O 398.463 1.87041 -0.533469 0
M  V30 4149 C 398.746 0.16184 -3.59736 0
M  V30 4150 C 398.599 -1.19127 -4.33738 0
M  V30 4151 C 399.918 0.895719 -4.30888 0
M  V30 4152 H 397.037 0.00733914 -0.736963 0
M  V30 4153 H 399.679 -0.669395 -1.77818 0
M  V30 4154 H 397.829 0.752624 -3.8114 0
M  V30 4155 H 399.501 -1.82202 -4.23792 0
M  V30 4156 H 397.744 -1.77695 -3.95736 0
M  V30 4157 H 398.415 -1.04815 -5.41957 0
M  V30 4158 H 400.891 0.394528 -4.14225 0
M  V30 4159 H 399.767 0.960859 -5.40425 0
M  V30 4160 H 400.028 1.9427 -3.97129 0
M  V30 4161 N 399.087 1.5561 -0.249682 0
M  V30 4162 C 400.017 2.24477 0.642826 0
M  V30 4163 C 400.998 1.22601 1.17911 0
M  V30 4164 O 402.183 1.5126 1.21795 0
M  V30 4165 C 399.313 2.94638 1.83863 0
M  V30 4166 C 398.267 4.03227 1.435 0
M  V30 4167 C 397.593 4.60828 2.71186 0
M  V30 4168 C 398.893 5.18796 0.604002 0
M  V30 4169 H 400.587 2.99321 0.0685625 0
M  V30 4170 H 398.133 1.43965 0.0315363 0
M  V30 4171 H 400.086 3.41517 2.46868 0
M  V30 4172 H 398.81 2.17287 2.43832 0
M  V30 4173 H 397.469 3.57121 0.828275 0
M  V30 4174 H 397.117 3.80174 3.29358 0
M  V30 4175 H 396.817 5.34132 2.44901 0
M  V30 4176 H 398.341 5.10442 3.35084 0
M  V30 4177 H 399.755 5.61883 1.13842 0
M  V30 4178 H 398.152 5.98506 0.437097 0
M  V30 4179 H 399.222 4.83384 -0.383147 0
M  V30 4180 N 400.565 -0.0233959 1.57583 0
M  V30 4181 C 401.814 -0.712133 1.8871 0
M  V30 4182 C 402.127 -1.76217 0.848944 0
M  V30 4183 O 403.333 -2.50389 1.04964 0
M  V30 4184 C 401.789 -1.3177 3.3491 0
M  V30 4185 C 401.397 -0.303715 4.46969 0
M  V30 4186 C 403.141 -1.98598 3.75179 0
M  V30 4187 C 401.048 -0.917945 5.84233 0
M  V30 4188 H 399.978 -0.269735 0.704101 0
M  V30 4189 H 402.629 0.0333114 1.8347 0
M  V30 4190 H 401.011 -2.11304 3.34913 0
M  V30 4191 H 402.185 0.465325 4.58445 0
M  V30 4192 H 400.5 0.2628 4.1557 0
M  V30 4193 H 403.097 -2.45416 4.75053 0
M  V30 4194 H 403.44 -2.80659 3.07468 0
M  V30 4195 H 403.973 -1.25831 3.77374 0
M  V30 4196 H 400.712 -0.136633 6.55358 0
M  V30 4197 H 400.232 -1.65669 5.76467 0
M  V30 4198 H 401.911 -1.4236 6.31144 0
M  V30 4199 N 402.043 -1.548 -0.295768 0
M  V30 4200 C 403.268 -1.78653 -1.05346 0
M  V30 4201 C 403.693 -0.546894 -1.79974 0
M  V30 4202 O 403.051 0.502763 -1.7419 0
M  V30 4203 C 403.099 -2.99679 -2.00561 0
M  V30 4204 O 402.203 -2.7317 -3.08953 0
M  V30 4205 H 401.544 -0.59116 -0.302367 0
M  V30 4206 H 404.074 -2.01895 -0.331598 0
M  V30 4207 H 404.084 -3.27793 -2.42932 0
M  V30 4208 H 402.759 -3.89562 -1.4565 0
M  V30 4209 H 401.336 -2.56089 -2.71059 0
M  V30 4210 N 403.521 0.559213 -1.47345 0
M  V30 4211 C 404.769 1.31388 -1.53563 0
M  V30 4212 C 405.09 1.93985 -0.198678 0
M  V30 4213 O 404.36 1.79825 0.777167 0
M  V30 4214 H 402.94 0.487901 -0.565652 0
M  V30 4215 H 405.602 0.65315 -1.8363 0
M  V30 4216 H 404.698 2.10844 -2.30111 0
M  V30 4217 N 404.999 1.35443 0.805782 0
M  V30 4218 C 406.247 1.28507 1.55982 0
M  V30 4219 C 406.568 -0.140046 1.94496 0
M  V30 4220 O 405.838 -1.07666 1.63661 0
M  V30 4221 H 404.418 0.472676 0.578434 0
M  V30 4222 H 407.08 1.69555 0.961098 0
M  V30 4223 H 406.176 1.90148 2.47488 0
M  V30 4224 N 406.477 -1.02803 1.19454 0
M  V30 4225 C 407.723 -1.76478 0.999171 0
M  V30 4226 C 408.056 -1.88456 -0.468828 0
M  V30 4227 O 407.331 -1.40198 -1.34814 0
M  V30 4228 C 407.614 -3.19044 1.66981 0
M  V30 4229 C 407.467 -3.14932 3.21151 0
M  V30 4230 C 408.786 -4.17456 1.39349 0
M  V30 4231 H 405.905 -0.640614 0.364393 0
M  V30 4232 H 408.547 -1.20005 1.47305 0
M  V30 4233 H 406.697 -3.67263 1.2669 0
M  V30 4234 H 408.369 -2.74605 3.70661 0
M  V30 4235 H 406.612 -2.52625 3.52652 0
M  V30 4236 H 407.283 -4.1566 3.63223 0
M  V30 4237 H 409.759 -3.77842 1.74283 0
M  V30 4238 H 408.635 -5.154 1.88823 0
M  V30 4239 H 408.896 -4.40949 0.318813 0
M  V30 4240 N 407.956 -0.998596 -1.21925 0
M  V30 4241 C 409.204 -0.676325 -1.90448 0
M  V30 4242 C 409.525 0.794719 -1.78071 0
M  V30 4243 O 408.795 1.5701 -1.17152 0
M  V30 4244 H 407.375 -0.247165 -0.704925 0
M  V30 4245 H 410.037 -1.26633 -1.48156 0
M  V30 4246 H 409.133 -0.943858 -2.97486 0
M  V30 4247 N 409.434 1.37368 -0.772513 0
M  V30 4248 C 410.364 2.32856 -0.173304 0
M  V30 4249 C 411.345 1.55818 0.682262 0
M  V30 4250 O 412.53 1.84052 0.619566 0
M  V30 4251 C 409.66 3.40048 0.706007 0
M  V30 4252 C 408.614 4.27973 -0.0483144 0
M  V30 4253 C 407.94 5.26184 0.950491 0
M  V30 4254 C 409.24 5.07665 -1.22776 0
M  V30 4255 H 410.934 2.83217 -0.971002 0
M  V30 4256 H 408.48 1.3617 -0.468377 0
M  V30 4257 H 410.433 4.05827 1.13501 0
M  V30 4258 H 409.157 2.88214 1.53623 0
M  V30 4259 H 407.816 3.63726 -0.458107 0
M  V30 4260 H 407.464 4.7063 1.77529 0
M  V30 4261 H 407.164 5.85872 0.450314 0
M  V30 4262 H 408.688 5.94838 1.37842 0
M  V30 4263 H 410.102 5.66578 -0.875366 0
M  V30 4264 H 408.499 5.76681 -1.66007 0
M  V30 4265 H 409.569 4.40294 -2.03149 0
M  V30 4266 N 410.912 0.523116 1.48665 0
M  V30 4267 C 412.14 -0.0096312 2.06898 0
M  V30 4268 C 412.555 -1.28784 1.38059 0
M  V30 4269 O 411.912 -1.76453 0.465893 0
M  V30 4270 C 411.963 -0.244386 3.60673 0
M  V30 4271 O 411.684 0.983172 4.26925 0
M  V30 4272 C 413.185 -0.818289 4.35682 0
M  V30 4273 H 410.405 0.0304161 0.67031 0
M  V30 4274 H 412.949 0.726799 1.91149 0
M  V30 4275 H 411.104 -0.930847 3.76051 0
M  V30 4276 H 411.518 0.759653 5.1897 0
M  V30 4277 H 412.992 -0.93201 5.44075 0
M  V30 4278 H 413.469 -1.82153 3.99646 0
M  V30 4279 H 414.075 -0.168609 4.24966 0
M  V30 4280 N 412.39 -1.55475 0.257931 0
M  V30 4281 C 413.801 -1.8511 -0.243135 0
M  V30 4282 C 414.152 -1.17986 -1.5676 0
M  V30 4283 O 413.277 -0.462102 -2.11409 0
M  V30 4284 C 413.872 -3.35826 -0.447929 0
M  V30 4285 C 412.431 -3.65647 -0.893245 0
M  V30 4286 C 411.578 -2.7729 0.0232965 0
M  V30 4287 H 414.529 -1.51261 0.480199 0
M  V30 4288 H 414.55 -3.58002 -1.28898 0
M  V30 4289 H 414.062 -3.84652 0.516196 0
M  V30 4290 H 412.163 -3.22308 -1.86945 0
M  V30 4291 H 412.276 -4.73312 -0.742469 0
M  V30 4292 H 410.64 -2.49942 -0.490021 0
M  V30 4293 H 411.423 -3.28926 0.982994 0
M  V30 4294 N 413.868 0.0150385 -1.57593 0
M  V30 4295 C 414.801 1.04475 -2.0288 0
M  V30 4296 C 415.779 1.3436 -0.915764 0
M  V30 4297 O 416.963 1.46779 -1.18271 0
M  V30 4298 C 414.09 2.37608 -2.41371 0
M  V30 4299 C 413.136 2.23487 -3.63257 0
M  V30 4300 S 413.969 1.57505 -5.11813 0
M  V30 4301 C 415.125 2.921 -5.5356 0
M  V30 4302 H 415.358 0.65907 -2.89903 0
M  V30 4303 H 412.891 0.225452 -1.52745 0
M  V30 4304 H 414.849 3.14165 -2.64217 0
M  V30 4305 H 413.51 2.7332 -1.54775 0
M  V30 4306 H 412.703 3.21802 -3.87891 0
M  V30 4307 H 412.305 1.55074 -3.40335 0
M  V30 4308 H 414.597 3.88419 -5.55101 0
M  V30 4309 H 415.54 2.72184 -6.53698 0
M  V30 4310 H 415.948 2.95318 -4.8109 0
M  V30 4311 N 415.346 1.54954 0.287554 0
M  V30 4312 C 416.592 1.75132 1.02257 0
M  V30 4313 C 416.925 0.542858 1.86458 0
M  V30 4314 O 416.2 -0.459856 1.88986 0
M  V30 4315 C 416.483 3.04812 1.91733 0
M  V30 4316 C 416.336 4.35985 1.10622 0
M  V30 4317 C 417.655 3.30438 2.90687 0
M  V30 4318 H 414.774 0.637194 0.370341 0
M  V30 4319 H 417.416 1.87678 0.296111 0
M  V30 4320 H 415.566 2.94247 2.53675 0
M  V30 4321 H 417.238 4.58487 0.508636 0
M  V30 4322 H 415.481 4.31865 0.409271 0
M  V30 4323 H 416.152 5.23017 1.76513 0
M  V30 4324 H 418.628 3.40701 2.38877 0
M  V30 4325 H 417.504 4.22467 3.50447 0
M  V30 4326 H 417.765 2.49377 3.65053 0
M  V30 4327 N 416.824 -0.551391 1.4764 0
M  V30 4328 C 418.049 -1.33837 1.58437 0
M  V30 4329 C 418.474 -1.866 0.237063 0
M  V30 4330 O 417.832 -1.6328 -0.787994 0
M  V30 4331 C 417.88 -2.48014 2.61766 0
M  V30 4332 O 416.984 -3.50419 2.1744 0
M  V30 4333 H 416.325 -0.397299 0.532024 0
M  V30 4334 H 418.855 -0.665759 1.93465 0
M  V30 4335 H 418.865 -2.94503 2.82369 0
M  V30 4336 H 417.54 -2.08969 3.5959 0
M  V30 4337 H 416.117 -3.10196 2.06961 0
M  V30 4338 N 418.302 -1.35869 -0.798587 0
M  V30 4339 C 419.235 -1.23801 -1.91699 0
M  V30 4340 C 420.213 -0.124143 -1.62125 0
M  V30 4341 O 421.397 -0.293656 -1.86199 0
M  V30 4342 C 418.524 -0.908063 -3.263 0
M  V30 4343 C 417.57 -2.0351 -3.74815 0
M  V30 4344 S 418.403 -3.65183 -3.91665 0
M  V30 4345 C 419.559 -3.34283 -5.29156 0
M  V30 4346 H 419.792 -2.18466 -2.01643 0
M  V30 4347 H 417.325 -1.21178 -0.956833 0
M  V30 4348 H 419.283 -0.724506 -4.04056 0
M  V30 4349 H 417.944 0.0206584 -3.14093 0
M  V30 4350 H 417.137 -1.75858 -4.72324 0
M  V30 4351 H 416.739 -2.1774 -3.04081 0
M  V30 4352 H 419.031 -2.87607 -6.13424 0
M  V30 4353 H 419.974 -4.31022 -5.61806 0
M  V30 4354 H 420.382 -2.69854 -4.95822 0
M  V30 4355 N 419.78 1.02168 -1.19998 0
M  V30 4356 C 420.71 2.12488 -0.96804 0
M  V30 4357 C 421.691 1.69799 0.101185 0
M  V30 4358 O 422.876 1.94121 -0.0552993 0
M  V30 4359 C 420.006 3.43479 -0.513776 0
M  V30 4360 C 418.96 3.99884 -1.52566 0
M  V30 4361 C 418.286 5.26582 -0.928214 0
M  V30 4362 C 419.586 4.33861 -2.90795 0
M  V30 4363 H 421.28 2.32149 -1.89069 0
M  V30 4364 H 418.826 1.11564 -0.910468 0
M  V30 4365 H 420.779 4.20036 -0.338774 0
M  V30 4366 H 419.503 3.23561 0.444493 0
M  V30 4367 H 418.162 3.25429 -1.68794 0
M  V30 4368 H 417.81 5.02986 0.0378289 0
M  V30 4369 H 417.51 5.65284 -1.60397 0
M  V30 4370 H 419.034 6.05799 -0.764167 0
M  V30 4371 H 420.448 5.01327 -2.78109 0
M  V30 4372 H 418.845 4.83664 -3.55231 0
M  V30 4373 H 419.915 3.42848 -3.42904 0
M  V30 4374 N 421.258 1.00505 1.21394 0
M  V30 4375 C 422.205 0.565496 2.23765 0
M  V30 4376 C 423.175 -0.408466 1.60999 0
M  V30 4377 O 424.36 -0.310503 1.88257 0
M  V30 4378 C 421.5 -0.101667 3.4495 0
M  V30 4379 C 420.613 0.915479 4.22188 0
M  V30 4380 C 419.748 0.220574 5.30742 0
M  V30 4381 C 418.787 1.22527 5.99711 0
M  V30 4382 N 417.924 0.557831 6.9988 0
M  V30 4383 H 422.764 1.44314 2.60725 0
M  V30 4384 H 420.301 0.722643 1.28126 0
M  V30 4385 H 422.259 -0.505504 4.14126 0
M  V30 4386 H 420.889 -0.94303 3.08718 0
M  V30 4387 H 419.941 1.43756 3.52191 0
M  V30 4388 H 421.253 1.68005 4.69655 0
M  V30 4389 H 420.407 -0.239368 6.06228 0
M  V30 4390 H 419.146 -0.576401 4.84282 0
M  V30 4391 H 418.151 1.69571 5.22997 0
M  V30 4392 H 419.376 2.02332 6.48258 0
M  V30 4393 H 417.322 -0.219486 6.55633 0
M  V30 4394 H 417.239 1.26065 7.45415 0
M  V30 4395 H 418.507 0.121095 7.79406 0
M  V30 4396 N 422.737 -1.36956 0.779787 0
M  V30 4397 C 423.983 -1.99787 0.348281 0
M  V30 4398 C 424.316 -1.61756 -1.07465 0
M  V30 4399 O 423.591 -0.867639 -1.74075 0
M  V30 4400 C 423.874 -3.56597 0.50104 0
M  V30 4401 C 423.727 -4.04513 1.96697 0
M  V30 4402 C 425.046 -4.40008 -0.0898097 0
M  V30 4403 H 422.165 -0.725796 0.128022 0
M  V30 4404 H 424.807 -1.62514 0.984331 0
M  V30 4405 H 422.957 -3.88479 -0.0404347 0
M  V30 4406 H 424.629 -3.83161 2.56876 0
M  V30 4407 H 422.872 -3.56408 2.47297 0
M  V30 4408 H 423.543 -5.1352 2.02486 0
M  V30 4409 H 426.019 -4.14431 0.372293 0
M  V30 4410 H 424.895 -5.4888 0.0471605 0
M  V30 4411 H 425.156 -4.26035 -1.18096 0
M  V30 4412 N 424.215 -0.530993 -1.48385 0
M  V30 4413 C 425.178 0.220497 -2.28137 0
M  V30 4414 C 426.178 0.866851 -1.35434 0
M  V30 4415 O 427.368 0.726746 -1.58316 0
M  V30 4416 C 424.5 1.31921 -3.1434 0
M  V30 4417 H 425.693 -0.479714 -2.96038 0
M  V30 4418 H 423.246 -0.286968 -1.53643 0
M  V30 4419 H 423.981 2.05264 -2.51072 0
M  V30 4420 H 423.766 0.86085 -3.82533 0
M  V30 4421 H 425.256 1.84776 -3.74497 0
M  V30 4422 N 425.693 1.55336 -0.266172 0
M  V30 4423 C 426.623 2.25146 0.618981 0
M  V30 4424 C 427.604 1.23845 1.16604 0
M  V30 4425 O 428.789 1.52544 1.20183 0
M  V30 4426 C 425.919 2.96572 1.80728 0
M  V30 4427 C 424.873 4.04726 1.39215 0
M  V30 4428 C 424.199 4.63678 2.66283 0
M  V30 4429 C 425.499 5.19407 0.548942 0
M  V30 4430 H 427.193 2.99377 0.0368116 0
M  V30 4431 H 424.739 1.43991 0.0162651 0
M  V30 4432 H 426.692 3.44116 2.43232 0
M  V30 4433 H 425.416 2.19861 2.41514 0
M  V30 4434 H 424.075 3.57979 0.790351 0
M  V30 4435 H 423.723 3.83646 3.25308 0
M  V30 4436 H 423.423 5.367 2.39222 0
M  V30 4437 H 424.947 5.13967 3.29651 0
M  V30 4438 H 426.361 5.63059 1.07876 0
M  V30 4439 H 424.758 5.98936 0.373593 0
M  V30 4440 H 425.828 4.8295 -0.434394 0
M  V30 4441 N 427.171 -0.0066808 1.57599 0
M  V30 4442 C 428.103 -1.02827 2.04839 0
M  V30 4443 C 429.116 -1.31108 0.965113 0
M  V30 4444 O 430.305 -1.28202 1.24203 0
M  V30 4445 C 427.405 -2.36464 2.42771 0
M  V30 4446 C 426.578 -2.27219 3.73751 0
M  V30 4447 C 425.637 -3.43489 3.98625 0
M  V30 4448 O 424.663 -3.21976 4.69382 0
M  V30 4449 N 425.865 -4.66116 3.46 0
M  V30 4450 H 428.63 -0.625455 2.93101 0
M  V30 4451 H 426.191 -0.194198 1.60731 0
M  V30 4452 H 428.183 -3.13008 2.56531 0
M  V30 4453 H 426.753 -2.68512 1.60063 0
M  V30 4454 H 425.973 -1.35629 3.70133 0
M  V30 4455 H 427.261 -2.18208 4.59633 0
M  V30 4456 H 426.659 -4.86493 2.88688 0
M  V30 4457 H 425.216 -5.39949 3.65101 0
M  V30 4458 N 428.649 -1.55105 -0.279332 0
M  V30 4459 C 429.612 -1.86783 -1.32834 0
M  V30 4460 C 430.612 -0.74199 -1.42657 0
M  V30 4461 O 431.802 -1.0102 -1.41918 0
M  V30 4462 C 428.934 -2.06746 -2.71052 0
M  V30 4463 H 430.127 -2.8055 -1.05979 0
M  V30 4464 H 427.68 -1.47499 -0.517087 0
M  V30 4465 H 428.415 -1.15339 -3.03097 0
M  V30 4466 H 428.2 -2.88711 -2.65309 0
M  V30 4467 H 429.69 -2.32549 -3.46858 0
M  V30 4468 N 430.127 0.543554 -1.4793 0
M  V30 4469 C 431.538 1.12561 -1.48953 0
M  V30 4470 C 431.889 1.94578 -0.251754 0
M  V30 4471 O 431.014 2.0665 0.642255 0
M  V30 4472 C 431.609 2.04801 -2.69892 0
M  V30 4473 C 430.168 2.58251 -2.73831 0
M  V30 4474 C 429.315 1.34918 -2.42265 0
M  V30 4475 H 432.266 0.32947 -1.55242 0
M  V30 4476 H 432.287 2.88886 -2.47639 0
M  V30 4477 H 431.799 1.4508 -3.59963 0
M  V30 4478 H 429.9 3.21732 -1.87934 0
M  V30 4479 H 430.013 2.98312 -3.74895 0
M  V30 4480 H 428.377 1.66046 -1.93134 0
M  V30 4481 H 429.16 0.769693 -3.3456 0
M  V30 4482 N 431.605 1.3629 0.791371 0
M  V30 4483 C 433.016 1.27225 1.36641 0
M  V30 4484 C 433.367 -0.0887968 1.95999 0
M  V30 4485 O 432.492 -0.990207 1.92416 0
M  V30 4486 C 433.087 2.30375 2.48421 0
M  V30 4487 C 431.646 2.25004 3.01746 0
M  V30 4488 C 430.793 2.15259 1.7481 0
M  V30 4489 H 433.744 1.47198 0.593173 0
M  V30 4490 H 433.765 1.93905 3.27385 0
M  V30 4491 H 433.277 3.29422 2.05189 0
M  V30 4492 H 431.378 1.29417 3.49403 0
M  V30 4493 H 431.491 3.1761 3.58693 0
M  V30 4494 H 429.855 1.61482 1.96966 0
M  V30 4495 H 430.638 3.16191 1.33709 0
M  V30 4496 N 433.083 -1.0153 1.20538 0
M  V30 4497 C 434.499 -1.27461 0.96051 0
M  V30 4498 C 434.699 -1.98273 -0.359193 0
M  V30 4499 O 433.755 -2.27886 -1.0874 0
M  V30 4500 C 435.068 -2.10837 2.14402 0
M  V30 4501 C 436.616 -2.24099 2.18515 0
M  V30 4502 C 437.091 -3.10852 3.36355 0
M  V30 4503 N 438.582 -3.18441 3.36377 0
M  V30 4504 C 439.317 -3.85795 4.24205 0
M  V30 4505 N 438.813 -4.55264 5.22213 0
M  V30 4506 N 440.606 -3.82331 4.12043 0
M  V30 4507 H 432.757 -0.539907 2.05423 0
M  V30 4508 H 435.02 -0.30092 0.898972 0
M  V30 4509 H 434.726 -1.66144 3.09983 0
M  V30 4510 H 434.6 -3.11576 2.12604 0
M  V30 4511 H 436.987 -2.68016 1.23497 0
M  V30 4512 H 437.068 -1.22865 2.24361 0
M  V30 4513 H 436.712 -2.6764 4.31661 0
M  V30 4514 H 436.642 -4.12177 3.27746 0
M  V30 4515 H 439.133 -2.68978 2.65442 0
M  V30 4516 H 439.446 -5.04331 5.85551 0
M  V30 4517 H 437.791 -4.54085 5.26148 0
M  V30 4518 H 440.982 -3.27207 3.34743 0
M  V30 4519 H 441.155 -4.34547 4.807 0
M  V30 4520 N 434.561 -1.01147 -1.20859 0
M  V30 4521 C 435.493 -0.535546 -2.22855 0
M  V30 4522 C 436.506 0.379323 -1.58319 0
M  V30 4523 O 437.695 0.178489 -1.77605 0
M  V30 4524 C 434.795 0.240962 -3.38042 0
M  V30 4525 C 433.968 -0.674562 -4.32167 0
M  V30 4526 C 433.027 0.053467 -5.26173 0
M  V30 4527 O 432.053 -0.567339 -5.66366 0
M  V30 4528 N 433.255 1.32997 -5.65059 0
M  V30 4529 H 436.02 -1.41268 -2.64317 0
M  V30 4530 H 433.581 -0.888386 -1.35349 0
M  V30 4531 H 435.573 0.737115 -3.97931 0
M  V30 4532 H 434.143 1.01935 -2.95513 0
M  V30 4533 H 433.363 -1.35111 -3.70322 0
M  V30 4534 H 434.651 -1.2974 -4.91981 0
M  V30 4535 H 434.049 1.85536 -5.34409 0
M  V30 4536 H 432.606 1.77095 -6.2728 0
M  V30 4537 N 436.039 1.36541 -0.78704 0
M  V30 4538 C 437.285 1.99599 -0.358872 0
M  V30 4539 C 437.618 1.62323 1.06606 0
M  V30 4540 O 436.893 0.876858 1.73613 0
M  V30 4541 C 437.176 3.56327 -0.519944 0
M  V30 4542 C 437.029 4.03464 -1.98839 0
M  V30 4543 C 438.348 4.4005 0.0664737 0
M  V30 4544 H 435.467 0.725107 -0.131869 0
M  V30 4545 H 438.109 1.6199 -0.992936 0
M  V30 4546 H 436.259 3.88495 0.0198321 0
M  V30 4547 H 437.931 3.81793 -2.58905 0
M  V30 4548 H 436.174 3.55092 -2.49183 0
M  V30 4549 H 436.845 5.12439 -2.05207 0
M  V30 4550 H 439.321 4.14228 -0.394267 0
M  V30 4551 H 438.197 5.48847 -0.0762682 0
M  V30 4552 H 438.458 4.26655 1.15835 0
M  V30 4553 N 437.518 0.538854 1.48102 0
M  V30 4554 C 438.764 0.00801365 2.02798 0
M  V30 4555 C 439.097 -1.3309 1.41424 0
M  V30 4556 O 438.372 -1.86169 0.563158 0
M  V30 4557 C 438.655 -0.104589 3.59948 0
M  V30 4558 C 438.508 1.26012 4.31788 0
M  V30 4559 C 439.827 -0.827055 4.32259 0
M  V30 4560 H 436.946 0.00438624 0.736987 0
M  V30 4561 H 439.588 0.6976 1.7673 0
M  V30 4562 H 437.738 -0.691893 3.82289 0
M  V30 4563 H 439.41 1.88922 4.2084 0
M  V30 4564 H 437.653 1.83968 3.92859 0
M  V30 4565 H 438.324 1.13424 5.40221 0
M  V30 4566 H 440.8 -0.328578 4.14801 0
M  V30 4567 H 439.676 -0.87476 5.41885 0
M  V30 4568 H 439.937 -1.87927 4.0017 0
M  V30 4569 N 438.996 -1.55193 0.274407 0
M  V30 4570 C 440.243 -1.99581 -0.342579 0
M  V30 4571 C 440.571 -1.1628 -1.55914 0
M  V30 4572 O 439.826 -0.22029 -1.94456 0
M  V30 4573 C 440.125 -3.49019 -0.769458 0
M  V30 4574 C 439.791 -4.49598 0.342389 0
M  V30 4575 C 438.453 -4.76821 0.647686 0
M  V30 4576 C 440.805 -5.0964 1.09163 0
M  V30 4577 C 438.133 -5.61354 1.70581 0
M  V30 4578 C 440.485 -5.95323 2.13948 0
M  V30 4579 C 439.149 -6.20867 2.45113 0
M  V30 4580 H 438.419 -0.730319 -0.125358 0
M  V30 4581 H 441.066 -1.87529 0.387971 0
M  V30 4582 H 439.371 -3.58544 -1.57967 0
M  V30 4583 H 441.068 -3.8077 -1.25757 0
M  V30 4584 H 437.658 -4.28496 0.094318 0
M  V30 4585 H 441.842 -4.88632 0.869024 0
M  V30 4586 H 437.098 -5.79392 1.9523 0
M  V30 4587 H 441.272 -6.40881 2.72478 0
M  V30 4588 H 438.899 -6.86162 3.27239 0
M  V30 4589 N 440.474 -0.00167713 -1.576 0
M  V30 4590 C 441.72 0.683832 -1.90923 0
M  V30 4591 C 442.053 1.7333 -0.875799 0
M  V30 4592 O 441.328 1.94215 0.10525 0
M  V30 4593 C 441.611 1.32543 -3.3482 0
M  V30 4594 C 441.464 0.287387 -4.48881 0
M  V30 4595 C 442.783 2.25114 -3.78169 0
M  V30 4596 H 439.902 0.247125 -0.694333 0
M  V30 4597 H 442.544 -0.0533149 -1.89925 0
M  V30 4598 H 440.694 1.95372 -3.35801 0
M  V30 4599 H 442.366 -0.341346 -4.60035 0
M  V30 4600 H 440.609 -0.39017 -4.32042 0
M  V30 4601 H 441.28 0.775393 -5.46527 0
M  V30 4602 H 443.756 1.723 -3.7875 0
M  V30 4603 H 442.632 2.66971 -4.79602 0
M  V30 4604 H 442.893 3.13092 -3.12131 0
M  V30 4605 N 441.952 1.55251 0.271103 0
M  V30 4606 C 442.902 1.84649 1.33749 0
M  V30 4607 C 443.886 0.705529 1.44607 0
M  V30 4608 O 445.078 0.966916 1.48256 0
M  V30 4609 C 442.207 2.12354 2.69742 0
M  V30 4610 C 441.293 3.32714 2.62988 0
M  V30 4611 N 441.684 4.52575 2.25853 0
M  V30 4612 C 439.982 3.35341 2.94045 0
M  V30 4613 C 440.683 5.34669 2.29136 0
M  V30 4614 N 439.659 4.73123 2.67685 0
M  V30 4615 H 443.461 2.74865 1.0405 0
M  V30 4616 H 440.975 1.55152 0.479738 0
M  V30 4617 H 442.972 2.31572 3.4667 0
M  V30 4618 H 441.632 1.23422 3.00328 0
M  V30 4619 H 442.643 4.78639 1.978 0
M  V30 4620 H 439.32 2.56608 3.2933 0
M  V30 4621 H 440.71 6.40509 2.02971 0
M  V30 4622 N 443.43 -0.535701 1.48216 0
M  V30 4623 C 444.678 -1.28928 1.55634 0
M  V30 4624 C 444.999 -1.93645 0.229514 0
M  V30 4625 O 444.269 -1.81038 -0.74846 0
M  V30 4626 H 442.849 -0.47884 0.573342 0
M  V30 4627 H 445.511 -0.623853 1.84646 0
M  V30 4628 H 444.607 -2.07157 2.33436 0
M  V30 4629 N 444.908 -1.36708 -0.784132 0
M  V30 4630 C 445.871 -1.31307 -1.87859 0
M  V30 4631 C 446.871 -0.219654 -1.59293 0
M  V30 4632 O 448.061 -0.47476 -1.67606 0
M  V30 4633 C 445.193 -1.03679 -3.24751 0
M  V30 4634 H 446.386 -2.28647 -1.94064 0
M  V30 4635 H 443.939 -1.21558 -0.98252 0
M  V30 4636 H 444.674 -0.0681936 -3.24228 0
M  V30 4637 H 444.459 -1.82811 -3.46876 0
M  V30 4638 H 445.949 -1.02518 -4.04821 0
M  V30 4639 N 446.386 1.0089 -1.21074 0
M  V30 4640 C 447.802 1.2695 -0.967257 0
M  V30 4641 C 448.002 1.9846 0.348673 0
M  V30 4642 O 447.058 2.28459 1.0753 0
M  V30 4643 C 448.371 2.09697 -2.15517 0
M  V30 4644 C 449.919 2.22937 -2.197 0
M  V30 4645 C 450.394 3.09064 -3.37999 0
M  V30 4646 N 451.885 3.16653 -3.38061 0
M  V30 4647 C 452.62 3.8354 -4.26245 0
M  V30 4648 N 452.116 4.52488 -5.2462 0
M  V30 4649 N 453.909 3.80141 -4.14064 0
M  V30 4650 H 446.06 0.529005 -2.05707 0
M  V30 4651 H 448.323 0.296148 -0.900556 0
M  V30 4652 H 448.029 1.64497 -3.10859 0
M  V30 4653 H 447.903 3.10444 -2.14253 0
M  V30 4654 H 450.29 2.67357 -1.24916 0
M  V30 4655 H 450.371 1.21673 -2.2501 0
M  V30 4656 H 450.015 2.65347 -4.33074 0
M  V30 4657 H 449.945 4.10433 -3.29928 0
M  V30 4658 H 452.436 2.67566 -2.66865 0
M  V30 4659 H 452.749 5.01219 -5.88217 0
M  V30 4660 H 451.094 4.51288 -5.28549 0
M  V30 4661 H 454.285 3.25427 -3.36474 0
M  V30 4662 H 454.458 4.31992 -4.82998 0
M  V30 4663 N 447.864 1.01787 1.20321 0
M  V30 4664 C 448.812 0.58254 2.25187 0
M  V30 4665 C 449.806 -0.379359 1.65098 0
M  V30 4666 O 451.012 -0.249142 1.78267 0
M  V30 4667 H 447.387 0.170078 0.732514 0
M  V30 4668 H 449.358 1.47788 2.59232 0
M  V30 4669 C 448.107 -0.0620885 3.47645 0
M  V30 4670 H 447.43 0.669069 3.94162 0
M  V30 4671 H 448.87 -0.329784 4.22716 0
M  V30 4672 C 447.329 -1.3053 3.10586 0
M  V30 4673 O 447.859 -2.39848 3.22236 0
M  V30 4674 N 446.065 -1.18988 2.65123 0
M  V30 4675 H 445.612 -0.300341 2.55843 0
M  V30 4676 H 445.57 -2.02267 2.40698 0
M  V30 4677 N 449.342 -1.36122 0.79427 0
M  V30 4678 C 450.567 -2.03891 0.379871 0
M  V30 4679 C 450.992 -1.59488 -0.997251 0
M  V30 4680 O 450.35 -0.765652 -1.64339 0
M  V30 4681 C 450.398 -3.57687 0.457442 0
M  V30 4682 O 449.502 -4.08931 -0.5338 0
M  V30 4683 H 448.843 -0.6443 0.160541 0
M  V30 4684 H 451.373 -1.73976 1.07673 0
M  V30 4685 H 451.383 -4.06721 0.322792 0
M  V30 4686 H 450.058 -3.89357 1.46199 0
M  V30 4687 H 448.635 -3.71154 -0.360409 0
M  V30 4688 N 450.82 -0.546701 -1.47814 0
M  V30 4689 C 451.783 0.196287 -2.28358 0
M  V30 4690 C 452.783 0.852437 -1.36346 0
M  V30 4691 O 453.973 0.709913 -1.59078 0
M  V30 4692 C 451.105 1.28579 -3.15722 0
M  V30 4693 H 452.298 -0.511086 -2.95513 0
M  V30 4694 H 449.851 -0.303248 -1.5333 0
M  V30 4695 H 450.586 2.0259 -2.53235 0
M  V30 4696 H 450.371 0.820229 -3.83425 0
M  V30 4697 H 451.861 1.80793 -3.76435 0
M  V30 4698 N 452.299 1.55045 -0.282633 0
M  V30 4699 C 453.545 2.00056 0.332481 0
M  V30 4700 C 453.878 1.1708 1.54939 0
M  V30 4701 O 453.153 0.2427 1.9298 0
M  V30 4702 C 453.436 3.53086 0.70725 0
M  V30 4703 C 453.289 4.46813 -0.517521 0
M  V30 4704 C 454.608 4.12245 1.54084 0
M  V30 4705 H 451.727 0.727268 0.119373 0
M  V30 4706 H 454.369 1.85932 -0.391076 0
M  V30 4707 H 452.519 3.65253 1.32372 0
M  V30 4708 H 454.191 4.46579 -1.15607 0
M  V30 4709 H 452.434 4.18163 -1.1542 0
M  V30 4710 H 453.105 5.51595 -0.211426 0
M  V30 4711 H 455.581 4.03401 1.02013 0
M  V30 4712 H 454.457 5.19515 1.77186 0
M  V30 4713 H 454.718 3.62951 2.52427 0
M  V30 4714 N 453.777 0.010035 1.57597 0
M  V30 4715 C 454.727 -0.986858 2.05536 0
M  V30 4716 C 455.711 -1.29711 0.952042 0
M  V30 4717 O 456.903 -1.28641 1.21575 0
M  V30 4718 C 454.032 -2.2756 2.57043 0
M  V30 4719 C 453.118 -1.99455 3.74271 0
M  V30 4720 N 453.509 -1.41546 4.85591 0
M  V30 4721 C 451.807 -2.29547 3.82393 0
M  V30 4722 C 452.508 -1.3014 5.66956 0
M  V30 4723 N 451.484 -1.79044 5.13268 0
M  V30 4724 H 455.286 -0.533778 2.89012 0
M  V30 4725 H 452.8 -0.195432 1.6122 0
M  V30 4726 H 454.797 -2.99829 2.89669 0
M  V30 4727 H 453.457 -2.73512 1.7499 0
M  V30 4728 H 454.468 -1.09294 5.06236 0
M  V30 4729 H 451.145 -2.78304 3.11213 0
M  V30 4730 H 452.535 -0.855237 6.66435 0
M  V30 4731 N 455.255 -1.55392 -0.262866 0
M  V30 4732 C 456.218 -1.88181 -1.30846 0
M  V30 4733 C 457.218 -0.757079 -1.41862 0
M  V30 4734 O 458.408 -1.02519 -1.40838 0
M  V30 4735 C 455.54 -2.09609 -2.68844 0
M  V30 4736 H 456.733 -2.81659 -1.02997 0
M  V30 4737 H 454.286 -1.48039 -0.501414 0
M  V30 4738 H 455.021 -1.18547 -3.01856 0
M  V30 4739 H 454.806 -2.91508 -2.62231 0
M  V30 4740 H 456.296 -2.36215 -3.44372 0
M  V30 4741 N 456.733 0.527833 -1.48498 0
M  V30 4742 C 457.666 1.64892 -1.57753 0
M  V30 4743 C 458.644 1.5687 -0.427867 0
M  V30 4744 O 459.828 1.77311 -0.639764 0
M  V30 4745 C 456.955 3.03301 -1.50752 0
M  V30 4746 C 456.001 3.29675 -2.70586 0
M  V30 4747 S 456.834 3.15712 -4.32535 0
M  V30 4748 C 457.99 4.56564 -4.28136 0
M  V30 4749 H 458.223 1.56792 -2.52594 0
M  V30 4750 H 455.756 0.710959 -1.37057 0
M  V30 4751 H 457.714 3.83123 -1.474 0
M  V30 4752 H 456.375 3.08839 -0.572454 0
M  V30 4753 H 455.568 4.3065 -2.61833 0
M  V30 4754 H 455.17 2.57526 -2.71212 0
M  V30 4755 H 457.462 5.48126 -3.98201 0
M  V30 4756 H 458.405 4.70371 -5.29298 0
M  V30 4757 H 458.813 4.35987 -3.58574 0
M  V30 4758 N 458.211 1.37122 0.776871 0
M  V30 4759 C 459.627 1.1781 1.07671 0
M  V30 4760 C 459.827 0.0107454 2.01497 0
M  V30 4761 O 458.883 -0.650756 2.4397 0
M  V30 4762 C 460.196 2.49451 1.67913 0
M  V30 4763 C 461.744 2.55927 1.80195 0
M  V30 4764 C 462.219 3.87686 2.43851 0
M  V30 4765 N 463.71 3.891 2.51307 0
M  V30 4766 C 464.445 4.87797 3.014 0
M  V30 4767 N 463.941 5.96888 3.51705 0
M  V30 4768 N 465.734 4.75205 3.00227 0
M  V30 4769 H 457.885 2.11843 0.153778 0
M  V30 4770 H 460.148 0.938927 0.130844 0
M  V30 4771 H 459.854 3.35207 1.06439 0
M  V30 4772 H 459.728 2.66169 2.67271 0
M  V30 4773 H 462.115 1.70582 2.40803 0
M  V30 4774 H 462.196 2.43097 0.796069 0
M  V30 4775 H 461.84 4.73444 1.83884 0
M  V30 4776 H 461.77 3.97817 3.45035 0
M  V30 4777 H 464.261 3.10293 2.157 0
M  V30 4778 H 464.574 6.68155 3.88316 0
M  V30 4779 H 462.919 6.0054 3.49824 0
M  V30 4780 H 466.11 3.89103 2.60224 0
M  V30 4781 H 466.283 5.52279 3.38957 0
M  V30 4782 N 459.689 -1.00246 1.21608 0
M  V30 4783 C 460.966 -1.71336 0.943568 0
M  V30 4784 C 461.346 -2.03972 -0.543943 0
M  V30 4785 O 460.694 -1.71545 -1.50946 0
M  V30 4786 C 460.904 -2.97094 1.83128 0
M  V30 4787 C 462.252 -3.70071 2.08165 0
M  V30 4788 O 463.276 -3.07081 1.80498 0
M  V30 4789 O 462.135 -4.83376 2.54971 0
M  V30 4790 H 459.229 -0.747386 0.354039 0
M  V30 4791 H 461.775 -1.05967 1.32549 0
M  V30 4792 H 460.547 -2.69407 2.83788 0
M  V30 4793 H 460.17 -3.70204 1.45034 0
M  V30 4794 N 461.167 -1.02423 -1.1978 0
M  V30 4795 C 462.583 -0.740459 -1.41384 0
M  V30 4796 C 462.783 0.676827 -1.89793 0
M  V30 4797 O 461.839 1.4435 -2.0717 0
M  V30 4798 C 463.152 -1.77264 -2.42895 0
M  V30 4799 C 464.7 -1.79165 -2.56649 0
M  V30 4800 C 465.175 -2.8133 -3.6141 0
M  V30 4801 N 466.666 -2.80118 -3.68901 0
M  V30 4802 C 467.401 -3.55824 -4.49641 0
M  V30 4803 N 466.897 -4.41231 -5.34123 0
M  V30 4804 N 468.69 -3.44387 -4.44246 0
M  V30 4805 H 460.841 -1.9391 -0.866764 0
M  V30 4806 H 463.104 -0.838074 -0.443098 0
M  V30 4807 H 462.81 -2.7884 -2.14339 0
M  V30 4808 H 462.684 -1.59108 -3.42001 0
M  V30 4809 H 465.071 -0.782702 -2.84531 0
M  V30 4810 H 465.152 -2.01396 -1.57713 0
M  V30 4811 H 464.796 -3.82394 -3.34271 0
M  V30 4812 H 464.726 -2.56359 -4.59986 0
M  V30 4813 H 467.217 -2.1817 -3.08562 0
M  V30 4814 H 467.53 -4.95747 -5.92836 0
M  V30 4815 H 465.875 -4.45306 -5.33599 0
M  V30 4816 H 469.066 -2.7708 -3.77285 0
M  V30 4817 H 469.239 -4.0364 -5.06931 0
M  V30 4818 N 462.645 1.35699 -0.801477 0
M  V30 4819 C 463.575 2.32436 -0.222658 0
M  V30 4820 C 464.556 1.5723 0.649057 0
M  V30 4821 O 465.741 1.85324 0.580387 0
M  V30 4822 C 462.871 3.41469 0.633719 0
M  V30 4823 C 461.825 4.27774 -0.139083 0
M  V30 4824 C 461.151 5.28082 0.838666 0
M  V30 4825 C 462.451 5.04946 -1.33517 0
M  V30 4826 H 464.145 2.81094 -1.03086 0
M  V30 4827 H 461.691 1.35146 -0.497155 0
M  V30 4828 H 463.644 4.08143 1.04868 0
M  V30 4829 H 462.368 2.91408 1.47475 0
M  V30 4830 H 461.027 3.62673 -0.535156 0
M  V30 4831 H 460.675 4.7429 1.67506 0
M  V30 4832 H 460.375 5.86695 0.32594 0
M  V30 4833 H 461.899 5.97628 1.25194 0
M  V30 4834 H 463.313 5.64593 -0.995349 0
M  V30 4835 H 461.71 5.7303 -1.78202 0
M  V30 4836 H 462.78 4.35886 -2.12442 0
M  V30 4837 N 464.123 0.554532 1.47522 0
M  V30 4838 C 465.539 0.214107 1.58157 0
M  V30 4839 C 465.739 -1.28331 1.55349 0
M  V30 4840 O 464.795 -2.06329 1.45549 0
M  V30 4841 C 466.108 0.838391 2.88776 0
M  V30 4842 C 467.656 0.809374 3.02354 0
M  V30 4843 C 468.131 1.41268 4.35669 0
M  V30 4844 N 469.622 1.37574 4.42298 0
M  V30 4845 C 470.357 1.8122 5.4401 0
M  V30 4846 N 469.853 2.3271 6.52547 0
M  V30 4847 N 471.646 1.72307 5.35039 0
M  V30 4848 H 463.797 1.52744 1.4759 0
M  V30 4849 H 466.06 0.636812 0.702264 0
M  V30 4850 H 465.766 1.89065 2.96559 0
M  V30 4851 H 465.64 0.329847 3.75755 0
M  V30 4852 H 468.027 -0.234187 2.94169 0
M  V30 4853 H 468.108 1.35565 2.16924 0
M  V30 4854 H 467.752 2.45529 4.4461 0
M  V30 4855 H 467.682 0.841871 5.19827 0
M  V30 4856 H 470.173 0.999081 3.64454 0
M  V30 4857 H 470.486 2.63944 7.26329 0
M  V30 4858 H 468.831 2.36719 6.53444 0
M  V30 4859 H 472.022 1.3186 4.49144 0
M  V30 4860 H 472.195 2.06641 6.14169 0
M  V30 4861 N 465.601 -1.54893 0.290851 0
M  V30 4862 C 466.511 -2.26812 -0.59945 0
M  V30 4863 C 467.527 -1.29963 -1.15696 0
M  V30 4864 O 468.703 -1.62928 -1.18391 0
M  V30 4865 C 465.768 -2.98716 -1.75982 0
M  V30 4866 C 464.829 -4.1108 -1.2374 0
M  V30 4867 C 464.062 -4.79546 -2.34246 0
M  V30 4868 O 464.285 -4.47309 -3.53936 0
M  V30 4869 O 463.219 -5.67165 -2.01512 0
M  V30 4870 H 467.045 -3.03696 -0.0163561 0
M  V30 4871 H 464.63 -1.49289 0.0576755 0
M  V30 4872 H 466.512 -3.43851 -2.43607 0
M  V30 4873 H 465.187 -2.24737 -2.3297 0
M  V30 4874 H 464.094 -3.70367 -0.527163 0
M  V30 4875 H 465.427 -4.87007 -0.71307 0
M  V30 4876 N 467.08 -0.0183926 -1.57589 0
M  V30 4877 C 468.043 0.951986 -2.08494 0
M  V30 4878 C 469.043 1.26092 -0.997874 0
M  V30 4879 O 470.233 1.20304 -1.25987 0
M  V30 4880 C 467.365 2.27165 -2.54182 0
M  V30 4881 H 468.558 0.511307 -2.95509 0
M  V30 4882 H 466.111 0.229444 -1.54607 0
M  V30 4883 H 466.846 2.75884 -1.70465 0
M  V30 4884 H 466.631 2.06057 -3.33591 0
M  V30 4885 H 468.121 2.9674 -2.93828 0
M  V30 4886 N 468.558 1.5553 0.254621 0
M  V30 4887 C 469.521 1.88872 1.29846 0
M  V30 4888 C 470.521 0.764591 1.41459 0
M  V30 4889 O 471.711 1.03265 1.40293 0
M  V30 4890 C 468.843 2.11032 2.67728 0
M  V30 4891 H 470.036 2.82201 1.01502 0
M  V30 4892 H 467.589 1.48303 0.493556 0
M  V30 4893 H 468.324 1.20146 3.01223 0
M  V30 4894 H 468.109 2.92895 2.60682 0
M  V30 4895 H 469.599 2.38038 3.43115 0
M  V30 4896 N 470.036 -0.519951 1.48776 0
M  V30 4897 C 470.983 -1.62352 1.64044 0
M  V30 4898 C 471.953 -1.58945 0.482251 0
M  V30 4899 O 473.138 -1.77219 0.706971 0
M  V30 4900 C 470.278 -3.00579 1.69547 0
M  V30 4901 C 469.391 -3.14145 2.96541 0
M  V30 4902 C 468.526 -4.42991 2.93142 0
M  V30 4903 C 467.565 -4.50122 4.14797 0
M  V30 4904 N 466.702 -5.7037 4.09418 0
M  V30 4905 H 471.542 -1.48643 2.58281 0
M  V30 4906 H 469.079 -0.723516 1.28077 0
M  V30 4907 H 471.037 -3.80671 1.70719 0
M  V30 4908 H 469.667 -3.13036 0.787918 0
M  V30 4909 H 468.719 -2.27239 3.05068 0
M  V30 4910 H 470.031 -3.15275 3.86527 0
M  V30 4911 H 469.185 -5.31385 2.92772 0
M  V30 4912 H 467.924 -4.44398 2.00902 0
M  V30 4913 H 466.929 -3.60133 4.15433 0
M  V30 4914 H 468.154 -4.50445 5.08208 0
M  V30 4915 H 466.1 -5.72655 3.20004 0
M  V30 4916 H 466.017 -5.73036 4.93119 0
M  V30 4917 H 467.285 -6.61023 4.13121 0
M  V30 4918 N 471.514 -1.37532 -0.769588 0
M  V30 4919 C 472.742 -1.36059 -1.55871 0
M  V30 4920 C 473.157 0.053544 -1.88724 0
M  V30 4921 O 472.514 1.01591 -1.5161 0
M  V30 4922 C 472.565 -2.20107 -2.86767 0
M  V30 4923 O 472.286 -3.56009 -2.55321 0
M  V30 4924 C 473.787 -2.26636 -3.80987 0
M  V30 4925 H 471.007 -0.465967 -0.482821 0
M  V30 4926 H 473.551 -1.80901 -0.953686 0
M  V30 4927 H 471.706 -1.78768 -3.43687 0
M  V30 4928 H 472.12 -4.0009 -3.39158 0
M  V30 4929 H 473.594 -2.89763 -4.69831 0
M  V30 4930 H 474.071 -1.2754 -4.20274 0
M  V30 4931 H 474.677 -2.68296 -3.29996 0
M  V30 4932 N 472.992 0.995999 -1.22138 0
M  V30 4933 C 474.222 1.76809 -1.06874 0
M  V30 4934 C 474.63 1.85265 0.383866 0
M  V30 4935 O 473.973 1.31969 1.27789 0
M  V30 4936 C 474.035 3.2186 -1.60144 0
M  V30 4937 C 473.699 3.36958 -3.0872 0
M  V30 4938 C 474.696 3.2452 -4.0618 0
M  V30 4939 C 472.381 3.62109 -3.48112 0
M  V30 4940 C 474.375 3.37013 -5.41019 0
M  V30 4941 C 472.062 3.74243 -4.831 0
M  V30 4942 C 473.06 3.61702 -5.79362 0
M  V30 4943 O 472.748 3.73436 -7.119 0
M  V30 4944 H 472.48 0.562207 -0.375365 0
M  V30 4945 H 475.034 1.26113 -1.62125 0
M  V30 4946 H 473.264 3.73734 -0.992981 0
M  V30 4947 H 474.953 3.80775 -1.40589 0
M  V30 4948 H 475.719 3.05004 -3.77091 0
M  V30 4949 H 471.598 3.70949 -2.73712 0
M  V30 4950 H 475.142 3.27141 -6.16137 0
M  V30 4951 H 471.039 3.93266 -5.11872 0
M  V30 4952 H 471.807 3.90328 -7.19435 0
M  V30 4953 N 474.47 1.03057 1.19235 0
M  V30 4954 C 475.38 0.622922 2.26179 0
M  V30 4955 C 476.396 -0.346113 1.70523 0
M  V30 4956 O 477.572 -0.203572 2.00369 0
M  V30 4957 C 474.637 -0.0182063 3.46695 0
M  V30 4958 C 473.698 0.998546 4.17526 0
M  V30 4959 C 472.931 0.387917 5.32288 0
M  V30 4960 O 473.154 -0.808668 5.64639 0
M  V30 4961 O 472.088 1.1116 5.91546 0
M  V30 4962 H 475.914 1.51363 2.63292 0
M  V30 4963 H 473.499 0.800856 1.26122 0
M  V30 4964 H 475.381 -0.375606 4.19723 0
M  V30 4965 H 474.056 -0.882895 3.11427 0
M  V30 4966 H 472.963 1.40756 3.4661 0
M  V30 4967 H 474.296 1.83366 4.56769 0
M  V30 4968 N 475.948 -1.35272 0.808662 0
M  V30 4969 C 476.896 -2.31663 0.208606 0
M  V30 4970 C 477.89 -1.56731 -0.642778 0
M  V30 4971 O 479.096 -1.71843 -0.53571 0
M  V30 4972 H 475.471 -0.750421 0.0486993 0
M  V30 4973 H 477.442 -2.79814 1.03666 0
M  V30 4974 C 476.191 -3.42008 -0.626573 0
M  V30 4975 H 475.514 -3.99795 0.0192103 0
M  V30 4976 H 476.954 -4.11727 -1.01278 0
M  V30 4977 C 475.413 -2.85226 -1.79298 0
M  V30 4978 O 475.943 -2.78945 -2.89055 0
M  V30 4979 N 474.149 -2.42245 -1.60516 0
M  V30 4980 H 473.696 -2.47554 -0.712375 0
M  V30 4981 H 473.654 -2.04603 -2.38715 0
M  V30 4982 N 477.426 -0.562348 -1.47226 0
M  V30 4983 C 478.356 0.170627 -2.32876 0
M  V30 4984 C 479.337 0.903748 -1.44106 0
M  V30 4985 O 480.522 0.883206 -1.72954 0
M  V30 4986 C 477.652 1.19786 -3.25989 0
M  V30 4987 C 476.606 0.580875 -4.2404 0
M  V30 4988 C 475.932 1.71311 -5.06514 0
M  V30 4989 C 477.232 -0.468714 -5.20193 0
M  V30 4990 H 478.926 -0.544441 -2.94408 0
M  V30 4991 H 476.472 -0.263271 -1.41573 0
M  V30 4992 H 478.425 1.71884 -3.84752 0
M  V30 4993 H 477.149 1.94294 -2.62521 0
M  V30 4994 H 475.808 0.0811538 -3.6651 0
M  V30 4995 H 475.456 2.44736 -4.39447 0
M  V30 4996 H 475.156 1.30604 -5.72902 0
M  V30 4997 H 476.68 2.23725 -5.68137 0
M  V30 4998 H 478.094 -0.0336028 -5.7329 0
M  V30 4999 H 476.491 -0.794957 -5.94811 0
M  V30 5000 H 477.561 -1.36269 -4.65359 0
M  V30 5001 N 478.904 1.54736 -0.299062 0
M  V30 5002 C 480.181 1.92187 0.363802 0
M  V30 5003 C 480.561 1.22607 1.71845 0
M  V30 5004 O 479.909 0.361141 2.25628 0
M  V30 5005 C 480.119 3.45678 0.480377 0
M  V30 5006 C 481.467 4.17885 0.752147 0
M  V30 5007 O 482.491 3.51702 0.564264 0
M  V30 5008 O 481.35 5.35048 1.11294 0
M  V30 5009 H 478.444 0.801681 0.203066 0
M  V30 5010 H 480.99 1.66115 -0.346978 0
M  V30 5011 H 479.762 3.88443 -0.471999 0
M  V30 5012 H 479.385 3.77779 1.2397 0
M  V30 5013 N 480.382 0.0267497 1.57577 0
M  V30 5014 C 481.312 -0.954308 2.13108 0
M  V30 5015 C 482.293 -1.34088 1.04663 0
M  V30 5016 O 483.478 -1.41992 1.32484 0
M  V30 5017 C 480.608 -2.23744 2.65624 0
M  V30 5018 C 479.562 -1.99168 3.78835 0
M  V30 5019 C 478.888 -3.33726 4.17769 0
M  V30 5020 C 480.188 -1.33277 5.0501 0
M  V30 5021 H 481.882 -0.491848 2.95332 0
M  V30 5022 H 479.428 -0.23514 1.42067 0
M  V30 5023 H 481.381 -2.92754 3.03106 0
M  V30 5024 H 480.105 -2.72151 1.80558 0
M  V30 5025 H 478.764 -1.32577 3.41788 0
M  V30 5026 H 478.412 -3.79888 3.29688 0
M  V30 5027 H 478.112 -3.18089 4.94058 0
M  V30 5028 H 479.636 -4.04008 4.57832 0
M  V30 5029 H 481.05 -1.92283 5.40093 0
M  V30 5030 H 479.447 -1.28045 5.8628 0
M  V30 5031 H 480.517 -0.305411 4.83937 0
M  V30 5032 N 481.861 -1.55662 -0.24637 0
M  V30 5033 C 483.108 -1.77519 -0.974335 0
M  V30 5034 C 483.436 -0.591165 -1.85298 0
M  V30 5035 O 482.691 0.425497 -1.91018 0
M  V30 5036 C 482.99 -3.04885 -1.86494 0
M  V30 5037 C 482.656 -4.36209 -1.14161 0
M  V30 5038 C 481.318 -4.71896 -0.941701 0
M  V30 5039 C 483.67 -5.17391 -0.628957 0
M  V30 5040 C 480.998 -5.86299 -0.216852 0
M  V30 5041 C 483.35 -6.32546 0.0824273 0
M  V30 5042 C 482.014 -6.66853 0.293807 0
M  V30 5043 H 481.284 -0.649588 -0.356535 0
M  V30 5044 H 483.931 -1.89934 -0.244394 0
M  V30 5045 H 482.236 -2.87484 -2.66196 0
M  V30 5046 H 483.933 -3.18994 -2.42989 0
M  V30 5047 H 480.523 -4.08174 -1.30736 0
M  V30 5048 H 484.707 -4.90276 -0.770943 0
M  V30 5049 H 479.963 -6.11385 -0.0426124 0
M  V30 5050 H 484.137 -6.94693 0.487292 0
M  V30 5051 H 481.764 -7.55349 0.857428 0
M  V30 5052 N 483.339 0.512053 -1.4905 0
M  V30 5053 C 484.585 1.26874 -1.58212 0
M  V30 5054 C 484.918 1.9241 -0.263073 0
M  V30 5055 O 484.193 1.80181 0.732476 0
M  V30 5056 C 484.476 2.34428 -2.73341 0
M  V30 5057 C 484.329 1.73466 -4.15006 0
M  V30 5058 C 485.648 3.36073 -2.84154 0
M  V30 5059 H 482.767 0.459924 -0.575881 0
M  V30 5060 H 485.409 0.568587 -1.81293 0
M  V30 5061 H 483.559 2.94146 -2.53792 0
M  V30 5062 H 485.231 1.17661 -4.46042 0
M  V30 5063 H 483.474 1.03921 -4.21168 0
M  V30 5064 H 484.145 2.51426 -4.91415 0
M  V30 5065 H 486.621 2.86332 -3.01916 0
M  V30 5066 H 485.497 4.08703 -3.66406 0
M  V30 5067 H 485.758 3.97725 -1.93048 0
M  V30 5068 N 484.817 1.37938 0.762283 0
M  V30 5069 C 486.064 1.33668 1.52115 0
M  V30 5070 C 486.392 -0.0759538 1.94352 0
M  V30 5071 O 485.647 -1.05121 1.6507 0
M  V30 5072 C 485.946 2.23042 2.79261 0
M  V30 5073 C 485.612 3.71159 2.56031 0
M  V30 5074 C 484.274 4.11523 2.49404 0
M  V30 5075 C 486.626 4.64955 2.35513 0
M  V30 5076 C 483.954 5.43784 2.20263 0
M  V30 5077 C 486.306 5.97464 2.07894 0
M  V30 5078 C 484.97 6.36922 1.99718 0
M  V30 5079 H 484.24 0.489127 0.556629 0
M  V30 5080 H 486.887 1.70224 0.877262 0
M  V30 5081 H 485.192 1.79512 3.48256 0
M  V30 5082 H 486.889 2.17047 3.37182 0
M  V30 5083 H 483.479 3.39153 2.62056 0
M  V30 5084 H 487.663 4.34623 2.39617 0
M  V30 5085 H 482.919 5.73307 2.12435 0
M  V30 5086 H 487.093 6.6969 1.91019 0
M  V30 5087 H 484.72 7.39331 1.76902 0
M  V30 5088 N 486.295 -0.989507 1.22664 0
M  V30 5089 C 487.525 -1.7624 1.0781 0
M  V30 5090 C 487.933 -1.85466 -0.374036 0
M  V30 5091 O 487.276 -1.32645 -1.27087 0
M  V30 5092 C 487.338 -3.21007 1.61849 0
M  V30 5093 C 487.002 -3.35316 3.10503 0
M  V30 5094 C 487.999 -3.22362 4.07896 0
M  V30 5095 C 485.684 -3.60258 3.50028 0
M  V30 5096 C 487.678 -3.34139 5.42798 0
M  V30 5097 C 485.365 -3.71676 4.85078 0
M  V30 5098 C 486.363 -3.58625 5.81272 0
M  V30 5099 O 486.051 -3.69655 7.1387 0
M  V30 5100 H 485.783 -0.560209 0.378341 0
M  V30 5101 H 488.337 -1.25252 1.62792 0
M  V30 5102 H 486.567 -3.73202 1.01279 0
M  V30 5103 H 488.256 -3.80024 1.42606 0
M  V30 5104 H 489.022 -3.03 3.78703 0
M  V30 5105 H 484.901 -3.69492 2.75675 0
M  V30 5106 H 488.445 -3.23869 6.17863 0
M  V30 5107 H 484.342 -3.90545 5.1395 0
M  V30 5108 H 485.11 -3.86507 7.21495 0
M  V30 5109 N 487.773 -1.03688 -1.18687 0
M  V30 5110 C 489.05 -0.652397 -1.84399 0
M  V30 5111 C 489.43 0.868386 -1.92412 0
M  V30 5112 O 488.778 1.76832 -1.44716 0
M  V30 5113 C 488.988 -1.3238 -3.22919 0
M  V30 5114 C 490.336 -1.45216 -3.98996 0
M  V30 5115 O 491.36 -1.2816 -3.32345 0
M  V30 5116 O 490.219 -1.72975 -5.18403 0
M  V30 5117 H 487.313 -0.227793 -0.795009 0
M  V30 5118 H 489.859 -1.13553 -1.2611 0
M  V30 5119 H 488.631 -2.36202 -3.11968 0
M  V30 5120 H 488.254 -0.829039 -3.88861 0
M  V30 5121 N 489.251 1.34841 -0.815825 0
M  V30 5122 C 490.183 2.28409 -0.190265 0
M  V30 5123 C 491.196 1.50705 0.615771 0
M  V30 5124 O 492.385 1.72822 0.446616 0
M  V30 5125 C 489.485 3.30441 0.752446 0
M  V30 5126 C 488.658 4.37399 -0.00922152 0
M  V30 5127 C 487.717 5.19234 0.853351 0
M  V30 5128 O 486.743 5.68404 0.300919 0
M  V30 5129 N 487.945 5.38248 2.17416 0
M  V30 5130 H 490.71 2.82732 -0.994114 0
M  V30 5131 H 488.271 1.47289 -0.672129 0
M  V30 5132 H 490.263 3.82084 1.33394 0
M  V30 5133 H 488.833 2.76565 1.45707 0
M  V30 5134 H 488.053 3.86567 -0.771979 0
M  V30 5135 H 489.341 5.05992 -0.533807 0
M  V30 5136 H 488.739 4.99961 2.6468 0
M  V30 5137 H 487.296 5.93035 2.70467 0
M  V30 5138 N 490.729 0.570148 1.46925 0
M  V30 5139 C 492.14 0.1402 1.86173 0
M  V30 5140 C 492.491 -1.29347 1.47526 0
M  V30 5141 O 491.616 -1.97508 0.884292 0
M  V30 5142 C 492.211 0.247661 3.37894 0
M  V30 5143 C 490.77 -0.127332 3.76185 0
M  V30 5144 C 489.917 0.589349 2.70965 0
M  V30 5145 H 492.868 0.779117 1.38259 0
M  V30 5146 H 492.889 -0.530341 3.76786 0
M  V30 5147 H 492.401 1.29121 3.65991 0
M  V30 5148 H 490.502 -1.17149 3.53704 0
M  V30 5149 H 490.615 0.240238 4.78497 0
M  V30 5150 H 488.979 0.0309824 2.54681 0
M  V30 5151 H 489.762 1.6343 3.01903 0
M  V30 5152 N 492.207 -1.54576 0.307264 0
M  V30 5153 C 493.137 -2.26708 -0.55907 0
M  V30 5154 C 494.118 -1.26893 -1.1328 0
M  V30 5155 O 495.303 -1.55677 -1.16097 0
M  V30 5156 C 492.433 -3.01259 -1.72801 0
M  V30 5157 C 491.387 -4.08275 -1.28435 0
M  V30 5158 C 490.713 -4.70575 -2.53895 0
M  V30 5159 C 492.013 -5.2068 -0.411038 0
M  V30 5160 H 493.707 -2.9937 0.042576 0
M  V30 5161 H 491.253 -1.43983 0.0219173 0
M  V30 5162 H 493.206 -3.50444 -2.34023 0
M  V30 5163 H 491.93 -2.26187 -2.356 0
M  V30 5164 H 490.589 -3.59949 -0.695161 0
M  V30 5165 H 490.237 -3.92136 -3.15021 0
M  V30 5166 H 489.937 -5.42854 -2.24908 0
M  V30 5167 H 491.461 -5.22527 -3.15908 0
M  V30 5168 H 492.875 -5.65721 -0.929097 0
M  V30 5169 H 491.272 -5.99716 -0.214664 0
M  V30 5170 H 492.342 -4.81629 0.562287 0
M  V30 5171 N 493.685 -0.035106 -1.57561 0
M  V30 5172 C 495.096 0.502885 -1.798 0
M  V30 5173 C 495.447 1.71892 -0.945921 0
M  V30 5174 O 494.572 2.15822 -0.157991 0
M  V30 5175 C 495.167 0.919097 -3.26095 0
M  V30 5176 C 493.726 1.40216 -3.49308 0
M  V30 5177 C 492.873 0.369709 -2.74824 0
M  V30 5178 H 495.824 -0.261102 -1.56537 0
M  V30 5179 H 495.845 1.78308 -3.36135 0
M  V30 5180 H 495.357 0.0338526 -3.88085 0
M  V30 5181 H 493.458 2.30714 -2.92578 0
M  V30 5182 H 493.571 1.40541 -4.58023 0
M  V30 5183 H 491.935 0.839113 -2.40481 0
M  V30 5184 H 492.718 -0.507173 -3.39533 0
M  V30 5185 N 495.163 1.55791 0.238111 0
M  V30 5186 C 496.073 1.94196 1.31625 0
M  V30 5187 C 497.089 0.843545 1.52185 0
M  V30 5188 O 498.265 1.1457 1.65637 0
M  V30 5189 C 495.33 2.2365 2.64918 0
M  V30 5190 C 494.391 3.46971 2.52804 0
M  V30 5191 C 493.624 3.7501 3.79741 0
M  V30 5192 O 493.847 3.04982 4.82019 0
M  V30 5193 O 492.781 4.68525 3.77846 0
M  V30 5194 H 496.607 2.86044 1.02043 0
M  V30 5195 H 494.192 1.42786 0.439603 0
M  V30 5196 H 496.074 2.43863 3.4367 0
M  V30 5197 H 494.749 1.34979 2.94215 0
M  V30 5198 H 493.656 3.32055 1.72309 0
M  V30 5199 H 494.989 4.35971 2.28451 0
M  V30 5200 N 496.642 -0.504142 1.49319 0
M  V30 5201 C 497.919 -1.26548 1.49147 0
M  V30 5202 C 498.299 -2.09977 0.21744 0
M  V30 5203 O 497.647 -2.14028 -0.800269 0
M  V30 5204 C 497.857 -2.12489 2.76857 0
M  V30 5205 C 499.205 -2.7178 3.26222 0
M  V30 5206 O 500.229 -2.22758 2.77952 0
M  V30 5207 O 499.088 -3.61015 4.10281 0
M  V30 5208 H 496.182 -0.572495 0.596806 0
M  V30 5209 H 498.728 -0.51867 1.61579 0
M  V30 5210 H 497.5 -1.50796 3.61077 0
M  V30 5211 H 497.123 -2.94368 2.6727 0
M  V30 5212 N 498.12 -1.38341 -0.754957 0
M  V30 5213 C 499.366 -1.34672 -1.51628 0
M  V30 5214 C 499.699 0.0636036 -1.94096 0
M  V30 5215 O 498.974 1.0245 -1.6533 0
M  V30 5216 C 499.257 -2.30116 -2.76981 0
M  V30 5217 C 499.11 -3.80003 -2.4066 0
M  V30 5218 C 500.429 -2.23715 -3.78998 0
M  V30 5219 H 497.548 -0.490517 -0.550056 0
M  V30 5220 H 500.19 -1.69178 -0.864807 0
M  V30 5221 H 498.34 -2.00821 -3.3257 0
M  V30 5222 H 500.012 -4.19966 -1.90856 0
M  V30 5223 H 498.255 -3.97751 -1.73137 0
M  V30 5224 H 498.926 -4.42244 -3.30339 0
M  V30 5225 H 501.402 -2.49574 -3.32945 0
M  V30 5226 H 500.278 -2.9261 -4.64403 0
M  V30 5227 H 500.539 -1.23554 -4.24484 0
M  V30 5228 N 499.598 0.982988 -1.23187 0
M  V30 5229 C 500.53 2.07729 -0.968572 0
M  V30 5230 C 501.543 1.62702 0.0564821 0
M  V30 5231 O 502.732 1.77603 -0.178733 0
M  V30 5232 C 499.832 3.36071 -0.436974 0
M  V30 5233 C 499.005 4.10081 -1.52159 0
M  V30 5234 C 498.064 5.16701 -0.99532 0
M  V30 5235 O 497.09 5.43727 -1.68373 0
M  V30 5236 N 498.292 5.80226 0.178192 0
M  V30 5237 H 501.057 2.30894 -1.9107 0
M  V30 5238 H 498.618 1.14949 -1.1401 0
M  V30 5239 H 500.61 4.04639 -0.0700051 0
M  V30 5240 H 499.18 3.09893 0.410509 0
M  V30 5241 H 498.4 3.36004 -2.06144 0
M  V30 5242 H 499.688 4.56295 -2.25105 0
M  V30 5243 H 499.086 5.60651 0.754096 0
M  V30 5244 H 497.643 6.49982 0.486449 0
M  V30 5245 N 501.076 1.04316 1.18135 0
M  V30 5246 C 502.324 0.746542 1.87806 0
M  V30 5247 C 502.645 -0.728082 1.80898 0
M  V30 5248 O 501.915 -1.52554 1.22899 0
M  V30 5249 H 500.495 0.273157 0.695265 0
M  V30 5250 H 503.157 1.32044 1.43354 0
M  V30 5251 H 502.253 1.05362 2.93778 0
M  V30 5252 N 502.554 -1.34406 0.822964 0
M  V30 5253 C 503.97 -1.51275 0.508727 0
M  V30 5254 C 504.17 -1.76776 -0.967083 0
M  V30 5255 O 503.226 -1.81871 -1.75155 0
M  V30 5256 C 504.539 -2.67765 1.36829 0
M  V30 5257 C 506.087 -2.81647 1.36542 0
M  V30 5258 C 506.562 -4.01181 2.20947 0
M  V30 5259 N 508.053 -4.08388 2.18571 0
M  V30 5260 C 508.788 -5.00036 2.80627 0
M  V30 5261 N 508.284 -5.96906 3.51674 0
M  V30 5262 N 510.077 -4.92908 2.70181 0
M  V30 5263 H 502.228 -1.16113 1.77852 0
M  V30 5264 H 504.491 -0.56947 0.757897 0
M  V30 5265 H 504.197 -2.55551 2.41633 0
M  V30 5266 H 504.071 -3.62779 1.03303 0
M  V30 5267 H 506.458 -2.93303 0.325163 0
M  V30 5268 H 506.539 -1.87443 1.74066 0
M  V30 5269 H 506.183 -3.90286 3.25022 0
M  V30 5270 H 506.113 -4.94599 1.80774 0
M  V30 5271 H 508.604 -3.39051 1.66891 0
M  V30 5272 H 508.917 -6.63468 3.96271 0
M  V30 5273 H 507.262 -5.9703 3.5578 0
M  V30 5274 H 510.453 -4.1619 2.14251 0
M  V30 5275 H 510.626 -5.64137 3.18831 0
M  V30 5276 N 504.032 -0.577932 -1.46621 0
M  V30 5277 C 505.309 0.00495287 -1.95599 0
M  V30 5278 C 505.689 1.46428 -1.5206 0
M  V30 5279 O 505.037 2.1517 -0.769046 0
M  V30 5280 C 505.247 -0.162114 -3.48623 0
M  V30 5281 C 506.595 -0.0274623 -4.24591 0
M  V30 5282 O 507.619 -0.0907067 -3.56084 0
M  V30 5283 O 506.478 0.1122 -5.46385 0
M  V30 5284 H 503.572 0.0525057 -0.825332 0
M  V30 5285 H 506.118 -0.645914 -1.56927 0
M  V30 5286 H 504.89 -1.17679 -3.73185 0
M  V30 5287 H 504.513 0.525407 -3.94113 0
M  V30 5288 N 505.51 1.54411 -0.315457 0
M  V30 5289 C 506.74 2.04536 0.291315 0
M  V30 5290 C 507.148 1.19162 1.4696 0
M  V30 5291 O 506.491 0.213199 1.82459 0
M  V30 5292 C 506.553 3.5056 0.796725 0
M  V30 5293 C 506.217 4.5627 -0.258178 0
M  V30 5294 C 507.214 5.08312 -1.09153 0
M  V30 5295 C 504.899 5.00672 -0.404036 0
M  V30 5296 C 506.893 6.03312 -2.05655 0
M  V30 5297 C 504.58 5.95488 -1.37248 0
M  V30 5298 C 505.578 6.46693 -2.19721 0
M  V30 5299 O 505.266 7.39648 -3.14921 0
M  V30 5300 H 504.998 0.672856 0.0651165 0
M  V30 5301 H 507.552 2.00244 -0.457308 0
M  V30 5302 H 505.782 3.52223 1.59612 0
M  V30 5303 H 507.471 3.83804 1.32096 0
M  V30 5304 H 508.237 4.74793 -0.98979 0
M  V30 5305 H 504.116 4.60436 0.22799 0
M  V30 5306 H 507.66 6.43203 -2.70067 0
M  V30 5307 H 503.557 6.28424 -1.47489 0
M  V30 5308 H 504.325 7.57496 -3.10067 0
M  V30 5309 N 506.988 0.0434614 1.5754 0
M  V30 5310 C 508.265 -0.671479 1.83713 0
M  V30 5311 C 508.645 -1.89495 0.930315 0
M  V30 5312 O 507.993 -2.28498 -0.0105639 0
M  V30 5313 C 508.203 -1.0361 3.33266 0
M  V30 5314 C 509.551 -1.42167 4.00092 0
M  V30 5315 O 510.575 -1.12866 3.37846 0
M  V30 5316 O 509.434 -1.96817 5.09829 0
M  V30 5317 H 506.528 -0.330726 0.75799 0
M  V30 5318 H 509.074 0.0722373 1.69546 0
M  V30 5319 H 507.846 -0.165938 3.90948 0
M  V30 5320 H 507.469 -1.83751 3.52592 0
M  V30 5321 N 508.466 -1.55915 -0.229846 0
M  V30 5322 C 509.696 -1.82352 -0.971152 0
M  V30 5323 C 510.104 -0.619231 -1.7878 0
M  V30 5324 O 509.447 0.421597 -1.78797 0
M  V30 5325 C 509.509 -3.02399 -1.9441 0
M  V30 5326 C 509.173 -4.37739 -1.31277 0
M  V30 5327 C 510.17 -5.15074 -0.706757 0
M  V30 5328 C 507.855 -4.84454 -1.32702 0
M  V30 5329 C 509.849 -6.37281 -0.123413 0
M  V30 5330 C 507.536 -6.06605 -0.739831 0
M  V30 5331 C 508.534 -6.82858 -0.139071 0
M  V30 5332 O 508.222 -8.027 0.439007 0
M  V30 5333 H 507.954 -0.61035 -0.290601 0
M  V30 5334 H 510.508 -2.03839 -0.252746 0
M  V30 5335 H 508.738 -2.76709 -2.70128 0
M  V30 5336 H 510.427 -3.15779 -2.55026 0
M  V30 5337 H 511.193 -4.80093 -0.688131 0
M  V30 5338 H 507.072 -4.25081 -1.78402 0
M  V30 5339 H 510.616 -6.96741 0.346124 0
M  V30 5340 H 506.513 -6.4106 -0.755841 0
M  V30 5341 H 507.281 -8.17824 0.332521 0
M  V30 5342 N 509.944 0.496216 -1.49584 0
M  V30 5343 C 511.355 1.07765 -1.52459 0
M  V30 5344 C 511.706 1.93679 -0.31353 0
M  V30 5345 O 510.831 2.08588 0.576186 0
M  V30 5346 C 511.426 1.96111 -2.76271 0
M  V30 5347 C 509.985 2.49409 -2.81908 0
M  V30 5348 C 509.132 1.27142 -2.46435 0
M  V30 5349 H 512.083 0.279914 -1.56212 0
M  V30 5350 H 512.104 2.80862 -2.56704 0
M  V30 5351 H 511.616 1.33555 -3.64396 0
M  V30 5352 H 509.717 3.1559 -1.98074 0
M  V30 5353 H 509.83 2.86234 -3.84196 0
M  V30 5354 H 508.194 1.59818 -1.98319 0
M  V30 5355 H 508.977 0.662866 -3.3684 0
M  V30 5356 N 511.423 1.38739 0.74761 0
M  V30 5357 C 512.671 1.35007 1.50391 0
M  V30 5358 C 512.992 -0.0574274 1.94915 0
M  V30 5359 O 512.262 -1.00628 1.6808 0
M  V30 5360 H 510.842 0.496784 0.557866 0
M  V30 5361 H 513.504 1.73479 0.888319 0
M  V30 5362 H 512.6 2.00474 2.392 0
M  V30 5363 N 512.901 -0.976442 1.23707 0
M  V30 5364 C 513.831 -2.08749 1.04624 0
M  V30 5365 C 514.812 -1.70057 -0.0380956 0
M  V30 5366 O 515.997 -1.93782 0.127308 0
M  V30 5367 C 513.127 -3.41335 0.640902 0
M  V30 5368 C 512.081 -3.93947 1.67302 0
M  V30 5369 C 511.407 -5.22774 1.12301 0
M  V30 5370 C 512.707 -4.22769 3.06697 0
M  V30 5371 H 514.401 -2.24972 1.97555 0
M  V30 5372 H 511.947 -1.08108 0.951247 0
M  V30 5373 H 513.9 -4.18489 0.494434 0
M  V30 5374 H 512.624 -3.24988 -0.324099 0
M  V30 5375 H 511.283 -3.18941 1.80755 0
M  V30 5376 H 510.931 -5.0278 0.148877 0
M  V30 5377 H 510.631 -5.58942 1.81267 0
M  V30 5378 H 512.155 -6.02546 0.988479 0
M  V30 5379 H 513.569 -4.90659 2.96524 0
M  V30 5380 H 511.966 -4.70147 3.72937 0
M  V30 5381 H 513.036 -3.29885 3.55392 0
M  V30 5382 N 514.379 -1.04941 -1.1758 0
M  V30 5383 C 515.625 -0.759112 -1.88057 0
M  V30 5384 C 515.958 0.711918 -1.8068 0
M  V30 5385 O 515.233 1.52035 -1.21308 0
M  V30 5386 C 515.516 -1.237 -3.38187 0
M  V30 5387 C 515.369 -2.77078 -3.54327 0
M  V30 5388 C 516.688 -0.834014 -4.32125 0
M  V30 5389 H 513.807 -0.277237 -0.682868 0
M  V30 5390 H 516.449 -1.30296 -1.38286 0
M  V30 5391 H 514.599 -0.774337 -3.80705 0
M  V30 5392 H 516.271 -3.31449 -3.20842 0
M  V30 5393 H 514.514 -3.16477 -2.96689 0
M  V30 5394 H 515.185 -3.05577 -4.59703 0
M  V30 5395 H 517.661 -1.23228 -3.97434 0
M  V30 5396 H 516.537 -1.19603 -5.35711 0
M  V30 5397 H 516.798 0.262195 -4.41322 0
M  V30 5398 N 515.857 1.33968 -0.830081 0
M  V30 5399 C 517.134 1.92554 -0.343858 0
M  V30 5400 C 517.514 1.7573 1.16971 0
M  V30 5401 O 516.862 1.14035 1.98011 0
M  V30 5402 C 517.072 3.40147 -0.781073 0
M  V30 5403 C 518.42 4.17299 -0.78402 0
M  V30 5404 O 519.444 3.48762 -0.724112 0
M  V30 5405 O 518.303 5.39631 -0.863739 0
M  V30 5406 H 515.397 0.821469 -0.0954827 0
M  V30 5407 H 517.943 1.42897 -0.915348 0
M  V30 5408 H 516.715 3.46225 -1.82329 0
M  V30 5409 H 516.338 3.97166 -0.18567 0
M  V30 5410 N 517.335 0.585699 1.46312 0
M  V30 5411 C 518.581 0.0725284 2.0267 0
M  V30 5412 C 518.914 -1.28523 1.45586 0
M  V30 5413 O 518.189 -1.84283 0.622101 0
M  V30 5414 C 518.472 0.0099788 3.60099 0
M  V30 5415 C 518.325 1.39685 4.27561 0
M  V30 5416 C 519.644 -0.689117 4.34671 0
M  V30 5417 H 516.763 0.0278307 0.736474 0
M  V30 5418 H 519.405 0.753472 1.74421 0
M  V30 5419 H 517.555 -0.56992 3.84297 0
M  V30 5420 H 519.227 2.02215 4.14617 0
M  V30 5421 H 517.47 1.96374 3.86807 0
M  V30 5422 H 518.141 1.30553 5.36339 0
M  V30 5423 H 520.617 -0.196446 4.15636 0
M  V30 5424 H 519.493 -0.701921 5.44393 0
M  V30 5425 H 519.754 -1.75101 4.05946 0
M  V30 5426 N 518.813 -1.54241 0.323641 0
M  V30 5427 C 519.76 -2.24339 -0.542277 0
M  V30 5428 C 520.73 -1.23421 -1.11159 0
M  V30 5429 O 521.915 -1.52104 -1.15192 0
M  V30 5430 C 519.055 -3.00479 -1.69725 0
M  V30 5431 C 518.168 -4.16214 -1.15716 0
M  V30 5432 C 517.303 -4.79884 -2.27783 0
M  V30 5433 C 516.342 -5.87722 -1.71023 0
M  V30 5434 N 515.479 -6.45254 -2.76752 0
M  V30 5435 H 520.319 -2.97935 0.0620613 0
M  V30 5436 H 517.856 -1.47039 0.0423993 0
M  V30 5437 H 519.814 -3.42869 -2.3769 0
M  V30 5438 H 518.444 -2.29217 -2.27288 0
M  V30 5439 H 517.496 -3.78605 -0.369063 0
M  V30 5440 H 518.808 -4.93838 -0.701832 0
M  V30 5441 H 517.962 -5.25243 -3.03651 0
M  V30 5442 H 516.701 -4.01641 -2.76652 0
M  V30 5443 H 515.706 -5.41765 -0.936518 0
M  V30 5444 H 516.931 -6.67863 -1.2303 0
M  V30 5445 H 514.877 -5.69884 -3.24912 0
M  V30 5446 H 514.794 -7.18292 -2.35782 0
M  V30 5447 H 516.062 -6.95269 -3.5245 0
M  V30 5448 N 520.291 -0.0518155 -1.57515 0
M  V30 5449 C 521.223 0.951542 -2.08515 0
M  V30 5450 C 522.236 1.27436 -1.01311 0
M  V30 5451 O 523.425 1.23504 -1.28876 0
M  V30 5452 C 520.525 2.27291 -2.5138 0
M  V30 5453 C 519.698 2.13191 -3.81927 0
M  V30 5454 C 518.757 3.28458 -4.11098 0
M  V30 5455 O 517.783 3.04334 -4.81009 0
M  V30 5456 N 518.985 4.52954 -3.63061 0
M  V30 5457 H 521.75 0.516242 -2.9522 0
M  V30 5458 H 519.311 0.13441 -1.61341 0
M  V30 5459 H 521.303 3.03272 -2.67971 0
M  V30 5460 H 519.873 2.62386 -1.69919 0
M  V30 5461 H 519.093 1.21798 -3.74912 0
M  V30 5462 H 520.381 2.00999 -4.67415 0
M  V30 5463 H 519.779 4.75444 -3.06545 0
M  V30 5464 H 518.336 5.26026 -3.84889 0
M  V30 5465 N 521.769 1.56035 0.221574 0
M  V30 5466 C 523.018 1.78245 0.944016 0
M  V30 5467 C 523.331 0.620371 1.85501 0
M  V30 5468 O 524.537 0.726103 2.6161 0
M  V30 5469 C 522.993 3.15659 1.7288 0
M  V30 5470 C 522.601 4.39591 0.863942 0
M  V30 5471 C 524.345 3.47195 2.44246 0
M  V30 5472 C 522.252 5.6803 1.64607 0
M  V30 5473 H 521.182 0.664547 0.356222 0
M  V30 5474 H 523.833 1.8243 0.197904 0
M  V30 5475 H 522.215 3.0565 2.51781 0
M  V30 5476 H 523.389 4.60655 0.115464 0
M  V30 5477 H 521.704 4.15572 0.262407 0
M  V30 5478 H 524.301 4.40381 3.03263 0
M  V30 5479 H 524.644 2.69693 3.1713 0
M  V30 5480 H 525.177 3.58533 1.72334 0
M  V30 5481 H 521.916 6.48425 0.960507 0
M  V30 5482 H 521.436 5.51027 2.36917 0
M  V30 5483 H 523.115 6.08203 2.20675 0
M  V30 5484 N 523.247 -0.488276 1.49845 0
M  V30 5485 C 524.157 -1.61451 1.70207 0
M  V30 5486 C 525.173 -1.63877 0.584846 0
M  V30 5487 O 526.349 -1.82063 0.861107 0
M  V30 5488 C 523.414 -2.9776 1.77594 0
M  V30 5489 C 522.475 -3.05861 3.01243 0
M  V30 5490 C 521.708 -4.35668 3.08268 0
M  V30 5491 O 521.931 -5.25197 2.22541 0
M  V30 5492 O 520.865 -4.49005 4.00847 0
M  V30 5493 H 524.691 -1.47199 2.65643 0
M  V30 5494 H 522.276 -0.665939 1.33737 0
M  V30 5495 H 524.158 -3.7875 1.84732 0
M  V30 5496 H 522.833 -3.12248 0.8534 0
M  V30 5497 H 521.74 -2.24012 2.99616 0
M  V30 5498 H 523.073 -2.96304 3.9302 0
M  V30 5499 N 524.725 -1.39134 -0.740242 0
M  V30 5500 C 525.672 -1.37434 -1.8542 0
M  V30 5501 C 526.642 -0.234822 -1.64432 0
M  V30 5502 O 527.827 -0.429125 -1.85912 0
M  V30 5503 C 524.967 -1.21844 -3.22875 0
M  V30 5504 C 524.08 -2.45296 -3.55603 0
M  V30 5505 C 523.215 -2.22334 -4.82432 0
M  V30 5506 C 522.254 -3.41488 -5.07988 0
M  V30 5507 N 521.391 -3.17877 -6.26018 0
M  V30 5508 H 526.231 -2.3266 -1.86207 0
M  V30 5509 H 523.768 -1.15578 -0.909946 0
M  V30 5510 H 525.726 -1.10818 -4.02213 0
M  V30 5511 H 524.356 -0.3025 -3.21379 0
M  V30 5512 H 523.408 -2.66945 -2.71006 0
M  V30 5513 H 524.72 -3.34063 -3.7041 0
M  V30 5514 H 523.874 -2.0852 -5.69741 0
M  V30 5515 H 522.613 -1.30954 -4.6979 0
M  V30 5516 H 521.618 -3.55807 -4.19144 0
M  V30 5517 H 522.843 -4.33763 -5.22519 0
M  V30 5518 H 520.789 -2.29156 -6.14673 0
M  V30 5519 H 520.706 -4.00198 -6.41387 0
M  V30 5520 H 521.974 -3.07746 -7.16179 0
M  V30 5521 N 526.204 0.969867 -1.24223 0
M  V30 5522 C 527.429 1.75289 -1.10853 0
M  V30 5523 C 527.854 1.85091 0.335079 0
M  V30 5524 O 527.212 1.32024 1.24255 0
M  V30 5525 C 527.26 3.15255 -1.75062 0
M  V30 5526 O 526.364 3.99589 -1.01992 0
M  V30 5527 H 525.705 0.538904 -0.387915 0
M  V30 5528 H 528.235 1.21675 -1.64488 0
M  V30 5529 H 528.245 3.65787 -1.80731 0
M  V30 5530 H 526.92 3.07436 -2.801 0
M  V30 5531 H 525.497 3.58077 -1.04094 0
M  V30 5532 N 527.682 1.05563 1.17022 0
M  V30 5533 C 528.931 0.763036 1.8671 0
M  V30 5534 C 529.244 -0.712857 1.82147 0
M  V30 5535 O 530.45 -1.11955 2.47343 0
M  V30 5536 C 528.906 1.31474 3.35026 0
M  V30 5537 C 528.514 2.82034 3.48081 0
M  V30 5538 C 530.258 1.09935 4.10018 0
M  V30 5539 C 528.165 3.30486 4.90442 0
M  V30 5540 H 527.095 0.281747 0.699382 0
M  V30 5541 H 529.746 1.2734 1.32124 0
M  V30 5542 H 528.128 0.732171 3.89173 0
M  V30 5543 H 529.302 3.46178 3.04133 0
M  V30 5544 H 527.617 3.02156 2.86515 0
M  V30 5545 H 530.214 1.43632 5.15048 0
M  V30 5546 H 530.557 0.0373072 4.16283 0
M  V30 5547 H 531.09 1.64732 3.62089 0
M  V30 5548 H 527.829 4.36137 4.89352 0
M  V30 5549 H 527.349 2.71086 5.35044 0
M  V30 5550 H 529.028 3.25382 5.59227 0
M  V30 5551 N 529.16 -1.33526 0.837174 0
M  V30 5552 C 530.09 -2.31764 0.284206 0
M  V30 5553 C 531.071 -1.58896 -0.607142 0
M  V30 5554 O 532.256 -1.86798 -0.531047 0
M  V30 5555 C 529.386 -3.43029 -0.542962 0
M  V30 5556 C 528.34 -4.27255 0.252451 0
M  V30 5557 C 527.666 -5.3012 -0.69836 0
M  V30 5558 C 528.966 -5.01229 1.46858 0
M  V30 5559 H 530.66 -2.78262 1.10502 0
M  V30 5560 H 528.206 -1.3378 0.532812 0
M  V30 5561 H 530.159 -4.1078 -0.940096 0
M  V30 5562 H 528.883 -2.95216 -1.39697 0
M  V30 5563 H 527.542 -3.61127 0.631124 0
M  V30 5564 H 527.19 -4.78564 -1.54872 0
M  V30 5565 H 526.89 -5.87353 -0.170274 0
M  V30 5566 H 528.414 -6.00737 -1.09305 0
M  V30 5567 H 529.828 -5.61756 1.14469 0
M  V30 5568 H 528.225 -5.68104 1.93333 0
M  V30 5569 H 529.295 -4.301 2.23924 0
M  V30 5570 N 530.638 -0.59345 -1.46 0
M  V30 5571 C 531.568 0.121192 -2.33185 0
M  V30 5572 C 532.549 0.872977 -1.4599 0
M  V30 5573 O 533.734 0.846321 -1.74789 0
M  V30 5574 C 530.864 1.12844 -3.28456 0
M  V30 5575 C 529.818 0.4908 -4.25177 0
M  V30 5576 C 529.144 1.60529 -5.10034 0
M  V30 5577 C 530.444 -0.578949 -5.19081 0
M  V30 5578 H 532.138 -0.606767 -2.93187 0
M  V30 5579 H 529.684 -0.293242 -1.40983 0
M  V30 5580 H 531.637 1.63684 -3.88311 0
M  V30 5581 H 530.361 1.88681 -2.66584 0
M  V30 5582 H 529.02 0.00339328 -3.666 0
M  V30 5583 H 528.668 2.35359 -4.44539 0
M  V30 5584 H 528.368 1.18422 -5.75543 0
M  V30 5585 H 529.892 2.11623 -5.72755 0
M  V30 5586 H 531.306 -0.155199 -5.7309 0
M  V30 5587 H 529.703 -0.920947 -5.92991 0
M  V30 5588 H 530.773 -1.46109 -4.62364 0
M  V30 5589 N 532.116 1.54067 -0.331816 0
M  V30 5590 C 533.527 1.86059 0.15454 0
M  V30 5591 C 533.878 1.25331 1.50952 0
M  V30 5592 O 533.003 0.562441 2.08963 0
M  V30 5593 C 533.598 3.37581 0.287192 0
M  V30 5594 C 532.157 3.69493 0.717773 0
M  V30 5595 C 531.304 2.76863 -0.155569 0
M  V30 5596 H 534.255 1.48797 -0.55182 0
M  V30 5597 H 534.276 3.63744 1.11671 0
M  V30 5598 H 533.788 3.81751 -0.699131 0
M  V30 5599 H 531.889 3.3086 1.71354 0
M  V30 5600 H 532.002 4.76315 0.5158 0
M  V30 5601 H 530.366 2.51995 0.370213 0
M  V30 5602 H 531.149 3.23861 -1.13881 0
M  V30 5603 N 533.594 0.0601682 1.57485 0
M  V30 5604 C 534.871 -0.651956 1.84415 0
M  V30 5605 C 535.251 -1.88498 0.950361 0
M  V30 5606 O 534.599 -2.28496 0.0136719 0
M  V30 5607 C 534.809 -1.00069 3.34346 0
M  V30 5608 C 536.157 -1.37915 4.01578 0
M  V30 5609 O 537.181 -1.09277 3.39024 0
M  V30 5610 O 536.04 -1.91399 5.11887 0
M  V30 5611 H 533.134 -0.322668 0.761455 0
M  V30 5612 H 535.68 0.0902159 1.6946 0
M  V30 5613 H 534.452 -0.124463 3.91102 0
M  V30 5614 H 534.075 -1.80001 3.54521 0
M  V30 5615 N 535.072 -1.5615 -0.213296 0
M  V30 5616 C 536.035 -1.92249 -1.24792 0
M  V30 5617 C 537.035 -0.801828 -1.39382 0
M  V30 5618 O 538.225 -1.06948 -1.37506 0
M  V30 5619 C 535.357 -2.18056 -2.62039 0
M  V30 5620 H 536.55 -2.84793 -0.939845 0
M  V30 5621 H 534.103 -1.49559 -0.454062 0
M  V30 5622 H 534.838 -1.2809 -2.97932 0
M  V30 5623 H 534.623 -2.99703 -2.52825 0
M  V30 5624 H 536.113 -2.47051 -3.36683 0
M  V30 5625 N 536.55 0.480323 -1.50102 0
M  V30 5626 C 537.827 1.24159 -1.51142 0
M  V30 5627 C 538.207 2.09605 -0.250818 0
M  V30 5628 O 537.555 2.15274 0.766118 0
M  V30 5629 C 537.765 2.08057 -2.80202 0
M  V30 5630 C 539.113 2.66556 -3.30504 0
M  V30 5631 O 540.137 2.18308 -2.81461 0
M  V30 5632 O 538.996 3.54442 -4.15973 0
M  V30 5633 H 536.09 0.562928 -0.605839 0
M  V30 5634 H 538.636 0.492899 -1.62384 0
M  V30 5635 H 537.408 1.45032 -3.6343 0
M  V30 5636 H 537.031 2.90079 -2.71919 0
M  V30 5637 N 538.028 1.39524 0.732853 0
M  V30 5638 C 539.258 1.3994 1.51988 0
M  V30 5639 C 539.666 -0.00727973 1.89199 0
M  V30 5640 O 539.009 -0.989521 1.54771 0
M  V30 5641 C 539.071 2.21026 2.83527 0
M  V30 5642 C 538.735 3.69633 2.68738 0
M  V30 5643 C 539.732 4.62665 2.37143 0
M  V30 5644 C 537.417 4.13244 2.85542 0
M  V30 5645 C 539.411 5.97291 2.22536 0
M  V30 5646 C 537.098 5.47945 2.70554 0
M  V30 5647 C 538.096 6.39783 2.39097 0
M  V30 5648 O 537.784 7.72002 2.24204 0
M  V30 5649 H 537.516 0.479795 0.476206 0
M  V30 5650 H 540.07 1.8399 0.913054 0
M  V30 5651 H 538.3 1.71728 3.46477 0
M  V30 5652 H 539.989 2.13594 3.45156 0
M  V30 5653 H 540.755 4.30272 2.2381 0
M  V30 5654 H 536.634 3.42094 3.09019 0
M  V30 5655 H 540.178 6.68939 1.97905 0
M  V30 5656 H 536.075 5.79928 2.83466 0
M  V30 5657 H 536.843 7.8275 2.39258 0
M  V30 5658 N 539.506 -0.963266 1.24736 0
M  V30 5659 C 540.736 -1.73913 1.11524 0
M  V30 5660 C 541.144 -1.86218 -0.334612 0
M  V30 5661 O 540.487 -1.3531 -1.24245 0
M  V30 5662 C 540.549 -3.17501 1.68622 0
M  V30 5663 C 540.213 -3.28655 3.17546 0
M  V30 5664 C 541.21 -3.13637 4.14642 0
M  V30 5665 C 538.895 -3.52753 3.5759 0
M  V30 5666 C 540.889 -3.2255 5.49764 0
M  V30 5667 C 538.576 -3.61303 4.92852 0
M  V30 5668 C 539.574 -3.46214 5.88748 0
M  V30 5669 O 539.262 -3.5443 7.2155 0
M  V30 5670 H 538.994 -0.552057 0.390139 0
M  V30 5671 H 541.548 -1.2177 1.65412 0
M  V30 5672 H 539.778 -3.70969 1.09172 0
M  V30 5673 H 541.467 -3.76914 1.50635 0
M  V30 5674 H 542.233 -2.94899 3.85045 0
M  V30 5675 H 538.112 -3.63561 2.83451 0
M  V30 5676 H 541.656 -3.1069 6.24594 0
M  V30 5677 H 537.553 -3.79556 5.22118 0
M  V30 5678 H 538.321 -3.71116 7.29531 0
M  V30 5679 N 540.985 -1.06182 -1.16461 0
M  V30 5680 C 542.234 -0.772927 -1.86303 0
M  V30 5681 C 542.547 0.703187 -1.82523 0
M  V30 5682 O 543.753 1.10641 -2.47933 0
M  V30 5683 C 542.209 -1.33249 -3.34324 0
M  V30 5684 C 541.817 -2.83876 -3.46581 0
M  V30 5685 C 543.561 -1.12108 -4.09429 0
M  V30 5686 C 541.468 -3.33082 -4.88682 0
M  V30 5687 H 540.398 -0.285452 -0.697878 0
M  V30 5688 H 543.049 -1.28039 -1.31447 0
M  V30 5689 H 541.431 -0.7528 -3.88779 0
M  V30 5690 H 542.605 -3.47786 -3.02293 0
M  V30 5691 H 540.92 -3.03671 -2.84909 0
M  V30 5692 H 543.517 -1.46361 -5.14279 0
M  V30 5693 H 543.86 -0.0593832 -4.16258 0
M  V30 5694 H 544.393 -1.6665 -3.6121 0
M  V30 5695 H 541.132 -4.38726 -4.87032 0
M  V30 5696 H 540.652 -2.73919 -5.33599 0
M  V30 5697 H 542.331 -3.28344 -5.57494 0
M  V30 5698 N 542.463 1.3308 -0.844243 0
M  V30 5699 C 543.703 1.99414 -0.448697 0
M  V30 5700 C 544.067 1.65398 0.975058 0
M  V30 5701 O 545.268 2.24741 1.47461 0
M  V30 5702 C 543.539 3.51081 -0.669089 0
M  V30 5703 S 545.098 4.37241 -0.369564 0
M  V30 5704 H 541.916 0.690736 -0.168538 0
M  V30 5705 H 544.518 1.61977 -1.0947 0
M  V30 5706 H 543.222 3.73326 -1.70457 0
M  V30 5707 H 542.753 3.93399 -0.00913211 0
M  V30 5708 H 544.768 4.89568 0.808552 0
M  V30 5709 N 543.941 0.601185 1.45683 0
M  V30 5710 C 545.189 0.0936957 2.01883 0
M  V30 5711 C 545.51 -1.2779 1.47291 0
M  V30 5712 O 544.78 -1.84279 0.664691 0
M  V30 5713 H 543.36 0.0316466 0.746329 0
M  V30 5714 H 546.022 0.781137 1.78562 0
M  V30 5715 H 545.118 0.0386297 3.12076 0
M  V30 5716 N 545.419 -1.53889 0.339982 0
M  V30 5717 C 546.83 -1.86139 -0.144671 0
M  V30 5718 C 547.181 -1.2613 -1.50285 0
M  V30 5719 O 546.306 -0.573515 -2.08662 0
M  V30 5720 C 546.901 -3.37728 -0.269285 0
M  V30 5721 C 545.46 -3.69868 -0.698168 0
M  V30 5722 C 544.607 -2.76777 0.170249 0
M  V30 5723 H 547.558 -1.48503 0.559704 0
M  V30 5724 H 547.579 -3.64331 -1.0974 0
M  V30 5725 H 547.091 -3.81375 0.719366 0
M  V30 5726 H 545.192 -3.31764 -1.69597 0
M  V30 5727 H 545.305 -4.76582 -0.490533 0
M  V30 5728 H 543.669 -2.52188 -0.356844 0
M  V30 5729 H 544.452 -3.23253 1.15597 0
M  V30 5730 N 546.897 -0.0685191 -1.57451 0
M  V30 5731 C 548.146 0.600898 -1.92541 0
M  V30 5732 C 548.459 1.70967 -0.950239 0
M  V30 5733 O 549.665 2.43844 -1.19384 0
M  V30 5734 C 548.121 1.12019 -3.42023 0
M  V30 5735 C 547.729 0.0426028 -4.4798 0
M  V30 5736 C 549.473 1.76386 -3.86119 0
M  V30 5737 C 547.38 0.575759 -5.88591 0
M  V30 5738 H 546.31 0.228225 -0.71863 0
M  V30 5739 H 548.961 -0.140223 -1.82963 0
M  V30 5740 H 547.343 1.91418 -3.46663 0
M  V30 5741 H 548.517 -0.73182 -4.54952 0
M  V30 5742 H 546.832 -0.504642 -4.13331 0
M  V30 5743 H 549.429 2.17302 -4.88553 0
M  V30 5744 H 549.772 2.62255 -3.23308 0
M  V30 5745 H 550.305 1.03615 -3.84069 0
M  V30 5746 H 547.044 -0.245691 -6.55039 0
M  V30 5747 H 546.564 1.31778 -5.85145 0
M  V30 5748 H 548.243 1.0532 -6.3837 0
M  V30 5749 N 548.375 1.56261 0.205012 0
M  V30 5750 C 549.786 1.70056 0.770574 0
M  V30 5751 C 550.137 0.673398 1.84282 0
M  V30 5752 O 549.262 -0.172196 2.15714 0
M  V30 5753 C 549.857 3.08316 1.40451 0
M  V30 5754 C 548.416 3.2391 1.91727 0
M  V30 5755 C 547.563 2.66001 0.783516 0
M  V30 5756 H 550.514 1.58688 -0.019911 0
M  V30 5757 H 550.535 3.05094 2.27371 0
M  V30 5758 H 550.047 3.83053 0.623882 0
M  V30 5759 H 548.148 2.54072 2.7254 0
M  V30 5760 H 548.261 4.3131 2.08588 0
M  V30 5761 H 546.625 2.24915 1.19521 0
M  V30 5762 H 547.408 3.43297 0.0152883 0
M  V30 5763 N 549.853 -0.472356 1.50355 0
M  V30 5764 C 551.1 -1.22453 1.61281 0
M  V30 5765 C 551.428 -1.91972 0.31256 0
M  V30 5766 O 550.683 -1.82696 -0.701475 0
M  V30 5767 C 550.982 -2.29257 2.74182 0
M  V30 5768 C 550.648 -1.76999 4.14708 0
M  V30 5769 C 549.31 -1.62467 4.52944 0
M  V30 5770 C 551.662 -1.38215 5.0254 0
M  V30 5771 C 548.99 -1.07574 5.76754 0
M  V30 5772 C 551.342 -0.847638 6.26895 0
M  V30 5773 C 550.006 -0.688946 6.63935 0
M  V30 5774 H 549.276 -0.448087 0.590168 0
M  V30 5775 H 551.923 -0.520744 1.84284 0
M  V30 5776 H 550.228 -3.05538 2.45263 0
M  V30 5777 H 551.925 -2.87212 2.7984 0
M  V30 5778 H 548.515 -1.89276 3.84542 0
M  V30 5779 H 552.699 -1.48276 4.73633 0
M  V30 5780 H 547.955 -0.940237 6.04127 0
M  V30 5781 H 552.129 -0.538455 6.94315 0
M  V30 5782 H 549.756 -0.261435 7.5975 0
M  V30 5783 N 551.331 -1.39911 -0.725443 0
M  V30 5784 C 552.264 -1.33788 -1.84867 0
M  V30 5785 C 553.242 -0.209907 -1.61239 0
M  V30 5786 O 554.426 -0.391943 -1.8438 0
M  V30 5787 C 551.553 -1.07975 -3.21028 0
M  V30 5788 C 550.599 -2.23092 -3.635 0
M  V30 5789 S 551.432 -3.85431 -3.71757 0
M  V30 5790 C 552.588 -3.61862 -5.10692 0
M  V30 5791 H 552.821 -2.28848 -1.89779 0
M  V30 5792 H 550.354 -1.26079 -0.891254 0
M  V30 5793 H 552.312 -0.937669 -3.99647 0
M  V30 5794 H 550.973 -0.145865 -3.13761 0
M  V30 5795 H 550.166 -2.00647 -4.62338 0
M  V30 5796 H 549.768 -2.33553 -2.92112 0
M  V30 5797 H 552.06 -3.19719 -5.97316 0
M  V30 5798 H 553.003 -4.60196 -5.38169 0
M  V30 5799 H 553.411 -2.95757 -4.8082 0
M  V30 5800 N 552.809 0.956637 -1.25245 0
M  V30 5801 C 554.225 1.22733 -1.02023 0
M  V30 5802 C 554.425 1.99761 0.264186 0
M  V30 5803 O 553.481 2.32814 0.977436 0
M  V30 5804 C 554.794 2.00367 -2.24217 0
M  V30 5805 C 556.342 2.13418 -2.28958 0
M  V30 5806 C 556.817 2.9445 -3.50803 0
M  V30 5807 N 558.308 3.02029 -3.51187 0
M  V30 5808 C 559.043 3.65116 -4.42129 0
M  V30 5809 N 558.539 4.2983 -5.43339 0
M  V30 5810 N 560.332 3.62237 -4.29815 0
M  V30 5811 H 552.483 0.441282 -2.07765 0
M  V30 5812 H 554.746 0.257686 -0.912306 0
M  V30 5813 H 554.452 1.51165 -3.17556 0
M  V30 5814 H 554.326 3.01077 -2.27228 0
M  V30 5815 H 556.713 2.61819 -1.36143 0
M  V30 5816 H 556.794 1.1202 -2.29968 0
M  V30 5817 H 556.438 2.46741 -4.43939 0
M  V30 5818 H 556.368 3.9607 -3.47039 0
M  V30 5819 H 558.859 2.56007 -2.77973 0
M  V30 5820 H 559.172 4.75819 -6.08947 0
M  V30 5821 H 557.517 4.28465 -5.47214 0
M  V30 5822 H 560.708 3.10863 -3.49974 0
M  V30 5823 H 560.881 4.11117 -5.00886 0
M  V30 5824 N 554.287 1.06798 1.15896 0
M  V30 5825 C 555.22 0.627503 2.19403 0
M  V30 5826 C 556.198 -0.352352 1.58736 0
M  V30 5827 O 557.382 -0.260111 1.86697 0
M  V30 5828 C 554.509 -0.079356 3.38607 0
M  V30 5829 C 553.555 0.858057 4.17779 0
M  V30 5830 S 554.388 2.35605 4.80885 0
M  V30 5831 C 555.544 1.66083 6.03463 0
M  V30 5832 H 555.777 1.50441 2.56427 0
M  V30 5833 H 553.31 0.881427 1.26768 0
M  V30 5834 H 555.268 -0.48095 4.07673 0
M  V30 5835 H 553.929 -0.932524 2.99938 0
M  V30 5836 H 553.122 0.310108 5.03045 0
M  V30 5837 H 552.724 1.19977 3.54234 0
M  V30 5838 H 555.016 0.969337 6.7053 0
M  V30 5839 H 555.959 2.49159 6.62816 0
M  V30 5840 H 556.367 1.14122 5.52844 0
M  V30 5841 N 555.766 -1.3263 0.851289 0
M  V30 5842 C 556.698 -2.27824 0.250757 0
M  V30 5843 C 557.711 -1.52285 -0.575598 0
M  V30 5844 O 558.9 -1.73946 -0.400638 0
M  V30 5845 C 556 -3.3232 -0.664571 0
M  V30 5846 C 555.173 -4.37221 0.125187 0
M  V30 5847 C 554.232 -5.21314 -0.715385 0
M  V30 5848 O 553.258 -5.69002 -0.150111 0
M  V30 5849 N 554.46 -5.43823 -2.03069 0
M  V30 5850 H 557.225 -2.79997 1.06873 0
M  V30 5851 H 554.786 -1.45455 0.710943 0
M  V30 5852 H 556.778 -3.85486 -1.23216 0
M  V30 5853 H 555.348 -2.80331 -1.38323 0
M  V30 5854 H 554.568 -3.84384 0.874199 0
M  V30 5855 H 555.856 -5.04399 0.667774 0
M  V30 5856 H 555.254 -5.06803 -2.51332 0
M  V30 5857 H 553.811 -5.99998 -2.54648 0
M  V30 5858 N 557.244 -0.608902 -1.45362 0
M  V30 5859 C 558.194 0.130616 -2.27626 0
M  V30 5860 C 559.178 0.837323 -1.37396 0
M  V30 5861 O 560.37 0.727096 -1.61376 0
M  V30 5862 C 557.499 1.12646 -3.24293 0
M  V30 5863 C 556.585 0.42052 -4.2201 0
M  V30 5864 N 556.976 -0.538569 -5.02925 0
M  V30 5865 C 555.274 0.667901 -4.40971 0
M  V30 5866 C 555.975 -0.953625 -5.7383 0
M  V30 5867 N 554.951 -0.297097 -5.42788 0
M  V30 5868 H 558.753 -0.605996 -2.87585 0
M  V30 5869 H 556.267 -0.432672 -1.5653 0
M  V30 5870 H 558.264 1.67066 -3.81961 0
M  V30 5871 H 556.924 1.86361 -2.65894 0
M  V30 5872 H 557.935 -0.915375 -5.09746 0
M  V30 5873 H 554.612 1.38963 -3.93695 0
M  V30 5874 H 556.002 -1.74473 -6.48852 0
M  V30 5875 N 558.722 1.53707 -0.348139 0
M  V30 5876 C 559.999 1.93247 0.302475 0
M  V30 5877 C 560.379 1.28012 1.67857 0
M  V30 5878 O 559.727 0.43274 2.24365 0
M  V30 5879 C 559.937 3.47031 0.370159 0
M  V30 5880 C 561.285 4.20066 0.61882 0
M  V30 5881 O 562.309 3.53319 0.452087 0
M  V30 5882 O 561.168 5.38318 0.94215 0
M  V30 5883 H 558.262 0.807736 0.177458 0
M  V30 5884 H 560.808 1.64927 -0.399651 0
M  V30 5885 H 559.58 3.86745 -0.59534 0
M  V30 5886 H 559.203 3.81532 1.11888 0
M  V30 5887 N 560.2 0.0768682 1.57412 0
M  V30 5888 C 561.163 -0.873949 2.11884 0
M  V30 5889 C 562.163 -1.22301 1.04398 0
M  V30 5890 O 563.353 -1.15545 1.30365 0
M  V30 5891 C 560.485 -2.17575 2.62438 0
M  V30 5892 H 561.678 -0.401278 2.97203 0
M  V30 5893 H 559.231 -0.171904 1.55352 0
M  V30 5894 H 559.966 -2.69368 1.80587 0
M  V30 5895 H 559.751 -1.93534 3.41009 0
M  V30 5896 H 561.241 -2.85631 3.04639 0
M  V30 5897 N 561.678 -1.56367 -0.196722 0
M  V30 5898 C 562.608 -1.97442 -1.24655 0
M  V30 5899 C 563.589 -0.846147 -1.47561 0
M  V30 5900 O 564.774 -1.11035 -1.59326 0
M  V30 5901 C 561.904 -2.31253 -2.59112 0
M  V30 5902 C 560.858 -3.46804 -2.50821 0
M  V30 5903 C 560.184 -3.66286 -3.89536 0
M  V30 5904 C 561.484 -4.8104 -2.03465 0
M  V30 5905 H 563.178 -2.85388 -0.905216 0
M  V30 5906 H 560.724 -1.37304 -0.434002 0
M  V30 5907 H 562.677 -2.58583 -3.32736 0
M  V30 5908 H 561.401 -1.40188 -2.94983 0
M  V30 5909 H 560.06 -3.19563 -1.79653 0
M  V30 5910 H 559.708 -2.72555 -4.22756 0
M  V30 5911 H 559.408 -4.4402 -3.84864 0
M  V30 5912 H 560.932 -3.9599 -4.64784 0
M  V30 5913 H 562.346 -5.07411 -2.66846 0
M  V30 5914 H 560.743 -5.62232 -2.09798 0
M  V30 5915 H 561.813 -4.74732 -0.98781 0
M  V30 5916 N 563.156 0.464375 -1.50603 0
M  V30 5917 C 564.103 1.56152 -1.69956 0
M  V30 5918 C 565.073 1.57046 -0.54091 0
M  V30 5919 O 566.258 1.74473 -0.772258 0
M  V30 5920 C 563.398 2.94079 -1.80586 0
M  V30 5921 C 562.511 3.02923 -3.07996 0
M  V30 5922 C 561.646 4.31806 -3.09382 0
M  V30 5923 C 560.685 4.34417 -4.31218 0
M  V30 5924 N 559.822 5.54782 -4.30304 0
M  V30 5925 H 564.662 1.38955 -2.6362 0
M  V30 5926 H 562.199 0.675482 -1.30674 0
M  V30 5927 H 564.157 3.74073 -1.8473 0
M  V30 5928 H 562.787 3.09896 -0.903556 0
M  V30 5929 H 561.839 2.1576 -3.13292 0
M  V30 5930 H 563.151 3.00712 -3.97962 0
M  V30 5931 H 562.305 5.20153 -3.12292 0
M  V30 5932 H 561.044 4.36636 -2.17257 0
M  V30 5933 H 560.049 3.44467 -4.28512 0
M  V30 5934 H 561.274 4.31273 -5.24576 0
M  V30 5935 H 559.22 5.60384 -3.41037 0
M  V30 5936 H 559.137 5.54339 -5.14047 0
M  V30 5937 H 560.405 6.45235 -4.3737 0
M  V30 5938 N 564.634 1.40294 0.718013 0
M  V30 5939 C 565.582 1.40536 1.85344 0
M  V30 5940 C 566.576 0.286192 1.66965 0
M  V30 5941 O 567.782 0.457105 1.74099 0
M  V30 5942 H 564.157 0.439236 0.61039 0
M  V30 5943 H 566.128 2.36275 1.82255 0
M  V30 5944 C 564.877 1.28245 3.23185 0
M  V30 5945 H 564.2 2.1364 3.37932 0
M  V30 5946 H 565.64 1.32474 4.02774 0
M  V30 5947 C 564.099 -0.0075503 3.36899 0
M  V30 5948 O 564.629 -0.971391 3.89778 0
M  V30 5949 N 562.835 -0.0762479 2.905 0
M  V30 5950 H 562.382 0.708819 2.47656 0
M  V30 5951 H 562.34 -0.938846 3.00055 0
M  V30 5952 N 566.112 -0.949982 1.2575 0
M  V30 5953 C 567.042 -2.06483 1.09028 0
M  V30 5954 C 568.023 -1.701 -0.00201532 0
M  V30 5955 O 569.208 -1.93469 0.168383 0
M  V30 5956 C 566.338 -3.39899 0.71316 0
M  V30 5957 C 565.292 -3.90309 1.75621 0
M  V30 5958 C 564.618 -5.20274 1.23365 0
M  V30 5959 C 565.918 -4.16169 3.15596 0
M  V30 5960 H 567.612 -2.20731 2.02283 0
M  V30 5961 H 565.158 -1.06066 0.973964 0
M  V30 5962 H 567.111 -4.17346 0.58309 0
M  V30 5963 H 565.835 -3.25602 -0.255091 0
M  V30 5964 H 564.494 -3.15035 1.8748 0
M  V30 5965 H 564.142 -5.02351 0.255491 0
M  V30 5966 H 563.842 -5.54971 1.93082 0
M  V30 5967 H 565.366 -6.00314 1.11607 0
M  V30 5968 H 566.78 -4.84259 3.06864 0
M  V30 5969 H 565.177 -4.62131 3.82825 0
M  V30 5970 H 566.247 -3.22273 3.6231 0
M  V30 5971 N 567.59 -1.07411 -1.15328 0
M  V30 5972 C 568.838 -0.796073 -1.85761 0
M  V30 5973 C 569.159 0.679864 -1.82764 0
M  V30 5974 O 568.429 1.49242 -1.269 0
M  V30 5975 H 567.009 -0.291495 -0.687779 0
M  V30 5976 H 569.671 -1.35799 -1.39802 0
M  V30 5977 H 568.767 -1.13114 -2.90881 0
M  V30 5978 N 569.068 1.32177 -0.85831 0
M  V30 5979 C 570.317 1.96392 -0.459689 0
M  V30 5980 C 570.63 1.68659 0.990632 0
M  V30 5981 O 571.836 2.26641 1.49485 0
M  V30 5982 C 570.292 3.51542 -0.7711 0
M  V30 5983 C 569.9 3.8813 -2.2374 0
M  V30 5984 C 571.644 4.2221 -0.44038 0
M  V30 5985 C 569.551 5.36341 -2.49183 0
M  V30 5986 H 568.481 0.735007 -0.168169 0
M  V30 5987 H 571.132 1.50518 -1.0496 0
M  V30 5988 H 569.514 3.95846 -0.11058 0
M  V30 5989 H 570.688 3.54824 -2.94001 0
M  V30 5990 H 569.003 3.30497 -2.533 0
M  V30 5991 H 571.6 5.31234 -0.607855 0
M  V30 5992 H 571.943 4.11683 0.618291 0
M  V30 5993 H 572.476 3.83502 -1.05695 0
M  V30 5994 H 569.215 5.51892 -3.53689 0
M  V30 5995 H 568.735 5.7104 -1.83504 0
M  V30 5996 H 570.414 6.03466 -2.33318 0
M  V30 5997 N 570.547 0.616602 1.45037 0
M  V30 5998 C 571.497 -0.118543 2.27692 0
M  V30 5999 C 572.481 -0.830025 1.37838 0
M  V30 6000 O 573.673 -0.718528 1.6176 0
M  V30 6001 C 570.802 -1.10924 3.24886 0
M  V30 6002 C 569.888 -0.398134 4.22227 0
M  V30 6003 N 570.279 0.565233 5.02632 0
M  V30 6004 C 568.577 -0.644506 4.41319 0
M  V30 6005 C 569.278 0.984043 5.73316 0
M  V30 6006 N 568.254 0.325879 5.42622 0
M  V30 6007 H 572.056 0.621239 2.87259 0
M  V30 6008 H 569.57 0.440968 1.56299 0
M  V30 6009 H 571.567 -1.65038 3.82842 0
M  V30 6010 H 570.227 -1.84948 2.66879 0
M  V30 6011 H 571.238 0.942395 5.09254 0
M  V30 6012 H 567.915 -1.36873 3.94426 0
M  V30 6013 H 569.305 1.77911 6.47918 0
M  V30 6014 N 572.025 -1.5352 0.356285 0
M  V30 6015 C 572.935 -2.29151 -0.502712 0
M  V30 6016 C 573.951 -1.34753 -1.1008 0
M  V30 6017 O 575.127 -1.67803 -1.11374 0
M  V30 6018 C 572.192 -3.05911 -1.63154 0
M  V30 6019 C 571.253 -4.15958 -1.06194 0
M  V30 6020 C 570.486 -4.8905 -2.13696 0
M  V30 6021 O 570.709 -4.61919 -3.34645 0
M  V30 6022 O 569.643 -5.75202 -1.77275 0
M  V30 6023 H 573.469 -3.03492 0.112466 0
M  V30 6024 H 571.054 -1.4891 0.120942 0
M  V30 6025 H 572.936 -3.53874 -2.28804 0
M  V30 6026 H 571.611 -2.34415 -2.23229 0
M  V30 6027 H 570.518 -3.7227 -0.369603 0
M  V30 6028 H 571.851 -4.89593 -0.505872 0
M  V30 6029 N 573.503 -0.0852151 -1.57369 0
M  V30 6030 C 574.466 0.8627 -2.12344 0
M  V30 6031 C 575.466 1.21746 -1.05046 0
M  V30 6032 O 576.656 1.14852 -1.30976 0
M  V30 6033 C 573.788 2.1618 -2.63589 0
M  V30 6034 H 574.981 0.385511 -2.97412 0
M  V30 6035 H 572.534 0.163663 -1.55441 0
M  V30 6036 H 573.269 2.68406 -1.82013 0
M  V30 6037 H 573.054 1.91723 -3.4203 0
M  V30 6038 H 574.544 2.84011 -3.06149 0
M  V30 6039 N 574.981 1.5647 0.188427 0
M  V30 6040 C 576.397 1.50204 0.539532 0
M  V30 6041 C 576.597 0.78644 1.85519 0
M  V30 6042 O 575.653 0.339714 2.50204 0
M  V30 6043 C 576.966 2.94893 0.588103 0
M  V30 6044 C 578.514 3.05602 0.67648 0
M  V30 6045 C 578.989 4.51716 0.756101 0
M  V30 6046 N 580.48 4.55894 0.819451 0
M  V30 6047 C 581.215 5.66272 0.90134 0
M  V30 6048 N 580.711 6.86323 0.945118 0
M  V30 6049 N 582.504 5.54201 0.939043 0
M  V30 6050 H 574.655 2.01406 -0.674493 0
M  V30 6051 H 576.918 0.916828 -0.241103 0
M  V30 6052 H 576.624 3.50334 -0.309633 0
M  V30 6053 H 576.498 3.4861 1.44051 0
M  V30 6054 H 578.885 2.50206 1.56465 0
M  V30 6055 H 578.966 2.54999 -0.202262 0
M  V30 6056 H 578.61 5.07739 -0.12774 0
M  V30 6057 H 578.54 5.00058 1.65074 0
M  V30 6058 H 581.031 3.69452 0.794594 0
M  V30 6059 H 581.344 7.66194 1.0083 0
M  V30 6060 H 579.689 6.88968 0.913683 0
M  V30 6061 H 582.88 4.59333 0.901725 0
M  V30 6062 H 583.053 6.40247 0.999402 0
M  V30 6063 N 576.459 -0.456382 1.50847 0
M  V30 6064 C 577.708 -1.2042 1.61808 0
M  V30 6065 C 578.021 -1.9278 0.330932 0
M  V30 6066 O 579.227 -2.69612 0.319643 0
M  V30 6067 C 577.683 -2.18891 2.85683 0
M  V30 6068 C 577.291 -1.52267 4.2133 0
M  V30 6069 C 579.035 -2.94224 3.05994 0
M  V30 6070 C 576.942 -2.4911 5.36375 0
M  V30 6071 H 575.872 -0.453177 0.602616 0
M  V30 6072 H 578.523 -0.473144 1.77295 0
M  V30 6073 H 576.905 -2.95351 2.63787 0
M  V30 6074 H 578.079 -0.814949 4.53536 0
M  V30 6075 H 576.394 -0.891594 4.06743 0
M  V30 6076 H 578.991 -3.66732 3.89117 0
M  V30 6077 H 579.334 -3.54469 2.18306 0
M  V30 6078 H 579.867 -2.24874 3.28141 0
M  V30 6079 H 576.606 -1.93582 6.26264 0
M  V30 6080 H 576.126 -3.17991 5.08569 0
M  V30 6081 H 577.805 -3.10637 5.67551 0
M  V30 6082 N 577.937 -1.40673 -0.710563 0
M  V30 6083 C 578.887 -1.37812 -1.81636 0
M  V30 6084 C 579.871 -0.254853 -1.58869 0
M  V30 6085 O 581.063 -0.494356 -1.69956 0
M  V30 6086 C 578.192 -1.24802 -3.19811 0
M  V30 6087 C 577.278 -2.41931 -3.48325 0
M  V30 6088 N 577.669 -3.67411 -3.47625 0
M  V30 6089 C 575.967 -2.35419 -3.78806 0
M  V30 6090 C 576.668 -4.45008 -3.74623 0
M  V30 6091 N 575.644 -3.74916 -3.93623 0
M  V30 6092 H 579.446 -2.32766 -1.79436 0
M  V30 6093 H 576.96 -1.34516 -0.909909 0
M  V30 6094 H 578.957 -1.20835 -3.99004 0
M  V30 6095 H 577.617 -0.308202 -3.23234 0
M  V30 6096 H 578.628 -4.00503 -3.28356 0
M  V30 6097 H 575.305 -1.4983 -3.89689 0
M  V30 6098 H 576.695 -5.53884 -3.80344 0
M  V30 6099 N 579.415 0.9433 -1.26252 0
M  V30 6100 C 580.645 1.72117 -1.14277 0
M  V30 6101 C 581.053 1.86726 0.304944 0
M  V30 6102 O 580.396 1.3727 1.22076 0
M  V30 6103 C 580.458 3.14778 -1.73651 0
M  V30 6104 C 580.122 3.23561 -3.22734 0
M  V30 6105 C 581.119 3.07001 -4.19579 0
M  V30 6106 C 578.804 3.47019 -3.63157 0
M  V30 6107 C 580.798 3.13763 -5.54826 0
M  V30 6108 C 578.485 3.53416 -4.98538 0
M  V30 6109 C 579.483 3.36804 -5.94182 0
M  V30 6110 O 579.171 3.42906 -7.27098 0
M  V30 6111 H 578.903 0.545781 -0.398873 0
M  V30 6112 H 581.457 1.19123 -1.67328 0
M  V30 6113 H 579.687 3.69186 -1.1506 0
M  V30 6114 H 581.376 3.74469 -1.56613 0
M  V30 6115 H 582.142 2.88736 -3.89688 0
M  V30 6116 H 578.021 3.59006 -2.89199 0
M  V30 6117 H 581.565 3.00714 -6.29458 0
M  V30 6118 H 577.462 3.71201 -5.28091 0
M  V30 6119 H 578.23 3.59463 -7.35342 0
M  V30 6120 N 580.893 1.08022 1.14757 0
M  V30 6121 C 581.803 0.718292 2.23333 0
M  V30 6122 C 582.819 -0.273477 1.71837 0
M  V30 6123 O 583.995 -0.118406 2.01052 0
M  V30 6124 C 581.06 0.128855 3.4646 0
M  V30 6125 C 580.121 1.17473 4.12915 0
M  V30 6126 C 579.354 0.61333 5.30164 0
M  V30 6127 O 579.577 -0.568458 5.6756 0
M  V30 6128 O 578.511 1.3615 5.86299 0
M  V30 6129 H 582.337 1.62394 2.56636 0
M  V30 6130 H 579.922 0.853628 1.22611 0
M  V30 6131 H 581.804 -0.197249 4.20938 0
M  V30 6132 H 580.479 -0.750014 3.14891 0
M  V30 6133 H 579.386 1.5533 3.40328 0
M  V30 6134 H 580.719 2.02574 4.48581 0
M  V30 6135 N 582.371 -1.3172 0.865308 0
M  V30 6136 C 583.617 -1.97168 0.474633 0
M  V30 6137 C 583.95 -1.68263 -0.969604 0
M  V30 6138 O 583.225 -0.976588 -1.68205 0
M  V30 6139 C 583.508 -3.52689 0.726808 0
M  V30 6140 C 583.361 -3.91185 2.22024 0
M  V30 6141 C 584.68 -4.39689 0.190201 0
M  V30 6142 H 581.799 -0.716185 0.17392 0
M  V30 6143 H 584.441 -1.55925 1.08569 0
M  V30 6144 H 582.591 -3.8795 0.206705 0
M  V30 6145 H 584.263 -3.66049 2.80724 0
M  V30 6146 H 582.506 -3.3996 2.69462 0
M  V30 6147 H 583.177 -4.99604 2.34735 0
M  V30 6148 H 585.653 -4.11225 0.635103 0
M  V30 6149 H 584.529 -5.47469 0.396132 0
M  V30 6150 H 584.79 -4.32683 -0.907625 0
M  V30 6151 N 583.85 -0.624285 -1.44708 0
M  V30 6152 C 585.096 -0.126051 -2.02107 0
M  V30 6153 C 585.425 1.2496 -1.49048 0
M  V30 6154 O 584.68 1.84163 -0.662005 0
M  V30 6155 C 584.979 -0.0546353 -3.57358 0
M  V30 6156 C 584.644 -1.36815 -4.29642 0
M  V30 6157 C 583.307 -1.72792 -4.49106 0
M  V30 6158 C 585.659 -2.23549 -4.70824 0
M  V30 6159 C 582.986 -2.95222 -5.07012 0
M  V30 6160 C 585.339 -3.45243 -5.30085 0
M  V30 6161 C 584.003 -3.81452 -5.47769 0
M  V30 6162 H 583.273 -0.0461252 -0.739563 0
M  V30 6163 H 585.92 -0.809236 -1.73562 0
M  V30 6164 H 584.225 0.711891 -3.85278 0
M  V30 6165 H 585.922 0.347282 -3.99493 0
M  V30 6166 H 582.512 -1.07817 -4.14817 0
M  V30 6167 H 586.696 -1.9705 -4.55505 0
M  V30 6168 H 581.952 -3.23361 -5.18891 0
M  V30 6169 H 586.125 -4.12689 -5.60946 0
M  V30 6170 H 583.753 -4.76403 -5.92405 0
M  V30 6171 N 585.328 1.53329 -0.364422 0
M  V30 6172 C 586.576 2.00842 0.225189 0
M  V30 6173 C 586.897 1.25345 1.49378 0
M  V30 6174 O 586.167 0.366396 1.92443 0
M  V30 6175 H 584.747 0.742009 0.0862027 0
M  V30 6176 H 587.409 1.8863 -0.490389 0
M  V30 6177 H 586.505 3.08795 0.452987 0
M  V30 6178 N 586.806 0.0935595 1.57322 0
M  V30 6179 C 588.217 -0.435807 1.81542 0
M  V30 6180 C 588.568 -1.68263 1.00907 0
M  V30 6181 O 587.693 -2.15087 0.237983 0
M  V30 6182 C 588.288 -0.797436 3.29282 0
M  V30 6183 C 586.847 -1.27155 3.54272 0
M  V30 6184 C 585.994 -0.267455 2.76007 0
M  V30 6185 H 588.945 0.31902 1.5546 0
M  V30 6186 H 588.966 -1.6571 3.42521 0
M  V30 6187 H 588.478 0.110206 3.87943 0
M  V30 6188 H 586.579 -2.19696 3.00939 0
M  V30 6189 H 586.692 -1.23445 4.62923 0
M  V30 6190 H 585.056 -0.749282 2.43429 0
M  V30 6191 H 585.839 0.632839 3.37417 0
M  V30 6192 N 588.284 -1.56567 -0.180126 0
M  V30 6193 C 589.561 -1.7235 -0.924931 0
M  V30 6194 C 589.941 -0.652523 -2.00762 0
M  V30 6195 O 589.289 0.334115 -2.26044 0
M  V30 6196 C 589.499 -3.1523 -1.49771 0
M  V30 6197 C 590.847 -3.75921 -1.97405 0
M  V30 6198 O 591.871 -3.18452 -1.59583 0
M  V30 6199 O 590.73 -4.7681 -2.67048 0
M  V30 6200 H 587.824 -0.703502 -0.434758 0
M  V30 6201 H 590.37 -1.6886 -0.168647 0
M  V30 6202 H 589.142 -3.84656 -0.718027 0
M  V30 6203 H 588.765 -3.23009 -2.31842 0
M  V30 6204 N 589.762 0.448376 -1.51087 0
M  V30 6205 C 590.692 1.55102 -1.74544 0
M  V30 6206 C 591.673 1.59357 -0.594932 0
M  V30 6207 O 592.858 1.75261 -0.836491 0
M  V30 6208 C 589.988 2.93268 -1.86041 0
M  V30 6209 C 588.942 3.03877 -3.01402 0
M  V30 6210 C 588.268 4.43914 -2.98068 0
M  V30 6211 C 589.568 2.7898 -4.41551 0
M  V30 6212 H 591.262 1.35724 -2.66869 0
M  V30 6213 H 588.808 0.651498 -1.28419 0
M  V30 6214 H 590.761 3.70356 -2.01034 0
M  V30 6215 H 589.485 3.13853 -0.903548 0
M  V30 6216 H 588.144 2.29227 -2.86096 0
M  V30 6217 H 587.792 4.6145 -2.00182 0
M  V30 6218 H 587.492 4.51944 -3.75527 0
M  V30 6219 H 589.016 5.22991 -3.1514 0
M  V30 6220 H 590.43 3.45805 -4.57265 0
M  V30 6221 H 588.827 2.98431 -5.20633 0
M  V30 6222 H 589.897 1.74663 -4.5235 0
M  V30 6223 N 591.24 1.41047 0.703093 0
M  V30 6224 C 592.487 1.4 1.46309 0
M  V30 6225 C 592.815 0.00654574 1.94499 0
M  V30 6226 O 592.07 -0.980255 1.6938 0
M  V30 6227 C 592.369 2.34686 2.6955 0
M  V30 6228 C 592.035 3.81684 2.40058 0
M  V30 6229 C 590.697 4.21731 2.31725 0
M  V30 6230 C 593.049 4.74525 2.15581 0
M  V30 6231 C 590.377 5.52637 1.97001 0
M  V30 6232 C 592.729 6.05744 1.82366 0
M  V30 6233 C 591.393 6.44819 1.72524 0
M  V30 6234 H 590.663 0.512295 0.535382 0
M  V30 6235 H 593.31 1.73792 0.804275 0
M  V30 6236 H 591.615 1.94122 3.40329 0
M  V30 6237 H 593.312 2.31152 3.27673 0
M  V30 6238 H 589.902 3.49963 2.47435 0
M  V30 6239 H 594.086 4.44395 2.20968 0
M  V30 6240 H 589.342 5.81802 1.87928 0
M  V30 6241 H 593.516 6.77189 1.62444 0
M  V30 6242 H 591.143 7.46168 1.45385 0
M  V30 6243 N 592.718 -0.936591 1.26751 0
M  V30 6244 C 593.681 -2.01752 1.08761 0
M  V30 6245 C 594.681 -1.60763 0.0344435 0
M  V30 6246 O 595.871 -1.71963 0.278258 0
M  V30 6247 C 593.003 -3.34543 0.655271 0
M  V30 6248 H 594.196 -2.19143 2.04735 0
M  V30 6249 H 591.749 -1.11618 1.09413 0
M  V30 6250 H 592.484 -3.22851 -0.30626 0
M  V30 6251 H 592.269 -3.65647 1.41578 0
M  V30 6252 H 593.759 -4.13944 0.551378 0
M  V30 6253 N 594.196 -1.08629 -1.14182 0
M  V30 6254 C 595.106 -0.730126 -2.22949 0
M  V30 6255 C 596.122 0.26436 -1.7198 0
M  V30 6256 O 597.298 0.107742 -2.01112 0
M  V30 6257 C 594.363 -0.147227 -3.46387 0
M  V30 6258 C 593.424 -1.19662 -4.12286 0
M  V30 6259 C 592.657 -0.641437 -5.29831 0
M  V30 6260 O 592.88 0.538351 -5.67854 0
M  V30 6261 O 591.814 -1.39257 -5.85569 0
M  V30 6262 H 595.64 -1.63753 -2.55771 0
M  V30 6263 H 593.225 -0.860118 -1.22157 0
M  V30 6264 H 595.107 0.174923 -4.21037 0
M  V30 6265 H 593.782 0.733304 -3.15285 0
M  V30 6266 H 592.689 -1.57133 -3.395 0
M  V30 6267 H 594.022 -2.0495 -4.475 0
M  V30 6268 O 595.713 1.26359 -1.00577 0
M  V30 6269 H 596.404 1.82071 -0.661052 0
M  V30 END ATOM
M  V30 BEGIN BOND
M  V30 END BOND
M  V30 END CTAB
M  END
$$$$
